data_POSCAR
  _audit_creation_date              2014-09-24
  _audit_creation_method            'ToBaCCo'
  _symmetry_space_group_name_H-M    'P1'
  _symmetry_Int_Tables_number       1
  _symmetry_cell_setting            triclinic
  loop_
  _symmetry_equiv_pos_as_xyz
 x,y,z
_cell_length_a 47.3521
_cell_length_b 47.4062
_cell_length_c 35.7192
_cell_angle_alpha 90.097100
_cell_angle_beta 89.912400
_cell_angle_gamma 86.600400
loop_
  _atom_site_label
  _atom_site_type_symbol
  _atom_site_fract_x
  _atom_site_fract_y
  _atom_site_fract_z
C1 C -0.08580 0.29013 0.03423
 C2 C -0.10102 0.29069 0.00033
 C3 C -0.08756 0.29171 -0.03478
 C4 C -0.05794 0.29503 -0.03575
 C5 C -0.04209 0.29386 -0.00218
 C6 C -0.05602 0.29283 0.03286
 C7 C -0.03985 0.29628 0.06547
 C8 C -0.01047 0.29556 0.06397
 C9 C 0.00391 0.29221 0.02969
 C10 C -0.01203 0.29343 -0.00376
 C11 C -0.04384 0.30125 -0.06918
 C12 C -0.01450 0.30058 -0.07073
 C13 C 0.00191 0.29379 -0.03887
 C14 C 0.03185 0.28912 -0.04080
 C15 C 0.04717 0.28729 -0.00705
 C16 C 0.03374 0.28838 0.02794
 H17 H -0.04975 0.29954 0.09256
 H18 H 0.00089 0.29771 0.08999
 H19 H -0.05542 0.30649 -0.09458
 H20 H -0.00478 0.30536 -0.09723
 H21 H -0.12325 0.28647 0.00114
 H22 H 0.06978 0.28220 -0.00773
 C23 C 0.46685 0.76351 0.53919
 C24 C 0.45200 0.76393 0.50529
 C25 C 0.46547 0.76792 0.47088
 C26 C 0.49516 0.77070 0.47029
 C27 C 0.51019 0.77247 0.50448
 C28 C 0.49598 0.76901 0.53904
 C29 C 0.51124 0.77128 0.57250
 C30 C 0.53994 0.77598 0.57215
 C31 C 0.55446 0.77988 0.53837
 C32 C 0.53956 0.77755 0.50408
 C33 C 0.51039 0.77080 0.43650
 C34 C 0.53927 0.77481 0.43609
 C35 C 0.55408 0.77955 0.46940
 C36 C 0.58322 0.78511 0.46919
 C37 C 0.59720 0.78823 0.50332
 C38 C 0.58360 0.78534 0.53779
 H39 H 0.50116 0.76968 0.59952
 H40 H 0.55051 0.77633 0.59889
 H41 H 0.50025 0.76715 0.40996
 H42 H 0.54980 0.77389 0.40923
 H43 H 0.42947 0.76100 0.50574
 H44 H 0.61934 0.79295 0.50308
 C45 C 0.96532 0.70342 0.03547
 C46 C 0.95203 0.70507 0.00043
 C47 C 0.96751 0.70533 -0.03300
 C48 C 0.99746 0.70267 -0.03126
 C49 C 1.01132 0.70379 0.00381
 C50 C 0.99527 0.70366 0.03736
 C51 C 1.00965 0.70398 0.07169
 C52 C 1.03896 0.70488 0.07301
 C53 C 1.05517 0.70760 0.04021
 C54 C 1.04130 0.70549 0.00518
 C55 C 1.01397 0.69825 -0.06362
 C56 C 1.04322 0.69891 -0.06219
 C57 C 1.05716 0.70504 -0.02858
 C58 C 1.08674 0.70884 -0.02769
 C59 C 1.10011 0.71024 0.00735
 C60 C 1.08497 0.71078 0.04136
 H61 H 0.99850 0.70376 0.09808
 H62 H 1.04870 0.70325 0.10031
 H63 H 1.00437 0.69402 -0.09037
 H64 H 1.05482 0.69458 -0.08787
 H65 H 0.92912 0.70672 -0.00069
 H66 H 1.12230 0.71464 0.00799
 C67 C 0.41750 0.23449 0.46011
 C68 C 0.40204 0.23222 0.49328
 C69 C 0.41511 0.23223 0.52844
 C70 C 0.44473 0.23481 0.53058
 C71 C 0.46088 0.23569 0.49721
 C72 C 0.44717 0.23659 0.46194
 C73 C 0.46343 0.24041 0.42960
 C74 C 0.49275 0.24015 0.43141
 C75 C 0.50700 0.23615 0.46565
 C76 C 0.49087 0.23568 0.49909
 C77 C 0.45857 0.23740 0.56509
 C78 C 0.48789 0.23784 0.56694
 C79 C 0.50458 0.23536 0.53438
 C80 C 0.53455 0.23348 0.53595
 C81 C 0.55010 0.23218 0.50254
 C82 C 0.53691 0.23349 0.46750
 H83 H 0.45371 0.24373 0.40247
 H84 H 0.50406 0.24337 0.40560
 H85 H 0.44689 0.23941 0.59109
 H86 H 0.49721 0.24024 0.59427
 H87 H 0.37948 0.22953 0.49162
 H88 H 0.57299 0.22954 0.50386
 C89 C 0.73312 0.06056 0.03659
 C90 C 0.72943 0.07518 0.00294
 C91 C 0.73341 0.06194 -0.03202
 C92 C 0.74274 0.03273 -0.03279
 C93 C 0.74645 0.01746 0.00133
 C94 C 0.74141 0.03145 0.03605
 C95 C 0.74500 0.01603 0.06935
 C96 C 0.75225 -0.01271 0.06875
 C97 C 0.75858 -0.02707 0.03499
 C98 C 0.75552 -0.01182 0.00080
 C99 C 0.74992 0.01862 -0.06641
 C100 C 0.75707 -0.01015 -0.06714
 C101 C 0.76061 -0.02589 -0.03395
 C102 C 0.76735 -0.05554 -0.03450
 C103 C 0.76876 -0.07029 -0.00046
 C104 C 0.76586 -0.05662 0.03430
 H105 H 0.74182 0.02581 0.09648
 H106 H 0.75219 -0.02349 0.09534
 H107 H 0.75022 0.02948 -0.09291
 H108 H 0.75934 -0.01972 -0.09447
 H109 H 0.72177 0.09719 0.00432
 H110 H 0.77491 -0.09271 -0.00099
 C111 C 0.21421 0.43944 0.46179
 C112 C 0.20930 0.42565 0.49557
 C113 C 0.21327 0.43847 0.53029
 C114 C 0.22210 0.46652 0.53159
 C115 C 0.22690 0.48113 0.49766
 C116 C 0.22308 0.46754 0.46264
 C117 C 0.22887 0.48223 0.42961
 C118 C 0.23707 0.50992 0.43072
 C119 C 0.24133 0.52370 0.46494
 C120 C 0.23624 0.50917 0.49880
 C121 C 0.22685 0.48017 0.56578
 C122 C 0.23503 0.50783 0.56685
 C123 C 0.24043 0.52261 0.53380
 C124 C 0.24968 0.55054 0.53476
 C125 C 0.25411 0.56461 0.50106
 C126 C 0.25032 0.55170 0.46630
 H127 H 0.22726 0.47254 0.40237
 H128 H 0.24008 0.52033 0.40424
 H129 H 0.22439 0.46970 0.59231
 H130 H 0.23708 0.51742 0.59411
 H131 H 0.20222 0.40430 0.49483
 H132 H 0.26158 0.58580 0.50188
 C133 C 0.27289 0.93721 0.03785
 C134 C 0.27395 0.92085 0.00509
 C135 C 0.27427 0.93302 -0.03083
 C136 C 0.27018 0.96307 -0.03357
 C137 C 0.27023 0.98000 -0.00067
 C138 C 0.27297 0.96700 0.03498
 C139 C 0.27607 0.98413 0.06675
 C140 C 0.27504 1.01344 0.06388
 C141 C 0.27030 1.02680 0.02924
 C142 C 0.26739 1.01005 -0.00335
 C143 C 0.26471 0.97667 -0.06801
 C144 C 0.26186 1.00594 -0.07065
 C145 C 0.26217 1.02325 -0.03863
 C146 C 0.25897 1.05337 -0.04097
 C147 C 0.26334 1.06922 -0.00838
 C148 C 0.26896 1.05651 0.02620
 H149 H 0.27995 0.97501 0.09413
 H150 H 0.27772 1.02560 0.08919
 H151 H 0.26207 0.96488 -0.09354
 H152 H 0.26001 1.01468 -0.09849
 H153 H 0.27569 0.89809 0.00804
 H154 H 0.26110 1.09211 -0.00922
 C155 C 0.75583 0.44223 0.53714
 C156 C 0.75267 0.42806 0.50311
 C157 C 0.75536 0.44174 0.46870
 C158 C 0.76164 0.47055 0.46807
 C159 C 0.76415 0.48541 0.50223
 C160 C 0.76244 0.47097 0.53680
 C161 C 0.76778 0.48562 0.57004
 C162 C 0.77148 0.51450 0.56961
 C163 C 0.76964 0.52991 0.53598
 C164 C 0.76764 0.51496 0.50182
 C165 C 0.76585 0.48485 0.43425
 C166 C 0.76915 0.51380 0.43386
 C167 C 0.76839 0.52955 0.46727
 C168 C 0.76866 0.55941 0.46708
 C169 C 0.76968 0.57397 0.50117
 C170 C 0.77000 0.55977 0.53555
 H171 H 0.76909 0.47490 0.59674
 H172 H 0.77562 0.52463 0.59602
 H173 H 0.76648 0.47385 0.40769
 H174 H 0.77221 0.52370 0.40702
 H175 H 0.74658 0.40636 0.50339
 H176 H 0.76866 0.59688 0.50099
 O177 O 0.23396 0.20801 0.22662
 O178 O 0.21431 0.27115 0.28431
 O179 O 0.18923 0.24257 0.23201
 O180 O 0.25754 0.23553 0.27987
 O181 O 0.27585 0.26393 0.23844
 O182 O 0.20754 0.26889 0.18839
 O183 O 0.23079 0.29852 0.24031
 O184 O 0.25382 0.23555 0.18559
 Cu185 Cu 0.22171 0.23665 0.25990
 Cu186 Cu 0.24367 0.26953 0.20881
 C187 C 0.24809 0.21113 0.19677
 C188 C 0.21933 0.29552 0.27206
 C189 C 0.18668 0.25653 0.20181
 C190 C 0.27823 0.24849 0.26743
 O191 O 0.72660 0.75650 0.25015
 O192 O 0.79052 0.72921 0.19965
 O193 O 0.75620 0.70862 0.24913
 O194 O 0.76076 0.77675 0.20149
 O195 O 0.78722 0.79171 0.24735
 O196 O 0.78373 0.72285 0.29437
 O197 O 0.81735 0.74363 0.24566
 O198 O 0.75340 0.76974 0.29686
 Cu199 Cu 0.75590 0.74124 0.22048
 Cu200 Cu 0.78813 0.75867 0.27556
 C201 C 0.72916 0.76722 0.28247
 C202 C 0.81474 0.73195 0.21397
 C203 C 0.76889 0.70416 0.28007
 C204 C 0.77484 0.79587 0.21611
 O205 O 0.70811 0.23710 0.30159
 O206 O 0.77449 0.24529 0.25061
 O207 O 0.74445 0.27568 0.29903
 O208 O 0.73754 0.20682 0.25345
 O209 O 0.71619 0.22847 0.20552
 O210 O 0.71864 0.29638 0.25439
 O211 O 0.75100 0.26846 0.20583
 O212 O 0.68403 0.25557 0.25365
 Cu213 Cu 0.74367 0.23917 0.28083
 Cu214 Cu 0.71510 0.26452 0.22522
 C215 C 0.68479 0.24436 0.28591
 C216 C 0.77416 0.25829 0.21954
 C217 C 0.73205 0.29768 0.28504
 C218 C 0.72596 0.20610 0.22147
 O219 O 0.28354 0.70391 0.25875
 O220 O 0.28356 0.77325 0.21213
 O221 O 0.31679 0.74606 0.25948
 O222 O 0.25003 0.73186 0.21126
 O223 O 0.22589 0.75204 0.25799
 O224 O 0.29221 0.76431 0.30727
 O225 O 0.25957 0.79267 0.25953
 O226 O 0.25821 0.72310 0.30507
 Cu227 Cu 0.28595 0.73668 0.23079
 Cu228 Cu 0.25663 0.75988 0.28730
 C229 C 0.27087 0.70164 0.28989
 C230 C 0.27124 0.79476 0.22767
 C231 C 0.31573 0.75753 0.29164
 C232 C 0.22655 0.74031 0.22598
 O233 O 0.73727 0.27756 0.70727
 O234 O 0.72935 0.20967 0.75479
 O235 O 0.69982 0.23992 0.70689
 O236 O 0.76696 0.24761 0.75588
 O237 O 0.74450 0.27193 0.80071
 O238 O 0.67660 0.25954 0.75497
 O239 O 0.70931 0.23242 0.80293
 O240 O 0.71238 0.29951 0.75199
 Cu241 Cu 0.73571 0.24149 0.72655
 Cu242 Cu 0.70834 0.26822 0.78224
 C243 C 0.72567 0.30007 0.72109
 C244 C 0.71848 0.20962 0.78729
 C245 C 0.67680 0.24789 0.72294
 C246 C 0.76731 0.26117 0.78657
 O247 O 0.32399 0.72733 0.75835
 O248 O 0.25561 0.72009 0.80592
 O249 O 0.28591 0.69053 0.75674
 O250 O 0.29363 0.75724 0.80785
 O251 O 0.27347 0.78102 0.76086
 O252 O 0.26340 0.71390 0.71133
 O253 O 0.23416 0.74465 0.76073
 O254 O 0.30220 0.75038 0.71206
 Cu255 Cu 0.29195 0.72150 0.78684
 Cu256 Cu 0.26601 0.74983 0.73173
 C257 C 0.32472 0.73956 0.72673
 C258 C 0.23321 0.73156 0.79170
 C259 C 0.27363 0.69080 0.72513
 C260 C 0.28494 0.78046 0.79298
 O261 O 0.22547 0.28685 0.74072
 O262 O 0.23547 0.21812 0.78837
 O263 O 0.26478 0.24553 0.74016
 O264 O 0.19678 0.25924 0.78872
 O265 O 0.17479 0.23916 0.74219
 O266 O 0.24270 0.22509 0.69384
 O267 O 0.21297 0.19781 0.74248
 O268 O 0.20436 0.26615 0.69378
 Cu269 Cu 0.23295 0.25448 0.76909
 Cu270 Cu 0.20656 0.22995 0.71338
 C271 C 0.21326 0.28810 0.70910
 C272 C 0.22543 0.19634 0.77395
 C273 C 0.26519 0.23312 0.70864
 C274 C 0.17418 0.25141 0.77386
 O275 O 0.75573 0.77028 0.70227
 O276 O 0.82323 0.75164 0.74892
 O277 O 0.78956 0.72550 0.70408
 O278 O 0.78902 0.79604 0.74813
 O279 O 0.76691 0.77937 0.79704
 O280 O 0.76513 0.71023 0.75183
 O281 O 0.80055 0.73427 0.79688
 O282 O 0.73242 0.75618 0.75185
 Cu283 Cu 0.79173 0.76240 0.72094
 Cu284 Cu 0.76402 0.74324 0.77926
 C285 C 0.73263 0.76653 0.71906
 C286 C 0.82352 0.74025 0.78106
 C287 C 0.77660 0.70609 0.72001
 C288 C 0.77823 0.79953 0.78055
 C289 C 0.25676 0.10830 0.10565
 C290 C 0.28312 0.11896 0.10780
 C291 C 0.30603 0.10840 0.08653
 C292 C 0.30144 0.08636 0.06140
 C293 C 0.27433 0.07553 0.05795
 C294 C 0.25175 0.08635 0.08076
 O295 O 0.23750 0.12255 0.12656
 C296 C 0.25197 0.14275 0.14200
 C297 C 0.27993 0.14156 0.13119
 C298 C 0.29836 0.16204 0.14127
 C299 C 0.28752 0.18473 0.16326
 C300 C 0.25889 0.18630 0.17515
 C301 C 0.24092 0.16480 0.16480
 H302 H 0.32644 0.11745 0.08828
 H303 H 0.31860 0.07852 0.04341
 H304 H 0.23067 0.07898 0.07763
 H305 H 0.32010 0.16099 0.13172
 H306 H 0.30136 0.20118 0.17098
 H307 H 0.21882 0.16593 0.17278
 C308 C 0.78187 0.61583 0.60831
 C309 C 0.76087 0.61062 0.63359
 C310 C 0.74214 0.58948 0.62848
 C311 C 0.74532 0.57288 0.59607
 C312 C 0.76750 0.57707 0.57022
 C313 C 0.78586 0.59910 0.57637
 O314 O 0.79604 0.63824 0.61711
 C315 C 0.78377 0.64730 0.64870
 C316 C 0.76233 0.63095 0.66014
 C317 C 0.74616 0.63698 0.69195
 C318 C 0.75201 0.66115 0.71251
 C319 C 0.77340 0.67895 0.70064
 C320 C 0.78975 0.67163 0.66847
 H321 H 0.72526 0.58634 0.64823
 H322 H 0.73039 0.55688 0.59089
 H323 H 0.80244 0.60332 0.55659
 H324 H 0.72930 0.62385 0.70026
 H325 H 0.73913 0.66653 0.73686
 H326 H 0.80604 0.68486 0.65851
 C327 C 0.76486 0.88395 0.10194
 C328 C 0.78188 0.89338 0.12988
 C329 C 0.79445 0.91912 0.12784
 C330 C 0.78902 0.93584 0.09589
 C331 C 0.77088 0.92690 0.06694
 C332 C 0.75917 0.90014 0.07010
 O333 O 0.75528 0.85877 0.10881
 C334 C 0.76651 0.85210 0.14181
 C335 C 0.78297 0.87249 0.15605
 C336 C 0.79691 0.86946 0.19023
 C337 C 0.79385 0.84431 0.21032
 C338 C 0.77711 0.82288 0.19594
 C339 C 0.76317 0.82710 0.16120
 H340 H 0.80821 0.92593 0.14983
 H341 H 0.79948 0.95545 0.09332
 H342 H 0.74539 0.89236 0.04873
 H343 H 0.80981 0.88575 0.20092
 H344 H 0.80474 0.84145 0.23680
 H345 H 0.75032 0.81125 0.14923
 C346 C 0.21859 0.37753 0.59820
 C347 C 0.20020 0.38707 0.62592
 C348 C 0.18512 0.41316 0.62404
 C349 C 0.18930 0.43006 0.59240
 C350 C 0.20901 0.42106 0.56421
 C351 C 0.22362 0.39425 0.56719
 O352 O 0.22987 0.35167 0.60427
 C353 C 0.21853 0.34474 0.63668
 C354 C 0.20045 0.36574 0.65140
 C355 C 0.18661 0.36288 0.68551
 C356 C 0.19154 0.33731 0.70501
 C357 C 0.20947 0.31524 0.68969
 C358 C 0.22315 0.31900 0.65511
 H359 H 0.17029 0.42002 0.64577
 H360 H 0.17725 0.45009 0.58977
 H361 H 0.23833 0.38656 0.54573
 H362 H 0.17258 0.37969 0.69668
 H363 H 0.18098 0.33440 0.73153
 H364 H 0.23699 0.30238 0.64302
 C365 C 0.85724 0.28570 0.10595
 C366 C 0.87015 0.26696 0.13072
 C367 C 0.89740 0.25522 0.12543
 C368 C 0.91203 0.26322 0.09336
 C369 C 0.89968 0.28332 0.06758
 C370 C 0.87152 0.29435 0.07419
 O371 O 0.83067 0.29321 0.11513
 C372 C 0.82676 0.27885 0.14639
 C373 C 0.85032 0.26258 0.15724
 C374 C 0.85071 0.24538 0.18874
 C375 C 0.82568 0.24474 0.20973
 C376 C 0.80087 0.26090 0.19872
 C377 C 0.80161 0.27839 0.16667
 H378 H 0.90680 0.23980 0.14473
 H379 H 0.93257 0.25274 0.08796
 H380 H 0.86100 0.30943 0.05536
 H381 H 0.86949 0.23267 0.19661
 H382 H 0.82550 0.23112 0.23403
 H383 H 0.78306 0.29088 0.15737
 C384 C 0.41013 0.76248 0.61399
 C385 C 0.42090 0.74088 0.63642
 C386 C 0.44643 0.72593 0.62880
 C387 C 0.46148 0.73362 0.59684
 C388 C 0.45125 0.75640 0.57385
 C389 C 0.42505 0.77088 0.58259
 O390 O 0.38475 0.77282 0.62482
 C391 C 0.37940 0.75749 0.65479
 C392 C 0.40093 0.73781 0.66330
 C393 C 0.39947 0.71920 0.69322
 C394 C 0.37466 0.72070 0.71495
 C395 C 0.35179 0.74028 0.70609
 C396 C 0.35444 0.75912 0.67571
 H397 H 0.45418 0.70855 0.64632
 H398 H 0.48098 0.72171 0.58974
 H399 H 0.41636 0.78790 0.56512
 H400 H 0.41664 0.70381 0.69931
 H401 H 0.37293 0.70599 0.73788
 H402 H 0.33737 0.77422 0.66808
 C403 C 0.14264 0.71436 0.11235
 C404 C 0.13002 0.73294 0.13768
 C405 C 0.10282 0.74498 0.13293
 C406 C 0.08790 0.73744 0.10086
 C407 C 0.09981 0.71735 0.07463
 C408 C 0.12799 0.70607 0.08066
 O409 O 0.16925 0.70658 0.12102
 C410 C 0.17348 0.72055 0.15260
 C411 C 0.15005 0.73681 0.16411
 C412 C 0.14988 0.75351 0.19613
 C413 C 0.17497 0.75369 0.21695
 C414 C 0.19974 0.73765 0.20528
 C415 C 0.19881 0.72065 0.17267
 H416 H 0.09369 0.76033 0.15263
 H417 H 0.06746 0.74821 0.09586
 H418 H 0.13825 0.69102 0.06144
 H419 H 0.13118 0.76620 0.20457
 H420 H 0.17526 0.76698 0.24162
 H421 H 0.21732 0.70828 0.16284
 C422 C 0.58895 0.24743 0.60968
 C423 C 0.58293 0.22781 0.63643
 C424 C 0.56142 0.20930 0.63212
 C425 C 0.54547 0.21122 0.59897
 C426 C 0.55068 0.23201 0.57162
 C427 C 0.57289 0.25023 0.57717
 O428 O 0.61145 0.26163 0.61774
 C429 C 0.61979 0.25088 0.65040
 C430 C 0.60290 0.23032 0.66336
 C431 C 0.60822 0.21599 0.69686
 C432 C 0.63212 0.22292 0.71749
 C433 C 0.65017 0.24335 0.70385
 C434 C 0.64385 0.25764 0.67003
 H435 H 0.55755 0.19349 0.65303
 H436 H 0.52926 0.19642 0.59440
 H437 H 0.57784 0.26580 0.55638
 H438 H 0.59474 0.19983 0.70647
 H439 H 0.63718 0.21172 0.74326
 H440 H 0.65762 0.27309 0.65900
 C441 C 0.72931 0.12295 0.90236
 C442 C 0.71563 0.11171 0.87243
 C443 C 0.70642 0.08441 0.87267
 C444 C 0.71190 0.06797 0.90485
 C445 C 0.72747 0.07848 0.93549
 C446 C 0.73564 0.10682 0.93404
 O447 O 0.73564 0.14952 0.89721
 C448 C 0.72589 0.15520 0.86315
 C449 C 0.71371 0.13272 0.84648
 C450 C 0.70309 0.13393 0.81012
 C451 C 0.70512 0.15936 0.79033
 C452 C 0.71692 0.18290 0.80754
 C453 C 0.72734 0.18080 0.84445
 H454 H 0.69496 0.07623 0.84922
 H455 H 0.70348 0.04725 0.90611
 H456 H 0.74742 0.11598 0.95651
 H457 H 0.69388 0.11591 0.79737
 H458 H 0.69715 0.16093 0.76196
 H459 H 0.73677 0.19843 0.85793
 C460 C 0.25070 0.61155 0.39674
 C461 C 0.27129 0.60145 0.37213
 C462 C 0.28547 0.57506 0.37625
 C463 C 0.27817 0.55851 0.40701
 C464 C 0.25664 0.56831 0.43237
 C465 C 0.24282 0.59528 0.42707
 O466 O 0.24075 0.63763 0.38901
 C467 C 0.25532 0.64419 0.35882
 C468 C 0.27419 0.62277 0.34718
 C469 C 0.29192 0.62547 0.31646
 C470 C 0.29025 0.65133 0.29715
 C471 C 0.27127 0.67394 0.30904
 C472 C 0.25346 0.67009 0.34027
 H473 H 0.30198 0.56775 0.35696
 H474 H 0.28948 0.53827 0.41148
 H475 H 0.22680 0.60356 0.44650
 H476 H 0.30671 0.60838 0.30787
 H477 H 0.30414 0.65390 0.27345
 H478 H 0.23880 0.68686 0.35019
 C479 C 0.27541 0.87006 0.90556
 C480 C 0.29172 0.87914 0.87666
 C481 C 0.30335 0.90536 0.87689
 C482 C 0.29773 0.92301 0.90798
 C483 C 0.27969 0.91494 0.93766
 C484 C 0.26889 0.88754 0.93624
 O485 O 0.26701 0.84409 0.90048
 C486 C 0.27817 0.83667 0.86753
 C487 C 0.29325 0.85748 0.85154
 C488 C 0.30585 0.85447 0.81638
 C489 C 0.30274 0.82900 0.79699
 C490 C 0.28790 0.80706 0.81341
 C491 C 0.27554 0.81091 0.84923
 H492 H 0.31680 0.91178 0.85430
 H493 H 0.30812 0.94273 0.90922
 H494 H 0.25502 0.88015 0.95774
 H495 H 0.31736 0.87124 0.80414
 H496 H 0.31213 0.82617 0.76947
 H497 H 0.26377 0.79455 0.86205
 C498 C 0.75449 0.38408 0.39592
 C499 C 0.73374 0.39503 0.37225
 C500 C 0.71944 0.42111 0.37828
 C501 C 0.72688 0.43651 0.40998
 C502 C 0.74868 0.42591 0.43432
 C503 C 0.76254 0.39922 0.42719
 O504 O 0.76435 0.35830 0.38638
 C505 C 0.74952 0.35286 0.35601
 C506 C 0.73063 0.37470 0.34603
 C507 C 0.71251 0.37315 0.31560
 C508 C 0.71372 0.34793 0.29486
 C509 C 0.73262 0.32486 0.30513
 C510 C 0.75095 0.32759 0.33600
 H511 H 0.70275 0.42903 0.35973
 H512 H 0.71551 0.45652 0.41589
 H513 H 0.77876 0.39036 0.44582
 H514 H 0.69770 0.39056 0.30840
 H515 H 0.69943 0.34615 0.27145
 H516 H 0.76552 0.31039 0.34471
 C517 C 0.08902 0.28306 0.88720
 C518 C 0.07671 0.26658 0.86087
 C519 C 0.04969 0.25721 0.86501
 C520 C 0.03471 0.26513 0.89763
 C521 C 0.04652 0.28279 0.92520
 C522 C 0.07438 0.29160 0.91953
 O523 O 0.11552 0.28832 0.87898
 C524 C 0.12003 0.27482 0.84678
 C525 C 0.09691 0.26129 0.83436
 C526 C 0.09731 0.24518 0.80179
 C527 C 0.12268 0.24269 0.78137
 C528 C 0.14704 0.25598 0.79402
 C529 C 0.14547 0.27252 0.82708
 H530 H 0.04078 0.24350 0.84444
 H531 H 0.01442 0.25629 0.90204
 H532 H 0.08448 0.30486 0.93959
 H533 H 0.07888 0.23457 0.79271
 H534 H 0.12351 0.22985 0.75625
 H535 H 0.16366 0.28281 0.83765
 C536 C 0.64316 0.77471 0.39956
 C537 C 0.63405 0.79254 0.37114
 C538 C 0.60857 0.80875 0.37296
 C539 C 0.59187 0.80640 0.40533
 C540 C 0.60036 0.78730 0.43436
 C541 C 0.62655 0.77143 0.43129
 O542 O 0.66834 0.76186 0.39315
 C543 C 0.67530 0.77160 0.35983
 C544 C 0.65495 0.79021 0.34483
 C545 C 0.65767 0.80208 0.30943
 C546 C 0.68226 0.79434 0.28875
 C547 C 0.70370 0.77575 0.30421
 C548 C 0.70019 0.76437 0.34029
 H549 H 0.60202 0.82305 0.35060
 H550 H 0.57241 0.81946 0.40788
 H551 H 0.63388 0.75703 0.45320
 H552 H 0.64129 0.81643 0.29795
 H553 H 0.68478 0.80294 0.26095
 H554 H 0.71607 0.74971 0.35235
 C555 C 0.91060 0.70824 0.89194
 C556 C 0.92103 0.72777 0.86798
 C557 C 0.94629 0.74043 0.87434
 C558 C 0.96145 0.73268 0.90676
 C559 C 0.95185 0.71175 0.93142
 C560 C 0.92589 0.69941 0.92367
 O561 O 0.88496 0.70073 0.88245
 C562 C 0.87918 0.71579 0.85176
 C563 C 0.90076 0.73239 0.84153
 C564 C 0.89903 0.75042 0.81092
 C565 C 0.87388 0.75172 0.79022
 C566 C 0.85082 0.73559 0.80082
 C567 C 0.85369 0.71712 0.83191
 H568 H 0.95355 0.75650 0.85574
 H569 H 0.98040 0.74347 0.91307
 H570 H 0.91749 0.68396 0.94228
 H571 H 0.91626 0.76338 0.80358
 H572 H 0.87201 0.76617 0.76678
 H573 H 0.83643 0.70474 0.84092
 C574 C 0.36329 0.24903 0.38411
 C575 C 0.37218 0.22922 0.35774
 C576 C 0.39543 0.21036 0.36319
 C577 C 0.41023 0.21216 0.39704
 C578 C 0.40201 0.23304 0.42412
 C579 C 0.37801 0.25154 0.41757
 O580 O 0.33964 0.26364 0.37465
 C581 C 0.33347 0.25292 0.34154
 C582 C 0.35283 0.23194 0.32974
 C583 C 0.34987 0.21717 0.29639
 C584 C 0.32571 0.22397 0.27471
 C585 C 0.30526 0.24497 0.28696
 C586 C 0.30926 0.25983 0.32058
 H587 H 0.40159 0.19447 0.34248
 H588 H 0.42802 0.19729 0.40233
 H589 H 0.37087 0.26719 0.43815
 H590 H 0.36523 0.20057 0.28785
 H591 H 0.32233 0.21222 0.24923
 H592 H 0.29347 0.27547 0.33075
 C593 C 0.76557 0.88725 0.89475
 C594 C 0.78407 0.89635 0.86828
 C595 C 0.79809 0.92111 0.87249
 C596 C 0.79253 0.93723 0.90506
 C597 C 0.77276 0.92871 0.93230
 C598 C 0.75965 0.90289 0.92702
 O599 O 0.75513 0.86274 0.88634
 C600 C 0.76728 0.85613 0.85383
 C601 C 0.78512 0.87596 0.84133
 C602 C 0.80036 0.87270 0.80807
 C603 C 0.79733 0.84783 0.78726
 C604 C 0.77945 0.82686 0.80019
 C605 C 0.76400 0.83143 0.83378
 H606 H 0.81311 0.92757 0.85178
 H607 H 0.80411 0.95598 0.90944
 H608 H 0.74474 0.89538 0.94721
 H609 H 0.81438 0.88851 0.79878
 H610 H 0.80944 0.84459 0.76172
 H611 H 0.75025 0.81589 0.84460
 C612 C 0.21929 0.37975 0.39133
 C613 C 0.20170 0.39034 0.36346
 C614 C 0.18755 0.41690 0.36580
 C615 C 0.19170 0.43310 0.39817
 C616 C 0.21051 0.42299 0.42671
 C617 C 0.22431 0.39578 0.42311
 O618 O 0.23014 0.35381 0.38437
 C619 C 0.21934 0.34789 0.35122
 C620 C 0.20201 0.36961 0.33696
 C621 C 0.18940 0.36816 0.30186
 C622 C 0.19509 0.34346 0.28060
 C623 C 0.21244 0.32069 0.29516
 C624 C 0.22456 0.32287 0.33106
 H625 H 0.17344 0.42465 0.34382
 H626 H 0.18019 0.45341 0.40117
 H627 H 0.23838 0.38724 0.44470
 H628 H 0.17610 0.38560 0.29097
 H629 H 0.18599 0.34198 0.25291
 H630 H 0.23837 0.30596 0.34238
 C631 C 0.25374 0.10942 0.88586
 C632 C 0.23264 0.09990 0.86365
 C633 C 0.21942 0.07512 0.87125
 C634 C 0.22840 0.05951 0.90295
 C635 C 0.25084 0.06835 0.92594
 C636 C 0.26336 0.09403 0.91695
 O637 O 0.26253 0.13421 0.87514
 C638 C 0.24662 0.14052 0.84545
 C639 C 0.22810 0.12016 0.83700
 C640 C 0.20915 0.12284 0.80732
 C641 C 0.20910 0.14764 0.78579
 C642 C 0.22752 0.16928 0.79460
 C643 C 0.24672 0.16542 0.82474
 H644 H 0.20224 0.06846 0.85404
 H645 H 0.21706 0.04114 0.91030
 H646 H 0.28039 0.10184 0.93349
 H647 H 0.19469 0.10659 0.80123
 H648 H 0.19413 0.15031 0.76299
 H649 H 0.26098 0.18151 0.83231
 C650 C 0.77746 0.61478 0.39258
 C651 C 0.75516 0.60973 0.36936
 C652 C 0.73663 0.58867 0.37632
 C653 C 0.74136 0.57211 0.40847
 C654 C 0.76472 0.57635 0.43231
 C655 C 0.78289 0.59819 0.42426
 O656 O 0.79146 0.63692 0.38224
 C657 C 0.77773 0.64600 0.35179
 C658 C 0.75548 0.62997 0.34254
 C659 C 0.73785 0.63618 0.31219
 C660 C 0.74313 0.66012 0.29080
 C661 C 0.76549 0.67746 0.30038
 C662 C 0.78321 0.67000 0.33114
 H663 H 0.71880 0.58555 0.35817
 H664 H 0.72667 0.55617 0.41508
 H665 H 0.80042 0.60239 0.44247
 H666 H 0.72037 0.62332 0.30558
 H667 H 0.72924 0.66561 0.26754
 H668 H 0.80032 0.68284 0.33935
 C669 C 0.14674 0.71092 0.90435
 C670 C 0.13457 0.72804 0.87711
 C671 C 0.10696 0.73946 0.87957
 C672 C 0.09115 0.73283 0.91127
 C673 C 0.10274 0.71443 0.93965
 C674 C 0.13134 0.70377 0.93597
 O675 O 0.17364 0.70314 0.89728
 C676 C 0.17851 0.71566 0.86486
 C677 C 0.15525 0.73108 0.85127
 C678 C 0.15579 0.74627 0.81804
 C679 C 0.18141 0.74575 0.79815
 C680 C 0.20591 0.73035 0.81180
 C681 C 0.20423 0.71492 0.84562
 H682 H 0.09807 0.75352 0.85823
 H683 H 0.07016 0.74295 0.91422
 H684 H 0.14128 0.68990 0.95679
 H685 H 0.13722 0.75833 0.80797
 H686 H 0.18224 0.75778 0.77247
 H687 H 0.22248 0.70306 0.85700
 C688 C 0.59591 0.24395 0.39848
 C689 C 0.58983 0.22483 0.37106
 C690 C 0.56720 0.20752 0.37368
 C691 C 0.55005 0.21024 0.40573
 C692 C 0.55517 0.23072 0.43363
 C693 C 0.57870 0.24755 0.42998
 O694 O 0.61917 0.25732 0.39160
 C695 C 0.62789 0.24654 0.35901
 C696 C 0.61052 0.22680 0.34496
 C697 C 0.61568 0.21305 0.31095
 C698 C 0.63989 0.21978 0.29082
 C699 C 0.65842 0.23939 0.30546
 C700 C 0.65235 0.25300 0.33993
 H701 H 0.56321 0.19214 0.35220
 H702 H 0.53276 0.19647 0.40887
 H703 H 0.58350 0.26293 0.45114
 H704 H 0.60169 0.19765 0.30040
 H705 H 0.64469 0.20919 0.26447
 H706 H 0.66634 0.26801 0.35155
 C707 C 0.85283 0.28736 0.89742
 C708 C 0.86551 0.27010 0.87058
 C709 C 0.89333 0.25943 0.87316
 C710 C 0.90882 0.26693 0.90465
 C711 C 0.89672 0.28549 0.93265
 C712 C 0.86794 0.29545 0.92879
 O713 O 0.82575 0.29412 0.89039
 C714 C 0.82129 0.28078 0.85841
 C715 C 0.84499 0.26588 0.84506
 C716 C 0.84497 0.24987 0.81243
 C717 C 0.81938 0.24900 0.79287
 C718 C 0.79444 0.26383 0.80631
 C719 C 0.79558 0.28014 0.83950
 H720 H 0.90258 0.24518 0.85218
 H721 H 0.92996 0.25723 0.90781
 H722 H 0.85760 0.30939 0.94931
 H723 H 0.86390 0.23822 0.80260
 H724 H 0.81894 0.23634 0.76765
 H725 H 0.77697 0.29158 0.85068
 C726 C 0.40816 0.75563 0.39963
 C727 C 0.41114 0.77804 0.37584
 C728 C 0.43158 0.79756 0.38108
 C729 C 0.44959 0.79387 0.41214
 C730 C 0.44746 0.77050 0.43664
 C731 C 0.42631 0.75114 0.43007
 O732 O 0.38635 0.74049 0.39108
 C733 C 0.37537 0.75355 0.36116
 C734 C 0.38989 0.77653 0.35044
 C735 C 0.38174 0.79343 0.32000
 C736 C 0.35758 0.78644 0.29999
 C737 C 0.34202 0.76327 0.31113
 C738 C 0.35105 0.74654 0.34204
 H739 H 0.43312 0.81543 0.36252
 H740 H 0.46489 0.80948 0.41752
 H741 H 0.42370 0.73341 0.44858
 H742 H 0.39343 0.81145 0.31213
 H743 H 0.35057 0.79938 0.27642
 H744 H 0.33930 0.72885 0.35110
 C745 C 0.28279 0.88264 0.11488
 C746 C 0.26165 0.89170 0.13928
 C747 C 0.24402 0.91570 0.13278
 C748 C 0.24826 0.93086 0.09969
 C749 C 0.27031 0.92231 0.07435
 C750 C 0.28788 0.89782 0.08238
 O751 O 0.29566 0.85812 0.12467
 C752 C 0.28240 0.85157 0.15596
 C753 C 0.26158 0.87154 0.16632
 C754 C 0.24442 0.86841 0.19750
 C755 C 0.24864 0.84352 0.21854
 C756 C 0.26940 0.82217 0.20778
 C757 C 0.28674 0.82654 0.17622
 H758 H 0.22700 0.92200 0.15184
 H759 H 0.23397 0.94889 0.09333
 H760 H 0.30448 0.89034 0.06330
 H761 H 0.22802 0.88430 0.20495
 H762 H 0.23501 0.84046 0.24239
 H763 H 0.30260 0.81061 0.16705
 C764 C 0.75255 0.38505 0.61028
 C765 C 0.73240 0.39705 0.63416
 C766 C 0.71961 0.42386 0.62846
 C767 C 0.72786 0.43882 0.59678
 C768 C 0.74897 0.42708 0.57207
 C769 C 0.76142 0.39974 0.57904
 O770 O 0.76090 0.35877 0.61950
 C771 C 0.74571 0.35409 0.64986
 C772 C 0.72805 0.37686 0.66015
 C773 C 0.70978 0.37622 0.69062
 C774 C 0.70959 0.35099 0.71116
 C775 C 0.72727 0.32701 0.70068
 C776 C 0.74572 0.32879 0.66966
 H777 H 0.70335 0.43263 0.64716
 H778 H 0.71745 0.45931 0.59104
 H779 H 0.77705 0.38998 0.56017
 H780 H 0.69594 0.39436 0.69807
 H781 H 0.69525 0.34999 0.73470
 H782 H 0.75941 0.31091 0.66080
 C783 C 0.73786 0.11729 0.10965
 C784 C 0.71769 0.10979 0.13495
 C785 C 0.70173 0.08635 0.12983
 C786 C 0.70689 0.07003 0.09738
 C787 C 0.72823 0.07696 0.07160
 C788 C 0.74375 0.10105 0.07786
 O789 O 0.74948 0.14118 0.11829
 C790 C 0.73649 0.14894 0.14984
 C791 C 0.71701 0.13038 0.16154
 C792 C 0.70076 0.13483 0.19379
 C793 C 0.70461 0.15955 0.21449
 C794 C 0.72403 0.17915 0.20214
 C795 C 0.74026 0.17375 0.16957
 H796 H 0.68549 0.08121 0.14962
 H797 H 0.69426 0.05213 0.09213
 H798 H 0.75963 0.10721 0.05811
 H799 H 0.68550 0.12001 0.20243
 H800 H 0.69196 0.16390 0.23936
 H801 H 0.75501 0.18866 0.15959
 C802 C 0.25112 0.60742 0.60917
 C803 C 0.27037 0.59515 0.63391
 C804 C 0.28347 0.56843 0.62813
 C805 C 0.27639 0.55377 0.59556
 C806 C 0.25600 0.56563 0.57010
 C807 C 0.24338 0.59298 0.57703
 O808 O 0.24225 0.63354 0.61880
 C809 C 0.25615 0.63784 0.65038
 C810 C 0.27347 0.61494 0.66098
 C811 C 0.29029 0.61507 0.69284
 C812 C 0.28945 0.63988 0.71445
 C813 C 0.27224 0.66410 0.70371
 C814 C 0.25518 0.66285 0.67125
 H815 H 0.29903 0.55946 0.64756
 H816 H 0.28694 0.53331 0.58992
 H817 H 0.22830 0.60286 0.55761
 H818 H 0.30385 0.59682 0.70057
 H819 H 0.30280 0.64043 0.73899
 H820 H 0.24193 0.68092 0.66211
 C821 C 0.90564 0.72051 0.10374
 C822 C 0.90983 0.69896 0.12925
 C823 C 0.93190 0.67834 0.12602
 C824 C 0.95027 0.68000 0.09523
 C825 C 0.94681 0.70249 0.06913
 C826 C 0.92403 0.72295 0.07358
 O827 O 0.88284 0.73729 0.11086
 C828 C 0.87242 0.72622 0.14165
 C829 C 0.88826 0.70287 0.15432
 C830 C 0.88123 0.68829 0.18653
 C831 C 0.85696 0.69823 0.20641
 C832 C 0.84014 0.72186 0.19330
 C833 C 0.84794 0.73601 0.16048
 H834 H 0.93451 0.66126 0.14602
 H835 H 0.96703 0.66368 0.09145
 H836 H 0.92051 0.74006 0.05377
 H837 H 0.89404 0.67006 0.19611
 H838 H 0.85104 0.68741 0.23166
 H839 H 0.83545 0.75426 0.15021
 C840 C 0.35470 0.23879 0.59769
 C841 C 0.36280 0.21794 0.62288
 C842 C 0.38759 0.20095 0.61883
 C843 C 0.40472 0.20576 0.58763
 C844 C 0.39726 0.22778 0.56193
 C845 C 0.37171 0.24435 0.56703
 O846 O 0.32981 0.25172 0.60562
 C847 C 0.32205 0.23885 0.63659
 C848 C 0.34158 0.21816 0.64857
 C849 C 0.33764 0.20216 0.68063
 C850 C 0.31248 0.20767 0.70099
 C851 C 0.29194 0.22843 0.68851
 C852 C 0.29676 0.24425 0.65596
 H853 H 0.39327 0.18428 0.63857
 H854 H 0.42372 0.19227 0.58331
 H855 H 0.36517 0.26091 0.54750
 H856 H 0.35331 0.18603 0.68957
 H857 H 0.30871 0.19549 0.72595
 H858 H 0.28125 0.26022 0.64606
 C859 C 0.09427 0.28464 0.09712
 C860 C 0.08632 0.26318 0.11998
 C861 C 0.06135 0.24967 0.11498
 C862 C 0.04391 0.25854 0.08505
 C863 C 0.05130 0.28104 0.06142
 C864 C 0.07695 0.29422 0.06765
 O865 O 0.11961 0.29349 0.10539
 C866 C 0.12779 0.27727 0.13412
 C867 C 0.10809 0.25850 0.14424
 C868 C 0.11249 0.23912 0.17308
 C869 C 0.13830 0.23903 0.19226
 C870 C 0.15923 0.25789 0.18207
 C871 C 0.15375 0.27737 0.15258
 H872 H 0.05588 0.23237 0.13282
 H873 H 0.02496 0.24748 0.07971
 H874 H 0.08351 0.31089 0.04949
 H875 H 0.09670 0.22446 0.18038
 H876 H 0.14214 0.22389 0.21461
 H877 H 0.16925 0.29199 0.14405
 C878 C 0.64363 0.77302 0.60644
 C879 C 0.63540 0.79128 0.63493
 C880 C 0.61062 0.80860 0.63330
 C881 C 0.59367 0.80685 0.60114
 C882 C 0.60118 0.78725 0.57216
 C883 C 0.62674 0.77035 0.57492
 O884 O 0.66847 0.75938 0.61239
 C885 C 0.67607 0.76904 0.64549
 C886 C 0.65648 0.78835 0.66083
 C887 C 0.66019 0.80064 0.69583
 C888 C 0.68513 0.79278 0.71558
 C889 C 0.70587 0.77361 0.69958
 C890 C 0.70123 0.76159 0.66411
 H891 H 0.60483 0.82329 0.65563
 H892 H 0.57473 0.82068 0.59875
 H893 H 0.63337 0.75564 0.55294
 H894 H 0.64445 0.81565 0.70753
 H895 H 0.68865 0.80205 0.74278
 H896 H 0.71674 0.74675 0.65150
   
