data_POSCAR
  _audit_creation_date              2014-09-24
  _audit_creation_method            'ToBaCCo'
  _symmetry_space_group_name_H-M    'P1'
  _symmetry_Int_Tables_number       1
  _symmetry_cell_setting            triclinic
  loop_
  _symmetry_equiv_pos_as_xyz
 x,y,z
_cell_length_a 46.0784
_cell_length_b 46.1432
_cell_length_c 45.4514
_cell_angle_alpha 89.950700
_cell_angle_beta 89.187200
_cell_angle_gamma 89.345400
loop_
  _atom_site_label
  _atom_site_type_symbol
  _atom_site_fract_x
  _atom_site_fract_y
  _atom_site_fract_z
C1 C 0.34359 0.38189 1.37156
 C2 C 0.36750 0.38483 1.35256
 C3 C 0.38873 0.36348 1.35128
 C4 C 0.38633 0.33890 1.36941
 C5 C 0.36249 0.33594 1.38796
 C6 C 0.34099 0.35776 1.38919
 C7 C 0.31911 0.39859 1.37572
 N8 N 0.30122 0.38542 1.39568
 C9 C 0.31480 0.36031 1.40408
 C10 C 0.36487 0.30928 1.40129
 N11 N 0.38981 0.29588 1.39170
 C12 C 0.40302 0.31414 1.37217
 C13 C 0.40771 0.37096 1.32885
 N14 N 0.39836 0.39630 1.31662
 C15 C 0.37384 0.40490 1.33120
 H16 H 0.31521 0.41904 1.36482
 H17 H 0.30606 0.34422 1.41895
 H18 H 0.34956 0.30074 1.41724
 H19 H 0.42269 0.30948 1.35970
 H20 H 0.42633 0.35835 1.32136
 H21 H 0.36049 0.42347 1.32550
 C22 C 1.15848 0.61143 0.86094
 C23 C 1.13709 0.60930 0.83942
 C24 C 1.11469 0.62941 0.83864
 C25 C 1.11332 0.65188 0.85940
 C26 C 1.13440 0.65400 0.88052
 C27 C 1.15718 0.63348 0.88139
 C28 C 1.18333 0.59564 0.86605
 N29 N 1.19760 0.60736 0.88927
 C30 C 1.18136 0.63062 0.89872
 C31 C 1.12829 0.67869 0.89654
 N32 N 1.10391 0.69186 0.88575
 C33 C 1.09476 0.67518 0.86294
 C34 C 1.09808 0.62297 0.81465
 N35 N 1.10987 0.59945 0.80073
 C36 C 1.13375 0.59094 0.81588
 H37 H 1.19000 0.57681 0.85346
 H38 H 1.18685 0.64530 0.91625
 H39 H 1.14108 0.68614 0.91471
 H40 H 1.07661 0.67982 0.84885
 H41 H 1.07894 0.63481 0.80774
 H42 H 1.14832 0.57336 0.80965
 C43 C 0.65946 -0.11374 0.12781
 C44 C 0.63915 -0.11246 0.15109
 C45 C 0.61875 -0.13411 0.15437
 C46 C 0.61810 -0.15701 0.13408
 C47 C 0.63794 -0.15797 0.11113
 C48 C 0.65873 -0.13624 0.10795
 C49 C 0.68334 -0.09737 0.12069
 N50 N 0.69738 -0.10939 0.09690
 C51 C 0.68197 -0.13317 0.08900
 C52 C 0.63338 -0.18306 0.09584
 N53 N 0.61104 -0.19781 0.10874
 C54 C 0.60161 -0.18165 0.13227
 C55 C 0.60330 -0.12838 0.17989
 N56 N 0.61362 -0.10368 0.19194
 C57 C 0.63550 -0.09377 0.17447
 H58 H 0.68985 -0.07832 0.13260
 H59 H 0.68784 -0.14848 0.07189
 H60 H 0.64573 -0.18956 0.07654
 H61 H 0.58471 -0.18749 0.14782
 H62 H 0.58601 -0.14135 0.18919
 H63 H 0.64843 -0.07488 0.17900
 C64 C -0.16354 1.12808 -0.35290
 C65 C -0.14215 1.12606 -0.33119
 C66 C -0.12011 1.14613 -0.33070
 C67 C -0.11902 1.16837 -0.35164
 C68 C -0.14013 1.17056 -0.37265
 C69 C -0.16260 1.15032 -0.37325
 C70 C -0.18807 1.11231 -0.35849
 N71 N -0.20235 1.12458 -0.38159
 C72 C -0.18665 1.14796 -0.39055
 C73 C -0.13435 1.19497 -0.38902
 N74 N -0.11005 1.20791 -0.37850
 C75 C -0.10071 1.19139 -0.35548
 C76 C -0.10350 1.14026 -0.30658
 N77 N -0.11490 1.11721 -0.29204
 C78 C -0.13848 1.10821 -0.30710
 H79 H -0.19532 1.09394 -0.34568
 H80 H -0.19171 1.16217 -0.40874
 H81 H -0.14725 1.20233 -0.40728
 H82 H -0.08253 1.19590 -0.34152
 H83 H -0.08469 1.15231 -0.29989
 H84 H -0.15268 1.09082 -0.30035
 C85 C 0.65867 0.61460 0.63925
 C86 C 0.63620 0.61473 0.66045
 C87 C 0.61538 0.63665 0.66037
 C88 C 0.61695 0.65889 0.63934
 C89 C 0.63912 0.65876 0.61873
 C90 C 0.66004 0.63656 0.61862
 C91 C 0.68256 0.59685 0.63447
 N92 N 0.69833 0.60776 0.61157
 C93 C 0.68463 0.63205 0.60180
 C94 C 0.63638 0.68349 0.60224
 N95 N 0.61297 0.69920 0.61221
 C96 C 0.60095 0.68390 0.63501
 C97 C 0.59708 0.63201 0.68403
 N98 N 0.60636 0.60798 0.69860
 C99 C 0.63029 0.59729 0.68433
 H100 H 0.68847 0.57791 0.64722
 H101 H 0.69206 0.64555 0.58378
 H102 H 0.65092 0.68920 0.58438
 H103 H 0.58257 0.69055 0.64849
 H104 H 0.57898 0.64573 0.69080
 H105 H 0.64270 0.57841 0.69104
 C106 C 0.82479 0.36670 0.14370
 C107 C 0.84712 0.36965 0.16408
 C108 C 0.86921 0.34910 0.16536
 C109 C 0.86905 0.32511 0.14629
 C110 C 0.84653 0.32193 0.12687
 C111 C 0.82436 0.34289 0.12548
 C112 C 0.80049 0.38317 0.13776
 N113 N 0.78504 0.36991 0.11628
 C114 C 0.79970 0.34504 0.10890
 C115 C 0.85086 0.29615 0.11237
 N116 N 0.87578 0.28339 0.12207
 C117 C 0.88708 0.30125 0.14283
 C118 C 0.88668 0.35667 0.18847
 N119 N 0.87546 0.38103 0.20133
 C120 C 0.85141 0.38918 0.18634
 H121 H 0.79435 0.40292 0.14913
 H122 H 0.79362 0.32974 0.09215
 H123 H 0.83698 0.28786 0.09541
 H124 H 0.90634 0.29685 0.15550
 H125 H 0.90522 0.34447 0.19632
 H126 H 0.83750 0.40753 0.19176
 C127 C 0.32124 0.14351 0.84693
 C128 C 0.34156 0.14350 0.82356
 C129 C 0.36121 0.16581 0.82112
 C130 C 0.36104 0.18821 0.84178
 C131 C 0.34118 0.18821 0.86481
 C132 C 0.32096 0.16582 0.86721
 C133 C 0.29886 0.12531 0.85450
 N134 N 0.28459 0.13620 0.87869
 C135 C 0.29830 0.16104 0.88648
 C136 C 0.34602 0.21272 0.88125
 N137 N 0.36819 0.22755 0.86848
 C138 C 0.37744 0.21271 0.84428
 C139 C 0.37776 0.16096 0.79630
 N140 N 0.36871 0.13625 0.78328
 C141 C 0.34658 0.12531 0.79990
 H142 H 0.29284 0.10630 0.84221
 H143 H 0.29274 0.17475 0.90503
 H144 H 0.33408 0.21947 0.90080
 H145 H 0.39506 0.21912 0.82976
 H146 H 0.39528 0.17447 0.78841
 H147 H 0.33459 0.10596 0.79483
 C148 C 0.18563 0.86740 0.35120
 C149 C 0.16477 0.86710 0.32920
 C150 C 0.14268 0.84718 0.33021
 C151 C 0.14142 0.82703 0.35329
 C152 C 0.16204 0.82736 0.37521
 C153 C 0.18441 0.84788 0.37414
 C154 C 0.20969 0.88404 0.35485
 N155 N 0.22372 0.87539 0.37963
 C156 C 0.20806 0.85316 0.39159
 C157 C 0.15585 0.80470 0.39401
 N158 N 0.13225 0.79060 0.38381
 C159 C 0.12330 0.80421 0.35898
 C160 C 0.12605 0.85166 0.30560
 N161 N 0.13783 0.87369 0.28973
 C162 C 0.16153 0.88321 0.30404
 H163 H 0.21584 0.90152 0.34030
 H164 H 0.21358 0.84090 0.41103
 H165 H 0.16818 0.79836 0.41310
 H166 H 0.10504 0.79784 0.34582
 H167 H 0.10719 0.83944 0.29938
 H168 H 0.17537 0.90068 0.29672
 Zn169 Zn -0.01340 1.00124 0.03756
 Zn170 Zn 0.03945 0.97760 0.00773
 Zn171 Zn -0.01855 0.97097 -0.02037
 Zn172 Zn 0.00953 1.02955 -0.01640
 O173 O 0.00419 0.99479 0.00202
 O174 O 0.00699 0.98750 0.06776
 O175 O 0.04203 0.94292 -0.00903
 O176 O -0.05234 0.96179 -0.00204
 O177 O 0.04696 0.97118 0.04571
 O178 O -0.04782 0.98466 0.04033
 O179 O -0.00055 0.93705 -0.02993
 O180 O -0.00912 1.03131 -0.05055
 O181 O 0.06915 0.99783 -0.00725
 O182 O -0.02888 0.98796 -0.05437
 O183 O 0.04680 1.03653 -0.02508
 O184 O -0.00300 1.06007 0.00498
 O185 O -0.02025 1.03873 0.04500
 C186 C 0.03180 0.97540 0.06887
 C187 C 0.02478 0.92772 -0.02388
 C188 C -0.06236 0.96904 0.02314
 C189 C -0.02419 1.01318 -0.06456
 C190 C 0.06986 1.02200 -0.02058
 C191 C -0.01519 1.06144 0.03016
 Zn192 Zn 0.49183 0.00658 0.46604
 Zn193 Zn 0.48530 -0.02086 0.52533
 Zn194 Zn 0.54353 -0.01864 0.49622
 Zn195 Zn 0.51583 0.03573 0.51877
 O196 O 0.50911 0.00072 0.50157
 O197 O 0.45758 -0.01124 0.46358
 O198 O 0.50180 -0.05403 0.53745
 O199 O 0.55126 -0.02645 0.45831
 O200 O 0.45283 -0.03150 0.50744
 O201 O 0.51339 -0.00711 0.43581
 O202 O 0.54444 -0.05278 0.51469
 O203 O 0.55337 0.04116 0.52687
 O204 O 0.47383 -0.00185 0.55776
 O205 O 0.57389 0.00075 0.51012
 O206 O 0.49629 0.04003 0.55289
 O207 O 0.50466 0.06578 0.49648
 O208 O 0.48485 0.04418 0.45835
 C209 C 0.44338 -0.02663 0.48181
 C210 C 0.52633 -0.06548 0.53141
 C211 C 0.53745 -0.02083 0.43497
 C212 C 0.57569 0.02522 0.52268
 C213 C 0.47936 0.02337 0.56709
 C214 C 0.49139 0.06701 0.47222
 Zn215 Zn 0.96333 0.48516 0.48643
 Zn216 Zn 1.01826 0.47765 0.52033
 Zn217 Zn 1.01910 0.50419 0.45994
 Zn218 Zn 0.99293 0.53692 0.51012
 O219 O 0.99847 0.50093 0.49428
 O220 O 0.95828 0.45149 0.50475
 O221 O 1.05248 0.46487 0.50544
 O222 O 1.00039 0.49054 0.42864
 O223 O 0.99833 0.44564 0.53042
 O224 O 0.95831 0.47760 0.44816
 O225 O 1.05262 0.48470 0.46109
 O226 O 1.00919 0.56522 0.48869
 O227 O 1.02655 0.49612 0.55416
 O228 O 1.02841 0.54083 0.45125
 O229 O 1.00822 0.53979 0.54573
 O230 O 0.95536 0.54634 0.51517
 O231 O 0.93346 0.50749 0.49826
 C232 C 0.97363 0.43681 0.52242
 C233 C 1.06467 0.46917 0.48058
 C234 C 0.97521 0.48007 0.42602
 C235 C 1.02357 0.56454 0.46467
 C236 C 1.02149 0.52207 0.56229
 C237 C 0.93239 0.53234 0.51018
 Zn238 Zn 0.47832 0.50101 0.97156
 Zn239 Zn 0.47287 0.52628 1.03230
 Zn240 Zn 0.50361 0.46938 1.02209
 Zn241 Zn 0.53062 0.52348 1.00086
 O242 O 0.49625 0.50513 1.00678
 O243 O 0.44388 0.51885 0.97111
 O244 O 0.46472 0.50677 1.06599
 O245 O 0.48966 0.44056 1.00051
 O246 O 0.43856 0.53656 1.01613
 O247 O 0.47094 0.46405 0.96277
 O248 O 0.48750 0.46511 1.05738
 O249 O 0.56130 0.50317 1.01361
 O250 O 0.48941 0.55975 1.04324
 O251 O 0.54140 0.46191 1.02731
 O252 O 0.53159 0.55734 1.01943
 O253 O 0.53811 0.53114 0.96294
 O254 O 0.49889 0.51511 0.94108
 C255 C 0.42896 0.53257 0.99034
 C256 C 0.47213 0.48134 1.07400
 C257 C 0.47612 0.44060 0.97642
 C258 C 0.56354 0.47771 1.02394
 C259 C 0.51382 0.57061 1.03638
 C260 C 0.52362 0.52692 0.93983
 C261 C 1.26047 0.41862 0.39009
 C262 C 1.23322 0.42878 0.39917
 C263 C 1.21898 0.41640 0.42323
 C264 C 1.23223 0.39337 0.43830
 C265 C 1.25956 0.38289 0.42914
 C266 C 1.27435 0.39541 0.40484
 N267 N 1.19100 0.42770 0.43138
 N268 N 1.17663 0.41942 0.45391
 C269 C 1.14855 0.43173 0.46044
 C270 C 1.13405 0.42428 0.48661
 C271 C 1.10675 0.43642 0.49340
 C272 C 1.09350 0.45606 0.47391
 C273 C 1.10810 0.46328 0.44760
 C274 C 1.13531 0.45133 0.44097
 H275 H 1.26997 0.42880 0.37093
 H276 H 1.22305 0.44643 0.38728
 H277 H 1.22149 0.38347 0.45704
 H278 H 1.26909 0.36540 0.44166
 H279 H 1.14398 0.40919 0.50181
 H280 H 1.09601 0.43038 0.51382
 H281 H 1.09859 0.47834 0.43209
 H282 H 1.14595 0.45744 0.42053
 C283 C 0.24050 0.57635 0.88568
 C284 C 0.26707 0.56689 0.89672
 C285 C 0.27772 0.57825 0.92280
 C286 C 0.26140 0.59943 0.93799
 C287 C 0.23474 0.60915 0.92694
 C288 C 0.22366 0.59781 0.90045
 N289 N 0.30533 0.56800 0.93280
 N290 N 0.31668 0.57580 0.95688
 C291 C 0.34468 0.56486 0.96527
 C292 C 0.36115 0.54690 0.94630
 C293 C 0.38839 0.53657 0.95460
 C294 C 0.39987 0.54380 0.98211
 C295 C 0.38334 0.56170 1.00117
 C296 C 0.35599 0.57220 0.99271
 H297 H 0.23388 0.56700 0.86514
 H298 H 0.27957 0.55063 0.88474
 H299 H 0.26925 0.60851 0.95829
 H300 H 0.22289 0.62525 0.93964
 H301 H 0.35304 0.54088 0.92494
 H302 H 0.40043 0.52280 0.93937
 H303 H 0.39157 0.56770 1.02248
 H304 H 0.34358 0.58604 1.00757
 C305 C -0.26631 0.88742 0.05760
 C306 C -0.23930 0.89524 0.04584
 C307 C -0.22201 0.91513 0.06037
 C308 C -0.23244 0.92792 0.08653
 C309 C -0.25948 0.92036 0.09828
 C310 C -0.27683 0.89948 0.08439
 N311 N -0.19379 0.92162 0.04862
 N312 N -0.17639 0.93754 0.06265
 C313 C -0.14793 0.94451 0.05202
 C314 C -0.13042 0.96137 0.06985
 C315 C -0.10259 0.96893 0.06053
 C316 C -0.09165 0.95979 0.03295
 C317 C -0.10923 0.94265 0.01502
 C318 C -0.13721 0.93501 0.02451
 H319 H -0.27878 0.87206 0.04529
 H320 H -0.23166 0.88544 0.02547
 H321 H -0.21954 0.94354 0.09815
 H322 H -0.26596 0.93036 0.11884
 H323 H -0.13845 0.96876 0.09110
 H324 H -0.08974 0.98217 0.07493
 H325 H -0.10145 0.93532 -0.00633
 H326 H -0.15044 0.92189 0.01036
 C327 C 0.75547 0.13389 0.58828
 C328 C 0.72938 0.12466 0.57635
 C329 C 0.71941 0.09666 0.58163
 C330 C 0.73562 0.07795 0.59956
 C331 C 0.76146 0.08728 0.61210
 C332 C 0.77206 0.11542 0.60652
 N333 N 0.69258 0.08800 0.56893
 N334 N 0.68507 0.06159 0.56759
 C335 C 0.65786 0.05316 0.55552
 C336 C 0.65334 0.02393 0.54908
 C337 C 0.62688 0.01493 0.53773
 C338 C 0.60421 0.03504 0.53318
 C339 C 0.60878 0.06441 0.53971
 C340 C 0.63546 0.07344 0.55057
 H341 H 0.76190 0.15590 0.58379
 H342 H 0.71692 0.13938 0.56277
 H343 H 0.72822 0.05618 0.60406
 H344 H 0.77339 0.07196 0.62541
 H345 H 0.67040 0.00808 0.55287
 H346 H 0.62394 -0.00786 0.53311
 H347 H 0.59174 0.08039 0.53643
 H348 H 0.63839 0.09615 0.55554
 C349 C 0.38054 0.24855 0.41289
 C350 C 0.39044 0.22097 0.42096
 C351 C 0.41962 0.21317 0.41717
 C352 C 0.43887 0.23308 0.40446
 C353 C 0.42891 0.26043 0.39556
 C354 C 0.39956 0.26884 0.39988
 N355 N 0.42909 0.18494 0.42633
 N356 N 0.45558 0.17913 0.43161
 C357 C 0.46482 0.15073 0.44048
 C358 C 0.49058 0.14754 0.45617
 C359 C 0.49934 0.12028 0.46643
 C360 C 0.48287 0.09561 0.46031
 C361 C 0.45756 0.09869 0.44366
 C362 C 0.44839 0.12610 0.43412
 H363 H 0.35772 0.25339 0.41606
 H364 H 0.37534 0.20570 0.43055
 H365 H 0.46156 0.22742 0.40122
 H366 H 0.44461 0.27519 0.38624
 H367 H 0.50347 0.16635 0.46111
 H368 H 0.51900 0.11844 0.47912
 H369 H 0.44444 0.08003 0.43874
 H370 H 0.42853 0.12805 0.42179
 C371 C 0.92936 0.24261 0.62195
 C372 C 0.94159 0.26847 0.61200
 C373 C 0.92736 0.28563 0.59130
 C374 C 0.90068 0.27647 0.58032
 C375 C 0.88836 0.25061 0.59011
 C376 C 0.90232 0.23311 0.61135
 N377 N 0.94024 0.31227 0.58191
 N378 N 0.92767 0.32902 0.56373
 C379 C 0.93987 0.35581 0.55397
 C380 C 0.92412 0.37282 0.53427
 C381 C 0.93509 0.39911 0.52416
 C382 C 0.96223 0.40893 0.53359
 C383 C 0.97809 0.39178 0.55345
 C384 C 0.96700 0.36540 0.56360
 H385 H 0.94162 0.23016 0.63769
 H386 H 0.96228 0.27521 0.62052
 H387 H 0.88918 0.28938 0.56425
 H388 H 0.86759 0.24501 0.58121
 H389 H 0.90320 0.36565 0.52672
 H390 H 0.92228 0.41171 0.50887
 H391 H 0.99904 0.39873 0.56112
 H392 H 0.97957 0.35255 0.57887
 C393 C 0.06432 0.72730 -0.11546
 C394 C 0.05211 0.75375 -0.10631
 C395 C 0.06645 0.77126 -0.08629
 C396 C 0.09313 0.76175 -0.07504
 C397 C 0.10539 0.73529 -0.08399
 C398 C 0.09143 0.71752 -0.10468
 N399 N 0.05380 0.79867 -0.07796
 N400 N 0.06688 0.81586 -0.06091
 C401 C 0.05535 0.84353 -0.05211
 C402 C 0.07223 0.86089 -0.03413
 C403 C 0.06221 0.88813 -0.02512
 C404 C 0.03487 0.89865 -0.03388
 C405 C 0.01777 0.88112 -0.05192
 C406 C 0.02796 0.85373 -0.06104
 H407 H 0.05203 0.71465 -0.13075
 H408 H 0.03142 0.76072 -0.11503
 H409 H 0.10470 0.77487 -0.05945
 H410 H 0.12619 0.72948 -0.07496
 H411 H 0.09335 0.85326 -0.02712
 H412 H 0.07598 0.90092 -0.01119
 H413 H -0.00337 0.88858 -0.05902
 H414 H 0.01452 0.84061 -0.07498
 C415 C 0.61529 0.75926 1.07804
 C416 C 0.60485 0.73250 1.06913
 C417 C 0.57949 0.72135 1.08152
 C418 C 0.56444 0.73730 1.10322
 C419 C 0.57487 0.76418 1.11237
 C420 C 0.60058 0.77581 1.09992
 N421 N 0.56991 0.69372 1.07156
 N422 N 0.54668 0.68177 1.08060
 C423 C 0.53858 0.65391 1.06965
 C424 C 0.51227 0.64166 1.07878
 C425 C 0.50400 0.61453 1.06808
 C426 C 0.52209 0.59924 1.04812
 C427 C 0.54852 0.61164 1.03917
 C428 C 0.55665 0.63863 1.04976
 H429 H 0.63531 0.76629 1.06790
 H430 H 0.61669 0.72025 1.05246
 H431 H 0.54467 0.72903 1.11307
 H432 H 0.56228 0.77579 1.12885
 H433 H 0.49814 0.65318 1.09411
 H434 H 0.48353 0.60556 1.07541
 H435 H 0.56299 0.60052 1.02384
 H436 H 0.57714 0.64751 1.04235
 C437 C 0.40618 0.44004 1.28622
 C438 C 0.41455 0.45297 1.25965
 C439 C 0.42667 0.43621 1.23690
 C440 C 0.43128 0.40634 1.24141
 C441 C 0.42299 0.39340 1.26800
 C442 C 0.40985 0.41002 1.29051
 N443 N 0.43325 0.44968 1.20920
 N444 N 0.44303 0.43499 1.18750
 C445 C 0.44946 0.44743 1.15933
 C446 C 0.46137 0.42945 1.13753
 C447 C 0.46829 0.44050 1.10981
 C448 C 0.46329 0.46993 1.10322
 C449 C 0.45085 0.48799 1.12502
 C450 C 0.44404 0.47683 1.15297
 H451 H 0.39648 0.45347 1.30330
 H452 H 0.41105 0.47601 1.25654
 H453 H 0.44070 0.39288 1.22420
 H454 H 0.42582 0.37022 1.27047
 H455 H 0.46550 0.40675 1.14215
 H456 H 0.47772 0.42591 1.09356
 H457 H 0.44681 0.51073 1.12063
 H458 H 0.43468 0.49111 1.16953
 C459 C 0.60093 -0.06071 0.22189
 C460 C 0.59174 -0.04831 0.24855
 C461 C 0.58629 -0.06580 0.27315
 C462 C 0.58948 -0.09604 0.27062
 C463 C 0.59799 -0.10849 0.24379
 C464 C 0.60402 -0.09092 0.21927
 N465 N 0.57729 -0.05252 0.30030
 N466 N 0.57935 -0.06582 0.32474
 C467 C 0.56957 -0.05330 0.35199
 C468 C 0.57858 -0.06591 0.37836
 C469 C 0.56879 -0.05481 0.40537
 C470 C 0.54920 -0.03124 0.40639
 C471 C 0.54015 -0.01857 0.37985
 C472 C 0.55047 -0.02934 0.35284
 H473 H 0.60529 -0.04682 0.20317
 H474 H 0.58923 -0.02500 0.25018
 H475 H 0.58515 -0.11000 0.28928
 H476 H 0.60043 -0.13181 0.24228
 H477 H 0.59321 -0.08445 0.37797
 H478 H 0.57596 -0.06516 0.42543
 H479 H 0.52508 -0.00039 0.37999
 H480 H 0.54306 -0.01937 0.33269
 C481 C -0.09049 1.12414 -0.24461
 C482 C -0.07989 1.11332 -0.21817
 C483 C -0.08322 1.08414 -0.21084
 C484 C -0.09767 1.06570 -0.23025
 C485 C -0.10836 1.07654 -0.25687
 C486 C -0.10465 1.10587 -0.26444
 N487 N -0.07140 1.07412 -0.18368
 N488 N -0.07344 1.04814 -0.17453
 C489 C -0.06086 1.03949 -0.14715
 C490 C -0.06458 1.01113 -0.13690
 C491 C -0.05264 1.00238 -0.11009
 C492 C -0.03663 1.02193 -0.09317
 C493 C -0.03281 1.05031 -0.10369
 C494 C -0.04480 1.05901 -0.13033
 H495 H -0.08781 1.14693 -0.24937
 H496 H -0.06894 1.12774 -0.20329
 H497 H -0.10047 1.04302 -0.22499
 H498 H -0.11901 1.06193 -0.27175
 H499 H -0.07687 0.99584 -0.14963
 H500 H -0.05596 0.98036 -0.10262
 H501 H -0.02065 1.06595 -0.09126
 H502 H -0.04149 1.08105 -0.13773
 C503 C 1.10542 0.55740 0.76723
 C504 C 1.09612 0.54536 0.74076
 C505 C 1.08110 0.56237 0.72037
 C506 C 1.07530 0.59167 0.72686
 C507 C 1.08455 0.60371 0.75326
 C508 C 1.09980 0.58677 0.77376
 N509 N 1.07221 0.54966 0.69319
 N510 N 1.05853 0.56445 0.67412
 C511 C 1.04941 0.55287 0.64657
 C512 C 1.03442 0.57116 0.62741
 C513 C 1.02535 0.56106 0.60017
 C514 C 1.03112 0.53228 0.59147
 C515 C 1.04615 0.51381 0.61083
 C516 C 1.05525 0.52403 0.63821
 H517 H 1.11679 0.54366 0.78266
 H518 H 1.10069 0.52274 0.73610
 H519 H 1.06382 0.60536 0.71146
 H520 H 1.08025 0.62646 0.75730
 H521 H 1.02982 0.59342 0.63362
 H522 H 1.01384 0.57591 0.58590
 H523 H 1.05094 0.49155 0.60479
 H524 H 1.06685 0.50949 0.65272
 C525 C 0.73061 0.56628 0.59905
 C526 C 0.75647 0.55531 0.58671
 C527 C 0.77751 0.57414 0.57545
 C528 C 0.77245 0.60419 0.57668
 C529 C 0.74655 0.61514 0.58872
 C530 C 0.72531 0.59632 0.59994
 N531 N 0.80373 0.56232 0.56283
 N532 N 0.82468 0.57839 0.55480
 C533 C 0.85093 0.56680 0.54209
 C534 C 0.87487 0.58493 0.53867
 C535 C 0.90127 0.57395 0.52769
 C536 C 0.90395 0.54466 0.51951
 C537 C 0.87955 0.52673 0.52205
 C538 C 0.85331 0.53765 0.53342
 H539 H 0.71451 0.55133 0.60732
 H540 H 0.76013 0.53210 0.58589
 H541 H 0.78839 0.61920 0.56818
 H542 H 0.74320 0.63838 0.58949
 H543 H 0.87324 0.60747 0.54516
 H544 H 0.91965 0.58830 0.52593
 H545 H 0.88096 0.50405 0.51605
 H546 H 0.83500 0.52328 0.53566
 C547 C 0.74191 0.36119 1.08767
 C548 C 0.71592 0.37122 1.07563
 C549 C 0.70710 0.40005 1.07927
 C550 C 0.72440 0.41884 1.09554
 C551 C 0.75015 0.40880 1.10809
 C552 C 0.75955 0.37975 1.10429
 N553 N 0.68028 0.40958 1.06675
 N554 N 0.67350 0.43631 1.06475
 C555 C 0.64629 0.44591 1.05318
 C556 C 0.64209 0.47542 1.04737
 C557 C 0.61544 0.48568 1.03708
 C558 C 0.59232 0.46655 1.03290
 C559 C 0.59667 0.43685 1.03855
 C560 C 0.62348 0.42658 1.04844
 H561 H 0.74746 0.33859 1.08453
 H562 H 0.70261 0.35646 1.06333
 H563 H 0.71794 0.44126 1.09874
 H564 H 0.76290 0.42425 1.12002
 H565 H 0.65949 0.49053 1.05101
 H566 H 0.61273 0.50869 1.03308
 H567 H 0.57929 0.42159 1.03551
 H568 H 0.62619 0.40367 1.05291
 C569 C 0.24287 1.14180 -0.08855
 C570 C 0.21780 1.13052 -0.07554
 C571 C 0.20983 1.10192 -0.08074
 C572 C 0.22716 1.08456 -0.09943
 C573 C 0.25199 1.09592 -0.11301
 C574 C 0.26039 1.12482 -0.10782
 N575 N 0.18362 1.09138 -0.06750
 N576 N 0.17769 1.06453 -0.06645
 C577 C 0.15087 1.05446 -0.05409
 C578 C 0.14792 1.02498 -0.04762
 C579 C 0.12179 1.01447 -0.03607
 C580 C 0.09794 1.03328 -0.03142
 C581 C 0.10095 1.06287 -0.03800
 C582 C 0.12725 1.07343 -0.04901
 H583 H 0.24764 1.16424 -0.08418
 H584 H 0.20444 1.14419 -0.06135
 H585 H 0.22133 1.06233 -0.10383
 H586 H 0.26479 1.08164 -0.12699
 H587 H 0.16594 1.01014 -0.05153
 H588 H 0.12004 0.99153 -0.03138
 H589 H 0.08296 1.07787 -0.03459
 H590 H 0.12895 1.09629 -0.05402
 C591 C 0.26539 -0.09345 0.37282
 C592 C 0.29073 -0.08132 0.38341
 C593 C 0.30056 -0.08816 0.41143
 C594 C 0.28483 -0.10770 0.42895
 C595 C 0.25937 -0.12008 0.41839
 C596 C 0.24895 -0.11303 0.39010
 N597 N 0.32662 -0.07490 0.42120
 N598 N 0.33708 -0.07903 0.44663
 C599 C 0.36336 -0.06529 0.45529
 C600 C 0.37410 -0.07035 0.48347
 C601 C 0.39995 -0.05756 0.49228
 C602 C 0.41551 -0.03945 0.47291
 C603 C 0.40451 -0.03422 0.44470
 C604 C 0.37869 -0.04700 0.43596
 H605 H 0.25939 -0.08761 0.35073
 H606 H 0.30285 -0.06645 0.36963
 H607 H 0.29213 -0.11332 0.45078
 H608 H 0.24777 -0.13461 0.43286
 H609 H 0.36250 -0.08438 0.49858
 H610 H 0.40784 -0.06205 0.51416
 H611 H 0.41593 -0.02040 0.42925
 H612 H 0.37084 -0.04268 0.41403
 C613 C 0.62062 -0.25902 0.58055
 C614 C 0.61182 -0.23185 0.57038
 C615 C 0.58624 -0.21894 0.58088
 C616 C 0.56919 -0.23359 0.60177
 C617 C 0.57792 -0.26086 0.61213
 C618 C 0.60396 -0.27419 0.60181
 N619 N 0.57839 -0.19090 0.56995
 N620 N 0.55527 -0.17752 0.57780
 C621 C 0.54843 -0.14937 0.56632
 C622 C 0.52217 -0.13589 0.57442
 C623 C 0.51491 -0.10854 0.56322
 C624 C 0.53396 -0.09420 0.54377
 C625 C 0.56041 -0.10776 0.53588
 C626 C 0.56757 -0.13506 0.54700
 H627 H 0.64088 -0.26745 0.57181
 H628 H 0.62516 -0.22066 0.55428
 H629 H 0.54918 -0.22399 0.61013
 H630 H 0.56385 -0.27129 0.62799
 H631 H 0.50725 -0.14667 0.58932
 H632 H 0.49438 -0.09866 0.56974
 H633 H 0.57558 -0.09735 0.52095
 H634 H 0.58806 -0.14497 0.54042
 C635 C 1.11860 0.76056 0.42683
 C636 C 1.10576 0.73573 0.43872
 C637 C 1.09412 0.71467 0.42027
 C638 C 1.09529 0.71881 0.38964
 C639 C 1.10778 0.74374 0.37777
 C640 C 1.11957 0.76488 0.39622
 N641 N 1.08119 0.68939 0.43300
 N642 N 1.07368 0.66800 0.41728
 C643 C 1.06047 0.64267 0.42951
 C644 C 1.05748 0.61824 0.41165
 C645 C 1.04532 0.59289 0.42299
 C646 C 1.03545 0.59173 0.45238
 C647 C 1.03791 0.61653 0.47012
 C648 C 1.05050 0.64174 0.45886
 H649 H 1.12732 0.77662 0.44151
 H650 H 1.10495 0.73283 0.46236
 H651 H 1.08645 0.70288 0.37489
 H652 H 1.10856 0.74632 0.35411
 H653 H 1.06499 0.61874 0.38897
 H654 H 1.04364 0.57420 0.40874
 H655 H 1.03061 0.61626 0.49287
 H656 H 1.05243 0.66044 0.47303
 C657 C -0.13079 1.23678 0.09886
 C658 C -0.11948 1.21019 0.08929
 C659 C -0.09004 1.20364 0.09232
 C660 C -0.07195 1.22369 0.10596
 C661 C -0.08339 1.25002 0.11651
 C662 C -0.11299 1.25725 0.11274
 N663 N -0.07932 1.17629 0.08175
 N664 N -0.05287 1.17197 0.07443
 C665 C -0.04299 1.14411 0.06433
 C666 C -0.01846 1.14210 0.04587
 C667 C -0.00939 1.11523 0.03452
 C668 C -0.02426 1.08987 0.04229
 C669 C -0.04833 1.09185 0.06153
 C670 C -0.05784 1.11876 0.07218
 H671 H -0.15377 1.24066 0.09619
 H672 H -0.13368 1.19471 0.07909
 H673 H -0.04910 1.21886 0.10872
 H674 H -0.06869 1.26504 0.12661
 H675 H -0.00680 1.16148 0.03970
 H676 H 0.00933 1.11424 0.01985
 H677 H -0.06022 1.07264 0.06781
 H678 H -0.07671 1.11979 0.08661
 C679 C 0.38981 0.27522 0.85858
 C680 C 0.40245 0.30072 0.86847
 C681 C 0.40619 0.30538 0.89855
 C682 C 0.39646 0.28451 0.91887
 C683 C 0.38338 0.25919 0.90901
 C684 C 0.38024 0.25419 0.87876
 N685 N 0.41983 0.33143 0.90789
 N686 N 0.42826 0.33487 0.93417
 C687 C 0.44137 0.36115 0.94368
 C688 C 0.45305 0.36230 0.97186
 C689 C 0.46513 0.38790 0.98222
 C690 C 0.46540 0.41295 0.96456
 C691 C 0.45396 0.41163 0.93609
 C692 C 0.44216 0.38590 0.92566
 H693 H 0.38733 0.27196 0.83517
 H694 H 0.40970 0.31673 0.85264
 H695 H 0.39895 0.28777 0.94227
 H696 H 0.37635 0.24319 0.92493
 H697 H 0.45255 0.34335 0.98593
 H698 H 0.47363 0.38825 1.00431
 H699 H 0.45386 0.43055 0.92197
 H700 H 0.43320 0.38553 0.90378
 C701 C 0.56377 0.59839 0.73056
 C702 C 0.55176 0.58845 0.75707
 C703 C 0.56964 0.57733 0.77910
 C704 C 0.59978 0.57560 0.77406
 C705 C 0.61177 0.58515 0.74739
 C706 C 0.59391 0.59691 0.72550
 N707 N 0.55677 0.56830 0.80643
 N708 N 0.57203 0.56233 0.82881
 C709 C 0.55939 0.55326 0.85622
 C710 C 0.57703 0.55132 0.88094
 C711 C 0.56538 0.54294 0.90816
 C712 C 0.53585 0.53593 0.91099
 C713 C 0.51822 0.53758 0.88602
 C714 C 0.52984 0.54634 0.85888
 H715 H 0.54953 0.60711 0.71392
 H716 H 0.52850 0.58981 0.76065
 H717 H 0.61405 0.56698 0.79073
 H718 H 0.63507 0.58402 0.74416
 H719 H 0.59983 0.55654 0.87915
 H720 H 0.57956 0.54174 0.92693
 H721 H 0.49539 0.53236 0.88751
 H722 H 0.51580 0.54758 0.84002
 C723 C 0.39321 0.14266 0.73513
 C724 C 0.40616 0.13123 0.70972
 C725 C 0.40669 0.10135 0.70486
 C726 C 0.39360 0.08283 0.72560
 C727 C 0.38061 0.09427 0.75116
 C728 C 0.38059 0.12432 0.75635
 N729 N 0.42113 0.09061 0.67897
 N730 N 0.42211 0.06386 0.67224
 C731 C 0.43711 0.05395 0.64627
 C732 C 0.43518 0.02482 0.63813
 C733 C 0.44911 0.01474 0.61252
 C734 C 0.46546 0.03369 0.59476
 C735 C 0.46775 0.06284 0.60328
 C736 C 0.45364 0.07291 0.62873
 H737 H 0.39305 0.16592 0.73812
 H738 H 0.41603 0.14570 0.69379
 H739 H 0.39377 0.05960 0.72226
 H740 H 0.37126 0.07960 0.76718
 H741 H 0.42259 0.00998 0.65149
 H742 H 0.44698 -0.00785 0.60660
 H743 H 0.48012 0.07799 0.59008
 H744 H 0.45561 0.09552 0.63463
 C745 C 0.14721 0.89431 0.24056
 C746 C 0.13726 0.90624 0.21429
 C747 C 0.10750 0.90948 0.20950
 C748 C 0.08760 0.90000 0.23108
 C749 C 0.09755 0.88766 0.25724
 C750 C 0.12745 0.88501 0.26232
 N751 N 0.09816 0.92237 0.18257
 N752 N 0.07190 0.92991 0.17841
 C753 C 0.06272 0.94235 0.15118
 C754 C 0.03422 0.95276 0.14891
 C755 C 0.02435 0.96425 0.12237
 C756 C 0.04286 0.96523 0.09751
 C757 C 0.07160 0.95506 0.09996
 C758 C 0.08150 0.94382 0.12659
 H759 H 0.17035 0.89217 0.24383
 H760 H 0.15277 0.91329 0.19773
 H761 H 0.06446 0.90214 0.22775
 H762 H 0.08195 0.88080 0.27378
 H763 H 0.01957 0.95173 0.16771
 H764 H 0.00206 0.97178 0.12116
 H765 H 0.08638 0.95553 0.08123
 H766 H 0.10365 0.93588 0.12781
 C767 C 0.86548 0.40653 0.24817
 C768 C 0.87496 0.41888 0.27431
 C769 C 0.90454 0.41962 0.28064
 C770 C 0.92474 0.40763 0.26046
 C771 C 0.91523 0.39491 0.23438
 C772 C 0.88549 0.39432 0.22794
 N773 N 0.91325 0.43205 0.30796
 N774 N 0.93969 0.43651 0.31411
 C775 C 0.94791 0.44832 0.34191
 C776 C 0.97686 0.45585 0.34624
 C777 C 0.98566 0.46676 0.37336
 C778 C 0.96561 0.46998 0.39681
 C779 C 0.93650 0.46254 0.39233
 C780 C 0.92768 0.45193 0.36511
 H781 H 0.84242 0.40597 0.24406
 H782 H 0.85919 0.42787 0.28976
 H783 H 0.94774 0.40783 0.26496
 H784 H 0.93108 0.38577 0.21911
 H785 H 0.99267 0.45314 0.32857
 H786 H 1.00827 0.47216 0.37613
 H787 H 0.92052 0.46479 0.40991
 H788 H 0.90517 0.44619 0.36236
   
