data_POSCAR
  _audit_creation_date              2014-09-24
  _audit_creation_method            'ToBaCCo'
  _symmetry_space_group_name_H-M    'P1'
  _symmetry_Int_Tables_number       1
  _symmetry_cell_setting            triclinic
  loop_
  _symmetry_equiv_pos_as_xyz
 x,y,z
_cell_length_a 20.1486
_cell_length_b 20.2933
_cell_length_c 48.6004
_cell_angle_alpha 93.477100
_cell_angle_beta 86.761200
_cell_angle_gamma 118.986300
loop_
  _atom_site_label
  _atom_site_type_symbol
  _atom_site_fract_x
  _atom_site_fract_y
  _atom_site_fract_z
C1 C 0.09320 0.02834 0.54479
 H2 H 0.11820 -0.00468 0.55108
 C3 C 0.08590 0.07872 0.56381
 H4 H 0.10403 0.08292 0.58472
 C5 C 0.04549 0.06808 0.50952
 H6 H 0.03302 0.06584 0.48802
 C7 C 0.03589 0.11851 0.52810
 H8 H 0.01564 0.15468 0.52074
 N9 N 0.07303 0.02374 0.51821
 C10 C 0.17899 -0.10838 0.51311
 H11 H 0.22797 -0.07152 0.50072
 C12 C 0.18239 -0.16130 0.52944
 H13 H 0.23440 -0.16462 0.52969
 C14 C 0.05116 -0.15004 0.52786
 H15 H 0.00037 -0.14469 0.52731
 C16 C 0.05216 -0.20290 0.54442
 H17 H 0.00201 -0.23641 0.55696
 Zn18 Zn 0.09746 -0.03631 0.49280
 N19 N 0.11392 -0.10362 0.51287
 C20 C 0.25130 0.07282 0.48402
 N21 N 0.18321 0.03110 0.47189
 C22 C 0.17186 0.04515 0.44604
 C23 C 0.22976 0.10418 0.43158
 C24 C 0.31150 0.13141 0.46997
 C25 C -0.05224 -0.10310 0.47056
 C26 C -0.10984 -0.15507 0.45351
 C27 C -0.02303 -0.19742 0.43434
 C28 C 0.03267 -0.14433 0.45148
 N29 N 0.01740 -0.09858 0.46913
 H30 H 0.25807 0.06231 0.50496
 H31 H 0.11669 0.01288 0.43710
 H32 H 0.21932 0.11542 0.41122
 H33 H 0.36517 0.16497 0.47994
 H34 H -0.06396 -0.06781 0.48534
 H35 H -0.16440 -0.15711 0.45569
 H36 H -0.00888 -0.23338 0.42068
 H37 H 0.08828 -0.14026 0.45111
 C38 C 0.11810 -0.20990 0.54516
 C39 C 0.05703 0.12448 0.55559
 C40 C -0.09588 -0.20396 0.43503
 C41 C 0.30013 0.14892 0.44380
 C42 C 1.07506 0.09529 0.13397
 H43 H 1.07787 0.14989 0.13386
 C44 C 1.12237 0.07932 0.11616
 H45 H 1.15994 0.12171 0.10198
 C46 C 1.02025 -0.02631 0.15229
 H47 H 0.98133 -0.06670 0.16677
 C48 C 1.06690 -0.04477 0.13471
 H49 H 1.06296 -0.09977 0.13556
 N50 N 1.02514 0.04285 0.15148
 C51 C 0.87605 0.14207 0.16533
 H52 H 0.88322 0.15872 0.18700
 C53 C 0.82884 0.15735 0.14990
 H54 H 0.80028 0.18655 0.15966
 C55 C 0.90213 0.08124 0.12637
 H56 H 0.92937 0.05013 0.11737
 C57 C 0.85457 0.09412 0.11038
 H58 H 0.84751 0.07458 0.08897
 Zn59 Zn 0.96963 0.07789 0.17489
 N60 N 0.91203 0.10517 0.15332
 C61 C 1.05606 0.23253 0.19465
 N62 N 1.04335 0.16044 0.19547
 C63 C 1.08605 0.14271 0.21101
 C64 C 1.14356 0.19811 0.22692
 C65 C 1.11319 0.28999 0.21038
 C66 C 0.85096 -0.06546 0.18949
 C67 C 0.79726 -0.11846 0.20728
 C68 C 0.84472 -0.02491 0.24467
 C69 C 0.89841 0.02568 0.22633
 N70 N 0.90106 0.00457 0.19935
 H71 H 1.02253 0.24573 0.18173
 H72 H 1.07473 0.08488 0.21116
 H73 H 1.17477 0.18155 0.23971
 H74 H 1.12262 0.34716 0.20973
 H75 H 0.85225 -0.07987 0.16774
 H76 H 0.75752 -0.17382 0.19909
 H77 H 0.84297 -0.00711 0.26605
 H78 H 0.93669 0.08249 0.23356
 C79 C 0.81653 0.13180 0.12226
 C80 C 1.11967 0.00890 0.11670
 C81 C 0.79403 -0.09812 0.23529
 C82 C 1.15822 0.27318 0.22657
 C83 C 0.00134 0.90709 0.87568
 H84 H -0.05566 0.85988 0.87622
 C85 C 0.05454 0.91145 0.89381
 H86 H 0.03799 0.86728 0.90834
 C87 C 0.09185 1.02134 0.85574
 H88 H 0.10600 1.06387 0.84081
 C89 C 0.14709 1.02816 0.87368
 H90 H 0.20363 1.07562 0.87189
 N91 N 0.02096 0.96075 0.85681
 C92 C -0.21149 0.87094 0.85419
 H93 H -0.22139 0.82413 0.84004
 C94 C -0.27150 0.86889 0.87084
 H95 H -0.32742 0.82019 0.86918
 C96 C -0.12668 0.99064 0.87374
 H97 H -0.06970 1.03768 0.87486
 C98 C -0.18480 0.99158 0.89036
 H99 H -0.16991 1.03917 0.90464
 Zn100 Zn -0.05696 0.94403 0.83277
 N101 N -0.14120 0.93221 0.85550
 C102 C -0.03747 0.82187 0.81141
 N103 N -0.07986 0.85706 0.80981
 C104 C -0.13462 0.83394 0.79081
 C105 C -0.14822 0.77325 0.77239
 C106 C -0.04915 0.76119 0.79348
 C107 C 0.03187 1.04643 0.79140
 C108 C 0.05066 1.10422 0.77316
 C109 C -0.05380 1.11987 0.79281
 C110 C -0.07067 1.06192 0.81051
 N111 N -0.02793 1.02653 0.80964
 H112 H 0.00672 0.84157 0.82623
 H113 H -0.16687 0.86349 0.78967
 H114 H -0.19143 0.75596 0.75718
 H115 H -0.01523 0.73382 0.79562
 H116 H 0.06432 1.01670 0.79077
 H117 H 0.09799 1.11903 0.75859
 H118 H -0.08812 1.14767 0.79453
 H119 H -0.11903 1.04461 0.82457
 C120 C -0.25933 0.93086 0.88862
 C121 C 0.12855 0.97223 0.89295
 C122 C 0.00674 1.14084 0.77340
 C123 C -0.10416 0.73704 0.77324
 O124 O 0.45988 0.13567 0.03090
 O125 O 0.58732 0.12319 -0.02346
 O126 O 0.46564 0.13816 -0.02271
 O127 O 0.58092 0.12066 0.02991
 O128 O 0.51015 -0.00326 0.02703
 O129 O 0.39444 0.01435 -0.02480
 O130 O 0.51656 -0.00068 -0.02627
 O131 O 0.38815 0.01184 0.02886
 Cu132 Cu 0.53044 0.14183 0.00386
 Cu133 Cu 0.44496 -0.00689 0.00094
 C134 C 0.40247 0.07631 0.03918
 C135 C 0.57463 0.05947 -0.03390
 C136 C 0.40998 0.07908 -0.03257
 C137 C 0.56552 0.05548 0.03715
 O138 O -0.08141 0.47242 0.63162
 O139 O -0.10750 0.34289 0.68578
 O140 O -0.08897 0.47967 0.68528
 O141 O -0.10275 0.33616 0.63205
 O142 O 0.02140 0.38178 0.63286
 O143 O 0.03494 0.52374 0.68611
 O144 O 0.01647 0.38696 0.68630
 O145 O 0.04293 0.51891 0.63228
 Cu146 Cu -0.10763 0.40332 0.65874
 Cu147 Cu 0.04145 0.45756 0.65951
 C148 C -0.01513 0.51741 0.62262
 C149 C -0.05029 0.34202 0.69504
 C150 C -0.02447 0.52634 0.69466
 C151 C -0.04283 0.33470 0.62340
 O152 O 0.55547 0.61764 0.31210
 O153 O 0.43088 0.48372 0.36433
 O154 O 0.55157 0.61738 0.36589
 O155 O 0.42984 0.49003 0.31136
 O156 O 0.49654 0.42967 0.30868
 O157 O 0.62492 0.56435 0.36085
 O158 O 0.50383 0.43006 0.36194
 O159 O 0.62148 0.55664 0.30729
 Cu160 Cu 0.48521 0.55815 0.33892
 Cu161 Cu 0.56876 0.48952 0.33452
 C162 C 0.60899 0.60883 0.30047
 C163 C 0.44583 0.43349 0.37178
 C164 C 0.61005 0.61411 0.37221
 C165 C 0.44162 0.43756 0.30098
 C166 C 0.05632 0.18189 0.57556
 C167 C 0.00520 0.20595 0.57588
 C168 C 0.00975 0.26368 0.59666
 C169 C -0.04812 0.27754 0.60218
 H170 H -0.04051 0.18210 0.56145
 H171 H 0.06128 0.29431 0.60819
 H172 H 0.09833 0.20321 0.59144
 H173 H -0.10089 0.24497 0.59154
 C174 C 0.73729 0.84914 0.25497
 C175 C 0.71524 0.77550 0.25384
 C176 C 0.66271 0.72580 0.27502
 C177 C 0.65776 0.65892 0.27873
 H178 H 0.73919 0.75233 0.23808
 H179 H 0.63035 0.74533 0.28839
 H180 H 0.71736 0.87248 0.27208
 H181 H 0.69326 0.64159 0.26618
 C182 C 0.18416 -0.02743 -0.08824
 C183 C 0.24993 0.03312 -0.08161
 C184 C 0.29957 0.02632 -0.06212
 C185 C 0.36255 0.08618 -0.05297
 H186 H 0.26644 0.08759 -0.08974
 H187 H 0.28323 -0.02899 -0.05468
 H188 H 0.16878 -0.08006 -0.07864
 H189 H 0.37858 0.14174 -0.06002
 C190 C 0.12127 0.73498 0.56304
 C191 C 0.05870 0.67208 0.57044
 C192 C 0.05866 0.62205 0.59114
 C193 C -0.00774 0.56760 0.60075
 H194 H 0.00486 0.65773 0.56171
 H195 H 0.11170 0.63157 0.59930
 H196 H 0.17573 0.74709 0.57065
 H197 H -0.06007 0.56046 0.59271
 C198 C 0.21738 0.33386 0.24371
 C199 C 0.27779 0.33057 0.25218
 C200 C 0.33167 0.38892 0.27114
 C201 C 0.39053 0.38393 0.28017
 H202 H 0.28745 0.28396 0.24550
 H203 H 0.32151 0.43486 0.27852
 H204 H 0.21103 0.38301 0.24950
 H205 H 0.40031 0.33782 0.27270
 C206 C 0.67899 -0.06998 -0.09587
 C207 C 0.68143 -0.00582 -0.08248
 C208 C 0.62162 -0.00907 -0.06563
 C209 C 0.62697 0.05732 -0.05338
 H210 H 0.73036 0.04893 -0.08541
 H211 H 0.57232 -0.06303 -0.06153
 H212 H 0.62567 -0.12231 -0.09521
 H213 H 0.67614 0.11066 -0.05842
 C214 C 0.17029 -0.00954 0.09836
 C215 C 0.23889 0.04373 0.08985
 C216 C 0.28728 0.02767 0.06978
 C217 C 0.35273 0.08469 0.06077
 H218 H 0.25998 0.10145 0.09750
 H219 H 0.26835 -0.02938 0.06168
 H220 H 0.15108 -0.06794 0.09197
 H221 H 0.36987 0.14142 0.06894
 C222 C 0.85143 0.74287 0.41828
 C223 C 0.77773 0.73115 0.41516
 C224 C 0.72872 0.67418 0.39713
 C225 C 0.65832 0.66696 0.39149
 H226 H 0.75814 0.76714 0.42580
 H227 H 0.74691 0.63677 0.38654
 H228 H 0.86757 0.70651 0.40567
 H229 H 0.64184 0.70651 0.40134
 C230 C 0.02496 0.20006 0.75332
 C231 C -0.02700 0.21721 0.74507
 C232 C -0.00855 0.27512 0.72474
 C233 C -0.06331 0.28729 0.71599
 H234 H -0.08517 0.18669 0.75273
 H235 H 0.04921 0.30685 0.71668
 H236 H 0.08186 0.22807 0.74420
 H237 H -0.12100 0.25417 0.72396
 C238 C 0.76375 0.14412 0.10611
 C239 C 0.71730 0.09137 0.08820
 C240 C 0.66674 0.10395 0.07113
 C241 C 0.61316 0.04629 0.05673
 H242 H 0.71634 0.03741 0.08607
 H243 H 0.67444 0.16039 0.06984
 H244 H 0.76096 0.19596 0.10978
 H245 H 0.60472 -0.01016 0.05892
 C246 C 0.36120 0.21437 0.42964
 C247 C 0.34660 0.26181 0.41651
 C248 C 0.40628 0.32448 0.40094
 C249 C 0.39274 0.37678 0.39102
 H250 H 0.28925 0.25371 0.41695
 H251 H 0.46035 0.32596 0.39659
 H252 H 0.41920 0.22525 0.43090
 H253 H 0.33908 0.37566 0.39604
 C254 C -0.11644 0.67493 0.75286
 C255 C -0.06165 0.65784 0.74493
 C256 C -0.07429 0.59704 0.72423
 C257 C -0.01678 0.58485 0.71563
 H258 H -0.00547 0.69040 0.75316
 H259 H -0.13020 0.56289 0.71587
 H260 H -0.17101 0.64471 0.74320
 H261 H 0.03901 0.62022 0.72393
   
