data_POSCAR
  _audit_creation_date              2014-09-24
  _audit_creation_method            'ToBaCCo'
  _symmetry_space_group_name_H-M    'P1'
  _symmetry_Int_Tables_number       1
  _symmetry_cell_setting            triclinic
  loop_
  _symmetry_equiv_pos_as_xyz
 x,y,z
_cell_length_a 41.0035
_cell_length_b 40.8881
_cell_length_c 40.8499
_cell_angle_alpha 89.947200
_cell_angle_beta 90.001200
_cell_angle_gamma 89.947400
loop_
  _atom_site_label
  _atom_site_type_symbol
  _atom_site_fract_x
  _atom_site_fract_y
  _atom_site_fract_z
C1 C 0.18965 1.23113 0.19006
 N2 N 0.21684 1.21723 0.17701
 C3 C 0.23039 1.19014 0.19069
 N4 N 0.21640 1.17683 0.21773
 C5 C 0.18921 1.19029 0.23123
 N6 N 0.17607 1.21743 0.21718
 C7 C 0.81140 0.76832 0.19030
 N8 N 0.78413 0.78187 0.17704
 C9 C 0.77021 0.80886 0.19050
 N10 N 0.78393 0.82243 0.21754
 C11 C 0.81120 0.80932 0.23124
 N12 N 0.82470 0.78226 0.21740
 C13 C 0.80940 1.23100 -0.19042
 N14 N 0.82277 1.21713 -0.21751
 C15 C 0.80941 1.18997 -0.23124
 N16 N 0.78230 1.17673 -0.21738
 C17 C 0.76859 1.19025 -0.19029
 N18 N 0.78235 1.21735 -0.17694
 C19 C 0.18944 0.76934 -0.19073
 N20 N 0.17607 0.78333 -0.21782
 C21 C 0.18943 0.81049 -0.23159
 N22 N 0.21661 0.82366 -0.21784
 C23 C 0.23038 0.81005 -0.19082
 N24 N 0.21662 0.78296 -0.17742
 C25 C 0.54970 1.04447 -0.00934
 H26 H 0.55044 1.04433 0.01714
 C27 C 0.57195 1.06340 -0.02695
 H28 H 0.58983 1.07800 -0.01405
 C29 C 0.52618 1.02482 -0.05859
 H30 H 0.50878 1.00923 -0.07083
 C31 C 0.54801 1.04339 -0.07715
 H32 H 0.54718 1.04227 -0.10364
 N33 N 0.52733 1.02580 -0.02529
 C34 C 0.45009 1.00909 0.04614
 H35 H 0.44940 0.98264 0.04606
 C36 C 0.42781 1.02668 0.06507
 H37 H 0.40995 1.01377 0.07973
 C38 C 0.47351 1.05831 0.02633
 H39 H 0.49086 1.07055 0.01067
 C40 C 0.45163 1.07685 0.04489
 H41 H 0.45240 1.10330 0.04369
 Zn42 Zn 0.49987 0.99914 0.00067
 N43 N 0.47242 1.02505 0.02739
 C44 C 0.52637 0.97344 0.05985
 N45 N 0.52740 0.97244 0.02655
 C46 C 0.54974 0.95374 0.01053
 C47 C 0.57208 0.93482 0.02807
 C48 C 0.54831 0.95489 0.07835
 C49 C 0.44997 0.98933 -0.04466
 C50 C 0.42767 0.97182 -0.06359
 C51 C 0.45155 0.92157 -0.04357
 C52 C 0.47345 0.94003 -0.02500
 N53 N 0.47235 0.97330 -0.02598
 H54 H 0.50901 0.98905 0.07214
 H55 H 0.55038 0.95386 -0.01595
 H56 H 0.58994 0.92021 0.01511
 H57 H 0.54758 0.95604 0.10483
 H58 H 0.44928 1.01578 -0.04452
 H59 H 0.40979 0.98478 -0.07820
 H60 H 0.45235 0.89511 -0.04245
 H61 H 0.49085 0.92774 -0.00940
 C62 C 0.42853 1.06085 0.06434
 C63 C 0.57115 1.06276 -0.06116
 C64 C 0.42842 0.93764 -0.06295
 C65 C 0.57142 0.93550 0.06228
 C66 C -0.00898 0.55019 1.04494
 H67 H 0.01740 0.55090 1.04480
 C68 C -0.02651 0.57250 1.06390
 H69 H -0.01363 0.59041 1.07854
 C70 C -0.05807 0.52668 1.02524
 H71 H -0.07028 0.50927 1.00962
 C72 C -0.07654 0.54859 1.04384
 H73 H -0.10293 0.54778 1.04272
 N74 N -0.02490 0.52779 1.02623
 C75 C 0.04621 0.45023 1.00947
 H76 H 0.04611 0.44956 0.98299
 C77 C 0.06506 0.42785 1.02706
 H78 H 0.07965 0.40993 1.01414
 C79 C 0.02651 0.47372 1.05874
 H80 H 0.01093 0.49114 1.07100
 C81 C 0.04501 0.45175 1.07729
 H82 H 0.04384 0.45251 1.10377
 Zn83 Zn 0.00093 0.50024 0.99953
 N84 N 0.02755 0.47265 1.02545
 C85 C 0.05989 0.52672 0.97381
 N86 N 0.02672 0.52783 0.97282
 C87 C 0.01075 0.55027 0.95412
 C88 C 0.02823 0.57264 0.93519
 C89 C 0.07832 0.54869 0.95523
 C90 C -0.04427 0.45028 0.98964
 C91 C -0.06317 0.42798 0.97208
 C92 C -0.04324 0.45196 0.92182
 C93 C -0.02470 0.47385 0.94033
 N94 N -0.02566 0.47271 0.97363
 H95 H 0.07213 0.50927 0.98942
 H96 H -0.01563 0.55097 0.95426
 H97 H 0.01532 0.59058 0.92057
 H98 H 0.10470 0.54789 0.95636
 H99 H -0.04412 0.44955 1.01612
 H100 H -0.07774 0.41006 0.98503
 H101 H -0.04215 0.45279 0.89534
 H102 H -0.00916 0.49128 0.92805
 C103 C 0.06436 0.42856 1.06127
 C104 C -0.06059 0.57174 1.06326
 C105 C -0.06257 0.42878 0.93787
 C106 C 0.06231 0.57190 0.93584
 C107 C 1.04441 -0.00937 0.54997
 H108 H 1.04425 0.01708 0.55068
 C109 C 1.06330 -0.02695 0.57232
 H110 H 1.07786 -0.01405 0.59028
 C111 C 1.02486 -0.05859 0.52637
 H112 H 1.00933 -0.07083 0.50891
 C113 C 1.04340 -0.07712 0.54833
 H114 H 1.04231 -0.10358 0.54751
 N115 N 1.02581 -0.02533 0.52750
 C116 C 1.00913 0.04600 0.44986
 H117 H 0.98275 0.04589 0.44912
 C118 C 1.02666 0.06493 0.42751
 H119 H 1.01379 0.07957 0.40955
 C120 C 1.05821 0.02626 0.47347
 H121 H 1.07042 0.01063 0.49093
 C122 C 1.07669 0.04483 0.45153
 H123 H 1.10307 0.04367 0.45236
 Zn124 Zn 0.99922 0.00058 0.49988
 N125 N 1.02504 0.02728 0.47232
 C126 C 0.97353 0.05971 0.52634
 N127 N 0.97256 0.02644 0.52744
 C128 C 0.95391 0.01043 0.54986
 C129 C 0.93502 0.02797 0.57222
 C130 C 0.95499 0.07819 0.54829
 C131 C 0.98947 -0.04473 0.44984
 C132 C 0.97202 -0.06368 0.42748
 C133 C 0.92190 -0.04372 0.45138
 C134 C 0.94029 -0.02512 0.47334
 N135 N 0.97347 -0.02608 0.47226
 H136 H 0.98910 0.07198 0.50891
 H137 H 0.95406 -0.01602 0.55056
 H138 H 0.92044 0.01502 0.59015
 H139 H 0.95611 0.10465 0.54751
 H140 H 1.01584 -0.04457 0.44916
 H141 H 0.98496 -0.07829 0.40956
 H142 H 0.89551 -0.04263 0.45216
 H143 H 0.92802 -0.00954 0.49077
 C144 C 1.06074 0.06425 0.42830
 C145 C 1.06271 -0.06113 0.57155
 C146 C 0.93794 -0.06309 0.42820
 C147 C 0.93565 0.06215 0.57149
 C148 C 0.13146 0.29912 1.17248
 C149 C 0.14481 0.31214 1.14380
 C150 C 0.17355 0.29891 1.13099
 C151 C 0.18869 0.27245 1.14650
 C152 C 0.17521 0.25866 1.17516
 C153 C 0.14649 0.27267 1.18809
 C154 C 0.12838 0.33829 1.12688
 C155 C 0.11426 0.35971 1.11236
 C156 C 0.09731 0.38425 1.09496
 C157 C 0.08248 0.40472 1.07978
 H158 H 0.10917 0.30917 1.18258
 H159 H 0.18408 0.30879 1.10875
 H160 H 0.21074 0.26265 1.13568
 H161 H 0.13526 0.26303 1.21007
 C162 C -0.17147 0.70050 1.13169
 C163 C -0.14265 0.68764 1.14471
 C164 C -0.12958 0.70091 1.17338
 C165 C -0.14498 0.72725 1.18877
 C166 C -0.17379 0.74090 1.17562
 C167 C -0.18698 0.72685 1.14697
 C168 C -0.12585 0.66161 1.12802
 C169 C -0.11143 0.64028 1.11370
 C170 C -0.09413 0.61586 1.09653
 C171 C -0.07902 0.59548 1.08154
 H172 H -0.18177 0.69043 1.10945
 H173 H -0.10723 0.69115 1.18365
 H174 H -0.13397 0.73710 1.21075
 H175 H -0.20908 0.73637 1.13599
 C176 C -0.13101 0.29978 0.82717
 C177 C -0.14406 0.31298 0.85592
 C178 C -0.17283 0.30004 0.86900
 C179 C -0.18828 0.27372 0.85367
 C180 C -0.17509 0.25990 0.82500
 C181 C -0.14640 0.27345 0.81178
 C182 C -0.12731 0.33899 0.87264
 C183 C -0.11296 0.36030 0.88703
 C184 C -0.09579 0.38470 0.90430
 C185 C -0.08081 0.40506 0.91941
 H186 H -0.10871 0.30957 0.81687
 H187 H -0.18310 0.31004 0.89129
 H188 H -0.21031 0.26396 0.86453
 H189 H -0.13557 0.26349 0.78976
 C190 C 0.13081 0.70161 0.82600
 C191 C 0.14393 0.68829 0.85465
 C192 C 0.17266 0.70123 0.86773
 C193 C 0.18802 0.72769 0.85251
 C194 C 0.17478 0.74180 0.82388
 C195 C 0.14607 0.72808 0.81067
 C196 C 0.12726 0.66214 0.87128
 C197 C 0.11293 0.64071 0.88556
 C198 C 0.09573 0.61618 0.90267
 C199 C 0.08069 0.59572 0.91760
 H200 H 0.10853 0.69180 0.81569
 H201 H 0.18300 0.69111 0.88996
 H202 H 0.21005 0.73727 0.86353
 H203 H 0.13501 0.73796 0.78870
 C204 C 1.13010 0.17387 0.29872
 C205 C 1.14302 0.14516 0.31211
 C206 C 1.17176 0.13194 0.29929
 C207 C 1.18735 0.14707 0.27289
 C208 C 1.17432 0.17576 0.25872
 C209 C 1.14559 0.18911 0.27231
 C210 C 1.12614 0.12863 0.33820
 C211 C 1.11166 0.11442 0.35958
 C212 C 1.09432 0.09737 0.38407
 C213 C 1.07919 0.08246 0.40450
 H214 H 1.10782 0.18429 0.30844
 H215 H 1.18194 0.10968 0.30946
 H216 H 1.20938 0.13594 0.26341
 H217 H 1.13470 0.21112 0.26238
 C218 C 1.17265 -0.13053 0.70070
 C219 C 1.14391 -0.14345 0.68762
 C220 C 1.13078 -0.17217 0.70072
 C221 C 1.14604 -0.18772 0.72710
 C222 C 1.17476 -0.17467 0.74095
 C223 C 1.18801 -0.14597 0.72708
 C224 C 1.12726 -0.12661 0.66156
 C225 C 1.11298 -0.11213 0.64020
 C226 C 1.09586 -0.09478 0.61574
 C227 C 1.08093 -0.07963 0.59533
 H228 H 1.18300 -0.10826 0.69076
 H229 H 1.10849 -0.18237 0.69079
 H230 H 1.13498 -0.20973 0.73680
 H231 H 1.21005 -0.13506 0.73676
 C232 C 0.86981 -0.17341 0.29892
 C233 C 0.85654 -0.14479 0.31208
 C234 C 0.82773 -0.13190 0.29906
 C235 C 0.81242 -0.14729 0.27266
 C236 C 0.82581 -0.17589 0.25871
 C237 C 0.85460 -0.18890 0.27252
 C238 C 0.87314 -0.12800 0.33817
 C239 C 0.88743 -0.11361 0.35954
 C240 C 0.90458 -0.09639 0.38401
 C241 C 0.91959 -0.08138 0.40443
 H242 H 0.89215 -0.18357 0.30880
 H243 H 0.81728 -0.10971 0.30906
 H244 H 0.79032 -0.13642 0.26301
 H245 H 0.86577 -0.21084 0.26276
 C246 C 0.82603 0.13115 0.70099
 C247 C 0.85470 0.14415 0.68780
 C248 C 0.86783 0.17287 0.70085
 C249 C 0.85265 0.18833 0.72729
 C250 C 0.82400 0.17521 0.74126
 C251 C 0.81075 0.14651 0.72743
 C252 C 0.87127 0.12738 0.66167
 C253 C 0.88550 0.11297 0.64026
 C254 C 0.90256 0.09569 0.61575
 C255 C 0.91746 0.08059 0.59530
 H256 H 0.81568 0.10889 0.69108
 H257 H 0.89006 0.18311 0.69084
 H258 H 0.86371 0.21034 0.73696
 H259 H 0.78876 0.13555 0.73720
 C260 C 0.29921 1.13032 0.17382
 C261 C 0.31254 1.14328 0.14507
 C262 C 0.29967 1.17206 0.13176
 C263 C 0.27329 1.18763 0.14686
 C264 C 0.25935 1.17453 0.17551
 C265 C 0.27283 1.14583 0.18898
 C266 C 0.33860 1.12639 0.12859
 C267 C 0.35995 1.11189 0.11441
 C268 C 0.38439 1.09452 0.09740
 C269 C 0.40479 1.07935 0.08252
 H270 H 0.30894 1.10800 0.18430
 H271 H 0.30976 1.18227 0.10946
 H272 H 0.26359 1.20967 0.13582
 H273 H 0.26277 1.13506 0.21099
 C274 C 0.69981 1.17284 -0.13059
 C275 C 0.68674 1.14404 -0.14356
 C276 C 0.69977 1.13085 -0.17232
 C277 C 0.72606 1.14614 -0.18784
 C278 C 0.73974 1.17486 -0.17473
 C279 C 0.72610 1.18819 -0.14605
 C280 C 0.66078 1.12738 -0.12671
 C281 C 0.63951 1.11308 -0.11223
 C282 C 0.61515 1.09595 -0.09486
 C283 C 0.59482 1.08100 -0.07969
 H284 H 0.68995 1.18322 -0.10828
 H285 H 0.68988 1.10851 -0.18254
 H286 H 0.73588 1.13520 -0.20987
 H287 H 0.73595 1.21025 -0.13527
 C288 C 0.29942 0.86926 -0.17318
 C289 C 0.31249 0.85605 -0.14442
 C290 C 0.29938 0.82729 -0.13134
 C291 C 0.27301 0.81201 -0.14669
 C292 C 0.25933 0.82536 -0.17537
 C293 C 0.27305 0.85403 -0.18859
 C294 C 0.33854 0.87268 -0.12769
 C295 C 0.35988 0.88699 -0.11335
 C296 C 0.38431 0.90418 -0.09618
 C297 C 0.40469 0.91923 -0.08120
 H298 H 0.30934 0.89156 -0.18348
 H299 H 0.30927 0.81690 -0.10904
 H300 H 0.26312 0.78998 -0.13583
 H301 H 0.26320 0.86499 -0.21061
 C302 C 0.70103 0.82594 0.13113
 C303 C 0.68779 0.85464 0.14420
 C304 C 0.70084 0.86787 0.17293
 C305 C 0.72731 0.85271 0.18831
 C306 C 0.74116 0.82410 0.17509
 C307 C 0.72750 0.81072 0.14645
 C308 C 0.66164 0.87118 0.12748
 C309 C 0.64021 0.88539 0.11309
 C310 C 0.61569 0.90243 0.09583
 C311 C 0.59523 0.91732 0.08073
 H312 H 0.69115 0.81553 0.10885
 H313 H 0.69082 0.89013 0.18322
 H314 H 0.73715 0.86368 0.21031
 H315 H 0.73748 0.78874 0.13560
   
