data_POSCAR
  _audit_creation_date              2014-09-24
  _audit_creation_method            'ToBaCCo'
  _symmetry_space_group_name_H-M    'P1'
  _symmetry_Int_Tables_number       1
  _symmetry_cell_setting            triclinic
  loop_
  _symmetry_equiv_pos_as_xyz
 x,y,z
_cell_length_a 30.1219
_cell_length_b 18.4238
_cell_length_c 10.7767
_cell_angle_alpha 91.234200
_cell_angle_beta 91.004100
_cell_angle_gamma 89.350100
loop_
  _atom_site_label
  _atom_site_type_symbol
  _atom_site_fract_x
  _atom_site_fract_y
  _atom_site_fract_z
C1 C 0.70703 0.27351 0.52835
 C2 C 0.71544 0.25151 0.40377
 C3 C 0.75836 0.23097 0.36923
 C4 C 0.79421 0.23284 0.45467
 C5 C 0.78581 0.25033 0.58169
 C6 C 0.74290 0.27473 0.61396
 H7 H 0.73648 0.28820 0.71023
 H8 H 0.76417 0.21812 0.27212
 C9 C 0.20617 0.76491 0.53803
 C10 C 0.21524 0.75331 0.41063
 C11 C 0.25872 0.73448 0.37651
 C12 C 0.29343 0.72867 0.46457
 C13 C 0.28443 0.73973 0.59273
 C14 C 0.24090 0.75999 0.62596
 H15 H 0.23291 0.76776 0.72308
 H16 H 0.26628 0.72746 0.27894
 C17 C 0.28337 0.29508 -0.54301
 C18 C 0.26606 0.30538 -0.42309
 C19 C 0.23140 0.26131 -0.38512
 C20 C 0.21548 0.20401 -0.46187
 C21 C 0.23289 0.19435 -0.58377
 C22 C 0.26805 0.23824 -0.61973
 H23 H 0.28065 0.23333 -0.71326
 H24 H 0.21969 0.26773 -0.29093
 C25 C -0.21806 0.79793 -0.54423
 C26 C -0.23549 0.80885 -0.42454
 C27 C -0.26938 0.76395 -0.38451
 C28 C -0.28425 0.70475 -0.45823
 C29 C -0.26679 0.69407 -0.57993
 C30 C -0.23258 0.73940 -0.61857
 H31 H -0.22001 0.73373 -0.71202
 H32 H -0.28101 0.77110 -0.29034
 O33 O -0.06583 0.89430 0.23677
 O34 O -0.11039 0.97934 0.14196
 C35 C -0.10355 0.92831 0.22114
 O36 O 0.08526 1.10644 0.19794
 O37 O 0.12002 1.02627 0.06491
 C38 C 0.12054 1.07601 0.15218
 O39 O -0.03486 1.14269 0.24851
 O40 O -0.09571 1.09640 0.14516
 C41 C -0.07738 1.13808 0.22933
 O42 O 0.05528 0.85026 0.19051
 O43 O 0.10489 0.90136 0.05977
 C44 C 0.09459 0.85578 0.14421
 Zr45 Zr -0.00390 0.90911 0.14875
 O46 O 0.00893 0.90324 0.34206
 O47 O -0.02148 0.79813 0.14001
 Zr48 Zr 0.01776 1.08907 0.15508
 O49 O 0.03127 1.08959 0.34848
 O50 O 0.02916 1.20174 0.14461
 O51 O -0.03024 1.01179 0.19031
 O52 O 0.04543 0.98619 0.16123
 O53 O 0.03406 0.85593 -0.24679
 O54 O 0.09514 0.90555 -0.14913
 C55 C 0.07665 0.86159 -0.22976
 O56 O -0.05785 1.14748 -0.20349
 O57 O -0.10665 1.09926 -0.06736
 C58 C -0.09702 1.14244 -0.15575
 O59 O 0.06583 1.11476 -0.23241
 O60 O 0.10979 1.02636 -0.14469
 C61 C 0.10338 1.07995 -0.21896
 O62 O -0.08600 0.90377 -0.21424
 O63 O -0.12073 0.97976 -0.07470
 C64 C -0.12129 0.93355 -0.16714
 Zr65 Zr -0.01859 0.91420 -0.16136
 O66 O -0.02397 0.91181 -0.35745
 O67 O -0.03660 0.80349 -0.15712
 Zr68 Zr 0.00281 1.09429 -0.15454
 O69 O -0.00133 1.09797 -0.35062
 O70 O 0.01194 1.20803 -0.14435
 Zr71 Zr -0.06483 1.02347 0.02020
 Zr72 Zr 0.06401 0.97973 -0.02614
 O73 O 0.02825 0.99202 -0.19423
 O74 O -0.04749 1.01753 -0.16865
 O75 O 0.02592 0.88457 -0.02068
 O76 O -0.02592 1.11740 0.01437
 O77 O -0.05057 0.91155 0.00635
 O78 O 0.05077 1.09217 -0.01277
 H79 H 0.06804 0.97897 0.22784
 H80 H -0.04049 1.16572 0.02276
 H81 H 0.04371 0.98683 -0.27439
 H82 H -0.07531 0.87679 0.01131
 H83 H 0.03540 1.21905 0.23079
 H84 H 0.03923 1.21693 -0.09408
 H85 H -0.02955 1.07500 -0.37711
 H86 H -0.04212 0.95438 -0.38184
 H87 H -0.01064 0.77578 -0.12533
 H88 H 0.00064 0.77222 0.08814
 H89 H -0.00969 0.94082 0.38330
 H90 H 0.00821 1.06003 0.38671
 O91 O 0.43508 0.38744 0.23375
 O92 O 0.39108 0.47447 0.14241
 C93 C 0.39769 0.42259 0.21991
 O94 O 0.58691 0.59757 0.20933
 O95 O 0.62203 0.51982 0.07270
 C96 C 0.62234 0.56815 0.16230
 O97 O 0.46645 0.63451 0.25982
 O98 O 0.40586 0.59000 0.15293
 C99 C 0.42397 0.63017 0.23969
 O100 O 0.55469 0.33828 0.17757
 O101 O 0.60651 0.39696 0.06384
 C102 C 0.59482 0.34667 0.13891
 Zr103 Zr 0.49697 0.40200 0.14560
 O104 O 0.50951 0.38903 0.33773
 O105 O 0.48009 0.29159 0.12002
 Zr106 Zr 0.51922 0.58196 0.16518
 O107 O 0.53198 0.57756 0.35868
 O108 O 0.53102 0.69477 0.16312
 O109 O 0.47097 0.50406 0.19331
 O110 O 0.54647 0.47850 0.16565
 O111 O 0.53627 0.35869 -0.25221
 O112 O 0.59711 0.40469 -0.14802
 C113 C 0.57881 0.36395 -0.23390
 O114 O 0.44461 0.64704 -0.19400
 O115 O 0.39551 0.59719 -0.06036
 C116 C 0.40528 0.64123 -0.14735
 O117 O 0.56875 0.61508 -0.22003
 O118 O 0.61223 0.52502 -0.13530
 C119 C 0.60617 0.57968 -0.20757
 O120 O 0.41601 0.40341 -0.21615
 O121 O 0.38109 0.47780 -0.07446
 C122 C 0.38061 0.43232 -0.16808
 Zr123 Zr 0.48350 0.41421 -0.16336
 O124 O 0.47835 0.41755 -0.35932
 O125 O 0.46661 0.30292 -0.16769
 Zr126 Zr 0.50539 0.59426 -0.14406
 O127 O 0.50232 0.60485 -0.33914
 O128 O 0.51462 0.70763 -0.12296
 Zr129 Zr 0.43695 0.51977 0.02341
 Zr130 Zr 0.56573 0.47651 -0.02106
 O131 O 0.53064 0.49266 -0.18931
 O132 O 0.45495 0.51787 -0.16494
 O133 O 0.52752 0.38149 -0.02380
 O134 O 0.47603 0.61369 0.02507
 O135 O 0.45074 0.40806 0.00299
 O136 O 0.55282 0.58875 -0.00115
 H137 H 0.56888 0.46913 0.23195
 H138 H 0.46135 0.66177 0.03574
 H139 H 0.54622 0.48936 -0.26945
 H140 H 0.42593 0.37331 0.00602
 H141 H 0.53753 0.70978 0.25035
 H142 H 0.54291 0.71489 -0.07645
 H143 H 0.47654 0.57660 -0.36998
 H144 H 0.45806 0.45818 -0.38049
 H145 H 0.49071 0.27621 -0.12411
 H146 H 0.48109 0.27034 0.20373
 H147 H 0.49368 0.42893 0.38169
 H148 H 0.50781 0.54938 0.39473
 N149 N 0.33272 0.45361 0.33965
 N150 N 0.30211 0.42172 0.40531
 C151 C 0.31194 0.35013 0.40303
 C152 C 0.34968 0.33885 0.33407
 N153 N 0.36153 0.40490 0.29678
 H154 H 0.36614 0.28795 0.31080
 N155 N -0.16959 0.95757 0.33797
 N156 N -0.20034 0.92491 0.40214
 C157 C -0.18995 0.85350 0.40051
 C158 C -0.15158 0.84324 0.33353
 N159 N -0.14000 0.90966 0.29679
 H160 H -0.13442 0.79276 0.31159
 N161 N 0.70259 0.58752 0.15787
 N162 N 0.73331 0.62191 0.22578
 C163 C 0.71348 0.64717 0.33015
 C164 C 0.66932 0.62825 0.32190
 N165 N 0.66398 0.59105 0.21439
 H166 H 0.64272 0.64457 0.38311
 N167 N 0.20105 1.09295 0.14927
 N168 N 0.23218 1.12489 0.21921
 C169 C 0.21240 1.15021 0.32362
 C170 C 0.16785 1.13415 0.31317
 N171 N 0.16224 1.09836 0.20442
 H172 H 0.14136 1.15083 0.37452
 N173 N 0.59220 0.29435 -0.42326
 N174 N 0.62588 0.27159 -0.49152
 C175 C 0.66368 0.28971 -0.42966
 C176 C 0.65158 0.32415 -0.31919
 N177 N 0.60693 0.32586 -0.31939
 H178 H 0.67276 0.34860 -0.24812
 N179 N 0.09061 0.76899 -0.38988
 N180 N 0.12417 0.74260 -0.45550
 C181 C 0.16086 0.77788 -0.41505
 C182 C 0.14888 0.82563 -0.32080
 N183 N 0.10485 0.81867 -0.30846
 H184 H 0.16988 0.86319 -0.26891
 N185 N 0.34214 0.72237 -0.12279
 N186 N 0.30896 0.74878 -0.19073
 C187 C 0.31575 0.72773 -0.31004
 C188 C 0.35477 0.68672 -0.31168
 N189 N 0.37019 0.68592 -0.19413
 H190 H 0.36831 0.65374 -0.38634
 N191 N -0.15671 1.23130 -0.13320
 N192 N -0.18839 1.26154 -0.20217
 C193 C -0.18355 1.23621 -0.32007
 C194 C -0.14783 1.18782 -0.31928
 N195 N -0.13181 1.18774 -0.20255
 H196 H -0.13674 1.15110 -0.39234
 N197 N 0.66302 0.54879 -0.35565
 N198 N 0.69172 0.58071 -0.42770
 C199 C 0.68885 0.65277 -0.40299
 C200 C 0.65735 0.66383 -0.31174
 N201 N 0.64201 0.59763 -0.28597
 H202 H 0.64587 0.71467 -0.27079
 N203 N 0.15910 1.04909 -0.37021
 N204 N 0.18864 1.08090 -0.43969
 C205 C 0.18741 1.15250 -0.41006
 C206 C 0.15607 1.16339 -0.31847
 N207 N 0.13912 1.09762 -0.29764
 H208 H 0.14581 1.21388 -0.27379
 N209 N 0.29926 0.42609 -0.17340
 N210 N 0.26754 0.39267 -0.23923
 C211 C 0.28785 0.35530 -0.33173
 C212 C 0.33288 0.36604 -0.31919
 N213 N 0.33867 0.41066 -0.22045
 H214 H 0.35914 0.34138 -0.37360
 N215 N -0.20264 0.92882 -0.17413
 N216 N -0.23436 0.89638 -0.24135
 C217 C -0.21397 0.85935 -0.33409
 C218 C -0.16894 0.86909 -0.32024
 N219 N -0.16320 0.91280 -0.22041
 H220 H -0.14268 0.84409 -0.37422
 N221 N 0.40876 0.72713 0.39096
 N222 N 0.37469 0.75536 0.45230
 C223 C 0.33863 0.71685 0.41663
 C224 C 0.35141 0.66526 0.32951
 N225 N 0.39539 0.67300 0.31721
 H226 H 0.33100 0.62488 0.28237
 N227 N -0.09169 1.22747 0.39374
 N228 N -0.12572 1.25392 0.45714
 C229 C -0.16270 1.22257 0.40881
 C230 C -0.15025 1.17785 0.31068
 N231 N -0.10580 1.18139 0.30629
 H232 H -0.17098 1.14228 0.25387
 N233 N 0.62365 0.22781 0.19497
 N234 N 0.65580 0.20004 0.26558
 C235 C 0.68129 0.25606 0.30434
 C236 C 0.66404 0.31898 0.25468
 N237 N 0.62833 0.29889 0.18646
 H238 H 0.67394 0.37430 0.27548
 N239 N 0.15310 0.76441 0.12458
 N240 N 0.18530 0.73565 0.19366
 C241 C 0.18181 0.76486 0.30932
 C242 C 0.14637 0.81337 0.30789
 N243 N 0.12919 0.81043 0.19216
 H244 H 0.13585 0.85095 0.38041
   
