data_POSCAR
  _audit_creation_date              2014-09-24
  _audit_creation_method            'ToBaCCo'
  _symmetry_space_group_name_H-M    'P1'
  _symmetry_Int_Tables_number       1
  _symmetry_cell_setting            triclinic
  loop_
  _symmetry_equiv_pos_as_xyz
 x,y,z
_cell_length_a 33.8043
_cell_length_b 34.3064
_cell_length_c 32.0054
_cell_angle_alpha 92.770200
_cell_angle_beta 89.209200
_cell_angle_gamma 92.459400
loop_
  _atom_site_label
  _atom_site_type_symbol
  _atom_site_fract_x
  _atom_site_fract_y
  _atom_site_fract_z
C1 C 0.28034 0.44256 0.99604
 C2 C 0.25193 0.44165 1.03396
 C3 C 0.22807 0.47273 1.03766
 C4 C 0.23467 0.50210 1.00310
 C5 C 0.25272 0.44603 0.95870
 C6 C 0.22891 0.47716 0.96223
 C7 C 0.30257 0.48212 1.00079
 C8 C 0.27906 0.51309 1.00475
 H9 H 0.24932 0.41749 1.05452
 H10 H 0.21557 0.52762 1.00656
 H11 H 0.25026 0.42456 0.93294
 H12 H 0.33458 0.48526 1.00231
 C13 C 0.72394 0.56220 0.00672
 C14 C 0.74848 0.55690 0.04584
 C15 C 0.77298 0.52634 0.04264
 C16 C 0.77056 0.50336 0.00020
 C17 C 0.75501 0.56518 -0.02887
 C18 C 0.77930 0.53430 -0.03245
 C19 C 0.70260 0.52252 -0.00242
 C20 C 0.72665 0.49196 -0.00552
 H21 H 0.74695 0.57642 0.07337
 H22 H 0.79013 0.47820 -0.00246
 H23 H 0.75676 0.58816 -0.05074
 H24 H 0.67081 0.51892 -0.00620
 C25 C 0.04015 0.20858 0.49848
 C26 C 0.04053 0.23401 0.46325
 C27 C 0.00881 0.26076 0.46382
 C28 C -0.01763 0.25660 0.50025
 C29 C 0.03961 0.23630 0.53745
 C30 C 0.00985 0.26201 0.53844
 C31 C -0.00124 0.18843 0.49733
 C32 C -0.03131 0.21329 0.49902
 H33 H 0.05996 0.22979 0.43645
 H34 H -0.04256 0.27643 0.50220
 H35 H 0.06190 0.23614 0.56139
 H36 H -0.00665 0.15708 0.49423
 C37 C 0.94833 0.77818 0.50257
 C38 C 0.95114 0.74701 0.46675
 C39 C 0.98579 0.72816 0.46533
 C40 C 1.01491 0.74228 0.50007
 C41 C 0.95604 0.75580 0.54191
 C42 C 0.99108 0.73713 0.54129
 C43 C 0.98499 0.80498 0.49755
 C44 C 1.01984 0.78673 0.49560
 H45 H 0.92684 0.73881 0.44597
 H46 H 1.04347 0.72767 0.49775
 H47 H 0.93348 0.75121 0.56560
 H48 H 0.98314 0.83636 0.49636
 C49 C 0.50961 0.06288 0.21137
 C50 C 0.47433 0.06289 0.24227
 C51 C 0.47125 0.03083 0.26599
 C52 C 0.50438 0.00186 0.25676
 C53 C 0.54539 0.05891 0.23956
 C54 C 0.54285 0.02705 0.26338
 C55 C 0.50545 0.02615 0.18748
 C56 C 0.50203 -0.00774 0.21181
 H57 H 0.45399 0.08634 0.24540
 H58 H 0.50235 -0.02331 0.27711
 H59 H 0.56947 0.08068 0.24231
 H60 H 0.50734 0.02479 0.15364
 C61 C 0.49056 -0.05448 0.78940
 C62 C 0.45453 -0.05305 0.76115
 C63 C 0.45653 -0.02328 0.73457
 C64 C 0.49436 0.00294 0.73869
 C65 C 0.52651 -0.05496 0.75924
 C66 C 0.52838 -0.02514 0.73249
 C67 C 0.49409 -0.01376 0.81150
 C68 C 0.49573 0.01606 0.78510
 H69 H 0.43030 -0.07478 0.76107
 H70 H 0.49523 0.02757 0.71740
 H71 H 0.55004 -0.07518 0.76083
 H72 H 0.49613 -0.00882 0.84510
 C73 C 0.31512 0.02853 0.45549
 H74 H 0.31368 0.04840 0.48272
 C75 C 0.34470 0.03410 0.42539
 H76 H 0.36612 0.05821 0.43011
 C77 C 0.29006 -0.02834 0.41816
 H78 H 0.26940 -0.05320 0.41600
 C79 C 0.31887 -0.02352 0.38686
 H80 H 0.31909 -0.04422 0.36026
 N81 N 0.28849 -0.00216 0.45139
 C82 C 0.19377 0.03954 0.53320
 H83 H 0.19393 0.01864 0.55745
 C84 C 0.16712 0.06956 0.53581
 H85 H 0.14790 0.07196 0.56302
 C86 C 0.21904 0.06132 0.46865
 H87 H 0.23876 0.05747 0.44204
 C88 C 0.19213 0.09119 0.46943
 H89 H 0.19149 0.10971 0.44305
 Zn90 Zn 0.25249 -0.00710 0.49669
 N91 N 0.21930 0.03615 0.50020
 C92 C 0.28238 0.01689 0.57799
 N93 N 0.28418 -0.00918 0.54464
 C94 C 0.31184 -0.03684 0.54217
 C95 C 0.33962 -0.03873 0.57369
 C96 C 0.30911 0.01545 0.61077
 C97 C 0.19728 -0.05791 0.45532
 C98 C 0.16916 -0.08876 0.45117
 C99 C 0.18591 -0.10813 0.52003
 C100 C 0.21463 -0.07752 0.52233
 N101 N 0.21928 -0.05280 0.49049
 H102 H 0.26101 0.03940 0.57888
 H103 H 0.31289 -0.05683 0.51501
 H104 H 0.36191 -0.06051 0.57103
 H105 H 0.30778 0.03649 0.63703
 H106 H 0.20095 -0.03739 0.43079
 H107 H 0.15240 -0.09220 0.42258
 H108 H 0.18122 -0.12588 0.54684
 H109 H 0.23176 -0.07236 0.55048
 C110 C 0.16537 0.09559 0.50324
 C111 C 0.34683 0.00802 0.39028
 C112 C 0.16203 -0.11368 0.48439
 C113 C 0.33845 -0.01226 0.60835
 C114 C 0.68280 0.02590 0.54949
 H115 H 0.68136 0.04751 0.52608
 C116 C 0.65355 0.02362 0.58063
 H117 H 0.62964 0.04363 0.58086
 C118 C 0.71431 -0.02815 0.57557
 H119 H 0.73742 -0.04891 0.57298
 C120 C 0.68592 -0.03128 0.60739
 H121 H 0.68825 -0.05389 0.62957
 N122 N 0.71217 -0.00000 0.54729
 C123 C 0.80990 0.04758 0.47249
 H124 H 0.81296 0.02327 0.45002
 C125 C 0.83588 0.08017 0.47098
 H126 H 0.85937 0.08032 0.44764
 C127 C 0.77630 0.07590 0.53111
 H128 H 0.75309 0.07399 0.55456
 C129 C 0.80184 0.10912 0.53086
 H130 H 0.79797 0.13262 0.55416
 Zn131 Zn 0.74673 0.00056 0.50038
 N132 N 0.78063 0.04610 0.50198
 C133 C 0.71926 0.02857 0.42496
 N134 N 0.71447 -0.00027 0.45249
 C135 C 0.68422 -0.02763 0.44865
 C136 C 0.65672 -0.02607 0.41659
 C137 C 0.69267 0.03110 0.39246
 C138 C 0.80676 -0.04406 0.52935
 C139 C 0.83120 -0.07569 0.53093
 C140 C 0.79774 -0.10563 0.47056
 C141 C 0.77390 -0.07334 0.47012
 N142 N 0.77861 -0.04355 0.49950
 H143 H 0.74295 0.05047 0.42879
 H144 H 0.68065 -0.04983 0.47145
 H145 H 0.63198 -0.04718 0.41493
 H146 H 0.69690 0.05451 0.37111
 H147 H 0.81017 -0.01974 0.55201
 H148 H 0.85383 -0.07513 0.55458
 H149 H 0.79330 -0.12926 0.44722
 H150 H 0.75166 -0.07219 0.44637
 C151 C 0.83206 0.11159 0.50037
 C152 C 0.65457 -0.00564 0.60981
 C153 C 0.82683 -0.10713 0.50133
 C154 C 0.66036 0.00413 0.38851
 C155 C 0.49470 0.20133 1.02065
 H156 H 0.47275 0.19911 0.99628
 C157 C 0.49217 0.17589 1.05324
 H158 H 0.46843 0.15369 1.05344
 C159 C 0.55300 0.23240 1.04904
 H160 H 0.57694 0.25409 1.04699
 C161 C 0.55161 0.20748 1.08230
 H162 H 0.57422 0.21071 1.10600
 N163 N 0.52429 0.22937 1.01955
 C164 C 0.47088 0.31791 0.94900
 H165 H 0.49208 0.32108 0.92363
 C166 C 0.43729 0.34027 0.95095
 H167 H 0.43320 0.36108 0.92718
 C168 C 0.45147 0.28794 1.01165
 H169 H 0.45731 0.26803 1.03569
 C170 C 0.41742 0.30950 1.01469
 H171 H 0.39708 0.30519 1.04064
 Zn172 Zn 0.52310 0.26254 0.97438
 N173 N 0.47712 0.29210 0.97887
 C174 C 0.48816 0.22542 0.90230
 N175 N 0.52156 0.22943 0.92561
 C176 C 0.55211 0.20532 0.91883
 C177 C 0.54918 0.17472 0.88856
 C178 C 0.48383 0.19494 0.87199
 C179 C 0.57218 0.32217 1.00913
 C180 C 0.60400 0.34932 1.01171
 C181 C 0.62548 0.32648 0.94280
 C182 C 0.59351 0.29922 0.94183
 N183 N 0.56775 0.29754 0.97481
 H184 H 0.46380 0.24421 0.90892
 H185 H 0.57784 0.20854 0.93862
 H186 H 0.57291 0.15453 0.88512
 H187 H 0.45637 0.19096 0.85497
 H188 H 0.55073 0.32077 1.03447
 H189 H 0.60672 0.36911 1.03903
 H190 H 0.64548 0.32801 0.91615
 H191 H 0.58891 0.28000 0.91443
 C192 C 0.40989 0.33608 0.98407
 C193 C 0.52064 0.17905 1.08485
 C194 C 0.63097 0.35185 0.97816
 C195 C 0.51416 0.16852 0.86571
 C196 C 0.44695 0.79039 -0.03313
 H197 H 0.42096 0.78543 -0.01384
 C198 C 0.44536 0.81544 -0.06605
 H199 H 0.41807 0.82970 -0.07150
 C200 C 0.51327 0.77645 -0.05063
 H201 H 0.53964 0.76106 -0.04503
 C202 C 0.51310 0.80152 -0.08371
 H203 H 0.53984 0.80573 -0.10223
 N204 N 0.48097 0.77247 -0.02509
 C205 C 0.41676 0.70176 0.05964
 H206 H 0.42616 0.71636 0.08875
 C207 C 0.38471 0.67468 0.05942
 H208 H 0.36944 0.66865 0.08852
 C209 C 0.42607 0.69084 -0.01349
 H210 H 0.44286 0.69691 -0.04162
 C211 C 0.39410 0.66375 -0.01518
 H212 H 0.38681 0.64859 -0.04471
 Zn213 Zn 0.48203 0.74322 0.02391
 N214 N 0.43694 0.70888 0.02358
 C215 C 0.44705 0.80000 0.07613
 N216 N 0.47990 0.77865 0.07129
 C217 C 0.51127 0.78506 0.09735
 C218 C 0.51190 0.81646 0.12691
 C219 C 0.44637 0.83150 0.10520
 C220 C 0.52443 0.67447 0.02627
 C221 C 0.55767 0.65174 0.02604
 C222 C 0.59929 0.71055 0.02278
 C223 C 0.56520 0.73225 0.02363
 N224 N 0.52863 0.71399 0.02475
 H225 H 0.42178 0.79350 0.05639
 H226 H 0.53671 0.76719 0.09400
 H227 H 0.53819 0.82290 0.14536
 H228 H 0.42067 0.84932 0.10718
 H229 H 0.49525 0.66041 0.02743
 H230 H 0.55370 0.62027 0.02662
 H231 H 0.62814 0.72546 0.02155
 H232 H 0.56791 0.76376 0.02303
 C233 C 0.37338 0.65491 0.02173
 C234 C 0.47911 0.82216 -0.09115
 C235 C 0.59567 0.66975 0.02396
 C236 C 0.47981 0.84110 0.12967
 C237 C 1.03819 0.45963 0.18515
 H238 H 1.01099 0.44253 0.17954
 C239 C 1.06874 0.45843 0.15546
 H240 H 1.06510 0.44015 0.12712
 C241 C 1.07575 0.50488 0.22852
 H242 H 1.07809 0.52360 0.25652
 C243 C 1.10747 0.50387 0.20000
 H244 H 1.13414 0.52166 0.20638
 N245 N 1.04199 0.48279 0.22072
 C246 C 0.96863 0.43957 0.32285
 H247 H 0.95029 0.46419 0.32983
 C248 C 0.96891 0.40901 0.35027
 H249 H 0.95074 0.41067 0.37835
 C250 C 1.01662 0.40925 0.27924
 H251 H 1.03572 0.40970 0.25192
 C252 C 1.01742 0.37788 0.30544
 H253 H 1.03661 0.35418 0.29719
 Zn254 Zn 0.99651 0.48458 0.25618
 N255 N 0.99273 0.43947 0.28847
 C256 C 0.92024 0.46262 0.22066
 N257 N 0.95273 0.48745 0.22026
 C258 C 0.95638 0.51621 0.19253
 C259 C 0.92625 0.52175 0.16451
 C260 C 0.88925 0.46702 0.19279
 C261 C 1.02720 0.53441 0.32287
 C262 C 1.02850 0.56737 0.35048
 C263 C 0.97026 0.58961 0.31766
 C264 C 0.97013 0.55641 0.29075
 N265 N 0.99863 0.52981 0.29328
 H266 H 0.91824 0.43967 0.24269
 H267 H 0.98282 0.53514 0.19251
 H268 H 0.92991 0.54486 0.14273
 H269 H 0.86322 0.44755 0.19378
 H270 H 1.04893 0.51239 0.32513
 H271 H 1.05182 0.57076 0.37338
 H272 H 0.94681 0.60989 0.31537
 H273 H 0.94671 0.55180 0.26828
 C274 C 0.99401 0.37776 0.34212
 C275 C 1.10384 0.48078 0.16276
 C276 C 0.99981 0.59564 0.34795
 C277 C 0.89194 0.49727 0.16460
 C278 C -0.04252 0.48529 0.80988
 H279 H -0.02098 0.46302 0.81168
 C280 C -0.07322 0.48757 0.83944
 H281 H -0.07506 0.46691 0.86399
 C282 C -0.06496 0.54043 0.77677
 H283 H -0.06144 0.56111 0.75242
 C284 C -0.09601 0.54390 0.80581
 H285 H -0.11646 0.56709 0.80326
 N286 N -0.03878 0.51168 0.77956
 C287 C 0.03357 0.45902 0.67947
 H288 H 0.05705 0.48134 0.67752
 C289 C 0.03394 0.42596 0.65243
 H290 H 0.05764 0.42348 0.62949
 C291 C -0.02633 0.43626 0.71090
 H292 H -0.04987 0.44048 0.73364
 C293 C -0.02698 0.40243 0.68454
 H294 H -0.05082 0.38066 0.68781
 Zn295 Zn 0.00642 0.50974 0.74407
 N296 N 0.00391 0.46357 0.70821
 C297 C 0.07736 0.47983 0.77403
 N298 N 0.05118 0.50874 0.77953
 C299 C 0.05400 0.53479 0.81295
 C300 C 0.08371 0.53208 0.84256
 C301 C 0.10755 0.47621 0.80265
 C302 C 0.00336 0.54908 0.66873
 C303 C 0.00509 0.58071 0.64294
 C304 C 0.01759 0.62370 0.70366
 C305 C 0.01635 0.59103 0.72834
 N306 N 0.00948 0.55449 0.71060
 H307 H 0.07439 0.45865 0.74820
 H308 H 0.03206 0.55660 0.81776
 H309 H 0.08454 0.55222 0.86967
 H310 H 0.12792 0.45290 0.79751
 H311 H -0.00373 0.52030 0.65514
 H312 H -0.00025 0.57571 0.60978
 H313 H 0.02284 0.65259 0.71820
 H314 H 0.02036 0.59499 0.76169
 C315 C 0.00364 0.39680 0.65496
 C316 C -0.10019 0.51749 0.83797
 C317 C 0.01222 0.61859 0.66032
 C318 C 0.11063 0.50205 0.83793
 C319 C 0.11134 0.18812 0.48225
 C320 C 0.07363 0.18001 0.49991
 C321 C 0.06803 0.14557 0.52189
 C322 C 0.09749 0.11843 0.52271
 C323 C 0.13453 0.12558 0.50345
 C324 C 0.14130 0.16124 0.48391
 H325 H 0.11798 0.21534 0.46743
 H326 H 0.04055 0.13914 0.53839
 H327 H 0.09067 0.09146 0.53796
 H328 H 0.16988 0.16864 0.47010
 C329 C 0.69238 0.62637 -0.01222
 C330 C 0.69410 0.59412 0.01329
 C331 C 0.66498 0.58963 0.04482
 C332 C 0.63376 0.61482 0.04902
 C333 C 0.63106 0.64568 0.02223
 C334 C 0.66120 0.65191 -0.00765
 H335 H 0.71408 0.63177 -0.03647
 H336 H 0.66560 0.56543 0.06531
 H337 H 0.61126 0.60976 0.07280
 H338 H 0.65977 0.67561 -0.02867
 C339 C 0.89477 -0.18253 0.54018
 C340 C 0.91133 -0.19795 0.50260
 C341 C 0.89795 -0.18448 0.46459
 C342 C 0.86933 -0.15633 0.46412
 C343 C 0.85368 -0.14033 0.50169
 C344 C 0.86607 -0.15442 0.53967
 H345 H 0.90523 -0.19048 0.57024
 H346 H 0.91116 -0.19421 0.43511
 H347 H 0.86108 -0.14557 0.43435
 H348 H 0.85439 -0.14285 0.56918
 C349 C 0.32953 0.40021 1.02902
 C350 C 0.30962 0.41002 0.99288
 C351 C 0.32259 0.39420 0.95386
 C352 C 0.35416 0.36921 0.95119
 C353 C 0.37433 0.36008 0.98727
 C354 C 0.36129 0.37546 1.02629
 H355 H 0.32166 0.41312 1.05937
 H356 H 0.30984 0.40220 0.92491
 H357 H 0.36330 0.35766 0.92066
 H358 H 0.37670 0.36978 1.05464
 C359 C 0.90914 0.18557 0.46238
 C360 C 0.92749 0.19797 0.49995
 C361 C 0.91092 0.18632 0.53798
 C362 C 0.87796 0.16026 0.53833
 C363 C 0.86134 0.14521 0.50054
 C364 C 0.87618 0.15952 0.46266
 H365 H 0.92207 0.19375 0.43274
 H366 H 0.92539 0.19496 0.56718
 H367 H 0.86748 0.14962 0.56798
 H368 H 0.86360 0.14895 0.43309
 C369 C 0.32148 0.55954 0.04764
 C370 C 0.29616 0.55271 0.01349
 C371 C 0.29242 0.58182 -0.01523
 C372 C 0.31605 0.61632 -0.01146
 C373 C 0.34329 0.62218 0.02138
 C374 C 0.34468 0.59403 0.05170
 H375 H 0.32477 0.53720 0.07000
 H376 H 0.27323 0.57680 -0.04194
 H377 H 0.31421 0.63773 -0.03505
 H378 H 0.36561 0.59748 0.07706
 C379 C 0.05882 -0.15788 0.46500
 C380 C 0.05798 -0.19118 0.48893
 C381 C 0.09293 -0.20118 0.50824
 C382 C 0.12739 -0.17702 0.50549
 C383 C 0.12743 -0.14231 0.48355
 C384 C 0.09274 -0.13359 0.46280
 H385 H 0.03277 -0.14983 0.44867
 H386 H 0.09326 -0.22671 0.52681
 H387 H 0.15370 -0.18520 0.52122
 H388 H 0.09093 -0.10705 0.44615
 C389 C 0.70930 0.42564 1.01851
 C390 C 0.71044 0.45200 0.98642
 C391 C 0.68960 0.44269 0.94945
 C392 C 0.66594 0.40840 0.94554
 C393 C 0.66222 0.38337 0.97892
 C394 C 0.68509 0.39159 1.01492
 H395 H 0.72481 0.43277 1.04745
 H396 H 0.68992 0.46308 0.92462
 H397 H 0.64836 0.40289 0.91767
 H398 H 0.68276 0.37258 1.04097
 C399 C 0.47880 0.11401 1.16830
 C400 C 0.51296 0.09695 1.18257
 C401 C 0.54978 0.10768 1.16430
 C402 C 0.55244 0.13525 1.13363
 C403 C 0.51828 0.15217 1.11968
 C404 C 0.48151 0.14160 1.13767
 H405 H 0.44963 0.10513 1.17947
 H406 H 0.57649 0.09366 1.17241
 H407 H 0.58106 0.14206 1.11952
 H408 H 0.45464 0.15416 1.12747
 C409 C -0.01656 0.71287 0.61456
 C410 C 0.00167 0.71034 0.57462
 C411 C 0.02812 0.68026 0.56625
 C412 C 0.03269 0.65129 0.59482
 C413 C 0.01195 0.65229 0.63307
 C414 C -0.01150 0.68416 0.64341
 H415 H -0.03558 0.73650 0.62346
 H416 H 0.04443 0.67776 0.53718
 H417 H 0.05178 0.62747 0.58657
 H418 H -0.02747 0.68587 0.67297
 C419 C 0.50379 0.87607 -0.18969
 C420 C 0.48642 0.91220 -0.18082
 C421 C 0.46307 0.91648 -0.14427
 C422 C 0.46023 0.88710 -0.11561
 C423 C 0.47964 0.85203 -0.12329
 C424 C 0.50071 0.84652 -0.16111
 H425 H 0.51964 0.87022 -0.21870
 H426 H 0.44744 0.94296 -0.13736
 H427 H 0.44365 0.89239 -0.08686
 H428 H 0.51480 0.81928 -0.16869
 C429 C 0.96777 0.30532 0.42600
 C430 C 1.00440 0.28842 0.43271
 C431 C 1.03707 0.30058 0.40790
 C432 C 1.03356 0.32919 0.37865
 C433 C 0.99716 0.34625 0.37246
 C434 C 0.96423 0.33359 0.39627
 H435 H 0.94111 0.29605 0.44237
 H436 H 1.06618 0.28964 0.41223
 H437 H 1.05991 0.33873 0.36176
 H438 H 0.93543 0.34522 0.39166
 C439 C 0.50441 0.92030 0.21368
 C440 C 0.49502 0.95430 0.19333
 C441 C 0.47838 0.94960 0.15310
 C442 C 0.47254 0.91282 0.13350
 C443 C 0.48320 0.87931 0.15315
 C444 C 0.49906 0.88327 0.19352
 H445 H 0.51774 0.92194 0.24422
 H446 H 0.46869 0.97415 0.13656
 H447 H 0.46050 0.91074 0.10224
 H448 H 0.50759 0.85775 0.20929
 C449 C -0.02893 0.31073 0.58186
 C450 C 0.00755 0.29491 0.57031
 C451 C 0.04233 0.31201 0.58814
 C452 C 0.04078 0.34430 0.61621
 C453 C 0.00449 0.36087 0.62694
 C454 C -0.03045 0.34339 0.60982
 H455 H -0.05636 0.29799 0.56932
 H456 H 0.07108 0.30119 0.57962
 H457 H 0.06822 0.35645 0.62936
 H458 H -0.05890 0.35547 0.61723
 C459 C 0.53266 0.08033 0.79338
 C460 C 0.49844 0.05704 0.80067
 C461 C 0.46814 0.07180 0.82634
 C462 C 0.47245 0.10907 0.84555
 C463 C 0.50744 0.13192 0.83993
 C464 C 0.53728 0.11750 0.81311
 H465 H 0.55661 0.06903 0.77427
 H466 H 0.44165 0.05396 0.83244
 H467 H 0.44928 0.11919 0.86658
 H468 H 0.56455 0.13455 0.80840
 C469 C 1.00521 0.65959 0.44819
 C470 C 0.99278 0.69535 0.43478
 C471 C 0.98450 0.69876 0.39231
 C472 C 0.98803 0.66679 0.36391
 C473 C 0.99950 0.63055 0.37746
 C474 C 1.00857 0.62751 0.41989
 H475 H 1.01040 0.65576 0.48086
 H476 H 0.97494 0.72612 0.38120
 H477 H 0.98144 0.67038 0.33134
 H478 H 1.01670 0.59991 0.43159
 C479 C 1.15866 0.48630 0.05924
 C480 C 1.19683 0.47624 0.07014
 C481 C 1.20462 0.46872 0.11192
 C482 C 1.17460 0.47116 0.14235
 C483 C 1.13618 0.48024 0.13121
 C484 C 1.12846 0.48785 0.08945
 H485 H 1.15195 0.49194 0.02715
 H486 H 1.23396 0.46113 0.12100
 H487 H 1.18110 0.46506 0.17437
 H488 H 1.09902 0.49505 0.08028
 C489 C 0.57399 0.01748 0.69003
 C490 C 0.56069 -0.02001 0.70116
 C491 C 0.57831 -0.05268 0.68183
 C492 C 0.60870 -0.04796 0.65230
 C493 C 0.62240 -0.01045 0.64151
 C494 C 0.60464 0.02223 0.66071
 H495 H 0.56126 0.04328 0.70436
 H496 H 0.56812 -0.08200 0.68893
 H497 H 0.62097 -0.07380 0.63736
 H498 H 0.61474 0.05153 0.65348
 C499 C -0.16922 0.56306 0.91927
 C500 C -0.19009 0.53010 0.93411
 C501 C -0.18156 0.49299 0.91664
 C502 C -0.15260 0.48889 0.88529
 C503 C -0.13164 0.52183 0.87055
 C504 C -0.14037 0.55897 0.88782
 H505 H -0.17464 0.59201 0.93249
 H506 H -0.19770 0.46708 0.92663
 H507 H -0.14694 0.45994 0.87219
 H508 H -0.12428 0.58486 0.87763
 C509 C 0.42213 0.05702 0.31864
 C510 C 0.43933 0.02488 0.29768
 C511 C 0.42556 -0.01296 0.30708
 C512 C 0.39558 -0.01852 0.33701
 C513 C 0.37830 0.01366 0.35788
 C514 C 0.39180 0.05148 0.34801
 H515 H 0.43228 0.08661 0.31280
 H516 H 0.43753 -0.03840 0.29103
 H517 H 0.38634 -0.04808 0.34412
 H518 H 0.37880 0.07701 0.36282
 C519 C 0.17713 0.45217 0.91134
 C520 C 0.19804 0.48394 0.93126
 C521 C 0.18921 0.52201 0.92128
 C522 C 0.16074 0.52811 0.89112
 C523 C 0.14045 0.49621 0.87054
 C524 C 0.14870 0.45823 0.88145
 H525 H 0.18234 0.42251 0.91923
 H526 H 0.20492 0.54703 0.93606
 H527 H 0.15519 0.55772 0.88330
 H528 H 0.13281 0.43305 0.86717
 C529 C 0.58903 0.05245 0.31947
 C530 C 0.57211 0.02050 0.29599
 C531 C 0.58342 -0.01731 0.30394
 C532 C 0.61199 -0.02293 0.33413
 C533 C 0.62956 0.00923 0.35689
 C534 C 0.61735 0.04688 0.34953
 H535 H 0.58003 0.08185 0.31497
 H536 H 0.57091 -0.04240 0.28618
 H537 H 0.62090 -0.05227 0.33908
 H538 H 0.62941 0.07215 0.36740
 C539 C 0.81185 0.47991 0.08270
 C540 C 0.80161 0.51831 0.07560
 C541 C 0.82000 0.54932 0.09935
 C542 C 0.84850 0.54223 0.12884
 C543 C 0.85941 0.50396 0.13539
 C544 C 0.84035 0.47277 0.11249
 H545 H 0.79790 0.45537 0.06523
 H546 H 0.81327 0.57929 0.09434
 H547 H 0.86233 0.56684 0.14635
 H548 H 0.84830 0.44299 0.11676
 C549 C 0.43755 -0.01225 0.66135
 C550 C 0.42616 -0.01839 0.70289
 C551 C 0.38573 -0.02115 0.71356
 C552 C 0.35706 -0.01806 0.68297
 C553 C 0.36850 -0.01313 0.64120
 C554 C 0.40891 -0.01010 0.63062
 H555 H 0.46859 -0.01032 0.65247
 H556 H 0.37640 -0.02567 0.74553
 H557 H 0.32600 -0.02053 0.69164
 H558 H 0.41824 -0.00614 0.59853
   
