data_POSCAR
  _audit_creation_date              2014-09-24
  _audit_creation_method            'ToBaCCo'
  _symmetry_space_group_name_H-M    'P1'
  _symmetry_Int_Tables_number       1
  _symmetry_cell_setting            triclinic
  loop_
  _symmetry_equiv_pos_as_xyz
 x,y,z
_cell_length_a 29.5160
_cell_length_b 29.3893
_cell_length_c 28.8210
_cell_angle_alpha 90.283300
_cell_angle_beta 90.236000
_cell_angle_gamma 120.206600
loop_
  _atom_site_label
  _atom_site_type_symbol
  _atom_site_fract_x
  _atom_site_fract_y
  _atom_site_fract_z
C1 C 0.53131 0.08453 0.06013
 H2 H 0.56797 0.08457 0.05920
 C3 C 0.52762 0.12283 0.08581
 H4 H 0.56151 0.15181 0.10522
 C5 C 0.44276 0.04654 0.03563
 H6 H 0.41016 0.01740 0.01521
 C7 C 0.43729 0.08417 0.06100
 H8 H 0.40032 0.08357 0.05991
 N9 N 0.48925 0.04733 0.03582
 C10 C 0.52193 -0.08064 0.01748
 H11 H 0.52091 -0.08376 -0.01997
 C12 C 0.52868 -0.11629 0.04426
 H13 H 0.53259 -0.14696 0.02707
 C14 C 0.51502 -0.03856 0.08521
 H15 H 0.50857 -0.00896 0.10109
 C16 C 0.52166 -0.07336 0.11331
 H17 H 0.52137 -0.06934 0.15066
 Zn18 Zn 0.50063 0.00021 -0.00036
 N19 N 0.51521 -0.04281 0.03821
 C20 C 0.60306 0.04024 -0.03816
 N21 N 0.55794 0.04212 -0.03937
 C22 C 0.55312 0.07697 -0.06677
 C23 C 0.59442 0.11141 -0.09491
 C24 C 0.64556 0.07424 -0.06568
 C25 C 0.39637 -0.07960 -0.01335
 C26 C 0.35202 -0.11671 -0.03785
 C27 C 0.39936 -0.08224 -0.10914
 C28 C 0.44271 -0.04595 -0.08312
 N29 N 0.44051 -0.04521 -0.03614
 H30 H 0.60649 0.01302 -0.01540
 H31 H 0.51716 0.07831 -0.06630
 H32 H 0.59002 0.13945 -0.11585
 H33 H 0.68119 0.07223 -0.06443
 H34 H 0.39575 -0.07836 0.02416
 H35 H 0.31763 -0.14130 -0.01758
 H36 H 0.40503 -0.08241 -0.14610
 H37 H 0.47872 -0.01949 -0.10065
 C38 C 0.52809 -0.11324 0.09290
 C39 C 0.48025 0.12321 0.08625
 C40 C 0.35242 -0.11956 -0.08701
 C41 C 0.64152 0.11047 -0.09450
 C42 C -0.08192 0.46968 0.60341
 H43 H -0.08245 0.43260 0.60326
 C44 C -0.11789 0.47554 0.57633
 H45 H -0.14627 0.44254 0.55558
 C46 C -0.04550 0.55687 0.63235
 H47 H -0.01773 0.58816 0.65478
 C48 C -0.08097 0.56439 0.60588
 H49 H -0.07952 0.60191 0.60758
 N50 N -0.04641 0.51014 0.63038
 C51 C 0.07936 0.47520 0.65098
 H52 H 0.08073 0.47453 0.68848
 C53 C 0.11577 0.46911 0.62491
 H54 H 0.14527 0.46400 0.64269
 C55 C 0.04090 0.48568 0.58253
 H56 H 0.01246 0.49329 0.56612
 C57 C 0.07653 0.47977 0.55513
 H58 H 0.07423 0.48174 0.51776
 Zn59 Zn -0.00150 0.49658 0.66740
 N60 N 0.04291 0.48330 0.62956
 C61 C -0.04331 0.39211 0.70192
 N62 N -0.04519 0.43743 0.70406
 C63 C -0.08126 0.44112 0.73055
 C64 C -0.11717 0.39828 0.75658
 C65 C -0.07865 0.34819 0.72747
 C66 C 0.07774 0.60047 0.68396
 C67 C 0.11364 0.64411 0.71006
 C68 C 0.07621 0.59420 0.77992
 C69 C 0.04098 0.55146 0.75252
 N70 N 0.04232 0.55537 0.70543
 H71 H -0.01517 0.38958 0.67983
 H72 H -0.08243 0.47733 0.73093
 H73 H -0.14602 0.40148 0.77727
 H74 H -0.07738 0.31204 0.72530
 H75 H 0.07856 0.60214 0.64646
 H76 H 0.14214 0.67965 0.69269
 H77 H 0.07543 0.59059 0.81733
 H78 H 0.01351 0.51492 0.76891
 C79 C 0.11495 0.47185 0.57629
 C80 C -0.11776 0.52337 0.57735
 C81 C 0.11301 0.64082 0.75846
 C82 C -0.11599 0.35134 0.75489
 C83 C 0.55284 0.47461 0.39947
 H84 H 0.51648 0.43730 0.39820
 C85 C 0.59467 0.48006 0.42642
 H86 H 0.59053 0.44691 0.44616
 C87 C 0.60333 0.56290 0.37398
 H88 H 0.60688 0.59466 0.35270
 C89 C 0.64625 0.57000 0.40049
 H90 H 0.68263 0.60738 0.39988
 N91 N 0.55777 0.51573 0.37406
 C92 C 0.39667 0.47789 0.34888
 H93 H 0.39609 0.47826 0.31135
 C94 C 0.35284 0.47023 0.37365
 H95 H 0.31825 0.46445 0.35521
 C96 C 0.44324 0.48733 0.41891
 H97 H 0.47896 0.49539 0.43643
 C98 C 0.40026 0.47984 0.44501
 H99 H 0.40288 0.48168 0.48255
 Zn100 Zn 0.50020 0.50225 0.33559
 N101 N 0.44069 0.48626 0.37171
 C102 C 0.44065 0.39900 0.29594
 N103 N 0.48743 0.44498 0.29663
 C104 C 0.52871 0.45090 0.27115
 C105 C 0.52379 0.40981 0.24314
 C106 C 0.43407 0.35677 0.26833
 C107 C 0.52325 0.60601 0.32274
 C108 C 0.53057 0.64999 0.29809
 C109 C 0.52119 0.60260 0.22660
 C110 C 0.51403 0.55949 0.25255
 N111 N 0.51522 0.56196 0.29976
 H112 H 0.40872 0.39468 0.31726
 H113 H 0.56568 0.48758 0.27299
 H114 H 0.55700 0.41484 0.22316
 H115 H 0.39694 0.32012 0.26814
 H116 H 0.52301 0.60652 0.36027
 H117 H 0.53618 0.68462 0.31664
 H118 H 0.51936 0.60006 0.18905
 H119 H 0.50623 0.52374 0.23491
 C120 C 0.35482 0.47158 0.42215
 C121 C 0.64186 0.52808 0.42676
 C122 C 0.52922 0.64811 0.24959
 C123 C 0.47612 0.36229 0.24180
 C124 C 0.23419 0.46573 0.49582
 C125 C 0.21691 0.50059 0.48387
 C126 C 0.17774 0.50211 0.50969
 C127 C 0.15524 0.46872 0.54794
 C128 C 0.17256 0.43343 0.55947
 C129 C 0.21180 0.43198 0.53354
 C130 C 0.27596 0.46596 0.47005
 C131 C 0.31158 0.46768 0.44829
 H132 H 0.23420 0.52711 0.45491
 H133 H 0.16595 0.53032 0.50036
 H134 H 0.15564 0.40685 0.58840
 H135 H 0.22491 0.40484 0.54310
 C136 C 0.53518 0.76896 0.17543
 C137 C 0.50171 0.78769 0.18791
 C138 C 0.49999 0.82652 0.16147
 C139 C 0.53177 0.84718 0.12206
 C140 C 0.56578 0.82852 0.11009
 C141 C 0.56743 0.78964 0.13663
 C142 C 0.53484 0.72722 0.20161
 C143 C 0.53308 0.69154 0.22352
 H144 H 0.47634 0.77172 0.21770
 H145 H 0.47279 0.83937 0.17119
 H146 H 0.59112 0.84404 0.08027
 H147 H 0.59347 0.77538 0.12665
 C148 C 0.22570 0.76218 0.83573
 C149 C 0.22916 0.75654 0.88340
 C150 C 0.27048 0.79608 0.90933
 C151 C 0.31017 0.84269 0.88811
 C152 C 0.30465 0.84775 0.83967
 C153 C 0.26316 0.80803 0.81406
 C154 C 0.18498 0.72000 0.80871
 C155 C 0.15172 0.68416 0.78588
 H156 H 0.20050 0.72084 0.90050
 H157 H 0.27210 0.78746 0.94545
 H158 H 0.33089 0.88294 0.82090
 H159 H 0.26049 0.81308 0.77712
 C160 C 0.76491 0.53574 0.49872
 C161 C 0.77866 0.55775 0.54333
 C162 C 0.81770 0.55485 0.56861
 C163 C 0.84326 0.52963 0.54958
 C164 C 0.82985 0.50860 0.50435
 C165 C 0.79093 0.51163 0.47916
 C166 C 0.72241 0.53536 0.47373
 C167 C 0.68605 0.53310 0.45249
 H168 H 0.75855 0.57625 0.55891
 H169 H 0.82675 0.57088 0.60352
 H170 H 0.84932 0.48960 0.48854
 H171 H 0.78059 0.49445 0.44466
 C172 C 0.47108 0.24375 0.16355
 C173 C 0.51549 0.25627 0.13720
 C174 C 0.51813 0.21717 0.11171
 C175 C 0.47634 0.16483 0.11224
 C176 C 0.43144 0.15268 0.13827
 C177 C 0.42891 0.19195 0.16388
 C178 C 0.47004 0.28415 0.19115
 C179 C 0.47154 0.31918 0.21427
 H180 H 0.54831 0.29625 0.13663
 H181 H 0.55285 0.22795 0.09141
 H182 H 0.39885 0.11267 0.13964
 H183 H 0.39442 0.18181 0.18431
 C184 C -0.22972 0.22641 0.82575
 C185 C -0.28022 0.19958 0.80650
 C186 C -0.32184 0.16086 0.83196
 C187 C -0.31352 0.14847 0.87712
 C188 C -0.26234 0.17461 0.89571
 C189 C -0.22073 0.21346 0.87019
 C190 C -0.18812 0.26935 0.80088
 C191 C -0.15451 0.30627 0.77996
 H192 H -0.28764 0.20933 0.77215
 H193 H -0.36066 0.14092 0.81649
 H194 H -0.25481 0.16636 0.93058
 H195 H -0.18184 0.23423 0.88553
   
