data_POSCAR
  _audit_creation_date              2014-09-24
  _audit_creation_method            'ToBaCCo'
  _symmetry_space_group_name_H-M    'P1'
  _symmetry_Int_Tables_number       1
  _symmetry_cell_setting            triclinic
  loop_
  _symmetry_equiv_pos_as_xyz
 x,y,z
_cell_length_a 37.7687
_cell_length_b 37.7668
_cell_length_c 28.9643
_cell_angle_alpha 90.057200
_cell_angle_beta 90.028100
_cell_angle_gamma 89.984100
loop_
  _atom_site_label
  _atom_site_type_symbol
  _atom_site_fract_x
  _atom_site_fract_y
  _atom_site_fract_z
Zr1 Zr -0.06230 0.00242 -0.00262
 O2 O -0.10183 -0.02522 -0.03997
 O3 O -0.09269 0.03435 0.04145
 O4 O -0.09162 -0.03184 0.04037
 O5 O -0.04876 0.06610 -0.08673
 O6 O -0.04928 -0.06367 0.07847
 O7 O -0.09132 0.03629 -0.04633
 O8 O -0.05106 0.06323 0.08459
 O9 O -0.03308 0.00066 0.05881
 O10 O -0.03211 0.04882 -0.00086
 O11 O -0.03194 -0.04414 -0.00685
 O12 O -0.03218 0.00228 -0.06409
 Zr13 Zr 0.06133 0.00101 -0.00371
 Zr14 Zr -0.00081 -0.04424 0.05302
 Zr15 Zr -0.00028 0.04768 -0.05956
 Zr16 Zr -0.00169 0.04614 0.05873
 O17 O 0.00115 0.04470 -0.13248
 O18 O -0.00187 0.03539 0.13057
 O19 O 0.03128 0.04807 0.00022
 O20 O 0.03075 0.00127 0.05702
 O21 O 0.03156 -0.04574 -0.00558
 O22 O 0.03159 0.00275 -0.06462
 C23 C -0.08319 0.05619 0.07312
 C24 C -0.08118 0.05895 -0.07669
 C25 C -0.08162 -0.05588 0.06903
 O26 O 0.00083 -0.04140 0.12593
 O27 O 0.04739 -0.06591 0.07619
 O28 O 0.09016 -0.03486 0.03786
 C29 C 0.07983 -0.05881 0.06648
 O30 O -0.04631 -0.06096 -0.09786
 Zr31 Zr 0.00066 -0.04269 -0.06515
 O32 O 0.09166 -0.03166 -0.04684
 O33 O -0.00266 -0.09988 0.04465
 O34 O -0.00103 -0.09843 -0.05659
 O35 O 0.00429 -0.03438 -0.13740
 O36 O 0.04994 -0.06329 -0.08638
 C37 C 0.08207 -0.05565 -0.07566
 O38 O 0.10089 0.02743 0.03504
 O39 O -0.00149 0.10338 -0.05169
 O40 O 0.09063 0.03690 -0.04465
 O41 O 0.04818 0.06980 -0.08107
 O42 O -0.00341 0.10207 0.05265
 O43 O 0.04525 0.06895 0.08625
 C44 C 0.08056 0.06189 -0.07193
 H45 H -0.04659 0.07067 -0.00065
 H46 H 0.04596 0.00102 0.08486
 H47 H 0.04645 0.00373 -0.09273
 H48 H -0.04725 -0.06537 -0.00866
 H49 H -0.00848 0.05760 0.14665
 H50 H -0.00020 -0.06608 0.13743
 H51 H -0.00195 -0.11032 0.07602
 H52 H 0.00545 -0.10931 -0.08657
 H53 H -0.00940 0.11181 0.08346
 H54 H -0.00232 0.11358 -0.08319
 H55 H 0.00196 0.06939 -0.14398
 H56 H 0.01031 -0.05742 -0.15179
 H57 H 0.03923 0.08367 0.11344
 H58 H 0.12416 0.01897 0.02358
 H59 H -0.12515 -0.01681 -0.02860
 H60 H -0.04037 -0.08019 -0.11979
 Zr61 Zr 0.56130 0.50101 0.49642
 O62 O 0.60077 0.52767 0.53504
 O63 O 0.59172 0.46812 0.45369
 O64 O 0.59005 0.46540 0.53848
 O65 O 0.54837 0.56928 0.41823
 O66 O 0.54720 0.43462 0.57704
 O67 O 0.59071 0.53660 0.45519
 O68 O 0.55008 0.43629 0.41428
 O69 O 0.53154 0.45424 0.49494
 O70 O 0.53167 0.50236 0.43539
 O71 O 0.53059 0.50165 0.55703
 O72 O 0.53126 0.54811 0.49972
 Zr73 Zr 0.43768 0.50243 0.49704
 Zr74 Zr 0.49905 0.45611 0.55342
 Zr75 Zr 0.49982 0.54734 0.43983
 Zr76 Zr 0.50076 0.45692 0.43524
 O77 O 0.49857 0.60309 0.44713
 O78 O 0.49914 0.40124 0.44443
 O79 O 0.46793 0.50191 0.43569
 O80 O 0.46805 0.45583 0.49344
 O81 O 0.46678 0.50106 0.55859
 O82 O 0.46785 0.54885 0.49840
 C83 C 0.58219 0.44401 0.42501
 C84 C 0.58073 0.56141 0.42758
 C85 C 0.57967 0.44165 0.56736
 O86 O 0.49723 0.40043 0.54566
 O87 O 0.45051 0.43685 0.57890
 O88 O 0.40827 0.46845 0.54029
 C89 C 0.41819 0.44459 0.56924
 O90 O 0.54506 0.56956 0.58546
 Zr91 Zr 0.49816 0.54654 0.55812
 O92 O 0.40720 0.53459 0.54071
 O93 O 0.50051 0.45944 0.62631
 O94 O 0.49793 0.53630 0.63009
 O95 O 0.49636 0.60243 0.55143
 O96 O 0.44875 0.56369 0.58373
 C97 C 0.41664 0.55656 0.57225
 O98 O 0.39823 0.47454 0.45986
 O99 O 0.50143 0.54393 0.36694
 O100 O 0.40875 0.53596 0.45282
 O101 O 0.45138 0.56553 0.41223
 O102 O 0.50444 0.46477 0.36291
 O103 O 0.45385 0.43840 0.40262
 C104 C 0.41894 0.55840 0.42221
 H105 H 0.54658 0.50318 0.40731
 H106 H 0.45274 0.43460 0.49181
 H107 H 0.45336 0.57068 0.49833
 H108 H 0.54575 0.50159 0.58493
 H109 H 0.50569 0.39017 0.41459
 H110 H 0.49787 0.39019 0.57714
 H111 H 0.49946 0.43483 0.63808
 H112 H 0.49130 0.55862 0.64589
 H113 H 0.51048 0.44163 0.34878
 H114 H 0.50225 0.56856 0.35520
 H115 H 0.49782 0.61309 0.41552
 H116 H 0.49031 0.61235 0.58212
 H117 H 0.45984 0.41899 0.38098
 H118 H 0.37488 0.48301 0.47105
 H119 H 0.62406 0.51914 0.52376
 H120 H 0.53900 0.58451 0.61243
 Zr121 Zr 0.56223 -0.00275 0.49870
 O122 O 0.60207 0.02468 0.46176
 O123 O 0.59233 -0.03496 0.54284
 O124 O 0.59153 0.03158 0.54189
 O125 O 0.54857 -0.06626 0.41411
 O126 O 0.54917 0.06358 0.57975
 O127 O 0.59118 -0.03668 0.45485
 O128 O 0.55044 -0.06376 0.58548
 O129 O 0.53282 -0.00086 0.55996
 O130 O 0.53179 -0.04900 0.50006
 O131 O 0.53200 0.04393 0.49441
 O132 O 0.53221 -0.00241 0.43707
 Zr133 Zr 0.43846 -0.00073 0.49684
 Zr134 Zr 0.50071 0.04418 0.55409
 Zr135 Zr 0.50009 -0.04767 0.44119
 Zr136 Zr 0.50122 -0.04620 0.55949
 O137 O 0.49881 -0.04460 0.36828
 O138 O 0.50139 -0.03546 0.63136
 O139 O 0.46836 -0.04791 0.50080
 O140 O 0.46894 -0.00120 0.55772
 O141 O 0.46848 0.04587 0.49532
 O142 O 0.46839 -0.00260 0.43610
 C143 C 0.58266 -0.05690 0.57426
 C144 C 0.58101 -0.05925 0.42427
 C145 C 0.58152 0.05575 0.57044
 O146 O 0.49896 0.04125 0.62699
 O147 O 0.45256 0.06606 0.57720
 O148 O 0.40971 0.03530 0.53848
 C149 C 0.42009 0.05918 0.56730
 O150 O 0.54666 0.06077 0.40353
 Zr151 Zr 0.49953 0.04270 0.43592
 O152 O 0.40842 0.03218 0.45362
 O153 O 0.50273 0.09981 0.54589
 O154 O 0.50151 0.09843 0.44468
 O155 O 0.49605 0.03436 0.36363
 O156 O 0.45042 0.06362 0.41446
 C157 C 0.41821 0.05617 0.42495
 O158 O 0.39863 -0.02694 0.53523
 O159 O 0.50106 -0.10338 0.44888
 O160 O 0.40914 -0.03658 0.45560
 O161 O 0.45158 -0.06964 0.41936
 O162 O 0.50252 -0.10214 0.55309
 O163 O 0.45413 -0.06875 0.58683
 C164 C 0.41919 -0.06165 0.42833
 H165 H 0.54616 -0.07091 0.50023
 H166 H 0.45367 -0.00089 0.58549
 H167 H 0.45358 -0.00350 0.40791
 H168 H 0.54739 0.06510 0.49272
 H169 H 0.50786 -0.05770 0.64741
 H170 H 0.50006 0.06591 0.63861
 H171 H 0.50198 0.11026 0.57728
 H172 H 0.49517 0.10936 0.41470
 H173 H 0.50842 -0.11199 0.58385
 H174 H 0.50196 -0.11357 0.41736
 H175 H 0.49791 -0.06928 0.35667
 H176 H 0.49015 0.05742 0.34926
 H177 H 0.46006 -0.08352 0.61399
 H178 H 0.37545 -0.01834 0.52361
 H179 H 0.62530 0.01611 0.47329
 H180 H 0.54085 0.07998 0.38155
 Zr181 Zr -0.06169 0.49933 -0.00731
 O182 O -0.10161 0.47314 0.03096
 O183 O -0.09169 0.53255 -0.05022
 O184 O -0.09029 0.53521 0.03472
 O185 O -0.04883 0.43044 -0.08489
 O186 O -0.04732 0.56580 0.07341
 O187 O -0.09112 0.46353 -0.04851
 O188 O -0.04968 0.56400 -0.08922
 O189 O -0.03155 0.54585 -0.00871
 O190 O -0.03187 0.49750 -0.06814
 O191 O -0.03113 0.49864 0.05350
 O192 O -0.03189 0.45207 -0.00359
 Zr193 Zr 0.06208 0.49697 -0.00570
 Zr194 Zr 0.00075 0.54394 0.04998
 Zr195 Zr -0.00024 0.45234 -0.06326
 Zr196 Zr -0.00060 0.54271 -0.06820
 O197 O 0.00064 0.39660 -0.05588
 O198 O 0.00172 0.59841 -0.05935
 O199 O 0.03200 0.49752 -0.06728
 O200 O 0.03196 0.54373 -0.00978
 O201 O 0.03274 0.49880 0.05562
 O202 O 0.03152 0.45080 -0.00444
 C203 C -0.08193 0.55672 -0.07867
 C204 C -0.08122 0.43839 -0.07578
 C205 C -0.07982 0.55895 0.06366
 O206 O 0.00284 0.59958 0.04191
 O207 O 0.04929 0.56317 0.07561
 O208 O 0.09153 0.53115 0.03756
 C209 C 0.08162 0.55527 0.06624
 O210 O -0.04612 0.43103 0.08229
 Zr211 Zr 0.00102 0.45355 0.05505
 O212 O 0.09214 0.46465 0.03837
 O213 O -0.00085 0.54088 0.12288
 O214 O 0.00120 0.46411 0.12696
 O215 O 0.00224 0.39762 0.04843
 O216 O 0.05020 0.43590 0.08099
 C217 C 0.08242 0.44273 0.06979
 O218 O 0.10194 0.52433 -0.04269
 O219 O -0.00161 0.45562 -0.13615
 O220 O 0.09090 0.46294 -0.04960
 O221 O 0.04821 0.43361 -0.09040
 O222 O -0.00439 0.53453 -0.14049
 O223 O 0.04653 0.56061 -0.10074
 C224 C 0.08071 0.44041 -0.08022
 H225 H -0.04676 0.49669 -0.09626
 H226 H 0.04741 0.56486 -0.01142
 H227 H 0.04583 0.42885 -0.00434
 H228 H -0.04636 0.49890 0.08131
 H229 H -0.00462 0.60942 -0.08928
 H230 H 0.00217 0.60997 0.07333
 H231 H 0.00031 0.56552 0.13457
 H232 H 0.00761 0.44181 0.14292
 H233 H -0.01027 0.55765 -0.15474
 H234 H -0.00260 0.43098 -0.14786
 H235 H 0.00145 0.38651 -0.08746
 H236 H 0.00813 0.38770 0.07916
 H237 H 0.04074 0.57979 -0.12278
 H238 H 0.12515 0.51569 -0.03122
 H239 H -0.12477 0.48185 0.01940
 H240 H -0.04022 0.41616 0.10936
 Zr241 Zr 0.06254 0.50243 0.50255
 O242 O 0.10218 0.47469 0.53954
 O243 O 0.09284 0.53455 0.45868
 O244 O 0.09185 0.46835 0.45924
 O245 O 0.04898 0.56566 0.58738
 O246 O 0.04952 0.43666 0.42089
 O247 O 0.09154 0.53609 0.54657
 O248 O 0.05112 0.56354 0.41588
 O249 O 0.03326 0.50089 0.44115
 O250 O 0.03229 0.54881 0.50130
 O251 O 0.03226 0.45581 0.50638
 O252 O 0.03249 0.50198 0.56406
 Zr253 Zr -0.06106 0.50085 0.50382
 Zr254 Zr 0.00107 0.45594 0.44657
 Zr255 Zr 0.00051 0.54736 0.56003
 Zr256 Zr 0.00181 0.54634 0.44173
 O257 O -0.00089 0.54411 0.63293
 O258 O 0.00188 0.53593 0.36978
 O259 O -0.03110 0.54797 0.50030
 O260 O -0.03055 0.50142 0.44305
 O261 O -0.03123 0.45412 0.50520
 O262 O -0.03127 0.50237 0.56470
 C263 C 0.08328 0.55648 0.42719
 C264 C 0.08139 0.55857 0.57722
 C265 C 0.08185 0.44442 0.43040
 O266 O -0.00062 0.45909 0.37368
 O267 O -0.04710 0.43432 0.42324
 O268 O -0.08988 0.46513 0.46199
 C269 C -0.07953 0.44133 0.43311
 O270 O 0.04675 0.43856 0.59716
 Zr271 Zr -0.00028 0.45696 0.56475
 O272 O -0.09131 0.46800 0.54673
 O273 O 0.00301 0.40026 0.45436
 O274 O 0.00144 0.40126 0.55562
 O275 O -0.00378 0.46499 0.63709
 O276 O -0.04951 0.43628 0.58595
 C277 C -0.08166 0.44394 0.57537
 O278 O -0.10069 0.52738 0.46537
 O279 O 0.00166 0.60310 0.55271
 O280 O -0.09039 0.53648 0.54510
 O281 O -0.04798 0.56931 0.58177
 O282 O 0.00349 0.60225 0.44839
 O283 O -0.04520 0.56924 0.41457
 C284 C -0.08034 0.56138 0.57258
 H285 H 0.04675 0.57066 0.50127
 H286 H -0.04580 0.50128 0.41523
 H287 H -0.04610 0.50323 0.59285
 H288 H 0.04760 0.43459 0.50796
 H289 H 0.00843 0.55821 0.35391
 H290 H 0.00043 0.43446 0.36193
 H291 H 0.00228 0.38996 0.42289
 H292 H -0.00501 0.39025 0.58549
 H293 H 0.00944 0.61213 0.41766
 H294 H 0.00248 0.61316 0.58430
 H295 H -0.00175 0.56875 0.64464
 H296 H -0.00976 0.44189 0.65128
 H297 H -0.03923 0.58412 0.38754
 H298 H -0.12394 0.51885 0.47678
 H299 H 0.12547 0.48317 0.52821
 H300 H 0.04085 0.41923 0.61890
 Zr301 Zr 0.43901 0.00067 0.00372
 O302 O 0.39945 0.02718 -0.03487
 O303 O 0.40869 -0.03231 0.04639
 O304 O 0.41038 -0.03503 -0.03831
 O305 O 0.45175 0.06908 0.08187
 O306 O 0.45330 -0.06570 -0.07697
 O307 O 0.40950 0.03624 0.04491
 O308 O 0.45044 -0.06404 0.08570
 O309 O 0.46892 -0.04601 0.00514
 O310 O 0.46861 0.00215 0.06477
 O311 O 0.46970 0.00138 -0.05690
 O312 O 0.46891 0.04784 0.00047
 Zr313 Zr 0.56261 0.00245 0.00304
 Zr314 Zr 0.50139 -0.04407 -0.05334
 Zr315 Zr 0.50034 0.04720 0.06036
 Zr316 Zr 0.49968 -0.04320 0.06484
 O317 O 0.50144 0.10295 0.05323
 O318 O 0.50156 -0.09889 0.05562
 O319 O 0.53238 0.00187 0.06442
 O320 O 0.53238 -0.04421 0.00664
 O321 O 0.53353 0.00095 -0.05852
 O322 O 0.53227 0.04878 0.00179
 C323 C 0.41830 -0.05642 0.07498
 C324 C 0.41942 0.06113 0.07247
 C325 C 0.42083 -0.05876 -0.06722
 O326 O 0.50331 -0.09975 -0.04568
 O327 O 0.54996 -0.06335 -0.07867
 O328 O 0.59211 -0.03157 -0.04012
 C329 C 0.58225 -0.05557 -0.06894
 O330 O 0.45503 0.06912 -0.08544
 Zr331 Zr 0.50199 0.04635 -0.05795
 O332 O 0.59298 0.03481 -0.04048
 O333 O 0.49998 -0.04080 -0.12623
 O334 O 0.50246 0.03600 -0.12991
 O335 O 0.50339 0.10225 -0.05114
 O336 O 0.55134 0.06388 -0.08331
 C337 C 0.58348 0.05690 -0.07181
 O338 O 0.60220 -0.02527 0.04015
 O339 O 0.49870 0.04381 0.13324
 O340 O 0.59142 0.03605 0.04731
 O341 O 0.54871 0.06551 0.08799
 O342 O 0.49592 -0.03527 0.13718
 O343 O 0.54665 -0.06153 0.09747
 C344 C 0.58116 0.05847 0.07796
 H345 H 0.45368 0.00295 0.09283
 H346 H 0.54775 -0.06541 0.00828
 H347 H 0.54667 0.07067 0.00193
 H348 H 0.45454 0.00124 -0.08479
 H349 H 0.49506 -0.10995 0.08545
 H350 H 0.50270 -0.11001 -0.07719
 H351 H 0.50109 -0.06541 -0.13802
 H352 H 0.50902 0.05832 -0.14569
 H353 H 0.48994 -0.05841 0.15128
 H354 H 0.49778 0.06843 0.14502
 H355 H 0.50216 0.11296 0.08486
 H356 H 0.50939 0.11221 -0.08180
 H357 H 0.54073 -0.08089 0.11916
 H358 H 0.62551 -0.01672 0.02897
 H359 H 0.37618 0.01860 -0.02360
 H360 H 0.46106 0.08398 -0.11245
 Zr361 Zr 0.43764 0.49768 0.00311
 O362 O 0.39827 0.52542 0.04061
 O363 O 0.40706 0.46592 -0.04094
 O364 O 0.40832 0.53201 -0.03980
 O365 O 0.45114 0.43383 0.08703
 O366 O 0.45065 0.56372 -0.07801
 O367 O 0.40859 0.46383 0.04675
 O368 O 0.44851 0.43694 -0.08422
 O369 O 0.46674 0.49940 -0.05839
 O370 O 0.46771 0.45119 0.00123
 O371 O 0.46810 0.54416 0.00728
 O372 O 0.46784 0.49770 0.06452
 Zr373 Zr 0.56123 0.49878 0.00393
 Zr374 Zr 0.49913 0.54421 -0.05264
 Zr375 Zr 0.49963 0.45221 0.05988
 Zr376 Zr 0.49800 0.45383 -0.05843
 O377 O 0.50114 0.45515 0.13280
 O378 O 0.49772 0.46463 -0.13026
 O379 O 0.53108 0.45178 0.00002
 O380 O 0.53056 0.49861 -0.05676
 O381 O 0.53157 0.54560 0.00591
 O382 O 0.53159 0.49708 0.06490
 C383 C 0.41642 0.44408 -0.07267
 C384 C 0.41871 0.44107 0.07703
 C385 C 0.41832 0.55600 -0.06848
 O386 O 0.50067 0.54142 -0.12557
 O387 O 0.54736 0.56581 -0.07584
 O388 O 0.59010 0.53458 -0.03761
 C389 C 0.57980 0.55861 -0.06616
 O390 O 0.45388 0.56091 0.09835
 Zr391 Zr 0.50077 0.54260 0.06553
 O392 O 0.59171 0.53138 0.04697
 O393 O 0.49737 0.59985 -0.04424
 O394 O 0.49911 0.59835 0.05707
 O395 O 0.50458 0.53426 0.13777
 O396 O 0.55012 0.56310 0.08660
 C397 C 0.58221 0.55542 0.07578
 O398 O 0.60062 0.47222 -0.03492
 O399 O 0.49838 0.39652 0.05195
 O400 O 0.59054 0.46290 0.04485
 O401 O 0.54813 0.43006 0.08134
 O402 O 0.49614 0.39790 -0.05244
 O403 O 0.54484 0.43088 -0.08604
 C404 C 0.58050 0.43794 0.07216
 H405 H 0.45318 0.42939 0.00100
 H406 H 0.54573 0.49884 -0.08461
 H407 H 0.54650 0.49607 0.09298
 H408 H 0.45283 0.56543 0.00913
 H409 H 0.49101 0.44245 -0.14635
 H410 H 0.49967 0.56611 -0.13703
 H411 H 0.49805 0.61030 -0.07560
 H412 H 0.50566 0.60919 0.08705
 H413 H 0.49006 0.38821 -0.08326
 H414 H 0.49759 0.38630 0.08343
 H415 H 0.50194 0.43045 0.14426
 H416 H 0.51064 0.55730 0.15214
 H417 H 0.53873 0.41623 -0.11327
 H418 H 0.62394 0.48061 -0.02353
 H419 H 0.37490 0.51710 0.02928
 H420 H 0.45988 0.58009 0.12033
 Zr421 Zr 0.06125 -0.00085 0.50402
 O422 O 0.10080 -0.02726 0.46528
 O423 O 0.09159 0.03199 0.54696
 O424 O 0.08991 0.03499 0.46224
 O425 O 0.04847 -0.06951 0.58161
 O426 O 0.04698 0.06585 0.42388
 O427 O 0.09074 -0.03656 0.54498
 O428 O 0.04986 0.06358 0.58651
 O429 O 0.03137 0.04584 0.50584
 O430 O 0.03165 -0.00255 0.56503
 O431 O 0.03055 -0.00133 0.44338
 O432 O 0.03132 -0.04799 0.50036
 Zr433 Zr -0.06237 -0.00258 0.50328
 Zr434 Zr -0.00110 0.04412 0.44732
 Zr435 Zr -0.00012 -0.04756 0.56022
 Zr436 Zr 0.00060 0.04282 0.56549
 O437 O -0.00120 -0.10329 0.55257
 O438 O -0.00130 0.09854 0.55678
 O439 O -0.03213 -0.00223 0.56468
 O440 O -0.03211 0.04406 0.50726
 O441 O -0.03328 -0.00086 0.44177
 O442 O -0.03206 -0.04891 0.50160
 C443 C 0.08199 0.05602 0.57572
 C444 C 0.08080 -0.06154 0.57233
 C445 C 0.07947 0.05885 0.43354
 O446 O -0.00305 0.09977 0.45551
 O447 O -0.04967 0.06341 0.42201
 O448 O -0.09185 0.03158 0.46031
 C449 C -0.08196 0.05560 0.43161
 O450 O 0.04517 -0.06903 0.41438
 Zr451 Zr -0.00178 -0.04627 0.44193
 O452 O -0.09277 -0.03466 0.45937
 O453 O 0.00033 0.04113 0.37441
 O454 O -0.00216 -0.03567 0.37005
 O455 O -0.00331 -0.10220 0.44821
 O456 O -0.05115 -0.06354 0.41625
 C457 C -0.08328 -0.05655 0.42777
 O458 O -0.10192 0.02504 0.54063
 O459 O 0.00150 -0.04443 0.63313
 O460 O -0.09122 -0.03641 0.54719
 O461 O -0.04850 -0.06605 0.58761
 O462 O 0.00443 0.03463 0.63776
 O463 O -0.04635 0.06104 0.59825
 C464 C -0.08096 -0.05898 0.57763
 H465 H 0.04658 -0.00344 0.59310
 H466 H -0.04747 0.06526 0.50906
 H467 H -0.04648 -0.07079 0.50151
 H468 H 0.04570 -0.00110 0.41550
 H469 H 0.00522 0.10949 0.58671
 H470 H -0.00246 0.11015 0.42410
 H471 H -0.00079 0.06578 0.36283
 H472 H -0.00873 -0.05793 0.35406
 H473 H 0.01042 0.05772 0.65206
 H474 H 0.00242 -0.06910 0.64470
 H475 H -0.00190 -0.11342 0.58410
 H476 H -0.00934 -0.11202 0.41745
 H477 H -0.04041 0.08029 0.62016
 H478 H -0.12523 0.01655 0.52934
 H479 H 0.12408 -0.01872 0.47664
 H480 H 0.03914 -0.08380 0.38723
 Zr481 Zr 0.75246 0.18765 0.25345
 O482 O 0.72476 0.14820 0.29077
 O483 O 0.78453 0.15713 0.20969
 O484 O 0.71835 0.15814 0.21042
 O485 O 0.81584 0.20152 0.33795
 O486 O 0.68655 0.20030 0.17197
 O487 O 0.78617 0.15881 0.29750
 O488 O 0.81343 0.19864 0.16653
 O489 O 0.75079 0.21664 0.19188
 O490 O 0.79883 0.21787 0.25183
 O491 O 0.70584 0.21795 0.25728
 O492 O 0.75213 0.21796 0.31479
 Zr493 Zr 0.75084 0.31124 0.25400
 Zr494 Zr 0.70584 0.24887 0.19729
 Zr495 Zr 0.79749 0.24990 0.31039
 Zr496 Zr 0.79623 0.24808 0.19210
 O497 O 0.79439 0.25166 0.38329
 O498 O 0.78567 0.24765 0.12019
 O499 O 0.79796 0.28125 0.25048
 O500 O 0.75131 0.28046 0.19340
 O501 O 0.70413 0.28143 0.25576
 O502 O 0.75251 0.28172 0.31505
 C503 C 0.80642 0.16654 0.17810
 C504 C 0.80871 0.16907 0.32801
 C505 C 0.69436 0.16801 0.18163
 O506 O 0.70885 0.25024 0.12439
 O507 O 0.68414 0.29693 0.17378
 O508 O 0.71500 0.33988 0.21216
 C509 C 0.69114 0.32941 0.18343
 O510 O 0.68879 0.20385 0.34820
 Zr511 Zr 0.70711 0.25074 0.31546
 O512 O 0.71811 0.34169 0.29690
 O513 O 0.65019 0.24697 0.20533
 O514 O 0.65140 0.24900 0.30659
 O515 O 0.71529 0.25456 0.38775
 O516 O 0.68649 0.30005 0.33648
 C517 C 0.69412 0.33216 0.32569
 O518 O 0.77726 0.35071 0.21520
 O519 O 0.85321 0.24868 0.30286
 O520 O 0.78658 0.34074 0.29495
 O521 O 0.81949 0.29848 0.33173
 O522 O 0.85215 0.24646 0.19852
 O523 O 0.81904 0.29497 0.16454
 C524 C 0.81154 0.33081 0.32237
 H525 H 0.82068 0.20341 0.25182
 H526 H 0.75109 0.29559 0.16550
 H527 H 0.75343 0.29668 0.34310
 H528 H 0.68463 0.20262 0.25904
 H529 H 0.80792 0.24101 0.10428
 H530 H 0.68420 0.24912 0.11274
 H531 H 0.63982 0.24753 0.17389
 H532 H 0.64045 0.25558 0.33648
 H533 H 0.86197 0.24037 0.16779
 H534 H 0.86334 0.24800 0.33442
 H535 H 0.81906 0.25254 0.39490
 H536 H 0.69221 0.26059 0.40200
 H537 H 0.83384 0.28887 0.13747
 H538 H 0.76874 0.37401 0.22652
 H539 H 0.73323 0.12484 0.27955
 H540 H 0.66950 0.20985 0.37000
 Zr541 Zr 0.74818 0.81192 0.75398
 O542 O 0.77593 0.85166 0.79085
 O543 O 0.71567 0.84213 0.71031
 O544 O 0.78207 0.84130 0.71054
 O545 O 0.68530 0.79828 0.83910
 O546 O 0.81379 0.79901 0.67215
 O547 O 0.71458 0.84087 0.79810
 O548 O 0.68651 0.80032 0.66782
 O549 O 0.74956 0.78263 0.69257
 O550 O 0.70190 0.78154 0.75301
 O551 O 0.79487 0.78170 0.75768
 O552 O 0.74898 0.78188 0.81552
 Zr553 Zr 0.75011 0.68825 0.75535
 Zr554 Zr 0.79462 0.75052 0.69785
 Zr555 Zr 0.70367 0.74980 0.81176
 Zr556 Zr 0.70421 0.75106 0.69342
 O557 O 0.70732 0.74841 0.88462
 O558 O 0.71440 0.75129 0.62144
 O559 O 0.70293 0.71817 0.75202
 O560 O 0.74921 0.71878 0.69458
 O561 O 0.79675 0.71822 0.75647
 O562 O 0.74874 0.71804 0.81626
 C563 C 0.69349 0.83252 0.67908
 C564 C 0.69222 0.83071 0.82881
 C565 C 0.80599 0.83134 0.68168
 O566 O 0.79118 0.74883 0.62498
 O567 O 0.81625 0.70239 0.67439
 O568 O 0.78572 0.65953 0.71327
 C569 C 0.80937 0.66994 0.68427
 O570 O 0.81235 0.79622 0.84851
 Zr571 Zr 0.79407 0.74914 0.81605
 O572 O 0.78336 0.65807 0.79800
 O573 O 0.85031 0.75253 0.70542
 O574 O 0.84972 0.75119 0.80672
 O575 O 0.78629 0.74547 0.88841
 O576 O 0.81522 0.69997 0.83691
 C577 C 0.80767 0.66777 0.82634
 O578 O 0.72360 0.64849 0.71705
 O579 O 0.64789 0.75087 0.80483
 O580 O 0.71453 0.65890 0.79667
 O581 O 0.68175 0.70129 0.83344
 O582 O 0.64832 0.75241 0.70042
 O583 O 0.68143 0.70400 0.66619
 C584 C 0.68962 0.66893 0.82413
 H585 H 0.67999 0.79591 0.75310
 H586 H 0.74929 0.70354 0.66675
 H587 H 0.74803 0.70317 0.84436
 H588 H 0.81605 0.79709 0.75918
 H589 H 0.69204 0.75778 0.60566
 H590 H 0.81576 0.74993 0.61312
 H591 H 0.86051 0.75179 0.67391
 H592 H 0.86088 0.74480 0.83655
 H593 H 0.63825 0.75832 0.66978
 H594 H 0.63798 0.75172 0.83649
 H595 H 0.68274 0.74751 0.89650
 H596 H 0.80946 0.73951 0.90247
 H597 H 0.66647 0.70994 0.63921
 H598 H 0.73225 0.62528 0.72845
 H599 H 0.76733 0.87492 0.77953
 H600 H 0.83169 0.79036 0.87031
 Zr601 Zr 0.25121 0.31334 0.74719
 O602 O 0.22359 0.35277 0.70970
 O603 O 0.28310 0.34389 0.79120
 O604 O 0.21663 0.34269 0.78998
 O605 O 0.31509 0.29963 0.66320
 O606 O 0.18485 0.30035 0.82806
 O607 O 0.28510 0.34227 0.70339
 O608 O 0.31209 0.30240 0.83435
 O609 O 0.24945 0.28427 0.80870
 O610 O 0.29767 0.28320 0.74905
 O611 O 0.20475 0.28283 0.74295
 O612 O 0.25124 0.28301 0.68581
 Zr613 Zr 0.25016 0.18963 0.74641
 Zr614 Zr 0.20465 0.25187 0.80291
 Zr615 Zr 0.29672 0.25118 0.69044
 Zr616 Zr 0.29501 0.25295 0.80872
 O617 O 0.29380 0.24961 0.61752
 O618 O 0.28416 0.25341 0.88054
 O619 O 0.29713 0.21980 0.75032
 O620 O 0.25024 0.22041 0.80704
 O621 O 0.20333 0.21931 0.74440
 O622 O 0.25187 0.21921 0.68542
 C623 C 0.30503 0.33449 0.82278
 C624 C 0.30786 0.33207 0.67312
 C625 C 0.19248 0.33271 0.81853
 O626 O 0.20743 0.25058 0.87583
 O627 O 0.18318 0.20366 0.82632
 O628 O 0.21438 0.16084 0.78812
 C629 C 0.19040 0.17120 0.81675
 O630 O 0.18803 0.29689 0.65187
 Zr631 Zr 0.20636 0.25005 0.68476
 O632 O 0.21758 0.15912 0.70337
 O633 O 0.14902 0.25340 0.79441
 O634 O 0.15061 0.25166 0.69322
 O635 O 0.21479 0.24625 0.61253
 O636 O 0.18592 0.20068 0.66364
 C637 C 0.19360 0.16859 0.67448
 O638 O 0.27668 0.15024 0.78526
 O639 O 0.35240 0.25247 0.69842
 O640 O 0.28613 0.16027 0.70551
 O641 O 0.31896 0.20267 0.66897
 O642 O 0.35095 0.25466 0.80270
 O643 O 0.31784 0.20613 0.83652
 C644 C 0.31112 0.17028 0.67817
 H645 H 0.31949 0.29769 0.74924
 H646 H 0.25001 0.20529 0.83494
 H647 H 0.25292 0.20428 0.65735
 H648 H 0.18348 0.29807 0.74103
 H649 H 0.30633 0.26011 0.89664
 H650 H 0.18273 0.25152 0.88730
 H651 H 0.13853 0.25275 0.82575
 H652 H 0.13979 0.24507 0.66324
 H653 H 0.36066 0.26073 0.83350
 H654 H 0.36265 0.25324 0.66694
 H655 H 0.31849 0.24879 0.60605
 H656 H 0.19178 0.24013 0.59812
 H657 H 0.33249 0.21227 0.86373
 H658 H 0.26829 0.12692 0.77387
 H659 H 0.23195 0.37612 0.72106
 H660 H 0.16883 0.29085 0.62994
 Zr661 Zr 0.24749 0.68719 0.24596
 O662 O 0.27506 0.64756 0.20867
 O663 O 0.21537 0.65689 0.28983
 O664 O 0.28161 0.65770 0.28903
 O665 O 0.18407 0.70110 0.16143
 O666 O 0.31349 0.69988 0.32744
 O667 O 0.21362 0.65835 0.20188
 O668 O 0.18659 0.69860 0.33293
 O669 O 0.24926 0.71635 0.30749
 O670 O 0.20121 0.71757 0.24755
 O671 O 0.29418 0.71740 0.24214
 O672 O 0.24793 0.71741 0.18460
 Zr673 Zr 0.24946 0.81086 0.24535
 Zr674 Zr 0.29429 0.74846 0.30211
 Zr675 Zr 0.20263 0.74948 0.18896
 Zr676 Zr 0.20390 0.74792 0.30725
 O677 O 0.20580 0.75106 0.11607
 O678 O 0.21445 0.74762 0.37916
 O679 O 0.20227 0.78098 0.24885
 O680 O 0.24889 0.78019 0.30596
 O681 O 0.29610 0.78091 0.24362
 O682 O 0.24770 0.78120 0.18432
 C683 C 0.19353 0.66645 0.32144
 C684 C 0.19107 0.66861 0.17136
 C685 C 0.30563 0.66758 0.31782
 O686 O 0.29127 0.74991 0.37502
 O687 O 0.31608 0.79655 0.32576
 O688 O 0.28532 0.83950 0.28733
 C689 C 0.30914 0.82906 0.31615
 O690 O 0.31124 0.70308 0.15123
 Zr691 Zr 0.29302 0.75009 0.18394
 O692 O 0.28233 0.84111 0.20246
 O693 O 0.34994 0.74644 0.29403
 O694 O 0.34874 0.74815 0.19282
 O695 O 0.28485 0.75382 0.11165
 O696 O 0.31383 0.79930 0.16290
 C697 C 0.30631 0.83145 0.17368
 O698 O 0.22311 0.85050 0.28404
 O699 O 0.14691 0.74850 0.19650
 O700 O 0.21375 0.84036 0.20434
 O701 O 0.18077 0.79811 0.16757
 O702 O 0.14798 0.74644 0.30081
 O703 O 0.18117 0.79493 0.33471
 C704 C 0.18877 0.83044 0.17691
 H705 H 0.17932 0.70318 0.24758
 H706 H 0.24912 0.79535 0.33385
 H707 H 0.24684 0.79611 0.15626
 H708 H 0.31536 0.70201 0.24039
 H709 H 0.19217 0.74112 0.39509
 H710 H 0.31591 0.74876 0.38667
 H711 H 0.36031 0.74702 0.32546
 H712 H 0.35971 0.75464 0.16293
 H713 H 0.13814 0.74044 0.33154
 H714 H 0.13678 0.74779 0.16494
 H715 H 0.18114 0.75203 0.10443
 H716 H 0.30794 0.75976 0.09739
 H717 H 0.16637 0.78895 0.36181
 H718 H 0.23169 0.87375 0.27270
 H719 H 0.26653 0.62427 0.21994
 H720 H 0.33050 0.70899 0.12937
 Zr721 Zr 0.25093 0.81140 0.75379
 O722 O 0.27736 0.85088 0.71505
 O723 O 0.21816 0.84184 0.79667
 O724 O 0.21514 0.84008 0.71197
 O725 O 0.31960 0.79855 0.83145
 O726 O 0.18422 0.79718 0.67357
 O727 O 0.28671 0.84085 0.79474
 O728 O 0.18649 0.80020 0.83617
 O729 O 0.20420 0.78160 0.75552
 O730 O 0.25257 0.78185 0.81482
 O731 O 0.25136 0.78066 0.69316
 O732 O 0.29803 0.78139 0.75024
 Zr733 Zr 0.25249 0.68780 0.75311
 Zr734 Zr 0.20588 0.74907 0.69702
 Zr735 Zr 0.29754 0.75000 0.81011
 Zr736 Zr 0.20716 0.75088 0.81519
 O737 O 0.35326 0.74875 0.80259
 O738 O 0.15144 0.74911 0.80634
 O739 O 0.25217 0.71808 0.81449
 O740 O 0.20588 0.71812 0.75698
 O741 O 0.25083 0.71684 0.69159
 O742 O 0.29886 0.71801 0.75152
 C743 C 0.19412 0.83231 0.82540
 C744 C 0.31168 0.83089 0.82211
 C745 C 0.19127 0.82965 0.68324
 O746 O 0.15023 0.74718 0.70507
 O747 O 0.18660 0.70052 0.67161
 O748 O 0.21838 0.65832 0.71003
 C749 C 0.19442 0.66822 0.68121
 O750 O 0.31912 0.79516 0.66437
 Zr751 Zr 0.29627 0.74827 0.69182
 O752 O 0.28452 0.65731 0.70928
 O753 O 0.20887 0.75050 0.62412
 O754 O 0.28571 0.74793 0.61991
 O755 O 0.35219 0.74656 0.69823
 O756 O 0.31339 0.69885 0.66613
 C757 C 0.30636 0.66674 0.67764
 O758 O 0.22479 0.64833 0.79040
 O759 O 0.29442 0.75174 0.88301
 O760 O 0.28623 0.65893 0.79712
 O761 O 0.31589 0.70163 0.83762
 O762 O 0.21533 0.75472 0.88748
 O763 O 0.18886 0.70399 0.84793
 C764 C 0.30878 0.66917 0.82763
 H765 H 0.25349 0.79680 0.84288
 H766 H 0.18467 0.70279 0.75871
 H767 H 0.32071 0.70354 0.75147
 H768 H 0.25116 0.79579 0.66528
 H769 H 0.14050 0.75568 0.83623
 H770 H 0.13987 0.74778 0.67364
 H771 H 0.18422 0.74941 0.61248
 H772 H 0.30797 0.74131 0.60398
 H773 H 0.19225 0.76077 0.90172
 H774 H 0.31909 0.75261 0.89463
 H775 H 0.36339 0.74806 0.83415
 H776 H 0.36199 0.74050 0.66748
 H777 H 0.16960 0.70998 0.86976
 H778 H 0.23325 0.62499 0.77916
 H779 H 0.26886 0.87418 0.72640
 H780 H 0.33393 0.78909 0.63729
 Zr781 Zr 0.24896 0.18836 0.25352
 O782 O 0.22260 0.14848 0.21524
 O783 O 0.28202 0.15835 0.29658
 O784 O 0.28477 0.15954 0.21182
 O785 O 0.18038 0.20152 0.33123
 O786 O 0.31537 0.20231 0.17288
 O787 O 0.21334 0.15907 0.29487
 O788 O 0.31364 0.20039 0.33557
 O789 O 0.29557 0.21836 0.25477
 O790 O 0.24735 0.21834 0.31425
 O791 O 0.24823 0.21871 0.19260
 O792 O 0.20175 0.21820 0.24977
 Zr793 Zr 0.24692 0.31201 0.25156
 Zr794 Zr 0.29361 0.25050 0.19598
 Zr795 Zr 0.20226 0.25000 0.30935
 Zr796 Zr 0.29265 0.24947 0.31417
 O797 O 0.14652 0.25104 0.30199
 O798 O 0.34833 0.25142 0.30511
 O799 O 0.24753 0.28213 0.31322
 O800 O 0.29363 0.28185 0.25566
 O801 O 0.24854 0.28255 0.19030
 O802 O 0.20066 0.28161 0.25046
 C803 C 0.30613 0.16816 0.32514
 C804 C 0.18837 0.16914 0.32220
 C805 C 0.30851 0.16988 0.18290
 O806 O 0.34928 0.25255 0.20383
 O807 O 0.31286 0.29893 0.17023
 O808 O 0.28098 0.34129 0.20824
 C809 C 0.30503 0.33128 0.17961
 O810 O 0.18053 0.20379 0.16395
 Zr811 Zr 0.20321 0.25095 0.19104
 O812 O 0.21457 0.34207 0.20752
 O813 O 0.29040 0.24862 0.12310
 O814 O 0.21361 0.25090 0.11910
 O815 O 0.14730 0.25235 0.19772
 O816 O 0.18564 0.30012 0.16499
 C817 C 0.19258 0.33235 0.17613
 O818 O 0.27451 0.35191 0.28835
 O819 O 0.20557 0.24877 0.38225
 O820 O 0.21326 0.34104 0.29550
 O821 O 0.18389 0.29852 0.33653
 O822 O 0.28462 0.24612 0.38651
 O823 O 0.31084 0.29666 0.34644
 C824 C 0.19089 0.33092 0.32624
 H825 H 0.24656 0.20357 0.34245
 H826 H 0.31480 0.29726 0.25722
 H827 H 0.17876 0.29600 0.25038
 H828 H 0.24843 0.20338 0.16485
 H829 H 0.35939 0.24514 0.33504
 H830 H 0.35958 0.25174 0.17238
 H831 H 0.31501 0.24971 0.11137
 H832 H 0.19129 0.25732 0.10317
 H833 H 0.30775 0.24025 0.40076
 H834 H 0.18094 0.24790 0.39396
 H835 H 0.13648 0.25196 0.33357
 H836 H 0.13734 0.25818 0.16698
 H837 H 0.33017 0.29089 0.36829
 H838 H 0.26592 0.37513 0.27688
 H839 H 0.23123 0.12531 0.22681
 H840 H 0.16559 0.20965 0.13691
 Zr841 Zr 0.75123 0.68833 0.24586
 O842 O 0.77786 0.64879 0.28432
 O843 O 0.71844 0.65799 0.20291
 O844 O 0.71550 0.65947 0.28762
 O845 O 0.81964 0.70156 0.16788
 O846 O 0.68454 0.70223 0.32624
 O847 O 0.78697 0.65906 0.20446
 O848 O 0.68661 0.69971 0.16370
 O849 O 0.70444 0.71808 0.24439
 O850 O 0.75269 0.71812 0.18502
 O851 O 0.75166 0.71891 0.30666
 O852 O 0.79826 0.71843 0.24954
 Zr853 Zr 0.75245 0.81202 0.24727
 Zr854 Zr 0.70609 0.75045 0.30306
 Zr855 Zr 0.79760 0.75001 0.18984
 Zr856 Zr 0.70721 0.74901 0.18489
 O857 O 0.85332 0.75120 0.19738
 O858 O 0.65151 0.75065 0.19385
 O859 O 0.75214 0.78190 0.18573
 O860 O 0.70593 0.78160 0.24327
 O861 O 0.75096 0.78276 0.30863
 O862 O 0.79890 0.78184 0.24861
 C863 C 0.69432 0.66758 0.17429
 C864 C 0.81181 0.66915 0.17693
 C865 C 0.69161 0.66979 0.31640
 O866 O 0.65043 0.75224 0.29507
 O867 O 0.68663 0.79888 0.32878
 O868 O 0.71822 0.84129 0.29057
 C869 C 0.69429 0.83125 0.31936
 O870 O 0.81945 0.70447 0.33540
 Zr871 Zr 0.79648 0.75140 0.30814
 O872 O 0.78450 0.84241 0.29122
 O873 O 0.70923 0.74879 0.37595
 O874 O 0.78601 0.75153 0.38005
 O875 O 0.85239 0.75317 0.30166
 O876 O 0.81361 0.80077 0.33401
 C877 C 0.80648 0.83291 0.32270
 O878 O 0.72465 0.85157 0.21021
 O879 O 0.79434 0.74868 0.11693
 O880 O 0.78614 0.84107 0.20336
 O881 O 0.81588 0.79853 0.16268
 O882 O 0.71526 0.74541 0.11257
 O883 O 0.68877 0.79597 0.15240
 C884 C 0.80872 0.83095 0.17283
 H885 H 0.75358 0.70328 0.15686
 H886 H 0.68467 0.79689 0.24164
 H887 H 0.82072 0.79634 0.24871
 H888 H 0.75152 0.70369 0.33446
 H889 H 0.64052 0.74416 0.16393
 H890 H 0.64009 0.75151 0.32650
 H891 H 0.68460 0.74977 0.38763
 H892 H 0.80826 0.75817 0.39600
 H893 H 0.69217 0.73936 0.09834
 H894 H 0.81899 0.74789 0.10526
 H895 H 0.86342 0.75208 0.16583
 H896 H 0.86224 0.75916 0.33242
 H897 H 0.66945 0.79002 0.13062
 H898 H 0.73308 0.87488 0.22161
 H899 H 0.76938 0.62552 0.27286
 H900 H 0.83429 0.71050 0.36248
 Zr901 Zr 0.74956 0.31223 0.74722
 O902 O 0.72339 0.35198 0.78592
 O903 O 0.78230 0.34232 0.70397
 O904 O 0.78569 0.34098 0.78868
 O905 O 0.68060 0.29929 0.66990
 O906 O 0.81657 0.29813 0.82713
 O907 O 0.71374 0.34163 0.70625
 O908 O 0.81367 0.30035 0.66451
 O909 O 0.79616 0.28222 0.74538
 O910 O 0.74758 0.28238 0.68636
 O911 O 0.74919 0.28174 0.80800
 O912 O 0.70237 0.28239 0.75117
 Zr913 Zr 0.74752 0.18859 0.74848
 Zr914 Zr 0.79456 0.24997 0.80406
 Zr915 Zr 0.70250 0.25072 0.69143
 Zr916 Zr 0.79288 0.25123 0.68588
 O917 O 0.64681 0.24981 0.69931
 O918 O 0.84862 0.24925 0.69443
 O919 O 0.74775 0.21860 0.68696
 O920 O 0.79422 0.21873 0.74425
 O921 O 0.74952 0.21790 0.80987
 O922 O 0.70126 0.21900 0.75019
 C923 C 0.80621 0.33255 0.67515
 C924 C 0.68867 0.33164 0.67900
 C925 C 0.80967 0.33061 0.81732
 O926 O 0.85018 0.24777 0.79571
 O927 O 0.81375 0.20142 0.82957
 O928 O 0.78169 0.15919 0.79153
 C929 C 0.80580 0.16911 0.82015
 O930 O 0.68162 0.29658 0.83722
 Zr931 Zr 0.70418 0.24949 0.80974
 O932 O 0.71548 0.15841 0.79257
 O933 O 0.79179 0.25176 0.87697
 O934 O 0.71503 0.24928 0.88158
 O935 O 0.64823 0.24812 0.80366
 O936 O 0.68682 0.20022 0.83564
 C937 C 0.69369 0.16803 0.82420
 O938 O 0.77499 0.14886 0.71124
 O939 O 0.70541 0.25208 0.61851
 O940 O 0.71352 0.15963 0.70474
 O941 O 0.68382 0.20226 0.66427
 O942 O 0.78448 0.25479 0.61362
 O943 O 0.81091 0.20411 0.65330
 C944 C 0.69087 0.16980 0.67431
 H945 H 0.74663 0.29720 0.65822
 H946 H 0.81537 0.20331 0.74246
 H947 H 0.67936 0.20463 0.75040
 H948 H 0.74956 0.29701 0.83581
 H949 H 0.85949 0.25563 0.66444
 H950 H 0.86065 0.24847 0.82708
 H951 H 0.81648 0.25059 0.88848
 H952 H 0.69281 0.24281 0.89767
 H953 H 0.80754 0.26064 0.59921
 H954 H 0.68072 0.25300 0.60702
 H955 H 0.63657 0.24899 0.66781
 H956 H 0.63849 0.24220 0.83447
 H957 H 0.83010 0.20992 0.63130
 H958 H 0.76648 0.12560 0.72264
 H959 H 0.73194 0.37519 0.77441
 H960 H 0.66697 0.29067 0.86448
 C961 C 0.10506 0.42190 0.89877
 C962 C 0.12698 0.40357 0.88001
 C963 C 0.15153 0.38050 0.85857
 C964 C 0.17116 0.35945 0.84038
 C965 C 0.39210 0.57839 0.39875
 C966 C 0.37028 0.59663 0.37984
 C967 C 0.34594 0.61967 0.35822
 C968 C 0.32656 0.64077 0.33986
 C969 C 0.89226 0.92081 0.60088
 C970 C 0.87051 0.90241 0.61965
 C971 C 0.84623 0.87925 0.64116
 C972 C 0.82690 0.85811 0.65951
 C973 C 0.60793 0.07856 0.10133
 C974 C 0.62972 0.09689 0.12010
 C975 C 0.65404 0.12003 0.14150
 C976 C 0.67341 0.14119 0.15970
 C977 C 0.89124 0.07660 0.40970
 C978 C 0.87013 0.09604 0.39151
 C979 C 0.84707 0.12044 0.37010
 C980 C 0.82878 0.14227 0.35134
 C981 C 0.39134 0.42377 0.59142
 C982 C 0.37007 0.40459 0.60978
 C983 C 0.34670 0.38051 0.63129
 C984 C 0.32815 0.35886 0.65001
 C985 C 0.60910 0.92337 0.90931
 C986 C 0.63032 0.90389 0.89137
 C987 C 0.65355 0.87944 0.87034
 C988 C 0.67200 0.85757 0.85189
 C989 C 0.10842 0.57627 0.08848
 C990 C 0.12949 0.59568 0.10701
 C991 C 0.15255 0.62003 0.12884
 C992 C 0.17088 0.64180 0.14786
 C993 C 0.39125 0.92285 0.09620
 C994 C 0.36963 0.90391 0.11391
 C995 C 0.34588 0.88012 0.13457
 C996 C 0.32699 0.85848 0.15233
 C997 C 0.60930 0.42345 0.40364
 C998 C 0.63096 0.40462 0.38579
 C999 C 0.65471 0.38090 0.36496
 C1000 C 0.67356 0.35926 0.34709
 C1001 C 0.89360 0.57597 0.90225
 C1002 C 0.87187 0.59508 0.88486
 C1003 C 0.84789 0.61904 0.86467
 C1004 C 0.82874 0.64073 0.84731
 C1005 C 0.10904 0.07675 0.59700
 C1006 C 0.13063 0.09574 0.61472
 C1007 C 0.15431 0.11965 0.63537
 C1008 C 0.17310 0.14140 0.65312
 C1009 C 0.10856 0.42346 0.40824
 C1010 C 0.12961 0.40405 0.38988
 C1011 C 0.15262 0.37966 0.36833
 C1012 C 0.17086 0.35781 0.34952
 C1013 C 0.39158 0.57702 0.90950
 C1014 C 0.37044 0.59638 0.89122
 C1015 C 0.34729 0.62065 0.86973
 C1016 C 0.32892 0.64240 0.85093
 C1017 C 0.60825 0.07693 0.59251
 C1018 C 0.62927 0.09650 0.61083
 C1019 C 0.65230 0.12102 0.63234
 C1020 C 0.67063 0.14291 0.65109
 C1021 C 0.89162 0.92315 0.09111
 C1022 C 0.87046 0.90382 0.10943
 C1023 C 0.84726 0.87958 0.13093
 C1024 C 0.82886 0.85782 0.14967
 C1025 C 0.89198 0.07921 0.90028
 C1026 C 0.87023 0.09771 0.88168
 C1027 C 0.84600 0.12102 0.86037
 C1028 C 0.82671 0.14227 0.84217
 C1029 C 0.10823 0.57867 0.60049
 C1030 C 0.12999 0.59703 0.61929
 C1031 C 0.15423 0.62021 0.64081
 C1032 C 0.17353 0.64140 0.65913
 C1033 C 0.60786 0.92053 0.40097
 C1034 C 0.62961 0.90215 0.38204
 C1035 C 0.65389 0.87904 0.36025
 C1036 C 0.67327 0.85797 0.34169
 C1037 C 0.39182 0.42083 0.09997
 C1038 C 0.36995 0.40239 0.11842
 C1039 C 0.34554 0.37918 0.13956
 C1040 C 0.32608 0.35803 0.15764
 C1041 C 0.60935 0.57603 0.09705
 C1042 C 0.63102 0.59495 0.11471
 C1043 C 0.65481 0.61879 0.13528
 C1044 C 0.67369 0.64048 0.15297
 C1045 C 0.10915 0.92375 0.90292
 C1046 C 0.13080 0.90488 0.88512
 C1047 C 0.15459 0.88110 0.86443
 C1048 C 0.17348 0.85943 0.84669
 C1049 C 0.39127 0.07697 0.40338
 C1050 C 0.36970 0.09591 0.38545
 C1051 C 0.34593 0.11968 0.36456
 C1052 C 0.32696 0.14123 0.34665
 C1053 C 0.89129 0.42337 0.59685
 C1054 C 0.86964 0.40459 0.61476
 C1055 C 0.84582 0.38097 0.63565
 C1056 C 0.82689 0.35947 0.65360
 C1057 C 0.89387 0.57971 0.08739
 C1058 C 0.87326 0.59831 0.10819
 C1059 C 0.85058 0.62146 0.13288
 C1060 C 0.83233 0.64246 0.15354
 C1061 C 0.60607 0.42104 0.59095
 C1062 C 0.62684 0.40254 0.61149
 C1063 C 0.64970 0.37942 0.63577
 C1064 C 0.66808 0.35839 0.65605
 C1065 C 0.10583 0.07962 0.41010
 C1066 C 0.12657 0.09822 0.38969
 C1067 C 0.14941 0.12140 0.36551
 C1068 C 0.16778 0.14244 0.34524
 C1069 C 0.39448 0.92053 0.90931
 C1070 C 0.37369 0.90194 0.88895
 C1071 C 0.35078 0.87874 0.86493
 C1072 C 0.33235 0.85766 0.84486
 C1073 C 0.10759 0.91790 0.59516
 C1074 C 0.12870 0.89955 0.61532
 C1075 C 0.15193 0.87674 0.63942
 C1076 C 0.17054 0.85600 0.65981
 C1077 C 0.60753 0.58187 0.40454
 C1078 C 0.62871 0.60008 0.38427
 C1079 C 0.65209 0.62273 0.36009
 C1080 C 0.67082 0.64338 0.33971
 C1081 C 0.39259 0.08165 0.09533
 C1082 C 0.37140 0.09995 0.11545
 C1083 C 0.34806 0.12273 0.13944
 C1084 C 0.32934 0.14347 0.15969
 C1085 C 0.89441 0.41949 0.90371
 C1086 C 0.87309 0.40099 0.88396
 C1087 C 0.84960 0.37794 0.86035
 C1088 C 0.83074 0.35707 0.84037
 C1089 C 0.61058 0.07686 0.90567
 C1090 C 0.63211 0.09552 0.88721
 C1091 C 0.65558 0.11928 0.86575
 C1092 C 0.67397 0.14096 0.84712
 C1093 C 0.38946 0.57615 0.59515
 C1094 C 0.36784 0.59450 0.61399
 C1095 C 0.34432 0.61799 0.63584
 C1096 C 0.32594 0.63958 0.65470
 C1097 C 0.10939 0.42286 0.09290
 C1098 C 0.13085 0.40436 0.11190
 C1099 C 0.15432 0.38083 0.13397
 C1100 C 0.17276 0.35933 0.15299
 C1101 C 0.88960 0.92374 0.40490
 C1102 C 0.86801 0.90528 0.38615
 C1103 C 0.84450 0.88169 0.36443
 C1104 C 0.82611 0.86005 0.34565
 C1105 C 0.89294 0.58188 0.59566
 C1106 C 0.87186 0.60015 0.61599
 C1107 C 0.84865 0.62288 0.64026
 C1108 C 0.83005 0.64358 0.66076
 C1109 C 0.60723 0.41735 0.09510
 C1110 C 0.62836 0.39907 0.11534
 C1111 C 0.65165 0.37636 0.13953
 C1112 C 0.67034 0.35572 0.15998
 C1113 C 0.39248 0.91765 0.40522
 C1114 C 0.37152 0.89917 0.38483
 C1115 C 0.34843 0.87622 0.36043
 C1116 C 0.32989 0.85544 0.33982
 C1117 C 0.10724 0.08258 0.90516
 C1118 C 0.12822 0.10103 0.88491
 C1119 C 0.15129 0.12395 0.86069
 C1120 C 0.16978 0.14476 0.84023
 C1121 C 0.10626 0.92040 0.08972
 C1122 C 0.12703 0.90172 0.11000
 C1123 C 0.14986 0.87842 0.13400
 C1124 C 0.16821 0.85727 0.15410
 C1125 C 0.89405 0.42062 0.40975
 C1126 C 0.87329 0.40199 0.38939
 C1127 C 0.85046 0.37875 0.36532
 C1128 C 0.83211 0.35761 0.34519
 C1129 C 0.39370 0.08015 0.59058
 C1130 C 0.37300 0.09895 0.61092
 C1131 C 0.35020 0.12234 0.63504
 C1132 C 0.33183 0.14350 0.65524
 C1133 C 0.60631 0.57937 0.91069
 C1134 C 0.62724 0.59797 0.89059
 C1135 C 0.65032 0.62115 0.86681
 C1136 C 0.66888 0.64220 0.84687
 C1137 C 0.38913 0.42466 0.90438
 C1138 C 0.36730 0.40647 0.88568
 C1139 C 0.34344 0.38315 0.86409
 C1140 C 0.32480 0.36165 0.84548
 C1141 C 0.88967 0.07580 0.09609
 C1142 C 0.86806 0.09419 0.11487
 C1143 C 0.84450 0.11773 0.13658
 C1144 C 0.82607 0.13936 0.15530
 C1145 C 0.60968 0.92322 0.59724
 C1146 C 0.63125 0.90469 0.61601
 C1147 C 0.65489 0.88112 0.63769
 C1148 C 0.67350 0.85957 0.65635
 C1149 C 0.11037 0.57608 0.40416
 C1150 C 0.13193 0.59442 0.38524
 C1151 C 0.15545 0.61786 0.36331
 C1152 C 0.17386 0.63938 0.34441
   
