data_POSCAR
  _audit_creation_date              2014-09-24
  _audit_creation_method            'ToBaCCo'
  _symmetry_space_group_name_H-M    'P1'
  _symmetry_Int_Tables_number       1
  _symmetry_cell_setting            triclinic
  loop_
  _symmetry_equiv_pos_as_xyz
 x,y,z
_cell_length_a 27.9266
_cell_length_b 28.4707
_cell_length_c 63.3386
_cell_angle_alpha 81.932400
_cell_angle_beta 93.775600
_cell_angle_gamma 120.796600
loop_
  _atom_site_label
  _atom_site_type_symbol
  _atom_site_fract_x
  _atom_site_fract_y
  _atom_site_fract_z
C1 C -0.05880 0.11036 0.52062
 H2 H -0.01905 0.11266 0.51989
 C3 C -0.06442 0.14461 0.53267
 H4 H -0.02874 0.17290 0.54133
 C5 C -0.15421 0.06817 0.51108
 H6 H -0.18906 0.03770 0.50281
 C7 C -0.16182 0.10154 0.52311
 H8 H -0.20265 0.09692 0.52390
 N9 N -0.10343 0.07269 0.51037
 C10 C -0.07656 -0.06533 0.51137
 H11 H -0.07027 -0.06496 0.49466
 C12 C -0.07828 -0.10724 0.52632
 H13 H -0.07295 -0.13881 0.52100
 C14 C -0.09491 -0.02675 0.53838
 H15 H -0.10257 0.00392 0.54303
 C16 C -0.09711 -0.06791 0.55382
 H17 H -0.10529 -0.06771 0.57027
 Zn18 Zn -0.09128 0.02514 0.49656
 N19 N -0.08536 -0.02642 0.51756
 C20 C 0.01899 0.05959 0.48295
 N21 N -0.02391 0.06957 0.48058
 C22 C -0.01931 0.11342 0.46717
 C23 C 0.02827 0.14727 0.45457
 C24 C 0.06773 0.09284 0.47080
 C25 C -0.15882 0.01035 0.45940
 C26 C -0.19752 -0.02045 0.44451
 C27 C -0.22407 -0.10258 0.46914
 C28 C -0.18494 -0.07007 0.48348
 N29 N -0.15155 -0.01491 0.47813
 H30 H 0.01581 0.02607 0.49428
 H31 H -0.05251 0.12254 0.46635
 H32 H 0.02976 0.18056 0.44346
 H33 H 0.10136 0.08421 0.47300
 H34 H -0.13308 0.05432 0.45547
 H35 H -0.19784 0.00209 0.42936
 H36 H -0.25008 -0.14590 0.47467
 H37 H -0.18095 -0.08943 0.49889
 C38 C -0.08962 -0.10937 0.54782
 C39 C -0.11659 0.14000 0.53429
 C40 C -0.22988 -0.07876 0.44865
 C41 C 0.07258 0.13698 0.45612
 C42 C 1.16206 0.01047 0.14643
 H43 H 1.16410 0.04937 0.14671
 C44 C 1.19787 0.00732 0.13317
 H45 H 1.22691 0.04406 0.12308
 C46 C 1.11919 -0.08505 0.15855
 H47 H 1.08809 -0.12085 0.16840
 C48 C 1.15448 -0.09007 0.14550
 H49 H 1.15059 -0.12993 0.14555
 N50 N 1.12310 -0.03541 0.15846
 C51 C 0.98501 -0.00695 0.16240
 H52 H 0.98282 -0.00491 0.17921
 C53 C 0.94316 -0.00787 0.14868
 H54 H 0.90925 -0.00567 0.15490
 C55 C 1.02887 -0.01727 0.13404
 H56 H 1.06087 -0.02307 0.12841
 C57 C 0.98775 -0.01909 0.11994
 H58 H 0.98930 -0.02505 0.10354
 Zn59 Zn 1.07455 -0.02543 0.17417
 N60 N 1.02642 -0.01228 0.15494
 C61 C 1.10947 0.07471 0.19224
 N62 N 1.11967 0.03370 0.19013
 C63 C 1.16298 0.03147 0.20031
 C64 C 1.19650 0.06980 0.21403
 C65 C 1.14200 0.11399 0.20598
 C66 C 0.98332 -0.13183 0.18484
 C67 C 0.94251 -0.17525 0.19843
 C68 C 0.99711 -0.13203 0.22856
 C69 C 1.03631 -0.08906 0.21445
 N70 N 1.02846 -0.08929 0.19303
 H71 H 1.07524 0.07612 0.18381
 H72 H 1.17045 -0.00130 0.19820
 H73 H 1.23026 0.06666 0.22218
 H74 H 1.13197 0.14501 0.20822
 H75 H 0.97764 -0.13063 0.16776
 H76 H 0.90577 -0.20785 0.19172
 H77 H 1.00300 -0.13005 0.24556
 H78 H 1.07174 -0.05455 0.22071
 C79 C 0.94362 -0.01564 0.12733
 C80 C 1.19408 -0.04352 0.13238
 C81 C 0.94880 -0.17507 0.22059
 C82 C 1.18538 0.11095 0.21746
 C83 C 0.08628 0.93059 0.84946
 H84 H 0.05486 0.89142 0.84466
 C85 C 0.12841 0.93254 0.86294
 H86 H 0.12978 0.89518 0.86764
 C87 C 0.12001 1.02533 0.85063
 H88 H 0.11520 1.06079 0.84644
 C89 C 0.16280 1.02894 0.86448
 H90 H 0.19074 1.06736 0.87078
 N91 N 0.08196 0.97618 0.84386
 C92 C -0.08393 0.95323 0.84746
 H93 H -0.09920 0.94799 0.83131
 C94 C -0.11284 0.96135 0.86249
 H95 H -0.15025 0.96211 0.85746
 C96 C -0.01377 0.96363 0.87264
 H97 H 0.02498 0.96483 0.87664
 C98 C -0.04028 0.97332 0.88789
 H99 H -0.02186 0.97997 0.90356
 Zn100 Zn 0.01321 0.96289 0.83097
 N101 N -0.03446 0.95623 0.85259
 C102 C -0.06814 0.85333 0.82126
 N103 N -0.01605 0.89795 0.81765
 C104 C 0.01979 0.89884 0.80387
 C105 C 0.00376 0.85426 0.79280
 C106 C -0.08615 0.80752 0.81035
 C107 C 0.03061 1.06930 0.81652
 C108 C 0.02314 1.10745 0.80233
 C109 C -0.00241 1.04727 0.77514
 C110 C 0.00541 1.01048 0.78973
 N111 N 0.02050 1.02128 0.81015
 H112 H -0.09578 0.85341 0.83241
 H113 H 0.06096 0.93488 0.80132
 H114 H 0.03269 0.85679 0.78150
 H115 H -0.12777 0.77231 0.81321
 H116 H 0.04068 1.07630 0.83299
 H117 H 0.02840 1.14405 0.80792
 H118 H -0.01618 1.03691 0.75917
 H119 H -0.00399 0.97187 0.78490
 C120 C -0.08949 0.97465 0.88278
 C121 C 0.16592 0.98146 0.87137
 C122 C 0.00452 1.09551 0.78156
 C123 C -0.04981 0.80777 0.79591
 C124 C 0.47982 0.05181 -0.02040
 C125 C 0.45796 0.05121 -0.00105
 C126 C 0.48299 0.04708 0.01839
 C127 C 0.53174 0.04361 0.01871
 C128 C 0.55410 0.04329 -0.00073
 C129 C 0.52815 0.04749 -0.02038
 C130 C 0.55038 0.04583 -0.03935
 C131 C 0.59666 0.03947 -0.03905
 C132 C 0.62195 0.03339 -0.01973
 C133 C 0.60158 0.03719 -0.00045
 C134 C 0.55760 0.03861 0.03799
 C135 C 0.60510 0.03446 0.03821
 C136 C 0.62812 0.03422 0.01918
 C137 C 0.67605 0.02940 0.01934
 C138 C 0.69394 0.02310 0.00038
 C139 C 0.66737 0.02411 -0.01910
 H140 H 0.53189 0.04884 -0.05465
 H141 H 0.61252 0.03968 -0.05420
 H142 H 0.54116 0.03743 0.05317
 H143 H 0.62273 0.03000 0.05356
 H144 H 0.42044 0.05367 -0.00111
 H145 H 0.72936 0.01711 0.00087
 C146 C -0.03395 0.40755 0.64173
 C147 C -0.02538 0.37961 0.66018
 C148 C -0.01903 0.39783 0.68013
 C149 C -0.02318 0.44465 0.68187
 C150 C -0.03064 0.47422 0.66321
 C151 C -0.03594 0.45569 0.64305
 C152 C -0.04438 0.48500 0.62487
 C153 C -0.04579 0.53261 0.62631
 C154 C -0.03919 0.55259 0.64602
 C155 C -0.03315 0.52223 0.66474
 C156 C -0.02165 0.46175 0.70179
 C157 C -0.02531 0.50808 0.70333
 C158 C -0.02984 0.53963 0.68499
 C159 C -0.03238 0.58747 0.68637
 C160 C -0.03725 0.61745 0.66775
 C161 C -0.03978 0.60142 0.64762
 H162 H -0.05019 0.47128 0.60932
 H163 H -0.05305 0.55310 0.61182
 H164 H -0.01860 0.43891 0.71646
 H165 H -0.02483 0.51871 0.71911
 H166 H -0.02223 0.34367 0.65889
 H167 H -0.03706 0.65521 0.66892
 C168 C 0.38255 0.42558 0.31091
 C169 C 0.34909 0.40446 0.32923
 C170 C 0.36592 0.43046 0.34771
 C171 C 0.41789 0.48004 0.34791
 C172 C 0.45261 0.50207 0.32946
 C173 C 0.43513 0.47451 0.31095
 C174 C 0.47145 0.49552 0.29332
 C175 C 0.52327 0.54342 0.29357
 C176 C 0.54086 0.57232 0.31145
 C177 C 0.50555 0.55103 0.32970
 C178 C 0.43674 0.50740 0.36617
 C179 C 0.48805 0.55591 0.36625
 C180 C 0.52343 0.57811 0.34830
 C181 C 0.57624 0.62673 0.34843
 C182 C 0.61016 0.64757 0.33024
 C183 C 0.59351 0.62111 0.31185
 H184 H 0.46057 0.47472 0.27921
 H185 H 0.54967 0.55715 0.27962
 H186 H 0.41217 0.49155 0.38068
 H187 H 0.49979 0.57565 0.38064
 H188 H 0.30889 0.36682 0.32911
 H189 H 0.65065 0.68480 0.33048
 C190 C -0.08232 0.22763 0.55026
 C191 C -0.08493 0.25592 0.56619
 C192 C -0.13026 0.22902 0.58072
 C193 C -0.17321 0.17511 0.57854
 C194 C -0.17000 0.14706 0.56277
 C195 C -0.12392 0.17249 0.54884
 C196 C -0.13097 0.25566 0.59763
 C197 C -0.08650 0.30852 0.60036
 C198 C -0.04204 0.33618 0.58542
 C199 C -0.04180 0.30987 0.56832
 C200 C 0.00244 0.38898 0.58827
 C201 C 0.00398 0.41325 0.60620
 C202 C -0.03915 0.38532 0.62140
 C203 C -0.08471 0.33337 0.61825
 H204 H -0.04701 0.24792 0.53939
 H205 H -0.20837 0.15396 0.58949
 H206 H -0.20236 0.10454 0.56213
 H207 H -0.16519 0.23457 0.60903
 H208 H -0.00715 0.33062 0.55711
 H209 H 0.03678 0.41080 0.57696
 H210 H 0.03961 0.45312 0.60860
 H211 H -0.11778 0.31170 0.63012
 C212 C 0.84847 0.77221 0.23176
 C213 C 0.80668 0.73913 0.24720
 C214 C 0.81971 0.71595 0.26634
 C215 C 0.87395 0.72537 0.26952
 C216 C 0.91553 0.75927 0.25427
 C217 C 0.90340 0.78357 0.23543
 C218 C 0.77888 0.68524 0.28228
 C219 C 0.72554 0.67847 0.27954
 C220 C 0.71221 0.70103 0.26030
 C221 C 0.75271 0.73071 0.24416
 C222 C 0.65903 0.69481 0.25779
 C223 C 0.61989 0.66771 0.27438
 C224 C 0.63305 0.64575 0.29358
 C225 C 0.68577 0.65085 0.29601
 H226 H 0.83897 0.79147 0.21740
 H227 H 0.88461 0.70780 0.28406
 H228 H 0.95753 0.76732 0.25734
 H229 H 0.78909 0.66800 0.29705
 H230 H 0.74271 0.74859 0.22951
 H231 H 0.64813 0.71192 0.24318
 H232 H 0.57960 0.66465 0.27241
 H233 H 0.69606 0.63426 0.31093
 C234 C 0.25917 0.02287 -0.11011
 C235 C 0.29348 0.02018 -0.09322
 C236 C 0.27115 -0.02543 -0.07705
 C237 C 0.21541 -0.06727 -0.07793
 C238 C 0.18184 -0.06436 -0.09467
 C239 C 0.20322 -0.01970 -0.11101
 C240 C 0.30460 -0.02855 -0.06013
 C241 C 0.36020 0.01347 -0.05895
 C242 C 0.38304 0.05918 -0.07502
 C243 C 0.34955 0.06217 -0.09213
 C244 C 0.43877 0.10139 -0.07345
 C245 C 0.47104 0.09866 -0.05595
 C246 C 0.44826 0.05336 -0.03997
 C247 C 0.39296 0.01081 -0.04165
 H248 H 0.27602 0.05746 -0.12262
 H249 H 0.19764 -0.10224 -0.06559
 H250 H 0.13861 -0.09702 -0.09470
 H251 H 0.28718 -0.06350 -0.04775
 H252 H 0.36691 0.09725 -0.10445
 H253 H 0.45707 0.13685 -0.08555
 H254 H 0.51346 0.13223 -0.05467
 H255 H 0.37523 -0.02394 -0.02920
 C256 C -0.05911 0.82433 0.56396
 C257 C -0.06488 0.78104 0.57935
 C258 C -0.10845 0.75705 0.59462
 C259 C -0.14558 0.77648 0.59420
 C260 C -0.13930 0.81975 0.57897
 C261 C -0.09595 0.84432 0.56379
 C262 C -0.11383 0.71454 0.61026
 C263 C -0.07564 0.69626 0.61108
 C264 C -0.03212 0.72004 0.59579
 C265 C -0.02729 0.76197 0.57991
 C266 C 0.00664 0.70236 0.59699
 C267 C 0.00319 0.66257 0.61349
 C268 C -0.03978 0.63890 0.62877
 C269 C -0.07939 0.65561 0.62734
 H270 H -0.02528 0.84325 0.55243
 H271 H -0.17931 0.75843 0.60573
 H272 H -0.16883 0.83371 0.57893
 H273 H -0.14709 0.69642 0.62202
 H274 H 0.00626 0.78041 0.56826
 H275 H 0.04044 0.72030 0.58550
 H276 H 0.03484 0.65110 0.61464
 H277 H -0.11221 0.63791 0.63927
 C278 C 0.23399 0.20439 0.23043
 C279 C 0.26343 0.23870 0.24626
 C280 C 0.27589 0.21621 0.26574
 C281 C 0.25896 0.16021 0.26908
 C282 C 0.22970 0.12649 0.25335
 C283 C 0.21697 0.14804 0.23387
 C284 C 0.30447 0.24978 0.28173
 C285 C 0.32030 0.30554 0.27866
 C286 C 0.30826 0.32842 0.25921
 C287 C 0.28018 0.29490 0.24305
 C288 C 0.32356 0.38420 0.25648
 C289 C 0.34926 0.41652 0.27306
 C290 C 0.36091 0.39378 0.29243
 C291 C 0.34681 0.33842 0.29503
 H292 H 0.22473 0.22155 0.21544
 H293 H 0.26792 0.14233 0.28396
 H294 H 0.21618 0.08310 0.25660
 H295 H 0.31364 0.23230 0.29669
 H296 H 0.27066 0.31230 0.22816
 H297 H 0.31454 0.40247 0.24173
 H298 H 0.35904 0.45894 0.27096
 H299 H 0.35531 0.32070 0.31008
 C300 C 0.82986 -0.02772 -0.10194
 C301 C 0.80817 -0.01006 -0.08739
 C302 C 0.84490 0.03007 -0.07431
 C303 C 0.90217 0.05069 -0.07547
 C304 C 0.92320 0.03148 -0.08927
 C305 C 0.88771 -0.00784 -0.10285
 C306 C 0.82389 0.04826 -0.05989
 C307 C 0.76630 0.02477 -0.05751
 C308 C 0.72917 -0.01670 -0.07001
 C309 C 0.75034 -0.03295 -0.08526
 C310 C 0.67155 -0.04247 -0.06648
 C311 C 0.65118 -0.02847 -0.05028
 C312 C 0.68784 0.01338 -0.03800
 C313 C 0.74539 0.04050 -0.04207
 H314 H 0.80124 -0.05897 -0.11170
 H315 H 0.93086 0.08152 -0.06556
 H316 H 0.96799 0.04979 -0.08989
 H317 H 0.85233 0.07934 -0.05000
 H318 H 0.72188 -0.06453 -0.09496
 H319 H 0.64239 -0.07490 -0.07568
 H320 H 0.60680 -0.05127 -0.04699
 H321 H 0.77410 0.07238 -0.03254
 C322 C 0.28441 -0.00469 0.11271
 C323 C 0.31536 -0.00519 0.09626
 C324 C 0.29137 -0.05017 0.08423
 C325 C 0.23736 -0.09440 0.08918
 C326 C 0.20649 -0.09314 0.10536
 C327 C 0.22923 -0.04787 0.11702
 C328 C 0.32110 -0.04956 0.06709
 C329 C 0.37415 -0.00411 0.06162
 C330 C 0.39857 0.04053 0.07388
 C331 C 0.36920 0.03946 0.09124
 C332 C 0.45149 0.08608 0.06823
 C333 C 0.47947 0.08791 0.05036
 C334 C 0.45518 0.04402 0.03804
 C335 C 0.40270 -0.00201 0.04379
 H336 H 0.30286 0.03001 0.12183
 H337 H 0.21837 -0.12923 0.08014
 H338 H 0.16397 -0.12667 0.10815
 H339 H 0.30243 -0.08380 0.05770
 H340 H 0.38763 0.07397 0.10048
 H341 H 0.47079 0.12064 0.07742
 H342 H 0.51980 0.12380 0.04595
 H343 H 0.38392 -0.03573 0.03415
 C344 C 0.71995 0.83279 0.43457
 C345 C 0.69000 0.80137 0.41808
 C346 C 0.67498 0.82572 0.39994
 C347 C 0.68896 0.88066 0.39884
 C348 C 0.71922 0.91199 0.41516
 C349 C 0.73664 0.88941 0.43335
 C350 C 0.64717 0.79510 0.38302
 C351 C 0.63495 0.74053 0.38392
 C352 C 0.64933 0.71581 0.40223
 C353 C 0.67646 0.74627 0.41922
 C354 C 0.63742 0.66136 0.40304
 C355 C 0.61251 0.63201 0.38570
 C356 C 0.59859 0.65641 0.36740
 C357 C 0.60967 0.71060 0.36661
 H358 H 0.73340 0.81310 0.44744
 H359 H 0.67685 0.89975 0.38519
 H360 H 0.72690 0.95356 0.41347
 H361 H 0.63611 0.81409 0.36900
 H362 H 0.68799 0.72742 0.43315
 H363 H 0.64824 0.64183 0.41693
 H364 H 0.60481 0.59047 0.38637
 H365 H 0.59934 0.72956 0.35237
 C366 C 0.02073 0.18763 0.76401
 C367 C 0.00449 0.21909 0.74951
 C368 C -0.04635 0.19230 0.73839
 C369 C -0.08027 0.13494 0.74204
 C370 C -0.06357 0.10406 0.75622
 C371 C -0.01278 0.12985 0.76715
 C372 C -0.06217 0.22304 0.72348
 C373 C -0.02743 0.28023 0.71920
 C374 C 0.02324 0.30734 0.73037
 C375 C 0.03867 0.27664 0.74560
 C376 C 0.05820 0.36457 0.72569
 C377 C 0.04376 0.39432 0.70975
 C378 C -0.00630 0.36751 0.69850
 C379 C -0.04194 0.31051 0.70346
 H380 H 0.05997 0.20780 0.77237
 H381 H -0.11945 0.11384 0.73374
 H382 H -0.09060 0.05970 0.75871
 H383 H -0.10098 0.20228 0.71488
 H384 H 0.07772 0.29735 0.75405
 H385 H 0.09728 0.38609 0.73401
 H386 H 0.07219 0.43815 0.70584
 H387 H -0.08036 0.28966 0.69465
 C388 C 0.87917 0.01409 0.10909
 C389 C 0.83754 0.00695 0.09394
 C390 C 0.81198 -0.04047 0.08317
 C391 C 0.82797 -0.08004 0.08780
 C392 C 0.87015 -0.07200 0.10246
 C393 C 0.89645 -0.02477 0.11302
 C394 C 0.77201 -0.04695 0.06749
 C395 C 0.75828 -0.00593 0.06193
 C396 C 0.78344 0.04141 0.07270
 C397 C 0.82238 0.04721 0.08885
 C398 C 0.77048 0.08293 0.06664
 C399 C 0.73432 0.07834 0.04965
 C400 C 0.70957 0.03164 0.03878
 C401 C 0.72118 -0.01069 0.04521
 H402 H 0.89965 0.05072 0.11715
 H403 H 0.80876 -0.11661 0.07973
 H404 H 0.88266 -0.10259 0.10549
 H405 H 0.75286 -0.08313 0.05915
 H406 H 0.84205 0.08372 0.09699
 H407 H 0.78949 0.11962 0.07463
 H408 H 0.72656 0.11182 0.04465
 H409 H 0.70249 -0.04659 0.03672
 C410 C 0.14274 0.22777 0.43607
 C411 C 0.18701 0.25894 0.42144
 C412 C 0.21264 0.23361 0.41308
 C413 C 0.19387 0.17778 0.41960
 C414 C 0.14910 0.14681 0.43382
 C415 C 0.12263 0.17117 0.44208
 C416 C 0.25567 0.26405 0.39796
 C417 C 0.27249 0.31915 0.39067
 C418 C 0.24707 0.34469 0.39904
 C419 C 0.20498 0.31461 0.41460
 C420 C 0.26309 0.39942 0.39123
 C421 C 0.30283 0.42804 0.37487
 C422 C 0.32809 0.40284 0.36648
 C423 C 0.31312 0.34858 0.37461
 H424 H 0.12359 0.24753 0.44256
 H425 H 0.21294 0.15770 0.41329
 H426 H 0.13420 0.10327 0.43785
 H427 H 0.27503 0.24444 0.39145
 H428 H 0.18518 0.33404 0.42092
 H429 H 0.24384 0.41955 0.39736
 H430 H 0.31314 0.46949 0.36846
 H431 H 0.33210 0.32884 0.36794
 C432 C -0.02938 0.74528 0.77918
 C433 C -0.04135 0.70914 0.76411
 C434 C -0.09290 0.68740 0.75334
 C435 C -0.13239 0.70060 0.75848
 C436 C -0.11963 0.73760 0.77323
 C437 C -0.06739 0.76154 0.78322
 C438 C -0.10310 0.65480 0.73702
 C439 C -0.06179 0.64499 0.73101
 C440 C -0.01085 0.66553 0.74222
 C441 C -0.00131 0.69677 0.75891
 C442 C 0.03072 0.65645 0.73597
 C443 C 0.02286 0.62924 0.71822
 C444 C -0.02705 0.60976 0.70673
 C445 C -0.06960 0.61698 0.71338
 H446 H 0.01063 0.76271 0.78711
 H447 H -0.17223 0.68410 0.75046
 H448 H -0.14952 0.74959 0.77601
 H449 H -0.14221 0.63898 0.72846
 H450 H 0.03820 0.71345 0.76721
 H451 H 0.07001 0.67201 0.74436
 H452 H 0.05634 0.62471 0.71306
 H453 H -0.10791 0.60244 0.70434
   
