data_POSCAR
  _audit_creation_date              2014-09-24
  _audit_creation_method            'ToBaCCo'
  _symmetry_space_group_name_H-M    'P1'
  _symmetry_Int_Tables_number       1
  _symmetry_cell_setting            triclinic
  loop_
  _symmetry_equiv_pos_as_xyz
 x,y,z
_cell_length_a 30.7066
_cell_length_b 30.2365
_cell_length_c 30.7721
_cell_angle_alpha 78.421900
_cell_angle_beta 77.711400
_cell_angle_gamma 91.267500
loop_
  _atom_site_label
  _atom_site_type_symbol
  _atom_site_fract_x
  _atom_site_fract_y
  _atom_site_fract_z
O1 O 0.54003 0.48118 0.03675
 O2 O 0.42814 0.50567 0.01641
 O3 O 0.47928 0.43837 0.01270
 O4 O 0.49043 0.55055 0.04080
 O5 O 0.52470 0.57851 -0.03063
 O6 O 0.50470 0.46904 -0.06016
 O7 O 0.45875 0.54067 -0.05388
 O8 O 0.56975 0.50872 -0.03598
 Cu9 Cu 0.48121 0.49129 0.03400
 Cu10 Cu 0.51720 0.52709 -0.05253
 C11 C 0.57382 0.49003 0.00366
 C12 C 0.42425 0.52795 -0.02210
 C13 C 0.48993 0.43475 -0.02856
 C14 C 0.51095 0.58322 0.00995
 O15 O -0.01980 0.56455 0.49819
 O16 O -0.04661 0.44198 0.53190
 O17 O -0.01710 0.50203 0.56570
 O18 O -0.04196 0.50130 0.45334
 O19 O 0.02782 0.48666 0.42718
 O20 O 0.05169 0.48489 0.53890
 O21 O 0.02217 0.42989 0.49891
 O22 O 0.04922 0.55315 0.46659
 Cu23 Cu -0.03839 0.50424 0.51295
 Cu24 Cu 0.04512 0.48989 0.47980
 C25 C 0.01940 0.58006 0.47719
 C26 C -0.01693 0.41504 0.52137
 C27 C 0.02143 0.49162 0.57165
 C28 C -0.01156 0.49228 0.42181
 O29 O 0.50087 0.02513 0.56748
 O30 O 0.52505 0.04515 0.44212
 O31 O 0.45577 0.04959 0.50404
 O32 O 0.57126 0.01945 0.50318
 O33 O 0.55175 -0.05121 0.50290
 O34 O 0.43451 -0.02286 0.51522
 O35 O 0.50037 -0.02512 0.44674
 O36 O 0.48895 -0.04770 0.57051
 Cu37 Cu 0.51526 0.04202 0.50421
 Cu38 Cu 0.49137 -0.04387 0.50941
 C39 C 0.49326 -0.01533 0.59027
 C40 C 0.51546 0.01375 0.42311
 C41 C 0.42559 0.01844 0.50929
 C42 C 0.58135 -0.02097 0.50229
 C43 C 0.51243 0.10805 -0.10237
 C44 C 0.51416 0.07216 -0.12391
 C45 C 0.49390 0.03476 -0.09122
 N46 N 0.48061 0.04648 -0.05055
 C47 C 0.49192 0.09109 -0.05719
 C48 C 0.48573 -0.00919 -0.09830
 C49 C 0.47247 -0.04599 -0.06066
 C50 C 0.45174 -0.08694 -0.06157
 C51 C 0.45424 -0.11655 -0.02202
 C52 C 0.47521 -0.09248 0.00251
 N53 N 0.48545 -0.04935 -0.02091
 C54 C 0.49148 -0.11151 0.04118
 C55 C 0.50108 -0.08503 0.07119
 C56 C 0.52289 -0.09880 0.10615
 C57 C 0.52422 -0.06284 0.12720
 C58 C 0.50282 -0.02866 0.10447
 N59 N 0.48841 -0.04250 0.07062
 C60 C 0.49506 0.01401 0.11549
 C61 C 0.47939 0.04902 0.08606
 C62 C 0.45801 0.08569 0.09904
 C63 C 0.45352 0.11453 0.05973
 C64 C 0.47307 0.09500 0.02379
 N65 N 0.48790 0.05460 0.04028
 C66 C 0.48179 0.11639 -0.02288
 H67 H 0.52545 0.14244 -0.11796
 H68 H 0.52909 0.07361 -0.15936
 H69 H 0.50844 0.03514 0.02121
 H70 H 0.43849 -0.09535 -0.08901
 H71 H 0.44334 -0.15209 -0.01332
 H72 H 0.53644 -0.13120 0.11544
 H73 H 0.53941 -0.06200 0.15570
 H74 H 0.43882 0.14686 0.05784
 H75 H 0.50710 -0.02607 -0.01389
 H76 H 0.44760 0.09145 0.13322
 C77 C -0.06547 0.48214 0.89190
 C78 C -0.10223 0.47958 0.92668
 C79 C -0.08680 0.48580 0.96437
 N80 N -0.04168 0.49188 0.95352
 C81 C -0.02847 0.49016 0.90910
 C82 C -0.11441 0.48294 1.00829
 C83 C -0.09827 0.48656 1.04755
 C84 C -0.12422 0.47755 1.09159
 C85 C -0.09637 0.48269 1.11994
 C86 C -0.05410 0.49561 1.09267
 N87 N -0.05586 0.49885 1.04857
 C88 C -0.01596 0.50478 1.10948
 C89 C 0.02700 0.51957 1.08185
 C90 C 0.06215 0.53632 1.09696
 C91 C 0.09800 0.54523 1.06055
 C92 C 0.08418 0.53227 1.02463
 N93 N 0.04071 0.51688 1.03774
 C94 C 0.11234 0.53185 0.98175
 C95 C 0.09705 0.51819 0.94569
 C96 C 0.12491 0.50737 0.90807
 C97 C 0.09820 0.49699 0.88058
 C98 C 0.05432 0.50079 0.90226
 N99 N 0.05407 0.51455 0.94163
 C100 C 0.01648 0.49265 0.88444
 H101 H -0.06618 0.47744 0.85813
 H102 H -0.13633 0.47255 0.92457
 H103 H 0.02683 0.52525 0.96214
 H104 H -0.15959 0.46796 1.10264
 H105 H -0.10644 0.47804 1.15656
 H106 H 0.06218 0.54188 1.13058
 H107 H 0.13070 0.55896 1.06097
 H108 H 0.11026 0.48777 0.84817
 H109 H -0.03013 0.51072 1.02072
 H110 H 0.16092 0.50671 0.90102
 C111 C 0.12591 -0.06550 0.50193
 C112 C 0.10097 -0.09932 0.49297
 C113 C 0.06125 -0.08148 0.48599
 N114 N 0.06074 -0.03824 0.49155
 C115 C 0.10004 -0.02846 0.50178
 C116 C 0.02754 -0.10372 0.47167
 C117 C -0.01369 -0.08495 0.46844
 C118 C -0.04266 -0.09843 0.44390
 C119 C -0.08055 -0.07550 0.45302
 C120 C -0.07371 -0.04872 0.48297
 N121 N -0.03271 -0.05439 0.49193
 C122 C -0.10645 -0.02303 0.50419
 C123 C -0.09552 0.01274 0.52420
 C124 C -0.12606 0.03698 0.54836
 C125 C -0.10193 0.07115 0.55786
 C126 C -0.05730 0.06588 0.54041
 N127 N -0.05356 0.03044 0.51952
 C128 C -0.02118 0.09539 0.54095
 C129 C 0.02425 0.08522 0.53006
 C130 C 0.06029 0.11522 0.52663
 C131 C 0.09817 0.09254 0.51729
 C132 C 0.08462 0.04908 0.51517
 N133 N 0.03941 0.04464 0.52408
 C134 C 0.11402 0.01448 0.50753
 H135 H 0.15930 -0.06836 0.50776
 H136 H 0.11145 -0.13295 0.49122
 H137 H 0.02001 0.01472 0.52963
 H138 H -0.03731 -0.12279 0.42220
 H139 H -0.11010 -0.07875 0.43971
 H140 H -0.16204 0.03122 0.55776
 H141 H -0.11590 0.09679 0.57560
 H142 H 0.13180 0.10654 0.51358
 H143 H -0.02107 -0.04308 0.51742
 H144 H 0.05969 0.14972 0.53131
 C145 C -0.30250 0.49596 0.99884
 C146 C -0.29841 0.45456 1.02549
 C147 C -0.33478 0.42374 1.04644
 C148 C -0.37702 0.43611 1.03956
 C149 C -0.38182 0.47812 1.01132
 C150 C -0.34396 0.50838 0.99055
 O151 O -0.26409 0.52087 0.98328
 C152 C -0.23507 0.49452 1.00020
 C153 C -0.25425 0.45337 1.02586
 C154 C -0.22966 0.42016 1.04574
 C155 C -0.18348 0.42989 1.03908
 C156 C -0.16323 0.47268 1.01409
 C157 C -0.18946 0.50534 0.99419
 H158 H -0.33084 0.39153 1.06759
 H159 H -0.40588 0.41274 1.05553
 H160 H -0.34688 0.54088 0.96926
 H161 H -0.24538 0.38782 1.06534
 H162 H -0.16346 0.40449 1.05381
 H163 H -0.17463 0.53801 0.97450
 C164 C 0.30097 0.52693 0.99193
 C165 C 0.29781 0.55934 0.95459
 C166 C 0.33512 0.58202 0.92351
 C167 C 0.37739 0.57087 0.93123
 C168 C 0.38174 0.53847 0.97036
 C169 C 0.34255 0.51654 1.00127
 O170 O 0.26165 0.50720 1.01559
 C171 C 0.23300 0.52791 0.99292
 C172 C 0.25334 0.56058 0.95569
 C173 C 0.22952 0.58653 0.92732
 C174 C 0.18291 0.57812 0.93747
 C175 C 0.16126 0.54338 0.97464
 C176 C 0.18688 0.51805 1.00280
 H177 H 0.33183 0.60684 0.89390
 H178 H 0.40665 0.58811 0.90699
 H179 H 0.34423 0.49099 1.03097
 H180 H 0.24623 0.61219 0.89830
 H181 H 0.16365 0.59769 0.91571
 H182 H 0.17140 0.49092 1.03099
 C183 C 0.01122 -0.29747 0.47507
 C184 C 0.05063 -0.28000 0.44525
 C185 C 0.08131 -0.30715 0.42513
 C186 C 0.07090 -0.35417 0.43625
 C187 C 0.02979 -0.37300 0.46615
 C188 C -0.00050 -0.34372 0.48539
 O189 O -0.01207 -0.26647 0.49282
 C190 C 0.01301 -0.22848 0.47359
 C191 C 0.05147 -0.23467 0.44370
 C192 C 0.08237 -0.19910 0.41982
 C193 C 0.07351 -0.15561 0.42766
 C194 C 0.03510 -0.14889 0.46007
 C195 C 0.00418 -0.18592 0.48274
 H196 H 0.11250 -0.29277 0.40236
 H197 H 0.09472 -0.37568 0.42111
 H198 H -0.03176 -0.35653 0.50901
 H199 H 0.11226 -0.20463 0.39617
 H200 H 0.09698 -0.12734 0.40945
 H201 H -0.02540 -0.18181 0.50760
 C202 C -0.02229 0.29150 0.51871
 C203 C -0.04320 0.27288 0.56308
 C204 C -0.05787 0.29916 0.59500
 C205 C -0.05039 0.34641 0.58057
 C206 C -0.02753 0.36597 0.53541
 C207 C -0.01347 0.33810 0.50408
 O208 O -0.01079 0.26092 0.49371
 C209 C -0.02429 0.22208 0.52295
 C210 C -0.04390 0.22732 0.56603
 C211 C -0.05765 0.19068 0.60248
 C212 C -0.05048 0.14705 0.59412
 C213 C -0.03094 0.14109 0.54975
 C214 C -0.01836 0.17920 0.51365
 H215 H -0.07426 0.28386 0.62972
 H216 H -0.06109 0.36767 0.60478
 H217 H 0.00395 0.35232 0.46938
 H218 H -0.07222 0.19556 0.63630
 H219 H -0.05965 0.11798 0.62203
 H220 H -0.00274 0.17545 0.47965
 C221 C 0.48445 -0.00222 -0.29077
 C222 C 0.49924 -0.04300 -0.27292
 C223 C 0.50877 -0.07690 -0.29728
 C224 C 0.50368 -0.06811 -0.34232
 C225 C 0.49201 -0.02490 -0.36302
 C226 C 0.48210 0.00851 -0.33654
 O227 O 0.47424 0.02395 -0.26059
 C228 C 0.48376 -0.00061 -0.22324
 C229 C 0.50038 -0.04123 -0.22954
 C230 C 0.51584 -0.07068 -0.19633
 C231 C 0.51326 -0.05817 -0.15451
 C232 C 0.49262 -0.01833 -0.14533
 C233 C 0.47794 0.01104 -0.18073
 H234 H 0.51938 -0.10913 -0.28203
 H235 H 0.51146 -0.09421 -0.36174
 H236 H 0.47225 0.04148 -0.35087
 H237 H 0.53026 -0.10173 -0.20270
 H238 H 0.52648 -0.08019 -0.12878
 H239 H 0.46194 0.04161 -0.17530
 C240 C 0.50304 0.00441 0.30584
 C241 C 0.52895 0.04197 0.27968
 C242 C 0.55167 0.07126 0.29810
 C243 C 0.54731 0.06154 0.34546
 C244 C 0.52094 0.02284 0.37320
 C245 C 0.49871 -0.00620 0.35285
 O246 O 0.48357 -0.01856 0.28181
 C247 C 0.49761 0.00494 0.23952
 C248 C 0.52557 0.04220 0.23634
 C249 C 0.54431 0.07140 0.19520
 C250 C 0.53397 0.06165 0.15571
 C251 C 0.50508 0.02350 0.15807
 C252 C 0.48645 -0.00508 0.20075
 H253 H 0.57170 0.10074 0.27683
 H254 H 0.56448 0.08413 0.36048
 H255 H 0.47791 -0.03569 0.37306
 H256 H 0.56629 0.10046 0.19352
 H257 H 0.54858 0.08361 0.12318
 H258 H 0.46410 -0.03423 0.20357
 C259 C 0.49515 -0.30538 0.04642
 C260 C 0.53819 -0.28615 0.03171
 C261 C 0.57355 -0.30847 0.01157
 C262 C 0.56412 -0.35223 0.00586
 C263 C 0.52014 -0.37286 0.02079
 C264 C 0.48524 -0.34947 0.04212
 O265 O 0.46579 -0.27664 0.06017
 C266 C 0.49083 -0.23851 0.05393
 C267 C 0.53542 -0.24271 0.03685
 C268 C 0.56717 -0.20631 0.02426
 C269 C 0.55224 -0.16360 0.02848
 C270 C 0.50637 -0.15811 0.04484
 C271 C 0.47531 -0.19624 0.05877
 H272 H 0.60688 -0.29217 -0.00081
 H273 H 0.59086 -0.36986 -0.01091
 H274 H 0.45116 -0.36405 0.05239
 H275 H 0.60189 -0.21035 0.01008
 H276 H 0.57600 -0.13438 0.01719
 H277 H 0.43998 -0.19257 0.07028
 C278 C 0.49739 0.31032 -0.02502
 C279 C 0.47451 0.30480 -0.05768
 C280 C 0.45709 0.34078 -0.08304
 C281 C 0.46336 0.38405 -0.07412
 C282 C 0.48554 0.39003 -0.03955
 C283 C 0.50286 0.35266 -0.01479
 O284 O 0.51141 0.27204 -0.00482
 C285 C 0.49669 0.24154 -0.02476
 C286 C 0.47349 0.25963 -0.05702
 C287 C 0.45296 0.23306 -0.07996
 C288 C 0.45607 0.18599 -0.06878
 C289 C 0.48027 0.16656 -0.03592
 C290 C 0.50156 0.19518 -0.01439
 H291 H 0.43928 0.33572 -0.10865
 H292 H 0.45000 0.41263 -0.09316
 H293 H 0.52016 0.35653 0.01159
 H294 H 0.43420 0.24789 -0.10466
 H295 H 0.43908 0.16457 -0.08513
 H296 H 0.52038 0.18157 0.01071
 C297 C -0.29381 -0.01305 0.49114
 C298 C -0.28712 -0.05723 0.50892
 C299 C -0.32140 -0.09122 0.52315
 C300 C -0.36447 -0.07908 0.51934
 C301 C -0.37251 -0.03348 0.50232
 C302 C -0.33648 -0.00009 0.48773
 O303 O -0.25681 0.01407 0.48015
 C304 C -0.22620 -0.01352 0.49162
 C305 C -0.24311 -0.05744 0.50971
 C306 C -0.21744 -0.09141 0.52625
 C307 C -0.17254 -0.07955 0.52427
 C308 C -0.15412 -0.03458 0.50533
 C309 C -0.18135 -0.00128 0.48816
 H310 H -0.31530 -0.12573 0.53710
 H311 H -0.39173 -0.10497 0.53092
 H312 H -0.34157 0.03497 0.47468
 H313 H -0.23167 -0.12558 0.54096
 H314 H -0.15205 -0.10521 0.53774
 H315 H -0.16818 0.03326 0.47347
 C316 C 0.30054 0.01579 0.52444
 C317 C 0.29728 0.04869 0.48744
 C318 C 0.33409 0.07461 0.45870
 C319 C 0.37613 0.06577 0.46805
 C320 C 0.38057 0.03069 0.50474
 C321 C 0.34223 0.00551 0.53357
 O322 O 0.26138 -0.00507 0.54714
 C323 C 0.23295 0.01470 0.52357
 C324 C 0.25340 0.04733 0.48634
 C325 C 0.23067 0.06969 0.45483
 C326 C 0.18492 0.05794 0.46202
 C327 C 0.16269 0.02554 0.50096
 C328 C 0.18705 0.00396 0.53247
 H329 H 0.33063 0.10027 0.42979
 H330 H 0.40544 0.08480 0.44550
 H331 H 0.34491 -0.02166 0.56156
 H332 H 0.24775 0.09443 0.42520
 H333 H 0.16655 0.07419 0.43750
 H334 H 0.17089 -0.02117 0.56222
 C335 C -0.02517 0.51000 1.30098
 C336 C -0.02962 0.46560 1.29721
 C337 C -0.03137 0.42928 1.33343
 C338 C -0.02755 0.43904 1.37514
 C339 C -0.02223 0.48436 1.37975
 C340 C -0.02150 0.52048 1.34240
 O341 O -0.02200 0.53921 1.26170
 C342 C -0.02426 0.51263 1.23256
 C343 C -0.02876 0.46732 1.25268
 C344 C -0.02920 0.43334 1.22833
 C345 C -0.02482 0.44655 1.18122
 C346 C -0.02046 0.49296 1.15957
 C347 C -0.02058 0.52658 1.18565
 H348 H -0.03429 0.39467 1.32940
 H349 H -0.02732 0.41135 1.40354
 H350 H -0.01618 0.55529 1.34500
 H351 H -0.03211 0.39794 1.24490
 H352 H -0.02469 0.42072 1.16137
 H353 H -0.01704 0.56221 1.16975
 C354 C 0.02041 0.50442 0.69118
 C355 C 0.04090 0.46617 0.70647
 C356 C 0.05767 0.43654 0.67877
 C357 C 0.05268 0.44648 0.63361
 C358 C 0.03024 0.48479 0.61758
 C359 C 0.01401 0.51427 0.64675
 O360 O 0.00713 0.52822 0.72291
 C361 C 0.01911 0.50425 0.75910
 C362 C 0.03935 0.46566 0.75101
 C363 C 0.05214 0.43428 0.78490
 C364 C 0.04385 0.44317 0.82887
 C365 C 0.02453 0.48355 0.83769
 C366 C 0.01202 0.51452 0.80218
 H367 H 0.07374 0.40671 0.69155
 H368 H 0.06481 0.42351 0.61159
 H369 H -0.00329 0.54368 0.63527
 H370 H 0.06720 0.40371 0.77792
 H371 H 0.05280 0.41894 0.85606
 H372 H -0.00352 0.54515 0.80829
   
