data_POSCAR
  _audit_creation_date              2014-09-24
  _audit_creation_method            'ToBaCCo'
  _symmetry_space_group_name_H-M    'P1'
  _symmetry_Int_Tables_number       1
  _symmetry_cell_setting            triclinic
  loop_
  _symmetry_equiv_pos_as_xyz
 x,y,z
_cell_length_a 52.3066
_cell_length_b 52.0178
_cell_length_c 21.1748
_cell_angle_alpha 89.512300
_cell_angle_beta 90.237000
_cell_angle_gamma 119.978900
loop_
  _atom_site_label
  _atom_site_type_symbol
  _atom_site_fract_x
  _atom_site_fract_y
  _atom_site_fract_z
C1 C 0.18837 0.50751 0.49585
 C2 C 0.20404 0.51596 0.43867
 C3 C 0.23503 0.52973 0.44098
 C4 C 0.24996 0.53190 0.49860
 C5 C 0.23338 0.52444 0.55524
 C6 C 0.20267 0.51257 0.55438
 C7 C 0.28163 0.53871 0.49898
 C8 C 0.29838 0.54559 0.55562
 C9 C 0.32597 0.54703 0.55726
 C10 C 0.33789 0.54353 0.50116
 C11 C 0.32234 0.53765 0.44458
 C12 C 0.29437 0.53487 0.44356
 H13 H 0.16486 0.49949 0.49498
 H14 H 0.24709 0.53691 0.39712
 H15 H 0.24355 0.52563 0.60034
 H16 H 0.29017 0.54922 0.59933
 H17 H 0.35870 0.54368 0.50189
 H18 H 0.28227 0.52785 0.39975
 C19 C 0.48882 -0.32006 0.50467
 C20 C 0.48436 -0.31043 0.44576
 C21 C 0.47175 -0.29205 0.44436
 C22 C 0.46287 -0.28401 0.50063
 C23 C 0.46486 -0.29702 0.55811
 C24 C 0.47969 -0.31326 0.56116
 C25 C 0.45527 -0.25953 0.50065
 C26 C 0.45820 -0.24341 0.55659
 C27 C 0.45640 -0.21744 0.55509
 C28 C 0.45209 -0.20689 0.49762
 C29 C 0.44976 -0.22186 0.44169
 C30 C 0.44971 -0.24880 0.44353
 H31 H 0.49728 -0.33527 0.50662
 H32 H 0.47114 -0.28253 0.39941
 H33 H 0.45692 -0.29281 0.60151
 H34 H 0.46442 -0.24903 0.60100
 H35 H 0.45323 -0.18549 0.49564
 H36 H 0.44756 -0.25968 0.39908
 C37 C 1.33883 0.79873 0.50525
 C38 C 1.33026 0.78359 0.44741
 C39 C 1.30360 0.75616 0.44594
 C40 C 1.28466 0.74516 0.49919
 C41 C 1.29385 0.76167 0.55558
 C42 C 1.32080 0.78818 0.55858
 C43 C 1.25415 0.71863 0.49397
 C44 C 1.23797 0.70278 0.54840
 C45 C 1.20744 0.68226 0.54474
 C46 C 1.19416 0.67521 0.48480
 C47 C 1.21018 0.68878 0.43015
 C48 C 1.23977 0.71078 0.43474
 H49 H 1.35850 0.82035 0.50852
 H50 H 1.29781 0.74336 0.40308
 H51 H 1.27958 0.75526 0.59643
 H52 H 1.24848 0.70782 0.59419
 H53 H 1.17118 0.65819 0.47994
 H54 H 1.25072 0.72246 0.39190
 C55 C 0.80578 0.47714 0.51055
 C56 C 0.79265 0.47389 0.45151
 C57 C 0.76319 0.46730 0.44795
 C58 C 0.74716 0.46632 0.50300
 C59 C 0.76136 0.46958 0.56211
 C60 C 0.79036 0.47497 0.56563
 C61 C 0.71807 0.46616 0.49837
 C62 C 0.70245 0.46633 0.55321
 C63 C 0.68044 0.47442 0.54965
 C64 C 0.67180 0.47917 0.48987
 C65 C 0.68448 0.47597 0.43496
 C66 C 0.70738 0.46961 0.43908
 H67 H 0.82854 0.48220 0.51374
 H68 H 0.75408 0.46470 0.40128
 H69 H 0.75124 0.46980 0.60611
 H70 H 0.70858 0.46262 0.59954
 H71 H 0.65431 0.48452 0.48553
 H72 H 0.71722 0.46901 0.39503
 C73 C 0.49631 0.31404 0.49541
 C74 C 0.50353 0.30493 0.43969
 C75 C 0.51440 0.28522 0.44311
 C76 C 0.51604 0.27254 0.50149
 C77 C 0.50970 0.28323 0.55722
 C78 C 0.50013 0.30418 0.55478
 C79 C 0.52267 0.24734 0.50350
 C80 C 0.52878 0.23716 0.56098
 C81 C 0.53313 0.21244 0.56289
 C82 C 0.53273 0.19874 0.50561
 C83 C 0.52619 0.20793 0.44880
 C84 C 0.52086 0.23165 0.44789
 H85 H 0.48946 0.33053 0.49216
 H86 H 0.52083 0.27963 0.39932
 H87 H 0.51025 0.27423 0.60289
 H88 H 0.53088 0.24849 0.60473
 H89 H 0.53474 0.17899 0.50523
 H90 H 0.51376 0.23633 0.40353
 C91 C 0.67995 0.18626 0.51353
 C92 C 0.68871 0.20037 0.45468
 C93 C 0.71013 0.23063 0.45191
 C94 C 0.72475 0.24641 0.50728
 C95 C 0.71545 0.23125 0.56587
 C96 C 0.69283 0.20165 0.56899
 C97 C 0.75052 0.27768 0.50378
 C98 C 0.76128 0.29560 0.55835
 C99 C 0.78710 0.32373 0.55676
 C100 C 0.80093 0.33487 0.49809
 C101 C 0.79067 0.31770 0.44366
 C102 C 0.76600 0.28927 0.44659
 H103 H 0.66277 0.16314 0.51631
 H104 H 0.71561 0.24121 0.40603
 H105 H 0.72609 0.24155 0.60968
 H106 H 0.74954 0.28824 0.60252
 H107 H 0.82135 0.35591 0.49492
 H108 H 0.76023 0.27609 0.40429
 O109 O 1.04367 0.56413 0.11344
 O110 O 1.07506 0.55687 0.05042
 C111 C 1.06987 0.57040 0.09567
 O112 O 0.95799 0.43252 0.10926
 O113 O 0.92506 0.44172 0.05617
 C114 C 0.93136 0.42695 0.09701
 O115 O 1.04011 0.47405 0.10968
 O116 O 1.07331 0.51333 0.04931
 C117 C 1.06686 0.49363 0.09381
 O118 O 0.96164 0.52662 0.11735
 O119 O 0.92705 0.48672 0.06137
 C120 C 0.93451 0.50673 0.10467
 Zr121 Zr 1.00169 0.53253 0.07993
 O122 O 1.00135 0.53305 0.17987
 O123 O 1.00383 0.57413 0.07389
 Zr124 Zr 0.99916 0.46618 0.07463
 O125 O 0.99789 0.46096 0.17389
 O126 O 1.00093 0.42659 0.06479
 O127 O 1.02677 0.51168 0.08806
 O128 O 0.97532 0.48720 0.09160
 O129 O 0.95744 0.52802 -0.10568
 O130 O 0.92500 0.48772 -0.04644
 C131 C 0.93088 0.50795 -0.08909
 O132 O 1.03642 0.47567 -0.12410
 O133 O 1.07147 0.51384 -0.06492
 C134 C 1.06363 0.49475 -0.11040
 O135 O 0.95404 0.43596 -0.11727
 O136 O 0.92346 0.44399 -0.05314
 C137 C 0.92819 0.43113 -0.10006
 O138 O 1.03947 0.56373 -0.12055
 O139 O 1.07296 0.55665 -0.06413
 C140 C 1.06619 0.56946 -0.10886
 Zr141 Zr 0.99899 0.53400 -0.07700
 O142 O 0.99490 0.53817 -0.17535
 O143 O 1.00386 0.57666 -0.06569
 Zr144 Zr 0.99644 0.46744 -0.08257
 O145 O 0.99284 0.46389 -0.18204
 O146 O 0.99724 0.42716 -0.07733
 Zr147 Zr 1.04357 0.52116 -0.00485
 Zr148 Zr 0.95491 0.47902 0.00242
 O149 O 0.97244 0.48905 -0.08983
 O150 O 1.02346 0.51310 -0.09475
 O151 O 0.97371 0.52554 0.00414
 O152 O 1.02389 0.47461 -0.00634
 O153 O 1.02685 0.55045 -0.00054
 O154 O 0.97073 0.44891 -0.00228
 H155 H 0.96329 0.48079 0.13067
 H156 H 1.03703 0.46600 -0.00821
 H157 H 0.95966 0.48408 -0.12760
 H158 H 1.04110 0.57207 -0.00144
 H159 H 0.98174 0.41122 0.04761
 H160 H 0.97719 0.41121 -0.06552
 H161 H 1.00518 0.48410 -0.19961
 H162 H 1.00000 0.52432 -0.19576
 H163 H 0.98568 0.57400 -0.04532
 H164 H 1.00488 0.58083 0.11799
 H165 H 1.01561 0.52712 0.19486
 H166 H 1.00917 0.48107 0.19188
 O167 O 0.43706 0.48023 0.11829
 O168 O 0.44555 0.52150 0.06160
 C169 C 0.43219 0.50189 0.10590
 O170 O 0.56620 0.52111 0.10684
 O171 O 0.55567 0.48030 0.04745
 C172 C 0.57118 0.50016 0.08960
 O173 O 0.52726 0.56411 0.12173
 O174 O 0.48928 0.56213 0.06368
 C175 C 0.50856 0.57293 0.10884
 O176 O 0.47014 0.43168 0.10357
 O177 O 0.50984 0.43766 0.04602
 C178 C 0.48909 0.42370 0.08766
 Zr179 Zr 0.46615 0.46854 0.07554
 O180 O 0.46406 0.46141 0.17428
 O181 O 0.42280 0.43199 0.06634
 Zr182 Zr 0.53321 0.53074 0.07975
 O183 O 0.53543 0.52708 0.17906
 O184 O 0.57345 0.57167 0.08049
 O185 O 0.48823 0.51400 0.09303
 O186 O 0.51094 0.48505 0.08716
 O187 O 0.47055 0.43735 -0.11916
 O188 O 0.50952 0.43999 -0.06369
 C189 C 0.48904 0.42825 -0.10647
 O190 O 0.52763 0.56984 -0.10984
 O191 O 0.48962 0.56511 -0.04803
 C192 C 0.50897 0.57799 -0.09249
 O193 O 0.56543 0.52523 -0.11400
 O194 O 0.55560 0.48263 -0.06118
 C195 C 0.57015 0.50339 -0.10282
 O196 O 0.43917 0.48795 -0.12169
 O197 O 0.44664 0.52527 -0.05380
 C198 C 0.43460 0.50905 -0.10316
 Zr199 Zr 0.46621 0.47243 -0.08154
 O200 O 0.46231 0.46879 -0.18084
 O201 O 0.42270 0.43591 -0.07426
 Zr202 Zr 0.53358 0.53464 -0.07771
 O203 O 0.53649 0.53734 -0.17748
 O204 O 0.57419 0.57498 -0.07032
 Zr205 Zr 0.48042 0.52656 0.00325
 Zr206 Zr 0.51938 0.47662 -0.00538
 O207 O 0.51103 0.48949 -0.09418
 O208 O 0.48870 0.51854 -0.08989
 O209 O 0.47283 0.45060 -0.00592
 O210 O 0.52680 0.55178 0.00376
 O211 O 0.44981 0.48087 -0.00087
 O212 O 0.55030 0.52245 -0.00129
 H213 H 0.51675 0.47712 0.12377
 H214 H 0.53634 0.57369 0.00611
 H215 H 0.51665 0.48326 -0.13335
 H216 H 0.42861 0.47492 -0.00091
 H217 H 0.58786 0.56927 0.05480
 H218 H 0.58914 0.57026 -0.05408
 H219 H 0.51733 0.53406 -0.19367
 H220 H 0.47996 0.48629 -0.19836
 H221 H 0.42416 0.41803 -0.06469
 H222 H 0.42431 0.41541 0.04771
 H223 H 0.47519 0.48116 0.19397
 H224 H 0.51714 0.52514 0.19717
 O225 O 0.51791 -0.04825 0.11696
 O226 O 0.47908 -0.07819 0.05255
 C227 C 0.49682 -0.07409 0.09914
 O228 O 0.47626 0.03992 0.11741
 O229 O 0.51807 0.07290 0.06363
 C230 C 0.49752 0.06662 0.10522
 O231 O 0.43798 -0.04291 0.12405
 O232 O 0.43946 -0.07580 0.05474
 C233 C 0.43011 -0.06963 0.10579
 O234 O 0.56536 0.03476 0.11934
 O235 O 0.56048 0.07035 0.06482
 C236 C 0.57312 0.06225 0.10713
 Zr237 Zr 0.53051 -0.00524 0.08232
 O238 O 0.53289 -0.00537 0.18207
 O239 O 0.56780 -0.01089 0.07593
 Zr240 Zr 0.46745 -0.00140 0.08174
 O241 O 0.46233 -0.00071 0.18060
 O242 O 0.42715 -0.00180 0.06960
 O243 O 0.48499 -0.02935 0.09203
 O244 O 0.51257 0.02182 0.09662
 O245 O 0.56854 0.03940 -0.10250
 O246 O 0.56235 0.07253 -0.04304
 C247 C 0.57623 0.06618 -0.08524
 O248 O 0.43768 -0.03693 -0.11991
 O249 O 0.43985 -0.07267 -0.05993
 C250 C 0.42913 -0.06445 -0.10610
 O251 O 0.48098 0.04614 -0.10722
 O252 O 0.52116 0.07574 -0.04522
 C253 C 0.50278 0.07180 -0.09038
 O254 O 0.52069 -0.04259 -0.11804
 O255 O 0.48020 -0.07548 -0.06086
 C256 C 0.49923 -0.06918 -0.10586
 Zr257 Zr 0.53214 -0.00170 -0.07525
 O258 O 0.53698 0.00377 -0.17445
 O259 O 0.56899 -0.00819 -0.07052
 Zr260 Zr 0.46926 0.00265 -0.07534
 O261 O 0.46611 0.00669 -0.17403
 O262 O 0.42892 0.00246 -0.06500
 Zr263 Zr 0.47571 -0.04577 -0.00097
 Zr264 Zr 0.52398 0.04280 0.00763
 O265 O 0.51476 0.02600 -0.08497
 O266 O 0.48672 -0.02515 -0.09070
 O267 O 0.55072 0.02304 0.00604
 O268 O 0.44941 -0.02567 0.00090
 O269 O 0.52140 -0.03005 0.00109
 O270 O 0.47833 0.02793 0.00582
 H271 H 0.51898 0.03380 0.13565
 H272 H 0.42772 -0.03911 0.00034
 H273 H 0.52262 0.03948 -0.12197
 H274 H 0.52802 -0.04487 -0.00029
 H275 H 0.41883 -0.00401 0.11252
 H276 H 0.43371 0.02241 -0.05038
 H277 H 0.48357 0.00704 -0.19266
 H278 H 0.51712 -0.00833 -0.19312
 H279 H 0.58507 0.00908 -0.04858
 H280 H 0.58475 0.00828 0.06220
 H281 H 0.51243 -0.01738 0.19789
 H282 H 0.47916 -0.00146 0.20001
 C283 C 1.15209 0.50092 0.27493
 C284 C 1.14217 0.47964 0.32352
 C285 C 1.16022 0.48430 0.37586
 C286 C 1.18822 0.51017 0.38102
 C287 C 1.19878 0.53028 0.32929
 C288 C 1.18042 0.52606 0.27675
 C289 C 1.13178 0.49745 0.22285
 C290 C 1.14074 0.51956 0.17601
 C291 C 1.12011 0.51757 0.13033
 C292 C 1.09077 0.49367 0.13211
 C293 C 1.08311 0.47071 0.17681
 C294 C 1.10322 0.47271 0.22273
 C295 C 1.18921 0.54699 0.22722
 C296 C 1.16975 0.54375 0.17770
 C297 C 1.11387 0.45455 0.32020
 C298 C 1.09473 0.45109 0.27048
 H299 H 1.21106 0.56642 0.22746
 H300 H 1.17732 0.56054 0.14096
 H301 H 1.10614 0.43783 0.35724
 H302 H 1.07276 0.43181 0.27054
 H303 H 1.15224 0.46760 0.41301
 H304 H 1.22011 0.55034 0.33184
 H305 H 1.12645 0.53516 0.09570
 H306 H 1.06087 0.45186 0.17830
 C307 C 0.50218 0.65186 0.28839
 C308 C 0.52119 0.66071 0.34057
 C309 C 0.51633 0.67507 0.39057
 C310 C 0.49224 0.68028 0.38995
 C311 C 0.47476 0.67330 0.33467
 C312 C 0.47927 0.65845 0.28438
 C313 C 0.50548 0.63404 0.23862
 C314 C 0.48549 0.62365 0.18799
 C315 C 0.48731 0.60469 0.14353
 C316 C 0.50883 0.59601 0.15001
 C317 C 0.52947 0.60784 0.19966
 C318 C 0.52774 0.62658 0.24426
 C319 C 0.46043 0.64871 0.23159
 C320 C 0.46351 0.63164 0.18423
 C321 C 0.54396 0.65386 0.34321
 C322 C 0.54718 0.63706 0.29583
 H323 H 0.44271 0.65371 0.22757
 H324 H 0.44824 0.62420 0.14492
 H325 H 0.55892 0.66083 0.38313
 H326 H 0.56454 0.63156 0.30048
 H327 H 0.53122 0.68181 0.43061
 H328 H 0.45607 0.67689 0.33282
 H329 H 0.47138 0.59591 0.10544
 H330 H 0.54625 0.60157 0.20520
 C331 C 0.37517 -0.16252 0.29089
 C332 C 0.34602 -0.18559 0.28288
 C333 C 0.33179 -0.20564 0.33305
 C334 C 0.34640 -0.20218 0.39163
 C335 C 0.37679 -0.18077 0.39526
 C336 C 0.39095 -0.16047 0.34609
 C337 C 0.38902 -0.13926 0.24185
 C338 C 0.41751 -0.11529 0.25212
 C339 C 0.42991 -0.09235 0.20755
 C340 C 0.41456 -0.09363 0.15200
 C341 C 0.38653 -0.11829 0.14057
 C342 C 0.37331 -0.14102 0.18642
 C343 C 0.42010 -0.13709 0.35274
 C344 C 0.43310 -0.11472 0.30671
 C345 C 0.33116 -0.18701 0.22631
 C346 C 0.34465 -0.16526 0.17871
 H347 H 0.43263 -0.13551 0.39486
 H348 H 0.45538 -0.09664 0.31426
 H349 H 0.30868 -0.20476 0.21924
 H350 H 0.33228 -0.16705 0.13621
 H351 H 0.30857 -0.22178 0.32805
 H352 H 0.38930 -0.17893 0.43758
 H353 H 0.45194 -0.07371 0.21516
 H354 H 0.37500 -0.11941 0.09713
 C355 C 0.84893 0.49251 0.29095
 C356 C 0.82090 0.46684 0.29083
 C357 C 0.80189 0.46106 0.34249
 C358 C 0.81111 0.48062 0.39407
 C359 C 0.83892 0.50668 0.39222
 C360 C 0.85796 0.51266 0.34108
 C361 C 0.86969 0.49785 0.23884
 C362 C 0.89807 0.52293 0.24050
 C363 C 0.91850 0.52677 0.19365
 C364 C 0.91103 0.50548 0.14587
 C365 C 0.88193 0.48118 0.14308
 C366 C 0.86122 0.47719 0.18980
 C367 C 0.88618 0.53801 0.33996
 C368 C 0.90590 0.54305 0.29050
 C369 C 0.81283 0.44719 0.23976
 C370 C 0.83260 0.45237 0.18999
 H371 H 0.89330 0.55379 0.37828
 H372 H 0.92771 0.56254 0.29213
 H373 H 0.79122 0.42742 0.23867
 H374 H 0.82556 0.43660 0.15177
 H375 H 0.78049 0.44101 0.34372
 H376 H 0.84591 0.52209 0.43129
 H377 H 0.94068 0.54565 0.19624
 H378 H 0.87582 0.46462 0.10660
 C379 C 0.49240 0.34360 0.26991
 C380 C 0.46919 0.33008 0.31363
 C381 C 0.47259 0.31620 0.36730
 C382 C 0.49913 0.31612 0.37818
 C383 C 0.52175 0.32857 0.33248
 C384 C 0.51854 0.34259 0.27829
 C385 C 0.48989 0.36057 0.21633
 C386 C 0.51368 0.37556 0.17440
 C387 C 0.51249 0.39443 0.12783
 C388 C 0.48783 0.39856 0.12409
 C389 C 0.46331 0.38145 0.16355
 C390 C 0.46439 0.36285 0.21027
 C391 C 0.54128 0.35657 0.23345
 C392 C 0.53878 0.37258 0.18222
 C393 C 0.44346 0.33173 0.30421
 C394 C 0.44110 0.34785 0.25337
 H395 H 0.56143 0.35566 0.23870
 H396 H 0.55686 0.38320 0.14911
 H397 H 0.42533 0.32118 0.33743
 H398 H 0.42124 0.34935 0.24892
 H399 H 0.45494 0.30624 0.40181
 H400 H 0.54224 0.32861 0.34061
 H401 H 0.53143 0.40732 0.09767
 H402 H 0.44400 0.38401 0.16070
 C403 C 0.64823 0.14597 0.29291
 C404 C 0.66038 0.13636 0.34040
 C405 C 0.67446 0.15485 0.39183
 C406 C 0.67618 0.18267 0.39659
 C407 C 0.66478 0.19249 0.34755
 C408 C 0.65054 0.17405 0.29565
 C409 C 0.63175 0.12574 0.24071
 C410 C 0.61854 0.13479 0.19445
 C411 C 0.60091 0.11457 0.14773
 C412 C 0.59616 0.08536 0.14785
 C413 C 0.61092 0.07730 0.19281
 C414 C 0.62848 0.09727 0.23962
 C415 C 0.63784 0.18269 0.24729
 C416 C 0.62225 0.16344 0.19744
 C417 C 0.65750 0.10809 0.33650
 C418 C 0.64179 0.08885 0.28696
 H419 H 0.63957 0.20432 0.24849
 H420 H 0.61263 0.17088 0.16143
 H421 H 0.66695 0.10053 0.37276
 H422 H 0.63950 0.06697 0.28648
 H423 H 0.68365 0.14740 0.42893
 H424 H 0.66601 0.21386 0.35102
 H425 H 0.58974 0.12112 0.11350
 H426 H 0.60769 0.05503 0.19331
 C427 C 0.52898 0.16292 -0.27491
 C428 C 0.51308 0.17809 -0.27606
 C429 C 0.51677 0.19705 -0.32734
 C430 C 0.53482 0.19938 -0.37929
 C431 C 0.55170 0.18504 -0.37513
 C432 C 0.54892 0.16693 -0.32329
 C433 C 0.52351 0.14123 -0.22390
 C434 C 0.53903 0.12567 -0.22390
 C435 C 0.53259 0.10390 -0.17774
 C436 C 0.51042 0.09712 -0.13267
 C437 C 0.49518 0.11300 -0.13233
 C438 C 0.50188 0.13540 -0.17792
 C439 C 0.56470 0.15162 -0.32044
 C440 C 0.55990 0.13140 -0.27143
 C441 C 0.49254 0.17262 -0.22774
 C442 C 0.48692 0.15155 -0.17977
 H443 H 0.58038 0.15476 -0.35718
 H444 H 0.57213 0.11964 -0.27161
 H445 H 0.48004 0.18409 -0.22801
 H446 H 0.47040 0.14753 -0.14443
 H447 H 0.50331 0.20750 -0.32938
 H448 H 0.56672 0.18756 -0.41294
 H449 H 0.54394 0.09125 -0.17836
 H450 H 0.47800 0.10759 -0.09767
 C451 C 0.64133 0.49007 -0.29184
 C452 C 0.64585 0.46565 -0.29049
 C453 C 0.66040 0.46118 -0.34164
 C454 C 0.66845 0.47986 -0.39564
 C455 C 0.66373 0.50434 -0.39517
 C456 C 0.65076 0.50980 -0.34337
 C457 C 0.62555 0.49465 -0.23934
 C458 C 0.62146 0.51930 -0.24106
 C459 C 0.60532 0.52293 -0.19317
 C460 C 0.59191 0.50149 -0.14475
 C461 C 0.59683 0.47713 -0.14264
 C462 C 0.61390 0.47376 -0.18985
 C463 C 0.64662 0.53445 -0.34278
 C464 C 0.63246 0.53929 -0.29216
 C465 C 0.63482 0.44574 -0.23898
 C466 C 0.61885 0.44953 -0.18998
 H467 H 0.65409 0.54997 -0.38212
 H468 H 0.62939 0.55839 -0.29387
 H469 H 0.63794 0.42667 -0.23727
 H470 H 0.61011 0.43323 -0.15216
 H471 H 0.66352 0.44209 -0.34120
 H472 H 0.67087 0.51974 -0.43476
 H473 H 0.60193 0.54183 -0.19586
 H474 H 0.58663 0.46041 -0.10590
 C475 C 0.83754 0.36953 -0.28412
 C476 C 0.83606 0.38576 -0.33592
 C477 C 0.81778 0.37057 -0.38703
 C478 C 0.80082 0.33922 -0.38703
 C479 C 0.80079 0.32356 -0.33189
 C480 C 0.81974 0.33856 -0.28119
 C481 C 0.85934 0.38516 -0.23373
 C482 C 0.86235 0.36880 -0.18383
 C483 C 0.88465 0.38368 -0.13841
 C484 C 0.90355 0.41450 -0.14354
 C485 C 0.89964 0.43057 -0.19257
 C486 C 0.87770 0.41605 -0.23804
 C487 C 0.82249 0.32305 -0.22924
 C488 C 0.84349 0.33789 -0.18155
 C489 C 0.85395 0.41680 -0.33701
 C490 C 0.87439 0.43171 -0.28876
 H491 H 0.80887 0.29912 -0.22633
 H492 H 0.84534 0.32499 -0.14323
 H493 H 0.85268 0.42961 -0.37628
 H494 H 0.88820 0.45563 -0.29195
 H495 H 0.81719 0.38324 -0.42735
 H496 H 0.78838 0.29952 -0.33059
 H497 H 0.88766 0.37144 -0.10021
 H498 H 0.91422 0.45439 -0.19604
 C499 C 0.47860 -0.15806 -0.29004
 C500 C 0.45315 -0.18624 -0.28582
 C501 C 0.44637 -0.20639 -0.33557
 C502 C 0.46462 -0.19805 -0.38925
 C503 C 0.49031 -0.17003 -0.39201
 C504 C 0.49744 -0.14994 -0.34258
 C505 C 0.48513 -0.13624 -0.23964
 C506 C 0.51014 -0.10788 -0.24498
 C507 C 0.51540 -0.08666 -0.19899
 C508 C 0.49561 -0.09330 -0.14832
 C509 C 0.47112 -0.12224 -0.14246
 C510 C 0.46576 -0.14379 -0.18822
 C511 C 0.52262 -0.12159 -0.34546
 C512 C 0.52890 -0.10093 -0.29737
 C513 C 0.43472 -0.19329 -0.23274
 C514 C 0.44097 -0.17245 -0.18471
 H515 H 0.53735 -0.11517 -0.38568
 H516 H 0.54831 -0.07912 -0.30184
 H517 H 0.41508 -0.21494 -0.22868
 H518 H 0.42609 -0.17873 -0.14484
 H519 H 0.42653 -0.22799 -0.33374
 H520 H 0.50439 -0.16377 -0.43340
 H521 H 0.53437 -0.06458 -0.20418
 H522 H 0.45573 -0.12770 -0.10374
 C523 C 0.37103 0.53932 -0.28185
 C524 C 0.34006 0.52283 -0.28357
 C525 C 0.32505 0.52746 -0.33365
 C526 C 0.34091 0.54799 -0.38222
 C527 C 0.37185 0.56553 -0.37758
 C528 C 0.38706 0.56102 -0.32802
 C529 C 0.38706 0.53251 -0.23305
 C530 C 0.41804 0.54782 -0.23385
 C531 C 0.43317 0.54016 -0.18977
 C532 C 0.41763 0.51746 -0.14525
 C533 C 0.38663 0.50235 -0.14437
 C534 C 0.37114 0.50979 -0.18857
 C535 C 0.41804 0.57650 -0.32589
 C536 C 0.43327 0.56984 -0.27988
 C537 C 0.32488 0.50088 -0.23724
 C538 C 0.34014 0.49450 -0.19054
 H539 H 0.43066 0.59333 -0.36113
 H540 H 0.45717 0.58171 -0.28099
 H541 H 0.30099 0.48803 -0.23795
 H542 H 0.32756 0.47700 -0.15654
 H543 H 0.30130 0.51358 -0.33735
 H544 H 0.38416 0.58140 -0.41470
 H545 H 0.45706 0.55123 -0.19112
 H546 H 0.37475 0.48461 -0.11038
 C547 C 1.15141 0.64139 -0.29820
 C548 C 1.14166 0.65136 -0.34960
 C549 C 1.16062 0.66519 -0.40052
 C550 C 1.18965 0.66978 -0.40080
 C551 C 1.19967 0.66108 -0.34689
 C552 C 1.18027 0.64607 -0.29622
 C553 C 1.13062 0.62498 -0.24639
 C554 C 1.13954 0.61332 -0.19643
 C555 C 1.11889 0.59607 -0.14935
 C556 C 1.08963 0.59073 -0.15233
 C557 C 1.08174 0.60381 -0.20163
 C558 C 1.10186 0.62047 -0.24902
 C559 C 1.18871 0.63481 -0.24448
 C560 C 1.16867 0.61856 -0.19574
 C561 C 1.11288 0.64688 -0.34986
 C562 C 1.09335 0.63182 -0.30020
 H563 H 1.21084 0.63808 -0.24222
 H564 H 1.17598 0.60986 -0.15745
 H565 H 1.10525 0.65474 -0.38917
 H566 H 1.07119 0.62847 -0.30259
 H567 H 1.15280 0.67298 -0.43966
 H568 H 1.22171 0.66409 -0.34604
 H569 H 1.12532 0.58619 -0.11178
 H570 H 1.05945 0.60009 -0.20483
 C571 C 0.84284 0.49284 -0.26894
 C572 C 0.81789 0.46453 -0.27638
 C573 C 0.79944 0.45909 -0.32890
 C574 C 0.80630 0.48164 -0.37386
 C575 C 0.83081 0.51006 -0.36480
 C576 C 0.84926 0.51580 -0.31250
 C577 C 0.86357 0.49807 -0.21674
 C578 C 0.88944 0.52581 -0.21181
 C579 C 0.91050 0.52977 -0.16606
 C580 C 0.90597 0.50616 -0.12590
 C581 C 0.87909 0.47902 -0.12905
 C582 C 0.85803 0.47470 -0.17515
 C583 C 0.87471 0.54362 -0.30445
 C584 C 0.89450 0.54853 -0.25494
 C585 C 0.81268 0.44194 -0.23272
 C586 C 0.83239 0.44695 -0.18289
 H587 H 0.87978 0.56151 -0.33765
 H588 H 0.91431 0.57006 -0.25143
 H589 H 0.79361 0.42001 -0.23803
 H590 H 0.82800 0.42869 -0.15135
 H591 H 0.78073 0.43710 -0.33660
 H592 H 0.83605 0.52729 -0.39994
 H593 H 0.93108 0.55069 -0.16400
 H594 H 0.87549 0.46052 -0.09898
 C595 C 0.48907 0.34652 -0.28732
 C596 C 0.51151 0.33920 -0.28630
 C597 C 0.51375 0.32295 -0.33667
 C598 C 0.49486 0.31574 -0.38968
 C599 C 0.47192 0.32258 -0.38828
 C600 C 0.46880 0.33767 -0.33730
 C601 C 0.48758 0.36505 -0.23671
 C602 C 0.46534 0.37261 -0.23869
 C603 C 0.46501 0.39170 -0.19316
 C604 C 0.48729 0.40422 -0.14678
 C605 C 0.50900 0.39569 -0.14411
 C606 C 0.50919 0.37601 -0.18913
 C607 C 0.44636 0.34499 -0.33658
 C608 C 0.44454 0.36202 -0.28784
 C609 C 0.53208 0.34957 -0.23651
 C610 C 0.53109 0.36785 -0.18909
 H611 H 0.43042 0.33799 -0.37467
 H612 H 0.42724 0.36770 -0.28968
 H613 H 0.54960 0.34420 -0.23514
 H614 H 0.54789 0.37604 -0.15266
 H615 H 0.53177 0.31829 -0.33692
 H616 H 0.45634 0.31613 -0.42703
 H617 H 0.44805 0.39784 -0.19586
 H618 H 0.52629 0.40515 -0.10880
 C619 C 0.65538 0.15156 -0.26286
 C620 C 0.67047 0.14291 -0.30466
 C621 C 0.68405 0.16035 -0.35815
 C622 C 0.68259 0.18620 -0.36986
 C623 C 0.66855 0.19537 -0.32636
 C624 C 0.65450 0.17784 -0.27294
 C625 C 0.63857 0.13171 -0.21005
 C626 C 0.62174 0.13923 -0.17080
 C627 C 0.60325 0.11871 -0.12504
 C628 C 0.60098 0.09061 -0.12005
 C629 C 0.61953 0.08435 -0.15695
 C630 C 0.63805 0.10462 -0.20255
 C631 C 0.63843 0.18525 -0.23110
 C632 C 0.62232 0.16626 -0.18086
 C633 C 0.67051 0.11628 -0.29378
 C634 C 0.65460 0.09746 -0.24344
 H635 H 0.63757 0.20545 -0.23835
 H636 H 0.60940 0.17231 -0.15103
 H637 H 0.68223 0.10951 -0.32550
 H638 H 0.65443 0.07665 -0.23781
 H639 H 0.69482 0.15335 -0.39197
 H640 H 0.66719 0.21515 -0.33605
 H641 H 0.58901 0.12370 -0.09694
 H642 H 0.61819 0.06291 -0.15299
 C643 C 1.14843 0.49890 -0.28807
 C644 C 1.13830 0.47789 -0.33661
 C645 C 1.15706 0.48165 -0.38686
 C646 C 1.18602 0.50621 -0.38941
 C647 C 1.19663 0.52580 -0.33750
 C648 C 1.17756 0.52272 -0.28763
 C649 C 1.12763 0.49669 -0.23865
 C650 C 1.13698 0.51877 -0.19235
 C651 C 1.11635 0.51765 -0.14830
 C652 C 1.08663 0.49467 -0.15092
 C653 C 1.07817 0.47213 -0.19622
 C654 C 1.09838 0.47320 -0.24048
 C655 C 1.18648 0.54381 -0.23912
 C656 C 1.16651 0.54195 -0.19249
 C657 C 1.10913 0.45417 -0.33555
 C658 C 1.08951 0.45179 -0.28806
 H659 H 1.20886 0.56237 -0.23816
 H660 H 1.17413 0.55904 -0.15688
 H661 H 1.10119 0.43770 -0.37258
 H662 H 1.06699 0.43349 -0.28964
 H663 H 1.14891 0.46554 -0.42466
 H664 H 1.21869 0.54494 -0.33858
 H665 H 1.12317 0.53509 -0.11366
 H666 H 1.05549 0.45417 -0.19868
 C667 C 0.49824 0.65399 -0.27256
 C668 C 0.47197 0.65508 -0.27576
 C669 C 0.46639 0.66767 -0.32943
 C670 C 0.48634 0.67776 -0.38081
 C671 C 0.51320 0.67765 -0.37466
 C672 C 0.51918 0.66578 -0.32118
 C673 C 0.50315 0.63855 -0.21935
 C674 C 0.52873 0.63616 -0.21851
 C675 C 0.53172 0.61848 -0.17252
 C676 C 0.50896 0.60239 -0.12871
 C677 C 0.48444 0.60678 -0.12697
 C678 C 0.48125 0.62462 -0.17294
 C679 C 0.54524 0.66438 -0.31684
 C680 C 0.54997 0.64984 -0.26618
 C681 C 0.45120 0.64218 -0.22671
 C682 C 0.45574 0.62716 -0.17622
 H683 H 0.56167 0.67374 -0.35396
 H684 H 0.56989 0.64832 -0.26560
 H685 H 0.43081 0.64279 -0.22847
 H686 H 0.43867 0.61656 -0.14069
 H687 H 0.44554 0.66730 -0.33305
 H688 H 0.52962 0.68676 -0.41190
 H689 H 0.55090 0.61568 -0.17370
 H690 H 0.46680 0.59453 -0.09333
 C691 C 0.35549 -0.15275 -0.28608
 C692 C 0.34721 -0.14370 -0.34137
 C693 C 0.33402 -0.16396 -0.39049
 C694 C 0.32941 -0.19293 -0.38489
 C695 C 0.33652 -0.20221 -0.32824
 C696 C 0.34990 -0.18201 -0.27866
 C697 C 0.37176 -0.13075 -0.23658
 C698 C 0.38139 -0.13935 -0.18267
 C699 C 0.39885 -0.11783 -0.13811
 C700 C 0.40700 -0.08780 -0.14769
 C701 C 0.39601 -0.07988 -0.20075
 C702 C 0.37860 -0.10121 -0.24555
 C703 C 0.35897 -0.19003 -0.22297
 C704 C 0.37432 -0.16908 -0.17565
 C705 C 0.35348 -0.11421 -0.34762
 C706 C 0.36892 -0.09330 -0.30047
 H707 H 0.35471 -0.21252 -0.21645
 H708 H 0.38126 -0.17608 -0.13381
 H709 H 0.34703 -0.10705 -0.38999
 H710 H 0.37394 -0.07060 -0.30776
 H711 H 0.32847 -0.15693 -0.43430
 H712 H 0.33315 -0.22449 -0.32431
 H713 H 0.40707 -0.12429 -0.09747
 H714 H 0.40200 -0.05694 -0.20871
 C715 C 0.47126 -0.16631 0.27914
 C716 C 0.44199 -0.18961 0.28635
 C717 C 0.43469 -0.20894 0.33857
 C718 C 0.45663 -0.20478 0.38246
 C719 C 0.48592 -0.18201 0.37330
 C720 C 0.49334 -0.16250 0.32218
 C721 C 0.47871 -0.14459 0.22747
 C722 C 0.50752 -0.12024 0.22319
 C723 C 0.51384 -0.09813 0.17792
 C724 C 0.49163 -0.10017 0.13720
 C725 C 0.46330 -0.12565 0.13938
 C726 C 0.45657 -0.14771 0.18537
 C727 C 0.52218 -0.13862 0.31471
 C728 C 0.52913 -0.11773 0.26614
 C729 C 0.42058 -0.19243 0.24229
 C730 C 0.42780 -0.17195 0.19239
 H731 H 0.53934 -0.13561 0.34769
 H732 H 0.55145 -0.09913 0.26300
 H733 H 0.39795 -0.21023 0.24718
 H734 H 0.41049 -0.17455 0.16030
 H735 H 0.41209 -0.22641 0.34622
 H736 H 0.50267 -0.17889 0.40764
 H737 H 0.53574 -0.07874 0.17620
 H738 H 0.44598 -0.12732 0.10845
 C739 C 0.36136 0.51902 0.28852
 C740 C 0.34766 0.49770 0.33666
 C741 C 0.33399 0.50367 0.38652
 C742 C 0.33401 0.53065 0.38834
 C743 C 0.34700 0.55149 0.33909
 C744 C 0.36103 0.54587 0.28906
 C745 C 0.37732 0.51357 0.23798
 C746 C 0.39209 0.53532 0.19119
 C747 C 0.40886 0.53081 0.14561
 C748 C 0.41110 0.50489 0.14728
 C749 C 0.39506 0.48282 0.19308
 C750 C 0.37838 0.48714 0.23878
 C751 C 0.37540 0.56678 0.24050
 C752 C 0.39057 0.56153 0.19228
 C753 C 0.34858 0.47121 0.33490
 C754 C 0.36362 0.46597 0.28662
 H755 H 0.37530 0.58756 0.24025
 H756 H 0.40151 0.57829 0.15599
 H757 H 0.33800 0.45461 0.37170
 H758 H 0.36418 0.44543 0.28746
 H759 H 0.32390 0.48772 0.42474
 H760 H 0.34701 0.57232 0.34101
 H761 H 0.42107 0.54795 0.11067
 H762 H 0.39641 0.46270 0.19479
 C763 C 1.15860 0.65156 0.26528
 C764 C 1.15082 0.66714 0.30773
 C765 C 1.16922 0.68137 0.35916
 C766 C 1.19504 0.67986 0.36864
 C767 C 1.20356 0.66574 0.32385
 C768 C 1.18513 0.65116 0.27221
 C769 C 1.13757 0.63359 0.21553
 C770 C 1.14429 0.61632 0.17562
 C771 C 1.12281 0.59684 0.13277
 C772 C 1.09473 0.59437 0.13098
 C773 C 1.08925 0.61333 0.16863
 C774 C 1.11035 0.63264 0.21144
 C775 C 1.19179 0.63485 0.22935
 C776 C 1.17178 0.61786 0.18170
 C777 C 1.12397 0.66674 0.30006
 C778 C 1.10407 0.64980 0.25256
 H779 H 1.21229 0.63455 0.23373
 H780 H 1.17757 0.60528 0.15032
 H781 H 1.11787 0.67886 0.33226
 H782 H 1.08316 0.64934 0.24940
 H783 H 1.16272 0.69223 0.39390
 H784 H 1.22334 0.66436 0.33167
 H785 H 1.12733 0.58256 0.10367
 H786 H 1.06794 0.61211 0.16688
 C787 C 0.51036 0.15242 0.28939
 C788 C 0.53653 0.18004 0.29160
 C789 C 0.54144 0.19883 0.34311
 C790 C 0.52053 0.18969 0.39208
 C791 C 0.49426 0.16229 0.38858
 C792 C 0.48900 0.14354 0.33727
 C793 C 0.50572 0.13188 0.23735
 C794 C 0.47998 0.10398 0.23653
 C795 C 0.47658 0.08369 0.18986
 C796 C 0.49905 0.09063 0.14509
 C797 C 0.52416 0.11928 0.14464
 C798 C 0.52761 0.14001 0.19096
 C799 C 0.46314 0.11578 0.33370
 C800 C 0.45867 0.09634 0.28406
 C801 C 0.55744 0.18789 0.24301
 C802 C 0.55300 0.16824 0.19349
 H803 H 0.44646 0.10882 0.37018
 H804 H 0.43869 0.07485 0.28371
 H805 H 0.57762 0.20920 0.24379
 H806 H 0.56975 0.17505 0.15730
 H807 H 0.56168 0.22004 0.34615
 H808 H 0.47821 0.15547 0.42644
 H809 H 0.45699 0.06188 0.19059
 H810 H 0.54157 0.12495 0.11044
 C811 C 0.64880 0.49025 0.26582
 C812 C 0.64701 0.46265 0.27561
 C813 C 0.66044 0.45847 0.32935
 C814 C 0.67478 0.48150 0.37334
 C815 C 0.67739 0.50932 0.36148
 C816 C 0.66443 0.51384 0.30781
 C817 C 0.63237 0.49395 0.21310
 C818 C 0.63303 0.52107 0.20565
 C819 C 0.61497 0.52355 0.16017
 C820 C 0.59527 0.49883 0.12390
 C821 C 0.59635 0.47234 0.12867
 C822 C 0.61488 0.46978 0.17370
 C823 C 0.66564 0.54107 0.29691
 C824 C 0.65027 0.54467 0.24646
 C825 C 0.63075 0.43951 0.23295
 C826 C 0.61509 0.44309 0.18273
 H827 H 0.67784 0.55948 0.32870
 H828 H 0.65102 0.56576 0.24078
 H829 H 0.62947 0.41821 0.23939
 H830 H 0.60256 0.42462 0.15150
 H831 H 0.65836 0.43699 0.33885
 H832 H 0.68856 0.52703 0.39544
 H833 H 0.61488 0.54430 0.15609
 H834 H 0.58150 0.45328 0.10071
 C835 C 0.84523 0.35374 0.28119
 C836 C 0.81786 0.35269 0.28274
 C837 C 0.79924 0.33963 0.33505
 C838 C 0.80828 0.32829 0.38547
 C839 C 0.83534 0.32881 0.38255
 C840 C 0.85397 0.34153 0.33044
 C841 C 0.86580 0.36926 0.22867
 C842 C 0.89360 0.37137 0.22874
 C843 C 0.91406 0.38832 0.18197
 C844 C 0.90731 0.40393 0.13631
 C845 C 0.87869 0.40023 0.13477
 C846 C 0.85787 0.38298 0.18118
 C847 C 0.88155 0.34317 0.32760
 C848 C 0.90102 0.35777 0.27744
 C849 C 0.81017 0.36556 0.23295
 C850 C 0.82980 0.38033 0.18290
 H851 H 0.88841 0.33365 0.36512
 H852 H 0.92238 0.35915 0.27773
 H853 H 0.78906 0.36473 0.23330
 H854 H 0.82315 0.39020 0.14581
 H855 H 0.77837 0.33925 0.33781
 H856 H 0.84212 0.31998 0.42168
 H857 H 0.93585 0.39069 0.18347
 H858 H 0.87315 0.41201 0.09983
   
