data_POSCAR
  _audit_creation_date              2014-09-24
  _audit_creation_method            'ToBaCCo'
  _symmetry_space_group_name_H-M    'P1'
  _symmetry_Int_Tables_number       1
  _symmetry_cell_setting            triclinic
  loop_
  _symmetry_equiv_pos_as_xyz
 x,y,z
_cell_length_a 42.5621
_cell_length_b 42.5984
_cell_length_c 14.3330
_cell_angle_alpha 90.059000
_cell_angle_beta 89.850200
_cell_angle_gamma 119.845600
loop_
  _atom_site_label
  _atom_site_type_symbol
  _atom_site_fract_x
  _atom_site_fract_y
  _atom_site_fract_z
C1 C 0.18094 0.49927 0.58051
 C2 C 0.16403 0.49667 0.49462
 C3 C 0.17809 0.49281 0.40964
 C4 C 0.20966 0.48963 0.41093
 C5 C 0.22743 0.49231 0.49716
 C6 C 0.21290 0.49671 0.58240
 C7 C 0.23176 0.50030 0.66597
 C8 C 0.26381 0.49890 0.66634
 C9 C 0.27847 0.49416 0.58309
 C10 C 0.26019 0.49110 0.49772
 C11 C 0.22319 0.48252 0.32889
 C12 C 0.25548 0.48196 0.32933
 C13 C 0.27479 0.48713 0.41247
 C14 C 0.30827 0.48808 0.41247
 C15 C 0.32641 0.49180 0.49607
 C16 C 0.31163 0.49365 0.58190
 H17 H 0.22219 0.50475 0.73192
 H18 H 0.27738 0.50212 0.73238
 H19 H 0.20920 0.47787 0.26303
 H20 H 0.26525 0.47753 0.26358
 H21 H 0.13954 0.49865 0.49381
 H22 H 0.35183 0.49162 0.49437
 C23 C 0.49015 -0.32395 0.41909
 C24 C 0.48970 -0.34034 0.50343
 C25 C 0.49094 -0.32420 0.58937
 C26 C 0.49332 -0.28978 0.59128
 C27 C 0.49389 -0.27262 0.50580
 C28 C 0.49186 -0.28998 0.41939
 C29 C 0.49267 -0.27253 0.33569
 C30 C 0.49725 -0.23783 0.33629
 C31 C 0.50065 -0.21958 0.42070
 C32 C 0.49833 -0.23728 0.50647
 C33 C 0.49728 -0.27118 0.67556
 C34 C 0.50143 -0.23663 0.67624
 C35 C 0.50222 -0.21904 0.59262
 C36 C 0.50933 -0.18277 0.59200
 C37 C 0.51191 -0.16579 0.50655
 C38 C 0.50767 -0.18354 0.42166
 H39 H 0.49064 -0.28528 0.26888
 H40 H 0.49880 -0.22517 0.26972
 H41 H 0.49794 -0.28292 0.74192
 H42 H 0.50503 -0.22342 0.74305
 H43 H 0.48873 -0.36631 0.50204
 H44 H 0.51759 -0.13795 0.50594
 C45 C 1.18422 0.69816 0.59950
 C46 C 1.16638 0.68300 0.51518
 C47 C 1.18319 0.69572 0.42867
 C48 C 1.21841 0.72594 0.42449
 C49 C 1.23646 0.74296 0.50845
 C50 C 1.21942 0.72910 0.59625
 C51 C 1.23768 0.74701 0.67806
 C52 C 1.27278 0.77612 0.67453
 C53 C 1.29025 0.79021 0.58871
 C54 C 1.27190 0.77359 0.50464
 C55 C 1.23628 0.73902 0.33876
 C56 C 1.27105 0.76891 0.33506
 C57 C 1.28908 0.78716 0.41688
 C58 C 1.32452 0.81770 0.41387
 C59 C 1.34270 0.83225 0.49791
 C60 C 1.32604 0.81987 0.58465
 H61 H 1.22519 0.73829 0.74599
 H62 H 1.28608 0.78763 0.74014
 H63 H 1.22347 0.72622 0.27362
 H64 H 1.28379 0.77762 0.26733
 H65 H 1.13967 0.65904 0.51673
 H66 H 1.36978 0.85571 0.49583
 C67 C 0.68959 0.52015 0.58693
 C68 C 0.67505 0.52224 0.50071
 C69 C 0.69279 0.52534 0.41643
 C70 C 0.72736 0.52863 0.41713
 C71 C 0.74287 0.52672 0.50318
 C72 C 0.72444 0.52340 0.58881
 C73 C 0.74046 0.52123 0.67258
 C74 C 0.77360 0.52209 0.67249
 C75 C 0.79110 0.52302 0.58838
 C76 C 0.77585 0.52594 0.50287
 C77 C 0.74644 0.53302 0.33375
 C78 C 0.77936 0.53358 0.33392
 C79 C 0.79334 0.52780 0.41675
 C80 C 0.82440 0.52386 0.41615
 C81 C 0.83903 0.52114 0.50093
 C82 C 0.82368 0.52154 0.58682
 H83 H 0.72739 0.51840 0.73925
 H84 H 0.78487 0.52082 0.73906
 H85 H 0.73593 0.53593 0.26759
 H86 H 0.79324 0.53751 0.26794
 H87 H 0.64816 0.51918 0.49857
 H88 H 0.86323 0.51867 0.50003
 C89 C 0.48620 0.17143 0.58367
 C90 C 0.48266 0.15392 0.49857
 C91 C 0.48103 0.16923 0.41404
 C92 C 0.48110 0.20242 0.41421
 C93 C 0.48398 0.22030 0.50023
 C94 C 0.48619 0.20457 0.58547
 C95 C 0.48891 0.22261 0.66970
 C96 C 0.48946 0.25557 0.67046
 C97 C 0.48887 0.27251 0.58675
 C98 C 0.48580 0.25451 0.50069
 C99 C 0.47855 0.21821 0.33084
 C100 C 0.47904 0.25108 0.33155
 C101 C 0.48406 0.27036 0.41508
 C102 C 0.48699 0.30491 0.41552
 C103 C 0.48948 0.32199 0.50089
 C104 C 0.49016 0.30644 0.58643
 H105 H 0.49035 0.21122 0.73594
 H106 H 0.49082 0.26791 0.73745
 H107 H 0.47582 0.20510 0.26425
 H108 H 0.47594 0.26148 0.26549
 H109 H 0.48341 0.12882 0.49772
 H110 H 0.49092 0.34817 0.50072
 C111 C 0.69633 0.18454 0.60075
 C112 C 0.67797 0.16789 0.51843
 C113 C 0.69146 0.18312 0.43090
 C114 C 0.72404 0.21660 0.42467
 C115 C 0.74219 0.23466 0.50761
 C116 C 0.72914 0.21794 0.59570
 C117 C 0.74965 0.23463 0.67578
 C118 C 0.78077 0.26853 0.67046
 C119 C 0.79175 0.28765 0.58552
 C120 C 0.77361 0.26939 0.50234
 C121 C 0.73908 0.23225 0.33782
 C122 C 0.77041 0.26589 0.33246
 C123 C 0.78745 0.28526 0.41370
 C124 C 0.81824 0.32003 0.40897
 C125 C 0.83355 0.33894 0.49087
 C126 C 0.82163 0.32355 0.57961
 H127 H 0.74168 0.22164 0.74335
 H128 H 0.79592 0.27970 0.73398
 H129 H 0.72664 0.21867 0.27314
 H130 H 0.78083 0.27693 0.26399
 H131 H 0.65273 0.14233 0.52251
 H132 H 0.85625 0.36634 0.48489
 O133 O 0.95000 0.42776 0.16285
 O134 O 0.91104 0.43786 0.07613
 C135 C 0.91742 0.42008 0.13939
 O136 O 1.05377 0.58812 0.17645
 O137 O 1.09422 0.57895 0.09095
 C138 C 1.08639 0.59535 0.15579
 O139 O 0.95380 0.54015 0.17089
 O140 O 0.91259 0.49276 0.08282
 C141 C 0.92086 0.51769 0.14599
 O142 O 1.05057 0.47102 0.15082
 O143 O 1.09273 0.52259 0.07728
 C144 C 1.08386 0.49501 0.13206
 Zr145 Zr 1.00142 0.46758 0.11189
 O146 O 1.00471 0.46569 0.25894
 O147 O 0.99767 0.41644 0.09669
 Zr148 Zr 1.00348 0.54738 0.12347
 O149 O 1.00490 0.54407 0.27074
 O150 O 1.00200 0.59627 0.13214
 O151 O 0.96969 0.49158 0.13518
 O152 O 1.03398 0.52218 0.13633
 O153 O 1.05430 0.48046 -0.17059
 O154 O 1.09447 0.52899 -0.08245
 C155 C 1.08691 0.50522 -0.14808
 O156 O 0.95422 0.54204 -0.16615
 O157 O 0.91325 0.49367 -0.08114
 C158 C 0.92105 0.51776 -0.14522
 O159 O 1.05555 0.59611 -0.14602
 O160 O 1.09511 0.58411 -0.06776
 C161 C 1.08822 0.60392 -0.12369
 O162 O 0.95384 0.43203 -0.17339
 O163 O 0.91262 0.43983 -0.08856
 C164 C 0.92085 0.42330 -0.15236
 Zr165 Zr 1.00372 0.47230 -0.12120
 O166 O 1.00733 0.47697 -0.26848
 O167 O 1.00112 0.42139 -0.12669
 Zr168 Zr 1.00455 0.55162 -0.11078
 O169 O 1.01056 0.55654 -0.25764
 O170 O 1.00036 0.59908 -0.10708
 Zr171 Zr 0.94860 0.48344 -0.00124
 Zr172 Zr 1.05790 0.53621 0.00319
 O173 O 1.03570 0.52772 -0.13173
 O174 O 0.97172 0.49641 -0.13600
 O175 O 1.03514 0.47965 -0.00411
 O176 O 0.97254 0.54016 0.00564
 O177 O 0.97060 0.44882 -0.00651
 O178 O 1.03663 0.57155 0.00856
 H179 H 1.04959 0.52818 0.19215
 H180 H 0.95700 0.55139 0.00542
 H181 H 1.05166 0.53686 -0.18687
 H182 H 0.95417 0.42226 -0.00815
 H183 H 1.02294 0.61494 0.09663
 H184 H 1.01794 0.61549 -0.06041
 H185 H 0.99101 0.53396 -0.28516
 H186 H 0.98575 0.47770 -0.29103
 H187 H 1.01833 0.42174 -0.07984
 H188 H 0.99658 0.40715 0.16070
 H189 H 0.98694 0.47181 0.28536
 H190 H 0.98174 0.52310 0.29135
 O191 O 0.40999 0.45891 0.16061
 O192 O 0.41830 0.50823 0.07669
 C193 C 0.40069 0.48252 0.13677
 O194 O 0.57455 0.52589 0.16977
 O195 O 0.56840 0.47786 0.08267
 C196 C 0.58451 0.50275 0.14630
 O197 O 0.51958 0.57125 0.17582
 O198 O 0.47112 0.56212 0.08618
 C199 C 0.49478 0.57883 0.15147
 O200 O 0.45880 0.40728 0.15070
 O201 O 0.51227 0.42040 0.08082
 C202 C 0.48470 0.40037 0.13451
 Zr203 Zr 0.45355 0.45218 0.11528
 O204 O 0.45814 0.45323 0.26261
 O205 O 0.40433 0.40275 0.12679
 Zr206 Zr 0.53120 0.53192 0.12175
 O207 O 0.53227 0.53020 0.26924
 O208 O 0.57937 0.58261 0.11472
 O209 O 0.47505 0.50742 0.13690
 O210 O 0.50875 0.47648 0.13613
 O211 O 0.46563 0.41231 -0.16510
 O212 O 0.51414 0.42152 -0.07728
 C213 C 0.49002 0.40398 -0.14066
 O214 O 0.52269 0.57422 -0.16286
 O215 O 0.47286 0.56372 -0.07868
 C216 C 0.49739 0.58160 -0.14085
 O217 O 0.57715 0.52750 -0.16028
 O218 O 0.56754 0.47650 -0.08095
 C219 C 0.58482 0.50226 -0.14174
 O220 O 0.41539 0.46455 -0.17394
 O221 O 0.42197 0.51217 -0.08397
 C222 C 0.40675 0.48881 -0.15046
 Zr223 Zr 0.45580 0.45408 -0.11958
 O224 O 0.45900 0.45316 -0.26691
 O225 O 0.40507 0.40569 -0.12329
 Zr226 Zr 0.53389 0.53421 -0.11189
 O227 O 0.53841 0.53564 -0.25913
 O228 O 0.58123 0.58561 -0.10154
 Zr229 Zr 0.46513 0.51893 0.00070
 Zr230 Zr 0.52197 0.46669 0.00185
 O231 O 0.51119 0.47920 -0.13232
 O232 O 0.47829 0.50984 -0.13486
 O233 O 0.46542 0.43131 -0.00249
 O234 O 0.52147 0.55407 0.00520
 O235 O 0.43239 0.46222 -0.00322
 O236 O 0.55558 0.52336 0.00561
 H237 H 0.51667 0.46790 0.19063
 H238 H 0.53109 0.58056 0.00666
 H239 H 0.51931 0.47205 -0.18882
 H240 H 0.40572 0.45116 -0.00644
 H241 H 0.58640 0.59059 0.18009
 H242 H 0.59866 0.58280 -0.06178
 H243 H 0.51470 0.53024 -0.28482
 H244 H 0.46201 0.47632 -0.29044
 H245 H 0.40751 0.38717 -0.08744
 H246 H 0.39504 0.39546 0.06273
 H247 H 0.45101 0.47053 0.28706
 H248 H 0.50773 0.52344 0.29183
 O249 O 0.43251 -0.05230 -0.17399
 O250 O 0.44107 -0.09193 -0.08333
 C251 C 0.42479 -0.08463 -0.14916
 O252 O 0.59492 0.05357 -0.14508
 O253 O 0.58128 0.09199 -0.06707
 C254 C 0.60175 0.08592 -0.12275
 O255 O 0.54416 -0.04751 -0.16084
 O256 O 0.49562 -0.08935 -0.07637
 C257 C 0.52089 -0.08069 -0.13849
 O258 O 0.47786 0.04854 -0.16885
 O259 O 0.52577 0.08991 -0.08075
 C260 C 0.50161 0.08141 -0.14580
 Zr261 Zr 0.47111 -0.00133 -0.12037
 O262 O 0.47506 0.00211 -0.26774
 O263 O 0.42001 -0.00437 -0.12084
 Zr264 Zr 0.55193 0.00210 -0.10629
 O265 O 0.55841 0.00715 -0.25294
 O266 O 0.60086 0.00080 -0.09467
 O267 O 0.49690 -0.03187 -0.13299
 O268 O 0.52656 0.03182 -0.12996
 O269 O 0.46866 0.04633 0.15489
 O270 O 0.52069 0.08857 0.08128
 C271 C 0.49308 0.07941 0.13626
 O272 O 0.53841 -0.04920 0.17810
 O273 O 0.49272 -0.09026 0.08441
 C274 C 0.51628 -0.08209 0.15068
 O275 O 0.58707 0.05228 0.17570
 O276 O 0.57722 0.09137 0.08846
 C277 C 0.59450 0.08482 0.15276
 O278 O 0.42537 -0.05364 0.16259
 O279 O 0.43852 -0.09217 0.08106
 C280 C 0.41964 -0.08567 0.14141
 Zr281 Zr 0.46577 -0.00252 0.11362
 O282 O 0.46536 0.00046 0.26110
 O283 O 0.41360 -0.00808 0.10648
 Zr284 Zr 0.54618 0.00101 0.12837
 O285 O 0.53762 0.00040 0.27377
 O286 O 0.59666 0.00403 0.15088
 Zr287 Zr 0.48373 -0.05448 0.00198
 Zr288 Zr 0.53397 0.05411 0.00465
 O289 O 0.52035 0.03097 0.13872
 O290 O 0.49055 -0.03343 0.13830
 O291 O 0.47726 0.03036 -0.00387
 O292 O 0.54051 -0.02967 0.01089
 O293 O 0.44799 -0.03385 -0.00503
 O294 O 0.57032 0.03408 0.01294
 H295 H 0.53551 0.04790 -0.18507
 H296 H 0.55202 -0.04496 0.01219
 H297 H 0.52660 0.04705 0.19383
 H298 H 0.42156 -0.05075 -0.00746
 H299 H 0.61761 0.02145 -0.05515
 H300 H 0.60379 -0.00228 0.09126
 H301 H 0.55938 0.00204 0.30345
 H302 H 0.46972 -0.01870 0.28601
 H303 H 0.41353 0.00603 0.05182
 H304 H 0.41348 -0.00464 -0.18728
 H305 H 0.47879 -0.01780 -0.28993
 H306 H 0.53522 -0.01108 -0.28097
 C307 C 1.09947 0.46454 0.25539
 C308 C 1.12202 0.46471 0.32493
 C309 C 1.15874 0.49097 0.32741
 C310 C 1.17341 0.51609 0.25197
 C311 C 1.15033 0.51496 0.17808
 C312 C 1.11222 0.49094 0.18453
 C313 C 1.16639 0.53876 0.10237
 N314 N 1.20207 0.56394 0.10451
 N315 N 1.22288 0.56697 0.17695
 C316 C 1.20976 0.54421 0.25090
 H317 H 1.07104 0.44452 0.26165
 H318 H 1.11019 0.44467 0.37999
 H319 H 1.15147 0.53722 0.04030
 H320 H 1.22788 0.54853 0.30826
 C321 C 0.46114 0.59948 0.25038
 C322 C 0.45973 0.62354 0.31369
 C323 C 0.49070 0.65672 0.33337
 C324 C 0.52317 0.66673 0.28360
 C325 C 0.52426 0.64250 0.21731
 C326 C 0.49326 0.60801 0.20356
 C327 C 0.55671 0.65344 0.16810
 N328 N 0.58627 0.68598 0.18648
 N329 N 0.58557 0.70823 0.25072
 C330 C 0.55514 0.69967 0.30020
 H331 H 0.43779 0.57290 0.24355
 H332 H 0.43497 0.61508 0.35281
 H333 H 0.55875 0.63660 0.11472
 H334 H 0.55623 0.71877 0.35157
 C335 C 0.40162 -0.13547 0.25217
 C336 C 0.37816 -0.15951 0.31835
 C337 C 0.34309 -0.16473 0.33095
 C338 C 0.33117 -0.14617 0.27044
 C339 C 0.35507 -0.12249 0.20067
 C340 C 0.39091 -0.11629 0.19415
 C341 C 0.34275 -0.10460 0.14158
 N342 N 0.30925 -0.10891 0.15405
 N343 N 0.28746 -0.12963 0.22208
 C344 C 0.29737 -0.14800 0.28121
 H345 H 0.42939 -0.12950 0.25189
 H346 H 0.38831 -0.17263 0.36435
 H347 H 0.35948 -0.08721 0.08573
 H348 H 0.27877 -0.16350 0.33630
 C349 C 0.90485 0.54952 0.26503
 C350 C 0.88149 0.55129 0.32902
 C351 C 0.84488 0.52495 0.33068
 C352 C 0.83075 0.49934 0.25684
 C353 C 0.85438 0.50003 0.18525
 C354 C 0.89245 0.52225 0.19637
 C355 C 0.83869 0.47938 0.10473
 N356 N 0.80229 0.45731 0.10007
 N357 N 0.78070 0.45363 0.17164
 C358 C 0.79384 0.47323 0.25090
 H359 H 0.93332 0.56913 0.27298
 H360 H 0.89271 0.57197 0.38262
 H361 H 0.85458 0.48160 0.04407
 H362 H 0.77511 0.46908 0.30684
 C363 C 0.45552 0.35357 0.25737
 C364 C 0.45643 0.33111 0.32581
 C365 C 0.48476 0.32356 0.32985
 C366 C 0.51072 0.33595 0.25659
 C367 C 0.50826 0.35691 0.18245
 C368 C 0.48256 0.36901 0.18802
 C369 C 0.53156 0.36463 0.10573
 N370 N 0.55744 0.35490 0.10684
 N371 N 0.56159 0.33792 0.17961
 C372 C 0.53938 0.32845 0.25493
 H373 H 0.43418 0.36031 0.26273
 H374 H 0.43578 0.32116 0.37972
 H375 H 0.52879 0.37722 0.04391
 H376 H 0.54411 0.31484 0.31211
 C377 C 0.64665 0.10693 0.25975
 C378 C 0.66945 0.12998 0.32820
 C379 C 0.67052 0.16254 0.34786
 C380 C 0.65001 0.17338 0.29284
 C381 C 0.62748 0.15049 0.21990
 C382 C 0.62382 0.11538 0.20760
 C383 C 0.60936 0.16389 0.16451
 N384 N 0.61224 0.19638 0.18381
 N385 N 0.63204 0.21678 0.25455
 C386 C 0.65084 0.20631 0.30997
 H387 H 0.64590 0.08133 0.25052
 H388 H 0.68540 0.12161 0.36907
 H389 H 0.59277 0.14955 0.10614
 H390 H 0.66645 0.22399 0.36648
 C391 C 0.47120 0.11435 -0.20259
 C392 C 0.46736 0.13657 -0.26778
 C393 C 0.49458 0.15590 -0.33380
 C394 C 0.52694 0.15421 -0.33127
 C395 C 0.53024 0.13061 -0.26775
 C396 C 0.50208 0.11053 -0.20272
 C397 C 0.56069 0.12620 -0.27595
 N398 N 0.58665 0.14533 -0.34039
 N399 N 0.58437 0.16880 -0.39711
 C400 C 0.55551 0.17406 -0.39444
 H401 H 0.44909 0.09855 -0.15485
 H402 H 0.44221 0.13714 -0.27010
 H403 H 0.56397 0.10751 -0.23259
 H404 H 0.55492 0.19335 -0.44242
 C405 C 0.64893 0.53042 -0.19384
 C406 C 0.67513 0.53496 -0.26003
 C407 C 0.66643 0.51045 -0.33435
 C408 C 0.63120 0.47959 -0.33755
 C409 C 0.60418 0.47631 -0.27432
 C410 C 0.61318 0.50173 -0.20089
 C411 C 0.56853 0.44855 -0.29033
 N412 N 0.56109 0.42418 -0.35967
 N413 N 0.58707 0.42549 -0.41402
 C414 C 0.62193 0.45206 -0.40442
 H415 H 0.65606 0.55067 -0.13987
 H416 H 0.70156 0.55911 -0.25678
 H417 H 0.54657 0.44562 -0.24793
 H418 H 0.64213 0.45171 -0.44946
 C419 C 0.90435 0.38300 -0.28882
 C420 C 0.88054 0.35866 -0.35260
 C421 C 0.84301 0.34404 -0.34361
 C422 C 0.82956 0.35256 -0.26184
 C423 C 0.85423 0.37498 -0.19138
 C424 C 0.89222 0.39302 -0.20899
 C425 C 0.83971 0.37773 -0.10576
 N426 N 0.80337 0.36276 -0.09527
 N427 N 0.78062 0.34561 -0.16510
 C428 C 0.79254 0.34069 -0.24864
 H429 H 0.93289 0.39460 -0.30462
 H430 H 0.89194 0.35197 -0.41205
 H431 H 0.85662 0.39060 -0.04632
 H432 H 0.77289 0.32692 -0.30310
 C433 C 0.48988 -0.14378 -0.20049
 C434 C 0.48679 -0.16908 -0.26722
 C435 C 0.51585 -0.16175 -0.32667
 C436 C 0.54990 -0.13037 -0.31048
 C437 C 0.55337 -0.10534 -0.24022
 C438 C 0.52211 -0.11045 -0.19090
 C439 C 0.58832 -0.07650 -0.22072
 N440 N 0.61715 -0.07202 -0.27170
 N441 N 0.61360 -0.09474 -0.33998
 C442 C 0.58107 -0.12382 -0.36078
 H443 H 0.46606 -0.14944 -0.16029
 H444 H 0.46066 -0.19316 -0.27741
 H445 H 0.59341 -0.05836 -0.16307
 H446 H 0.58001 -0.14210 -0.41467
 C447 C 0.38972 0.52168 -0.26139
 C448 C 0.36632 0.52309 -0.32669
 C449 C 0.33077 0.49415 -0.33733
 C450 C 0.31850 0.46345 -0.27796
 C451 C 0.34267 0.46200 -0.21205
 C452 C 0.37877 0.49093 -0.20613
 C453 C 0.33005 0.43120 -0.15507
 N454 N 0.29574 0.40334 -0.16511
 N455 N 0.27335 0.40416 -0.22852
 C456 C 0.28358 0.43304 -0.28561
 H457 H 0.41734 0.54394 -0.25796
 H458 H 0.37652 0.54653 -0.37203
 H459 H 0.34710 0.42907 -0.10257
 H460 H 0.26430 0.43181 -0.33640
 C461 C 1.10825 0.65515 -0.23380
 C462 C 1.13107 0.67694 -0.30412
 C463 C 1.16562 0.68125 -0.31679
 C464 C 1.17829 0.66510 -0.25061
 C465 C 1.15537 0.64411 -0.17527
 C466 C 1.11852 0.63602 -0.17273
 C467 C 1.17007 0.63096 -0.10808
 N468 N 1.20356 0.63525 -0.12051
 N469 N 1.22352 0.65189 -0.19524
 C470 C 1.21196 0.66663 -0.26092
 H471 H 1.08118 0.65147 -0.23191
 H472 H 1.12090 0.68945 -0.35210
 H473 H 1.15611 0.61829 -0.04432
 H474 H 1.22916 0.67913 -0.32079
 C475 C 0.90102 0.54896 -0.25526
 C476 C 0.87764 0.55030 -0.32023
 C477 C 0.84261 0.52113 -0.33280
 C478 C 0.83054 0.49016 -0.27519
 C479 C 0.85433 0.48863 -0.20719
 C480 C 0.89103 0.51807 -0.20022
 C481 C 0.84019 0.45707 -0.15176
 N482 N 0.80590 0.42961 -0.16476
 N483 N 0.78454 0.43068 -0.23051
 C484 C 0.79583 0.45974 -0.28686
 H485 H 0.92800 0.57226 -0.25112
 H486 H 0.88754 0.57416 -0.36395
 H487 H 0.85500 0.45315 -0.09732
 H488 H 0.77740 0.45874 -0.33999
 C489 C 0.45968 0.35219 -0.24886
 C490 C 0.45964 0.32903 -0.31694
 C491 C 0.48981 0.32485 -0.33173
 C492 C 0.52028 0.34335 -0.27223
 C493 C 0.52062 0.36739 -0.20175
 C494 C 0.49037 0.37349 -0.19361
 C495 C 0.55227 0.38562 -0.14692
 N496 N 0.58091 0.38063 -0.16240
 N497 N 0.58065 0.35893 -0.22941
 C498 C 0.55155 0.34044 -0.28524
 H499 H 0.43567 0.35476 -0.24336
 H500 H 0.43596 0.31499 -0.36109
 H501 H 0.55561 0.40428 -0.09269
 H502 H 0.55327 0.32378 -0.33963
 C503 C 0.65453 0.10782 -0.22939
 C504 C 0.67712 0.13147 -0.29757
 C505 C 0.67982 0.16520 -0.31041
 C506 C 0.66263 0.17700 -0.24584
 C507 C 0.64071 0.15344 -0.17288
 C508 C 0.63364 0.11689 -0.17070
 C509 C 0.62612 0.16742 -0.10744
 N510 N 0.63094 0.20115 -0.11825
 N511 N 0.64953 0.22215 -0.18973
 C512 C 0.66542 0.21120 -0.25400
 H513 H 0.65166 0.08110 -0.22749
 H514 H 0.69064 0.12228 -0.34535
 H515 H 0.61196 0.15277 -0.04617
 H516 H 0.68019 0.22944 -0.31050
 C517 C 1.12552 0.48042 -0.20513
 C518 C 1.14958 0.47937 -0.27026
 C519 C 1.16558 0.50607 -0.33976
 C520 C 1.15929 0.53580 -0.33820
 C521 C 1.13429 0.53638 -0.27391
 C522 C 1.11692 0.50820 -0.20729
 C523 C 1.12628 0.56449 -0.28183
 N524 N 1.14322 0.59084 -0.34658
 N525 N 1.16822 0.59140 -0.40337
 C526 C 1.17713 0.56503 -0.40076
 H527 H 1.11218 0.45846 -0.15551
 H528 H 1.15351 0.45612 -0.27071
 H529 H 1.10691 0.56596 -0.23721
 H530 H 1.19786 0.56695 -0.44808
 C531 C 0.52494 0.63031 -0.25804
 C532 C 0.52330 0.65279 -0.32491
 C533 C 0.49347 0.65806 -0.33063
 C534 C 0.46557 0.64187 -0.26271
 C535 C 0.46780 0.61979 -0.19112
 C536 C 0.49669 0.61164 -0.19356
 C537 C 0.44057 0.60662 -0.12170
 N538 N 0.41215 0.61250 -0.12846
 N539 N 0.40896 0.63092 -0.19910
 C540 C 0.43459 0.64569 -0.26649
 H541 H 0.54815 0.62632 -0.26051
 H542 H 0.54512 0.66522 -0.37552
 H543 H 0.44159 0.59283 -0.06014
 H544 H 0.43055 0.66043 -0.32209
 C545 C 0.40392 -0.13632 -0.25544
 C546 C 0.37981 -0.15928 -0.32215
 C547 C 0.34616 -0.16131 -0.33617
 C548 C 0.33642 -0.14015 -0.27897
 C549 C 0.36082 -0.11743 -0.20948
 C550 C 0.39529 -0.11459 -0.20064
 C551 C 0.35038 -0.09721 -0.15269
 N552 N 0.31836 -0.09845 -0.16764
 N553 N 0.29621 -0.11834 -0.23588
 C554 C 0.30427 -0.13887 -0.29257
 H555 H 0.43052 -0.13359 -0.25143
 H556 H 0.38810 -0.17464 -0.36604
 H557 H 0.36735 -0.08048 -0.09656
 H558 H 0.28553 -0.15375 -0.34789
 C559 C 0.48501 -0.14457 0.21464
 C560 C 0.48244 -0.16893 0.28319
 C561 C 0.51282 -0.16214 0.33583
 C562 C 0.54705 -0.13246 0.31229
 C563 C 0.54956 -0.10758 0.24319
 C564 C 0.51754 -0.11202 0.20043
 C565 C 0.58423 -0.07953 0.21807
 N566 N 0.61396 -0.07587 0.26256
 N567 N 0.61142 -0.09860 0.32973
 C568 C 0.57900 -0.12682 0.35597
 H569 H 0.46085 -0.15016 0.17672
 H570 H 0.45623 -0.19219 0.29866
 H571 H 0.58814 -0.06136 0.16126
 H572 H 0.57856 -0.14501 0.40919
 C573 C 0.36901 0.51294 0.20313
 C574 C 0.34774 0.51475 0.27456
 C575 C 0.32496 0.48387 0.32659
 C576 C 0.32022 0.44992 0.29955
 C577 C 0.34156 0.44808 0.22634
 C578 C 0.36889 0.48055 0.18487
 C579 C 0.33444 0.41370 0.19658
 N580 N 0.30912 0.38356 0.24121
 N581 N 0.29021 0.38548 0.31300
 C582 C 0.29488 0.41763 0.34375
 H583 H 0.38741 0.53749 0.16641
 H584 H 0.35046 0.54070 0.29262
 H585 H 0.34778 0.41045 0.13626
 H586 H 0.27836 0.41764 0.40124
 C587 C 1.11959 0.65703 0.22422
 C588 C 1.14339 0.68180 0.28956
 C589 C 1.16457 0.67290 0.34630
 C590 C 1.16279 0.63913 0.33472
 C591 C 1.13751 0.61339 0.27169
 C592 C 1.11593 0.62254 0.21506
 C593 C 1.13308 0.57849 0.27244
 N594 N 1.15406 0.57077 0.32799
 N595 N 1.17931 0.59561 0.38300
 C596 C 1.18442 0.62956 0.38829
 H597 H 1.10279 0.66425 0.18316
 H598 H 1.14415 0.70740 0.29883
 H599 H 1.11273 0.55710 0.23108
 H600 H 1.20497 0.64858 0.43523
 C601 C 0.52016 0.13115 0.24355
 C602 C 0.51716 0.15290 0.31128
 C603 C 0.48403 0.15151 0.32782
 C604 C 0.45397 0.12945 0.27045
 C605 C 0.45739 0.10802 0.19952
 C606 C 0.49049 0.10795 0.18857
 C607 C 0.42720 0.08678 0.14294
 N608 N 0.39556 0.08642 0.15831
 N609 N 0.39211 0.10581 0.22642
 C610 C 0.42017 0.12719 0.28326
 H611 H 0.54492 0.13006 0.23982
 H612 H 0.54026 0.16915 0.35567
 H613 H 0.42862 0.07082 0.08608
 H614 H 0.41589 0.14236 0.33743
 C615 C 0.64479 0.54095 0.21741
 C616 C 0.67144 0.54704 0.28299
 C617 C 0.67088 0.51809 0.33014
 C618 C 0.64432 0.48230 0.30661
 C619 C 0.61612 0.47605 0.24341
 C620 C 0.61610 0.50582 0.19882
 C621 C 0.58785 0.44028 0.23235
 N622 N 0.58894 0.41282 0.27706
 N623 N 0.61628 0.41856 0.33256
 C624 C 0.64406 0.45236 0.34869
 H625 H 0.64534 0.56419 0.18504
 H626 H 0.69143 0.57459 0.30079
 H627 H 0.56466 0.43373 0.18992
 H628 H 0.66561 0.45559 0.39453
 C629 C 0.89544 0.36663 0.24265
 C630 C 0.87145 0.34178 0.30663
 C631 C 0.83735 0.33804 0.32125
 C632 C 0.82584 0.35722 0.26371
 C633 C 0.85005 0.38249 0.19652
 C634 C 0.88656 0.38914 0.19043
 C635 C 0.83634 0.40005 0.14033
 N636 N 0.80165 0.39265 0.15068
 N637 N 0.77968 0.36985 0.21512
 C638 C 0.79078 0.35230 0.27294
 H639 H 0.92210 0.36939 0.23790
 H640 H 0.88056 0.32704 0.34999
 H641 H 0.85181 0.41906 0.08688
 H642 H 0.77182 0.33411 0.32425
   
