data_POSCAR
  _audit_creation_date              2014-09-24
  _audit_creation_method            'ToBaCCo'
  _symmetry_space_group_name_H-M    'P1'
  _symmetry_Int_Tables_number       1
  _symmetry_cell_setting            triclinic
  loop_
  _symmetry_equiv_pos_as_xyz
 x,y,z
_cell_length_a 17.1440
_cell_length_b 17.1931
_cell_length_c 17.0923
_cell_angle_alpha 89.840000
_cell_angle_beta 89.640100
_cell_angle_gamma 89.992000
loop_
  _atom_site_label
  _atom_site_type_symbol
  _atom_site_fract_x
  _atom_site_fract_y
  _atom_site_fract_z
C1 C 0.15397 0.15589 0.25350
 C2 C 0.22004 0.12109 0.21932
 C3 C 0.25587 0.15497 0.15335
 C4 C 0.22412 0.22260 0.12046
 C5 C 0.15690 0.25600 0.15300
 C6 C 0.12251 0.22327 0.21996
 H7 H 0.24359 0.06800 0.24409
 H8 H 0.25039 0.24813 0.06862
 H9 H 0.07042 0.24931 0.24479
 C10 C -0.15345 0.84332 0.26095
 C11 C -0.12205 0.77585 0.22735
 C12 C -0.15608 0.74373 0.16053
 C13 C -0.22262 0.77817 0.12823
 C14 C -0.25501 0.84489 0.16230
 C15 C -0.22002 0.87776 0.22827
 H16 H -0.07029 0.74946 0.25184
 H17 H -0.24816 0.75406 0.07575
 H18 H -0.24403 0.93040 0.25346
 C19 C -0.15723 0.15391 -0.25719
 C20 C -0.22385 0.11999 -0.22355
 C21 C -0.25713 0.15167 -0.15562
 C22 C -0.22457 0.21865 -0.12218
 C23 C -0.15881 0.25377 -0.15629
 C24 C -0.12468 0.22073 -0.22328
 H25 H -0.24875 0.06814 -0.24920
 H26 H -0.24971 0.24291 -0.06928
 H27 H -0.07233 0.24637 -0.24821
 C28 C 0.16047 0.84882 -0.25439
 C29 C 0.12524 0.78213 -0.22310
 C30 C 0.15662 0.74597 -0.15704
 C31 C 0.22405 0.77622 -0.12234
 C32 C 0.25971 0.84306 -0.15343
 C33 C 0.22748 0.87945 -0.21946
 H34 H 0.07271 0.75919 -0.24932
 H35 H 0.24752 0.74881 -0.07040
 H36 H 0.25378 0.93188 -0.24300
 C37 C 0.15974 1.15756 0.74318
 C38 C 0.12634 1.22434 0.77609
 C39 C 0.15874 1.25734 0.84331
 C40 C 0.22443 1.22363 0.87761
 C41 C 0.25733 1.15654 0.84522
 C42 C 0.22526 1.12369 0.77781
 H43 H 0.07429 1.24940 0.75063
 H44 H 0.24882 1.24852 0.93019
 H45 H 0.25023 1.07117 0.75335
 C46 C 0.84790 0.84683 0.74421
 C47 C 0.88009 0.77827 0.77514
 C48 C 0.84603 0.74277 0.84107
 C49 C 0.77983 0.77645 0.87596
 C50 C 0.74734 0.84443 0.84445
 C51 C 0.78137 0.87940 0.77874
 H52 H 0.93217 0.75351 0.74893
 H53 H 0.75437 0.75066 0.92815
 H54 H 0.75645 0.93225 0.75503
 C55 C 0.15252 0.84366 1.25734
 C56 C 0.11797 0.77790 1.22407
 C57 C 0.15093 0.74406 1.15729
 C58 C 0.21866 0.77558 1.12385
 C59 C 0.25331 0.84119 1.15702
 C60 C 0.22029 0.87523 1.22378
 H61 H 0.06523 0.75369 1.24936
 H62 H 0.24341 0.75006 1.07140
 H63 H 0.24643 0.92696 1.24849
 C64 C 0.84610 1.15569 1.25746
 C65 C 0.87753 1.22252 1.22225
 C66 C 0.84204 1.25477 1.15600
 C67 C 0.77502 1.22051 1.12521
 C68 C 0.74364 1.15369 1.16010
 C69 C 0.77909 1.12126 1.22613
 H70 H 0.93004 1.24864 1.24539
 H71 H 0.74842 1.24470 1.07320
 H72 H 0.75524 1.06885 1.25223
 O73 O 0.39218 0.85601 0.86516
 O74 O 0.30602 0.93085 0.93564
 C75 C 0.32207 0.87738 0.88473
 O76 O 0.60884 0.86295 1.14584
 O77 O 0.69479 0.93422 1.07093
 C78 C 0.67883 0.88347 1.12479
 O79 O 0.38934 0.85730 1.13948
 O80 O 0.30454 0.93125 1.06681
 C81 C 0.31980 0.87824 1.11844
 O82 O 0.61134 0.86110 0.86159
 O83 O 0.69596 0.93322 0.93579
 C84 C 0.68086 0.88185 0.88274
 Zr85 Zr 0.50131 0.89940 0.90387
 O86 O 0.50908 0.77650 0.90575
 O87 O 0.49504 0.89951 0.78020
 Zr88 Zr 0.49936 0.90025 1.10170
 O89 O 0.50744 0.77736 1.10180
 O90 O 0.49024 0.90109 1.22528
 O91 O 0.43060 0.88461 1.00259
 O92 O 0.56803 0.88587 1.00317
 O93 O 0.61066 1.13429 0.85885
 O94 O 0.69568 1.06435 0.93495
 C95 C 0.68036 1.11478 0.88059
 O96 O 0.38868 1.14055 1.13734
 O97 O 0.30412 1.06459 1.06720
 C98 C 0.31902 1.11876 1.11752
 O99 O 0.60802 1.13492 1.14405
 O100 O 0.69442 1.06365 1.06992
 C101 C 0.67802 1.11455 1.12321
 O102 O 0.39230 1.13934 0.86389
 O103 O 0.30583 1.06501 0.93523
 C104 C 0.32237 1.11835 0.88407
 Zr105 Zr 0.50113 1.09627 0.90254
 O106 O 0.50901 1.21918 0.90243
 O107 O 0.49439 1.09513 0.77890
 Zr108 Zr 0.49889 1.09703 1.10043
 O109 O 0.50681 1.21992 1.09942
 O110 O 0.48949 1.09670 1.22400
 Zr111 Zr 0.38421 0.99822 1.00155
 Zr112 Zr 0.61614 0.99854 1.00252
 O113 O 0.56759 1.11097 1.00169
 O114 O 0.43031 1.11187 1.00106
 O115 O 0.57106 0.99787 0.88809
 O116 O 0.43140 0.99859 1.11499
 O117 O 0.43382 0.99775 0.88860
 O118 O 0.56860 0.99884 1.11662
 H119 H 0.60315 0.84010 1.00376
 H120 H 0.39592 0.99874 1.16098
 H121 H 0.60253 1.15687 1.00154
 H122 H 0.39933 0.99761 0.84231
 H123 H 0.53398 0.93262 1.24537
 H124 H 0.53361 1.06589 1.24455
 H125 H 0.46327 1.23988 1.06742
 H126 H 0.46461 1.23930 0.93356
 H127 H 0.53842 1.06344 0.75916
 H128 H 0.53972 0.93019 0.76013
 H129 H 0.46427 0.75672 0.93662
 H130 H 0.46340 0.75720 1.07074
 O131 O 0.13677 0.61050 -0.14266
 O132 O 0.06360 0.69509 -0.06866
 C133 C 0.11615 0.67987 -0.12123
 O134 O -0.14290 0.39028 -0.13894
 O135 O -0.06851 0.30543 -0.06691
 C136 C -0.12167 0.32061 -0.11821
 O137 O -0.13779 0.61010 -0.14465
 O138 O -0.06755 0.69506 -0.06911
 C139 C -0.11780 0.67979 -0.12325
 O140 O 0.14110 0.39250 -0.13901
 O141 O 0.06632 0.30658 -0.06768
 C142 C 0.12012 0.32280 -0.11865
 Zr143 Zr 0.09674 0.50119 -0.10105
 O144 O 0.09412 0.49447 -0.22472
 O145 O 0.21998 0.50873 -0.10279
 Zr146 Zr -0.10056 0.50029 -0.10086
 O147 O -0.10017 0.49290 -0.22446
 O148 O -0.22382 0.50781 -0.09929
 O149 O -0.00203 0.57041 -0.11605
 O150 O -0.00149 0.43328 -0.11520
 O151 O 0.13978 0.39127 0.13473
 O152 O 0.06583 0.30589 0.06331
 C153 C 0.11914 0.32170 0.11426
 O154 O -0.13895 0.60835 0.14190
 O155 O -0.06838 0.69431 0.06640
 C156 C -0.11875 0.67814 0.12088
 O157 O -0.14361 0.39015 0.13627
 O158 O -0.06858 0.30549 0.06416
 C159 C -0.12181 0.32079 0.11597
 O160 O 0.13303 0.60914 0.14056
 O161 O 0.06177 0.69463 0.06605
 C162 C 0.11247 0.67868 0.11959
 Zr163 Zr 0.09574 0.50020 0.09702
 O164 O 0.09408 0.49156 0.22064
 O165 O 0.21895 0.50874 0.09685
 Zr166 Zr -0.10165 0.49953 0.09693
 O167 O -0.10447 0.49132 0.22049
 O168 O -0.22489 0.50701 0.09365
 Zr169 Zr -0.00272 0.61593 -0.00161
 Zr170 Zr -0.00167 0.38467 -0.00199
 O171 O -0.00266 0.43251 0.11122
 O172 O -0.00327 0.56913 0.11252
 O173 O 0.11197 0.43140 -0.00214
 O174 O -0.11549 0.56750 -0.00181
 O175 O 0.11025 0.56796 -0.00177
 O176 O -0.11591 0.43021 -0.00198
 H177 H -0.00114 0.39839 -0.16124
 H178 H -0.16128 0.60268 -0.00163
 H179 H -0.00246 0.39761 0.15744
 H180 H 0.15635 0.60270 -0.00138
 H181 H -0.24372 0.46295 -0.06880
 H182 H -0.24433 0.46039 0.06615
 H183 H -0.06913 0.53177 0.24098
 H184 H 0.06384 0.53622 0.24099
 H185 H 0.23955 0.46534 0.06497
 H186 H 0.24011 0.46700 -0.06848
 H187 H 0.06745 0.54164 -0.24429
 H188 H -0.06667 0.53540 -0.24454
 O189 O 0.86355 0.14201 0.38995
 O190 O 0.93469 0.06732 0.30395
 C191 C 0.88361 0.12070 0.31984
 O192 O 1.14256 0.13951 0.60704
 O193 O 1.06864 0.06835 0.69413
 C194 C 1.12183 0.11928 0.67741
 O195 O 1.13673 0.14323 0.38676
 O196 O 1.06619 0.06723 0.30247
 C197 C 1.11699 0.12102 0.31703
 O198 O 0.85805 0.13753 0.60983
 O199 O 0.93393 0.06798 0.69548
 C200 C 0.87961 0.11809 0.67992
 Zr201 Zr 0.90177 0.09957 0.49988
 O202 O 0.90166 0.22250 0.50693
 O203 O 0.77853 0.09818 0.49302
 Zr204 Zr 1.09894 0.10116 0.49775
 O205 O 1.09623 0.22410 0.50446
 O206 O 1.22215 0.10265 0.48879
 O207 O 0.99999 0.11509 0.42866
 O208 O 1.00050 0.11486 0.56662
 O209 O 0.86234 -0.13684 0.61174
 O210 O 0.93536 -0.06360 0.69641
 C211 C 0.88317 -0.11600 0.68140
 O212 O 1.13805 -0.13934 0.38975
 O213 O 1.06562 -0.06633 0.30384
 C214 C 1.11689 -0.11938 0.31974
 O215 O 1.14492 -0.13207 0.60943
 O216 O 1.06986 -0.06124 0.69539
 C217 C 1.12378 -0.11166 0.67949
 O218 O 0.86511 -0.14212 0.39315
 O219 O 0.93428 -0.06684 0.30589
 C220 C 0.88413 -0.12088 0.32271
 Zr221 Zr 0.90340 -0.09721 0.50160
 O222 O 0.90361 -0.22009 0.50994
 O223 O 0.78005 -0.09544 0.49554
 Zr224 Zr 1.10073 -0.09557 0.49957
 O225 O 1.10176 -0.21840 0.50886
 O226 O 1.22392 -0.09376 0.49011
 Zr227 Zr 1.00073 0.00113 0.38333
 Zr228 Zr 1.00157 0.00257 0.61604
 O229 O 1.00253 -0.11019 0.56841
 O230 O 1.00189 -0.11213 0.43086
 O231 O 0.88749 0.00140 0.57087
 O232 O 1.11378 0.00239 0.43074
 O233 O 0.88809 0.00067 0.43305
 O234 O 1.11532 0.00334 0.56835
 H235 H 1.00024 0.16081 0.60148
 H236 H 1.15967 0.00226 0.39522
 H237 H 1.00344 -0.15601 0.60368
 H238 H 0.84199 0.00021 0.39839
 H239 H 1.24272 0.07046 0.53204
 H240 H 1.24397 -0.06255 0.53416
 H241 H 1.07036 -0.23917 0.46529
 H242 H 0.93733 -0.24007 0.46735
 H243 H 0.76034 -0.06797 0.54245
 H244 H 0.75891 0.06576 0.53679
 H245 H 0.93299 0.24247 0.46243
 H246 H 1.06688 0.24344 0.45872
   
