data_POSCAR
  _audit_creation_date              2014-09-24
  _audit_creation_method            'ToBaCCo'
  _symmetry_space_group_name_H-M    'P1'
  _symmetry_Int_Tables_number       1
  _symmetry_cell_setting            triclinic
  loop_
  _symmetry_equiv_pos_as_xyz
 x,y,z
_cell_length_a 27.6936
_cell_length_b 24.9861
_cell_length_c 22.1090
_cell_angle_alpha 95.212700
_cell_angle_beta 89.779200
_cell_angle_gamma 88.084200
loop_
  _atom_site_label
  _atom_site_type_symbol
  _atom_site_fract_x
  _atom_site_fract_y
  _atom_site_fract_z
N1 N 0.54028 0.56313 0.55763
 N2 N 0.94127 0.42629 0.04448
 N3 N 0.46241 0.09361 -0.04117
 N4 N 0.05577 0.93015 0.43330
 N5 N 0.13285 0.24754 0.09743
 N6 N 0.09383 0.23316 0.12503
 C7 C 0.05875 0.27130 0.12140
 C8 C 0.07678 0.31161 0.08988
 C9 C 0.12397 0.29535 0.07533
 H10 H 0.02233 0.26915 0.13865
 H11 H 0.14925 0.31553 0.04853
 Cu12 Cu 0.09094 0.16409 0.15895
 Cu13 Cu 0.18995 0.19993 0.08660
 Cu14 Cu 0.19769 0.10638 0.19274
 N15 N 0.09493 0.10261 0.20705
 N16 N 0.13688 0.08174 0.22222
 C17 C 0.12959 0.04323 0.25969
 C18 C 0.08042 0.03918 0.26763
 C19 C 0.05936 0.07739 0.23359
 H20 H 0.15795 0.02010 0.27991
 H21 H 0.02124 0.08748 0.23038
 N22 N 0.25211 0.12159 0.13996
 N23 N 0.24939 0.15737 0.09960
 C24 C 0.29070 0.15458 0.06692
 C25 C 0.32029 0.11435 0.08697
 C26 C 0.29481 0.09434 0.13331
 H27 H 0.29742 0.17742 0.02865
 H28 H 0.30543 0.06050 0.15806
 H29 H 0.16634 0.12642 0.11348
 H30 H 0.17614 0.18393 0.17196
 N31 N 0.35641 0.76292 0.59318
 N32 N 0.39943 0.78359 0.60122
 C33 C 0.43353 0.74467 0.58812
 C34 C 0.41089 0.69717 0.57219
 C35 C 0.36194 0.71001 0.57564
 H36 H 0.47187 0.74947 0.59485
 H37 H 0.33264 0.68267 0.56811
 Cu38 Cu 0.40936 0.85616 0.64122
 Cu39 Cu 0.29625 0.80625 0.60784
 Cu40 Cu 0.30889 0.92739 0.68270
 N41 N 0.40944 0.91457 0.70592
 N42 N 0.36950 0.94131 0.72399
 C43 C 0.37952 0.97738 0.77083
 C44 C 0.42850 0.97329 0.78207
 C45 C 0.44653 0.93336 0.73980
 H46 H 0.35331 1.00483 0.79453
 H47 H 0.48351 0.91817 0.73487
 N48 N 0.25585 0.91371 0.62684
 N49 N 0.24954 0.86554 0.59935
 C50 C 0.21080 0.86755 0.56284
 C51 C 0.19269 0.92001 0.56694
 C52 C 0.22202 0.94822 0.60804
 H53 H 0.19855 0.83414 0.53289
 H54 H 0.21977 0.99086 0.62202
 H55 H 0.34272 0.86529 0.60034
 H56 H 0.34483 0.83666 0.67532
 N57 N 0.87544 0.73903 0.43396
 N58 N 0.90632 0.71931 0.39169
 C59 C 0.94463 0.75131 0.39207
 C60 C 0.93737 0.79250 0.43767
 C61 C 0.89320 0.78351 0.46329
 H62 H 0.97607 0.74429 0.36291
 H63 H 0.87515 0.80765 0.50029
 Cu64 Cu 0.89409 0.65191 0.34332
 Cu65 Cu 0.81337 0.70739 0.44594
 Cu66 Cu 0.80821 0.57350 0.39135
 N67 N 0.87882 0.58400 0.29792
 N68 N 0.84546 0.55344 0.31759
 C69 C 0.84270 0.50854 0.27953
 C70 C 0.87599 0.51113 0.23329
 C71 C 0.89842 0.55945 0.24631
 H72 H 0.81803 0.47666 0.28501
 H73 H 0.92669 0.57546 0.22005
 N74 N 0.76053 0.60937 0.44905
 N75 N 0.76213 0.66065 0.46910
 C76 C 0.72330 0.67414 0.50470
 C77 C 0.69569 0.62925 0.50648
 C78 C 0.72024 0.58892 0.47077
 H79 H 0.71499 0.71402 0.52617
 H80 H 0.70879 0.54824 0.45981
 H81 H 0.84870 0.63542 0.43460
 H82 H 0.80868 0.65073 0.37013
 N83 N 0.62575 0.29012 -0.10429
 N84 N 0.60475 0.27212 -0.15505
 C85 C 0.57126 0.23687 -0.14261
 C86 C 0.57081 0.23327 -0.08066
 C87 C 0.60576 0.26758 -0.05758
 H88 H 0.54799 0.21660 -0.17587
 H89 H 0.61617 0.27523 -0.01057
 Cu90 Cu 0.61945 0.30017 -0.23168
 Cu91 Cu 0.67767 0.34101 -0.10294
 Cu92 Cu 0.71644 0.37498 -0.24256
 N93 N 0.62506 0.34853 -0.29530
 N94 N 0.66201 0.37999 -0.29771
 C95 C 0.65335 0.41488 -0.33964
 C96 C 0.60891 0.40408 -0.36529
 C97 C 0.59200 0.36157 -0.33643
 H98 H 0.67658 0.44722 -0.34876
 H99 H 0.55665 0.34457 -0.34122
 N100 N 0.75579 0.38553 -0.16931
 N101 N 0.74009 0.37486 -0.11538
 C102 C 0.77531 0.38488 -0.07449
 C103 C 0.81501 0.40213 -0.10438
 C104 C 0.80143 0.40217 -0.16446
 H105 H 0.77327 0.37732 -0.02716
 H106 H 0.82342 0.41223 -0.20207
 H107 H 0.66165 0.37601 -0.18202
 H108 H 0.69932 0.31213 -0.18812
 C109 C -0.00963 0.40775 0.05044
 C110 C 0.02983 0.43103 0.02686
 C111 C 0.06839 0.39852 0.03968
 C112 C 0.04927 0.35825 0.07028
 O113 O 0.00192 0.36398 0.07717
 H114 H 0.03026 0.46679 0.00273
 H115 H 0.10578 0.40312 0.02739
 C116 C 0.49146 0.58573 0.56015
 C117 C 0.45027 0.55858 0.57248
 C118 C 0.41341 0.59640 0.57456
 C119 C 0.43491 0.64375 0.56457
 O120 O 0.48196 0.63739 0.55565
 H121 H 0.44720 0.51715 0.58188
 H122 H 0.37597 0.59082 0.58585
 C123 C 1.02216 0.89389 0.45552
 C124 C 1.00722 0.89613 0.51529
 C125 C 0.97302 0.85834 0.51627
 C126 C 0.97029 0.83546 0.45727
 O127 O 0.99999 0.85705 0.42001
 H128 H 1.01896 0.92310 0.55304
 H129 H 0.95258 0.84844 0.55531
 C130 C 0.49135 0.14017 -0.03078
 C131 C 0.50013 0.16649 0.02553
 C132 C 0.53171 0.20540 0.01464
 C133 C 0.53926 0.19995 -0.04739
 O134 O 0.51486 0.16045 -0.07499
 H135 H 0.48615 0.15761 0.06914
 H136 H 0.54732 0.23423 0.04781
 C137 C 0.04623 -0.04409 0.37871
 C138 C 0.00110 -0.03774 0.35341
 C139 C 0.00782 -0.00591 0.30722
 C140 C 0.05648 0.00430 0.30771
 O141 O 0.07982 -0.01877 0.35095
 H142 H -0.03280 -0.05256 0.36829
 H143 H -0.01954 0.00879 0.27746
 C144 C 0.55086 0.50701 -0.43732
 C145 C 0.52542 0.46514 -0.46519
 C146 C 0.54470 0.42002 -0.44281
 C147 C 0.58110 0.43785 -0.40444
 O148 O 0.58519 0.49050 -0.40138
 H149 H 0.49583 0.46733 -0.49676
 H150 H 0.53320 0.37918 -0.45248
 C151 C 0.46984 1.05750 0.90509
 C152 C 0.51451 1.04239 0.88018
 C153 C 0.50504 1.00776 0.83070
 C154 C 0.45537 1.00492 0.82910
 O155 O 0.43387 1.03484 0.87443
 H156 H 0.54957 1.05474 0.89649
 H157 H 0.53115 0.98747 0.79925
 C158 C 0.91264 0.43530 0.09870
 C159 C 0.87620 0.40266 0.11385
 C160 C 0.85791 0.42641 0.16739
 C161 C 0.88459 0.47171 0.18049
 O162 O 0.91809 0.47707 0.13890
 H163 H 0.86445 0.36625 0.08876
 H164 H 0.82825 0.41272 0.19329
 C165 C 0.42590 0.08254 0.00158
 C166 C 0.42300 0.03428 0.02664
 C167 C 0.38370 0.04056 0.06420
 C168 C 0.36540 0.09191 0.05833
 O169 O 0.39110 0.11767 0.02036
 H170 H 0.44670 -0.00097 0.01844
 H171 H 0.36923 0.01073 0.09118
 C172 C 0.58061 0.59788 0.55674
 C173 C 0.58224 0.64854 0.58725
 C174 C 0.62622 0.66704 0.57301
 C175 C 0.64815 0.62614 0.53543
 O176 O 0.62075 0.58391 0.52586
 H177 H 0.55503 0.66937 0.61667
 H178 H 0.64050 0.70572 0.58817
 C179 C 0.91766 0.42190 -0.01364
 C180 C 0.94070 0.42127 -0.06927
 C181 C 0.90481 0.41553 -0.11128
 C182 C 0.86284 0.41253 -0.07817
 O183 O 0.87048 0.41660 -0.01904
 H184 H 0.97880 0.42418 -0.07857
 H185 H 0.90895 0.41242 -0.16017
 C186 C 0.09619 0.94606 0.47046
 C187 C 0.11015 0.99844 0.48214
 C188 C 0.14780 0.99583 0.52138
 C189 C 0.15407 0.94205 0.53015
 O190 O 0.12259 0.91169 0.49956
 H191 H 0.09431 1.03414 0.46485
 H192 H 0.16869 1.02901 0.54052
   
