data_POSCAR
  _audit_creation_date              2014-09-24
  _audit_creation_method            'ToBaCCo'
  _symmetry_space_group_name_H-M    'P1'
  _symmetry_Int_Tables_number       1
  _symmetry_cell_setting            triclinic
  loop_
  _symmetry_equiv_pos_as_xyz
 x,y,z
_cell_length_a 45.5351
_cell_length_b 46.6916
_cell_length_c 42.9642
_cell_angle_alpha 90.171600
_cell_angle_beta 89.721800
_cell_angle_gamma 88.898500
loop_
  _atom_site_label
  _atom_site_type_symbol
  _atom_site_fract_x
  _atom_site_fract_y
  _atom_site_fract_z
C1 C 0.19781 0.20574 0.24237
 C2 C 0.22688 0.19733 0.23451
 C3 C 0.24506 0.21457 0.21582
 C4 C 0.23326 0.24094 0.20513
 C5 C 0.20435 0.24968 0.21235
 C6 C 0.18706 0.23222 0.23120
 H7 H 0.23517 0.17697 0.24276
 H8 H 0.24663 0.25543 0.19185
 H9 H 0.16431 0.23845 0.23506
 C10 C -0.21129 0.79149 0.24210
 C11 C -0.20009 0.76557 0.22914
 C12 C -0.20962 0.75534 0.20016
 C13 C -0.23130 0.77096 0.18404
 C14 C -0.24318 0.79641 0.19644
 C15 C -0.23340 0.80640 0.22534
 H16 H -0.18381 0.75297 0.24143
 H17 H -0.23920 0.76329 0.16184
 H18 H -0.24182 0.82698 0.23325
 C19 C -0.18962 0.18625 -0.23042
 C20 C -0.17905 0.21201 -0.21812
 C21 C -0.19452 0.22709 -0.19498
 C22 C -0.22157 0.21707 -0.18452
 C23 C -0.23344 0.19159 -0.19650
 C24 C -0.21688 0.17634 -0.21936
 H25 H -0.15751 0.21948 -0.22460
 H26 H -0.23355 0.23015 -0.16778
 H27 H -0.22503 0.15650 -0.22852
 C28 C 0.19693 0.81050 -0.22430
 C29 C 0.21686 0.82744 -0.20790
 C30 C 0.22424 0.82148 -0.17661
 C31 C 0.21050 0.79823 -0.16190
 C32 C 0.19103 0.78084 -0.17816
 C33 C 0.18470 0.78686 -0.20934
 H34 H 0.22517 0.84639 -0.21907
 H35 H 0.21605 0.79234 -0.13827
 H36 H 0.16969 0.77329 -0.22178
 C37 C 0.19359 1.19869 0.75776
 C38 C 0.22077 1.18740 0.76788
 C39 C 0.23879 1.20323 0.78776
 C40 C 0.22939 1.23079 0.79705
 C41 C 0.20187 1.24203 0.78825
 C42 C 0.18430 1.22603 0.76807
 H43 H 0.22758 1.16603 0.76071
 H44 H 0.24344 1.24353 0.81164
 H45 H 0.16276 1.23419 0.76159
 C46 C 0.79396 0.80088 0.76551
 C47 C 0.80222 0.77364 0.77741
 C48 C 0.79099 0.76325 0.80592
 C49 C 0.77062 0.78081 0.82228
 C50 C 0.76174 0.80760 0.81088
 C51 C 0.77313 0.81738 0.78260
 H52 H 0.81781 0.76057 0.76456
 H53 H 0.76029 0.77341 0.84343
 H54 H 0.76691 0.83880 0.77534
 C55 C 0.20648 0.78817 1.22475
 C56 C 0.22968 0.80197 1.20918
 C57 C 0.23900 0.79337 1.17933
 C58 C 0.22540 0.77037 1.16463
 C59 C 0.20258 0.75601 1.17950
 C60 C 0.19344 0.76479 1.20939
 H61 H 0.23945 0.82091 1.21889
 H62 H 0.23221 0.76402 1.14136
 H63 H 0.17658 0.75250 1.22066
 C64 C 0.81093 1.19823 1.22634
 C65 C 0.78211 1.19051 1.21820
 C66 C 0.76486 1.20747 1.19804
 C67 C 0.77680 1.23251 1.18555
 C68 C 0.80566 1.24021 1.19243
 C69 C 0.82227 1.22341 1.21320
 H70 H 0.77269 1.17139 1.22785
 H71 H 0.76403 1.24560 1.16962
 H72 H 0.84474 1.22937 1.21756
 O73 O 0.52547 0.97738 0.97013
 O74 O 0.47372 0.97964 1.05387
 O75 O 0.55954 1.00831 1.03998
 O76 O 0.43657 1.00612 0.98888
 O77 O 0.52553 0.97893 1.04871
 O78 O 0.46971 0.98067 0.96316
 O79 O 0.43960 1.01027 1.04604
 O80 O 0.55976 1.00624 0.98396
 C81 C 0.55205 0.98207 0.97396
 C82 C 0.44717 0.98520 1.05262
 C83 C 0.55206 0.98356 1.04711
 C84 C 0.44363 0.98519 0.97150
 O85 O 0.47416 1.03421 0.94621
 O86 O 0.52795 1.03233 1.07485
 O87 O 0.53664 1.06064 0.98228
 O88 O 0.46101 1.06295 1.04053
 O89 O 0.47466 1.03418 1.07724
 O90 O 0.52869 1.02994 0.94686
 O91 O 0.45139 1.05972 0.98230
 O92 O 0.53323 1.06150 1.03759
 Co93 Co 0.49970 1.00679 0.96203
 Co94 Co 0.50038 1.00752 1.05937
 Co95 Co 0.54328 1.03296 1.01111
 Co96 Co 0.45218 1.03351 1.01448
 O97 O 0.49860 1.02003 1.01138
 C98 C 0.45794 1.05523 0.95434
 C99 C 0.53441 1.05688 1.06580
 C100 C 0.53660 1.05447 0.95435
 C101 C 0.46526 1.05850 1.06868
 O102 O 0.01379 0.47833 0.06773
 O103 O 0.02406 0.52978 -0.06675
 O104 O 0.04826 0.46557 -0.02840
 O105 O 0.00769 0.55492 0.01770
 O106 O 0.02739 0.47588 -0.07148
 O107 O 0.03346 0.51849 0.03463
 O108 O -0.00166 0.55975 -0.03764
 O109 O 0.03793 0.46623 0.02604
 C110 C 0.03352 0.46175 0.05479
 C111 C 0.01932 0.55462 -0.05653
 C112 C 0.04904 0.46591 -0.05718
 C113 C 0.03109 0.54495 0.02973
 O114 O -0.01686 0.52631 0.05948
 O115 O -0.02920 0.47352 -0.06876
 O116 O -0.01557 0.44304 0.01484
 O117 O -0.05467 0.53322 -0.02885
 O118 O -0.03216 0.52750 -0.07171
 O119 O -0.03473 0.47904 0.03864
 O120 O -0.04683 0.52946 0.02354
 O121 O -0.00474 0.44166 -0.04093
 Co122 Co -0.00034 0.49796 0.03462
 Co123 Co -0.00264 0.50154 -0.06415
 Co124 Co 0.01469 0.45801 -0.00745
 Co125 Co -0.02234 0.54113 -0.00661
 O126 O -0.00367 0.50064 -0.01279
 C127 C -0.04113 0.53549 0.05084
 C128 C -0.02464 0.44804 -0.06055
 C129 C -0.03570 0.45328 0.03158
 C130 C -0.05476 0.53510 -0.05740
 O131 O 1.04348 0.02319 0.46551
 O132 O 0.96818 0.02388 0.52553
 O133 O 0.98131 -0.00303 0.42981
 O134 O 1.03629 -0.00805 0.55681
 O135 O 0.95929 0.02268 0.46628
 O136 O 1.04199 0.02276 0.52110
 O137 O 0.98337 -0.00654 0.56022
 O138 O 1.03549 -0.00717 0.42987
 C139 C 1.04179 0.01776 0.43745
 C140 C 0.97341 0.01801 0.55328
 C141 C 0.96578 0.01840 0.43823
 C142 C 1.04172 0.01712 0.54920
 O143 O 1.06796 -0.03050 0.52120
 O144 O 0.94385 -0.03110 0.47090
 O145 O 1.03251 -0.06010 0.45277
 O146 O 0.98155 -0.06003 0.53571
 O147 O 0.94726 -0.02897 0.52846
 O148 O 1.06724 -0.03128 0.46497
 O149 O 1.03408 -0.06045 0.52869
 O150 O 0.97711 -0.05696 0.44580
 Co151 Co 1.05119 -0.00519 0.49330
 Co152 Co 0.95978 -0.00461 0.49770
 Co153 Co 1.00690 -0.03065 0.44482
 Co154 Co 1.00878 -0.03244 0.54111
 O155 O 1.00636 -0.01818 0.49404
 C156 C 1.06061 -0.05536 0.52821
 C157 C 0.95105 -0.05243 0.45413
 C158 C 1.05920 -0.05554 0.45555
 C159 C 0.95505 -0.05370 0.53658
 C160 C 1.14248 0.15151 0.29537
 C161 C 1.16448 0.13979 0.27595
 C162 C 1.18281 0.15751 0.25879
 C163 C 1.17945 0.18764 0.26015
 C164 C 1.15698 0.19919 0.27951
 C165 C 1.13897 0.18139 0.29701
 C166 C 1.12374 0.13262 0.31428
 N167 N 1.10801 0.14322 0.33881
 N168 N 1.09220 0.12597 0.35664
 C169 C 1.09127 0.09744 0.35054
 N170 N 1.10669 0.08691 0.32576
 N171 N 1.12263 0.10413 0.30804
 C172 C 1.07544 0.07792 0.37158
 C173 C 1.07012 0.04953 0.36254
 C174 C 1.05787 0.03026 0.38354
 C175 C 1.05109 0.03891 0.41411
 C176 C 1.05525 0.06758 0.42276
 C177 C 1.06715 0.08693 0.40165
 H178 H 1.16771 0.11681 0.27408
 H179 H 1.19873 0.14724 0.24344
 H180 H 1.15389 0.22209 0.28233
 H181 H 1.12227 0.19110 0.31189
 H182 H 1.07601 0.04200 0.33943
 H183 H 1.05479 0.00832 0.37621
 H184 H 1.05000 0.07487 0.44612
 H185 H 1.07089 0.10866 0.40933
 C186 C 0.82539 -0.17174 0.32401
 C187 C 0.84110 -0.19246 0.30671
 C188 C 0.82897 -0.20476 0.28025
 C189 C 0.80034 -0.19710 0.27022
 C190 C 0.78428 -0.17694 0.28860
 C191 C 0.79672 -0.16433 0.31490
 C192 C 0.83984 -0.15687 0.35010
 N193 N 0.82911 -0.13148 0.36131
 N194 N 0.84404 -0.11674 0.38244
 C195 C 0.87023 -0.12688 0.39329
 N196 N 0.88047 -0.15260 0.38264
 N197 N 0.86563 -0.16725 0.36153
 C198 C 0.88895 -0.10912 0.41349
 C199 C 0.91756 -0.11873 0.42067
 C200 C 0.93720 -0.10058 0.43517
 C201 C 0.92866 -0.07250 0.44327
 C202 C 0.89949 -0.06341 0.43826
 C203 C 0.87981 -0.08155 0.42329
 H204 H 0.86343 -0.19842 0.31281
 H205 H 0.84323 -0.21895 0.26693
 H206 H 0.76179 -0.17104 0.28332
 H207 H 0.78389 -0.14867 0.32804
 H208 H 0.92535 -0.13989 0.41382
 H209 H 0.95946 -0.10827 0.43919
 H210 H 0.89239 -0.04184 0.44437
 H211 H 0.85786 -0.07356 0.41829
 C212 C 0.86449 0.13845 0.70633
 C213 C 0.84519 0.12443 0.72649
 C214 C 0.82677 0.14006 0.74666
 C215 C 0.82754 0.17028 0.74770
 C216 C 0.84676 0.18414 0.72695
 C217 C 0.86479 0.16847 0.70649
 C218 C 0.88424 0.12189 0.68526
 N219 N 0.89716 0.13463 0.66047
 N220 N 0.91446 0.11957 0.64114
 C221 C 0.91980 0.09122 0.64598
 N222 N 0.90712 0.07856 0.67096
 N223 N 0.88968 0.09357 0.69018
 C224 C 0.93735 0.07401 0.62343
 C225 C 0.94763 0.04641 0.63127
 C226 C 0.96104 0.02878 0.60884
 C227 C 0.96404 0.03826 0.57801
 C228 C 0.95527 0.06641 0.57058
 C229 C 0.94220 0.08418 0.59312
 H230 H 0.84439 0.10127 0.72683
 H231 H 0.81323 0.12812 0.76256
 H232 H 0.84746 0.20726 0.72571
 H233 H 0.87922 0.17994 0.69101
 H234 H 0.94454 0.03810 0.65454
 H235 H 0.96774 0.00723 0.61530
 H236 H 0.95756 0.07437 0.54705
 H237 H 0.93467 0.10540 0.58638
 C238 C 1.16848 -0.16451 0.68380
 C239 C 1.14902 -0.17739 0.70474
 C240 C 1.15836 -0.18559 0.73430
 C241 C 1.18759 -0.18167 0.74358
 C242 C 1.20730 -0.16946 0.72229
 C243 C 1.19778 -0.16075 0.69279
 C244 C 1.15744 -0.15351 0.65371
 N245 N 1.17160 -0.13242 0.63832
 N246 N 1.15974 -0.12030 0.61317
 C247 C 1.13335 -0.12892 0.60225
 N248 N 1.11968 -0.15055 0.61717
 N249 N 1.13144 -0.16256 0.64235
 C250 C 1.11783 -0.11276 0.57744
 C251 C 1.09046 -0.12202 0.56674
 C252 C 1.07270 -0.10407 0.54863
 C253 C 1.08195 -0.07650 0.54077
 C254 C 1.11041 -0.06825 0.54890
 C255 C 1.12822 -0.08623 0.56712
 H256 H 1.12619 -0.18024 0.69872
 H257 H 1.14230 -0.19422 0.75020
 H258 H 1.23008 -0.16654 0.72842
 H259 H 1.21330 -0.15098 0.67709
 H260 H 1.08196 -0.14252 0.57381
 H261 H 1.05102 -0.11117 0.54231
 H262 H 1.11819 -0.04717 0.54295
 H263 H 1.14930 -0.07854 0.57469
 C264 C 0.32898 1.18186 1.18641
 C265 C 0.31413 1.20294 1.16899
 C266 C 0.28708 1.21431 1.17904
 C267 C 0.27389 1.20500 1.20702
 C268 C 0.28990 1.18490 1.22518
 C269 C 0.31686 1.17346 1.21494
 C270 C 0.35577 1.16734 1.17377
 N271 N 0.36683 1.14315 1.18722
 N272 N 0.38898 1.12843 1.17400
 C273 C 0.40109 1.13734 1.14682
 N274 N 0.39047 1.16189 1.13381
 N275 N 0.36832 1.17656 1.14697
 C276 C 0.42283 1.11906 1.12973
 C277 C 0.43319 1.12760 1.10039
 C278 C 0.44893 1.10841 1.08142
 C279 C 0.45485 1.08028 1.09141
 C280 C 0.44688 1.07246 1.12179
 C281 C 0.43091 1.09167 1.14077
 H282 H 0.32277 1.20989 1.14679
 H283 H 0.27592 1.22900 1.16349
 H284 H 0.28211 1.17810 1.24773
 H285 H 0.32802 1.15767 1.22929
 H286 H 0.42780 1.14863 1.09126
 H287 H 0.45516 1.11514 1.05825
 H288 H 0.45124 1.05093 1.13011
 H289 H 0.42355 1.08448 1.16338
 C290 C 0.28791 0.87024 0.87145
 C291 C 0.26485 0.85761 0.88783
 C292 C 0.24387 0.84161 0.87215
 C293 C 0.24505 0.83822 0.83945
 C294 C 0.26803 0.85162 0.82319
 C295 C 0.28922 0.86713 0.83899
 C296 C 0.31089 0.88619 0.88798
 N297 N 0.33729 0.89048 0.87416
 N298 N 0.35814 0.90475 0.88882
 C299 C 0.35344 0.91547 0.91786
 N300 N 0.32699 0.91126 0.93172
 N301 N 0.30617 0.89678 0.91712
 C302 C 0.37662 0.93186 0.93352
 C303 C 0.36981 0.95095 0.95800
 C304 C 0.39164 0.96798 0.97089
 C305 C 0.42073 0.96587 0.95988
 C306 C 0.42763 0.94598 0.93622
 C307 C 0.40582 0.92932 0.92309
 H308 H 0.26319 0.85976 0.91289
 H309 H 0.22621 0.83280 0.88581
 H310 H 0.27076 0.84908 0.79830
 H311 H 0.30676 0.87664 0.82568
 H312 H 0.34748 0.95338 0.96651
 H313 H 0.38565 0.98315 0.98905
 H314 H 0.44980 0.94379 0.92717
 H315 H 0.41183 0.91462 0.90447
 C316 C 0.69477 0.84778 1.14485
 C317 C 0.68858 0.83960 1.17562
 C318 C 0.70872 0.82286 1.19237
 C319 C 0.73515 0.81350 1.17846
 C320 C 0.74117 0.82122 1.14755
 C321 C 0.72128 0.83844 1.13097
 C322 C 0.67379 0.86628 1.12759
 N323 N 0.68291 0.88271 1.10347
 N324 N 0.66407 0.90003 1.08864
 C325 C 0.63531 0.90138 1.09715
 N326 N 0.62619 0.88476 1.12107
 N327 N 0.64504 0.86765 1.13605
 C328 C 0.61435 0.92123 1.08163
 C329 C 0.58404 0.91669 1.08401
 C330 C 0.56394 0.93644 1.07167
 C331 C 0.57367 0.96144 1.05706
 C332 C 0.60399 0.96564 1.05380
 C333 C 0.62418 0.94557 1.06576
 H334 H 0.66839 0.84658 1.18698
 H335 H 0.70365 0.81710 1.21618
 H336 H 0.76155 0.81439 1.13646
 H337 H 0.72658 0.84433 1.10727
 H338 H 0.57578 0.89801 1.09582
 H339 H 0.54071 0.93254 1.07447
 H340 H 0.61208 0.98469 1.04259
 H341 H 0.64743 0.94963 1.06357
 C342 C 0.68496 1.16012 0.83745
 C343 C 0.70173 1.17869 0.85554
 C344 C 0.72833 1.18902 0.84442
 C345 C 0.73908 1.18139 0.81453
 C346 C 0.72166 1.16307 0.79627
 C347 C 0.69514 1.15253 0.80765
 C348 C 0.65774 1.14787 0.85038
 N349 N 0.64518 1.12478 0.83691
 N350 N 0.62207 1.11247 0.85008
 C351 C 0.61046 1.12284 0.87715
 N352 N 0.62268 1.14627 0.89020
 N353 N 0.64580 1.15851 0.87712
 C354 C 0.58709 1.10738 0.89392
 C355 C 0.57595 1.11825 0.92224
 C356 C 0.55789 1.10166 0.94095
 C357 C 0.55045 1.07385 0.93175
 C358 C 0.55960 1.06380 0.90235
 C359 C 0.57781 1.08041 0.88360
 H360 H 0.69476 1.18467 0.87884
 H361 H 0.74089 1.20185 0.86032
 H362 H 0.72769 1.15736 0.77267
 H363 H 0.68254 1.13849 0.79296
 H364 H 0.58227 1.13908 0.93074
 H365 H 0.55088 1.11011 0.96335
 H366 H 0.55411 1.04246 0.89463
 H367 H 0.58580 1.07148 0.86180
 C368 C 0.16166 0.32277 0.16973
 C369 C 0.18200 0.30574 0.15285
 C370 C 0.19658 0.28265 0.16699
 C371 C 0.19127 0.27608 0.19839
 C372 C 0.17180 0.29378 0.21561
 C373 C 0.15713 0.31683 0.20144
 C374 C 0.14431 0.34562 0.15391
 N375 N 0.12242 0.36020 0.16910
 N376 N 0.10583 0.37960 0.15429
 C377 C 0.11043 0.38523 0.12366
 N378 N 0.13250 0.37084 0.10860
 N379 N 0.14905 0.35146 0.12338
 C380 C 0.09125 0.40582 0.10661
 C381 C 0.09611 0.41091 0.07479
 C382 C 0.07748 0.42929 0.05820
 C383 C 0.05354 0.44310 0.07299
 C384 C 0.04879 0.43843 0.10486
 C385 C 0.06747 0.41996 0.12154
 H386 H 0.18608 0.30967 0.12840
 H387 H 0.21114 0.26925 0.15295
 H388 H 0.16758 0.28952 0.23997
 H389 H 0.14182 0.32965 0.21522
 H390 H 0.11418 0.40047 0.06250
 H391 H 0.08177 0.43254 0.03365
 H392 H 0.03047 0.44879 0.11682
 H393 H 0.06307 0.41652 0.14602
 C394 C -0.15043 0.29761 -0.15277
 C395 C -0.16316 0.27639 -0.13422
 C396 C -0.17860 0.25410 -0.14791
 C397 C -0.18123 0.25243 -0.18040
 C398 C -0.16915 0.27397 -0.19891
 C399 C -0.15408 0.29648 -0.18522
 C400 C -0.13250 0.32019 -0.13854
 N401 N -0.12577 0.34408 -0.15482
 N402 N -0.10886 0.36401 -0.14241
 C403 C -0.09778 0.36079 -0.11332
 N404 N -0.10451 0.33690 -0.09701
 N405 N -0.12157 0.31703 -0.10936
 C406 C -0.07875 0.38287 -0.09982
 C407 C -0.06101 0.37676 -0.07388
 C408 C -0.04294 0.39774 -0.06140
 C409 C -0.04265 0.42533 -0.07432
 C410 C -0.06039 0.43139 -0.10023
 C411 C -0.07808 0.41035 -0.11296
 H412 H -0.16087 0.27679 -0.10915
 H413 H -0.18754 0.23757 -0.13321
 H414 H -0.17102 0.27312 -0.22402
 H415 H -0.14454 0.31250 -0.20015
 H416 H -0.06092 0.35571 -0.06336
 H417 H -0.02947 0.39246 -0.04145
 H418 H -0.06060 0.45244 -0.11076
 H419 H -0.09153 0.41576 -0.13289
 C420 C 0.14584 0.71115 -0.13521
 C421 C 0.14783 0.73767 -0.11984
 C422 C 0.16329 0.76008 -0.13335
 C423 C 0.17678 0.75648 -0.16260
 C424 C 0.17537 0.72982 -0.17762
 C425 C 0.16018 0.70737 -0.16404
 C426 C 0.12816 0.68781 -0.12196
 N427 N 0.12874 0.66143 -0.13532
 N428 N 0.11206 0.64065 -0.12429
 C429 C 0.09399 0.64535 -0.09950
 N430 N 0.09349 0.67170 -0.08599
 N431 N 0.11025 0.69251 -0.09699
 C432 C 0.07495 0.62226 -0.08798
 C433 C 0.05359 0.62764 -0.06482
 C434 C 0.03528 0.60578 -0.05469
 C435 C 0.03811 0.57809 -0.06739
 C436 C 0.05959 0.57272 -0.09037
 C437 C 0.07771 0.59453 -0.10058
 H438 H 0.13715 0.74124 -0.09756
 H439 H 0.16393 0.78052 -0.12141
 H440 H 0.18588 0.72643 -0.20004
 H441 H 0.15918 0.68722 -0.17650
 H442 H 0.05086 0.64878 -0.05465
 H443 H 0.01899 0.61054 -0.03688
 H444 H 0.06241 0.55161 -0.10059
 H445 H 0.09394 0.58957 -0.11840
 C446 C -0.16597 0.68127 0.15948
 C447 C -0.17182 0.68227 0.19157
 C448 C -0.18681 0.70583 0.20469
 C449 C -0.19573 0.72918 0.18607
 C450 C -0.19006 0.72791 0.15389
 C451 C -0.17560 0.70415 0.14074
 C452 C -0.14941 0.65689 0.14545
 N453 N -0.15166 0.65132 0.11456
 N454 N -0.13599 0.63015 0.10146
 C455 C -0.11723 0.61374 0.11861
 N456 N -0.11499 0.61921 0.14958
 N457 N -0.13087 0.64031 0.16277
 C458 C -0.09893 0.59124 0.10323
 C459 C -0.07289 0.58065 0.11689
 C460 C -0.05427 0.56164 0.10042
 C461 C -0.06163 0.55280 0.07023
 C462 C -0.08832 0.56236 0.05731
 C463 C -0.10667 0.58140 0.07354
 H464 H -0.16494 0.66478 0.20652
 H465 H -0.19135 0.70573 0.22944
 H466 H -0.19602 0.74564 0.13888
 H467 H -0.17121 0.70410 0.11594
 H468 H -0.06635 0.58788 0.13976
 H469 H -0.03380 0.55456 0.11087
 H470 H -0.09467 0.55580 0.03413
 H471 H -0.12672 0.58887 0.06249
 C472 C 1.13842 0.14794 0.69873
 C473 C 1.15217 0.13578 0.72493
 C474 C 1.17000 0.15227 0.74405
 C475 C 1.17433 0.18136 0.73760
 C476 C 1.16022 0.19370 0.71176
 C477 C 1.14258 0.17714 0.69243
 C478 C 1.12047 0.13004 0.67780
 N479 N 1.11132 0.14006 0.64974
 N480 N 1.09629 0.12349 0.63044
 C481 C 1.08963 0.09622 0.63843
 N482 N 1.09851 0.08633 0.66662
 N483 N 1.11360 0.10285 0.68587
 C484 C 1.07452 0.07709 0.61624
 C485 C 1.06574 0.04968 0.62552
 C486 C 1.05401 0.03061 0.60396
 C487 C 1.05095 0.03844 0.57259
 C488 C 1.05852 0.06624 0.56353
 C489 C 1.07012 0.08539 0.58514
 H490 H 1.14947 0.11339 0.73052
 H491 H 1.18024 0.14229 0.76407
 H492 H 1.16329 0.21605 0.70618
 H493 H 1.13228 0.18721 0.67250
 H494 H 1.06853 0.04266 0.64934
 H495 H 1.04815 0.00941 0.61171
 H496 H 1.05623 0.07296 0.53955
 H497 H 1.07649 0.10637 0.57720
 C498 C 0.83448 -0.16431 0.68434
 C499 C 0.80610 -0.15535 0.69337
 C500 C 0.79256 -0.16709 0.71958
 C501 C 0.80704 -0.18817 0.73784
 C502 C 0.83540 -0.19738 0.72805
 C503 C 0.84877 -0.18571 0.70179
 C504 C 0.84973 -0.15063 0.65779
 N505 N 0.87649 -0.16058 0.64813
 N506 N 0.89113 -0.14732 0.62566
 C507 C 0.87969 -0.12351 0.61184
 N508 N 0.85274 -0.11376 0.62119
 N509 N 0.83805 -0.12706 0.64366
 C510 C 0.89731 -0.10736 0.58887
 C511 C 0.88703 -0.08097 0.57702
 C512 C 0.90526 -0.06412 0.55855
 C513 C 0.93414 -0.07329 0.55161
 C514 C 0.94379 -0.10039 0.56193
 C515 C 0.92559 -0.11722 0.58032
 H516 H 0.79427 -0.13913 0.68022
 H517 H 0.77036 -0.15994 0.72479
 H518 H 0.84844 -0.21246 0.74142
 H519 H 0.87080 -0.19296 0.69573
 H520 H 0.86530 -0.07280 0.58295
 H521 H 0.89717 -0.04338 0.55084
 H522 H 0.96585 -0.10816 0.55680
 H523 H 0.93416 -0.13754 0.58873
 C524 C 1.17275 -0.17758 0.31045
 C525 C 1.15554 -0.19527 0.29177
 C526 C 1.16672 -0.20697 0.26410
 C527 C 1.19576 -0.20161 0.25413
 C528 C 1.21329 -0.18477 0.27395
 C529 C 1.20188 -0.17281 0.30146
 C530 C 1.15971 -0.16301 0.33812
 N531 N 1.17294 -0.14019 0.35141
 N532 N 1.15985 -0.12556 0.37447
 C533 C 1.13305 -0.13324 0.38533
 N534 N 1.12017 -0.15641 0.37244
 N535 N 1.13318 -0.17095 0.34935
 C536 C 1.11671 -0.11521 0.40836
 C537 C 1.08902 -0.12368 0.41913
 C538 C 1.07116 -0.10484 0.43635
 C539 C 1.08056 -0.07708 0.44331
 C540 C 1.10915 -0.06933 0.43480
 C541 C 1.12707 -0.08823 0.41741
 H542 H 1.13287 -0.19923 0.29786
 H543 H 1.15157 -0.21876 0.24992
 H544 H 1.23615 -0.18100 0.26884
 H545 H 1.21592 -0.15968 0.31565
 H546 H 1.08048 -0.14443 0.41305
 H547 H 1.04937 -0.11156 0.44296
 H548 H 1.11700 -0.04810 0.43994
 H549 H 1.14839 -0.08110 0.40972
 C550 C 0.86324 0.14592 0.28652
 C551 C 0.84192 0.13372 0.26741
 C552 C 0.82455 0.15085 0.24792
 C553 C 0.82834 0.18080 0.24644
 C554 C 0.85016 0.19279 0.26550
 C555 C 0.86709 0.17564 0.28544
 C556 C 0.88103 0.12775 0.30776
 N557 N 0.89412 0.13925 0.33311
 N558 N 0.90932 0.12274 0.35277
 C559 C 0.91230 0.09409 0.34773
 N560 N 0.89947 0.08264 0.32219
 N561 N 0.88407 0.09912 0.30268
 C562 C 0.92805 0.07551 0.37028
 C563 C 0.93847 0.04811 0.36148
 C564 C 0.95173 0.02991 0.38331
 C565 C 0.95432 0.03855 0.41452
 C566 C 0.94448 0.06616 0.42316
 C567 C 0.93172 0.08454 0.40122
 H568 H 0.83845 0.11084 0.26766
 H569 H 0.80905 0.14016 0.23308
 H570 H 0.85352 0.21566 0.26620
 H571 H 0.88331 0.18570 0.29999
 H572 H 0.93613 0.04062 0.33776
 H573 H 0.95910 0.00874 0.37599
 H574 H 0.94635 0.07346 0.44701
 H575 H 0.92389 0.10550 0.40874
 C576 C 0.16838 0.32022 -0.16961
 C577 C 0.16339 0.31458 -0.20134
 C578 C 0.17446 0.28940 -0.21526
 C579 C 0.19079 0.26937 -0.19776
 C580 C 0.19595 0.27520 -0.16614
 C581 C 0.18500 0.30029 -0.15230
 C582 C 0.15538 0.34598 -0.15413
 N583 N 0.15987 0.35078 -0.12333
 N584 N 0.14678 0.37282 -0.10880
 C585 C 0.12866 0.39110 -0.12445
 N586 N 0.12452 0.38657 -0.15538
 N587 N 0.13762 0.36451 -0.16992
 C588 C 0.11175 0.41384 -0.10759
 C589 C 0.09170 0.43165 -0.12354
 C590 C 0.07260 0.45006 -0.10717
 C591 C 0.07310 0.45108 -0.07447
 C592 C 0.09450 0.43479 -0.05862
 C593 C 0.11364 0.41637 -0.07501
 H594 H 0.15069 0.32947 -0.21538
 H595 H 0.17030 0.28563 -0.23971
 H596 H 0.20791 0.25999 -0.15179
 H597 H 0.18916 0.30377 -0.12780
 H598 H 0.08983 0.43051 -0.14863
 H599 H 0.05646 0.46247 -0.12009
 H600 H 0.09549 0.43514 -0.03343
 H601 H 0.12899 0.40317 -0.06196
 C602 C -0.15429 0.30856 0.14130
 C603 C -0.14042 0.28150 0.14368
 C604 C -0.15327 0.25966 0.16077
 C605 C -0.18048 0.26418 0.17563
 C606 C -0.19450 0.29117 0.17332
 C607 C -0.18136 0.31329 0.15655
 C608 C -0.14037 0.33131 0.12265
 N609 N -0.14752 0.35947 0.12693
 N610 N -0.13400 0.37970 0.11065
 C611 C -0.11300 0.37253 0.08923
 N612 N -0.10618 0.34438 0.08481
 N613 N -0.11951 0.32424 0.10117
 C614 C -0.09651 0.39463 0.07204
 C615 C -0.07854 0.38641 0.04675
 C616 C -0.06002 0.40600 0.03270
 C617 C -0.05891 0.43437 0.04349
 C618 C -0.07806 0.44318 0.06760
 C619 C -0.09675 0.42345 0.08175
 H620 H -0.11950 0.27715 0.13236
 H621 H -0.14220 0.23895 0.16184
 H622 H -0.21551 0.29515 0.18460
 H623 H -0.19259 0.33389 0.15507
 H624 H -0.07807 0.36452 0.03833
 H625 H -0.04572 0.39856 0.01404
 H626 H -0.07766 0.46493 0.07641
 H627 H -0.11042 0.43048 0.10111
 C628 C -0.17850 0.68338 -0.15678
 C629 C -0.19001 0.70495 -0.13722
 C630 C -0.20032 0.73091 -0.14944
 C631 C -0.19964 0.73623 -0.18184
 C632 C -0.18877 0.71396 -0.20138
 C633 C -0.17830 0.68806 -0.18902
 C634 C -0.16540 0.65685 -0.14342
 N635 N -0.14928 0.63839 -0.16141
 N636 N -0.13556 0.61579 -0.14888
 C637 C -0.13748 0.61060 -0.11784
 N638 N -0.15408 0.62875 -0.09997
 N639 N -0.16773 0.65137 -0.11248
 C640 C -0.11960 0.58743 -0.10327
 C641 C -0.12180 0.58217 -0.07114
 C642 C -0.10185 0.56360 -0.05647
 C643 C -0.07921 0.54997 -0.07361
 C644 C -0.07824 0.55368 -0.10604
 C645 C -0.09827 0.57216 -0.12073
 H646 H -0.19024 0.70221 -0.11220
 H647 H -0.20723 0.74721 -0.13291
 H648 H -0.18895 0.71585 -0.22644
 H649 H -0.16994 0.67170 -0.20483
 H650 H -0.13815 0.59332 -0.05702
 H651 H -0.10324 0.56110 -0.03145
 H652 H -0.06113 0.54334 -0.11989
 H653 H -0.09607 0.57552 -0.14555
 C654 C 0.15683 0.68956 0.13108
 C655 C 0.18763 0.68837 0.13329
 C656 C 0.20264 0.70998 0.14894
 C657 C 0.18705 0.73278 0.16321
 C658 C 0.15629 0.73368 0.16142
 C659 C 0.14137 0.71246 0.14533
 C660 C 0.14063 0.66753 0.11364
 N661 N 0.11349 0.67375 0.10234
 N662 N 0.09846 0.65413 0.08698
 C663 C 0.10979 0.62734 0.08236
 N664 N 0.13698 0.62101 0.09367
 N665 N 0.15218 0.64078 0.10887
 C666 C 0.09213 0.60559 0.06615
 C667 C 0.09733 0.57605 0.07044
 C668 C 0.07821 0.55597 0.05767
 C669 C 0.05375 0.56514 0.04021
 C670 C 0.04962 0.59458 0.03463
 C671 C 0.06846 0.61451 0.04750
 H672 H 0.20012 0.67104 0.12244
 H673 H 0.22638 0.70883 0.15012
 H674 H 0.14381 0.75115 0.17202
 H675 H 0.11764 0.71392 0.14418
 H676 H 0.11544 0.56854 0.08468
 H677 H 0.08198 0.53341 0.06232
 H678 H 0.03116 0.60242 0.02110
 H679 H 0.06406 0.63705 0.04334
 C680 C 0.31791 1.16575 0.82667
 C681 C 0.29975 1.18431 0.84432
 C682 C 0.27427 1.19628 0.83162
 C683 C 0.26639 1.19049 0.80066
 C684 C 0.28468 1.17208 0.78281
 C685 C 0.31011 1.15970 0.79575
 C686 C 0.34410 1.15222 0.84127
 N687 N 0.35716 1.12828 0.82901
 N688 N 0.37917 1.11499 0.84387
 C689 C 0.38910 1.12523 0.87148
 N690 N 0.37642 1.14950 0.88325
 N691 N 0.35443 1.16268 0.86851
 C692 C 0.41111 1.10903 0.89015
 C693 C 0.41915 1.11936 0.91961
 C694 C 0.43584 1.10238 0.93971
 C695 C 0.44524 1.07475 0.93078
 C696 C 0.43924 1.06513 0.90050
 C697 C 0.42217 1.08209 0.88037
 H698 H 0.30482 1.18911 0.86836
 H699 H 0.26038 1.20963 0.84643
 H700 H 0.27945 1.16737 0.75881
 H701 H 0.32370 1.14551 0.78155
 H702 H 0.41141 1.14012 0.92785
 H703 H 0.44046 1.11048 0.96280
 H704 H 0.44622 1.04387 0.89307
 H705 H 0.41655 1.07357 0.85775
 C706 C 0.30350 0.84491 1.13381
 C707 C 0.30920 0.83285 1.16318
 C708 C 0.28843 0.81571 1.17771
 C709 C 0.26180 0.80982 1.16294
 C710 C 0.25640 0.82111 1.13321
 C711 C 0.27696 0.83871 1.11888
 C712 C 0.32484 0.86446 1.11940
 N713 N 0.31626 0.88362 1.09732
 N714 N 0.33528 0.90199 1.08536
 C715 C 0.36371 0.90181 1.09484
 N716 N 0.37230 0.88248 1.11670
 N717 N 0.35326 0.86427 1.12881
 C718 C 0.38485 0.92265 1.08239
 C719 C 0.41518 0.91755 1.08568
 C720 C 0.43530 0.93764 1.07540
 C721 C 0.42559 0.96353 1.06199
 C722 C 0.39529 0.96855 1.05830
 C723 C 0.37510 0.94818 1.06816
 H724 H 0.32940 0.83729 1.17533
 H725 H 0.29304 0.80718 1.20063
 H726 H 0.23587 0.81702 1.12151
 H727 H 0.27201 0.84758 1.09620
 H728 H 0.42341 0.89802 1.09633
 H729 H 0.45851 0.93310 1.07851
 H730 H 0.38721 0.98831 1.04802
 H731 H 0.35186 0.95274 1.06537
 C732 C 0.68078 1.17562 1.16912
 C733 C 0.68985 1.17282 1.20018
 C734 C 0.71659 1.18405 1.20988
 C735 C 0.73511 1.19794 1.18862
 C736 C 0.72559 1.20132 1.15773
 C737 C 0.69870 1.19048 1.14817
 C738 C 0.65371 1.16180 1.15801
 N739 N 0.64205 1.16896 1.13001
 N740 N 0.61920 1.15501 1.11871
 C741 C 0.60703 1.13321 1.13484
 N742 N 0.61839 1.12631 1.16309
 N743 N 0.64119 1.14038 1.17449
 C744 C 0.58390 1.11569 1.12032
 C745 C 0.57621 1.08903 1.13287
 C746 C 0.55827 1.07046 1.11614
 C747 C 0.54776 1.07824 1.08661
 C748 C 0.55355 1.10577 1.07527
 C749 C 0.57140 1.12426 1.09191
 H750 H 0.67641 1.16173 1.21696
 H751 H 0.72288 1.18159 1.23400
 H752 H 0.73939 1.21142 1.14055
 H753 H 0.69248 1.19285 1.12401
 H754 H 0.58530 1.08184 1.15480
 H755 H 0.55409 1.04940 1.12549
 H756 H 0.54547 1.11251 1.05273
 H757 H 0.57645 1.14479 1.08175
 C758 C 0.70006 0.85869 0.86435
 C759 C 0.69507 0.85323 0.83262
 C760 C 0.71538 0.83709 0.81507
 C761 C 0.74076 0.82565 0.82908
 C762 C 0.74581 0.83110 0.86075
 C763 C 0.72579 0.84769 0.87816
 C764 C 0.67834 0.87548 0.88294
 N765 N 0.68629 0.88897 0.90960
 N766 N 0.66666 0.90427 0.92611
 C767 C 0.63824 0.90640 0.91678
 N768 N 0.63031 0.89276 0.89024
 N769 N 0.64995 0.87769 0.87363
 C770 C 0.61640 0.92397 0.93437
 C771 C 0.58627 0.91945 0.93026
 C772 C 0.56542 0.93750 0.94448
 C773 C 0.57420 0.96080 0.96277
 C774 C 0.60432 0.96472 0.96790
 C775 C 0.62525 0.94631 0.95403
 H776 H 0.67552 0.86156 0.82129
 H777 H 0.71102 0.83305 0.79071
 H778 H 0.76536 0.82260 0.87196
 H779 H 0.73019 0.85148 0.90256
 H780 H 0.57877 0.90223 0.91555
 H781 H 0.54239 0.93384 0.94010
 H782 H 0.61173 0.98246 0.98191
 H783 H 0.64833 0.95028 0.95767
   
