data_POSCAR
  _audit_creation_date              2014-09-24
  _audit_creation_method            'ToBaCCo'
  _symmetry_space_group_name_H-M    'P1'
  _symmetry_Int_Tables_number       1
  _symmetry_cell_setting            triclinic
  loop_
  _symmetry_equiv_pos_as_xyz
 x,y,z
_cell_length_a 34.8376
_cell_length_b 34.3628
_cell_length_c 35.1915
_cell_angle_alpha 88.593700
_cell_angle_beta 90.714800
_cell_angle_gamma 88.620500
loop_
  _atom_site_label
  _atom_site_type_symbol
  _atom_site_fract_x
  _atom_site_fract_y
  _atom_site_fract_z
Si1 Si 0.72423 0.62405 0.98694
 Si2 Si 0.77319 0.40081 0.49780
 Si3 Si 0.22330 -0.11570 0.01229
 Si4 Si 0.27634 0.12524 0.49780
 Si5 Si 0.10267 0.51004 0.23094
 Si6 Si -0.13137 0.01763 0.26344
 Si7 Si 0.37911 0.48706 0.73642
 Si8 Si 0.62490 0.99579 0.76653
 Si9 Si -0.00426 0.24542 -0.12523
 Si10 Si 0.48656 0.23836 0.12775
 Si11 Si 1.02539 0.75007 0.61263
 Si12 Si 0.52315 0.72558 0.39686
 C13 C 0.44021 -0.06324 0.30151
 H14 H 0.44600 -0.03424 0.31099
 C15 C 0.46033 -0.09530 0.31787
 H16 H 0.48189 -0.09069 0.33962
 C17 C 0.40301 -0.10488 0.26394
 H18 H 0.37990 -0.10868 0.24373
 C19 C 0.42182 -0.13771 0.28014
 H20 H 0.41342 -0.16644 0.27178
 N21 N 0.41205 -0.06853 0.27515
 C22 C 0.38314 0.04195 0.21668
 H23 H 0.35265 0.03687 0.21509
 C24 C 0.39764 0.07531 0.19960
 H25 H 0.37821 0.09578 0.18487
 C26 C 0.44521 0.02190 0.23891
 H27 H 0.46358 0.00095 0.25416
 C28 C 0.46091 0.05561 0.22280
 H29 H 0.49140 0.06045 0.22563
 Zn30 Zn 0.37999 -0.02583 0.25841
 N31 N 0.40679 0.01605 0.23591
 C32 C 0.36024 0.03036 0.31188
 N33 N 0.35359 -0.00673 0.30125
 C34 C 0.33087 -0.03046 0.32227
 C35 C 0.31343 -0.01678 0.35520
 C36 C 0.34360 0.04503 0.34450
 C37 C 0.36323 -0.05103 0.18666
 C38 C 0.34125 -0.05912 0.15462
 C39 C 0.28399 -0.05046 0.19187
 C40 C 0.30717 -0.04199 0.22325
 N41 N 0.34604 -0.04224 0.21994
 H42 H 0.37915 0.04854 0.29557
 H43 H 0.32668 -0.06009 0.31370
 H44 H 0.29545 -0.03576 0.37190
 H45 H 0.34949 0.07445 0.35286
 H46 H 0.39420 -0.05069 0.18483
 H47 H 0.35554 -0.06575 0.12832
 H48 H 0.25305 -0.04958 0.19458
 H49 H 0.29409 -0.03426 0.24979
 C50 C 0.43686 0.08258 0.20278
 C51 C 0.45047 -0.13313 0.30786
 C52 C 0.30109 -0.05837 0.15684
 C53 C 0.31987 0.02139 0.36638
 C54 C 0.07655 1.03784 0.78348
 H55 H 0.07644 1.00854 0.79544
 C56 C 0.05311 1.06679 0.79870
 H57 H 0.03472 1.05950 0.82230
 C58 C 0.10231 1.08331 0.73959
 H59 H 0.12223 1.08974 0.71713
 C60 C 0.07952 1.11332 0.75425
 H61 H 0.08296 1.14260 0.74332
 N62 N 0.10112 1.04670 0.75506
 C63 C 0.13551 0.93365 0.71326
 H64 H 0.16613 0.93544 0.71823
 C65 C 0.12065 0.90043 0.69771
 H66 H 0.14015 0.87661 0.69106
 C67 C 0.07329 0.96281 0.71630
 H68 H 0.05512 0.98749 0.72327
 C69 C 0.05704 0.92980 0.70064
 H70 H 0.02637 0.92940 0.69543
 Zn71 Zn 0.13710 1.00739 0.74244
 N72 N 0.11194 0.96404 0.72221
 C73 C 0.15592 0.95446 0.80244
 N74 N 0.16260 0.99102 0.78873
 C75 C 0.18251 1.01662 0.80994
 C76 C 0.19590 1.00589 0.84654
 C77 C 0.16860 0.94269 0.83861
 C78 C 0.17009 1.01088 0.66986
 C79 C 0.19388 1.02402 0.64102
 C80 C 0.22022 1.07006 0.68434
 C81 C 0.19629 1.05553 0.71269
 N82 N 0.17184 1.02631 0.70512
 H83 H 0.13869 0.93482 0.78655
 H84 H 0.18615 1.04607 0.79956
 H85 H 0.21017 1.02699 0.86378
 H86 H 0.16182 0.91387 0.84932
 H87 H 0.14940 0.98912 0.66338
 H88 H 0.19130 1.01188 0.61302
 H89 H 0.23900 1.09383 0.69053
 H90 H 0.19653 1.06847 0.74029
 C91 C 0.08099 0.89821 0.69089
 C92 C 0.05518 1.10532 0.78482
 C93 C 0.21919 1.05410 0.64803
 C94 C 0.18785 0.96886 0.86151
 C95 C 0.58534 0.51805 0.29523
 H96 H 0.58544 0.48938 0.30863
 C97 C 0.57031 0.54998 0.31442
 H98 H 0.55764 0.54514 0.34188
 C99 C 0.60293 0.55902 0.24354
 H100 H 0.61712 0.56280 0.21665
 C101 C 0.58842 0.59174 0.26184
 H102 H 0.59142 0.62025 0.24856
 N103 N 0.60183 0.52315 0.26073
 C104 C 0.61895 0.40837 0.21245
 H105 H 0.64875 0.41148 0.20489
 C106 C 0.59936 0.37547 0.20166
 H107 H 0.61412 0.35417 0.18484
 C108 C 0.56291 0.43485 0.24043
 H109 H 0.54868 0.45847 0.25479
 C110 C 0.54227 0.40209 0.23053
 H111 H 0.51220 0.40053 0.23770
 Zn112 Zn 0.63066 0.48102 0.24086
 N113 N 0.60063 0.43721 0.23138
 C114 C 0.66820 0.43248 0.29587
 N115 N 0.66891 0.46787 0.27774
 C116 C 0.69251 0.49616 0.28979
 C117 C 0.71627 0.48951 0.32171
 C118 C 0.69132 0.42470 0.32791
 C119 C 0.62422 0.50347 0.16589
 C120 C 0.63486 0.51781 0.13037
 C121 C 0.70117 0.51535 0.15164
 C122 C 0.68919 0.50105 0.18707
 N123 N 0.65112 0.49645 0.19366
 H124 H 0.64813 0.41096 0.28689
 H125 H 0.69159 0.52446 0.27560
 H126 H 0.73419 0.51255 0.33174
 H127 H 0.68850 0.39734 0.34329
 H128 H 0.59422 0.49921 0.17193
 H129 H 0.61295 0.52504 0.10906
 H130 H 0.73124 0.52090 0.14703
 H131 H 0.71007 0.49481 0.20951
 C132 C 0.56059 0.37186 0.21092
 C133 C 0.57293 0.58762 0.29829
 C134 C 0.67358 0.52449 0.12325
 C135 C 0.71556 0.45347 0.34123
 C136 C 0.93237 0.46742 0.79664
 H137 H 0.93399 0.49354 0.81308
 C138 C 0.94826 0.43235 0.81116
 H139 H 0.96136 0.43205 0.83903
 C140 C 0.90951 0.43598 0.74197
 H141 H 0.89354 0.43724 0.71544
 C142 C 0.92541 0.40041 0.75521
 H143 H 0.92212 0.37477 0.73828
 N144 N 0.91312 0.46854 0.76282
 C145 C 0.90463 0.58946 0.72194
 H146 H 0.87378 0.59358 0.72288
 C147 C 0.92734 0.61962 0.70875
 H148 H 0.91397 0.64710 0.69953
 C149 C 0.95954 0.54802 0.73149
 H150 H 0.97173 0.51984 0.73992
 C151 C 0.98329 0.57716 0.71738
 H152 H 1.01388 0.57151 0.71513
 Zn153 Zn 0.88672 0.51536 0.74817
 N154 N 0.92097 0.55472 0.73347
 C155 C 0.86553 0.56629 0.80654
 N156 N 0.85757 0.53170 0.79059
 C157 C 0.83126 0.50766 0.80625
 C158 C 0.81063 0.51893 0.83824
 C159 C 0.84566 0.57867 0.83833
 C160 C 0.87538 0.50419 0.67159
 C161 C 0.85636 0.49542 0.63793
 C162 C 0.79727 0.49149 0.67290
 C163 C 0.81737 0.50102 0.70592
 N164 N 0.85591 0.50636 0.70477
 H165 H 0.88766 0.58435 0.79503
 H166 H 0.82653 0.47954 0.79410
 H167 H 0.78996 0.49928 0.85026
 H168 H 0.85208 0.60677 0.84978
 H169 H 0.90605 0.50839 0.67149
 H170 H 0.87266 0.49262 0.61210
 H171 H 0.76679 0.48620 0.67428
 H172 H 0.80232 0.50320 0.73243
 C173 C 0.96705 0.61345 0.70614
 C174 C 0.94482 0.39814 0.79043
 C175 C 0.81693 0.48833 0.63845
 C176 C 0.81749 0.55513 0.85455
 C177 C 0.30208 0.41200 -0.05158
 H178 H 0.31948 0.39817 -0.02929
 C179 C 0.31997 0.42715 -0.08374
 H180 H 0.35091 0.42455 -0.08578
 C181 C 0.24110 0.43243 -0.07594
 H182 H 0.21038 0.43434 -0.07313
 C183 C 0.25786 0.44814 -0.10865
 H184 H 0.23964 0.46134 -0.13080
 N185 N 0.26311 0.41298 -0.04906
 C186 C 0.18303 0.40014 0.04144
 H187 H 0.17104 0.37359 0.03133
 C188 C 0.16488 0.41935 0.07071
 H189 H 0.13887 0.40743 0.08226
 C190 C 0.23301 0.44573 0.04088
 H191 H 0.25993 0.45532 0.02938
 C192 C 0.21598 0.46565 0.07089
 H193 H 0.22974 0.49089 0.08217
 Zn194 Zn 0.24054 0.38211 -0.00965
 N195 N 0.21639 0.41347 0.02700
 C196 C 0.28722 0.35471 0.05258
 N197 N 0.27983 0.35083 0.01483
 C198 C 0.30109 0.32586 -0.00629
 C199 C 0.33139 0.30395 0.01035
 C200 C 0.31737 0.33346 0.07035
 C201 C 0.16983 0.36702 -0.04536
 C202 C 0.13945 0.34480 -0.05793
 C203 C 0.17606 0.28661 -0.03971
 C204 C 0.20581 0.30997 -0.02734
 N205 N 0.20236 0.34951 -0.03050
 H206 H 0.27015 0.37475 0.06892
 H207 H 0.29478 0.32341 -0.03630
 H208 H 0.34789 0.28428 -0.00703
 H209 H 0.32333 0.33795 0.10015
 H210 H 0.16654 0.39832 -0.04572
 H211 H 0.11365 0.35908 -0.06949
 H212 H 0.17898 0.25520 -0.03704
 H213 H 0.23113 0.29635 -0.01442
 C214 C 0.18152 0.45224 0.08625
 C215 C 0.29765 0.44390 -0.11359
 C216 C 0.14244 0.30422 -0.05483
 C217 C 0.34009 0.30775 0.04916
 C218 C 0.78428 0.08141 1.05358
 H219 H 0.79948 0.07518 1.02773
 C220 C 0.79536 0.06234 1.08776
 H221 H 0.81928 0.04163 1.08801
 C222 C 0.73559 0.11693 1.08500
 H223 H 0.71189 0.13762 1.08412
 C224 C 0.74605 0.09904 1.11975
 H225 H 0.73057 0.10668 1.14511
 N226 N 0.75566 0.10913 1.05299
 C227 C 0.74932 0.10775 0.93209
 H228 H 0.77054 0.12947 0.92674
 C229 C 0.73610 0.08572 0.90194
 H230 H 0.74716 0.09144 0.87381
 C231 C 0.70798 0.07540 0.97465
 H232 H 0.69651 0.07217 1.00295
 C233 C 0.69413 0.05259 0.94539
 H234 H 0.67262 0.03125 0.95175
 Zn235 Zn 0.74512 0.13853 1.00689
 N236 N 0.73423 0.10320 0.96736
 C237 C 0.78606 0.19406 0.96330
 N238 N 0.78812 0.16946 0.99422
 C239 C 0.82104 0.16541 1.01530
 C240 C 0.85436 0.18382 1.00376
 C241 C 0.81883 0.21303 0.95064
 C242 C 0.66846 0.16396 0.99345
 C243 C 0.63337 0.18047 1.00391
 C244 C 0.66629 0.21581 1.05247
 C245 C 0.70097 0.19874 1.04086
 N246 N 0.70102 0.17142 1.01347
 H247 H 0.75936 0.19753 0.94742
 H248 H 0.82201 0.14699 1.04057
 H249 H 0.88057 0.17908 1.02027
 H250 H 0.81710 0.23058 0.92468
 H251 H 0.66905 0.14337 0.97082
 H252 H 0.60729 0.17202 0.98955
 H253 H 0.66620 0.23435 1.07685
 H254 H 0.72732 0.20457 1.05605
 C255 C 0.70742 0.05827 0.90813
 C256 C 0.77676 0.07195 1.12158
 C257 C 0.63186 0.20533 1.03480
 C258 C 0.85391 0.20700 0.97034
 C259 C 0.29126 0.53470 0.51876
 H260 H 0.30433 0.52926 0.49161
 C261 C 0.30435 0.51423 0.55135
 H262 H 0.32685 0.49222 0.54875
 C263 C 0.24763 0.57162 0.55535
 H264 H 0.22657 0.59505 0.55714
 C265 C 0.26021 0.55228 0.58866
 H266 H 0.24851 0.56132 0.61546
 N267 N 0.26413 0.56348 0.52152
 C268 C 0.22709 0.60361 0.40871
 H269 H 0.23219 0.63407 0.41341
 C270 C 0.21034 0.59254 0.37487
 H271 H 0.20316 0.61478 0.35345
 C272 C 0.23035 0.53812 0.43156
 H273 H 0.23772 0.51731 0.45418
 C274 C 0.21306 0.52565 0.39791
 H275 H 0.20698 0.49513 0.39493
 Zn276 Zn 0.25606 0.59916 0.48055
 N277 N 0.23684 0.57662 0.43616
 C278 C 0.31824 0.62052 0.43443
 N279 N 0.30393 0.62214 0.47015
 C280 C 0.32488 0.63687 0.49912
 C281 C 0.36172 0.65075 0.49258
 C282 C 0.35456 0.63437 0.42660
 C283 C 0.18149 0.62445 0.49136
 C284 C 0.15138 0.64767 0.50435
 C285 C 0.19776 0.69442 0.52454
 C286 C 0.22704 0.67061 0.51040
 N287 N 0.21842 0.63604 0.49483
 H288 H 0.30201 0.60771 0.41188
 H289 H 0.31341 0.63681 0.52754
 H290 H 0.37832 0.66156 0.51612
 H291 H 0.36481 0.63322 0.39773
 H292 H 0.17552 0.59649 0.47945
 H293 H 0.12226 0.63747 0.50243
 H294 H 0.20489 0.72133 0.53806
 H295 H 0.25657 0.67912 0.51305
 C296 C 0.20241 0.55325 0.36924
 C297 C 0.28995 0.52410 0.58716
 C298 C 0.15950 0.68270 0.52185
 C299 C 0.37718 0.64917 0.45593
 C300 C 0.79976 0.94142 0.47984
 H301 H 0.81396 0.94460 0.50706
 C302 C 0.81294 0.96157 0.44770
 H303 H 0.83678 0.98091 0.45074
 C304 C 0.75273 0.91080 0.44258
 H305 H 0.73046 0.88969 0.44009
 C306 C 0.76486 0.93035 0.40987
 H307 H 0.75133 0.92410 0.38291
 N308 N 0.77072 0.91594 0.47657
 C309 C 0.73556 0.88105 0.59071
 H310 H 0.73961 0.85007 0.58696
 C311 C 0.72149 0.89464 0.62479
 H312 H 0.71543 0.87373 0.64730
 C313 C 0.73906 0.94540 0.56544
 H314 H 0.74549 0.96484 0.54186
 C315 C 0.72434 0.96037 0.59916
 H316 H 0.71930 0.99145 0.60104
 Zn317 Zn 0.76038 0.88123 0.51768
 N318 N 0.74426 0.90630 0.56200
 C319 C 0.82405 0.85504 0.56271
 N320 N 0.80607 0.85162 0.52842
 C321 C 0.82155 0.82916 0.50090
 C322 C 0.85590 0.80811 0.50785
 C323 C 0.85831 0.83455 0.57079
 C324 C 0.68509 0.86835 0.49797
 C325 C 0.65308 0.84836 0.48576
 C326 C 0.69144 0.78894 0.48826
 C327 C 0.72288 0.81017 0.50029
 N328 N 0.71935 0.84935 0.50388
 H329 H 0.81235 0.87425 0.58367
 H330 H 0.80727 0.82778 0.47351
 H331 H 0.86808 0.79026 0.48587
 H332 H 0.87254 0.83781 0.59803
 H333 H 0.68299 0.89948 0.50174
 H334 H 0.62708 0.86504 0.48010
 H335 H 0.69496 0.75775 0.48556
 H336 H 0.75004 0.79537 0.50642
 C337 C 0.71508 0.93474 0.62937
 C338 C 0.79624 0.95511 0.41184
 C339 C 0.65602 0.80812 0.47976
 C340 C 0.87430 0.81060 0.54328
 C341 C -0.01229 0.31050 0.44302
 H342 H 0.01597 0.32256 0.44030
 C343 C -0.03966 0.32877 0.46567
 H344 H -0.03212 0.35465 0.48075
 C345 C -0.05714 0.26339 0.42497
 H346 H -0.06460 0.23904 0.40785
 C347 C -0.08525 0.28058 0.44736
 H348 H -0.11384 0.26892 0.44716
 N349 N -0.02149 0.27856 0.42305
 C350 C 0.08632 0.22260 0.38931
 H351 H 0.08030 0.22018 0.35924
 C352 C 0.12048 0.20689 0.40485
 H353 H 0.14086 0.19211 0.38685
 C354 C 0.06660 0.24381 0.44986
 H355 H 0.04524 0.25761 0.46734
 C356 C 0.10059 0.22873 0.46653
 H357 H 0.10536 0.23091 0.49686
 Zn358 Zn 0.01447 0.25928 0.38772
 N359 N 0.06025 0.24062 0.41184
 C360 C 0.06129 0.31489 0.35186
 N361 N 0.02506 0.30121 0.35427
 C362 C -0.00494 0.31925 0.33535
 C363 C 0.00103 0.35223 0.31240
 C364 C 0.06850 0.34776 0.32931
 C365 C -0.01612 0.18557 0.38244
 C366 C -0.03411 0.15450 0.36552
 C367 C -0.02870 0.18761 0.30450
 C368 C -0.01154 0.21858 0.32275
 N369 N -0.00643 0.21733 0.36119
 H370 H 0.08450 0.30093 0.36807
 H371 H -0.03359 0.30824 0.33853
 H372 H -0.02296 0.36654 0.29747
 H373 H 0.09730 0.35887 0.32813
 H374 H -0.01095 0.18503 0.41283
 H375 H -0.04278 0.12990 0.38294
 H376 H -0.03348 0.18913 0.27402
 H377 H -0.00273 0.24368 0.30627
 C378 C 0.12770 0.20999 0.44382
 C379 C -0.07689 0.31410 0.46757
 C380 C -0.04095 0.15562 0.32620
 C381 C 0.03815 0.36654 0.30923
 C382 C 1.00162 0.81390 0.06321
 H383 H 0.97605 0.83238 0.06348
 C384 C 1.03554 0.82816 0.04818
 H385 H 1.03525 0.85724 0.03560
 C386 C 1.03333 0.75440 0.08111
 H387 H 1.03266 0.72605 0.09502
 C388 C 1.06790 0.76758 0.06655
 H389 H 1.09300 0.74878 0.06953
 N390 N 1.00157 0.77825 0.08068
 C391 C 0.88554 0.74491 0.11125
 H392 H 0.88867 0.74757 0.14170
 C393 C 0.85139 0.73164 0.09605
 H394 H 0.82816 0.72496 0.11509
 C395 C 0.91267 0.74996 0.04998
 H396 H 0.93702 0.75656 0.03238
 C397 C 0.87899 0.73601 0.03349
 H398 H 0.87794 0.73166 0.00316
 Zn399 Zn 0.96102 0.76723 0.11395
 N400 N 0.91535 0.75369 0.08830
 C401 C 0.91662 0.83051 0.14270
 N402 N 0.95216 0.81309 0.14239
 C403 C 0.98266 0.82978 0.15969
 C404 C 0.97756 0.86376 0.18023
 C405 C 0.91034 0.86461 0.16264
 C406 C 0.96240 0.68831 0.13845
 C407 C 0.97824 0.65472 0.15616
 C408 C 1.02321 0.69486 0.18896
 C409 C 1.00636 0.72765 0.17093
 N410 N 0.97697 0.72390 0.14559
 H411 H 0.89303 0.81845 0.12720
 H412 H 1.01117 0.81731 0.15689
 H413 H 1.00183 0.87639 0.19449
 H414 H 0.88184 0.87789 0.16317
 H415 H 0.93990 0.68551 0.11738
 H416 H 0.96739 0.62656 0.14886
 H417 H 1.04738 0.69837 0.20813
 H418 H 1.01821 0.75574 0.17584
 C419 C 0.84793 0.72611 0.05678
 C420 C 1.06984 0.80571 0.05151
 C421 C 1.00973 0.65776 0.18097
 C422 C 0.94096 0.88110 0.18204
 C423 C 0.56217 0.30261 0.54999
 H424 H 0.53296 0.31381 0.54727
 C425 C 0.59150 0.32101 0.53036
 H426 H 0.58444 0.34592 0.51196
 C427 C 0.60682 0.25714 0.57819
 H428 H 0.61284 0.23293 0.59766
 C429 C 0.63705 0.27479 0.55928
 H430 H 0.66605 0.26384 0.56464
 N431 N 0.57024 0.27123 0.57324
 C432 C 0.46534 0.20748 0.58914
 H433 H 0.46939 0.20110 0.61919
 C434 C 0.43293 0.19433 0.57038
 H435 H 0.41253 0.17696 0.58585
 C436 C 0.48697 0.23800 0.53241
 H437 H 0.50798 0.25523 0.51781
 C438 C 0.45448 0.22574 0.51256
 H439 H 0.45053 0.23358 0.48275
 Zn440 Zn 0.52978 0.25022 0.60182
 N441 N 0.49114 0.22960 0.57030
 C442 C 0.47021 0.30132 0.62230
 N443 N 0.50746 0.29108 0.62995
 C444 C 0.52851 0.31066 0.65578
 C445 C 0.51158 0.34099 0.67614
 C446 C 0.45237 0.33136 0.64166
 C447 C 0.56164 0.17635 0.61759
 C448 C 0.57165 0.14313 0.63940
 C449 C 0.55314 0.17737 0.69570
 C450 C 0.54351 0.21002 0.67276
 N451 N 0.54774 0.20886 0.63443
 H452 H 0.45421 0.28655 0.60077
 H453 H 0.55837 0.30250 0.66077
 H454 H 0.52860 0.35558 0.69705
 H455 H 0.42286 0.33923 0.63436
 H456 H 0.56420 0.17605 0.58699
 H457 H 0.58281 0.11770 0.62530
 H458 H 0.54869 0.17851 0.72605
 H459 H 0.53150 0.23575 0.68556
 C460 C 0.42665 0.20461 0.53205
 C461 C 0.62964 0.30739 0.53519
 C462 C 0.56683 0.14310 0.67899
 C463 C 0.47274 0.35131 0.66953
 C464 C 0.42514 0.79387 0.92550
 H465 H 0.45332 0.80573 0.92948
 C466 C 0.39429 0.80812 0.94654
 H467 H 0.39935 0.83116 0.96626
 C468 C 0.38425 0.75144 0.89307
 H469 H 0.38000 0.73019 0.87142
 C470 C 0.35278 0.76436 0.91389
 H471 H 0.32509 0.75180 0.90866
 N472 N 0.41969 0.76605 0.89927
 C473 C 0.52936 0.71113 0.87206
 H474 H 0.52401 0.71164 0.84171
 C475 C 0.56358 0.69503 0.88650
 H476 H 0.58436 0.68268 0.86726
 C477 C 0.50907 0.72759 0.93388
 H478 H 0.48779 0.74071 0.95198
 C479 C 0.54377 0.71259 0.94955
 H480 H 0.54907 0.71367 0.97988
 Zn481 Zn 0.46129 0.75053 0.86798
 N482 N 0.50294 0.72697 0.89560
 C483 C 0.50892 0.81227 0.86743
 N484 N 0.48205 0.79607 0.84475
 C485 C 0.47241 0.81265 0.81026
 C486 C 0.49191 0.84549 0.79671
 C487 C 0.52874 0.84470 0.85522
 C488 C 0.43589 0.67783 0.85473
 C489 C 0.42909 0.64332 0.83620
 C490 C 0.44207 0.67622 0.77651
 C491 C 0.44886 0.71038 0.79636
 N492 N 0.44576 0.71049 0.83491
 H493 H 0.51535 0.79987 0.89531
 H494 H 0.44988 0.80056 0.79318
 H495 H 0.48491 0.85745 0.76875
 H496 H 0.55019 0.85660 0.87390
 H497 H 0.43447 0.67837 0.88540
 H498 H 0.42137 0.61783 0.85284
 H499 H 0.44553 0.67619 0.74598
 H500 H 0.45823 0.73595 0.78108
 C501 C 0.57130 0.69617 0.92549
 C502 C 0.35733 0.79341 0.94089
 C503 C 0.43289 0.64187 0.79666
 C504 C 0.52105 0.86136 0.81919
 C505 C 0.52286 -0.20213 0.35672
 C506 C 0.50058 -0.23308 0.36915
 C507 C 0.46057 -0.22957 0.36362
 C508 C 0.44421 -0.19720 0.34341
 C509 C 0.46752 -0.16743 0.32875
 C510 C 0.50677 -0.16983 0.33763
 C511 C 0.54069 -0.16629 0.31236
 C512 C 0.55830 -0.20168 0.33350
 H513 H 0.44198 -0.25209 0.37412
 H514 H 0.41338 -0.19555 0.33909
 H515 H 0.55651 -0.13913 0.31731
 H516 H 0.53356 -0.17175 0.28209
 H517 H 0.58408 -0.19485 0.35080
 H518 H 0.56145 -0.22767 0.31551
 C519 C 1.00887 0.31975 0.83837
 C520 C 0.98429 0.28832 0.84258
 C521 C 0.94906 0.29103 0.82244
 C522 C 0.93687 0.32634 0.80413
 C523 C 0.95960 0.35986 0.80570
 C524 C 0.99669 0.35450 0.82109
 C525 C 1.02235 0.37796 0.84540
 C526 C 1.03600 0.33970 0.86424
 H527 H 0.92975 0.26680 0.82313
 H528 H 0.90854 0.32808 0.79111
 H529 H 1.00703 0.39655 0.86589
 H530 H 1.04504 0.39252 0.82874
 H531 H 1.02802 0.33723 0.89459
 H532 H 1.06654 0.33262 0.85811
 C533 C -0.00373 1.19615 0.80944
 C534 C 0.00544 1.20021 0.84798
 C535 C 0.02714 1.16987 0.86608
 C536 C 0.04153 1.13835 0.84559
 C537 C 0.03593 1.13686 0.80596
 C538 C 0.01140 1.16540 0.78883
 C539 C 0.01525 1.19051 0.75389
 C540 C -0.00139 1.22397 0.77639
 H541 H 0.03539 1.17173 0.89570
 H542 H 0.05953 1.11659 0.86039
 H543 H -0.00398 1.18153 0.73041
 H544 H 0.04541 1.19563 0.74576
 H545 H -0.03022 1.23404 0.76580
 H546 H 0.01944 1.24743 0.78120
 C547 C 0.56864 0.65916 0.37828
 C548 C 0.54527 0.68985 0.36400
 C549 C 0.53461 0.68873 0.32523
 C550 C 0.54389 0.65568 0.30350
 C551 C 0.56332 0.62276 0.32034
 C552 C 0.57740 0.62694 0.35739
 C553 C 0.58091 0.60126 0.39228
 C554 C 0.57197 0.63731 0.41533
 H555 H 0.51693 0.71194 0.31240
 H556 H 0.53398 0.65501 0.27425
 H557 H 0.61063 0.58948 0.39700
 H558 H 0.55784 0.57964 0.39473
 H559 H 0.59685 0.64663 0.43266
 H560 H 0.54446 0.63564 0.43078
 C561 C 0.53225 0.26912 0.18722
 C562 C 0.50171 0.27578 0.16159
 C563 C 0.48567 0.31382 0.15906
 C564 C 0.50365 0.34477 0.17726
 C565 C 0.53840 0.33840 0.19778
 C566 C 0.55043 0.29951 0.20437
 C567 C 0.58836 0.27805 0.20497
 C568 C 0.56807 0.24450 0.18635
 H569 H 0.46126 0.32051 0.14054
 H570 H 0.49217 0.37407 0.17248
 H571 H 0.59867 0.27081 0.23437
 H572 H 0.61006 0.29078 0.18588
 H573 H 0.56664 0.21824 0.20529
 H574 H 0.57807 0.23883 0.15711
 C575 C 0.07605 0.81073 0.62856
 C576 C 0.04022 0.79521 0.63642
 C577 C 0.01721 0.81377 0.66354
 C578 C 0.03006 0.84726 0.68187
 C579 C 0.06589 0.86313 0.67277
 C580 C 0.08852 0.84365 0.64645
 C581 C 0.10578 0.86016 0.61124
 C582 C 0.09179 0.82459 0.59125
 H583 H -0.01092 0.80294 0.67007
 H584 H 0.01188 0.86081 0.70274
 H585 H 0.13760 0.86117 0.61348
 H586 H 0.09125 0.88773 0.60111
 H587 H 0.06899 0.83147 0.56959
 H588 H 0.11588 0.80597 0.58118
 C589 C 1.02217 0.67021 0.63378
 C590 C 1.01784 0.70839 0.64624
 C591 C 1.00539 0.71343 0.68377
 C592 C 0.99128 0.68165 0.70504
 C593 C 0.99079 0.64422 0.68954
 C594 C 1.00940 0.63878 0.65509
 C595 C 0.99696 0.61791 0.62049
 C596 C 1.01122 0.65233 0.59710
 H597 H 1.00329 0.74203 0.69561
 H598 H 0.97822 0.68681 0.73228
 H599 H 0.96530 0.61471 0.61874
 H600 H 1.01413 0.59068 0.61645
 H601 H 0.98787 0.66887 0.58158
 H602 H 1.03675 0.64496 0.57980
 C603 C 0.45388 0.16404 0.13222
 C604 C 0.47402 0.19172 0.15192
 C605 C 0.48354 0.18192 0.19028
 C606 C 0.47295 0.14556 0.20684
 C607 C 0.45187 0.11863 0.18559
 C608 C 0.44329 0.12965 0.14810
 C609 C 0.42296 0.11733 0.11308
 C610 C 0.43497 0.15639 0.09503
 H611 H 0.49855 0.20214 0.20773
 H612 H 0.48008 0.13915 0.23640
 H613 H 0.39146 0.11538 0.11699
 H614 H 0.43712 0.09154 0.10030
 H615 H 0.41032 0.17676 0.08871
 H616 H 0.45599 0.15321 0.07175
 C617 C 0.32002 0.49393 -0.20809
 C618 C 0.35143 0.47204 -0.22092
 C619 C 0.36236 0.43817 -0.19978
 C620 C 0.34435 0.42868 -0.16540
 C621 C 0.31521 0.45312 -0.15086
 C622 C 0.30206 0.48447 -0.17411
 C623 C 0.29597 0.52625 -0.16469
 C624 C 0.31554 0.53658 -0.20186
 H625 H 0.38610 0.41981 -0.20852
 H626 H 0.35408 0.40272 -0.14972
 H627 H 0.31261 0.53456 -0.13909
 H628 H 0.26501 0.53485 -0.16462
 H629 H 0.34344 0.55106 -0.19780
 H630 H 0.29568 0.55103 -0.22308
 C631 C 0.80749 0.99009 0.30927
 C632 C 0.84656 0.99770 0.30718
 C633 C 0.86993 0.98798 0.33907
 C634 C 0.85372 0.97434 0.37314
 C635 C 0.81361 0.97037 0.37622
 C636 C 0.79146 0.97669 0.34294
 C637 C 0.75580 1.00102 0.33651
 C638 C 0.77333 1.01558 0.29961
 H639 H 0.90067 0.99173 0.33791
 H640 H 0.87269 0.96717 0.39699
 H641 H 0.75232 1.02404 0.35795
 H642 H 0.73016 0.98298 0.33196
 H643 H 0.77985 1.04707 0.29955
 H644 H 0.75787 1.00580 0.27386
 C645 C 0.81530 0.06835 1.22243
 C646 C 0.83235 0.03111 1.22567
 C647 C 0.82326 0.00437 1.19733
 C648 C 0.80304 0.01675 1.16402
 C649 C 0.79063 0.05592 1.15895
 C650 C 0.79446 0.08020 1.19010
 C651 C 0.80854 0.12077 1.19152
 C652 C 0.83172 0.10784 1.22662
 H653 H 0.83421 -0.02536 1.19944
 H654 H 0.79912 -0.00368 1.14144
 H655 H 0.78509 0.14211 1.19767
 H656 H 0.82661 0.12860 1.16678
 H657 H 0.82184 0.12223 1.25280
 H658 H 0.86318 0.10826 1.22187
 C659 C 0.36760 0.49152 0.65726
 C660 C 0.34955 0.49393 0.69237
 C661 C 0.30922 0.49765 0.69212
 C662 C 0.28887 0.50499 0.65756
 C663 C 0.30856 0.50815 0.62266
 C664 C 0.34778 0.49838 0.62350
 C665 C 0.38124 0.51747 0.60535
 C666 C 0.40324 0.50939 0.64240
 H667 H 0.29357 0.49693 0.71843
 H668 H 0.25810 0.50987 0.65850
 H669 H 0.37577 0.54901 0.59909
 H670 H 0.39276 0.50058 0.58130
 H671 H 0.41118 0.53626 0.65715
 H672 H 0.42700 0.48754 0.63955
 C673 C 0.13275 0.55986 0.28618
 C674 C 0.13576 0.52319 0.27008
 C675 C 0.16424 0.49689 0.28466
 C676 C 0.18703 0.50648 0.31641
 C677 C 0.18144 0.54252 0.33421
 C678 C 0.15507 0.56917 0.31728
 C679 C 0.12317 0.59139 0.33534
 C680 C 0.09844 0.58110 0.30153
 H681 H 0.16803 0.46852 0.27236
 H682 H 0.20815 0.48540 0.32747
 H683 H 0.12895 0.62300 0.33657
 H684 H 0.11387 0.57764 0.36254
 H685 H 0.08966 0.60714 0.28392
 H686 H 0.07470 0.56145 0.30909
 C687 C 0.63369 0.01143 0.84481
 C688 C 0.65234 0.00868 0.81006
 C689 C 0.69227 0.01428 0.81015
 C690 C 0.71103 0.02849 0.84266
 C691 C 0.69026 0.03692 0.87592
 C692 C 0.65202 0.02514 0.87673
 C693 C 0.61623 0.04503 0.89008
 C694 C 0.59598 0.02939 0.85522
 H695 H 0.70874 0.00983 0.78476
 H696 H 0.74136 0.03429 0.84107
 H697 H 0.61832 0.07728 0.88947
 H698 H 0.60590 0.03205 0.91720
 H699 H 0.58565 0.05258 0.83484
 H700 H 0.57452 0.00702 0.86237
 C701 C 0.65352 0.93779 0.71732
 C702 C 0.65687 0.97598 0.72939
 C703 C 0.68386 0.99962 0.71108
 C704 C 0.70428 0.98608 0.67942
 C705 C 0.69768 0.94872 0.66514
 C706 C 0.67347 0.92459 0.68615
 C707 C 0.64068 0.90117 0.67269
 C708 C 0.61866 0.91570 0.70662
 H709 H 0.68774 1.02922 0.71996
 H710 H 0.72403 1.00541 0.66545
 H711 H 0.64729 0.86936 0.67445
 H712 H 0.62853 0.91208 0.64495
 H713 H 0.61240 0.89201 0.72752
 H714 H 0.59373 0.93501 0.69849
 C715 C 0.10660 0.48240 0.15695
 C716 C 0.12805 0.49587 0.18739
 C717 C 0.16836 0.49431 0.18484
 C718 C 0.18613 0.48142 0.15143
 C719 C 0.16383 0.46987 0.12004
 C720 C 0.12398 0.46946 0.12437
 C721 C 0.09275 0.48673 0.09940
 C722 C 0.07359 0.50085 0.13529
 H723 H 0.18613 0.50328 0.20830
 H724 H 0.21717 0.48006 0.15038
 H725 H 0.07626 0.46405 0.08479
 H726 H 0.10288 0.51076 0.08061
 H727 H 0.04619 0.48620 0.14145
 H728 H 0.07239 0.53310 0.13716
 C729 C -0.14521 0.39573 0.49166
 C730 C -0.17867 0.37559 0.50021
 C731 C -0.17348 0.33626 0.51188
 C732 C -0.13874 0.31604 0.50442
 C733 C -0.10798 0.33555 0.48720
 C734 C -0.11074 0.37624 0.48560
 C735 C -0.09811 0.40588 0.45706
 C736 C -0.13571 0.42785 0.46415
 H737 H -0.19624 0.32053 0.52525
 H738 H -0.13690 0.28491 0.50989
 H739 H -0.09615 0.39414 0.42796
 H740 H -0.07247 0.42160 0.46697
 H741 H -0.15430 0.42984 0.43846
 H742 H -0.13153 0.45590 0.47852
 C743 C 0.25575 0.82738 0.96367
 C744 C 0.26096 0.84951 0.99601
 C745 C 0.29674 0.84565 1.01500
 C746 C 0.32774 0.82543 0.99835
 C747 C 0.32363 0.80866 0.96223
 C748 C 0.28611 0.80753 0.94732
 C749 C 0.27001 0.81453 0.90813
 C750 C 0.23625 0.83573 0.92626
 H751 H 0.30170 0.86013 1.04149
 H752 H 0.35520 0.82465 1.01306
 H753 H 0.26168 0.78710 0.89447
 H754 H 0.28811 0.83399 0.89054
 H755 H 0.20886 0.82003 0.92364
 H756 H 0.23427 0.86710 0.91815
 C757 C 1.17118 0.82101 0.01407
 C758 C 1.17820 0.85918 0.02453
 C759 C 1.14822 0.88048 0.04129
 C760 C 1.11323 0.86305 0.04965
 C761 C 1.10716 0.82354 0.04182
 C762 C 1.13676 0.80329 0.02323
 C763 C 1.15726 0.76560 0.03336
 C764 C 1.19440 0.78478 0.02252
 H765 H 1.15199 0.91067 0.04831
 H766 H 1.09144 0.88032 0.06361
 H767 H 1.14925 0.74188 0.01408
 H768 H 1.15656 0.75799 0.06422
 H769 H 1.20724 0.77246 -0.00345
 H770 H 1.21471 0.78776 0.04683
 C771 C 0.69277 0.38957 0.50387
 C772 C 0.72897 0.37122 0.50145
 C773 C 0.72921 0.33039 0.49813
 C774 C 0.69617 0.30904 0.50687
 C775 C 0.66171 0.32838 0.51713
 C776 C 0.66015 0.36879 0.51120
 C777 C 0.64168 0.40124 0.53219
 C778 C 0.67740 0.42450 0.52375
 H779 H 0.75457 0.31458 0.48959
 H780 H 0.69814 0.27756 0.50698
 H781 H 0.63820 0.39399 0.56291
 H782 H 0.61552 0.41327 0.51732
 H783 H 0.69324 0.43151 0.55002
 H784 H 0.67165 0.44960 0.50381
 C785 C 0.32133 0.19148 0.51778
 C786 C 0.32002 0.15630 0.49861
 C787 C 0.35426 0.14443 0.48047
 C788 C 0.38939 0.16257 0.48836
 C789 C 0.39053 0.19389 0.51333
 C790 C 0.35535 0.21029 0.52405
 C791 C 0.34145 0.22814 0.55967
 C792 C 0.30431 0.20667 0.55335
 H793 H 0.35501 0.11939 0.46263
 H794 H 0.41582 0.14998 0.47772
 H795 H 0.33775 0.26028 0.55652
 H796 H 0.35740 0.21786 0.58564
 H797 H 0.27918 0.22657 0.54761
 H798 H 0.30069 0.18375 0.57558
 C799 C 0.76485 0.65790 0.04817
 C800 C 0.75495 0.66084 0.00961
 C801 C 0.77069 0.69149 -0.01201
 C802 C 0.79954 0.71470 0.00361
 C803 C 0.81301 0.70771 0.04126
 C804 C 0.79294 0.68086 0.06356
 C805 C 0.80789 0.64874 0.08938
 C806 C 0.77737 0.62344 0.07240
 H807 H 0.76270 0.69570 -0.04168
 H808 H 0.81255 0.73654 -0.01440
 H809 H 0.80300 0.65495 0.11981
 H810 H 0.83767 0.63915 0.08247
 H811 H 0.75525 0.61479 0.09325
 H812 H 0.78971 0.59938 0.05567
 C813 C 0.65315 0.62510 0.94636
 C814 C 0.68006 0.64744 0.96545
 C815 C 0.67159 0.68748 0.96928
 C816 C 0.63593 0.70366 0.95673
 C817 C 0.60829 0.68005 0.93999
 C818 C 0.61842 0.64132 0.93327
 C819 C 0.59666 0.60587 0.94344
 C820 C 0.63427 0.58807 0.95839
 H821 H 0.69158 0.70603 0.98346
 H822 H 0.62968 0.73430 0.96068
 H823 H 0.58544 0.59135 0.91785
 H824 H 0.57522 0.61106 0.96603
 H825 H 0.64367 0.56254 0.94186
 H826 H 0.63434 0.58308 0.98969
 C827 C 0.22961 0.19311 0.47918
 C828 C 0.23148 0.15260 0.48448
 C829 C 0.19694 0.13219 0.48246
 C830 C 0.16256 0.15133 0.47077
 C831 C 0.16214 0.19125 0.46115
 C832 C 0.19555 0.21197 0.46757
 C833 C 0.21563 0.23984 0.44204
 C834 C 0.25299 0.21947 0.45479
 H835 H 0.19684 0.10113 0.48844
 H836 H 0.13680 0.13465 0.46745
 H837 H 0.21291 0.27027 0.45184
 H838 H 0.20858 0.23584 0.41150
 H839 H 0.27154 0.23848 0.47183
 H840 H 0.26791 0.20411 0.43163
 C841 C 0.60159 0.07601 0.76021
 C842 C 0.60000 0.03914 0.74436
 C843 C 0.58218 0.03631 0.70851
 C844 C 0.56924 0.06987 0.68806
 C845 C 0.57485 0.10728 0.70257
 C846 C 0.58894 0.10923 0.73994
 C847 C 0.62065 0.13298 0.75521
 C848 C 0.63475 0.09667 0.77710
 H849 H 0.58083 0.00850 0.69490
 H850 H 0.55674 0.06647 0.66007
 H851 H 0.60982 0.15631 0.77391
 H852 H 0.64074 0.14273 0.73279
 H853 H 0.63247 0.09937 0.80840
 H854 H 0.66295 0.08533 0.76717
 C855 C 1.09105 0.58830 0.20876
 C856 C 1.07283 0.55370 0.21790
 C857 C 1.03245 0.55463 0.21951
 C858 C 1.01137 0.58880 0.20851
 C859 C 1.03048 0.62264 0.19634
 C860 C 1.07056 0.62192 0.19881
 C861 C 1.09981 0.63408 0.17050
 C862 C 1.12244 0.59702 0.18163
 H863 H 1.01717 0.52881 0.22779
 H864 H 0.98031 0.58843 0.20859
 H865 H 1.11445 0.66101 0.17887
 H866 H 1.08852 0.63432 0.14079
 H867 H 1.14998 0.60261 0.19659
 H868 H 1.12448 0.57595 0.15826
 C869 C 0.90465 0.94201 0.26136
 C870 C 0.90086 0.97908 0.24399
 C871 C 0.91870 0.98499 0.20863
 C872 C 0.93513 0.95333 0.18931
 C873 C 0.93411 0.91543 0.20526
 C874 C 0.92116 0.91099 0.24244
 C875 C 0.89393 0.88242 0.25866
 C876 C 0.87539 0.91621 0.27909
 H877 H 0.91667 1.01320 0.19426
 H878 H 0.94549 0.95791 0.16070
 H879 H 0.90859 0.86079 0.27823
 H880 H 0.87477 0.86988 0.23690
 H881 H 0.87891 0.91333 0.31046
 H882 H 0.84566 0.92327 0.26881
 C883 C 0.44868 0.44977 0.71222
 C884 C 0.41049 0.44540 0.72287
 C885 C 0.39276 0.41024 0.71475
 C886 C 0.41362 0.37928 0.69932
 C887 C 0.45276 0.38280 0.69042
 C888 C 0.46955 0.41898 0.69652
 C889 C 0.50467 0.42819 0.71908
 C890 C 0.48195 0.46162 0.73589
 H891 H 0.36252 0.40665 0.72031
 H892 H 0.39891 0.35244 0.69436
 H893 H 0.52845 0.43798 0.70067
 H894 H 0.51274 0.40507 0.74057
 H895 H 0.49243 0.49072 0.72704
 H896 H 0.47700 0.45758 0.76687
 C897 C 0.39807 0.56732 0.72745
 C898 C 0.40484 0.53215 0.74766
 C899 C 0.42853 0.53292 0.78024
 C900 C 0.44034 0.56862 0.79474
 C901 C 0.42830 0.60436 0.77712
 C902 C 0.40979 0.60254 0.74169
 C903 C 0.37476 0.62382 0.72670
 C904 C 0.36190 0.58536 0.71100
 H905 H 0.43514 0.50634 0.79638
 H906 H 0.45662 0.56824 0.82115
 H907 H 0.38164 0.64567 0.70415
 H908 H 0.35609 0.63483 0.74970
 H909 H 0.36134 0.58518 0.67942
 H910 H 0.33566 0.57426 0.72471
 C911 C -0.11810 0.08393 0.30743
 C912 C -0.10420 0.06042 0.27880
 C913 C -0.06795 0.07019 0.26397
 C914 C -0.04735 0.10204 0.27841
 C915 C -0.06227 0.12418 0.30850
 C916 C -0.09813 0.11383 0.32161
 C917 C -0.12758 0.12365 0.35026
 C918 C -0.15037 0.08970 0.33442
 H919 H -0.05522 0.05323 0.24176
 H920 H -0.01949 0.10856 0.26689
 H921 H -0.14143 0.15270 0.34445
 H922 H -0.11694 0.11826 0.37987
 H923 H -0.17754 0.09920 0.31977
 H924 H -0.15297 0.06513 0.35523
 C925 C 0.07772 0.43156 0.23252
 C926 C 0.07432 0.46840 0.24851
 C927 C 0.05114 0.47214 0.28079
 C928 C 0.03647 0.43888 0.29923
 C929 C 0.04518 0.40150 0.28576
 C930 C 0.06355 0.39889 0.25084
 C931 C 0.09608 0.37333 0.23864
 C932 C 0.11192 0.40907 0.21869
 H933 H 0.04673 0.50026 0.29340
 H934 H 0.02121 0.44212 0.32563
 H935 H 0.08656 0.35085 0.21865
 H936 H 0.11469 0.36226 0.26258
 H937 H 0.11184 0.40656 0.18727
 H938 H 0.13940 0.41867 0.23133
 C939 C 0.55188 0.96063 0.78161
 C940 C 0.59202 0.95712 0.78316
 C941 C 0.60821 0.92336 0.80085
 C942 C 0.58504 0.89226 0.81193
 C943 C 0.54486 0.89420 0.80605
 C944 C 0.52888 0.92992 0.79280
 C945 C 0.49955 0.93954 0.76258
 C946 C 0.52470 0.97300 0.75026
 H947 H 0.63904 0.92024 0.80464
 H948 H 0.59879 0.86611 0.82400
 H949 H 0.47170 0.94939 0.77457
 H950 H 0.49759 0.91691 0.74069
 H951 H 0.51129 1.00213 0.75498
 H952 H 0.53666 0.96877 0.72158
 C953 C 0.71280 0.55116 0.02635
 C954 C 0.70583 0.59141 0.02454
 C955 C 0.68237 0.60787 0.05248
 C956 C 0.67118 0.58552 0.08413
 C957 C 0.68355 0.54639 0.08855
 C958 C 0.70215 0.52917 0.05795
 C959 C 0.73706 0.50333 0.05619
 C960 C 0.74846 0.52708 0.02113
 H961 H 0.67437 0.63853 0.05094
 H962 H 0.65464 0.59933 0.10614
 H963 H 0.72987 0.47284 0.04975
 H964 H 0.75686 0.50668 0.08085
 H965 H 0.74728 0.51033 -0.00547
 H966 H 0.77518 0.54344 0.02520
 C967 C 0.25327 1.12728 0.57572
 C968 C 0.26663 1.10397 0.54621
 C969 C 0.27081 1.06365 0.55409
 C970 C 0.25845 1.04732 0.58880
 C971 C 0.24164 1.07095 0.61655
 C972 C 0.24204 1.11122 0.61033
 C973 C 0.21027 1.14042 0.61490
 C974 C 0.22155 1.15764 0.57674
 H975 H 0.28101 1.04407 0.53280
 H976 H 0.25962 1.01596 0.59283
 H977 H 0.21581 1.15998 0.63896
 H978 H 0.18143 1.12724 0.61463
 H979 H 0.23187 1.18776 0.57899
 H980 H 0.19881 1.15404 0.55491
 C981 C 0.23866 0.94319 0.95485
 C982 C 0.21114 0.92032 0.97308
 C983 C 0.17336 0.92272 0.95823
 C984 C 0.16526 0.94177 0.92331
 C985 C 0.19476 0.95860 0.90205
 C986 C 0.23054 0.96196 0.92005
 C987 C 0.27010 0.95482 0.90578
 C988 C 0.27936 0.93474 0.94394
 H989 H 0.15031 0.90715 0.97130
 H990 H 0.13649 0.94041 0.91145
 H991 H 0.28573 0.98233 0.90125
 H992 H 0.27077 0.93466 0.88154
 H993 H 0.30021 0.95105 0.96116
 H994 H 0.28652 0.90330 0.94153
 C995 C 0.77891 0.40662 0.41788
 C996 C 0.76663 0.42514 0.45059
 C997 C 0.74322 0.45892 0.44559
 C998 C 0.72887 0.47012 0.40908
 C999 C 0.73722 0.44725 0.37725
 C1000 C 0.76495 0.41739 0.38224
 C1001 C 0.76910 0.37673 0.36832
 C1002 C 0.78443 0.36500 0.40785
 H1003 H 0.73333 0.47463 0.47003
 H1004 H 0.70854 0.49440 0.40638
 H1005 H 0.79119 0.37422 0.34595
 H1006 H 0.74145 0.36292 0.36167
 H1007 H 0.81525 0.35583 0.40817
 H1008 H 0.76510 0.34535 0.42371
 C1009 C 0.76290 0.42314 0.57375
 C1010 C 0.77501 0.43487 0.53766
 C1011 C 0.79457 0.47011 0.53443
 C1012 C 0.80570 0.48991 0.56731
 C1013 C 0.79725 0.47475 0.60389
 C1014 C 0.77294 0.44299 0.60598
 C1015 C 0.77619 0.40621 0.62948
 C1016 C 0.76509 0.38450 0.59400
 H1017 H 0.80416 0.48053 0.50695
 H1018 H 0.82334 0.51528 0.56422
 H1019 H 0.75405 0.40501 0.65192
 H1020 H 0.80608 0.39954 0.63953
 H1021 H 0.73651 0.37093 0.59591
 H1022 H 0.78857 0.36527 0.58354
 C1023 C 0.22711 -0.10120 0.09157
 C1024 C 0.24052 -0.09091 0.05546
 C1025 C 0.26952 -0.06322 0.05321
 C1026 C 0.28779 -0.05048 0.08642
 C1027 C 0.27734 -0.06525 0.12254
 C1028 C 0.24490 -0.08840 0.12436
 C1029 C 0.23959 -0.12630 0.14498
 C1030 C 0.22032 -0.14044 0.10909
 H1031 H 0.27998 -0.05350 0.02593
 H1032 H 0.31155 -0.03091 0.08367
 H1033 H 0.21957 -0.12343 0.16915
 H1034 H 0.26727 -0.14180 0.15196
 H1035 H 0.18927 -0.14599 0.11273
 H1036 H 0.23693 -0.16404 0.09517
 C1037 C 0.26044 0.08502 0.42910
 C1038 C 0.28331 0.08609 0.46210
 C1039 C 0.31322 0.05782 0.46630
 C1040 C 0.32300 0.03345 0.43605
 C1041 C 0.30286 0.03680 0.40116
 C1042 C 0.26999 0.06092 0.39938
 C1043 C 0.25693 0.09029 0.36982
 C1044 C 0.24685 0.11695 0.40216
 H1045 H 0.33136 0.05700 0.49153
 H1046 H 0.34839 0.01472 0.43871
 H1047 H 0.23134 0.08065 0.35375
 H1048 H 0.28066 0.10125 0.35200
 H1049 H 0.21550 0.12314 0.40409
 H1050 H 0.26519 0.14290 0.40314
 C1051 C 0.79011 0.61107 0.94236
 C1052 C 0.75266 0.59959 0.94951
 C1053 C 0.73572 0.57398 0.92403
 C1054 C 0.75651 0.55916 0.89324
 C1055 C 0.79508 0.56930 0.88746
 C1056 C 0.81075 0.59624 0.91219
 C1057 C 0.84706 0.59280 0.93504
 C1058 C 0.82460 0.60872 0.96811
 H1059 H 0.70652 0.56525 0.92777
 H1060 H 0.74220 0.53998 0.87401
 H1061 H 0.86917 0.61300 0.92440
 H1062 H 0.85715 0.56208 0.93967
 H1063 H 0.83421 0.63787 0.97666
 H1064 H 0.82160 0.58724 0.99195
 C1065 C 0.10274 0.73062 0.59814
 C1066 C 0.06582 0.73444 0.58241
 C1067 C 0.06128 0.72720 0.54343
 C1068 C 0.09238 0.71210 0.52256
 C1069 C 0.12861 0.70507 0.54024
 C1070 C 0.13348 0.71727 0.57747
 C1071 C 0.15161 0.69707 0.61145
 C1072 C 0.11769 0.71199 0.63426
 H1073 H 0.03344 0.73087 0.52968
 H1074 H 0.08768 0.70425 0.49329
 H1075 H 0.17922 0.71026 0.61970
 H1076 H 0.15267 0.66486 0.60896
 H1077 H 0.12576 0.73388 0.65548
 H1078 H 0.09943 0.68826 0.64516
 C1079 C 0.54605 0.25922 1.07568
 C1080 C 0.52635 0.22909 1.09395
 C1081 C 0.53861 0.19066 1.08665
 C1082 C 0.57198 0.18327 1.06567
 C1083 C 0.59435 0.21411 1.05203
 C1084 C 0.57921 0.25192 1.05540
 C1085 C 0.59655 0.28937 1.06622
 C1086 C 0.56014 0.29760 1.08846
 H1087 H 0.52395 0.16607 1.09878
 H1088 H 0.58171 0.15338 1.06236
 H1089 H 0.59987 0.30949 1.04132
 H1090 H 0.62237 0.28546 1.08487
 H1091 H 0.54284 0.32260 1.07636
 H1092 H 0.56563 0.29867 1.11949
 C1093 C 0.95601 0.20654 0.93540
 C1094 C 0.95608 0.23839 0.90976
 C1095 C 0.92498 0.26537 0.91160
 C1096 C 0.89228 0.25686 0.93334
 C1097 C 0.89046 0.22162 0.95462
 C1098 C 0.92421 0.19874 0.95752
 C1099 C 0.92959 0.15579 0.95472
 C1100 C 0.96397 0.16405 0.93009
 H1101 H 0.92474 0.29209 0.89476
 H1102 H 0.86778 0.27685 0.93185
 H1103 H 0.90566 0.14210 0.93914
 H1104 H 0.93751 0.14169 0.98257
 H1105 H 0.95940 0.15504 0.90029
 H1106 H 0.99149 0.15393 0.94373
 C1107 C 0.46684 0.70985 0.45518
 C1108 C 0.48550 0.69726 0.42244
 C1109 C 0.47248 0.66248 0.40659
 C1110 C 0.43902 0.64481 0.41962
 C1111 C 0.41681 0.66201 0.44819
 C1112 C 0.43322 0.69276 0.46741
 C1113 C 0.41603 0.73035 0.47974
 C1114 C 0.45311 0.74901 0.46740
 H1115 H 0.48623 0.64999 0.38225
 H1116 H 0.42935 0.61917 0.40543
 H1117 H 0.41169 0.73077 0.51097
 H1118 H 0.39070 0.73992 0.46205
 H1119 H 0.46983 0.75874 0.49231
 H1120 H 0.44921 0.77057 0.44356
 C1121 C 0.55474 0.77377 0.45554
 C1122 C 0.56192 0.74592 0.42773
 C1123 C 0.60071 0.73624 0.42068
 C1124 C 0.63077 0.75539 0.43866
 C1125 C 0.62344 0.78604 0.46362
 C1126 C 0.58474 0.79381 0.47230
 C1127 C 0.56191 0.83116 0.47203
 C1128 C 0.52904 0.80937 0.45492
 H1129 H 0.60859 0.71589 0.39919
 H1130 H 0.65986 0.74796 0.43057
 H1131 H 0.57251 0.85349 0.45161
 H1132 H 0.55611 0.84142 0.50116
 H1133 H 0.52084 0.82054 0.42615
 H1134 H 0.50489 0.80770 0.47490
 C1135 C 0.04481 0.26021 -0.06171
 C1136 C 0.04208 0.25342 -0.10063
 C1137 C 0.07620 0.25357 -0.12174
 C1138 C 0.11039 0.26708 -0.10560
 C1139 C 0.11075 0.28053 -0.06820
 C1140 C 0.07836 0.27407 -0.04599
 C1141 C 0.05706 0.29964 -0.01937
 C1142 C 0.02019 0.28404 -0.03626
 H1143 H 0.07568 0.24655 -0.15157
 H1144 H 0.13535 0.27037 -0.12333
 H1145 H 0.06083 0.33115 -0.02575
 H1146 H 0.06196 0.29044 0.01083
 H1147 H 0.00226 0.30650 -0.05184
 H1148 H 0.00421 0.26555 -0.01582
 C1149 C 0.43952 0.26180 0.06355
 C1150 C 0.44159 0.25524 0.10286
 C1151 C 0.40744 0.25920 0.12351
 C1152 C 0.37357 0.27424 0.10583
 C1153 C 0.37320 0.28572 0.06701
 C1154 C 0.40608 0.27662 0.04609
 C1155 C 0.42760 0.30149 0.01882
 C1156 C 0.46414 0.28576 0.03814
 H1157 H 0.40733 0.25220 0.15368
 H1158 H 0.34828 0.27827 0.12296
 H1159 H 0.42231 0.33314 0.02301
 H1160 H 0.42431 0.29190 -0.01095
 H1161 H 0.47967 0.30840 0.05374
 H1162 H 0.48212 0.26752 0.01932
 C1163 C 0.94694 0.74219 0.59052
 C1164 C 0.98126 0.76145 0.58408
 C1165 C 0.98084 0.79175 0.55638
 C1166 C 0.94584 0.80580 0.54010
 C1167 C 0.91088 0.78964 0.55135
 C1168 C 0.91254 0.75594 0.57447
 C1169 C 0.89017 0.74458 0.60870
 C1170 C 0.92792 0.72983 0.62652
 H1171 H 1.00703 0.80649 0.54947
 H1172 H 0.94583 0.83132 0.52142
 H1173 H 0.86997 0.72087 0.60274
 H1174 H 0.87744 0.76988 0.62352
 H1175 H 0.92926 0.69771 0.63119
 H1176 H 0.93695 0.74709 0.65125
   
