data_POSCAR
  _audit_creation_date              2014-09-24
  _audit_creation_method            'ToBaCCo'
  _symmetry_space_group_name_H-M    'P1'
  _symmetry_Int_Tables_number       1
  _symmetry_cell_setting            triclinic
  loop_
  _symmetry_equiv_pos_as_xyz
 x,y,z
_cell_length_a 18.4475
_cell_length_b 18.7271
_cell_length_c 18.3815
_cell_angle_alpha 89.975500
_cell_angle_beta 90.051500
_cell_angle_gamma 90.083800
loop_
  _atom_site_label
  _atom_site_type_symbol
  _atom_site_fract_x
  _atom_site_fract_y
  _atom_site_fract_z
C1 C 0.33061 0.31904 1.42244
 C2 C 0.26793 0.34759 1.45423
 C3 C 0.24117 0.41432 1.43183
 C4 C 0.27854 0.45310 1.37785
 C5 C 0.33667 0.42159 1.34018
 C6 C 0.36215 0.35379 1.36224
 C7 C 0.36090 0.25513 1.44817
 C8 C 0.41708 0.22118 1.40958
 C9 C 0.44276 0.25220 1.34496
 C10 C 0.41776 0.31967 1.32289
 C11 C 0.44666 0.35283 1.26124
 C12 C 0.42108 0.41983 1.23768
 C13 C 0.36700 0.45465 1.27842
 H14 H 0.24030 0.31833 1.49697
 H15 H 0.25777 0.50438 1.36003
 H16 H 0.33831 0.22996 1.49627
 H17 H 0.48524 0.22591 1.31426
 H18 H 0.48847 0.32543 1.23071
 H19 H 0.34630 0.50580 1.26033
 C20 C 1.16589 0.67133 0.93390
 C21 C 1.23011 0.64482 0.96574
 C22 C 1.26900 0.58947 0.93173
 C23 C 1.24089 0.55929 0.86721
 C24 C 1.17662 0.58377 0.83641
 C25 C 1.13826 0.63965 0.86996
 C26 C 1.13154 0.73195 0.96210
 C27 C 1.06976 0.76142 0.92772
 C28 C 1.03896 0.72521 0.86800
 C29 C 1.07389 0.66560 0.83780
 C30 C 1.04837 0.63434 0.77311
 C31 C 1.08833 0.58013 0.73881
 C32 C 1.15205 0.55496 0.77059
 H33 H 1.25158 0.66976 1.01444
 H34 H 1.26940 0.51642 0.83979
 H35 H 1.15509 0.75796 1.00926
 H36 H 0.99132 0.74662 0.84120
 H37 H 0.99955 0.65446 0.74741
 H38 H 1.18267 0.51326 0.74360
 C39 C 0.66537 -0.16826 0.07622
 C40 C 0.72541 -0.13747 0.04111
 C41 C 0.75944 -0.07684 0.07044
 C42 C 0.73151 -0.04606 0.13434
 C43 C 0.67208 -0.07639 0.16996
 C44 C 0.63796 -0.13727 0.14032
 C45 C 0.63505 -0.23186 0.05041
 C46 C 0.57636 -0.26491 0.08660
 C47 C 0.54627 -0.23100 0.14799
 C48 C 0.57805 -0.16842 0.17614
 C49 C 0.55316 -0.13810 0.24131
 C50 C 0.58929 -0.07927 0.27232
 C51 C 0.64832 -0.04848 0.23643
 H52 H 0.74771 -0.16275 -0.00695
 H53 H 0.75787 0.00006 0.15833
 H54 H 0.65827 -0.25615 0.00222
 H55 H 0.50122 -0.25548 0.17655
 H56 H 0.50743 -0.16180 0.26948
 H57 H 0.67537 -0.00260 0.26019
 C58 C -0.18066 1.18439 -0.41316
 C59 C -0.24835 1.16116 -0.43941
 C60 C -0.27550 1.09353 -0.41988
 C61 C -0.23571 1.05088 -0.37065
 C62 C -0.17171 1.07643 -0.33860
 C63 C -0.14294 1.14247 -0.36162
 C64 C -0.15022 1.24920 -0.43672
 C65 C -0.08340 1.27252 -0.40869
 C66 C -0.04760 1.23224 -0.35575
 C67 C -0.07732 1.16760 -0.33155
 C68 C -0.04420 1.12963 -0.27516
 C69 C -0.07631 1.06740 -0.24675
 C70 C -0.13812 1.03901 -0.28125
 H71 H -0.27811 1.19415 -0.47763
 H72 H -0.25703 0.99953 -0.35357
 H73 H -0.17833 1.28165 -0.47662
 H74 H 0.00296 1.25173 -0.33300
 H75 H 0.00440 1.15127 -0.25026
 H76 H -0.16294 0.99071 -0.26030
 C77 C 0.66365 0.67179 0.56635
 C78 C 0.72794 0.64583 0.53470
 C79 C 0.76476 0.58825 0.56659
 C80 C 0.73558 0.55548 0.62897
 C81 C 0.67224 0.58086 0.66097
 C82 C 0.63522 0.63875 0.62919
 C83 C 0.63018 0.73320 0.53913
 C84 C 0.56850 0.76250 0.57348
 C85 C 0.53750 0.72598 0.63291
 C86 C 0.57166 0.66540 0.66217
 C87 C 0.54633 0.63387 0.72675
 C88 C 0.58551 0.57832 0.75983
 C89 C 0.64771 0.55150 0.72652
 H90 H 0.75093 0.67231 0.48759
 H91 H 0.76351 0.51108 0.65442
 H92 H 0.65419 0.75971 0.49251
 H93 H 0.49023 0.74766 0.66003
 H94 H 0.49847 0.65485 0.75341
 H95 H 0.67756 0.50857 0.75244
 C96 C 0.83152 0.31911 0.07668
 C97 C 0.76878 0.34783 0.04493
 C98 C 0.74206 0.41452 0.06747
 C99 C 0.77952 0.45305 0.12160
 C100 C 0.83777 0.42140 0.15917
 C101 C 0.86319 0.35366 0.13698
 C102 C 0.86174 0.25518 0.05089
 C103 C 0.91792 0.22106 0.08952
 C104 C 0.94370 0.25194 0.15418
 C105 C 0.91881 0.31937 0.17633
 C106 C 0.94781 0.35228 0.23812
 C107 C 0.92234 0.41922 0.26176
 C108 C 0.86825 0.45422 0.22101
 H109 H 0.74100 0.31868 0.00217
 H110 H 0.75875 0.50424 0.13960
 H111 H 0.83906 0.23011 0.00276
 H112 H 0.98616 0.22553 0.18491
 H113 H 0.98958 0.32477 0.26870
 H114 H 0.84759 0.50533 0.23920
 C115 C 0.32025 0.18312 0.91476
 C116 C 0.25253 0.15988 0.94079
 C117 C 0.22511 0.09256 0.92064
 C118 C 0.26467 0.05022 0.87106
 C119 C 0.32864 0.07591 0.83916
 C120 C 0.35768 0.14163 0.86276
 C121 C 0.35091 0.24763 0.93885
 C122 C 0.41764 0.27107 0.91087
 C123 C 0.45315 0.23126 0.85747
 C124 C 0.42321 0.16695 0.83274
 C125 C 0.45591 0.12960 0.77576
 C126 C 0.42354 0.06775 0.74688
 C127 C 0.36189 0.03905 0.78135
 H128 H 0.22295 0.19261 0.97930
 H129 H 0.24312 -0.00090 0.85354
 H130 H 0.32291 0.27985 0.97894
 H131 H 0.50353 0.25101 0.83461
 H132 H 0.50439 0.15143 0.75085
 H133 H 0.33689 -0.00900 0.76002
 C134 C 0.16434 0.83234 0.42441
 C135 C 0.22461 0.86300 0.45939
 C136 C 0.25874 0.92353 0.42985
 C137 C 0.23066 0.95434 0.36602
 C138 C 0.17112 0.92411 0.33054
 C139 C 0.13689 0.86335 0.36028
 C140 C 0.13393 0.76875 0.45022
 C141 C 0.07520 0.73573 0.41390
 C142 C 0.04503 0.76975 0.35257
 C143 C 0.07689 0.83227 0.32445
 C144 C 0.05213 0.86249 0.25915
 C145 C 0.08847 0.92112 0.22806
 C146 C 0.14746 0.95193 0.26398
 H147 H 0.24704 0.83768 0.50743
 H148 H 0.25706 1.00040 0.34193
 H149 H 0.15722 0.74435 0.49838
 H150 H 0.00000 0.74529 0.32391
 H151 H 0.00640 0.83880 0.23090
 H152 H 0.17465 0.99767 0.24011
 Zn153 Zn 0.08360 0.95883 0.01226
 Zn154 Zn -0.05799 0.94029 -0.06125
 Zn155 Zn -0.04167 1.01493 0.08089
 Zn156 Zn 0.01250 1.08197 -0.04404
 O157 O -0.00237 0.99692 -0.00492
 O158 O 0.08538 0.86721 -0.01110
 O159 O -0.14388 0.92265 -0.01666
 O160 O -0.00331 0.96017 0.14927
 O161 O -0.01400 0.85485 -0.07775
 O162 O 0.10878 0.96390 0.10760
 O163 O -0.13432 0.99194 0.08109
 O164 O -0.04710 1.14708 -0.00424
 O165 O -0.07615 0.98225 -0.14875
 O166 O -0.03341 1.10808 0.10763
 O167 O -0.01080 1.08144 -0.13756
 O168 O 0.10749 1.10975 -0.03596
 O169 O 0.15070 1.00027 -0.04382
 C170 C 0.04511 0.82971 -0.05213
 C171 C -0.16989 0.94814 0.04220
 C172 C 0.06383 0.95019 0.15831
 C173 C -0.05304 1.15689 0.06375
 C174 C -0.05201 1.04092 -0.17467
 C175 C 0.15910 1.06712 -0.05167
 Zn176 Zn 0.45812 0.01499 0.41860
 Zn177 Zn 0.44135 -0.05875 0.56139
 Zn178 Zn 0.58323 -0.04048 0.48827
 Zn179 Zn 0.51194 0.08272 0.54387
 O180 O 0.49718 -0.00242 0.50481
 O181 O 0.36561 -0.00882 0.41809
 O182 O 0.48488 -0.14411 0.57842
 O183 O 0.60893 -0.03631 0.39295
 O184 O 0.35536 -0.07635 0.51709
 O185 O 0.49712 -0.03961 0.35036
 O186 O 0.58466 -0.13175 0.51253
 O187 O 0.60693 0.11063 0.53615
 O188 O 0.42343 -0.01688 0.64870
 O189 O 0.65020 0.00120 0.54437
 O190 O 0.48844 0.08245 0.63742
 O191 O 0.45242 0.14757 0.50353
 O192 O 0.46574 0.10819 0.39174
 C193 C 0.32961 -0.05163 0.45774
 C194 C 0.54411 -0.16920 0.55330
 C195 C 0.56428 -0.04991 0.34188
 C196 C 0.65854 0.06805 0.55216
 C197 C 0.44752 0.04175 0.67462
 C198 C 0.44626 0.15711 0.43550
 Zn199 Zn 1.02462 0.41511 0.46088
 Zn200 Zn 1.09007 0.54695 0.51776
 Zn201 Zn 0.94846 0.55683 0.43799
 Zn202 Zn 0.95824 0.48723 0.58537
 O203 O 1.00485 0.50191 0.49998
 O204 O 1.12007 0.39618 0.45460
 O205 O 1.09188 0.63328 0.47990
 O206 O 0.92873 0.50974 0.35402
 O207 O 1.16708 0.50249 0.47821
 O208 O 0.98848 0.40846 0.37145
 O209 O 0.99227 0.64090 0.41357
 O210 O 0.87402 0.52864 0.58572
 O211 O 1.10673 0.56135 0.61305
 O212 O 0.86128 0.58044 0.47843
 O213 O 1.00411 0.52316 0.66218
 O214 O 0.93709 0.39599 0.60421
 O215 O 0.98369 0.34199 0.50823
 C216 C 1.17401 0.43841 0.45680
 C217 C 1.05146 0.66786 0.43675
 C218 C 0.94848 0.44814 0.33231
 C219 C 0.83696 0.56487 0.54133
 C220 C 1.06555 0.55274 0.66774
 C221 C 0.94782 0.34027 0.56686
 Zn222 Zn 0.45765 0.48579 0.91515
 Zn223 Zn 0.59000 0.54682 0.98128
 Zn224 Zn 0.44824 0.55750 1.06114
 Zn225 Zn 0.52493 0.41539 1.04001
 O226 O 0.50485 0.50180 0.99996
 O227 O 0.50278 0.52093 0.83760
 O228 O 0.59236 0.63302 1.01975
 O229 O 0.36179 0.58321 1.01933
 O230 O 0.60509 0.56138 0.88571
 O231 O 0.37341 0.52701 0.91459
 O232 O 0.49300 0.64074 1.08630
 O233 O 0.48813 0.40948 1.12888
 O234 O 0.66781 0.50200 1.01945
 O235 O 0.42725 0.51033 1.14504
 O236 O 0.62038 0.39693 1.04750
 O237 O 0.48474 0.34144 0.99330
 O238 O 0.43684 0.39449 0.89736
 C239 C 0.56370 0.55139 0.83135
 C240 C 0.55232 0.66747 1.06330
 C241 C 0.33690 0.56594 0.95701
 C242 C 0.44736 0.44895 1.16729
 C243 C 0.67464 0.43855 1.04288
 C244 C 0.44844 0.33908 0.93490
   
