data_POSCAR
  _audit_creation_date              2014-09-24
  _audit_creation_method            'ToBaCCo'
  _symmetry_space_group_name_H-M    'P1'
  _symmetry_Int_Tables_number       1
  _symmetry_cell_setting            triclinic
  loop_
  _symmetry_equiv_pos_as_xyz
 x,y,z
_cell_length_a 56.9488
_cell_length_b 56.5992
_cell_length_c 39.9680
_cell_angle_alpha 89.930700
_cell_angle_beta 90.067000
_cell_angle_gamma 90.043900
loop_
  _atom_site_label
  _atom_site_type_symbol
  _atom_site_fract_x
  _atom_site_fract_y
  _atom_site_fract_z
O1 O -0.02393 0.27988 0.03655
 O2 O 0.02204 0.27992 -0.02820
 O3 O -0.02423 0.27863 -0.02832
 O4 O 0.02215 0.27961 0.03678
 O5 O 0.02223 0.24061 0.03695
 O6 O -0.02403 0.23966 -0.02634
 O7 O 0.02194 0.24100 -0.02828
 O8 O -0.02309 0.24091 0.03795
 Cu9 Cu -0.00097 0.28343 0.00402
 Cu10 Cu -0.00058 0.23666 0.00493
 C11 C -0.03148 0.26041 0.04820
 C12 C 0.03009 0.26049 -0.03917
 C13 C -0.03256 0.25880 -0.03749
 C14 C 0.03003 0.26010 0.04793
 O15 O 0.48015 0.78420 0.53285
 O16 O 0.52470 0.78347 0.46619
 O17 O 0.47855 0.78170 0.46808
 O18 O 0.52629 0.78438 0.53108
 O19 O 0.52666 0.74540 0.53292
 O20 O 0.47929 0.74277 0.47142
 O21 O 0.52519 0.74451 0.46782
 O22 O 0.48132 0.74527 0.53557
 Cu23 Cu 0.50239 0.78736 0.49926
 Cu24 Cu 0.50330 0.74060 0.50197
 C25 C 0.47294 0.76488 0.54539
 C26 C 0.53276 0.76390 0.45584
 C27 C 0.47033 0.76161 0.45990
 C28 C 0.53459 0.76517 0.54265
 O29 O 1.02471 0.73122 0.03431
 O30 O 0.98188 0.72521 -0.03449
 O31 O 1.02785 0.72780 -0.03043
 O32 O 0.97862 0.72980 0.03005
 O33 O 0.97695 0.76848 0.02347
 O34 O 1.02614 0.76656 -0.03495
 O35 O 0.98109 0.76399 -0.04023
 O36 O 1.02260 0.76996 0.02991
 Cu37 Cu 1.00346 0.72460 0.00045
 Cu38 Cu 1.00167 0.77112 -0.00577
 C39 C 1.03111 0.75164 0.04385
 C40 C 0.97409 0.74360 -0.04903
 C41 C 1.03540 0.74701 -0.04308
 C42 C 0.96898 0.74958 0.03620
 O43 O 0.47639 0.21406 0.47285
 O44 O 0.52113 0.21720 0.53919
 O45 O 0.47498 0.21932 0.53729
 O46 O 0.52244 0.21397 0.47420
 O47 O 0.52294 0.25283 0.46943
 O48 O 0.47603 0.25805 0.53102
 O49 O 0.52189 0.25603 0.53453
 O50 O 0.47767 0.25283 0.46718
 Cu51 Cu 0.49872 0.21223 0.50652
 Cu52 Cu 0.49986 0.25881 0.50022
 C53 C 0.46923 0.23288 0.45883
 C54 C 0.52930 0.23709 0.54807
 C55 C 0.46697 0.23975 0.54401
 C56 C 0.53060 0.23270 0.46093
 O57 O 0.70839 0.02269 -0.03972
 O58 O 0.70701 -0.02654 0.02059
 O59 O 0.70526 0.01972 0.02535
 O60 O 0.71276 -0.02329 -0.04376
 O61 O 0.75117 -0.01939 -0.03896
 O62 O 0.74374 0.02044 0.03199
 O63 O 0.74552 -0.02473 0.02545
 O64 O 0.74660 0.02627 -0.03187
 Cu65 Cu 0.70448 -0.00209 -0.00998
 Cu66 Cu 0.75059 0.00079 -0.00297
 C67 C 0.72764 0.03323 -0.04548
 C68 C 0.72601 -0.03425 0.03321
 C69 C 0.72344 0.02722 0.04061
 C70 C 0.73344 -0.02854 -0.05315
 O71 O 0.21074 0.52140 0.46549
 O72 O 0.20814 0.47385 0.52844
 O73 O 0.20780 0.52034 0.53063
 O74 O 0.21348 0.47529 0.46388
 O75 O 0.25203 0.47804 0.46800
 O76 O 0.24630 0.51996 0.53697
 O77 O 0.24677 0.47442 0.53265
 O78 O 0.24910 0.52396 0.47278
 Cu79 Cu 0.20615 0.49759 0.49662
 Cu80 Cu 0.25239 0.49914 0.50299
 C81 C 0.23029 0.53115 0.45896
 C82 C 0.22700 0.46577 0.54098
 C83 C 0.22627 0.52774 0.54524
 C84 C 0.23391 0.46914 0.45448
 O85 O 0.29320 0.97364 -0.03461
 O86 O 0.29306 1.02247 0.02605
 O87 O 0.29470 0.97614 0.03023
 O88 O 0.28873 1.01993 -0.03850
 O89 O 0.25027 1.01634 -0.03533
 O90 O 0.25606 0.97479 0.03397
 O91 O 0.25444 1.02049 0.02918
 O92 O 0.25469 0.97100 -0.03087
 Cu93 Cu 0.29630 0.99828 -0.00459
 Cu94 Cu 0.25007 0.99540 -0.00038
 C95 C 0.27405 0.96374 -0.04296
 C96 C 0.27376 1.03003 0.03773
 C97 C 0.27614 0.96804 0.04377
 C98 C 0.26827 1.02563 -0.04860
 O99 O 0.78539 0.47322 0.46216
 O100 O 0.78246 0.52452 0.51865
 O101 O 0.78246 0.47854 0.52662
 O102 O 0.78327 0.51930 0.45401
 O103 O 0.74460 0.51723 0.45163
 O104 O 0.74371 0.47839 0.52458
 O105 O 0.74377 0.52360 0.51607
 O106 O 0.74668 0.47191 0.46035
 Cu107 Cu 0.78731 0.49900 0.49051
 Cu108 Cu 0.74085 0.49767 0.48788
 C109 C 0.76655 0.46365 0.45185
 C110 C 0.76262 0.53286 0.52699
 C111 C 0.76275 0.47167 0.53801
 C112 C 0.76388 0.52519 0.44052
 C113 C 0.24120 0.20722 0.20122
 C114 C 0.21955 0.21608 0.19044
 C115 C 0.21160 0.23841 0.20005
 C116 C 0.22534 0.25222 0.22207
 C117 C 0.24743 0.24361 0.23318
 C118 C 0.25557 0.22116 0.22239
 C119 C 0.27761 0.21317 0.23351
 C120 C 0.29157 0.22708 0.25434
 C121 C 0.28365 0.24914 0.26588
 C122 C 0.26129 0.25742 0.25539
 C123 C 0.21739 0.27422 0.23367
 C124 C 0.23090 0.28767 0.25546
 C125 C 0.25274 0.27950 0.26702
 C126 C 0.26642 0.29298 0.28956
 C127 C 0.28870 0.28493 0.29877
 C128 C 0.29754 0.26335 0.28731
 H129 H 0.28435 0.19609 0.22614
 H130 H 0.30860 0.22027 0.26145
 H131 H 0.20050 0.28123 0.22627
 H132 H 0.22404 0.30468 0.26292
 H133 H 0.20884 0.20554 0.17365
 H134 H 0.29915 0.29537 0.31602
 C135 C 0.73484 0.70145 0.27921
 C136 C 0.71282 0.70891 0.29038
 C137 C 0.70358 0.73094 0.28145
 C138 C 0.71693 0.74630 0.26086
 C139 C 0.73912 0.73874 0.24869
 C140 C 0.74785 0.71606 0.25734
 C141 C 0.76905 0.70829 0.24321
 C142 C 0.78201 0.72286 0.22220
 C143 C 0.77451 0.74594 0.21491
 C144 C 0.75258 0.75381 0.22768
 C145 C 0.70861 0.76876 0.25159
 C146 C 0.72205 0.78378 0.23165
 C147 C 0.74401 0.77662 0.21925
 C148 C 0.75777 0.79164 0.19883
 C149 C 0.77948 0.78372 0.18701
 C150 C 0.78799 0.76117 0.19443
 H151 H 0.77567 0.69067 0.24782
 H152 H 0.79793 0.71567 0.21160
 H153 H 0.69161 0.77502 0.25969
 H154 H 0.71500 0.80107 0.22597
 H155 H 0.70292 0.69759 0.30717
 H156 H 0.78989 0.79533 0.17128
 C157 C 0.79668 0.22272 0.21816
 C158 C 0.78822 0.20059 0.20819
 C159 C 0.76624 0.19228 0.21835
 C160 C 0.75243 0.20610 0.24020
 C161 C 0.76062 0.22866 0.25047
 C162 C 0.78271 0.23715 0.23914
 C163 C 0.79030 0.25964 0.24949
 C164 C 0.77625 0.27377 0.26978
 C165 C 0.75446 0.26561 0.28160
 C166 C 0.74668 0.24272 0.27215
 C167 C 0.73081 0.19779 0.25239
 C168 C 0.71724 0.21149 0.27373
 C169 C 0.72486 0.23393 0.28406
 C170 C 0.71103 0.24804 0.30552
 C171 C 0.71861 0.27078 0.31378
 C172 C 0.73997 0.27980 0.30216
 H173 H 0.80715 0.26662 0.24188
 H174 H 0.78272 0.29115 0.27621
 H175 H 0.72420 0.18050 0.24575
 H176 H 0.70056 0.20432 0.28178
 H177 H 0.79873 0.18986 0.19144
 H178 H 0.70781 0.28158 0.33005
 C179 C 0.28668 0.74692 0.30972
 C180 C 0.27759 0.72579 0.32239
 C181 C 0.25542 0.71737 0.31322
 C182 C 0.24201 0.73003 0.28933
 C183 C 0.25106 0.75141 0.27579
 C184 C 0.27324 0.76013 0.28654
 C185 C 0.28093 0.78224 0.27485
 C186 C 0.26773 0.79506 0.25193
 C187 C 0.24625 0.78636 0.23981
 C188 C 0.23759 0.76451 0.25224
 C189 C 0.21952 0.72245 0.27953
 C190 C 0.20645 0.73514 0.25613
 C191 C 0.21526 0.75603 0.24177
 C192 C 0.20207 0.76919 0.21811
 C193 C 0.21105 0.79059 0.20602
 C194 C 0.23277 0.79936 0.21650
 H195 H 0.29706 0.79014 0.28371
 H196 H 0.27447 0.81208 0.24417
 H197 H 0.21168 0.70671 0.29008
 H198 H 0.18914 0.72861 0.24989
 H199 H 0.28796 0.71572 0.34018
 H200 H 0.20106 0.80054 0.18767
 C201 C 0.69965 0.27525 0.72091
 C202 C 0.70972 0.29567 0.70733
 C203 C 0.73221 0.30318 0.71641
 C204 C 0.74511 0.29012 0.74030
 C205 C 0.73543 0.26908 0.75391
 C206 C 0.71254 0.26166 0.74437
 C207 C 0.70296 0.24134 0.75934
 C208 C 0.71578 0.22821 0.78255
 C209 C 0.73869 0.23487 0.79169
 C210 C 0.74852 0.25570 0.77757
 C211 C 0.76707 0.29802 0.75179
 C212 C 0.77975 0.28509 0.77518
 C213 C 0.77114 0.26358 0.78775
 C214 C 0.78413 0.25014 0.81120
 C215 C 0.77432 0.22948 0.82432
 C216 C 0.75182 0.22180 0.81543
 H217 H 0.68531 0.23554 0.75358
 H218 H 0.70740 0.21291 0.79355
 H219 H 0.77453 0.31454 0.74328
 H220 H 0.79626 0.29242 0.78359
 H221 H 0.70000 0.30572 0.68879
 H222 H 0.78442 0.21914 0.84212
 C223 C 0.21427 0.75518 0.79913
 C224 C 0.22230 0.77767 0.80788
 C225 C 0.24394 0.78634 0.79685
 C226 C 0.25833 0.77196 0.77640
 C227 C 0.25025 0.74920 0.76672
 C228 C 0.22811 0.74082 0.77801
 C229 C 0.22021 0.71853 0.76744
 C230 C 0.23392 0.70448 0.74673
 C231 C 0.25588 0.71234 0.73520
 C232 C 0.26423 0.73485 0.74545
 C233 C 0.28033 0.77978 0.76494
 C234 C 0.29435 0.76541 0.74497
 C235 C 0.28656 0.74300 0.73459
 C236 C 0.30058 0.72830 0.71405
 C237 C 0.29203 0.70616 0.70428
 C238 C 0.26987 0.69813 0.71407
 H239 H 0.20326 0.71172 0.77488
 H240 H 0.22710 0.68728 0.74002
 H241 H 0.28699 0.79709 0.77138
 H242 H 0.31138 0.77213 0.73770
 H243 H 0.21159 0.78856 0.82416
 H244 H 0.30265 0.69517 0.68801
 C245 C 0.23459 0.20133 0.79055
 C246 C 0.21262 0.20889 0.80181
 C247 C 0.20320 0.23074 0.79238
 C248 C 0.21646 0.24600 0.77150
 C249 C 0.23863 0.23839 0.75933
 C250 C 0.24740 0.21575 0.76816
 C251 C 0.26839 0.20781 0.75360
 C252 C 0.28124 0.22224 0.73228
 C253 C 0.27386 0.24538 0.72508
 C254 C 0.25201 0.25334 0.73800
 C255 C 0.20805 0.26836 0.76190
 C256 C 0.22144 0.28328 0.74171
 C257 C 0.24341 0.27610 0.72938
 C258 C 0.25715 0.29105 0.70879
 C259 C 0.27885 0.28310 0.69698
 C260 C 0.28736 0.26054 0.70449
 H261 H 0.27491 0.19014 0.75806
 H262 H 0.29697 0.21489 0.72137
 H263 H 0.19105 0.27463 0.76997
 H264 H 0.21434 0.30051 0.73577
 H265 H 0.20281 0.19771 0.81889
 H266 H 0.28926 0.29467 0.68120
 C267 C 0.75200 0.71662 0.68142
 C268 C 0.73017 0.72524 0.67095
 C269 C 0.72145 0.74686 0.68220
 C270 C 0.73466 0.76031 0.70528
 C271 C 0.75687 0.75190 0.71625
 C272 C 0.76572 0.73008 0.70406
 C273 C 0.78775 0.72218 0.71539
 C274 C 0.80104 0.73561 0.73768
 C275 C 0.79246 0.75706 0.75044
 C276 C 0.77009 0.76522 0.73980
 C277 C 0.72606 0.78171 0.71810
 C278 C 0.73900 0.79473 0.74107
 C279 C 0.76088 0.78667 0.75267
 C280 C 0.77393 0.79967 0.77649
 C281 C 0.79624 0.79179 0.78587
 C282 C 0.80570 0.77080 0.77327
 H283 H 0.79497 0.70551 0.70715
 H284 H 0.81807 0.72889 0.74499
 H285 H 0.70912 0.78859 0.71070
 H286 H 0.73166 0.81131 0.74945
 H287 H 0.71985 0.71503 0.65328
 H288 H 0.80621 0.80187 0.80408
 C289 C 0.29382 0.06485 0.06390
 C290 C 0.29345 0.08492 0.08426
 C291 C 0.27326 0.09077 0.10234
 C292 C 0.25336 0.07613 0.10002
 C293 C 0.25360 0.05622 0.07932
 C294 C 0.27379 0.05044 0.06089
 N295 N 0.27296 0.11220 0.12143
 N296 N 0.25625 0.11703 0.14139
 C297 C 0.25482 0.13898 0.15908
 C298 C 0.23662 0.14211 0.18210
 C299 C 0.23306 0.16405 0.19721
 C300 C 0.24769 0.18326 0.18947
 C301 C 0.26641 0.18000 0.16711
 C302 C 0.27006 0.15795 0.15212
 H303 H 0.30962 0.06094 0.04990
 H304 H 0.30886 0.09611 0.08569
 H305 H 0.23747 0.08035 0.11359
 H306 H 0.23792 0.04544 0.07758
 H307 H 0.22470 0.12770 0.18753
 H308 H 0.21835 0.16630 0.21407
 H309 H 0.27758 0.19474 0.16031
 H310 H 0.28415 0.15600 0.13419
 C311 C 0.74013 0.55947 0.56524
 C312 C 0.73877 0.57922 0.58608
 C313 C 0.75843 0.59360 0.59119
 C314 C 0.77978 0.58776 0.57568
 C315 C 0.78126 0.56779 0.55515
 C316 C 0.76137 0.55357 0.54948
 N317 N 0.75595 0.61423 0.61158
 N318 N 0.77181 0.62999 0.61406
 C319 C 0.76832 0.65070 0.63407
 C320 C 0.78346 0.67004 0.63023
 C321 C 0.77887 0.69135 0.64677
 C322 C 0.75931 0.69336 0.66794
 C323 C 0.74475 0.67363 0.67286
 C324 C 0.74916 0.65250 0.65606
 H325 H 0.72455 0.54880 0.56153
 H326 H 0.72223 0.58355 0.59791
 H327 H 0.79522 0.59862 0.57933
 H328 H 0.79786 0.56370 0.54330
 H329 H 0.79824 0.66891 0.61330
 H330 H 0.79005 0.70649 0.64214
 H331 H 0.72946 0.67490 0.68886
 H332 H 0.73727 0.63779 0.65963
 C333 C 0.70445 0.93427 0.06210
 C334 C 0.70427 0.91462 0.08338
 C335 C 0.72490 0.90718 0.09920
 C336 C 0.74586 0.91962 0.09344
 C337 C 0.74622 0.93896 0.07170
 C338 C 0.72553 0.94656 0.05560
 N339 N 0.72453 0.88631 0.11954
 N340 N 0.74144 0.88138 0.13918
 C341 C 0.74264 0.85979 0.15782
 C342 C 0.76094 0.85691 0.18082
 C343 C 0.76480 0.83505 0.19602
 C344 C 0.75041 0.81565 0.18833
 C345 C 0.73141 0.81874 0.16633
 C346 C 0.72744 0.84074 0.15128
 H347 H 0.68815 0.93947 0.05023
 H348 H 0.68802 0.90509 0.08746
 H349 H 0.76211 0.91407 0.10514
 H350 H 0.76279 0.94791 0.06754
 H351 H 0.77283 0.87141 0.18591
 H352 H 0.77972 0.83292 0.21260
 H353 H 0.72043 0.80386 0.15956
 H354 H 0.71328 0.84252 0.13335
 C355 C 0.20575 0.43179 0.56760
 C356 C 0.20536 0.41216 0.58893
 C357 C 0.22500 0.40652 0.60844
 C358 C 0.24509 0.42093 0.60658
 C359 C 0.24563 0.44034 0.58493
 C360 C 0.22602 0.44589 0.56504
 N361 N 0.22471 0.38543 0.62835
 N362 N 0.24085 0.38100 0.64950
 C363 C 0.24205 0.35927 0.66784
 C364 C 0.26000 0.35645 0.69143
 C365 C 0.26387 0.33453 0.70651
 C366 C 0.24978 0.31504 0.69820
 C367 C 0.23111 0.31805 0.67563
 C368 C 0.22718 0.34008 0.66061
 H369 H 0.19040 0.43556 0.55249
 H370 H 0.18982 0.40114 0.58996
 H371 H 0.26057 0.41686 0.62123
 H372 H 0.26146 0.45090 0.58359
 H373 H 0.27164 0.37105 0.69709
 H374 H 0.27855 0.33247 0.72353
 H375 H 0.22035 0.30310 0.66842
 H376 H 0.21328 0.34179 0.64227
 C377 C 0.93509 0.28039 0.07754
 C378 C 0.91568 0.27959 0.09895
 C379 C 0.91037 0.25894 0.11668
 C380 C 0.92497 0.23908 0.11314
 C381 C 0.94418 0.23974 0.09142
 C382 C 0.94931 0.26033 0.07312
 N383 N 0.88938 0.25801 0.13643
 N384 N 0.88510 0.24073 0.15590
 C385 C 0.86354 0.23851 0.17408
 C386 C 0.86121 0.21993 0.19693
 C387 C 0.83971 0.21559 0.21255
 C388 C 0.82013 0.22980 0.20546
 C389 C 0.82256 0.24882 0.18313
 C390 C 0.84418 0.25328 0.16768
 H391 H 0.93853 0.29647 0.06365
 H392 H 0.90452 0.29498 0.10131
 H393 H 0.92118 0.22284 0.12643
 H394 H 0.95483 0.22403 0.08861
 H395 H 0.87594 0.20834 0.20190
 H396 H 0.83811 0.20066 0.22938
 H397 H 0.80753 0.25967 0.17680
 H398 H 0.84551 0.26762 0.14984
 C399 C 0.43982 0.78516 0.57495
 C400 C 0.42045 0.78451 0.59645
 C401 C 0.41517 0.76396 0.61445
 C402 C 0.42983 0.74412 0.61125
 C403 C 0.44900 0.74464 0.58946
 C404 C 0.45402 0.76507 0.57075
 N405 N 0.39409 0.76309 0.63397
 N406 N 0.38961 0.74580 0.65332
 C407 C 0.36790 0.74366 0.67112
 C408 C 0.36527 0.72507 0.69390
 C409 C 0.34360 0.72083 0.70910
 C410 C 0.32416 0.73514 0.70164
 C411 C 0.32688 0.75413 0.67933
 C412 C 0.34866 0.75849 0.66432
 H413 H 0.44316 0.80112 0.56075
 H414 H 0.40925 0.79988 0.59857
 H415 H 0.42607 0.72798 0.62478
 H416 H 0.45965 0.72891 0.58682
 H417 H 0.37990 0.71342 0.69914
 H418 H 0.34178 0.70592 0.72592
 H419 H 0.31196 0.76506 0.67273
 H420 H 0.35021 0.77283 0.64651
 C421 C 0.05442 0.77654 0.08134
 C422 C 0.07214 0.77900 0.10529
 C423 C 0.08413 0.75921 0.11738
 C424 C 0.07760 0.73664 0.10618
 C425 C 0.05956 0.73405 0.08264
 C426 C 0.04801 0.75402 0.06934
 N427 N 0.10343 0.76272 0.13986
 N428 N 0.11796 0.74643 0.14722
 C429 C 0.13765 0.75082 0.16873
 C430 C 0.15639 0.73480 0.16912
 C431 C 0.17708 0.74014 0.18652
 C432 C 0.17905 0.76139 0.20444
 C433 C 0.15978 0.77686 0.20539
 C434 C 0.13929 0.77169 0.18761
 H435 H 0.04593 0.79236 0.07203
 H436 H 0.07701 0.79650 0.11379
 H437 H 0.08657 0.72106 0.11535
 H438 H 0.05516 0.71640 0.07422
 H439 H 0.15539 0.71870 0.15457
 H440 H 0.19187 0.72819 0.18487
 H441 H 0.16096 0.79340 0.21888
 H442 H 0.12500 0.78429 0.18789
 C443 C 0.56052 0.21758 0.58257
 C444 C 0.57931 0.21874 0.60506
 C445 C 0.58574 0.24027 0.61954
 C446 C 0.57292 0.26075 0.61153
 C447 C 0.55432 0.25969 0.58868
 C448 C 0.54804 0.23811 0.57376
 N449 N 0.60609 0.24118 0.64063
 N450 N 0.61126 0.25949 0.65754
 C451 C 0.63240 0.26131 0.67684
 C452 C 0.63593 0.28150 0.69635
 C453 C 0.65741 0.28529 0.71236
 C454 C 0.67577 0.26891 0.70903
 C455 C 0.67201 0.24824 0.69037
 C456 C 0.65040 0.24437 0.67451
 H457 H 0.55619 0.20071 0.57139
 H458 H 0.58910 0.20286 0.61088
 H459 H 0.57766 0.27766 0.62223
 H460 H 0.54502 0.27579 0.58245
 H461 H 0.62226 0.29472 0.69820
 H462 H 0.66006 0.30147 0.72633
 H463 H 0.68610 0.23564 0.68694
 H464 H 0.64814 0.22871 0.65934
 C465 C 0.71127 0.05695 0.90687
 C466 C 0.71114 0.07740 0.88709
 C467 C 0.72709 0.09569 0.89349
 C468 C 0.74380 0.09293 0.91910
 C469 C 0.74437 0.07228 0.93822
 C470 C 0.72790 0.05424 0.93262
 N471 N 0.72622 0.11692 0.87397
 N472 N 0.73364 0.13632 0.88610
 C473 C 0.73466 0.15791 0.86750
 C474 C 0.73857 0.17890 0.88501
 C475 C 0.74252 0.19998 0.86785
 C476 C 0.74295 0.20037 0.83273
 C477 C 0.73827 0.17945 0.81502
 C478 C 0.73393 0.15832 0.83233
 H479 H 0.69844 0.04323 0.90201
 H480 H 0.69826 0.07925 0.86731
 H481 H 0.75648 0.10673 0.92422
 H482 H 0.75729 0.07068 0.95800
 H483 H 0.73928 0.17876 0.91209
 H484 H 0.74631 0.21587 0.88197
 H485 H 0.73900 0.17928 0.78795
 H486 H 0.73118 0.14220 0.81832
 C487 C 0.21448 0.55396 0.41005
 C488 C 0.21478 0.57390 0.38924
 C489 C 0.23111 0.59199 0.39470
 C490 C 0.24783 0.58948 0.42036
 C491 C 0.24798 0.56930 0.44050
 C492 C 0.23108 0.55153 0.43589
 N493 N 0.23050 0.61286 0.37438
 N494 N 0.23797 0.63243 0.38589
 C495 C 0.23908 0.65374 0.36665
 C496 C 0.24249 0.67503 0.38363
 C497 C 0.24623 0.69594 0.36597
 C498 C 0.24699 0.69587 0.33085
 C499 C 0.24294 0.67461 0.31364
 C500 C 0.23876 0.65364 0.33145
 H501 H 0.20132 0.54044 0.40594
 H502 H 0.20187 0.57556 0.36946
 H503 H 0.26079 0.60313 0.42478
 H504 H 0.26089 0.56791 0.46033
 H505 H 0.24287 0.67528 0.41072
 H506 H 0.24953 0.71208 0.37973
 H507 H 0.24394 0.67409 0.28659
 H508 H 0.23641 0.63728 0.31786
 C509 C 0.29568 0.93435 0.92434
 C510 C 0.29584 0.91438 0.90374
 C511 C 0.27476 0.90454 0.89239
 C512 C 0.25339 0.91488 0.90197
 C513 C 0.25314 0.93449 0.92318
 C514 C 0.27429 0.94449 0.93481
 N515 N 0.27531 0.88344 0.87261
 N516 N 0.25762 0.87704 0.85538
 C517 C 0.25680 0.85520 0.83738
 C518 C 0.23826 0.85142 0.81507
 C519 C 0.23509 0.82937 0.80017
 C520 C 0.25034 0.81059 0.80761
 C521 C 0.26941 0.81453 0.82921
 C522 C 0.27277 0.83678 0.84381
 H523 H 0.31236 0.94142 0.93273
 H524 H 0.31243 0.90650 0.89667
 H525 H 0.23684 0.90743 0.89375
 H526 H 0.23631 0.94173 0.93049
 H527 H 0.22577 0.86542 0.81009
 H528 H 0.22010 0.82661 0.78390
 H529 H 0.28105 0.80015 0.83588
 H530 H 0.28709 0.83924 0.86130
 C531 C 0.78837 0.42898 0.42832
 C532 C 0.78891 0.40815 0.40950
 C533 C 0.76900 0.40069 0.39188
 C534 C 0.74847 0.41445 0.39308
 C535 C 0.74779 0.43506 0.41226
 C536 C 0.76768 0.44247 0.43026
 N537 N 0.76956 0.37858 0.37445
 N538 N 0.75304 0.37245 0.35481
 C539 C 0.75219 0.34985 0.33882
 C540 C 0.73409 0.34541 0.31601
 C541 C 0.73097 0.32283 0.30271
 C542 C 0.74596 0.30429 0.31208
 C543 C 0.76459 0.30884 0.33421
 C544 C 0.76779 0.33154 0.34739
 H545 H 0.80393 0.43418 0.44205
 H546 H 0.80480 0.39767 0.40892
 H547 H 0.73278 0.40899 0.37986
 H548 H 0.73163 0.44511 0.41317
 H549 H 0.72189 0.35932 0.30939
 H550 H 0.71633 0.31958 0.28600
 H551 H 0.77604 0.29464 0.34220
 H552 H 0.78181 0.33452 0.36521
 C553 C 0.05952 0.28192 0.92798
 C554 C 0.07897 0.28183 0.90665
 C555 C 0.08745 0.26062 0.89350
 C556 C 0.07608 0.23935 0.90172
 C557 C 0.05691 0.23930 0.92356
 C558 C 0.04846 0.26058 0.93729
 N559 N 0.10828 0.26090 0.87338
 N560 N 0.11424 0.24318 0.85577
 C561 C 0.13576 0.24234 0.83728
 C562 C 0.13914 0.22387 0.81462
 C563 C 0.16073 0.22099 0.79863
 C564 C 0.17943 0.23649 0.80528
 C565 C 0.17594 0.25535 0.82754
 C566 C 0.15416 0.25842 0.84322
 H567 H 0.05364 0.29869 0.93793
 H568 H 0.08762 0.29834 0.90059
 H569 H 0.08242 0.22268 0.89202
 H570 H 0.04892 0.22252 0.92992
 H571 H 0.12517 0.21128 0.81001
 H572 H 0.16314 0.20615 0.78189
 H573 H 0.19030 0.26715 0.83364
 H574 H 0.15202 0.27268 0.86097
 C575 C 0.56485 0.78433 0.42426
 C576 C 0.58399 0.78379 0.40241
 C577 C 0.59007 0.76288 0.38596
 C578 C 0.57654 0.74243 0.39130
 C579 C 0.55759 0.74284 0.41354
 C580 C 0.55167 0.76375 0.43047
 N581 N 0.61077 0.76248 0.36560
 N582 N 0.61551 0.74512 0.34658
 C583 C 0.63688 0.74374 0.32783
 C584 C 0.63956 0.72540 0.30473
 C585 C 0.66095 0.72206 0.28836
 C586 C 0.68010 0.73699 0.29500
 C587 C 0.67732 0.75569 0.31771
 C588 C 0.65579 0.75919 0.33384
 H589 H 0.56082 0.80067 0.43707
 H590 H 0.59434 0.79963 0.39864
 H591 H 0.58098 0.72600 0.37902
 H592 H 0.54776 0.72673 0.41779
 H593 H 0.62519 0.71330 0.30006
 H594 H 0.66283 0.70735 0.27127
 H595 H 0.69204 0.76705 0.32377
 H596 H 0.65421 0.77334 0.35188
 C597 C 0.94278 0.72076 0.92082
 C598 C 0.92422 0.71981 0.89783
 C599 C 0.91902 0.73935 0.87765
 C600 C 0.93299 0.75976 0.88013
 C601 C 0.95131 0.76085 0.90334
 C602 C 0.95619 0.74150 0.92428
 N603 N 0.89853 0.73884 0.85676
 N604 N 0.89411 0.75546 0.83622
 C605 C 0.87288 0.75663 0.81708
 C606 C 0.87003 0.77537 0.79459
 C607 C 0.84846 0.77912 0.77883
 C608 C 0.82939 0.76410 0.78529
 C609 C 0.83243 0.74473 0.80686
 C610 C 0.85410 0.74094 0.82259
 H611 H 0.94606 0.70561 0.93671
 H612 H 0.91354 0.70402 0.89629
 H613 H 0.92930 0.77516 0.86494
 H614 H 0.96139 0.77702 0.90532
 H615 H 0.88430 0.78766 0.79032
 H616 H 0.84634 0.79431 0.76259
 H617 H 0.81778 0.73322 0.81259
 H618 H 0.85584 0.72644 0.84010
 C619 C 0.43644 0.21132 0.43014
 C620 C 0.41731 0.21102 0.40815
 C621 C 0.41204 0.23086 0.38865
 C622 C 0.42645 0.25098 0.39089
 C623 C 0.44539 0.25143 0.41315
 C624 C 0.45042 0.23170 0.43332
 N625 N 0.39116 0.23083 0.36858
 N626 N 0.38666 0.24751 0.34818
 C627 C 0.36510 0.24891 0.32984
 C628 C 0.36221 0.26736 0.30689
 C629 C 0.34049 0.27119 0.29160
 C630 C 0.32128 0.25656 0.29906
 C631 C 0.32432 0.23754 0.32123
 C632 C 0.34615 0.23364 0.33643
 H633 H 0.43981 0.19589 0.44544
 H634 H 0.40629 0.19545 0.40678
 H635 H 0.42268 0.26661 0.37621
 H636 H 0.45587 0.26735 0.41495
 H637 H 0.37661 0.27933 0.30178
 H638 H 0.33838 0.28612 0.27489
 H639 H 0.30958 0.22636 0.32778
 H640 H 0.34792 0.21938 0.35431
 C641 C 0.75883 0.95364 0.90281
 C642 C 0.76360 0.93589 0.87960
 C643 C 0.74713 0.91812 0.87337
 C644 C 0.72521 0.91888 0.88951
 C645 C 0.72024 0.93690 0.91241
 C646 C 0.73726 0.95412 0.91984
 N647 N 0.75372 0.89893 0.85210
 N648 N 0.74140 0.88029 0.84923
 C649 C 0.74890 0.86085 0.82898
 C650 C 0.73632 0.83962 0.83030
 C651 C 0.74422 0.81979 0.81281
 C652 C 0.76465 0.82108 0.79322
 C653 C 0.77708 0.84246 0.79149
 C654 C 0.76929 0.86222 0.80921
 H655 H 0.77221 0.96677 0.90788
 H656 H 0.78052 0.93550 0.86728
 H657 H 0.71216 0.90533 0.88495
 H658 H 0.70351 0.93682 0.92526
 H659 H 0.72071 0.83828 0.84564
 H660 H 0.73463 0.80333 0.81494
 H661 H 0.79298 0.84373 0.77674
 H662 H 0.77936 0.87841 0.80783
 C663 C 0.25843 0.44929 0.41113
 C664 C 0.26230 0.43098 0.38847
 C665 C 0.24501 0.41391 0.38284
 C666 C 0.22321 0.41592 0.39909
 C667 C 0.21915 0.43451 0.42144
 C668 C 0.23695 0.45106 0.42822
 N669 N 0.25059 0.39416 0.36199
 N670 N 0.23741 0.37608 0.35970
 C671 C 0.24390 0.35607 0.33985
 C672 C 0.23061 0.33533 0.34224
 C673 C 0.23763 0.31491 0.32535
 C674 C 0.25785 0.31511 0.30525
 C675 C 0.27093 0.33603 0.30233
 C676 C 0.26403 0.35637 0.31948
 H677 H 0.27241 0.46187 0.41570
 H678 H 0.27914 0.42962 0.37606
 H679 H 0.20953 0.40294 0.39500
 H680 H 0.20246 0.43543 0.43434
 H681 H 0.21518 0.33481 0.35804
 H682 H 0.22756 0.29881 0.32844
 H683 H 0.28668 0.33648 0.28718
 H684 H 0.27463 0.37218 0.31724
 C685 C 0.24251 0.04694 0.91315
 C686 C 0.23869 0.06507 0.89020
 C687 C 0.25712 0.07968 0.88020
 C688 C 0.27994 0.07521 0.89206
 C689 C 0.28398 0.05660 0.91454
 C690 C 0.26514 0.04266 0.92617
 N691 N 0.25168 0.09964 0.85965
 N692 N 0.26587 0.11668 0.85488
 C693 C 0.25904 0.13694 0.83567
 C694 C 0.27286 0.15737 0.83703
 C695 C 0.26523 0.17821 0.82165
 C696 C 0.24386 0.17873 0.80405
 C697 C 0.23038 0.15802 0.80180
 C698 C 0.23787 0.13730 0.81750
 H699 H 0.22755 0.03649 0.92100
 H700 H 0.22106 0.06833 0.88111
 H701 H 0.29448 0.08629 0.88442
 H702 H 0.30164 0.05383 0.92383
 H703 H 0.28910 0.15739 0.85115
 H704 H 0.27569 0.19410 0.82421
 H705 H 0.21380 0.15807 0.78848
 H706 H 0.22687 0.12173 0.81603
 C707 C 0.74367 0.54251 0.39099
 C708 C 0.74119 0.56039 0.36722
 C709 C 0.75801 0.57828 0.36468
 C710 C 0.77824 0.57733 0.38487
 C711 C 0.78094 0.55917 0.40841
 C712 C 0.76328 0.54205 0.41235
 N713 N 0.75296 0.59811 0.34366
 N714 N 0.76558 0.61666 0.34331
 C715 C 0.75905 0.63696 0.32402
 C716 C 0.77223 0.65771 0.32721
 C717 C 0.76475 0.67857 0.31177
 C718 C 0.74408 0.67884 0.29257
 C719 C 0.73121 0.65789 0.28861
 C720 C 0.73863 0.63708 0.30415
 H721 H 0.72987 0.52943 0.39333
 H722 H 0.72555 0.56095 0.35179
 H723 H 0.79151 0.59098 0.38325
 H724 H 0.79617 0.55923 0.42465
 H725 H 0.78785 0.65791 0.34267
 H726 H 0.77471 0.69466 0.31556
 H727 H 0.71514 0.65782 0.27408
 H728 H 0.72808 0.62129 0.30137
 C729 C 0.06086 0.76812 0.91809
 C730 C 0.07985 0.76858 0.89619
 C731 C 0.09290 0.74818 0.89021
 C732 C 0.08631 0.72685 0.90559
 C733 C 0.06689 0.72619 0.92710
 C734 C 0.05415 0.74696 0.93410
 N735 N 0.11317 0.75009 0.86933
 N736 N 0.12872 0.73405 0.86704
 C737 C 0.14912 0.73760 0.84670
 C738 C 0.16879 0.72314 0.85143
 C739 C 0.18989 0.72824 0.83500
 C740 C 0.19136 0.74760 0.81306
 C741 C 0.17134 0.76142 0.80723
 C742 C 0.15040 0.75652 0.82392
 H743 H 0.05149 0.78448 0.92245
 H744 H 0.08481 0.78509 0.88441
 H745 H 0.09618 0.71083 0.90113
 H746 H 0.06227 0.70956 0.93883
 H747 H 0.16808 0.70860 0.86902
 H748 H 0.20528 0.71761 0.84023
 H749 H 0.17217 0.77649 0.79053
 H750 H 0.13541 0.76789 0.81968
 C751 C 0.55163 0.25011 0.41235
 C752 C 0.57052 0.25073 0.39025
 C753 C 0.58768 0.23313 0.39122
 C754 C 0.58517 0.21408 0.41359
 C755 C 0.56595 0.21322 0.43545
 C756 C 0.54935 0.23159 0.43555
 N757 N 0.60805 0.23612 0.37077
 N758 N 0.62612 0.22299 0.37289
 C759 C 0.64662 0.22779 0.35323
 C760 C 0.66718 0.21489 0.35920
 C761 C 0.68808 0.22094 0.34290
 C762 C 0.68855 0.23985 0.32012
 C763 C 0.66781 0.25233 0.31343
 C764 C 0.64699 0.24635 0.32977
 H765 H 0.53898 0.26439 0.41169
 H766 H 0.57227 0.26545 0.37311
 H767 H 0.59827 0.20025 0.41468
 H768 H 0.56459 0.19879 0.45318
 H769 H 0.66718 0.20067 0.37735
 H770 H 0.70402 0.21134 0.34870
 H771 H 0.66790 0.26705 0.29608
 H772 H 0.63137 0.25663 0.32469
 C773 C 0.93195 0.23772 0.94227
 C774 C 0.91095 0.23703 0.92447
 C775 C 0.90452 0.25580 0.90374
 C776 C 0.91946 0.27547 0.90072
 C777 C 0.94034 0.27649 0.91935
 C778 C 0.94668 0.25762 0.94043
 N779 N 0.88198 0.25492 0.88811
 N780 N 0.87664 0.26644 0.86185
 C781 C 0.85323 0.26488 0.84897
 C782 C 0.84938 0.26437 0.81437
 C783 C 0.82682 0.26001 0.80175
 C784 C 0.80774 0.25707 0.82368
 C785 C 0.81159 0.25865 0.85830
 C786 C 0.83413 0.26233 0.87084
 H787 H 0.93620 0.22303 0.95857
 H788 H 0.89945 0.22189 0.92712
 H789 H 0.91458 0.29028 0.88503
 H790 H 0.95135 0.29205 0.91762
 H791 H 0.86401 0.26618 0.79727
 H792 H 0.82434 0.25838 0.77498
 H793 H 0.79716 0.25640 0.87567
 H794 H 0.83676 0.26285 0.89767
 C795 C 0.43477 0.73980 0.44157
 C796 C 0.41362 0.73847 0.42418
 C797 C 0.40681 0.75668 0.40270
 C798 C 0.42148 0.77644 0.39856
 C799 C 0.44251 0.77812 0.41674
 C800 C 0.44927 0.75978 0.43850
 N801 N 0.38425 0.75506 0.38724
 N802 N 0.37856 0.76613 0.36073
 C803 C 0.35521 0.76380 0.34787
 C804 C 0.35134 0.76360 0.31327
 C805 C 0.32895 0.75856 0.30055
 C806 C 0.31001 0.75458 0.32241
 C807 C 0.31383 0.75584 0.35707
 C808 C 0.33623 0.76022 0.36969
 H809 H 0.43935 0.72552 0.45841
 H810 H 0.40234 0.72325 0.42768
 H811 H 0.41632 0.79082 0.38225
 H812 H 0.45335 0.79374 0.41407
 H813 H 0.36587 0.76621 0.29620
 H814 H 0.32651 0.75722 0.27374
 H815 H 0.29951 0.75281 0.37439
 H816 H 0.33884 0.76050 0.39653
 C817 C 0.29639 0.93429 0.07269
 C818 C 0.29550 0.91509 0.09485
 C819 C 0.27582 0.91162 0.11532
 C820 C 0.25744 0.92815 0.11439
 C821 C 0.25818 0.94707 0.09210
 C822 C 0.27738 0.95004 0.07047
 N823 N 0.27382 0.89037 0.13470
 N824 N 0.25627 0.88697 0.15381
 C825 C 0.25234 0.86539 0.17163
 C826 C 0.23284 0.86395 0.19279
 C827 C 0.22691 0.84260 0.20811
 C828 C 0.24049 0.82233 0.20250
 C829 C 0.26031 0.82380 0.18170
 C830 C 0.26628 0.84525 0.16643
 H831 H 0.31134 0.93613 0.05617
 H832 H 0.30977 0.90247 0.09526
 H833 H 0.24203 0.92596 0.12994
 H834 H 0.24336 0.95904 0.09110
 H835 H 0.22186 0.87931 0.19673
 H836 H 0.21147 0.84174 0.22387
 H837 H 0.27078 0.80822 0.17674
 H838 H 0.28130 0.84591 0.14987
 C839 C 0.74134 0.45511 0.58689
 C840 C 0.73860 0.43805 0.61175
 C841 C 0.75570 0.42068 0.61650
 C842 C 0.77636 0.42129 0.59727
 C843 C 0.77934 0.43871 0.57269
 C844 C 0.76152 0.45534 0.56671
 N845 N 0.75067 0.40182 0.63922
 N846 N 0.76327 0.38333 0.64143
 C847 C 0.75670 0.36418 0.66293
 C848 C 0.76921 0.34293 0.66126
 C849 C 0.76165 0.32317 0.67933
 C850 C 0.74161 0.32456 0.69969
 C851 C 0.72944 0.34602 0.70205
 C852 C 0.73691 0.36570 0.68387
 H853 H 0.72742 0.46786 0.58295
 H854 H 0.72264 0.43774 0.62644
 H855 H 0.78985 0.40803 0.60064
 H856 H 0.79501 0.43849 0.55736
 H857 H 0.78436 0.34147 0.64505
 H858 H 0.77105 0.30664 0.67684
 H859 H 0.71387 0.34737 0.71748
 H860 H 0.72691 0.38190 0.68558
 C861 C 0.70298 0.06081 0.06944
 C862 C 0.70360 0.07945 0.09249
 C863 C 0.72257 0.08182 0.11465
 C864 C 0.74038 0.06466 0.11458
 C865 C 0.73991 0.04629 0.09144
 C866 C 0.72156 0.04451 0.06808
 N867 N 0.72463 0.10269 0.13474
 N868 N 0.74178 0.10538 0.15484
 C869 C 0.74582 0.12667 0.17322
 C870 C 0.76513 0.12764 0.19488
 C871 C 0.77133 0.14882 0.21044
 C872 C 0.75818 0.16936 0.20460
 C873 C 0.73851 0.16833 0.18342
 C874 C 0.73228 0.14709 0.16790
 H875 H 0.68869 0.05986 0.05159
 H876 H 0.68978 0.09257 0.09223
 H877 H 0.75521 0.06598 0.13145
 H878 H 0.75436 0.03385 0.09114
 H879 H 0.77581 0.11207 0.19891
 H880 H 0.78667 0.14935 0.22646
 H881 H 0.72839 0.18412 0.17825
 H882 H 0.71743 0.14680 0.15098
 C883 C 0.20640 0.56239 0.57234
 C884 C 0.20735 0.58182 0.59403
 C885 C 0.22669 0.58504 0.61526
 C886 C 0.24466 0.56804 0.61559
 C887 C 0.24386 0.54886 0.59378
 C888 C 0.22502 0.54612 0.57139
 N889 N 0.22882 0.60647 0.63415
 N890 N 0.24602 0.60976 0.65398
 C891 C 0.24998 0.63154 0.67126
 C892 C 0.26904 0.63301 0.69329
 C893 C 0.27504 0.65454 0.70806
 C894 C 0.26197 0.67494 0.70101
 C895 C 0.24258 0.67343 0.67934
 C896 C 0.23653 0.65183 0.66466
 H897 H 0.19173 0.56074 0.55523
 H898 H 0.19341 0.59481 0.59347
 H899 H 0.25980 0.57004 0.63175
 H900 H 0.25837 0.53651 0.59376
 H901 H 0.27966 0.61754 0.69832
 H902 H 0.29017 0.65542 0.72446
 H903 H 0.23254 0.68910 0.67319
 H904 H 0.22187 0.65116 0.64742
 C905 C 0.93201 0.76983 0.05215
 C906 C 0.91094 0.77083 0.06971
 C907 C 0.90526 0.75333 0.09296
 C908 C 0.92091 0.73453 0.09853
 C909 C 0.94189 0.73318 0.08026
 C910 C 0.94759 0.75089 0.05693
 N911 N 0.88303 0.75482 0.10933
 N912 N 0.87806 0.74389 0.13623
 C913 C 0.85512 0.74616 0.15048
 C914 C 0.85206 0.74364 0.18507
 C915 C 0.83014 0.74811 0.19960
 C916 C 0.81084 0.75434 0.17946
 C917 C 0.81382 0.75601 0.14470
 C918 C 0.83576 0.75210 0.13035
 H919 H 0.93579 0.78359 0.03408
 H920 H 0.89892 0.78530 0.06514
 H921 H 0.91666 0.72071 0.11627
 H922 H 0.95359 0.71838 0.08431
 H923 H 0.86687 0.73918 0.20087
 H924 H 0.82832 0.74717 0.22654
 H925 H 0.79921 0.76087 0.12874
 H926 H 0.83768 0.75395 0.10352
 C927 C 0.43206 0.26281 0.56165
 C928 C 0.41133 0.26529 0.57970
 C929 C 0.40449 0.24802 0.60266
 C930 C 0.41869 0.22798 0.60750
 C931 C 0.43931 0.22517 0.58871
 C932 C 0.44613 0.24261 0.56559
 N933 N 0.38248 0.25094 0.61924
 N934 N 0.37695 0.24034 0.64618
 C935 C 0.35420 0.24392 0.66054
 C936 C 0.35108 0.24158 0.69513
 C937 C 0.32933 0.24682 0.70967
 C938 C 0.31020 0.25359 0.68954
 C939 C 0.31328 0.25530 0.65479
 C940 C 0.33509 0.25065 0.64043
 H941 H 0.43669 0.27643 0.54377
 H942 H 0.40042 0.28070 0.57567
 H943 H 0.41352 0.21432 0.62498
 H944 H 0.44981 0.20940 0.59211
 H945 H 0.36570 0.23653 0.71092
 H946 H 0.32747 0.24587 0.73660
 H947 H 0.29882 0.26057 0.63881
 H948 H 0.33706 0.25240 0.61360
 C949 C 0.05136 0.23961 0.09391
 C950 C 0.07037 0.23773 0.11574
 C951 C 0.08732 0.25555 0.11712
 C952 C 0.08446 0.27603 0.09755
 C953 C 0.06514 0.27813 0.07602
 C954 C 0.04877 0.25963 0.07342
 N955 N 0.10788 0.25152 0.13687
 N956 N 0.12581 0.26491 0.13588
 C957 C 0.14658 0.25941 0.15458
 C958 C 0.16694 0.27279 0.14935
 C959 C 0.18805 0.26636 0.16478
 C960 C 0.18893 0.24660 0.18604
 C961 C 0.16842 0.23353 0.19190
 C962 C 0.14739 0.23987 0.17635
 H963 H 0.03890 0.22517 0.09259
 H964 H 0.07241 0.22191 0.13073
 H965 H 0.09737 0.29006 0.09833
 H966 H 0.06355 0.29370 0.06041
 H967 H 0.16660 0.28776 0.13246
 H968 H 0.20381 0.27643 0.15958
 H969 H 0.16883 0.21815 0.20806
 H970 H 0.13191 0.22921 0.18079
 C971 C 0.55742 0.74576 0.58810
 C972 C 0.57723 0.74430 0.60850
 C973 C 0.59420 0.76213 0.60787
 C974 C 0.59056 0.78224 0.58781
 C975 C 0.57046 0.78392 0.56769
 C976 C 0.55406 0.76536 0.56702
 N977 N 0.61552 0.75841 0.62606
 N978 N 0.63330 0.77191 0.62352
 C979 C 0.65478 0.76664 0.64066
 C980 C 0.67465 0.78058 0.63459
 C981 C 0.69633 0.77452 0.64867
 C982 C 0.69829 0.75453 0.66931
 C983 C 0.67831 0.74082 0.67593
 C984 C 0.65670 0.74683 0.66180
 H985 H 0.54497 0.73129 0.58824
 H986 H 0.57985 0.72877 0.62390
 H987 H 0.60348 0.79627 0.58703
 H988 H 0.56829 0.79915 0.55156
 H989 H 0.67345 0.79578 0.61818
 H990 H 0.71167 0.78511 0.64299
 H991 H 0.67956 0.72526 0.69163
 H992 H 0.64164 0.73570 0.66685
   
