data_POSCAR
  _audit_creation_date              2014-09-24
  _audit_creation_method            'ToBaCCo'
  _symmetry_space_group_name_H-M    'P1'
  _symmetry_Int_Tables_number       1
  _symmetry_cell_setting            triclinic
  loop_
  _symmetry_equiv_pos_as_xyz
 x,y,z
_cell_length_a 40.9862
_cell_length_b 40.9122
_cell_length_c 40.8019
_cell_angle_alpha 90.027400
_cell_angle_beta 90.010200
_cell_angle_gamma 89.943500
loop_
  _atom_site_label
  _atom_site_type_symbol
  _atom_site_fract_x
  _atom_site_fract_y
  _atom_site_fract_z
C1 C 0.19142 1.23264 0.19103
 N2 N 0.17746 1.21942 0.21810
 C3 C 0.19068 1.19241 0.23213
 N4 N 0.21769 1.17846 0.21892
 C5 C 0.23166 1.19168 0.19185
 N6 N 0.21843 1.21868 0.17782
 C7 C 0.81053 0.76684 0.19169
 N8 N 0.78324 0.78005 0.17828
 C9 C 0.76949 0.80701 0.19189
 N10 N 0.78321 0.82096 0.21875
 C11 C 0.81050 0.80775 0.23216
 N12 N 0.82424 0.78078 0.21854
 C13 C 0.80858 1.23179 -0.19026
 N14 N 0.82206 1.21836 -0.21751
 C15 C 0.80849 1.19139 -0.23125
 N16 N 0.78161 1.17767 -0.21758
 C17 C 0.76813 1.19110 -0.19034
 N18 N 0.78170 1.21806 -0.17660
 C19 C 0.19025 0.76902 -0.19305
 N20 N 0.17657 0.78302 -0.21989
 C21 C 0.19012 0.81019 -0.23321
 N22 N 0.21719 0.82351 -0.21952
 C23 C 0.23087 0.80952 -0.19268
 N24 N 0.21731 0.78235 -0.17936
 C25 C 0.54995 1.04363 -0.00884
 H26 H 0.55057 1.04360 0.01767
 C27 C 0.57217 1.06260 -0.02642
 H28 H 0.58992 1.07737 -0.01347
 C29 C 0.52670 1.02372 -0.05822
 H30 H 0.50940 1.00804 -0.07051
 C31 C 0.54853 1.04232 -0.07675
 H32 H 0.54780 1.04114 -0.10326
 N33 N 0.52769 1.02485 -0.02488
 C34 C 0.45036 1.00868 0.04666
 H35 H 0.44965 0.98225 0.04674
 C36 C 0.42820 1.02642 0.06563
 H37 H 0.41042 1.01366 0.08051
 C38 C 0.47374 1.05771 0.02642
 H39 H 0.49104 1.06981 0.01059
 C40 C 0.45198 1.07639 0.04500
 H41 H 0.45277 1.10282 0.04367
 Zn42 Zn 0.50005 0.99838 0.00106
 N43 N 0.47264 1.02447 0.02770
 C44 C 0.52639 0.97279 0.06040
 N45 N 0.52741 0.97161 0.02706
 C46 C 0.54957 0.95262 0.01109
 C47 C 0.57167 0.93352 0.02872
 C48 C 0.54811 0.95407 0.07899
 C49 C 0.45032 0.98875 -0.04459
 C50 C 0.42810 0.97134 -0.06375
 C51 C 0.45153 0.92103 -0.04345
 C52 C 0.47336 0.93939 -0.02466
 N53 N 0.47247 0.97264 -0.02570
 H54 H 0.50920 0.98864 0.07265
 H55 H 0.55021 0.95262 -0.01542
 H56 H 0.58936 0.91862 0.01581
 H57 H 0.54739 0.95532 0.10550
 H58 H 0.44978 1.01519 -0.04449
 H59 H 0.41043 0.98436 -0.07859
 H60 H 0.45217 0.89458 -0.04234
 H61 H 0.49057 0.92703 -0.00890
 C62 C 0.42898 1.06057 0.06471
 C63 C 0.57148 1.06187 -0.06067
 C64 C 0.42867 0.93719 -0.06310
 C65 C 0.57098 0.93433 0.06297
 C66 C -0.00931 0.54953 1.04466
 H67 H 0.01707 0.55024 1.04448
 C68 C -0.02681 0.57177 1.06377
 H69 H -0.01391 0.58963 1.07849
 C70 C -0.05847 0.52603 1.02500
 H71 H -0.07071 0.50863 1.00935
 C72 C -0.07691 0.54788 1.04374
 H73 H -0.10331 0.54705 1.04271
 N74 N -0.02528 0.52714 1.02593
 C75 C 0.04603 0.44975 1.00924
 H76 H 0.04594 0.44900 0.98273
 C77 C 0.06508 0.42760 1.02689
 H78 H 0.07985 0.40978 1.01399
 C79 C 0.02616 0.47323 1.05854
 H80 H 0.01045 0.49056 1.07078
 C81 C 0.04483 0.45147 1.07713
 H82 H 0.04369 0.45231 1.10365
 Zn83 Zn 0.00052 0.49952 0.99922
 N84 N 0.02721 0.47208 1.02520
 C85 C 0.05944 0.52594 0.97338
 N86 N 0.02625 0.52697 0.97235
 C87 C 0.01025 0.54922 0.95346
 C88 C 0.02771 0.57140 0.93431
 C89 C 0.07785 0.54774 0.95461
 C90 C -0.04479 0.44959 0.98959
 C91 C -0.06384 0.42732 0.97214
 C92 C -0.04393 0.45096 0.92168
 C93 C -0.02524 0.47284 0.94009
 N94 N -0.02613 0.47187 0.97344
 H95 H 0.07172 0.50868 0.98916
 H96 H -0.01614 0.54987 0.95358
 H97 H 0.01478 0.58916 0.91949
 H98 H 0.10425 0.54700 0.95574
 H99 H -0.04457 0.44900 1.01610
 H100 H -0.07849 0.40955 0.98519
 H101 H -0.04293 0.45166 0.89516
 H102 H -0.00967 0.49015 0.92770
 C103 C 0.06440 0.42843 1.06113
 C104 C -0.06090 0.57097 1.06323
 C105 C -0.06334 0.42797 0.93789
 C106 C 0.06180 0.57069 0.93497
 C107 C 1.04420 -0.00801 0.54970
 H108 H 1.04419 0.01842 0.55041
 C109 C 1.06308 -0.02567 0.57200
 H110 H 1.07781 -0.01285 0.58992
 C111 C 1.02430 -0.05712 0.52611
 H112 H 1.00865 -0.06929 0.50866
 C113 C 1.04281 -0.07572 0.54802
 H114 H 1.04159 -0.10216 0.54719
 N115 N 1.02546 -0.02388 0.52723
 C116 C 1.00924 0.04767 0.44972
 H117 H 0.98285 0.04770 0.44896
 C118 C 1.02689 0.06668 0.42756
 H119 H 1.01412 0.08154 0.40971
 C120 C 1.05823 0.02753 0.47326
 H121 H 1.07034 0.01174 0.49063
 C122 C 1.07682 0.04616 0.45148
 H123 H 1.10322 0.04488 0.45233
 Zn124 Zn 0.99904 0.00209 0.49950
 N125 N 1.02505 0.02874 0.47209
 C126 C 0.97353 0.06122 0.52609
 N127 N 0.97228 0.02797 0.52700
 C128 C 0.95329 0.01205 0.54919
 C129 C 0.93429 0.02964 0.57146
 C130 C 0.95492 0.07976 0.54797
 C131 C 0.98961 -0.04321 0.44934
 C132 C 0.97234 -0.06238 0.42698
 C133 C 0.92200 -0.04252 0.45061
 C134 C 0.94023 -0.02371 0.47258
 N135 N 0.97343 -0.02454 0.47166
 H136 H 0.98938 0.07343 0.50888
 H137 H 0.95323 -0.01439 0.54976
 H138 H 0.91942 0.01677 0.58920
 H139 H 0.95626 0.10619 0.54735
 H140 H 1.01600 -0.04296 0.44879
 H141 H 0.98542 -0.07706 0.40919
 H142 H 0.89560 -0.04160 0.45130
 H143 H 0.92781 -0.00812 0.48993
 C144 C 1.06098 0.06584 0.42841
 C145 C 1.06230 -0.05982 0.57119
 C146 C 0.93825 -0.06197 0.42760
 C147 C 0.93521 0.06380 0.57089
 C148 C 0.11604 0.36003 1.11292
 C149 C 0.10554 0.35051 1.14456
 C150 C 0.12209 0.32501 1.16143
 C151 C 0.14904 0.30920 1.14656
 C152 C 0.16002 0.31925 1.11525
 C153 C 0.14346 0.34474 1.09837
 C154 C 0.15474 0.35421 1.06699
 C155 C 0.18164 0.33897 1.05272
 C156 C 0.19784 0.31407 1.06923
 C157 C 0.18726 0.30421 1.10013
 C158 C 0.11102 0.31577 1.19295
 C159 C 0.08438 0.33129 1.20741
 C160 C 0.06820 0.35622 1.19091
 C161 C 0.07855 0.36582 1.15984
 C162 C 0.16481 0.28196 1.16300
 C163 C 0.17751 0.25894 1.17634
 C164 C 0.09808 0.38482 1.09493
 C165 C 0.08287 0.40496 1.07969
 H166 H 0.14297 0.37349 1.05321
 H167 H 0.18996 0.34654 1.02872
 H168 H 0.21873 0.30232 1.05804
 H169 H 0.20068 0.28476 1.11203
 H170 H 0.12284 0.29654 1.20677
 H171 H 0.07625 0.32393 1.23154
 H172 H 0.04752 0.36820 1.20225
 H173 H 0.06522 0.38537 1.14801
 C174 C -0.11213 0.63956 1.11523
 C175 C -0.14416 0.64831 1.10559
 C176 C -0.16088 0.67383 1.12227
 C177 C -0.14548 0.69043 1.14851
 C178 C -0.11373 0.68118 1.15862
 C179 C -0.09701 0.65567 1.14193
 C180 C -0.06521 0.64700 1.15234
 C181 C -0.05037 0.66305 1.17852
 C182 C -0.06672 0.68798 1.19485
 C183 C -0.09804 0.69705 1.18511
 C184 C -0.19279 0.68230 1.11206
 C185 C -0.20778 0.66599 1.08612
 C186 C -0.19144 0.64103 1.06983
 C187 C -0.15998 0.63219 1.07933
 C188 C -0.16185 0.71762 1.16445
 C189 C -0.17505 0.74059 1.17740
 C190 C -0.09438 0.61470 1.09711
 C191 C -0.07930 0.59451 1.08180
 H192 H -0.05152 0.62773 1.14044
 H193 H -0.02605 0.65609 1.18618
 H194 H -0.05509 0.70037 1.21517
 H195 H -0.10978 0.71656 1.19861
 H196 H -0.20650 0.70152 1.12401
 H197 H -0.23221 0.67277 1.07864
 H198 H -0.20319 0.62843 1.04970
 H199 H -0.14828 0.61259 1.06593
 C200 C -0.11518 0.35925 0.88679
 C201 C -0.10539 0.35008 0.85480
 C202 C -0.12203 0.32451 0.83815
 C203 C -0.14838 0.30829 0.85359
 C204 C -0.15864 0.31796 0.88528
 C205 C -0.14199 0.34351 0.90194
 C206 C -0.15255 0.35261 0.93369
 C207 C -0.17885 0.33693 0.94855
 C208 C -0.19514 0.31196 0.93226
 C209 C -0.18525 0.30248 0.90100
 C210 C -0.11167 0.31563 0.80628
 C211 C -0.08562 0.33157 0.79126
 C212 C -0.06936 0.35657 0.80753
 C213 C -0.07902 0.36581 0.83895
 C214 C -0.16430 0.28106 0.83730
 C215 C -0.17720 0.25806 0.82415
 C216 C -0.09712 0.38415 0.90450
 C217 C -0.08185 0.40438 0.91954
 H218 H -0.14069 0.37192 0.94733
 H219 H -0.18662 0.34422 0.97284
 H220 H -0.21555 0.29987 0.94391
 H221 H -0.19872 0.28295 0.88930
 H222 H -0.12358 0.29635 0.79262
 H223 H -0.07803 0.32448 0.76686
 H224 H -0.04915 0.36888 0.79576
 H225 H -0.06564 0.38543 0.85060
 C226 C 0.11292 0.63935 0.88315
 C227 C 0.14461 0.64865 0.89332
 C228 C 0.16121 0.67430 0.87679
 C229 C 0.14602 0.69048 0.85017
 C230 C 0.11465 0.68064 0.83949
 C231 C 0.09805 0.65501 0.85604
 C232 C 0.06662 0.64574 0.84505
 C233 C 0.05203 0.66133 0.81845
 C234 C 0.06827 0.68638 0.80227
 C235 C 0.09922 0.69604 0.81256
 C236 C 0.19279 0.68330 0.88753
 C237 C 0.20756 0.66740 0.91384
 C238 C 0.19134 0.64232 0.93000
 C239 C 0.16022 0.63295 0.91998
 C240 C 0.16218 0.71788 0.83445
 C241 C 0.17521 0.74103 0.82172
 C242 C 0.09521 0.61445 0.90118
 C243 C 0.08015 0.59424 0.91643
 H244 H 0.05304 0.62635 0.85682
 H245 H 0.02800 0.65392 0.81036
 H246 H 0.05683 0.69841 0.78161
 H247 H 0.11089 0.71562 0.79915
 H248 H 0.20640 0.70264 0.87571
 H249 H 0.23174 0.67459 0.92172
 H250 H 0.20293 0.63004 0.95042
 H251 H 0.14860 0.61327 0.93328
 C252 C 1.11273 0.11728 0.35985
 C253 C 1.09836 0.14484 0.34458
 C254 C 1.11521 0.16132 0.31902
 C255 C 1.14632 0.15013 0.30887
 C256 C 1.16100 0.12303 0.32464
 C257 C 1.14416 0.10656 0.35022
 C258 C 1.15925 0.07942 0.36550
 C259 C 1.19011 0.06885 0.35580
 C260 C 1.20657 0.08494 0.33078
 C261 C 1.19230 0.11173 0.31529
 C262 C 1.10028 0.18870 0.30400
 C263 C 1.06959 0.19950 0.31395
 C264 C 1.05311 0.18338 0.33894
 C265 C 1.06720 0.15635 0.35415
 C266 C 1.16273 0.16584 0.28157
 C267 C 1.17604 0.17852 0.25850
 C268 C 1.09476 0.09939 0.38470
 C269 C 1.07953 0.08424 0.40489
 H270 H 1.14743 0.06614 0.38511
 H271 H 1.20130 0.04806 0.36776
 H272 H 1.23053 0.07663 0.32334
 H273 H 1.20608 0.12347 0.29600
 H274 H 1.11216 0.20207 0.28449
 H275 H 1.05854 0.22050 0.30222
 H276 H 1.02927 0.19187 0.34658
 H277 H 1.05345 0.14465 0.37350
 C278 C 1.11375 -0.11159 0.63984
 C279 C 1.10329 -0.14316 0.64935
 C280 C 1.11989 -0.16005 0.67482
 C281 C 1.14688 -0.14528 0.69062
 C282 C 1.15777 -0.11399 0.68063
 C283 C 1.14115 -0.09709 0.65517
 C284 C 1.15237 -0.06576 0.64575
 C285 C 1.17926 -0.05154 0.66102
 C286 C 1.19551 -0.06807 0.68591
 C287 C 1.18500 -0.09893 0.69571
 C288 C 1.10886 -0.19151 0.68405
 C289 C 1.08220 -0.20588 0.66852
 C290 C 1.06597 -0.18937 0.64361
 C291 C 1.07627 -0.15836 0.63403
 C292 C 1.16284 -0.16180 0.71774
 C293 C 1.17581 -0.17516 0.74063
 C294 C 1.09580 -0.09363 0.61498
 C295 C 1.08066 -0.07839 0.59477
 H296 H 1.14055 -0.05196 0.62649
 H297 H 1.18752 -0.02757 0.65350
 H298 H 1.21639 -0.05692 0.69769
 H299 H 1.19847 -0.11084 0.71515
 H300 H 1.12073 -0.20533 0.70327
 H301 H 1.07410 -0.22996 0.67587
 H302 H 1.04527 -0.20064 0.63162
 H303 H 1.06289 -0.14650 0.61450
 C304 C 0.88796 -0.11462 0.35880
 C305 C 0.85412 -0.10954 0.35402
 C306 C 0.83749 -0.12647 0.32858
 C307 C 0.85481 -0.14837 0.30808
 C308 C 0.88852 -0.15395 0.31329
 C309 C 0.90514 -0.13702 0.33872
 C310 C 0.93889 -0.14286 0.34333
 C311 C 0.95571 -0.16483 0.32342
 C312 C 0.93945 -0.18140 0.29857
 C313 C 0.90625 -0.17612 0.29345
 C314 C 0.80369 -0.12086 0.32416
 C315 C 0.78679 -0.09918 0.34433
 C316 C 0.80304 -0.08265 0.36921
 C317 C 0.83632 -0.08766 0.37411
 C318 C 0.83824 -0.16450 0.28109
 C319 C 0.82494 -0.17766 0.25827
 C320 C 0.90532 -0.09621 0.38374
 C321 C 0.92011 -0.08070 0.40399
 H322 H 0.95261 -0.13059 0.36236
 H323 H 0.98151 -0.16902 0.32730
 H324 H 0.95263 -0.19845 0.28317
 H325 H 0.89468 -0.18963 0.27383
 H326 H 0.78998 -0.13319 0.30516
 H327 H 0.76093 -0.09521 0.34063
 H328 H 0.78979 -0.06584 0.38481
 H329 H 0.84789 -0.07426 0.39381
 C330 C 0.88444 0.11565 0.64002
 C331 C 0.89954 0.14250 0.65580
 C332 C 0.88308 0.15909 0.68158
 C333 C 0.85162 0.14873 0.69142
 C334 C 0.83619 0.12238 0.67510
 C335 C 0.85266 0.10579 0.64933
 C336 C 0.83684 0.07939 0.63352
 C337 C 0.80562 0.06968 0.64289
 C338 C 0.78952 0.08591 0.66808
 C339 C 0.80452 0.11197 0.68410
 C340 C 0.89876 0.18573 0.69714
 C341 C 0.92980 0.19571 0.68748
 C342 C 0.94589 0.17949 0.66227
 C343 C 0.93106 0.15317 0.64653
 C344 C 0.83558 0.16452 0.71894
 C345 C 0.82265 0.17731 0.74219
 C346 C 0.90200 0.09758 0.61495
 C347 C 0.91695 0.08231 0.59460
 H348 H 0.84836 0.06604 0.61376
 H349 H 0.79386 0.04946 0.63051
 H350 H 0.76527 0.07829 0.67526
 H351 H 0.79099 0.12386 0.70352
 H352 H 0.88721 0.19915 0.71684
 H353 H 0.94142 0.21614 0.69963
 H354 H 0.97000 0.18734 0.65486
 H355 H 0.94453 0.14137 0.62702
 C356 C 0.36053 1.11259 0.11602
 C357 C 0.34537 1.09835 0.14373
 C358 C 0.31989 1.11529 0.16018
 C359 C 0.30970 1.14637 0.14882
 C360 C 0.32536 1.16093 0.12157
 C361 C 0.35086 1.14399 0.10512
 C362 C 0.36603 1.15896 0.07783
 C363 C 0.35629 1.18980 0.06709
 C364 C 0.33135 1.20635 0.08316
 C365 C 0.31597 1.19220 0.11009
 C366 C 0.30498 1.10048 0.18772
 C367 C 0.31497 1.06981 0.19869
 C368 C 0.33988 1.05324 0.18259
 C369 C 0.35499 1.06722 0.15541
 C370 C 0.28247 1.16286 0.16451
 C371 C 0.25947 1.17622 0.17718
 C372 C 0.38534 1.09452 0.09817
 C373 C 0.40549 1.07920 0.08307
 H374 H 0.38558 1.14707 0.06456
 H375 H 0.36817 1.20090 0.04619
 H376 H 0.32388 1.23030 0.07472
 H377 H 0.29673 1.20606 0.12181
 H378 H 0.28553 1.11244 0.20108
 H379 H 0.30332 1.05886 0.21980
 H380 H 0.34755 1.02942 0.19121
 H381 H 0.37428 1.05339 0.14374
 C382 C 0.63989 1.11368 -0.11206
 C383 C 0.64851 1.10420 -0.14430
 C384 C 0.67392 1.12089 -0.16108
 C385 C 0.69054 1.14696 -0.14552
 C386 C 0.68143 1.15689 -0.11355
 C387 C 0.65604 1.14020 -0.09677
 C388 C 0.64750 1.15044 -0.06475
 C389 C 0.66357 1.17646 -0.04975
 C390 C 0.68838 1.19280 -0.06616
 C391 C 0.69732 1.18323 -0.09769
 C392 C 0.68225 1.11085 -0.19321
 C393 C 0.66591 1.08508 -0.20835
 C394 C 0.64106 1.06877 -0.19196
 C395 C 0.63237 1.07811 -0.16029
 C396 C 0.71761 1.16292 -0.16195
 C397 C 0.74047 1.17593 -0.17516
 C398 C 0.61511 1.09559 -0.09427
 C399 C 0.59497 1.08033 -0.07914
 H400 H 0.62832 1.13853 -0.05100
 H401 H 0.65671 1.18399 -0.02526
 H402 H 0.70079 1.21300 -0.05441
 H403 H 0.71675 1.19672 -0.10947
 H404 H 0.70138 1.12281 -0.20697
 H405 H 0.67258 1.07773 -0.23295
 H406 H 0.62845 1.04878 -0.20383
 H407 H 0.61285 1.06472 -0.14854
 C408 C 0.36004 0.88633 -0.11523
 C409 C 0.34433 0.90148 -0.14215
 C410 C 0.31878 0.88496 -0.15888
 C411 C 0.30906 0.85339 -0.14857
 C412 C 0.32527 0.83794 -0.12212
 C413 C 0.35085 0.85445 -0.10541
 C414 C 0.36658 0.83859 -0.07893
 C415 C 0.35732 0.80728 -0.06925
 C416 C 0.33230 0.79113 -0.08558
 C417 C 0.31637 0.80617 -0.11172
 C418 C 0.30332 0.90068 -0.18561
 C419 C 0.31285 0.93182 -0.19555
 C420 C 0.33783 0.94798 -0.17919
 C421 C 0.35347 0.93311 -0.15277
 C422 C 0.28178 0.83728 -0.16453
 C423 C 0.25874 0.82435 -0.17752
 C424 C 0.38493 0.90393 -0.09706
 C425 C 0.40513 0.91890 -0.08171
 H426 H 0.38620 0.85014 -0.06550
 H427 H 0.36962 0.79549 -0.04897
 H428 H 0.32520 0.76682 -0.07797
 H429 H 0.29709 0.79261 -0.12369
 H430 H 0.28379 0.88908 -0.19914
 H431 H 0.30078 0.94347 -0.21606
 H432 H 0.34515 0.97217 -0.18700
 H433 H 0.37280 0.94665 -0.14086
 C434 C 0.63953 0.88267 0.11449
 C435 C 0.65516 0.85559 0.09960
 C436 C 0.68082 0.83914 0.11628
 C437 C 0.69071 0.84989 0.14775
 C438 C 0.67453 0.87645 0.16298
 C439 C 0.64886 0.89289 0.14630
 C440 C 0.63318 0.91950 0.16194
 C441 C 0.64258 0.92957 0.19318
 C442 C 0.66768 0.91350 0.20948
 C443 C 0.68357 0.88724 0.19467
 C444 C 0.69620 0.81225 0.10082
 C445 C 0.68650 0.80190 0.06977
 C446 C 0.66143 0.81799 0.05345
 C447 C 0.64586 0.84455 0.06807
 C448 C 0.71818 0.83430 0.16393
 C449 C 0.74140 0.82168 0.17695
 C450 C 0.61464 0.90064 0.09666
 C451 C 0.59446 0.91585 0.08149
 H452 H 0.61348 0.93273 0.15026
 H453 H 0.63030 0.94995 0.20479
 H454 H 0.67488 0.92142 0.23374
 H455 H 0.70292 0.87548 0.20834
 H456 H 0.71579 0.79891 0.11255
 H457 H 0.69851 0.78127 0.05832
 H458 H 0.65399 0.80986 0.02934
 H459 H 0.62645 0.85625 0.05443
   
