data_POSCAR
  _audit_creation_date              2014-09-24
  _audit_creation_method            'ToBaCCo'
  _symmetry_space_group_name_H-M    'P1'
  _symmetry_Int_Tables_number       1
  _symmetry_cell_setting            triclinic
  loop_
  _symmetry_equiv_pos_as_xyz
 x,y,z
_cell_length_a 46.4031
_cell_length_b 46.4408
_cell_length_c 35.5569
_cell_angle_alpha 90.029300
_cell_angle_beta 90.015900
_cell_angle_gamma 120.106600
loop_
  _atom_site_label
  _atom_site_type_symbol
  _atom_site_fract_x
  _atom_site_fract_y
  _atom_site_fract_z
C1 C 0.06086 0.52372 0.07717
 C2 C 0.05308 0.49402 0.05865
 C3 C 0.03000 0.48296 0.02890
 C4 C 0.01313 0.50015 0.01896
 C5 C 0.02146 0.52983 0.03858
 C6 C 0.04607 0.54239 0.06659
 C7 C -0.01368 0.48703 -0.01076
 C8 C -0.02253 0.50865 -0.02873
 C9 C -0.05028 0.49650 -0.05275
 C10 C -0.06795 0.46214 -0.06008
 C11 C -0.05694 0.44048 -0.04783
 C12 C -0.03087 0.45299 -0.02116
 H13 H 0.07796 0.53204 0.10072
 H14 H 0.02573 0.46109 0.01360
 H15 H 0.00900 0.54358 0.03227
 H16 H -0.00711 0.53517 -0.02501
 H17 H -0.09183 0.45165 -0.07388
 H18 H -0.02354 0.43648 -0.00896
 C19 C 0.46934 0.52627 0.07079
 C20 C 0.49903 0.54698 0.05158
 C21 C 0.50938 0.53332 0.02309
 C22 C 0.49173 0.49882 0.01534
 C23 C 0.46164 0.47867 0.03493
 C24 C 0.44977 0.49241 0.06183
 C25 C 0.50529 0.48382 -0.01193
 C26 C 0.48396 0.45365 -0.03061
 C27 C 0.49686 0.43828 -0.05363
 C28 C 0.53140 0.45406 -0.05905
 C29 C 0.55328 0.48607 -0.04478
 C30 C 0.53989 0.49963 -0.01932
 H31 H 0.46182 0.53640 0.09372
 H32 H 0.53129 0.54998 0.00712
 H33 H 0.44735 0.45223 0.02957
 H34 H 0.45725 0.44217 -0.02780
 H35 H 0.54119 0.44058 -0.07399
 H36 H 0.55616 0.52293 -0.00577
 C37 C 0.45852 0.92645 0.05783
 C38 C 0.44201 0.94414 0.05038
 C39 C 0.45755 0.97230 0.02714
 C40 C 0.48847 0.98193 0.00966
 C41 C 0.50504 0.96436 0.01934
 C42 C 0.49088 0.93751 0.04468
 C43 C 0.50303 1.00974 -0.01880
 C44 C 0.53734 1.02650 -0.02756
 C45 C 0.55037 1.05024 -0.05639
 C46 C 0.52933 1.05919 -0.07479
 C47 C 0.49546 1.04498 -0.06520
 C48 C 0.48242 1.01913 -0.03833
 H49 H 0.44608 0.90383 0.07425
 H50 H 0.44548 0.98683 0.02345
 H51 H 0.52908 0.97145 0.00757
 H52 H 0.55439 1.02144 -0.01223
 H53 H 0.53920 1.07602 -0.09843
 H54 H 0.45627 1.00682 -0.03195
 C55 C 0.93929 0.47301 0.57556
 C56 C 0.95530 0.50696 0.56612
 C57 C 0.98103 0.51922 0.53934
 C58 C 0.98901 0.49772 0.51962
 C59 C 0.97160 0.46357 0.52902
 C60 C 0.94789 0.45129 0.55800
 C61 C 1.01508 0.51062 0.48923
 C62 C 1.03155 0.49312 0.47933
 C63 C 1.05418 0.50358 0.44938
 C64 C 1.06229 0.53330 0.43086
 C65 C 1.04848 0.55303 0.44162
 C66 C 1.02362 0.54040 0.46971
 H67 H 0.92010 0.46337 0.59683
 H68 H 0.99500 0.54573 0.53452
 H69 H 0.97595 0.44604 0.51366
 H70 H 1.02715 0.47129 0.49487
 H71 H 1.07826 0.54010 0.40643
 H72 H 1.01158 0.55425 0.47721
 C73 C 0.53350 0.47118 0.57760
 C74 C 0.50338 0.44994 0.55934
 C75 C 0.49297 0.46260 0.52985
 C76 C 0.51083 0.49666 0.52016
 C77 C 0.54119 0.51743 0.53893
 C78 C 0.55320 0.50464 0.56685
 C79 C 0.49729 0.51017 0.49102
 C80 C 0.51841 0.53913 0.47019
 C81 C 0.50537 0.55198 0.44353
 C82 C 0.47097 0.53429 0.43618
 C83 C 0.44957 0.50479 0.45533
 C84 C 0.46273 0.49388 0.48378
 H85 H 0.54135 0.46186 0.60102
 H86 H 0.47084 0.44549 0.51441
 H87 H 0.55569 0.54355 0.53199
 H88 H 0.54508 0.55152 0.47400
 H89 H 0.46070 0.54338 0.41518
 H90 H 0.44559 0.47262 0.50034
 C91 C 0.53229 0.05863 0.56514
 C92 C 0.55385 0.05036 0.54667
 C93 C 0.54144 0.02731 0.51694
 C94 C 0.50734 0.01104 0.50690
 C95 C 0.48641 0.02011 0.52622
 C96 C 0.49891 0.04464 0.55434
 C97 C 0.49316 -0.01599 0.47749
 C98 C 0.46299 -0.02428 0.45917
 C99 C 0.44698 -0.05229 0.43592
 C100 C 0.46261 -0.07086 0.42878
 C101 C 0.49499 -0.06084 0.44191
 C102 C 0.50906 -0.03429 0.46813
 H103 H 0.54133 0.07552 0.58887
 H104 H 0.55875 0.02253 0.50175
 H105 H 0.46021 0.00822 0.51970
 H106 H 0.45166 -0.00905 0.46271
 H107 H 0.44860 -0.09399 0.41365
 H108 H 0.53260 -0.02739 0.48092
 O109 O 0.22970 0.40130 0.29764
 O110 O 0.17509 0.39909 0.22054
 O111 O 0.23130 0.39814 0.22479
 O112 O 0.17333 0.40103 0.29381
 O113 O 0.20154 0.45589 0.29156
 O114 O 0.25865 0.45300 0.22215
 O115 O 0.20314 0.45395 0.21863
 O116 O 0.25734 0.45616 0.29491
 Cu117 Cu 0.19949 0.39434 0.25931
 Cu118 Cu 0.23291 0.46019 0.25647
 C119 C 0.25299 0.42925 0.30931
 C120 C 0.17966 0.42632 0.20669
 C121 C 0.25513 0.42519 0.21202
 C122 C 0.17766 0.42903 0.30459
 O123 O 0.59678 0.82322 0.27994
 O124 O 0.59902 0.76846 0.20544
 O125 O 0.59705 0.82375 0.20566
 O126 O 0.59999 0.76861 0.27883
 O127 O 0.54510 0.73820 0.27669
 O128 O 0.54206 0.79548 0.20805
 O129 O 0.54407 0.74089 0.20433
 O130 O 0.54186 0.79287 0.28020
 Cu131 Cu 0.60380 0.79910 0.24249
 Cu132 Cu 0.53782 0.76393 0.24250
 C133 C 0.56866 0.81723 0.29258
 C134 C 0.57169 0.74529 0.19217
 C135 C 0.56893 0.81909 0.19477
 C136 C 0.57291 0.74348 0.28944
 O137 O 0.16588 0.77370 0.28475
 O138 O 0.22066 0.82875 0.20904
 O139 O 0.16437 0.77115 0.21203
 O140 O 0.22242 0.83069 0.28277
 O141 O 0.25042 0.80376 0.28223
 O142 O 0.19343 0.74539 0.21219
 O143 O 0.24898 0.80218 0.21076
 O144 O 0.19446 0.74746 0.28480
 Cu145 Cu 0.19054 0.80387 0.24703
 Cu146 Cu 0.22450 0.77194 0.24753
 C147 C 0.17057 0.75070 0.29714
 C148 C 0.24473 0.82522 0.19781
 C149 C 0.16879 0.74768 0.20064
 C150 C 0.24676 0.82754 0.29388
 O151 O 0.83272 0.60621 0.72262
 O152 O 0.77466 0.59908 0.79875
 O153 O 0.83238 0.60250 0.79575
 O154 O 0.77465 0.60447 0.72532
 O155 O 0.75033 0.54996 0.71922
 O156 O 0.80558 0.54767 0.79123
 O157 O 0.74805 0.54449 0.79161
 O158 O 0.80729 0.55131 0.71992
 Cu159 Cu 0.80611 0.60868 0.76080
 Cu160 Cu 0.77509 0.54294 0.75492
 C161 C 0.83057 0.57964 0.70969
 C162 C 0.75120 0.57026 0.80777
 C163 C 0.82886 0.57451 0.80513
 C164 C 0.75238 0.57744 0.71056
 O165 O 0.39511 0.16563 0.77900
 O166 O 0.39660 0.22318 0.70587
 O167 O 0.39507 0.16550 0.70630
 O168 O 0.39473 0.22189 0.77956
 O169 O 0.44972 0.25008 0.77815
 O170 O 0.45003 0.19271 0.70756
 O171 O 0.45151 0.24917 0.70588
 O172 O 0.45004 0.19406 0.78014
 Cu173 Cu 0.38978 0.19140 0.74251
 Cu174 Cu 0.45576 0.22420 0.74308
 C175 C 0.42264 0.16996 0.79169
 C176 C 0.42450 0.24618 0.69358
 C177 C 0.42269 0.16904 0.69516
 C178 C 0.42233 0.24597 0.79082
 O179 O 0.82532 0.22530 0.78559
 O180 O 0.77112 0.17052 0.70952
 O181 O 0.82688 0.22821 0.71192
 O182 O 0.76890 0.16929 0.78291
 O183 O 0.74205 0.19728 0.78340
 O184 O 0.79773 0.25385 0.71095
 O185 O 0.74289 0.19711 0.71021
 O186 O 0.79830 0.25314 0.78342
 Cu187 Cu 0.80089 0.19561 0.74737
 Cu188 Cu 0.76738 0.22792 0.74703
 C189 C 0.82116 0.24886 0.79709
 C190 C 0.74752 0.17429 0.69716
 C191 C 0.82213 0.25117 0.69936
 C192 C 0.74564 0.17355 0.79548
 C193 C 0.11314 0.47153 0.10313
 C194 C 0.09347 0.43754 0.10621
 C195 C 0.06121 0.42025 0.09188
 C196 C 0.04855 0.43884 0.07453
 C197 C 0.06817 0.47409 0.07186
 C198 C 0.10132 0.49034 0.08553
 O199 O 0.14195 0.48366 0.12108
 C200 C 0.14047 0.45681 0.13603
 C201 C 0.11144 0.42787 0.12773
 C202 C 0.10404 0.39721 0.14272
 C203 C 0.12727 0.39653 0.16765
 C204 C 0.15701 0.42629 0.17730
 C205 C 0.16378 0.45670 0.16057
 H206 H 0.04588 0.39357 0.09522
 H207 H 0.02297 0.42593 0.06488
 H208 H 0.11710 0.51712 0.08401
 H209 H 0.08083 0.37478 0.13629
 H210 H 0.12154 0.37305 0.18032
 H211 H 0.18595 0.47997 0.16758
 C212 C 0.52421 0.63175 0.09129
 C213 C 0.55811 0.64527 0.09477
 C214 C 0.57452 0.62895 0.08205
 C215 C 0.55509 0.59718 0.06600
 C216 C 0.51991 0.58240 0.06306
 C217 C 0.50460 0.60062 0.07496
 O218 O 0.51288 0.64961 0.10796
 C219 C 0.54011 0.67489 0.12253
 C220 C 0.56857 0.67364 0.11522
 C221 C 0.59942 0.69652 0.13038
 C222 C 0.60076 0.72123 0.15450
 C223 C 0.57144 0.72229 0.16321
 C224 C 0.54090 0.69909 0.14620
 H225 H 0.60111 0.63966 0.08576
 H226 H 0.56726 0.58348 0.05769
 H227 H 0.47789 0.59023 0.07327
 H228 H 0.62143 0.69480 0.12480
 H229 H 0.62430 0.73863 0.16745
 H230 H 0.51793 0.69881 0.15252
 C231 C 0.36915 0.90459 0.11745
 C232 C 0.34491 0.90674 0.09748
 C233 C 0.35115 0.92218 0.06247
 C234 C 0.38341 0.93529 0.04735
 C235 C 0.40870 0.93299 0.06746
 C236 C 0.40131 0.91808 0.10351
 O237 O 0.35810 0.88723 0.14890
 C238 C 0.32613 0.87811 0.14895
 C239 C 0.31661 0.88956 0.11841
 C240 C 0.28374 0.88196 0.11300
 C241 C 0.25989 0.86151 0.13994
 C242 C 0.26930 0.84864 0.17076
 C243 C 0.30296 0.85747 0.17538
 H244 H 0.33166 0.92318 0.04684
 H245 H 0.38826 0.94614 0.01951
 H246 H 0.41983 0.91619 0.12015
 H247 H 0.27665 0.89110 0.08876
 H248 H 0.23412 0.85484 0.13620
 H249 H 0.31088 0.84815 0.19876
 C250 C 0.91681 0.54113 0.63381
 C251 C 0.91671 0.56580 0.61251
 C252 C 0.93050 0.57375 0.57665
 C253 C 0.94423 0.55508 0.56202
 C254 C 0.94431 0.52919 0.58343
 C255 C 0.93113 0.52304 0.62037
 O256 O 0.90008 0.53528 0.66570
 C257 C 0.88907 0.55662 0.66460
 C258 C 0.89874 0.57625 0.63293
 C259 C 0.88853 0.59936 0.62582
 C260 C 0.86712 0.60181 0.65216
 C261 C 0.85594 0.58070 0.68406
 C262 C 0.86756 0.55827 0.69051
 H263 H 0.92953 0.59271 0.55992
 H264 H 0.95345 0.55992 0.53343
 H265 H 0.93089 0.50394 0.63798
 H266 H 0.89619 0.61442 0.60060
 H267 H 0.85818 0.61896 0.64697
 H268 H 0.85929 0.54179 0.71463
 C269 C 0.47687 0.36508 0.60041
 C270 C 0.44288 0.35155 0.60222
 C271 C 0.42700 0.36821 0.58900
 C272 C 0.44700 0.40019 0.57381
 C273 C 0.48225 0.41489 0.57212
 C274 C 0.49713 0.39656 0.58509
 O275 O 0.48741 0.34640 0.61674
 C276 C 0.45953 0.32056 0.62931
 C277 C 0.43148 0.32230 0.62112
 C278 C 0.39993 0.29862 0.63379
 C279 C 0.39737 0.27252 0.65635
 C280 C 0.42618 0.27081 0.66594
 C281 C 0.45755 0.29495 0.65143
 H282 H 0.40028 0.35741 0.59131
 H283 H 0.43509 0.41395 0.56475
 H284 H 0.52383 0.40679 0.58426
 H285 H 0.37822 0.30067 0.62744
 H286 H 0.37321 0.25444 0.66740
 H287 H 0.48016 0.29476 0.65848
 C288 C 0.63642 0.10929 0.59209
 C289 C 0.65020 0.08922 0.59553
 C290 C 0.63496 0.05706 0.58094
 C291 C 0.60393 0.04491 0.56303
 C292 C 0.58883 0.06494 0.56005
 C293 C 0.60610 0.09801 0.57385
 O294 O 0.65319 0.13790 0.61038
 C295 C 0.67807 0.13589 0.62592
 C296 C 0.67761 0.10673 0.61765
 C297 C 0.70041 0.09887 0.63308
 C298 C 0.72427 0.12180 0.65832
 C299 C 0.72461 0.15167 0.66793
 C300 C 0.70137 0.15886 0.65089
 H301 H 0.64588 0.04141 0.58457
 H302 H 0.59097 0.01938 0.55326
 H303 H 0.59553 0.11412 0.57208
 H304 H 0.69936 0.07558 0.62663
 H305 H 0.74173 0.11579 0.67123
 H306 H 0.70063 0.18119 0.65778
 C307 C 0.47114 0.10076 0.88603
 C308 C 0.43735 0.08030 0.88249
 C309 C 0.42095 0.04786 0.89606
 C310 C 0.44018 0.03607 0.91379
 C311 C 0.47550 0.05667 0.91758
 C312 C 0.49064 0.08981 0.90358
 O313 O 0.48241 0.13030 0.87020
 C314 C 0.45515 0.12847 0.85609
 C315 C 0.42677 0.09849 0.86284
 C316 C 0.39569 0.09113 0.84907
 C317 C 0.39407 0.11540 0.82688
 C318 C 0.42331 0.14616 0.81882
 C319 C 0.45410 0.15280 0.83437
 H320 H 0.39434 0.03191 0.89248
 H321 H 0.42733 0.01038 0.92270
 H322 H 0.51694 0.10741 0.90679
 H323 H 0.37366 0.06731 0.85443
 H324 H 0.37031 0.10977 0.81501
 H325 H 0.47699 0.17579 0.82860
 C326 C 0.62863 0.51447 0.89474
 C327 C 0.65202 0.54187 0.91403
 C328 C 0.64490 0.55161 0.94810
 C329 C 0.61236 0.53254 0.96254
 C330 C 0.58711 0.50427 0.94264
 C331 C 0.59630 0.49563 0.90799
 O332 O 0.63993 0.50892 0.86300
 C333 C 0.67125 0.53340 0.86208
 C334 C 0.68007 0.55459 0.89239
 C335 C 0.71179 0.58244 0.89605
 C336 C 0.73524 0.58825 0.86755
 C337 C 0.72664 0.56598 0.83672
 C338 C 0.69409 0.53836 0.83405
 H339 H 0.66378 0.57304 0.96322
 H340 H 0.60772 0.53990 0.98963
 H341 H 0.57872 0.47588 0.88996
 H342 H 0.71825 0.59902 0.91992
 H343 H 0.76015 0.60950 0.86989
 H344 H 0.68664 0.52112 0.81066
 C345 C 0.89637 0.36855 0.88706
 C346 C 0.89913 0.34381 0.90472
 C347 C 0.91616 0.34919 0.93858
 C348 C 0.93067 0.38124 0.95480
 C349 C 0.92822 0.40755 0.93696
 C350 C 0.91100 0.40035 0.90193
 O351 O 0.87881 0.35887 0.85560
 C352 C 0.87011 0.32714 0.85313
 C353 C 0.88208 0.31650 0.88217
 C354 C 0.87594 0.28390 0.88427
 C355 C 0.85647 0.26160 0.85555
 C356 C 0.84320 0.27216 0.82614
 C357 C 0.85040 0.30546 0.82500
 H358 H 0.91784 0.32931 0.95236
 H359 H 0.94272 0.38462 0.98172
 H360 H 0.90962 0.41902 0.88516
 H361 H 0.88565 0.27592 0.90716
 H362 H 0.85106 0.23607 0.85669
 H363 H 0.84089 0.31434 0.80273
 C364 C 0.52009 0.89023 0.37997
 C365 C 0.54791 0.89406 0.39802
 C366 C 0.55933 0.91185 0.43141
 C367 C 0.54143 0.92628 0.44659
 C368 C 0.51261 0.92330 0.42810
 C369 C 0.50248 0.90482 0.39384
 O370 O 0.51269 0.87216 0.34891
 C371 C 0.53641 0.86432 0.34716
 C372 C 0.55895 0.87730 0.37624
 C373 C 0.58625 0.87250 0.37887
 C374 C 0.59008 0.85331 0.35064
 C375 C 0.56637 0.83896 0.32120
 C376 C 0.53933 0.84479 0.31952
 H377 H 0.58109 0.91426 0.44557
 H378 H 0.55009 0.93890 0.47320
 H379 H 0.48230 0.90263 0.37665
 H380 H 0.60392 0.88312 0.40176
 H381 H 0.61091 0.84898 0.35216
 H382 H 0.52106 0.83449 0.29713
 C383 C 0.36552 0.47985 0.41270
 C384 C 0.35151 0.44583 0.41104
 C385 C 0.36706 0.42944 0.42597
 C386 C 0.39865 0.44896 0.44233
 C387 C 0.41404 0.48427 0.44362
 C388 C 0.39645 0.49962 0.42956
 O389 O 0.34836 0.49093 0.39390
 C390 C 0.32305 0.46337 0.37988
 C391 C 0.32361 0.43501 0.38966
 C392 C 0.30061 0.40371 0.37577
 C393 C 0.27641 0.40169 0.35039
 C394 C 0.27597 0.43080 0.33912
 C395 C 0.29937 0.46195 0.35476
 H396 H 0.35597 0.40271 0.42360
 H397 H 0.41178 0.43661 0.45209
 H398 H 0.40708 0.52636 0.43003
 H399 H 0.30181 0.38177 0.38337
 H400 H 0.25885 0.37768 0.33856
 H401 H 0.30007 0.48473 0.34649
 C402 C 0.10319 0.63305 0.39202
 C403 C 0.08281 0.64649 0.38976
 C404 C 0.05076 0.63054 0.40457
 C405 C 0.03930 0.59950 0.42219
 C406 C 0.05980 0.58467 0.42455
 C407 C 0.09255 0.60259 0.40935
 O408 O 0.13233 0.65124 0.37524
 C409 C 0.13033 0.67675 0.36180
 C410 C 0.10063 0.67527 0.36990
 C411 C 0.09314 0.69908 0.35699
 C412 C 0.11693 0.72492 0.33425
 C413 C 0.14737 0.72631 0.32483
 C414 C 0.15419 0.70208 0.33956
 H415 H 0.03486 0.64129 0.40204
 H416 H 0.01389 0.58672 0.43217
 H417 H 0.11012 0.59381 0.41151
 H418 H 0.06953 0.69738 0.36339
 H419 H 0.11115 0.74311 0.32303
 H420 H 0.17693 0.70207 0.33275
 C421 C 0.90678 0.52675 0.88358
 C422 C 0.91345 0.55591 0.90081
 C423 C 0.93348 0.56785 0.93266
 C424 C 0.94642 0.54856 0.94769
 C425 C 0.93916 0.51767 0.93082
 C426 C 0.91976 0.50772 0.89733
 O427 O 0.88628 0.51866 0.85459
 C428 C 0.87961 0.54317 0.85343
 C429 C 0.89570 0.56690 0.88082
 C430 C 0.89153 0.59449 0.88450
 C431 C 0.86982 0.59744 0.85907
 C432 C 0.85246 0.57263 0.83134
 C433 C 0.85776 0.54532 0.82852
 H434 H 0.93821 0.59072 0.94615
 H435 H 0.96047 0.55711 0.97357
 H436 H 0.91469 0.48571 0.88164
 H437 H 0.90434 0.61293 0.90621
 H438 H 0.86601 0.61854 0.86143
 H439 H 0.84517 0.52613 0.80746
 C440 C 0.46571 0.36807 0.87588
 C441 C 0.43800 0.34346 0.89375
 C442 C 0.42706 0.34868 0.92823
 C443 C 0.44587 0.38026 0.94513
 C444 C 0.47484 0.40588 0.92726
 C445 C 0.48403 0.39960 0.89151
 O446 O 0.47352 0.35790 0.84474
 C447 C 0.45029 0.32611 0.84273
 C448 C 0.42762 0.31590 0.87172
 C449 C 0.40162 0.28312 0.87503
 C450 C 0.39920 0.26010 0.84757
 C451 C 0.42309 0.27012 0.81828
 C452 C 0.44874 0.30367 0.81580
 H453 H 0.40551 0.32887 0.94220
 H454 H 0.43854 0.38426 0.97266
 H455 H 0.50554 0.41846 0.87650
 H456 H 0.38407 0.27549 0.89808
 H457 H 0.37946 0.23441 0.84973
 H458 H 0.46725 0.31207 0.79368
 C459 C 0.63362 0.10870 0.89933
 C460 C 0.64674 0.08809 0.89527
 C461 C 0.63088 0.05572 0.90921
 C462 C 0.59988 0.04391 0.92704
 C463 C 0.58544 0.06449 0.93061
 C464 C 0.60334 0.09775 0.91753
 O465 O 0.65094 0.13750 0.88159
 C466 C 0.67548 0.13507 0.86579
 C467 C 0.67428 0.10544 0.87335
 C468 C 0.69663 0.09714 0.85756
 C469 C 0.72089 0.12016 0.83276
 C470 C 0.72205 0.15056 0.82394
 C471 C 0.69918 0.15813 0.84126
 H472 H 0.64128 0.03967 0.90510
 H473 H 0.58643 0.01823 0.93622
 H474 H 0.59325 0.11425 0.91972
 H475 H 0.69499 0.07351 0.86346
 H476 H 0.73807 0.11387 0.81966
 H477 H 0.69908 0.18089 0.83499
 C478 C 0.11225 0.47897 0.40380
 C479 C 0.09207 0.44499 0.40155
 C480 C 0.06010 0.42840 0.41665
 C481 C 0.04824 0.44771 0.43393
 C482 C 0.06840 0.48295 0.43586
 C483 C 0.10126 0.49849 0.42138
 O484 O 0.14081 0.49028 0.38553
 C485 C 0.13864 0.46289 0.37125
 C486 C 0.10942 0.43443 0.38030
 C487 C 0.10151 0.40323 0.36659
 C488 C 0.12453 0.40141 0.34238
 C489 C 0.15456 0.43061 0.33210
 C490 C 0.16170 0.46169 0.34725
 H491 H 0.04439 0.40169 0.41402
 H492 H 0.02287 0.43531 0.44420
 H493 H 0.11748 0.52523 0.42240
 H494 H 0.07822 0.38117 0.37370
 H495 H 0.11856 0.37742 0.33097
 H496 H 0.18420 0.48451 0.33985
 C497 C 0.53595 0.62143 0.37188
 C498 C 0.56190 0.64708 0.39097
 C499 C 0.57215 0.64278 0.42628
 C500 C 0.55435 0.61103 0.44287
 C501 C 0.52709 0.58421 0.42386
 C502 C 0.51881 0.58961 0.38715
 O503 O 0.52810 0.63093 0.34024
 C504 C 0.54951 0.66335 0.33922
 C505 C 0.57108 0.67458 0.36931
 C506 C 0.59490 0.70805 0.37404
 C507 C 0.59625 0.73074 0.34684
 C508 C 0.57337 0.71966 0.31643
 C509 C 0.54992 0.68544 0.31251
 H510 H 0.59218 0.66343 0.44123
 H511 H 0.56090 0.60789 0.47118
 H512 H 0.49872 0.56998 0.37116
 H513 H 0.61155 0.71645 0.39800
 H514 H 0.61426 0.75695 0.35011
 H515 H 0.53219 0.67631 0.28954
 C516 C 0.37325 0.90859 0.36988
 C517 C 0.34961 0.91159 0.39006
 C518 C 0.35660 0.92759 0.42480
 C519 C 0.38898 0.94035 0.43944
 C520 C 0.41367 0.93716 0.41912
 C521 C 0.40555 0.92175 0.38331
 O522 O 0.36141 0.89058 0.33893
 C523 C 0.32955 0.88189 0.33945
 C524 C 0.32088 0.89428 0.36985
 C525 C 0.28822 0.88707 0.37600
 C526 C 0.26366 0.86595 0.35003
 C527 C 0.27218 0.85208 0.31943
 C528 C 0.30567 0.86062 0.31396
 H529 H 0.33754 0.92919 0.44065
 H530 H 0.39435 0.95154 0.46713
 H531 H 0.42358 0.91909 0.36661
 H532 H 0.28180 0.89689 0.40017
 H533 H 0.23801 0.85946 0.35447
 H534 H 0.31288 0.85043 0.29077
 C535 C 0.52172 0.89449 0.11015
 C536 C 0.54563 0.89320 0.08861
 C537 C 0.55277 0.90558 0.05205
 C538 C 0.53453 0.91979 0.03728
 C539 C 0.51001 0.92184 0.05934
 C540 C 0.50409 0.90917 0.09655
 O541 O 0.51734 0.88013 0.14345
 C542 C 0.53903 0.86954 0.14315
 C543 C 0.55737 0.87718 0.11051
 C544 C 0.58156 0.86821 0.10473
 C545 C 0.58651 0.85024 0.13348
 C546 C 0.56682 0.84111 0.16657
 C547 C 0.54302 0.85121 0.17149
 H548 H 0.57130 0.90386 0.03525
 H549 H 0.53927 0.92865 0.00857
 H550 H 0.48637 0.91078 0.11491
 H551 H 0.59581 0.87448 0.07893
 H552 H 0.60467 0.84238 0.12943
 H553 H 0.52768 0.84455 0.19650
 C554 C 0.36852 0.46799 0.11113
 C555 C 0.35815 0.43571 0.12140
 C556 C 0.37603 0.41997 0.11213
 C557 C 0.40591 0.43840 0.09187
 C558 C 0.41719 0.47190 0.08119
 C559 C 0.39759 0.48643 0.09053
 O560 O 0.34933 0.47925 0.12442
 C561 C 0.32628 0.45356 0.14361
 C562 C 0.33027 0.42614 0.14253
 C563 C 0.30930 0.39694 0.16192
 C564 C 0.28360 0.39623 0.18365
 C565 C 0.27972 0.42465 0.18600
 C566 C 0.30121 0.45350 0.16517
 H567 H 0.36776 0.39472 0.12101
 H568 H 0.42066 0.42688 0.08565
 H569 H 0.40500 0.51172 0.08262
 H570 H 0.31297 0.37570 0.16093
 H571 H 0.26752 0.37402 0.19962
 H572 H 0.29911 0.47568 0.16646
 C573 C 0.10091 0.62680 0.11074
 C574 C 0.07821 0.63681 0.11833
 C575 C 0.04451 0.61717 0.10979
 C576 C 0.03391 0.58607 0.09276
 C577 C 0.05701 0.57529 0.08450
 C578 C 0.09106 0.59636 0.09351
 O579 O 0.13138 0.64805 0.12274
 C580 C 0.12794 0.67206 0.13834
 C581 C 0.09599 0.66664 0.13624
 C582 C 0.08690 0.68835 0.15215
 C583 C 0.11156 0.71625 0.17170
 C584 C 0.14437 0.72159 0.17528
 C585 C 0.15265 0.69940 0.15760
 H586 H 0.02691 0.62523 0.11658
 H587 H 0.00766 0.57020 0.08680
 H588 H 0.10954 0.58930 0.08740
 H589 H 0.06157 0.68353 0.15043
 H590 H 0.10471 0.73280 0.18536
 H591 H 0.17732 0.70251 0.16002
 C592 C 0.47174 0.10049 0.60047
 C593 C 0.43879 0.07837 0.60806
 C594 C 0.42369 0.04481 0.59849
 C595 C 0.44341 0.03371 0.58057
 C596 C 0.47753 0.05619 0.57243
 C597 C 0.49152 0.09018 0.58226
 O598 O 0.48205 0.13080 0.61367
 C599 C 0.45507 0.12787 0.63005
 C600 C 0.42777 0.09640 0.62725
 C601 C 0.39730 0.08781 0.64378
 C602 C 0.39518 0.11246 0.66462
 C603 C 0.42344 0.14475 0.66889
 C604 C 0.45358 0.15255 0.65067
 H605 H 0.39788 0.02765 0.60532
 H606 H 0.43225 0.00751 0.57397
 H607 H 0.51728 0.10823 0.57627
 H608 H 0.37617 0.06285 0.64151
 H609 H 0.37200 0.10598 0.67867
 H610 H 0.47569 0.17680 0.65357
 C611 C 0.63604 0.53093 0.61347
 C612 C 0.64673 0.56361 0.62223
 C613 C 0.62843 0.57891 0.61293
 C614 C 0.59786 0.55965 0.59414
 C615 C 0.58624 0.52575 0.58504
 C616 C 0.60615 0.51159 0.59450
 O617 O 0.65585 0.52033 0.62647
 C618 C 0.67962 0.54683 0.64397
 C619 C 0.67545 0.57411 0.64212
 C620 C 0.69699 0.60403 0.66003
 C621 C 0.72339 0.60558 0.68120
 C622 C 0.72751 0.57735 0.68435
 C623 C 0.70551 0.54781 0.66478
 H624 H 0.63700 0.60451 0.62060
 H625 H 0.58290 0.57090 0.58774
 H626 H 0.59841 0.48598 0.58780
 H627 H 0.69314 0.62514 0.65853
 H628 H 0.73980 0.62832 0.69621
 H629 H 0.70763 0.52568 0.66678
 C630 C 0.88884 0.36761 0.60180
 C631 C 0.90915 0.35403 0.60457
 C632 C 0.94152 0.36997 0.59066
 C633 C 0.95359 0.40139 0.57395
 C634 C 0.93329 0.41626 0.57134
 C635 C 0.90010 0.39847 0.58480
 O636 O 0.85981 0.34973 0.61901
 C637 C 0.86184 0.32438 0.63310
 C638 C 0.89142 0.32564 0.62501
 C639 C 0.89926 0.30235 0.63890
 C640 C 0.87582 0.27706 0.66242
 C641 C 0.84543 0.27572 0.67179
 C642 C 0.83832 0.29958 0.65630
 H643 H 0.95732 0.35916 0.59373
 H644 H 0.97925 0.41470 0.56461
 H645 H 0.88371 0.40872 0.58327
 H646 H 0.92286 0.30403 0.63257
 H647 H 0.88180 0.25916 0.67414
 H648 H 0.81559 0.29962 0.66308
   
