data_POSCAR
  _audit_creation_date              2014-09-24
  _audit_creation_method            'ToBaCCo'
  _symmetry_space_group_name_H-M    'P1'
  _symmetry_Int_Tables_number       1
  _symmetry_cell_setting            triclinic
  loop_
  _symmetry_equiv_pos_as_xyz
 x,y,z
_cell_length_a 25.8226
_cell_length_b 26.0981
_cell_length_c 69.0039
_cell_angle_alpha 88.470700
_cell_angle_beta 90.745800
_cell_angle_gamma 120.031300
loop_
  _atom_site_label
  _atom_site_type_symbol
  _atom_site_fract_x
  _atom_site_fract_y
  _atom_site_fract_z
C1 C 0.01163 0.09760 0.52810
 H2 H 0.05463 0.10009 0.52937
 C3 C -0.00119 0.13309 0.53946
 H4 H 0.03208 0.16233 0.54966
 C5 C -0.08442 0.05464 0.51360
 H6 H -0.11647 0.02398 0.50344
 C7 C -0.09933 0.08933 0.52484
 H8 H -0.14298 0.08529 0.52321
 N9 N -0.02984 0.05908 0.51561
 C10 C 0.02193 -0.07590 0.51273
 H11 H 0.03712 -0.07150 0.49792
 C12 C 0.02168 -0.11936 0.52513
 H13 H 0.03740 -0.14799 0.51993
 C14 C -0.02010 -0.04630 0.53736
 H15 H -0.03776 -0.01887 0.54200
 C16 C -0.02234 -0.08983 0.55003
 H17 H -0.04073 -0.09487 0.56444
 Zn18 Zn -0.00506 0.01378 0.50171
 N19 N 0.00164 -0.04014 0.51907
 C20 C 0.11946 0.06448 0.49166
 N21 N 0.06895 0.06830 0.48991
 C22 C 0.06833 0.11217 0.47903
 C23 C 0.11845 0.15205 0.46834
 C24 C 0.17096 0.10378 0.48121
 C25 C -0.11464 -0.07835 0.48778
 C26 C -0.15341 -0.11755 0.47396
 C27 C -0.08228 -0.05784 0.44914
 C28 C -0.04488 -0.02058 0.46343
 N29 N -0.06106 -0.03161 0.48236
 H30 H 0.11973 0.03045 0.50084
 H31 H 0.02776 0.11461 0.47808
 H32 H 0.11546 0.18444 0.45898
 H33 H 0.21045 0.09947 0.48248
 H34 H -0.12616 -0.08677 0.50301
 H35 H -0.19336 -0.15578 0.47947
 H36 H -0.06736 -0.04446 0.43438
 H37 H -0.00218 0.01656 0.45925
 C38 C -0.00156 -0.12705 0.54391
 C39 C -0.05732 0.12919 0.53799
 C40 C -0.13722 -0.10931 0.45405
 C41 C 0.17045 0.14761 0.46904
 C42 C 1.09269 0.03840 0.13617
 H43 H 1.08576 0.07599 0.13624
 C44 C 1.12776 0.03453 0.12180
 H45 H 1.14808 0.06955 0.11087
 C46 C 1.07479 -0.05259 0.15051
 H47 H 1.05463 -0.08595 0.16190
 C48 C 1.11043 -0.05789 0.13645
 H49 H 1.11662 -0.09599 0.13686
 N50 N 1.06572 -0.00545 0.14983
 C51 C 0.93943 0.05423 0.15967
 H52 H 0.95048 0.07148 0.17414
 C53 C 0.89892 0.06313 0.14843
 H54 H 0.87975 0.08824 0.15413
 C55 C 0.94812 -0.00218 0.13489
 H56 H 0.96647 -0.02862 0.12981
 C57 C 0.90713 0.00459 0.12340
 H58 H 0.89516 -0.01567 0.10933
 Zn59 Zn 1.01712 0.00693 0.16720
 N60 N 0.96428 0.02329 0.15253
 C61 C 1.07878 0.12589 0.18220
 N62 N 1.07063 0.07013 0.18296
 C63 C 1.10320 0.05568 0.19520
 C64 C 1.14438 0.09717 0.20783
 C65 C 1.11978 0.16906 0.19467
 C66 C 0.94081 -0.11586 0.17611
 C67 C 0.90197 -0.16411 0.18794
 C68 C 0.91949 -0.09626 0.21369
 C69 C 0.95873 -0.04968 0.20156
 N70 N 0.96904 -0.06012 0.18320
 H71 H 1.05432 0.13731 0.17183
 H72 H 1.09642 0.01127 0.19530
 H73 H 1.16834 0.08382 0.21783
 H74 H 1.12590 0.21325 0.19392
 H75 H 0.94763 -0.12280 0.16120
 H76 H 0.87960 -0.20831 0.18220
 H77 H 0.91149 -0.08715 0.22823
 H78 H 0.97982 -0.00485 0.20666
 C79 C 0.88229 0.03781 0.13010
 C80 C 1.13632 -0.01443 0.12165
 C81 C 0.89061 -0.15422 0.20690
 C82 C 1.15312 0.15477 0.20774
 C83 C 0.07757 0.96200 0.85363
 H84 H 0.03726 0.91922 0.85481
 C85 C 0.12850 0.97229 0.86393
 H86 H 0.12635 0.93724 0.87324
 C87 C 0.12735 1.06011 0.84078
 H88 H 0.12678 1.09409 0.83166
 C89 C 0.17962 1.07234 0.85081
 H90 H 0.21885 1.11587 0.84931
 N91 N 0.07715 1.00613 0.84285
 C92 C -0.10615 0.97127 0.84602
 H93 H -0.11766 0.96951 0.83082
 C94 C -0.14460 0.97157 0.86007
 H95 H -0.18461 0.97105 0.85501
 C96 C -0.03665 0.97989 0.87014
 H97 H 0.00588 0.98433 0.87413
 C98 C -0.07389 0.97940 0.88465
 H99 H -0.05941 0.98018 0.89945
 Zn100 Zn 0.00237 0.98673 0.83154
 N101 N -0.05286 0.97643 0.85122
 C102 C -0.07728 0.86710 0.81998
 N103 N -0.02283 0.91672 0.81770
 C104 C 0.01806 0.91910 0.80498
 C105 C 0.00477 0.87070 0.79367
 C106 C -0.09267 0.81743 0.80880
 C107 C 0.02817 1.10279 0.82049
 C108 C 0.02722 1.14570 0.80812
 C109 C -0.01763 1.07210 0.78340
 C110 C -0.01466 1.03111 0.79602
 N111 N 0.00784 1.04686 0.81422
 H112 H -0.10887 0.86618 0.83031
 H113 H 0.06097 0.95922 0.80350
 H114 H 0.03758 0.87426 0.78329
 H115 H -0.13620 0.77823 0.81065
 H116 H 0.04401 1.11374 0.83522
 H117 H 0.04302 1.18996 0.81325
 H118 H -0.03658 1.05863 0.76907
 H119 H -0.03232 0.98614 0.79145
 C120 C -0.12836 0.97725 0.87990
 C121 C 0.18023 1.02842 0.86292
 C122 C 0.00323 1.12998 0.78944
 C123 C -0.05124 0.81899 0.79543
 C124 C 0.38825 0.03287 -0.00664
 C125 C 0.42553 0.04649 -0.02282
 C126 C 0.48060 0.04847 -0.02055
 C127 C 0.49774 0.03482 -0.00249
 C128 C 0.45870 0.02025 0.01346
 C129 C 0.40495 0.02110 0.01159
 C130 C 0.55688 0.03763 -0.00026
 C131 C 0.58737 0.05188 0.01766
 C132 C 0.64344 0.05593 0.01966
 C133 C 0.67046 0.04802 0.00343
 C134 C 0.64121 0.03383 -0.01451
 C135 C 0.58398 0.02718 -0.01616
 H136 H 0.34533 0.03052 -0.00825
 H137 H 0.51048 0.06217 -0.03286
 H138 H 0.47015 0.00920 0.02748
 H139 H 0.56854 0.06099 0.03012
 H140 H 0.71361 0.05074 0.00490
 H141 H 0.56122 0.01445 -0.02997
 C142 C -0.06744 0.60360 0.66800
 C143 C -0.08360 0.56762 0.68484
 C144 C -0.08826 0.51170 0.68410
 C145 C -0.07525 0.49224 0.66692
 C146 C -0.05966 0.52910 0.65018
 C147 C -0.05617 0.58439 0.65062
 C148 C -0.07533 0.43496 0.66665
 C149 C -0.08913 0.40225 0.64953
 C150 C -0.08463 0.35086 0.64877
 C151 C -0.06784 0.33117 0.66554
 C152 C -0.05579 0.36191 0.68286
 C153 C -0.05913 0.41382 0.68332
 H154 H -0.06319 0.64703 0.66836
 H155 H -0.10239 0.48333 0.69695
 H156 H -0.04816 0.51611 0.63687
 H157 H -0.10374 0.41641 0.63675
 H158 H -0.06368 0.29190 0.66515
 H159 H -0.04702 0.43849 0.69657
 C160 C 0.66835 0.61899 0.33218
 C161 C 0.64297 0.58570 0.31560
 C162 C 0.58679 0.53415 0.31692
 C163 C 0.55445 0.51676 0.33452
 C164 C 0.58001 0.55269 0.35081
 C165 C 0.63741 0.60279 0.34983
 C166 C 0.49503 0.46092 0.33595
 C167 C 0.47551 0.42888 0.35371
 C168 C 0.42038 0.37592 0.35515
 C169 C 0.38570 0.35342 0.33839
 C170 C 0.40478 0.38344 0.32049
 C171 C 0.45820 0.43799 0.31948
 H172 H 0.71157 0.65912 0.33118
 H173 H 0.56933 0.50750 0.30417
 H174 H 0.55592 0.54183 0.36439
 H175 H 0.50365 0.44395 0.36643
 H176 H 0.34305 0.31266 0.33923
 H177 H 0.47126 0.46150 0.30566
 C178 C -0.09197 0.22904 0.57927
 C179 C -0.13704 0.17156 0.57453
 C180 C -0.12704 0.13997 0.56040
 C181 C -0.07175 0.16521 0.55076
 C182 C -0.02811 0.22384 0.55471
 C183 C -0.03801 0.25531 0.56881
 C184 C -0.09838 0.25955 0.59620
 C185 C -0.07335 0.32141 0.59591
 C186 C -0.07123 0.35089 0.61278
 C187 C -0.09431 0.31914 0.63031
 C188 C -0.12254 0.25703 0.63032
 C189 C -0.12442 0.22760 0.61348
 H190 H -0.16147 0.09482 0.55770
 H191 H 0.01459 0.24481 0.54730
 H192 H -0.04898 0.39877 0.61229
 H193 H -0.14171 0.23122 0.64351
 H194 H -0.00208 0.29920 0.57219
 H195 H -0.05375 0.34725 0.58276
 H196 H -0.17942 0.15039 0.58213
 H197 H -0.14363 0.18001 0.61430
 C198 C 0.77224 0.70941 0.24680
 C199 C 0.81771 0.70459 0.23752
 C200 C 0.85476 0.74761 0.22382
 C201 C 0.84763 0.79663 0.21956
 C202 C 0.80122 0.80054 0.22845
 C203 C 0.76360 0.75712 0.24183
 C204 C 0.73725 0.66838 0.26291
 C205 C 0.67513 0.64517 0.26404
 C206 C 0.64367 0.61463 0.28076
 C207 C 0.67398 0.60761 0.29674
 C208 C 0.73551 0.62804 0.29520
 C209 C 0.76680 0.65781 0.27838
 H210 H 0.89048 0.74397 0.21714
 H211 H 0.79487 0.83792 0.22530
 H212 H 0.59632 0.59961 0.28165
 H213 H 0.75974 0.62290 0.30732
 H214 H 0.72938 0.76225 0.24895
 H215 H 0.65137 0.65260 0.25225
 H216 H 0.82517 0.66816 0.24114
 H217 H 0.81473 0.67565 0.27791
 C218 C 0.31720 0.05907 -0.09520
 C219 C 0.30558 0.10471 -0.10062
 C220 C 0.26341 0.09598 -0.11498
 C221 C 0.23227 0.04157 -0.12439
 C222 C 0.24730 -0.00231 -0.12002
 C223 C 0.28896 0.00617 -0.10553
 C224 C 0.35308 0.06375 -0.07758
 C225 C 0.38804 0.03624 -0.07645
 C226 C 0.41396 0.03291 -0.05886
 C227 C 0.40569 0.05726 -0.04206
 C228 C 0.37404 0.08805 -0.04350
 C229 C 0.34781 0.09098 -0.06099
 H230 H 0.25293 0.13073 -0.11793
 H231 H 0.22515 -0.04426 -0.12729
 H232 H 0.43807 0.00886 -0.05823
 H233 H 0.36792 0.10837 -0.03092
 H234 H 0.29639 -0.03014 -0.10173
 H235 H 0.39392 0.01571 -0.08902
 H236 H 0.32745 0.14649 -0.09326
 H237 H 0.32082 0.11206 -0.06119
 C238 C -0.01656 0.73911 0.58458
 C239 C 0.03941 0.77993 0.57659
 C240 C 0.04419 0.82218 0.56269
 C241 C -0.00672 0.82496 0.55698
 C242 C -0.06271 0.78350 0.56470
 C243 C -0.06768 0.74060 0.57824
 C244 C -0.02169 0.69776 0.60050
 C245 C -0.06560 0.63759 0.59992
 C246 C -0.07493 0.60001 0.61594
 C247 C -0.04131 0.62232 0.63292
 C248 C 0.00378 0.68207 0.63330
 C249 C 0.01388 0.71937 0.61716
 H250 H 0.08778 0.85401 0.55693
 H251 H -0.10248 0.78496 0.56043
 H252 H -0.11010 0.55413 0.61538
 H253 H 0.03037 0.70007 0.64625
 H254 H -0.11117 0.70998 0.58435
 H255 H -0.09347 0.62004 0.58720
 H256 H 0.07937 0.77951 0.58129
 H257 H 0.04763 0.76572 0.61799
 C258 C 0.27051 0.26977 0.25161
 C259 C 0.28650 0.23473 0.24095
 C260 C 0.24981 0.19974 0.22607
 C261 C 0.19593 0.19850 0.22161
 C262 C 0.18155 0.23610 0.23156
 C263 C 0.21865 0.27157 0.24642
 C264 C 0.30536 0.30016 0.26904
 C265 C 0.32253 0.35941 0.27252
 C266 C 0.35537 0.38709 0.28917
 C267 C 0.37037 0.35548 0.30273
 C268 C 0.35276 0.29621 0.29925
 C269 C 0.32087 0.26896 0.28257
 H270 H 0.26296 0.17248 0.21834
 H271 H 0.14021 0.23591 0.22854
 H272 H 0.36837 0.43281 0.29159
 H273 H 0.36425 0.27106 0.30939
 H274 H 0.20527 0.29807 0.25449
 H275 H 0.31112 0.38436 0.26227
 H276 H 0.32684 0.23343 0.24444
 H277 H 0.30756 0.22305 0.28036
 C278 C 0.76762 -0.00075 -0.07682
 C279 C 0.82793 0.01694 -0.07360
 C280 C 0.86163 0.00943 -0.08767
 C281 C 0.83615 -0.01701 -0.10555
 C282 C 0.77488 -0.03580 -0.10851
 C283 C 0.74130 -0.02769 -0.09438
 C284 C 0.73306 0.00948 -0.06182
 C285 C 0.67292 -0.03269 -0.05786
 C286 C 0.64221 -0.02417 -0.04284
 C287 C 0.67128 0.02635 -0.03142
 C288 C 0.73063 0.06921 -0.03574
 C289 C 0.76101 0.06111 -0.05083
 H290 H 0.90853 0.02725 -0.08450
 H291 H 0.75162 -0.05824 -0.12148
 H292 H 0.59647 -0.05794 -0.03971
 H293 H 0.75363 0.10899 -0.02733
 H294 H 0.69482 -0.04191 -0.09735
 H295 H 0.65019 -0.07313 -0.06594
 H296 H 0.84955 0.03701 -0.06011
 H297 H 0.80666 0.09530 -0.05381
 C298 C 0.24659 -0.01452 0.07558
 C299 C 0.19768 -0.00628 0.07166
 C300 C 0.16081 -0.00846 0.08659
 C301 C 0.17153 -0.01946 0.10581
 C302 C 0.21820 -0.03119 0.10971
 C303 C 0.25560 -0.02859 0.09470
 C304 C 0.28942 -0.00495 0.05983
 C305 C 0.31373 -0.04224 0.05786
 C306 C 0.35224 -0.03352 0.04239
 C307 C 0.36687 0.01251 0.02867
 C308 C 0.34397 0.05068 0.03105
 C309 C 0.30590 0.04215 0.04643
 H310 H 0.12436 -0.00045 0.08317
 H311 H 0.22735 -0.03967 0.12444
 H312 H 0.36926 -0.06362 0.04085
 H313 H 0.35566 0.08740 0.02098
 H314 H 0.29298 -0.03505 0.09816
 H315 H 0.30177 -0.07893 0.06796
 H316 H 0.18852 0.00299 0.05702
 H317 H 0.28941 0.07272 0.04786
 C318 C 0.75990 0.76333 0.41212
 C319 C 0.73442 0.76352 0.42990
 C320 C 0.76787 0.80602 0.44374
 C321 C 0.82841 0.85021 0.44029
 C322 C 0.85260 0.84957 0.42199
 C323 C 0.81899 0.80734 0.40828
 C324 C 0.72587 0.71760 0.39747
 C325 C 0.75489 0.69440 0.38667
 C326 C 0.72538 0.65586 0.37160
 C327 C 0.66591 0.63900 0.36708
 C328 C 0.63564 0.65962 0.37843
 C329 C 0.66544 0.69878 0.39348
 H330 H 0.74446 0.80433 0.45680
 H331 H 0.89874 0.87914 0.41814
 H332 H 0.74931 0.63969 0.36327
 H333 H 0.58980 0.64736 0.37515
 H334 H 0.83983 0.80906 0.39457
 H335 H 0.80087 0.70669 0.38971
 H336 H 0.68866 0.73026 0.43325
 H337 H 0.64195 0.71606 0.40148
 C338 C -0.01354 0.24793 0.74878
 C339 C 0.04277 0.26273 0.75650
 C340 C 0.04815 0.22559 0.77040
 C341 C -0.00252 0.17256 0.77639
 C342 C -0.05884 0.15838 0.76895
 C343 C -0.06439 0.19601 0.75540
 C344 C -0.01935 0.28376 0.73285
 C345 C -0.06317 0.30054 0.73363
 C346 C -0.07314 0.32851 0.71764
 C347 C -0.04028 0.33901 0.70050
 C348 C 0.00470 0.32380 0.69991
 C349 C 0.01544 0.29687 0.71603
 H350 H 0.09199 0.23706 0.77595
 H351 H -0.09843 0.11765 0.77343
 H352 H -0.10821 0.33967 0.71835
 H353 H 0.03071 0.33176 0.68685
 H354 H -0.10815 0.18340 0.74951
 H355 H -0.09045 0.29088 0.74649
 H356 H 0.08254 0.30260 0.75158
 H357 H 0.04910 0.28386 0.71505
 C358 C 0.76565 0.05942 0.09013
 C359 C 0.75416 0.00263 0.09587
 C360 C 0.79080 -0.00432 0.10945
 C361 C 0.83918 0.04531 0.11777
 C362 C 0.84886 0.10200 0.11288
 C363 C 0.81268 0.10906 0.09902
 C364 C 0.73244 0.06627 0.07353
 C365 C 0.76384 0.10531 0.05806
 C366 C 0.73429 0.10426 0.04084
 C367 C 0.67270 0.06465 0.03886
 C368 C 0.64055 0.02852 0.05479
 C369 C 0.67024 0.02905 0.07194
 H370 H 0.78242 -0.04847 0.11308
 H371 H 0.88613 0.14087 0.11908
 H372 H 0.75995 0.13282 0.02878
 H373 H 0.59310 -0.00263 0.05359
 H374 H 0.82232 0.15328 0.09487
 H375 H 0.81187 0.13409 0.05884
 H376 H 0.71870 -0.03634 0.08910
 H377 H 0.64500 -0.00121 0.08372
 C378 C 0.30595 0.25275 0.42667
 C379 C 0.29452 0.19560 0.43200
 C380 C 0.25271 0.16247 0.44646
 C381 C 0.22169 0.18589 0.45603
 C382 C 0.23622 0.24451 0.45163
 C383 C 0.27755 0.27739 0.43707
 C384 C 0.34247 0.28427 0.40921
 C385 C 0.37755 0.34641 0.40839
 C386 C 0.40483 0.37615 0.39104
 C387 C 0.39799 0.34441 0.37414
 C388 C 0.36590 0.28222 0.37527
 C389 C 0.33823 0.25255 0.39253
 H390 H 0.24253 0.11743 0.44941
 H391 H 0.21410 0.26438 0.45900
 H392 H 0.42912 0.42408 0.39067
 H393 H 0.36082 0.25637 0.36263
 H394 H 0.28478 0.32103 0.43332
 H395 H 0.38266 0.37221 0.42103
 H396 H 0.31648 0.17568 0.42457
 H397 H 0.31120 0.20476 0.39250
 C398 C -0.08773 0.68386 0.75433
 C399 C -0.13260 0.69677 0.75931
 C400 C -0.12196 0.73860 0.77338
 C401 C -0.06622 0.76840 0.78272
 C402 C -0.02273 0.75297 0.77854
 C403 C -0.03328 0.71134 0.76450
 C404 C -0.09493 0.64658 0.73745
 C405 C -0.06991 0.60951 0.73763
 C406 C -0.06859 0.58170 0.72075
 C407 C -0.09245 0.59018 0.70334
 C408 C -0.12065 0.62434 0.70346
 C409 C -0.12175 0.65233 0.72030
 H410 H -0.15629 0.74967 0.77626
 H411 H 0.02032 0.77451 0.78573
 H412 H -0.04633 0.55585 0.72114
 H413 H -0.14041 0.63085 0.69036
 H414 H 0.00251 0.70299 0.76094
 H415 H -0.04971 0.60341 0.75068
 H416 H -0.17534 0.67573 0.75193
 H417 H -0.14098 0.68088 0.71957
   
