data_POSCAR
  _audit_creation_date              2014-09-24
  _audit_creation_method            'ToBaCCo'
  _symmetry_space_group_name_H-M    'P1'
  _symmetry_Int_Tables_number       1
  _symmetry_cell_setting            triclinic
  loop_
  _symmetry_equiv_pos_as_xyz
 x,y,z
_cell_length_a 60.8157
_cell_length_b 60.8317
_cell_length_c 52.0147
_cell_angle_alpha 89.974900
_cell_angle_beta 89.975000
_cell_angle_gamma 89.934000
loop_
  _atom_site_label
  _atom_site_type_symbol
  _atom_site_fract_x
  _atom_site_fract_y
  _atom_site_fract_z
O1 O 0.02184 0.30145 -0.02537
 O2 O -0.02124 0.30171 0.02453
 O3 O 0.02167 0.30174 0.02471
 O4 O -0.02106 0.30147 -0.02553
 O5 O -0.02097 0.26511 -0.02520
 O6 O 0.02167 0.26539 0.02495
 O7 O -0.02115 0.26535 0.02476
 O8 O 0.02184 0.26510 -0.02503
 Cu9 Cu 0.00030 0.30527 -0.00044
 Cu10 Cu 0.00036 0.26158 -0.00010
 C11 C 0.02914 0.28321 -0.03358
 C12 C -0.02851 0.28355 0.03301
 C13 C 0.02892 0.28359 0.03326
 C14 C -0.02826 0.28322 -0.03379
 O15 O 0.52033 0.80088 0.47586
 O16 O 0.47756 0.80100 0.52610
 O17 O 0.52047 0.80060 0.52594
 O18 O 0.47742 0.80124 0.47604
 O19 O 0.47719 0.76489 0.47585
 O20 O 0.52015 0.76425 0.52565
 O21 O 0.47732 0.76465 0.52582
 O22 O 0.52001 0.76453 0.47566
 Cu23 Cu 0.49897 0.80461 0.50101
 Cu24 Cu 0.49864 0.76092 0.50072
 C25 C 0.52742 0.78267 0.46733
 C26 C 0.47018 0.78282 0.53438
 C27 C 0.52760 0.78229 0.53416
 C28 C 0.47000 0.78315 0.46758
 O29 O 1.02134 0.69993 0.02610
 O30 O 0.97845 0.69942 -0.02399
 O31 O 1.02136 0.69975 -0.02399
 O32 O 0.97843 0.69956 0.02607
 O33 O 0.97813 0.73591 0.02585
 O34 O 1.02099 0.73610 -0.02412
 O35 O 0.97817 0.73578 -0.02412
 O36 O 1.02096 0.73628 0.02588
 Cu37 Cu 0.99993 0.69599 0.00106
 Cu38 Cu 0.99953 0.73968 0.00086
 C39 C 1.02841 0.71821 0.03440
 C40 C 0.97103 0.71754 -0.03245
 C41 C 1.02845 0.71798 -0.03246
 C42 C 0.97099 0.71772 0.03434
 O43 O 0.52226 0.19845 0.52417
 O44 O 0.47942 0.19841 0.47406
 O45 O 0.52233 0.19863 0.47408
 O46 O 0.47936 0.19832 0.52413
 O47 O 0.47923 0.23467 0.52419
 O48 O 0.52209 0.23498 0.47424
 O49 O 0.47927 0.23477 0.47421
 O50 O 0.52203 0.23481 0.52423
 Cu51 Cu 0.50087 0.19477 0.49909
 Cu52 Cu 0.50064 0.23847 0.49923
 C53 C 0.52940 0.21666 0.53262
 C54 C 0.47208 0.21660 0.46574
 C55 C 0.52948 0.21688 0.46576
 C56 C 0.47202 0.21647 0.53256
 O57 O 0.69979 -0.02146 0.02454
 O58 O 0.70011 0.02145 -0.02553
 O59 O 0.69972 -0.02144 -0.02554
 O60 O 0.70015 0.02142 0.02455
 O61 O 0.73651 0.02102 0.02443
 O62 O 0.73609 -0.02174 -0.02556
 O63 O 0.73647 0.02105 -0.02555
 O64 O 0.73615 -0.02177 0.02442
 Cu65 Cu 0.69626 0.00003 -0.00049
 Cu66 Cu 0.73996 -0.00040 -0.00057
 C67 C 0.71794 -0.02889 0.03289
 C68 C 0.71836 0.02853 -0.03395
 C69 C 0.71785 -0.02885 -0.03395
 C70 C 0.71842 0.02848 0.03290
 O71 O 0.19977 0.47871 0.52512
 O72 O 0.19982 0.52170 0.47513
 O73 O 0.19996 0.47881 0.47504
 O74 O 0.19964 0.52161 0.52522
 O75 O 0.23601 0.52164 0.52534
 O76 O 0.23633 0.47892 0.47526
 O77 O 0.23619 0.52173 0.47534
 O78 O 0.23613 0.47882 0.52524
 Cu79 Cu 0.19612 0.50020 0.50011
 Cu80 Cu 0.23982 0.50029 0.50031
 C81 C 0.21797 0.47148 0.53356
 C82 C 0.21804 0.52899 0.46684
 C83 C 0.21822 0.47161 0.46673
 C84 C 0.21779 0.52888 0.53370
 O85 O 0.30058 1.02249 0.02492
 O86 O 0.30041 0.97931 -0.02482
 O87 O 0.30056 1.02220 -0.02516
 O88 O 0.30047 0.97958 0.02524
 O89 O 0.26410 0.97978 0.02525
 O90 O 0.26420 1.02232 -0.02506
 O91 O 0.26404 0.97951 -0.02472
 O92 O 0.26422 1.02260 0.02492
 Cu93 Cu 0.30418 1.00088 0.00004
 Cu94 Cu 0.26048 1.00107 0.00011
 C95 C 0.28240 1.02987 0.03326
 C96 C 0.28217 0.97209 -0.03311
 C97 C 0.28238 1.02948 -0.03358
 C98 C 0.28225 0.97244 0.03368
 O99 O 0.80233 0.47819 0.47484
 O100 O 0.80210 0.52077 0.52524
 O101 O 0.80230 0.47788 0.52491
 O102 O 0.80208 0.52109 0.47517
 O103 O 0.76572 0.52089 0.47523
 O104 O 0.76593 0.47778 0.52486
 O105 O 0.76573 0.52058 0.52520
 O106 O 0.76597 0.47809 0.47489
 Cu107 Cu 0.80588 0.49950 0.50004
 Cu108 Cu 0.76217 0.49932 0.50005
 C109 C 0.78417 0.47092 0.46642
 C110 C 0.78385 0.52789 0.53368
 C111 C 0.78412 0.47050 0.53322
 C112 C 0.78384 0.52832 0.46687
 O113 O 0.24607 0.21566 0.24179
 O114 O 0.23379 0.26347 0.28281
 O115 O 0.21579 0.24588 0.24224
 O116 O 0.26409 0.23328 0.28234
 O117 O 0.28472 0.25423 0.25733
 O118 O 0.23643 0.26683 0.21724
 O119 O 0.25442 0.28443 0.25782
 O120 O 0.26670 0.23661 0.21679
 Cu121 Cu 0.23785 0.23746 0.26482
 Cu122 Cu 0.26265 0.26264 0.23477
 C123 C 0.25838 0.21808 0.22230
 C124 C 0.24210 0.28200 0.27730
 C125 C 0.21798 0.25841 0.22290
 C126 C 0.28254 0.24171 0.27667
 O127 O 0.76531 0.73634 0.28318
 O128 O 0.75267 0.78414 0.24226
 O129 O 0.73482 0.76635 0.28285
 O130 O 0.78315 0.75413 0.24261
 O131 O 0.76263 0.73309 0.21763
 O132 O 0.71429 0.74530 0.25788
 O133 O 0.73215 0.76309 0.21728
 O134 O 0.74479 0.71529 0.25820
 Cu135 Cu 0.76105 0.76236 0.26525
 Cu136 Cu 0.73639 0.73707 0.23523
 C137 C 0.75712 0.71776 0.27765
 C138 C 0.74037 0.78166 0.22279
 C139 C 0.71642 0.75781 0.27722
 C140 C 0.78102 0.74162 0.22327
 O141 O 0.78551 0.24609 0.24096
 O142 O 0.73772 0.23350 0.28190
 O143 O 0.75532 0.21584 0.24109
 O144 O 0.76786 0.26380 0.28171
 O145 O 0.74686 0.28462 0.25695
 O146 O 0.73432 0.23668 0.21635
 O147 O 0.71671 0.25434 0.25716
 O148 O 0.76451 0.26692 0.21621
 Cu149 Cu 0.76372 0.23770 0.26391
 Cu150 Cu 0.73848 0.26274 0.23417
 C151 C 0.78306 0.25856 0.22162
 C152 C 0.71918 0.24187 0.27651
 C153 C 0.74278 0.21819 0.22180
 C154 C 0.75940 0.28229 0.27624
 O155 O 0.26545 0.76475 0.21780
 O156 O 0.25305 0.71670 0.25839
 O157 O 0.23536 0.73440 0.21763
 O158 O 0.28316 0.74700 0.25849
 O159 O 0.26215 0.76776 0.28332
 O160 O 0.21434 0.75515 0.24245
 O161 O 0.23203 0.73745 0.28321
 O162 O 0.24443 0.78550 0.24263
 Cu163 Cu 0.26137 0.73862 0.23557
 Cu164 Cu 0.23611 0.76356 0.26540
 C165 C 0.25696 0.78322 0.22331
 C166 C 0.24054 0.71899 0.27772
 C167 C 0.21680 0.74273 0.22307
 C168 C 0.28071 0.75943 0.27786
 O169 O 0.76713 0.26258 0.71727
 O170 O 0.75466 0.21477 0.75823
 O171 O 0.73711 0.23217 0.71721
 O172 O 0.78467 0.24519 0.75825
 O173 O 0.76347 0.26605 0.78274
 O174 O 0.71591 0.25303 0.74170
 O175 O 0.73346 0.23564 0.78272
 O176 O 0.74593 0.28344 0.74177
 Cu177 Cu 0.76302 0.23656 0.73527
 Cu178 Cu 0.73755 0.26164 0.76470
 C179 C 0.75857 0.28106 0.72256
 C180 C 0.74204 0.21716 0.77746
 C181 C 0.71851 0.24049 0.72245
 C182 C 0.78208 0.25775 0.77747
 O183 O 0.28275 0.74607 0.74301
 O184 O 0.23456 0.73376 0.78340
 O185 O 0.25242 0.71597 0.74279
 O186 O 0.26487 0.76388 0.78356
 O187 O 0.24419 0.78482 0.75856
 O188 O 0.23174 0.73692 0.71780
 O189 O 0.21388 0.75470 0.75841
 O190 O 0.26208 0.76701 0.71801
 Cu191 Cu 0.26073 0.73780 0.76571
 Cu192 Cu 0.23588 0.76297 0.73568
 C193 C 0.28053 0.75854 0.72364
 C194 C 0.21611 0.74223 0.77779
 C195 C 0.24006 0.71839 0.72334
 C196 C 0.25657 0.78242 0.77799
 O197 O 0.25474 0.28367 0.74116
 O198 O 0.26756 0.23602 0.78223
 O199 O 0.28492 0.25334 0.74109
 O200 O 0.23738 0.26633 0.78230
 O201 O 0.21624 0.24534 0.75798
 O202 O 0.26378 0.23235 0.71677
 O203 O 0.24642 0.21502 0.75792
 O204 O 0.23360 0.26267 0.71684
 Cu205 Cu 0.26329 0.26196 0.76415
 Cu206 Cu 0.23788 0.23673 0.73492
 C207 C 0.24208 0.28119 0.72201
 C208 C 0.25907 0.21750 0.77708
 C209 C 0.28236 0.24073 0.72192
 C210 C 0.21881 0.25795 0.77716
 O211 O 0.73653 0.76618 0.71702
 O212 O 0.78445 0.75389 0.75788
 O213 O 0.76702 0.73617 0.71704
 O214 O 0.75397 0.78390 0.75785
 O215 O 0.73319 0.76281 0.78253
 O216 O 0.74625 0.71509 0.74173
 O217 O 0.76368 0.73280 0.78256
 O218 O 0.71575 0.74509 0.74170
 Cu219 Cu 0.76259 0.76216 0.73495
 Cu220 Cu 0.73762 0.73682 0.76462
 C221 C 0.71807 0.75764 0.72240
 C222 C 0.78213 0.74135 0.77718
 C223 C 0.75877 0.71759 0.72244
 C224 C 0.74146 0.78139 0.77714
 C225 C 0.28234 0.04599 0.05130
 C226 C 0.28198 0.06045 0.06714
 C227 C 0.28114 0.07787 0.08583
 C228 C 0.28521 0.09958 0.07830
 C229 C 0.28358 0.11665 0.09619
 C230 C 0.27780 0.11223 0.12188
 C231 C 0.27397 0.09032 0.12932
 C232 C 0.27563 0.07326 0.11139
 C233 C 0.27524 0.13047 0.14063
 C234 C 0.25772 0.13043 0.15833
 C235 C 0.25485 0.14795 0.17539
 C236 C 0.26944 0.16572 0.17505
 C237 C 0.28705 0.16582 0.15773
 C238 C 0.28995 0.14832 0.14063
 C239 C 0.26594 0.18411 0.19199
 C240 C 0.26267 0.19958 0.20595
 H241 H 0.28938 0.10334 0.05853
 H242 H 0.28632 0.13336 0.08977
 H243 H 0.26976 0.08636 0.14901
 H244 H 0.27245 0.05652 0.11743
 H245 H 0.24594 0.11711 0.15858
 H246 H 0.24109 0.14776 0.18863
 H247 H 0.29845 0.17949 0.15731
 H248 H 0.30374 0.14870 0.12746
 C249 C 0.78363 0.54471 0.55298
 C250 C 0.78311 0.55901 0.56900
 C251 C 0.78209 0.57627 0.58787
 C252 C 0.79744 0.59339 0.58738
 C253 C 0.79588 0.61063 0.60505
 C254 C 0.77890 0.61098 0.62345
 C255 C 0.76372 0.59354 0.62398
 C256 C 0.76531 0.57632 0.60628
 C257 C 0.77666 0.62971 0.64157
 C258 C 0.77062 0.62613 0.66736
 C259 C 0.76772 0.64387 0.68411
 C260 C 0.77082 0.66539 0.67533
 C261 C 0.77706 0.66911 0.64981
 C262 C 0.77998 0.65141 0.63303
 C263 C 0.76695 0.68370 0.69225
 C264 C 0.76339 0.69913 0.70618
 H265 H 0.81050 0.59350 0.57321
 H266 H 0.80796 0.62368 0.60436
 H267 H 0.75030 0.59348 0.63766
 H268 H 0.75328 0.56321 0.60675
 H269 H 0.76820 0.60961 0.67458
 H270 H 0.76289 0.64080 0.70384
 H271 H 0.77939 0.68572 0.64278
 H272 H 0.78432 0.65473 0.61322
 C273 C 0.71795 0.95422 0.05214
 C274 C 0.71830 0.93990 0.06815
 C275 C 0.71913 0.92264 0.08706
 C276 C 0.70355 0.90573 0.08669
 C277 C 0.70488 0.88852 0.10447
 C278 C 0.72184 0.88802 0.12286
 C279 C 0.73727 0.90524 0.12324
 C280 C 0.73592 0.92241 0.10544
 C281 C 0.72379 0.86936 0.14116
 C282 C 0.72988 0.87300 0.16691
 C283 C 0.73249 0.85533 0.18384
 C284 C 0.72905 0.83380 0.17527
 C285 C 0.72276 0.83002 0.14978
 C286 C 0.72012 0.84766 0.13283
 C287 C 0.73264 0.81553 0.19236
 C288 C 0.73598 0.80012 0.20641
 H289 H 0.69048 0.90575 0.07254
 H290 H 0.69261 0.87566 0.10388
 H291 H 0.75070 0.90517 0.13691
 H292 H 0.74813 0.93536 0.10582
 H293 H 0.73255 0.88953 0.17398
 H294 H 0.73736 0.85844 0.20353
 H295 H 0.72017 0.81341 0.14292
 H296 H 0.71573 0.84428 0.11306
 C297 C 0.21808 0.45451 0.55271
 C298 C 0.21850 0.44009 0.56861
 C299 C 0.21940 0.42271 0.58735
 C300 C 0.20477 0.40502 0.58583
 C301 C 0.20624 0.38769 0.60342
 C302 C 0.22241 0.38783 0.62277
 C303 C 0.23687 0.40583 0.62432
 C304 C 0.23537 0.42313 0.60670
 C305 C 0.22459 0.36904 0.64085
 C306 C 0.22937 0.37264 0.66699
 C307 C 0.23220 0.35488 0.68375
 C308 C 0.23028 0.33333 0.67464
 C309 C 0.22530 0.32958 0.64876
 C310 C 0.22245 0.34730 0.63196
 C311 C 0.23406 0.31503 0.69164
 C312 C 0.23754 0.29962 0.70564
 H313 H 0.19234 0.40454 0.57093
 H314 H 0.19471 0.37421 0.60193
 H315 H 0.24968 0.40628 0.63876
 H316 H 0.24686 0.43669 0.60798
 H317 H 0.23085 0.38917 0.67447
 H318 H 0.23604 0.35797 0.70377
 H319 H 0.22389 0.31296 0.64147
 H320 H 0.21909 0.34398 0.61190
 C321 C 0.95537 0.28351 0.05107
 C322 C 0.94090 0.28316 0.06691
 C323 C 0.92345 0.28231 0.08558
 C324 C 0.92806 0.27703 0.11121
 C325 C 0.91097 0.27530 0.12910
 C326 C 0.88903 0.27882 0.12155
 C327 C 0.88460 0.28439 0.09580
 C328 C 0.90171 0.28609 0.07796
 C329 C 0.87076 0.27614 0.14026
 C330 C 0.85269 0.29063 0.14008
 C331 C 0.83516 0.28759 0.15712
 C332 C 0.83545 0.27006 0.17455
 C333 C 0.85344 0.25571 0.17507
 C334 C 0.87099 0.25872 0.15807
 C335 C 0.81705 0.26640 0.19141
 C336 C 0.80156 0.26300 0.20532
 H337 H 0.94483 0.27407 0.11732
 H338 H 0.91493 0.27126 0.14883
 H339 H 0.86788 0.28690 0.08931
 H340 H 0.89795 0.29008 0.05813
 H341 H 0.85215 0.30434 0.12682
 H342 H 0.82132 0.29880 0.15656
 H343 H 0.85378 0.24202 0.18840
 H344 H 0.88449 0.24711 0.15845
 C345 C 0.45326 0.78275 0.55359
 C346 C 0.43886 0.78237 0.56952
 C347 C 0.42147 0.78154 0.58826
 C348 C 0.42590 0.77478 0.61345
 C349 C 0.40883 0.77311 0.63136
 C350 C 0.38707 0.77817 0.62427
 C351 C 0.38284 0.78520 0.59897
 C352 C 0.39993 0.78685 0.58110
 C353 C 0.36877 0.77556 0.64294
 C354 C 0.35151 0.79098 0.64389
 C355 C 0.33390 0.78804 0.66084
 C356 C 0.33331 0.76968 0.67705
 C357 C 0.35050 0.75438 0.67645
 C358 C 0.36813 0.75729 0.65954
 C359 C 0.31478 0.76615 0.69377
 C360 C 0.29918 0.76286 0.70754
 H361 H 0.44252 0.77064 0.61920
 H362 H 0.41265 0.76791 0.65076
 H363 H 0.36624 0.78891 0.59282
 H364 H 0.39630 0.79198 0.56161
 H365 H 0.35167 0.80534 0.63159
 H366 H 0.32068 0.79999 0.66116
 H367 H 0.35015 0.74005 0.68882
 H368 H 0.38099 0.74498 0.65902
 C369 C 0.04439 0.71852 0.05261
 C370 C 0.05870 0.71911 0.06863
 C371 C 0.07593 0.72022 0.08754
 C372 C 0.07636 0.73753 0.10524
 C373 C 0.09350 0.73913 0.12303
 C374 C 0.11051 0.72342 0.12333
 C375 C 0.10981 0.70594 0.10562
 C376 C 0.09263 0.70437 0.08785
 C377 C 0.12914 0.72560 0.14161
 C378 C 0.15082 0.72131 0.13353
 C379 C 0.16844 0.72412 0.15046
 C380 C 0.16467 0.73120 0.17567
 C381 C 0.14316 0.73526 0.18399
 C382 C 0.12550 0.73248 0.16709
 C383 C 0.18293 0.73490 0.19272
 C384 C 0.19833 0.73831 0.20674
 H385 H 0.06357 0.74995 0.10508
 H386 H 0.09372 0.75294 0.13615
 H387 H 0.12251 0.69345 0.10557
 H388 H 0.09246 0.69089 0.07424
 H389 H 0.15420 0.71629 0.11396
 H390 H 0.18504 0.72103 0.14378
 H391 H 0.14004 0.74074 0.20348
 H392 H 0.10899 0.73565 0.17397
 C393 C 0.54625 0.21680 0.55188
 C394 C 0.56056 0.21724 0.56790
 C395 C 0.57779 0.21816 0.58682
 C396 C 0.59494 0.20281 0.58629
 C397 C 0.61213 0.20424 0.60406
 C398 C 0.61238 0.22109 0.62259
 C399 C 0.59493 0.23629 0.62313
 C400 C 0.57777 0.23483 0.60534
 C401 C 0.63103 0.22318 0.64085
 C402 C 0.62731 0.22905 0.66667
 C403 C 0.64497 0.23180 0.68357
 C404 C 0.66654 0.22872 0.67492
 C405 C 0.67040 0.22264 0.64937
 C406 C 0.65278 0.21986 0.63244
 C407 C 0.68477 0.23246 0.69199
 C408 C 0.70013 0.23594 0.70605
 H409 H 0.59510 0.18983 0.57203
 H410 H 0.62518 0.19214 0.60335
 H411 H 0.59480 0.24963 0.63691
 H412 H 0.56463 0.24687 0.60584
 H413 H 0.61075 0.23145 0.67379
 H414 H 0.64180 0.23651 0.70331
 H415 H 0.68705 0.22033 0.64244
 H416 H 0.65620 0.21564 0.61262
 C417 C 0.71860 0.04452 0.94786
 C418 C 0.71912 0.05886 0.93185
 C419 C 0.72013 0.07612 0.91297
 C420 C 0.73722 0.07645 0.89496
 C421 C 0.73873 0.09363 0.87718
 C422 C 0.72315 0.11075 0.87722
 C423 C 0.70589 0.11015 0.89524
 C424 C 0.70441 0.09294 0.91299
 C425 C 0.72525 0.12942 0.85896
 C426 C 0.72124 0.15110 0.86718
 C427 C 0.72397 0.16875 0.85027
 C428 C 0.73070 0.16500 0.82492
 C429 C 0.73450 0.14349 0.81645
 C430 C 0.73179 0.12580 0.83334
 C431 C 0.73433 0.18327 0.80786
 C432 C 0.73768 0.19869 0.79383
 H433 H 0.74955 0.06358 0.89485
 H434 H 0.75238 0.09378 0.86381
 H435 H 0.69350 0.12294 0.89555
 H436 H 0.69110 0.09283 0.92684
 H437 H 0.71649 0.15445 0.88686
 H438 H 0.72110 0.18534 0.85706
 H439 H 0.73970 0.14040 0.79686
 H440 H 0.73474 0.10930 0.82635
 C441 C 0.21818 0.54591 0.44763
 C442 C 0.21862 0.56027 0.43166
 C443 C 0.21951 0.57757 0.41281
 C444 C 0.20365 0.59425 0.41284
 C445 C 0.20500 0.61148 0.39512
 C446 C 0.22227 0.61226 0.37712
 C447 C 0.23800 0.59527 0.37708
 C448 C 0.23662 0.57806 0.39482
 C449 C 0.22422 0.63096 0.35890
 C450 C 0.23080 0.62743 0.33328
 C451 C 0.23338 0.64516 0.31643
 C452 C 0.22941 0.66663 0.32493
 C453 C 0.22263 0.67029 0.35028
 C454 C 0.22003 0.65259 0.36716
 C455 C 0.23295 0.68496 0.30794
 C456 C 0.23624 0.70044 0.29398
 H457 H 0.19032 0.59401 0.42667
 H458 H 0.19249 0.62417 0.39543
 H459 H 0.25166 0.59555 0.36372
 H460 H 0.24905 0.56529 0.39472
 H461 H 0.23389 0.61096 0.32626
 H462 H 0.23863 0.64215 0.29683
 H463 H 0.21963 0.68685 0.35711
 H464 H 0.21525 0.65588 0.38684
 C465 C 0.28197 0.95504 0.94786
 C466 C 0.28147 0.94055 0.93206
 C467 C 0.28047 0.92307 0.91345
 C468 C 0.27467 0.92760 0.88796
 C469 C 0.27286 0.91050 0.87014
 C470 C 0.27682 0.88861 0.87760
 C471 C 0.28290 0.88427 0.90322
 C472 C 0.28469 0.90139 0.92100
 C473 C 0.27410 0.87031 0.85897
 C474 C 0.28886 0.85246 0.85882
 C475 C 0.28581 0.83490 0.84186
 C476 C 0.26799 0.83493 0.82484
 C477 C 0.25336 0.85270 0.82466
 C478 C 0.25638 0.87028 0.84158
 C479 C 0.26434 0.81648 0.80805
 C480 C 0.26096 0.80096 0.79421
 H481 H 0.27138 0.94433 0.88191
 H482 H 0.26842 0.91439 0.85050
 H483 H 0.28576 0.86758 0.90966
 H484 H 0.28908 0.89769 0.94072
 H485 H 0.30281 0.85213 0.87175
 H486 H 0.29724 0.82123 0.84215
 H487 H 0.23945 0.85284 0.81164
 H488 H 0.24457 0.88360 0.84146
 C489 C 0.78413 0.45410 0.44711
 C490 C 0.78376 0.43979 0.43110
 C491 C 0.78292 0.42252 0.41223
 C492 C 0.77569 0.42703 0.38724
 C493 C 0.77397 0.41006 0.36923
 C494 C 0.77946 0.38834 0.37601
 C495 C 0.78698 0.38404 0.40110
 C496 C 0.78867 0.40103 0.41907
 C497 C 0.77677 0.37013 0.35726
 C498 C 0.79240 0.35309 0.35578
 C499 C 0.78939 0.33556 0.33876
 C500 C 0.77074 0.33482 0.32303
 C501 C 0.75523 0.35180 0.32416
 C502 C 0.75821 0.36934 0.34114
 C503 C 0.76716 0.31637 0.30625
 C504 C 0.76381 0.30084 0.29242
 H505 H 0.77120 0.44362 0.38173
 H506 H 0.76839 0.41393 0.34998
 H507 H 0.79104 0.36746 0.40702
 H508 H 0.79418 0.39734 0.43841
 H509 H 0.80698 0.35336 0.36772
 H510 H 0.80151 0.32251 0.33802
 H511 H 0.74068 0.35133 0.31215
 H512 H 0.74573 0.38203 0.34208
 C513 C 0.04610 0.28296 0.94726
 C514 C 0.06050 0.28241 0.93133
 C515 C 0.07784 0.28133 0.91253
 C516 C 0.07744 0.26509 0.89349
 C517 C 0.09467 0.26346 0.87580
 C518 C 0.11259 0.27805 0.87695
 C519 C 0.11272 0.29447 0.89600
 C520 C 0.09545 0.29609 0.91367
 C521 C 0.13129 0.27576 0.85876
 C522 C 0.15307 0.27819 0.86742
 C523 C 0.17072 0.27526 0.85053
 C524 C 0.16685 0.26991 0.82476
 C525 C 0.14525 0.26769 0.81588
 C526 C 0.12757 0.27060 0.83275
 C527 C 0.18508 0.26607 0.80768
 C528 C 0.20043 0.26253 0.79360
 H529 H 0.06394 0.25352 0.89252
 H530 H 0.09423 0.25045 0.86161
 H531 H 0.12614 0.30611 0.89719
 H532 H 0.09592 0.30873 0.92833
 H533 H 0.15649 0.28184 0.88739
 H534 H 0.18738 0.27690 0.85764
 H535 H 0.14207 0.26356 0.79596
 H536 H 0.11100 0.26889 0.82543
 C537 C 0.54429 0.78249 0.44807
 C538 C 0.55864 0.78204 0.43208
 C539 C 0.57594 0.78111 0.41323
 C540 C 0.57141 0.77413 0.38815
 C541 C 0.58839 0.77239 0.37013
 C542 C 0.61015 0.77760 0.37699
 C543 C 0.61448 0.78485 0.40217
 C544 C 0.59748 0.78657 0.42015
 C545 C 0.62836 0.77493 0.35820
 C546 C 0.64551 0.79042 0.35694
 C547 C 0.66304 0.78743 0.33989
 C548 C 0.66367 0.76896 0.32388
 C549 C 0.64658 0.75359 0.32478
 C550 C 0.62903 0.75655 0.34180
 C551 C 0.68215 0.76539 0.30709
 C552 C 0.69774 0.76210 0.29330
 H553 H 0.55478 0.76988 0.38258
 H554 H 0.58449 0.76702 0.35082
 H555 H 0.63109 0.78869 0.40815
 H556 H 0.60119 0.79188 0.43955
 H557 H 0.64533 0.80487 0.36909
 H558 H 0.67618 0.79943 0.33934
 H559 H 0.64696 0.73917 0.31257
 H560 H 0.61626 0.74418 0.34255
 C561 C 0.95409 0.71749 0.94838
 C562 C 0.93968 0.71779 0.93247
 C563 C 0.92230 0.71856 0.91372
 C564 C 0.90059 0.71435 0.92116
 C565 C 0.88355 0.71596 0.90322
 C566 C 0.88800 0.72184 0.87757
 C567 C 0.90992 0.72578 0.87022
 C568 C 0.92694 0.72416 0.88819
 C569 C 0.86978 0.72439 0.85878
 C570 C 0.86979 0.74198 0.84118
 C571 C 0.85228 0.74486 0.82411
 C572 C 0.83455 0.73023 0.82434
 C573 C 0.83448 0.71254 0.84157
 C574 C 0.85198 0.70963 0.85868
 C575 C 0.81616 0.73376 0.80742
 C576 C 0.80066 0.73704 0.79348
 H577 H 0.89680 0.71012 0.94090
 H578 H 0.86684 0.71311 0.90958
 H579 H 0.91391 0.73007 0.85055
 H580 H 0.94369 0.72744 0.88222
 H581 H 0.88308 0.75380 0.84102
 H582 H 0.85244 0.75867 0.81095
 H583 H 0.82084 0.70111 0.84190
 H584 H 0.85162 0.69579 0.87177
 C585 C 0.45515 0.21671 0.44656
 C586 C 0.44075 0.21712 0.43064
 C587 C 0.42338 0.21801 0.41190
 C588 C 0.40181 0.21292 0.41910
 C589 C 0.38474 0.21464 0.40122
 C590 C 0.38903 0.22152 0.37588
 C591 C 0.41082 0.22635 0.36875
 C592 C 0.42787 0.22461 0.38667
 C593 C 0.37076 0.22422 0.35720
 C594 C 0.37024 0.24242 0.34050
 C595 C 0.35264 0.24542 0.32359
 C596 C 0.33534 0.23028 0.32309
 C597 C 0.33581 0.21199 0.33940
 C598 C 0.35340 0.20895 0.35635
 C599 C 0.31682 0.23392 0.30641
 C600 C 0.30121 0.23729 0.29269
 H601 H 0.39813 0.20791 0.43862
 H602 H 0.36811 0.21110 0.40740
 H603 H 0.41469 0.23143 0.34932
 H604 H 0.44452 0.22857 0.38089
 H605 H 0.38319 0.25462 0.34094
 H606 H 0.35238 0.25970 0.31114
 H607 H 0.32250 0.20016 0.33917
 H608 H 0.35345 0.19465 0.36874
 C609 C 0.71783 0.95426 0.94683
 C610 C 0.71815 0.93991 0.93085
 C611 C 0.71896 0.92262 0.91201
 C612 C 0.70410 0.90511 0.91330
 C613 C 0.70550 0.88784 0.89563
 C614 C 0.72182 0.88788 0.87643
 C615 C 0.73650 0.90571 0.87512
 C616 C 0.73508 0.92294 0.89281
 C617 C 0.72393 0.86915 0.85830
 C618 C 0.72898 0.87279 0.83223
 C619 C 0.73178 0.85507 0.81542
 C620 C 0.72957 0.83351 0.82442
 C621 C 0.72430 0.82971 0.85024
 C622 C 0.72148 0.84740 0.86707
 C623 C 0.73336 0.81524 0.80742
 C624 C 0.73688 0.79983 0.79345
 H625 H 0.69156 0.90470 0.92809
 H626 H 0.69380 0.87449 0.89695
 H627 H 0.74943 0.90607 0.86081
 H628 H 0.74674 0.93636 0.89173
 H629 H 0.73070 0.88934 0.82483
 H630 H 0.73585 0.85819 0.79547
 H631 H 0.72266 0.81308 0.85743
 H632 H 0.71791 0.84403 0.88708
 C633 C 0.21848 0.45474 0.44749
 C634 C 0.21903 0.44041 0.43149
 C635 C 0.22008 0.42314 0.41262
 C636 C 0.20438 0.40633 0.41265
 C637 C 0.20591 0.38911 0.39493
 C638 C 0.22320 0.38848 0.37694
 C639 C 0.23875 0.40559 0.37690
 C640 C 0.23720 0.42278 0.39464
 C641 C 0.22533 0.36980 0.35872
 C642 C 0.23189 0.37339 0.33310
 C643 C 0.23462 0.35570 0.31624
 C644 C 0.23083 0.33420 0.32473
 C645 C 0.22408 0.33047 0.35008
 C646 C 0.22133 0.34813 0.36697
 C647 C 0.23445 0.31591 0.30769
 C648 C 0.23778 0.30048 0.29367
 H649 H 0.19105 0.40646 0.42648
 H650 H 0.19353 0.37633 0.39524
 H651 H 0.25242 0.40542 0.36355
 H652 H 0.24950 0.43564 0.39453
 H653 H 0.23484 0.38989 0.32609
 H654 H 0.23983 0.35877 0.29665
 H655 H 0.22120 0.31388 0.35689
 H656 H 0.21657 0.34479 0.38664
 C657 C 0.28230 0.04538 0.94811
 C658 C 0.28193 0.05964 0.93202
 C659 C 0.28110 0.07683 0.91303
 C660 C 0.26469 0.07666 0.89419
 C661 C 0.26328 0.09379 0.87635
 C662 C 0.27828 0.11138 0.87715
 C663 C 0.29489 0.11127 0.89599
 C664 C 0.29627 0.09410 0.91381
 C665 C 0.27622 0.13002 0.85885
 C666 C 0.27918 0.15178 0.86733
 C667 C 0.27642 0.16939 0.85036
 C668 C 0.27071 0.16551 0.82470
 C669 C 0.26798 0.14393 0.81599
 C670 C 0.27072 0.12628 0.83294
 C671 C 0.26700 0.18373 0.80758
 C672 C 0.26356 0.19909 0.79350
 H673 H 0.25279 0.06342 0.89350
 H674 H 0.25013 0.09354 0.86232
 H675 H 0.30684 0.12442 0.89690
 H676 H 0.30905 0.09439 0.92831
 H677 H 0.28310 0.15522 0.88722
 H678 H 0.27846 0.18604 0.85734
 H679 H 0.26357 0.14074 0.79617
 H680 H 0.26859 0.10971 0.82576
 C681 C 0.78361 0.54537 0.44782
 C682 C 0.78306 0.55986 0.43202
 C683 C 0.78198 0.57733 0.41339
 C684 C 0.78587 0.59905 0.42097
 C685 C 0.78397 0.61616 0.40316
 C686 C 0.77811 0.61177 0.37750
 C687 C 0.77447 0.58985 0.37001
 C688 C 0.77640 0.57275 0.38785
 C689 C 0.77525 0.63005 0.35884
 C690 C 0.75764 0.62989 0.34131
 C691 C 0.75448 0.64744 0.32435
 C692 C 0.76888 0.66536 0.32463
 C693 C 0.78659 0.66558 0.34180
 C694 C 0.78978 0.64805 0.35880
 C695 C 0.76510 0.68376 0.30780
 C696 C 0.76162 0.69925 0.29391
 H697 H 0.79009 0.60279 0.44072
 H698 H 0.78658 0.63288 0.40961
 H699 H 0.77021 0.58591 0.35033
 H700 H 0.77336 0.55599 0.38178
 H701 H 0.74599 0.61644 0.34111
 H702 H 0.74065 0.64715 0.31122
 H703 H 0.79785 0.67937 0.34217
 H704 H 0.80364 0.64853 0.37184
 C705 C 0.04445 0.71816 0.94935
 C706 C 0.05879 0.71858 0.93336
 C707 C 0.07608 0.71946 0.91449
 C708 C 0.07140 0.72577 0.88920
 C709 C 0.08834 0.72742 0.87112
 C710 C 0.11021 0.72278 0.87812
 C711 C 0.11470 0.71621 0.90353
 C712 C 0.09773 0.71458 0.92158
 C713 C 0.12836 0.72533 0.85924
 C714 C 0.14582 0.71014 0.85848
 C715 C 0.16329 0.71304 0.84133
 C716 C 0.16354 0.73114 0.82472
 C717 C 0.14614 0.74621 0.82512
 C718 C 0.12865 0.74333 0.84224
 C719 C 0.18195 0.73467 0.80783
 C720 C 0.19749 0.73795 0.79395
 H721 H 0.05469 0.72957 0.88350
 H722 H 0.08433 0.73226 0.85164
 H723 H 0.13138 0.71283 0.90963
 H724 H 0.10155 0.70979 0.94114
 H725 H 0.14593 0.69598 0.87110
 H726 H 0.17667 0.70128 0.84117
 H727 H 0.14623 0.76034 0.81243
 H728 H 0.11563 0.75548 0.84259
 C729 C 0.54641 0.21715 0.44655
 C730 C 0.56076 0.21774 0.43057
 C731 C 0.57805 0.21886 0.41172
 C732 C 0.57810 0.23574 0.39344
 C733 C 0.59531 0.23739 0.37572
 C734 C 0.61275 0.22216 0.37607
 C735 C 0.61242 0.20510 0.39435
 C736 C 0.59518 0.20348 0.41205
 C737 C 0.63144 0.22443 0.35787
 C738 C 0.65316 0.22095 0.36625
 C739 C 0.67082 0.22384 0.34938
 C740 C 0.66703 0.23022 0.32391
 C741 C 0.64548 0.23349 0.31529
 C742 C 0.62778 0.23062 0.33214
 C743 C 0.68530 0.23398 0.30687
 C744 C 0.70071 0.23743 0.29286
 H745 H 0.56498 0.24780 0.39310
 H746 H 0.59523 0.25089 0.36214
 H747 H 0.62546 0.19297 0.39491
 H748 H 0.59530 0.19033 0.42611
 H749 H 0.65655 0.21649 0.38601
 H750 H 0.68745 0.22138 0.35628
 H751 H 0.64235 0.23841 0.29560
 H752 H 0.61125 0.23316 0.32503
 C753 C 0.95488 0.28298 0.94695
 C754 C 0.94055 0.28244 0.93097
 C755 C 0.92326 0.28139 0.91214
 C756 C 0.92348 0.26488 0.89342
 C757 C 0.90625 0.26325 0.87575
 C758 C 0.88851 0.27812 0.87662
 C759 C 0.88857 0.29482 0.89534
 C760 C 0.90584 0.29642 0.91298
 C761 C 0.86978 0.27582 0.85852
 C762 C 0.84803 0.27863 0.86718
 C763 C 0.83035 0.27566 0.85039
 C764 C 0.83414 0.26988 0.82473
 C765 C 0.85571 0.26730 0.81584
 C766 C 0.87343 0.27025 0.83260
 C767 C 0.81587 0.26598 0.80778
 C768 C 0.80048 0.26239 0.79381
 H769 H 0.93683 0.25309 0.89269
 H770 H 0.90654 0.25004 0.86182
 H771 H 0.87529 0.30666 0.89630
 H772 H 0.90551 0.30927 0.92740
 H773 H 0.84467 0.28260 0.88709
 H774 H 0.81371 0.27759 0.85751
 H775 H 0.85882 0.26285 0.79600
 H776 H 0.88998 0.26824 0.82528
 C777 C 0.45299 0.78326 0.44849
 C778 C 0.43853 0.78301 0.43265
 C779 C 0.42107 0.78229 0.41399
 C780 C 0.42571 0.77749 0.38824
 C781 C 0.40863 0.77591 0.37035
 C782 C 0.38666 0.77911 0.37800
 C783 C 0.38220 0.78419 0.40387
 C784 C 0.39930 0.78575 0.42173
 C785 C 0.36840 0.77658 0.35926
 C786 C 0.35020 0.79089 0.35981
 C787 C 0.33268 0.78797 0.34275
 C788 C 0.33310 0.77074 0.32493
 C789 C 0.35123 0.75658 0.32405
 C790 C 0.36877 0.75947 0.34107
 C791 C 0.31470 0.76718 0.30806
 C792 C 0.29921 0.76383 0.29415
 H793 H 0.44251 0.77479 0.38204
 H794 H 0.41262 0.77224 0.35051
 H795 H 0.36546 0.78645 0.41045
 H796 H 0.39551 0.78937 0.44164
 H797 H 0.34955 0.80437 0.37337
 H798 H 0.31873 0.79904 0.34359
 H799 H 0.35168 0.74312 0.31042
 H800 H 0.38238 0.74799 0.34039
 C801 C 0.28208 0.95555 0.05293
 C802 C 0.28161 0.94117 0.06887
 C803 C 0.28067 0.92381 0.08763
 C804 C 0.27389 0.92829 0.11280
 C805 C 0.27210 0.91125 0.13073
 C806 C 0.27707 0.88947 0.12368
 C807 C 0.28413 0.88518 0.09840
 C808 C 0.28589 0.90224 0.08052
 C809 C 0.27435 0.87120 0.14237
 C810 C 0.28969 0.85388 0.14337
 C811 C 0.28666 0.83631 0.16036
 C812 C 0.26828 0.83583 0.17656
 C813 C 0.25306 0.85309 0.17590
 C814 C 0.25607 0.87067 0.15895
 C815 C 0.26468 0.81737 0.19333
 C816 C 0.26133 0.80181 0.20715
 H817 H 0.26981 0.94493 0.11852
 H818 H 0.26689 0.91511 0.15012
 H819 H 0.28778 0.86856 0.09228
 H820 H 0.29104 0.89857 0.06104
 H821 H 0.30407 0.85395 0.13108
 H822 H 0.29855 0.82304 0.16073
 H823 H 0.23872 0.85283 0.18826
 H824 H 0.24381 0.88358 0.15839
 C825 C 0.78406 0.45345 0.55227
 C826 C 0.78365 0.43896 0.56808
 C827 C 0.78273 0.42148 0.58670
 C828 C 0.78631 0.39973 0.57900
 C829 C 0.78454 0.38261 0.59682
 C830 C 0.77912 0.38703 0.62261
 C831 C 0.77581 0.40899 0.63023
 C832 C 0.77760 0.42609 0.61237
 C833 C 0.77637 0.36876 0.64129
 C834 C 0.75902 0.36910 0.65920
 C835 C 0.75594 0.35155 0.67617
 C836 C 0.77015 0.33345 0.67553
 C837 C 0.78761 0.33305 0.65799
 C838 C 0.79071 0.35059 0.64098
 C839 C 0.76643 0.31505 0.69238
 C840 C 0.76301 0.29957 0.70628
 H841 H 0.79017 0.39597 0.55915
 H842 H 0.78688 0.36588 0.59027
 H843 H 0.77189 0.41294 0.65000
 H844 H 0.77481 0.44287 0.61854
 H845 H 0.74752 0.38269 0.65968
 H846 H 0.74231 0.35197 0.68958
 H847 H 0.79872 0.31913 0.65734
 H848 H 0.80437 0.34997 0.62764
 C849 C 0.71872 0.04535 0.05213
 C850 C 0.71929 0.05967 0.06813
 C851 C 0.72037 0.07692 0.08700
 C852 C 0.70433 0.09344 0.08747
 C853 C 0.70586 0.11064 0.10519
 C854 C 0.72348 0.11155 0.12269
 C855 C 0.73938 0.09472 0.12224
 C856 C 0.73782 0.07755 0.10450
 C857 C 0.72562 0.13023 0.14089
 C858 C 0.73274 0.12671 0.16630
 C859 C 0.73552 0.14443 0.18310
 C860 C 0.73122 0.16587 0.17475
 C861 C 0.72389 0.16953 0.14961
 C862 C 0.72108 0.15184 0.13278
 C863 C 0.73494 0.18420 0.19167
 C864 C 0.73836 0.19966 0.20558
 H865 H 0.69074 0.09310 0.07401
 H866 H 0.69323 0.12320 0.10526
 H867 H 0.75330 0.09511 0.13521
 H868 H 0.75038 0.06491 0.10422
 H869 H 0.73611 0.11025 0.17320
 H870 H 0.74119 0.14142 0.20253
 H871 H 0.72061 0.18607 0.14290
 H872 H 0.71587 0.15513 0.11325
 C873 C 0.21781 0.54574 0.55297
 C874 C 0.21817 0.56005 0.56899
 C875 C 0.21901 0.57728 0.58792
 C876 C 0.20311 0.59394 0.58796
 C877 C 0.20443 0.61113 0.60573
 C878 C 0.22170 0.61188 0.62371
 C879 C 0.23746 0.59492 0.62369
 C880 C 0.23611 0.57776 0.60589
 C881 C 0.22364 0.63055 0.64198
 C882 C 0.23027 0.62697 0.66757
 C883 C 0.23287 0.64466 0.68445
 C884 C 0.22887 0.66615 0.67601
 C885 C 0.22203 0.66986 0.65069
 C886 C 0.21941 0.65220 0.63379
 C887 C 0.23243 0.68445 0.69304
 C888 C 0.23574 0.69989 0.70703
 H889 H 0.18979 0.59372 0.57413
 H890 H 0.19191 0.62379 0.60547
 H891 H 0.25112 0.59518 0.63702
 H892 H 0.24857 0.56501 0.60595
 H893 H 0.23339 0.61049 0.67455
 H894 H 0.23816 0.64160 0.70402
 H895 H 0.21900 0.68643 0.64392
 H896 H 0.21459 0.65553 0.61413
 C897 C 0.95402 0.71777 0.05348
 C898 C 0.93957 0.71812 0.06935
 C899 C 0.92214 0.71892 0.08805
 C900 C 0.90060 0.71382 0.08078
 C901 C 0.88348 0.71542 0.09863
 C902 C 0.88770 0.72220 0.12402
 C903 C 0.90947 0.72705 0.13121
 C904 C 0.92656 0.72542 0.11333
 C905 C 0.86938 0.72476 0.14267
 C906 C 0.86879 0.74288 0.15948
 C907 C 0.85115 0.74576 0.17638
 C908 C 0.83389 0.73058 0.17677
 C909 C 0.83442 0.71237 0.16035
 C910 C 0.85205 0.70946 0.14341
 C911 C 0.81534 0.73408 0.19347
 C912 C 0.79972 0.73735 0.20721
 H913 H 0.89698 0.70888 0.06123
 H914 H 0.86688 0.71187 0.09239
 H915 H 0.91328 0.73204 0.15068
 H916 H 0.94319 0.72939 0.11916
 H917 H 0.88171 0.75511 0.15913
 H918 H 0.85085 0.75997 0.18892
 H919 H 0.82115 0.70051 0.16050
 H920 H 0.85216 0.69521 0.13094
 C921 C 0.45509 0.21651 0.55176
 C922 C 0.44072 0.21691 0.56773
 C923 C 0.42341 0.21783 0.58658
 C924 C 0.40587 0.20300 0.58541
 C925 C 0.38861 0.20448 0.60311
 C926 C 0.38867 0.22087 0.62221
 C927 C 0.40653 0.23553 0.62339
 C928 C 0.42375 0.23402 0.60568
 C929 C 0.36996 0.22305 0.64040
 C930 C 0.37365 0.22819 0.66642
 C931 C 0.35595 0.23104 0.68328
 C932 C 0.33436 0.22878 0.67437
 C933 C 0.33053 0.22343 0.64860
 C934 C 0.34819 0.22056 0.63172
 C935 C 0.31612 0.23260 0.69143
 C936 C 0.30075 0.23613 0.70549
 H937 H 0.40544 0.19039 0.57071
 H938 H 0.37524 0.19279 0.60189
 H939 H 0.40692 0.24851 0.63762
 H940 H 0.43720 0.24566 0.60667
 H941 H 0.39021 0.22995 0.67375
 H942 H 0.35911 0.23517 0.70320
 H943 H 0.31388 0.22175 0.64147
 H944 H 0.34479 0.21692 0.61174
 C945 C 0.04579 0.28356 0.05250
 C946 C 0.06014 0.28319 0.06847
 C947 C 0.07746 0.28233 0.08729
 C948 C 0.07287 0.27587 0.11255
 C949 C 0.08987 0.27412 0.13053
 C950 C 0.11171 0.27882 0.12345
 C951 C 0.11609 0.28558 0.09808
 C952 C 0.09907 0.28730 0.08014
 C953 C 0.12993 0.27609 0.14219
 C954 C 0.14737 0.29127 0.14302
 C955 C 0.16491 0.28819 0.16002
 C956 C 0.16525 0.26994 0.17641
 C957 C 0.14787 0.25490 0.17593
 C958 C 0.13031 0.25794 0.15897
 C959 C 0.18373 0.26625 0.19314
 C960 C 0.19931 0.26284 0.20688
 H961 H 0.05619 0.27199 0.11829
 H962 H 0.08594 0.26914 0.14998
 H963 H 0.13275 0.28902 0.09193
 H964 H 0.10282 0.29221 0.06059
 H965 H 0.14741 0.30553 0.13056
 H966 H 0.17828 0.29994 0.16024
 H967 H 0.14803 0.24065 0.18844
 H968 H 0.11731 0.24581 0.15854
 C969 C 0.54458 0.78191 0.55329
 C970 C 0.55901 0.78127 0.56917
 C971 C 0.57639 0.78013 0.58789
 C972 C 0.59344 0.79555 0.58749
 C973 C 0.61076 0.79394 0.60507
 C974 C 0.61124 0.77684 0.62330
 C975 C 0.59389 0.76156 0.62372
 C976 C 0.57660 0.76320 0.60611
 C977 C 0.63000 0.77461 0.64141
 C978 C 0.62647 0.76839 0.66715
 C979 C 0.64422 0.76560 0.68391
 C980 C 0.66573 0.76900 0.67520
 C981 C 0.66941 0.77540 0.64972
 C982 C 0.65168 0.77821 0.63293
 C983 C 0.68407 0.76534 0.69216
 C984 C 0.69954 0.76198 0.70611
 H985 H 0.59344 0.80873 0.57347
 H986 H 0.62373 0.80611 0.60447
 H987 H 0.59393 0.74803 0.63726
 H988 H 0.56354 0.75110 0.60650
 H989 H 0.60997 0.76576 0.67434
 H990 H 0.64119 0.76066 0.70361
 H991 H 0.68599 0.77797 0.64274
 H992 H 0.65498 0.78271 0.61316
   
