data_POSCAR
  _audit_creation_date              2014-09-24
  _audit_creation_method            'ToBaCCo'
  _symmetry_space_group_name_H-M    'P1'
  _symmetry_Int_Tables_number       1
  _symmetry_cell_setting            triclinic
  loop_
  _symmetry_equiv_pos_as_xyz
 x,y,z
_cell_length_a 19.0680
_cell_length_b 19.1795
_cell_length_c 19.0191
_cell_angle_alpha 94.819700
_cell_angle_beta 81.720100
_cell_angle_gamma 72.615700
loop_
  _atom_site_label
  _atom_site_type_symbol
  _atom_site_fract_x
  _atom_site_fract_y
  _atom_site_fract_z
C1 C 0.56397 0.51218 -0.00433
 C2 C 0.50121 0.57217 -0.01222
 C3 C 0.43240 0.55936 -0.01217
 C4 C 0.42535 0.48871 -0.01186
 C5 C 0.48865 0.42888 -0.00793
 C6 C 0.55546 0.44220 -0.00080
 H7 H 0.60292 0.39598 0.00474
 H8 H 0.38295 0.60555 -0.01274
 C9 C -0.01274 0.43562 0.52943
 C10 C -0.00651 0.48704 0.58421
 C11 C -0.00446 0.55668 0.56814
 C12 C -0.01356 0.57930 0.50058
 C13 C -0.02439 0.52904 0.44709
 C14 C -0.02137 0.45768 0.46192
 H15 H -0.02588 0.41831 0.41977
 H16 H 0.00124 0.59533 0.61032
 C17 C 0.47891 0.00267 0.44684
 C18 C 0.43211 -0.01802 0.50012
 C19 C 0.45200 -0.02381 0.56806
 C20 C 0.51632 -0.00910 0.58460
 C21 C 0.56064 0.01684 0.53266
 C22 C 0.54131 0.02052 0.46391
 H23 H 0.57753 0.03400 0.42146
 H24 H 0.41538 -0.03785 0.60977
 O25 O 0.44685 0.01440 -0.08174
 O26 O 0.41442 0.02725 0.11555
 O27 O 0.42944 0.11713 0.02098
 O28 O 0.43158 -0.07542 0.00928
 O29 O 0.55352 -0.11235 0.00629
 O30 O 0.55165 0.07980 0.01632
 O31 O 0.53663 -0.00974 0.11135
 O32 O 0.56907 -0.02450 -0.08543
 Cu33 Cu 0.41806 0.02472 0.01716
 Cu34 Cu 0.56494 -0.01997 0.01285
 C35 C 0.51317 -0.00715 -0.11689
 C36 C 0.47057 0.00961 0.14664
 C37 C 0.49099 0.13058 0.01662
 C38 C 0.49305 -0.12667 0.00396
 O39 O -0.11841 0.57904 1.01739
 O40 O 0.08162 0.55129 1.00248
 O41 O -0.00693 0.54287 0.91256
 O42 O -0.02887 0.58409 1.10884
 O43 O -0.00870 0.46542 1.11586
 O44 O 0.01450 0.42400 0.91979
 O45 O 0.10388 0.43225 1.00898
 O46 O -0.09630 0.46000 1.02290
 Cu47 Cu -0.02005 0.57632 1.00970
 Cu48 Cu 0.00564 0.43345 1.01858
 C49 C -0.14088 0.52327 1.01957
 C50 C 0.12659 0.48755 1.00279
 C51 C 0.00572 0.47724 0.88312
 C52 C -0.02241 0.53104 1.14560
 O53 O 0.00367 -0.09223 0.43952
 O54 O -0.01578 0.10585 0.47190
 O55 O 0.09735 -0.01335 0.44185
 O56 O -0.10797 0.02834 0.47089
 O57 O -0.10963 0.02019 0.58623
 O58 O 0.09553 -0.02249 0.55706
 O59 O -0.01597 0.09892 0.58729
 O60 O 0.00242 -0.09904 0.55506
 Cu61 Cu -0.00526 0.00766 0.44451
 Cu62 Cu -0.00712 -0.00106 0.58291
 C63 C 0.00364 -0.12861 0.49238
 C64 C -0.01718 0.13555 0.53454
 C65 C 0.13111 -0.02357 0.49492
 C66 C -0.14347 0.02964 0.53317
 C67 C -0.25711 0.49393 1.06809
 C68 C -0.33575 0.48978 1.05943
 C69 C -0.36487 0.51811 1.00068
 C70 C -0.32417 0.54877 0.94964
 C71 C -0.25451 0.55799 0.95931
 C72 C -0.21934 0.53000 1.01652
 C73 C -0.21954 0.59142 0.90760
 N74 N -0.24992 0.61059 0.84917
 N75 N -0.31236 0.59773 0.83789
 C76 C -0.34949 0.56641 0.88515
 H77 H -0.21393 0.47251 1.11074
 H78 H -0.29497 0.48495 1.07504
 H79 H -0.16734 0.60109 0.91145
 H80 H -0.39806 0.55463 0.87116
 C81 C 0.22439 0.52419 1.04949
 C82 C 0.29703 0.52532 1.04539
 C83 C 0.35385 0.48183 0.98977
 C84 C 0.33592 0.43674 0.93638
 C85 C 0.26165 0.43453 0.94164
 C86 C 0.20589 0.47942 0.99839
 C87 C 0.24490 0.39068 0.88748
 N88 N 0.29888 0.35289 0.83117
 N89 N 0.36793 0.35701 0.82482
 C90 C 0.38794 0.39836 0.87485
 H91 H 0.18188 0.55923 1.09278
 H92 H 0.30912 0.56048 1.08653
 H93 H 0.18933 0.38690 0.88864
 H94 H 0.44370 0.40226 0.86519
 C95 C 0.05758 -0.26029 0.50369
 C96 C 0.05253 -0.33097 0.50662
 C97 C -0.00983 -0.34942 0.48969
 C98 C -0.06872 -0.29345 0.46960
 C99 C -0.06202 -0.22200 0.46393
 C100 C 0.00115 -0.20520 0.48262
 C101 C -0.12157 -0.16801 0.44444
 N102 N -0.18453 -0.18352 0.43441
 N103 N -0.19247 -0.24893 0.44357
 C104 C -0.13736 -0.30377 0.46183
 H105 H 0.10546 -0.24805 0.51949
 H106 H 0.09787 -0.37180 0.52319
 H107 H -0.11939 -0.11327 0.43810
 H108 H -0.14871 -0.35399 0.47234
 C109 C -0.07704 0.26734 0.52723
 C110 C -0.07538 0.33933 0.52567
 C111 C -0.01314 0.35930 0.53990
 C112 C 0.04854 0.30472 0.55692
 C113 C 0.04563 0.23185 0.56111
 C114 C -0.01719 0.21291 0.54453
 C115 C 0.10774 0.17928 0.57825
 N116 N 0.16899 0.19803 0.58865
 N117 N 0.17263 0.26553 0.58243
 C118 C 0.11490 0.31920 0.56632
 H119 H -0.12493 0.25361 0.51334
 H120 H -0.12260 0.37971 0.51134
 H121 H 0.10859 0.12333 0.58293
 H122 H 0.12203 0.37222 0.55995
 C123 C 0.51513 0.05324 -0.22628
 C124 C 0.51879 0.05250 -0.30007
 C125 C 0.52839 -0.01311 -0.34442
 C126 C 0.54123 -0.08027 -0.31435
 C127 C 0.54139 -0.07978 -0.23988
 C128 C 0.52497 -0.01202 -0.19547
 C129 C 0.55718 -0.14735 -0.21215
 N130 N 0.57126 -0.21106 -0.25637
 N131 N 0.57099 -0.21168 -0.32638
 C132 C 0.55671 -0.14866 -0.35692
 H133 H 0.50249 0.10548 -0.19275
 H134 H 0.50856 0.10434 -0.32187
 H135 H 0.55908 -0.15017 -0.15590
 H136 H 0.55903 -0.15269 -0.41432
 C137 C 0.45198 0.07215 0.26991
 C138 C 0.45483 0.06984 0.34254
 C139 C 0.46711 0.00308 0.37139
 C140 C 0.47427 -0.06231 0.32631
 C141 C 0.46846 -0.05921 0.25317
 C142 C 0.46012 0.00795 0.22454
 C143 C 0.47304 -0.12425 0.21026
 N144 N 0.48589 -0.18869 0.23823
 N145 N 0.49481 -0.19235 0.30612
 C146 C 0.49004 -0.13159 0.35090
 H147 H 0.44610 0.12377 0.24846
 H148 H 0.44999 0.12013 0.37619
 H149 H 0.46591 -0.12408 0.15501
 H150 H 0.49937 -0.13832 0.40487
 C151 C 0.53226 -0.25013 0.04088
 C152 C 0.53412 -0.32321 0.03774
 C153 C 0.50237 -0.35442 -0.01377
 C154 C 0.46889 -0.30963 -0.06399
 C155 C 0.46264 -0.23371 -0.05740
 C156 C 0.49467 -0.20412 -0.00421
 C157 C 0.42760 -0.19082 -0.10677
 N158 N 0.40374 -0.22274 -0.16084
 N159 N 0.41297 -0.29464 -0.16934
 C160 C 0.44539 -0.33918 -0.12354
 H161 H 0.55852 -0.22871 0.08069
 H162 H 0.55850 -0.35458 0.07783
 H163 H 0.42067 -0.13272 -0.10459
 H164 H 0.45389 -0.39751 -0.13525
 C165 C 0.44258 0.26453 0.05649
 C166 C 0.44082 0.33671 0.04991
 C167 C 0.48746 0.35205 -0.00647
 C168 C 0.53641 0.29340 -0.05780
 C169 C 0.53924 0.21986 -0.05036
 C170 C 0.49234 0.20565 0.00798
 C171 C 0.58752 0.16322 -0.10315
 N172 N 0.62982 0.17962 -0.15893
 N173 N 0.62698 0.24877 -0.16596
 C174 C 0.58171 0.30612 -0.11760
 H175 H 0.40582 0.25436 0.10064
 H176 H 0.40371 0.38086 0.08983
 H177 H 0.59161 0.10615 -0.10168
 H178 H 0.58072 0.36110 -0.12726
 C179 C -0.24683 -0.01893 0.57263
 C180 C -0.31880 -0.02262 0.57254
 C181 C -0.37165 0.03017 0.54366
 C182 C -0.35116 0.09104 0.51918
 C183 C -0.27699 0.09335 0.51751
 C184 C -0.22401 0.03668 0.54266
 C185 C -0.25878 0.15379 0.49241
 N186 N -0.31179 0.20912 0.47214
 N187 N -0.38178 0.20834 0.47576
 C188 C -0.40340 0.15179 0.49910
 H189 H -0.20697 -0.06295 0.59196
 H190 H -0.33064 -0.07081 0.59001
 H191 H -0.20342 0.15849 0.49029
 H192 H -0.46161 0.15568 0.50312
 C193 C 0.23496 0.02637 0.46212
 C194 C 0.30715 0.02841 0.46444
 C195 C 0.35963 -0.02879 0.48843
 C196 C 0.33887 -0.09117 0.50711
 C197 C 0.26451 -0.09193 0.50693
 C198 C 0.21181 -0.03174 0.48586
 C199 C 0.24553 -0.15378 0.52699
 N200 N 0.29785 -0.21134 0.54511
 N201 N 0.36777 -0.21127 0.54429
 C202 C 0.39011 -0.15349 0.52571
 H203 H 0.19540 0.07292 0.44579
 H204 H 0.32096 0.07691 0.45051
 H205 H 0.18997 -0.15743 0.52732
 H206 H 0.44794 -0.15742 0.52473
 C207 C 0.02651 0.55769 1.25498
 C208 C 0.02575 0.55779 1.32855
 C209 C -0.03322 0.54488 1.37300
 C210 C -0.09505 0.53679 1.34324
 C211 C -0.09438 0.53753 1.26881
 C212 C -0.03177 0.54495 1.22426
 C213 C -0.15657 0.53026 1.24097
 N214 N -0.21518 0.52177 1.28492
 N215 N -0.21567 0.52017 1.35483
 C216 C -0.15777 0.52731 1.38547
 H217 H 0.07477 0.56354 1.22128
 H218 H 0.07363 0.56343 1.35014
 H219 H -0.15937 0.53249 1.18489
 H220 H -0.16186 0.52645 1.44266
 C221 C 0.06410 0.47716 0.75911
 C222 C 0.06068 0.47934 0.68674
 C223 C -0.00140 0.47152 0.65903
 C224 C -0.05970 0.45772 0.70532
 C225 C -0.05370 0.45071 0.77810
 C226 C 0.00698 0.46422 0.80554
 C227 C -0.11087 0.43405 0.82196
 N228 N -0.17143 0.42824 0.79536
 N229 N -0.17905 0.43892 0.72825
 C230 C -0.12584 0.45444 0.68272
 H231 H 0.11063 0.48790 0.77952
 H232 H 0.10540 0.49073 0.65249
 H233 H -0.10843 0.42631 0.87725
 H234 H -0.13631 0.46489 0.62972
   
