data_POSCAR
  _audit_creation_date              2014-09-24
  _audit_creation_method            'ToBaCCo'
  _symmetry_space_group_name_H-M    'P1'
  _symmetry_Int_Tables_number       1
  _symmetry_cell_setting            triclinic
  loop_
  _symmetry_equiv_pos_as_xyz
 x,y,z
_cell_length_a 31.0461
_cell_length_b 30.4154
_cell_length_c 30.1806
_cell_angle_alpha 81.102500
_cell_angle_beta 101.938600
_cell_angle_gamma 101.280500
loop_
  _atom_site_label
  _atom_site_type_symbol
  _atom_site_fract_x
  _atom_site_fract_y
  _atom_site_fract_z
C1 C 0.58574 0.55799 0.00493
 C2 C 0.58646 0.51305 -0.00049
 C3 C 0.54596 0.48260 -0.00379
 C4 C 0.50617 0.49485 0.00179
 C5 C 0.50660 0.54071 0.00631
 C6 C 0.54584 0.57358 0.00540
 C7 C 0.46452 0.45946 0.00100
 C8 C 0.42153 0.47138 -0.01062
 C9 C 0.38285 0.43822 -0.01226
 C10 C 0.38727 0.39252 -0.00519
 C11 C 0.42931 0.37927 0.00738
 C12 C 0.46757 0.41291 0.01163
 H13 H 0.61722 0.58046 0.01190
 H14 H 0.54506 0.44945 -0.01289
 H15 H 0.47611 0.55089 0.00911
 H16 H 0.41761 0.50635 -0.01812
 H17 H 0.35757 0.36701 -0.00975
 H18 H 0.49960 0.40230 0.02406
 C19 C 0.03926 0.63532 0.39480
 C20 C 0.05072 0.64209 0.44114
 C21 C 0.05247 0.60418 0.47403
 C22 C 0.03692 0.56043 0.46193
 C23 C 0.02400 0.55456 0.41537
 C24 C 0.02659 0.59165 0.38090
 C25 C 0.03177 0.52140 0.49820
 C26 C 0.03571 0.47804 0.49085
 C27 C 0.02884 0.44090 0.52404
 C28 C 0.02156 0.44793 0.56663
 C29 C 0.01908 0.49124 0.57543
 C30 C 0.02224 0.52720 0.54038
 H31 H 0.04297 0.66471 0.36985
 H32 H 0.06257 0.60874 0.50970
 H33 H 0.00950 0.52116 0.40627
 H34 H 0.04423 0.47293 0.45923
 H35 H 0.01762 0.41964 0.59287
 H36 H 0.01664 0.55967 0.54617
 C37 C 0.59866 -0.00108 0.59518
 C38 C 0.56065 0.01003 0.60605
 C39 C 0.52381 0.01573 0.57136
 C40 C 0.52321 0.00770 0.52648
 C41 C 0.56232 -0.00271 0.51640
 C42 C 0.60146 -0.00527 0.54992
 C43 C 0.48170 0.00949 0.49054
 C44 C 0.48395 0.01782 0.44361
 C45 C 0.44502 0.01596 0.41002
 C46 C 0.40337 0.00856 0.42356
 C47 C 0.40005 0.00292 0.46975
 C48 C 0.43911 0.00190 0.50289
 H49 H 0.62536 -0.00815 0.62303
 H50 H 0.49583 0.02687 0.57978
 H51 H 0.56224 -0.00778 0.48198
 H52 H 0.51583 0.02635 0.43260
 H53 H 0.37313 0.00615 0.39800
 H54 H 0.43588 -0.00471 0.53833
 O55 O 0.45216 -0.02612 -0.05546
 O56 O 0.45906 -0.02942 0.06842
 O57 O 0.45688 0.03328 0.00069
 O58 O 0.45246 -0.09029 0.01353
 O59 O 0.52578 -0.08007 0.02063
 O60 O 0.53050 0.04351 0.01120
 O61 O 0.53252 -0.02190 0.07852
 O62 O 0.52573 -0.01405 -0.04558
 Cu63 Cu 0.44777 -0.02936 0.00567
 Cu64 Cu 0.53595 -0.01726 0.01726
 C65 C 0.48787 -0.01900 -0.07176
 C66 C 0.49702 -0.02580 0.09452
 C67 C 0.49442 0.05945 0.00447
 C68 C 0.48830 -0.10632 0.01880
 O69 O -0.05945 0.52525 0.97203
 O70 O 0.05225 0.49534 0.98877
 O71 O -0.01209 0.50287 0.91996
 O72 O 0.00356 0.51461 1.04200
 O73 O -0.02362 0.44218 1.05608
 O74 O -0.04176 0.43117 0.93361
 O75 O 0.02368 0.42327 1.00256
 O76 O -0.08821 0.45352 0.98726
 Cu77 Cu -0.00108 0.51674 0.97933
 Cu78 Cu -0.03550 0.43030 0.99613
 C79 C -0.09288 0.49470 0.97721
 C80 C 0.05707 0.45425 0.99824
 C81 C -0.02937 0.46492 0.90593
 C82 C -0.00722 0.48034 1.06989
 O83 O -0.01919 -0.02146 0.46123
 O84 O 0.00313 0.09317 0.49203
 O85 O 0.04798 0.04380 0.46276
 O86 O -0.06392 0.02663 0.49321
 O87 O -0.03478 0.00423 0.56433
 O88 O 0.07587 0.01812 0.53327
 O89 O 0.03314 0.06972 0.56245
 O90 O 0.00898 -0.04634 0.53191
 Cu91 Cu -0.01107 0.03803 0.47031
 Cu92 Cu 0.02317 0.00877 0.55529
 C93 C -0.00761 -0.05331 0.49090
 C94 C 0.02236 0.10143 0.53196
 C95 C 0.08086 0.03317 0.49268
 C96 C -0.06812 0.01328 0.53436
 C97 C -0.33725 0.52958 0.98210
 C98 C -0.29674 0.51594 0.98166
 C99 C -0.29136 0.47066 0.99647
 C100 C -0.32677 0.43969 1.01105
 C101 C -0.36697 0.45346 1.01164
 C102 C -0.37300 0.49878 0.99759
 C103 C -0.25055 0.45718 0.99693
 C104 C -0.21489 0.48859 0.98307
 C105 C -0.22045 0.53384 0.96781
 C106 C -0.26139 0.54715 0.96691
 C107 C -0.18471 0.56526 0.95433
 C108 C -0.14351 0.55226 0.95677
 C109 C -0.13735 0.50751 0.97240
 C110 C -0.17348 0.47566 0.98497
 H111 H -0.34096 0.56410 0.96897
 H112 H -0.32315 0.40486 1.02277
 H113 H -0.39243 0.42859 1.02526
 H114 H -0.24637 0.42244 1.00861
 H115 H -0.26550 0.58194 0.95543
 H116 H -0.18842 0.60005 0.94248
 H117 H -0.11631 0.57744 0.94673
 H118 H -0.16916 0.44109 0.99721
 C119 C 0.30516 0.42444 1.00436
 C120 C 0.26253 0.43568 0.99848
 C121 C 0.25219 0.47463 0.96918
 C122 C 0.28453 0.50109 0.94551
 C123 C 0.32676 0.48913 0.95090
 C124 C 0.33765 0.45080 0.98053
 C125 C 0.20974 0.48637 0.96401
 C126 C 0.17733 0.45912 0.98716
 C127 C 0.18747 0.41955 1.01559
 C128 C 0.23013 0.40837 1.02144
 C129 C 0.15465 0.39162 1.03754
 C130 C 0.11210 0.40275 1.03148
 C131 C 0.10193 0.44241 1.00410
 C132 C 0.13478 0.47057 0.98210
 H133 H 0.31316 0.39534 1.02809
 H134 H 0.27708 0.53088 0.92262
 H135 H 0.35070 0.50973 0.93153
 H136 H 0.20186 0.51648 0.94184
 H137 H 0.23800 0.37822 1.04358
 H138 H 0.16183 0.36107 1.05925
 H139 H 0.08728 0.38064 1.04877
 H140 H 0.12697 0.50097 0.96044
 C141 C 0.02864 -0.28359 0.42954
 C142 C 0.02678 -0.24399 0.44673
 C143 C 0.05411 -0.23340 0.48859
 C144 C 0.08321 -0.26244 0.51230
 C145 C 0.08370 -0.30272 0.49584
 C146 C 0.05575 -0.31445 0.45467
 C147 C 0.05124 -0.19446 0.50649
 C148 C 0.02089 -0.16639 0.48329
 C149 C -0.00662 -0.17716 0.44149
 C150 C -0.00336 -0.21578 0.42339
 C151 C -0.03666 -0.14884 0.41820
 C152 C -0.03843 -0.10938 0.43542
 C153 C -0.01066 -0.09799 0.47649
 C154 C 0.01826 -0.12716 0.50078
 H155 H 0.00583 -0.29198 0.39846
 H156 H 0.10479 -0.25458 0.54420
 H157 H 0.10640 -0.32446 0.51540
 H158 H 0.07232 -0.18622 0.53857
 H159 H -0.02451 -0.22406 0.39135
 H160 H -0.05805 -0.15667 0.38621
 H161 H -0.06087 -0.08723 0.41610
 H162 H 0.04026 -0.11826 0.53217
 C163 C 0.04437 0.36164 0.54649
 C164 C 0.03930 0.31704 0.53698
 C165 C 0.01751 0.30555 0.49327
 C166 C 0.00140 0.33866 0.45984
 C167 C 0.00584 0.38268 0.46983
 C168 C 0.02708 0.39461 0.51323
 C169 C 0.01135 0.26098 0.48383
 C170 C 0.02597 0.22749 0.51773
 C171 C 0.04789 0.23871 0.56145
 C172 C 0.05478 0.28360 0.57072
 C173 C 0.06194 0.20464 0.59522
 C174 C 0.05386 0.15983 0.58584
 C175 C 0.03182 0.14853 0.54248
 C176 C 0.01831 0.18274 0.50856
 H177 H 0.06138 0.37051 0.57986
 H178 H -0.01553 0.33031 0.42627
 H179 H -0.00853 0.40714 0.44383
 H180 H -0.00554 0.25220 0.45033
 H181 H 0.07140 0.29231 0.60429
 H182 H 0.07881 0.21258 0.62894
 H183 H 0.06472 0.13406 0.61252
 H184 H 0.00129 0.17455 0.47494
 C185 C 0.52072 -0.00205 -0.32720
 C186 C 0.52068 0.00023 -0.28104
 C187 C 0.56001 0.01978 -0.25311
 C188 C 0.59823 0.03776 -0.27200
 C189 C 0.59795 0.03552 -0.31790
 C190 C 0.55954 0.01501 -0.34587
 C191 C 0.56074 0.02057 -0.20663
 C192 C 0.52262 0.00213 -0.18762
 C193 C 0.48290 -0.01641 -0.21567
 C194 C 0.48220 -0.01734 -0.26220
 C195 C 0.44470 -0.03413 -0.19652
 C196 C 0.44602 -0.03418 -0.14989
 C197 C 0.48567 -0.01690 -0.12151
 C198 C 0.52378 0.00156 -0.14081
 H199 H 0.49096 -0.01828 -0.34820
 H200 H 0.62850 0.05325 -0.25118
 H201 H 0.62799 0.04977 -0.33153
 H202 H 0.59111 0.03510 -0.18517
 H203 H 0.45189 -0.03208 -0.28361
 H204 H 0.41390 -0.04829 -0.21751
 H205 H 0.41622 -0.04858 -0.13587
 H206 H 0.55446 0.01540 -0.11936
 C207 C 0.47786 -0.00042 0.34594
 C208 C 0.47712 -0.00012 0.29918
 C209 C 0.44526 0.02089 0.26670
 C210 C 0.41592 0.04268 0.28141
 C211 C 0.41709 0.04252 0.32790
 C212 C 0.44732 0.02018 0.36071
 C213 C 0.44285 0.01938 0.22005
 C214 C 0.47228 -0.00237 0.20534
 C215 C 0.50524 -0.02201 0.23763
 C216 C 0.50723 -0.02108 0.28440
 C217 C 0.53564 -0.04225 0.22251
 C218 C 0.53326 -0.04320 0.17587
 C219 C 0.49980 -0.02493 0.14374
 C220 C 0.46937 -0.00460 0.15872
 H221 H 0.50116 -0.01807 0.37074
 H222 H 0.39170 0.05945 0.25696
 H223 H 0.39391 0.05958 0.33819
 H224 H 0.41796 0.03497 0.19522
 H225 H 0.53204 -0.03676 0.30922
 H226 H 0.56132 -0.05718 0.24673
 H227 H 0.55713 -0.05883 0.16488
 H228 H 0.44398 0.01030 0.13396
 C229 C 0.51248 -0.36162 0.01840
 C230 C 0.51397 -0.31458 0.01649
 C231 C 0.54975 -0.28411 0.00084
 C232 C 0.58256 -0.30068 -0.01378
 C233 C 0.58053 -0.34695 -0.01273
 C234 C 0.54616 -0.37894 0.00426
 C235 C 0.55211 -0.23739 -0.00055
 C236 C 0.51859 -0.22028 0.01269
 C237 C 0.48210 -0.25040 0.02746
 C238 C 0.48024 -0.29738 0.02978
 C239 C 0.44793 -0.23288 0.03925
 C240 C 0.44985 -0.18611 0.03624
 C241 C 0.48637 -0.15590 0.02226
 C242 C 0.52079 -0.17340 0.01078
 H243 H 0.48566 -0.38406 0.03225
 H244 H 0.60965 -0.27771 -0.02691
 H245 H 0.60562 -0.35696 -0.02728
 H246 H 0.57988 -0.21429 -0.01238
 H247 H 0.45238 -0.32044 0.04144
 H248 H 0.41955 -0.25533 0.05046
 H249 H 0.42290 -0.17353 0.04529
 H250 H 0.54887 -0.15048 -0.00059
 C251 C 0.46614 0.31351 0.00154
 C252 C 0.46654 0.26671 0.00639
 C253 C 0.43286 0.23617 0.02570
 C254 C 0.40047 0.25284 0.04133
 C255 C 0.40051 0.29921 0.03676
 C256 C 0.43258 0.33016 0.01592
 C257 C 0.43177 0.18945 0.02878
 C258 C 0.46428 0.17263 0.01334
 C259 C 0.49892 0.20303 -0.00454
 C260 C 0.49965 0.24986 -0.00824
 C261 C 0.53221 0.18597 -0.01846
 C262 C 0.53104 0.13931 -0.01500
 C263 C 0.49606 0.10883 0.00151
 C264 C 0.46274 0.12581 0.01564
 H265 H 0.49106 0.33676 -0.01470
 H266 H 0.37480 0.22994 0.05681
 H267 H 0.37502 0.31085 0.04937
 H268 H 0.40550 0.16616 0.04305
 H269 H 0.52586 0.27313 -0.02260
 H270 H 0.55920 0.20870 -0.03198
 H271 H 0.55710 0.12700 -0.02600
 H272 H 0.43599 0.10256 0.02910
 C273 C -0.31593 0.00183 0.56773
 C274 C -0.27517 -0.00100 0.55609
 C275 C -0.27464 -0.01521 0.51394
 C276 C -0.31513 -0.02846 0.48515
 C277 C -0.35579 -0.02676 0.49743
 C278 C -0.35735 -0.01066 0.53863
 C279 C -0.23366 -0.01561 0.50119
 C280 C -0.19320 -0.00278 0.53067
 C281 C -0.19397 0.00944 0.57382
 C282 C -0.23483 0.01080 0.58599
 C283 C -0.15378 0.02046 0.60408
 C284 C -0.11306 0.02021 0.59149
 C285 C -0.11171 0.00993 0.54807
 C286 C -0.15195 -0.00175 0.51776
 H287 H -0.31428 0.01617 0.59875
 H288 H -0.31545 -0.04042 0.45305
 H289 H -0.38564 -0.03925 0.47440
 H290 H -0.23326 -0.02572 0.46837
 H291 H -0.23521 0.02108 0.61874
 H292 H -0.15381 0.02954 0.63741
 H293 H -0.08243 0.02945 0.61525
 H294 H -0.15111 -0.01018 0.48437
 C295 C 0.32436 0.02520 0.45751
 C296 C 0.28254 0.02206 0.46965
 C297 C 0.27188 -0.00733 0.50840
 C298 C 0.30304 -0.03352 0.53390
 C299 C 0.34445 -0.03061 0.52122
 C300 C 0.35568 -0.00114 0.48302
 C301 C 0.23026 -0.01012 0.52092
 C302 C 0.19894 0.01566 0.49481
 C303 C 0.20936 0.04451 0.45563
 C304 C 0.25122 0.04781 0.44352
 C305 C 0.17757 0.06939 0.42903
 C306 C 0.13574 0.06565 0.44100
 C307 C 0.12523 0.03752 0.48017
 C308 C 0.15716 0.01273 0.50703
 H309 H 0.33272 0.04865 0.42842
 H310 H 0.29531 -0.05646 0.56352
 H311 H 0.36747 -0.05186 0.54110
 H312 H 0.22216 -0.03252 0.55079
 H313 H 0.25930 0.07014 0.41359
 H314 H 0.18495 0.09154 0.39881
 H315 H 0.11170 0.08506 0.41980
 H316 H 0.14921 -0.00950 0.53703
 C317 C 0.02069 0.54447 1.31924
 C318 C 0.01332 0.53920 1.27271
 C319 C 0.00211 0.57528 1.23956
 C320 C -0.00310 0.61538 1.25341
 C321 C 0.00368 0.62028 1.29966
 C322 C 0.01669 0.58539 1.33374
 C323 C -0.00360 0.57083 1.19306
 C324 C 0.00114 0.53039 1.17923
 C325 C 0.01102 0.49369 1.21232
 C326 C 0.01747 0.49846 1.25885
 C327 C 0.01420 0.45278 1.19826
 C328 C 0.00780 0.44833 1.15185
 C329 C -0.00091 0.48498 1.11881
 C330 C -0.00411 0.52599 1.13274
 H331 H 0.03173 0.51711 1.34366
 H332 H -0.01264 0.64306 1.22840
 H333 H -0.00269 0.65138 1.30809
 H334 H -0.01172 0.59881 1.16768
 H335 H 0.02562 0.47048 1.28422
 H336 H 0.02149 0.42421 1.22312
 H337 H 0.01037 0.41642 1.14174
 H338 H -0.01148 0.55419 1.10735
 C339 C -0.01150 0.46758 0.64831
 C340 C -0.01297 0.47451 0.69288
 C341 C 0.01145 0.51431 0.71060
 C342 C 0.03675 0.54650 0.68356
 C343 C 0.03864 0.53903 0.63963
 C344 C 0.01477 0.49951 0.62150
 C345 C 0.01096 0.52099 0.75537
 C346 C -0.01291 0.48796 0.78307
 C347 C -0.03744 0.44814 0.76549
 C348 C -0.03772 0.44187 0.72031
 C349 C -0.06052 0.41488 0.79375
 C350 C -0.05850 0.42057 0.83927
 C351 C -0.03384 0.45987 0.85715
 C352 C -0.01167 0.49372 0.82852
 H353 H -0.03059 0.43726 0.63467
 H354 H 0.05582 0.57708 0.69671
 H355 H 0.05978 0.56385 0.62021
 H356 H 0.02991 0.55146 0.76895
 H357 H -0.05636 0.41124 0.70686
 H358 H -0.07951 0.38415 0.78088
 H359 H -0.07598 0.39402 0.86059
 H360 H 0.00770 0.52408 0.84193
   
