data_POSCAR
  _audit_creation_date              2014-09-24
  _audit_creation_method            'ToBaCCo'
  _symmetry_space_group_name_H-M    'P1'
  _symmetry_Int_Tables_number       1
  _symmetry_cell_setting            triclinic
  loop_
  _symmetry_equiv_pos_as_xyz
 x,y,z
_cell_length_a 39.6547
_cell_length_b 40.3892
_cell_length_c 38.8839
_cell_angle_alpha 89.940400
_cell_angle_beta 89.943800
_cell_angle_gamma 91.908400
loop_
  _atom_site_label
  _atom_site_type_symbol
  _atom_site_fract_x
  _atom_site_fract_y
  _atom_site_fract_z
O1 O -0.04076 0.31314 0.03837
 O2 O 0.02819 0.30330 -0.02469
 O3 O -0.03767 0.30780 -0.02833
 O4 O 0.02526 0.31033 0.04066
 O5 O 0.02083 0.25586 0.04528
 O6 O -0.04327 0.25345 -0.02302
 O7 O 0.02096 0.24904 -0.02097
 O8 O -0.04484 0.25879 0.04370
 Cu9 Cu -0.00594 0.31417 0.00601
 Cu10 Cu -0.01224 0.24886 0.01202
 C11 C -0.05451 0.28736 0.05186
 C12 C 0.03634 0.27431 -0.03360
 C13 C -0.05108 0.28027 -0.03760
 C14 C 0.03456 0.28346 0.05401
 O15 O 0.47418 0.84381 0.51190
 O16 O 0.54163 0.83925 0.44707
 O17 O 0.47555 0.84171 0.44517
 O18 O 0.53997 0.84060 0.51349
 O19 O 0.53576 0.78603 0.51485
 O20 O 0.47120 0.78715 0.44669
 O21 O 0.53705 0.78468 0.44812
 O22 O 0.47017 0.78924 0.51383
 Cu23 Cu 0.50819 0.84679 0.47919
 Cu24 Cu 0.50303 0.78133 0.48096
 C25 C 0.46061 0.81734 0.52398
 C26 C 0.55126 0.81122 0.43689
 C27 C 0.46209 0.81463 0.43446
 C28 C 0.54919 0.81309 0.52559
 O29 O 0.97108 0.68013 -0.05542
 O30 O 1.03760 0.67857 0.01022
 O31 O 0.96578 0.67409 0.01191
 O32 O 1.02895 0.67997 -0.05688
 O33 O 1.03361 0.73386 -0.04777
 O34 O 0.96874 0.72812 0.02059
 O35 O 1.03139 0.73156 0.02138
 O36 O 0.96416 0.73300 -0.04402
 Cu37 Cu 1.00094 0.67264 -0.01993
 Cu38 Cu 1.00043 0.73714 -0.01323
 C39 C 0.95676 0.70718 -0.06161
 C40 C 1.04615 0.70470 0.02675
 C41 C 0.95590 0.69970 0.02743
 C42 C 1.04140 0.70827 -0.06487
 O43 O 0.51170 0.19341 0.54865
 O44 O 0.44203 0.20605 0.49015
 O45 O 0.50612 0.18845 0.47895
 O46 O 0.45412 0.21671 0.55172
 O47 O 0.47319 0.26793 0.54218
 O48 O 0.52518 0.23990 0.47123
 O49 O 0.46194 0.25637 0.47744
 O50 O 0.53260 0.24375 0.53768
 Cu51 Cu 0.47780 0.19560 0.51690
 Cu52 Cu 0.50028 0.25700 0.50590
 C53 C 0.53327 0.21660 0.55427
 C54 C 0.43925 0.23344 0.47474
 C55 C 0.52464 0.20966 0.46290
 C56 C 0.45489 0.24744 0.55919
 O57 O 0.72968 -0.04851 0.02568
 O58 O 0.74223 0.02108 -0.03378
 O59 O 0.74231 -0.04021 -0.03659
 O60 O 0.73133 0.01743 0.03560
 O61 O 0.78506 0.01334 0.04931
 O62 O 0.79744 -0.03480 -0.02972
 O63 O 0.79386 0.02991 -0.01418
 O64 O 0.78452 -0.04781 0.03547
 Cu65 Cu 0.73072 -0.01139 -0.00211
 Cu66 Cu 0.79601 -0.00976 0.01048
 C67 C 0.75520 -0.06091 0.03981
 C68 C 0.76991 0.03774 -0.03401
 C69 C 0.77203 -0.04693 -0.04586
 C70 C 0.75598 0.02385 0.05568
 O71 O 0.21303 0.46145 0.53279
 O72 O 0.20575 0.52544 0.46660
 O73 O 0.21794 0.46316 0.46747
 O74 O 0.20321 0.52512 0.53523
 O75 O 0.25800 0.53684 0.53736
 O76 O 0.27265 0.47501 0.47044
 O77 O 0.26035 0.53770 0.47022
 O78 O 0.26767 0.47309 0.53742
 Cu79 Cu 0.20429 0.49322 0.50043
 Cu80 Cu 0.27009 0.50692 0.50434
 C81 C 0.24153 0.45579 0.54587
 C82 C 0.23178 0.54167 0.45630
 C83 C 0.24797 0.45849 0.45753
 C84 C 0.22829 0.54121 0.54799
 O85 O 0.28754 0.98350 -0.03892
 O86 O 0.26943 1.03673 0.03510
 O87 O 0.28406 0.97442 0.02725
 O88 O 0.27131 1.04570 -0.03044
 O89 O 0.21776 1.03025 -0.03613
 O90 O 0.22974 0.96114 0.02383
 O91 O 0.21521 1.02312 0.03080
 O92 O 0.23353 0.96942 -0.04299
 Cu93 Cu 0.28352 1.01140 -0.00139
 Cu94 Cu 0.21867 0.99452 -0.00643
 C95 C 0.26367 0.96737 -0.05380
 C96 C 0.23924 1.03927 0.04539
 C97 C 0.25891 0.95580 0.03564
 C98 C 0.24232 1.05004 -0.04340
 O99 O 0.78113 0.52610 0.53781
 O100 O 0.79370 0.46520 0.46846
 O101 O 0.77792 0.52746 0.47094
 O102 O 0.79893 0.46439 0.53484
 O103 O 0.74512 0.44887 0.53817
 O104 O 0.72417 0.51142 0.47340
 O105 O 0.73983 0.44994 0.47185
 O106 O 0.72749 0.50982 0.54117
 Cu107 Cu 0.79329 0.49752 0.50270
 Cu108 Cu 0.72869 0.47866 0.50653
 C109 C 0.75218 0.52787 0.55160
 C110 C 0.76878 0.44704 0.45844
 C111 C 0.74768 0.52982 0.46082
 C112 C 0.77562 0.44569 0.54728
 C113 C 0.24409 0.22264 0.22885
 C114 C 0.21260 0.23619 0.23661
 C115 C 0.20930 0.25633 0.26559
 C116 C 0.23684 0.26367 0.28716
 C117 C 0.26841 0.24999 0.27956
 C118 C 0.27163 0.22975 0.25052
 H119 H 0.29572 0.21894 0.24505
 H120 H 0.18530 0.26757 0.27052
 C121 C 0.77375 0.75982 0.22592
 C122 C 0.79755 0.73515 0.23177
 C123 C 0.79313 0.71344 0.25960
 C124 C 0.76498 0.71528 0.28126
 C125 C 0.74000 0.73854 0.27424
 C126 C 0.74484 0.76072 0.24672
 H127 H 0.72642 0.77946 0.24210
 H128 H 0.81210 0.69537 0.26483
 C129 C 0.75713 0.23769 0.22869
 C130 C 0.73272 0.21139 0.22968
 C131 C 0.71137 0.20774 0.25822
 C132 C 0.71211 0.23135 0.28472
 C133 C 0.73294 0.26046 0.28096
 C134 C 0.75606 0.26266 0.25362
 H135 H 0.77355 0.28379 0.25193
 H136 H 0.69436 0.18623 0.25986
 C137 C 0.20685 0.75098 0.22973
 C138 C 0.23208 0.77577 0.22283
 C139 C 0.26143 0.77698 0.24312
 C140 C 0.26551 0.75514 0.27087
 C141 C 0.23875 0.73243 0.27968
 C142 C 0.21009 0.73025 0.25842
 H143 H 0.18987 0.71243 0.26435
 H144 H 0.28125 0.79533 0.23749
 C145 C 0.74335 0.22084 0.70826
 C146 C 0.76494 0.24879 0.71388
 C147 C 0.79019 0.24727 0.73875
 C148 C 0.79272 0.21958 0.76041
 C149 C 0.76847 0.19286 0.75767
 C150 C 0.74464 0.19381 0.73080
 H151 H 0.72627 0.17365 0.72754
 H152 H 0.80755 0.26836 0.74192
 C153 C 0.27547 0.77027 0.70585
 C154 C 0.25085 0.74396 0.70664
 C155 C 0.22842 0.74167 0.73466
 C156 C 0.22738 0.76677 0.75973
 C157 C 0.24775 0.79607 0.75468
 C158 C 0.27267 0.79667 0.72901
 H159 H 0.29000 0.81791 0.72707
 H160 H 0.21149 0.72023 0.73668
 C161 C 0.27002 0.30829 0.75852
 C162 C 0.28427 0.27689 0.75463
 C163 C 0.28107 0.25371 0.78135
 C164 C 0.26257 0.26037 0.81100
 C165 C 0.24587 0.29069 0.81378
 C166 C 0.25083 0.31475 0.78795
 H167 H 0.23822 0.33810 0.78981
 H168 H 0.29339 0.23022 0.77916
 C169 C 0.74335 0.72584 0.71659
 C170 C 0.71963 0.75088 0.71312
 C171 C 0.71828 0.77538 0.73847
 C172 C 0.73928 0.77514 0.76757
 C173 C 0.76180 0.74871 0.77229
 C174 C 0.76323 0.72440 0.74632
 H175 H 0.78010 0.70400 0.74890
 H176 H 0.70032 0.79487 0.73571
 C177 C 0.25322 0.08947 0.08056
 C178 C 0.24683 0.11069 0.10817
 C179 C 0.21948 0.10331 0.13058
 C180 C 0.19840 0.07538 0.12431
 C181 C 0.20450 0.05480 0.09625
 C182 C 0.23216 0.06144 0.07446
 C183 C 0.21369 0.12392 0.15885
 C184 C 0.23446 0.15218 0.16457
 C185 C 0.26112 0.16013 0.14150
 C186 C 0.26732 0.13918 0.11363
 C187 C 0.28134 0.18880 0.14688
 C188 C 0.27532 0.20933 0.17495
 C189 C 0.24920 0.20145 0.19826
 C190 C 0.22911 0.17258 0.19310
 H191 H 0.27434 0.09500 0.06352
 H192 H 0.17721 0.06947 0.14108
 H193 H 0.18798 0.03332 0.09195
 H194 H 0.19298 0.11804 0.17631
 H195 H 0.28805 0.14505 0.09620
 H196 H 0.30181 0.19532 0.12941
 H197 H 0.29119 0.23140 0.17862
 H198 H 0.20983 0.16561 0.21168
 C199 C 0.76154 0.58281 0.58012
 C200 C 0.75600 0.60454 0.60759
 C201 C 0.73701 0.59337 0.63644
 C202 C 0.72297 0.56107 0.63682
 C203 C 0.72759 0.54003 0.60886
 C204 C 0.74713 0.55060 0.58056
 C205 C 0.73201 0.61475 0.66426
 C206 C 0.74467 0.64756 0.66309
 C207 C 0.76253 0.65912 0.63366
 C208 C 0.76862 0.63738 0.60640
 C209 C 0.77370 0.69239 0.63185
 C210 C 0.76705 0.71404 0.65881
 C211 C 0.74990 0.70258 0.68827
 C212 C 0.73920 0.66922 0.69060
 H213 H 0.77627 0.59113 0.55805
 H214 H 0.70815 0.55217 0.65857
 H215 H 0.71639 0.51521 0.60958
 H216 H 0.71779 0.60604 0.68653
 H217 H 0.78267 0.64616 0.58405
 H218 H 0.78722 0.70174 0.60944
 H219 H 0.77549 0.73976 0.65687
 H220 H 0.72582 0.66051 0.71338
 C221 C 0.77602 0.90079 0.08499
 C222 C 0.77131 0.87343 0.10691
 C223 C 0.74116 0.85380 0.10503
 C224 C 0.71619 0.86201 0.08130
 C225 C 0.72082 0.88967 0.05999
 C226 C 0.75072 0.90932 0.06167
 C227 C 0.73626 0.82665 0.12725
 C228 C 0.76081 0.81936 0.15184
 C229 C 0.79082 0.83925 0.15383
 C230 C 0.79603 0.86588 0.13112
 C231 C 0.81486 0.83266 0.17905
 C232 C 0.80915 0.80681 0.20232
 C233 C 0.77983 0.78645 0.20019
 C234 C 0.75562 0.79292 0.17495
 H235 H 0.79906 0.91592 0.08670
 H236 H 0.69291 0.84729 0.07951
 H237 H 0.70100 0.89568 0.04212
 H238 H 0.71314 0.81159 0.12582
 H239 H 0.81904 0.88110 0.13274
 H240 H 0.83774 0.84793 0.18126
 H241 H 0.82737 0.80315 0.22254
 H242 H 0.73269 0.77758 0.17361
 C243 C 0.26347 0.43124 0.60047
 C244 C 0.26292 0.40556 0.62502
 C245 C 0.24352 0.37612 0.61873
 C246 C 0.22480 0.37295 0.58834
 C247 C 0.22458 0.39894 0.56472
 C248 C 0.24379 0.42823 0.57055
 C249 C 0.24244 0.35061 0.64324
 C250 C 0.25955 0.35451 0.67455
 C251 C 0.27857 0.38409 0.68117
 C252 C 0.28058 0.40920 0.65614
 C253 C 0.29472 0.38828 0.71303
 C254 C 0.29172 0.36361 0.73819
 C255 C 0.27318 0.33412 0.73163
 C256 C 0.25729 0.32956 0.69971
 H257 H 0.27800 0.45399 0.60524
 H258 H 0.20974 0.35063 0.58315
 H259 H 0.20937 0.39616 0.54171
 H260 H 0.22760 0.32807 0.63829
 H261 H 0.29518 0.43185 0.66123
 H262 H 0.30930 0.41079 0.71864
 H263 H 0.30408 0.36737 0.76278
 H264 H 0.24273 0.30686 0.69481
 C265 C 0.90701 0.26203 0.09597
 C266 C 0.87954 0.26331 0.11849
 C267 C 0.86205 0.29302 0.12216
 C268 C 0.87295 0.32120 0.10353
 C269 C 0.90058 0.31976 0.08116
 C270 C 0.91761 0.29005 0.07691
 C271 C 0.83400 0.29392 0.14426
 C272 C 0.82357 0.26553 0.16290
 C273 C 0.84164 0.23607 0.15946
 C274 C 0.86931 0.23512 0.13721
 C275 C 0.83198 0.20798 0.17857
 C276 C 0.80463 0.20890 0.20094
 C277 C 0.78575 0.23757 0.20401
 C278 C 0.79554 0.26603 0.18511
 H279 H 0.92005 0.23901 0.09317
 H280 H 0.85997 0.34426 0.10606
 H281 H 0.90822 0.34168 0.06670
 H282 H 0.82039 0.31663 0.14698
 H283 H 0.88295 0.21241 0.13451
 H284 H 0.84586 0.18540 0.17658
 H285 H 0.79849 0.18719 0.21634
 H286 H 0.78138 0.28839 0.18771
 C287 C 0.42301 0.79131 0.56915
 C288 C 0.39649 0.79301 0.59302
 C289 C 0.37951 0.82298 0.59722
 C290 C 0.38980 0.85090 0.57798
 C291 C 0.41646 0.84912 0.55458
 C292 C 0.43314 0.81930 0.54969
 C293 C 0.35249 0.82454 0.62049
 C294 C 0.34244 0.79659 0.63990
 C295 C 0.35993 0.76684 0.63618
 C296 C 0.38670 0.76519 0.61269
 C297 C 0.35032 0.73912 0.65601
 C298 C 0.32337 0.74066 0.67898
 C299 C 0.30507 0.76972 0.68221
 C300 C 0.31507 0.79782 0.66284
 H301 H 0.43582 0.76823 0.56581
 H302 H 0.37717 0.87411 0.58093
 H303 H 0.42369 0.87102 0.53990
 H304 H 0.33928 0.84746 0.62345
 H305 H 0.39987 0.74225 0.60969
 H306 H 0.36362 0.71622 0.65374
 H307 H 0.31657 0.71894 0.69416
 H308 H 0.30115 0.82036 0.66514
 C309 C 0.07040 0.71951 0.08415
 C310 C 0.09762 0.72136 0.10728
 C311 C 0.12916 0.70899 0.09744
 C312 C 0.13236 0.69337 0.06542
 C313 C 0.10481 0.69069 0.04302
 C314 C 0.07394 0.70436 0.05190
 C315 C 0.15698 0.71263 0.11963
 C316 C 0.15340 0.72751 0.15201
 C317 C 0.12137 0.73811 0.16262
 C318 C 0.09384 0.73546 0.13999
 C319 C 0.11743 0.75121 0.19574
 C320 C 0.14506 0.75435 0.21793
 C321 C 0.17726 0.74564 0.20691
 C322 C 0.18129 0.73191 0.17405
 H323 H 0.04644 0.72980 0.09118
 H324 H 0.15623 0.68345 0.05759
 H325 H 0.10795 0.67906 0.01818
 H326 H 0.18135 0.70385 0.11174
 H327 H 0.06948 0.74431 0.14785
 H328 H 0.09300 0.75903 0.20447
 H329 H 0.14160 0.76461 0.24337
 H330 H 0.20609 0.72459 0.16582
 C331 C 0.59220 0.22217 0.57635
 C332 C 0.61583 0.21816 0.60275
 C333 C 0.60508 0.20532 0.63499
 C334 C 0.57123 0.19540 0.63981
 C335 C 0.54814 0.19847 0.61306
 C336 C 0.55836 0.21229 0.58145
 C337 C 0.62828 0.20269 0.66192
 C338 C 0.66227 0.21193 0.65682
 C339 C 0.67333 0.22326 0.62411
 C340 C 0.64998 0.22667 0.59740
 C341 C 0.70757 0.23119 0.61874
 C342 C 0.73047 0.22888 0.64577
 C343 C 0.71941 0.21957 0.67888
 C344 C 0.68534 0.21040 0.68404
 H345 H 0.60012 0.23246 0.55175
 H346 H 0.56261 0.18528 0.66422
 H347 H 0.52202 0.19081 0.61731
 H348 H 0.61988 0.19349 0.68683
 H349 H 0.65837 0.23596 0.57253
 H350 H 0.71661 0.23940 0.59374
 H351 H 0.75683 0.23518 0.64104
 H352 H 0.67662 0.20303 0.70944
 C353 C 0.75832 0.06300 0.91087
 C354 C 0.76303 0.08901 0.88731
 C355 C 0.78013 0.11859 0.89766
 C356 C 0.79556 0.12012 0.93011
 C357 C 0.79374 0.09268 0.95216
 C358 C 0.77394 0.06444 0.94331
 C359 C 0.78210 0.14572 0.87505
 C360 C 0.77032 0.14233 0.84113
 C361 C 0.75719 0.11136 0.82968
 C362 C 0.75204 0.08539 0.85322
 C363 C 0.74995 0.10674 0.79478
 C364 C 0.75553 0.13263 0.77144
 C365 C 0.76598 0.16453 0.78275
 C366 C 0.77228 0.16915 0.81818
 H367 H 0.74419 0.04077 0.90315
 H368 H 0.80958 0.14227 0.93815
 H369 H 0.80624 0.09428 0.97690
 H370 H 0.79392 0.16895 0.88339
 H371 H 0.74055 0.06205 0.84475
 H372 H 0.74082 0.08285 0.78536
 H373 H 0.75126 0.12758 0.74444
 H374 H 0.77874 0.19348 0.82822
 C375 C 0.24030 0.59703 0.42767
 C376 C 0.23732 0.61751 0.39856
 C377 C 0.22413 0.60402 0.36758
 C378 C 0.21289 0.57078 0.36659
 C379 C 0.21483 0.55098 0.39592
 C380 C 0.22889 0.56377 0.42641
 C381 C 0.22222 0.62395 0.33811
 C382 C 0.23224 0.65754 0.33940
 C383 C 0.24396 0.67145 0.37073
 C384 C 0.24695 0.65125 0.39996
 C385 C 0.25227 0.70541 0.37233
 C386 C 0.24952 0.72528 0.34309
 C387 C 0.23970 0.71143 0.31130
 C388 C 0.23060 0.67750 0.30985
 H389 H 0.25084 0.60699 0.45136
 H390 H 0.20247 0.56011 0.34319
 H391 H 0.20601 0.52533 0.39460
 H392 H 0.21265 0.61338 0.31426
 H393 H 0.25646 0.66185 0.42382
 H394 H 0.26070 0.71666 0.39624
 H395 H 0.25543 0.75155 0.34526
 H396 H 0.22262 0.66655 0.28562
 C397 C 0.24401 0.93318 0.89791
 C398 C 0.25066 0.91210 0.87024
 C399 C 0.28423 0.90368 0.86294
 C400 C 0.31071 0.91797 0.88229
 C401 C 0.30400 0.93975 0.90917
 C402 C 0.27054 0.94702 0.91791
 C403 C 0.29069 0.88078 0.83680
 C404 C 0.26400 0.86654 0.81761
 C405 C 0.23063 0.87648 0.82366
 C406 C 0.22417 0.89905 0.85002
 C407 C 0.20409 0.86298 0.80385
 C408 C 0.21021 0.83840 0.77968
 C409 C 0.24282 0.82644 0.77538
 C410 C 0.26991 0.84163 0.79334
 H411 H 0.21808 0.93891 0.90366
 H412 H 0.33664 0.91210 0.87681
 H413 H 0.32508 0.95007 0.92378
 H414 H 0.31636 0.87360 0.83185
 H415 H 0.19845 0.90596 0.85521
 H416 H 0.17847 0.87070 0.80776
 H417 H 0.18915 0.82742 0.76552
 H418 H 0.29517 0.83268 0.78995
 C419 C 0.74478 0.40735 0.41502
 C420 C 0.74836 0.38235 0.39045
 C421 C 0.78086 0.37151 0.38198
 C422 C 0.80929 0.38654 0.39771
 C423 C 0.80550 0.41165 0.42205
 C424 C 0.77322 0.42197 0.43125
 C425 C 0.78434 0.34568 0.35822
 C426 C 0.75570 0.33072 0.34273
 C427 C 0.72329 0.34219 0.35071
 C428 C 0.71984 0.36785 0.37454
 C429 C 0.69474 0.32767 0.33489
 C430 C 0.69814 0.30162 0.31177
 C431 C 0.73005 0.28924 0.30445
 C432 C 0.75885 0.30427 0.31964
 H433 H 0.71975 0.41529 0.42165
 H434 H 0.83441 0.37867 0.39144
 H435 H 0.82780 0.42252 0.43420
 H436 H 0.80923 0.33708 0.35198
 H437 H 0.69492 0.37636 0.38088
 H438 H 0.66977 0.33636 0.34049
 H439 H 0.67572 0.29084 0.29978
 H440 H 0.78356 0.29489 0.31405
 C441 C 0.08635 0.29556 0.93537
 C442 C 0.11379 0.28993 0.91344
 C443 C 0.11627 0.25880 0.89714
 C444 C 0.09240 0.23344 0.90415
 C445 C 0.06631 0.23862 0.92730
 C446 C 0.06263 0.26977 0.94290
 C447 C 0.14278 0.25329 0.87436
 C448 C 0.16776 0.27797 0.86870
 C449 C 0.16650 0.30852 0.88621
 C450 C 0.13913 0.31458 0.90805
 C451 C 0.19251 0.33250 0.88120
 C452 C 0.21921 0.32630 0.85873
 C453 C 0.22007 0.29622 0.84066
 C454 C 0.19390 0.27249 0.84550
 H455 H 0.08437 0.31951 0.94764
 H456 H 0.09418 0.20937 0.89210
 H457 H 0.04855 0.21824 0.93241
 H458 H 0.14424 0.22960 0.86138
 H459 H 0.13772 0.33825 0.92104
 H460 H 0.19211 0.35606 0.89448
 H461 H 0.23889 0.34519 0.85498
 H462 H 0.19310 0.25016 0.83020
 C463 C 0.58683 0.77976 0.39562
 C464 C 0.61532 0.77761 0.37433
 C465 C 0.63757 0.80547 0.37035
 C466 C 0.63041 0.83522 0.38692
 C467 C 0.60182 0.83725 0.40774
 C468 C 0.58000 0.80949 0.41268
 C469 C 0.66667 0.80310 0.35004
 C470 C 0.67358 0.77336 0.33323
 C471 C 0.65082 0.74580 0.33642
 C472 C 0.62199 0.74802 0.35714
 C473 C 0.65715 0.71650 0.31860
 C474 C 0.68592 0.71440 0.29808
 C475 C 0.70938 0.74109 0.29587
 C476 C 0.70284 0.77073 0.31313
 H477 H 0.57009 0.75823 0.39905
 H478 H 0.64707 0.85686 0.38403
 H479 H 0.59724 0.86042 0.42066
 H480 H 0.68391 0.82436 0.34732
 H481 H 0.60476 0.72674 0.35985
 H482 H 0.63967 0.69536 0.32020
 H483 H 0.68958 0.69203 0.28349
 H484 H 0.72058 0.79164 0.31090
 C485 C 0.90533 0.72835 0.91269
 C486 C 0.88241 0.72868 0.88504
 C487 C 0.89038 0.71245 0.85400
 C488 C 0.91896 0.69307 0.85240
 C489 C 0.93963 0.69000 0.88116
 C490 C 0.93387 0.70856 0.91109
 C491 C 0.86924 0.71517 0.82532
 C492 C 0.83843 0.73098 0.82826
 C493 C 0.82843 0.74352 0.86044
 C494 C 0.85114 0.74380 0.88822
 C495 C 0.79559 0.75468 0.86440
 C496 C 0.77327 0.75415 0.83653
 C497 C 0.78427 0.74574 0.80325
 C498 C 0.81706 0.73363 0.79969
 H499 H 0.89994 0.74182 0.93607
 H500 H 0.92497 0.67978 0.82912
 H501 H 0.96140 0.67457 0.87922
 H502 H 0.87618 0.70396 0.80109
 H503 H 0.84402 0.75470 0.91254
 H504 H 0.78684 0.76297 0.88925
 H505 H 0.74751 0.76090 0.84113
 H506 H 0.82620 0.72625 0.77468
 C507 C 0.41040 0.25240 0.42143
 C508 C 0.38140 0.25267 0.40068
 C509 C 0.35026 0.23990 0.41380
 C510 C 0.34851 0.22735 0.44733
 C511 C 0.37758 0.22614 0.46725
 C512 C 0.40868 0.23828 0.45437
 C513 C 0.32158 0.23871 0.39287
 C514 C 0.32377 0.24904 0.35858
 C515 C 0.35476 0.26193 0.34532
 C516 C 0.38329 0.26415 0.36664
 C517 C 0.35685 0.27152 0.31068
 C518 C 0.32869 0.26776 0.28929
 C519 C 0.29796 0.25485 0.30235
 C520 C 0.29560 0.24573 0.33705
 H521 H 0.43451 0.26144 0.41137
 H522 H 0.32488 0.21751 0.45775
 H523 H 0.37590 0.21533 0.49274
 H524 H 0.29782 0.22871 0.40293
 H525 H 0.40713 0.27376 0.35643
 H526 H 0.38035 0.28142 0.30003
 H527 H 0.33080 0.27496 0.26251
 H528 H 0.27197 0.23537 0.34702
 C529 C 0.74849 0.91390 0.91013
 C530 C 0.75229 0.89168 0.88293
 C531 C 0.78472 0.88630 0.86934
 C532 C 0.81284 0.90342 0.88338
 C533 C 0.80886 0.92531 0.91088
 C534 C 0.77666 0.93067 0.92455
 C535 C 0.78847 0.86357 0.84238
 C536 C 0.76023 0.84572 0.82945
 C537 C 0.72787 0.85115 0.84334
 C538 C 0.72409 0.87433 0.86964
 C539 C 0.69979 0.83280 0.83123
 C540 C 0.70373 0.80854 0.80627
 C541 C 0.73574 0.80249 0.79259
 C542 C 0.76383 0.82188 0.80353
 H543 H 0.72351 0.91765 0.92049
 H544 H 0.83792 0.89963 0.87336
 H545 H 0.83098 0.93799 0.92148
 H546 H 0.81334 0.85929 0.83199
 H547 H 0.69925 0.87837 0.88026
 H548 H 0.67487 0.83666 0.84163
 H549 H 0.68182 0.79386 0.79813
 H550 H 0.78851 0.81748 0.79277
 C551 C 0.23149 0.40682 0.42550
 C552 C 0.23746 0.38329 0.39985
 C553 C 0.26624 0.38715 0.37850
 C554 C 0.28899 0.41397 0.38378
 C555 C 0.28320 0.43690 0.40980
 C556 C 0.25429 0.43374 0.43060
 C557 C 0.27178 0.36422 0.35221
 C558 C 0.24920 0.33718 0.34732
 C559 C 0.22097 0.33277 0.36931
 C560 C 0.21515 0.35597 0.39529
 C561 C 0.19886 0.30533 0.36477
 C562 C 0.20446 0.28262 0.33848
 C563 C 0.23211 0.28706 0.31613
 C564 C 0.25430 0.31457 0.32063
 H565 H 0.20933 0.40399 0.44174
 H566 H 0.31125 0.41721 0.36778
 H567 H 0.30108 0.45748 0.41329
 H568 H 0.29364 0.36741 0.33559
 H569 H 0.19327 0.35279 0.41188
 H570 H 0.17720 0.30146 0.38147
 H571 H 0.18710 0.26156 0.33547
 H572 H 0.27526 0.31861 0.30304
 C573 C 0.26051 0.10383 0.93262
 C574 C 0.25522 0.13042 0.91013
 C575 C 0.22770 0.12883 0.88703
 C576 C 0.20460 0.10187 0.88851
 C577 C 0.20890 0.07646 0.91232
 C578 C 0.23734 0.07660 0.93402
 C579 C 0.22363 0.15422 0.86291
 C580 C 0.24576 0.18203 0.86272
 C581 C 0.27169 0.18489 0.88759
 C582 C 0.27676 0.15873 0.91063
 C583 C 0.29238 0.21374 0.88868
 C584 C 0.28790 0.23915 0.86484
 C585 C 0.26327 0.23578 0.83914
 C586 C 0.24251 0.20698 0.83792
 H587 H 0.28210 0.10487 0.94974
 H588 H 0.18307 0.10051 0.87137
 H589 H 0.19050 0.05602 0.91274
 H590 H 0.20312 0.15248 0.84449
 H591 H 0.29731 0.16047 0.92900
 H592 H 0.31221 0.21650 0.90771
 H593 H 0.30453 0.26097 0.86559
 H594 H 0.22414 0.20388 0.81745
 C595 C 0.75833 0.58390 0.43131
 C596 C 0.75391 0.60511 0.40322
 C597 C 0.73176 0.59536 0.37630
 C598 C 0.71296 0.56543 0.37896
 C599 C 0.71695 0.54479 0.40744
 C600 C 0.74026 0.55350 0.43330
 C601 C 0.72923 0.61538 0.34698
 C602 C 0.74802 0.64534 0.34459
 C603 C 0.76870 0.65593 0.37239
 C604 C 0.77177 0.63560 0.40137
 C605 C 0.78650 0.68645 0.37047
 C606 C 0.78427 0.70607 0.34105
 C607 C 0.76461 0.69530 0.31303
 C608 C 0.74679 0.66477 0.31471
 H609 H 0.77609 0.59083 0.45145
 H610 H 0.69561 0.55771 0.35876
 H611 H 0.70290 0.52135 0.40856
 H612 H 0.71288 0.60754 0.32595
 H613 H 0.78831 0.64333 0.42228
 H614 H 0.80233 0.69501 0.39157
 H615 H 0.79842 0.72945 0.33981
 H616 H 0.73249 0.65596 0.29263
 C617 C 0.08961 0.73484 0.90561
 C618 C 0.11141 0.73655 0.87706
 C619 C 0.10386 0.71733 0.84749
 C620 C 0.07681 0.69417 0.84832
 C621 C 0.05738 0.69016 0.87808
 C622 C 0.06276 0.71119 0.90655
 C623 C 0.12398 0.72096 0.81792
 C624 C 0.15351 0.74104 0.81868
 C625 C 0.16318 0.75704 0.84961
 C626 C 0.14134 0.75605 0.87806
 C627 C 0.19495 0.77298 0.85182
 C628 C 0.21647 0.77384 0.82339
 C629 C 0.20552 0.76183 0.79108
 C630 C 0.17398 0.74473 0.78928
 H631 H 0.09475 0.75039 0.92785
 H632 H 0.07111 0.67866 0.82621
 H633 H 0.03687 0.67174 0.87808
 H634 H 0.11732 0.70728 0.79478
 H635 H 0.14819 0.76945 0.90133
 H636 H 0.20352 0.78407 0.87576
 H637 H 0.24156 0.78467 0.82665
 H638 H 0.16508 0.73442 0.76513
 C639 C 0.58078 0.20792 0.43580
 C640 C 0.60091 0.20600 0.40632
 C641 C 0.58613 0.19624 0.37467
 C642 C 0.55181 0.18641 0.37372
 C643 C 0.53193 0.18819 0.40342
 C644 C 0.54617 0.19993 0.43424
 C645 C 0.60556 0.19777 0.34444
 C646 C 0.63953 0.20881 0.34562
 C647 C 0.65463 0.21658 0.37769
 C648 C 0.63523 0.21518 0.40778
 C649 C 0.68878 0.22643 0.37911
 C650 C 0.70754 0.22989 0.34894
 C651 C 0.69234 0.22456 0.31669
 C652 C 0.65847 0.21305 0.31525
 H653 H 0.59164 0.21713 0.45968
 H654 H 0.54008 0.17860 0.34978
 H655 H 0.50512 0.18236 0.40185
 H656 H 0.59404 0.19128 0.31996
 H657 H 0.64663 0.22215 0.43220
 H658 H 0.70088 0.23185 0.40353
 H659 H 0.73393 0.23746 0.35077
 H660 H 0.64660 0.20844 0.29055
 C661 C 0.91998 0.25117 0.91359
 C662 C 0.89643 0.25043 0.88671
 C663 C 0.87603 0.27802 0.88125
 C664 C 0.88012 0.30614 0.90210
 C665 C 0.90415 0.30695 0.92827
 C666 C 0.92398 0.27942 0.93442
 C667 C 0.85190 0.27714 0.85502
 C668 C 0.84834 0.24930 0.83373
 C669 C 0.86935 0.22206 0.83840
 C670 C 0.89311 0.22267 0.86511
 C671 C 0.86612 0.19469 0.81629
 C672 C 0.84191 0.19413 0.79014
 C673 C 0.82015 0.22061 0.78627
 C674 C 0.82383 0.24828 0.80792
 H675 H 0.93556 0.23001 0.91798
 H676 H 0.86479 0.32753 0.89811
 H677 H 0.90688 0.32892 0.94410
 H678 H 0.83597 0.29814 0.85112
 H679 H 0.90900 0.20166 0.86903
 H680 H 0.88218 0.17370 0.81930
 H681 H 0.83962 0.17277 0.77339
 H682 H 0.80702 0.26874 0.80511
 C683 C 0.42347 0.78575 0.39207
 C684 C 0.39630 0.78595 0.36888
 C685 C 0.38020 0.81594 0.36190
 C686 C 0.39217 0.84534 0.37743
 C687 C 0.41933 0.84497 0.40030
 C688 C 0.43495 0.81517 0.40826
 C689 C 0.35210 0.81599 0.33994
 C690 C 0.33988 0.78641 0.32483
 C691 C 0.35658 0.75658 0.33106
 C692 C 0.38466 0.75654 0.35302
 C693 C 0.34457 0.72714 0.31562
 C694 C 0.31570 0.72700 0.29507
 C695 C 0.29805 0.75619 0.28992
 C696 C 0.31077 0.78603 0.30420
 H697 H 0.43541 0.76262 0.39778
 H698 H 0.38025 0.86858 0.37226
 H699 H 0.42761 0.86798 0.41237
 H700 H 0.33947 0.83893 0.33502
 H701 H 0.39713 0.73355 0.35814
 H702 H 0.35722 0.70411 0.31983
 H703 H 0.30659 0.70389 0.28380
 H704 H 0.29732 0.80865 0.30023
 C705 C 0.23649 0.91619 0.08020
 C706 C 0.24065 0.88987 0.10327
 C707 C 0.27192 0.87411 0.10496
 C708 C 0.29873 0.88553 0.08403
 C709 C 0.29463 0.91235 0.06177
 C710 C 0.26345 0.92772 0.05946
 C711 C 0.27596 0.84751 0.12779
 C712 C 0.24945 0.83719 0.14973
 C713 C 0.21854 0.85366 0.14859
 C714 C 0.21416 0.87948 0.12505
 C715 C 0.19268 0.84454 0.17158
 C716 C 0.19735 0.81948 0.19563
 C717 C 0.22738 0.80195 0.19632
 C718 C 0.25350 0.81113 0.17329
 H719 H 0.21245 0.92817 0.07890
 H720 H 0.32294 0.87390 0.08508
 H721 H 0.31572 0.92079 0.04597
 H722 H 0.29987 0.83527 0.12890
 H723 H 0.19033 0.89189 0.12411
 H724 H 0.16910 0.85736 0.17155
 H725 H 0.17762 0.81431 0.21426
 H726 H 0.27702 0.79821 0.17396
 C727 C 0.75855 0.40510 0.59299
 C728 C 0.76578 0.37903 0.61530
 C729 C 0.79884 0.36702 0.61673
 C730 C 0.82436 0.38210 0.59656
 C731 C 0.81700 0.40829 0.57458
 C732 C 0.78396 0.41962 0.57220
 C733 C 0.80569 0.33985 0.63783
 C734 C 0.77985 0.32459 0.65748
 C735 C 0.74704 0.33736 0.65679
 C736 C 0.74024 0.36448 0.63575
 C737 C 0.72132 0.32241 0.67669
 C738 C 0.72769 0.29436 0.69619
 C739 C 0.75973 0.28054 0.69583
 C740 C 0.78603 0.29627 0.67718
 H741 H 0.73305 0.41391 0.59161
 H742 H 0.84989 0.37336 0.59744
 H743 H 0.83700 0.41912 0.55880
 H744 H 0.83091 0.33027 0.63850
 H745 H 0.71495 0.37389 0.63486
 H746 H 0.69615 0.33207 0.67672
 H747 H 0.70732 0.28285 0.71100
 H748 H 0.81082 0.28574 0.67702
 C749 C 0.73674 0.07454 0.08541
 C750 C 0.73527 0.09434 0.11503
 C751 C 0.74685 0.08199 0.14686
 C752 C 0.76013 0.05030 0.14840
 C753 C 0.76276 0.03137 0.11857
 C754 C 0.75110 0.04333 0.08702
 C755 C 0.74596 0.10185 0.17638
 C756 C 0.73512 0.13446 0.17425
 C757 C 0.72424 0.14708 0.14228
 C758 C 0.72366 0.12670 0.11307
 C759 C 0.71508 0.18022 0.13983
 C760 C 0.71754 0.20089 0.16851
 C761 C 0.72826 0.18854 0.20026
 C762 C 0.73621 0.15511 0.20328
 H763 H 0.72824 0.08394 0.06088
 H764 H 0.76928 0.04051 0.17248
 H765 H 0.77393 0.00729 0.12007
 H766 H 0.75480 0.09233 0.20074
 H767 H 0.71528 0.13639 0.08861
 H768 H 0.70687 0.19036 0.11554
 H769 H 0.71132 0.22669 0.16595
 H770 H 0.74481 0.14574 0.22779
 C771 C 0.23068 0.59864 0.57062
 C772 C 0.23105 0.62082 0.59839
 C773 C 0.22502 0.60882 0.63212
 C774 C 0.21693 0.57506 0.63719
 C775 C 0.21602 0.55324 0.60926
 C776 C 0.22354 0.56483 0.57605
 C777 C 0.22780 0.63062 0.66020
 C778 C 0.23576 0.66439 0.65487
 C779 C 0.23997 0.67655 0.62095
 C780 C 0.23798 0.65467 0.59300
 C781 C 0.24616 0.71045 0.61548
 C782 C 0.24877 0.73210 0.64331
 C783 C 0.24670 0.72025 0.67733
 C784 C 0.23967 0.68623 0.68286
 H785 H 0.23665 0.60747 0.54490
 H786 H 0.21201 0.56543 0.66279
 H787 H 0.21089 0.52708 0.61374
 H788 H 0.22395 0.62130 0.68612
 H789 H 0.24201 0.66397 0.56708
 H790 H 0.24875 0.72029 0.58964
 H791 H 0.25263 0.75830 0.63817
 H792 H 0.23765 0.67667 0.70886
 C793 C 0.93236 0.71301 0.08495
 C794 C 0.90564 0.71245 0.10866
 C795 C 0.87451 0.69653 0.09989
 C796 C 0.87131 0.67989 0.06833
 C797 C 0.89843 0.67971 0.04531
 C798 C 0.92877 0.69686 0.05316
 C799 C 0.84706 0.69778 0.12262
 C800 C 0.85064 0.71391 0.15443
 C801 C 0.88235 0.72813 0.16401
 C802 C 0.90949 0.72773 0.14087
 C803 C 0.88631 0.74267 0.19657
 C804 C 0.85894 0.74380 0.21914
 C805 C 0.82702 0.73148 0.20900
 C806 C 0.82301 0.71616 0.17684
 H807 H 0.95597 0.72599 0.09112
 H808 H 0.84777 0.66728 0.06132
 H809 H 0.89532 0.66725 0.02080
 H810 H 0.82295 0.68628 0.11554
 H811 H 0.93357 0.73934 0.14790
 H812 H 0.91052 0.75327 0.20453
 H813 H 0.86234 0.75528 0.24411
 H814 H 0.79839 0.70616 0.16934
 C815 C 0.40630 0.24091 0.59979
 C816 C 0.38677 0.25255 0.62701
 C817 C 0.39583 0.28302 0.64300
 C818 C 0.42385 0.30165 0.63097
 C819 C 0.44287 0.29011 0.60353
 C820 C 0.43444 0.25957 0.58792
 C821 C 0.37687 0.29428 0.67081
 C822 C 0.34886 0.27554 0.68273
 C823 C 0.33935 0.24546 0.66619
 C824 C 0.35839 0.23414 0.63850
 C825 C 0.31117 0.22692 0.67795
 C826 C 0.29296 0.23773 0.70625
 C827 C 0.30257 0.26721 0.72324
 C828 C 0.33049 0.28614 0.71127
 H829 H 0.39941 0.21750 0.58763
 H830 H 0.43109 0.32509 0.64281
 H831 H 0.46449 0.30491 0.59480
 H832 H 0.38403 0.31747 0.68330
 H833 H 0.35128 0.21090 0.62608
 H834 H 0.30345 0.20390 0.66552
 H835 H 0.27142 0.22289 0.71517
 H836 H 0.33834 0.30860 0.72468
 C837 C 0.06708 0.25808 0.10181
 C838 C 0.09514 0.25821 0.12376
 C839 C 0.11946 0.28461 0.12197
 C840 C 0.11477 0.31091 0.09919
 C841 C 0.08648 0.31090 0.07795
 C842 C 0.06269 0.28435 0.07872
 C843 C 0.14808 0.28436 0.14297
 C844 C 0.15226 0.25857 0.16648
 C845 C 0.12742 0.23271 0.16922
 C846 C 0.09924 0.23244 0.14746
 C847 C 0.13098 0.20791 0.19414
 C848 C 0.15877 0.20891 0.21623
 C849 C 0.18397 0.23384 0.21264
 C850 C 0.18062 0.25862 0.18785
 H851 H 0.04868 0.23762 0.10268
 H852 H 0.13306 0.33140 0.09766
 H853 H 0.08372 0.33129 0.06016
 H854 H 0.16690 0.30443 0.14129
 H855 H 0.08037 0.21244 0.14923
 H856 H 0.11198 0.18819 0.19698
 H857 H 0.16065 0.19028 0.23612
 H858 H 0.19977 0.27835 0.18588
 C859 C 0.58402 0.78275 0.56848
 C860 C 0.61019 0.78199 0.59277
 C861 C 0.62911 0.81135 0.60046
 C862 C 0.62126 0.84100 0.58397
 C863 C 0.59500 0.84160 0.56004
 C864 C 0.57621 0.81252 0.55191
 C865 C 0.65540 0.81063 0.62460
 C866 C 0.66263 0.78104 0.64163
 C867 C 0.64343 0.75178 0.63419
 C868 C 0.61757 0.75237 0.60961
 C869 C 0.64997 0.72251 0.65197
 C870 C 0.67493 0.72226 0.67724
 C871 C 0.69459 0.75098 0.68457
 C872 C 0.68831 0.78034 0.66650
 H873 H 0.56970 0.76014 0.56256
 H874 H 0.63543 0.86375 0.58959
 H875 H 0.58966 0.86484 0.54760
 H876 H 0.66992 0.83315 0.63043
 H877 H 0.60293 0.72988 0.60392
 H878 H 0.63522 0.69997 0.64693
 H879 H 0.67819 0.69976 0.69178
 H880 H 0.70308 0.80273 0.67222
   
