data_POSCAR
  _audit_creation_date              2014-09-24
  _audit_creation_method            'ToBaCCo'
  _symmetry_space_group_name_H-M    'P1'
  _symmetry_Int_Tables_number       1
  _symmetry_cell_setting            triclinic
  loop_
  _symmetry_equiv_pos_as_xyz
 x,y,z
_cell_length_a 20.3138
_cell_length_b 20.6386
_cell_length_c 8.4487
_cell_angle_alpha 88.950300
_cell_angle_beta 90.868700
_cell_angle_gamma 118.144900
loop_
  _atom_site_label
  _atom_site_type_symbol
  _atom_site_fract_x
  _atom_site_fract_y
  _atom_site_fract_z
C1 C 0.39116 0.84776 0.63284
 C2 C 0.36710 0.81407 0.48527
 C3 C 0.40135 0.85141 0.34495
 C4 C 0.45797 0.92545 0.35113
 C5 C 0.47602 0.96271 0.49727
 C6 C 0.44244 0.92375 0.63793
 C7 C 0.45775 0.96246 0.77975
 C8 C 0.50880 1.03676 0.78582
 C9 C 0.54623 1.07653 0.64939
 C10 C 0.52897 1.03867 0.50322
 C11 C 0.49796 0.96289 0.21578
 C12 C 0.54958 1.03716 0.22115
 C13 C 0.56354 1.07661 0.36207
 C14 C 0.61138 1.15305 0.36474
 C15 C 0.63343 1.18855 0.51074
 C16 C 0.60224 1.15178 0.65427
 H17 H 0.42799 0.93569 0.88647
 H18 H 0.51734 1.06181 0.89944
 H19 H 0.49029 0.93477 0.10531
 H20 H 0.58051 1.06353 0.11542
 H21 H 0.32803 0.75577 0.48047
 H22 H 0.67053 1.24743 0.51115
 C23 C -0.15822 0.44452 0.35340
 C24 C -0.19715 0.42895 0.49588
 C25 C -0.16075 0.43610 0.64210
 C26 C -0.08212 0.46069 0.64388
 C27 C -0.04159 0.48505 0.50020
 C28 C -0.07981 0.47871 0.35538
 C29 C -0.03882 0.50713 0.21612
 C30 C 0.03862 0.53783 0.21705
 C31 C 0.07754 0.54021 0.35719
 C32 C 0.03739 0.51535 0.50065
 C33 C -0.04187 0.46527 0.78430
 C34 C 0.03558 0.49508 0.78444
 C35 C 0.07632 0.52237 0.64486
 C36 C 0.15509 0.55580 0.64518
 C37 C 0.19350 0.57564 0.50207
 C38 C 0.15581 0.56826 0.35876
 H39 H -0.06652 0.50846 0.10708
 H40 H 0.06801 0.56104 0.10799
 H41 H -0.06910 0.44582 0.89605
 H42 H 0.06356 0.49534 0.89437
 H43 H -0.25767 0.40409 0.49167
 H44 H 0.25407 0.60138 0.50294
 C45 C 0.55168 0.39518 0.35689
 C46 C 0.55285 0.35915 0.49863
 C47 C 0.54006 0.38264 0.64452
 C48 C 0.51526 0.43637 0.64581
 C49 C 0.51149 0.47147 0.50331
 C50 C 0.53253 0.45275 0.35908
 C51 C 0.53458 0.49261 0.22106
 C52 C 0.51134 0.54610 0.22270
 C53 C 0.48604 0.56224 0.36242
 C54 C 0.48826 0.52662 0.50548
 C55 C 0.49100 0.45341 0.78599
 C56 C 0.46769 0.50682 0.78833
 C57 C 0.46612 0.54501 0.64964
 C58 C 0.44644 0.60300 0.65016
 C59 C 0.44396 0.63649 0.50521
 C60 C 0.45827 0.61305 0.36174
 H61 H 0.55478 0.48318 0.11100
 H62 H 0.51534 0.57665 0.11489
 H63 H 0.48785 0.42364 0.89463
 H64 H 0.45095 0.51693 0.90106
 H65 H 0.57284 0.31877 0.49667
 H66 H 0.42258 0.67583 0.50170
 O67 O 0.44417 0.69347 -0.19705
 O68 O 0.42533 0.80871 -0.13860
 C69 C 0.37280 0.80292 -0.23084
 O70 O 0.30531 0.75758 -0.20398
 O71 O 0.19512 0.63022 -0.12917
 C72 C 0.20037 0.58132 -0.20972
 O73 O 0.24561 0.55692 -0.17582
 O74 O 0.38043 0.57722 -0.11511
 C75 C 0.42322 0.62542 -0.21433
 O76 O 0.46305 0.67691 0.12003
 O77 O 0.43270 0.78358 0.17193
 C78 C 0.38691 0.80719 0.20127
 O79 O 0.33022 0.79413 0.11336
 O80 O 0.22388 0.66366 0.17969
 C81 C 0.20152 0.59692 0.21641
 O82 O 0.21790 0.55434 0.13827
 O83 O 0.35505 0.58301 0.19633
 C84 C 0.42388 0.62587 0.21790
 Cr85 Cr 0.43825 0.73853 -0.01132
 Cr86 Cr 0.26591 0.71060 -0.01006
 Cr87 Cr 0.30068 0.57090 0.01049
 O88 O 0.33460 0.67322 -0.00168
 O89 O 0.54718 0.29673 -0.18543
 O90 O 0.57324 0.18785 -0.11031
 C91 C 0.62343 0.19411 -0.20684
 O92 O 0.69201 0.23907 -0.18344
 O93 O 0.80307 0.36959 -0.12447
 C94 C 0.79429 0.41237 -0.22222
 O95 O 0.74484 0.43268 -0.20251
 O96 O 0.61160 0.41539 -0.12954
 C97 C 0.56661 0.36358 -0.21741
 O98 O 0.54034 0.32295 0.13190
 O99 O 0.57529 0.21958 0.19968
 C100 C 0.62204 0.19633 0.22850
 O101 O 0.67554 0.20856 0.13551
 O102 O 0.77793 0.34347 0.18713
 C103 C 0.79854 0.41113 0.20898
 O104 O 0.78389 0.45049 0.11147
 O105 O 0.64886 0.42348 0.17791
 C106 C 0.58197 0.37919 0.21410
 Cr107 Cr 0.56179 0.25884 0.00856
 Cr108 Cr 0.73499 0.29089 0.00339
 Cr109 Cr 0.69659 0.42764 -0.01096
 O110 O 0.66437 0.32581 0.00293
   
