data_POSCAR
  _audit_creation_date              2014-09-24
  _audit_creation_method            'ToBaCCo'
  _symmetry_space_group_name_H-M    'P1'
  _symmetry_Int_Tables_number       1
  _symmetry_cell_setting            triclinic
  loop_
  _symmetry_equiv_pos_as_xyz
 x,y,z
_cell_length_a 42.7114
_cell_length_b 36.9023
_cell_length_c 33.6106
_cell_angle_alpha 90.021800
_cell_angle_beta 89.803900
_cell_angle_gamma 86.086500
loop_
  _atom_site_label
  _atom_site_type_symbol
  _atom_site_fract_x
  _atom_site_fract_y
  _atom_site_fract_z
C1 C 1.22964 0.22369 0.19914
 C2 C 1.24892 0.25190 0.17902
 C3 C 1.26261 0.27410 0.20533
 C4 C 1.25566 0.26605 0.24957
 C5 C 1.25217 0.20336 0.22796
 C6 C 1.26571 0.22540 0.25442
 C7 C 1.20606 0.24541 0.22566
 C8 C 1.21954 0.26738 0.25219
 H9 H 1.25241 0.25333 0.14703
 H10 H 1.26675 0.28419 0.27095
 H11 H 1.25594 0.17392 0.22864
 H12 H 1.18101 0.24178 0.22541
 C13 C 0.73180 -0.27964 0.21109
 C14 C 0.74903 -0.25457 0.18344
 C15 C 0.76546 -0.22991 0.20336
 C16 C 0.76332 -0.23245 0.24890
 C17 C 0.75724 -0.29702 0.23846
 C18 C 0.77368 -0.27221 0.25819
 C19 C 0.71137 -0.25410 0.23800
 C20 C 0.72796 -0.22948 0.25772
 H21 H 0.74893 -0.25674 0.15120
 H22 H 0.77675 -0.21229 0.26502
 H23 H 0.76177 -0.32617 0.24201
 H24 H 0.68614 -0.25537 0.24119
 C25 C 0.73159 0.22684 -0.29606
 C26 C 0.75668 0.24250 -0.31835
 C27 C 0.77612 0.26353 -0.29384
 C28 C 0.76669 0.26491 -0.25182
 C29 C 0.74702 0.20586 -0.26416
 C30 C 0.76635 0.22684 -0.23975
 C31 C 0.71420 0.25727 -0.27664
 C32 C 0.73356 0.27830 -0.25208
 H33 H 0.76086 0.23820 -0.35000
 H34 H 0.78173 0.28132 -0.23286
 H35 H 0.74574 0.17669 -0.26047
 H36 H 0.68874 0.26159 -0.27722
 C37 C 1.22233 -0.27106 -0.29866
 C38 C 1.24524 -0.24957 -0.32277
 C39 C 1.26675 -0.23372 -0.29977
 C40 C 1.26356 -0.24090 -0.25485
 C41 C 1.24289 -0.29841 -0.27423
 C42 C 1.26441 -0.28255 -0.25124
 C43 C 1.20783 -0.24402 -0.26819
 C44 C 1.22937 -0.22829 -0.24535
 H45 H 1.24355 -0.24559 -0.35474
 H46 H 1.28118 -0.22805 -0.23620
 H47 H 1.23979 -0.32739 -0.27377
 H48 H 1.18270 -0.23774 -0.26502
 C49 C 0.23167 0.22551 0.80318
 C50 C 0.24910 0.25266 0.82270
 C51 C 0.26284 0.27681 0.79544
 C52 C 0.25659 0.26942 0.75348
 C53 C 0.20753 0.24657 0.77695
 C54 C 0.22048 0.26943 0.75072
 C55 C 0.25462 0.20612 0.77384
 C56 C 0.26761 0.22903 0.74765
 H57 H 0.25275 0.25356 0.85468
 H58 H 0.26722 0.28826 0.73231
 H59 H 0.18265 0.24202 0.77725
 H60 H 0.25879 0.17675 0.77235
 C61 C 0.73103 0.72311 0.78867
 C62 C 0.74790 0.74679 0.81460
 C63 C 0.76536 0.77225 0.79290
 C64 C 0.76268 0.76918 0.74967
 C65 C 0.71143 0.74734 0.76335
 C66 C 0.72897 0.77273 0.74187
 C67 C 0.75476 0.70566 0.76233
 C68 C 0.77221 0.73121 0.74083
 H69 H 0.74804 0.74496 0.84690
 H70 H 0.77623 0.78896 0.73289
 H71 H 0.68608 0.74659 0.76093
 H72 H 0.75913 0.67639 0.75933
 C73 C 0.73185 0.22743 0.29532
 C74 C 0.75787 0.24436 0.31863
 C75 C 0.77662 0.26421 0.29545
 C76 C 0.76757 0.26550 0.25106
 C77 C 0.71397 0.25914 0.27414
 C78 C 0.73262 0.27900 0.25083
 C79 C 0.74877 0.20545 0.26211
 C80 C 0.76738 0.22534 0.23898
 H81 H 0.76170 0.24017 0.35029
 H82 H 0.78281 0.28179 0.23225
 H83 H 0.68855 0.26359 0.27481
 H84 H 0.74669 0.17653 0.25770
 C85 C 0.22265 0.73034 0.29915
 C86 C 0.24520 0.75244 0.32296
 C87 C 0.26617 0.76916 0.29973
 C88 C 0.26282 0.76214 0.25476
 C89 C 0.20735 0.75714 0.26915
 C90 C 0.22828 0.77374 0.24599
 C91 C 0.24367 0.70376 0.27412
 C92 C 0.26464 0.72040 0.25081
 H93 H 0.24379 0.75592 0.35503
 H94 H 0.27996 0.77568 0.23587
 H95 H 0.18210 0.76253 0.26643
 H96 H 0.24138 0.67462 0.27372
 O97 O 1.04064 0.05891 0.06901
 O98 O 1.07656 0.02377 0.03228
 C99 C 1.06910 0.04848 0.05857
 O100 O 0.95678 -0.06880 0.06554
 O101 O 0.92140 -0.03289 0.02909
 C102 C 0.92853 -0.05850 0.05455
 O103 O 1.04431 -0.06842 0.07106
 O104 O 1.07845 -0.03733 0.03320
 C105 C 1.07229 -0.06023 0.06082
 O106 O 0.95333 0.06639 0.06316
 O107 O 0.91968 0.03203 0.02866
 C108 C 0.92555 0.05805 0.05286
 Zr109 Zr 0.99759 0.04167 0.04738
 O110 O 0.99561 0.03546 0.10980
 O111 O 0.99727 0.09869 0.05374
 Zr112 Zr 1.00008 -0.04942 0.04777
 O113 O 0.99587 -0.04765 0.11055
 O114 O 1.00526 -0.10686 0.04913
 O115 O 1.02692 -0.00493 0.05580
 O116 O 0.97100 -0.00256 0.05430
 O117 O 0.95517 0.06479 -0.07226
 O118 O 0.92060 0.03188 -0.03721
 C119 C 0.92712 0.05714 -0.06212
 O120 O 1.04629 -0.06915 -0.07438
 O121 O 1.07937 -0.03760 -0.03568
 C122 C 1.07396 -0.06077 -0.06327
 O123 O 0.95837 -0.06915 -0.07221
 O124 O 0.92210 -0.03188 -0.03835
 C125 C 0.92980 -0.05813 -0.06290
 O126 O 1.04293 0.05788 -0.07367
 O127 O 1.07772 0.02305 -0.03533
 C128 C 1.07105 0.04749 -0.06209
 Zr129 Zr 0.99906 0.04127 -0.05343
 O130 O 0.99668 0.03850 -0.11630
 O131 O 1.00059 0.09844 -0.05607
 Zr132 Zr 1.00141 -0.05002 -0.05286
 O133 O 0.99868 -0.04961 -0.11575
 O134 O 1.00660 -0.10749 -0.05287
 Zr135 Zr 1.04623 -0.00601 -0.00199
 Zr136 Zr 0.95242 -0.00203 -0.00363
 O137 O 0.97281 -0.00315 -0.06080
 O138 O 1.02847 -0.00559 -0.06046
 O139 O 0.97039 0.04988 -0.00358
 O140 O 1.02813 -0.05763 -0.00204
 O141 O 1.02510 0.04719 -0.00256
 O142 O 0.97295 -0.05571 -0.00301
 H143 H 0.95619 -0.00167 0.07710
 H144 H 1.04286 -0.07957 -0.00166
 H145 H 0.95887 -0.00246 -0.08433
 H146 H 1.03819 0.06834 -0.00246
 H147 H 0.98952 -0.11595 0.03080
 H148 H 0.98936 -0.11631 -0.03659
 H149 H 1.01600 -0.03564 -0.12582
 H150 H 1.01686 0.02701 -0.12605
 H151 H 0.98440 0.10904 -0.03754
 H152 H 0.99870 0.10879 0.02665
 H153 H 0.99429 0.06037 0.12096
 H154 H 1.01234 -0.03247 0.12066
 O155 O 0.94400 0.44797 0.43020
 O156 O 0.97391 0.40669 0.46774
 C157 C 0.95299 0.41513 0.44071
 O158 O 1.05468 0.54593 0.43627
 O159 O 1.02195 0.58771 0.46958
 C160 C 1.04542 0.57887 0.44608
 O161 O 1.05518 0.44558 0.43139
 O162 O 1.02821 0.40540 0.46823
 C163 C 1.04902 0.41308 0.44180
 O164 O 0.93689 0.54882 0.43371
 O165 O 0.96601 0.58903 0.46726
 C166 C 0.94397 0.58138 0.44282
 Zr167 Zr 0.95806 0.49809 0.45156
 O168 O 0.96404 0.49891 0.38915
 O169 O 0.90879 0.49847 0.44517
 Zr170 Zr 1.03613 0.49639 0.45189
 O171 O 1.03188 0.50014 0.38920
 O172 O 1.08545 0.49308 0.44509
 O173 O 0.99856 0.46414 0.44426
 O174 O 0.99581 0.52958 0.44439
 O175 O 0.93659 0.54947 0.57053
 O176 O 0.96465 0.58937 0.53480
 C177 C 0.94302 0.58194 0.56013
 O178 O 1.05413 0.44634 0.57434
 O179 O 1.02765 0.40580 0.53756
 C180 C 1.04812 0.41374 0.56413
 O181 O 1.05245 0.54692 0.56999
 O182 O 1.02084 0.58814 0.53469
 C183 C 1.04351 0.57966 0.55921
 O184 O 0.94327 0.44859 0.57432
 O185 O 0.97363 0.40699 0.53748
 C186 C 0.95238 0.41566 0.56423
 Zr187 Zr 0.95721 0.49854 0.55211
 O188 O 0.95806 0.50271 0.61494
 O189 O 0.90781 0.49631 0.55261
 Zr190 Zr 1.03573 0.49685 0.55255
 O191 O 1.03283 0.50134 0.61532
 O192 O 1.08536 0.49231 0.55527
 Zr193 Zr 0.99925 0.44262 0.50247
 Zr194 Zr 0.99445 0.55218 0.50191
 O195 O 0.99508 0.52977 0.55946
 O196 O 0.99787 0.46488 0.56035
 O197 O 0.94990 0.53075 0.50165
 O198 O 1.04327 0.46508 0.50244
 O199 O 0.95316 0.46684 0.50199
 O200 O 1.04087 0.52851 0.50215
 H201 H 0.99555 0.54635 0.42134
 H202 H 1.06278 0.44895 0.50271
 H203 H 0.99435 0.54654 0.58253
 H204 H 0.93523 0.45118 0.50210
 H205 H 1.09439 0.49205 0.47214
 H206 H 1.09321 0.50981 0.53597
 H207 H 1.02440 0.47887 0.62567
 H208 H 0.97020 0.48096 0.62529
 H209 H 0.89904 0.51528 0.53419
 H210 H 0.90013 0.49198 0.47128
 H211 H 0.94264 0.50015 0.37773
 H212 H 1.02409 0.47708 0.37948
 O213 O 0.53915 0.06551 0.57250
 O214 O 0.57523 0.03105 0.53521
 C215 C 0.56764 0.05564 0.56171
 O216 O 0.45683 -0.06352 0.57107
 O217 O 0.42050 -0.02831 0.53527
 C218 C 0.42832 -0.05382 0.56063
 O219 O 0.54400 -0.06196 0.57489
 O220 O 0.57761 -0.03099 0.53609
 C221 C 0.57182 -0.05383 0.56402
 O222 O 0.45191 0.07207 0.56795
 O223 O 0.41806 0.03716 0.53444
 C224 C 0.42405 0.06348 0.55826
 Zr225 Zr 0.49614 0.04763 0.55161
 O226 O 0.49482 0.04164 0.61409
 O227 O 0.49583 0.10466 0.55759
 Zr228 Zr 0.49954 -0.04327 0.55245
 O229 O 0.49605 -0.04083 0.61527
 O230 O 0.50529 -0.10067 0.55445
 O231 O 0.52614 0.00153 0.55963
 O232 O 0.47001 0.00313 0.55932
 O233 O 0.45195 0.06966 0.43270
 O234 O 0.41812 0.03648 0.46867
 C235 C 0.42410 0.06169 0.44342
 O236 O 0.54418 -0.06325 0.42955
 O237 O 0.57770 -0.03146 0.46734
 C238 C 0.57196 -0.05479 0.43996
 O239 O 0.45680 -0.06421 0.43327
 O240 O 0.42043 -0.02757 0.46772
 C241 C 0.42823 -0.05373 0.44302
 O242 O 0.53946 0.06411 0.42927
 O243 O 0.57541 0.03025 0.46700
 C244 C 0.56790 0.05434 0.44007
 Zr245 Zr 0.49629 0.04686 0.45080
 O246 O 0.49306 0.04378 0.38802
 O247 O 0.49728 0.10408 0.44777
 Zr248 Zr 0.49966 -0.04427 0.45186
 O249 O 0.49616 -0.04384 0.38903
 O250 O 0.50541 -0.10172 0.45204
 Zr251 Zr 0.54484 0.00057 0.50149
 Zr252 Zr 0.45072 0.00313 0.50181
 O253 O 0.47042 0.00208 0.44426
 O254 O 0.52622 0.00046 0.44344
 O255 O 0.46821 0.05529 0.50118
 O256 O 0.52706 -0.05126 0.50214
 O257 O 0.52296 0.05342 0.50107
 O258 O 0.47190 -0.05023 0.50228
 H259 H 0.45544 0.00390 0.58237
 H260 H 0.54184 -0.07316 0.50233
 H261 H 0.45621 0.00248 0.42100
 H262 H 0.53577 0.07481 0.50083
 H263 H 0.48998 -0.11014 0.53578
 H264 H 0.48844 -0.11076 0.46862
 H265 H 0.51352 -0.03018 0.37853
 H266 H 0.51317 0.03241 0.37786
 H267 H 0.48088 0.11464 0.46603
 H268 H 0.49342 0.11481 0.53053
 H269 H 0.49335 0.06660 0.62512
 H270 H 0.51291 -0.02598 0.62493
 O271 O 0.54199 0.55921 0.07072
 O272 O 0.57779 0.52542 0.03234
 C273 C 0.57042 0.54919 0.05977
 O274 O 0.45926 0.43166 0.06852
 O275 O 0.42284 0.46710 0.03312
 C276 C 0.43066 0.44177 0.05872
 O277 O 0.54662 0.43286 0.07119
 O278 O 0.57999 0.46438 0.03260
 C279 C 0.57437 0.44147 0.06053
 O280 O 0.45458 0.56570 0.06783
 O281 O 0.42051 0.53175 0.03343
 C282 C 0.42662 0.55709 0.05852
 Zr283 Zr 0.49877 0.54226 0.04944
 O284 O 0.49814 0.53580 0.11189
 O285 O 0.49822 0.59930 0.05567
 Zr286 Zr 0.50209 0.45112 0.04859
 O287 O 0.49939 0.45096 0.11149
 O288 O 0.50780 0.39367 0.04738
 O289 O 0.52866 0.49591 0.05620
 O290 O 0.47284 0.49757 0.05666
 O291 O 0.45361 0.56509 -0.06964
 O292 O 0.42007 0.53176 -0.03335
 C293 C 0.42583 0.55667 -0.05910
 O294 O 0.54593 0.43320 -0.07533
 O295 O 0.57975 0.46421 -0.03717
 C296 C 0.57383 0.44147 -0.06511
 O297 O 0.45841 0.43262 -0.07088
 O298 O 0.42242 0.46842 -0.03483
 C299 C 0.42991 0.44308 -0.06063
 O300 O 0.54124 0.56031 -0.07342
 O301 O 0.57748 0.52615 -0.03644
 C302 C 0.56981 0.55036 -0.06325
 Zr303 Zr 0.49819 0.54312 -0.05115
 O304 O 0.49466 0.54238 -0.11398
 O305 O 0.49900 0.60044 -0.05142
 Zr306 Zr 0.50155 0.45162 -0.05175
 O307 O 0.49778 0.45179 -0.11454
 O308 O 0.50718 0.39416 -0.05120
 Zr309 Zr 0.54715 0.49582 -0.00207
 Zr310 Zr 0.45301 0.49853 -0.00056
 O311 O 0.47246 0.49825 -0.05826
 O312 O 0.52794 0.49663 -0.05979
 O313 O 0.47030 0.55078 -0.00044
 O314 O 0.52947 0.44395 -0.00199
 O315 O 0.52539 0.54874 -0.00117
 O316 O 0.47394 0.44505 -0.00126
 H317 H 0.45869 0.49803 0.08010
 H318 H 0.54446 0.42224 -0.00220
 H319 H 0.45833 0.49888 -0.08160
 H320 H 0.53844 0.56992 -0.00113
 H321 H 0.49015 0.38481 0.03202
 H322 H 0.48942 0.38519 -0.03599
 H323 H 0.51403 0.46709 -0.12507
 H324 H 0.51381 0.52909 -0.12455
 H325 H 0.48107 0.61039 -0.03514
 H326 H 0.49765 0.60950 0.02853
 H327 H 0.49684 0.56065 0.12321
 H328 H 0.51429 0.46826 0.12137
 C329 C 1.21429 0.19924 0.17243
 C330 C 1.20010 0.17822 0.15340
 C331 C 1.18147 0.15275 0.13384
 C332 C 1.17727 0.11923 0.15195
 C333 C 1.15586 0.09617 0.13618
 C334 C 1.13862 0.10665 0.10228
 C335 C 1.14350 0.13968 0.08347
 C336 C 1.16487 0.16277 0.09928
 C337 C 1.11467 0.08464 0.08794
 C338 C 1.09401 0.06737 0.07529
 H339 H 1.18976 0.11147 0.17897
 H340 H 1.15215 0.07073 0.15097
 H341 H 1.13017 0.14801 0.05726
 H342 H 1.16772 0.18882 0.08536
 C343 C 1.19827 0.71271 0.67759
 C344 C 1.17723 0.70007 0.65969
 C345 C 1.15126 0.68503 0.64009
 C346 C 1.15378 0.67399 0.60029
 C347 C 1.12912 0.65712 0.58236
 C348 C 1.10187 0.65133 0.60418
 C349 C 1.09903 0.66330 0.64363
 C350 C 1.12366 0.68020 0.66153
 C351 C 1.07886 0.62903 0.58781
 C352 C 1.06138 0.60786 0.57458
 H353 H 1.17504 0.67759 0.58350
 H354 H 1.13170 0.64749 0.55199
 H355 H 1.07826 0.65849 0.66092
 H356 H 1.12153 0.68863 0.69236
 C357 C 0.71273 0.20573 0.68112
 C358 C 0.69624 0.18614 0.66324
 C359 C 0.67629 0.16170 0.64403
 C360 C 0.67030 0.12890 0.66265
 C361 C 0.64966 0.10571 0.64536
 C362 C 0.63497 0.11523 0.60933
 C363 C 0.64132 0.14778 0.59037
 C364 C 0.66196 0.17100 0.60770
 C365 C 0.61215 0.09267 0.59282
 C366 C 0.59225 0.07490 0.57889
 H367 H 0.68120 0.12153 0.69084
 H368 H 0.64479 0.08072 0.66036
 H369 H 0.62993 0.15546 0.56258
 H370 H 0.66636 0.19634 0.59313
 C371 C 0.71382 0.69400 0.18991
 C372 C 0.69846 0.67284 0.17258
 C373 C 0.67933 0.64834 0.15201
 C374 C 0.66717 0.61927 0.17238
 C375 C 0.64676 0.59702 0.15308
 C376 C 0.63847 0.60377 0.11334
 C377 C 0.65112 0.63240 0.09275
 C378 C 0.67152 0.65463 0.11205
 C379 C 0.61542 0.58299 0.09443
 C380 C 0.59529 0.56682 0.07862
 H381 H 0.67296 0.61428 0.20335
 H382 H 0.63694 0.57510 0.16933
 H383 H 0.64469 0.63800 0.06210
 H384 H 0.68067 0.67714 0.09609
 C385 C 0.78475 -0.20521 0.18321
 C386 C 0.80135 -0.18510 0.16620
 C387 C 0.82192 -0.16200 0.14587
 C388 C 0.85293 -0.17477 0.13803
 C389 C 0.87325 -0.15259 0.11849
 C390 C 0.86267 -0.11749 0.10666
 C391 C 0.83160 -0.10466 0.11434
 C392 C 0.81122 -0.12692 0.13393
 C393 C 0.88422 -0.09486 0.08742
 C394 C 0.90368 -0.07734 0.07196
 H395 H 0.86143 -0.20184 0.14713
 H396 H 0.89725 -0.16273 0.11277
 H397 H 0.82322 -0.07753 0.10536
 H398 H 0.78725 -0.11681 0.13986
 C399 C 0.80182 0.27908 0.69115
 C400 C 0.82413 0.29249 0.67642
 C401 C 0.85011 0.30860 0.65727
 C402 C 0.87257 0.32539 0.67983
 C403 C 0.89646 0.34309 0.66080
 C404 C 0.89809 0.34399 0.61912
 C405 C 0.87606 0.32644 0.59663
 C406 C 0.85220 0.30877 0.61563
 C407 C 0.91980 0.36645 0.59949
 C408 C 0.93605 0.38749 0.58312
 H409 H 0.87118 0.32554 0.71202
 H410 H 0.91307 0.35698 0.67854
 H411 H 0.87675 0.32738 0.56442
 H412 H 0.83493 0.29600 0.59784
 C413 C 0.28784 -0.20876 0.68381
 C414 C 0.30500 -0.18778 0.66924
 C415 C 0.32531 -0.16295 0.65108
 C416 C 0.35745 -0.17261 0.64734
 C417 C 0.37712 -0.14903 0.62870
 C418 C 0.36478 -0.11565 0.61365
 C419 C 0.33264 -0.10585 0.61752
 C420 C 0.31293 -0.12949 0.63620
 C421 C 0.38540 -0.09191 0.59424
 C422 C 0.40411 -0.07350 0.57846
 H423 H 0.36726 -0.19843 0.65862
 H424 H 0.40194 -0.15687 0.62586
 H425 H 0.32285 -0.08013 0.60599
 H426 H 0.28807 -0.12180 0.63884
 C427 C 0.28382 0.30041 0.19173
 C428 C 0.30158 0.32128 0.17797
 C429 C 0.32294 0.34493 0.15947
 C430 C 0.35537 0.33850 0.16480
 C431 C 0.37628 0.35946 0.14433
 C432 C 0.36496 0.38696 0.11829
 C433 C 0.33251 0.39375 0.11334
 C434 C 0.31157 0.37276 0.13384
 C435 C 0.38685 0.40745 0.09626
 C436 C 0.40619 0.42366 0.07850
 H437 H 0.36450 0.31688 0.18420
 H438 H 0.40130 0.35388 0.14839
 H439 H 0.32344 0.41488 0.09328
 H440 H 0.28657 0.37781 0.12917
 C441 C 0.78543 0.21043 -0.21172
 C442 C 0.80165 0.19322 -0.18823
 C443 C 0.82046 0.16997 -0.16206
 C444 C 0.81661 0.13255 -0.16222
 C445 C 0.83624 0.10908 -0.13931
 C446 C 0.85978 0.12294 -0.11607
 C447 C 0.86320 0.16047 -0.11520
 C448 C 0.84356 0.18398 -0.13817
 C449 C 0.88199 0.09858 -0.09567
 C450 C 0.90181 0.07889 -0.07977
 H451 H 0.79890 0.12144 -0.18076
 H452 H 0.83357 0.08011 -0.14048
 H453 H 0.88152 0.17142 -0.09754
 H454 H 0.84682 0.21283 -0.13797
 C455 C 0.79848 0.71714 0.28556
 C456 C 0.81904 0.70701 0.30823
 C457 C 0.84324 0.69305 0.33484
 C458 C 0.87364 0.68441 0.32037
 C459 C 0.89609 0.66632 0.34476
 C460 C 0.88823 0.65687 0.38373
 C461 C 0.85819 0.66675 0.39868
 C462 C 0.83574 0.68483 0.37428
 C463 C 0.90933 0.63287 0.40628
 C464 C 0.92588 0.61052 0.42383
 H465 H 0.87960 0.69037 0.28981
 H466 H 0.91910 0.65837 0.33272
 H467 H 0.85173 0.65912 0.42857
 H468 H 0.81223 0.69112 0.38567
 C469 C 0.28472 0.21002 0.28627
 C470 C 0.30006 0.19394 0.31151
 C471 C 0.31799 0.17181 0.33967
 C472 C 0.31304 0.13472 0.34240
 C473 C 0.33224 0.11197 0.36665
 C474 C 0.35645 0.12622 0.38838
 C475 C 0.36088 0.16350 0.38651
 C476 C 0.34168 0.18628 0.36218
 C477 C 0.37855 0.10228 0.40955
 C478 C 0.39847 0.08295 0.42580
 H479 H 0.29491 0.12321 0.32489
 H480 H 0.32880 0.08316 0.36755
 H481 H 0.37974 0.17474 0.40293
 H482 H 0.34584 0.21485 0.36011
 C483 C 0.28383 0.69688 -0.22308
 C484 C 0.29969 0.67908 -0.19963
 C485 C 0.31856 0.65727 -0.17201
 C486 C 0.32139 0.61940 -0.17622
 C487 C 0.34078 0.59823 -0.15055
 C488 C 0.35737 0.61481 -0.12045
 C489 C 0.35410 0.65264 -0.11579
 C490 C 0.33471 0.67381 -0.14148
 C491 C 0.37981 0.59348 -0.09676
 C492 C 0.39998 0.57618 -0.07849
 H493 H 0.30904 0.60631 -0.19973
 H494 H 0.34337 0.56906 -0.15471
 H495 H 0.36706 0.66580 -0.09290
 H496 H 0.33271 0.70307 -0.13795
 C497 C 1.21967 -0.20203 -0.21550
 C498 C 1.20849 -0.18055 -0.19162
 C499 C 1.19179 -0.15592 -0.16478
 C500 C 1.18090 -0.12143 -0.17824
 C501 C 1.15915 -0.10022 -0.15557
 C502 C 1.14822 -0.11351 -0.11945
 C503 C 1.16019 -0.14728 -0.10512
 C504 C 1.18193 -0.16849 -0.12779
 C505 C 1.12265 -0.09420 -0.09907
 C506 C 1.10054 -0.07872 -0.08262
 H507 H 1.18798 -0.11174 -0.20712
 H508 H 1.14986 -0.07423 -0.16700
 H509 H 1.15170 -0.15786 -0.07732
 H510 H 1.18981 -0.19538 -0.11745
 C511 C 1.20073 0.28485 0.28329
 C512 C 1.18251 0.29775 0.30777
 C513 C 1.15867 0.31203 0.33503
 C514 C 1.16659 0.33169 0.36875
 C515 C 1.14291 0.34726 0.39350
 C516 C 1.11124 0.34316 0.38472
 C517 C 1.10340 0.32272 0.35157
 C518 C 1.12705 0.30712 0.32688
 C519 C 1.08715 0.36396 0.40655
 C520 C 1.06839 0.38447 0.42351
 H521 H 1.19092 0.33570 0.37534
 H522 H 1.14924 0.36349 0.41872
 H523 H 1.07904 0.31983 0.34410
 H524 H 1.12066 0.29198 0.30084
 C525 C 0.71312 -0.20311 0.28448
 C526 C 0.69967 -0.18153 0.30656
 C527 C 0.68224 -0.15648 0.33241
 C528 C 0.67461 -0.16711 0.37106
 C529 C 0.65471 -0.14442 0.39471
 C530 C 0.64237 -0.11101 0.37978
 C531 C 0.65073 -0.09991 0.34157
 C532 C 0.67065 -0.12261 0.31792
 C533 C 0.61885 -0.08989 0.40206
 C534 C 0.59800 -0.07325 0.41986
 H535 H 0.68325 -0.19338 0.38242
 H536 H 0.64814 -0.15341 0.42408
 H537 H 0.64108 -0.07428 0.32962
 H538 H 0.67620 -0.11427 0.28795
 C539 C 0.72028 0.30281 -0.22541
 C540 C 0.70659 0.32351 -0.20241
 C541 C 0.68808 0.34703 -0.17576
 C542 C 0.67508 0.38073 -0.18917
 C543 C 0.65383 0.40149 -0.16517
 C544 C 0.64541 0.38866 -0.12764
 C545 C 0.65907 0.35544 -0.11379
 C546 C 0.68032 0.33468 -0.13778
 C547 C 0.62108 0.40815 -0.10472
 C548 C 0.59990 0.42373 -0.08625
 H549 H 0.68059 0.39040 -0.21863
 H550 H 0.64328 0.42700 -0.17634
 H551 H 0.65260 0.34509 -0.08496
 H552 H 0.68990 0.30850 -0.12724
 C553 C 1.21695 0.20021 -0.17037
 C554 C 1.20317 0.17852 -0.15170
 C555 C 1.18487 0.15234 -0.13273
 C556 C 1.16813 0.16142 -0.09786
 C557 C 1.14666 0.13794 -0.08290
 C558 C 1.14184 0.10546 -0.10288
 C559 C 1.15931 0.09585 -0.13702
 C560 C 1.18081 0.11929 -0.15193
 C561 C 1.11753 0.08338 -0.08967
 C562 C 1.09647 0.06618 -0.07792
 H563 H 1.17084 0.18714 -0.08313
 H564 H 1.13313 0.14561 -0.05652
 H565 H 1.15562 0.07086 -0.15272
 H566 H 1.19339 0.11230 -0.17923
 C567 C 1.19916 0.71314 0.32334
 C568 C 1.17861 0.69974 0.34174
 C569 C 1.15317 0.68392 0.36210
 C570 C 1.15653 0.67231 0.40163
 C571 C 1.13224 0.65517 0.42038
 C572 C 1.10449 0.64968 0.39971
 C573 C 1.10088 0.66207 0.36051
 C574 C 1.12513 0.67921 0.34179
 C575 C 1.08148 0.62764 0.41699
 C576 C 1.06378 0.60680 0.43067
 H577 H 1.17811 0.67580 0.41760
 H578 H 1.13545 0.64527 0.45054
 H579 H 1.07972 0.65754 0.34406
 H580 H 1.12230 0.68807 0.31120
 C581 C 0.71185 0.20508 0.31909
 C582 C 0.69537 0.18525 0.33669
 C583 C 0.67553 0.16052 0.35565
 C584 C 0.66579 0.16606 0.39513
 C585 C 0.64551 0.14249 0.41271
 C586 C 0.63499 0.11336 0.39084
 C587 C 0.64509 0.10756 0.35156
 C588 C 0.66535 0.13109 0.33401
 C589 C 0.61236 0.09085 0.40793
 C590 C 0.59252 0.07324 0.42235
 H591 H 0.67351 0.18877 0.41206
 H592 H 0.63763 0.14732 0.44305
 H593 H 0.63691 0.08527 0.33435
 H594 H 0.67275 0.12664 0.30342
 C595 C 0.71374 0.69843 -0.19073
 C596 C 0.69810 0.67729 -0.17348
 C597 C 0.67861 0.65255 -0.15349
 C598 C 0.66674 0.62369 -0.17449
 C599 C 0.64618 0.60104 -0.15582
 C600 C 0.63741 0.60712 -0.11603
 C601 C 0.64970 0.63561 -0.09485
 C602 C 0.67024 0.65826 -0.11352
 C603 C 0.61445 0.58560 -0.09758
 C604 C 0.59448 0.56875 -0.08203
 H605 H 0.67292 0.61911 -0.20547
 H606 H 0.63670 0.57926 -0.17259
 H607 H 0.64294 0.64073 -0.06415
 H608 H 0.67914 0.68058 -0.09702
 C609 C 0.78401 -0.20421 -0.18881
 C610 C 0.80067 -0.18367 -0.17255
 C611 C 0.82090 -0.15958 -0.15304
 C612 C 0.83589 -0.13355 -0.17511
 C613 C 0.85659 -0.11122 -0.15640
 C614 C 0.86237 -0.11478 -0.11552
 C615 C 0.84707 -0.14049 -0.09336
 C616 C 0.82638 -0.16282 -0.11207
 C617 C 0.88523 -0.09352 -0.09674
 C618 C 0.90513 -0.07672 -0.08117
 H619 H 0.83190 -0.13086 -0.20682
 H620 H 0.86843 -0.09159 -0.17389
 H621 H 0.85150 -0.14366 -0.06179
 H622 H 0.81499 -0.18291 -0.09471
 C623 C 0.80370 0.28029 0.31158
 C624 C 0.82595 0.29327 0.32668
 C625 C 0.85183 0.30881 0.34632
 C626 C 0.85307 0.30916 0.38799
 C627 C 0.87682 0.32643 0.40746
 C628 C 0.89957 0.34336 0.38539
 C629 C 0.89882 0.34221 0.34369
 C630 C 0.87503 0.32492 0.32420
 C631 C 0.92100 0.36573 0.40536
 C632 C 0.93697 0.38683 0.42188
 H633 H 0.83521 0.29690 0.40542
 H634 H 0.87685 0.32761 0.43967
 H635 H 0.91599 0.35567 0.32629
 H636 H 0.87428 0.32490 0.29198
 C637 C 0.28716 -0.20582 0.31637
 C638 C 0.30408 -0.18495 0.33166
 C639 C 0.32387 -0.16031 0.35123
 C640 C 0.33728 -0.13271 0.32974
 C641 C 0.35677 -0.10921 0.34893
 C642 C 0.36288 -0.11312 0.38973
 C643 C 0.34923 -0.14052 0.41125
 C644 C 0.32976 -0.16399 0.39209
 C645 C 0.38460 -0.09058 0.40901
 C646 C 0.40382 -0.07292 0.42487
 H647 H 0.33287 -0.12954 0.29816
 H648 H 0.36738 -0.08832 0.33188
 H649 H 0.35395 -0.14402 0.44272
 H650 H 0.31951 -0.18518 0.40905
 C651 C 0.28262 0.30180 -0.19134
 C652 C 0.29993 0.32276 -0.17696
 C653 C 0.32046 0.34638 -0.15707
 C654 C 0.33964 0.36860 -0.17881
 C655 C 0.36053 0.39001 -0.15894
 C656 C 0.36232 0.38932 -0.11725
 C657 C 0.34285 0.36746 -0.09558
 C658 C 0.32200 0.34610 -0.11540
 C659 C 0.38523 0.40944 -0.09682
 C660 C 0.40512 0.42534 -0.07991
 H661 H 0.33877 0.36899 -0.21101
 H662 H 0.37559 0.40664 -0.17606
 H663 H 0.34412 0.36647 -0.06340
 H664 H 0.30739 0.32895 -0.09825
 C665 C 1.21761 -0.20027 0.21627
 C666 C 1.20570 -0.17916 0.19256
 C667 C 1.18836 -0.15500 0.16582
 C668 C 1.17921 -0.16767 0.12862
 C669 C 1.15760 -0.14674 0.10561
 C670 C 1.14499 -0.11312 0.11979
 C671 C 1.15506 -0.09982 0.15627
 C672 C 1.17668 -0.12074 0.17928
 C673 C 1.11995 -0.09375 0.09852
 C674 C 1.09833 -0.07820 0.08123
 H675 H 1.18771 -0.19436 0.11821
 H676 H 1.14983 -0.15736 0.07753
 H677 H 1.14533 -0.07394 0.16760
 H678 H 1.18321 -0.11093 0.20827
 C679 C 1.20132 0.28689 0.72015
 C680 C 1.18277 0.29971 0.69619
 C681 C 1.15855 0.31381 0.66961
 C682 C 1.16603 0.33242 0.63494
 C683 C 1.14203 0.34772 0.61072
 C684 C 1.11048 0.34437 0.62100
 C685 C 1.10305 0.32496 0.65512
 C686 C 1.12703 0.30964 0.67929
 C687 C 1.08620 0.36495 0.59952
 C688 C 1.06739 0.38531 0.58265
 H689 H 1.19029 0.33583 0.62716
 H690 H 1.14804 0.36317 0.58471
 H691 H 1.07879 0.32267 0.66372
 H692 H 1.12098 0.29528 0.70605
 C693 C 0.71482 -0.20208 0.71688
 C694 C 0.70112 -0.18039 0.69519
 C695 C 0.68322 -0.15533 0.66987
 C696 C 0.67136 -0.12168 0.68485
 C697 C 0.65103 -0.09906 0.66178
 C698 C 0.64248 -0.11000 0.62363
 C699 C 0.65503 -0.14319 0.60823
 C700 C 0.67535 -0.16580 0.63130
 C701 C 0.61878 -0.08883 0.60175
 C702 C 0.59787 -0.07220 0.58413
 H703 H 0.67707 -0.11343 0.71476
 H704 H 0.64126 -0.07361 0.67413
 H705 H 0.64837 -0.15208 0.57891
 H706 H 0.68415 -0.19190 0.61953
 C707 C 0.71903 0.30522 0.22295
 C708 C 0.70573 0.32592 0.19981
 C709 C 0.68778 0.34924 0.17266
 C710 C 0.67428 0.38286 0.18567
 C711 C 0.65342 0.40330 0.16108
 C712 C 0.64594 0.39020 0.12338
 C713 C 0.66017 0.35709 0.10991
 C714 C 0.68103 0.33666 0.13449
 C715 C 0.62177 0.40912 0.10005
 C716 C 0.60058 0.42423 0.08145
 H717 H 0.67903 0.39268 0.21528
 H718 H 0.64238 0.42872 0.17195
 H719 H 0.65439 0.34653 0.08096
 H720 H 0.69104 0.31052 0.12426
 C721 C 0.78601 0.20853 0.20750
 C722 C 0.80111 0.19184 0.18243
 C723 C 0.81891 0.16942 0.15436
 C724 C 0.84253 0.18372 0.13142
 C725 C 0.86177 0.16072 0.10725
 C726 C 0.85741 0.12342 0.10601
 C727 C 0.83322 0.10933 0.12810
 C728 C 0.81398 0.13231 0.15220
 C729 C 0.87971 0.09930 0.08537
 C730 C 0.89981 0.07975 0.06968
 H731 H 0.84665 0.21233 0.13309
 H732 H 0.88065 0.17179 0.09055
 H733 H 0.82988 0.08049 0.12768
 H734 H 0.79588 0.12098 0.17007
 C735 C 0.79579 0.72043 0.71502
 C736 C 0.81646 0.70967 0.69254
 C737 C 0.84082 0.69495 0.66624
 C738 C 0.83355 0.68576 0.62704
 C739 C 0.85619 0.66722 0.60302
 C740 C 0.88621 0.65783 0.61807
 C741 C 0.89380 0.66817 0.65680
 C742 C 0.87117 0.68670 0.68081
 C743 C 0.90767 0.63367 0.59587
 C744 C 0.92455 0.61125 0.57864
 H745 H 0.81009 0.69172 0.61555
 H746 H 0.84990 0.65896 0.57333
 H747 H 0.91679 0.66063 0.66895
 H748 H 0.87699 0.69340 0.71117
 C749 C 0.28631 0.21454 0.71490
 C750 C 0.30133 0.19882 0.68901
 C751 C 0.31884 0.17674 0.66027
 C752 C 0.34444 0.19000 0.64016
 C753 C 0.36341 0.16676 0.61588
 C754 C 0.35686 0.13022 0.61170
 C755 C 0.33074 0.11727 0.63090
 C756 C 0.31176 0.14049 0.65509
 C757 C 0.37868 0.10545 0.59099
 C758 C 0.39846 0.08544 0.57522
 H759 H 0.35029 0.21787 0.64422
 H760 H 0.38375 0.17695 0.60144
 H761 H 0.32565 0.08901 0.62823
 H762 H 0.29218 0.12988 0.67081
 C763 C 0.28466 0.70025 0.22262
 C764 C 0.30091 0.68239 0.19935
 C765 C 0.32009 0.66017 0.17210
 C766 C 0.33619 0.67613 0.14097
 C767 C 0.35560 0.65449 0.11548
 C768 C 0.35896 0.61674 0.12086
 C769 C 0.34250 0.60074 0.15163
 C770 C 0.32311 0.62237 0.17711
 C771 C 0.38116 0.59486 0.09695
 C772 C 0.40104 0.57710 0.07839
 H773 H 0.33409 0.70530 0.13676
 H774 H 0.36842 0.66725 0.09206
 H775 H 0.34512 0.57166 0.15639
 H776 H 0.31081 0.60967 0.20105
   
