data_POSCAR
  _audit_creation_date              2014-09-24
  _audit_creation_method            'ToBaCCo'
  _symmetry_space_group_name_H-M    'P1'
  _symmetry_Int_Tables_number       1
  _symmetry_cell_setting            triclinic
  loop_
  _symmetry_equiv_pos_as_xyz
 x,y,z
_cell_length_a 41.4045
_cell_length_b 42.2800
_cell_length_c 41.6139
_cell_angle_alpha 89.831100
_cell_angle_beta 90.005200
_cell_angle_gamma 90.029700
loop_
  _atom_site_label
  _atom_site_type_symbol
  _atom_site_fract_x
  _atom_site_fract_y
  _atom_site_fract_z
C1 C 0.19207 0.15527 0.19048
 C2 C 0.17627 0.14210 0.21713
 C3 C 0.15043 0.15797 0.23225
 C4 C 0.14061 0.18754 0.21970
 C5 C 0.15560 0.20048 0.19240
 C6 C 0.18170 0.18448 0.17798
 C7 C 0.21817 0.13953 0.17624
 C8 C 0.23472 0.15272 0.14971
 C9 C 0.22385 0.18196 0.13729
 C10 C 0.19717 0.19749 0.15080
 C11 C 0.18518 0.22543 0.13705
 C12 C 0.15836 0.24080 0.15050
 C13 C 0.14423 0.22872 0.17867
 H14 H 0.18520 0.11996 0.22683
 H15 H 0.12013 0.19983 0.22996
 H16 H 0.22639 0.11761 0.18699
 H17 H 0.23506 0.19208 0.11610
 H18 H 0.19637 0.23505 0.11558
 H19 H 0.12352 0.24059 0.18904
 C20 C -0.18733 0.85037 0.19117
 C21 C -0.17402 0.86412 0.21879
 C22 C -0.14573 0.85180 0.23307
 C23 C -0.13115 0.82501 0.21898
 C24 C -0.14484 0.81041 0.19197
 C25 C -0.17298 0.82321 0.17794
 C26 C -0.21488 0.86344 0.17667
 C27 C -0.22913 0.84928 0.14943
 C28 C -0.21482 0.82160 0.13691
 C29 C -0.18680 0.80879 0.15070
 C30 C -0.17231 0.78178 0.13758
 C31 C -0.14457 0.76867 0.15170
 C32 C -0.13097 0.78302 0.17892
 H33 H -0.18510 0.88536 0.22824
 H34 H -0.10996 0.81441 0.22985
 H35 H -0.22594 0.88396 0.18765
 H36 H -0.22448 0.81063 0.11547
 H37 H -0.18287 0.77057 0.11665
 H38 H -0.10942 0.77299 0.18967
 C39 C -0.19085 0.14999 -0.19145
 C40 C -0.17464 0.13558 -0.21716
 C41 C -0.14828 0.15069 -0.23184
 C42 C -0.13714 0.17969 -0.21988
 C43 C -0.15262 0.19404 -0.19378
 C44 C -0.18014 0.17958 -0.18007
 C45 C -0.21787 0.13552 -0.17731
 C46 C -0.23531 0.15067 -0.15255
 C47 C -0.22447 0.18052 -0.14180
 C48 C -0.19688 0.19472 -0.15496
 C49 C -0.18544 0.22364 -0.14302
 C50 C -0.15720 0.23727 -0.15555
 C51 C -0.14107 0.22259 -0.18113
 H52 H -0.18305 0.11310 -0.22646
 H53 H -0.11645 0.19103 -0.23101
 H54 H -0.22614 0.11312 -0.18686
 H55 H -0.23647 0.19223 -0.12200
 H56 H -0.19783 0.23510 -0.12326
 H57 H -0.11949 0.23341 -0.19102
 C58 C 0.19321 0.84365 -0.19394
 C59 C 0.18043 0.85743 -0.22184
 C60 C 0.15567 0.84231 -0.23933
 C61 C 0.14413 0.81277 -0.22837
 C62 C 0.15547 0.79961 -0.19952
 C63 C 0.18003 0.81515 -0.18216
 C64 C 0.21890 0.85800 -0.17753
 C65 C 0.23093 0.84466 -0.14900
 C66 C 0.21655 0.81722 -0.13640
 C67 C 0.19126 0.80231 -0.15286
 C68 C 0.17694 0.77481 -0.14050
 C69 C 0.15221 0.75952 -0.15750
 C70 C 0.14199 0.77161 -0.18725
 H71 H 0.19055 0.87952 -0.23049
 H72 H 0.12468 0.80097 -0.24099
 H73 H 0.22955 0.87961 -0.18682
 H74 H 0.22563 0.80708 -0.11420
 H75 H 0.18502 0.76517 -0.11770
 H76 H 0.12278 0.75978 -0.20023
 C77 C 0.15121 1.19582 0.80855
 C78 C 0.13809 1.18232 0.78064
 C79 C 0.15190 1.15504 0.76659
 C80 C 0.17957 1.14180 0.78132
 C81 C 0.19308 1.15522 0.80899
 C82 C 0.17891 1.18235 0.82262
 C83 C 0.13693 1.22257 0.82262
 C84 C 0.15052 1.23683 0.85019
 C85 C 0.17848 1.22308 0.86374
 C86 C 0.19237 1.19590 0.85048
 C87 C 0.21939 1.18183 0.86494
 C88 C 0.23349 1.15473 0.85156
 C89 C 0.22053 1.14177 0.82335
 H90 H 0.11620 1.19250 0.77085
 H91 H 0.19166 1.12168 0.77070
 H92 H 0.11604 1.23301 0.81108
 H93 H 0.18878 1.23253 0.88564
 H94 H 0.22961 1.19198 0.88658
 H95 H 0.23135 1.12072 0.81314
 C96 C 0.84690 0.80444 0.80021
 C97 C 0.86056 0.82002 0.77364
 C98 C 0.84693 0.84821 0.76135
 C99 C 0.81874 0.86011 0.77614
 C100 C 0.80441 0.84433 0.80216
 C101 C 0.81853 0.81640 0.81428
 C102 C 0.86155 0.77732 0.81317
 C103 C 0.84780 0.76118 0.83963
 C104 C 0.81878 0.77299 0.85281
 C105 C 0.80449 0.80066 0.84074
 C106 C 0.77677 0.81330 0.85526
 C107 C 0.76271 0.84120 0.84337
 C108 C 0.77636 0.85635 0.81656
 H109 H 0.88284 0.81087 0.76369
 H110 H 0.80700 0.88108 0.76676
 H111 H 0.88314 0.76825 0.80176
 H112 H 0.80812 0.76181 0.87374
 H113 H 0.76616 0.80159 0.87594
 H114 H 0.76567 0.87806 0.80760
 C115 C 0.15280 0.79866 1.19661
 C116 C 0.13977 0.81310 1.22407
 C117 C 0.15222 0.84198 1.23513
 C118 C 0.17851 0.85600 1.21925
 C119 C 0.19227 0.84151 1.19230
 C120 C 0.17912 0.81293 1.18066
 C121 C 0.13929 0.77073 1.18433
 C122 C 0.15093 0.75725 1.15551
 C123 C 0.17776 0.77151 1.14030
 C124 C 0.19212 0.79882 1.15287
 C125 C 0.21918 0.81241 1.13792
 C126 C 0.23261 0.84048 1.14983
 C127 C 0.21881 0.85524 1.17664
 H128 H 0.11927 0.80250 1.23623
 H129 H 0.18820 0.87821 1.22798
 H130 H 0.11833 0.76083 1.19625
 H131 H 0.18824 0.76091 1.11904
 H132 H 0.22966 0.80142 1.11685
 H133 H 0.22914 0.87709 1.18556
 C134 C 0.83957 1.20183 1.20249
 C135 C 0.85399 1.18709 1.22916
 C136 C 0.84309 1.15732 1.24027
 C137 C 0.81677 1.14303 1.22428
 C138 C 0.80162 1.15793 1.19822
 C139 C 0.81291 1.18750 1.18729
 C140 C 0.85223 1.23006 1.18997
 C141 C 0.83838 1.24431 1.16271
 C142 C 0.81067 1.23091 1.14877
 C143 C 0.79800 1.20238 1.16068
 C144 C 0.77153 1.18777 1.14566
 C145 C 0.76060 1.15809 1.15630
 C146 C 0.77567 1.14335 1.18253
 H147 H 0.87493 1.19813 1.23999
 H148 H 0.80707 1.12071 1.23273
 H149 H 0.87340 1.24062 1.20090
 H150 H 0.80005 1.24183 1.12767
 H151 H 0.76012 1.19886 1.12507
 H152 H 0.76715 1.12039 1.19060
 O153 O 0.54504 0.94224 0.94112
 O154 O 0.58042 0.97063 0.97220
 C155 C 0.57406 0.95018 0.94996
 O156 O 0.45316 1.05419 0.94532
 O157 O 0.41867 1.02394 0.97573
 C158 C 0.42443 1.04592 0.95474
 O159 O 0.54406 1.05270 0.94175
 O160 O 0.58016 1.02328 0.97120
 C161 C 0.57321 1.04427 0.94950
 O162 O 0.45389 0.93890 0.94527
 O163 O 0.41911 0.96858 0.97571
 C164 C 0.42507 0.94676 0.95478
 Zr165 Zr 0.49962 0.95684 0.95979
 O166 O 0.49531 0.95728 0.90910
 O167 O 0.50349 0.90690 0.95966
 Zr168 Zr 0.49901 1.03676 0.95979
 O169 O 0.49488 1.03592 0.90908
 O170 O 0.50191 1.08675 0.95907
 O171 O 0.52810 0.99705 0.95314
 O172 O 0.47113 0.99661 0.95441
 O173 O 0.45568 0.93770 1.05615
 O174 O 0.41990 0.96855 1.02807
 C175 C 0.42651 0.94610 1.04827
 O176 O 0.54577 1.05279 1.05796
 O177 O 0.58075 1.02377 1.02719
 C178 C 0.57469 1.04468 1.04909
 O179 O 0.45481 1.05478 1.05622
 O180 O 0.41955 1.02267 1.02897
 C181 C 0.42586 1.04526 1.04894
 O182 O 0.54660 0.94090 1.05763
 O183 O 0.58134 0.97129 1.02754
 C184 C 0.57535 0.94994 1.04916
 Zr185 Zr 0.50084 0.95664 1.04127
 O186 O 0.49813 0.95825 1.09206
 O187 O 0.50446 0.90675 1.04300
 Zr188 Zr 0.50024 1.03663 1.04125
 O189 O 0.49745 1.03500 1.09203
 O190 O 0.50334 1.08657 1.04252
 Zr191 Zr 0.54786 0.99708 0.99986
 Zr192 Zr 0.45216 0.99637 1.00129
 O193 O 0.47259 0.99638 1.04757
 O194 O 0.52950 0.99684 1.04711
 O195 O 0.47166 0.95032 1.00095
 O196 O 0.52752 1.04270 1.00008
 O197 O 0.52817 0.95116 1.00012
 O198 O 0.47091 1.04272 1.00094
 H199 H 0.45600 0.99656 0.93595
 H200 H 0.54188 1.06144 0.99980
 H201 H 0.45804 0.99611 1.06648
 H202 H 0.54277 0.93260 0.99987
 H203 H 0.48430 1.09490 0.97280
 H204 H 0.48703 1.09489 1.02734
 H205 H 0.51698 1.02397 1.09993
 H206 H 0.51791 0.96885 1.09991
 H207 H 0.48901 0.89827 1.02709
 H208 H 0.48535 0.89843 0.97255
 H209 H 0.51328 0.97021 0.90052
 H210 H 0.51394 1.02459 0.90058
 O211 O 0.05190 0.54312 -0.06078
 O212 O 0.02369 0.57814 -0.02960
 C213 C 0.04410 0.57165 -0.05224
 O214 O -0.06459 0.45593 -0.05673
 O215 O -0.03373 0.42095 -0.02779
 C216 C -0.05620 0.42740 -0.04848
 O217 O -0.06019 0.54510 -0.05978
 O218 O -0.02913 0.57911 -0.02990
 C219 C -0.05044 0.57327 -0.05190
 O220 O 0.05457 0.45431 -0.05642
 O221 O 0.02172 0.42005 -0.02866
 C222 C 0.04493 0.42607 -0.04867
 Zr223 Zr 0.03638 0.49895 -0.04209
 O224 O 0.03612 0.49499 -0.09279
 O225 O 0.08740 0.50217 -0.04239
 Zr226 Zr -0.04548 0.50019 -0.04193
 O227 O -0.04546 0.49675 -0.09267
 O228 O -0.09641 0.50450 -0.04180
 O229 O -0.00408 0.52763 -0.04845
 O230 O -0.00499 0.47218 -0.04790
 O231 O 0.05363 0.45398 0.05461
 O232 O 0.02278 0.41991 0.02465
 C233 C 0.04514 0.42576 0.04561
 O234 O -0.05903 0.54500 0.05779
 O235 O -0.02974 0.57893 0.02606
 C236 C -0.05031 0.57321 0.04878
 O237 O -0.06403 0.45599 0.05500
 O238 O -0.03302 0.42112 0.02631
 C239 C -0.05529 0.42751 0.04719
 O240 O 0.05136 0.54299 0.05819
 O241 O 0.02407 0.57813 0.02598
 C242 C 0.04400 0.57149 0.04905
 Zr243 Zr 0.03655 0.49886 0.03914
 O244 O 0.03794 0.49500 0.08983
 O245 O 0.08759 0.50201 0.03780
 Zr246 Zr -0.04525 0.50018 0.03926
 O247 O -0.04589 0.49651 0.09001
 O248 O -0.09617 0.50476 0.03838
 Zr249 Zr -0.00354 0.54644 -0.00161
 Zr250 Zr -0.00516 0.45259 -0.00136
 O251 O -0.00475 0.47212 0.04512
 O252 O -0.00385 0.52763 0.04539
 O253 O 0.04233 0.47064 -0.00143
 O254 O -0.05069 0.52782 -0.00140
 O255 O 0.04290 0.52630 -0.00155
 O256 O -0.05208 0.47199 -0.00123
 H257 H -0.00523 0.45782 -0.06667
 H258 H -0.06926 0.54260 -0.00137
 H259 H -0.00480 0.45788 0.06407
 H260 H 0.06194 0.54051 -0.00159
 H261 H -0.10509 0.48722 -0.02824
 H262 H -0.10496 0.48625 0.02682
 H263 H -0.03185 0.51345 0.09855
 H264 H 0.02274 0.51086 0.09850
 H265 H 0.09577 0.48282 0.02698
 H266 H 0.09572 0.48534 -0.02806
 H267 H 0.02277 0.51250 -0.10132
 H268 H -0.03252 0.51461 -0.10111
 O269 O 1.05795 -0.05666 0.45313
 O270 O 1.02966 -0.02456 0.41873
 C271 C 1.04960 -0.04749 0.42444
 O272 O 0.94599 -0.05235 0.54585
 O273 O 0.97713 -0.02303 0.58048
 C274 C 0.95477 -0.04368 0.57447
 O275 O 0.94617 -0.05400 0.45532
 O276 O 0.97648 -0.02502 0.41959
 C277 C 0.95498 -0.04627 0.42637
 O278 O 1.06224 -0.05466 0.54338
 O279 O 1.03332 -0.02477 0.57922
 C280 C 1.05445 -0.04638 0.57240
 Zr281 Zr 1.04475 -0.03791 0.49863
 O282 O 1.04637 -0.08783 0.50165
 O283 O 1.09569 -0.03625 0.49438
 Zr284 Zr 0.96287 -0.03692 0.50029
 O285 O 0.96203 -0.08690 0.50349
 O286 O 0.91180 -0.03572 0.49815
 O287 O 1.00314 -0.04365 0.47098
 O288 O 1.00422 -0.04326 0.52723
 O289 O 1.06358 0.05828 0.54338
 O290 O 1.03447 0.02825 0.57926
 C291 C 1.05592 0.04960 0.57235
 O292 O 0.94839 0.06122 0.45498
 O293 O 0.97580 0.02952 0.41960
 C294 C 0.95558 0.05196 0.42609
 O295 O 0.94743 0.05862 0.54558
 O296 O 0.97875 0.02956 0.58022
 C297 C 0.95652 0.05037 0.57431
 O298 O 1.05842 0.06127 0.45321
 O299 O 1.02979 0.02973 0.41854
 C300 C 1.04996 0.05243 0.42453
 Zr301 Zr 1.04590 0.04188 0.49859
 O302 O 1.05033 0.09160 0.50144
 O303 O 1.09670 0.03808 0.49410
 Zr304 Zr 0.96413 0.04313 0.50007
 O305 O 0.96472 0.09310 0.50346
 O306 O 0.91306 0.04343 0.49761
 Zr307 Zr 1.00343 0.00254 0.45182
 Zr308 Zr 1.00527 0.00244 0.54716
 O309 O 1.00559 0.04824 0.52710
 O310 O 1.00451 0.04874 0.47078
 O311 O 1.05215 0.00183 0.52736
 O312 O 0.95705 0.00319 0.47246
 O313 O 1.05066 0.00201 0.47046
 O314 O 0.95773 0.00317 0.52898
 H315 H 1.00403 -0.06199 0.54160
 H316 H 0.93785 0.00338 0.45825
 H317 H 1.00600 0.06698 0.54133
 H318 H 1.06904 0.00193 0.45521
 H319 H 0.90413 -0.02334 0.51678
 H320 H 0.90491 0.03103 0.51611
 H321 H 0.97683 0.10136 0.48474
 H322 H 1.03110 0.10061 0.49077
 H323 H 1.10514 0.02950 0.51459
 H324 H 1.10427 -0.02635 0.51413
 H325 H 1.02903 -0.09603 0.48762
 H326 H 0.97419 -0.09525 0.48490
 C327 C 1.10550 0.11679 0.31446
 C328 C 1.11672 0.09753 0.28912
 C329 C 1.13178 0.11125 0.26230
 C330 C 1.13477 0.14436 0.25926
 C331 C 1.12171 0.16339 0.28378
 C332 C 1.10763 0.14986 0.31107
 C333 C 1.09122 0.10104 0.34349
 C334 C 1.08315 0.11764 0.37172
 C335 C 1.07009 0.10175 0.39820
 C336 C 1.06424 0.06915 0.39690
 C337 C 1.07246 0.05237 0.36912
 C338 C 1.08659 0.06787 0.34281
 C339 C 1.11227 0.06469 0.29033
 C340 C 1.09686 0.05026 0.31627
 H341 H 1.12043 0.04993 0.27068
 H342 H 1.09360 0.02481 0.31588
 H343 H 1.13981 0.09594 0.24305
 H344 H 1.12367 0.18890 0.28285
 H345 H 1.06411 0.11505 0.41960
 H346 H 1.06874 0.02701 0.36839
 H347 H 1.09843 0.16570 0.32916
 H348 H 1.08723 0.14273 0.37400
 C349 C 0.89403 -0.10579 0.31698
 C350 C 0.91453 -0.11876 0.29326
 C351 C 0.90127 -0.13355 0.26610
 C352 C 0.86760 -0.13405 0.26092
 C353 C 0.84756 -0.11967 0.28402
 C354 C 0.86048 -0.10610 0.31171
 C355 C 0.90906 -0.09125 0.34616
 C356 C 0.89086 -0.08141 0.37297
 C357 C 0.90597 -0.06744 0.39935
 C358 C 0.93938 -0.06243 0.39930
 C359 C 0.95786 -0.07271 0.37313
 C360 C 0.94306 -0.08784 0.34701
 C361 C 0.94813 -0.11596 0.29626
 C362 C 0.96206 -0.10010 0.32215
 H363 H 0.96390 -0.12552 0.27792
 H364 H 0.98813 -0.09791 0.32300
 H365 H 0.91749 -0.14299 0.24809
 H366 H 0.82154 -0.11995 0.28157
 H367 H 0.89144 -0.05985 0.41955
 H368 H 0.98387 -0.06952 0.37348
 H369 H 0.84380 -0.09561 0.32848
 H370 H 0.86504 -0.08461 0.37418
 C371 C 0.89542 0.11064 0.68391
 C372 C 0.89708 0.09446 0.71374
 C373 C 0.88221 0.10733 0.74109
 C374 C 0.86692 0.13682 0.73944
 C375 C 0.86635 0.15340 0.71029
 C376 C 0.88021 0.14044 0.68275
 C377 C 0.91063 0.09564 0.65506
 C378 C 0.90741 0.10808 0.62377
 C379 C 0.92212 0.09325 0.59766
 C380 C 0.94078 0.06590 0.60206
 C381 C 0.94409 0.05333 0.63317
 C382 C 0.92847 0.06742 0.65942
 C383 C 0.91414 0.06596 0.71620
 C384 C 0.93008 0.05308 0.68977
 H385 H 0.91569 0.05370 0.73906
 H386 H 0.94339 0.03124 0.69304
 H387 H 0.88312 0.09481 0.76385
 H388 H 0.85481 0.17635 0.70880
 H389 H 0.91905 0.10345 0.57395
 H390 H 0.95843 0.03222 0.63697
 H391 H 0.87913 0.15430 0.66099
 H392 H 0.89327 0.12895 0.61885
 C393 C 1.11354 -0.11349 0.67897
 C394 C 1.12140 -0.09559 0.70650
 C395 C 1.13682 -0.11010 0.73270
 C396 C 1.14200 -0.14304 0.73332
 C397 C 1.13201 -0.16099 0.70666
 C398 C 1.11860 -0.14640 0.67964
 C399 C 1.09882 -0.09675 0.65082
 C400 C 1.09522 -0.11104 0.62051
 C401 C 1.08129 -0.09441 0.59501
 C402 C 1.06997 -0.06344 0.59930
 C403 C 1.07349 -0.04903 0.62940
 C404 C 1.08894 -0.06497 0.65471
 C405 C 1.11246 -0.06368 0.70833
 C406 C 1.09543 -0.04907 0.68347
 H407 H 1.11775 -0.05008 0.72973
 H408 H 1.08795 -0.02471 0.68650
 H409 H 1.14268 -0.09595 0.75359
 H410 H 1.13569 -0.18634 0.70605
 H411 H 1.07889 -0.10604 0.57198
 H412 H 1.06486 -0.02513 0.63293
 H413 H 1.11166 -0.16133 0.65980
 H414 H 1.10359 -0.13477 0.61591
 C415 C 0.31487 1.10459 1.10824
 C416 C 0.31421 1.13799 1.10909
 C417 C 0.28734 1.15379 1.12202
 C418 C 0.26143 1.13682 1.13583
 C419 C 0.26308 1.10354 1.13591
 C420 C 0.28914 1.08771 1.12218
 C421 C 0.34334 1.08862 1.09316
 C422 C 0.34448 1.05576 1.08781
 C423 C 0.37142 1.04197 1.07354
 C424 C 0.39809 1.06042 1.06466
 C425 C 0.39731 1.09316 1.06969
 C426 C 0.36980 1.10747 1.08313
 C427 C 0.34074 1.15541 1.09783
 C428 C 0.36821 1.14045 1.08577
 H429 H 0.34049 1.18102 1.09884
 H430 H 0.38827 1.15497 1.07780
 H431 H 0.28762 1.17940 1.12283
 H432 H 0.24354 1.08930 1.14541
 H433 H 0.37154 1.01666 1.06964
 H434 H 0.41762 1.10757 1.06213
 H435 H 0.28875 1.06222 1.12303
 H436 H 0.32464 1.04033 1.09392
 C437 C 0.31262 0.88635 0.89886
 C438 C 0.31443 0.87823 0.86593
 C439 C 0.28747 0.86517 0.85038
 C440 C 0.25890 0.85913 0.86740
 C441 C 0.25742 0.86623 0.90021
 C442 C 0.28384 0.87983 0.91578
 C443 C 0.34156 0.90128 0.91427
 C444 C 0.34129 0.91267 0.94605
 C445 C 0.36858 0.92708 0.95907
 C446 C 0.39699 0.93018 0.94098
 C447 C 0.39773 0.91865 0.90945
 C448 C 0.37009 0.90483 0.89579
 C449 C 0.34321 0.88277 0.84884
 C450 C 0.37058 0.89535 0.86357
 H451 H 0.34470 0.87626 0.82371
 H452 H 0.39232 0.89823 0.84935
 H453 H 0.28887 0.85906 0.82512
 H454 H 0.23558 0.86152 0.91375
 H455 H 0.36746 0.93584 0.98349
 H456 H 0.41946 0.92146 0.89518
 H457 H 0.28128 0.88476 0.94105
 H458 H 0.32014 0.91122 0.96109
 C459 C 0.68645 0.88897 1.10676
 C460 C 0.71025 0.90878 1.12042
 C461 C 0.73765 0.89552 1.13510
 C462 C 0.74289 0.86254 1.13505
 C463 C 0.71969 0.84321 1.11997
 C464 C 0.69184 0.85613 1.10636
 C465 C 0.65697 0.90398 1.09244
 C466 C 0.63014 0.88632 1.08181
 C467 C 0.60340 0.90144 1.06830
 C468 C 0.60304 0.93435 1.06459
 C469 C 0.62923 0.95223 1.07561
 C470 C 0.65580 0.93738 1.09018
 C471 C 0.70705 0.94174 1.11855
 C472 C 0.68079 0.95573 1.10307
 H473 H 0.72547 0.95699 1.12865
 H474 H 0.67974 0.98132 1.10169
 H475 H 0.75574 0.91126 1.14499
 H476 H 0.72215 0.81773 1.11978
 H477 H 0.58316 0.88733 1.06014
 H478 H 0.62848 0.97776 1.07359
 H479 H 0.67498 0.83999 1.09536
 H480 H 0.62918 0.86092 1.08405
 C481 C 0.68133 1.10793 0.88915
 C482 C 0.70754 1.08905 0.87896
 C483 C 0.73456 1.10316 0.86433
 C484 C 0.73696 1.13633 0.86123
 C485 C 0.71121 1.15490 0.87273
 C486 C 0.68379 1.14099 0.88615
 C487 C 0.65256 1.09195 0.90376
 C488 C 0.62379 1.10819 0.91110
 C489 C 0.59788 1.09240 0.92535
 C490 C 0.60019 1.06023 0.93309
 C491 C 0.62839 1.04359 0.92526
 C492 C 0.65422 1.05904 0.90994
 C493 C 0.70710 1.05631 0.88441
 C494 C 0.68135 1.04174 0.90026
 H495 H 0.72732 1.04180 0.87697
 H496 H 0.68249 1.01647 0.90455
 H497 H 0.75453 1.08821 0.85715
 H498 H 0.71143 1.18039 0.87029
 H499 H 0.57617 1.10557 0.93099
 H500 H 0.62992 1.01849 0.93053
 H501 H 0.66497 1.15661 0.89441
 H502 H 0.62068 1.13298 0.90574
 C503 C 0.11227 0.31893 0.10243
 C504 C 0.12174 0.32169 0.13501
 C505 C 0.13685 0.29618 0.15064
 C506 C 0.14369 0.26824 0.13393
 C507 C 0.13559 0.26606 0.10132
 C508 C 0.11998 0.29099 0.08573
 C509 C 0.09473 0.34604 0.08708
 C510 C 0.08141 0.34440 0.05595
 C511 C 0.06513 0.37024 0.04276
 C512 C 0.06206 0.39848 0.06004
 C513 C 0.07499 0.40035 0.09113
 C514 C 0.09068 0.37420 0.10497
 C515 C 0.11633 0.34995 0.15165
 C516 C 0.10167 0.37583 0.13677
 H517 H 0.12387 0.35222 0.17648
 H518 H 0.09836 0.39728 0.15058
 H519 H 0.14359 0.29810 0.17575
 H520 H 0.14072 0.24466 0.08802
 H521 H 0.05525 0.36823 0.01873
 H522 H 0.07215 0.42193 0.10485
 H523 H 0.11429 0.28790 0.06065
 H524 H 0.08291 0.32330 0.04154
 C525 C -0.11778 0.32047 -0.11107
 C526 C -0.09991 0.29191 -0.11192
 C527 C -0.11266 0.26522 -0.12733
 C528 C -0.14363 0.26604 -0.14082
 C529 C -0.16183 0.29387 -0.13907
 C530 C -0.14901 0.32092 -0.12464
 C531 C -0.10285 0.34868 -0.09509
 C532 C -0.11711 0.37896 -0.09544
 C533 C -0.10203 0.40451 -0.08032
 C534 C -0.07262 0.40041 -0.06410
 C535 C -0.05833 0.37032 -0.06357
 C536 C -0.07275 0.34476 -0.07945
 C537 C -0.06981 0.28990 -0.09674
 C538 C -0.05683 0.31556 -0.08029
 H539 H -0.05630 0.26795 -0.09710
 H540 H -0.03371 0.31264 -0.06844
 H541 H -0.09889 0.24341 -0.12806
 H542 H -0.18596 0.29469 -0.14911
 H543 H -0.11351 0.42750 -0.08122
 H544 H -0.03549 0.36685 -0.05135
 H545 H -0.16407 0.34171 -0.12389
 H546 H -0.13962 0.38353 -0.10765
 C547 C 0.10606 0.67772 -0.11647
 C548 C 0.10592 0.70699 -0.10000
 C549 C 0.12144 0.73341 -0.11341
 C550 C 0.13630 0.73144 -0.14356
 C551 C 0.13552 0.70287 -0.16042
 C552 C 0.12078 0.67620 -0.14700
 C553 C 0.09016 0.64980 -0.10076
 C554 C 0.09114 0.61910 -0.11383
 C555 C 0.07622 0.59381 -0.09808
 C556 C 0.05969 0.59849 -0.06906
 C557 C 0.05853 0.62899 -0.05589
 C558 C 0.07402 0.65443 -0.07116
 C559 C 0.08996 0.70985 -0.07049
 C560 C 0.07393 0.68426 -0.05662
 H561 H 0.08957 0.73234 -0.05807
 H562 H 0.06166 0.68775 -0.03390
 H563 H 0.12151 0.75576 -0.10068
 H564 H 0.14673 0.70111 -0.18386
 H565 H 0.07754 0.57052 -0.10877
 H566 H 0.04606 0.63291 -0.03336
 H567 H 0.12097 0.65479 -0.16101
 H568 H 0.10362 0.61400 -0.13596
 C569 C -0.10407 0.68379 0.11147
 C570 C -0.10854 0.71106 0.09210
 C571 C -0.12195 0.73856 0.10536
 C572 C -0.12999 0.73978 0.13804
 C573 C -0.12435 0.71329 0.15752
 C574 C -0.11171 0.68553 0.14444
 C575 C -0.09085 0.65450 0.09604
 C576 C -0.08830 0.62527 0.11229
 C577 C -0.07562 0.59872 0.09681
 C578 C -0.06483 0.60079 0.06497
 C579 C -0.06773 0.62962 0.04844
 C580 C -0.08112 0.65620 0.06347
 C581 C -0.09921 0.71087 0.05976
 C582 C -0.08526 0.68421 0.04591
 H583 H -0.10235 0.73182 0.04502
 H584 H -0.07805 0.68540 0.02090
 H585 H -0.12572 0.75928 0.09039
 H586 H -0.13028 0.71391 0.18286
 H587 H -0.07375 0.57666 0.10997
 H588 H -0.06006 0.63124 0.02356
 H589 H -0.10791 0.66585 0.16054
 H590 H -0.09619 0.62235 0.13682
 C591 C 1.11191 0.11363 0.68190
 C592 C 1.12790 0.09465 0.70494
 C593 C 1.14124 0.10846 0.73258
 C594 C 1.13838 0.14121 0.73851
 C595 C 1.12156 0.15968 0.71573
 C596 C 1.10872 0.14621 0.68791
 C597 C 1.09837 0.09796 0.65251
 C598 C 1.08414 0.11497 0.62696
 C599 C 1.07115 0.09912 0.60053
 C600 C 1.07164 0.06606 0.59918
 C601 C 1.08649 0.04892 0.62388
 C602 C 1.10029 0.06460 0.65022
 C603 C 1.12999 0.06185 0.70064
 C604 C 1.11618 0.04713 0.67406
 H605 H 1.14216 0.04724 0.71833
 H606 H 1.11828 0.02169 0.67197
 H607 H 1.15246 0.09309 0.75019
 H608 H 1.11930 0.18502 0.71845
 H609 H 1.05995 0.11269 0.58142
 H610 H 1.08774 0.02342 0.62226
 H611 H 1.09628 0.16177 0.67148
 H612 H 1.08286 0.14044 0.62687
 C613 C 0.89112 -0.10299 0.68299
 C614 C 0.89190 -0.13639 0.68457
 C615 C 0.87785 -0.15231 0.71075
 C616 C 0.86138 -0.13564 0.73507
 C617 C 0.85956 -0.10244 0.73241
 C618 C 0.87437 -0.08639 0.70703
 C619 C 0.90753 -0.08684 0.65534
 C620 C 0.91126 -0.05373 0.65343
 C621 C 0.92677 -0.03987 0.62715
 C622 C 0.93846 -0.05853 0.60202
 C623 C 0.93510 -0.09146 0.60363
 C624 C 0.92045 -0.10577 0.63043
 C625 C 0.90602 -0.15376 0.65962
 C626 C 0.91937 -0.13880 0.63282
 H627 H 0.90630 -0.17938 0.66056
 H628 H 0.92956 -0.15332 0.61395
 H629 H 0.87840 -0.17793 0.71111
 H630 H 0.84789 -0.08837 0.75072
 H631 H 0.92914 -0.01443 0.62614
 H632 H 0.94475 -0.10594 0.58443
 H633 H 0.87222 -0.06097 0.70660
 H634 H 0.90281 -0.03818 0.67212
 C635 C 1.10722 -0.10928 0.31391
 C636 C 1.11955 -0.14022 0.31834
 C637 C 1.13362 -0.15637 0.29238
 C638 C 1.13682 -0.14154 0.26237
 C639 C 1.12566 -0.11054 0.25835
 C640 C 1.11089 -0.09460 0.28367
 C641 C 1.09157 -0.09316 0.34188
 C642 C 1.07577 -0.06382 0.33903
 C643 C 1.06197 -0.04946 0.36580
 C644 C 1.06382 -0.06367 0.39627
 C645 C 1.07886 -0.09329 0.39928
 C646 C 1.09218 -0.10835 0.37223
 C647 C 1.11839 -0.15448 0.34876
 C648 C 1.10558 -0.13865 0.37525
 H649 H 1.12809 -0.17805 0.35228
 H650 H 1.10578 -0.15049 0.39838
 H651 H 1.14284 -0.18017 0.29565
 H652 H 1.12815 -0.09870 0.23535
 H653 H 1.04996 -0.02695 0.36255
 H654 H 1.07975 -0.10488 0.42253
 H655 H 1.10298 -0.07071 0.27917
 H656 H 1.07343 -0.05169 0.31632
 C657 C 0.89006 0.11023 0.31802
 C658 C 0.88742 0.14356 0.31781
 C659 C 0.87257 0.15907 0.29177
 C660 C 0.85855 0.14180 0.26635
 C661 C 0.86015 0.10852 0.26768
 C662 C 0.87580 0.09304 0.29286
 C663 C 0.90722 0.09463 0.34550
 C664 C 0.91453 0.06209 0.34591
 C665 C 0.93045 0.04859 0.37207
 C666 C 0.93905 0.06699 0.39867
 C667 C 0.93228 0.09947 0.39848
 C668 C 0.91719 0.11354 0.37173
 C669 C 0.89885 0.16112 0.34398
 C670 C 0.91273 0.14637 0.37068
 H671 H 0.89649 0.18665 0.34410
 H672 H 0.92068 0.16097 0.39054
 H673 H 0.87051 0.18461 0.29234
 H674 H 0.85056 0.09408 0.24849
 H675 H 0.93568 0.02348 0.37168
 H676 H 0.93960 0.11390 0.41872
 H677 H 0.87620 0.06755 0.29225
 H678 H 0.90863 0.04674 0.32611
 C679 C 0.10876 0.31880 -0.10719
 C680 C 0.08891 0.29576 -0.12185
 C681 C 0.10284 0.26927 -0.13676
 C682 C 0.13651 0.26419 -0.13591
 C683 C 0.15586 0.28684 -0.12021
 C684 C 0.14231 0.31374 -0.10636
 C685 C 0.09307 0.34716 -0.09233
 C686 C 0.11080 0.37307 -0.08036
 C687 C 0.09502 0.39883 -0.06652
 C688 C 0.06134 0.39909 -0.06375
 C689 C 0.04338 0.37373 -0.07595
 C690 C 0.05892 0.34819 -0.09089
 C691 C 0.05522 0.29881 -0.12072
 C692 C 0.04055 0.32411 -0.10500
 H693 H 0.03991 0.28103 -0.13164
 H694 H 0.01441 0.32513 -0.10438
 H695 H 0.08705 0.25170 -0.14732
 H696 H 0.18189 0.28461 -0.11957
 H697 H 0.10919 0.41843 -0.05749
 H698 H 0.01726 0.37438 -0.07465
 H699 H 0.15856 0.33008 -0.09478
 H700 H 0.13678 0.37412 -0.08184
 C701 C -0.11381 0.32162 0.11465
 C702 C -0.14670 0.32439 0.12354
 C703 C -0.16239 0.29910 0.13915
 C704 C -0.14534 0.27150 0.14711
 C705 C -0.11247 0.26939 0.13945
 C706 C -0.09688 0.29400 0.12337
 C707 C -0.09830 0.34845 0.09677
 C708 C -0.06684 0.34660 0.08406
 C709 C -0.05333 0.37219 0.06769
 C710 C -0.07061 0.40047 0.06383
 C711 C -0.10214 0.40252 0.07604
 C712 C -0.11631 0.37651 0.09186
 C713 C -0.16351 0.35248 0.11718
 C714 C -0.14847 0.37818 0.10224
 H715 H -0.18859 0.35479 0.12426
 H716 H -0.16241 0.39953 0.09827
 H717 H -0.18771 0.30100 0.14550
 H718 H -0.09890 0.24827 0.14541
 H719 H -0.02898 0.36999 0.05845
 H720 H -0.11585 0.42411 0.07265
 H721 H -0.07156 0.29095 0.11819
 H722 H -0.05233 0.32553 0.08615
 C723 C -0.10596 0.68153 -0.11740
 C724 C -0.14001 0.68301 -0.11918
 C725 C -0.15515 0.70950 -0.13299
 C726 C -0.13691 0.73421 -0.14686
 C727 C -0.10298 0.73143 -0.14671
 C728 C -0.08776 0.70576 -0.13194
 C729 C -0.09079 0.65382 -0.10068
 C730 C -0.05754 0.65235 -0.09353
 C731 C -0.04464 0.62617 -0.07756
 C732 C -0.06438 0.60059 -0.06896
 C733 C -0.09750 0.60180 -0.07574
 C734 C -0.11096 0.62860 -0.09065
 C735 C -0.15874 0.65772 -0.10782
 C736 C -0.14448 0.63075 -0.09462
 H737 H -0.18484 0.65855 -0.10963
 H738 H -0.16001 0.61164 -0.08663
 H739 H -0.18129 0.71001 -0.13420
 H740 H -0.08778 0.74991 -0.15655
 H741 H -0.01903 0.62576 -0.07217
 H742 H -0.11294 0.58239 -0.06830
 H743 H -0.06171 0.70524 -0.13234
 H744 H -0.04126 0.67143 -0.09945
 C745 C 0.10485 0.67707 0.11378
 C746 C 0.11814 0.70107 0.09411
 C747 C 0.13408 0.72692 0.10805
 C748 C 0.13565 0.73050 0.14172
 C749 C 0.12089 0.70721 0.16105
 C750 C 0.10608 0.68078 0.14737
 C751 C 0.08923 0.64920 0.09789
 C752 C 0.07890 0.62222 0.11504
 C753 C 0.06452 0.59685 0.09905
 C754 C 0.05953 0.59807 0.06579
 C755 C 0.06998 0.62460 0.04842
 C756 C 0.08551 0.64972 0.06407
 C757 C 0.11466 0.69963 0.06064
 C758 C 0.09803 0.67488 0.04600
 H759 H 0.12444 0.71824 0.04554
 H760 H 0.09554 0.67512 0.02007
 H761 H 0.14362 0.74521 0.09240
 H762 H 0.12181 0.70854 0.18700
 H763 H 0.05684 0.57637 0.11278
 H764 H 0.06691 0.62520 0.02256
 H765 H 0.09542 0.66371 0.16350
 H766 H 0.08218 0.62004 0.14067
 C767 C 0.31365 1.10943 0.89873
 C768 C 0.31602 1.11854 0.86603
 C769 C 0.28964 1.13295 0.85062
 C770 C 0.26122 1.13945 0.86766
 C771 C 0.25929 1.13143 0.90028
 C772 C 0.28506 1.11647 0.91565
 C773 C 0.34190 1.09307 0.91398
 C774 C 0.34088 1.08052 0.94537
 C775 C 0.36772 1.06525 0.95842
 C776 C 0.39637 1.06242 0.94071
 C777 C 0.39769 1.07477 0.90943
 C778 C 0.37053 1.08947 0.89574
 C779 C 0.34480 1.11364 0.84909
 C780 C 0.37165 1.09991 0.86378
 H781 H 0.34674 1.12088 0.82415
 H782 H 0.39347 1.09694 0.84972
 H783 H 0.29136 1.13969 0.82551
 H784 H 0.23754 1.13639 0.91381
 H785 H 0.36614 1.05582 0.98261
 H786 H 0.41960 1.07213 0.89540
 H787 H 0.28217 1.11089 0.94078
 H788 H 0.31952 1.08181 0.96011
 C789 C 0.31693 0.88166 1.10641
 C790 C 0.28665 0.89717 1.10439
 C791 C 0.25926 0.88368 1.11884
 C792 C 0.26133 0.85437 1.13438
 C793 C 0.29089 0.83840 1.13537
 C794 C 0.31849 0.85191 1.12175
 C795 C 0.34584 0.89751 1.09176
 C796 C 0.37747 0.88547 1.09471
 C797 C 0.40362 0.90128 1.08075
 C798 C 0.39892 0.92931 1.06326
 C799 C 0.36749 0.94147 1.06027
 C800 C 0.34118 0.92617 1.07476
 C801 C 0.28382 0.92583 1.08769
 C802 C 0.31039 0.93976 1.07276
 H803 H 0.26060 0.93752 1.08584
 H804 H 0.30688 0.96181 1.05988
 H805 H 0.23617 0.89575 1.11770
 H806 H 0.29269 0.81560 1.14719
 H807 H 0.42759 0.89138 1.08354
 H808 H 0.36345 0.96320 1.04700
 H809 H 0.34066 0.83863 1.12332
 H810 H 0.38261 0.86413 1.10800
 C811 C 0.68385 1.10823 1.10862
 C812 C 0.67784 1.13785 1.12329
 C813 C 0.70323 1.15459 1.13791
 C814 C 0.73429 1.14157 1.13929
 C815 C 0.74005 1.11191 1.12557
 C816 C 0.71526 1.09548 1.11021
 C817 C 0.65627 1.09137 1.09279
 C818 C 0.66029 1.06331 1.07507
 C819 C 0.63385 1.04842 1.06085
 C820 C 0.60257 1.06071 1.06435
 C821 C 0.59837 1.08892 1.08160
 C822 C 0.62496 1.10458 1.09526
 C823 C 0.64644 1.15015 1.12400
 C824 C 0.62049 1.13361 1.11080
 H825 H 0.64175 1.17267 1.13546
 H826 H 0.59659 1.14392 1.11243
 H827 H 0.69868 1.17728 1.14912
 H828 H 0.76391 1.10146 1.12673
 H829 H 0.63800 1.02716 1.04703
 H830 H 0.57446 1.09913 1.08380
 H831 H 0.72109 1.07266 1.10030
 H832 H 0.68369 1.05271 1.07143
 C833 C 0.68300 0.88586 0.89165
 C834 C 0.68065 0.87823 0.85863
 C835 C 0.70675 0.86369 0.84291
 C836 C 0.73477 0.85553 0.85997
 C837 C 0.73644 0.86175 0.89295
 C838 C 0.71100 0.87684 0.90864
 C839 C 0.65534 0.90281 0.90718
 C840 C 0.65680 0.91445 0.93881
 C841 C 0.63047 0.93008 0.95227
 C842 C 0.60183 0.93423 0.93476
 C843 C 0.60015 0.92306 0.90310
 C844 C 0.62691 0.90802 0.88898
 C845 C 0.65219 0.88481 0.84167
 C846 C 0.62567 0.89881 0.85669
 H847 H 0.65021 0.87867 0.81648
 H848 H 0.60406 0.90302 0.84262
 H849 H 0.70519 0.85836 0.81748
 H850 H 0.75786 0.85550 0.90651
 H851 H 0.63237 0.93854 0.97675
 H852 H 0.57829 0.92671 0.88923
 H853 H 0.71369 0.88103 0.93405
 H854 H 0.67814 0.91209 0.95347
   
