data_POSCAR
  _audit_creation_date              2014-09-24
  _audit_creation_method            'ToBaCCo'
  _symmetry_space_group_name_H-M    'P1'
  _symmetry_Int_Tables_number       1
  _symmetry_cell_setting            triclinic
  loop_
  _symmetry_equiv_pos_as_xyz
 x,y,z
_cell_length_a 55.6282
_cell_length_b 28.9844
_cell_length_c 22.2508
_cell_angle_alpha 90.054800
_cell_angle_beta 89.920100
_cell_angle_gamma 90.037800
loop_
  _atom_site_label
  _atom_site_type_symbol
  _atom_site_fract_x
  _atom_site_fract_y
  _atom_site_fract_z
O1 O 0.77861 0.26316 0.44242
 O2 O 0.73601 0.30104 0.55921
 O3 O 0.77857 0.26318 0.55893
 O4 O 0.73608 0.30108 0.44225
 O5 O 0.71936 0.23207 0.44219
 O6 O 0.76186 0.19416 0.55887
 O7 O 0.71931 0.23209 0.55915
 O8 O 0.76189 0.19414 0.44235
 Cu9 Cu 0.75895 0.28906 0.50072
 Cu10 Cu 0.73889 0.20624 0.50065
 C11 C 0.77771 0.22201 0.42282
 C12 C 0.72024 0.27317 0.57911
 C13 C 0.77767 0.22203 0.57841
 C14 C 0.72038 0.27312 0.42237
 O15 O 0.23592 0.80038 0.55897
 O16 O 0.27845 0.76188 0.44230
 O17 O 0.23604 0.80020 0.44201
 O18 O 0.27840 0.76218 0.55883
 O19 O 0.26154 0.69330 0.55899
 O20 O 0.21915 0.73134 0.44217
 O21 O 0.26157 0.69300 0.44245
 O22 O 0.21907 0.73157 0.55913
 Cu23 Cu 0.25886 0.78808 0.50053
 Cu24 Cu 0.23860 0.70544 0.50072
 C25 C 0.22009 0.77268 0.57895
 C26 C 0.27745 0.72070 0.42280
 C27 C 0.22028 0.77234 0.42221
 C28 C 0.27740 0.72108 0.57846
 O29 O 0.21890 0.26861 -0.44194
 O30 O 0.26136 0.30667 -0.55891
 O31 O 0.21888 0.26844 -0.55889
 O32 O 0.26140 0.30681 -0.44235
 O33 O 0.27818 0.23789 -0.44237
 O34 O 0.23565 0.19960 -0.55890
 O35 O 0.27815 0.23776 -0.55892
 O36 O 0.23567 0.19977 -0.44196
 Cu37 Cu 0.23842 0.29449 -0.50052
 Cu38 Cu 0.25856 0.21184 -0.50054
 C39 C 0.21989 0.22757 -0.42199
 C40 C 0.27719 0.27887 -0.57852
 C41 C 0.21986 0.22734 -0.57879
 C42 C 0.27723 0.27906 -0.42283
 O43 O -0.23800 0.80623 -0.55737
 O44 O -0.28068 0.76786 -0.44101
 O45 O -0.23815 0.80596 -0.44084
 O46 O -0.28052 0.76816 -0.55796
 O47 O -0.26378 0.69921 -0.55822
 O48 O -0.22141 0.73700 -0.44111
 O49 O -0.26396 0.69898 -0.44127
 O50 O -0.22126 0.73727 -0.55762
 Cu51 Cu -0.26105 0.79392 -0.49925
 Cu52 Cu -0.24096 0.71118 -0.49957
 C53 C -0.22216 0.77846 -0.57699
 C54 C -0.27976 0.72674 -0.42130
 C55 C -0.22234 0.77811 -0.42139
 C56 C -0.27947 0.72715 -0.57800
 O57 O -0.03290 0.92098 0.11067
 O58 O -0.05937 0.96201 0.05285
 C59 C -0.05454 0.93297 0.09542
 O60 O 0.03447 1.08410 0.10501
 O61 O 0.06089 1.04033 0.05015
 C62 C 0.05611 1.07187 0.08979
 O63 O -0.03290 1.07992 0.11100
 O64 O -0.05937 1.03892 0.05292
 C65 C -0.05454 1.06793 0.09560
 O66 O 0.03441 0.91643 0.10384
 O67 O 0.06089 0.96085 0.04995
 C68 C 0.05607 0.92894 0.08900
 Zr69 Zr 0.00069 0.94201 0.07486
 O70 O 0.00306 0.93828 0.16964
 O71 O -0.00053 0.86938 0.06701
 Zr72 Zr 0.00071 1.05883 0.07548
 O73 O 0.00336 1.06044 0.17035
 O74 O -0.00203 1.13168 0.07302
 O75 O -0.02067 1.00039 0.08717
 O76 O 0.02147 1.00039 0.08640
 O77 O 0.03447 0.91651 -0.10499
 O78 O 0.06091 0.96092 -0.05102
 C79 C 0.05612 0.92903 -0.09018
 O80 O -0.03289 1.08010 -0.11109
 O81 O -0.05937 1.03900 -0.05308
 C82 C -0.05454 1.06808 -0.09565
 O83 O 0.03437 1.08456 -0.10546
 O84 O 0.06076 1.04053 -0.05123
 C85 C 0.05600 1.07224 -0.09052
 O86 O -0.03290 0.92076 -0.11113
 O87 O -0.05937 0.96202 -0.05324
 C88 C -0.05454 0.93283 -0.09574
 Zr89 Zr 0.00070 0.94225 -0.07611
 O90 O 0.00342 0.94125 -0.17101
 O91 O -0.00165 0.86937 -0.07427
 Zr92 Zr 0.00070 1.05901 -0.07576
 O93 O 0.00339 1.06083 -0.17062
 O94 O -0.00208 1.13185 -0.07273
 Zr95 Zr -0.03530 1.00051 -0.00024
 Zr96 Zr 0.03652 1.00060 -0.00038
 O97 O 0.02151 1.00065 -0.08715
 O98 O -0.02069 1.00061 -0.08780
 O99 O 0.02228 0.93326 -0.00064
 O100 O -0.02038 1.06726 -0.00005
 O101 O -0.02046 0.93377 -0.00052
 O102 O 0.02229 1.06799 -0.00016
 H103 H 0.03215 1.00026 0.12199
 H104 H -0.03139 1.09412 0.00004
 H105 H 0.03225 1.00061 -0.12273
 H106 H -0.03146 0.90686 -0.00051
 H107 H 0.01240 1.14364 0.05218
 H108 H 0.01229 1.14377 -0.05164
 H109 H -0.00884 1.03941 -0.18676
 H110 H -0.00941 0.96139 -0.18697
 H111 H 0.01089 0.85813 -0.04639
 H112 H -0.00047 0.85728 0.10864
 H113 H -0.00804 0.96172 0.18612
 H114 H -0.00911 1.03948 0.18647
 O115 O 0.46655 0.42069 0.10962
 O116 O 0.44016 0.46186 0.05153
 C117 C 0.44491 0.43274 0.09410
 O118 O 0.53419 0.58359 0.10427
 O119 O 0.56061 0.53966 0.04953
 C120 C 0.55583 0.57130 0.08903
 O121 O 0.46653 0.57882 0.10995
 O122 O 0.44017 0.53749 0.05178
 C123 C 0.44491 0.56664 0.09442
 O124 O 0.53416 0.41606 0.10408
 O125 O 0.56058 0.46002 0.04949
 C126 C 0.55580 0.42838 0.08893
 Zr127 Zr 0.50041 0.44137 0.07473
 O128 O 0.50301 0.43940 0.16958
 O129 O 0.49762 0.36852 0.07222
 Zr130 Zr 0.50039 0.55828 0.07502
 O131 O 0.50300 0.56015 0.16987
 O132 O 0.49759 0.63111 0.07265
 O133 O 0.47910 0.49977 0.08690
 O134 O 0.52118 0.49984 0.08601
 O135 O 0.53423 0.41600 -0.10589
 O136 O 0.56062 0.46003 -0.05128
 C137 C 0.55586 0.42834 -0.09072
 O138 O 0.46699 0.57938 -0.11204
 O139 O 0.44068 0.53833 -0.05371
 C140 C 0.44540 0.56734 -0.09641
 O141 O 0.53415 0.58367 -0.10624
 O142 O 0.56048 0.53958 -0.05196
 C143 C 0.55576 0.57127 -0.09130
 O144 O 0.46654 0.42060 -0.11128
 O145 O 0.44017 0.46192 -0.05302
 C146 C 0.44491 0.43276 -0.09566
 Zr147 Zr 0.50041 0.44133 -0.07667
 O148 O 0.50311 0.43977 -0.17155
 O149 O 0.49762 0.36849 -0.07467
 Zr150 Zr 0.50047 0.55827 -0.07643
 O151 O 0.50317 0.56014 -0.17128
 O152 O 0.49771 0.63111 -0.07308
 Zr153 Zr 0.46470 0.49972 -0.00070
 Zr154 Zr 0.53624 0.49983 -0.00085
 O155 O 0.52123 0.49979 -0.08767
 O156 O 0.47911 0.49979 -0.08838
 O157 O 0.52197 0.43239 -0.00102
 O158 O 0.47941 0.56659 -0.00065
 O159 O 0.47942 0.43290 -0.00090
 O160 O 0.52202 0.56727 -0.00072
 H161 H 0.53190 0.49983 0.12153
 H162 H 0.46832 0.59334 -0.00058
 H163 H 0.53195 0.49975 -0.12327
 H164 H 0.46833 0.40613 -0.00089
 H165 H 0.51193 0.64307 0.05143
 H166 H 0.51219 0.64300 -0.05249
 H167 H 0.49119 0.53815 -0.18736
 H168 H 0.49040 0.46013 -0.18763
 H169 H 0.51180 0.35655 -0.05292
 H170 H 0.51194 0.35660 0.05086
 H171 H 0.49071 0.46067 0.18577
 H172 H 0.49069 0.53887 0.18597
 C173 C 0.33063 0.32669 0.29680
 C174 C 0.31242 0.35647 0.31623
 C175 C 0.29470 0.34067 0.35581
 C176 C 0.29502 0.29482 0.37657
 C177 C 0.31315 0.26491 0.35585
 C178 C 0.33085 0.28080 0.31627
 C179 C 0.34967 0.34370 0.25898
 C180 C 0.36590 0.35820 0.22843
 C181 C 0.38558 0.37576 0.19321
 C182 C 0.38141 0.40807 0.14775
 C183 C 0.40067 0.42624 0.11496
 C184 C 0.42441 0.41234 0.12737
 C185 C 0.42836 0.37953 0.17289
 C186 C 0.40907 0.36140 0.20553
 H187 H 0.31213 0.39209 0.30154
 H188 H 0.28101 0.36457 0.37091
 H189 H 0.31392 0.22945 0.37098
 H190 H 0.34491 0.25749 0.30161
 H191 H 0.36330 0.41953 0.13798
 H192 H 0.39695 0.45149 0.08037
 H193 H 0.44637 0.36806 0.18366
 H194 H 0.41250 0.33648 0.24075
 C195 C -0.16855 0.82656 0.29891
 C196 C -0.16837 0.78063 0.31821
 C197 C -0.18611 0.76466 0.35762
 C198 C -0.20426 0.79452 0.37835
 C199 C -0.20454 0.84043 0.35779
 C200 C -0.18678 0.85631 0.31838
 C201 C -0.14952 0.84364 0.26112
 C202 C -0.13331 0.85819 0.23052
 C203 C -0.11368 0.87584 0.19516
 C204 C -0.09018 0.86136 0.20702
 C205 C -0.07094 0.87954 0.17418
 C206 C -0.07498 0.91254 0.12894
 C207 C -0.09874 0.92657 0.11700
 C208 C -0.11793 0.90835 0.14997
 H209 H -0.15430 0.75734 0.30352
 H210 H -0.18536 0.72915 0.37259
 H211 H -0.21824 0.86430 0.37290
 H212 H -0.18706 0.89196 0.30381
 H213 H -0.08668 0.83628 0.24201
 H214 H -0.05292 0.86796 0.18459
 H215 H -0.10251 0.95198 0.08264
 H216 H -0.13606 0.91990 0.14056
 C217 C 0.66854 0.68067 0.29287
 C218 C 0.66802 0.72628 0.31350
 C219 C 0.68518 0.74169 0.35475
 C220 C 0.70308 0.71156 0.37604
 C221 C 0.70368 0.66597 0.35426
 C222 C 0.68649 0.65066 0.31300
 C223 C 0.65001 0.66407 0.25330
 C224 C 0.63413 0.64977 0.22149
 C225 C 0.61478 0.63219 0.18525
 C226 C 0.59130 0.64772 0.19520
 C227 C 0.57218 0.62870 0.16291
 C228 C 0.57628 0.59373 0.12016
 C229 C 0.60004 0.57904 0.10955
 C230 C 0.61914 0.59812 0.14200
 H231 H 0.65414 0.74975 0.29837
 H232 H 0.68422 0.77697 0.37060
 H233 H 0.71721 0.64192 0.36971
 H234 H 0.68700 0.61523 0.29748
 H235 H 0.58772 0.67401 0.22869
 H236 H 0.55416 0.64089 0.17222
 H237 H 0.60387 0.55216 0.07708
 H238 H 0.63725 0.58574 0.13408
 C239 C 0.16867 1.18116 0.29445
 C240 C 0.18661 1.15123 0.31478
 C241 C 0.20379 1.16663 0.35600
 C242 C 0.20324 1.21235 0.37778
 C243 C 0.18530 1.24238 0.35605
 C244 C 0.16816 1.22681 0.31483
 C245 C 0.15017 1.16446 0.25482
 C246 C 0.13433 1.15012 0.22293
 C247 C 0.11499 1.13254 0.18657
 C248 C 0.11939 1.09851 0.14327
 C249 C 0.10032 1.07950 0.11064
 C250 C 0.07654 1.09421 0.12112
 C251 C 0.07242 1.12912 0.16394
 C252 C 0.09151 1.14808 0.19640
 H253 H 0.18712 1.11576 0.29940
 H254 H 0.21727 1.14241 0.37133
 H255 H 0.18422 1.27779 0.37142
 H256 H 0.15429 1.25024 0.29949
 H257 H 0.13750 1.08613 0.13543
 H258 H 0.10416 1.05265 0.07813
 H259 H 0.05439 1.14132 0.17315
 H260 H 0.08790 1.17433 0.22991
 C261 C 0.66884 0.31894 -0.29420
 C262 C 0.68677 0.34899 -0.31444
 C263 C 0.70404 0.33373 -0.35561
 C264 C 0.70357 0.28801 -0.37741
 C265 C 0.68564 0.25785 -0.35573
 C266 C 0.66841 0.27329 -0.31457
 C267 C 0.65023 0.33553 -0.25473
 C268 C 0.63431 0.34984 -0.22300
 C269 C 0.61490 0.36744 -0.18684
 C270 C 0.61923 0.40145 -0.14350
 C271 C 0.60010 0.42053 -0.11110
 C272 C 0.57634 0.40591 -0.12185
 C273 C 0.57227 0.37101 -0.16470
 C274 C 0.59143 0.35198 -0.19694
 H275 H 0.68722 0.38447 -0.29906
 H276 H 0.71751 0.35804 -0.37090
 H277 H 0.68463 0.22243 -0.37113
 H278 H 0.65455 0.24977 -0.29929
 H279 H 0.63734 0.41376 -0.13546
 H280 H 0.60390 0.44736 -0.07855
 H281 H 0.55425 0.35889 -0.17412
 H282 H 0.58787 0.32575 -0.23051
 C283 C 0.16881 0.81911 -0.29437
 C284 C 0.18680 0.84898 -0.31476
 C285 C 0.20402 0.83350 -0.35594
 C286 C 0.20345 0.78775 -0.37760
 C287 C 0.18545 0.75778 -0.35579
 C288 C 0.16828 0.77342 -0.31462
 C289 C 0.15027 0.83589 -0.25480
 C290 C 0.13440 0.85031 -0.22298
 C291 C 0.11505 0.86799 -0.18668
 C292 C 0.11943 0.90220 -0.14363
 C293 C 0.10034 0.92133 -0.11109
 C294 C 0.07657 0.90655 -0.12140
 C295 C 0.07246 0.87145 -0.16394
 C296 C 0.09157 0.85238 -0.19633
 H297 H 0.18734 0.88447 -0.29947
 H298 H 0.21754 0.85768 -0.37134
 H299 H 0.18436 0.72234 -0.37107
 H300 H 0.15437 0.75004 -0.29922
 H301 H 0.13753 0.91465 -0.13593
 H302 H 0.10417 0.94831 -0.07879
 H303 H 0.05443 0.85919 -0.17303
 H304 H 0.08797 0.82598 -0.22965
 C305 C 0.33094 0.67320 -0.29762
 C306 C 0.33114 0.71911 -0.31698
 C307 C 0.31340 0.73503 -0.35627
 C308 C 0.29524 0.70511 -0.37683
 C309 C 0.29493 0.65924 -0.35616
 C310 C 0.31269 0.64342 -0.31686
 C311 C 0.35002 0.65616 -0.26014
 C312 C 0.36629 0.64168 -0.22985
 C313 C 0.38601 0.62413 -0.19492
 C314 C 0.40949 0.63852 -0.20753
 C315 C 0.42881 0.62045 -0.17511
 C316 C 0.42488 0.58765 -0.12953
 C317 C 0.40115 0.57370 -0.11684
 C318 C 0.38187 0.59181 -0.14940
 H319 H 0.34522 0.74242 -0.30247
 H320 H 0.31416 0.77051 -0.37133
 H321 H 0.28122 0.63533 -0.37114
 H322 H 0.31241 0.60777 -0.30225
 H323 H 0.41289 0.66345 -0.24280
 H324 H 0.44680 0.63195 -0.18609
 H325 H 0.39746 0.54845 -0.08218
 H326 H 0.36376 0.58032 -0.13940
 C327 C -0.16871 1.17427 -0.29775
 C328 C -0.16856 1.22019 -0.31707
 C329 C -0.18632 1.23606 -0.35635
 C330 C -0.20446 1.20610 -0.37693
 C331 C -0.20471 1.16021 -0.35631
 C332 C -0.18693 1.14443 -0.31703
 C333 C -0.14964 1.15728 -0.26018
 C334 C -0.13340 1.14278 -0.22978
 C335 C -0.11374 1.12517 -0.19467
 C336 C -0.09023 1.13954 -0.20698
 C337 C -0.07097 1.12138 -0.17438
 C338 C -0.07499 1.08851 -0.12893
 C339 C -0.09876 1.07460 -0.11654
 C340 C -0.11797 1.09280 -0.14927
 H341 H -0.15451 1.24355 -0.30252
 H342 H -0.18559 1.27156 -0.37137
 H343 H -0.21840 1.13626 -0.37131
 H344 H -0.18718 1.10878 -0.30244
 H345 H -0.08675 1.16451 -0.24215
 H346 H -0.05295 1.13286 -0.18515
 H347 H -0.10252 1.04929 -0.08201
 H348 H -0.13610 1.08133 -0.13950
 C349 C 0.66874 0.68052 -0.29510
 C350 C 0.66832 0.72621 -0.31521
 C351 C 0.68557 0.74180 -0.35622
 C352 C 0.70354 0.71175 -0.37800
 C353 C 0.70399 0.66598 -0.35647
 C354 C 0.68670 0.65057 -0.31546
 C355 C 0.65014 0.66382 -0.25569
 C356 C 0.63422 0.64947 -0.22397
 C357 C 0.61481 0.63187 -0.18778
 C358 C 0.59135 0.64745 -0.19763
 C359 C 0.57219 0.62850 -0.16528
 C360 C 0.57624 0.59356 -0.12258
 C361 C 0.59999 0.57879 -0.11211
 C362 C 0.61912 0.59779 -0.14461
 H363 H 0.65445 0.74966 -0.29984
 H364 H 0.68457 0.77724 -0.37140
 H365 H 0.71748 0.64174 -0.37185
 H366 H 0.68715 0.61507 -0.30027
 H367 H 0.58781 0.67373 -0.23105
 H368 H 0.55419 0.64074 -0.17449
 H369 H 0.60377 0.55192 -0.07968
 H370 H 0.63721 0.58537 -0.13676
 C371 C 0.16869 1.18170 -0.29488
 C372 C 0.16819 1.22731 -0.31527
 C373 C 0.18534 1.24278 -0.35659
 C374 C 0.20328 1.21270 -0.37840
 C375 C 0.20382 1.16702 -0.35657
 C376 C 0.18663 1.15172 -0.31525
 C377 C 0.15016 1.16507 -0.25522
 C378 C 0.13429 1.15074 -0.22334
 C379 C 0.11494 1.13314 -0.18701
 C380 C 0.09146 1.14869 -0.19672
 C381 C 0.07234 1.12966 -0.16435
 C382 C 0.07644 1.09466 -0.12175
 C383 C 0.10021 1.07995 -0.11138
 C384 C 0.11930 1.09904 -0.14392
 H385 H 0.15432 1.25077 -0.29989
 H386 H 0.18427 1.27816 -0.37200
 H387 H 0.21730 1.14276 -0.37196
 H388 H 0.18713 1.11628 -0.29985
 H389 H 0.08788 1.17500 -0.23009
 H390 H 0.05432 1.14185 -0.17346
 H391 H 0.10403 1.05305 -0.07903
 H392 H 0.13741 1.08665 -0.13619
 C393 C 0.33067 0.32707 -0.29846
 C394 C 0.33086 0.28114 -0.31788
 C395 C 0.31318 0.26520 -0.35737
 C396 C 0.29507 0.29510 -0.37807
 C397 C 0.29478 0.34100 -0.35739
 C398 C 0.31249 0.35685 -0.31789
 C399 C 0.34969 0.34410 -0.26065
 C400 C 0.36591 0.35857 -0.23009
 C401 C 0.38558 0.37606 -0.19485
 C402 C 0.38142 0.40844 -0.14934
 C403 C 0.40067 0.42650 -0.11652
 C404 C 0.42440 0.41244 -0.12893
 C405 C 0.42835 0.37956 -0.17448
 C406 C 0.40906 0.36154 -0.20715
 H407 H 0.34489 0.25782 -0.30323
 H408 H 0.31392 0.22969 -0.37243
 H409 H 0.28111 0.36490 -0.37248
 H410 H 0.31222 0.39251 -0.30325
 H411 H 0.36331 0.42003 -0.13957
 H412 H 0.39696 0.45182 -0.08191
 H413 H 0.44635 0.36796 -0.18527
 H414 H 0.41249 0.33656 -0.24240
 C415 C -0.16878 0.82590 -0.29729
 C416 C -0.18702 0.85567 -0.31639
 C417 C -0.20479 0.83987 -0.35573
 C418 C -0.20450 0.79402 -0.37659
 C419 C -0.18635 0.76410 -0.35617
 C420 C -0.16860 0.78000 -0.31683
 C421 C -0.14969 0.84295 -0.25977
 C422 C -0.13343 0.85753 -0.22944
 C423 C -0.11377 0.87528 -0.19442
 C424 C -0.09026 0.86091 -0.20674
 C425 C -0.07100 0.87923 -0.17426
 C426 C -0.07500 0.91226 -0.12893
 C427 C -0.09876 0.92618 -0.11654
 C428 C -0.11798 0.90781 -0.14914
 H429 H -0.18728 0.89131 -0.30163
 H430 H -0.21849 0.86378 -0.37060
 H431 H -0.18561 0.72863 -0.37139
 H432 H -0.15453 0.75669 -0.30242
 H433 H -0.08680 0.83582 -0.24183
 H434 H -0.05298 0.86775 -0.18502
 H435 H -0.10251 0.95160 -0.08209
 H436 H -0.13611 0.91929 -0.13939
 C437 C 0.33077 0.67245 0.29801
 C438 C 0.31254 0.64275 0.31760
 C439 C 0.29487 0.65867 0.35725
 C440 C 0.29525 0.70458 0.37793
 C441 C 0.31341 0.73440 0.35708
 C442 C 0.33106 0.71838 0.31743
 C443 C 0.34974 0.65533 0.26005
 C444 C 0.36594 0.64081 0.22937
 C445 C 0.38560 0.62329 0.19400
 C446 C 0.40908 0.63787 0.20609
 C447 C 0.42836 0.61985 0.17330
 C448 C 0.42440 0.58692 0.12783
 C449 C 0.40066 0.57279 0.11564
 C450 C 0.38142 0.59085 0.14859
 H451 H 0.31219 0.60709 0.30296
 H452 H 0.28116 0.63484 0.37245
 H453 H 0.31423 0.76990 0.37213
 H454 H 0.34513 0.74163 0.30265
 H455 H 0.41252 0.66290 0.24126
 H456 H 0.44636 0.63150 0.18392
 H457 H 0.39695 0.54743 0.08110
 H458 H 0.36331 0.57923 0.13899
 C459 C -0.16870 1.17427 0.29849
 C460 C -0.16852 1.22018 0.31800
 C461 C -0.18627 1.23604 0.35746
 C462 C -0.20442 1.20609 0.37803
 C463 C -0.20470 1.16022 0.35723
 C464 C -0.18693 1.14445 0.31776
 C465 C -0.14964 1.15728 0.26076
 C466 C -0.13340 1.14276 0.23024
 C467 C -0.11374 1.12511 0.19500
 C468 C -0.11798 1.09275 0.14954
 C469 C -0.09876 1.07451 0.11670
 C470 C -0.07499 1.08837 0.12903
 C471 C -0.07097 1.12122 0.17456
 C472 C -0.09023 1.13942 0.20727
 H473 H -0.15445 1.24352 0.30346
 H474 H -0.18552 1.27153 0.37263
 H475 H -0.21840 1.13628 0.37221
 H476 H -0.18720 1.10881 0.30303
 H477 H -0.13611 1.08132 0.13982
 H478 H -0.10252 1.04922 0.08211
 H479 H -0.05295 1.13266 0.18529
 H480 H -0.08676 1.16438 0.24250
 C481 C 0.66836 0.31958 0.29343
 C482 C 0.66786 0.27395 0.31387
 C483 C 0.68502 0.25856 0.35509
 C484 C 0.70290 0.28872 0.37653
 C485 C 0.70348 0.33435 0.35497
 C486 C 0.68629 0.34964 0.31375
 C487 C 0.64986 0.33613 0.25377
 C488 C 0.63402 0.35037 0.22186
 C489 C 0.61469 0.36784 0.18549
 C490 C 0.59121 0.35221 0.19525
 C491 C 0.57211 0.37110 0.16283
 C492 C 0.57624 0.40605 0.12013
 C493 C 0.60001 0.42083 0.10970
 C494 C 0.61908 0.40188 0.14228
 H495 H 0.65400 0.25044 0.29859
 H496 H 0.68407 0.22325 0.37076
 H497 H 0.71699 0.35844 0.37055
 H498 H 0.68680 0.38509 0.29838
 H499 H 0.58760 0.32594 0.22870
 H500 H 0.55409 0.35884 0.17201
 H501 H 0.60385 0.44770 0.07727
 H502 H 0.63719 0.41433 0.13449
 C503 C 0.16842 0.81907 0.29306
 C504 C 0.18645 0.84897 0.31326
 C505 C 0.20357 0.83358 0.35455
 C506 C 0.20286 0.78802 0.37629
 C507 C 0.18488 0.75800 0.35496
 C508 C 0.16777 0.77349 0.31368
 C509 C 0.14996 0.83575 0.25341
 C510 C 0.13415 0.85013 0.22153
 C511 C 0.11486 0.86780 0.18522
 C512 C 0.11930 0.90209 0.14238
 C513 C 0.10025 0.92126 0.10991
 C514 C 0.07648 0.90643 0.12010
 C515 C 0.07231 0.87124 0.16243
 C516 C 0.09138 0.85214 0.19474
 H517 H 0.18706 0.88438 0.29775
 H518 H 0.21717 0.85755 0.37003
 H519 H 0.18382 0.72274 0.37079
 H520 H 0.15384 0.75010 0.29850
 H521 H 0.13741 0.91458 0.13480
 H522 H 0.10412 0.94831 0.07777
 H523 H 0.05427 0.85895 0.17141
 H524 H 0.08774 0.82568 0.22791
   
