data_POSCAR
  _audit_creation_date              2014-09-24
  _audit_creation_method            'ToBaCCo'
  _symmetry_space_group_name_H-M    'P1'
  _symmetry_Int_Tables_number       1
  _symmetry_cell_setting            triclinic
  loop_
  _symmetry_equiv_pos_as_xyz
 x,y,z
_cell_length_a 36.7088
_cell_length_b 36.1976
_cell_length_c 36.8318
_cell_angle_alpha 90.087400
_cell_angle_beta 90.201200
_cell_angle_gamma 89.363700
loop_
  _atom_site_label
  _atom_site_type_symbol
  _atom_site_fract_x
  _atom_site_fract_y
  _atom_site_fract_z
N1 N 0.19476 1.26516 0.17452
 N2 N 0.16920 1.26383 0.19933
 C3 C 0.14345 1.28945 0.19180
 C4 C 0.15300 1.30761 0.16002
 C5 C 0.18603 1.29140 0.15008
 H6 H 0.11880 1.29309 0.20744
 H7 H 0.20256 1.29772 0.12672
 Cu8 Cu 0.17043 1.22678 0.23757
 Cu9 Cu 0.23647 1.23131 0.17534
 Cu10 Cu 0.21314 1.14788 0.21389
 N11 N 0.16621 1.18226 0.26656
 N12 N 0.18279 1.15143 0.25703
 C13 C 0.17373 1.12451 0.28030
 C14 C 0.15000 1.13910 0.30611
 C15 C 0.14603 1.17609 0.29633
 H16 H 0.18339 1.09632 0.27784
 H17 H 0.12915 1.19695 0.30913
 N18 N 0.25392 1.15333 0.17962
 N19 N 0.26437 1.18557 0.16690
 C20 C 0.29400 1.18054 0.14594
 C21 C 0.30226 1.14318 0.14508
 C22 C 0.27630 1.12677 0.16668
 H23 H 0.30758 1.20223 0.13125
 H24 H 0.27419 1.09767 0.17284
 H25 H 0.19701 1.19472 0.18550
 H26 H 0.23028 1.20004 0.22353
 N27 N 0.81121 0.73942 0.16698
 N28 N 0.83864 0.74174 0.18983
 C29 C 0.86345 0.71536 0.18181
 C30 C 0.85085 0.69521 0.15238
 C31 C 0.81740 0.71122 0.14386
 H32 H 0.88893 0.71144 0.19614
 H33 H 0.79941 0.70386 0.12177
 Cu34 Cu 0.83998 0.77993 0.22697
 Cu35 Cu 0.77026 0.77412 0.16835
 Cu36 Cu 0.78782 0.85527 0.21552
 N37 N 0.83925 0.81938 0.26290
 N38 N 0.81947 0.84935 0.25770
 C39 C 0.82702 0.87408 0.28385
 C40 C 0.85307 0.85884 0.30710
 C41 C 0.85984 0.82380 0.29286
 H42 H 0.81484 0.90136 0.28507
 H43 H 0.87964 0.80368 0.30229
 N44 N 0.74720 0.85020 0.18088
 N45 N 0.74034 0.81932 0.16315
 C46 C 0.71153 0.82498 0.14104
 C47 C 0.69940 0.86105 0.14542
 C48 C 0.72258 0.87614 0.17101
 H49 H 0.70039 0.80442 0.12293
 H50 H 0.72207 0.90421 0.18110
 H51 H 0.80674 0.81394 0.18000
 H52 H 0.77701 0.80073 0.21876
 N53 N 0.81051 1.26453 -0.16264
 N54 N 0.83403 1.26643 -0.18935
 C55 C 0.85918 1.29196 -0.18128
 C56 C 0.85108 1.30690 -0.14755
 C57 C 0.81993 1.28876 -0.13659
 H58 H 0.88220 1.29838 -0.19828
 H59 H 0.80529 1.29265 -0.11144
 Cu60 Cu 0.83048 1.23437 -0.23144
 Cu61 Cu 0.77040 1.22964 -0.16303
 Cu62 Cu 0.77040 1.16502 -0.23263
 N63 N 0.83422 1.19438 -0.26640
 N64 N 0.80994 1.16804 -0.26765
 C65 C 0.81891 1.14411 -0.29422
 C66 C 0.85102 1.15568 -0.31034
 C67 C 0.85982 1.18785 -0.29173
 H68 H 0.80390 1.11929 -0.30010
 H69 H 0.88305 1.20535 -0.29602
 N70 N 0.73289 1.16677 -0.19446
 N71 N 0.73242 1.19186 -0.16839
 C72 C 0.70440 1.18496 -0.14597
 C73 C 0.68667 1.15379 -0.15822
 C74 C 0.70546 1.14302 -0.18903
 H75 H 0.69843 1.20029 -0.12145
 H76 H 0.69998 1.11917 -0.20578
 H77 H 0.79994 1.19079 -0.19213
 H78 H 0.76700 1.22021 -0.21830
 N79 N 0.18503 0.73843 -0.15404
 N80 N 0.15600 0.74332 -0.17447
 C81 C 0.13116 0.71771 -0.16597
 C82 C 0.14526 0.69554 -0.13853
 C83 C 0.17964 0.70956 -0.13177
 H84 H 0.10465 0.71575 -0.17861
 H85 H 0.19889 0.70031 -0.11137
 Cu86 Cu 0.15206 0.78379 -0.20889
 Cu87 Cu 0.22641 0.77145 -0.15622
 Cu88 Cu 0.22514 0.83693 -0.22459
 N89 N 0.15432 0.81677 -0.25034
 N90 N 0.18300 0.83702 -0.25685
 C91 C 0.17645 0.85809 -0.28630
 C92 C 0.14147 0.85094 -0.29896
 C93 C 0.12848 0.82428 -0.27531
 H94 H 0.19538 0.87808 -0.29669
 H95 H 0.10205 0.81148 -0.27564
 N96 N 0.26513 0.83246 -0.18897
 N97 N 0.26557 0.80752 -0.16290
 C98 C 0.29449 0.81346 -0.14119
 C99 C 0.31320 0.84378 -0.15401
 C100 C 0.29377 0.85497 -0.18449
 H101 H 0.30026 0.79815 -0.11665
 H102 H 0.29917 0.87864 -0.20138
 H103 H 0.20040 0.81745 -0.17810
 H104 H 0.21816 0.78206 -0.21090
 Si105 Si 0.50010 1.00122 -0.00757
 Si106 Si 0.00071 0.49633 1.00713
 Si107 Si 1.00095 0.00106 0.50312
 C108 C 0.09042 0.38798 1.10229
 C109 C 0.12062 0.37029 1.08571
 C110 C 0.14193 0.34474 1.10535
 C111 C 0.13271 0.33481 1.14109
 C112 C 0.10207 0.35190 1.15704
 C113 C 0.08145 0.37824 1.13812
 C114 C 0.06866 0.41543 1.08049
 C115 C 0.03996 0.43679 1.09529
 C116 C 0.02016 0.46152 1.07360
 C117 C 0.02840 0.46538 1.03677
 C118 C 0.05674 0.44433 1.02169
 C119 C 0.07752 0.42019 1.04342
 C120 C 0.12878 0.37733 1.04924
 C121 C 0.10726 0.40117 1.02837
 H122 H 0.15174 0.36358 1.03639
 H123 H 0.11429 0.40512 1.00009
 H124 H 0.16481 0.33158 1.09190
 H125 H 0.09395 0.34544 1.18448
 H126 H -0.00202 0.47711 1.08565
 H127 H 0.06290 0.44710 0.99306
 H128 H 0.05823 0.39015 1.15187
 H129 H 0.03249 0.43498 1.12351
 C130 C -0.09280 0.60821 1.09408
 C131 C -0.07377 0.63120 1.11863
 C132 C -0.09242 0.65900 1.13787
 C133 C -0.12998 0.66479 1.13293
 C134 C -0.14884 0.64185 1.10874
 C135 C -0.13061 0.61388 1.08963
 C136 C -0.07160 0.57934 1.07349
 C137 C -0.08775 0.55512 1.04821
 C138 C -0.06650 0.52957 1.02892
 C139 C -0.02885 0.52747 1.03458
 C140 C -0.01251 0.55105 1.05976
 C141 C -0.03349 0.57679 1.07931
 C142 C -0.03613 0.62675 1.12352
 C143 C -0.01642 0.60021 1.10422
 H144 H -0.02158 0.64434 1.14235
 H145 H 0.01273 0.59815 1.10871
 H146 H -0.07728 0.67665 1.15611
 H147 H -0.17786 0.64535 1.10455
 H148 H -0.07954 0.51205 1.00906
 H149 H 0.01676 0.54962 1.06383
 H150 H -0.14659 0.59725 1.07138
 H151 H -0.11659 0.55570 1.04262
 C152 C -0.08696 0.38799 0.91178
 C153 C -0.11210 0.36522 0.93000
 C154 C -0.13247 0.33920 0.91046
 C155 C -0.12800 0.33504 0.87283
 C156 C -0.10301 0.35760 0.85488
 C157 C -0.08283 0.38377 0.87397
 C158 C -0.06560 0.41529 0.93372
 C159 C -0.04005 0.43942 0.91824
 C160 C -0.02055 0.46398 0.93997
 C161 C -0.02619 0.46519 0.97748
 C162 C -0.05129 0.44133 0.99326
 C163 C -0.07119 0.41664 0.97173
 C164 C -0.11656 0.36823 0.96764
 C165 C -0.09646 0.39329 0.98806
 H166 H -0.13575 0.35075 0.98161
 H167 H -0.10078 0.39439 1.01715
 H168 H -0.15131 0.32171 0.92484
 H169 H -0.09913 0.35530 0.82585
 H170 H -0.00070 0.48161 0.92732
 H171 H -0.05532 0.44202 1.02242
 H172 H -0.06410 0.40023 0.85858
 H173 H -0.03454 0.43969 0.88952
 C174 C 0.09086 0.60901 0.92031
 C175 C 0.07111 0.63227 0.89626
 C176 C 0.08908 0.65996 0.87685
 C177 C 0.12672 0.66520 0.88097
 C178 C 0.14631 0.64172 0.90442
 C179 C 0.12874 0.61400 0.92379
 C180 C 0.07040 0.58041 0.94123
 C181 C 0.08723 0.55650 0.96661
 C182 C 0.06674 0.53092 0.98595
 C183 C 0.02918 0.52831 0.98017
 C184 C 0.01208 0.55199 0.95528
 C185 C 0.03230 0.57786 0.93575
 C186 C 0.03347 0.62807 0.89190
 C187 C 0.01450 0.60143 0.91118
 H188 H 0.01836 0.64581 0.87341
 H189 H -0.01466 0.59943 0.90698
 H190 H 0.07337 0.67784 0.85906
 H191 H 0.17541 0.64463 0.90793
 H192 H 0.08036 0.51376 1.00591
 H193 H -0.01716 0.55045 0.95135
 H194 H 0.14532 0.59693 0.94138
 H195 H 0.11603 0.55740 0.97231
 C196 C 1.09574 0.08098 0.39018
 C197 C 1.08932 0.11923 0.38516
 C198 C 1.10778 0.13845 0.35780
 C199 C 1.13268 0.12017 0.33470
 C200 C 1.13941 0.08227 0.34052
 C201 C 1.12136 0.06303 0.36774
 C202 C 1.07451 0.06120 0.41881
 C203 C 1.07798 0.02289 0.42506
 C204 C 1.05651 0.00557 0.45102
 C205 C 1.03150 0.02595 0.47166
 C206 C 1.02785 0.06403 0.46598
 C207 C 1.04912 0.08178 0.43976
 C208 C 1.06417 0.13806 0.40717
 C209 C 1.04454 0.11976 0.43388
 H210 H 1.05931 0.16741 0.40347
 H211 H 1.02516 0.13554 0.44993
 H212 H 1.10207 0.16763 0.35446
 H213 H 1.15854 0.06687 0.32400
 H214 H 1.05916 -0.02403 0.45470
 H215 H 1.00771 0.07975 0.48106
 H216 H 1.12776 0.03403 0.37050
 H217 H 1.09661 0.00565 0.40989
 C218 C 1.08280 -0.09381 0.61695
 C219 C 1.12026 -0.08691 0.62229
 C220 C 1.13969 -0.10553 0.64982
 C221 C 1.12253 -0.13166 0.67217
 C222 C 1.08565 -0.13952 0.66537
 C223 C 1.06611 -0.12092 0.63835
 C224 C 1.06253 -0.07192 0.58871
 C225 C 1.02456 -0.07441 0.58364
 C226 C 1.00680 -0.05277 0.55764
 C227 C 1.02638 -0.02862 0.53573
 C228 C 1.06406 -0.02552 0.54055
 C229 C 1.08221 -0.04670 0.56713
 C230 C 1.13814 -0.06142 0.60016
 C231 C 1.11962 -0.04210 0.57289
 H232 H 1.16694 -0.05634 0.60395
 H233 H 1.13471 -0.02273 0.55650
 H234 H 1.16824 -0.09939 0.65357
 H235 H 1.07115 -0.15964 0.68123
 H236 H 0.97751 -0.05480 0.55474
 H237 H 1.07911 -0.00593 0.52443
 H238 H 1.03794 -0.12824 0.63477
 H239 H 1.00794 -0.09231 0.59986
 C240 C 0.90971 -0.08862 0.39364
 C241 C 0.88421 -0.06856 0.37235
 C242 C 0.86467 -0.08634 0.34464
 C243 C 0.87074 -0.12400 0.33671
 C244 C 0.89583 -0.14380 0.35840
 C245 C 0.91486 -0.12652 0.38643
 C246 C 0.93086 -0.06832 0.42219
 C247 C 0.95674 -0.08577 0.44500
 C248 C 0.97690 -0.06528 0.46998
 C249 C 0.97159 -0.02709 0.47295
 C250 C 0.94571 -0.00943 0.45087
 C251 C 0.92510 -0.02973 0.42580
 C252 C 0.87898 -0.03060 0.37816
 C253 C 0.89917 -0.01157 0.40410
 H254 H 0.85942 -0.01519 0.36189
 H255 H 0.89457 0.01791 0.40707
 H256 H 0.84564 -0.07012 0.32862
 H257 H 0.90114 -0.17289 0.35395
 H258 H 0.99732 -0.07933 0.48627
 H259 H 0.94192 0.02025 0.45294
 H260 H 0.93387 -0.14330 0.40172
 H261 H 0.96220 -0.11506 0.44373
 C262 C 0.91296 0.09957 0.60883
 C263 C 0.87684 0.08885 0.61625
 C264 C 0.85645 0.10755 0.64290
 C265 C 0.87103 0.13783 0.66192
 C266 C 0.90626 0.14955 0.65279
 C267 C 0.92696 0.13066 0.62686
 C268 C 0.93466 0.07734 0.58199
 C269 C 0.97212 0.08288 0.57604
 C270 C 0.99142 0.06047 0.55180
 C271 C 0.97373 0.03276 0.53225
 C272 C 0.93662 0.02673 0.53800
 C273 C 0.91712 0.04837 0.56312
 C274 C 0.86118 0.05963 0.59693
 C275 C 0.88067 0.04027 0.57048
 H276 H 0.83332 0.05168 0.60223
 H277 H 0.86728 0.01796 0.55623
 H278 H 0.82900 0.09851 0.64829
 H279 H 0.91865 0.17284 0.66624
 H280 H 1.02042 0.06456 0.54858
 H281 H 0.92321 0.00423 0.52411
 H282 H 0.95385 0.14092 0.62133
 H283 H 0.98723 0.10359 0.59057
 C284 C 0.38685 1.08833 0.08409
 C285 C 0.35221 1.07200 0.08806
 C286 C 0.32515 1.08971 0.10874
 C287 C 0.33134 1.12448 0.12419
 C288 C 0.36504 1.14143 0.11898
 C289 C 0.39266 1.12348 0.09948
 C290 C 0.41536 1.06787 0.06274
 C291 C 0.45187 1.07936 0.06062
 C292 C 0.47725 1.05931 0.04008
 C293 C 0.46666 1.02802 0.02048
 C294 C 0.43071 1.01580 0.02327
 C295 C 0.40529 1.03497 0.04470
 C296 C 0.34445 1.03859 0.07063
 C297 C 0.37016 1.02090 0.04876
 H298 H 0.31782 1.02628 0.07335
 H299 H 0.36259 0.99546 0.03528
 H300 H 0.29878 1.07690 0.11190
 H301 H 0.37022 1.16843 0.13048
 H302 H 0.50526 1.06834 0.03950
 H303 H 0.42245 0.99085 0.00941
 H304 H 0.41809 1.13776 0.09626
 H305 H 0.46145 1.10330 0.07512
 C306 C 0.60211 1.09579 -0.10177
 C307 C 0.62710 1.07637 -0.12415
 C308 C 0.65364 1.09566 -0.14359
 C309 C 0.65676 1.13408 -0.14001
 C310 C 0.63227 1.15325 -0.11753
 C311 C 0.60512 1.13447 -0.09881
 C312 C 0.57471 1.07404 -0.08085
 C313 C 0.54716 1.09067 -0.05963
 C314 C 0.52379 1.06909 -0.03886
 C315 C 0.52771 1.03059 -0.03834
 C316 C 0.55336 1.01369 -0.06116
 C317 C 0.57671 1.03501 -0.08248
 C318 C 0.62637 1.03774 -0.12599
 C319 C 0.60210 1.01747 -0.10516
 H320 H 0.64557 1.02285 -0.14304
 H321 H 0.60331 0.98758 -0.10676
 H322 H 0.67291 1.08047 -0.16029
 H323 H 0.63413 1.18291 -0.11433
 H324 H 0.50285 1.08281 -0.02319
 H325 H 0.55544 0.98387 -0.06218
 H326 H 0.58738 1.15062 -0.08156
 H327 H 0.54319 1.12022 -0.05872
 C328 C 0.39915 0.90113 -0.09773
 C329 C 0.38064 0.91809 -0.12719
 C330 C 0.35357 0.89884 -0.14619
 C331 C 0.34417 0.86276 -0.13617
 C332 C 0.36352 0.84558 -0.10780
 C333 C 0.39065 0.86438 -0.08888
 C334 C 0.42621 0.92349 -0.07670
 C335 C 0.44465 0.90990 -0.04572
 C336 C 0.46786 0.93262 -0.02580
 C337 C 0.47358 0.96912 -0.03655
 C338 C 0.45600 0.98282 -0.06754
 C339 C 0.43233 0.96040 -0.08760
 C340 C 0.38864 0.95445 -0.13707
 C341 C 0.41399 0.97511 -0.11776
 H342 H 0.37467 0.96736 -0.15980
 H343 H 0.41880 1.00332 -0.12617
 H344 H 0.33908 0.91263 -0.16803
 H345 H 0.35755 0.81755 -0.09982
 H346 H 0.48040 0.92188 -0.00131
 H347 H 0.45990 1.01135 -0.07543
 H348 H 0.40426 0.84973 -0.06718
 H349 H 0.44087 0.88219 -0.03585
 C350 C 0.61338 0.91813 0.08770
 C351 C 0.63191 0.88784 0.07150
 C352 C 0.65920 0.86871 0.09086
 C353 C 0.66933 0.88004 0.12587
 C354 C 0.65133 0.91036 0.14167
 C355 C 0.62359 0.92907 0.12302
 C356 C 0.58450 0.93789 0.06605
 C357 C 0.56302 0.96696 0.08032
 C358 C 0.53727 0.98521 0.05864
 C359 C 0.53245 0.97514 0.02226
 C360 C 0.55294 0.94568 0.00804
 C361 C 0.57854 0.92675 0.02968
 C362 C 0.62379 0.87742 0.03577
 C363 C 0.59803 0.89676 0.01515
 H364 H 0.63807 0.85434 0.02329
 H365 H 0.59322 0.88801 -0.01260
 H366 H 0.67340 0.84572 0.07814
 H367 H 0.65857 0.91959 0.16870
 H368 H 0.52152 1.00751 0.07047
 H369 H 0.54874 0.93715 -0.01984
 H370 H 0.61093 0.95231 0.13652
 H371 H 0.56559 0.97600 0.10810
   
