data_POSCAR
  _audit_creation_date              2014-09-24
  _audit_creation_method            'ToBaCCo'
  _symmetry_space_group_name_H-M    'P1'
  _symmetry_Int_Tables_number       1
  _symmetry_cell_setting            triclinic
  loop_
  _symmetry_equiv_pos_as_xyz
 x,y,z
_cell_length_a 32.7261
_cell_length_b 32.8616
_cell_length_c 38.2126
_cell_angle_alpha 89.936000
_cell_angle_beta 89.949700
_cell_angle_gamma 90.010900
loop_
  _atom_site_label
  _atom_site_type_symbol
  _atom_site_fract_x
  _atom_site_fract_y
  _atom_site_fract_z
Zr1 Zr 0.24367 0.24547 0.31091
 O2 O 0.26956 0.27243 0.35619
 O3 O 0.20190 0.20522 0.33504
 O4 O 0.20541 0.28554 0.33946
 O5 O 0.32703 0.18110 0.29818
 O6 O 0.17600 0.32612 0.29796
 O7 O 0.28526 0.20916 0.33957
 O8 O 0.16880 0.17535 0.28921
 O9 O 0.19195 0.24844 0.27868
 O10 O 0.24673 0.19415 0.27858
 O11 O 0.24870 0.30092 0.28362
 O12 O 0.30013 0.24888 0.28420
 Zr13 Zr 0.25483 0.25665 0.18887
 Zr14 Zr 0.19810 0.30260 0.24992
 Zr15 Zr 0.30088 0.19903 0.24986
 Zr16 Zr 0.19694 0.19852 0.24482
 O17 O 0.36535 0.20304 0.24697
 O18 O 0.13297 0.20764 0.24018
 O19 O 0.25078 0.20043 0.21556
 O20 O 0.19913 0.25224 0.21619
 O21 O 0.25252 0.30812 0.22116
 O22 O 0.30638 0.25293 0.22116
 C23 C 0.17516 0.18101 0.32173
 C24 C 0.31665 0.18820 0.33018
 C25 C 0.18319 0.31597 0.32997
 O26 O 0.13371 0.29714 0.25019
 O27 O 0.17468 0.32498 0.20189
 O28 O 0.21505 0.29526 0.16036
 C29 C 0.18477 0.31776 0.16986
 O30 O 0.32650 0.31965 0.30455
 Zr31 Zr 0.30264 0.30250 0.25497
 O32 O 0.29562 0.29789 0.16476
 O33 O 0.20437 0.36665 0.24969
 O34 O 0.29432 0.36630 0.25976
 O35 O 0.36679 0.29324 0.25529
 O36 O 0.32607 0.33041 0.21060
 C37 C 0.32021 0.32426 0.17807
 O38 O 0.22739 0.23120 0.14362
 O39 O 0.29612 0.13487 0.25268
 O40 O 0.29077 0.21488 0.16016
 O41 O 0.31842 0.17283 0.20149
 O42 O 0.20546 0.13452 0.24436
 O43 O 0.17930 0.17504 0.19525
 C44 C 0.31138 0.18332 0.16952
 H45 H 0.24653 0.16848 0.29216
 H46 H 0.17537 0.25154 0.20023
 H47 H 0.33213 0.25286 0.20753
 H48 H 0.24972 0.32455 0.29959
 H49 H 0.11946 0.18082 0.24284
 H50 H 0.12261 0.32519 0.25054
 H51 H 0.17634 0.37805 0.24936
 H52 H 0.32143 0.37942 0.25711
 H53 H 0.17822 0.12167 0.24698
 H54 H 0.32439 0.12415 0.25356
 H55 H 0.37578 0.17477 0.24602
 H56 H 0.38002 0.32021 0.25268
 H57 H 0.15652 0.15553 0.19831
 H58 H 0.24050 0.24362 0.12269
 H59 H 0.25696 0.25947 0.37711
 H60 H 0.34648 0.34201 0.30150
 Zr61 Zr 0.75316 0.75566 0.31122
 O62 O 0.72675 0.72727 0.35572
 O63 O 0.79356 0.79636 0.33633
 O64 O 0.79188 0.71646 0.34010
 O65 O 0.66862 0.81822 0.29770
 O66 O 0.82321 0.67701 0.29882
 O67 O 0.71016 0.79075 0.33954
 O68 O 0.82707 0.82743 0.29120
 O69 O 0.80564 0.75414 0.27972
 O70 O 0.74978 0.80730 0.27924
 O71 O 0.75004 0.70044 0.28346
 O72 O 0.69739 0.75134 0.28368
 Zr73 Zr 0.74496 0.74590 0.18900
 Zr74 Zr 0.80140 0.70023 0.25048
 Zr75 Zr 0.69637 0.80160 0.24973
 Zr76 Zr 0.80040 0.80438 0.24619
 O77 O 0.63210 0.79621 0.24560
 O78 O 0.86463 0.79663 0.24239
 O79 O 0.74724 0.80176 0.21620
 O80 O 0.80002 0.75097 0.21709
 O81 O 0.74771 0.69408 0.22094
 O82 O 0.69261 0.74800 0.22049
 C83 C 0.82021 0.82113 0.32360
 C84 C 0.67846 0.81104 0.32979
 C85 C 0.81517 0.68678 0.33080
 O86 O 0.86564 0.70702 0.25126
 O87 O 0.82573 0.67852 0.20245
 O88 O 0.78559 0.70813 0.16069
 C89 C 0.81587 0.68576 0.17034
 O90 O 0.67202 0.67997 0.30309
 Zr91 Zr 0.69675 0.69808 0.25400
 O92 O 0.70586 0.70400 0.16388
 O93 O 0.79654 0.63606 0.25017
 O94 O 0.70618 0.63442 0.25882
 O95 O 0.63241 0.70585 0.25301
 O96 O 0.67556 0.66985 0.20902
 C97 C 0.68206 0.67651 0.17663
 O98 O 0.77315 0.77261 0.14454
 O99 O 0.69953 0.86580 0.25335
 O100 O 0.70890 0.78751 0.16011
 O101 O 0.67967 0.82841 0.20146
 O102 O 0.79064 0.86820 0.24612
 O103 O 0.81858 0.82888 0.19706
 C104 C 0.68766 0.81865 0.16952
 H105 H 0.74914 0.83278 0.29303
 H106 H 0.82405 0.75221 0.20141
 H107 H 0.66722 0.74765 0.20642
 H108 H 0.74928 0.67663 0.29930
 H109 H 0.87752 0.82369 0.24550
 H110 H 0.87729 0.67918 0.25168
 H111 H 0.82483 0.62530 0.25005
 H112 H 0.67941 0.62080 0.25566
 H113 H 0.81756 0.88152 0.24926
 H114 H 0.67100 0.87587 0.25381
 H115 H 0.62105 0.82426 0.24476
 H116 H 0.61994 0.67861 0.24988
 H117 H 0.84091 0.84878 0.20059
 H118 H 0.76076 0.76041 0.12324
 H119 H 0.73841 0.74021 0.37699
 H120 H 0.65227 0.65753 0.29956
 Zr121 Zr 0.75688 0.24246 -0.31248
 O122 O 0.73155 0.26915 -0.35817
 O123 O 0.79911 0.20218 -0.33601
 O124 O 0.79542 0.28215 -0.34104
 O125 O 0.67294 0.17882 -0.29993
 O126 O 0.82442 0.32314 -0.29969
 O127 O 0.71533 0.20621 -0.34123
 O128 O 0.83192 0.17282 -0.28974
 O129 O 0.80827 0.24570 -0.27990
 O130 O 0.75355 0.19132 -0.27991
 O131 O 0.75157 0.29809 -0.28556
 O132 O 0.70021 0.24617 -0.28615
 Zr133 Zr 0.74465 0.25442 -0.19057
 Zr134 Zr 0.80189 0.30005 -0.25156
 Zr135 Zr 0.69914 0.19648 -0.25160
 Zr136 Zr 0.80300 0.19597 -0.24579
 O137 O 0.63465 0.20038 -0.24879
 O138 O 0.86692 0.20501 -0.24051
 O139 O 0.74891 0.19810 -0.21696
 O140 O 0.80058 0.24989 -0.21751
 O141 O 0.74723 0.30574 -0.22312
 O142 O 0.69337 0.25049 -0.22316
 C143 C 0.82597 0.17832 -0.32235
 C144 C 0.68357 0.18572 -0.33191
 C145 C 0.81754 0.31264 -0.33166
 O146 O 0.86627 0.29459 -0.25131
 O147 O 0.82485 0.32284 -0.20354
 O148 O 0.78423 0.29325 -0.16206
 C149 C 0.81451 0.31582 -0.17152
 O150 O 0.67397 0.31711 -0.30695
 Zr151 Zr 0.69739 0.29992 -0.25719
 O152 O 0.70349 0.29562 -0.16693
 O153 O 0.79567 0.36410 -0.25192
 O154 O 0.70593 0.36370 -0.26214
 O155 O 0.63327 0.29049 -0.25804
 O156 O 0.67334 0.32791 -0.21309
 C157 C 0.67894 0.32189 -0.18048
 O158 O 0.77156 0.22953 -0.14481
 O159 O 0.70384 0.13232 -0.25439
 O160 O 0.70878 0.21235 -0.16198
 O161 O 0.68148 0.17020 -0.20334
 O162 O 0.79444 0.13198 -0.24518
 O163 O 0.81990 0.17276 -0.19589
 C164 C 0.68837 0.18069 -0.17139
 H165 H 0.75389 0.16561 -0.29340
 H166 H 0.82420 0.24933 -0.20139
 H167 H 0.66752 0.25043 -0.20968
 H168 H 0.75072 0.32161 -0.30170
 H169 H 0.88041 0.17813 -0.24275
 H170 H 0.87738 0.32264 -0.25188
 H171 H 0.82371 0.37549 -0.25150
 H172 H 0.67886 0.37689 -0.25964
 H173 H 0.82171 0.11913 -0.24750
 H174 H 0.67557 0.12162 -0.25544
 H175 H 0.62423 0.17210 -0.24786
 H176 H 0.61995 0.31741 -0.25556
 H177 H 0.84253 0.15302 -0.19862
 H178 H 0.75807 0.24206 -0.12414
 H179 H 0.74430 0.25599 -0.37891
 H180 H 0.65400 0.33948 -0.30406
 Zr181 Zr 0.24527 0.75556 -0.31001
 O182 O 0.27181 0.72779 -0.35467
 O183 O 0.20398 0.79558 -0.33492
 O184 O 0.20699 0.71565 -0.33861
 O185 O 0.32870 0.81980 -0.29694
 O186 O 0.17650 0.67575 -0.29711
 O187 O 0.28757 0.79148 -0.33856
 O188 O 0.17017 0.82594 -0.28973
 O189 O 0.19305 0.75309 -0.27823
 O190 O 0.24802 0.80720 -0.27805
 O191 O 0.24944 0.70035 -0.28222
 O192 O 0.30128 0.75213 -0.28273
 Zr193 Zr 0.25444 0.74552 -0.18775
 Zr194 Zr 0.19834 0.69921 -0.24894
 Zr195 Zr 0.30170 0.80231 -0.24877
 Zr196 Zr 0.19767 0.80335 -0.24477
 O197 O 0.36610 0.79803 -0.24528
 O198 O 0.13361 0.79450 -0.24058
 O199 O 0.25107 0.80147 -0.21495
 O200 O 0.19914 0.74990 -0.21560
 O201 O 0.25233 0.69374 -0.21968
 O202 O 0.30647 0.74867 -0.21961
 C203 C 0.17690 0.81987 -0.32219
 C204 C 0.31891 0.81251 -0.32904
 C205 C 0.18417 0.68564 -0.32913
 O206 O 0.13399 0.70497 -0.24944
 O207 O 0.17449 0.67706 -0.20082
 O208 O 0.21438 0.70708 -0.15921
 C209 C 0.18427 0.68433 -0.16869
 O210 O 0.32742 0.68096 -0.30230
 Zr211 Zr 0.30297 0.69877 -0.25307
 O212 O 0.29465 0.70432 -0.16290
 O213 O 0.20423 0.63513 -0.24861
 O214 O 0.29437 0.63497 -0.25750
 O215 O 0.36718 0.70764 -0.25280
 O216 O 0.32553 0.67117 -0.20824
 C217 C 0.31921 0.67762 -0.17580
 O218 O 0.22617 0.77177 -0.14318
 O219 O 0.29723 0.86647 -0.25200
 O220 O 0.29030 0.78732 -0.15902
 O221 O 0.31875 0.82881 -0.20043
 O222 O 0.20639 0.86732 -0.24485
 O223 O 0.17942 0.82756 -0.19559
 C224 C 0.31126 0.81865 -0.16844
 H225 H 0.24812 0.83271 -0.29186
 H226 H 0.17520 0.75073 -0.19980
 H227 H 0.33202 0.74873 -0.20575
 H228 H 0.25045 0.67657 -0.29804
 H229 H 0.12024 0.82132 -0.24367
 H230 H 0.12276 0.67697 -0.24978
 H231 H 0.17613 0.62390 -0.24832
 H232 H 0.32136 0.62174 -0.25447
 H233 H 0.17925 0.88020 -0.24796
 H234 H 0.32556 0.87708 -0.25268
 H235 H 0.37667 0.82626 -0.24442
 H236 H 0.38018 0.68061 -0.24987
 H237 H 0.15677 0.84712 -0.19905
 H238 H 0.23883 0.75966 -0.12195
 H239 H 0.25972 0.74058 -0.37586
 H240 H 0.34730 0.65861 -0.29889
 Zr241 Zr 1.25445 1.25557 0.81100
 O242 O 1.22787 1.22771 0.85567
 O243 O 1.29633 1.29493 0.83580
 O244 O 1.29258 1.21542 0.83939
 O245 O 1.17163 1.32054 0.79844
 O246 O 1.32201 1.17506 0.79776
 O247 O 1.21277 1.29159 0.83982
 O248 O 1.33050 1.32478 0.79042
 O249 O 1.30637 1.25257 0.77895
 O250 O 1.25224 1.30747 0.77922
 O251 O 1.24920 1.20054 0.78324
 O252 O 1.19823 1.25312 0.78400
 Zr253 Zr 1.24414 1.24658 0.68894
 Zr254 Zr 1.30000 1.19891 0.74970
 Zr255 Zr 1.19830 1.30355 0.75021
 Zr256 Zr 1.30226 1.30308 0.74562
 O257 O 1.13382 1.30042 0.74681
 O258 O 1.36615 1.29346 0.74092
 O259 O 1.24863 1.30230 0.71614
 O260 O 1.29972 1.24981 0.71646
 O261 O 1.24574 1.19452 0.72067
 O262 O 1.19241 1.25019 0.72103
 C263 C 1.32375 1.31870 0.82286
 C264 C 1.18153 1.31273 0.83038
 C265 C 1.31490 1.18515 0.82983
 O266 O 1.36444 1.20366 0.74970
 O267 O 1.32291 1.17674 0.70139
 O268 O 1.28302 1.20761 0.66012
 C269 C 1.31282 1.18445 0.66943
 O270 O 1.17107 1.18212 0.80359
 Zr271 Zr 1.19545 1.19998 0.75431
 O272 O 1.20304 1.20645 0.66411
 O273 O 1.29319 1.13492 0.74937
 O274 O 1.20325 1.13603 0.75832
 O275 O 1.13137 1.20970 0.75459
 O276 O 1.17205 1.17328 0.70945
 C277 C 1.17817 1.18005 0.67702
 O278 O 1.27271 1.27264 0.64436
 O279 O 1.20372 1.36759 0.75397
 O280 O 1.20885 1.28916 0.66048
 O281 O 1.18147 1.33083 0.70217
 O282 O 1.29454 1.36718 0.74604
 O283 O 1.32044 1.32724 0.69636
 C284 C 1.18856 1.32079 0.67013
 H285 H 1.25261 1.33288 0.79312
 H286 H 1.32355 1.25038 0.70052
 H287 H 1.16676 1.25077 0.70733
 H288 H 1.24802 1.17673 0.79906
 H289 H 1.37990 1.32009 0.74396
 H290 H 1.37521 1.17547 0.74994
 H291 H 1.32113 1.12332 0.74889
 H292 H 1.17608 1.12319 0.75529
 H293 H 1.32192 1.37961 0.74900
 H294 H 1.17556 1.37860 0.75482
 H295 H 1.12372 1.32883 0.74619
 H296 H 1.11797 1.18288 0.75159
 H297 H 1.34320 1.34669 0.69973
 H298 H 1.25967 1.26100 0.62312
 H299 H 1.24018 1.24022 0.87687
 H300 H 1.15113 1.15981 0.80022
 Zr301 Zr 0.74319 0.74584 0.81075
 O302 O 0.76912 0.77283 0.85601
 O303 O 0.70075 0.70638 0.83491
 O304 O 0.70516 0.78636 0.83897
 O305 O 0.82602 0.68072 0.79862
 O306 O 0.67651 0.82711 0.79721
 O307 O 0.78431 0.70943 0.83973
 O308 O 0.66735 0.67683 0.78908
 O309 O 0.69173 0.74919 0.77829
 O310 O 0.74579 0.69421 0.77874
 O311 O 0.74903 0.80107 0.78328
 O312 O 0.79978 0.74837 0.78422
 Zr313 Zr 0.75517 0.75604 0.68877
 Zr314 Zr 0.69868 0.80309 0.74936
 Zr315 Zr 0.80012 0.69825 0.75016
 Zr316 Zr 0.69629 0.69896 0.74472
 O317 O 0.86466 0.70124 0.74743
 O318 O 0.63246 0.70863 0.73951
 O319 O 0.75027 0.70001 0.71563
 O320 O 0.69930 0.75248 0.71590
 O321 O 0.75331 0.80781 0.72074
 O322 O 0.80644 0.75190 0.72132
 C323 C 0.67360 0.68266 0.82160
 C324 C 0.81562 0.68828 0.83052
 C325 C 0.68332 0.81696 0.82929
 O326 O 0.63422 0.79840 0.74945
 O327 O 0.67567 0.82523 0.70119
 O328 O 0.71598 0.79490 0.65994
 C329 C 0.68578 0.81758 0.66925
 O330 O 0.82676 0.81926 0.80441
 Zr331 Zr 0.80312 0.80179 0.75483
 O332 O 0.79700 0.79619 0.66462
 O333 O 0.70567 0.86706 0.74880
 O334 O 0.79533 0.86573 0.75881
 O335 O 0.86715 0.79180 0.75592
 O336 O 0.82770 0.82855 0.71043
 C337 C 0.82216 0.82201 0.67792
 O338 O 0.72763 0.73075 0.64349
 O339 O 0.79444 0.63419 0.75341
 O340 O 0.79069 0.71369 0.66038
 O341 O 0.81767 0.67157 0.70198
 O342 O 0.70405 0.63487 0.74489
 O343 O 0.67879 0.67528 0.69518
 C344 C 0.81094 0.68201 0.66994
 H345 H 0.74519 0.66867 0.79251
 H346 H 0.67561 0.75189 0.69986
 H347 H 0.83231 0.75133 0.70788
 H348 H 0.75021 0.82479 0.79916
 H349 H 0.61867 0.68195 0.74220
 H350 H 0.62345 0.82658 0.74961
 H351 H 0.67777 0.87877 0.74832
 H352 H 0.82257 0.87856 0.75613
 H353 H 0.67664 0.62239 0.74752
 H354 H 0.82255 0.62310 0.75449
 H355 H 0.87468 0.67281 0.74672
 H356 H 0.88075 0.81859 0.75330
 H357 H 0.65604 0.65574 0.69825
 H358 H 0.74106 0.74283 0.62256
 H359 H 0.75627 0.76016 0.87694
 H360 H 0.84657 0.84176 0.80133
 Zr361 Zr 1.25636 0.74276 0.18745
 O362 O 1.23124 0.77012 0.14197
 O363 O 1.29734 0.70148 0.16365
 O364 O 1.29546 0.78184 0.15882
 O365 O 1.17165 0.68026 0.20008
 O366 O 1.32506 0.82245 0.20013
 O367 O 1.21427 0.70726 0.15877
 O368 O 1.32981 0.67135 0.20972
 O369 O 1.30799 0.74512 0.21979
 O370 O 1.25235 0.69162 0.21997
 O371 O 1.25198 0.79838 0.21447
 O372 O 1.19983 0.74719 0.21392
 Zr373 Zr 1.24477 0.75445 0.30931
 Zr374 Zr 1.30248 0.79947 0.24828
 Zr375 Zr 1.19813 0.69745 0.24840
 Zr376 Zr 1.30208 0.69541 0.25387
 O377 O 1.13373 0.70240 0.25143
 O378 O 1.36616 0.70373 0.25846
 O379 O 1.24811 0.69818 0.28283
 O380 O 1.30056 0.74926 0.28225
 O381 O 1.24801 0.80580 0.27685
 O382 O 1.19326 0.75145 0.27695
 C383 C 1.32353 0.67681 0.17716
 C384 C 1.18234 0.68713 0.16812
 C385 C 1.31791 0.81211 0.16816
 O386 O 1.36677 0.79314 0.24840
 O387 O 1.32569 0.82188 0.29634
 O388 O 1.28465 0.79280 0.33779
 C389 C 1.31517 0.81500 0.32834
 O390 O 1.17446 0.81830 0.19328
 Zr391 Zr 1.19794 0.80089 0.24296
 O392 O 1.20453 0.79626 0.33320
 O393 O 1.29722 0.86362 0.24805
 O394 O 1.20725 0.86454 0.23786
 O395 O 1.13366 0.79251 0.24258
 O396 O 1.17493 0.82938 0.28721
 C397 C 1.18061 0.82317 0.31978
 O398 O 1.27176 0.72888 0.35476
 O399 O 1.20169 0.63322 0.24545
 O400 O 1.20841 0.71291 0.33801
 O401 O 1.18043 0.67120 0.29666
 O402 O 1.29262 0.63155 0.25485
 O403 O 1.31925 0.67201 0.30363
 C404 C 1.18762 0.68149 0.32861
 H405 H 1.25215 0.66589 0.20651
 H406 H 1.32422 0.74836 0.29833
 H407 H 1.16750 0.75178 0.29054
 H408 H 1.25140 0.82194 0.19835
 H409 H 1.37931 0.67671 0.25597
 H410 H 1.37825 0.82105 0.24789
 H411 H 1.32543 0.87459 0.24846
 H412 H 1.18036 0.87807 0.24042
 H413 H 1.31967 0.61828 0.25246
 H414 H 1.17323 0.62300 0.24449
 H415 H 1.12286 0.67428 0.25233
 H416 H 1.12083 0.81966 0.24519
 H417 H 1.34193 0.65236 0.30077
 H418 H 1.25864 0.74145 0.37560
 H419 H 1.24360 0.75684 0.12113
 H420 H 1.15468 0.84083 0.19624
 Zr421 Zr 0.74744 1.25447 0.19022
 O422 O 0.77415 1.22643 0.14577
 O423 O 0.70738 1.29549 0.16513
 O424 O 0.70880 1.21529 0.16117
 O425 O 0.83127 1.31790 0.20417
 O426 O 0.67756 1.17551 0.20233
 O427 O 0.79023 1.29014 0.16215
 O428 O 0.67367 1.32627 0.21023
 O429 O 0.69485 1.25253 0.22158
 O430 O 0.75055 1.30585 0.22248
 O431 O 0.75071 1.19908 0.21778
 O432 O 0.80318 1.25028 0.21784
 Zr433 Zr 0.75543 1.24379 0.31245
 Zr434 Zr 0.69931 1.19844 0.25069
 Zr435 Zr 0.80389 1.30023 0.25207
 Zr436 Zr 0.69980 1.30251 0.25533
 O437 O 0.86819 1.29498 0.25593
 O438 O 0.63561 1.29417 0.25854
 O439 O 0.75291 1.29988 0.28548
 O440 O 0.70041 1.24891 0.28428
 O441 O 0.75295 1.19224 0.28027
 O442 O 0.80782 1.24640 0.28103
 C443 C 0.68090 1.32041 0.17783
 C444 C 0.82153 1.31092 0.17204
 C445 C 0.68556 1.18548 0.17040
 O446 O 0.63502 1.20490 0.24990
 O447 O 0.67494 1.17623 0.29854
 O448 O 0.71487 1.20561 0.34052
 C449 C 0.68467 1.18324 0.33069
 O450 O 0.82879 1.17916 0.19814
 Zr451 Zr 0.80397 1.19675 0.24729
 O452 O 0.79471 1.20186 0.33742
 O453 O 0.70447 1.13430 0.25074
 O454 O 0.79479 1.13309 0.24227
 O455 O 0.86828 1.20477 0.24832
 O456 O 0.82532 1.16832 0.29216
 C457 C 0.81876 1.17468 0.32458
 O458 O 0.72699 1.27010 0.35692
 O459 O 0.80041 1.36447 0.24909
 O460 O 0.79137 1.28512 0.34164
 O461 O 0.82063 1.32647 0.30056
 O462 O 0.70930 1.36637 0.25605
 O463 O 0.68094 1.32647 0.30443
 C464 C 0.81263 1.31635 0.33245
 H465 H 0.75119 1.33150 0.20888
 H466 H 0.67633 1.24991 0.29991
 H467 H 0.83320 1.24604 0.29511
 H468 H 0.75156 1.17540 0.20186
 H469 H 0.62254 1.32112 0.25531
 H470 H 0.62350 1.17702 0.24936
 H471 H 0.67624 1.12338 0.25083
 H472 H 0.82162 1.11956 0.24538
 H473 H 0.68237 1.37964 0.25282
 H474 H 0.82889 1.37470 0.24869
 H475 H 0.87915 1.32306 0.25703
 H476 H 0.88085 1.17755 0.25129
 H477 H 0.65828 1.34597 0.30083
 H478 H 0.73930 1.25775 0.37821
 H479 H 0.76251 1.23944 0.12450
 H480 H 0.84856 1.15670 0.20157
 O481 O 0.55511 1.07374 0.06387
 O482 O 0.60259 1.03776 0.03194
 C483 C 0.59222 1.06437 0.05583
 O484 O 0.44509 0.92498 0.06055
 O485 O 0.39739 0.96354 0.03125
 C486 C 0.40794 0.93482 0.05319
 O487 O 0.55588 0.92948 0.06400
 O488 O 0.60301 0.96550 0.03170
 C489 C 0.59292 0.93903 0.05575
 O490 O 0.44409 1.07657 0.06087
 O491 O 0.39688 1.03785 0.03120
 C492 C 0.40702 1.06629 0.05344
 Zr493 Zr 0.49973 1.05181 0.04412
 O494 O 0.49916 1.04424 0.09908
 O495 O 0.49872 1.11605 0.04843
 Zr496 Zr 0.50018 0.95094 0.04433
 O497 O 0.49924 0.95916 0.09920
 O498 O 0.50079 0.88686 0.04981
 O499 O 0.53732 1.00149 0.05099
 O500 O 0.46329 1.00122 0.05065
 O501 O 0.44460 1.07600 -0.06120
 O502 O 0.39719 1.03804 -0.03089
 C503 C 0.40752 1.06613 -0.05352
 O504 O 0.55524 0.92946 -0.06371
 O505 O 0.60270 0.96538 -0.03182
 C506 C 0.59232 0.93894 -0.05579
 O507 O 0.44422 0.92667 -0.06103
 O508 O 0.39696 0.96452 -0.03059
 C509 C 0.40714 0.93652 -0.05322
 O510 O 0.55563 1.07267 -0.06394
 O511 O 0.60291 1.03695 -0.03167
 C512 C 0.59271 1.06309 -0.05589
 Zr513 Zr 0.49996 1.05204 -0.04335
 O514 O 0.49554 1.05155 -0.09867
 O515 O 0.50350 1.11639 -0.04229
 Zr516 Zr 0.49988 0.95039 -0.04320
 O517 O 0.49551 0.95087 -0.09852
 O518 O 0.50344 0.88603 -0.04202
 Zr519 Zr 0.56266 1.00137 0.00015
 Zr520 Zr 0.43720 1.00112 0.00035
 O521 O 0.46390 1.00119 -0.04978
 O522 O 0.53692 1.00123 -0.05046
 O523 O 0.46291 1.06002 0.00035
 O524 O 0.53610 0.94306 0.00046
 O525 O 0.53597 1.05960 0.00029
 O526 O 0.46319 0.94234 0.00061
 H527 H 0.44494 1.00105 0.07131
 H528 H 0.55421 0.91892 0.00035
 H529 H 0.44605 1.00119 -0.07071
 H530 H 0.55416 1.08367 -0.00002
 H531 H 0.51058 0.87533 0.02748
 H532 H 0.48092 0.87595 -0.02702
 H533 H 0.51865 0.96696 -0.10780
 H534 H 0.51868 1.03547 -0.10793
 H535 H 0.48202 1.12631 -0.02616
 H536 H 0.51385 1.12744 0.02830
 H537 H 0.49745 1.07195 0.10919
 H538 H 0.49789 0.93155 0.10958
 O539 O 1.05474 0.57390 0.56372
 O540 O 1.10234 0.53803 0.53183
 C541 C 1.09188 0.56457 0.55574
 O542 O 0.94510 0.42501 0.56052
 O543 O 0.89733 0.46342 0.53115
 C544 C 0.90793 0.43479 0.55315
 O545 O 1.05597 0.42989 0.56401
 O546 O 1.10299 0.46596 0.53163
 C547 C 1.09298 0.43961 0.55578
 O548 O 0.94370 0.57638 0.56073
 O549 O 0.89662 0.53753 0.53105
 C550 C 0.90667 0.56594 0.55334
 Zr551 Zr 0.99945 0.55192 0.54390
 O552 O 0.99893 0.54459 0.59888
 O553 O 0.99803 0.61619 0.54789
 Zr554 Zr 1.00017 0.45103 0.54425
 O555 O 0.99922 0.45931 0.59911
 O556 O 1.00090 0.38695 0.54979
 O557 O 1.03715 0.50170 0.55084
 O558 O 0.96318 0.50122 0.55050
 O559 O 0.94437 0.57603 0.43873
 O560 O 0.89702 0.53798 0.46903
 C561 C 0.90731 0.56620 0.44649
 O562 O 1.05528 0.42936 0.43633
 O563 O 1.10266 0.46550 0.46813
 C564 C 1.09234 0.43889 0.44426
 O565 O 0.94433 0.42629 0.43906
 O566 O 0.89695 0.46412 0.46938
 C567 C 0.90723 0.43600 0.44689
 O568 O 1.05532 0.57277 0.43586
 O569 O 1.10269 0.53721 0.46816
 C570 C 1.09241 0.56332 0.44393
 Zr571 Zr 0.99971 0.55196 0.45643
 O572 O 0.99521 0.55110 0.40112
 O573 O 1.00313 0.61632 0.45725
 Zr574 Zr 0.99989 0.45036 0.45671
 O575 O 0.99549 0.45104 0.40139
 O576 O 1.00361 0.38601 0.45778
 Zr577 Zr 1.06253 0.50155 0.50002
 Zr578 Zr 0.93707 0.50098 0.50022
 O579 O 0.96371 0.50104 0.45007
 O580 O 1.03683 0.50125 0.44939
 O581 O 0.96263 0.55993 0.50012
 O582 O 1.03612 0.44318 0.50040
 O583 O 1.03570 0.55971 0.50007
 O584 O 0.96323 0.44228 0.50054
 H585 H 0.94487 0.50102 0.57118
 H586 H 1.05430 0.41909 0.50036
 H587 H 0.94578 0.50098 0.42919
 H588 H 1.05386 0.58380 0.49975
 H589 H 1.01119 0.37541 0.52763
 H590 H 0.98148 0.37588 0.47318
 H591 H 1.01891 0.46674 0.39211
 H592 H 1.01861 0.53536 0.39189
 H593 H 0.98224 0.62621 0.47395
 H594 H 1.01437 0.62758 0.52846
 H595 H 0.99712 0.57232 0.60892
 H596 H 0.99792 0.43172 0.60952
 O597 O 0.92344 0.55655 -0.06145
 O598 O 0.96251 0.60358 -0.03196
 C599 C 0.93381 0.59346 -0.05404
 O600 O 0.92973 0.44583 0.06501
 O601 O 0.96380 0.39855 0.03160
 C602 C 0.93858 0.40883 0.05657
 O603 O 0.92566 0.55633 0.06151
 O604 O 0.96288 0.60343 0.03024
 C605 C 0.93523 0.59324 0.05345
 O606 O 0.92645 0.44593 -0.06467
 O607 O 0.96236 0.39869 -0.03248
 C608 C 0.93578 0.40898 -0.05653
 Zr609 Zr 0.94780 0.50097 -0.04433
 O610 O 0.88317 0.49784 -0.04471
 O611 O 0.95226 0.50245 -0.09954
 Zr612 Zr 0.94854 0.50110 0.04275
 O613 O 0.88432 0.50007 0.03690
 O614 O 0.94352 0.50112 0.09800
 O615 O 0.94026 0.53812 -0.00075
 O616 O 0.94053 0.46479 -0.00049
 O617 O 1.07069 0.44478 -0.06491
 O618 O 1.03476 0.39803 -0.03222
 C619 C 1.06113 0.40794 -0.05643
 O620 O 1.07445 0.55663 0.05979
 O621 O 1.03660 0.60365 0.02914
 C622 C 1.06464 0.59353 0.05184
 O623 O 1.07193 0.44616 0.06268
 O624 O 1.03566 0.39876 0.03110
 C625 C 1.06239 0.40919 0.05492
 O626 O 1.07540 0.55520 -0.06240
 O627 O 1.03711 0.60286 -0.03289
 C628 C 1.06562 0.59228 -0.05520
 Zr629 Zr 1.04933 0.50054 -0.04556
 O630 O 1.11362 0.49895 -0.05110
 O631 O 1.04298 0.50395 -0.10071
 Zr632 Zr 1.05079 0.50114 0.04199
 O633 O 1.11542 0.49759 0.04052
 O634 O 1.05068 0.50470 0.09734
 Zr635 Zr 0.99955 0.56345 -0.00132
 Zr636 Zr 0.99912 0.43846 -0.00078
 O637 O 1.05771 0.46495 -0.00161
 O638 O 1.05859 0.53753 -0.00200
 O639 O 0.99835 0.46359 -0.05158
 O640 O 0.99984 0.53700 0.04884
 O641 O 0.99867 0.53707 -0.05148
 O642 O 0.99975 0.46450 0.04966
 H643 H 0.91626 0.44676 -0.00011
 H644 H 1.00026 0.55501 0.06959
 H645 H 1.08200 0.44697 -0.00157
 H646 H 0.99863 0.55520 -0.07222
 H647 H 0.96863 0.51350 0.10755
 H648 H 1.03209 0.48328 0.10625
 H649 H 1.12560 0.52089 0.02655
 H650 H 1.12523 0.49284 -0.02786
 H651 H 1.02867 0.47911 -0.10874
 H652 H 0.92388 0.50323 -0.10857
 H653 H 0.87301 0.51711 -0.02683
 H654 H 0.87279 0.49869 0.06086
 O655 O 0.57047 0.94398 0.56383
 O656 O 0.53386 0.89669 0.53236
 C657 C 0.56090 0.90705 0.55594
 O658 O 0.42209 1.05465 0.56108
 O659 O 0.46091 1.10168 0.53120
 C660 C 0.43228 1.09153 0.55347
 O661 O 0.42550 0.94428 0.56521
 O662 O 0.46117 0.89688 0.53309
 C663 C 0.43489 0.90724 0.55734
 O664 O 0.57418 1.05437 0.56040
 O665 O 0.53547 1.10156 0.53072
 C666 C 0.56415 1.09133 0.55285
 Zr667 Zr 0.54861 0.99914 0.54408
 O668 O 0.54127 0.99998 0.59906
 O669 O 0.61313 0.99962 0.54827
 Zr670 Zr 0.44733 0.99939 0.54482
 O671 O 0.45583 1.00048 0.59966
 O672 O 0.38295 0.99966 0.55026
 O673 O 0.49790 0.96208 0.55142
 O674 O 0.49815 1.03581 0.55068
 O675 O 0.57265 1.05340 0.43838
 O676 O 0.53517 1.10100 0.46870
 C677 C 0.56320 1.09043 0.44602
 O678 O 0.42491 0.94410 0.43700
 O679 O 0.46080 0.89676 0.46903
 C680 C 0.43437 0.90715 0.44496
 O681 O 0.42266 1.05470 0.43923
 O682 O 0.46125 1.10169 0.46919
 C683 C 0.43296 1.09161 0.44669
 O684 O 0.56861 0.94290 0.43624
 O685 O 0.53265 0.89613 0.46885
 C686 C 0.55888 0.90605 0.44449
 Zr687 Zr 0.54822 0.99851 0.45659
 O688 O 0.54703 1.00269 0.40125
 O689 O 0.61282 0.99458 0.45714
 Zr690 Zr 0.44613 0.99921 0.45737
 O691 O 0.44571 1.00333 0.40203
 O692 O 0.38151 0.99606 0.45933
 Zr693 Zr 0.49727 0.93654 0.50073
 Zr694 Zr 0.49793 1.06156 0.50026
 O695 O 0.49737 1.03471 0.45027
 O696 O 0.49690 0.96199 0.45000
 O697 O 0.55686 1.03553 0.50007
 O698 O 0.43889 0.96332 0.50122
 O699 O 0.55589 0.96284 0.50039
 O700 O 0.43870 1.03611 0.50098
 H701 H 0.49836 1.05415 0.57126
 H702 H 0.41465 0.94527 0.50131
 H703 H 0.49739 1.05238 0.42925
 H704 H 0.58001 0.94465 0.50002
 H705 H 0.37123 0.98793 0.52871
 H706 H 0.37177 1.01874 0.47419
 H707 H 0.46254 0.98081 0.39273
 H708 H 0.53124 0.97930 0.39220
 H709 H 0.62310 1.01590 0.47317
 H710 H 0.62437 0.98510 0.52779
 H711 H 0.56915 1.00148 0.60907
 H712 H 0.42819 1.00226 0.61013
 O713 O 1.07285 1.07182 0.45155
 O714 O 1.03490 1.03479 0.41219
 C715 C 1.06216 1.06191 0.42027
 O716 O 1.07455 0.92363 0.54656
 O717 O 1.03891 0.96112 0.58720
 C718 C 1.06497 0.93320 0.57822
 O719 O 1.07757 0.92942 0.45100
 O720 O 1.03712 0.96427 0.41193
 C721 C 1.06623 0.93904 0.41979
 O722 O 1.07032 1.07537 0.54702
 O723 O 1.03842 1.03421 0.58736
 C724 C 1.06242 1.06395 0.57856
 Zr725 Zr 1.05226 1.04989 0.49961
 O726 O 1.11658 1.04402 0.49956
 O727 O 1.05706 1.11410 0.49917
 Zr728 Zr 1.05541 0.94905 0.49928
 O729 O 1.11927 0.95869 0.49965
 O730 O 1.06412 0.88531 0.49756
 O731 O 1.06103 0.99990 0.46751
 O732 O 1.06202 0.99947 0.53059
 O733 O 0.93086 1.07026 0.54943
 O734 O 0.96925 1.03344 0.58864
 C735 C 0.94222 1.06083 0.58065
 O736 O 0.92898 0.92509 0.45358
 O737 O 0.96530 0.96232 0.41316
 C738 C 0.93809 0.93546 0.42202
 O739 O 0.93471 0.92154 0.54907
 O740 O 0.96970 0.96124 0.58846
 C741 C 0.94434 0.93242 0.58034
 O742 O 0.92448 1.06647 0.45403
 O743 O 0.96315 1.03218 0.41338
 C744 C 0.93432 1.05718 0.42240
 Zr745 Zr 0.94960 1.04711 0.50130
 O746 O 0.88520 1.04442 0.50661
 O747 O 0.94743 1.11141 0.49797
 Zr748 Zr 0.95282 0.94545 0.50098
 O749 O 0.88838 0.94364 0.50601
 O750 O 0.95511 0.88117 0.49739
 Zr751 Zr 1.00104 0.99818 0.44740
 Zr752 Zr 1.00346 0.99763 0.55313
 O753 O 0.94419 0.99599 0.53196
 O754 O 0.94219 0.99618 0.46981
 O755 O 1.00135 1.05667 0.53160
 O756 O 1.00363 0.93962 0.46955
 O757 O 0.99994 1.05648 0.46997
 O758 O 1.00495 0.93876 0.53126
 H759 H 1.08617 0.99986 0.54623
 H760 H 1.00390 0.91549 0.45403
 H761 H 0.92030 0.99549 0.54791
 H762 H 0.99859 1.08072 0.45458
 H763 H 1.03700 0.87292 0.49376
 H764 H 0.97275 0.87113 0.51658
 H765 H 0.87657 0.95973 0.48661
 H766 H 0.87432 1.02851 0.48674
 H767 H 0.96641 1.12238 0.51578
 H768 H 1.03030 1.12498 0.49178
 H769 H 1.12762 1.07206 0.50070
 H770 H 1.13194 0.93133 0.50060
 O771 O 0.42676 0.57068 -0.04657
 O772 O 0.46326 0.53399 -0.08719
 C773 C 0.43629 0.56104 -0.07820
 O774 O 0.57722 0.56916 0.04629
 O775 O 0.54000 0.53290 0.08679
 C776 C 0.56796 0.55897 0.07788
 O777 O 0.56962 0.57514 -0.04895
 O778 O 0.53404 0.53598 -0.08839
 C779 C 0.55938 0.56483 -0.08024
 O780 O 0.42490 0.56554 0.04877
 O781 O 0.46676 0.53265 0.08795
 C782 C 0.43694 0.55701 0.08000
 Zr783 Zr 0.44953 0.54866 0.00069
 O784 O 0.45557 0.61269 0.00179
 O785 O 0.38505 0.55340 0.00136
 Zr786 Zr 0.55082 0.55160 -0.00095
 O787 O 0.54141 0.61521 0.00097
 O788 O 0.61478 0.56019 -0.00366
 O789 O 0.49925 0.55820 -0.03187
 O790 O 0.50071 0.55748 0.03113
 O791 O 0.42959 0.42660 0.04840
 O792 O 0.46731 0.46375 0.08780
 C793 C 0.43956 0.43718 0.07968
 O794 O 0.57393 0.42715 -0.04957
 O795 O 0.53593 0.46446 -0.08872
 C796 C 0.56308 0.43717 -0.08081
 O797 O 0.57897 0.42991 0.04611
 O798 O 0.53990 0.46397 0.08663
 C799 C 0.56867 0.43886 0.07772
 O800 O 0.43197 0.42280 -0.04723
 O801 O 0.46581 0.46243 -0.08755
 C802 C 0.44084 0.43349 -0.07877
 Zr803 Zr 0.45216 0.44643 0.00031
 O804 O 0.45482 0.38217 0.00431
 O805 O 0.38754 0.44439 -0.00220
 Zr806 Zr 0.55419 0.44939 -0.00133
 O807 O 0.55559 0.38507 0.00233
 O808 O 0.61869 0.45141 -0.00574
 Zr809 Zr 0.50053 0.49907 -0.05322
 Zr810 Zr 0.50280 0.49858 0.05251
 O811 O 0.50394 0.44012 0.03019
 O812 O 0.50275 0.43983 -0.03204
 O813 O 0.44316 0.49715 0.03176
 O814 O 0.55969 0.50087 -0.03180
 O815 O 0.44235 0.49742 -0.02991
 O816 O 0.56155 0.50048 0.02987
 H817 H 0.50067 0.58112 0.04722
 H818 H 0.58368 0.50163 -0.04762
 H819 H 0.50462 0.41593 0.04569
 H820 H 0.41779 0.49657 -0.04503
 H821 H 0.62712 0.53304 -0.00683
 H822 H 0.62921 0.46826 0.01373
 H823 H 0.53961 0.37396 -0.01743
 H824 H 0.47046 0.37187 -0.01599
 H825 H 0.37686 0.46302 0.01598
 H826 H 0.37396 0.52721 -0.00701
 H827 H 0.42746 0.62371 0.00361
 H828 H 0.56894 0.62770 0.00184
 C829 C 0.32677 1.15719 0.14207
 C830 C 0.33978 1.13497 0.11934
 C831 C 0.35742 1.10912 0.09359
 C832 C 0.37675 1.08818 0.07342
 C833 C 0.82632 0.65576 0.64259
 C834 C 0.83933 0.63366 0.61978
 C835 C 0.85698 0.60811 0.59385
 C836 C 0.87635 0.58747 0.57350
 C837 C 0.67277 0.84540 0.14232
 C838 C 0.66003 0.86849 0.12012
 C839 C 0.64256 0.89544 0.09516
 C840 C 0.62326 0.91706 0.07553
 C841 C 1.17354 0.34759 0.64306
 C842 C 1.16064 0.37046 0.62078
 C843 C 1.14292 0.39695 0.59561
 C844 C 1.12343 0.41812 0.57578
 C845 C 0.67311 1.15429 -0.14411
 C846 C 0.66012 1.13168 -0.12165
 C847 C 0.64242 1.10544 -0.09626
 C848 C 0.62300 1.08445 -0.07621
 C849 C 1.17239 0.65508 0.35588
 C850 C 1.15949 0.63238 0.37831
 C851 C 1.14193 0.60598 0.40366
 C852 C 1.12263 0.58484 0.42366
 C853 C 0.32661 0.84493 -0.14110
 C854 C 0.33969 0.86735 -0.11854
 C855 C 0.35745 0.89344 -0.09305
 C856 C 0.37686 0.91455 -0.07308
 C857 C 0.82762 0.34269 0.35988
 C858 C 0.84039 0.36540 0.38234
 C859 C 0.85783 0.39200 0.40759
 C860 C 0.87704 0.41357 0.42732
 C861 C 1.15822 0.33327 0.14266
 C862 C 1.13482 0.34538 0.12034
 C863 C 1.10717 0.36144 0.09509
 C864 C 1.08488 0.37957 0.07510
 C865 C 0.65906 0.83251 0.64203
 C866 C 0.63522 0.84406 0.61990
 C867 C 0.60687 0.85955 0.59506
 C868 C 0.58395 0.87743 0.57552
 C869 C 1.16049 0.66960 -0.14393
 C870 C 1.13768 0.65678 -0.12130
 C871 C 1.11069 0.64011 -0.09559
 C872 C 1.08864 0.62181 -0.07535
 C873 C 0.65813 1.16731 0.35779
 C874 C 0.63510 1.15480 0.38027
 C875 C 0.60801 1.13833 0.40583
 C876 C 0.58600 1.12001 0.42597
 C877 C 0.84226 0.67005 0.14304
 C878 C 0.86499 0.65771 0.12026
 C879 C 0.89160 0.64137 0.09428
 C880 C 0.91313 0.62305 0.07378
 C881 C 0.33864 1.16856 0.64194
 C882 C 0.36124 1.15616 0.61917
 C883 C 0.38796 1.13979 0.59340
 C884 C 0.40974 1.12139 0.57324
 C885 C 0.84074 0.33176 -0.14423
 C886 C 0.86386 0.34429 -0.12186
 C887 C 0.89122 0.36081 -0.09657
 C888 C 0.91333 0.37920 -0.07660
 C889 C 0.34128 0.83069 0.35571
 C890 C 0.36406 0.84295 0.37837
 C891 C 0.39084 0.85919 0.40414
 C892 C 0.41244 0.87746 0.42451
 C893 C 1.15048 1.15674 0.34381
 C894 C 1.12841 1.13395 0.35919
 C895 C 1.10283 1.10660 0.37645
 C896 C 1.08248 1.08435 0.39397
 C897 C 0.64823 0.65916 -0.15635
 C898 C 0.62561 0.63688 -0.14106
 C899 C 0.59963 0.60988 -0.12394
 C900 C 0.57925 0.58764 -0.10649
 C901 C 0.85156 1.15449 0.65595
 C902 C 0.87452 1.13218 0.64101
 C903 C 0.90106 1.10532 0.62422
 C904 C 0.92193 1.08330 0.60695
 C905 C 0.34763 0.65171 0.15535
 C906 C 0.36936 0.62831 0.14035
 C907 C 0.39491 0.60060 0.12353
 C908 C 0.41566 0.57852 0.10626
 C909 C 1.15449 0.84109 0.65693
 C910 C 1.13241 0.86266 0.64028
 C911 C 1.10658 0.88878 0.62186
 C912 C 1.08590 0.91043 0.60404
 C913 C 0.65758 0.34518 0.15510
 C914 C 0.63641 0.36815 0.13904
 C915 C 0.61129 0.39534 0.12114
 C916 C 0.59058 0.41713 0.10352
 C917 C 0.84465 0.84489 0.34619
 C918 C 0.86716 0.86694 0.36182
 C919 C 0.89389 0.89312 0.37906
 C920 C 0.91568 0.91423 0.39628
 C921 C 0.34904 0.34171 -0.15471
 C922 C 0.37190 0.36340 -0.13914
 C923 C 0.39852 0.38960 -0.12187
 C924 C 0.41970 0.41118 -0.10457
 C925 C 1.15480 0.32771 -0.14248
 C926 C 1.13167 0.34054 -0.12035
 C927 C 1.10470 0.35816 -0.09551
 C928 C 1.08308 0.37759 -0.07602
 C929 C 0.65136 0.82599 0.35682
 C930 C 0.62829 0.83883 0.37908
 C931 C 0.60161 0.85641 0.40432
 C932 C 0.58035 0.87574 0.42428
 C933 C 0.84177 0.67305 -0.14200
 C934 C 0.86421 0.66023 -0.11934
 C935 C 0.89042 0.64280 -0.09378
 C936 C 0.91167 0.62359 -0.07381
 C937 C 0.34270 1.17243 0.35761
 C938 C 0.36484 1.15911 0.38035
 C939 C 0.39055 1.14121 0.40616
 C940 C 0.41132 1.12181 0.42644
 C941 C 1.15596 0.67227 0.14067
 C942 C 1.13357 0.65977 0.11787
 C943 C 1.10757 0.64266 0.09202
 C944 C 1.08653 0.62362 0.07179
 C945 C 0.65723 1.17048 0.64065
 C946 C 0.63463 1.15769 0.61803
 C947 C 0.60819 1.14038 0.59249
 C948 C 0.58668 1.12134 0.57253
 C949 C 0.84818 0.32687 0.14508
 C950 C 0.87074 0.34056 0.12279
 C951 C 0.89675 0.35896 0.09743
 C952 C 0.91747 0.37865 0.07728
 C953 C 0.34301 0.82681 0.64628
 C954 C 0.36566 0.84014 0.62378
 C955 C 0.39200 0.85800 0.59822
 C956 C 0.41315 0.87723 0.57797
 C957 C 0.33064 1.15901 -0.14282
 C958 C 0.34297 1.13641 -0.12003
 C959 C 0.35930 1.10988 -0.09409
 C960 C 0.37766 1.08835 -0.07369
 C961 C 0.83078 0.66069 0.35825
 C962 C 0.84298 0.63783 0.38090
 C963 C 0.85916 0.61080 0.40654
 C964 C 0.87744 0.58882 0.42665
 C965 C 0.66981 1.15941 0.14302
 C966 C 0.65729 1.13634 0.12068
 C967 C 0.64067 1.10900 0.09553
 C968 C 0.62213 1.08688 0.07572
 C969 C 1.16859 0.65931 0.64361
 C970 C 1.15631 0.63622 0.62121
 C971 C 1.14001 0.60897 0.59585
 C972 C 1.12168 0.58695 0.57584
 C973 C 0.66809 0.84368 -0.14362
 C974 C 0.65618 0.86708 -0.12131
 C975 C 0.64027 0.89459 -0.09601
 C976 C 0.62212 0.91671 -0.07597
 C977 C 1.16804 0.34264 0.35715
 C978 C 1.15618 0.36619 0.37938
 C979 C 1.14031 0.39400 0.40447
 C980 C 1.12217 0.41640 0.42430
 C981 C 0.33321 0.83838 0.14076
 C982 C 0.34493 0.86155 0.11817
 C983 C 0.36048 0.88906 0.09268
 C984 C 0.37836 0.91156 0.07274
 C985 C 0.83287 0.33888 0.64094
 C986 C 0.84469 0.36194 0.61832
 C987 C 0.86039 0.38928 0.59276
 C988 C 0.87835 0.41162 0.57277
 C989 C 1.15399 1.15593 0.65456
 C990 C 1.13158 1.13383 0.63894
 C991 C 1.10505 1.10760 0.62162
 C992 C 1.08373 1.08616 0.60432
 C993 C 0.65965 0.65086 0.15401
 C994 C 0.63844 0.62766 0.13830
 C995 C 0.61257 0.60078 0.12091
 C996 C 0.59091 0.57963 0.10361
 C997 C 1.15706 0.84849 0.34185
 C998 C 1.13524 0.87120 0.35751
 C999 C 1.10916 0.89754 0.37530
 C1000 C 1.08791 0.91840 0.39323
 C1001 C 0.65453 0.34663 -0.15851
 C1002 C 0.63209 0.36886 -0.14293
 C1003 C 0.60556 0.39490 -0.12520
 C1004 C 0.58428 0.41587 -0.10733
 C1005 C 0.84151 1.14910 0.34708
 C1006 C 0.86309 1.12601 0.36259
 C1007 C 0.88938 1.09922 0.37970
 C1008 C 0.91129 1.07805 0.39679
 C1009 C 0.34291 0.65279 -0.15336
 C1010 C 0.36516 0.63025 -0.13791
 C1011 C 0.39193 0.60382 -0.12087
 C1012 C 0.41383 0.58256 -0.10382
 C1013 C 0.84787 0.84523 0.65593
 C1014 C 0.87184 0.86620 0.64079
 C1015 C 0.90017 0.89096 0.62388
 C1016 C 0.92264 0.91127 0.60657
 C1017 C 0.34457 0.34886 0.15600
 C1018 C 0.36740 0.37091 0.14066
 C1019 C 0.39478 0.39651 0.12345
 C1020 C 0.41705 0.41688 0.10596
   
