data_POSCAR
  _audit_creation_date              2014-09-24
  _audit_creation_method            'ToBaCCo'
  _symmetry_space_group_name_H-M    'P1'
  _symmetry_Int_Tables_number       1
  _symmetry_cell_setting            triclinic
  loop_
  _symmetry_equiv_pos_as_xyz
 x,y,z
_cell_length_a 39.4248
_cell_length_b 39.1507
_cell_length_c 17.3423
_cell_angle_alpha 90.013200
_cell_angle_beta 89.955700
_cell_angle_gamma 120.974200
loop_
  _atom_site_label
  _atom_site_type_symbol
  _atom_site_fract_x
  _atom_site_fract_y
  _atom_site_fract_z
C1 C 0.49716 0.96395 0.54310
 C2 C 0.48506 0.96247 0.46547
 C3 C 0.49466 0.99785 0.42688
 C4 C 0.51869 1.03568 0.46062
 C5 C 0.53136 1.03760 0.53836
 C6 C 0.52139 1.00183 0.57652
 H7 H 0.53086 1.00356 0.63574
 H8 H 0.48559 0.99567 0.36716
 C9 C 0.03544 0.51959 0.53668
 C10 C 0.03522 0.52970 0.45867
 C11 C -0.00099 0.51800 0.42240
 C12 C -0.03748 0.49391 0.46022
 C13 C -0.03691 0.48339 0.53842
 C14 C -0.00062 0.49607 0.57507
 H15 H -0.00045 0.48928 0.63567
 H16 H -0.00059 0.52527 0.36196
 C17 C 0.48080 0.51653 0.54287
 C18 C 0.46881 0.50514 0.46533
 C19 C 0.48040 0.48130 0.42657
 C20 C 0.50517 0.46990 0.46137
 C21 C 0.51827 0.48189 0.53816
 C22 C 0.50697 0.50629 0.57634
 H23 H 0.51601 0.51457 0.63572
 H24 H 0.47245 0.47397 0.36640
 O25 O 0.39168 0.65148 -0.05464
 O26 O 0.39505 0.71858 -0.08464
 C27 C 0.37947 0.73914 -0.10004
 O28 O 0.34892 0.73461 -0.06584
 O29 O 0.28241 0.66828 -0.09820
 C30 C 0.26162 0.63099 -0.10930
 O31 O 0.26447 0.60588 -0.06778
 O32 O 0.33003 0.60519 -0.08773
 C33 C 0.36725 0.62235 -0.09613
 O34 O 0.38656 0.66294 0.09702
 O35 O 0.39307 0.73163 0.06829
 C36 C 0.36854 0.73838 0.10247
 O37 O 0.33218 0.72103 0.08484
 O38 O 0.26442 0.65666 0.05334
 C39 C 0.25696 0.62672 0.09458
 O40 O 0.27434 0.60724 0.08579
 O41 O 0.33753 0.60205 0.06611
 C42 C 0.36691 0.62559 0.10766
 Cr43 Cr 0.38951 0.69022 0.00624
 Cr44 Cr 0.30791 0.69398 -0.00636
 Cr45 Cr 0.30271 0.60718 -0.00087
 O46 O 0.33342 0.66385 -0.00017
 O47 O 0.60737 0.34140 -0.08073
 O48 O 0.61226 0.27811 -0.09608
 C49 C 0.63180 0.26084 -0.10305
 O50 O 0.66028 0.26761 -0.05883
 O51 O 0.72637 0.33624 -0.07323
 C52 C 0.74269 0.37264 -0.09240
 O53 O 0.73402 0.39690 -0.06254
 O54 O 0.66807 0.39443 -0.09008
 C55 C 0.63250 0.37411 -0.11171
 O56 O 0.60215 0.33127 0.07303
 O57 O 0.60306 0.26490 0.05739
 C58 C 0.62596 0.25980 0.10108
 O59 O 0.66323 0.27972 0.09483
 O60 O 0.73061 0.34579 0.08060
 C61 C 0.73703 0.37789 0.11151
 O62 O 0.72024 0.39638 0.09014
 O63 O 0.65403 0.39362 0.06255
 C64 C 0.62106 0.36778 0.09220
 Cr65 Cr 0.60860 0.30519 -0.01100
 Cr66 Cr 0.69389 0.30846 0.01035
 Cr67 Cr 0.69289 0.39289 0.00004
 O68 O 0.66522 0.33571 -0.00012
 C69 C 0.45282 0.86561 -0.31298
 N70 N 0.47459 0.90304 -0.28472
 N71 N 0.48985 0.93427 -0.33180
 C72 C 0.48347 0.92974 -0.40923
 N73 N 0.46163 0.89194 -0.43717
 N74 N 0.44686 0.86048 -0.39020
 C75 C 0.43348 0.83200 -0.25942
 N76 N 0.43169 0.79696 -0.27351
 N77 N 0.41475 0.76718 -0.22259
 C78 C 0.39841 0.77128 -0.15682
 N79 N 0.39988 0.80614 -0.14344
 N80 N 0.41744 0.83606 -0.19342
 C81 C 0.13770 0.56720 -0.32736
 N82 N 0.10873 0.52836 -0.32042
 N83 N 0.07664 0.51302 -0.36477
 C84 C 0.07247 0.53584 -0.41838
 N85 N 0.10158 0.57467 -0.42568
 N86 N 0.13361 0.59010 -0.38093
 C87 C 0.17172 0.58425 -0.27474
 N88 N 0.19715 0.62427 -0.27018
 N89 N 0.22642 0.63947 -0.21854
 C90 C 0.23132 0.61511 -0.16999
 N91 N 0.20616 0.57516 -0.17539
 N92 N 0.17689 0.56003 -0.22659
 C93 C 0.43310 0.56539 -0.31348
 N94 N 0.41465 0.54740 -0.38027
 N95 N 0.43054 0.53263 -0.42778
 C96 C 0.46536 0.53500 -0.41036
 N97 N 0.48353 0.55300 -0.34316
 N98 N 0.46794 0.56814 -0.29610
 C99 C 0.41564 0.58087 -0.25932
 N100 N 0.43820 0.60598 -0.20225
 N101 N 0.42261 0.61929 -0.15103
 C102 C 0.38374 0.60767 -0.15425
 N103 N 0.36101 0.58246 -0.21130
 N104 N 0.37676 0.56940 -0.26316
 C105 C 0.58043 0.13765 -0.32283
 N106 N 0.58795 0.10805 -0.30990
 N107 N 0.57272 0.07628 -0.35568
 C108 C 0.54979 0.07293 -0.41716
 N109 N 0.54229 0.10273 -0.42980
 N110 N 0.55727 0.13444 -0.38358
 C111 C 0.59550 0.17136 -0.26917
 N112 N 0.58111 0.19627 -0.26999
 N113 N 0.59310 0.22524 -0.21778
 C114 C 0.62009 0.23046 -0.16327
 N115 N 0.63482 0.20585 -0.16315
 N116 N 0.62263 0.17675 -0.21494
 C117 C 0.86492 0.43230 -0.31442
 N118 N 0.88795 0.41599 -0.32143
 N119 N 0.91877 0.43177 -0.36936
 C120 C 0.92731 0.46407 -0.41281
 N121 N 0.90419 0.48029 -0.40602
 N122 N 0.87358 0.46472 -0.35761
 C123 C 0.83223 0.41618 -0.25870
 N124 N 0.81540 0.43759 -0.23805
 N125 N 0.78677 0.42367 -0.18524
 C126 C 0.77372 0.38769 -0.15161
 N127 N 0.79032 0.36613 -0.17276
 N128 N 0.81919 0.38020 -0.22507
 C129 C 0.57529 0.43823 -0.33125
 N130 N 0.57838 0.47341 -0.31325
 N131 N 0.56060 0.48776 -0.35630
 C132 C 0.53961 0.46800 -0.42011
 N133 N 0.53718 0.43301 -0.43859
 N134 N 0.55438 0.41824 -0.39472
 C135 C 0.59216 0.42119 -0.27961
 N136 N 0.57419 0.38114 -0.27006
 N137 N 0.58740 0.36592 -0.21749
 C138 C 0.61941 0.39023 -0.17351
 N139 N 0.63776 0.43021 -0.18412
 N140 N 0.62417 0.44543 -0.23573
 C141 C 0.86109 0.44714 0.32796
 N142 N 0.89408 0.48175 0.30762
 N143 N 0.92653 0.49705 0.35094
 C144 C 0.92717 0.47886 0.41729
 N145 N 0.89377 0.44441 0.43785
 N146 N 0.86149 0.42867 0.39382
 C147 C 0.82661 0.42894 0.27677
 N148 N 0.80393 0.38872 0.27000
 N149 N 0.77476 0.37228 0.21838
 C150 C 0.76681 0.39548 0.17274
 N151 N 0.78904 0.43567 0.18055
 N152 N 0.81863 0.45211 0.23118
 C153 C 0.56153 0.13322 0.31563
 N154 N 0.58251 0.13420 0.37839
 N155 N 0.56839 0.10306 0.42582
 C156 C 0.53272 0.06960 0.41268
 N157 N 0.51219 0.06856 0.34876
 N158 N 0.52612 0.09981 0.30160
 C159 C 0.57766 0.16715 0.26221
 N160 N 0.55456 0.16927 0.20663
 N161 N 0.56969 0.19936 0.15645
 C162 C 0.60852 0.22826 0.15974
 N163 N 0.63155 0.22619 0.21550
 N164 N 0.61635 0.19631 0.26605
 C165 C 0.55398 0.42218 0.31260
 N166 N 0.51411 0.40483 0.31887
 N167 N 0.49843 0.41956 0.36703
 C168 C 0.52208 0.45181 0.41140
 N169 N 0.56192 0.46906 0.40516
 N170 N 0.57758 0.45456 0.35658
 C171 C 0.57148 0.40730 0.25704
 N172 N 0.61025 0.43005 0.23749
 N173 N 0.62605 0.41735 0.18525
 C174 C 0.60375 0.38124 0.15114
 N175 N 0.56504 0.35830 0.17117
 N176 N 0.54914 0.37118 0.22293
 C177 C 0.13451 0.57636 0.31431
 N178 N 0.10815 0.58869 0.30763
 N179 N 0.07712 0.57468 0.35479
 C180 C 0.07156 0.54816 0.41104
 N181 N 0.09811 0.53604 0.41797
 N182 N 0.12901 0.54987 0.37052
 C183 C 0.16735 0.59019 0.25937
 N184 N 0.18989 0.57314 0.25692
 N185 N 0.21862 0.58474 0.20468
 C186 C 0.22588 0.61390 0.15327
 N187 N 0.20350 0.63107 0.15620
 N188 N 0.17470 0.61935 0.20805
 C189 C 0.43092 0.86118 0.32508
 N190 N 0.46735 0.87440 0.35539
 N191 N 0.48406 0.90599 0.40183
 C192 C 0.46490 0.92548 0.41977
 N193 N 0.42857 0.91246 0.38913
 N194 N 0.41177 0.88071 0.34296
 C195 C 0.41367 0.82775 0.27043
 N196 N 0.37606 0.81211 0.24430
 N197 N 0.36128 0.78303 0.19193
 C198 C 0.38369 0.76873 0.16347
 N199 N 0.42120 0.78426 0.18993
 N200 N 0.43587 0.81312 0.24257
 C201 C 0.41977 0.55618 0.32583
 N202 N 0.44948 0.57895 0.37569
 N203 N 0.46433 0.56249 0.42134
 C204 C 0.44999 0.52265 0.41900
 N205 N 0.42040 0.49991 0.36882
 N206 N 0.40544 0.51636 0.32338
 C207 C 0.40470 0.57449 0.27261
 N208 N 0.37374 0.55135 0.22555
 N209 N 0.36127 0.56780 0.17435
 C210 C 0.37933 0.60801 0.16805
 N211 N 0.41015 0.63123 0.21550
 N212 N 0.42255 0.61475 0.26698
   
