data_POSCAR
  _audit_creation_date              2014-09-24
  _audit_creation_method            'ToBaCCo'
  _symmetry_space_group_name_H-M    'P1'
  _symmetry_Int_Tables_number       1
  _symmetry_cell_setting            triclinic
  loop_
  _symmetry_equiv_pos_as_xyz
 x,y,z
_cell_length_a 27.7319
_cell_length_b 29.2489
_cell_length_c 29.7867
_cell_angle_alpha 91.249300
_cell_angle_beta 87.532200
_cell_angle_gamma 89.787200
loop_
  _atom_site_label
  _atom_site_type_symbol
  _atom_site_fract_x
  _atom_site_fract_y
  _atom_site_fract_z
C1 C 0.24157 0.24561 0.24763
 C2 C 0.75628 0.73997 0.25360
 C3 C 0.75578 0.23990 0.74845
 C4 C 0.26752 0.74391 0.74856
 C5 C 0.05333 0.06767 0.02635
 H6 H 0.04880 0.07923 -0.00745
 C7 C 0.08127 0.09332 0.05561
 H8 H 0.09869 0.12420 0.04393
 C9 C 0.03556 0.01404 0.08303
 H10 H 0.01699 -0.01608 0.09438
 C11 C 0.06378 0.03815 0.11306
 H12 H 0.06660 0.02594 0.14691
 N13 N 0.03202 0.02817 0.04003
 C14 C 0.03331 -0.08158 -0.05573
 H15 H 0.00176 -0.09881 -0.04204
 C16 C 0.06490 -0.10500 -0.08596
 H17 H 0.05727 -0.14024 -0.09487
 C18 C 0.08063 -0.01462 -0.06162
 H19 H 0.08662 0.02065 -0.05214
 C20 C 0.11328 -0.03679 -0.09189
 H21 H 0.14453 -0.01819 -0.10431
 Zn22 Zn -0.00260 -0.00656 -0.00297
 N23 N 0.04169 -0.03723 -0.04396
 C24 C -0.03669 0.03547 -0.08039
 N25 N -0.04086 0.03440 -0.03479
 C26 C -0.07204 0.06264 -0.01105
 C27 C -0.10104 0.09327 -0.03323
 C28 C -0.06468 0.06583 -0.10392
 C29 C -0.02184 -0.08339 0.05092
 C30 C -0.05023 -0.11431 0.07531
 C31 C -0.12115 -0.08105 0.04460
 C32 C -0.09150 -0.04981 0.02184
 N33 N -0.04281 -0.05081 0.02614
 H34 H -0.01172 0.01269 -0.09866
 H35 H -0.07471 0.06096 0.02522
 H36 H -0.12645 0.11415 -0.01330
 H37 H -0.06050 0.06614 -0.14022
 H38 H 0.01703 -0.08476 0.05245
 H39 H -0.03317 -0.13907 0.09608
 H40 H -0.15990 -0.07933 0.04161
 H41 H -0.10755 -0.02463 0.00103
 C42 C 0.10558 -0.08268 -0.10466
 C43 C 0.08772 0.07790 0.09920
 C44 C -0.10047 -0.11308 0.07242
 C45 C -0.09738 0.09552 -0.08045
 C46 C 0.06511 0.57544 0.53606
 H47 H 0.06942 0.58022 0.50020
 C48 C 0.09138 0.60233 0.56551
 H49 H 0.11603 0.62774 0.55207
 C50 C 0.02706 0.53703 0.59708
 H51 H 0.00151 0.51201 0.60937
 C52 C 0.05223 0.56347 0.62776
 H53 H 0.04659 0.55745 0.66331
 N54 N 0.03448 0.54287 0.55213
 C55 C 0.02350 0.44298 0.44240
 H56 H -0.01530 0.43911 0.44312
 C57 C 0.05247 0.41658 0.41234
 H58 H 0.03582 0.39244 0.38976
 C59 C 0.09243 0.47902 0.47125
 H60 H 0.10802 0.50257 0.49487
 C61 C 0.12270 0.45394 0.44113
 H62 H 0.16138 0.45857 0.44184
 Zn63 Zn 0.00073 0.50738 0.50991
 N64 N 0.04374 0.47372 0.47078
 C65 C -0.02764 0.55203 0.43163
 N66 N -0.03595 0.54822 0.47669
 C67 C -0.06974 0.57453 0.49940
 C68 C -0.09805 0.60513 0.47653
 C69 C -0.05469 0.58259 0.40748
 C70 C -0.01923 0.43328 0.56576
 C71 C -0.04755 0.40070 0.58796
 C72 C -0.11755 0.43108 0.55308
 C73 C -0.08802 0.46350 0.53210
 N74 N -0.03991 0.46442 0.53922
 H75 H 0.00012 0.53153 0.41432
 H76 H -0.07523 0.57110 0.53535
 H77 H -0.12574 0.62402 0.49566
 H78 H -0.04736 0.58484 0.37161
 H79 H 0.01931 0.43409 0.57000
 H80 H -0.03065 0.37655 0.60949
 H81 H -0.15589 0.43151 0.54767
 H82 H -0.10361 0.48763 0.50989
 C83 C 0.10264 0.42246 0.41107
 C84 C 0.08507 0.59653 0.61203
 C85 C -0.09733 0.39927 0.58158
 C86 C -0.09074 0.60969 0.42974
 C87 C 0.55571 0.08343 0.50963
 H88 H 0.54720 0.09184 0.47571
 C89 C 0.58705 0.11134 0.53317
 H90 H 0.60222 0.14103 0.51685
 C91 C 0.54365 0.03622 0.57264
 H92 H 0.52654 0.00716 0.58815
 C93 C 0.57475 0.06333 0.59750
 H94 H 0.58147 0.05442 0.63178
 N95 N 0.53549 0.04609 0.52916
 C96 C 0.52683 -0.07281 0.44666
 H97 H 0.49786 -0.08912 0.46561
 C98 C 0.55600 -0.09885 0.41625
 H99 H 0.54917 -0.13513 0.41251
 C100 C 0.56998 -0.00582 0.42772
 H101 H 0.57532 0.03047 0.43204
 C102 C 0.60019 -0.03052 0.39730
 H103 H 0.62904 -0.01248 0.37988
 Zn104 Zn 0.49529 0.00881 0.49344
 N105 N 0.53446 -0.02714 0.45207
 C106 C 0.44650 0.03696 0.41736
 N107 N 0.45538 0.04741 0.46091
 C108 C 0.43474 0.08450 0.48237
 C109 C 0.40328 0.11262 0.46006
 C110 C 0.41508 0.06404 0.39381
 C111 C 0.47539 -0.06276 0.55466
 C112 C 0.44613 -0.09075 0.58172
 C113 C 0.37630 -0.04981 0.55785
 C114 C 0.40682 -0.02263 0.53136
 N115 N 0.45544 -0.02933 0.53025
 H116 H 0.46314 0.00711 0.40110
 H117 H 0.44255 0.09203 0.51702
 H118 H 0.38819 0.14235 0.47779
 H119 H 0.40797 0.05474 0.35934
 H120 H 0.51408 -0.06787 0.55288
 H121 H 0.46268 -0.11733 0.60067
 H122 H 0.33790 -0.04300 0.55872
 H123 H 0.39142 0.00394 0.51178
 C124 C 0.59338 -0.07781 0.39094
 C125 C 0.59768 0.10096 0.57751
 C126 C 0.39580 -0.08470 0.58329
 C127 C 0.39244 0.10218 0.41527
 C128 C 0.56848 0.56882 0.01643
 H129 H 0.56974 0.56902 -0.01982
 C130 C 0.59594 0.60037 0.04007
 H131 H 0.61934 0.62353 0.02159
 C132 C 0.53543 0.53947 0.08447
 H133 H 0.51059 0.51707 0.10190
 C134 C 0.56279 0.56998 0.10943
 H135 H 0.55933 0.56989 0.14579
 N136 N 0.53918 0.53890 0.03874
 C137 C 0.53530 0.41262 -0.02477
 H138 H 0.50923 0.40016 -0.00020
 C139 C 0.56490 0.38117 -0.04862
 H140 H 0.56116 0.34510 -0.04186
 C141 C 0.57062 0.47391 -0.06487
 H142 H 0.57237 0.51001 -0.07149
 C143 C 0.60041 0.44340 -0.09020
 H144 H 0.62539 0.45637 -0.11577
 Zn145 Zn 0.50012 0.49979 0.00371
 N146 N 0.53926 0.45822 -0.03235
 C147 C 0.45698 0.52835 -0.07668
 N148 N 0.46398 0.53794 -0.03259
 C149 C 0.44464 0.57594 -0.01179
 C150 C 0.41691 0.60626 -0.03535
 C151 C 0.42889 0.55760 -0.10152
 C152 C 0.47353 0.43883 0.07349
 C153 C 0.44234 0.41015 0.09767
 C154 C 0.37666 0.43721 0.05448
 C155 C 0.40896 0.46578 0.03151
 N156 N 0.45656 0.46568 0.04085
 H157 H 0.47259 0.49774 -0.09240
 H158 H 0.45103 0.58278 0.02329
 H159 H 0.40337 0.63678 -0.01794
 H160 H 0.42313 0.54912 -0.13644
 H161 H 0.51169 0.43843 0.07963
 H162 H 0.45664 0.38832 0.12287
 H163 H 0.33901 0.43756 0.04629
 H164 H 0.39614 0.48699 0.00524
 C165 C 0.59835 0.39651 -0.08143
 C166 C 0.59322 0.60117 0.08723
 C167 C 0.39346 0.40839 0.08754
 C168 C 0.40794 0.59701 -0.08077
 C169 C 0.20201 -0.15754 -0.19382
 C170 C 0.17109 -0.17971 -0.16309
 N171 N 0.17169 -0.22590 -0.16151
 C172 C 0.20190 -0.25117 -0.18930
 C173 C 0.23392 -0.22950 -0.22075
 N174 N 0.23241 -0.18266 -0.22162
 N175 N 0.20099 -0.11121 -0.19551
 C176 C 0.17060 -0.08601 -0.16758
 C177 C 0.13966 -0.10815 -0.13617
 N178 N 0.14085 -0.15471 -0.13517
 H179 H 0.20123 -0.28801 -0.18660
 H180 H 0.17025 -0.04927 -0.17063
 C181 C 0.19032 0.34494 0.31776
 C182 C 0.15099 0.32488 0.34083
 N183 N 0.14145 0.27991 0.33362
 C184 C 0.16952 0.25403 0.30429
 C185 C 0.20889 0.27404 0.28052
 N186 N 0.21793 0.31931 0.28813
 N187 N 0.20064 0.38962 0.32564
 C188 C 0.17335 0.41526 0.35574
 C189 C 0.13359 0.39543 0.37875
 N190 N 0.12331 0.35058 0.37047
 H191 H 0.16133 0.21815 0.29954
 H192 H 0.18213 0.45093 0.36107
 C193 C 0.68684 -0.15837 0.30387
 C194 C 0.65814 -0.17846 0.33781
 N195 N 0.66063 -0.22426 0.34348
 C196 C 0.69097 -0.25089 0.31700
 C197 C 0.72117 -0.23086 0.28353
 N198 N 0.71754 -0.18481 0.27769
 N199 N 0.68365 -0.11269 0.29766
 C200 C 0.65357 -0.08596 0.32433
 C201 C 0.62550 -0.10567 0.35950
 N202 N 0.62843 -0.15180 0.36478
 H203 H 0.69206 -0.28730 0.32247
 H204 H 0.65153 -0.04991 0.31753
 C205 C 0.68830 0.30141 -0.15451
 C206 C 0.66722 0.33814 -0.17606
 N207 N 0.67454 0.34232 -0.22107
 C208 C 0.70242 0.31167 -0.24548
 C209 C 0.72506 0.27526 -0.22395
 N210 N 0.71646 0.27107 -0.17881
 N211 N 0.68007 0.29649 -0.10967
 C212 C 0.65148 0.32662 -0.08536
 C213 C 0.63029 0.36363 -0.10679
 N214 N 0.63899 0.36853 -0.15179
 H215 H 0.70676 0.31562 -0.28143
 H216 H 0.64577 0.32199 -0.04958
 C217 C -0.18270 0.18610 -0.15428
 C218 C -0.16032 0.14777 -0.17509
 N219 N -0.16535 0.13968 -0.21966
 C220 C -0.19209 0.16811 -0.24433
 C221 C -0.21575 0.20635 -0.22350
 N222 N -0.20954 0.21436 -0.17882
 N223 N -0.17673 0.19486 -0.10998
 C224 C -0.14966 0.16674 -0.08530
 C225 C -0.12750 0.12759 -0.10577
 N226 N -0.13344 0.11952 -0.15051
 H227 H -0.19478 0.16112 -0.27995
 H228 H -0.14503 0.17569 -0.05039
 C229 C -0.17894 0.69460 0.35268
 C230 C -0.14815 0.66166 0.33201
 N231 N -0.14709 0.65586 0.28667
 C232 C -0.17618 0.68106 0.26108
 C233 C -0.20882 0.71296 0.28178
 N234 N -0.20847 0.71934 0.32728
 N235 N -0.17934 0.70090 0.39792
 C236 C -0.15092 0.67515 0.42367
 C237 C -0.12093 0.64074 0.40333
 N238 N -0.12022 0.63554 0.35767
 H239 H -0.17480 0.67563 0.22499
 H240 H -0.15197 0.68203 0.45943
 C241 C 0.29677 0.18404 0.34322
 C242 C 0.33204 0.15673 0.32061
 N243 N 0.33633 0.15708 0.27507
 C244 C 0.30712 0.18387 0.25109
 C245 C 0.27190 0.21197 0.27358
 N246 N 0.26787 0.21101 0.31938
 N247 N 0.29241 0.18368 0.38872
 C248 C 0.32214 0.15759 0.41283
 C249 C 0.35846 0.13072 0.39044
 N250 N 0.36196 0.13085 0.34462
 H251 H 0.31182 0.18402 0.21483
 H252 H 0.31680 0.15759 0.44898
 C253 C 0.32160 0.68549 -0.15546
 C254 C 0.35477 0.65552 -0.17721
 N255 N 0.35941 0.65489 -0.22270
 C256 C 0.33191 0.68253 -0.24754
 C257 C 0.29745 0.71267 -0.22604
 N258 N 0.29453 0.71329 -0.18008
 N259 N 0.31634 0.68595 -0.11003
 C260 C 0.34314 0.65790 -0.08515
 C261 C 0.37743 0.62807 -0.10665
 N262 N 0.38196 0.62765 -0.15247
 H263 H 0.33792 0.68148 -0.28352
 H264 H 0.33676 0.65859 -0.04912
 C265 C -0.18811 -0.20080 0.15171
 C266 C -0.15356 -0.17274 0.17130
 N267 N -0.14913 -0.17275 0.21645
 C268 C -0.17762 -0.19969 0.24299
 C269 C -0.21194 -0.22885 0.22363
 N270 N -0.21591 -0.22839 0.17811
 N271 N -0.19375 -0.19954 0.10668
 C272 C -0.16630 -0.17143 0.08033
 C273 C -0.13103 -0.14390 0.09978
 N274 N -0.12550 -0.14536 0.14494
 H275 H -0.17345 -0.19861 0.27895
 H276 H -0.17147 -0.17097 0.04453
 C277 C -0.18639 0.30545 0.65228
 C278 C -0.14642 0.32515 0.67224
 N279 N -0.13762 0.31582 0.71553
 C280 C -0.16708 0.28768 0.73985
 C281 C -0.20724 0.26718 0.71995
 N282 N -0.21569 0.27736 0.67650
 N283 N -0.19616 0.31576 0.60941
 C284 C -0.16789 0.34532 0.58564
 C285 C -0.12793 0.36561 0.60565
 N286 N -0.11805 0.35457 0.64853
 H287 H -0.15978 0.28213 0.77469
 H288 H -0.17643 0.35266 0.55143
 C289 C 0.30731 -0.17270 0.66241
 C290 C 0.35418 -0.16210 0.67468
 N291 N 0.37164 -0.18060 0.71206
 C292 C 0.34485 -0.21029 0.73716
 C293 C 0.29829 -0.22346 0.72370
 N294 N 0.28060 -0.20246 0.68720
 N295 N 0.28966 -0.15413 0.62514
 C296 C 0.31690 -0.12544 0.59935
 C297 C 0.36428 -0.11478 0.61126
 N298 N 0.38160 -0.13360 0.64889
 H299 H 0.36008 -0.22347 0.76712
 H300 H 0.30197 -0.11220 0.56930
 C301 C 0.30121 0.31471 0.15492
 C302 C 0.33802 0.33706 0.17745
 N303 N 0.34377 0.32904 0.22156
 C304 C 0.31411 0.29987 0.24431
 C305 C 0.27674 0.27727 0.22201
 N306 N 0.27182 0.28531 0.17749
 N307 N 0.29492 0.32329 0.11098
 C308 C 0.32370 0.35347 0.08853
 C309 C 0.36075 0.37603 0.11099
 N310 N 0.36707 0.36687 0.15501
 H311 H 0.31923 0.29462 0.27965
 H312 H 0.31820 0.35911 0.05334
 C313 C 0.17961 0.14947 0.18608
 C314 C 0.14880 0.17325 0.15857
 N315 N 0.14798 0.21964 0.16044
 C316 C 0.17690 0.24336 0.18832
 C317 C 0.20909 0.21977 0.21521
 N318 N 0.20887 0.17310 0.21348
 N319 N 0.17968 0.10308 0.18511
 C320 C 0.15025 0.07930 0.15782
 C321 C 0.11952 0.10293 0.12982
 N322 N 0.11978 0.14955 0.13084
 H323 H 0.17489 0.28033 0.18959
 H324 H 0.15150 0.04231 0.15743
 C325 C 0.16682 0.67660 0.70106
 C326 C 0.18600 0.66316 0.65864
 N327 N 0.23145 0.67574 0.64600
 C328 C 0.25868 0.70136 0.67381
 C329 C 0.23959 0.71606 0.71688
 N330 N 0.19377 0.70237 0.72869
 N331 N 0.12141 0.66386 0.71400
 C332 C 0.09427 0.63806 0.68628
 C333 C 0.11335 0.62443 0.64347
 N334 N 0.15893 0.63764 0.63076
 H335 H 0.29459 0.71068 0.66185
 H336 H 0.05795 0.62907 0.69736
 C337 C 0.69564 0.18093 0.65120
 C338 C 0.65737 0.15820 0.67318
 N339 N 0.65162 0.16192 0.71858
 C340 C 0.68226 0.18768 0.74297
 C341 C 0.72052 0.21131 0.72107
 N342 N 0.72622 0.20651 0.67552
 N343 N 0.70170 0.17709 0.60586
 C344 C 0.67090 0.15177 0.58132
 C345 C 0.63199 0.12911 0.60308
 N346 N 0.62659 0.13277 0.64877
 H347 H 0.67694 0.18975 0.77916
 H348 H 0.67740 0.14884 0.54532
 C349 C 0.67676 0.69296 0.16342
 C350 C 0.66732 0.64855 0.17799
 N351 N 0.68567 0.63441 0.21676
 C352 C 0.71390 0.66236 0.24132
 C353 C 0.72510 0.70686 0.22631
 N354 N 0.70461 0.72110 0.18812
 N355 N 0.65857 0.70699 0.12441
 C356 C 0.63166 0.67837 0.09909
 C357 C 0.62222 0.63363 0.11356
 N358 N 0.64015 0.62011 0.15303
 H359 H 0.72712 0.64981 0.27239
 H360 H 0.61729 0.69068 0.06837
   
