data_POSCAR
  _audit_creation_date              2014-09-24
  _audit_creation_method            'ToBaCCo'
  _symmetry_space_group_name_H-M    'P1'
  _symmetry_Int_Tables_number       1
  _symmetry_cell_setting            triclinic
  loop_
  _symmetry_equiv_pos_as_xyz
 x,y,z
_cell_length_a 32.1541
_cell_length_b 32.1482
_cell_length_c 32.1974
_cell_angle_alpha 98.141300
_cell_angle_beta 80.187800
_cell_angle_gamma 100.585700
loop_
  _atom_site_label
  _atom_site_type_symbol
  _atom_site_fract_x
  _atom_site_fract_y
  _atom_site_fract_z
O1 O 0.56275 0.52540 0.03682
 O2 O 0.44784 0.51355 0.02929
 O3 O 0.49937 0.46212 0.03876
 O4 O 0.51133 0.57648 0.02948
 O5 O 0.52580 0.56353 -0.04035
 O6 O 0.51400 0.44876 -0.03099
 O7 O 0.46251 0.50025 -0.04044
 O8 O 0.57705 0.51226 -0.03300
 Cu9 Cu 0.50372 0.52052 0.04063
 Cu10 Cu 0.52112 0.50471 -0.04324
 C11 C 0.58929 0.52101 0.00310
 C12 C 0.43588 0.50549 -0.00701
 C13 C 0.50525 0.43619 0.00561
 C14 C 0.52069 0.58935 -0.00692
 O15 O -0.03794 0.53609 0.49949
 O16 O -0.02980 0.42227 0.48775
 O17 O -0.02827 0.48286 0.55045
 O18 O -0.03738 0.47544 0.43692
 O19 O 0.03302 0.49147 0.42177
 O20 O 0.04206 0.49904 0.53500
 O21 O 0.04059 0.43814 0.47247
 O22 O 0.03238 0.55235 0.48406
 Cu23 Cu -0.04044 0.47768 0.49534
 Cu24 Cu 0.04412 0.49697 0.47695
 C25 C -0.00433 0.56341 0.49316
 C26 C 0.00669 0.41095 0.47802
 C27 C 0.00856 0.49173 0.56179
 C28 C -0.00365 0.48218 0.41021
 O29 O 0.48862 0.02843 0.58028
 O30 O 0.50084 0.03481 0.46557
 O31 O 0.43791 0.03560 0.52783
 O32 O 0.55166 0.02541 0.51808
 O33 O 0.53429 -0.04461 0.50660
 O34 O 0.42085 -0.03450 0.51654
 O35 O 0.48348 -0.03522 0.45402
 O36 O 0.47144 -0.04165 0.56913
 Cu37 Cu 0.49665 0.03812 0.52397
 Cu38 Cu 0.47597 -0.04607 0.51034
 C39 C 0.47788 -0.00761 0.59412
 C40 C 0.49354 0.00106 0.44048
 C41 C 0.41022 0.00221 0.52375
 C42 C 0.56207 -0.01144 0.51117
 C43 C 0.49858 -0.07131 -0.06990
 C44 C 0.48683 -0.03275 -0.07518
 C45 C 0.48570 -0.00035 -0.04101
 C46 C 0.49815 -0.00526 -0.00221
 C47 C 0.51092 -0.04407 0.00170
 C48 C 0.51015 -0.07748 -0.03149
 C49 C 0.49789 0.02978 0.03396
 C50 C 0.49308 0.02062 0.07626
 C51 C 0.49408 0.05326 0.11024
 C52 C 0.49742 0.09555 0.10200
 C53 C 0.50094 0.10551 0.06037
 C54 C 0.50237 0.07269 0.02659
 H55 H 0.49870 -0.09671 -0.09588
 H56 H 0.47432 0.02828 -0.04490
 H57 H 0.52221 -0.04855 0.03027
 H58 H 0.48777 -0.01199 0.08331
 H59 H 0.49840 0.12099 0.12794
 H60 H 0.50661 0.08097 -0.00540
 C61 C -0.07214 0.51154 1.07228
 C62 C -0.07712 0.51942 1.03192
 C63 C -0.04268 0.51790 0.99878
 C64 C -0.00412 0.50599 1.00476
 C65 C -0.00052 0.49716 1.04564
 C66 C -0.03377 0.50126 1.07968
 C67 C 0.03197 0.50296 0.96857
 C68 C 0.07468 0.50686 0.97585
 C69 C 0.10824 0.50298 0.94202
 C70 C 0.09941 0.49785 0.90023
 C71 C 0.05749 0.49510 0.89201
 C72 C 0.02400 0.49610 0.92619
 H73 H -0.09868 0.51227 1.09796
 H74 H -0.04629 0.52667 0.96856
 H75 H 0.02811 0.48741 1.05161
 H76 H 0.08229 0.51258 1.00776
 H77 H 0.12548 0.49718 0.87408
 H78 H -0.00836 0.49090 0.91917
 C79 C -0.09872 -0.10170 0.50184
 C80 C -0.05662 -0.10974 0.49704
 C81 C -0.02251 -0.07547 0.49390
 C82 C -0.02993 -0.03302 0.49814
 C83 C -0.07269 -0.02595 0.50454
 C84 C -0.10704 -0.05996 0.50492
 C85 C 0.00650 0.00374 0.49596
 C86 C 0.00131 0.04289 0.48400
 C87 C 0.03468 0.07785 0.48315
 C88 C 0.07456 0.07295 0.49192
 C89 C 0.08124 0.03409 0.50232
 C90 C 0.04685 0.00016 0.50563
 H91 H -0.12499 -0.12817 0.50202
 H92 H 0.00974 -0.08232 0.48850
 H93 H -0.07987 0.00610 0.50992
 H94 H -0.02842 0.04656 0.47465
 H95 H 0.10037 0.09988 0.49172
 H96 H 0.05212 -0.02899 0.51540
 C97 C -0.18524 0.55556 1.04962
 C98 C -0.20290 0.53356 1.01434
 C99 C -0.17828 0.50957 0.98326
 C100 C -0.13662 0.50644 0.98809
 C101 C -0.36600 0.52562 1.00572
 C102 C -0.14360 0.55246 1.05453
 C103 C -0.24712 0.53325 1.01146
 C104 C -0.28447 0.53178 1.00954
 C105 C -0.32841 0.52888 1.00754
 C106 C -0.11915 0.52715 1.02423
 H107 H -0.20402 0.57424 1.07386
 H108 H -0.19172 0.49226 0.95592
 H109 H -0.11876 0.48634 0.96450
 H110 H -0.13080 0.56919 1.08242
 C111 C 0.21121 0.53209 0.99039
 C112 C 0.23576 0.50290 0.96635
 C113 C 0.21881 0.47415 0.93422
 C114 C 0.17750 0.47444 0.92621
 C115 C 0.39403 0.50357 0.98957
 C116 C 0.16981 0.53242 0.98244
 C117 C 0.27855 0.50273 0.97408
 C118 C 0.31463 0.50258 0.97981
 C119 C 0.35725 0.50277 0.98557
 C120 C 0.15248 0.50355 0.95023
 H121 H 0.22409 0.55466 1.01518
 H122 H 0.23750 0.45142 0.91541
 H123 H 0.16485 0.45144 0.90161
 H124 H 0.15157 0.55554 1.00114
 C125 C -0.00665 -0.21039 0.46765
 C126 C -0.03209 -0.23708 0.49622
 C127 C -0.06573 -0.22234 0.52458
 C128 C -0.07384 -0.18110 0.52455
 C129 C -0.00800 -0.39490 0.49507
 C130 C -0.01469 -0.16906 0.46758
 C131 C -0.02416 -0.27977 0.49621
 C132 C -0.01823 -0.31575 0.49622
 C133 C -0.01222 -0.35825 0.49592
 C134 C -0.04838 -0.15392 0.49610
 H135 H 0.01934 -0.22154 0.44538
 H136 H -0.08564 -0.24270 0.54683
 H137 H -0.09963 -0.17020 0.54727
 H138 H 0.00515 -0.14912 0.44495
 C139 C -0.01414 0.17791 0.49111
 C140 C 0.01841 0.20405 0.46766
 C141 C 0.05493 0.18791 0.44671
 C142 C 0.05952 0.14622 0.45030
 C143 C 0.00957 0.36652 0.47372
 C144 C -0.00963 0.13619 0.49472
 C145 C 0.01560 0.24816 0.46741
 C146 C 0.01365 0.28538 0.46843
 C147 C 0.01154 0.32912 0.47082
 C148 C 0.02765 0.12018 0.47504
 H149 H -0.04246 0.19016 0.50762
 H150 H 0.08031 0.20786 0.42846
 H151 H 0.08833 0.13458 0.43435
 H152 H -0.03447 0.11709 0.51437
 C153 C 0.49077 0.01631 -0.17635
 C154 C 0.46843 -0.01725 -0.20065
 C155 C 0.44924 -0.05461 -0.18275
 C156 C 0.45362 -0.05900 -0.14122
 C157 C 0.47379 -0.00972 -0.36355
 C158 C 0.49516 0.01199 -0.13477
 C159 C 0.46783 -0.01461 -0.24477
 C160 C 0.46863 -0.01293 -0.28206
 C161 C 0.47090 -0.01125 -0.32596
 C162 C 0.47742 -0.02609 -0.11709
 H163 H 0.50592 0.04529 -0.18997
 H164 H 0.43187 -0.08077 -0.20127
 H165 H 0.43913 -0.08847 -0.12825
 H166 H 0.51401 0.03768 -0.11712
 C167 C 0.51651 0.00496 0.20355
 C168 C 0.49315 0.02669 0.23775
 C169 C 0.46917 0.05634 0.23024
 C170 C 0.46890 0.06460 0.18879
 C171 C 0.49532 0.00435 0.39617
 C172 C 0.51627 0.01313 0.16207
 C173 C 0.49435 0.01926 0.28060
 C174 C 0.49520 0.01373 0.31671
 C175 C 0.49569 0.00817 0.35937
 C176 C 0.49267 0.04326 0.15422
 H177 H 0.53530 -0.01796 0.20897
 H178 H 0.45087 0.07329 0.25646
 H179 H 0.45002 0.08757 0.18377
 H180 H 0.53536 -0.00340 0.13620
 C181 C 0.54821 -0.18440 -0.05487
 C182 C 0.52929 -0.20320 -0.01812
 C183 C 0.50681 -0.17981 0.01543
 C184 C 0.50206 -0.13820 0.01174
 C185 C 0.52500 -0.36603 -0.01017
 C186 C 0.54349 -0.14280 -0.05863
 C187 C 0.53039 -0.24733 -0.01594
 C188 C 0.52986 -0.28462 -0.01429
 C189 C 0.52779 -0.32849 -0.01227
 C190 C 0.51963 -0.11956 -0.02569
 H191 H 0.56568 -0.20224 -0.08101
 H192 H 0.49187 -0.19416 0.04393
 H193 H 0.48313 -0.12128 0.03742
 H194 H 0.55785 -0.12906 -0.08759
 C195 C 0.47456 0.21708 0.07003
 C196 C 0.50217 0.23381 0.03570
 C197 C 0.53001 0.20889 0.00975
 C198 C 0.53004 0.16730 0.01793
 C199 C 0.50314 0.39200 0.00994
 C200 C 0.47454 0.17555 0.07827
 C201 C 0.50208 0.27665 0.02744
 C202 C 0.50202 0.31272 0.02114
 C203 C 0.50229 0.35529 0.01462
 C204 C 0.50220 0.15012 0.05224
 H205 H 0.45287 0.23607 0.09032
 H206 H 0.55170 0.22161 -0.01677
 H207 H 0.55206 0.14871 -0.00236
 H208 H 0.45234 0.16304 0.10456
 C209 C -0.20160 -0.01446 0.48451
 C210 C -0.23571 -0.03790 0.50887
 C211 C -0.22779 -0.06807 0.53268
 C212 C -0.18594 -0.07502 0.53187
 C213 C -0.39406 -0.01591 0.50951
 C214 C -0.15978 -0.02133 0.48367
 C215 C -0.27886 -0.03138 0.50893
 C216 C -0.31502 -0.02611 0.50885
 C217 C -0.35752 -0.02034 0.50893
 C218 C -0.15145 -0.05181 0.50722
 H219 H -0.20736 0.00886 0.46585
 H220 H -0.25396 -0.08634 0.55172
 H221 H -0.18053 -0.09836 0.55067
 H222 H -0.13402 -0.00341 0.46388
 C223 C 0.20162 0.04125 0.48626
 C224 C 0.20740 0.02016 0.51943
 C225 C 0.17186 0.00335 0.54726
 C226 C 0.13062 0.00772 0.54189
 C227 C 0.36612 0.00598 0.52625
 C228 C 0.16060 0.04565 0.48085
 C229 C 0.24996 0.01560 0.52410
 C230 C 0.28623 0.01235 0.52630
 C231 C 0.32917 0.00891 0.52704
 C232 C 0.12462 0.02904 0.50863
 H233 H 0.22888 0.05415 0.46440
 H234 H 0.17602 -0.01307 0.57305
 H235 H 0.10355 -0.00505 0.56397
 H236 H 0.15695 0.06161 0.45455
 C237 C -0.00492 0.45770 1.17293
 C238 C -0.01977 0.48630 1.20679
 C239 C -0.03874 0.51966 1.19903
 C240 C -0.04308 0.52443 1.15768
 C241 C -0.00700 0.48010 1.36614
 C242 C -0.00923 0.46244 1.13138
 C243 C -0.01557 0.48206 1.24967
 C244 C -0.01264 0.48008 1.28611
 C245 C -0.00958 0.47943 1.32916
 C246 C -0.02853 0.49581 1.12339
 H247 H 0.00983 0.43175 1.17865
 H248 H -0.05012 0.54211 1.22497
 H249 H -0.05745 0.55083 1.15245
 H250 H 0.00193 0.43972 1.10564
 C251 C 0.01254 0.51596 0.79674
 C252 C 0.03415 0.49120 0.76377
 C253 C 0.06274 0.46683 0.77274
 C254 C 0.07000 0.46754 0.81448
 C255 C 0.01266 0.49253 0.60559
 C256 C 0.01973 0.51671 0.83845
 C257 C 0.02759 0.49149 0.72069
 C258 C 0.02241 0.49198 0.68456
 C259 C 0.01684 0.49249 0.64209
 C260 C 0.04871 0.49267 0.84780
 H261 H -0.00953 0.53507 0.79015
 H262 H 0.07960 0.44749 0.74744
 H263 H 0.09215 0.44836 0.82071
 H264 H 0.00332 0.53687 0.86329
   
