data_POSCAR
  _audit_creation_date              2014-09-24
  _audit_creation_method            'ToBaCCo'
  _symmetry_space_group_name_H-M    'P1'
  _symmetry_Int_Tables_number       1
  _symmetry_cell_setting            triclinic
  loop_
  _symmetry_equiv_pos_as_xyz
 x,y,z
_cell_length_a 23.7784
_cell_length_b 24.4242
_cell_length_c 61.6021
_cell_angle_alpha 91.421000
_cell_angle_beta 93.046400
_cell_angle_gamma 117.374500
loop_
  _atom_site_label
  _atom_site_type_symbol
  _atom_site_fract_x
  _atom_site_fract_y
  _atom_site_fract_z
C1 C -0.04630 0.07129 0.51268
 C2 C -0.10236 0.02476 0.49732
 C3 C -0.08676 -0.01077 0.48385
 C4 C -0.01641 0.00369 0.48690
 C5 C -0.02180 0.03123 0.52454
 C6 C -0.00623 -0.00391 0.51120
 C7 C 0.00498 0.10809 0.49743
 C8 C 0.02089 0.07342 0.48392
 H9 H -0.15074 0.01699 0.49789
 H10 H -0.00286 -0.02451 0.47603
 H11 H -0.02310 0.02626 0.54197
 H12 H 0.02718 0.15804 0.49755
 C13 C 0.96234 -0.16165 0.18503
 C14 C 1.01257 -0.17104 0.17285
 C15 C 1.05152 -0.12051 0.16198
 C16 C 1.03635 -0.06555 0.16443
 C17 C 0.99825 -0.10616 0.19885
 C18 C 1.03995 -0.05323 0.18793
 C19 C 0.92775 -0.14369 0.16710
 C20 C 0.96584 -0.09342 0.15644
 H21 H 1.01605 -0.21362 0.17228
 H22 H 1.06669 -0.02554 0.15513
 H23 H 0.99290 -0.10519 0.21619
 H24 H 0.87742 -0.17052 0.16253
 C25 C 0.09705 1.10476 0.85061
 C26 C 0.10726 1.16543 0.84032
 C27 C 0.05925 1.15824 0.82532
 C28 C 0.00568 1.09121 0.82209
 C29 C 0.03174 1.08056 0.85976
 C30 C -0.01578 1.07350 0.84502
 C31 C 0.08750 1.06088 0.83106
 C32 C 0.04005 1.05351 0.81626
 H33 H 0.14735 1.20990 0.84462
 H34 H -0.03356 1.08378 0.80989
 H35 H 0.02495 1.07531 0.87700
 H36 H 0.11754 1.03896 0.82877
 O37 O 0.59183 0.02890 -0.01897
 O38 O 0.49973 0.02097 0.02846
 O39 O 0.60615 0.01610 0.02264
 O40 O 0.49015 0.04004 -0.01281
 O41 O 0.43435 -0.06078 -0.01901
 O42 O 0.54985 -0.08453 0.01613
 O43 O 0.44434 -0.07973 0.02193
 O44 O 0.53582 -0.07203 -0.02496
 Cu45 Cu 0.55264 0.03664 0.00556
 Cu46 Cu 0.48543 -0.08427 -0.00204
 C47 C 0.57948 -0.02055 -0.03002
 C48 C 0.45567 -0.03101 0.03314
 C49 C 0.59822 -0.03837 0.02522
 C50 C 0.44248 -0.00642 -0.02204
 O51 O 0.02381 0.51812 0.64967
 O52 O 0.01634 0.63746 0.68517
 O53 O 0.02589 0.53613 0.69143
 O54 O 0.01958 0.62095 0.64367
 O55 O -0.08504 0.56985 0.64129
 O56 O -0.07858 0.48327 0.68878
 O57 O -0.08818 0.58484 0.68323
 O58 O -0.08081 0.46669 0.64679
 Cu59 Cu 0.03184 0.58337 0.66784
 Cu60 Cu -0.09366 0.52103 0.66486
 C61 C -0.02722 0.47213 0.64203
 C62 C -0.03716 0.63192 0.69012
 C63 C -0.02506 0.49436 0.69806
 C64 C -0.03364 0.61012 0.63430
 O65 O 0.57589 0.49138 0.35941
 O66 O 0.47192 0.36663 0.31982
 O67 O 0.57646 0.47033 0.31756
 O68 O 0.46952 0.38865 0.36078
 O69 O 0.41537 0.43971 0.35333
 O70 O 0.51936 0.51881 0.31085
 O71 O 0.41590 0.41586 0.31213
 O72 O 0.52091 0.54177 0.35231
 Cu73 Cu 0.52939 0.42455 0.34012
 Cu74 Cu 0.46250 0.48413 0.33146
 C75 C 0.56660 0.53801 0.36269
 C76 C 0.42559 0.36915 0.30953
 C77 C 0.56557 0.50871 0.30679
 C78 C 0.42343 0.40000 0.36412
 C79 C -0.11993 0.15860 0.54395
 C80 C -0.06774 0.19999 0.55812
 C81 C -0.00970 0.19739 0.55697
 C82 C -0.00492 0.15482 0.54254
 C83 C -0.05673 0.11416 0.52852
 C84 C -0.11437 0.11667 0.52940
 C85 C 0.04381 0.23757 0.57008
 C86 C 0.04182 0.28176 0.58408
 C87 C -0.01438 0.28726 0.58572
 C88 C -0.07066 0.24438 0.57308
 C89 C -0.12786 0.24709 0.57596
 C90 C -0.12990 0.29086 0.59030
 C91 C -0.07501 0.33445 0.60205
 C92 C -0.01627 0.33383 0.59977
 C93 C 0.03840 0.38063 0.61144
 C94 C 0.03444 0.42505 0.62501
 C95 C -0.02389 0.42464 0.62754
 C96 C -0.07853 0.37905 0.61599
 H97 H -0.16547 0.15820 0.54334
 H98 H 0.04011 0.15380 0.54192
 H99 H -0.15549 0.08720 0.51879
 H100 H 0.08814 0.23523 0.56938
 H101 H 0.08528 0.31038 0.59370
 H102 H -0.17246 0.21524 0.56759
 H103 H -0.17500 0.29093 0.59203
 H104 H 0.08532 0.38516 0.61020
 H105 H 0.07753 0.45994 0.63361
 H106 H -0.12388 0.37868 0.61762
 C107 C 0.88436 0.69379 0.21866
 C108 C 0.83077 0.69841 0.22572
 C109 C 0.82050 0.74759 0.21815
 C110 C 0.86322 0.79108 0.20508
 C111 C 0.91605 0.78632 0.19808
 C112 C 0.92624 0.73710 0.20508
 C113 C 0.76816 0.75430 0.22390
 C114 C 0.72475 0.71283 0.23696
 C115 C 0.73253 0.66315 0.24519
 C116 C 0.78744 0.65688 0.24015
 C117 C 0.79802 0.61081 0.25029
 C118 C 0.75693 0.57295 0.26508
 C119 C 0.70241 0.57772 0.26971
 C120 C 0.68832 0.62127 0.25910
 C121 C 0.63026 0.62130 0.26285
 C122 C 0.59073 0.58361 0.27786
 C123 C 0.60674 0.54376 0.28960
 C124 C 0.66206 0.53978 0.28505
 H125 H 0.89509 0.65717 0.22328
 H126 H 0.85565 0.82990 0.20049
 H127 H 0.96727 0.73250 0.20064
 H128 H 0.76061 0.79229 0.21826
 H129 H 0.68676 0.72272 0.24102
 H130 H 0.83907 0.60433 0.24769
 H131 H 0.76793 0.53947 0.27295
 H132 H 0.61336 0.64938 0.25428
 H133 H 0.54741 0.58647 0.28040
 H134 H 0.67424 0.50806 0.29364
 C135 C 0.24735 0.15116 -0.11085
 C136 C 0.23443 0.09402 -0.10177
 C137 C 0.17582 0.04231 -0.10851
 C138 C 0.13283 0.04790 -0.12350
 C139 C 0.14606 0.10436 -0.13252
 C140 C 0.20389 0.15609 -0.12598
 C141 C 0.16001 -0.01527 -0.10044
 C142 C 0.20180 -0.02359 -0.08609
 C143 C 0.26157 0.02574 -0.07911
 C144 C 0.27753 0.08596 -0.08656
 C145 C 0.33580 0.13581 -0.07850
 C146 C 0.37754 0.12712 -0.06403
 C147 C 0.36362 0.06843 -0.05725
 C148 C 0.30570 0.01678 -0.06482
 C149 C 0.29485 -0.04204 -0.05802
 C150 C 0.33912 -0.04890 -0.04417
 C151 C 0.39581 0.00227 -0.03650
 C152 C 0.40770 0.06100 -0.04306
 H153 H 0.29099 0.19275 -0.10688
 H154 H 0.08843 0.00740 -0.12850
 H155 H 0.21656 0.20047 -0.13257
 H156 H 0.11478 -0.05473 -0.10540
 H157 H 0.18511 -0.06958 -0.08058
 H158 H 0.35043 0.18256 -0.08293
 H159 H 0.42165 0.16685 -0.05826
 H160 H 0.25324 -0.08414 -0.06337
 H161 H 0.32872 -0.09488 -0.03949
 H162 H 0.45176 0.10094 -0.03739
 C163 C 0.06831 0.91318 0.54246
 C164 C 0.01501 0.85555 0.54532
 C165 C -0.04369 0.84334 0.53417
 C166 C -0.04863 0.88784 0.52136
 C167 C 0.00371 0.94551 0.51983
 C168 C 0.06228 0.95762 0.53008
 C169 C -0.09797 0.78810 0.53670
 C170 C -0.09668 0.74623 0.55127
 C171 C -0.04050 0.75778 0.56381
 C172 C 0.01702 0.81141 0.55980
 C173 C 0.07425 0.81978 0.57081
 C174 C 0.07480 0.77976 0.58633
 C175 C 0.01848 0.73030 0.59172
 C176 C -0.04001 0.71806 0.58045
 C177 C -0.09588 0.66803 0.58699
 C178 C -0.09352 0.63267 0.60415
 C179 C -0.03563 0.64549 0.61534
 C180 C 0.02033 0.69383 0.60874
 H181 H 0.11451 0.92680 0.55047
 H182 H -0.09442 0.87933 0.51384
 H183 H 0.10284 1.00265 0.52930
 H184 H -0.14260 0.77802 0.52785
 H185 H -0.14086 0.70504 0.55238
 H186 H 0.11981 0.85702 0.56778
 H187 H 0.11981 0.78865 0.59461
 H188 H -0.14250 0.65607 0.57968
 H189 H -0.13753 0.59561 0.60887
 H190 H 0.06551 0.70435 0.61727
 C191 C 0.15410 0.11310 0.20209
 C192 C 0.17554 0.11085 0.22380
 C193 C 0.15255 0.05214 0.23266
 C194 C 0.10733 -0.00085 0.22082
 C195 C 0.08515 0.00166 0.19944
 C196 C 0.11043 0.05932 0.19006
 C197 C 0.17489 0.04606 0.25336
 C198 C 0.22078 0.09698 0.26545
 C199 C 0.24497 0.15669 0.25754
 C200 C 0.21962 0.16428 0.23691
 C201 C 0.23771 0.22490 0.23049
 C202 C 0.27944 0.27625 0.24374
 C203 C 0.30717 0.26929 0.26335
 C204 C 0.29213 0.20927 0.27004
 C205 C 0.32566 0.20415 0.28889
 C206 C 0.36955 0.25637 0.30117
 C207 C 0.38121 0.31542 0.29534
 C208 C 0.35012 0.32184 0.27633
 H209 H 0.17124 0.15560 0.19382
 H210 H 0.09212 -0.04483 0.22815
 H211 H 0.09483 0.06384 0.17369
 H212 H 0.15705 0.00120 0.26027
 H213 H 0.23451 0.08830 0.28144
 H214 H 0.21828 0.23406 0.21562
 H215 H 0.29079 0.32193 0.23843
 H216 H 0.32030 0.16048 0.29428
 H217 H 0.39371 0.25038 0.31564
 H218 H 0.36023 0.36764 0.27146
 C219 C 0.85959 0.10775 -0.13272
 C220 C 0.82138 0.05222 -0.12274
 C221 C 0.83180 0.00048 -0.12731
 C222 C 0.88226 0.00635 -0.13953
 C223 C 0.92248 0.06303 -0.14765
 C224 C 0.90972 0.11299 -0.14479
 C225 C 0.79390 -0.05606 -0.11877
 C226 C 0.74750 -0.06210 -0.10492
 C227 C 0.73807 -0.01110 -0.09858
 C228 C 0.77542 0.04699 -0.10771
 C229 C 0.76808 0.09863 -0.10061
 C230 C 0.72775 0.09448 -0.08453
 C231 C 0.69188 0.03857 -0.07523
 C232 C 0.69466 -0.01555 -0.08263
 C233 C 0.65471 -0.07165 -0.07336
 C234 C 0.61665 -0.07300 -0.05671
 C235 C 0.61692 -0.01878 -0.04865
 C236 C 0.65388 0.03675 -0.05825
 H237 H 0.85340 0.14859 -0.13099
 H238 H 0.89257 -0.03225 -0.14173
 H239 H 0.94112 0.15747 -0.15068
 H240 H 0.80114 -0.09591 -0.12244
 H241 H 0.72162 -0.10714 -0.09872
 H242 H 0.79476 0.14390 -0.10655
 H243 H 0.72524 0.13584 -0.07914
 H244 H 0.65157 -0.11545 -0.07853
 H245 H 0.58784 -0.11677 -0.04980
 H246 H 0.65339 0.07879 -0.05243
 C247 C 0.13680 -0.16969 0.12160
 C248 C 0.19243 -0.11386 0.11896
 C249 C 0.20164 -0.06081 0.13167
 C250 C 0.15673 -0.06400 0.14618
 C251 C 0.10123 -0.11922 0.14813
 C252 C 0.09216 -0.17206 0.13589
 C253 C 0.25508 -0.00446 0.12961
 C254 C 0.29887 0.00129 0.11465
 C255 C 0.29130 -0.04958 0.10116
 C256 C 0.23826 -0.10854 0.10384
 C257 C 0.23261 -0.16012 0.09123
 C258 C 0.27548 -0.15416 0.07592
 C259 C 0.32559 -0.09672 0.07239
 C260 C 0.33473 -0.04350 0.08497
 C261 C 0.38627 0.01368 0.08043
 C262 C 0.42596 0.01753 0.06394
 C263 C 0.41604 -0.03524 0.05145
 C264 C 0.36609 -0.09233 0.05601
 H265 H 0.12522 -0.21213 0.11248
 H266 H 0.16495 -0.02302 0.15588
 H267 H 0.04931 -0.21517 0.13679
 H268 H 0.26267 0.03610 0.13945
 H269 H 0.33847 0.04658 0.11412
 H270 H 0.19545 -0.20624 0.09279
 H271 H 0.26873 -0.19509 0.06649
 H272 H 0.39664 0.05662 0.08896
 H273 H 0.46411 0.06229 0.06078
 H274 H 0.35775 -0.13364 0.04649
 C275 C 0.77077 0.89511 0.44410
 C276 C 0.77608 0.84030 0.44008
 C277 C 0.82772 0.83596 0.45105
 C278 C 0.87191 0.88455 0.46512
 C279 C 0.86604 0.93840 0.46885
 C280 C 0.81496 0.94306 0.45825
 C281 C 0.83527 0.78311 0.44802
 C282 C 0.79292 0.73409 0.43422
 C283 C 0.74085 0.73585 0.42270
 C284 C 0.73229 0.78988 0.42563
 C285 C 0.68053 0.79176 0.41392
 C286 C 0.63879 0.74300 0.39980
 C287 C 0.64647 0.69015 0.39674
 C288 C 0.69731 0.68551 0.40821
 C289 C 0.70247 0.63055 0.40461
 C290 C 0.65980 0.58319 0.39006
 C291 C 0.61018 0.58831 0.37856
 C292 C 0.60360 0.64195 0.38211
 H293 H 0.73315 0.90263 0.43661
 H294 H 0.91051 0.87970 0.47346
 H295 H 0.80951 0.98439 0.46066
 H296 H 0.87460 0.77955 0.45643
 H297 H 0.80290 0.69547 0.43290
 H298 H 0.67094 0.83067 0.41517
 H299 H 0.60000 0.74684 0.39111
 H300 H 0.73891 0.62233 0.41267
 H301 H 0.66609 0.54227 0.38778
 H302 H 0.56533 0.64651 0.37335
 C303 C 0.11288 0.30256 0.79325
 C304 C 0.05448 0.30093 0.78596
 C305 C -0.00191 0.25286 0.79308
 C306 C 0.00047 0.20807 0.80638
 C307 C 0.05838 0.20924 0.81288
 C308 C 0.11455 0.25744 0.80644
 C309 C -0.06079 0.24884 0.78662
 C310 C -0.06560 0.29015 0.77255
 C311 C -0.01132 0.33761 0.76427
 C312 C 0.04987 0.34417 0.77154
 C313 C 0.10423 0.39316 0.76390
 C314 C 0.09919 0.43283 0.74907
 C315 C 0.03997 0.42543 0.74112
 C316 C -0.01623 0.37822 0.74872
 C317 C -0.07504 0.37280 0.73996
 C318 C -0.07758 0.41139 0.72401
 C319 C -0.02191 0.45702 0.71626
 C320 C 0.03680 0.46441 0.72522
 H321 H 0.15814 0.33718 0.78871
 H322 H -0.04342 0.17178 0.81147
 H323 H 0.16004 0.25931 0.81100
 H324 H -0.10397 0.21260 0.79227
 H325 H -0.11304 0.28322 0.76842
 H326 H 0.15183 0.40211 0.76899
 H327 H 0.14233 0.46923 0.74347
 H328 H -0.12021 0.33843 0.74466
 H329 H -0.12364 0.40463 0.71745
 H330 H 0.08034 0.49955 0.71939
 C331 C 0.91633 0.00300 0.12085
 C332 C 0.87053 -0.04251 0.10570
 C333 C 0.86404 -0.10317 0.10617
 C334 C 0.89910 -0.11781 0.12180
 C335 C 0.94035 -0.07345 0.13761
 C336 C 0.95061 -0.01253 0.13658
 C337 C 0.82085 -0.14981 0.09157
 C338 C 0.78049 -0.13903 0.07733
 C339 C 0.78153 -0.08080 0.07717
 C340 C 0.82935 -0.03090 0.09077
 C341 C 0.83330 0.02836 0.08925
 C342 C 0.79054 0.03809 0.07563
 C343 C 0.74137 -0.01083 0.06330
 C344 C 0.73599 -0.07105 0.06394
 C345 C 0.68386 -0.11952 0.05182
 C346 C 0.63978 -0.10842 0.03946
 C347 C 0.64566 -0.04881 0.03862
 C348 C 0.69691 -0.00004 0.05054
 H349 H 0.92504 0.05037 0.12156
 H350 H 0.89210 -0.16490 0.12234
 H351 H 0.98262 0.02241 0.14868
 H352 H 0.81701 -0.19581 0.09153
 H353 H 0.74881 -0.17772 0.06661
 H354 H 0.86914 0.06848 0.09842
 H355 H 0.79526 0.08434 0.07511
 H356 H 0.67461 -0.16700 0.05187
 H357 H 0.60065 -0.14711 0.03052
 H358 H 0.70179 0.04629 0.05014
 C359 C 0.16215 0.11239 0.45013
 C360 C 0.16862 0.16673 0.44026
 C361 C 0.12229 0.18644 0.44411
 C362 C 0.07297 0.15385 0.45742
 C363 C 0.06888 0.10199 0.46781
 C364 C 0.11300 0.08071 0.46370
 C365 C 0.12559 0.23926 0.43498
 C366 C 0.17528 0.27483 0.42265
 C367 C 0.22402 0.25883 0.41883
 C368 C 0.21953 0.20272 0.42705
 C369 C 0.26584 0.18461 0.42168
 C370 C 0.31480 0.22003 0.40879
 C371 C 0.32075 0.27568 0.40119
 C372 C 0.27628 0.29656 0.40657
 C373 C 0.28617 0.35479 0.39953
 C374 C 0.33514 0.38847 0.38646
 C375 C 0.37684 0.36621 0.38010
 C376 C 0.37043 0.31035 0.38799
 H377 H 0.19519 0.09412 0.44821
 H378 H 0.03801 0.16977 0.46002
 H379 H 0.11095 0.04080 0.47162
 H380 H 0.08961 0.25381 0.43761
 H381 H 0.17329 0.31429 0.41600
 H382 H 0.26490 0.14244 0.42687
 H383 H 0.34860 0.20373 0.40481
 H384 H 0.25724 0.37611 0.40390
 H385 H 0.33982 0.43218 0.38109
 H386 H 0.40286 0.29296 0.38335
 C387 C 0.07307 0.98895 0.76552
 C388 C 0.01859 0.93074 0.76201
 C389 C -0.03318 0.91848 0.77496
 C390 C -0.02829 0.96137 0.79160
 C391 C 0.02820 1.01603 0.79587
 C392 C 0.07782 1.03031 0.78234
 C393 C -0.08833 0.86235 0.77192
 C394 C -0.09247 0.81666 0.75705
 C395 C -0.04103 0.82509 0.74465
 C396 C 0.01491 0.88361 0.74684
 C397 C 0.06634 0.89227 0.73442
 C398 C 0.06457 0.84496 0.72107
 C399 C 0.01142 0.78723 0.71926
 C400 C -0.04283 0.77652 0.73058
 C401 C -0.09599 0.71712 0.72756
 C402 C -0.09432 0.67057 0.71433
 C403 C -0.03972 0.68126 0.70382
 C404 C 0.01273 0.73996 0.70624
 H405 H 0.11391 1.00343 0.75612
 H406 H -0.06667 0.95039 0.80218
 H407 H 0.12166 1.07284 0.78539
 H408 H -0.12834 0.85297 0.78154
 H409 H -0.13643 0.77446 0.75608
 H410 H 0.10971 0.93492 0.73491
 H411 H 0.10581 0.85357 0.71222
 H412 H -0.13958 0.70485 0.73520
 H413 H -0.13575 0.62569 0.71259
 H414 H 0.05490 0.74908 0.69786
   
