data_POSCAR
  _audit_creation_date              2014-09-24
  _audit_creation_method            'ToBaCCo'
  _symmetry_space_group_name_H-M    'P1'
  _symmetry_Int_Tables_number       1
  _symmetry_cell_setting            triclinic
  loop_
  _symmetry_equiv_pos_as_xyz
 x,y,z
_cell_length_a 56.3399
_cell_length_b 56.4544
_cell_length_c 56.6468
_cell_angle_alpha 90.006200
_cell_angle_beta 90.007000
_cell_angle_gamma 90.000600
loop_
  _atom_site_label
  _atom_site_type_symbol
  _atom_site_fract_x
  _atom_site_fract_y
  _atom_site_fract_z
N1 N 0.27751 0.22818 0.21228
 N2 N 0.26873 0.24757 0.20280
 C3 C 0.28281 0.25439 0.18481
 C4 C 0.30135 0.23847 0.18304
 C5 C 0.29739 0.22200 0.20063
 H6 H 0.28015 0.27004 0.17412
 H7 H 0.30853 0.20703 0.20502
 Cu8 Cu 0.24064 0.26265 0.21598
 Cu9 Cu 0.26376 0.21357 0.24028
 Cu10 Cu 0.21353 0.24024 0.26375
 N11 N 0.21235 0.27741 0.22908
 N12 N 0.20177 0.26849 0.24777
 C13 C 0.18360 0.28266 0.25399
 C14 C 0.18284 0.30149 0.23841
 C15 C 0.20122 0.29757 0.22277
 H16 H 0.17216 0.27985 0.26908
 H17 H 0.20639 0.30890 0.20827
 N18 N 0.22815 0.21164 0.27745
 N19 N 0.24732 0.20153 0.26859
 C20 C 0.25395 0.18359 0.28284
 C21 C 0.23825 0.18246 0.30153
 C22 C 0.22207 0.20036 0.29752
 H23 H 0.26944 0.17258 0.28026
 H24 H 0.20742 0.20523 0.30885
 H25 H 0.22945 0.22525 0.23433
 H26 H 0.24860 0.24390 0.25381
 N27 N 0.72210 -0.22846 0.21185
 N28 N 0.73082 -0.24787 0.20238
 C29 C 0.71672 -0.25469 0.18440
 C30 C 0.69813 -0.23878 0.18270
 C31 C 0.70217 -0.22227 0.20028
 H32 H 0.71941 -0.27032 0.17370
 H33 H 0.69108 -0.20728 0.20472
 Cu34 Cu 0.75887 -0.26309 0.21549
 Cu35 Cu 0.73595 -0.21382 0.23978
 Cu36 Cu 0.78638 -0.24023 0.26298
 N37 N 0.78743 -0.27750 0.22840
 N38 N 0.79814 -0.26841 0.24695
 C39 C 0.81640 -0.28249 0.25315
 C40 C 0.81708 -0.30145 0.23770
 C41 C 0.79860 -0.29763 0.22209
 H42 H 0.82787 -0.27955 0.26818
 H43 H 0.79333 -0.30905 0.20768
 N44 N 0.77173 -0.21170 0.27676
 N45 N 0.75245 -0.20170 0.26801
 C46 C 0.74579 -0.18382 0.28232
 C47 C 0.76159 -0.18261 0.30093
 C48 C 0.77786 -0.20041 0.29681
 H49 H 0.73022 -0.17290 0.27984
 H50 H 0.79259 -0.20522 0.30806
 H51 H 0.77025 -0.22555 0.23358
 H52 H 0.75131 -0.24404 0.25336
 N53 N 0.72291 0.22845 0.78772
 N54 N 0.73156 0.24792 0.79714
 C55 C 0.71751 0.25464 0.81519
 C56 C 0.69908 0.23859 0.81701
 C57 C 0.70311 0.22214 0.79943
 H58 H 0.72008 0.27032 0.82586
 H59 H 0.69203 0.20713 0.79504
 Cu60 Cu 0.75945 0.26333 0.78386
 Cu61 Cu 0.73660 0.21393 0.75968
 Cu62 Cu 0.78673 0.24061 0.73617
 N63 N 0.78791 0.27784 0.77079
 N64 N 0.79852 0.26882 0.75217
 C65 C 0.81676 0.28292 0.74594
 C66 C 0.81753 0.30182 0.76146
 C67 C 0.79911 0.29795 0.77713
 H68 H 0.82819 0.28000 0.73087
 H69 H 0.79394 0.30928 0.79163
 N70 N 0.77209 0.21205 0.72243
 N71 N 0.75293 0.20194 0.73131
 C72 C 0.74626 0.18401 0.71707
 C73 C 0.76193 0.18287 0.69835
 C74 C 0.77813 0.20077 0.70234
 H75 H 0.73078 0.17300 0.71968
 H76 H 0.79278 0.20562 0.69101
 H77 H 0.77082 0.22584 0.76573
 H78 H 0.75165 0.24425 0.74606
 N79 N 0.27755 -0.22864 0.78803
 N80 N 0.26876 -0.24801 0.79752
 C81 C 0.28285 -0.25486 0.81551
 C82 C 0.30138 -0.23891 0.81730
 C83 C 0.29742 -0.22245 0.79970
 H84 H 0.28017 -0.27048 0.82623
 H85 H 0.30856 -0.20749 0.79530
 Cu86 Cu 0.24060 -0.26298 0.78433
 Cu87 Cu 0.26379 -0.21396 0.76005
 Cu88 Cu 0.21355 -0.24069 0.73651
 N89 N 0.21245 -0.27795 0.77114
 N90 N 0.20189 -0.26904 0.75244
 C91 C 0.18374 -0.28323 0.74617
 C92 C 0.18299 -0.30211 0.76173
 C93 C 0.20137 -0.29815 0.77743
 H94 H 0.17231 -0.28035 0.73110
 H95 H 0.20651 -0.30941 0.79201
 N96 N 0.22812 -0.21200 0.72288
 N97 N 0.24731 -0.20190 0.73175
 C98 C 0.25395 -0.18397 0.71751
 C99 C 0.23826 -0.18282 0.69881
 C100 C 0.22206 -0.20072 0.70281
 H101 H 0.26945 -0.17297 0.72008
 H102 H 0.20742 -0.20558 0.69146
 H103 H 0.22944 -0.22552 0.76584
 H104 H 0.24858 -0.24418 0.74646
 N105 N 0.72270 -0.22854 0.78776
 N106 N 0.73157 -0.24785 0.79729
 C107 C 0.71758 -0.25466 0.81536
 C108 C 0.69896 -0.23882 0.81708
 C109 C 0.70280 -0.22242 0.79940
 H110 H 0.72038 -0.27022 0.82616
 H111 H 0.69161 -0.20750 0.79499
 Cu112 Cu 0.75981 -0.26268 0.78422
 Cu113 Cu 0.73648 -0.21380 0.75984
 Cu114 Cu 0.78702 -0.24019 0.73658
 N115 N 0.78805 -0.27749 0.77113
 N116 N 0.79874 -0.26845 0.75257
 C117 C 0.81694 -0.28258 0.74634
 C118 C 0.81759 -0.30154 0.76180
 C119 C 0.79915 -0.29767 0.77743
 H120 H 0.82844 -0.27964 0.73133
 H121 H 0.79389 -0.30905 0.79187
 N122 N 0.77233 -0.21161 0.72289
 N123 N 0.75301 -0.20167 0.73162
 C124 C 0.74631 -0.18380 0.71732
 C125 C 0.76214 -0.18252 0.69876
 C126 C 0.77846 -0.20026 0.70288
 H127 H 0.73068 -0.17295 0.71977
 H128 H 0.79323 -0.20500 0.69165
 H129 H 0.75195 -0.24395 0.74628
 H130 H 0.77086 -0.22519 0.76582
 N131 N 0.27744 0.22802 0.78785
 N132 N 0.26833 0.24707 0.79766
 C133 C 0.28232 0.25387 0.81573
 C134 C 0.30118 0.23828 0.81717
 C135 C 0.29748 0.22203 0.79933
 H136 H 0.27934 0.26924 0.82671
 H137 H 0.30888 0.20733 0.79470
 Cu138 Cu 0.23990 0.26192 0.78492
 Cu139 Cu 0.26384 0.21357 0.75975
 Cu140 Cu 0.21361 0.24021 0.73627
 N141 N 0.21194 0.27689 0.77136
 N142 N 0.20169 0.26826 0.75236
 C143 C 0.18370 0.28259 0.74596
 C144 C 0.18271 0.30120 0.76177
 C145 C 0.20076 0.29698 0.77774
 H146 H 0.17253 0.28002 0.73064
 H147 H 0.20566 0.30805 0.79253
 N148 N 0.22838 0.21179 0.72245
 N149 N 0.24755 0.20169 0.73132
 C150 C 0.25421 0.18377 0.71705
 C151 C 0.23851 0.18265 0.69836
 C152 C 0.22232 0.20054 0.70237
 H153 H 0.26967 0.17273 0.71966
 H154 H 0.20763 0.20537 0.69107
 H155 H 0.24852 0.24406 0.74675
 H156 H 0.22935 0.22478 0.76557
 N157 N 0.27782 -0.22820 0.21235
 N158 N 0.26905 -0.24757 0.20284
 C159 C 0.28311 -0.25436 0.18483
 C160 C 0.30168 -0.23845 0.18314
 C161 C 0.29774 -0.22203 0.20076
 H162 H 0.28043 -0.26996 0.17409
 H163 H 0.30891 -0.20711 0.20523
 Cu164 Cu 0.24100 -0.26277 0.21592
 Cu165 Cu 0.26402 -0.21354 0.24026
 Cu166 Cu 0.21350 -0.23982 0.26333
 N167 N 0.21240 -0.27707 0.22879
 N168 N 0.20168 -0.26795 0.24730
 C169 C 0.18337 -0.28196 0.25345
 C170 C 0.18265 -0.30087 0.23799
 C171 C 0.20118 -0.29717 0.22248
 H172 H 0.17189 -0.27905 0.26848
 H173 H 0.20645 -0.30866 0.20813
 N174 N 0.22819 -0.21136 0.27714
 N175 N 0.24752 -0.20142 0.26846
 C176 C 0.25421 -0.18358 0.28279
 C177 C 0.23835 -0.18233 0.30133
 C178 C 0.22203 -0.20006 0.29716
 H179 H 0.26983 -0.17272 0.28036
 H180 H 0.20723 -0.20481 0.30835
 H181 H 0.24864 -0.24373 0.25377
 H182 H 0.22979 -0.22518 0.23394
 N183 N 0.72251 0.22772 0.21196
 N184 N 0.73138 0.24700 0.20236
 C185 C 0.71742 0.25371 0.18425
 C186 C 0.69881 0.23786 0.18258
 C187 C 0.70264 0.22153 0.20031
 H188 H 0.72013 0.26929 0.17348
 H189 H 0.69139 0.20669 0.20483
 Cu190 Cu 0.75928 0.26237 0.21558
 Cu191 Cu 0.73602 0.21335 0.24016
 Cu192 Cu 0.78620 0.23997 0.26360
 N193 N 0.78779 0.27674 0.22858
 N194 N 0.79823 0.26791 0.24739
 C195 C 0.81642 0.28204 0.25362
 C196 C 0.81736 0.30073 0.23790
 C197 C 0.79908 0.29676 0.22215
 H198 H 0.82769 0.27936 0.26885
 H199 H 0.79399 0.30806 0.20760
 N200 N 0.77137 0.21164 0.27753
 N201 N 0.75221 0.20153 0.26866
 C202 C 0.74551 0.18367 0.28297
 C203 C 0.76116 0.18261 0.30170
 C204 C 0.77738 0.20047 0.29767
 H205 H 0.73005 0.17262 0.28035
 H206 H 0.79206 0.20532 0.30897
 H207 H 0.75119 0.24368 0.25350
 H208 H 0.77034 0.22497 0.23410
 C209 C 0.23978 -0.00011 0.43676
 C210 C 0.23984 0.02147 0.44876
 C211 C 0.23987 0.02138 0.47357
 C212 C 0.23984 -0.00016 0.48670
 C213 C 0.23983 -0.02167 0.47354
 C214 C 0.23983 -0.02171 0.44873
 C215 C 0.23986 -0.00021 0.51365
 C216 C 0.23995 -0.02174 0.52678
 C217 C 0.23997 -0.02182 0.55160
 C218 C 0.23987 -0.00023 0.56358
 C219 C 0.23986 0.02136 0.55159
 C220 C 0.23982 0.02130 0.52679
 H221 H 0.23976 -0.00011 0.41767
 H222 H 0.23993 0.03840 0.48206
 H223 H 0.23983 -0.03869 0.48200
 H224 H 0.24004 -0.03876 0.51829
 H225 H 0.23987 -0.00022 0.58268
 H226 H 0.23976 0.03833 0.51833
 C227 C 0.76007 -0.00017 0.56341
 C228 C 0.75999 0.02142 0.55141
 C229 C 0.75996 0.02132 0.52659
 C230 C 0.76003 -0.00023 0.51346
 C231 C 0.76007 -0.02173 0.52662
 C232 C 0.76005 -0.02177 0.55143
 C233 C 0.76002 -0.00028 0.48650
 C234 C 0.75986 -0.02183 0.47337
 C235 C 0.75985 -0.02191 0.44855
 C236 C 0.75999 -0.00032 0.43656
 C237 C 0.76007 0.02128 0.44854
 C238 C 0.76012 0.02123 0.47335
 H239 H 0.76009 -0.00016 0.58250
 H240 H 0.75984 0.03833 0.51810
 H241 H 0.76013 -0.03876 0.51815
 H242 H 0.75971 -0.03885 0.48185
 H243 H 0.75999 -0.00032 0.41747
 H244 H 0.76024 0.03825 0.48181
 C245 C 0.43635 0.24009 -0.00010
 C246 C 0.44840 0.24014 0.02142
 C247 C 0.47335 0.24010 0.02135
 C248 C 0.48655 0.24010 -0.00012
 C249 C 0.47334 0.24015 -0.02156
 C250 C 0.44840 0.24016 -0.02162
 C251 C 0.51364 0.24012 -0.00016
 C252 C 0.52685 0.24010 -0.02162
 C253 C 0.55180 0.24015 -0.02169
 C254 C 0.56385 0.24013 -0.00017
 C255 C 0.55179 0.24022 0.02134
 C256 C 0.52685 0.24020 0.02128
 H257 H 0.41715 0.24010 -0.00011
 H258 H 0.48188 0.24010 0.03831
 H259 H 0.48186 0.24022 -0.03852
 H260 H 0.51833 0.24007 -0.03859
 H261 H 0.58305 0.24013 -0.00016
 H262 H 0.51834 0.24028 0.03824
 C263 C 0.56416 0.76000 0.00036
 C264 C 0.55210 0.75991 0.02187
 C265 C 0.52715 0.75992 0.02178
 C266 C 0.51396 0.75996 0.00030
 C267 C 0.52719 0.75995 -0.02113
 C268 C 0.55214 0.75994 -0.02116
 C269 C 0.48686 0.75995 0.00025
 C270 C 0.47366 0.75997 -0.02122
 C271 C 0.44870 0.75993 -0.02131
 C272 C 0.43666 0.75995 0.00021
 C273 C 0.44870 0.75986 0.02173
 C274 C 0.47364 0.75987 0.02168
 H275 H 0.58336 0.76001 0.00038
 H276 H 0.51862 0.75987 0.03874
 H277 H 0.51868 0.75992 -0.03810
 H278 H 0.48219 0.75998 -0.03818
 H279 H 0.41746 0.75995 0.00021
 H280 H 0.48215 0.75980 0.03865
 C281 C -0.00042 0.43686 0.23945
 C282 C 0.02120 0.44892 0.23945
 C283 C 0.02108 0.47381 0.23943
 C284 C -0.00052 0.48696 0.23944
 C285 C -0.02205 0.47375 0.23948
 C286 C -0.02207 0.44886 0.23948
 C287 C -0.00059 0.51399 0.23942
 C288 C -0.02217 0.52716 0.23934
 C289 C -0.02225 0.55206 0.23933
 C290 C -0.00062 0.56410 0.23936
 C291 C 0.02101 0.55206 0.23944
 C292 C 0.02095 0.52718 0.23948
 H293 H -0.00039 0.41770 0.23946
 H294 H 0.03812 0.48234 0.23941
 H295 H -0.03912 0.48223 0.23952
 H296 H -0.03922 0.51864 0.23928
 H297 H -0.00060 0.58326 0.23936
 H298 H 0.03801 0.51870 0.23958
 C299 C -0.00008 0.56396 0.76049
 C300 C 0.02154 0.55191 0.76050
 C301 C 0.02142 0.52701 0.76048
 C302 C -0.00019 0.51386 0.76048
 C303 C -0.02172 0.52707 0.76046
 C304 C -0.02174 0.55196 0.76046
 C305 C -0.00026 0.48682 0.76049
 C306 C -0.02186 0.47364 0.76046
 C307 C -0.02193 0.44873 0.76047
 C308 C -0.00028 0.43671 0.76053
 C309 C 0.02135 0.44874 0.76052
 C310 C 0.02129 0.47362 0.76052
 H311 H -0.00006 0.58312 0.76050
 H312 H 0.03846 0.51849 0.76047
 H313 H -0.03879 0.51859 0.76045
 H314 H -0.03891 0.48215 0.76041
 H315 H -0.00026 0.41756 0.76054
 H316 H 0.03835 0.48212 0.76053
 N317 N 0.34189 0.25836 0.13607
 C318 C 0.35896 0.24143 0.13664
 N319 N 0.35704 0.22345 0.15240
 N320 N 0.33873 0.22257 0.16727
 C321 C 0.32162 0.23951 0.16674
 N322 N 0.32358 0.25747 0.15093
 C323 C 0.37756 0.24146 0.11934
 C324 C 0.39198 0.24133 0.10361
 C325 C 0.40702 0.24104 0.08318
 N326 N 0.39681 0.24061 0.06161
 N327 N 0.41011 0.24028 0.04227
 C328 C 0.43419 0.24037 0.04359
 N329 N 0.44446 0.24079 0.06535
 N330 N 0.43108 0.24111 0.08483
 N331 N 0.65875 0.74172 0.13629
 C332 C 0.64158 0.75854 0.13707
 N333 N 0.64337 0.77631 0.15306
 N334 N 0.66168 0.77713 0.16794
 C335 C 0.67893 0.76031 0.16722
 N336 N 0.67706 0.74254 0.15115
 C337 C 0.62297 0.75858 0.11977
 C338 C 0.60855 0.75872 0.10404
 C339 C 0.59351 0.75901 0.08361
 N340 N 0.56944 0.75888 0.08527
 N341 N 0.55605 0.75920 0.06579
 C342 C 0.56631 0.75968 0.04404
 N343 N 0.59039 0.75981 0.04271
 N344 N 0.60370 0.75949 0.06204
 N345 N 0.65828 0.25833 -0.13618
 C346 C 0.64128 0.24134 -0.13683
 N347 N 0.64331 0.22338 -0.15260
 N348 N 0.66169 0.22256 -0.16738
 C349 C 0.67875 0.23956 -0.16676
 N350 N 0.67666 0.25751 -0.15095
 C351 C 0.62263 0.24129 -0.11959
 C352 C 0.60820 0.24116 -0.10387
 C353 C 0.59317 0.24089 -0.08344
 N354 N 0.60339 0.24047 -0.06188
 N355 N 0.59009 0.24020 -0.04254
 C356 C 0.56601 0.24032 -0.04386
 N357 N 0.55573 0.24072 -0.06561
 N358 N 0.56911 0.24100 -0.08510
 N359 N 0.35708 0.77630 -0.15217
 C360 C 0.35905 0.75839 -0.13636
 N361 N 0.34203 0.74141 -0.13571
 N362 N 0.32369 0.74221 -0.15055
 C363 C 0.32166 0.76012 -0.16641
 N364 N 0.33874 0.77710 -0.16702
 C365 C 0.37770 0.75845 -0.11910
 C366 C 0.39216 0.75864 -0.10341
 C367 C 0.40724 0.75899 -0.08301
 N368 N 0.39707 0.75950 -0.06143
 N369 N 0.41040 0.75986 -0.04212
 C370 C 0.43448 0.75972 -0.04347
 N371 N 0.44472 0.75923 -0.06523
 N372 N 0.43130 0.75888 -0.08470
 N373 N 0.13543 0.34237 0.25684
 C374 C 0.13693 0.35961 0.24024
 N375 N 0.15347 0.35773 0.22297
 N376 N 0.16819 0.33924 0.22245
 C377 C 0.16672 0.32195 0.23906
 N378 N 0.15013 0.32389 0.25632
 C379 C 0.11977 0.37840 0.23992
 C380 C 0.10401 0.39285 0.23972
 C381 C 0.08343 0.40781 0.23958
 N382 N 0.08502 0.43183 0.23958
 N383 N 0.06538 0.44512 0.23953
 C384 C 0.04353 0.43480 0.23948
 N385 N 0.04228 0.41077 0.23949
 N386 N 0.06177 0.39756 0.23954
 N387 N 0.15414 0.64280 0.77714
 C388 C 0.13739 0.64118 0.76004
 N389 N 0.13586 0.65855 0.74358
 N390 N 0.15071 0.67690 0.74409
 C391 C 0.16754 0.67861 0.76117
 N392 N 0.16903 0.66115 0.77764
 C393 C 0.12013 0.62245 0.76033
 C394 C 0.10435 0.60803 0.76048
 C395 C 0.08376 0.59305 0.76056
 N396 N 0.06209 0.60329 0.76055
 N397 N 0.04260 0.59007 0.76054
 C398 C 0.04387 0.56604 0.76052
 N399 N 0.06572 0.55573 0.76053
 N400 N 0.08536 0.56903 0.76054
 N401 N -0.13603 0.65908 0.25610
 C402 C -0.13779 0.64153 0.23986
 N403 N -0.15459 0.64309 0.22280
 N404 N -0.16931 0.66156 0.22214
 C405 C -0.16759 0.67920 0.23839
 N406 N -0.15072 0.67755 0.25544
 C407 C -0.12065 0.62273 0.23964
 C408 C -0.10493 0.60825 0.23951
 C409 C -0.08439 0.59325 0.23940
 N410 N -0.08603 0.56924 0.23943
 N411 N -0.06641 0.55592 0.23939
 C412 C -0.04455 0.56620 0.23932
 N413 N -0.04325 0.59023 0.23930
 N414 N -0.06271 0.60347 0.23934
 N415 N -0.13560 0.34138 0.74311
 C416 C -0.13725 0.35883 0.75948
 N417 N -0.15396 0.35715 0.77662
 N418 N -0.16869 0.33868 0.77722
 C419 C -0.16709 0.32116 0.76083
 N420 N -0.15030 0.32291 0.74372
 C421 C -0.12014 0.37767 0.75972
 C422 C -0.10446 0.39221 0.75991
 C423 C -0.08396 0.40730 0.76011
 N424 N -0.08568 0.43132 0.76011
 N425 N -0.06611 0.44472 0.76024
 C426 C -0.04421 0.43452 0.76038
 N427 N -0.04283 0.41049 0.76039
 N428 N -0.06225 0.39717 0.76025
 N429 N 0.22333 0.15299 0.35764
 C430 C 0.24102 0.13684 0.35958
 N431 N 0.25779 0.13567 0.34244
 N432 N 0.25699 0.15030 0.32400
 C433 C 0.23928 0.16649 0.32200
 N434 N 0.22253 0.16764 0.33921
 C435 C 0.24089 0.11967 0.37827
 C436 C 0.24070 0.10396 0.39268
 C437 C 0.24044 0.08347 0.40765
 N438 N 0.24011 0.06183 0.39748
 N439 N 0.23989 0.04242 0.41070
 C440 C 0.23998 0.04373 0.43465
 N441 N 0.24029 0.06555 0.44488
 N442 N 0.24051 0.08512 0.43158
 N443 N 0.74236 0.13590 0.65765
 C444 C 0.75911 0.13697 0.64050
 N445 N 0.77681 0.15314 0.64234
 N446 N 0.77762 0.16789 0.66070
 C447 C 0.76088 0.16683 0.67793
 N448 N 0.74317 0.15063 0.67601
 C449 C 0.75922 0.11971 0.62188
 C450 C 0.75935 0.10395 0.60750
 C451 C 0.75954 0.08344 0.59254
 N452 N 0.75947 0.08508 0.56861
 N453 N 0.75963 0.06551 0.55531
 C454 C 0.75987 0.04368 0.56553
 N455 N 0.75995 0.04238 0.58948
 N456 N 0.75979 0.06180 0.60270
 N457 N 0.22341 -0.15331 0.64270
 C458 C 0.24113 -0.13718 0.64079
 N459 N 0.25788 -0.13604 0.65794
 N460 N 0.25704 -0.15068 0.67637
 C461 C 0.23932 -0.16685 0.67835
 N462 N 0.22258 -0.16797 0.66112
 C463 C 0.24103 -0.12001 0.62211
 C464 C 0.24087 -0.10429 0.60770
 C465 C 0.24063 -0.08380 0.59273
 N466 N 0.24034 -0.06215 0.60289
 N467 N 0.24011 -0.04274 0.58967
 C468 C 0.24016 -0.04407 0.56572
 N469 N 0.24044 -0.06590 0.55550
 N470 N 0.24067 -0.08546 0.56880
 N471 N 0.74183 -0.13615 0.34212
 C472 C 0.75876 -0.13713 0.35911
 N473 N 0.77666 -0.15304 0.35697
 N474 N 0.77748 -0.16764 0.33849
 C475 C 0.76055 -0.16668 0.32144
 N476 N 0.74266 -0.15074 0.32364
 C477 C 0.75884 -0.12000 0.37784
 C478 C 0.75897 -0.10433 0.39230
 C479 C 0.75919 -0.08386 0.40731
 N480 N 0.75948 -0.06220 0.39719
 N481 N 0.75970 -0.04281 0.41045
 C482 C 0.75965 -0.04416 0.43440
 N483 N 0.75936 -0.06600 0.44458
 N484 N 0.75914 -0.08555 0.43124
 N485 N 0.64337 0.77632 -0.15223
 C486 C 0.64157 0.75849 -0.13631
 N487 N 0.65867 0.74160 -0.13564
 N488 N 0.67693 0.74240 -0.15055
 C489 C 0.67879 0.76022 -0.16653
 N490 N 0.66163 0.77712 -0.16716
 C491 C 0.62301 0.75855 -0.11898
 C492 C 0.60861 0.75874 -0.10326
 C493 C 0.59356 0.75908 -0.08285
 N494 N 0.60376 0.75953 -0.06128
 N495 N 0.59044 0.75985 -0.04195
 C496 C 0.56636 0.75975 -0.04330
 N497 N 0.55611 0.75932 -0.06506
 N498 N 0.56951 0.75900 -0.08453
 N499 N 0.35738 0.22381 -0.15291
 C500 C 0.35906 0.24150 -0.13682
 N501 N 0.34167 0.25808 -0.13578
 N502 N 0.32325 0.25711 -0.15049
 C503 C 0.32152 0.23942 -0.16663
 N504 N 0.33896 0.22284 -0.16764
 C505 C 0.37773 0.24150 -0.11959
 C506 C 0.39214 0.24133 -0.10387
 C507 C 0.40713 0.24100 -0.08342
 N508 N 0.39688 0.24060 -0.06188
 N509 N 0.41014 0.24030 -0.04251
 C510 C 0.43422 0.24037 -0.04379
 N511 N 0.44453 0.24075 -0.06552
 N512 N 0.43119 0.24105 -0.08504
 N513 N 0.34228 0.74174 0.13623
 C514 C 0.35935 0.75866 0.13690
 N515 N 0.35745 0.77657 0.15273
 N516 N 0.33911 0.77742 0.16756
 C517 C 0.32197 0.76051 0.16691
 N518 N 0.32394 0.74260 0.15104
 C519 C 0.37795 0.75868 0.11961
 C520 C 0.39234 0.75880 0.10388
 C521 C 0.40735 0.75904 0.08346
 N522 N 0.43141 0.75896 0.08511
 N523 N 0.44478 0.75925 0.06562
 C524 C 0.43450 0.75964 0.04388
 N525 N 0.41042 0.75973 0.04256
 N526 N 0.39713 0.75944 0.06190
 N527 N 0.65832 0.25771 0.13560
 C528 C 0.64096 0.24110 0.13658
 N529 N 0.64267 0.22334 0.15259
 N530 N 0.66108 0.22236 0.16733
 C531 C 0.67849 0.23898 0.16639
 N532 N 0.67673 0.25673 0.15033
 C533 C 0.62231 0.24117 0.11936
 C534 C 0.60792 0.24113 0.10363
 C535 C 0.59297 0.24097 0.08317
 N536 N 0.56891 0.24105 0.08476
 N537 N 0.55559 0.24080 0.06523
 C538 C 0.56593 0.24044 0.04352
 N539 N 0.59001 0.24036 0.04226
 N540 N 0.60325 0.24061 0.06164
 N541 N -0.13542 0.65903 0.74359
 C542 C -0.13721 0.64149 0.75983
 N543 N -0.15406 0.64305 0.77685
 N544 N -0.16880 0.66151 0.77744
 C545 C -0.16706 0.67913 0.76117
 N546 N -0.15013 0.67749 0.74419
 C547 C -0.12009 0.62269 0.76008
 C548 C -0.10437 0.60821 0.76023
 C549 C -0.08384 0.59321 0.76035
 N550 N -0.08549 0.56920 0.76030
 N551 N -0.06589 0.55586 0.76035
 C552 C -0.04402 0.56613 0.76043
 N553 N -0.04270 0.59016 0.76047
 N554 N -0.06215 0.60341 0.76043
 N555 N -0.15348 0.35709 0.22274
 C556 C -0.13736 0.35925 0.24038
 N557 N -0.13604 0.34212 0.25710
 N558 N -0.15052 0.32349 0.25635
 C559 C -0.16670 0.32128 0.23873
 N560 N -0.16799 0.33846 0.22199
 C561 C -0.12034 0.37812 0.24021
 C562 C -0.10467 0.39264 0.24006
 C563 C -0.08416 0.40764 0.23987
 N564 N -0.08582 0.43165 0.23991
 N565 N -0.06621 0.44498 0.23977
 C566 C -0.04435 0.43471 0.23958
 N567 N -0.04303 0.41069 0.23953
 N568 N -0.06248 0.39743 0.23967
 N569 N 0.13591 0.34246 0.74272
 C570 C 0.13711 0.35953 0.75952
 N571 N 0.15325 0.35740 0.77715
 N572 N 0.16788 0.33886 0.77782
 C573 C 0.16670 0.32172 0.76102
 N574 N 0.15051 0.32392 0.74341
 C575 C 0.11992 0.37827 0.75976
 C576 C 0.10413 0.39268 0.75994
 C577 C 0.08354 0.40761 0.76016
 N578 N 0.08514 0.43163 0.76013
 N579 N 0.06550 0.44491 0.76027
 C580 C 0.04366 0.43460 0.76044
 N581 N 0.04239 0.41057 0.76048
 N582 N 0.06188 0.39736 0.76034
 N583 N 0.13516 0.65854 0.25667
 C584 C 0.13682 0.64104 0.24036
 N585 N 0.15352 0.64263 0.22321
 N586 N 0.16824 0.66111 0.22252
 C587 C 0.16658 0.67868 0.23882
 N588 N 0.14984 0.67701 0.25597
 C589 C 0.11963 0.62232 0.24011
 C590 C 0.10385 0.60793 0.23992
 C591 C 0.08326 0.59304 0.23973
 N592 N 0.08481 0.56903 0.23976
 N593 N 0.06515 0.55578 0.23965
 C594 C 0.04333 0.56615 0.23951
 N595 N 0.04211 0.59018 0.23948
 N596 N 0.06162 0.60334 0.23958
 N597 N 0.74221 -0.13619 0.65755
 C598 C 0.75919 -0.13708 0.64061
 N599 N 0.77717 -0.15289 0.64278
 N600 N 0.77803 -0.16749 0.66125
 C601 C 0.76106 -0.16661 0.67827
 N602 N 0.74308 -0.15077 0.67603
 C603 C 0.75925 -0.11993 0.62192
 C604 C 0.75936 -0.10423 0.60751
 C605 C 0.75955 -0.08374 0.59255
 N606 N 0.75983 -0.06210 0.60272
 N607 N 0.76002 -0.04269 0.58950
 C608 C 0.75994 -0.04401 0.56555
 N609 N 0.75966 -0.06584 0.55533
 N610 N 0.75948 -0.08540 0.56862
 N611 N 0.22312 -0.15278 0.35729
 C612 C 0.24107 -0.13695 0.35953
 N613 N 0.25809 -0.13601 0.34263
 N614 N 0.25730 -0.15056 0.32414
 C615 C 0.23935 -0.16643 0.32183
 N616 N 0.22233 -0.16736 0.33880
 C617 C 0.24093 -0.11984 0.37824
 C618 C 0.24075 -0.10415 0.39266
 C619 C 0.24047 -0.08367 0.40761
 N620 N 0.24056 -0.08533 0.43154
 N621 N 0.24033 -0.06577 0.44484
 C622 C 0.23998 -0.04395 0.43461
 N623 N 0.23987 -0.04262 0.41067
 N624 N 0.24011 -0.06204 0.39745
 N625 N 0.77633 0.15298 0.35764
 C626 C 0.75869 0.13678 0.35956
 N627 N 0.74186 0.13565 0.34248
 N628 N 0.74255 0.15036 0.32411
 C629 C 0.76020 0.16660 0.32212
 N630 N 0.77702 0.16772 0.33928
 C631 C 0.75894 0.11953 0.37816
 C632 C 0.75921 0.10378 0.39251
 C633 C 0.75954 0.08327 0.40744
 N634 N 0.75951 0.08491 0.43138
 N635 N 0.75973 0.06534 0.44466
 C636 C 0.75999 0.04352 0.43442
 N637 N 0.76005 0.04222 0.41047
 N638 N 0.75983 0.06164 0.39727
 N639 N 0.22344 0.15306 0.64237
 C640 C 0.24112 0.13688 0.64046
 N641 N 0.25791 0.13574 0.65757
 N642 N 0.25717 0.15043 0.67597
 C643 C 0.23949 0.16664 0.67795
 N644 N 0.22270 0.16776 0.66077
 C645 C 0.24093 0.11967 0.62184
 C646 C 0.24072 0.10392 0.60748
 C647 C 0.24044 0.08340 0.59259
 N648 N 0.24014 0.06179 0.60280
 N649 N 0.23991 0.04234 0.58962
 C650 C 0.23997 0.04362 0.56568
 N651 N 0.24026 0.06541 0.55540
 N652 N 0.24049 0.08501 0.56865
   
