data_POSCAR
  _audit_creation_date              2014-09-24
  _audit_creation_method            'ToBaCCo'
  _symmetry_space_group_name_H-M    'P1'
  _symmetry_Int_Tables_number       1
  _symmetry_cell_setting            triclinic
  loop_
  _symmetry_equiv_pos_as_xyz
 x,y,z
_cell_length_a 42.5953
_cell_length_b 41.8463
_cell_length_c 45.0059
_cell_angle_alpha 90.045700
_cell_angle_beta 89.968000
_cell_angle_gamma 119.436700
loop_
  _atom_site_label
  _atom_site_type_symbol
  _atom_site_fract_x
  _atom_site_fract_y
  _atom_site_fract_z
C1 C -0.00005 0.50220 1.33053
 C2 C 0.03229 0.51422 1.31513
 C3 C 0.03228 0.51306 1.28400
 C4 C 0.00010 0.50177 1.26769
 C5 C -0.03215 0.49071 1.28385
 C6 C -0.03231 0.48997 1.31498
 C7 C 0.00017 0.50149 1.23422
 C8 C -0.03189 0.47977 1.21798
 C9 C -0.03191 0.48038 1.18687
 C10 C 0.00027 0.50099 1.17140
 C11 C 0.03240 0.52185 1.18686
 C12 C 0.03228 0.52295 1.21796
 H13 H -0.00011 0.50235 1.35467
 H14 H 0.05753 0.52082 1.27289
 H15 H -0.05735 0.48278 1.27261
 H16 H -0.05706 0.46205 1.22907
 H17 H 0.00031 0.50081 1.14729
 H18 H 0.05742 0.54084 1.22904
 C19 C 0.49756 0.49788 1.32290
 C20 C 0.47619 0.50897 1.30740
 C21 C 0.47578 0.50843 1.27626
 C22 C 0.49834 0.49864 1.26009
 C23 C 0.52050 0.48845 1.27639
 C24 C 0.51931 0.48717 1.30751
 C25 C 0.49878 0.49906 1.22662
 C26 C 0.51114 0.47846 1.21033
 C27 C 0.51245 0.47970 1.17923
 C28 C 0.49960 0.49986 1.16378
 C29 C 0.48634 0.51961 1.17932
 C30 C 0.48683 0.52007 1.21044
 H31 H 0.49727 0.49760 1.34704
 H32 H 0.45761 0.51551 1.26503
 H33 H 0.53897 0.48167 1.26527
 H34 H 0.51969 0.46112 1.22139
 H35 H 0.49990 0.50015 1.13968
 H36 H 0.47798 0.53712 1.22161
 C37 C 0.50255 1.00028 1.33796
 C38 C 0.48995 0.96739 1.32235
 C39 C 0.49055 0.96751 1.29126
 C40 C 0.50194 1.00040 1.27517
 C41 C 0.51365 1.03325 1.29144
 C42 C 0.51488 1.03327 1.32255
 C43 C 0.50157 1.00044 1.24178
 C44 C 0.52378 1.03280 1.22554
 C45 C 0.52263 1.03289 1.19447
 C46 C 0.50088 1.00050 1.17906
 C47 C 0.47948 0.96808 1.19452
 C48 C 0.47902 0.96811 1.22562
 H49 H 0.50272 1.00012 1.36208
 H50 H 0.48219 0.94174 1.28001
 H51 H 0.52172 1.05901 1.28027
 H52 H 0.54223 1.05807 1.23663
 H53 H 0.50062 1.00052 1.15495
 H54 H 0.46083 0.94280 1.23678
 C55 C 1.00043 0.49803 0.66969
 C56 C 0.96825 0.48639 0.68515
 C57 C 0.96832 0.48766 0.71624
 C58 C 1.00046 0.49867 0.73252
 C59 C 1.03261 0.50934 0.71631
 C60 C 1.03268 0.51000 0.68517
 C61 C 1.00045 0.49902 0.76600
 C62 C 1.03269 0.52006 0.78222
 C63 C 1.03271 0.51949 0.81333
 C64 C 1.00042 0.49971 0.82882
 C65 C 0.96814 0.47959 0.81338
 C66 C 0.96819 0.47835 0.78229
 H67 H 1.00032 0.49776 0.64557
 H68 H 0.94310 0.48015 0.72725
 H69 H 1.05780 0.51706 0.72747
 H70 H 1.05802 0.53720 0.77115
 H71 H 1.00041 0.49996 0.85293
 H72 H 0.94288 0.46097 0.77129
 C73 C 0.50194 0.50174 0.67825
 C74 C 0.52358 0.49104 0.69372
 C75 C 0.52411 0.49165 0.72482
 C76 C 0.50146 0.50130 0.74096
 C77 C 0.47906 0.51118 0.72475
 C78 C 0.48006 0.51222 0.69366
 C79 C 0.50119 0.50104 0.77434
 C80 C 0.48980 0.52247 0.79056
 C81 C 0.48869 0.52145 0.82165
 C82 C 0.50069 0.50057 0.83711
 C83 C 0.51294 0.47993 0.82157
 C84 C 0.51233 0.47937 0.79047
 H85 H 0.50211 0.50190 0.65414
 H86 H 0.54241 0.48473 0.73602
 H87 H 0.46058 0.51792 0.73588
 H88 H 0.48187 0.54026 0.77939
 H89 H 0.50050 0.50039 0.86122
 H90 H 0.52045 0.46177 0.77922
 C91 C 0.49687 -0.00105 0.66246
 C92 C 0.50993 0.03195 0.67801
 C93 C 0.50944 0.03188 0.70913
 C94 C 0.49768 -0.00105 0.72530
 C95 C 0.48548 -0.03401 0.70903
 C96 C 0.48418 -0.03410 0.67789
 C97 C 0.49818 -0.00100 0.75875
 C98 C 0.47582 -0.03325 0.77510
 C99 C 0.47706 -0.03327 0.80623
 C100 C 0.49915 -0.00082 0.82153
 C101 C 0.52073 0.03149 0.80597
 C102 C 0.52103 0.03131 0.77485
 H103 H 0.49663 -0.00094 0.63834
 H104 H 0.51817 0.05774 0.72035
 H105 H 0.47711 -0.05982 0.72023
 H106 H 0.45716 -0.05845 0.76401
 H107 H 0.49958 -0.00064 0.84566
 H108 H 0.53934 0.05650 0.76362
 O109 O 0.38391 0.67692 0.96571
 O110 O 0.38312 0.73824 0.97474
 C111 C 0.35992 0.74257 0.96024
 O112 O 0.32648 0.72510 0.96566
 O113 O 0.26680 0.66400 0.97524
 C114 C 0.26238 0.63594 0.96094
 O115 O 0.27986 0.61933 0.96617
 O116 O 0.34067 0.61953 0.97523
 C117 C 0.36823 0.64272 0.96093
 O118 O 0.38612 0.66727 1.02462
 O119 O 0.38220 0.72683 1.03387
 C120 C 0.36425 0.74290 1.03925
 O121 O 0.33648 0.73726 1.02469
 O122 O 0.27832 0.67468 1.03415
 C123 C 0.26253 0.64062 1.03948
 O124 O 0.26869 0.61800 1.02530
 O125 O 0.33089 0.62108 1.03426
 C126 C 0.36451 0.63875 1.03901
 Cr127 Cr 0.38181 0.70129 0.99975
 Cr128 Cr 0.30311 0.69928 0.99993
 Cr129 Cr 0.30596 0.62154 1.00023
 O130 O 0.33028 0.67401 0.99996
 O131 O 0.61671 0.32376 0.96567
 O132 O 0.61752 0.26248 0.97477
 C133 C 0.64072 0.25810 0.96027
 O134 O 0.67416 0.27559 0.96566
 O135 O 0.73384 0.33673 0.97520
 C136 C 0.73828 0.36476 0.96089
 O137 O 0.72080 0.38139 0.96610
 O138 O 0.65996 0.38118 0.97513
 C139 C 0.63240 0.35795 0.96085
 O140 O 0.61450 0.33356 1.02457
 O141 O 0.61845 0.27405 1.03388
 C142 C 0.63640 0.25800 1.03927
 O143 O 0.66418 0.26361 1.02471
 O144 O 0.72233 0.32623 1.03411
 C145 C 0.73811 0.36030 1.03943
 O146 O 0.73192 0.38287 1.02525
 O147 O 0.66972 0.37981 1.03417
 C148 C 0.63609 0.36213 1.03893
 Cr149 Cr 0.61882 0.29949 0.99974
 Cr150 Cr 0.69754 0.30152 0.99992
 Cr151 Cr 0.69467 0.37926 1.00015
 O152 O 0.67035 0.32679 0.99992
 O153 O 0.67404 0.39837 0.53333
 O154 O 0.73361 0.39683 0.52360
 C155 C 0.73800 0.37334 0.53814
 O156 O 0.72037 0.33917 0.53320
 O157 O 0.65959 0.27834 0.52433
 C158 C 0.63203 0.27395 0.53865
 O159 O 0.61641 0.29252 0.53389
 O160 O 0.61730 0.35465 0.52475
 C161 C 0.64067 0.38237 0.53901
 O162 O 0.66357 0.40000 0.47436
 O163 O 0.72160 0.39534 0.46473
 C164 C 0.73755 0.37718 0.45964
 O165 O 0.73149 0.34860 0.47405
 O166 O 0.66923 0.28940 0.46531
 C167 C 0.63560 0.27348 0.46060
 O168 O 0.61400 0.28045 0.47497
 O169 O 0.61769 0.34379 0.46562
 C170 C 0.63554 0.37778 0.46009
 Cr171 Cr 0.69711 0.39557 0.49902
 Cr172 Cr 0.69424 0.31500 0.49923
 Cr173 Cr 0.61838 0.31885 0.49978
 O174 O 0.66990 0.34311 0.49935
 O175 O 0.33557 0.59919 0.52464
 O176 O 0.27742 0.60363 0.53412
 C177 C 0.26162 0.62189 0.53944
 O178 O 0.26775 0.65064 0.52525
 O179 O 0.32993 0.70986 0.53416
 C180 C 0.36355 0.72587 0.53892
 O181 O 0.38516 0.71887 0.52460
 O182 O 0.38119 0.65539 0.53392
 C183 C 0.36332 0.62135 0.53923
 O184 O 0.32551 0.60127 0.46562
 O185 O 0.26578 0.60261 0.47524
 C186 C 0.26130 0.62619 0.46095
 O187 O 0.27887 0.66032 0.46610
 O188 O 0.33972 0.72098 0.47512
 C189 C 0.36731 0.72534 0.46088
 O190 O 0.38298 0.70684 0.46571
 O191 O 0.38215 0.64474 0.47481
 C192 C 0.35896 0.61719 0.46027
 Cr193 Cr 0.30216 0.60374 0.49990
 Cr194 Cr 0.30500 0.68433 0.50015
 Cr195 Cr 0.38085 0.68046 0.49978
 O196 O 0.32932 0.65620 0.49993
 C197 C 0.40675 0.54511 0.40374
 C198 C 0.38855 0.52511 0.37447
 C199 C 0.42459 0.54781 0.35822
 C200 C 0.44296 0.56757 0.38721
 C201 C 0.39703 0.57502 0.39630
 C202 C 0.43306 0.59769 0.38004
 C203 C 0.37855 0.55528 0.36733
 C204 C 0.41490 0.57773 0.35071
 C205 C 0.44143 0.53303 0.33817
 C206 C 0.45692 0.52140 0.32302
 C207 C 0.38264 0.59022 0.41835
 C208 C 0.37154 0.60264 0.43719
 H209 H 0.40329 0.53187 0.42577
 H210 H 0.37042 0.49512 0.37193
 H211 H 0.46963 0.57248 0.39520
 H212 H 0.45122 0.62768 0.38258
 H213 H 0.35187 0.55042 0.35942
 H214 H 0.41840 0.59094 0.32866
 C215 C 0.40317 0.84218 0.40285
 C216 C 0.44362 0.87130 0.40403
 C217 C 0.44478 0.87132 0.36992
 C218 C 0.40453 0.84264 0.36846
 C219 C 0.41357 0.81185 0.40291
 C220 C 0.41468 0.81177 0.36879
 C221 C 0.45382 0.84054 0.40435
 C222 C 0.45524 0.84104 0.36993
 C223 C 0.46177 0.90506 0.35228
 C224 C 0.47509 0.93329 0.33838
 C225 C 0.39638 0.77964 0.42227
 C226 C 0.38272 0.75420 0.43930
 H227 H 0.38156 0.84230 0.41656
 H228 H 0.45572 0.89612 0.41834
 H229 H 0.38446 0.84390 0.35350
 H230 H 0.40255 0.78691 0.35453
 H231 H 0.47390 0.83931 0.41933
 H232 H 0.47688 0.84098 0.35620
 C233 C 0.15980 0.60572 0.38856
 C234 C 0.15923 0.59090 0.35687
 C235 C 0.12312 0.55663 0.36416
 C236 C 0.12326 0.57125 0.39552
 C237 C 0.17931 0.58546 0.39981
 C238 C 0.14317 0.55120 0.40704
 C239 C 0.17927 0.57086 0.36846
 C240 C 0.14260 0.53635 0.37540
 C241 C 0.09097 0.54069 0.34525
 C242 C 0.06375 0.52796 0.33065
 C243 C 0.20972 0.60101 0.42058
 C244 C 0.23380 0.61305 0.43856
 H245 H 0.16719 0.63441 0.39418
 H246 H 0.16547 0.60701 0.33600
 H247 H 0.09988 0.57122 0.40648
 H248 H 0.13686 0.53505 0.42789
 H249 H 0.20268 0.57092 0.35756
 H250 H 0.13518 0.50765 0.36978
 C251 C 0.56676 0.39713 0.37449
 C252 C 0.54853 0.42001 0.38298
 C253 C 0.57015 0.44760 0.35838
 C254 C 0.58817 0.42495 0.34954
 C255 C 0.59738 0.42003 0.39637
 C256 C 0.61909 0.44762 0.37180
 C257 C 0.57934 0.44268 0.40512
 C258 C 0.60076 0.47049 0.38026
 C259 C 0.55355 0.46262 0.33836
 C260 C 0.53829 0.47447 0.32319
 C261 C 0.61167 0.40470 0.41834
 C262 C 0.62279 0.39225 0.43710
 H263 H 0.55292 0.36679 0.37238
 H264 H 0.51933 0.40880 0.38738
 H265 H 0.59164 0.41787 0.32645
 H266 H 0.64829 0.45878 0.36746
 H267 H 0.57581 0.44980 0.42818
 H268 H 0.61459 0.50083 0.38239
 C269 C 0.55280 0.17157 0.38833
 C270 C 0.56827 0.16586 0.35884
 C271 C 0.55929 0.12742 0.36952
 C272 C 0.54358 0.13261 0.39867
 C273 C 0.59026 0.18692 0.40255
 C274 C 0.58125 0.14844 0.41315
 C275 C 0.60602 0.18177 0.37340
 C276 C 0.59675 0.14280 0.38375
 C277 C 0.54239 0.09370 0.35184
 C278 C 0.52908 0.06548 0.33787
 C279 C 0.60722 0.21915 0.42194
 C280 C 0.62062 0.24461 0.43899
 H281 H 0.53494 0.18381 0.39041
 H282 H 0.56268 0.17259 0.33629
 H283 H 0.51773 0.11205 0.40887
 H284 H 0.58680 0.14161 0.43567
 H285 H 0.63188 0.20235 0.36323
 H286 H 0.61463 0.13059 0.38170
 C287 C 0.84852 0.40634 0.39743
 C288 C 0.84703 0.40709 0.36307
 C289 C 0.87651 0.44764 0.36358
 C290 C 0.87842 0.44707 0.39765
 C291 C 0.82002 0.41866 0.39892
 C292 C 0.84952 0.45920 0.39941
 C293 C 0.81800 0.41918 0.36485
 C294 C 0.84805 0.46001 0.36503
 C295 C 0.90880 0.46361 0.34483
 C296 C 0.93613 0.47632 0.33037
 C297 C 0.78944 0.40294 0.41953
 C298 C 0.76522 0.39069 0.43738
 H299 H 0.84841 0.38411 0.41094
 H300 H 0.84636 0.38585 0.34788
 H301 H 0.90360 0.45873 0.41096
 H302 H 0.85022 0.48047 0.41460
 H303 H 0.79278 0.40749 0.35160
 H304 H 0.84822 0.48227 0.35150
 C305 C 0.56707 0.38356 1.12470
 C306 C 0.58694 0.42016 1.14220
 C307 C 0.55906 0.43053 1.13093
 C308 C 0.53892 0.39421 1.11376
 C309 C 0.59050 0.40284 1.09743
 C310 C 0.56261 0.41323 1.08623
 C311 C 0.61063 0.43915 1.11460
 C312 C 0.58250 0.44974 1.10365
 C313 C 0.54177 0.44681 1.14888
 C314 C 0.52803 0.46120 1.16300
 C315 C 0.60765 0.38790 1.07781
 C316 C 0.62111 0.37599 1.06064
 H317 H 0.56094 0.35618 1.13316
 H318 H 0.59673 0.42317 1.16544
 H319 H 0.50926 0.37590 1.11359
 H320 H 0.55279 0.41026 1.06300
 H321 H 0.64030 0.45748 1.11476
 H322 H 0.58865 0.47711 1.09515
 C323 C 0.81767 0.39498 1.13448
 C324 C 0.85019 0.38803 1.13241
 C325 C 0.87584 0.42932 1.13668
 C326 C 0.84388 0.43655 1.13908
 C327 C 0.81992 0.40137 1.10074
 C328 C 0.84560 0.44264 1.10504
 C329 C 0.85189 0.39416 1.09837
 C330 C 0.87798 0.43564 1.10294
 C331 C 0.90783 0.44595 1.15576
 C332 C 0.93493 0.46089 1.17047
 C333 C 0.78963 0.38636 1.07985
 C334 C 0.76561 0.37437 1.06182
 H335 H 0.79250 0.37810 1.14721
 H336 H 0.85244 0.36577 1.14388
 H337 H 0.84094 0.45415 1.15607
 H338 H 0.84341 0.46494 1.09358
 H339 H 0.85488 0.37658 1.08138
 H340 H 0.90311 0.45250 1.09015
 C341 C 0.59109 0.13931 1.09669
 C342 C 0.60974 0.13855 1.12600
 C343 C 0.57367 0.12458 1.14231
 C344 C 0.55485 0.12493 1.11329
 C345 C 0.59983 0.17875 1.10377
 C346 C 0.56376 0.16475 1.12009
 C347 C 0.61875 0.17853 1.13276
 C348 C 0.58237 0.16400 1.14946
 C349 C 0.55757 0.09326 1.16258
 C350 C 0.54260 0.06630 1.17791
 C351 C 0.61349 0.20795 1.08149
 C352 C 0.62413 0.23116 1.06248
 H353 H 0.59478 0.12947 1.07475
 H354 H 0.62847 0.12744 1.12869
 H355 H 0.52840 0.10255 1.10549
 H356 H 0.54500 0.17583 1.11740
 H357 H 0.64521 0.20096 1.14048
 H358 H 0.57863 0.17376 1.17142
 C359 C 0.44661 0.60102 1.09109
 C360 C 0.45704 0.61076 1.12416
 C361 C 0.44067 0.56968 1.13109
 C362 C 0.43049 0.55975 1.09830
 C363 C 0.40973 0.59780 1.09755
 C364 C 0.39339 0.55673 1.10450
 C365 C 0.41987 0.60780 1.13034
 C366 C 0.40378 0.56643 1.13759
 C367 C 0.45765 0.55312 1.14904
 C368 C 0.47112 0.53847 1.16314
 C369 C 0.39280 0.61291 1.07791
 C370 C 0.37944 0.62489 1.06073
 H371 H 0.46407 0.61540 1.07175
 H372 H 0.48341 0.63280 1.13242
 H373 H 0.43506 0.53986 1.08528
 H374 H 0.36703 0.53466 1.09624
 H375 H 0.41527 0.62770 1.14331
 H376 H 0.38635 0.55203 1.15693
 C377 C 0.14210 0.57175 1.09152
 C378 C 0.13850 0.54955 1.12002
 C379 C 0.12473 0.57231 1.13671
 C380 C 0.12792 0.59429 1.10846
 C381 C 0.18069 0.59991 1.10079
 C382 C 0.16696 0.62272 1.11746
 C383 C 0.17755 0.57793 1.12903
 C384 C 0.16328 0.60047 1.14606
 C385 C 0.09272 0.55588 1.15578
 C386 C 0.06561 0.54112 1.17048
 C387 C 0.21098 0.61475 1.07990
 C388 C 0.23501 0.62663 1.06187
 H389 H 0.13369 0.56006 1.06889
 H390 H 0.12644 0.51928 1.12127
 H391 H 0.10720 0.60087 1.10020
 H392 H 0.17903 0.65299 1.11617
 H393 H 0.19829 0.57136 1.13724
 H394 H 0.17160 0.61211 1.16872
 C395 C 0.38197 0.82298 1.13248
 C396 C 0.41797 0.83675 1.14960
 C397 C 0.42768 0.87642 1.14234
 C398 C 0.39199 0.86321 1.12561
 C399 C 0.40112 0.82225 1.10375
 C400 C 0.41085 0.86194 1.09657
 C401 C 0.43680 0.83548 1.12050
 C402 C 0.44672 0.87556 1.11359
 C403 C 0.44403 0.90774 1.16264
 C404 C 0.45922 0.93469 1.17797
 C405 C 0.38728 0.79304 1.08146
 C406 C 0.37656 0.76979 1.06245
 H407 H 0.35516 0.80096 1.13996
 H408 H 0.42105 0.82677 1.17166
 H409 H 0.37374 0.87495 1.12798
 H410 H 0.40782 0.87200 1.07452
 H411 H 0.45509 0.82378 1.11812
 H412 H 0.47352 0.89752 1.10602
 C413 C 0.61679 0.43546 0.63544
 C414 C 0.61563 0.47169 0.63132
 C415 C 0.57620 0.45188 0.64173
 C416 C 0.57705 0.41593 0.64621
 C417 C 0.60340 0.42470 0.60335
 C418 C 0.56398 0.40496 0.61378
 C419 C 0.60251 0.46063 0.59891
 C420 C 0.56290 0.44108 0.60962
 C421 C 0.55950 0.46661 0.66192
 C422 C 0.54406 0.47815 0.67720
 C423 C 0.61753 0.40948 0.58115
 C424 C 0.62838 0.39701 0.56219
 H425 H 0.63913 0.43294 0.64577
 H426 H 0.63667 0.49928 0.63880
 H427 H 0.56644 0.39776 0.66592
 H428 H 0.54290 0.37737 0.60632
 H429 H 0.61310 0.47882 0.57920
 H430 H 0.54057 0.44356 0.59921
 C431 C 0.57567 0.18682 0.62953
 C432 C 0.53864 0.15248 0.62313
 C433 C 0.55519 0.12793 0.63001
 C434 C 0.59193 0.16169 0.63672
 C435 C 0.58606 0.18729 0.59676
 C436 C 0.60256 0.16270 0.60366
 C437 C 0.54932 0.15351 0.59009
 C438 C 0.56561 0.12850 0.59725
 C439 C 0.53830 0.09425 0.64783
 C440 C 0.52496 0.06606 0.66187
 C441 C 0.60308 0.21951 0.57729
 C442 C 0.61665 0.24500 0.56024
 H443 H 0.58003 0.21117 0.64260
 H444 H 0.51216 0.14791 0.63132
 H445 H 0.60928 0.16469 0.65611
 H446 H 0.62903 0.16722 0.59549
 H447 H 0.53196 0.15046 0.57070
 H448 H 0.56128 0.10419 0.58412
 C449 C 0.85852 0.44138 0.58960
 C450 C 0.86275 0.46563 0.61695
 C451 C 0.87581 0.44339 0.63517
 C452 C 0.87199 0.41936 0.60808
 C453 C 0.81977 0.41443 0.59939
 C454 C 0.83282 0.39218 0.61761
 C455 C 0.82350 0.43845 0.62647
 C456 C 0.83709 0.41644 0.64504
 C457 C 0.90786 0.45935 0.65415
 C458 C 0.93502 0.47205 0.66880
 C459 C 0.78946 0.39877 0.57856
 C460 C 0.76545 0.38663 0.56054
 H461 H 0.86703 0.45144 0.56658
 H462 H 0.87540 0.49600 0.61689
 H463 H 0.89229 0.41170 0.60070
 H464 H 0.82018 0.36181 0.61765
 H465 H 0.80316 0.44608 0.63379
 H466 H 0.82866 0.40642 0.66808
 C467 C 0.38614 0.56650 0.63492
 C468 C 0.38892 0.53125 0.63006
 C469 C 0.42784 0.55172 0.64165
 C470 C 0.42537 0.58670 0.64687
 C471 C 0.40076 0.57905 0.60335
 C472 C 0.43968 0.59946 0.61495
 C473 C 0.40326 0.54408 0.59817
 C474 C 0.44236 0.56431 0.61006
 C475 C 0.44443 0.53690 0.66181
 C476 C 0.45975 0.52526 0.67710
 C477 C 0.38665 0.59431 0.58121
 C478 C 0.37575 0.60677 0.56232
 H479 H 0.36284 0.56761 0.64486
 H480 H 0.36824 0.50304 0.63654
 H481 H 0.43461 0.60401 0.66715
 H482 H 0.46040 0.62766 0.60849
 H483 H 0.39405 0.52675 0.57789
 H484 H 0.46565 0.56323 0.60004
 C485 C 0.42935 0.81585 0.62605
 C486 C 0.45957 0.85405 0.61573
 C487 C 0.43940 0.87179 0.63058
 C488 C 0.40945 0.83415 0.64122
 C489 C 0.40864 0.81248 0.59721
 C490 C 0.38849 0.83024 0.61207
 C491 C 0.43859 0.85015 0.58663
 C492 C 0.41868 0.86833 0.60173
 C493 C 0.45630 0.90545 0.64846
 C494 C 0.46972 0.93363 0.66254
 C495 C 0.39179 0.78029 0.57766
 C496 C 0.37848 0.75482 0.56056
 H497 H 0.43353 0.79389 0.63586
 H498 H 0.48897 0.86419 0.61741
 H499 H 0.39768 0.82794 0.66390
 H500 H 0.35909 0.82011 0.61038
 H501 H 0.45041 0.85643 0.56396
 H502 H 0.41448 0.89026 0.59188
 C503 C 0.14169 0.55051 0.59148
 C504 C 0.13898 0.52978 0.62069
 C505 C 0.12350 0.55170 0.63624
 C506 C 0.12578 0.57219 0.60730
 C507 C 0.17965 0.58048 0.60056
 C508 C 0.16416 0.60239 0.61611
 C509 C 0.17746 0.56000 0.62949
 C510 C 0.16143 0.58167 0.64539
 C511 C 0.09138 0.53590 0.65515
 C512 C 0.06415 0.52339 0.66972
 C513 C 0.21002 0.59612 0.57977
 C514 C 0.23409 0.60836 0.56180
 H515 H 0.13388 0.53788 0.56909
 H516 H 0.12828 0.49976 0.62279
 H517 H 0.10418 0.57702 0.59835
 H518 H 0.17483 0.63240 0.61400
 H519 H 0.19910 0.55521 0.63838
 H520 H 0.16916 0.59426 0.66780
 C521 C 0.43348 0.58210 0.91492
 C522 C 0.41366 0.55135 0.89169
 C523 C 0.44441 0.57303 0.86959
 C524 C 0.46447 0.60357 0.89257
 C525 C 0.41387 0.60187 0.90278
 C526 C 0.44463 0.62363 0.88069
 C527 C 0.39380 0.57133 0.87979
 C528 C 0.42482 0.59279 0.85737
 C529 C 0.46103 0.55598 0.85182
 C530 C 0.47408 0.54086 0.83781
 C531 C 0.39701 0.61719 0.92224
 C532 C 0.38353 0.62915 0.93931
 H533 H 0.43684 0.57784 0.93880
 H534 H 0.40112 0.52145 0.89606
 H535 H 0.49371 0.61664 0.89764
 H536 H 0.45713 0.65353 0.87637
 H537 H 0.36456 0.55825 0.87474
 H538 H 0.42149 0.59700 0.83348
 C539 C 0.18128 0.61008 0.86808
 C540 C 0.16116 0.57008 0.85625
 C541 C 0.12510 0.56839 0.86341
 C542 C 0.14466 0.60808 0.87489
 C543 C 0.18097 0.59523 0.89936
 C544 C 0.14487 0.59350 0.90646
 C545 C 0.16138 0.55554 0.88787
 C546 C 0.12488 0.55362 0.89470
 C547 C 0.09310 0.55247 0.84436
 C548 C 0.06596 0.53817 0.82968
 C549 C 0.21116 0.60980 0.92031
 C550 C 0.23506 0.62168 0.93842
 H551 H 0.20487 0.63345 0.85737
 H552 H 0.16748 0.56030 0.83535
 H553 H 0.13744 0.62951 0.86934
 H554 H 0.13847 0.60325 0.92734
 H555 H 0.16857 0.53410 0.89342
 H556 H 0.10134 0.53027 0.90546
 C557 C 0.39338 0.85655 0.89765
 C558 C 0.43405 0.88077 0.89097
 C559 C 0.42551 0.87677 0.85756
 C560 C 0.38502 0.85297 0.86391
 C561 C 0.39795 0.82238 0.89596
 C562 C 0.38932 0.81825 0.86256
 C563 C 0.43842 0.84624 0.88957
 C564 C 0.43010 0.84262 0.85586
 C565 C 0.44233 0.90819 0.83733
 C566 C 0.45781 0.93517 0.82202
 C567 C 0.38356 0.79299 0.91816
 C568 C 0.37248 0.76960 0.93709
 H569 H 0.37816 0.86199 0.91508
 H570 H 0.45261 0.90681 0.90247
 H571 H 0.36325 0.85608 0.85311
 H572 H 0.37075 0.79216 0.85114
 H573 H 0.46024 0.84320 0.90035
 H574 H 0.44535 0.83722 0.83842
 C575 C 0.60460 0.42269 0.87511
 C576 C 0.56852 0.40078 0.85806
 C577 C 0.55668 0.42786 0.86944
 C578 C 0.59247 0.44999 0.88616
 C579 C 0.58696 0.39882 0.90263
 C580 C 0.57508 0.42591 0.91392
 C581 C 0.55116 0.37663 0.88593
 C582 C 0.53907 0.40399 0.89696
 C583 C 0.54023 0.44505 0.85167
 C584 C 0.52734 0.46032 0.83768
 C585 C 0.60371 0.38343 0.92211
 C586 C 0.61713 0.37147 0.93921
 H587 H 0.63172 0.43019 0.86635
 H588 H 0.56559 0.39063 0.83488
 H589 H 0.60927 0.48035 0.88609
 H590 H 0.57798 0.43611 0.93709
 H591 H 0.53439 0.34627 0.88604
 H592 H 0.51195 0.39649 0.90575
 C593 C 0.82873 0.43562 0.87649
 C594 C 0.86863 0.45433 0.88654
 C595 C 0.87570 0.43150 0.86347
 C596 C 0.83628 0.41301 0.85307
 C597 C 0.81977 0.40509 0.89936
 C598 C 0.82678 0.38221 0.87630
 C599 C 0.85922 0.42360 0.90966
 C600 C 0.86671 0.40098 0.88634
 C601 C 0.90772 0.44715 0.84443
 C602 C 0.93488 0.46121 0.82976
 C603 C 0.78953 0.39071 0.92027
 C604 C 0.76561 0.37895 0.93838
 H605 H 0.81278 0.44971 0.87268
 H606 H 0.88621 0.48415 0.89055
 H607 H 0.82723 0.40881 0.82956
 H608 H 0.80918 0.35237 0.87233
 H609 H 0.86836 0.42785 0.93315
 H610 H 0.88265 0.38689 0.89018
 C611 C 0.56172 0.15357 0.89060
 C612 C 0.56896 0.15717 0.85672
 C613 C 0.57426 0.12343 0.85788
 C614 C 0.56680 0.11945 0.89148
 C615 C 0.60231 0.17800 0.89615
 C616 C 0.60760 0.14425 0.89730
 C617 C 0.60986 0.18212 0.86257
 C618 C 0.61488 0.14781 0.86338
 C619 C 0.55717 0.09193 0.83772
 C620 C 0.54147 0.06493 0.82246
 C621 C 0.61692 0.20751 0.91828
 C622 C 0.62811 0.23098 0.93716
 H623 H 0.54000 0.15621 0.90202
 H624 H 0.55292 0.16216 0.83979
 H625 H 0.54892 0.09335 0.90317
 H626 H 0.62361 0.13924 0.91424
 H627 H 0.62775 0.20826 0.85095
 H628 H 0.63654 0.14509 0.85194
   
