data_POSCAR
  _audit_creation_date              2014-09-24
  _audit_creation_method            'ToBaCCo'
  _symmetry_space_group_name_H-M    'P1'
  _symmetry_Int_Tables_number       1
  _symmetry_cell_setting            triclinic
  loop_
  _symmetry_equiv_pos_as_xyz
 x,y,z
_cell_length_a 32.5514
_cell_length_b 35.9378
_cell_length_c 36.3907
_cell_angle_alpha 86.263800
_cell_angle_beta 79.612300
_cell_angle_gamma 94.546400
loop_
  _atom_site_label
  _atom_site_type_symbol
  _atom_site_fract_x
  _atom_site_fract_y
  _atom_site_fract_z
N1 N 0.56186 0.65903 0.58030
 N2 N 0.54146 0.65898 0.61496
 C3 C 0.51403 0.68520 0.61652
 C4 C 0.51718 0.70215 0.58082
 C5 C 0.54773 0.68491 0.55845
 H6 H 0.49318 0.69131 0.64163
 H7 H 0.55954 0.69131 0.52878
 Cu8 Cu 0.55285 0.62471 0.65469
 Cu9 Cu 0.60728 0.62732 0.56750
 Cu10 Cu 0.59265 0.54563 0.62598
 N11 N 0.55799 0.58336 0.69009
 N12 N 0.57171 0.55180 0.67874
 C13 C 0.57135 0.52783 0.70883
 C14 C 0.55760 0.54580 0.74068
 C15 C 0.54923 0.58091 0.72779
 H16 H 0.58231 0.50022 0.70757
 H17 H 0.53827 0.60315 0.74458
 N18 N 0.62982 0.55123 0.57616
 N19 N 0.63717 0.58327 0.55515
 C20 C 0.66891 0.58072 0.52648
 C21 C 0.68202 0.54525 0.52934
 C22 C 0.65646 0.52708 0.56093
 H23 H 0.68250 0.60342 0.50582
 H24 H 0.65936 0.49954 0.57354
 H25 H 0.56630 0.58872 0.59977
 H26 H 0.61458 0.60090 0.61925
 N27 N 0.90946 0.33471 0.08649
 N28 N 0.91874 0.33772 0.12011
 C29 C 0.94053 0.30879 0.12819
 C30 C 0.94544 0.28707 0.09787
 C31 C 0.92509 0.30415 0.07217
 H32 H 0.95410 0.30525 0.15308
 H33 H 0.92328 0.29584 0.04442
 Cu34 Cu 0.90804 0.38240 0.14844
 Cu35 Cu 0.88082 0.37208 0.06164
 Cu36 Cu 0.87543 0.45375 0.09987
 N37 N 0.91089 0.43354 0.16380
 N38 N 0.90102 0.46165 0.14309
 C39 C 0.90796 0.49375 0.15891
 C40 C 0.92196 0.48522 0.19174
 C41 C 0.92327 0.44676 0.19428
 H42 H 0.90164 0.52108 0.14819
 H43 H 0.93307 0.42981 0.21623
 N44 N 0.83761 0.43827 0.06696
 N45 N 0.83930 0.40588 0.05220
 C46 C 0.80993 0.40231 0.03059
 C47 C 0.78881 0.43426 0.03208
 C48 C 0.80720 0.45651 0.05530
 H49 H 0.80464 0.37847 0.01481
 H50 H 0.79904 0.48388 0.06315
 H51 H 0.91927 0.40200 0.09321
 H52 H 0.86341 0.38611 0.11441
 N53 N 0.44881 0.16728 -0.12573
 N54 N 0.47755 0.14479 -0.13803
 C55 C 0.51584 0.16225 -0.13858
 C56 C 0.51080 0.19751 -0.12651
 C57 C 0.46799 0.19991 -0.11872
 H58 H 0.54517 0.15047 -0.14777
 H59 H 0.45197 0.22309 -0.10746
 Cu60 Cu 0.46365 0.09558 -0.15588
 Cu61 Cu 0.38838 0.15109 -0.11516
 Cu62 Cu 0.36156 0.06759 -0.14376
 N63 N 0.44184 0.05985 -0.18737
 N64 N 0.40138 0.05045 -0.18404
 C65 C 0.39504 0.02703 -0.21030
 C66 C 0.43376 0.02109 -0.23071
 C67 C 0.46278 0.04204 -0.21528
 H68 H 0.36475 0.01446 -0.21361
 H69 H 0.49653 0.04457 -0.22400
 N70 N 0.32830 0.08664 -0.10041
 N71 N 0.33718 0.12053 -0.09064
 C72 C 0.30956 0.12651 -0.05976
 C73 C 0.28279 0.09425 -0.04924
 C74 C 0.29555 0.06949 -0.07556
 H75 H 0.31082 0.15136 -0.04459
 H76 H 0.28274 0.04085 -0.07601
 H77 H 0.41268 0.10122 -0.11342
 H78 H 0.41264 0.12217 -0.16166
 N79 N 0.08492 0.82018 0.42614
 N80 N 0.06492 0.82805 0.39868
 C81 C 0.04003 0.79748 0.39414
 C82 C 0.04426 0.76941 0.42075
 C83 C 0.07279 0.78481 0.44063
 H84 H 0.01958 0.79603 0.37383
 H85 H 0.08426 0.77109 0.46361
 Cu86 Cu 0.07187 0.87824 0.37331
 Cu87 Cu 0.12661 0.85554 0.44009
 Cu88 Cu 0.14118 0.94459 0.39457
 N89 N 0.07807 0.92927 0.35012
 N90 N 0.10699 0.95431 0.35679
 C91 C 0.10640 0.98623 0.33543
 C92 C 0.07480 0.98112 0.31504
 C93 C 0.05725 0.94484 0.32511
 H94 H 0.12671 1.01157 0.33534
 H95 H 0.03189 0.93071 0.31433
 N96 N 0.17248 0.92918 0.43383
 N97 N 0.16751 0.89491 0.45040
 C98 C 0.19385 0.89250 0.47485
 C99 C 0.21592 0.92699 0.47408
 C100 C 0.20159 0.94972 0.44795
 H101 H 0.19649 0.86767 0.49238
 H102 H 0.21203 0.97886 0.43961
 H103 H 0.09927 0.90330 0.42565
 H104 H 0.14136 0.88784 0.38941
 C105 C 0.09391 0.15585 0.10554
 C106 C 0.12806 0.13493 0.09507
 C107 C 0.13687 0.10724 0.12000
 C108 C 0.11212 0.10064 0.15592
 C109 C 0.07811 0.12117 0.16629
 C110 C 0.06915 0.14929 0.14101
 C111 C 0.07567 0.18153 0.08557
 N112 N 0.04111 0.19121 0.10826
 C113 C 0.03657 0.17184 0.14223
 C114 C 0.05706 0.10570 0.20093
 N115 N 0.07822 0.07717 0.21178
 C116 C 0.11181 0.07372 0.18464
 C117 C 0.16835 0.08851 0.10096
 N118 N 0.17913 0.10479 0.06551
 C119 C 0.15491 0.13321 0.06144
 H120 H 0.08591 0.19160 0.05640
 H121 H 0.01046 0.17265 0.16517
 H122 H 0.02797 0.11370 0.21652
 H123 H 0.13292 0.05193 0.18491
 H124 H 0.18139 0.06411 0.11156
 H125 H 0.15513 0.14976 0.03545
 C126 C 0.39693 0.85931 0.57978
 C127 C 0.36902 0.88571 0.57338
 C128 C 0.36530 0.91648 0.59451
 C129 C 0.38916 0.92083 0.62277
 C130 C 0.41677 0.89464 0.62897
 C131 C 0.42039 0.86364 0.60763
 C132 C 0.40824 0.82767 0.56251
 N133 N 0.43736 0.81270 0.57983
 C134 C 0.44509 0.83430 0.60743
 C135 C 0.43732 0.90655 0.65651
 N136 N 0.42232 0.93890 0.66755
 C137 C 0.39282 0.94806 0.64735
 C138 C 0.33704 0.93797 0.58113
 N139 N 0.32336 0.92044 0.55308
 C140 C 0.34258 0.88855 0.54806
 H141 H 0.39645 0.81645 0.53913
 H142 H 0.46773 0.82955 0.62527
 H143 H 0.46154 0.89296 0.66756
 H144 H 0.37637 0.97306 0.64962
 H145 H 0.32702 0.96414 0.59106
 H146 H 0.33818 0.86929 0.52715
 C147 C 0.91229 0.60526 0.41643
 C148 C 0.87914 0.57703 0.42603
 C149 C 0.87230 0.55089 0.40090
 C150 C 0.89852 0.55306 0.36553
 C151 C 0.93065 0.58170 0.35564
 C152 C 0.93756 0.60801 0.38123
 C153 C 0.92653 0.63365 0.43582
 N154 N 0.95931 0.65371 0.41294
 C155 C 0.96642 0.63864 0.37943
 C156 C 0.94873 0.57875 0.31886
 N157 N 0.92860 0.54893 0.30652
 C158 C 0.89784 0.53297 0.33463
 C159 C 0.83576 0.52899 0.41652
 N160 N 0.82043 0.54191 0.44999
 C161 C 0.84662 0.57108 0.45619
 H162 H 0.91457 0.63903 0.46453
 H163 H 0.99164 0.64832 0.35629
 H164 H 0.97369 0.59751 0.30195
 H165 H 0.87544 0.50977 0.33220
 H166 H 0.81993 0.50732 0.40346
 H167 H 0.84111 0.58794 0.47988
 C168 C 0.61702 0.36815 -0.09183
 C169 C 0.63817 0.39595 -0.07500
 C170 C 0.63253 0.43333 -0.08254
 C171 C 0.60638 0.44344 -0.10746
 C172 C 0.58609 0.41604 -0.12456
 C173 C 0.59083 0.37821 -0.11618
 C174 C 0.61590 0.32962 -0.08936
 N175 N 0.58907 0.31653 -0.11104
 C176 C 0.57365 0.34580 -0.12769
 C177 C 0.56590 0.43390 -0.14978
 N178 N 0.57320 0.47130 -0.14783
 C179 C 0.59758 0.47763 -0.12197
 C180 C 0.65707 0.45414 -0.06289
 N181 N 0.67748 0.43028 -0.04384
 C182 C 0.66629 0.39462 -0.05090
 H183 H 0.63234 0.31238 -0.07243
 H184 H 0.55155 0.34359 -0.14655
 H185 H 0.54849 0.42088 -0.16898
 H186 H 0.60990 0.50496 -0.11593
 H187 H 0.66031 0.48434 -0.06279
 H188 H 0.67765 0.36972 -0.03944
 N189 N 0.00343 0.21559 0.06237
 N190 N -0.02292 0.24125 0.05884
 C191 C -0.03066 0.25678 0.09192
 C192 C -0.00857 0.23950 0.11625
 N193 N 0.01213 0.21412 0.09652
 H194 H -0.00638 0.24559 0.14461
 N195 N 0.46542 0.77017 0.53512
 N196 N 0.48758 0.74071 0.53411
 C197 C 0.49381 0.73274 0.56935
 C198 C 0.47507 0.75818 0.59206
 N199 N 0.45784 0.78091 0.56960
 H200 H 0.47445 0.76025 0.62169
 N201 N 1.00128 0.67909 0.45500
 N202 N 1.02521 0.71002 0.45757
 C203 C 1.02377 0.73345 0.42734
 C204 C 0.99846 0.71583 0.40575
 N205 N 0.98527 0.68217 0.42415
 H206 H 0.99035 0.72621 0.37964
 N207 N 0.60277 0.25153 -0.11283
 N208 N 0.58287 0.21900 -0.11744
 C209 C 0.54386 0.22606 -0.12191
 C210 C 0.54033 0.26386 -0.12016
 N211 N 0.57770 0.27857 -0.11456
 H212 H 0.51335 0.27906 -0.12234
 N213 N 0.02521 0.03791 0.25526
 N214 N 0.02313 0.01106 0.28250
 C215 C 0.06272 0.00832 0.28805
 C216 C 0.08929 0.03407 0.26334
 N217 N 0.06460 0.05192 0.24360
 H218 H 0.12315 0.03851 0.25921
 N219 N 0.55300 0.53280 -0.16274
 N220 N 0.54838 0.55385 -0.19276
 C221 C 0.55577 0.53267 -0.22218
 C222 C 0.56448 0.49774 -0.20931
 N223 N 0.56227 0.49913 -0.17224
 H224 H 0.57347 0.47435 -0.22529
 N225 N 0.47583 0.96104 0.70083
 N226 N 0.48019 0.98318 0.72785
 C227 C 0.44270 0.99657 0.73872
 C228 C 0.41508 0.98225 0.71738
 N229 N 0.43715 0.96039 0.69417
 H230 H 0.38233 0.98671 0.71894
 N231 N 0.94901 0.56391 0.23994
 N232 N 0.94721 0.54785 0.20846
 C233 C 0.93179 0.51192 0.21837
 C234 C 0.92380 0.50630 0.25694
 N235 N 0.93499 0.53946 0.26916
 H236 H 0.90978 0.48128 0.27426
 N237 N 0.21233 0.05540 0.03331
 N238 N 0.23928 0.05140 0.00218
 C239 C 0.25133 0.08610 -0.01473
 C240 C 0.23091 0.11165 0.00682
 N241 N 0.20704 0.09125 0.03639
 H242 H 0.23328 0.14182 0.00173
 N243 N 0.76287 0.49655 0.47892
 N244 N 0.72542 0.49621 0.50076
 C245 C 0.71938 0.53225 0.50678
 C246 C 0.75417 0.55468 0.48841
 N247 N 0.78039 0.53138 0.47157
 H248 H 0.75996 0.58484 0.48740
 N249 N 0.70979 0.47515 -0.00884
 N250 N 0.73939 0.47725 0.01180
 C251 C 0.75467 0.44344 0.01269
 C252 C 0.73349 0.42032 -0.00790
 N253 N 0.70582 0.44126 -0.02072
 H254 H 0.73809 0.39157 -0.01336
 N255 N 0.28833 0.96903 0.52560
 N256 N 0.26001 0.97203 0.50376
 C257 C 0.24778 0.93688 0.49654
 C258 C 0.26945 0.91220 0.51441
 N259 N 0.29429 0.93337 0.53210
 H260 H 0.26736 0.88198 0.51459
   
