data_POSCAR
  _audit_creation_date              2014-09-24
  _audit_creation_method            'ToBaCCo'
  _symmetry_space_group_name_H-M    'P1'
  _symmetry_Int_Tables_number       1
  _symmetry_cell_setting            triclinic
  loop_
  _symmetry_equiv_pos_as_xyz
 x,y,z
_cell_length_a 24.3801
_cell_length_b 23.0209
_cell_length_c 26.5190
_cell_angle_alpha 90.957300
_cell_angle_beta 90.963400
_cell_angle_gamma 84.183300
loop_
  _atom_site_label
  _atom_site_type_symbol
  _atom_site_fract_x
  _atom_site_fract_y
  _atom_site_fract_z
C1 C 1.20062 0.24268 0.19853
 C2 C 1.25057 0.26639 0.17476
 C3 C 1.28435 0.29109 0.20863
 C4 C 1.26513 0.28916 0.26351
 C5 C 1.22440 0.20074 0.23930
 C6 C 1.25848 0.22441 0.27290
 C7 C 1.17203 0.29454 0.22807
 C8 C 1.20562 0.31885 0.26256
 H9 H 1.25547 0.26832 0.13433
 H10 H 1.29248 0.30909 0.29134
 H11 H 1.21402 0.15621 0.24194
 H12 H 1.12796 0.30625 0.22557
 C13 C 0.71870 -0.28401 0.19653
 C14 C 0.76575 -0.25471 0.17376
 C15 C 0.79587 -0.22627 0.20817
 C16 C 0.77561 -0.23013 0.26270
 C17 C 0.74541 -0.32384 0.23752
 C18 C 0.77476 -0.29575 0.27260
 C19 C 0.68457 -0.23529 0.22555
 C20 C 0.71412 -0.20726 0.26094
 H21 H 0.77164 -0.25304 0.13345
 H22 H 0.80013 -0.20718 0.29099
 H23 H 0.74020 -0.36990 0.23869
 H24 H 0.64010 -0.22960 0.22245
 C25 C 0.74028 0.20963 -0.30079
 C26 C 0.78461 0.23810 -0.32291
 C27 C 0.80811 0.27864 -0.28952
 C28 C 0.78302 0.28197 -0.23979
 C29 C 0.76364 0.18225 -0.25522
 C30 C 0.78758 0.22212 -0.22150
 C31 C 0.70052 0.25755 -0.28360
 C32 C 0.72382 0.29674 -0.24840
 H33 H 0.79387 0.23429 -0.36271
 H34 H 0.80182 0.31284 -0.21346
 H35 H 0.76548 0.13570 -0.24885
 H36 H 0.65755 0.26191 -0.29492
 C37 C 1.22033 -0.28822 -0.29936
 C38 C 1.26449 -0.25901 -0.32695
 C39 C 1.29794 -0.22972 -0.29607
 C40 C 1.28418 -0.23333 -0.23973
 C41 C 1.25232 -0.32769 -0.26080
 C42 C 1.28559 -0.29946 -0.22927
 C43 C 1.18965 -0.23935 -0.26820
 C44 C 1.22271 -0.21042 -0.23674
 H45 H 1.26950 -0.26278 -0.36740
 H46 H 1.31063 -0.20868 -0.21463
 H47 H 1.24825 -0.37398 -0.25826
 H48 H 1.14507 -0.23225 -0.26811
 C49 C 0.20825 0.21117 0.79510
 C50 C 0.24434 0.24949 0.82008
 C51 C 0.27641 0.27943 0.78618
 C52 C 0.26556 0.26605 0.73343
 C53 C 0.17266 0.25045 0.75815
 C54 C 0.20292 0.27942 0.72589
 C55 C 0.24537 0.17045 0.76074
 C56 C 0.27542 0.19927 0.72820
 H57 H 0.24926 0.25157 0.86071
 H58 H 0.28979 0.28962 0.70670
 H59 H 0.12804 0.25654 0.75888
 H60 H 0.24424 0.12363 0.76030
 C61 C 0.70543 0.71823 0.80134
 C62 C 0.73057 0.76048 0.83298
 C63 C 0.76216 0.79852 0.80614
 C64 C 0.76103 0.78768 0.75101
 C65 C 0.67230 0.75178 0.76421
 C66 C 0.70192 0.79058 0.73645
 C67 C 0.75042 0.68770 0.77308
 C68 C 0.78138 0.72551 0.74438
 H69 H 0.72862 0.76078 0.87385
 H70 H 0.78465 0.81716 0.72927
 H71 H 0.62908 0.74673 0.75692
 H72 H 0.75475 0.64065 0.76943
 C73 C 0.71103 0.20628 0.29166
 C74 C 0.73479 0.25281 0.32463
 C75 C 0.76333 0.29036 0.29887
 C76 C 0.76591 0.27680 0.24160
 C77 C 0.67666 0.24016 0.25117
 C78 C 0.70492 0.27670 0.22433
 C79 C 0.76010 0.17548 0.26332
 C80 C 0.78930 0.21215 0.23710
 H81 H 0.73137 0.25354 0.36528
 H82 H 0.79025 0.30662 0.22103
 H83 H 0.63393 0.23384 0.24302
 H84 H 0.76674 0.12840 0.25979
 C85 C 0.21051 0.69625 0.29681
 C86 C 0.24333 0.73218 0.33295
 C87 C 0.27770 0.76591 0.31018
 C88 C 0.27486 0.76215 0.25214
 C89 C 0.17988 0.74072 0.26137
 C90 C 0.21344 0.77484 0.23742
 C91 C 0.25370 0.66207 0.26358
 C92 C 0.28765 0.69664 0.24013
 H93 H 0.24320 0.72690 0.37351
 H94 H 0.30227 0.79015 0.23287
 H95 H 0.13575 0.74354 0.25475
 H96 H 0.25427 0.61553 0.25691
 O97 O 1.08864 0.04477 0.06197
 O98 O 0.94596 -0.06889 0.07039
 O99 O 0.93040 0.10818 0.03346
 O100 O 1.05760 -0.12985 0.01115
 O101 O 0.92746 0.03452 0.08065
 O102 O 1.08401 -0.06376 0.06291
 O103 O 0.95907 -0.13054 0.01060
 O104 O 1.03152 0.11452 0.03048
 C105 C 1.07055 0.09733 0.05987
 C106 C 0.94763 -0.12021 0.05575
 C107 C 0.92251 0.08818 0.07590
 C108 C 1.07758 -0.11576 0.05349
 O109 O 1.11413 -0.06910 -0.03206
 O110 O 0.87551 0.04133 -0.01160
 O111 O 1.03162 0.09287 -0.06602
 O112 O 0.95015 -0.07214 -0.07823
 O113 O 0.88961 -0.06292 -0.02083
 O114 O 1.10477 0.03977 -0.03588
 O115 O 1.04774 -0.07636 -0.08264
 O116 O 0.93095 0.07662 -0.06305
 Co117 Co 1.08795 -0.01198 0.01276
 Co118 Co 0.91715 -0.01367 0.02706
 Co119 Co 0.98221 0.08758 -0.01494
 Co120 Co 1.00346 -0.09433 -0.03185
 O121 O 0.99806 -0.00718 -0.00142
 C122 C 1.09788 -0.07815 -0.07573
 C123 C 0.88358 0.06676 -0.05215
 C124 C 1.08207 0.07644 -0.06682
 C125 C 0.90126 -0.07228 -0.06633
 O126 O 1.05818 0.55252 0.57552
 O127 O 0.92018 0.44744 0.56772
 O128 O 0.94095 0.62939 0.54920
 O129 O 1.04768 0.38943 0.50713
 O130 O 0.89508 0.55807 0.57541
 O131 O 1.06019 0.45099 0.56592
 O132 O 0.95030 0.38778 0.50810
 O133 O 1.04144 0.62613 0.53034
 C134 C 1.05900 0.60529 0.57085
 C135 C 0.93296 0.39651 0.55242
 C136 C 0.90977 0.60877 0.58049
 C137 C 1.06047 0.39951 0.55215
 O138 O 1.10228 0.45483 0.47177
 O139 O 0.86421 0.55922 0.48002
 O140 O 1.02177 0.59987 0.43560
 O141 O 0.94061 0.44680 0.41887
 O142 O 0.87771 0.45208 0.47372
 O143 O 1.09364 0.55983 0.47630
 O144 O 1.03638 0.45450 0.41945
 O145 O 0.92038 0.62007 0.45291
 Co146 Co 1.07082 0.50545 0.52049
 Co147 Co 0.89886 0.50455 0.52232
 Co148 Co 0.98180 0.60805 0.49281
 Co149 Co 0.99340 0.42733 0.46636
 O150 O 0.98487 0.51214 0.50064
 C151 C 1.08652 0.44940 0.42719
 C152 C 0.87422 0.60153 0.45345
 C153 C 1.07196 0.58351 0.43699
 C154 C 0.89212 0.44241 0.42894
 O155 O 0.60203 0.06277 0.54616
 O156 O 0.39394 -0.05493 0.50792
 O157 O 0.43382 0.11651 0.53348
 O158 O 0.56084 -0.11228 0.53661
 O159 O 0.40118 0.03713 0.54916
 O160 O 0.59246 -0.03554 0.56760
 O161 O 0.46249 -0.09563 0.54802
 O162 O 0.52196 0.09451 0.56918
 C163 C 0.57140 0.08671 0.57926
 C164 C 0.41190 -0.08539 0.54393
 C165 C 0.40770 0.08759 0.56216
 C166 C 0.58828 -0.08836 0.57027
 O167 O 0.61357 -0.07095 0.47326
 O168 O 0.40070 0.08671 0.45626
 O169 O 0.56677 0.11119 0.47592
 O170 O 0.44831 -0.09589 0.44344
 O171 O 0.41872 -0.00965 0.41954
 O172 O 0.60365 0.03002 0.44710
 O173 O 0.54358 -0.09622 0.43419
 O174 O 0.47969 0.10924 0.43893
 Co175 Co 0.59310 -0.00235 0.50711
 Co176 Co 0.41373 0.01413 0.48473
 Co177 Co 0.50075 0.09810 0.50377
 Co178 Co 0.50375 -0.09015 0.49139
 O179 O 0.50295 0.00470 0.49678
 C180 C 0.59333 -0.09105 0.43428
 C181 C 0.43042 0.11242 0.42816
 C182 C 0.59621 0.08358 0.44380
 C183 C 0.42537 -0.06275 0.41031
 O184 O 0.61185 0.55065 0.02483
 O185 O 0.43679 0.43940 0.06965
 O186 O 0.43908 0.61295 0.03593
 O187 O 0.56797 0.37431 0.01250
 O188 O 0.44401 0.53900 0.07735
 O189 O 0.61038 0.44726 0.04395
 O190 O 0.46809 0.37185 0.01735
 O191 O 0.53756 0.58388 0.06040
 C192 C 0.58825 0.57557 0.06169
 C193 C 0.44523 0.38681 0.05818
 C194 C 0.42893 0.59089 0.07593
 C195 C 0.60068 0.39473 0.04518
 O196 O 0.61709 0.42046 -0.04897
 O197 O 0.39629 0.55394 -0.02368
 O198 O 0.55998 0.60301 -0.03723
 O199 O 0.45053 0.41136 -0.07583
 O200 O 0.39250 0.44938 -0.02144
 O201 O 0.58996 0.52329 -0.07300
 O202 O 0.54537 0.41506 -0.08964
 O203 O 0.46315 0.59643 -0.05714
 Co204 Co 0.59683 0.48714 -0.01300
 Co205 Co 0.42523 0.49656 0.02276
 Co206 Co 0.50156 0.58709 0.00036
 Co207 Co 0.50912 0.40199 -0.03143
 O208 O 0.50755 0.49204 -0.00567
 C209 C 0.59566 0.40795 -0.08919
 C210 C 0.41382 0.58574 -0.05786
 C211 C 0.58205 0.57694 -0.07430
 C212 C 0.40215 0.42251 -0.06201
 C213 C 1.16354 0.21387 0.16181
 C214 C 1.18345 0.16647 0.13551
 C215 C 1.15019 0.12784 0.10581
 C216 C 1.09725 0.13994 0.09146
 H217 H 1.22704 0.15192 0.13900
 H218 H 1.17215 0.08665 0.09414
 H219 H 1.11992 0.22836 0.16093
 H220 H 1.07505 0.18213 0.09929
 C221 C 1.18277 0.68090 0.66621
 C222 C 1.14466 0.64901 0.68427
 C223 C 1.10827 0.61785 0.65097
 C224 C 1.08773 0.64017 0.60754
 H225 H 1.14272 0.64213 0.72448
 H226 H 1.09838 0.57535 0.66274
 H227 H 1.18655 0.68549 0.62585
 H228 H 1.09467 0.68417 0.59727
 C229 C 0.71947 0.16825 0.66500
 C230 C 0.66679 0.15028 0.66764
 C231 C 0.64799 0.11517 0.62950
 C232 C 0.59201 0.11029 0.62319
 H233 H 0.63885 0.16740 0.69689
 H234 H 0.67652 0.09711 0.60095
 H235 H 0.74690 0.14810 0.63636
 H236 H 0.56312 0.13099 0.65030
 C237 C 0.68530 0.68467 0.15884
 C238 C 0.70653 0.63617 0.13480
 C239 C 0.67436 0.60335 0.09895
 C240 C 0.61954 0.60312 0.10138
 H241 H 0.74971 0.62091 0.14026
 H242 H 0.69712 0.57813 0.06987
 H243 H 0.64340 0.70281 0.15081
 H244 H 0.59662 0.62576 0.13169
 C245 C 0.83866 -0.18854 0.19350
 C246 C 0.86831 -0.19890 0.15156
 C247 C 0.90141 -0.15500 0.13041
 C248 C 0.92764 -0.16613 0.08674
 H249 H 0.86495 -0.23893 0.13014
 H250 H 0.89940 -0.11175 0.14751
 H251 H 0.84387 -0.15008 0.21647
 H252 H 0.92849 -0.20940 0.06980
 C253 C 0.84617 0.31658 0.69558
 C254 C 0.87383 0.31003 0.64979
 C255 C 0.89840 0.35585 0.62892
 C256 C 0.92235 0.34917 0.58142
 H257 H 0.87387 0.26961 0.62831
 H258 H 0.89457 0.39822 0.64776
 H259 H 0.85303 0.35349 0.71998
 H260 H 0.92896 0.30589 0.56441
 C261 C 0.34317 -0.19776 0.68483
 C262 C 0.33955 -0.17342 0.63919
 C263 C 0.38400 -0.14370 0.61649
 C264 C 0.37233 -0.11350 0.57431
 H265 H 0.30178 -0.17498 0.61727
 H266 H 0.42517 -0.14751 0.63291
 H267 H 0.37883 -0.19308 0.70890
 H268 H 0.33015 -0.10921 0.56005
 C269 C 0.32926 0.32556 0.19339
 C270 C 0.35814 0.31353 0.15131
 C271 C 0.39350 0.35552 0.13061
 C272 C 0.42305 0.34212 0.08911
 H273 H 0.35256 0.27409 0.12973
 H274 H 0.39086 0.39948 0.14633
 H275 H 0.33694 0.36332 0.21638
 H276 H 0.42562 0.29791 0.07395
 C277 C 0.81515 0.20574 -0.17676
 C278 C 0.80924 0.15348 -0.15243
 C279 C 0.84722 0.13428 -0.11545
 C280 C 0.83996 0.08836 -0.08322
 H281 H 0.77569 0.12775 -0.16223
 H282 H 0.88425 0.15660 -0.11140
 H283 H 0.84184 0.23579 -0.15973
 H284 H 0.79981 0.07254 -0.07987
 C285 C 0.79964 0.67652 0.31841
 C286 C 0.78325 0.62751 0.33781
 C287 C 0.80959 0.59930 0.38284
 C288 C 0.83273 0.62963 0.41925
 H289 H 0.75178 0.60494 0.31898
 H290 H 0.81277 0.55206 0.38430
 H291 H 0.83193 0.69829 0.33686
 H292 H 0.82969 0.67682 0.41805
 C293 C 0.28178 0.19033 0.31598
 C294 C 0.33195 0.19554 0.33506
 C295 C 0.35415 0.15641 0.37548
 C296 C 0.40773 0.15082 0.38752
 H297 H 0.35744 0.22646 0.31932
 H298 H 0.32633 0.13086 0.39500
 H299 H 0.25844 0.15636 0.32984
 H300 H 0.43576 0.17538 0.36728
 C301 C 0.31685 0.66870 -0.18823
 C302 C 0.35797 0.69036 -0.16261
 C303 C 0.39187 0.65795 -0.12370
 C304 C 0.37614 0.61388 -0.09639
 H305 H 0.37089 0.73212 -0.17265
 H306 H 0.43173 0.67349 -0.11613
 H307 H 0.30704 0.62489 -0.18063
 H308 H 0.33520 0.60000 -0.10069
 C309 C 1.20056 -0.16759 -0.19808
 C310 C 1.15108 -0.13686 -0.20398
 C311 C 1.11909 -0.10523 -0.16340
 C312 C 1.13670 -0.09854 -0.11574
 H313 H 1.12960 -0.13876 -0.23992
 H314 H 1.07668 -0.09036 -0.17312
 H315 H 1.22427 -0.16460 -0.16352
 H316 H 1.17912 -0.11102 -0.10484
 C317 C 1.18499 0.36118 0.30220
 C318 C 1.13753 0.39561 0.29690
 C319 C 1.10717 0.42709 0.33858
 C320 C 1.12509 0.43034 0.38658
 H321 H 1.11622 0.39698 0.26075
 H322 H 1.06534 0.44461 0.32934
 H323 H 1.20816 0.36061 0.33730
 H324 H 1.16706 0.41531 0.39719
 C325 C 0.68885 -0.17000 0.30222
 C326 C 0.63539 -0.14913 0.30217
 C327 C 0.60538 -0.12319 0.34642
 C328 C 0.62802 -0.11211 0.39156
 H329 H 0.61014 -0.15418 0.26883
 H330 H 0.56110 -0.11454 0.34141
 H331 H 0.71482 -0.16368 0.33483
 H332 H 0.67214 -0.11771 0.39775
 C333 C 0.69325 0.33754 -0.21733
 C334 C 0.63539 0.34541 -0.21660
 C335 C 0.60461 0.37163 -0.17653
 C336 C 0.62738 0.38713 -0.13000
 H337 H 0.61188 0.32862 -0.24748
 H338 H 0.56014 0.37626 -0.18116
 H339 H 0.71662 0.36068 -0.19009
 H340 H 0.67141 0.38160 -0.12343
 C341 C 1.17526 0.17915 -0.16881
 C342 C 1.19890 0.13646 -0.13915
 C343 C 1.16836 0.10452 -0.10257
 C344 C 1.11390 0.10179 -0.10586
 H345 H 1.24315 0.12569 -0.14030
 H346 H 1.19179 0.08283 -0.07200
 H347 H 1.13190 0.19386 -0.16556
 H348 H 1.09030 0.12208 -0.13691
 C349 C 1.17329 0.65988 0.32446
 C350 C 1.19355 0.61826 0.35665
 C351 C 1.16008 0.59264 0.39497
 C352 C 1.10496 0.59855 0.39432
 H353 H 1.23778 0.60734 0.35919
 H354 H 1.18213 0.57115 0.42641
 H355 H 1.12981 0.67456 0.32328
 H356 H 1.08210 0.61772 0.36245
 C357 C 0.67808 0.16710 0.32091
 C358 C 0.70178 0.12392 0.34950
 C359 C 0.66971 0.09032 0.38288
 C360 C 0.62546 0.11512 0.40712
 H361 H 0.74592 0.11242 0.34843
 H362 H 0.68570 0.04573 0.39088
 H363 H 0.63373 0.17745 0.32131
 H364 H 0.61237 0.16118 0.40281
 C365 C 0.67450 0.68032 -0.17078
 C366 C 0.62805 0.70211 -0.14334
 C367 C 0.59774 0.66834 -0.11330
 C368 C 0.60387 0.60727 -0.11273
 H369 H 0.61645 0.74884 -0.14270
 H370 H 0.56816 0.69190 -0.08839
 H371 H 0.68976 0.63464 -0.16835
 H372 H 0.62738 0.58219 -0.14132
 C373 C 0.79295 -0.16315 -0.16579
 C374 C 0.83650 -0.13410 -0.18351
 C375 C 0.87154 -0.10407 -0.15152
 C376 C 0.86104 -0.08905 -0.10057
 H377 H 0.84809 -0.13988 -0.22260
 H378 H 0.90971 -0.09311 -0.16750
 H379 H 0.78537 -0.16132 -0.12574
 H380 H 0.82048 -0.09200 -0.08555
 C381 C 0.79223 0.33703 0.32415
 C382 C 0.77646 0.36018 0.36934
 C383 C 0.80787 0.39870 0.40188
 C384 C 0.85681 0.41639 0.39067
 H385 H 0.73910 0.34786 0.38580
 H386 H 0.79129 0.40884 0.43901
 H387 H 0.82754 0.35084 0.30535
 H388 H 0.87452 0.40674 0.35402
 C389 C 0.32069 -0.20881 0.34075
 C390 C 0.34778 -0.16411 0.32729
 C391 C 0.38729 -0.14222 0.36391
 C392 C 0.39812 -0.08652 0.36555
 H393 H 0.33827 -0.14184 0.29208
 H394 H 0.40279 -0.17099 0.39407
 H395 H 0.32892 -0.22699 0.37796
 H396 H 0.38039 -0.05655 0.33718
 C397 C 0.31680 0.31563 -0.19870
 C398 C 0.31841 0.34093 -0.15066
 C399 C 0.36237 0.37083 -0.13379
 C400 C 0.35795 0.40212 -0.08837
 H401 H 0.28395 0.33843 -0.12577
 H402 H 0.40003 0.36860 -0.15523
 H403 H 0.34635 0.32662 -0.22620
 H404 H 0.31792 0.40862 -0.07065
 C405 C 1.19369 -0.18306 0.19803
 C406 C 1.15192 -0.19217 0.16618
 C407 C 1.13265 -0.14877 0.12792
 C408 C 1.09770 -0.16067 0.09034
 H409 H 1.13207 -0.23211 0.16794
 H410 H 1.14762 -0.10602 0.13063
 H411 H 1.21586 -0.14502 0.19364
 H412 H 1.08441 -0.20403 0.08619
 C413 C 1.17915 0.32302 0.68951
 C414 C 1.13396 0.31630 0.66157
 C415 C 1.11255 0.36240 0.62646
 C416 C 1.08013 0.35208 0.58671
 H417 H 1.11365 0.27669 0.66387
 H418 H 1.12525 0.40582 0.63257
 H419 H 1.20150 0.36069 0.68379
 H420 H 1.06988 0.30819 0.57839
 C421 C 0.67380 -0.17712 0.69789
 C422 C 0.69296 -0.13084 0.67255
 C423 C 0.66183 -0.10010 0.63471
 C424 C 0.61781 -0.12152 0.60727
 H425 H 0.73084 -0.11413 0.68519
 H426 H 0.67529 -0.05857 0.62423
 H427 H 0.63192 -0.18671 0.68996
 H428 H 0.60976 -0.16665 0.61069
 C429 C 0.67744 0.30875 0.18154
 C430 C 0.70346 0.33984 0.14917
 C431 C 0.67420 0.37303 0.10804
 C432 C 0.62925 0.35684 0.08361
 H433 H 0.74672 0.34499 0.15435
 H434 H 0.69174 0.41216 0.09683
 H435 H 0.63348 0.30653 0.17671
 H436 H 0.61375 0.31550 0.09130
 C437 C 0.83180 0.19073 0.19998
 C438 C 0.86013 0.13772 0.20373
 C439 C 0.89271 0.10643 0.16321
 C440 C 0.90001 0.12700 0.11705
 H441 H 0.85624 0.11272 0.23746
 H442 H 0.90795 0.06162 0.17124
 H443 H 0.83691 0.21807 0.16803
 H444 H 0.88645 0.17178 0.10789
 C445 C 0.82144 0.70459 0.70862
 C446 C 0.83991 0.64486 0.70388
 C447 C 0.86794 0.61678 0.66330
 C448 C 0.89134 0.64277 0.62253
 H449 H 0.82904 0.61520 0.73224
 H450 H 0.87125 0.56946 0.66420
 H451 H 0.83612 0.73534 0.68288
 H452 H 0.89683 0.68886 0.62380
 C453 C 0.30933 0.17161 0.68719
 C454 C 0.32155 0.11374 0.68156
 C455 C 0.35130 0.08639 0.63783
 C456 C 0.38160 0.11519 0.60699
 H457 H 0.30717 0.08411 0.70836
 H458 H 0.34786 0.04033 0.63108
 H459 H 0.32253 0.20110 0.65968
 H460 H 0.38820 0.16030 0.61426
 C461 C 0.32930 0.67533 0.20261
 C462 C 0.34932 0.61910 0.19868
 C463 C 0.38661 0.59455 0.15877
 C464 C 0.39772 0.62226 0.11660
 H465 H 0.33784 0.58818 0.22587
 H466 H 0.40266 0.54924 0.16321
 H467 H 0.34345 0.70744 0.17800
 H468 H 0.38154 0.66698 0.11007
   
