data_POSCAR
  _audit_creation_date              2014-09-24
  _audit_creation_method            'ToBaCCo'
  _symmetry_space_group_name_H-M    'P1'
  _symmetry_Int_Tables_number       1
  _symmetry_cell_setting            triclinic
  loop_
  _symmetry_equiv_pos_as_xyz
 x,y,z
_cell_length_a 20.7753
_cell_length_b 20.3047
_cell_length_c 54.2844
_cell_angle_alpha 90.094400
_cell_angle_beta 89.954400
_cell_angle_gamma 117.533100
loop_
  _atom_site_label
  _atom_site_type_symbol
  _atom_site_fract_x
  _atom_site_fract_y
  _atom_site_fract_z
C1 C 0.01890 0.14207 0.50921
 H2 H 0.06170 0.16512 0.49571
 C3 C 0.00950 0.19006 0.52546
 H4 H 0.04442 0.24934 0.52409
 C5 C -0.07504 0.03759 0.52882
 H6 H -0.10543 -0.02201 0.53080
 C7 C -0.08609 0.08386 0.54557
 H8 H -0.12583 0.05977 0.56013
 N9 N -0.02237 0.06716 0.51128
 C10 C 0.02032 -0.12106 0.50434
 H11 H 0.01364 -0.13237 0.48480
 C12 C 0.01898 -0.17527 0.52043
 H13 H 0.01193 -0.22797 0.51323
 C14 C 0.03362 -0.04067 0.53784
 H15 H 0.03821 0.01143 0.54458
 C16 C 0.03226 -0.09342 0.55457
 H17 H 0.03557 -0.08184 0.57414
 Zn18 Zn 0.00383 0.00471 0.49194
 N19 N 0.02496 -0.05639 0.51331
 C20 C 0.15392 0.08017 0.47799
 N21 N 0.08493 0.06641 0.47247
 C22 C 0.07081 0.10152 0.45352
 C23 C 0.12735 0.15482 0.43976
 C24 C 0.21249 0.13349 0.46460
 C25 C -0.14328 -0.08532 0.47588
 C26 C -0.19636 -0.13547 0.45997
 C27 C -0.10114 -0.12915 0.43312
 C28 C -0.05025 -0.07969 0.44954
 N29 N -0.07171 -0.05831 0.47038
 H30 H 0.16361 0.05169 0.49324
 H31 H 0.01544 0.08974 0.44966
 H32 H 0.11544 0.18344 0.42503
 H33 H 0.26749 0.14575 0.46939
 H34 H -0.15953 -0.06957 0.49285
 H35 H -0.25249 -0.15947 0.46581
 H36 H -0.08108 -0.14218 0.41635
 H37 H 0.00696 -0.05870 0.44571
 C38 C 0.02194 -0.16261 0.54589
 C39 C -0.04266 0.16096 0.54410
 C40 C -0.17625 -0.15775 0.43778
 C41 C 0.19912 0.17260 0.44568
 C42 C 1.13894 0.00492 0.15813
 H43 H 1.15703 0.04051 0.17413
 C44 C 1.19024 -0.00229 0.14336
 H45 H 1.24720 0.02775 0.14817
 C46 C 1.04369 -0.07582 0.13201
 H47 H 0.98656 -0.10304 0.12740
 C48 C 1.09355 -0.08317 0.11635
 H49 H 1.07450 -0.11571 0.09964
 N50 N 1.06735 -0.02987 0.15192
 C51 C 0.89095 0.03074 0.15759
 H52 H 0.88183 0.02867 0.17718
 C53 C 0.83958 0.03396 0.14174
 H54 H 0.79120 0.03388 0.14922
 C55 C 0.96263 0.03012 0.12373
 H56 H 1.01043 0.02846 0.11668
 C57 C 0.91255 0.03317 0.10722
 H58 H 0.92155 0.03278 0.08757
 Zn59 Zn 1.00316 -0.00483 0.17015
 N60 N 0.94919 0.02496 0.14841
 C61 C 1.09605 0.14396 0.18391
 N62 N 1.06007 0.07275 0.19213
 C63 C 1.07173 0.05391 0.21513
 C64 C 1.12060 0.10774 0.23098
 C65 C 1.14644 0.19958 0.19911
 C66 C 0.91877 -0.15847 0.18353
 C67 C 0.86397 -0.21676 0.19672
 C68 C 0.84575 -0.12620 0.22057
 C69 C 0.90043 -0.07010 0.20706
 N70 N 0.93512 -0.08676 0.18869
 H71 H 1.08757 0.15692 0.16525
 H72 H 1.04515 -0.00350 0.22089
 H73 H 1.12998 0.09173 0.24912
 H74 H 1.17662 0.25567 0.19218
 H75 H 0.94716 -0.17061 0.16896
 H76 H 0.85043 -0.27376 0.19236
 H77 H 0.81853 -0.11191 0.23507
 H78 H 0.91536 -0.01282 0.21130
 C79 C 0.84882 0.03184 0.11628
 C80 C 1.16802 -0.04521 0.12183
 C81 C 0.82600 -0.20044 0.21511
 C82 C 1.15894 0.18142 0.22297
 C83 C 0.06525 0.98592 0.87844
 H84 H 0.00858 0.95015 0.88239
 C85 C 0.11791 0.98992 0.89503
 H86 H 0.10151 0.95799 0.91191
 C87 C 0.15554 1.06898 0.85121
 H88 H 0.16942 1.09847 0.83386
 C89 C 0.21036 1.07352 0.86718
 H90 H 0.26677 1.10663 0.86211
 N91 N 0.08465 1.02547 0.85713
 C92 C -0.14038 0.94243 0.85283
 H93 H -0.15261 0.90161 0.83843
 C94 C -0.19543 0.93714 0.86886
 H95 H -0.25019 0.89330 0.86606
 C96 C -0.05511 1.05031 0.87351
 H97 H 0.00028 1.09276 0.87590
 C98 C -0.10810 1.04742 0.88974
 H99 H -0.09250 1.08856 0.90429
 Zn100 Zn 0.00767 1.00945 0.83553
 N101 N -0.07176 0.99870 0.85540
 C102 C -0.06550 0.90032 0.79870
 N103 N -0.01404 0.92262 0.81670
 C104 C 0.02939 0.88947 0.81957
 C105 C 0.02548 0.83528 0.80299
 C106 C -0.07084 0.84654 0.78155
 C107 C 0.03459 1.15529 0.82236
 C108 C 0.03473 1.20843 0.80603
 C109 C 0.03663 1.13226 0.77213
 C110 C 0.03674 1.08071 0.78909
 N111 N 0.03195 1.09110 0.81369
 H112 H -0.09889 0.92799 0.79661
 H113 H 0.06993 0.90765 0.83392
 H114 H 0.06260 0.81175 0.80478
 H115 H -0.10901 0.83216 0.76644
 H116 H 0.03262 1.16391 0.84187
 H117 H 0.03277 1.25740 0.81309
 H118 H 0.03613 1.12129 0.75258
 H119 H 0.03731 1.03087 0.78245
 C120 C -0.17937 0.98946 0.88799
 C121 C 0.19142 1.03396 0.88948
 C122 C 0.03220 1.19513 0.78064
 C123 C -0.02298 0.81573 0.78317
 C124 C 0.71727 0.02828 0.01444
 C125 C 0.71479 0.02507 -0.01079
 C126 C 0.64489 0.00982 -0.01749
 N127 N 0.60438 0.00236 0.00279
 C128 C 0.64855 0.01399 0.02234
 C129 C 0.61906 -0.00056 -0.04199
 C130 C 0.55177 -0.00491 -0.04910
 C131 C 0.52391 -0.02035 -0.07282
 C132 C 0.46030 -0.01504 -0.07256
 C133 C 0.45037 0.00229 -0.04860
 N134 N 0.50694 0.00955 -0.03454
 C135 C 0.39136 0.01338 -0.04055
 C136 C 0.37180 0.01232 -0.01552
 C137 C 0.31260 0.02045 -0.00738
 C138 C 0.30942 0.01104 0.01768
 C139 C 0.36730 -0.00167 0.02413
 N140 N 0.40469 -0.00184 0.00376
 C141 C 0.38247 -0.01600 0.04838
 C142 C 0.44658 -0.01949 0.05534
 C143 C 0.45890 -0.04037 0.07849
 C144 C 0.52807 -0.03322 0.07828
 C145 C 0.55613 -0.00849 0.05499
 N146 N 0.50657 0.00075 0.04127
 C147 C 0.62656 0.00624 0.04726
 H148 H 0.76399 0.03849 0.02567
 H149 H 0.75935 0.03288 -0.02280
 H150 H 0.51612 0.02658 0.02425
 H151 H 0.54749 -0.03303 -0.08877
 H152 H 0.42536 -0.02334 -0.08828
 H153 H 0.27469 0.03065 -0.01838
 H154 H 0.26886 0.01311 0.02972
 H155 H 0.55450 -0.04530 0.09352
 H156 H 0.51788 0.03089 -0.01683
 H157 H 0.42213 -0.05841 0.09403
 C158 C -0.04608 0.27937 0.67788
 C159 C -0.05438 0.27471 0.65275
 C160 C -0.03797 0.34537 0.64458
 N161 N -0.02001 0.39288 0.66382
 C162 C -0.02548 0.35258 0.68421
 C163 C -0.03458 0.36604 0.61960
 C164 C -0.01987 0.43811 0.61191
 C165 C 0.00169 0.46583 0.58834
 C166 C 0.00805 0.53632 0.58814
 C167 C -0.01036 0.54950 0.61154
 N168 N -0.02789 0.48907 0.62584
 C169 C -0.01534 0.61414 0.61851
 C170 C -0.02534 0.63085 0.64303
 C171 C -0.04126 0.68746 0.64993
 C172 C -0.04280 0.68761 0.67520
 C173 C -0.02716 0.63148 0.68287
 N174 N -0.01622 0.59713 0.66317
 C175 C -0.01690 0.61720 0.70763
 C176 C -0.00329 0.55800 0.71491
 C177 C 0.02398 0.55251 0.73768
 C178 C 0.02731 0.48640 0.73774
 C179 C 0.00160 0.45315 0.71504
 N180 N -0.01747 0.49693 0.70132
 C181 C -0.00841 0.38170 0.70832
 H182 H -0.05409 0.23411 0.69008
 H183 H -0.06965 0.22523 0.64173
 H184 H -0.04607 0.48233 0.68486
 H185 H 0.01172 0.43811 0.57287
 H186 H 0.02345 0.57324 0.57243
 H187 H -0.05040 0.72499 0.63800
 H188 H -0.05278 0.72568 0.68662
 H189 H 0.04566 0.46482 0.75291
 H190 H -0.05182 0.47971 0.64313
 H191 H 0.03982 0.59202 0.75271
 C192 C 0.29599 0.31907 0.32342
 C193 C 0.30200 0.31991 0.34860
 C194 C 0.37312 0.37020 0.35418
 N195 N 0.41087 0.39934 0.33327
 C196 C 0.36371 0.36868 0.31445
 C197 C 0.40252 0.38585 0.37823
 C198 C 0.47121 0.44550 0.38398
 C199 C 0.50458 0.45730 0.40684
 C200 C 0.56656 0.52441 0.40559
 C201 C 0.56966 0.55128 0.38194
 N202 N 0.51112 0.50327 0.36899
 C203 C 0.62323 0.62069 0.37333
 C204 C 0.63548 0.63950 0.34810
 C205 C 0.68519 0.70832 0.33915
 C206 C 0.68388 0.70234 0.31396
 C207 C 0.63309 0.63021 0.30835
 N208 N 0.60412 0.59174 0.32924
 C209 C 0.61660 0.60046 0.28428
 C210 C 0.55656 0.53146 0.27855
 C211 C 0.54355 0.49746 0.25563
 C212 C 0.47648 0.43608 0.25685
 C213 C 0.45084 0.43381 0.28059
 N214 N 0.49963 0.49242 0.29359
 C215 C 0.38198 0.38126 0.28921
 H216 H 0.24750 0.28512 0.31294
 H217 H 0.25889 0.28719 0.36133
 H218 H 0.49023 0.50977 0.31059
 H219 H 0.48537 0.42206 0.42293
 H220 H 0.60469 0.55069 0.42045
 H221 H 0.71938 0.75754 0.34966
 H222 H 0.71648 0.74615 0.30123
 H223 H 0.44947 0.39795 0.24189
 H224 H 0.49494 0.51404 0.35205
 H225 H 0.57794 0.51604 0.23948
 C226 C -0.10670 0.22347 0.56704
 C227 C -0.04560 0.21105 0.56340
 C228 C 0.01603 0.24844 0.57822
 C229 C 0.01814 0.29757 0.59643
 C230 C -0.04131 0.31095 0.60039
 C231 C -0.10459 0.27370 0.58579
 C232 C -0.16922 0.18840 0.55217
 C233 C -0.22882 0.20135 0.55603
 C234 C -0.22718 0.24947 0.57461
 C235 C -0.16573 0.28550 0.58939
 H236 H -0.17249 0.15115 0.53740
 H237 H -0.27651 0.17395 0.54452
 H238 H -0.27367 0.25914 0.57752
 H239 H -0.16653 0.32257 0.60360
 H240 H 0.06312 0.23949 0.57561
 H241 H 0.06682 0.32596 0.60745
 C242 C 0.69559 0.73360 0.22976
 C243 C 0.76668 0.74033 0.22929
 C244 C 0.78410 0.69621 0.24495
 C245 C 0.73382 0.64919 0.26201
 C246 C 0.66482 0.64511 0.26389
 C247 C 0.64455 0.68637 0.24744
 C248 C 0.67431 0.77327 0.21311
 C249 C 0.60502 0.76798 0.21430
 C250 C 0.55580 0.72334 0.23202
 C251 C 0.57514 0.68291 0.24851
 H252 H 0.71071 0.80809 0.19892
 H253 H 0.58949 0.79879 0.20143
 H254 H 0.50225 0.71983 0.23295
 H255 H 0.53525 0.64894 0.26199
 H256 H 0.83822 0.70093 0.24480
 H257 H 0.74967 0.61767 0.27449
 C258 C 0.30105 0.09917 -0.08220
 C259 C 0.24718 0.03382 -0.09351
 C260 C 0.24345 -0.03514 -0.08767
 C261 C 0.29101 -0.04055 -0.07079
 C262 C 0.34479 0.02298 -0.05952
 C263 C 0.35098 0.09367 -0.06536
 C264 C 0.30511 0.16955 -0.08654
 C265 C 0.35876 0.23311 -0.07534
 C266 C 0.40879 0.22786 -0.05948
 C267 C 0.40499 0.15889 -0.05440
 H268 H 0.26669 0.17626 -0.09834
 H269 H 0.36139 0.28672 -0.07894
 H270 H 0.45034 0.27743 -0.05088
 H271 H 0.44442 0.15704 -0.04177
 H272 H 0.20252 -0.08560 -0.09607
 H273 H 0.28562 -0.09485 -0.06631
 C274 C -0.05817 0.71249 0.56558
 C275 C 0.00980 0.77724 0.56354
 C276 C 0.06671 0.78663 0.57931
 C277 C 0.05769 0.73294 0.59678
 C278 C -0.00853 0.66835 0.59902
 C279 C -0.06713 0.65738 0.58337
 C280 C -0.11818 0.70214 0.55085
 C281 C -0.18454 0.63830 0.55317
 C282 C -0.19282 0.58405 0.57030
 C283 C -0.13494 0.59341 0.58540
 H284 H -0.11483 0.74331 0.53761
 H285 H -0.22994 0.63108 0.54169
 H286 H -0.24454 0.53473 0.57206
 H287 H -0.14391 0.55040 0.59871
 H288 H 0.11856 0.83614 0.57810
 H289 H 0.10264 0.74190 0.60880
 C290 C 0.21511 0.30319 0.24706
 C291 C 0.21602 0.23711 0.23898
 C292 C 0.27195 0.22170 0.24686
 C293 C 0.32593 0.26967 0.26267
 C294 C 0.32623 0.33506 0.27087
 C295 C 0.27134 0.35301 0.26289
 C296 C 0.15854 0.31989 0.24047
 C297 C 0.15881 0.38525 0.24857
 C298 C 0.21474 0.43474 0.26352
 C299 C 0.27046 0.41887 0.27075
 H300 H 0.11331 0.28254 0.22928
 H301 H 0.11523 0.39746 0.24328
 H302 H 0.21462 0.48537 0.26972
 H303 H 0.31260 0.45840 0.28257
 H304 H 0.27343 0.17149 0.24086
 H305 H 0.36750 0.25536 0.26880
 C306 C 0.71796 -0.07955 -0.08268
 C307 C 0.76720 -0.01347 -0.09523
 C308 C 0.76423 0.05318 -0.09018
 C309 C 0.71435 0.05554 -0.07365
 C310 C 0.66562 -0.00839 -0.06137
 C311 C 0.66598 -0.07681 -0.06603
 C312 C 0.72266 -0.14677 -0.08450
 C313 C 0.67393 -0.21040 -0.07203
 C314 C 0.62073 -0.20834 -0.05697
 C315 C 0.61705 -0.14213 -0.05374
 H316 H 0.76500 -0.15085 -0.09487
 H317 H 0.67803 -0.26143 -0.07385
 H318 H 0.58312 -0.25792 -0.04733
 H319 H 0.57602 -0.14239 -0.04138
 H320 H 0.80026 0.10428 -0.09947
 H321 H 0.71451 0.10814 -0.07006
 C322 C 0.22374 -0.10724 0.09394
 C323 C 0.22334 -0.04272 0.10392
 C324 C 0.27618 0.02752 0.09614
 C325 C 0.32769 0.03482 0.07855
 C326 C 0.32751 -0.02782 0.06779
 C327 C 0.27546 -0.09962 0.07540
 C328 C 0.17508 -0.17907 0.10228
 C329 C 0.17539 -0.24183 0.09191
 C330 C 0.22432 -0.23436 0.07326
 C331 C 0.27414 -0.16403 0.06506
 H332 H 0.13712 -0.18746 0.11704
 H333 H 0.13756 -0.29657 0.09843
 H334 H 0.22412 -0.28333 0.06526
 H335 H 0.31181 -0.16053 0.05072
 H336 H 0.27681 0.07748 0.10347
 H337 H 0.36732 0.08994 0.07288
 C338 C 0.70379 0.78796 0.41712
 C339 C 0.77341 0.79180 0.42206
 C340 C 0.78981 0.73902 0.41034
 C341 C 0.73982 0.68306 0.39550
 C342 C 0.67094 0.67663 0.39158
 C343 C 0.65181 0.72834 0.40256
 C344 C 0.68701 0.84584 0.42378
 C345 C 0.61878 0.84045 0.41907
 C346 C 0.56643 0.77899 0.40677
 C347 C 0.58292 0.72390 0.39821
 H348 H 0.72691 0.89724 0.43181
 H349 H 0.60686 0.88485 0.42468
 H350 H 0.51359 0.77517 0.40314
 H351 H 0.54166 0.67850 0.38781
 H352 H 0.84059 0.73768 0.41362
 H353 H 0.75509 0.64412 0.38690
 C354 C -0.04702 0.24726 0.76232
 C355 C 0.01961 0.24359 0.76305
 C356 C 0.07433 0.28445 0.74606
 C357 C 0.06449 0.32929 0.72866
 C358 C -0.00037 0.33444 0.72772
 C359 C -0.05677 0.29355 0.74460
 C360 C -0.10504 0.20437 0.77833
 C361 C -0.17013 0.20854 0.77729
 C362 C -0.17911 0.25465 0.76021
 C363 C -0.12327 0.29659 0.74389
 H364 H -0.10116 0.16673 0.79160
 H365 H -0.21399 0.17549 0.78973
 H366 H -0.22985 0.25746 0.75945
 H367 H -0.13282 0.33096 0.73068
 H368 H 0.12506 0.28146 0.74628
 H369 H 0.10771 0.36011 0.71569
 C370 C 0.74712 -0.04722 0.08716
 C371 C 0.78922 0.02144 0.09931
 C372 C 0.77403 0.08097 0.09540
 C373 C 0.71979 0.07438 0.07899
 C374 C 0.67911 0.00798 0.06617
 C375 C 0.69174 -0.05388 0.07041
 C376 C 0.75831 -0.10977 0.09148
 C377 C 0.71664 -0.17674 0.07931
 C378 C 0.66296 -0.18293 0.06277
 C379 C 0.65029 -0.12230 0.05834
 H380 H 0.79881 -0.10777 0.10439
 H381 H 0.72589 -0.22417 0.08279
 H382 H 0.63071 -0.23511 0.05341
 H383 H 0.60756 -0.12962 0.04554
 H384 H 0.80536 0.13335 0.10479
 H385 H 0.71038 0.12191 0.07586
 C386 C 0.26871 0.30649 0.43187
 C387 C 0.25913 0.23260 0.43196
 C388 C 0.30206 0.21357 0.41657
 C389 C 0.35068 0.26507 0.40008
 C390 C 0.35765 0.33695 0.39852
 C391 C 0.31769 0.35884 0.41479
 C392 C 0.23017 0.32933 0.44833
 C393 C 0.23836 0.40144 0.44751
 C394 C 0.28482 0.45200 0.43036
 C395 C 0.32414 0.43114 0.41409
 H396 H 0.19397 0.29196 0.46207
 H397 H 0.20840 0.41814 0.46021
 H398 H 0.29062 0.50776 0.42972
 H399 H 0.35965 0.47217 0.40107
 H400 H 0.29528 0.15736 0.41647
 H401 H 0.38106 0.24790 0.38770
 C402 C 0.04260 0.79109 0.74779
 C403 C -0.01927 0.76782 0.76324
 C404 C -0.07808 0.69721 0.75999
 C405 C -0.07606 0.64909 0.74204
 C406 C -0.01521 0.67029 0.72684
 C407 C 0.04504 0.74144 0.72971
 C408 C 0.10173 0.86312 0.74963
 C409 C 0.16260 0.88462 0.73460
 C410 C 0.16576 0.83524 0.71743
 C411 C 0.10766 0.76429 0.71492
 H412 H 0.10136 0.90368 0.76249
 H413 H 0.20757 0.93992 0.73629
 H414 H 0.21330 0.85214 0.70590
 H415 H 0.11224 0.72769 0.70130
 H416 H -0.12564 0.67901 0.77163
 H417 H -0.12239 0.59480 0.73992
   
