data_POSCAR
  _audit_creation_date              2014-09-24
  _audit_creation_method            'ToBaCCo'
  _symmetry_space_group_name_H-M    'P1'
  _symmetry_Int_Tables_number       1
  _symmetry_cell_setting            triclinic
  loop_
  _symmetry_equiv_pos_as_xyz
 x,y,z
_cell_length_a 29.8834
_cell_length_b 29.8569
_cell_length_c 29.9097
_cell_angle_alpha 89.948800
_cell_angle_beta 90.000600
_cell_angle_gamma 89.897500
loop_
  _atom_site_label
  _atom_site_type_symbol
  _atom_site_fract_x
  _atom_site_fract_y
  _atom_site_fract_z
O1 O 0.28735 1.04390 0.45708
 O2 O 0.28701 0.95671 0.54416
 O3 O 0.28704 0.95662 0.45702
 O4 O 0.28729 1.04402 0.54425
 O5 O 0.21331 1.04439 0.54421
 O6 O 0.21305 0.95700 0.45698
 O7 O 0.21300 0.95708 0.54412
 O8 O 0.21334 1.04427 0.45704
 Cu9 Cu 0.29462 1.00028 0.50064
 Cu10 Cu 0.20573 1.00074 0.50059
 C11 C 0.25040 1.05877 0.44234
 C12 C 0.24995 0.94217 0.55882
 C13 C 0.25000 0.94206 0.44226
 C14 C 0.25034 1.05897 0.55898
 O15 O 0.78635 -0.04446 0.45729
 O16 O 0.78673 0.04262 0.54420
 O17 O 0.78652 -0.04464 0.54441
 O18 O 0.78654 0.04274 0.45714
 O19 O 0.71254 0.04303 0.45729
 O20 O 0.71253 -0.04435 0.54456
 O21 O 0.71271 0.04291 0.54434
 O22 O 0.71234 -0.04418 0.45743
 Cu23 Cu 0.79400 -0.00098 0.50076
 Cu24 Cu 0.70506 -0.00063 0.50093
 C25 C 0.74929 -0.05897 0.44266
 C26 C 0.74978 0.05748 0.55890
 C27 C 0.74952 -0.05925 0.55924
 C28 C 0.74954 0.05764 0.44248
 O29 O 0.21313 0.45520 0.95714
 O30 O 0.21319 0.54231 1.04415
 O31 O 0.21310 0.54241 0.95710
 O32 O 0.21333 0.45507 1.04426
 O33 O 0.28732 0.45501 1.04414
 O34 O 0.28710 0.54235 0.95699
 O35 O 0.28720 0.54226 1.04404
 O36 O 0.28714 0.45513 0.95702
 Cu37 Cu 0.20572 0.49874 1.00069
 Cu38 Cu 0.29466 0.49867 1.00054
 C39 C 0.25012 0.44050 0.94237
 C40 C 0.25020 0.55702 1.05875
 C41 C 0.25006 0.55713 0.94234
 C42 C 0.25036 0.44030 1.05894
 O43 O 0.45752 0.28675 1.04387
 O44 O 0.54459 0.28674 0.95697
 O45 O 0.45742 0.28654 0.95679
 O46 O 0.54472 0.28683 1.04412
 O47 O 0.54496 0.21278 1.04431
 O48 O 0.45767 0.21248 0.95698
 O49 O 0.54484 0.21266 0.95716
 O50 O 0.45776 0.21268 1.04407
 Cu51 Cu 0.50105 0.29418 1.00043
 Cu52 Cu 0.50135 0.20518 1.00066
 C53 C 0.44293 0.24972 1.05860
 C54 C 0.55936 0.24970 0.94237
 C55 C 0.44280 0.24946 0.94214
 C56 C 0.55958 0.24985 1.05899
 O57 O 0.45703 0.78685 -0.04437
 O58 O 0.54408 0.78729 0.04257
 O59 O 0.54426 0.78715 -0.04459
 O60 O 0.45692 0.78694 0.04271
 O61 O 0.45732 0.71288 0.04286
 O62 O 0.54466 0.71310 -0.04443
 O63 O 0.54448 0.71321 0.04272
 O64 O 0.45743 0.71277 -0.04422
 Cu65 Cu 0.50055 0.79452 -0.00095
 Cu66 Cu 0.50103 0.70553 -0.00076
 C67 C 0.44251 0.74974 -0.05892
 C68 C 0.55893 0.75032 0.05735
 C69 C 0.55922 0.75016 -0.05927
 C70 C 0.44237 0.74988 0.05753
 O71 O 1.04428 0.45711 0.28657
 O72 O 0.95714 0.54426 0.28668
 O73 O 0.95711 0.45700 0.28666
 O74 O 1.04435 0.54437 0.28667
 O75 O 1.04432 0.54449 0.21275
 O76 O 0.95706 0.45711 0.21273
 O77 O 0.95710 0.54437 0.21273
 O78 O 1.04424 0.45723 0.21263
 Cu79 Cu 1.00073 0.50068 0.29410
 Cu80 Cu 1.00068 0.50082 0.20526
 C81 C 1.05895 0.44246 0.24958
 C82 C 0.94239 0.55899 0.24972
 C83 C 0.94235 0.44229 0.24969
 C84 C 1.05909 0.55919 0.24971
 O85 O -0.04443 0.45705 0.78673
 O86 O 0.04256 0.54405 0.78717
 O87 O -0.04467 0.54435 0.78694
 O88 O 0.04274 0.45681 0.78692
 O89 O 0.04289 0.45706 0.71299
 O90 O -0.04451 0.54460 0.71303
 O91 O 0.04272 0.54430 0.71322
 O92 O -0.04426 0.45730 0.71279
 Cu93 Cu -0.00098 0.50055 0.79439
 Cu94 Cu -0.00079 0.50086 0.70556
 C95 C -0.05898 0.44246 0.74969
 C96 C 0.05735 0.55881 0.75027
 C97 C -0.05936 0.55927 0.74999
 C98 C 0.05758 0.44215 0.74995
 O99 O 0.45544 0.95725 0.21283
 O100 O 0.54249 1.04432 0.21306
 O101 O 0.54254 0.95716 0.21298
 O102 O 0.45536 1.04449 0.21295
 O103 O 0.45526 1.04434 0.28689
 O104 O 0.54243 0.95702 0.28693
 O105 O 0.54239 1.04418 0.28701
 O106 O 0.45534 0.95711 0.28678
 Cu107 Cu 0.49895 1.00083 0.20548
 Cu108 Cu 0.49883 1.00066 0.29437
 C109 C 0.44074 0.94245 0.24977
 C110 C 0.55717 1.05891 0.25007
 C111 C 0.55721 0.94236 0.24996
 C112 C 0.44060 1.05918 0.24992
 O113 O 1.04376 0.28691 0.54314
 O114 O 0.95661 0.28689 0.45615
 O115 O 0.95665 0.28688 0.54318
 O116 O 1.04373 0.28707 0.45609
 O117 O 1.04396 0.21299 0.45608
 O118 O 0.95686 0.21280 0.54319
 O119 O 0.95683 0.21281 0.45616
 O120 O 1.04397 0.21283 0.54313
 Cu121 Cu 1.00017 0.29442 0.49964
 Cu122 Cu 1.00043 0.20537 0.49964
 C123 C 1.05857 0.24987 0.55782
 C124 C 0.94200 0.24984 0.44149
 C125 C 0.94205 0.24982 0.55788
 C126 C 1.05854 0.25006 0.44139
 O127 O -0.04366 0.71298 0.54360
 O128 O 0.04345 0.71279 0.45659
 O129 O 0.04344 0.71287 0.54365
 O130 O -0.04367 0.71294 0.45658
 O131 O -0.04369 0.78702 0.45647
 O132 O 0.04342 0.78695 0.54354
 O133 O 0.04343 0.78687 0.45648
 O134 O -0.04368 0.78706 0.54349
 Cu135 Cu -0.00010 0.70541 0.50012
 Cu136 Cu -0.00013 0.79446 0.49998
 C137 C -0.05837 0.75005 0.55822
 C138 C 0.05812 0.74980 0.44184
 C139 C 0.05811 0.74990 0.55831
 C140 C -0.05839 0.75000 0.44184
 O141 O 0.71309 0.45656 1.04341
 O142 O 0.71305 0.54373 0.95645
 O143 O 0.71313 0.45658 0.95641
 O144 O 0.71309 0.54372 1.04344
 O145 O 0.78710 0.54362 1.04345
 O146 O 0.78714 0.45648 0.95641
 O147 O 0.78708 0.54363 0.95645
 O148 O 0.78711 0.45646 1.04342
 Cu149 Cu 0.70560 0.50016 0.99993
 Cu150 Cu 0.79460 0.50003 0.99994
 C151 C 0.75010 0.44180 1.05808
 C152 C 0.75006 0.55838 0.94178
 C153 C 0.75014 0.44184 0.94171
 C154 C 0.75009 0.55839 1.05812
 O155 O 0.45551 1.04428 0.71289
 O156 O 0.54271 0.95706 0.71299
 O157 O 0.45562 0.95706 0.71310
 O158 O 0.54267 1.04421 0.71293
 O159 O 0.54268 1.04425 0.78687
 O160 O 0.45565 0.95712 0.78705
 O161 O 0.54274 0.95710 0.78694
 O162 O 0.45553 1.04434 0.78683
 Cu163 Cu 0.49911 1.00066 0.70550
 Cu164 Cu 0.49914 1.00072 0.79440
 C165 C 0.44080 1.05904 0.74983
 C166 C 0.55744 0.94236 0.74998
 C167 C 0.44099 0.94235 0.75011
 C168 C 0.55741 1.05889 0.74988
 C169 C 0.25067 0.21682 0.28311
 C170 C 0.21731 0.25025 0.28300
 C171 C 0.21734 0.28357 0.24957
 C172 C 0.25068 0.28349 0.21623
 C173 C 0.28402 0.25004 0.21639
 C174 C 0.28402 0.21669 0.24979
 C175 C 0.74947 0.78355 0.28341
 C176 C 0.78298 0.75028 0.28336
 C177 C 0.78317 0.71706 0.24991
 C178 C 0.74990 0.71711 0.21653
 C179 C 0.71647 0.75046 0.21655
 C180 C 0.71623 0.78368 0.24999
 C181 C 0.75012 0.21657 0.71654
 C182 C 0.71680 0.21662 0.74988
 C183 C 0.71692 0.24995 0.78321
 C184 C 0.75020 0.28332 0.78311
 C185 C 0.78343 0.28332 0.74968
 C186 C 0.78345 0.24991 0.71642
 C187 C 0.24971 0.78318 0.71712
 C188 C 0.21639 0.74984 0.71715
 C189 C 0.21643 0.71646 0.75052
 C190 C 0.24983 0.71630 0.78379
 C191 C 0.28318 0.74963 0.78368
 C192 C 0.28310 0.78311 0.75040
 C193 C 0.21700 0.24948 0.71640
 C194 C 0.21686 0.28281 0.74983
 C195 C 0.25024 0.28264 0.78321
 C196 C 0.28374 0.24926 0.78318
 C197 C 0.28377 0.21596 0.74972
 C198 C 0.25042 0.21602 0.71631
 C199 C 0.78309 0.75025 0.71667
 C200 C 0.74967 0.78370 0.71661
 C201 C 0.71633 0.78371 0.75002
 C202 C 0.71635 0.75034 0.78345
 C203 C 0.74983 0.71695 0.78339
 C204 C 0.78322 0.71684 0.75004
 C205 C 0.21646 0.74964 0.28318
 C206 C 0.24976 0.78310 0.28319
 C207 C 0.28308 0.78310 0.24975
 C208 C 0.28322 0.74966 0.21643
 C209 C 0.24990 0.71622 0.21655
 C210 C 0.21645 0.71620 0.24987
 C211 C 0.78318 0.24991 0.28329
 C212 C 0.74973 0.21661 0.28340
 C213 C 0.71636 0.21672 0.25002
 C214 C 0.71642 0.25001 0.21652
 C215 C 0.74991 0.28328 0.21654
 C216 C 0.78330 0.28330 0.24988
 C217 C 0.25053 0.09260 0.40832
 C218 C 0.25061 0.12099 0.37969
 C219 C 0.25068 0.15421 0.34617
 C220 C 0.25070 0.18261 0.31753
 C221 C 0.74916 0.90730 0.40866
 C222 C 0.74912 0.87900 0.38003
 C223 C 0.74914 0.84591 0.34649
 C224 C 0.74924 0.81763 0.31784
 C225 C 0.74991 0.09149 0.59262
 C226 C 0.75001 0.12010 0.62093
 C227 C 0.75009 0.15359 0.65407
 C228 C 0.75012 0.18220 0.68240
 C229 C 0.24982 0.90817 0.59267
 C230 C 0.24974 0.87959 0.62111
 C231 C 0.24968 0.84614 0.65440
 C232 C 0.24967 0.81756 0.68286
 C233 C 0.40896 0.24975 0.09235
 C234 C 0.38038 0.24979 0.12070
 C235 C 0.34693 0.24988 0.15386
 C236 C 0.31835 0.24995 0.18223
 C237 C 0.40847 0.74958 0.90740
 C238 C 0.37981 0.74950 0.87912
 C239 C 0.34626 0.74946 0.84605
 C240 C 0.31760 0.74950 0.81777
 C241 C 0.59265 0.75048 0.09135
 C242 C 0.62096 0.75057 0.11998
 C243 C 0.65406 0.75061 0.15350
 C244 C 0.68236 0.75058 0.18214
 C245 C 0.59311 0.24971 0.90839
 C246 C 0.62143 0.24974 0.87978
 C247 C 0.65453 0.24980 0.84627
 C248 C 0.68283 0.24987 0.81763
 C249 C 0.09284 0.40851 0.24953
 C250 C 0.12132 0.37995 0.24950
 C251 C 0.15462 0.34652 0.24949
 C252 C 0.18309 0.31794 0.24951
 C253 C 0.90730 0.40845 0.74955
 C254 C 0.87899 0.37983 0.74947
 C255 C 0.84588 0.34631 0.74946
 C256 C 0.81756 0.31769 0.74952
 C257 C 0.09135 0.59254 0.75043
 C258 C 0.11996 0.62086 0.75053
 C259 C 0.15346 0.65398 0.75060
 C260 C 0.18207 0.68231 0.75060
 C261 C 0.90839 0.59283 0.24976
 C262 C 0.87977 0.62124 0.24978
 C263 C 0.84625 0.65447 0.24980
 C264 C 0.81761 0.68287 0.24984
 C265 C 0.09247 0.24986 0.59172
 C266 C 0.12095 0.24980 0.62021
 C267 C 0.15428 0.24971 0.65357
 C268 C 0.18275 0.24961 0.68209
 C269 C 0.90771 0.75012 0.59209
 C270 C 0.87920 0.75015 0.62055
 C271 C 0.84584 0.75018 0.65387
 C272 C 0.81735 0.75021 0.68237
 C273 C 0.09199 0.74972 0.40792
 C274 C 0.12045 0.74967 0.37940
 C275 C 0.15374 0.74963 0.34601
 C276 C 0.18220 0.74962 0.31749
 C277 C 0.90803 0.24981 0.40766
 C278 C 0.87946 0.24980 0.37925
 C279 C 0.84604 0.24981 0.34599
 C280 C 0.81749 0.24984 0.31755
 C281 C 0.25010 0.40670 0.90837
 C282 C 0.25008 0.37834 0.87975
 C283 C 0.25008 0.34516 0.84624
 C284 C 0.25013 0.31680 0.81761
 C285 C 0.75010 0.40788 0.09194
 C286 C 0.75008 0.37937 0.12041
 C287 C 0.75003 0.34602 0.15373
 C288 C 0.74998 0.31752 0.18223
 C289 C 0.75003 0.59230 0.90793
 C290 C 0.74998 0.62082 0.87947
 C291 C 0.74992 0.65417 0.84614
 C292 C 0.74989 0.68267 0.81765
 C293 C 0.25021 0.59104 0.09252
 C294 C 0.25018 0.61966 0.12088
 C295 C 0.25011 0.65318 0.15405
 C296 C 0.25003 0.68181 0.18240
 C297 C 0.40866 0.09117 0.74978
 C298 C 0.38010 0.11970 0.74973
 C299 C 0.34667 0.15309 0.74970
 C300 C 0.31812 0.18162 0.74969
 C301 C 0.40699 0.90840 0.24968
 C302 C 0.37867 0.87975 0.24964
 C303 C 0.34553 0.84619 0.24962
 C304 C 0.31721 0.81753 0.24965
 C305 C 0.59118 0.09270 0.25014
 C306 C 0.61980 0.12105 0.25017
 C307 C 0.65331 0.15422 0.25017
 C308 C 0.68195 0.18257 0.25012
 C309 C 0.59141 0.90843 0.75000
 C310 C 0.61997 0.87991 0.74998
 C311 C 0.65341 0.84655 0.74998
 C312 C 0.68198 0.81803 0.74999
 C313 C 0.74951 0.90859 0.59145
 C314 C 0.74952 0.88005 0.62006
 C315 C 0.74954 0.84663 0.65357
 C316 C 0.74959 0.81809 0.68218
 C317 C 0.25045 0.40817 0.09110
 C318 C 0.25053 0.37965 0.11969
 C319 C 0.25061 0.34628 0.15317
 C320 C 0.25065 0.31779 0.18178
 C321 C 0.25042 0.09115 0.59117
 C322 C 0.25047 0.11969 0.61975
 C323 C 0.25049 0.15313 0.65325
 C324 C 0.25048 0.18166 0.68185
 C325 C 0.24990 0.90804 0.40824
 C326 C 0.24983 0.87949 0.37967
 C327 C 0.24978 0.84605 0.34618
 C328 C 0.24975 0.81750 0.31760
 C329 C 0.74955 0.09168 0.40848
 C330 C 0.74956 0.12025 0.37991
 C331 C 0.74960 0.15370 0.34644
 C332 C 0.74965 0.18225 0.31785
 C333 C 0.59140 0.75023 0.90854
 C334 C 0.61995 0.75030 0.87995
 C335 C 0.65340 0.75034 0.84646
 C336 C 0.68195 0.75036 0.81788
 C337 C 0.09247 0.25014 0.40749
 C338 C 0.12099 0.25023 0.37901
 C339 C 0.15439 0.25030 0.34569
 C340 C 0.18293 0.25031 0.31724
 C341 C 0.59170 0.24994 0.09122
 C342 C 0.62020 0.24999 0.11986
 C343 C 0.65358 0.25002 0.15341
 C344 C 0.68208 0.25003 0.18205
 C345 C 0.40878 0.24935 0.90812
 C346 C 0.38022 0.24927 0.87956
 C347 C 0.34675 0.24921 0.84611
 C348 C 0.31817 0.24920 0.81756
 C349 C 0.40833 0.74979 0.09153
 C350 C 0.37974 0.74972 0.12007
 C351 C 0.34624 0.74968 0.15350
 C352 C 0.31765 0.74966 0.18204
 C353 C 0.90842 0.59154 0.74999
 C354 C 0.87981 0.62017 0.75001
 C355 C 0.84629 0.65371 0.75004
 C356 C 0.81768 0.68234 0.75005
 C357 C 0.40853 0.09140 0.24990
 C358 C 0.38007 0.12004 0.24989
 C359 C 0.34676 0.15358 0.24986
 C360 C 0.31830 0.18223 0.24985
 C361 C 0.09130 0.59134 0.24973
 C362 C 0.11991 0.61987 0.24975
 C363 C 0.15343 0.65327 0.24980
 C364 C 0.18203 0.68181 0.24984
 C365 C 0.90835 0.40825 0.24970
 C366 C 0.87980 0.37968 0.24973
 C367 C 0.84634 0.34621 0.24978
 C368 C 0.81775 0.31766 0.24983
 C369 C 0.09164 0.40804 0.74992
 C370 C 0.12025 0.37943 0.74990
 C371 C 0.15376 0.34589 0.74989
 C372 C 0.18238 0.31728 0.74988
 C373 C 0.90767 0.75003 0.40797
 C374 C 0.87914 0.75008 0.37951
 C375 C 0.84576 0.75016 0.34618
 C376 C 0.81726 0.75022 0.31768
 C377 C 0.90813 0.24977 0.59178
 C378 C 0.87962 0.24977 0.62026
 C379 C 0.84625 0.24980 0.65361
 C380 C 0.81774 0.24984 0.68210
 C381 C 0.09196 0.74987 0.59227
 C382 C 0.12039 0.74985 0.62083
 C383 C 0.15367 0.74985 0.65427
 C384 C 0.18212 0.74985 0.68282
 C385 C 0.75008 0.59234 0.09198
 C386 C 0.75009 0.62089 0.12043
 C387 C 0.75007 0.65429 0.15374
 C388 C 0.75002 0.68281 0.18222
 C389 C 0.24998 0.59117 0.90843
 C390 C 0.24993 0.61978 0.87995
 C391 C 0.24990 0.65328 0.84660
 C392 C 0.24988 0.68188 0.81811
 C393 C 0.75016 0.40795 0.90779
 C394 C 0.75018 0.37948 0.87927
 C395 C 0.75023 0.34614 0.84590
 C396 C 0.75024 0.31764 0.81740
 C397 C 0.59118 0.90839 0.24997
 C398 C 0.61974 0.87986 0.24998
 C399 C 0.65320 0.84648 0.24999
 C400 C 0.68180 0.81798 0.25000
 C401 C 0.59146 0.09265 0.74983
 C402 C 0.62012 0.12098 0.74982
 C403 C 0.65370 0.15412 0.74983
 C404 C 0.68236 0.18245 0.74985
 C405 C 0.40722 0.90830 0.75018
 C406 C 0.37887 0.87965 0.75025
 C407 C 0.34569 0.84612 0.75036
 C408 C 0.31732 0.81749 0.75041
   
