data_POSCAR
  _audit_creation_date              2014-09-24
  _audit_creation_method            'ToBaCCo'
  _symmetry_space_group_name_H-M    'P1'
  _symmetry_Int_Tables_number       1
  _symmetry_cell_setting            triclinic
  loop_
  _symmetry_equiv_pos_as_xyz
 x,y,z
_cell_length_a 34.3420
_cell_length_b 34.3380
_cell_length_c 34.1298
_cell_angle_alpha 90.102500
_cell_angle_beta 89.530600
_cell_angle_gamma 89.902800
loop_
  _atom_site_label
  _atom_site_type_symbol
  _atom_site_fract_x
  _atom_site_fract_y
  _atom_site_fract_z
C1 C 0.71824 0.69824 0.95524
 H2 H 0.74709 0.70327 0.94335
 C3 C 0.68582 0.71520 0.93740
 H4 H 0.68982 0.73364 0.91197
 C5 C 0.67737 0.66516 1.00052
 H6 H 0.67393 0.64450 1.02410
 C7 C 0.64432 0.68090 0.98322
 H8 H 0.61576 0.67274 0.99411
 N9 N 0.71335 0.67304 0.98561
 C10 C 0.82692 0.64550 1.03436
 H11 H 0.82317 0.61422 1.03400
 C12 C 0.86054 0.66149 1.05000
 H13 H 0.88279 0.64212 1.06100
 C14 C 0.80236 0.70823 1.01924
 H15 H 0.77936 0.72617 1.00751
 C16 C 0.83582 0.72559 1.03470
 H17 H 0.83848 0.75702 1.03477
 Zn18 Zn 0.75505 0.64090 1.00137
 N19 N 0.79869 0.66879 1.01943
 C20 C 0.80636 0.61639 0.94190
 N21 N 0.77004 0.61087 0.95702
 C22 C 0.74396 0.58734 0.93875
 C23 C 0.75464 0.56720 0.90454
 C24 C 0.81817 0.59696 0.90802
 C25 C 0.73392 0.62989 1.07840
 C26 C 0.72206 0.61083 1.11246
 C27 C 0.71979 0.55070 1.07563
 C28 C 0.73237 0.57098 1.04233
 N29 N 0.73869 0.60997 1.04428
 H30 H 0.82612 0.63664 0.95546
 H31 H 0.71476 0.58452 0.95051
 H32 H 0.73378 0.54832 0.89039
 H33 H 0.84699 0.60263 0.89631
 H34 H 0.73910 0.66095 1.07901
 H35 H 0.71768 0.62846 1.13836
 H36 H 0.71438 0.51970 1.07318
 H37 H 0.73673 0.55561 1.01500
 C38 C 0.86504 0.70210 1.05095
 C39 C 0.64838 0.70506 0.95038
 C40 C 0.71455 0.57043 1.11161
 C41 C 0.79242 0.57142 0.88921
 C42 C 0.71968 0.31872 0.53677
 H43 H 0.74808 0.31874 0.55023
 C44 C 0.68987 0.29599 0.55280
 H45 H 0.69631 0.27754 0.57758
 C46 C 0.67671 0.34401 0.48919
 H47 H 0.67106 0.36381 0.46538
 C48 C 0.64612 0.32172 0.50424
 H49 H 0.61748 0.32425 0.49141
 N50 N 0.71254 0.34267 0.50592
 C51 C 0.82361 0.37746 0.45332
 H52 H 0.81624 0.40751 0.44752
 C53 C 0.85836 0.36217 0.43850
 H54 H 0.87774 0.38083 0.42182
 C55 C 0.80623 0.31624 0.47995
 H56 H 0.78543 0.29809 0.49512
 C57 C 0.84096 0.29974 0.46582
 H58 H 0.84600 0.26897 0.47025
 Zn59 Zn 0.75133 0.37934 0.49046
 N60 N 0.79841 0.35465 0.47389
 C61 C 0.79262 0.43652 0.53377
 N62 N 0.76109 0.41262 0.53405
 C63 C 0.73701 0.41085 0.56591
 C64 C 0.74550 0.43178 0.59992
 C65 C 0.80207 0.45812 0.56706
 C66 C 0.72564 0.38794 0.41401
 C67 C 0.70994 0.40655 0.38150
 C68 C 0.71253 0.46754 0.41688
 C69 C 0.72741 0.44753 0.44918
 N70 N 0.73302 0.40833 0.44731
 H71 H 0.81109 0.43820 0.50812
 H72 H 0.71129 0.39283 0.56530
 H73 H 0.72598 0.42947 0.62481
 H74 H 0.82798 0.47607 0.56665
 H75 H 0.73101 0.35689 0.41320
 H76 H 0.70335 0.38973 0.35552
 H77 H 0.70745 0.49863 0.41878
 H78 H 0.73394 0.46319 0.47583
 C79 C 0.86763 0.32295 0.44482
 C80 C 0.65212 0.29838 0.53726
 C81 C 0.70265 0.44674 0.38301
 C82 C 0.77910 0.45501 0.60110
 C83 C 0.21529 -0.14946 0.05669
 H84 H 0.23537 -0.13498 0.07606
 C85 C 0.18313 -0.16879 0.07246
 H86 H 0.17874 -0.16881 0.10393
 C87 C 0.19638 -0.16676 -0.00757
 H88 H 0.20150 -0.16574 -0.03878
 C89 C 0.16373 -0.18640 0.00696
 H90 H 0.14476 -0.20070 -0.01362
 N91 N 0.22081 -0.14789 0.01724
 C92 C 0.33124 -0.12391 -0.04166
 H93 H 0.32946 -0.09246 -0.04258
 C94 C 0.36317 -0.14292 -0.05832
 H95 H 0.38607 -0.12603 -0.07213
 C96 C 0.30323 -0.18417 -0.02267
 H97 H 0.27974 -0.19992 -0.00862
 C98 C 0.33432 -0.20449 -0.03988
 H99 H 0.33482 -0.23599 -0.03867
 Zn100 Zn 0.26049 -0.11517 -0.00321
 N101 N 0.30237 -0.14459 -0.02390
 C102 C 0.31676 -0.08667 0.04884
 N103 N 0.27906 -0.08245 0.03771
 C104 C 0.25437 -0.05845 0.05785
 C105 C 0.26731 -0.03796 0.09079
 C106 C 0.33090 -0.06663 0.08115
 C107 C 0.23799 -0.10712 -0.07985
 C108 C 0.22123 -0.09075 -0.11288
 C109 C 0.20951 -0.03178 -0.07585
 C110 C 0.22676 -0.04949 -0.04336
 N111 N 0.23984 -0.08680 -0.04575
 H112 H 0.33579 -0.10675 0.03369
 H113 H 0.22417 -0.05646 0.04934
 H114 H 0.24682 -0.01977 0.10657
 H115 H 0.36089 -0.07111 0.08971
 H116 H 0.24914 -0.13655 -0.08129
 H117 H 0.21975 -0.10823 -0.13932
 H118 H 0.19905 -0.00234 -0.07220
 H119 H 0.22907 -0.03353 -0.01621
 C120 C 0.36469 -0.18362 -0.05801
 C121 C 0.15621 -0.18664 0.04754
 C122 C 0.20586 -0.05278 -0.11138
 C123 C 0.30611 -0.04237 0.10304
 C124 C 0.21262 0.18918 0.46442
 H125 H 0.24117 0.19632 0.45296
 C126 C 0.17964 0.20858 0.45023
 H127 H 0.18327 0.23059 0.42784
 C128 C 0.17286 0.14964 0.50501
 H129 H 0.16986 0.12580 0.52534
 C130 C 0.13935 0.16781 0.49133
 H131 H 0.11113 0.15810 0.50182
 N132 N 0.20869 0.16042 0.49156
 C133 C 0.31890 0.13621 0.54960
 H134 H 0.31308 0.10544 0.55277
 C135 C 0.35243 0.15184 0.56572
 H136 H 0.37203 0.13295 0.58162
 C137 C 0.30047 0.19782 0.52454
 H138 H 0.27999 0.21556 0.50863
 C139 C 0.33435 0.21471 0.53984
 H140 H 0.33928 0.24557 0.53596
 Zn141 Zn 0.25178 0.12989 0.50847
 N142 N 0.29377 0.15903 0.52930
 C143 C 0.30879 0.10565 0.45467
 N144 N 0.27103 0.10015 0.46553
 C145 C 0.24750 0.07583 0.44495
 C146 C 0.26195 0.05586 0.41198
 C147 C 0.32436 0.08630 0.42233
 C148 C 0.22461 0.11868 0.58298
 C149 C 0.21124 0.09960 0.61633
 C150 C 0.21910 0.03828 0.58224
 C151 C 0.23244 0.05870 0.54928
 N152 N 0.23458 0.09823 0.55030
 H153 H 0.32698 0.12568 0.47056
 H154 H 0.21738 0.07239 0.45379
 H155 H 0.24247 0.03718 0.39589
 H156 H 0.35447 0.09153 0.41422
 H157 H 0.22655 0.15012 0.58279
 H158 H 0.20211 0.11697 0.64123
 H159 H 0.21699 0.00683 0.58110
 H160 H 0.24083 0.04307 0.52301
 C161 C 0.36090 0.19132 0.56052
 C162 C 0.14236 0.19764 0.46366
 C163 C 0.20858 0.05878 0.61641
 C164 C 0.30103 0.06119 0.40028
 C165 C 0.18503 0.45417 0.21799
 H166 H 0.18408 0.44095 0.24673
 C167 C 0.20188 0.43402 0.18649
 H168 H 0.21422 0.40538 0.19121
 C169 C 0.16752 0.50625 0.17619
 H170 H 0.15261 0.53354 0.17174
 C171 C 0.18462 0.48745 0.14407
 H172 H 0.18261 0.50076 0.11544
 N173 N 0.16775 0.48934 0.21223
 C174 C 0.14914 0.54777 0.32428
 H175 H 0.11828 0.55311 0.32104
 C176 C 0.16798 0.55992 0.35807
 H177 H 0.15150 0.57546 0.38031
 C178 C 0.20792 0.52158 0.29845
 H179 H 0.22313 0.50642 0.27512
 C180 C 0.22815 0.53371 0.33182
 H181 H 0.25908 0.52800 0.33402
 Zn182 Zn 0.13777 0.51066 0.25399
 N183 N 0.16896 0.52822 0.29576
 C184 C 0.10923 0.45840 0.31041
 N185 N 0.10484 0.47031 0.27273
 C186 C 0.08111 0.45073 0.24775
 C187 C 0.06115 0.41737 0.26035
 C188 C 0.08984 0.42561 0.32418
 C189 C 0.13149 0.58580 0.22608
 C190 C 0.11399 0.61923 0.21126
 C191 C 0.05116 0.58877 0.22019
 C192 C 0.06999 0.55555 0.23448
 N193 N 0.10954 0.55445 0.23628
 H194 H 0.12903 0.47326 0.32966
 H195 H 0.07885 0.46019 0.21763
 H196 H 0.04348 0.40168 0.23958
 H197 H 0.09450 0.41638 0.35412
 H198 H 0.16283 0.58443 0.22877
 H199 H 0.13208 0.64363 0.20273
 H200 H 0.01972 0.58912 0.21796
 H201 H 0.05309 0.53060 0.24366
 C202 C 0.20785 0.55219 0.36253
 C203 C 0.20152 0.45053 0.14895
 C204 C 0.07337 0.62062 0.20736
 C205 C 0.06587 0.40423 0.29909
 C206 C -0.19298 0.04809 0.21405
 H207 H -0.19787 0.06145 0.24240
 C208 C -0.21573 0.05939 0.18215
 H209 H -0.23795 0.08114 0.18721
 C210 C -0.15560 0.00622 0.17341
 H211 H -0.13137 -0.01350 0.16953
 C212 C -0.17746 0.01664 0.14084
 H213 H -0.16989 0.00406 0.11263
 N214 N -0.16327 0.02221 0.20915
 C215 C -0.12871 -0.02231 0.32387
 H216 H -0.09776 -0.02346 0.31830
 C217 C -0.14368 -0.03942 0.35772
 H218 H -0.12388 -0.05282 0.37827
 C219 C -0.19217 -0.00650 0.30239
 H220 H -0.21109 0.00502 0.28014
 C221 C -0.20848 -0.02312 0.33624
 H222 H -0.23983 -0.02409 0.33936
 Zn223 Zn -0.12753 0.01115 0.25031
 N224 N -0.15282 -0.00628 0.29692
 C225 C -0.06785 0.05502 0.28733
 N226 N -0.09743 0.05662 0.26106
 C227 C -0.10693 0.09079 0.24328
 C228 C -0.08770 0.12523 0.25299
 C229 C -0.04740 0.08870 0.29740
 C230 C -0.11442 -0.06510 0.22902
 C231 C -0.09476 -0.09756 0.21440
 C232 C -0.03568 -0.05946 0.21177
 C233 C -0.05670 -0.02736 0.22601
 N234 N -0.09550 -0.03069 0.23370
 H235 H -0.06020 0.02771 0.30083
 H236 H -0.12993 0.09176 0.22202
 H237 H -0.09644 0.15232 0.23940
 H238 H -0.02487 0.08687 0.31931
 H239 H -0.14521 -0.06693 0.23573
 H240 H -0.11053 -0.12451 0.21020
 H241 H -0.00502 -0.05640 0.20477
 H242 H -0.04226 0.00029 0.22995
 C243 C -0.18396 -0.04012 0.36430
 C244 C -0.20767 0.04402 0.14453
 C245 C -0.05508 -0.09468 0.20479
 C246 C -0.05764 0.12448 0.28041
 C247 C 0.31142 0.52752 0.71044
 H248 H 0.30704 0.53996 0.73929
 C249 C 0.29498 0.54545 0.67773
 H250 H 0.27805 0.57171 0.68201
 C251 C 0.34212 0.48035 0.66987
 H252 H 0.36164 0.45588 0.66661
 C253 C 0.32641 0.49736 0.63646
 H254 H 0.33353 0.48534 0.60792
 N255 N 0.33473 0.49577 0.70593
 C256 C 0.35069 0.43832 0.81808
 H257 H 0.38192 0.43494 0.81539
 C258 C 0.33115 0.42234 0.85001
 H259 H 0.34757 0.40653 0.87183
 C260 C 0.29157 0.46291 0.79254
 H261 H 0.27637 0.47840 0.76974
 C262 C 0.27075 0.44768 0.82455
 H263 H 0.23947 0.45130 0.82580
 Zn264 Zn 0.36308 0.47729 0.74937
 N265 N 0.33089 0.45821 0.79021
 C266 C 0.38643 0.53185 0.80586
 N267 N 0.39291 0.51945 0.76853
 C268 C 0.41755 0.53895 0.74410
 C269 C 0.43720 0.57212 0.75727
 C270 C 0.40530 0.56474 0.82013
 C271 C 0.37528 0.40193 0.72387
 C272 C 0.39551 0.36926 0.71053
 C273 C 0.45568 0.40488 0.71778
 C274 C 0.43421 0.43694 0.73128
 N275 N 0.39470 0.43509 0.73322
 H276 H 0.36566 0.51700 0.82442
 H277 H 0.42137 0.52914 0.71418
 H278 H 0.45652 0.58755 0.73746
 H279 H 0.39823 0.57456 0.84946
 H280 H 0.34386 0.40118 0.72624
 H281 H 0.37946 0.34337 0.70244
 H282 H 0.48709 0.40692 0.71639
 H283 H 0.44910 0.46327 0.73982
 C284 C 0.29081 0.42715 0.85382
 C285 C 0.30284 0.53051 0.64003
 C286 C 0.43608 0.37073 0.70646
 C287 C 0.43140 0.58524 0.79584
 C288 C 0.68175 0.94070 0.71954
 H289 H 0.68332 0.92556 0.74726
 C290 C 0.70224 0.92645 0.68696
 H291 H 0.72035 0.90088 0.69029
 C292 C 0.65540 0.99191 0.68154
 H293 H 0.63599 1.01652 0.67900
 C294 C 0.67558 0.97885 0.64837
 H295 H 0.67193 0.99397 0.62081
 N296 N 0.65834 0.97245 0.71611
 C297 C 0.62835 1.00470 0.83645
 H298 H 0.59715 1.00110 0.83416
 C299 C 0.64442 1.01714 0.87167
 H300 H 0.62468 1.02339 0.89567
 C301 C 0.69055 1.00303 0.80602
 H302 H 0.70817 0.99811 0.78007
 C303 C 0.70790 1.01619 0.84058
 H304 H 0.73908 1.02099 0.84090
 Zn305 Zn 0.62438 0.98494 0.75830
 N306 N 0.65137 0.99781 0.80463
 C307 C 0.60470 0.91688 0.79797
 N308 N 0.59364 0.93992 0.76762
 C309 C 0.56528 0.92834 0.74250
 C310 C 0.54576 0.89300 0.74852
 C311 C 0.58680 0.88108 0.80437
 C312 C 0.61836 1.06231 0.74187
 C313 C 0.60256 1.09767 0.73011
 C314 C 0.53935 1.06710 0.72721
 C315 C 0.55650 1.03209 0.73936
 N316 N 0.59559 1.03017 0.74532
 H317 H 0.62835 0.92565 0.81666
 H318 H 0.55823 0.94612 0.71742
 H319 H 0.52293 0.88420 0.72870
 H320 H 0.59597 0.86332 0.82883
 H321 H 0.64928 1.06009 0.74726
 H322 H 0.62164 1.12253 0.72655
 H323 H 0.50845 1.06745 0.72160
 H324 H 0.53864 1.00654 0.74337
 C325 C 0.68486 1.02346 0.87416
 C326 C 0.69825 0.94499 0.65047
 C327 C 0.56277 1.10041 0.72181
 C328 C 0.55707 0.86869 0.77937
 C329 C 0.02623 0.20553 -0.17891
 H330 H 0.04088 0.23334 -0.18092
 C331 C 0.04118 0.17328 -0.19892
 H332 H 0.06734 0.17643 -0.21658
 C333 C -0.02469 0.16720 -0.15199
 H334 H -0.04992 0.16473 -0.13309
 C335 C -0.01060 0.13416 -0.17129
 H336 H -0.02598 0.10690 -0.16779
 N337 N -0.00599 0.20189 -0.15583
 C338 C -0.05235 0.31797 -0.13697
 H339 H -0.05444 0.31694 -0.10534
 C340 C -0.06685 0.35000 -0.15710
 H341 H -0.07971 0.37388 -0.14072
 C342 C -0.03313 0.28779 -0.19664
 H343 H -0.02064 0.26311 -0.21188
 C344 C -0.04679 0.31971 -0.21801
 H345 H -0.04459 0.31957 -0.24968
 Zn346 Zn -0.02157 0.24501 -0.12524
 N347 N -0.03629 0.28755 -0.15685
 C348 C 0.04071 0.29277 -0.10363
 N349 N 0.02172 0.25926 -0.09429
 C350 C 0.03604 0.23445 -0.06683
 C351 C 0.07038 0.24349 -0.04695
 C352 C 0.07558 0.30229 -0.08539
 C353 C -0.09901 0.22657 -0.11677
 C354 C -0.13381 0.21528 -0.09893
 C355 C -0.10078 0.21467 -0.03669
 C356 C -0.06666 0.22662 -0.05583
 N357 N -0.06625 0.23152 -0.09533
 H358 H 0.02959 0.31157 -0.12629
 H359 H 0.02129 0.20726 -0.06096
 H360 H 0.08156 0.22364 -0.02512
 H361 H 0.09052 0.32889 -0.09346
 H362 H -0.09782 0.23071 -0.14818
 H363 H -0.15839 0.21042 -0.11783
 H364 H -0.10013 0.21018 -0.00526
 H365 H -0.04056 0.23144 -0.03911
 C366 C -0.06471 0.35079 -0.19818
 C367 C 0.02333 0.13686 -0.19440
 C368 C -0.13522 0.20868 -0.05811
 C369 C 0.09088 0.27733 -0.05692
 C370 C 0.43866 0.22314 0.18217
 H371 H 0.42215 0.24990 0.17995
 C372 C 0.42388 0.19206 0.20407
 H373 H 0.39612 0.19519 0.21906
 C374 C 0.49324 0.18526 0.16270
 H375 H 0.51924 0.18184 0.14508
 C376 C 0.47989 0.15373 0.18476
 H377 H 0.49606 0.12667 0.18380
 N378 N 0.47235 0.21896 0.16138
 C379 C 0.51407 0.33185 0.12069
 H380 H 0.51403 0.32499 0.08974
 C381 C 0.52818 0.36764 0.13336
 H382 H 0.53915 0.38824 0.11196
 C383 C 0.50065 0.31260 0.18609
 H384 H 0.49036 0.29069 0.20638
 C385 C 0.51435 0.34842 0.20013
 H386 H 0.51500 0.35347 0.23141
 Zn387 Zn 0.48490 0.25773 0.12393
 N388 N 0.50086 0.30515 0.14693
 C389 C 0.42005 0.30124 0.10188
 N390 N 0.43895 0.26704 0.09491
 C391 C 0.42271 0.23881 0.07224
 C392 C 0.38626 0.24485 0.05508
 C393 C 0.38339 0.30802 0.08621
 C394 C 0.56178 0.23856 0.11256
 C395 C 0.59541 0.22483 0.09411
 C396 C 0.55871 0.21674 0.03458
 C397 C 0.52558 0.23075 0.05430
 N398 N 0.52761 0.24056 0.09286
 H399 H 0.43267 0.32290 0.12088
 H400 H 0.43759 0.21129 0.06824
 H401 H 0.37353 0.22230 0.03706
 H402 H 0.36881 0.33540 0.09230
 H403 H 0.56257 0.24669 0.14318
 H404 H 0.62152 0.22186 0.11134
 H405 H 0.55660 0.20815 0.00412
 H406 H 0.49834 0.23323 0.03891
 C407 C 0.52848 0.37640 0.17343
 C408 C 0.44431 0.15668 0.20510
 C409 C 0.59420 0.21358 0.05453
 C410 C 0.36588 0.27945 0.06290
 C411 C 0.95131 0.70857 0.68641
 H412 H 0.93663 0.73642 0.68511
 C413 C 0.93498 0.67826 0.70822
 H414 H 0.90790 0.68314 0.72399
 C415 C 1.00257 0.66732 0.66486
 H416 H 1.02805 0.66257 0.64674
 C417 C 0.98743 0.63633 0.68652
 H418 H 1.00160 0.60823 0.68445
 N419 N 0.98414 0.70245 0.66469
 C420 C 1.03883 0.81256 0.63512
 H421 H 1.04693 0.80540 0.60530
 C422 C 1.05289 0.84661 0.65192
 H423 H 1.07120 0.86568 0.63451
 C424 C 1.00699 0.79529 0.69437
 H425 H 0.98950 0.77499 0.71097
 C426 C 1.02049 0.82927 0.71247
 H427 H 1.01234 0.83474 0.74263
 Zn428 Zn 1.00133 0.74177 0.62948
 N429 N 1.01614 0.78776 0.65623
 C430 C 0.96399 0.78535 0.57035
 N431 N 0.96068 0.75350 0.59375
 C432 C 0.92784 0.73136 0.59352
 C433 C 0.89574 0.74247 0.57122
 C434 C 0.93268 0.79747 0.54759
 C435 C 1.07866 0.71988 0.62460
 C436 C 1.11338 0.70743 0.60736
 C437 C 1.08089 0.70494 0.54482
 C438 C 1.04658 0.71734 0.56339
 N439 N 1.04615 0.72426 0.60262
 H440 H 0.99044 0.80219 0.57015
 H441 H 0.92610 0.70536 0.61118
 H442 H 0.86997 0.72450 0.57223
 H443 H 0.93548 0.82376 0.53030
 H444 H 1.07742 0.72589 0.65572
 H445 H 1.13888 0.70364 0.62545
 H446 H 1.08023 0.69853 0.51381
 H447 H 1.02028 0.72109 0.54661
 C448 C 1.04414 0.85530 0.69112
 C449 C 0.95275 0.64146 0.70802
 C450 C 1.11491 0.69991 0.56703
 C451 C 0.89753 0.77676 0.54879
 C452 C 0.54136 0.71524 0.30476
 H453 H 0.55402 0.74281 0.29626
 C454 C 0.55147 0.68114 0.28437
 H455 H 0.57207 0.68294 0.26029
 C456 C 0.50189 0.67901 0.34868
 H457 H 0.48383 0.67779 0.37468
 C458 C 0.51141 0.64443 0.32945
 H459 H 0.49997 0.61717 0.34055
 N460 N 0.51699 0.71356 0.33636
 C461 C 0.48481 0.83343 0.36677
 H462 H 0.49076 0.83041 0.39770
 C463 C 0.46961 0.86825 0.35267
 H464 H 0.46470 0.89113 0.37378
 C465 C 0.48400 0.80536 0.30341
 H466 H 0.48900 0.78046 0.28459
 C467 C 0.46849 0.83981 0.28791
 H468 H 0.46205 0.84101 0.25690
 Zn469 Zn 0.50821 0.75763 0.36912
 N470 N 0.49161 0.80288 0.34233
 C471 C 0.57606 0.80037 0.38319
 N472 N 0.55540 0.76881 0.39539
 C473 C 0.56925 0.74491 0.42387
 C474 C 0.60432 0.75359 0.44259
 C475 C 0.61154 0.80957 0.40042
 C476 C 0.43266 0.73914 0.38429
 C477 C 0.39933 0.72784 0.40462
 C478 C 0.43547 0.73187 0.46494
 C479 C 0.46835 0.74326 0.44328
 N480 N 0.46646 0.74581 0.40355
 H481 H 0.56525 0.81835 0.35970
 H482 H 0.55301 0.71921 0.43216
 H483 H 0.61469 0.73488 0.46580
 H484 H 0.62708 0.83526 0.39072
 H485 H 0.43205 0.74144 0.35269
 H486 H 0.37360 0.72082 0.38800
 H487 H 0.43744 0.72895 0.49645
 H488 H 0.49525 0.74951 0.45818
 C489 C 0.46056 0.87192 0.31261
 C490 C 0.53670 0.64503 0.29712
 C491 C 0.40042 0.72391 0.44557
 C492 C 0.62600 0.78608 0.43060
 C493 C 0.37369 0.00687 0.25243
 C494 C 0.11766 0.99933 0.75382
 C495 C 0.62357 0.50597 0.23788
 C496 C 0.86446 0.49954 0.74356
 C497 C 0.22879 0.36236 0.00180
 C498 C 0.73443 0.12112 1.00382
 C499 C 0.26301 0.63497 0.50517
 C500 C 0.75969 0.86927 0.50248
 C501 C 0.01049 0.25813 0.36759
 C502 C 1.01070 0.76254 0.12549
 C503 C 0.51281 0.23603 0.62612
 C504 C 0.49747 0.73307 0.86535
 C505 C 0.44291 -0.09445 0.29668
 C506 C 0.43243 -0.06107 0.31848
 C507 C 0.41122 -0.02919 0.30437
 C508 C 0.39953 -0.02387 0.26541
 H509 H 0.43918 -0.05928 0.34919
 H510 H 0.40316 -0.00742 0.32596
 H511 H 0.43598 -0.09547 0.26588
 H512 H 0.41200 -0.04250 0.24299
 C513 C 0.91835 0.38359 0.77976
 C514 C 0.88402 0.39887 0.79059
 C515 C 0.86564 0.43291 0.77224
 C516 C 0.88528 0.46197 0.75481
 H517 H 0.86763 0.38538 0.81417
 H518 H 0.83471 0.43639 0.77767
 H519 H 0.93336 0.39397 0.75380
 H520 H 0.91640 0.45946 0.75016
 C521 C 0.04162 1.10241 0.78696
 C522 C 0.03941 1.06658 0.80252
 C523 C 0.06150 1.03238 0.78806
 C524 C 0.09203 1.03439 0.76330
 H525 H 0.02176 1.06171 0.82844
 H526 H 0.05402 1.00455 0.80092
 H527 H 0.05948 1.10777 0.76134
 H528 H 0.10154 1.06239 0.75246
 C529 C 0.54998 0.60728 0.28058
 C530 C 0.56418 0.60278 0.24416
 C531 C 0.58109 0.56565 0.22979
 C532 C 0.60007 0.54071 0.25328
 H533 H 0.56323 0.62680 0.22371
 H534 H 0.58172 0.56091 0.19842
 H535 H 0.54756 0.58201 0.29940
 H536 H 0.60125 0.54681 0.28441
 C537 C 0.54662 0.41349 0.18584
 C538 C 0.53975 0.43110 0.22031
 C539 C 0.56094 0.46651 0.23274
 C540 C 0.59796 0.47346 0.22168
 H541 H 0.51751 0.42001 0.23993
 H542 H 0.54690 0.48508 0.25427
 H543 H 0.56611 0.42725 0.16495
 H544 H 0.61262 0.45206 0.20336
 C545 C 0.06097 0.89132 0.70791
 C546 C 0.06281 0.89939 0.74633
 C547 C 0.08432 0.93329 0.76186
 C548 C 0.09141 0.96579 0.74095
 H549 H 0.05177 0.87891 0.76768
 H550 H 0.09478 0.93078 0.79157
 H551 H 0.07517 0.91069 0.68732
 H552 H 0.07722 0.96931 0.71294
 C553 C 0.93187 0.60832 0.72611
 C554 C 0.94885 0.57462 0.73622
 C555 C 0.92561 0.54061 0.74862
 C556 C 0.89245 0.53124 0.73033
 H557 H 0.98022 0.57182 0.73624
 H558 H 0.93681 0.52246 0.77184
 H559 H 0.90070 0.61154 0.73035
 H560 H 0.88298 0.54982 0.70651
 C561 C 0.42593 0.12233 0.22365
 C562 C 0.44621 0.09257 0.23865
 C563 C 0.42667 0.05772 0.25446
 C564 C 0.39778 0.03996 0.23509
 H565 H 0.47753 0.09446 0.24139
 H566 H 0.43692 0.04608 0.28195
 H567 H 0.39438 0.12158 0.22506
 H568 H 0.38931 0.05184 0.20697
 C569 C 0.27147 0.40898 -0.11193
 C570 C 0.23741 0.42059 -0.09622
 C571 C 0.22095 0.40192 -0.06065
 C572 C 0.24367 0.38612 -0.03298
 H573 H 0.22050 0.44329 -0.10997
 H574 H 0.18957 0.40094 -0.05750
 H575 H 0.28716 0.38527 -0.09831
 H576 H 0.27476 0.39133 -0.03460
 C577 C 0.80131 0.93805 0.39876
 C578 C 0.76632 0.94361 0.41575
 C579 C 0.75166 0.91945 0.44875
 C580 C 0.77483 0.89815 0.47204
 H581 H 0.74658 0.96519 0.40414
 H582 H 0.72043 0.91847 0.45321
 H583 H 0.82067 0.91598 0.41003
 H584 H 0.80605 0.90193 0.46982
 C585 C 0.77344 0.05637 1.11019
 C586 C 0.74186 0.08230 1.10915
 C587 C 0.72770 0.10016 1.07516
 C588 C 0.74614 0.09906 1.03807
 H589 H 0.72658 0.08956 1.13598
 H590 H 0.70174 0.11754 1.07936
 H591 H 0.78451 0.04480 1.08281
 H592 H 0.77214 0.08153 1.03441
 C593 C 0.29014 0.55048 0.60385
 C594 C 0.25966 0.57481 0.60268
 C595 C 0.24855 0.59731 0.56766
 C596 C 0.27367 0.60794 0.53906
 H597 H 0.24101 0.57811 0.62817
 H598 H 0.21879 0.60768 0.56730
 H599 H 0.30635 0.54430 0.57722
 H600 H 0.30332 0.59725 0.53993
 C601 C 0.22853 0.56466 0.39828
 C602 C 0.21084 0.56486 0.43351
 C603 C 0.22725 0.58222 0.46937
 C604 C 0.25420 0.61047 0.46903
 H605 H 0.18209 0.55228 0.43656
 H606 H 0.21272 0.57507 0.49667
 H607 H 0.25865 0.57348 0.39536
 H608 H 0.26643 0.61977 0.44124
 C609 C 0.70241 0.03903 0.90793
 C610 C 0.68350 0.04263 0.94445
 C611 C 0.69648 0.06572 0.97559
 C612 C 0.72603 0.09382 0.97263
 H613 H 0.65701 0.02652 0.94993
 H614 H 0.68022 0.06374 1.00287
 H615 H 0.73242 0.04826 0.90532
 H616 H 0.74110 0.09692 0.94481
 C617 C 0.71571 0.92911 0.61390
 C618 C 0.72095 0.89078 0.60823
 C619 C 0.73446 0.87247 0.57126
 C620 C 0.74638 0.89140 0.53884
 H621 H 0.71316 0.87068 0.63137
 H622 H 0.73450 0.84092 0.57095
 H623 H 0.72095 0.94938 0.59027
 H624 H 0.74682 0.92288 0.53818
 C625 C 0.21507 0.42714 0.11501
 C626 C 0.22938 0.44291 0.08200
 C627 C 0.23997 0.41895 0.04761
 C628 C 0.21720 0.38980 0.03508
 H629 H 0.23522 0.47384 0.08054
 H630 H 0.26610 0.42658 0.03145
 H631 H 0.21339 0.39570 0.11743
 H632 H 0.19075 0.38358 0.05147
 C633 C -0.09627 0.30719 0.42652
 C634 C -0.07805 0.27467 0.43834
 C635 C -0.04398 0.25760 0.41751
 C636 C -0.02049 0.27767 0.39318
 H637 H -0.08957 0.25821 0.46278
 H638 H -0.03885 0.22674 0.42156
 H639 H -0.08483 0.32326 0.40177
 H640 H -0.02353 0.30899 0.39137
 C641 C 0.39819 0.79680 0.92312
 C642 C 0.39432 0.76413 0.90212
 C643 C 0.42665 0.74745 0.87892
 C644 C 0.46382 0.74754 0.89098
 H645 H 0.36574 0.75146 0.89829
 H646 H 0.41915 0.73392 0.85134
 H647 H 0.42587 0.81191 0.92309
 H648 H 0.47054 0.76065 0.91904
 C649 C 1.12085 0.79578 0.06536
 C650 C 1.08902 0.78515 0.04542
 C651 C 1.05417 0.76919 0.06525
 C652 C 1.04200 0.78203 0.10049
 H653 H 1.08838 0.78646 0.01383
 H654 H 1.03871 0.74622 0.05029
 H655 H 1.12078 0.79241 0.09693
 H656 H 1.05780 0.80571 0.11412
 C657 C 0.61810 0.27897 0.55580
 C658 C 0.61626 0.27186 0.59441
 C659 C 0.58163 0.25747 0.61588
 C660 C 0.54721 0.24771 0.60008
 H661 H 0.64082 0.27914 0.61263
 H662 H 0.58455 0.25592 0.64744
 H663 H 0.59297 0.27394 0.53764
 H664 H 0.54298 0.24915 0.56876
 C665 C 0.39711 0.20624 0.57826
 C666 C 0.41699 0.23743 0.56559
 C667 C 0.45378 0.24976 0.58425
 C668 C 0.47844 0.22429 0.60086
 H669 H 0.40562 0.25535 0.54229
 H670 H 0.46012 0.28060 0.58488
 H671 H 0.40856 0.18951 0.60247
 H672 H 0.47359 0.19342 0.59633
 C673 C 0.89976 0.72014 0.06887
 C674 C 0.91803 0.70353 0.09916
 C675 C 0.95159 0.72078 0.11928
 C676 C 0.97848 0.74327 0.10176
 H677 H 0.90621 0.67738 0.11227
 H678 H 0.95488 0.71335 0.14991
 H679 H 0.90882 0.74855 0.05855
 H680 H 0.97517 0.75075 0.07118
 C681 C 0.61403 0.71581 0.92704
 C682 C 0.58874 0.68825 0.91621
 C683 C 0.55620 0.69509 0.88939
 C684 C 0.53283 0.72643 0.89163
 H685 H 0.59412 0.65823 0.92434
 H686 H 0.55042 0.67189 0.86885
 H687 H 0.61184 0.74499 0.91524
 H688 H 0.53957 0.74887 0.91292
 C689 C 0.10601 0.21385 0.44715
 C690 C 0.10320 0.24982 0.43231
 C691 C 0.06774 0.26482 0.41302
 C692 C 0.04249 0.24191 0.39379
 H693 H 0.12757 0.26961 0.43460
 H694 H 0.06485 0.29615 0.41083
 H695 H 0.08039 0.19554 0.44833
 H696 H 0.04606 0.21062 0.39511
 C697 C 0.54838 0.13788 0.70568
 C698 C 0.51165 0.14513 0.69475
 C699 C 0.50046 0.18146 0.67437
 C700 C 0.52485 0.20060 0.65012
 H701 H 0.48867 0.12453 0.70073
 H702 H 0.47042 0.19084 0.67692
 H703 H 0.56992 0.16057 0.70166
 H704 H 0.55377 0.18879 0.64527
 C705 C 1.05415 0.65436 0.18874
 C706 C 1.07019 0.67183 0.15751
 C707 C 1.05055 0.70232 0.13484
 C708 C 1.03050 0.73197 0.15092
 H709 H 1.09706 0.66050 0.14514
 H710 H 1.05454 0.70097 0.10342
 H711 H 1.02508 0.66247 0.19833
 H712 H 1.02754 0.73353 0.18254
 C713 C 0.96565 0.87246 0.18586
 C714 C 0.94852 0.85167 0.15762
 C715 C 0.96828 0.82091 0.13502
 C716 C 0.99226 0.79434 0.15073
 H717 H 0.91970 0.85982 0.14786
 H718 H 0.96039 0.81847 0.10446
 H719 H 0.99604 0.86759 0.19260
 H720 H 0.99939 0.79630 0.18155
 C721 C 0.45641 0.33652 0.68951
 C722 C 0.48991 0.33929 0.66931
 C723 C 0.50650 0.30692 0.64607
 C724 C 0.50045 0.26897 0.65383
 H725 H 0.50349 0.36743 0.66536
 H726 H 0.52361 0.31542 0.62076
 H727 H 0.44088 0.30911 0.68995
 H728 H 0.48359 0.26110 0.67954
 C729 C 0.45090 0.62134 0.80937
 C730 C 0.45772 0.62821 0.84740
 C731 C 0.47308 0.66475 0.86396
 C732 C 0.48510 0.69611 0.84367
 H733 H 0.45088 0.60603 0.86882
 H734 H 0.47389 0.66602 0.89567
 H735 H 0.45945 0.64235 0.78738
 H736 H 0.48493 0.69613 0.81200
 C737 C -0.03984 0.16161 0.29303
 C738 C -0.00306 0.16416 0.30555
 C739 C 0.01354 0.19992 0.32275
 C740 C -0.00776 0.22530 0.34394
 H741 H 0.01606 0.13915 0.30318
 H742 H 0.04493 0.20291 0.32191
 H743 H -0.05767 0.18761 0.29163
 H744 H -0.03900 0.22133 0.34592
 C745 C 0.04867 0.36777 0.31465
 C746 C 0.02213 0.34553 0.29662
 C747 C 0.00600 0.31052 0.31605
 C748 C 0.02775 0.28795 0.33944
 H749 H 0.00935 0.35456 0.26927
 H750 H -0.02478 0.30464 0.31288
 H751 H 0.05796 0.35926 0.34369
 H752 H 0.05898 0.29250 0.33962
 C753 C 0.53708 0.83129 0.78663
 C754 C 0.55710 0.79930 0.79667
 C755 C 0.53921 0.76394 0.81346
 C756 C 0.50777 0.76556 0.83699
 H757 H 0.58860 0.79956 0.79463
 H758 H 0.55629 0.73741 0.81241
 H759 H 0.50562 0.83056 0.78493
 H760 H 0.49239 0.79303 0.83999
 C761 C 0.70115 0.55046 0.14314
 C762 C 0.69809 0.56571 0.18139
 C763 C 0.67668 0.54861 0.21192
 C764 C 0.64937 0.51873 0.20684
 H765 H 0.71351 0.59200 0.18903
 H766 H 0.67919 0.56174 0.24069
 H767 H 0.69282 0.52040 0.13863
 H768 H 0.64441 0.50785 0.17750
 C769 C 0.19246 1.03752 0.65061
 C770 C 0.19344 1.05210 0.68714
 C771 C 0.17266 1.03548 0.72127
 C772 C 0.14329 1.00982 0.71876
 H773 H 0.20989 1.07829 0.69294
 H774 H 0.17960 1.04789 0.74955
 H775 H 0.17935 1.00944 0.64514
 H776 H 0.13456 0.99954 0.69016
 C777 C 0.18782 0.96096 0.85633
 C778 C 0.16980 0.99755 0.85291
 C779 C 0.14825 1.00974 0.82041
 C780 C 0.14259 0.98795 0.78588
 H781 H 0.17086 1.01818 0.87674
 H782 H 0.13498 1.03822 0.82312
 H783 H 0.18652 0.94142 0.83158
 H784 H 0.15875 0.96133 0.78123
 C785 C 0.68360 0.46678 0.35005
 C786 C 0.65237 0.45121 0.33288
 C787 C 0.63043 0.47076 0.30176
 C788 C 0.64742 0.48881 0.27125
 H789 H 0.64023 0.42435 0.34422
 H790 H 0.59915 0.46729 0.30257
 H791 H 0.69321 0.49575 0.34205
 H792 H 0.67895 0.49052 0.27015
 C793 C 0.79229 0.47512 0.63712
 C794 C 0.78232 0.46418 0.67368
 C795 C 0.80224 0.47898 0.70907
 C796 C 0.83975 0.48987 0.70815
 H797 H 0.76027 0.44225 0.67845
 H798 H 0.78693 0.47685 0.73682
 H799 H 0.81371 0.49791 0.63317
 H800 H 0.85563 0.48749 0.68067
 C801 C 0.32219 -0.02431 0.13892
 C802 C 0.30205 -0.00336 0.16547
 C803 C 0.32101 0.01137 0.20131
 C804 C 0.34800 -0.00965 0.22025
 H805 H 0.27210 0.00481 0.16061
 H806 H 0.31324 0.04018 0.21174
 H807 H 0.35289 -0.02932 0.14410
 H808 H 0.35329 -0.03928 0.21040
 C809 C 0.31898 0.04301 0.36501
 C810 C 0.30157 0.01790 0.34060
 C811 C 0.32207 0.00229 0.30556
 C812 C 0.34832 0.02340 0.28537
 H813 H 0.27282 0.00678 0.34695
 H814 H 0.31551 -0.02713 0.29630
 H815 H 0.34900 0.05084 0.35905
 H816 H 0.35285 0.05354 0.29362
 C817 C 0.80459 0.54976 0.85350
 C818 C 0.84156 0.53809 0.84862
 C819 C 0.85745 0.51755 0.81413
 C820 C 0.84149 0.51637 0.77827
 H821 H 0.86211 0.54263 0.87207
 H822 H 0.88593 0.50476 0.81836
 H823 H 0.78276 0.54220 0.83210
 H824 H 0.81448 0.53164 0.77283
 C825 C 0.15178 0.68472 0.55024
 C826 C 0.16122 0.68591 0.51206
 C827 C 0.19653 0.66682 0.49616
 C828 C 0.22904 0.66145 0.51720
 H829 H 0.14140 0.69843 0.49109
 H830 H 0.19487 0.65631 0.46634
 H831 H 0.17165 0.67129 0.57066
 H832 H 0.23155 0.67572 0.54540
 C833 C 0.62847 0.19583 1.03453
 C834 C 0.66518 0.20166 1.04651
 C835 C 0.69972 0.18024 1.03172
 C836 C 0.69825 0.14651 1.01165
 H837 H 0.67092 0.22302 1.06904
 H838 H 0.72772 0.19094 1.04133
 H839 H 0.62286 0.17726 1.00959
 H840 H 0.67010 0.13444 1.00458
 C841 C 0.83255 0.19546 0.96076
 C842 C 0.79564 0.19175 0.94356
 C843 C 0.76438 0.17104 0.95974
 C844 C 0.76690 0.14541 0.99169
 H845 H 0.78956 0.20615 0.91618
 H846 H 0.73690 0.17298 0.94446
 H847 H 0.83536 0.18779 0.99136
 H848 H 0.79491 0.14132 1.00549
 C849 C 0.36656 0.70856 0.46788
 C850 C 0.32991 0.71154 0.45476
 C851 C 0.29593 0.69101 0.47159
 C852 C 0.29820 0.66031 0.49583
 H853 H 0.32391 0.72939 0.42943
 H854 H 0.26781 0.69931 0.46012
 H855 H 0.37241 0.69391 0.49524
 H856 H 0.32653 0.65013 0.50495
 C857 C 0.66242 0.79643 0.45093
 C858 C 0.69300 0.81169 0.43174
 C859 C 0.72767 0.82745 0.45144
 C860 C 0.72554 0.84620 0.48591
 H861 H 0.69282 0.81300 0.40004
 H862 H 0.75468 0.82809 0.43484
 H863 H 0.66400 0.79133 0.48219
 H864 H 0.69778 0.84765 0.50120
 C865 C 0.12788 0.28692 -0.03751
 C866 C 0.15913 0.29792 -0.05844
 C867 C 0.19491 0.31367 -0.04091
 C868 C 0.19391 0.33769 -0.00989
 H869 H 0.15839 0.29613 -0.09013
 H870 H 0.22173 0.31063 -0.05758
 H871 H 0.12932 0.28495 -0.00589
 H872 H 0.16625 0.34272 0.00480
 C873 C 0.32706 0.28647 0.04599
 C874 C 0.29848 0.30296 0.06733
 C875 C 0.26236 0.31906 0.05068
 C876 C 0.26164 0.33579 0.01520
 H877 H 0.30237 0.30681 0.09858
 H878 H 0.23795 0.32315 0.07055
 H879 H 0.32244 0.27892 0.01557
 H880 H 0.28675 0.33239 -0.00396
 C881 C 0.86350 0.79337 0.52805
 C882 C 0.82638 0.78279 0.53464
 C883 C 0.79289 0.80483 0.51904
 C884 C 0.79399 0.84365 0.51419
 H885 H 0.81946 0.75803 0.55284
 H886 H 0.76588 0.78913 0.51539
 H887 H 0.86927 0.81746 0.50840
 H888 H 0.82034 0.85903 0.52208
   
