data_POSCAR
  _audit_creation_date              2014-09-24
  _audit_creation_method            'ToBaCCo'
  _symmetry_space_group_name_H-M    'P1'
  _symmetry_Int_Tables_number       1
  _symmetry_cell_setting            triclinic
  loop_
  _symmetry_equiv_pos_as_xyz
 x,y,z
_cell_length_a 16.4807
_cell_length_b 16.4807
_cell_length_c 28.1933
_cell_angle_alpha 89.865000
_cell_angle_beta 90.135000
_cell_angle_gamma 89.999800
loop_
  _atom_site_label
  _atom_site_type_symbol
  _atom_site_fract_x
  _atom_site_fract_y
  _atom_site_fract_z
O1 O 0.06657 0.58001 1.04528
 O2 O 0.06647 0.42202 0.95316
 O3 O 0.06641 0.58035 0.95310
 O4 O 0.06657 0.42182 1.04533
 O5 O -0.06725 0.42182 1.04520
 O6 O -0.06728 0.58036 0.95296
 O7 O -0.06735 0.42202 0.95302
 O8 O -0.06725 0.58002 1.04514
 Cu9 Cu 0.07990 0.50106 0.99921
 Cu10 Cu -0.08068 0.50106 0.99905
 C11 C -0.00032 0.60739 1.06083
 C12 C -0.00045 0.39455 0.93753
 C13 C -0.00045 0.60810 0.93737
 C14 C -0.00032 0.39434 1.06089
 O15 O 0.58037 -0.06730 0.54704
 O16 O 0.42183 -0.06726 0.45481
 O17 O 0.58003 -0.06726 0.45486
 O18 O 0.42204 -0.06736 0.54698
 O19 O 0.42204 0.06645 0.54685
 O20 O 0.58003 0.06656 0.45473
 O21 O 0.42183 0.06656 0.45467
 O22 O 0.58037 0.06639 0.54690
 Cu23 Cu 0.50107 -0.08069 0.50095
 Cu24 Cu 0.50107 0.07988 0.50079
 C25 C 0.60811 -0.00047 0.56263
 C26 C 0.39435 -0.00034 0.43911
 C27 C 0.60741 -0.00033 0.43918
 C28 C 0.39456 -0.00047 0.56247
 C29 C 0.00008 0.00006 0.25000
 C30 C -0.00048 -0.00050 0.75000
 C31 C -0.00017 -0.19895 0.16249
 C32 C -0.07366 -0.23130 0.14631
 C33 C -0.07380 -0.29518 0.11377
 C34 C -0.00027 -0.32745 0.09691
 C35 C 0.07331 -0.29523 0.11393
 C36 C 0.07326 -0.23136 0.14647
 C37 C -0.00011 -0.13058 0.19412
 C38 C -0.00004 -0.07218 0.21982
 H39 H -0.13086 -0.20649 0.15840
 H40 H -0.13146 -0.31857 0.10138
 H41 H 0.13093 -0.31866 0.10167
 H42 H 0.13050 -0.20659 0.15869
 C43 C -0.00017 0.19985 0.16255
 C44 C 0.07326 0.23240 0.14654
 C45 C 0.07331 0.29656 0.11401
 C46 C -0.00027 0.32892 0.09699
 C47 C -0.07380 0.29651 0.11385
 C48 C -0.07366 0.23235 0.14638
 C49 C -0.00011 0.13119 0.19415
 C50 C -0.00004 0.07256 0.21983
 H51 H 0.13050 0.20753 0.15875
 H52 H 0.13093 0.32009 0.10176
 H53 H -0.13146 0.31999 0.10146
 H54 H -0.13086 0.20743 0.15846
 C55 C 0.19954 -0.00055 0.66325
 C56 C 0.23222 0.07292 0.64727
 C57 C 0.29660 0.07304 0.61506
 C58 C 0.32907 -0.00050 0.59835
 C59 C 0.29655 -0.07407 0.61520
 C60 C 0.23216 -0.07400 0.64740
 C61 C 0.13070 -0.00056 0.69453
 C62 C 0.07199 -0.00054 0.71999
 H63 H 0.20727 0.13013 0.65924
 H64 H 0.32019 0.13069 0.60280
 H65 H 0.32010 -0.13170 0.60304
 H66 H 0.20717 -0.13122 0.65947
 C67 C -0.20013 -0.00055 0.66241
 C68 C -0.23270 -0.07395 0.64645
 C69 C -0.29696 -0.07409 0.61399
 C70 C -0.32960 -0.00050 0.59681
 C71 C -0.29698 0.07307 0.61384
 C72 C -0.23273 0.07288 0.64631
 C73 C -0.13143 -0.00056 0.69399
 C74 C -0.07283 -0.00054 0.71970
 H75 H -0.20778 -0.13116 0.65867
 H76 H -0.32020 -0.13200 0.60197
 H77 H -0.32025 0.13100 0.60170
 H78 H -0.20783 0.13007 0.65840
 C79 C -0.00053 -0.20015 0.83759
 C80 C 0.07290 -0.23275 0.85370
 C81 C 0.07309 -0.29700 0.88616
 C82 C -0.00048 -0.32962 0.90319
 C83 C -0.07408 -0.29697 0.88601
 C84 C -0.07393 -0.23272 0.85355
 C85 C -0.00054 -0.13145 0.80602
 C86 C -0.00053 -0.07285 0.78031
 H87 H 0.13009 -0.20784 0.84160
 H88 H 0.13101 -0.32026 0.89830
 H89 H -0.13198 -0.32022 0.89804
 H90 H -0.13114 -0.20779 0.84133
 C91 C -0.00053 0.19952 0.83675
 C92 C 0.07294 0.23220 0.85273
 C93 C 0.07305 0.29658 0.88494
 C94 C -0.00049 0.32905 0.90165
 C95 C -0.07405 0.29653 0.88481
 C96 C -0.07398 0.23215 0.85260
 C97 C -0.00054 0.13068 0.80547
 C98 C -0.00053 0.07198 0.78001
 H99 H 0.13015 0.20725 0.84076
 H100 H 0.13071 0.32018 0.89720
 H101 H -0.13169 0.32009 0.89697
 H102 H -0.13121 0.20716 0.84053
 C103 C -0.19893 -0.00019 0.33751
 C104 C -0.23128 -0.07367 0.35369
 C105 C -0.29516 -0.07382 0.38624
 C106 C -0.32744 -0.00029 0.40309
 C107 C -0.29522 0.07329 0.38607
 C108 C -0.23134 0.07325 0.35353
 C109 C -0.13056 -0.00013 0.30589
 C110 C -0.07217 -0.00006 0.28019
 H111 H -0.20647 -0.13087 0.34161
 H112 H -0.31855 -0.13148 0.39862
 H113 H -0.31865 0.13092 0.39833
 H114 H -0.20657 0.13048 0.34132
 C115 C 0.19987 -0.00019 0.33745
 C116 C 0.23236 -0.07368 0.35362
 C117 C 0.29652 -0.07382 0.38616
 C118 C 0.32894 -0.00029 0.40301
 C119 C 0.29658 0.07329 0.38599
 C120 C 0.23242 0.07325 0.35346
 C121 C 0.13121 -0.00013 0.30585
 C122 C 0.07258 -0.00006 0.28017
 H123 H 0.20744 -0.13087 0.34154
 H124 H 0.32001 -0.13148 0.39854
 H125 H 0.32011 0.13092 0.39824
 H126 H 0.20754 0.13048 0.34125
   
