data_POSCAR
  _audit_creation_date              2014-09-24
  _audit_creation_method            'ToBaCCo'
  _symmetry_space_group_name_H-M    'P1'
  _symmetry_Int_Tables_number       1
  _symmetry_cell_setting            triclinic
  loop_
  _symmetry_equiv_pos_as_xyz
 x,y,z
_cell_length_a 26.6100
_cell_length_b 26.3759
_cell_length_c 26.0566
_cell_angle_alpha 89.200100
_cell_angle_beta 89.397600
_cell_angle_gamma 89.312600
loop_
  _atom_site_label
  _atom_site_type_symbol
  _atom_site_fract_x
  _atom_site_fract_y
  _atom_site_fract_z
C1 C 0.14446 0.14049 0.20746
 N2 N 0.19557 0.13866 0.20163
 C3 C 0.21904 0.17651 0.17451
 N4 N 0.19173 0.21639 0.15590
 C5 C 0.14128 0.21770 0.16124
 N6 N 0.11792 0.17943 0.18617
 C7 C -0.15923 0.81241 0.23315
 N8 N -0.19725 0.84600 0.22452
 C9 C -0.22569 0.84285 0.18179
 N10 N -0.21563 0.80584 0.14722
 C11 C -0.17700 0.77253 0.15534
 N12 N -0.14911 0.77581 0.19839
 C13 C -0.18920 0.16911 -0.24654
 N14 N -0.23022 0.15916 -0.21678
 C15 C -0.23583 0.18104 -0.17029
 N16 N -0.20084 0.21413 -0.15408
 C17 C -0.15969 0.22393 -0.18349
 N18 N -0.15362 0.20092 -0.22945
 C19 C 0.16159 0.84992 -0.19878
 N20 N 0.19518 0.87311 -0.16870
 C21 C 0.22798 0.84607 -0.13959
 N22 N 0.22630 0.79460 -0.13973
 C23 C 0.19051 0.77080 -0.16748
 N24 N 0.15871 0.79849 -0.19778
 C25 C 0.16521 1.16349 0.75691
 N26 N 0.20116 1.13502 0.78132
 C27 C 0.20485 1.13594 0.83307
 N28 N 0.17485 1.16756 0.85995
 C29 C 0.14224 1.19970 0.83632
 N30 N 0.13615 1.19696 0.78435
 C31 C 0.85227 0.86607 0.80812
 N32 N 0.87849 0.83043 0.83434
 C33 C 0.85523 0.79292 0.86088
 N34 N 0.80403 0.79418 0.86595
 C35 C 0.77739 0.83266 0.84261
 N36 N 0.80147 0.86652 0.81135
 C37 C 0.16853 0.81202 1.23555
 N38 N 0.21111 0.83926 1.22971
 C39 C 0.24175 0.83208 1.18842
 N40 N 0.22942 0.79772 1.15249
 C41 C 0.18666 0.77039 1.15817
 N42 N 0.15656 0.77741 1.19981
 C43 C 0.81909 1.16684 1.22453
 N44 N 0.77701 1.16135 1.19605
 C45 C 0.76615 1.19437 1.15731
 N46 N 0.79773 1.23303 1.14653
 C47 C 0.83988 1.23930 1.17440
 N48 N 0.85052 1.20619 1.21380
 N49 N 0.44118 1.05215 0.91014
 N50 N 0.39996 1.04616 0.88298
 N51 N 0.53800 1.10394 0.94058
 N52 N 0.57358 1.13775 0.93672
 N53 N 0.54719 1.06544 0.91027
 N54 N 0.59020 1.07238 0.88485
 N55 N 0.43438 1.08850 0.94356
 N56 N 0.38854 1.10772 0.94051
 C57 C 0.36809 1.08185 0.90171
 C58 C 0.60534 1.11834 0.90168
 N59 N 0.54700 1.08367 1.08735
 N60 N 0.58753 1.09636 1.11297
 N61 N 0.43548 1.10083 1.05325
 N62 N 0.39828 1.13326 1.06074
 N63 N 0.44156 1.07122 1.09366
 N64 N 0.40763 1.08201 1.12960
 N65 N 0.53935 1.11519 1.04872
 N66 N 0.57412 1.15030 1.04691
 Mn67 Mn 0.48637 1.10228 0.99635
 C68 C 0.60353 1.13823 1.08719
 C69 C 0.38068 1.12034 1.10780
 N70 N 0.55961 0.95536 0.92179
 N71 N 0.59226 0.94297 0.88549
 N72 N 0.45612 0.91429 0.96362
 N73 N 0.41391 0.88813 0.96717
 N74 N 0.45519 0.94446 0.92292
 N75 N 0.41294 0.93906 0.89794
 N76 N 0.56251 0.92316 0.96075
 N77 N 0.59834 0.88880 0.95235
 Mn78 Mn 0.50131 1.00436 0.91563
 C79 C 0.61686 0.90233 0.90555
 C80 C 0.38814 0.90306 0.92484
 N81 N 0.45629 0.96468 1.10638
 N82 N 0.42057 0.95991 1.14117
 N83 N 0.56303 0.93569 1.07062
 N84 N 0.60356 0.90809 1.08113
 N85 N 0.56020 0.97534 1.10062
 N86 N 0.59811 0.97562 1.13271
 N87 N 0.45699 0.92615 1.07492
 N88 N 0.42097 0.89380 1.08764
 Mn89 Mn 0.50160 1.02373 1.09747
 Mn90 Mn 0.50949 0.92394 1.01756
 Cl91 Cl 0.49978 1.01337 1.00671
 C92 C 0.39897 0.91586 1.12918
 C93 C 0.62484 0.93381 1.11980
 N94 N -0.07830 0.45011 0.04279
 N95 N -0.10353 0.40815 0.05434
 N96 N -0.04967 0.56598 0.06215
 N97 N -0.06139 0.60754 0.08787
 N98 N -0.08457 0.55632 0.02838
 N99 N -0.12011 0.59144 0.02913
 N100 N -0.04755 0.46100 0.08021
 N101 N -0.05055 0.42706 0.11751
 C102 C -0.08542 0.39465 0.10141
 C103 C -0.10522 0.62294 0.06606
 N104 N 0.09899 0.55523 0.03375
 N105 N 0.13282 0.59107 0.03399
 N106 N 0.05857 0.46019 0.08379
 N107 N 0.05490 0.42229 0.11687
 N108 N 0.09242 0.44975 0.04829
 N109 N 0.11298 0.40448 0.05674
 N110 N 0.06180 0.56541 0.06574
 N111 N 0.07030 0.60831 0.09002
 Mn112 Mn 0.00581 0.51429 0.07342
 C113 C 0.11475 0.62359 0.06908
 C114 C 0.08937 0.38851 0.10023
 N115 N -0.07931 0.54735 -0.07978
 N116 N -0.10487 0.59068 -0.08072
 N117 N -0.03856 0.44369 -0.10687
 N118 N -0.03865 0.40375 -0.13626
 N119 N -0.07323 0.44021 -0.07074
 N120 N -0.09863 0.39747 -0.07532
 N121 N -0.04025 0.54999 -0.11124
 N122 N -0.03819 0.59518 -0.13347
 Mn123 Mn -0.07962 0.49740 -0.01988
 C124 C -0.07945 0.61957 -0.11500
 C125 C -0.07599 0.37554 -0.11662
 N126 N 0.09735 0.43846 -0.06308
 N127 N 0.11802 0.39295 -0.05866
 N128 N 0.07026 0.54852 -0.10850
 N129 N 0.08271 0.58432 -0.14254
 N130 N 0.10487 0.54401 -0.07318
 N131 N 0.14153 0.57610 -0.08167
 N132 N 0.06748 0.44093 -0.10293
 N133 N 0.06741 0.39696 -0.12683
 Mn134 Mn 0.09881 0.49603 -0.01340
 Mn135 Mn 0.01458 0.49667 -0.10810
 Cl136 Cl 0.00981 0.50115 -0.01695
 C137 C 0.09969 0.36792 -0.09924
 C138 C 0.12726 0.60109 -0.12454
 N139 N 1.04456 0.08070 0.54335
 N140 N 1.05395 0.11787 0.57588
 N141 N 1.07974 0.03324 0.43735
 N142 N 1.10460 0.03065 0.39314
 N143 N 1.04394 0.06809 0.43514
 N144 N 1.04288 0.08923 0.38908
 N145 N 1.08158 0.04719 0.54376
 N146 N 1.11663 0.06017 0.57600
 C147 C 1.09901 0.10364 0.59626
 C148 C 1.08148 0.06653 0.36394
 N149 N 1.05267 -0.11267 0.46338
 N150 N 1.05589 -0.14792 0.42834
 N151 N 1.08593 -0.05948 0.56138
 N152 N 1.11233 -0.05297 0.60329
 N153 N 1.05275 -0.09537 0.56883
 N154 N 1.05669 -0.11539 0.61543
 N155 N 1.08482 -0.07626 0.45391
 N156 N 1.11123 -0.08608 0.41171
 Mn157 Mn 1.08363 -0.01392 0.49861
 C158 C 1.09267 -0.13127 0.39688
 C159 C 1.09432 -0.08872 0.63600
 N160 N 0.93600 0.06439 0.43541
 N161 N 0.92544 0.09381 0.39515
 N162 N 0.90015 0.03913 0.54368
 N163 N 0.86316 0.04847 0.57584
 N164 N 0.93337 0.07564 0.54351
 N165 N 0.91949 0.11125 0.57657
 N166 N 0.90499 0.02591 0.43811
 N167 N 0.87228 0.02840 0.40046
 Mn168 Mn 0.98956 0.07320 0.48987
 C169 C 0.88582 0.07048 0.37373
 C170 C 0.87560 0.09287 0.59629
 N171 N 0.94448 -0.09885 0.56963
 N172 N 0.94760 -0.11238 0.61829
 N173 N 0.91110 -0.08313 0.45496
 N174 N 0.88588 -0.09452 0.41329
 N175 N 0.94646 -0.11709 0.46388
 N176 N 0.94651 -0.15252 0.42879
 N177 N 0.90677 -0.06690 0.56256
 N178 N 0.88327 -0.05821 0.60670
 Mn179 Mn 0.99900 -0.10633 0.51684
 Mn180 Mn 0.90535 -0.02151 0.49931
 Cl181 Cl 0.99442 -0.01683 0.50113
 C182 C 0.90869 -0.08777 0.64056
 C183 C 0.90841 -0.13820 0.39801
 N184 N 1.05126 0.08291 0.27910
 N185 N 1.06739 0.10330 0.23555
 C186 C 1.11779 0.10680 0.23862
 C187 C 1.13233 0.08686 0.28582
 N188 N 1.08932 0.07321 0.31001
 H189 H 1.16856 0.09025 0.30390
 N190 N 0.92296 -0.20379 0.33517
 N191 N 0.90600 -0.21796 0.29006
 C192 C 0.86857 -0.18526 0.27772
 C193 C 0.86290 -0.15061 0.31662
 N194 N 0.89751 -0.16365 0.35161
 H195 H 0.83671 -0.11897 0.31911
 N196 N 0.79777 0.09987 0.64256
 N197 N 0.77928 0.11818 0.68577
 C198 C 0.81557 0.14661 0.70590
 C199 C 0.85702 0.14594 0.67312
 N200 N 0.84414 0.11591 0.63422
 H201 H 0.89376 0.16195 0.67901
 N202 N 1.12317 -0.05284 0.71509
 N203 N 1.13973 -0.06794 0.76051
 C204 C 1.13517 -0.11882 0.76287
 C205 C 1.11486 -0.13458 0.71724
 N206 N 1.10835 -0.09220 0.68859
 H207 H 1.11014 -0.17302 0.70421
 N208 N 0.33707 1.19871 1.12273
 N209 N 0.29311 1.21510 1.13994
 C210 C 0.27004 1.17512 1.16225
 C211 C 0.30204 1.13334 1.15909
 N212 N 0.34316 1.14993 1.13344
 H213 H 0.29360 1.09411 1.16794
 N214 N 0.30570 0.93719 0.91065
 N215 N 0.26234 0.92330 0.89152
 C216 C 0.26428 0.87249 0.88700
 C217 C 0.31051 0.85534 0.90498
 N218 N 0.33520 0.89728 0.91905
 H219 H 0.32669 0.81762 0.90210
 N220 N 0.68471 0.93980 1.18863
 N221 N 0.72495 0.91592 1.20662
 C222 C 0.73496 0.87726 1.17462
 C223 C 0.69948 0.87808 1.13621
 N224 N 0.66885 0.91766 1.14663
 H225 H 0.69573 0.85224 1.10458
 N226 N 0.67204 1.17393 0.92455
 N227 N 0.71476 1.19220 0.90644
 C228 C 0.72310 1.17000 0.86090
 C229 C 0.68424 1.13677 0.85172
 N230 N 0.65326 1.14066 0.89258
 H231 H 0.67833 1.11354 0.81843
 N232 N 0.05205 0.31664 0.14343
 N233 N 0.06405 0.27034 0.15939
 C234 C 0.11217 0.26214 0.14489
 C235 C 0.12946 0.30474 0.11918
 N236 N 0.09070 0.33775 0.11941
 H237 H 0.16682 0.31194 0.10414
 N238 N -0.05569 0.30448 -0.16986
 N239 N -0.07655 0.26381 -0.18900
 C240 C -0.12238 0.26027 -0.16707
 C241 C -0.12911 0.30004 -0.13340
 N242 N -0.08650 0.32680 -0.13670
 H243 H -0.16266 0.31059 -0.11205
 N244 N 0.20716 0.63951 -0.14196
 N245 N 0.22579 0.68487 -0.15201
 C246 C 0.18667 0.71537 -0.16413
 C247 C 0.14313 0.68698 -0.16153
 N248 N 0.15775 0.63974 -0.14749
 H249 H 0.10466 0.70071 -0.16320
 N250 N -0.17296 0.68395 0.05377
 N251 N -0.19338 0.72402 0.07626
 C252 C -0.16586 0.73258 0.11829
 C253 C -0.12766 0.69667 0.12085
 N254 N -0.13359 0.66710 0.07988
 H255 H -0.09925 0.69183 0.15001
 N256 N 1.17840 0.12514 0.63097
 N257 N 1.19783 0.13946 0.67473
 C258 C 1.15973 0.15698 0.70411
 C259 C 1.11546 0.15308 0.67617
 N260 N 1.12908 0.13224 0.63076
 H261 H 1.07729 0.15696 0.69047
 N262 N 0.94306 -0.08941 0.72512
 N263 N 0.92875 -0.10197 0.77218
 C264 C 0.87823 -0.10521 0.77188
 C265 C 0.86176 -0.09308 0.72293
 N266 N 0.90367 -0.08454 0.69489
 H267 H 0.82477 -0.09919 0.70737
 N268 N 1.07760 -0.19346 0.33197
 N269 N 1.09667 -0.20959 0.28800
 C270 C 1.13764 -0.18143 0.27815
 C271 C 1.14314 -0.14717 0.31738
 N272 N 1.10484 -0.15618 0.35008
 H273 H 1.17193 -0.11895 0.32188
 N274 N 0.81742 0.06680 0.31366
 N275 N 0.79846 0.09184 0.27390
 C276 C 0.82851 0.13173 0.26420
 C277 C 0.86710 0.13027 0.29984
 N278 N 0.85846 0.08905 0.32996
 H279 H 0.89773 0.15651 0.30381
 N280 N 0.11794 0.28435 -0.06595
 N281 N 0.12811 0.23817 -0.08216
 C282 C 0.12208 0.23846 -0.13355
 C283 C 0.10677 0.28696 -0.14847
 N284 N 0.10570 0.31436 -0.10495
 H285 H 0.10289 0.30215 -0.18705
 N286 N -0.06911 0.33325 0.16920
 N287 N -0.08770 0.29133 0.19006
 C288 C -0.12878 0.28005 0.16298
 C289 C -0.13461 0.31649 0.12426
 N290 N -0.09651 0.34898 0.12975
 H291 H -0.16396 0.31964 0.09588
 N292 N -0.04839 0.70367 -0.13079
 N293 N -0.06471 0.75092 -0.13518
 C294 C -0.11482 0.75089 -0.12627
 C295 C -0.12880 0.70132 -0.11537
 N296 N -0.08610 0.67325 -0.11960
 H297 H -0.16626 0.68662 -0.10951
 N298 N 0.18063 0.68445 0.05505
 N299 N 0.20131 0.72357 0.07755
 C300 C 0.17387 0.73243 0.12025
 C301 C 0.13532 0.69771 0.12320
 N302 N 0.14113 0.66847 0.08174
 H303 H 0.10755 0.69270 0.15346
 N304 N 0.28132 1.08009 0.92876
 N305 N 0.23663 1.09374 0.91134
 C306 C 0.24264 1.10615 0.86130
 C307 C 0.29287 1.09959 0.84843
 N308 N 0.31550 1.08327 0.89172
 H309 H 0.31185 1.11135 0.81337
 N310 N 0.34340 0.91610 1.20252
 N311 N 0.30141 0.89523 1.21942
 C312 C 0.28795 0.86144 1.18400
 C313 C 0.32339 0.86181 1.14466
 N314 N 0.35727 0.89662 1.15797
 H315 H 0.32357 0.84056 1.10941
 N316 N 0.66362 1.20501 1.07136
 N317 N 0.70719 1.22092 1.08864
 C318 C 0.72013 1.18936 1.12755
 C319 C 0.68305 1.15354 1.13384
 N320 N 0.64854 1.16482 1.09802
 H321 H 0.68143 1.12240 1.16130
 N322 N 0.65104 0.86982 0.82607
 N323 N 0.69304 0.84919 0.80795
 C324 C 0.72261 0.83827 0.84843
 C325 C 0.69712 0.85365 0.89244
 N326 N 0.65266 0.87304 0.87661
 H327 H 0.71196 0.85663 0.93079
   
