data_POSCAR
  _audit_creation_date              2014-09-24
  _audit_creation_method            'ToBaCCo'
  _symmetry_space_group_name_H-M    'P1'
  _symmetry_Int_Tables_number       1
  _symmetry_cell_setting            triclinic
  loop_
  _symmetry_equiv_pos_as_xyz
 x,y,z
_cell_length_a 42.7050
_cell_length_b 42.7130
_cell_length_c 42.7023
_cell_angle_alpha 90.003800
_cell_angle_beta 89.988900
_cell_angle_gamma 89.956600
loop_
  _atom_site_label
  _atom_site_type_symbol
  _atom_site_fract_x
  _atom_site_fract_y
  _atom_site_fract_z
C1 C 0.20352 0.18850 0.23395
 C2 C 0.17818 0.19368 0.25422
 C3 C 0.15790 0.21898 0.24921
 C4 C 0.16277 0.23930 0.22393
 C5 C 0.18799 0.23447 0.20344
 C6 C 0.20849 0.20896 0.20843
 C7 C 0.22397 0.16324 0.23873
 C8 C 0.24920 0.15829 0.21835
 C9 C 0.25418 0.17853 0.19302
 C10 C 0.23396 0.20392 0.18789
 C11 C 0.23871 0.22435 0.16261
 C12 C 0.21835 0.24961 0.15772
 C13 C 0.19309 0.25466 0.17805
 H14 H 0.17420 0.17808 0.27386
 H15 H 0.14692 0.25882 0.22027
 H16 H 0.22032 0.14742 0.25827
 H17 H 0.27379 0.17449 0.17737
 H18 H 0.25820 0.22065 0.14674
 H19 H 0.17746 0.27429 0.17405
 C20 C 0.70337 0.68791 0.73351
 C21 C 0.67798 0.69297 0.75374
 C22 C 0.65762 0.71820 0.74876
 C23 C 0.66245 0.73859 0.72352
 C24 C 0.68772 0.73388 0.70305
 C25 C 0.70830 0.70844 0.70802
 C26 C 0.72391 0.66272 0.73828
 C27 C 0.74919 0.65790 0.71793
 C28 C 0.75414 0.67820 0.69265
 C29 C 0.73382 0.70352 0.68752
 C30 C 0.73855 0.72401 0.66229
 C31 C 0.71811 0.74921 0.65741
 C32 C 0.69280 0.75414 0.67769
 H33 H 0.67403 0.67733 0.77336
 H34 H 0.64654 0.75806 0.71987
 H35 H 0.72029 0.64686 0.75778
 H36 H 0.77378 0.67426 0.67703
 H37 H 0.75808 0.72041 0.64645
 H38 H 0.67711 0.77372 0.67371
 C39 C 0.29544 0.81223 0.73448
 C40 C 0.32074 0.80703 0.75478
 C41 C 0.34097 0.78167 0.74985
 C42 C 0.33608 0.76131 0.72461
 C43 C 0.31090 0.76616 0.70408
 C44 C 0.29046 0.79173 0.70899
 C45 C 0.27505 0.83756 0.73919
 C46 C 0.24985 0.84256 0.71874
 C47 C 0.24487 0.82224 0.69345
 C48 C 0.26504 0.79679 0.68841
 C49 C 0.26029 0.77632 0.66316
 C50 C 0.28059 0.75100 0.65835
 C51 C 0.30580 0.74593 0.67871
 H52 H 0.32475 0.82266 0.77440
 H53 H 0.35189 0.74174 0.72099
 H54 H 0.27878 0.85338 0.75873
 H55 H 0.22532 0.82623 0.67770
 H56 H 0.24084 0.78004 0.64725
 H57 H 0.32139 0.72625 0.67477
 C58 C 0.79709 0.31190 0.23408
 C59 C 0.82240 0.30690 0.25442
 C60 C 0.84279 0.28162 0.24960
 C61 C 0.83801 0.26114 0.22438
 C62 C 0.81281 0.26581 0.20382
 C63 C 0.79224 0.29129 0.20865
 C64 C 0.77655 0.33712 0.23870
 C65 C 0.75136 0.34189 0.21824
 C66 C 0.74648 0.32151 0.19301
 C67 C 0.76680 0.29616 0.18805
 C68 C 0.76214 0.27559 0.16286
 C69 C 0.78257 0.25036 0.15813
 C70 C 0.80781 0.24547 0.17851
 H71 H 0.82622 0.32267 0.27398
 H72 H 0.85388 0.24161 0.22077
 H73 H 0.78011 0.35305 0.25816
 H74 H 0.72690 0.32541 0.17731
 H75 H 0.74268 0.27916 0.14695
 H76 H 0.82349 0.22586 0.17464
 C77 C 0.79728 0.68840 0.26518
 C78 C 0.82268 0.69336 0.24495
 C79 C 0.84302 0.71864 0.24984
 C80 C 0.83808 0.73916 0.27500
 C81 C 0.81278 0.73453 0.29545
 C82 C 0.79226 0.70905 0.29055
 C83 C 0.77678 0.66317 0.26050
 C84 C 0.75149 0.65844 0.28085
 C85 C 0.74646 0.67887 0.30601
 C86 C 0.76672 0.70422 0.31104
 C87 C 0.76191 0.72482 0.33616
 C88 C 0.78228 0.75005 0.34097
 C89 C 0.80762 0.75490 0.32070
 H90 H 0.82663 0.67756 0.22543
 H91 H 0.85390 0.75869 0.27866
 H92 H 0.78046 0.64721 0.24109
 H93 H 0.72681 0.67500 0.32163
 H94 H 0.74236 0.72127 0.35200
 H95 H 0.82326 0.77451 0.32464
 C96 C 0.29723 0.18862 -0.23447
 C97 C 0.32268 0.19364 -0.25462
 C98 C 0.34292 0.21900 -0.24969
 C99 C 0.33783 0.23952 -0.22457
 C100 C 0.31248 0.23483 -0.20420
 C101 C 0.29206 0.20928 -0.20914
 C102 C 0.27683 0.16331 -0.23919
 C103 C 0.25149 0.15852 -0.21891
 C104 C 0.24632 0.17896 -0.19378
 C105 C 0.26648 0.20438 -0.18872
 C106 C 0.26153 0.22499 -0.16362
 C107 C 0.28181 0.25029 -0.15878
 C108 C 0.30718 0.25520 -0.17898
 H109 H 0.32675 0.17784 -0.27411
 H110 H 0.35358 0.25910 -0.22088
 H111 H 0.28063 0.14734 -0.25857
 H112 H 0.22663 0.17503 -0.17822
 H113 H 0.24195 0.22138 -0.14784
 H114 H 0.32275 0.27486 -0.17501
 C115 C 0.70316 0.31126 -0.23410
 C116 C 0.67777 0.30620 -0.25432
 C117 C 0.65749 0.28088 -0.24937
 C118 C 0.66247 0.26044 -0.22417
 C119 C 0.68775 0.26516 -0.20374
 C120 C 0.70822 0.29068 -0.20869
 C121 C 0.72360 0.33653 -0.23883
 C122 C 0.74888 0.34135 -0.21850
 C123 C 0.75394 0.32099 -0.19329
 C124 C 0.73374 0.29561 -0.18822
 C125 C 0.73859 0.27507 -0.16305
 C126 C 0.71827 0.24980 -0.15819
 C127 C 0.69295 0.24485 -0.17845
 H128 H 0.67379 0.32195 -0.27387
 H129 H 0.64669 0.24088 -0.22047
 H130 H 0.71990 0.35244 -0.25828
 H131 H 0.77359 0.32493 -0.17769
 H132 H 0.75812 0.27869 -0.14723
 H133 H 0.67736 0.22522 -0.17448
 C134 C 0.20393 0.81232 0.26532
 C135 C 0.17863 0.80715 0.24501
 C136 C 0.15840 0.78182 0.24994
 C137 C 0.16329 0.76145 0.27518
 C138 C 0.18846 0.76627 0.29571
 C139 C 0.20891 0.79181 0.29080
 C140 C 0.22433 0.83762 0.26062
 C141 C 0.24953 0.84256 0.28107
 C142 C 0.25450 0.82223 0.30636
 C143 C 0.23432 0.79683 0.31139
 C144 C 0.23907 0.77634 0.33663
 C145 C 0.21877 0.75105 0.34144
 C146 C 0.19356 0.74602 0.32107
 H147 H 0.17463 0.82279 0.22539
 H148 H 0.14749 0.74191 0.27879
 H149 H 0.22061 0.85344 0.24108
 H150 H 0.27405 0.82618 0.32211
 H151 H 0.25852 0.78003 0.35255
 H152 H 0.17797 0.72637 0.32500
 C153 C 0.43867 0.45371 0.48459
 C154 C 0.44379 0.42838 0.50486
 C155 C 0.46910 0.40808 0.49991
 C156 C 0.48950 0.41295 0.47468
 C157 C 0.48473 0.43817 0.45418
 C158 C 0.45921 0.45868 0.45912
 C159 C 0.41339 0.47418 0.48931
 C160 C 0.40851 0.49939 0.46891
 C161 C 0.42883 0.50437 0.44364
 C162 C 0.45422 0.48414 0.43858
 C163 C 0.47471 0.48889 0.41334
 C164 C 0.49999 0.46853 0.40850
 C165 C 0.50499 0.44327 0.42882
 H166 H 0.42813 0.42440 0.52446
 H167 H 0.50902 0.39710 0.47106
 H168 H 0.39752 0.47053 0.50880
 H169 H 0.42483 0.52396 0.42798
 H170 H 0.47105 0.50837 0.39747
 H171 H 0.52463 0.42764 0.42486
 C172 C -0.06218 -0.04656 0.98382
 C173 C -0.05720 -0.07205 1.00393
 C174 C -0.03193 -0.09238 0.99892
 C175 C -0.01145 -0.08741 0.97379
 C176 C -0.01608 -0.06204 0.95345
 C177 C -0.04155 -0.04148 0.95844
 C178 C -0.08741 -0.02605 0.98861
 C179 C -0.09217 -0.00065 0.96837
 C180 C -0.07172 0.00442 0.94319
 C181 C -0.04638 -0.01586 0.93806
 C182 C -0.02578 -0.01101 0.91293
 C183 C -0.00056 -0.03142 0.90804
 C184 C 0.00428 -0.05683 0.92820
 H185 H -0.07292 -0.07611 1.02346
 H186 H 0.00805 -0.10328 0.97012
 H187 H -0.10332 -0.02985 1.00807
 H188 H -0.07553 0.02413 0.92760
 H189 H -0.02933 0.00859 0.89718
 H190 H 0.02388 -0.07250 0.92420
 C191 C 1.06175 0.54620 0.98491
 C192 C 1.05662 0.57154 1.00519
 C193 C 1.03126 0.59183 1.00027
 C194 C 1.01085 0.58691 0.97504
 C195 C 1.01565 0.56168 0.95454
 C196 C 1.04120 0.54121 0.95946
 C197 C 1.08706 0.52577 0.98961
 C198 C 1.09198 0.50053 0.96919
 C199 C 1.07162 0.49555 0.94393
 C200 C 1.04620 0.51576 0.93891
 C201 C 1.02570 0.51099 0.91369
 C202 C 1.00040 0.53132 0.90887
 C203 C 0.99538 0.55656 0.92921
 H204 H 1.07234 0.57548 1.02476
 H205 H 0.99127 0.60270 0.97136
 H206 H 1.10291 0.52950 1.00911
 H207 H 1.07556 0.47598 0.92820
 H208 H 1.02938 0.49151 0.89780
 H209 H 0.97572 0.57217 0.92526
 C210 C 0.56210 0.04571 0.48466
 C211 C 0.55707 0.07106 0.50496
 C212 C 0.53171 0.09132 0.50016
 C213 C 0.51118 0.08642 0.47505
 C214 C 0.51585 0.06120 0.45453
 C215 C 0.54142 0.04072 0.45932
 C216 C 0.58742 0.02528 0.48925
 C217 C 0.59224 0.00003 0.46881
 C218 C 0.57175 -0.00496 0.44366
 C219 C 0.54631 0.01526 0.43875
 C220 C 0.52568 0.01049 0.41364
 C221 C 0.50036 0.03083 0.40895
 C222 C 0.49545 0.05608 0.42930
 H223 H 0.57283 0.07506 0.52447
 H224 H 0.49162 0.10225 0.47154
 H225 H 0.60337 0.02902 0.50868
 H226 H 0.57561 -0.02454 0.42792
 H227 H 0.52927 -0.00899 0.39773
 H228 H 0.47578 0.07170 0.42546
 C229 C -0.06214 0.04711 0.51616
 C230 C -0.05712 0.07252 0.49597
 C231 C -0.03184 0.09280 0.50092
 C232 C -0.01138 0.08786 0.52608
 C233 C -0.01605 0.06257 0.54650
 C234 C -0.04154 0.04207 0.54156
 C235 C -0.08738 0.02665 0.51143
 C236 C -0.09216 0.00135 0.53174
 C237 C -0.07178 -0.00371 0.55693
 C238 C -0.04642 0.01652 0.56202
 C239 C -0.02585 0.01169 0.58717
 C240 C -0.00060 0.03204 0.59201
 C241 C 0.00429 0.05738 0.57177
 H242 H -0.07283 0.07656 0.47642
 H243 H 0.00813 0.10370 0.52970
 H244 H -0.10330 0.03036 0.49199
 H245 H -0.07569 -0.02338 0.57252
 H246 H -0.02942 -0.00786 0.60298
 H247 H 0.02391 0.07300 0.57573
 C248 C 0.43805 0.54706 0.01556
 C249 C 0.44319 0.57236 -0.00475
 C250 C 0.46856 0.59259 0.00014
 C251 C 0.48896 0.58767 0.02538
 C252 C 0.48415 0.56248 0.04591
 C253 C 0.45859 0.54206 0.04102
 C254 C 0.41274 0.52668 0.01088
 C255 C 0.40782 0.50149 0.03131
 C256 C 0.42814 0.49648 0.05657
 C257 C 0.45357 0.51664 0.06159
 C258 C 0.47407 0.51184 0.08681
 C259 C 0.49938 0.53212 0.09160
 C260 C 0.50442 0.55734 0.07125
 H261 H 0.42747 0.57630 -0.02433
 H262 H 0.50856 0.60342 0.02904
 H263 H 0.39686 0.53034 -0.00860
 H264 H 0.42412 0.47691 0.07224
 H265 H 0.47038 0.49239 0.10271
 H266 H 0.52409 0.57290 0.07517
 C267 C 0.56229 -0.04703 0.01663
 C268 C 0.55714 -0.07233 -0.00366
 C269 C 0.53181 -0.09256 0.00127
 C270 C 0.51143 -0.08767 0.02650
 C271 C 0.51622 -0.06249 0.04703
 C272 C 0.54176 -0.04204 0.04211
 C273 C 0.58757 -0.02662 0.01192
 C274 C 0.59247 -0.00142 0.03234
 C275 C 0.57216 0.00358 0.05762
 C276 C 0.54676 -0.01660 0.06268
 C277 C 0.52626 -0.01182 0.08791
 C278 C 0.50096 -0.03213 0.09272
 C279 C 0.49596 -0.05736 0.07238
 H280 H 0.57279 -0.07633 -0.02328
 H281 H 0.49188 -0.10347 0.03011
 H282 H 0.60343 -0.03028 -0.00758
 H283 H 0.57617 0.02316 0.07328
 H284 H 0.52992 0.00764 0.10380
 H285 H 0.47630 -0.07294 0.07631
 C286 C 1.06139 0.45351 0.51508
 C287 C 1.05620 0.42828 0.49470
 C288 C 1.03093 0.40794 0.49968
 C289 C 1.01067 0.41270 0.52508
 C290 C 1.01553 0.43782 0.54568
 C291 C 1.04099 0.45834 0.54070
 C292 C 1.08661 0.47400 0.51032
 C293 C 1.09158 0.49911 0.53083
 C294 C 1.07140 0.50395 0.55624
 C295 C 1.04606 0.48370 0.56134
 C296 C 1.02571 0.48832 0.58672
 C297 C 1.00050 0.46794 0.59160
 C298 C 0.99541 0.44279 0.57117
 H299 H 1.07180 0.42446 0.47500
 H300 H 0.99116 0.39687 0.52882
 H301 H 1.10238 0.47046 0.49072
 H302 H 1.07545 0.52347 0.57198
 H303 H 1.02944 0.50773 0.60267
 H304 H 0.97581 0.42715 0.57517
 C305 C 0.42262 0.01416 0.20876
 H306 H 0.42383 0.03534 0.22260
 C307 C 0.44321 0.00978 0.18373
 H308 H 0.46029 0.02767 0.17814
 C309 C 0.39919 -0.03529 0.19935
 H310 H 0.38238 -0.05302 0.20578
 C311 C 0.41936 -0.04061 0.17413
 H312 H 0.41778 -0.06228 0.16103
 N313 N 0.40094 -0.00808 0.21585
 C314 C 0.32662 0.04188 0.26511
 H315 H 0.32522 0.02813 0.28634
 C316 C 0.30628 0.06709 0.26060
 H317 H 0.28920 0.07292 0.27844
 C318 C 0.35025 0.05087 0.21564
 H319 H 0.36704 0.04419 0.19795
 C320 C 0.33034 0.07626 0.21020
 H321 H 0.33209 0.08924 0.18847
 Zn322 Zn 0.37444 -0.00050 0.25060
 N323 N 0.34829 0.03448 0.24292
 C324 C 0.39886 0.03419 0.30204
 N325 N 0.40060 0.00692 0.28562
 C326 C 0.42210 -0.01545 0.29294
 C327 C 0.44253 -0.01112 0.31810
 C328 C 0.41887 0.03946 0.32738
 C329 C 0.32654 -0.04251 0.23552
 C330 C 0.30604 -0.06762 0.23974
 C331 C 0.32952 -0.07706 0.29037
 C332 C 0.34960 -0.05178 0.28520
 N333 N 0.34801 -0.03531 0.25795
 H334 H 0.38220 0.05202 0.29542
 H335 H 0.42332 -0.03667 0.27916
 H336 H 0.45950 -0.02909 0.32385
 H337 H 0.41733 0.06119 0.34037
 H338 H 0.32544 -0.02870 0.21431
 H339 H 0.28914 -0.07330 0.22171
 H340 H 0.33098 -0.09013 0.31206
 H341 H 0.36624 -0.04526 0.30307
 C342 C 0.30823 0.08447 0.23292
 C343 C 0.44148 -0.01783 0.16622
 C344 C 0.30762 -0.08509 0.26739
 C345 C 0.44084 0.01656 0.33549
 C346 C 0.07770 -0.01454 0.70791
 H347 H 0.07645 -0.03575 0.72171
 C348 C 0.05718 -0.01012 0.68284
 H349 H 0.04011 -0.02799 0.67718
 C350 C 0.10113 0.03494 0.69866
 H351 H 0.11792 0.05267 0.70519
 C352 C 0.08104 0.04031 0.67341
 H353 H 0.08263 0.06201 0.66038
 N354 N 0.09935 0.00769 0.71511
 C355 C 0.17349 -0.04219 0.76469
 H356 H 0.17480 -0.02840 0.78590
 C357 C 0.19385 -0.06742 0.76031
 H358 H 0.21085 -0.07321 0.77823
 C359 C 0.15006 -0.05130 0.71515
 H360 H 0.13333 -0.04467 0.69740
 C361 C 0.16999 -0.07671 0.70984
 H362 H 0.16833 -0.08975 0.68815
 Zn363 Zn 0.12570 0.00011 0.74996
 N364 N 0.15191 -0.03486 0.74241
 C365 C 0.10109 -0.03460 0.80129
 N366 N 0.09940 -0.00732 0.78488
 C367 C 0.07786 0.01503 0.79215
 C368 C 0.05735 0.01068 0.81725
 C369 C 0.08101 -0.03989 0.82656
 C370 C 0.17364 0.04214 0.73507
 C371 C 0.19410 0.06726 0.73937
 C372 C 0.17040 0.07671 0.78990
 C373 C 0.15036 0.05141 0.78467
 N374 N 0.15208 0.03494 0.75742
 H375 H 0.11779 -0.05242 0.79471
 H376 H 0.07668 0.03626 0.77838
 H377 H 0.04036 0.02865 0.82296
 H378 H 0.08252 -0.06162 0.83956
 H379 H 0.17484 0.02833 0.71387
 H380 H 0.21108 0.07295 0.72140
 H381 H 0.16884 0.08978 0.81159
 H382 H 0.13365 0.04488 0.80247
 C383 C 0.19200 -0.08487 0.73267
 C384 C 0.05893 0.01754 0.66541
 C385 C 0.19239 0.08474 0.76701
 C386 C 0.05900 -0.01700 0.83463
 C387 C 0.57744 0.48558 0.20770
 H388 H 0.57622 0.46434 0.22145
 C389 C 0.55696 0.49000 0.18259
 H390 H 0.53995 0.47209 0.17686
 C391 C 0.60077 0.53514 0.19859
 H392 H 0.61750 0.55289 0.20517
 C393 C 0.58071 0.54050 0.17330
 H394 H 0.58228 0.56222 0.16031
 N395 N 0.59903 0.50785 0.21497
 C396 C 0.67336 0.45814 0.26442
 H397 H 0.67465 0.47195 0.28562
 C398 C 0.69381 0.43300 0.26002
 H399 H 0.71087 0.42730 0.27790
 C400 C 0.64987 0.44891 0.21493
 H401 H 0.63309 0.45546 0.19720
 C402 C 0.66991 0.42359 0.20959
 H403 H 0.66826 0.41053 0.18790
 Zn404 Zn 0.62542 0.50026 0.24979
 N405 N 0.65171 0.46537 0.24217
 C406 C 0.60103 0.46541 0.30112
 N407 N 0.59922 0.49272 0.28477
 C408 C 0.57768 0.51502 0.29218
 C409 C 0.55732 0.51061 0.31739
 C410 C 0.58109 0.46006 0.32650
 C411 C 0.67330 0.54231 0.23487
 C412 C 0.69379 0.56740 0.23916
 C413 C 0.67017 0.57685 0.28973
 C414 C 0.65009 0.55157 0.28450
 N415 N 0.65177 0.53511 0.25724
 H416 H 0.61772 0.44763 0.29443
 H417 H 0.57640 0.53628 0.27845
 H418 H 0.54034 0.52854 0.32322
 H419 H 0.58272 0.43831 0.33946
 H420 H 0.67446 0.52850 0.21366
 H421 H 0.71076 0.57307 0.22117
 H422 H 0.66865 0.58990 0.31143
 H423 H 0.63340 0.54505 0.30233
 C424 C 0.69200 0.41554 0.23238
 C425 C 0.55868 0.51768 0.16521
 C426 C 0.69214 0.58486 0.26681
 C427 C 0.55911 0.48290 0.33473
 C428 C 0.92294 0.51412 0.70818
 H429 H 0.92420 0.53534 0.72195
 C430 C 0.94336 0.50971 0.68301
 H431 H 0.96038 0.52761 0.67726
 C432 C 0.89952 0.46461 0.69902
 H433 H 0.88276 0.44688 0.70560
 C434 C 0.91952 0.45926 0.67368
 H435 H 0.91788 0.43757 0.66064
 N436 N 0.90132 0.49187 0.71544
 C437 C 0.82705 0.54183 0.76475
 H438 H 0.82572 0.52811 0.78601
 C439 C 0.80663 0.56698 0.76023
 H440 H 0.78956 0.57278 0.77808
 C441 C 0.85057 0.55079 0.71522
 H442 H 0.86734 0.54412 0.69751
 C443 C 0.83058 0.57611 0.70976
 H444 H 0.83225 0.58906 0.68801
 Zn445 Zn 0.87492 0.49953 0.75025
 N446 N 0.84869 0.53445 0.74253
 C447 C 0.89933 0.53442 0.80155
 N448 N 0.90111 0.50710 0.78521
 C449 C 0.92263 0.48478 0.79264
 C450 C 0.94300 0.48919 0.81783
 C451 C 0.91928 0.53978 0.82691
 C452 C 0.82700 0.45751 0.73538
 C453 C 0.80650 0.43242 0.73970
 C454 C 0.83010 0.42304 0.79028
 C455 C 0.85018 0.44831 0.78502
 N456 N 0.84853 0.46473 0.75774
 H457 H 0.88266 0.55221 0.79485
 H458 H 0.92389 0.46351 0.77893
 H459 H 0.95996 0.47125 0.82367
 H460 H 0.91768 0.56154 0.83985
 H461 H 0.82585 0.47128 0.71415
 H462 H 0.78955 0.42672 0.72171
 H463 H 0.83161 0.41001 0.81199
 H464 H 0.86687 0.45485 0.80284
 C465 C 0.80848 0.58430 0.73251
 C466 C 0.94155 0.48207 0.66557
 C467 C 0.80814 0.41500 0.76737
 C468 C 0.94124 0.51692 0.83515
 C469 C 0.20711 0.42366 0.01471
 H470 H 0.22093 0.42482 0.03591
 C471 C 0.18191 0.44410 0.01049
 H472 H 0.17619 0.46100 0.02853
 C473 C 0.19791 0.40056 -0.03496
 H474 H 0.20449 0.38393 -0.05283
 C475 C 0.17254 0.42057 -0.04012
 H476 H 0.15948 0.41908 -0.06181
 N477 N 0.21438 0.40221 -0.00771
 C478 C 0.26432 0.32786 0.04151
 H479 H 0.28551 0.32672 0.02767
 C480 C 0.26005 0.30730 0.06658
 H481 H 0.27804 0.29031 0.07219
 C482 C 0.21471 0.35107 0.05089
 H483 H 0.19688 0.36780 0.04443
 C484 C 0.20951 0.33094 0.07613
 H485 H 0.18782 0.33244 0.08922
 Zn486 Zn 0.24936 0.37593 -0.00037
 N487 N 0.24195 0.34943 0.03439
 C488 C 0.30066 0.40036 0.03449
 N489 N 0.28418 0.40226 0.00726
 C490 C 0.29138 0.42395 -0.01495
 C491 C 0.31652 0.44437 -0.01053
 C492 C 0.32598 0.42035 0.03984
 C493 C 0.23474 0.32823 -0.04281
 C494 C 0.23925 0.30785 -0.06798
 C495 C 0.28972 0.33173 -0.07711
 C496 C 0.28427 0.35169 -0.05176
 N497 N 0.25696 0.34982 -0.03541
 H498 H 0.29414 0.38354 0.05219
 H499 H 0.27756 0.42529 -0.03614
 H500 H 0.32220 0.46145 -0.02840
 H501 H 0.33906 0.41865 0.06151
 H502 H 0.21349 0.32691 -0.02908
 H503 H 0.22139 0.29081 -0.07379
 H504 H 0.31148 0.33338 -0.09006
 H505 H 0.30199 0.36841 -0.04508
 C506 C 0.23242 0.30893 0.08408
 C507 C 0.16445 0.44247 -0.01714
 C508 C 0.26697 0.30968 -0.08531
 C509 C 0.33401 0.44247 0.01708
 C510 C 0.70868 0.07620 -0.01434
 H511 H 0.72238 0.07490 -0.03562
 C512 C 0.68355 0.05579 -0.00983
 H513 H 0.67775 0.03876 -0.02771
 C514 C 0.69971 0.09966 0.03521
 H515 H 0.70635 0.11643 0.05292
 C516 C 0.67440 0.07969 0.04066
 H517 H 0.66145 0.08134 0.06242
 N518 N 0.71604 0.09782 0.00788
 C519 C 0.76533 0.17190 -0.04225
 H520 H 0.78663 0.17318 -0.02860
 C521 C 0.76077 0.19231 -0.06739
 H522 H 0.77865 0.20931 -0.07326
 C523 C 0.71574 0.14852 -0.05106
 H524 H 0.69802 0.13181 -0.04433
 C525 C 0.71024 0.16850 -0.07637
 H526 H 0.68845 0.16688 -0.08925
 Zn527 Zn 0.75085 0.12412 0.00011
 N528 N 0.74310 0.15033 -0.03480
 C529 C 0.80204 0.09953 -0.03489
 N530 N 0.78575 0.09782 -0.00753
 C531 C 0.79316 0.07631 0.01479
 C532 C 0.81830 0.05586 0.01033
 C533 C 0.82735 0.07950 -0.04028
 C534 C 0.73620 0.17209 0.04220
 C535 C 0.74063 0.19260 0.06729
 C536 C 0.79120 0.16888 0.07650
 C537 C 0.78583 0.14880 0.05124
 N538 N 0.75850 0.15051 0.03491
 H539 H 0.79535 0.11621 -0.05267
 H540 H 0.77948 0.07512 0.03608
 H541 H 0.82413 0.03891 0.02827
 H542 H 0.84027 0.08104 -0.06207
 H543 H 0.71493 0.17329 0.02850
 H544 H 0.72269 0.20960 0.07304
 H545 H 0.81295 0.16734 0.08946
 H546 H 0.80360 0.13207 0.04464
 C547 C 0.73300 0.19052 -0.08464
 C548 C 0.66622 0.05763 0.01790
 C549 C 0.76835 0.19090 0.08462
 C550 C 0.83558 0.05754 -0.01743
 C551 C 0.20782 0.57722 0.48485
 H552 H 0.22171 0.57600 0.46369
 C553 C 0.18271 0.55673 0.48911
 H554 H 0.17711 0.53972 0.47115
 C555 C 0.19839 0.60053 0.53439
 H556 H 0.20485 0.61726 0.55221
 C557 C 0.17310 0.58047 0.53959
 H558 H 0.15997 0.58203 0.56125
 N559 N 0.21495 0.59879 0.50720
 C560 C 0.26475 0.67304 0.45780
 H561 H 0.28590 0.67429 0.47169
 C562 C 0.26047 0.69351 0.43266
 H563 H 0.27840 0.71054 0.42705
 C564 C 0.21527 0.64967 0.44837
 H565 H 0.19748 0.63292 0.45484
 C566 C 0.21005 0.66971 0.42305
 H567 H 0.18841 0.66812 0.40992
 Zn568 Zn 0.24983 0.62513 0.49985
 N569 N 0.24244 0.65144 0.46494
 C570 C 0.30136 0.60064 0.46530
 N571 N 0.28480 0.59886 0.49249
 C572 C 0.29198 0.57728 0.51482
 C573 C 0.31716 0.55684 0.51056
 C574 C 0.32672 0.58063 0.46010
 C575 C 0.23476 0.67299 0.54194
 C576 C 0.23898 0.69346 0.56709
 C577 C 0.28947 0.66974 0.57667
 C578 C 0.28432 0.64970 0.55134
 N579 N 0.25713 0.65144 0.53478
 H580 H 0.29485 0.61737 0.44750
 H581 H 0.27809 0.57603 0.53597
 H582 H 0.32282 0.53983 0.52851
 H583 H 0.33985 0.58223 0.43845
 H584 H 0.21360 0.67421 0.52805
 H585 H 0.22099 0.71046 0.57272
 H586 H 0.31112 0.66818 0.58980
 H587 H 0.30215 0.63298 0.54485
 C588 C 0.23290 0.69176 0.41511
 C589 C 0.16516 0.55844 0.51671
 C590 C 0.26656 0.69175 0.58464
 C591 C 0.33472 0.55860 0.48297
 C592 C 0.70737 0.92328 0.51438
 H593 H 0.72113 0.92445 0.53562
 C594 C 0.68216 0.94369 0.51009
 H595 H 0.67637 0.96059 0.52811
 C596 C 0.69832 0.90017 0.46468
 H597 H 0.70496 0.88354 0.44683
 C598 C 0.67294 0.92015 0.45946
 H599 H 0.65993 0.91864 0.43774
 N600 N 0.71472 0.90184 0.49197
 C601 C 0.76445 0.82751 0.54142
 H602 H 0.78572 0.82637 0.52769
 C603 C 0.76008 0.80697 0.56648
 H604 H 0.77805 0.78999 0.57219
 C605 C 0.71479 0.85071 0.55055
 H606 H 0.69699 0.86743 0.54400
 C607 C 0.70948 0.83059 0.57578
 H608 H 0.68773 0.83209 0.58877
 Zn609 Zn 0.74967 0.87557 0.49945
 N610 N 0.74211 0.84907 0.53418
 C611 C 0.80083 0.90001 0.53451
 N612 N 0.78446 0.90190 0.50722
 C613 C 0.79174 0.92359 0.48504
 C614 C 0.81684 0.94404 0.48956
 C615 C 0.82611 0.92003 0.53997
 C616 C 0.73520 0.82788 0.45696
 C617 C 0.73978 0.80753 0.43178
 C618 C 0.79027 0.83142 0.42280
 C619 C 0.78476 0.85134 0.44816
 N620 N 0.75741 0.84946 0.46444
 H621 H 0.79425 0.88319 0.55219
 H622 H 0.77800 0.92492 0.46379
 H623 H 0.82258 0.96113 0.47172
 H624 H 0.83910 0.91834 0.56170
 H625 H 0.71391 0.82654 0.47064
 H626 H 0.72193 0.79050 0.42590
 H627 H 0.81206 0.83308 0.40991
 H628 H 0.80246 0.86807 0.45490
 C629 C 0.73237 0.80860 0.58385
 C630 C 0.66476 0.94204 0.48241
 C631 C 0.76754 0.80937 0.41451
 C632 C 0.83421 0.94216 0.51725
 C633 C 0.01422 0.20909 0.42296
 H634 H 0.03541 0.22290 0.42419
 C635 C 0.00988 0.18399 0.44346
 H636 H 0.02781 0.17832 0.46050
 C637 C -0.03529 0.19979 0.39957
 H638 H -0.05305 0.20630 0.38280
 C639 C -0.04057 0.17452 0.41964
 H640 H -0.06224 0.16144 0.41805
 N641 N -0.00806 0.21626 0.40133
 C642 C 0.04167 0.26564 0.32703
 H643 H 0.02788 0.28685 0.32570
 C644 C 0.06682 0.26118 0.30660
 H645 H 0.07256 0.27904 0.28953
 C646 C 0.05082 0.21615 0.35055
 H647 H 0.04423 0.19844 0.36734
 C648 C 0.07615 0.21076 0.33056
 H649 H 0.08918 0.18905 0.33223
 Zn650 Zn -0.00054 0.25105 0.37491
 N651 N 0.03439 0.24342 0.34868
 C652 C 0.03423 0.30238 0.39935
 N653 N 0.00693 0.28603 0.40110
 C654 C -0.01540 0.29339 0.42262
 C655 C -0.01101 0.31854 0.44306
 C656 C 0.03956 0.32770 0.41935
 C657 C -0.04253 0.23604 0.32699
 C658 C -0.06761 0.24029 0.30645
 C659 C -0.07715 0.29086 0.33001
 C660 C -0.05189 0.28567 0.35013
 N661 N -0.03538 0.25843 0.34851
 H662 H 0.05203 0.29572 0.38267
 H663 H -0.03664 0.27966 0.42386
 H664 H -0.02895 0.32433 0.46004
 H665 H 0.06131 0.34065 0.41780
 H666 H -0.02868 0.21485 0.32587
 H667 H -0.07323 0.22229 0.28949
 H668 H -0.09024 0.31255 0.33147
 H669 H -0.04541 0.30351 0.36682
 C670 C 0.08425 0.23351 0.30846
 C671 C -0.01773 0.16651 0.44171
 C672 C -0.08510 0.26793 0.30804
 C673 C 0.01670 0.33587 0.44134
 C674 C -0.01499 0.70671 0.07702
 H675 H -0.03627 0.72042 0.07580
 C676 C -0.01060 0.68149 0.05665
 H677 H -0.02857 0.67564 0.03974
 C678 C 0.03470 0.69781 0.10019
 H679 H 0.05252 0.70452 0.11681
 C680 C 0.04004 0.67243 0.08025
 H681 H 0.06181 0.65949 0.08179
 N682 N 0.00737 0.71415 0.09847
 C683 C -0.04214 0.76414 0.17263
 H684 H -0.02836 0.78536 0.17372
 C685 C -0.06723 0.75990 0.19318
 H686 H -0.07291 0.77792 0.21011
 C687 C -0.05137 0.71448 0.14955
 H688 H -0.04485 0.69663 0.13288
 C689 C -0.07663 0.70929 0.16968
 H690 H -0.08967 0.68759 0.16823
 Zn691 Zn -0.00016 0.74917 0.12463
 N692 N -0.03494 0.74174 0.15113
 C693 C -0.03514 0.80035 0.10003
 N694 N -0.00788 0.78391 0.09818
 C695 C 0.01433 0.79111 0.07648
 C696 C 0.00988 0.81623 0.05603
 C697 C -0.04052 0.82565 0.08000
 C698 C 0.04227 0.73478 0.17241
 C699 C 0.06747 0.73936 0.19274
 C700 C 0.07648 0.78977 0.16867
 C701 C 0.05111 0.78425 0.14877
 N702 N 0.03482 0.75693 0.15075
 H703 H -0.05285 0.79383 0.11685
 H704 H 0.03555 0.77732 0.07518
 H705 H 0.02776 0.82194 0.03896
 H706 H -0.06221 0.83872 0.08168
 H707 H 0.02859 0.71351 0.17382
 H708 H 0.07334 0.72155 0.20982
 H709 H 0.08939 0.81152 0.16693
 H710 H 0.04438 0.80192 0.13199
 C711 C -0.08466 0.73225 0.19162
 C712 C 0.01715 0.66418 0.05835
 C713 C 0.08475 0.76708 0.19078
 C714 C -0.01776 0.83370 0.05789
 C715 C 0.48560 0.20766 0.57810
 H716 H 0.46441 0.22150 0.57683
 C717 C 0.48995 0.18250 0.55767
 H718 H 0.47203 0.17682 0.54064
 C719 C 0.53512 0.19838 0.60151
 H720 H 0.55289 0.20491 0.61825
 C721 C 0.54041 0.17304 0.58149
 H722 H 0.56209 0.15996 0.58311
 N723 N 0.50789 0.21488 0.59970
 C724 C 0.45815 0.26471 0.67380
 H725 H 0.47195 0.28590 0.67506
 C726 C 0.43294 0.26041 0.69420
 H727 H 0.42719 0.27837 0.71117
 C728 C 0.44898 0.21514 0.65048
 H729 H 0.45557 0.19734 0.63378
 C730 C 0.42360 0.20991 0.67045
 H731 H 0.41054 0.18823 0.66885
 Zn732 Zn 0.50038 0.24981 0.62598
 N733 N 0.46544 0.24238 0.65226
 C734 C 0.46569 0.30117 0.60134
 N735 N 0.49293 0.28468 0.59962
 C736 C 0.51527 0.29187 0.57805
 C737 C 0.51095 0.31699 0.55756
 C738 C 0.46043 0.32646 0.58127
 C739 C 0.54250 0.23500 0.67391
 C740 C 0.56765 0.23934 0.69436
 C741 C 0.57706 0.28979 0.67053
 C742 C 0.55173 0.28452 0.65052
 N743 N 0.53527 0.25729 0.65231
 H744 H 0.44788 0.29465 0.61806
 H745 H 0.53647 0.27804 0.57684
 H746 H 0.52890 0.32265 0.54056
 H747 H 0.43873 0.33953 0.58282
 H748 H 0.52869 0.21381 0.67517
 H749 H 0.57336 0.22142 0.71138
 H750 H 0.59012 0.31147 0.66892
 H751 H 0.54518 0.30228 0.63377
 C752 C 0.41548 0.23279 0.69243
 C753 C 0.51758 0.16501 0.55945
 C754 C 0.58512 0.26696 0.69258
 C755 C 0.48330 0.33447 0.55925
 C756 C 0.51459 0.70718 0.92294
 H757 H 0.53584 0.72092 0.92407
 C758 C 0.51028 0.68206 0.94342
 H759 H 0.52828 0.67630 0.96034
 C760 C 0.46488 0.69815 0.89986
 H761 H 0.44703 0.70477 0.88323
 C762 C 0.45963 0.67286 0.91992
 H763 H 0.43789 0.65989 0.91845
 N764 N 0.49219 0.71451 0.90148
 C765 C 0.54149 0.76427 0.82712
 H766 H 0.52769 0.78549 0.82600
 C767 C 0.56655 0.75996 0.80655
 H768 H 0.57219 0.77793 0.78956
 C769 C 0.55081 0.71467 0.85032
 H770 H 0.54433 0.69686 0.86705
 C771 C 0.57604 0.70941 0.83017
 H772 H 0.58911 0.68771 0.83166
 Zn773 Zn 0.49960 0.74943 0.87520
 N774 N 0.53435 0.74193 0.84869
 C775 C 0.53456 0.80063 0.89967
 N776 N 0.50729 0.78424 0.90154
 C777 C 0.48510 0.79149 0.92325
 C778 C 0.48960 0.81657 0.94374
 C779 C 0.53999 0.82588 0.91973
 C780 C 0.45718 0.73484 0.82751
 C781 C 0.43198 0.73933 0.80717
 C782 C 0.42285 0.78981 0.83107
 C783 C 0.44822 0.78439 0.85099
 N784 N 0.46459 0.75708 0.84910
 H785 H 0.55225 0.79406 0.88284
 H786 H 0.46388 0.77773 0.92457
 H787 H 0.47176 0.82228 0.96086
 H788 H 0.56171 0.83888 0.91806
 H789 H 0.47092 0.71359 0.82617
 H790 H 0.42615 0.72146 0.79014
 H791 H 0.40988 0.81156 0.83275
 H792 H 0.45491 0.80211 0.86772
 C793 C 0.58401 0.73230 0.80816
 C794 C 0.48257 0.66472 0.94183
 C795 C 0.41463 0.76705 0.80903
 C796 C 0.51727 0.83395 0.94189
 C797 C 0.13195 0.22410 0.27011
 C798 C 0.11021 0.22839 0.28760
 C799 C 0.63166 0.72320 0.76966
 C800 C 0.60993 0.72736 0.78720
 C801 C 0.36690 0.77653 0.77075
 C802 C 0.38865 0.77221 0.78822
 C803 C -0.13269 0.27694 0.26946
 C804 C -0.11100 0.27282 0.28705
 C805 C -0.13237 0.72329 0.23007
 C806 C -0.11061 0.72738 0.21255
 C807 C 0.36760 0.22370 0.73064
 C808 C 0.38943 0.22785 0.71322
 C809 C 0.63288 0.27613 0.73089
 C810 C 0.61110 0.27194 0.71343
 C811 C 0.13248 0.77669 0.22903
 C812 C 0.11074 0.77233 0.21157
 C813 C 0.27004 0.13229 0.22344
 C814 C 0.28747 0.11050 0.22775
 C815 C 0.77012 0.63198 0.72302
 C816 C 0.78763 0.61026 0.72733
 C817 C 0.76974 0.36732 0.77649
 C818 C 0.78724 0.38906 0.77232
 C819 C 0.26925 -0.13282 0.27637
 C820 C 0.28673 -0.11105 0.27225
 C821 C 0.23017 -0.13277 0.72346
 C822 C 0.21276 -0.11093 0.72765
 C823 C 0.73041 0.36784 0.22317
 C824 C 0.71288 0.38958 0.22735
 C825 C 0.73058 0.63250 0.27588
 C826 C 0.71306 0.61078 0.27174
 C827 C 0.23069 0.13250 0.77609
 C828 C 0.21324 0.11072 0.77194
 C829 C 0.22337 0.27047 0.13174
 C830 C 0.22752 0.28798 0.11000
 C831 C 0.72315 0.77012 0.63147
 C832 C 0.72735 0.78766 0.60976
 C833 C 0.77715 0.77103 0.36685
 C834 C 0.77279 0.78854 0.38856
 C835 C 0.27658 0.27126 -0.13292
 C836 C 0.27219 0.28880 -0.11123
 C837 C 0.72343 0.22887 -0.13229
 C838 C 0.72778 0.21137 -0.11058
 C839 C 0.22379 0.73017 0.36741
 C840 C 0.22796 0.71267 0.38915
 C841 C 0.27558 0.73014 0.63236
 C842 C 0.27144 0.71264 0.61061
 C843 C 0.77761 0.22938 0.13223
 C844 C 0.77340 0.21183 0.11053
 C845 C 0.47414 0.38214 0.52081
 C846 C 0.47833 0.36040 0.53834
 C847 C -0.02697 0.88155 0.01969
 C848 C -0.02279 0.85973 0.03710
 C849 C 0.02646 0.61641 0.02005
 C850 C 0.02221 0.63818 0.03752
 C851 C 0.52674 0.11728 0.52107
 C852 C 0.52257 0.13903 0.53858
 C853 C -0.02686 0.11879 0.48007
 C854 C -0.02270 0.14055 0.46259
 C855 C 0.47336 0.61711 0.98032
 C856 C 0.47758 0.63882 0.96277
 C857 C 0.52670 0.88154 0.98033
 C858 C 0.52241 0.85985 0.96280
 C859 C 0.02608 0.38346 0.47982
 C860 C 0.02179 0.36177 0.46226
 C861 C 0.38250 0.52025 0.47390
 C862 C 0.36072 0.53773 0.47805
 C863 C 0.88327 0.01915 -0.02681
 C864 C 0.86153 0.03666 -0.02254
 C865 C 0.61846 0.01941 0.02729
 C866 C 0.64023 0.03684 0.02303
 C867 C 0.11752 0.52000 0.52580
 C868 C 0.13924 0.53752 0.52163
 C869 C 0.11663 0.48081 -0.02612
 C870 C 0.13843 0.46333 -0.02201
 C871 C 0.61689 0.98030 0.47342
 C872 C 0.63872 0.96285 0.47751
 C873 C 0.88189 0.98047 0.52667
 C874 C 0.86015 0.96300 0.52240
 C875 C 0.38180 0.48069 0.02632
 C876 C 0.36001 0.46327 0.02211
 C877 C 0.52086 0.47357 0.38252
 C878 C 0.53831 0.47782 0.36074
 C879 C 0.02043 -0.02629 0.88218
 C880 C 0.03802 -0.02204 0.86051
 C881 C 0.02038 0.02691 0.61787
 C882 C 0.03796 0.02263 0.63954
 C883 C 0.52029 0.52702 0.11754
 C884 C 0.53779 0.52275 0.13927
 C885 C 0.48003 -0.02706 0.11864
 C886 C 0.46247 -0.02284 0.14034
 C887 C 0.97973 0.47289 0.61768
 C888 C 0.96233 0.47706 0.63952
 C889 C 0.97952 0.52625 0.88291
 C890 C 0.96206 0.52200 0.86115
 C891 C 0.47935 0.02579 0.38309
 C892 C 0.46177 0.02158 0.36141
   
