data_POSCAR
  _audit_creation_date              2014-09-24
  _audit_creation_method            'ToBaCCo'
  _symmetry_space_group_name_H-M    'P1'
  _symmetry_Int_Tables_number       1
  _symmetry_cell_setting            triclinic
  loop_
  _symmetry_equiv_pos_as_xyz
 x,y,z
_cell_length_a 48.4987
_cell_length_b 47.9609
_cell_length_c 48.4832
_cell_angle_alpha 89.904800
_cell_angle_beta 90.001000
_cell_angle_gamma 90.007700
loop_
  _atom_site_label
  _atom_site_type_symbol
  _atom_site_fract_x
  _atom_site_fract_y
  _atom_site_fract_z
N1 N 0.59322 0.66906 0.61294
 N2 N 0.58243 0.65766 0.63516
 C3 C 0.56004 0.67242 0.64275
 C4 C 0.55682 0.69404 0.62427
 C5 C 0.57810 0.69143 0.60563
 H6 H 0.54704 0.66786 0.66031
 H7 H 0.58224 0.70477 0.58811
 Cu8 Cu 0.59876 0.62467 0.65190
 Cu9 Cu 0.62603 0.65409 0.59515
 Cu10 Cu 0.65545 0.59526 0.62470
 N11 N 0.61544 0.59169 0.66831
 N12 N 0.63764 0.58028 0.65753
 C13 C 0.64491 0.55790 0.67268
 C14 C 0.62624 0.55530 0.69394
 C15 C 0.60780 0.57692 0.69072
 H16 H 0.66240 0.54455 0.66854
 H17 H 0.59023 0.58148 0.70370
 N18 N 0.67044 0.61347 0.59145
 N19 N 0.65924 0.63588 0.58020
 C20 C 0.67411 0.64330 0.55788
 C21 C 0.69553 0.62467 0.55512
 C22 C 0.69274 0.60605 0.57658
 H23 H 0.66976 0.66089 0.54460
 H24 H 0.70598 0.58846 0.58096
 H25 H 0.62055 0.61335 0.60800
 H26 H 0.64268 0.63600 0.63010
 N27 N 0.90777 0.33084 0.11230
 N28 N 0.91888 0.34251 0.13420
 C29 C 0.94125 0.32770 0.14183
 C30 C 0.94409 0.30579 0.12371
 C31 C 0.92265 0.30825 0.10522
 H32 H 0.95445 0.33244 0.15919
 H33 H 0.91822 0.29468 0.08799
 Cu34 Cu 0.90302 0.37586 0.15057
 Cu35 Cu 0.87488 0.34576 0.09462
 Cu36 Cu 0.84553 0.40455 0.12402
 N37 N 0.88596 0.40849 0.16717
 N38 N 0.86348 0.41961 0.15668
 C39 C 0.85604 0.44178 0.17198
 C40 C 0.87488 0.44456 0.19307
 C41 C 0.89358 0.42323 0.18956
 H42 H 0.83832 0.45488 0.16808
 H43 H 0.91133 0.41885 0.20235
 N44 N 0.83041 0.38630 0.09093
 N45 N 0.84159 0.36390 0.07973
 C46 C 0.82664 0.35645 0.05749
 C47 C 0.80520 0.37506 0.05473
 C48 C 0.80806 0.39370 0.07611
 H49 H 0.83098 0.33887 0.04425
 H50 H 0.79483 0.41130 0.08046
 H51 H 0.88030 0.38663 0.10693
 H52 H 0.85880 0.36398 0.12974
 N53 N 0.40698 0.16930 -0.11258
 N54 N 0.41811 0.15757 -0.13443
 C55 C 0.44052 0.17233 -0.14203
 C56 C 0.44340 0.19428 -0.12396
 C57 C 0.42191 0.19186 -0.10553
 H58 H 0.45374 0.16755 -0.15935
 H59 H 0.41749 0.20548 -0.08833
 Cu60 Cu 0.40221 0.12422 -0.15077
 Cu61 Cu 0.37403 0.15447 -0.09493
 Cu62 Cu 0.34462 0.09569 -0.12428
 N63 N 0.38510 0.09160 -0.16736
 N64 N 0.36258 0.08055 -0.15689
 C65 C 0.35512 0.05837 -0.17217
 C66 C 0.37399 0.05552 -0.19322
 C67 C 0.39274 0.07681 -0.18971
 H68 H 0.33736 0.04530 -0.16828
 H69 H 0.41052 0.08113 -0.20247
 N70 N 0.32948 0.11402 -0.09124
 N71 N 0.34069 0.13642 -0.08006
 C72 C 0.32573 0.14391 -0.05784
 C73 C 0.30425 0.12534 -0.05509
 C74 C 0.30710 0.10667 -0.07644
 H75 H 0.33009 0.16149 -0.04462
 H76 H 0.29386 0.08908 -0.08078
 H77 H 0.37940 0.11357 -0.10715
 H78 H 0.35798 0.13622 -0.13005
 N79 N 0.09231 0.83008 0.38743
 N80 N 0.08148 0.84152 0.36524
 C81 C 0.05910 0.82674 0.35762
 C82 C 0.05598 0.80507 0.37605
 C83 C 0.07724 0.80765 0.39471
 H84 H 0.04610 0.83132 0.34006
 H85 H 0.08144 0.79428 0.41220
 Cu86 Cu 0.09774 0.87458 0.34857
 Cu87 Cu 0.12510 0.84508 0.40523
 Cu88 Cu 0.15441 0.90404 0.37582
 N89 N 0.11435 0.90765 0.33225
 N90 N 0.13653 0.91906 0.34303
 C91 C 0.14375 0.94149 0.32792
 C92 C 0.12508 0.94413 0.30666
 C93 C 0.10669 0.92246 0.30987
 H94 H 0.16122 0.95486 0.33206
 H95 H 0.08914 0.91790 0.29688
 N96 N 0.16945 0.88577 0.40900
 N97 N 0.15829 0.86331 0.42021
 C98 C 0.17321 0.85586 0.44249
 C99 C 0.19460 0.87452 0.44527
 C100 C 0.19176 0.89319 0.42386
 H101 H 0.16889 0.83823 0.45572
 H102 H 0.20497 0.91082 0.41951
 H103 H 0.11954 0.88584 0.39249
 H104 H 0.14170 0.86329 0.37031
 C105 C 0.10395 0.14544 0.12499
 N106 N 0.12383 0.14528 0.10525
 C107 C 0.14379 0.12539 0.10519
 N108 N 0.14369 0.10551 0.12519
 C109 C 0.12397 0.10535 0.14509
 N110 N 0.10418 0.12540 0.14484
 C111 C 0.39510 0.85476 0.62524
 N112 N 0.39483 0.87477 0.64505
 C113 C 0.37496 0.89474 0.64531
 N114 N 0.35521 0.89454 0.62544
 C115 C 0.35516 0.87470 0.60547
 N116 N 0.37519 0.85489 0.60553
 C117 C 0.89576 0.64504 0.37494
 N118 N 0.87587 0.64482 0.39468
 C119 C 0.85589 0.62495 0.39473
 N120 N 0.85597 0.60514 0.37472
 C121 C 0.87571 0.60503 0.35483
 N122 N 0.89552 0.62506 0.35510
 C123 C 0.60482 0.35535 -0.12532
 N124 N 0.62471 0.35548 -0.10559
 C125 C 0.64472 0.37531 -0.10554
 N126 N 0.64468 0.39518 -0.12556
 C127 C 0.62495 0.39537 -0.14546
 N128 N 0.60510 0.37538 -0.14518
 C129 C 0.04115 0.18805 0.14515
 C130 C 0.04104 0.20862 0.12465
 C131 C 0.06147 0.20858 0.10428
 C132 C 0.08194 0.18806 0.10436
 C133 C -0.03600 0.28585 0.12397
 C134 C 0.06159 0.16750 0.14529
 C135 C 0.01997 0.22975 0.12451
 C136 C 0.00232 0.24744 0.12437
 C137 C -0.01835 0.26816 0.12417
 C138 C 0.08225 0.16724 0.12488
 H139 H 0.02542 0.18789 0.16102
 H140 H 0.06157 0.22441 0.08831
 H141 H 0.09749 0.18853 0.08834
 H142 H 0.06117 0.15183 0.16139
 C143 C 0.43782 0.79185 0.60454
 C144 C 0.45826 0.79184 0.62490
 C145 C 0.45809 0.81237 0.64538
 C146 C 0.43757 0.83283 0.64552
 C147 C 0.53566 0.71499 0.62442
 C148 C 0.41727 0.81229 0.60463
 C149 C 0.47942 0.77080 0.62477
 C150 C 0.49715 0.75319 0.62467
 C151 C 0.51792 0.73258 0.62454
 C152 C 0.41689 0.83305 0.62513
 H153 H 0.43776 0.77605 0.58859
 H154 H 0.47383 0.81255 0.66124
 H155 H 0.43794 0.84846 0.66160
 H156 H 0.40170 0.81179 0.58862
 C157 C 0.95863 0.68764 0.35481
 C158 C 0.95876 0.70814 0.37531
 C159 C 0.93834 0.70805 0.39568
 C160 C 0.91783 0.68755 0.39559
 C161 C 1.03599 0.78519 0.37587
 C162 C 0.93815 0.66712 0.35466
 C163 C 0.97987 0.72924 0.37545
 C164 C 0.99756 0.74689 0.37557
 C165 C 1.01829 0.76755 0.37573
 C166 C 0.91749 0.66681 0.37506
 H167 H 0.97435 0.68752 0.33893
 H168 H 0.93825 0.72383 0.41165
 H169 H 0.90228 0.68799 0.41161
 H170 H 0.93855 0.65151 0.33855
 C171 C 0.54189 0.31290 -0.14544
 C172 C 0.54173 0.29234 -0.12493
 C173 C 0.56216 0.29234 -0.10456
 C174 C 0.58269 0.31281 -0.10466
 C175 C 0.46449 0.21531 -0.12423
 C176 C 0.56239 0.33340 -0.14560
 C177 C 0.52060 0.27127 -0.12478
 C178 C 0.50290 0.25362 -0.12463
 C179 C 0.48218 0.23295 -0.12443
 C180 C 0.58306 0.33361 -0.12519
 H181 H 0.52616 0.31309 -0.16131
 H182 H 0.56223 0.27652 -0.08858
 H183 H 0.59824 0.31231 -0.08864
 H184 H 0.56201 0.34906 -0.16171
 C185 C 0.14460 0.04225 0.18774
 C186 C 0.12424 0.04222 0.20818
 C187 C 0.10378 0.06278 0.20803
 C188 C 0.10366 0.08332 0.18752
 C189 C 0.12484 -0.03486 0.28552
 C190 C 0.14454 0.06276 0.16721
 C191 C 0.12437 0.02112 0.22932
 C192 C 0.12449 0.00346 0.24704
 C193 C 0.12467 -0.01722 0.26779
 C194 C 0.12405 0.08357 0.16685
 H195 H 0.16054 0.02643 0.18767
 H196 H 0.08792 0.06295 0.22376
 H197 H 0.08758 0.09898 0.18791
 H198 H 0.16054 0.06228 0.15165
 C199 C 0.64574 0.45838 -0.18816
 C200 C 0.62537 0.45845 -0.20860
 C201 C 0.60485 0.43794 -0.20841
 C202 C 0.60468 0.41742 -0.18789
 C203 C 0.62603 0.53544 -0.28602
 C204 C 0.64563 0.43790 -0.16761
 C205 C 0.62553 0.47953 -0.22976
 C206 C 0.62568 0.49718 -0.24749
 C207 C 0.62587 0.51782 -0.26827
 C208 C 0.62509 0.41714 -0.16723
 H209 H 0.66172 0.47417 -0.18811
 H210 H 0.58898 0.43779 -0.22414
 H211 H 0.58857 0.40180 -0.18826
 H212 H 0.66164 0.43834 -0.15206
 C213 C 0.35420 0.95769 0.68791
 C214 C 0.37461 0.95775 0.70830
 C215 C 0.39513 0.93726 0.70814
 C216 C 0.39528 0.91676 0.68767
 C217 C 0.37413 1.03461 0.78561
 C218 C 0.35429 0.93722 0.66741
 C219 C 0.37447 0.97882 0.72942
 C220 C 0.37436 0.99644 0.74712
 C221 C 0.37424 1.01704 0.76787
 C222 C 0.37484 0.91648 0.66704
 H223 H 0.33821 0.97346 0.68784
 H224 H 0.41103 0.93712 0.72384
 H225 H 0.41141 0.90116 0.68804
 H226 H 0.33825 0.93767 0.65188
 C227 C 0.85505 0.54210 0.31215
 C228 C 0.87544 0.54212 0.29174
 C229 C 0.89592 0.56267 0.29192
 C230 C 0.89604 0.58313 0.31243
 C231 C 0.87501 0.46542 0.21428
 C232 C 0.85511 0.56254 0.33269
 C233 C 0.87532 0.52110 0.27059
 C234 C 0.87523 0.50352 0.25285
 C235 C 0.87512 0.48296 0.23206
 C236 C 0.87562 0.58332 0.33308
 H237 H 0.83909 0.52629 0.31220
 H238 H 0.91180 0.56288 0.27621
 H239 H 0.91213 0.59877 0.31206
 H240 H 0.83908 0.56202 0.34822
 C241 C 0.18600 0.14592 0.04241
 C242 C 0.20648 0.12538 0.04247
 C243 C 0.20650 0.10484 0.06300
 C244 C 0.18613 0.10482 0.08340
 C245 C 0.28327 0.12537 -0.03418
 C246 C 0.16560 0.14595 0.06278
 C247 C 0.22747 0.12538 0.02148
 C248 C 0.24506 0.12538 0.00392
 C249 C 0.26566 0.12538 -0.01664
 C250 C 0.16541 0.12538 0.08355
 H251 H 0.18579 0.16192 0.02660
 H252 H 0.22227 0.08884 0.06324
 H253 H 0.18665 0.08868 0.09904
 H254 H 0.15000 0.16209 0.06224
 C255 C 0.81369 0.64529 0.45751
 C256 C 0.79318 0.62478 0.45743
 C257 C 0.79312 0.60433 0.43689
 C258 C 0.81350 0.60436 0.41648
 C259 C 0.71647 0.62466 0.53416
 C260 C 0.83410 0.64537 0.43714
 C261 C 0.77219 0.62472 0.47842
 C262 C 0.75461 0.62469 0.49599
 C263 C 0.73403 0.62467 0.51658
 C264 C 0.83426 0.62489 0.41636
 H265 H 0.81393 0.66122 0.47332
 H266 H 0.77733 0.58835 0.43663
 H267 H 0.81296 0.58828 0.40084
 H268 H 0.84972 0.66149 0.43770
 C269 C 0.70751 0.39571 -0.06337
 C270 C 0.70743 0.37518 -0.04284
 C271 C 0.68689 0.35470 -0.04276
 C272 C 0.66649 0.35471 -0.06313
 C273 C 0.78422 0.37506 0.03382
 C274 C 0.68714 0.39578 -0.08377
 C275 C 0.72843 0.37513 -0.02185
 C276 C 0.74602 0.37509 -0.00429
 C277 C 0.76662 0.37507 0.01627
 C278 C 0.66636 0.37527 -0.08391
 H279 H 0.72333 0.41167 -0.06362
 H280 H 0.68664 0.33870 -0.02695
 H281 H 0.65084 0.33861 -0.06257
 H282 H 0.68770 0.41191 -0.09941
 C283 C 0.29229 0.89507 0.56334
 C284 C 0.29238 0.87458 0.54283
 C285 C 0.31295 0.85413 0.54276
 C286 C 0.33337 0.85414 0.56311
 C287 C 0.21557 0.87450 0.46620
 C288 C 0.31269 0.89514 0.58372
 C289 C 0.27136 0.87453 0.52187
 C290 C 0.25377 0.87451 0.50431
 C291 C 0.23316 0.87449 0.48375
 C292 C 0.33350 0.87466 0.58386
 H293 H 0.27645 0.91100 0.56359
 H294 H 0.31321 0.83817 0.52698
 H295 H 0.34904 0.83807 0.56256
 H296 H 0.31212 0.91124 0.59934
   
