data_POSCAR
  _audit_creation_date              2014-09-24
  _audit_creation_method            'ToBaCCo'
  _symmetry_space_group_name_H-M    'P1'
  _symmetry_Int_Tables_number       1
  _symmetry_cell_setting            triclinic
  loop_
  _symmetry_equiv_pos_as_xyz
 x,y,z
_cell_length_a 39.8744
_cell_length_b 32.6711
_cell_length_c 24.1518
_cell_angle_alpha 89.973900
_cell_angle_beta 90.127400
_cell_angle_gamma 89.756800
loop_
  _atom_site_label
  _atom_site_type_symbol
  _atom_site_fract_x
  _atom_site_fract_y
  _atom_site_fract_z
C1 C 0.23886 0.23967 0.18687
 C2 C 0.23911 0.28213 0.19924
 C3 C 0.26506 0.29828 0.23177
 C4 C 0.29039 0.27330 0.25424
 C5 C 0.28989 0.23054 0.24408
 C6 C 0.26409 0.21457 0.21036
 H7 H 0.26192 0.18189 0.20646
 H8 H 0.26631 0.33110 0.23756
 C9 C 0.77753 0.25511 0.22653
 C10 C 0.77444 0.21176 0.22440
 C11 C 0.74595 0.19290 0.24664
 C12 C 0.72094 0.21545 0.27399
 C13 C 0.72394 0.25844 0.27709
 C14 C 0.75187 0.27761 0.25323
 H15 H 0.75280 0.31055 0.25510
 H16 H 0.74354 0.16004 0.24252
 C17 C 0.71401 0.72976 0.76403
 C18 C 0.71277 0.77208 0.75255
 C19 C 0.73997 0.79724 0.76589
 C20 C 0.77124 0.78194 0.79352
 C21 C 0.77019 0.73550 0.80444
 C22 C 0.74193 0.71250 0.79031
 H23 H 0.74240 0.67969 0.79730
 H24 H 0.73820 0.82981 0.75775
 C25 C 0.26281 0.75906 0.70494
 C26 C 0.26810 0.71641 0.70791
 C27 C 0.24684 0.69253 0.74097
 C28 C 0.21990 0.71006 0.77035
 C29 C 0.21655 0.75350 0.77075
 C30 C 0.23770 0.77722 0.73717
 H31 H 0.23492 0.81022 0.73662
 H32 H 0.25097 0.65978 0.74332
 O33 O 1.04003 -0.04695 -0.00137
 O34 O 0.98328 0.02173 0.07757
 O35 O 0.97616 -0.04485 0.01981
 O36 O 1.04818 0.01540 0.06416
 O37 O 1.04307 0.05558 -0.00900
 O38 O 0.97019 -0.00635 -0.05482
 O39 O 0.97835 0.06108 0.00356
 O40 O 1.03412 -0.00662 -0.07425
 Cu41 Cu 1.01244 -0.01750 0.04746
 Cu42 Cu 1.00570 0.02998 -0.04084
 C43 C 1.04661 -0.03814 -0.05156
 C44 C 0.97135 0.05331 0.05356
 C45 C 0.96121 -0.03661 -0.02511
 C46 C 1.05814 0.04541 0.03549
 O47 O 0.47067 0.50476 0.40644
 O48 O 0.53340 0.57076 0.47129
 O49 O 0.53565 0.51039 0.40021
 O50 O 0.46871 0.56071 0.48139
 O51 O 0.47588 0.51512 0.54802
 O52 O 0.54261 0.46562 0.46778
 O53 O 0.54033 0.52620 0.53919
 O54 O 0.47740 0.45889 0.47285
 Cu55 Cu 0.50165 0.54128 0.43320
 Cu56 Cu 0.51002 0.48689 0.51360
 C57 C 0.46291 0.47102 0.42874
 C58 C 0.54730 0.56022 0.51634
 C59 C 0.55031 0.47907 0.42022
 C60 C 0.46053 0.54583 0.52814
 O61 O -0.03612 0.56446 0.06199
 O62 O 0.03522 0.49830 0.10187
 O63 O 0.02844 0.56664 0.04702
 O64 O -0.02918 0.49720 0.11860
 O65 O -0.03664 0.46220 0.04136
 O66 O 0.02341 0.53019 -0.02956
 O67 O 0.02812 0.46209 0.02557
 O68 O -0.04132 0.52986 -0.01608
 Cu69 Cu 0.00024 0.53519 0.09010
 Cu70 Cu -0.00729 0.49247 -0.00239
 C71 C -0.05060 0.55864 0.01579
 C72 C 0.04367 0.46880 0.07050
 C73 C 0.03593 0.56018 -0.00324
 C74 C -0.04291 0.46813 0.09233
 O75 O 0.46545 1.04468 0.49265
 O76 O 0.52625 0.97269 0.55514
 O77 O 0.52987 1.03372 0.48585
 O78 O 0.46187 0.98536 0.56442
 O79 O 0.45371 0.94183 0.49583
 O80 O 0.52181 0.99057 0.41675
 O81 O 0.51835 0.92997 0.48549
 O82 O 0.45726 1.00123 0.42398
 Cu83 Cu 0.49668 1.01339 0.53151
 Cu84 Cu 0.48684 0.96149 0.44869
 C85 C 0.45110 1.03518 0.44749
 C86 C 0.53289 0.93926 0.53046
 C87 C 0.53743 1.02050 0.43802
 C88 C 0.44616 0.95544 0.54353
 C89 C 1.21261 0.22253 0.15480
 C90 C 1.21385 0.18373 0.13005
 C91 C 1.18487 0.16452 0.10189
 C92 C 1.18394 0.12169 0.09879
 C93 C 1.15653 0.10186 0.07508
 C94 C 1.12943 0.12453 0.05360
 C95 C 1.13106 0.16740 0.05391
 C96 C 1.15846 0.18733 0.07808
 C97 C 1.09927 0.10386 0.03158
 C98 C 1.08785 0.06752 0.05497
 H99 H 1.23650 0.16553 0.13223
 H100 H 1.20422 0.10341 0.11581
 H101 H 1.15664 0.06875 0.07362
 H102 H 1.11074 0.18547 0.03663
 H103 H 1.15885 0.22042 0.07760
 H104 H 1.08465 0.11873 -0.00056
 H105 H 1.18997 0.24022 0.14895
 H106 H 1.10075 0.05495 0.09068
 C107 C 0.68727 0.70135 0.74585
 C108 C 0.67581 0.70127 0.69118
 C109 C 0.65282 0.67021 0.66775
 C110 C 0.65083 0.66648 0.60998
 C111 C 0.62948 0.63790 0.58559
 C112 C 0.60914 0.61267 0.61854
 C113 C 0.61135 0.61598 0.67637
 C114 C 0.63278 0.64465 0.70086
 C115 C 0.58558 0.58280 0.59370
 C116 C 0.57164 0.58846 0.54120
 H117 H 0.68623 0.72357 0.66285
 H118 H 0.66612 0.68556 0.58349
 H119 H 0.62938 0.63540 0.54094
 H120 H 0.59600 0.59685 0.70266
 H121 H 0.63306 0.64703 0.74549
 H122 H 0.57742 0.55713 0.61862
 H123 H 0.68072 0.67650 0.77331
 H124 H 0.57741 0.61581 0.51789
 C125 C -0.19561 0.27537 0.19982
 C126 C -0.18649 0.31610 0.21026
 C127 C -0.15974 0.33870 0.18064
 C128 C -0.14989 0.37673 0.20203
 C129 C -0.12562 0.40018 0.17543
 C130 C -0.11022 0.38598 0.12669
 C131 C -0.12033 0.34820 0.10471
 C132 C -0.14484 0.32471 0.13128
 C133 C -0.08466 0.41050 0.09698
 C134 C -0.06648 0.44178 0.12234
 H135 H -0.19797 0.33226 0.24435
 H136 H -0.16129 0.38868 0.23939
 H137 H -0.11974 0.42977 0.19278
 H138 H -0.10928 0.33684 0.06674
 H139 H -0.15222 0.29618 0.11234
 H140 H -0.07972 0.40335 0.05395
 H141 H -0.18064 0.25826 0.17069
 H142 H -0.06944 0.44771 0.16609
 C143 C 0.28301 0.78432 0.66675
 C144 C 0.29838 0.82062 0.68311
 C145 C 0.32380 0.84183 0.64886
 C146 C 0.33120 0.88293 0.66015
 C147 C 0.35597 0.90345 0.63016
 C148 C 0.37414 0.88299 0.58855
 C149 C 0.36654 0.84204 0.57695
 C150 C 0.34193 0.82149 0.60702
 C151 C 0.40091 0.90319 0.55625
 C152 C 0.41891 0.93679 0.57563
 H153 H 0.29238 0.83336 0.72331
 H154 H 0.31771 0.89927 0.69221
 H155 H 0.36045 0.93535 0.63935
 H156 H 0.38023 0.82556 0.54523
 H157 H 0.33800 0.78946 0.59808
 H158 H 0.40800 0.88964 0.51701
 H159 H 0.28796 0.77177 0.62617
 H160 H 0.41372 0.94936 0.61616
 C161 C -0.19985 0.71395 -0.17436
 C162 C -0.20182 0.68519 -0.13183
 C163 C -0.17244 0.66158 -0.11199
 C164 C -0.17173 0.64760 -0.05706
 C165 C -0.14477 0.62405 -0.03766
 C166 C -0.11826 0.61352 -0.07329
 C167 C -0.11927 0.62696 -0.12844
 C168 C -0.14594 0.65102 -0.14759
 C169 C -0.09020 0.58698 -0.05510
 C170 C -0.07851 0.58565 -0.00063
 H171 H -0.22558 0.68099 -0.11092
 H172 H -0.19212 0.65487 -0.02912
 H173 H -0.14522 0.61321 0.00468
 H174 H -0.09935 0.61875 -0.15684
 H175 H -0.14619 0.66029 -0.19061
 H176 H -0.07717 0.56930 -0.08641
 H177 H -0.17575 0.72181 -0.19181
 H178 H -0.08903 0.60599 0.03021
 C179 C 0.31348 1.20433 0.27027
 C180 C 0.31943 1.16341 0.25578
 C181 C 0.34296 1.13674 0.28689
 C182 C 0.34967 1.14272 0.34352
 C183 C 0.37182 1.11677 0.37175
 C184 C 0.38772 1.08423 0.34394
 C185 C 0.38032 1.07775 0.28778
 C186 C 0.35815 1.10366 0.25960
 C187 C 0.41134 1.05582 0.37197
 C188 C 0.42718 1.06415 0.42235
 H189 H 0.30887 1.15099 0.21813
 H190 H 0.33731 1.16682 0.36656
 H191 H 0.37574 1.12197 0.41547
 H192 H 0.39188 1.05263 0.26549
 H193 H 0.35305 1.09802 0.21619
 H194 H 0.41751 1.02754 0.35078
 H195 H 0.32874 1.21658 0.30327
 H196 H 0.42298 1.09288 0.44343
 C197 C 1.19455 -0.22482 -0.18947
 C198 C 1.17487 -0.19152 -0.20570
 C199 C 1.15113 -0.17004 -0.16860
 C200 C 1.12510 -0.14713 -0.19257
 C201 C 1.10278 -0.12505 -0.15958
 C202 C 1.10640 -0.12471 -0.10160
 C203 C 1.13193 -0.14844 -0.07741
 C204 C 1.15425 -0.17077 -0.11052
 C205 C 1.08416 -0.09967 -0.06586
 C206 C 1.06874 -0.06405 -0.08525
 H207 H 1.17539 -0.18231 -0.24881
 H208 H 1.12195 -0.14637 -0.23714
 H209 H 1.08264 -0.10852 -0.17980
 H210 H 1.13514 -0.14888 -0.03286
 H211 H 1.17434 -0.18752 -0.09050
 H212 H 1.08135 -0.10815 -0.02275
 H213 H 1.19202 -0.23743 -0.14828
 H214 H 1.07348 -0.05372 -0.12706
 C215 C 0.69894 0.28351 0.30770
 C216 C 0.68873 0.32234 0.28990
 C217 C 0.66430 0.34804 0.32047
 C218 C 0.64682 0.37894 0.29196
 C219 C 0.62348 0.40374 0.31939
 C220 C 0.61745 0.39839 0.37634
 C221 C 0.63531 0.36782 0.40490
 C222 C 0.65858 0.34305 0.37749
 C223 C 0.59231 0.42279 0.40743
 C224 C 0.57626 0.45797 0.38747
 H225 H 0.69765 0.33351 0.25036
 H226 H 0.65091 0.38355 0.24807
 H227 H 0.61001 0.42640 0.29542
 H228 H 0.63131 0.36311 0.44880
 H229 H 0.67228 0.32053 0.40142
 H230 H 0.58617 0.41239 0.44880
 H231 H 0.68739 0.27018 0.34389
 H232 H 0.58236 0.47041 0.34730
 C233 C 0.79946 -0.18550 -0.19174
 C234 C 0.82678 -0.19179 -0.15690
 C235 C 0.85082 -0.15888 -0.14345
 C236 C 0.87664 -0.16727 -0.10563
 C237 C 0.89917 -0.13679 -0.09015
 C238 C 0.89623 -0.09695 -0.11188
 C239 C 0.87111 -0.08881 -0.15118
 C240 C 0.84842 -0.11941 -0.16666
 C241 C 0.91952 -0.06406 -0.09462
 C242 C 0.93389 -0.06388 -0.04197
 H243 H 0.82988 -0.22081 -0.13593
 H244 H 0.87934 -0.19753 -0.08774
 H245 H 0.91907 -0.14474 -0.06154
 H246 H 0.86865 -0.05854 -0.16910
 H247 H 0.82894 -0.11204 -0.19636
 H248 H 0.92526 -0.03970 -0.12349
 H249 H 0.78725 -0.20556 -0.19677
 H250 H 0.92623 -0.08665 -0.01203
 C251 C 0.31861 0.29274 0.28460
 C252 C 0.31439 0.32650 0.31926
 C253 C 0.34289 0.34659 0.34721
 C254 C 0.34151 0.38892 0.35625
 C255 C 0.36853 0.40917 0.38063
 C256 C 0.39729 0.38727 0.39724
 C257 C 0.39805 0.34465 0.39066
 C258 C 0.37119 0.32444 0.36540
 C259 C 0.42642 0.40849 0.42169
 C260 C 0.43598 0.44707 0.40314
 H261 H 0.28972 0.34004 0.32394
 H262 H 0.31973 0.40648 0.34341
 H263 H 0.36679 0.44193 0.38684
 H264 H 0.41972 0.32713 0.40405
 H265 H 0.37251 0.29153 0.36066
 H266 H 0.44135 0.39288 0.45278
 H267 H 0.34357 0.28042 0.27860
 H268 H 0.42283 0.46081 0.36846
 C269 C 0.19773 0.68282 -0.20290
 C270 C 0.16403 0.69134 -0.19111
 C271 C 0.14160 0.66210 -0.16297
 C272 C 0.11554 0.67758 -0.13007
 C273 C 0.09350 0.65109 -0.10321
 C274 C 0.09685 0.60848 -0.10940
 C275 C 0.12228 0.59300 -0.14365
 C276 C 0.14465 0.61951 -0.16995
 C277 C 0.07364 0.57980 -0.08189
 C278 C 0.05918 0.58838 -0.03067
 H279 H 0.15285 0.72010 -0.20336
 H280 H 0.11237 0.71031 -0.12488
 H281 H 0.07349 0.66408 -0.07852
 H282 H 0.12498 0.56030 -0.14974
 H283 H 0.16370 0.60658 -0.19663
 H284 H 0.06929 0.55026 -0.10094
 H285 H 0.20657 0.65195 -0.19522
 H286 H 0.06596 0.61607 -0.00880
 C287 C 0.69103 1.19447 0.29710
 C288 C 0.69165 1.15435 0.31712
 C289 C 0.66216 1.13492 0.34298
 C290 C 0.65846 1.09232 0.33951
 C291 C 0.63129 1.07293 0.36474
 C292 C 0.60754 1.09587 0.39465
 C293 C 0.61163 1.13836 0.39906
 C294 C 0.63854 1.15780 0.37325
 C295 C 0.57932 1.07630 0.42394
 C296 C 0.56481 1.03964 0.40678
 H297 H 0.71431 1.13618 0.31386
 H298 H 0.67666 1.07401 0.31717
 H299 H 0.62947 1.03996 0.36195
 H300 H 0.59396 1.15657 0.42265
 H301 H 0.64126 1.19052 0.37837
 H302 H 0.56869 1.09225 0.45916
 H303 H 0.66775 1.21150 0.29921
 H304 H 0.57305 1.02504 0.36892
 C305 C 0.21360 0.31056 0.17585
 C306 C 0.19943 0.34222 0.20693
 C307 C 0.17169 0.36841 0.18635
 C308 C 0.14917 0.35487 0.14545
 C309 C 0.12261 0.37985 0.12816
 C310 C 0.11801 0.41903 0.15126
 C311 C 0.14017 0.43214 0.19281
 C312 C 0.16667 0.40707 0.21025
 C313 C 0.08996 0.44639 0.13458
 C314 C 0.07171 0.44162 0.08562
 H315 H 0.20884 0.34799 0.24830
 H316 H 0.15128 0.32457 0.12776
 H317 H 0.10541 0.36771 0.09776
 H318 H 0.13700 0.46193 0.21182
 H319 H 0.18337 0.41796 0.24242
 H320 H 0.08400 0.47202 0.16133
 H321 H 0.20529 0.30563 0.13375
 H322 H 0.07817 0.41772 0.05658
 C323 C 0.68200 0.79142 0.72993
 C324 C 0.68347 0.82082 0.68819
 C325 C 0.65354 0.84263 0.66723
 C326 C 0.65285 0.85564 0.61192
 C327 C 0.62560 0.87807 0.59155
 C328 C 0.59881 0.88862 0.62657
 C329 C 0.59972 0.87617 0.68214
 C330 C 0.62668 0.85295 0.70224
 C331 C 0.57073 0.91431 0.60655
 C332 C 0.55841 0.91116 0.55271
 H333 H 0.70737 0.82698 0.66866
 H334 H 0.67353 0.84851 0.58448
 H335 H 0.62600 0.88818 0.54886
 H336 H 0.57954 0.88445 0.70998
 H337 H 0.62697 0.84422 0.74548
 H338 H 0.55890 0.93533 0.63525
 H339 H 0.65786 0.78099 0.74464
 H340 H 0.56774 0.88719 0.52579
 C341 C 0.80025 0.18405 0.20085
 C342 C 0.83405 0.18633 0.21552
 C343 C 0.85899 0.15634 0.19548
 C344 C 0.89113 0.16979 0.18098
 C345 C 0.91480 0.14221 0.16003
 C346 C 0.90691 0.10050 0.15447
 C347 C 0.87534 0.08671 0.17155
 C348 C 0.85139 0.11445 0.19135
 C349 C 0.93094 0.07135 0.12961
 C350 C 0.94947 0.08212 0.08310
 H351 H 0.84277 0.21168 0.24052
 H352 H 0.89762 0.20184 0.18462
 H353 H 0.93927 0.15346 0.14822
 H354 H 0.86890 0.05463 0.16812
 H355 H 0.82708 0.10310 0.20380
 H356 H 0.93134 0.03994 0.14403
 H357 H 0.79172 0.15835 0.17631
 H358 H 0.94588 0.11217 0.06495
 C359 C 0.29722 0.69780 0.67897
 C360 C 0.29788 0.65799 0.65823
 C361 C 0.32706 0.64220 0.62707
 C362 C 0.33550 0.60062 0.63089
 C363 C 0.36353 0.58522 0.60304
 C364 C 0.38341 0.61119 0.57028
 C365 C 0.37412 0.65239 0.56462
 C366 C 0.34631 0.66787 0.59291
 C367 C 0.41324 0.59590 0.54036
 C368 C 0.43247 0.56319 0.55974
 H369 H 0.27712 0.63754 0.66576
 H370 H 0.32064 0.58015 0.65611
 H371 H 0.36925 0.55293 0.60664
 H372 H 0.38864 0.67276 0.53872
 H373 H 0.33972 0.69979 0.58738
 H374 H 0.42090 0.61172 0.50306
 H375 H 0.31906 0.71682 0.67278
 H376 H 0.42648 0.54907 0.59902
   
