data_POSCAR
  _audit_creation_date              2014-09-24
  _audit_creation_method            'ToBaCCo'
  _symmetry_space_group_name_H-M    'P1'
  _symmetry_Int_Tables_number       1
  _symmetry_cell_setting            triclinic
  loop_
  _symmetry_equiv_pos_as_xyz
 x,y,z
_cell_length_a 48.4042
_cell_length_b 44.1499
_cell_length_c 27.3073
_cell_angle_alpha 89.776300
_cell_angle_beta 90.117200
_cell_angle_gamma 90.145300
loop_
  _atom_site_label
  _atom_site_type_symbol
  _atom_site_fract_x
  _atom_site_fract_y
  _atom_site_fract_z
C1 C 1.27438 0.21810 0.26882
 C2 C 1.25028 0.23101 0.24936
 C3 C 1.22889 0.21213 0.23309
 C4 C 1.23153 0.18047 0.23520
 C5 C 1.25581 0.16785 0.25519
 C6 C 1.27774 0.18638 0.27229
 C7 C 1.24800 0.26441 0.24497
 C8 C 1.26965 0.28104 0.22348
 C9 C 1.26826 0.31285 0.21866
 C10 C 1.24453 0.32750 0.23665
 C11 C 1.22281 0.31130 0.25841
 C12 C 1.22458 0.27966 0.26232
 H13 H 1.28988 0.23334 0.28328
 H14 H 1.21031 0.22221 0.21810
 H15 H 1.28695 0.26866 0.20862
 H16 H 1.20796 0.26698 0.27933
 H17 H 1.25803 0.14349 0.25444
 H18 H 1.24346 0.35197 0.23698
 C19 C 0.77333 -0.28078 0.26918
 C20 C 0.74978 -0.26584 0.25103
 C21 C 0.72839 -0.28275 0.22970
 C22 C 0.73035 -0.31427 0.22603
 C23 C 0.75383 -0.32891 0.24444
 C24 C 0.77574 -0.31266 0.26629
 C25 C 0.74734 -0.23245 0.25378
 C26 C 0.76847 -0.21369 0.23584
 C27 C 0.76549 -0.18198 0.23545
 C28 C 0.74118 -0.16920 0.25470
 C29 C 0.71993 -0.18776 0.27347
 C30 C 0.72322 -0.21935 0.27244
 H31 H 0.78985 -0.26724 0.28452
 H32 H 0.71043 -0.27124 0.21498
 H33 H 0.78706 -0.22389 0.22140
 H34 H 0.70680 -0.23393 0.28571
 H35 H 0.75392 -0.35341 0.24425
 H36 H 0.73870 -0.14483 0.25470
 C37 C 0.76948 0.21486 -0.23399
 C38 C 0.74819 0.23354 -0.25143
 C39 C 0.72415 0.22033 -0.27062
 C40 C 0.72105 0.18873 -0.27253
 C41 C 0.74252 0.17025 -0.25457
 C42 C 0.76676 0.18311 -0.23477
 C43 C 0.75044 0.26694 -0.24819
 C44 C 0.77387 0.28227 -0.26612
 C45 C 0.77595 0.31419 -0.26332
 C46 C 0.75389 0.33009 -0.24165
 C47 C 0.73053 0.31507 -0.22344
 C48 C 0.72888 0.28351 -0.22709
 H49 H 0.78802 0.22515 -0.21916
 H50 H 0.70799 0.23484 -0.28493
 H51 H 0.79050 0.26900 -0.28135
 H52 H 0.71099 0.27170 -0.21263
 H53 H 0.73995 0.14588 -0.25448
 H54 H 0.75373 0.35459 -0.24152
 C55 C 1.27078 -0.27896 -0.21598
 C56 C 1.24933 -0.26224 -0.23786
 C57 C 1.22574 -0.27739 -0.25518
 C58 C 1.22359 -0.30898 -0.25089
 C59 C 1.24511 -0.32527 -0.22877
 C60 C 1.26904 -0.31075 -0.21091
 C61 C 1.25198 -0.22891 -0.24325
 C62 C 1.27647 -0.21634 -0.26178
 C63 C 1.27974 -0.18485 -0.26639
 C64 C 1.25808 -0.16577 -0.25128
 C65 C 1.23327 -0.17797 -0.23258
 C66 C 1.23044 -0.20965 -0.22909
 H67 H 1.28826 -0.26669 -0.20118
 H68 H 1.20929 -0.26468 -0.27260
 H69 H 1.29312 -0.23125 -0.27249
 H70 H 1.21181 -0.21941 -0.21368
 H71 H 1.24375 -0.34973 -0.22890
 H72 H 1.26026 -0.14146 -0.25520
 C73 C 0.21966 0.27225 0.73025
 C74 C 0.23462 0.24737 0.74757
 C75 C 0.22057 0.22108 0.76229
 C76 C 0.19140 0.21936 0.76084
 C77 C 0.17684 0.24487 0.74264
 C78 C 0.19080 0.27128 0.72756
 C79 C 0.26502 0.24936 0.75153
 C80 C 0.27719 0.27437 0.77487
 C81 C 0.30608 0.27667 0.78011
 C82 C 0.32246 0.25339 0.76032
 C83 C 0.31063 0.22845 0.73655
 C84 C 0.28183 0.22644 0.73243
 H85 H 0.23067 0.29230 0.71805
 H86 H 0.23280 0.20195 0.77421
 H87 H 0.26377 0.29116 0.79099
 H88 H 0.27251 0.20724 0.71408
 H89 H 0.15451 0.24527 0.74282
 H90 H 0.34475 0.25534 0.76041
 C91 C 0.71460 0.76780 0.72466
 C92 C 0.73221 0.74542 0.74369
 C93 C 0.72106 0.71800 0.76090
 C94 C 0.69257 0.71212 0.75809
 C95 C 0.67537 0.73484 0.73858
 C96 C 0.68586 0.76266 0.72106
 C97 C 0.76261 0.74934 0.74228
 C98 C 0.77535 0.77571 0.76008
 C99 C 0.80433 0.77856 0.75986
 C100 C 0.82039 0.75471 0.74107
 C101 C 0.80784 0.72828 0.72299
 C102 C 0.77898 0.72598 0.72348
 H103 H 0.72375 0.78823 0.70977
 H104 H 0.73504 0.70079 0.77446
 H105 H 0.76271 0.79381 0.77451
 H106 H 0.76910 0.70601 0.70847
 H107 H 0.65325 0.73179 0.74085
 H108 H 0.84272 0.75627 0.74205
 C109 C 0.72403 0.27866 0.23325
 C110 C 0.73576 0.25274 0.25472
 C111 C 0.71848 0.22962 0.27266
 C112 C 0.68963 0.23240 0.26931
 C113 C 0.67832 0.25831 0.24734
 C114 C 0.69533 0.28140 0.22903
 C115 C 0.76611 0.25010 0.25807
 C116 C 0.78170 0.27423 0.27664
 C117 C 0.81063 0.27290 0.27795
 C118 C 0.82395 0.24686 0.26028
 C119 C 0.80857 0.22245 0.24122
 C120 C 0.77958 0.22418 0.24087
 H121 H 0.73729 0.29634 0.21868
 H122 H 0.72748 0.20966 0.28945
 H123 H 0.77115 0.29398 0.29070
 H124 H 0.76744 0.20560 0.22636
 H125 H 0.65608 0.26096 0.24571
 H126 H 0.84631 0.24609 0.25967
 C127 C 0.22156 0.77981 0.23831
 C128 C 0.23564 0.75363 0.25266
 C129 C 0.22091 0.72890 0.27129
 C130 C 0.19194 0.72956 0.27560
 C131 C 0.17808 0.75623 0.26052
 C132 C 0.19250 0.78155 0.24114
 C133 C 0.26589 0.75141 0.24655
 C134 C 0.28360 0.77405 0.26462
 C135 C 0.31234 0.77151 0.25879
 C136 C 0.32308 0.74635 0.23422
 C137 C 0.30564 0.72371 0.21593
 C138 C 0.27708 0.72623 0.22250
 H139 H 0.23368 0.79883 0.22537
 H140 H 0.23263 0.70963 0.28426
 H141 H 0.27505 0.79340 0.28354
 H142 H 0.26348 0.70886 0.20805
 H143 H 0.15578 0.75614 0.25958
 H144 H 0.34526 0.74378 0.23084
 O145 O 1.03769 0.05264 0.08834
 O146 O 1.06807 0.02498 0.04204
 C147 C 1.06247 0.04485 0.07542
 O148 O 0.95974 -0.05625 0.08499
 O149 O 0.92915 -0.02689 0.04141
 C150 C 0.93491 -0.04822 0.07253
 O151 O 1.03671 -0.05364 0.08946
 O152 O 1.06768 -0.02680 0.04238
 C153 C 1.06158 -0.04648 0.07618
 O154 O 0.96078 0.05614 0.08302
 O155 O 0.92953 0.02719 0.04011
 C156 C 0.93584 0.04868 0.07052
 Zr157 Zr 0.99893 0.03765 0.06105
 O158 O 0.99635 0.03632 0.13843
 O159 O 1.00163 0.08548 0.06169
 Zr160 Zr 0.99837 -0.03832 0.06212
 O161 O 0.99733 -0.03425 0.13918
 O162 O 1.00002 -0.08616 0.06552
 O163 O 1.02359 -0.00046 0.07094
 O164 O 0.97427 -0.00020 0.07055
 O165 O 0.95984 0.05505 -0.08594
 O166 O 0.92919 0.02610 -0.04174
 C167 C 0.93500 0.04725 -0.07316
 O168 O 1.03695 -0.05378 -0.08922
 O169 O 1.06770 -0.02631 -0.04301
 C170 C 1.06184 -0.04607 -0.07645
 O171 O 0.95977 -0.05681 -0.08367
 O172 O 0.92906 -0.02771 -0.04041
 C173 C 0.93496 -0.04919 -0.07094
 O174 O 1.03689 0.05221 -0.09033
 O175 O 1.06781 0.02524 -0.04347
 C176 C 1.06174 0.04496 -0.07719
 Zr177 Zr 0.99840 0.03740 -0.06255
 O178 O 0.99548 0.03758 -0.13993
 O179 O 0.99979 0.08521 -0.05913
 Zr180 Zr 0.99830 -0.03887 -0.06148
 O181 O 0.99521 -0.03946 -0.13882
 O182 O 0.99958 -0.08666 -0.05686
 Zr183 Zr 1.04004 -0.00063 -0.00047
 Zr184 Zr 0.95697 -0.00042 -0.00018
 O185 O 0.97412 -0.00077 -0.07089
 O186 O 1.02314 -0.00076 -0.07175
 O187 O 0.97406 0.04351 -0.00076
 O188 O 1.02241 -0.04423 0.00031
 O189 O 1.02278 0.04306 -0.00098
 O190 O 0.97368 -0.04443 0.00040
 H191 H 0.96168 0.00000 0.09911
 H192 H 1.03456 -0.06225 0.00040
 H193 H 0.96157 -0.00091 -0.09960
 H194 H 1.03512 0.06100 -0.00107
 H195 H 0.99039 -0.09377 0.03602
 H196 H 0.99950 -0.09415 -0.09103
 H197 H 1.01044 -0.02685 -0.15188
 H198 H 1.01058 0.02477 -0.15254
 H199 H 0.99964 0.09254 -0.09348
 H200 H 0.99085 0.09294 0.03329
 H201 H 1.01117 0.02276 0.15040
 H202 H 0.99700 -0.05521 0.15227
 O203 O 1.04130 0.55427 0.59150
 O204 O 1.07207 0.52738 0.54465
 C205 C 1.06611 0.54712 0.57808
 O206 O 0.96404 0.44439 0.58469
 O207 O 0.93325 0.47411 0.54216
 C208 C 0.93924 0.45216 0.57204
 O209 O 1.04059 0.44742 0.59059
 O210 O 1.07165 0.47502 0.54492
 C211 C 1.06547 0.45465 0.57757
 O212 O 0.96458 0.55782 0.58582
 O213 O 0.93345 0.52897 0.54251
 C214 C 0.93970 0.55057 0.57275
 Zr215 Zr 1.00271 0.53899 0.56475
 O216 O 0.99985 0.53602 0.64200
 O217 O 1.00508 0.58676 0.56826
 Zr218 Zr 1.00238 0.46330 0.56378
 O219 O 1.00102 0.46718 0.64083
 O220 O 1.00402 0.41548 0.56705
 O221 O 1.02758 0.50101 0.57385
 O222 O 0.97798 0.50111 0.57300
 O223 O 0.96435 0.55840 0.41881
 O224 O 0.93341 0.52895 0.46150
 C225 C 0.93951 0.55073 0.43139
 O226 O 1.04116 0.44895 0.41327
 O227 O 1.07199 0.47578 0.46043
 C228 C 1.06598 0.45605 0.42694
 O229 O 0.96427 0.44581 0.41768
 O230 O 0.93329 0.47444 0.46115
 C231 C 0.93943 0.45302 0.43066
 O232 O 1.04113 0.55539 0.41424
 O233 O 1.07196 0.52782 0.46032
 C234 C 1.06594 0.54814 0.42753
 Zr235 Zr 1.00263 0.53999 0.44093
 O236 O 0.99972 0.54017 0.36353
 O237 O 1.00409 0.58781 0.44441
 Zr238 Zr 1.00257 0.46402 0.43995
 O239 O 0.99968 0.46513 0.36257
 O240 O 1.00383 0.41615 0.44197
 Zr241 Zr 1.04407 0.50154 0.50247
 Zr242 Zr 0.96101 0.50160 0.50205
 O243 O 0.97823 0.50204 0.43142
 O244 O 1.02754 0.50208 0.43094
 O245 O 0.97819 0.54546 0.50275
 O246 O 1.02641 0.45799 0.50194
 O247 O 1.02664 0.54514 0.50294
 O248 O 0.97797 0.45773 0.50160
 H249 H 0.96513 0.50097 0.60122
 H250 H 1.03839 0.43983 0.50184
 H251 H 0.96561 0.50220 0.40280
 H252 H 1.03875 0.56326 0.50317
 H253 H 0.99674 0.40802 0.53542
 H254 H 1.00383 0.40931 0.40743
 H255 H 1.01592 0.47641 0.35014
 H256 H 1.01552 0.52844 0.35081
 H257 H 1.00404 0.59522 0.41009
 H258 H 0.99679 0.59462 0.53761
 H259 H 1.01591 0.52420 0.65378
 H260 H 1.00062 0.44618 0.65374
 O261 O 0.45192 -0.04280 0.41142
 O262 O 0.47661 -0.07643 0.45879
 C263 C 0.45851 -0.06995 0.42525
 O264 O 0.55165 0.04243 0.41753
 O265 O 0.52451 0.07624 0.45931
 C266 C 0.54455 0.06962 0.42979
 O267 O 0.54949 -0.04130 0.41259
 O268 O 0.52458 -0.07562 0.45826
 C269 C 0.54321 -0.06864 0.42583
 O270 O 0.44798 0.04108 0.41611
 O271 O 0.47401 0.07566 0.45900
 C272 C 0.45418 0.06846 0.42893
 Zr273 Zr 0.46572 -0.00039 0.43755
 O274 O 0.46842 0.00274 0.36029
 O275 O 0.42216 -0.00330 0.43357
 Zr276 Zr 0.53462 0.00038 0.43876
 O277 O 0.53077 0.00172 0.36170
 O278 O 0.57824 -0.00105 0.43548
 O279 O 0.50040 -0.02753 0.42895
 O280 O 0.50004 0.02700 0.42905
 O281 O 0.44823 0.04182 0.58273
 O282 O 0.47479 0.07595 0.53980
 C283 C 0.45501 0.06908 0.56982
 O284 O 0.54840 -0.04188 0.58962
 O285 O 0.52395 -0.07591 0.54289
 C286 C 0.54211 -0.06913 0.57610
 O287 O 0.55101 0.04225 0.58409
 O288 O 0.52489 0.07624 0.54007
 C289 C 0.54460 0.06947 0.57060
 O290 O 0.45103 -0.04206 0.58860
 O291 O 0.47613 -0.07606 0.54343
 C292 C 0.45751 -0.06931 0.57584
 Zr293 Zr 0.46509 -0.00006 0.56132
 O294 O 0.46522 0.00325 0.63867
 O295 O 0.42146 -0.00177 0.55781
 Zr296 Zr 0.53426 0.00030 0.56256
 O297 O 0.53313 0.00359 0.63990
 O298 O 0.57793 -0.00090 0.56107
 Zr299 Zr 0.50014 -0.04556 0.50056
 Zr300 Zr 0.49970 0.04573 0.49973
 O301 O 0.49957 0.02693 0.57060
 O302 O 0.49973 -0.02728 0.57181
 O303 O 0.45982 0.02656 0.49915
 O304 O 0.53973 -0.02587 0.50094
 O305 O 0.46034 -0.02654 0.49969
 O306 O 0.53974 0.02721 0.50058
 H307 H 0.49998 0.04109 0.40069
 H308 H 0.55642 -0.03882 0.50123
 H309 H 0.49949 0.04085 0.59898
 H310 H 0.44383 -0.03984 0.49957
 H311 H 0.58508 0.00653 0.46733
 H312 H 0.58418 -0.00088 0.59567
 H313 H 0.52348 -0.01459 0.65253
 H314 H 0.47596 -0.01406 0.65164
 H315 H 0.41478 -0.00153 0.59210
 H316 H 0.41496 0.00523 0.46445
 H317 H 0.47888 -0.01509 0.34873
 H318 H 0.54987 0.00242 0.34876
 O319 O 0.53880 0.55354 0.08816
 O320 O 0.56913 0.52571 0.04196
 C321 C 0.56348 0.54587 0.07482
 O322 O 0.46166 0.44352 0.08578
 O323 O 0.43106 0.47279 0.04210
 C324 C 0.43690 0.45121 0.07270
 O325 O 0.53869 0.44742 0.09105
 O326 O 0.56920 0.47444 0.04341
 C327 C 0.56344 0.45492 0.07738
 O328 O 0.46153 0.55637 0.08265
 O329 O 0.43072 0.52641 0.04056
 C330 C 0.43671 0.54831 0.07014
 Zr331 Zr 0.50016 0.53816 0.06177
 O332 O 0.49756 0.53715 0.13915
 O333 O 0.50256 0.58599 0.06226
 Zr334 Zr 0.49999 0.46212 0.06386
 O335 O 0.49868 0.46675 0.14080
 O336 O 0.50198 0.41436 0.06871
 O337 O 0.52496 0.50014 0.07213
 O338 O 0.47573 0.50020 0.07180
 O339 O 0.46176 0.55568 -0.08432
 O340 O 0.43112 0.52679 -0.04008
 C341 C 0.43701 0.54824 -0.07085
 O342 O 0.53793 0.44550 -0.08687
 O343 O 0.56874 0.47316 -0.04097
 C344 C 0.56275 0.45304 -0.07376
 O345 O 0.46050 0.44345 -0.08137
 O346 O 0.43023 0.47334 -0.03858
 C347 C 0.43583 0.45159 -0.06855
 O348 O 0.53888 0.55108 -0.09025
 O349 O 0.56931 0.52399 -0.04271
 C350 C 0.56360 0.54331 -0.07697
 Zr351 Zr 0.50005 0.53726 -0.06209
 O352 O 0.49671 0.53690 -0.13941
 O353 O 0.50213 0.58508 -0.06002
 Zr354 Zr 0.49945 0.46093 -0.06004
 O355 O 0.49637 0.46019 -0.13739
 O356 O 0.50040 0.41314 -0.05548
 Zr357 Zr 0.54115 0.49945 0.00059
 Zr358 Zr 0.45868 0.49974 0.00092
 O359 O 0.47555 0.49917 -0.06994
 O360 O 0.52446 0.49887 -0.07078
 O361 O 0.47565 0.54368 -0.00030
 O362 O 0.52365 0.45582 0.00192
 O363 O 0.52413 0.54323 -0.00047
 O364 O 0.47522 0.45569 0.00214
 H365 H 0.46300 0.50036 0.10018
 H366 H 0.53579 0.43779 0.00254
 H367 H 0.46284 0.49913 -0.09844
 H368 H 0.53654 0.56110 -0.00123
 H369 H 0.49376 0.40640 0.03813
 H370 H 0.49991 0.40566 -0.08965
 H371 H 0.51200 0.47218 -0.15052
 H372 H 0.51175 0.52399 -0.15201
 H373 H 0.50226 0.59203 -0.09458
 H374 H 0.49259 0.59325 0.03283
 H375 H 0.51267 0.52403 0.15128
 H376 H 0.49868 0.44588 0.15425
 C377 C 1.17483 0.15029 0.15173
 C378 C 1.16686 0.12372 0.17610
 C379 C 1.18020 0.11551 0.21975
 C380 C 1.20130 0.13381 0.23896
 C381 C 1.20930 0.16068 0.21483
 C382 C 1.19584 0.16859 0.17085
 C383 C 1.14484 0.10524 0.15624
 C384 C 1.12625 0.09040 0.13882
 C385 C 1.10424 0.07372 0.11754
 C386 C 1.08529 0.06015 0.09871
 H387 H 1.16477 0.15688 0.11786
 H388 H 1.17422 0.09505 0.23907
 H389 H 1.21105 0.12720 0.27307
 H390 H 1.20178 0.18881 0.15086
 C391 C 1.17094 0.66150 0.65808
 C392 C 1.16000 0.63675 0.68387
 C393 C 1.16819 0.63137 0.73225
 C394 C 1.18796 0.64996 0.75424
 C395 C 1.19986 0.67420 0.72807
 C396 C 1.19074 0.68020 0.68010
 C397 C 1.14091 0.61636 0.66051
 C398 C 1.12487 0.59917 0.64134
 C399 C 1.10556 0.57953 0.61918
 C400 C 1.08819 0.56381 0.60038
 H401 H 1.16466 0.66590 0.62063
 H402 H 1.15972 0.61241 0.75264
 H403 H 1.19445 0.64502 0.79140
 H404 H 1.19977 0.69850 0.65896
 C405 C 0.64520 0.17639 0.69625
 C406 C 0.64657 0.15124 0.66534
 C407 C 0.67223 0.13799 0.65547
 C408 C 0.69641 0.14991 0.67607
 C409 C 0.69528 0.17533 0.70687
 C410 C 0.66935 0.18836 0.71687
 C411 C 0.62175 0.13838 0.64455
 C412 C 0.60166 0.12622 0.62709
 C413 C 0.57939 0.10967 0.60674
 C414 C 0.56210 0.09296 0.58977
 H415 H 0.62547 0.18668 0.70455
 H416 H 0.67357 0.11845 0.63172
 H417 H 0.71603 0.13957 0.66722
 H418 H 0.66771 0.20767 0.74099
 C419 C 0.69279 0.62508 0.15407
 C420 C 0.66531 0.63080 0.16656
 C421 C 0.65890 0.65521 0.19706
 C422 C 0.67999 0.67357 0.21566
 C423 C 0.70773 0.66762 0.20401
 C424 C 0.71388 0.64337 0.17263
 C425 C 0.64376 0.61151 0.14817
 C426 C 0.62575 0.59541 0.13241
 C427 C 0.60451 0.57703 0.11334
 C428 C 0.58602 0.56215 0.09627
 H429 H 0.69794 0.60636 0.13024
 H430 H 0.63765 0.65983 0.20686
 H431 H 0.67469 0.69190 0.24012
 H432 H 0.73504 0.63852 0.16256
 C433 C 0.81675 -0.11740 0.21605
 C434 C 0.83012 -0.12657 0.17313
 C435 C 0.82205 -0.15352 0.15034
 C436 C 0.80095 -0.17133 0.17042
 C437 C 0.78754 -0.16251 0.21378
 C438 C 0.79558 -0.13520 0.23621
 C439 C 0.85231 -0.10868 0.15253
 C440 C 0.87106 -0.09425 0.13472
 C441 C 0.89319 -0.07784 0.11335
 C442 C 0.91218 -0.06418 0.09484
 H443 H 0.82282 -0.09661 0.23412
 H444 H 0.83212 -0.16084 0.11703
 H445 H 0.79498 -0.19192 0.15173
 H446 H 0.78585 -0.12790 0.26982
 C447 C 0.83519 0.33620 0.65538
 C448 C 0.84144 0.36506 0.67323
 C449 C 0.82732 0.37620 0.71377
 C450 C 0.80640 0.35909 0.73553
 C451 C 0.79890 0.33030 0.71701
 C452 C 0.81426 0.31885 0.67716
 C453 C 0.86201 0.38368 0.64984
 C454 C 0.87908 0.39983 0.63101
 C455 C 0.89927 0.41883 0.60978
 C456 C 0.91707 0.43459 0.59225
 H457 H 0.84609 0.32733 0.62394
 H458 H 0.83235 0.39831 0.72847
 H459 H 0.79663 0.36845 0.76766
 H460 H 0.80926 0.29732 0.66059
 C461 C 0.34343 -0.13540 0.71508
 C462 C 0.35616 -0.14967 0.67533
 C463 C 0.34370 -0.17513 0.65428
 C464 C 0.31878 -0.18635 0.67296
 C465 C 0.30586 -0.17226 0.71305
 C466 C 0.31847 -0.14659 0.73383
 C467 C 0.38117 -0.13718 0.65461
 C468 C 0.40135 -0.12539 0.63678
 C469 C 0.42363 -0.10925 0.61544
 C470 C 0.44070 -0.09276 0.59715
 H471 H 0.35275 -0.11554 0.73149
 H472 H 0.35311 -0.18615 0.62313
 H473 H 0.30943 -0.20587 0.65562
 H474 H 0.30924 -0.13542 0.76498
 C475 C 0.30676 0.37591 0.15658
 C476 C 0.33388 0.36545 0.15931
 C477 C 0.33934 0.33708 0.17997
 C478 C 0.31777 0.31939 0.19867
 C479 C 0.29017 0.32990 0.19744
 C480 C 0.28515 0.35841 0.17526
 C481 C 0.35605 0.38411 0.14134
 C482 C 0.37444 0.40000 0.12626
 C483 C 0.39594 0.41851 0.10831
 C484 C 0.41448 0.43388 0.09246
 H485 H 0.30226 0.39769 0.13998
 H486 H 0.36036 0.32881 0.18235
 H487 H 0.32320 0.29824 0.21626
 H488 H 0.26444 0.36714 0.17076
 C489 C 0.82331 0.15395 -0.15004
 C490 C 0.83117 0.12714 -0.17332
 C491 C 0.81780 0.11842 -0.21662
 C492 C 0.79678 0.13647 -0.23659
 C493 C 0.78889 0.16359 -0.21357
 C494 C 0.80236 0.17201 -0.16992
 C495 C 0.85310 0.10888 -0.15280
 C496 C 0.87161 0.09410 -0.13507
 C497 C 0.89350 0.07729 -0.11381
 C498 C 0.91234 0.06336 -0.09538
 H499 H 0.83339 0.16092 -0.11645
 H500 H 0.82371 0.09776 -0.23509
 H501 H 0.78701 0.12947 -0.27042
 H502 H 0.79650 0.19243 -0.15079
 C503 C 0.83524 0.66611 0.34770
 C504 C 0.84174 0.63740 0.32965
 C505 C 0.82772 0.62618 0.28890
 C506 C 0.80665 0.64301 0.26716
 C507 C 0.79887 0.67160 0.28591
 C508 C 0.81416 0.68319 0.32592
 C509 C 0.86239 0.61896 0.35309
 C510 C 0.87949 0.60290 0.37194
 C511 C 0.89967 0.58396 0.39322
 C512 C 0.91743 0.56824 0.41087
 H513 H 0.84607 0.67504 0.37930
 H514 H 0.83293 0.60420 0.27404
 H515 H 0.79695 0.63360 0.23489
 H516 H 0.80896 0.70459 0.34262
 C517 C 0.35186 0.17783 0.31207
 C518 C 0.35145 0.14912 0.33363
 C519 C 0.32682 0.13250 0.33429
 C520 C 0.30266 0.14452 0.31383
 C521 C 0.30247 0.17371 0.29223
 C522 C 0.32777 0.19001 0.29162
 C523 C 0.37626 0.13632 0.35458
 C524 C 0.39640 0.12430 0.37213
 C525 C 0.41882 0.10802 0.39257
 C526 C 0.43632 0.09159 0.40962
 H527 H 0.37089 0.19078 0.31067
 H528 H 0.32620 0.11022 0.35104
 H529 H 0.28400 0.13117 0.31710
 H530 H 0.32959 0.21180 0.27373
 C531 C 0.34011 0.66421 -0.17383
 C532 C 0.33444 0.63583 -0.15332
 C533 C 0.30719 0.62574 -0.14976
 C534 C 0.28565 0.64358 -0.16766
 C535 C 0.29087 0.67204 -0.18990
 C536 C 0.31860 0.68225 -0.19175
 C537 C 0.35653 0.61672 -0.13647
 C538 C 0.37483 0.60045 -0.12232
 C539 C 0.39622 0.58151 -0.10536
 C540 C 0.41467 0.56583 -0.09016
 H541 H 0.36122 0.67220 -0.17681
 H542 H 0.30255 0.60397 -0.13323
 H543 H 0.26486 0.63511 -0.16266
 H544 H 0.32415 0.70337 -0.20936
 C545 C 1.19459 -0.11361 -0.17063
 C546 C 1.16702 -0.12182 -0.17921
 C547 C 1.16118 -0.14776 -0.20675
 C548 C 1.18268 -0.16563 -0.22490
 C549 C 1.21046 -0.15789 -0.21575
 C550 C 1.21615 -0.13145 -0.18883
 C551 C 1.14470 -0.10433 -0.15851
 C552 C 1.12584 -0.09025 -0.14068
 C553 C 1.10359 -0.07430 -0.11912
 C554 C 1.08454 -0.06116 -0.10009
 H555 H 1.19943 -0.09367 -0.14924
 H556 H 1.13998 -0.15438 -0.21377
 H557 H 1.17756 -0.18556 -0.24606
 H558 H 1.23726 -0.12502 -0.18064
 C559 C 1.17011 0.34105 0.34864
 C560 C 1.15951 0.36593 0.32276
 C561 C 1.16796 0.37133 0.27458
 C562 C 1.18763 0.35263 0.25288
 C563 C 1.19918 0.32826 0.27915
 C564 C 1.18980 0.32224 0.32691
 C565 C 1.14051 0.38643 0.34581
 C566 C 1.12454 0.40372 0.36466
 C567 C 1.10532 0.42349 0.38643
 C568 C 1.08801 0.43930 0.40493
 H569 H 1.16363 0.33662 0.38595
 H570 H 1.15977 0.39038 0.25410
 H571 H 1.19430 0.35760 0.21587
 H572 H 1.19855 0.30383 0.34812
 C573 C 0.65622 -0.13827 0.28788
 C574 C 0.64409 -0.15075 0.32995
 C575 C 0.65695 -0.17503 0.35384
 C576 C 0.68168 -0.18686 0.33571
 C577 C 0.69401 -0.17453 0.29337
 C578 C 0.68098 -0.15005 0.26969
 C579 C 0.61931 -0.13756 0.34994
 C580 C 0.59930 -0.12524 0.36710
 C581 C 0.57720 -0.10864 0.38758
 C582 C 0.56019 -0.09198 0.40518
 H583 H 0.64659 -0.11933 0.26923
 H584 H 0.64799 -0.18466 0.38675
 H585 H 0.69135 -0.20544 0.35519
 H586 H 0.68973 -0.14030 0.23673
 C587 C 0.69215 0.37518 -0.15231
 C588 C 0.66475 0.36889 -0.16506
 C589 C 0.65867 0.34429 -0.19547
 C590 C 0.68000 0.32629 -0.21372
 C591 C 0.70766 0.33280 -0.20181
 C592 C 0.71348 0.35726 -0.17052
 C593 C 0.64296 0.38782 -0.14700
 C594 C 0.62481 0.40369 -0.13145
 C595 C 0.60351 0.42187 -0.11251
 C596 C 0.58508 0.43669 -0.09542
 H597 H 0.69705 0.39405 -0.12855
 H598 H 0.63749 0.33923 -0.20547
 H599 H 0.67495 0.30780 -0.23812
 H600 H 0.73456 0.36255 -0.16024
 C601 C 1.17474 0.14899 -0.16703
 C602 C 1.14809 0.14248 -0.18359
 C603 C 1.13603 0.16080 -0.21954
 C604 C 1.15032 0.18581 -0.23838
 C605 C 1.17718 0.19319 -0.22158
 C606 C 1.18918 0.17393 -0.18577
 C607 C 1.13239 0.11823 -0.16164
 C608 C 1.11831 0.09893 -0.14261
 C609 C 1.10043 0.07786 -0.11983
 C610 C 1.08367 0.06161 -0.10025
 H611 H 1.18416 0.13522 -0.13866
 H612 H 1.11538 0.15591 -0.23278
 H613 H 1.14033 0.19871 -0.26708
 H614 H 1.20913 0.17875 -0.16975
 C615 C 1.17415 0.64919 0.30893
 C616 C 1.14875 0.65294 0.33213
 C617 C 1.13735 0.68189 0.33602
 C618 C 1.15134 0.70708 0.31711
 C619 C 1.17727 0.70391 0.29394
 C620 C 1.18826 0.67427 0.29002
 C621 C 1.13414 0.62719 0.35182
 C622 C 1.12099 0.60641 0.36867
 C623 C 1.10401 0.58354 0.38886
 C624 C 1.08772 0.56592 0.40643
 H625 H 1.18301 0.62681 0.30513
 H626 H 1.11768 0.68506 0.35414
 H627 H 1.14214 0.72908 0.32282
 H628 H 1.20732 0.66992 0.27073
 C629 C 0.65640 0.17725 0.35808
 C630 C 0.63238 0.16933 0.33245
 C631 C 0.62795 0.18055 0.28516
 C632 C 0.64710 0.20027 0.26397
 C633 C 0.67094 0.20905 0.28991
 C634 C 0.67564 0.19699 0.33690
 C635 C 0.61218 0.14972 0.35451
 C636 C 0.59535 0.13296 0.37246
 C637 C 0.57623 0.11245 0.39291
 C638 C 0.56092 0.09370 0.40998
 H639 H 0.66004 0.16854 0.39468
 H640 H 0.60954 0.17433 0.26487
 H641 H 0.64315 0.20895 0.22748
 H642 H 0.69367 0.20362 0.35783
 C643 C 0.68013 0.64205 -0.16713
 C644 C 0.65502 0.63220 -0.18689
 C645 C 0.64358 0.64728 -0.22701
 C646 C 0.65643 0.67297 -0.24608
 C647 C 0.68110 0.68434 -0.22523
 C648 C 0.69327 0.66772 -0.18641
 C649 C 0.63912 0.60894 -0.16322
 C650 C 0.62387 0.59117 -0.14350
 C651 C 0.60417 0.57249 -0.12051
 C652 C 0.58612 0.55826 -0.10077
 H653 H 0.68899 0.63065 -0.13563
 H654 H 0.62420 0.63969 -0.24275
 H655 H 0.64694 0.68366 -0.27761
 H656 H 0.71186 0.67553 -0.16835
 C657 C 0.82290 -0.15720 -0.15365
 C658 C 0.84639 -0.14509 -0.17637
 C659 C 0.85535 -0.15706 -0.22099
 C660 C 0.84129 -0.18139 -0.24230
 C661 C 0.81803 -0.19418 -0.21924
 C662 C 0.80876 -0.18153 -0.17498
 C663 C 0.86248 -0.12182 -0.15265
 C664 C 0.87709 -0.10324 -0.13306
 C665 C 0.89563 -0.08273 -0.11059
 C666 C 0.91280 -0.06653 -0.09203
 H667 H 0.81589 -0.14831 -0.11892
 H668 H 0.87353 -0.14794 -0.23888
 H669 H 0.84874 -0.19036 -0.27667
 H670 H 0.79113 -0.19109 -0.15603
 C671 C 0.83316 0.35347 0.30569
 C672 C 0.85570 0.34853 0.33679
 C673 C 0.86394 0.31889 0.34780
 C674 C 0.84956 0.29424 0.32817
 C675 C 0.82668 0.29896 0.29730
 C676 C 0.81874 0.32887 0.28605
 C677 C 0.87073 0.37377 0.35694
 C678 C 0.88416 0.39422 0.37393
 C679 C 0.90136 0.41690 0.39390
 C680 C 0.91771 0.43463 0.41085
 H681 H 0.82674 0.37630 0.29660
 H682 H 0.88143 0.31482 0.37176
 H683 H 0.85598 0.27151 0.33787
 H684 H 0.80146 0.33323 0.26180
 C685 C 0.34788 -0.17667 0.34953
 C686 C 0.37134 -0.16794 0.32303
 C687 C 0.37461 -0.17746 0.27463
 C688 C 0.35486 -0.19630 0.25315
 C689 C 0.33158 -0.20589 0.27988
 C690 C 0.32805 -0.19552 0.32806
 C691 C 0.39203 -0.14911 0.34533
 C692 C 0.40907 -0.13284 0.36378
 C693 C 0.42813 -0.11271 0.38524
 C694 C 0.44307 -0.09409 0.40354
 H695 H 0.34512 -0.16926 0.38698
 H696 H 0.39256 -0.17058 0.25367
 H697 H 0.35792 -0.20368 0.21577
 H698 H 0.31049 -0.20283 0.34963
 C699 C 0.31964 0.35562 -0.17560
 C700 C 0.34574 0.35205 -0.15444
 C701 C 0.35793 0.32350 -0.15257
 C702 C 0.34459 0.29862 -0.17305
 C703 C 0.31861 0.30173 -0.19621
 C704 C 0.30604 0.33065 -0.19602
 C705 C 0.36110 0.37747 -0.13635
 C706 C 0.37597 0.39719 -0.12124
 C707 C 0.39536 0.41819 -0.10343
 C708 C 0.41330 0.43439 -0.08783
 H709 H 0.31010 0.37777 -0.17737
 H710 H 0.37802 0.32047 -0.13567
 H711 H 0.35462 0.27685 -0.16953
 H712 H 0.28647 0.33466 -0.21407
 C713 C 1.13710 -0.16014 0.22175
 C714 C 1.14857 -0.14251 0.18432
 C715 C 1.17489 -0.14930 0.16680
 C716 C 1.18956 -0.17388 0.18600
 C717 C 1.17813 -0.19250 0.22324
 C718 C 1.15164 -0.18479 0.24106
 C719 C 1.13257 -0.11872 0.16187
 C720 C 1.11831 -0.09979 0.14242
 C721 C 1.10030 -0.07909 0.11920
 C722 C 1.08350 -0.06305 0.09935
 H723 H 1.11672 -0.15501 0.23576
 H724 H 1.18385 -0.13606 0.13732
 H725 H 1.20920 -0.17901 0.16921
 H726 H 1.14214 -0.19720 0.27085
 C727 C 1.16971 0.35296 0.70475
 C728 C 1.14765 0.34929 0.67216
 C729 C 1.13925 0.32013 0.65854
 C730 C 1.15301 0.29471 0.67705
 C731 C 1.17540 0.29816 0.70942
 C732 C 1.18351 0.32758 0.72329
 C733 C 1.13326 0.37527 0.65296
 C734 C 1.12022 0.39616 0.63635
 C735 C 1.10334 0.41911 0.61630
 C736 C 1.08714 0.43678 0.59875
 H737 H 1.17625 0.37540 0.71583
 H738 H 1.12214 0.31703 0.63340
 H739 H 1.14648 0.27241 0.66532
 H740 H 1.20044 0.33096 0.74869
 C741 C 0.62361 -0.20331 0.66097
 C742 C 0.62945 -0.17248 0.66440
 C743 C 0.65458 -0.16288 0.68451
 C744 C 0.67361 -0.18414 0.70220
 C745 C 0.66763 -0.21549 0.70059
 C746 C 0.64242 -0.22457 0.67860
 C747 C 0.60949 -0.15089 0.64708
 C748 C 0.59265 -0.13309 0.63209
 C749 C 0.57345 -0.11196 0.61374
 C750 C 0.55816 -0.09306 0.59712
 H751 H 0.60444 -0.21100 0.64457
 H752 H 0.65931 -0.13895 0.68718
 H753 H 0.69225 -0.17568 0.71930
 H754 H 0.63726 -0.24820 0.67350
 C755 C 0.67740 0.36291 0.19933
 C756 C 0.65521 0.35881 0.16707
 C757 C 0.64734 0.32962 0.15298
 C758 C 0.66099 0.30450 0.17213
 C759 C 0.68274 0.30827 0.20568
 C760 C 0.69125 0.33769 0.21843
 C761 C 0.63903 0.38395 0.15027
 C762 C 0.62367 0.40325 0.13533
 C763 C 0.60393 0.42356 0.11667
 C764 C 0.58588 0.43895 0.09947
 H765 H 0.68354 0.38545 0.21057
 H766 H 0.63018 0.32625 0.12801
 H767 H 0.65431 0.28207 0.16129
 H768 H 0.70787 0.34109 0.24446
 C769 C 0.82698 0.15855 0.15453
 C770 C 0.85061 0.14663 0.17694
 C771 C 0.86015 0.15901 0.22100
 C772 C 0.84633 0.18342 0.24230
 C773 C 0.82274 0.19579 0.21976
 C774 C 0.81311 0.18293 0.17578
 C775 C 0.86602 0.12292 0.15343
 C776 C 0.87988 0.10390 0.13364
 C777 C 0.89753 0.08286 0.11072
 C778 C 0.91410 0.06629 0.09178
 H779 H 0.81956 0.14936 0.12019
 H780 H 0.87849 0.15005 0.23858
 H781 H 0.85407 0.19261 0.27639
 H782 H 0.79527 0.19222 0.15710
 C783 C 0.83233 0.64852 0.69558
 C784 C 0.85490 0.65419 0.66499
 C785 C 0.86256 0.68410 0.65426
 C786 C 0.84754 0.70827 0.67364
 C787 C 0.82461 0.70279 0.70395
 C788 C 0.81728 0.67263 0.71496
 C789 C 0.87048 0.62941 0.64503
 C790 C 0.88424 0.60924 0.62828
 C791 C 0.90164 0.58675 0.60869
 C792 C 0.91804 0.56906 0.59210
 H793 H 0.82635 0.62548 0.70445
 H794 H 0.88006 0.68874 0.63070
 H795 H 0.85351 0.73121 0.66415
 H796 H 0.79998 0.66768 0.73879
 C797 C 0.37122 0.17591 0.71799
 C798 C 0.36710 0.16673 0.66958
 C799 C 0.34352 0.17612 0.64397
 C800 C 0.32445 0.19535 0.66635
 C801 C 0.32891 0.20541 0.71451
 C802 C 0.35225 0.19511 0.74035
 C803 C 0.38720 0.14772 0.64643
 C804 C 0.40403 0.13142 0.62783
 C805 C 0.42320 0.11137 0.60689
 C806 C 0.43857 0.09292 0.58962
 H807 H 0.38928 0.16853 0.73824
 H808 H 0.34012 0.16899 0.60652
 H809 H 0.30679 0.20320 0.64550
 H810 H 0.35599 0.20227 0.77767
 C811 C 0.32317 0.64268 0.18412
 C812 C 0.34483 0.64716 0.15098
 C813 C 0.35223 0.67649 0.13653
 C814 C 0.33873 0.70138 0.15642
 C815 C 0.31764 0.69721 0.19105
 C816 C 0.30950 0.66765 0.20395
 C817 C 0.36124 0.62224 0.13452
 C818 C 0.37669 0.60284 0.12064
 C819 C 0.39642 0.58201 0.10400
 C820 C 0.41440 0.56579 0.08907
 H821 H 0.31744 0.62003 0.19571
 H822 H 0.36901 0.68015 0.11095
 H823 H 0.34513 0.72395 0.14553
 H824 H 0.29342 0.66392 0.23085
   
