data_POSCAR
  _audit_creation_date              2014-09-24
  _audit_creation_method            'ToBaCCo'
  _symmetry_space_group_name_H-M    'P1'
  _symmetry_Int_Tables_number       1
  _symmetry_cell_setting            triclinic
  loop_
  _symmetry_equiv_pos_as_xyz
 x,y,z
_cell_length_a 54.0811
_cell_length_b 54.1556
_cell_length_c 54.3046
_cell_angle_alpha 89.999100
_cell_angle_beta 89.997100
_cell_angle_gamma 90.003000
loop_
  _atom_site_label
  _atom_site_type_symbol
  _atom_site_fract_x
  _atom_site_fract_y
  _atom_site_fract_z
N1 N 0.28967 0.24001 0.22069
 N2 N 0.27952 0.25986 0.21104
 C3 C 0.29258 0.26669 0.19103
 C4 C 0.31181 0.25025 0.18819
 C5 C 0.30954 0.23356 0.20720
 H6 H 0.28846 0.28236 0.17937
 H7 H 0.32143 0.21794 0.21093
 Cu8 Cu 0.25016 0.27449 0.22565
 Cu9 Cu 0.27639 0.22397 0.24997
 Cu10 Cu 0.22394 0.25012 0.27607
 N11 N 0.22080 0.28912 0.24026
 N12 N 0.21063 0.27941 0.26003
 C13 C 0.19067 0.29281 0.26638
 C14 C 0.18832 0.31180 0.24969
 C15 C 0.20761 0.30905 0.23333
 H16 H 0.17877 0.28906 0.28195
 H17 H 0.21162 0.32067 0.21764
 N18 N 0.24022 0.22049 0.28954
 N19 N 0.26018 0.21053 0.27961
 C20 C 0.26680 0.19062 0.29295
 C21 C 0.25023 0.18808 0.31202
 C22 C 0.23363 0.20717 0.30945
 H23 H 0.28247 0.17882 0.28914
 H24 H 0.21797 0.21101 0.32122
 H25 H 0.24018 0.23516 0.24506
 H26 H 0.26007 0.25503 0.26492
 N27 N 0.71013 -0.24059 0.22005
 N28 N 0.71998 -0.26075 0.21070
 C29 C 0.70690 -0.26759 0.19069
 C30 C 0.68798 -0.25080 0.18760
 C31 C 0.69045 -0.23392 0.20640
 H32 H 0.71080 -0.28346 0.17923
 H33 H 0.67884 -0.21803 0.20989
 Cu34 Cu 0.74912 -0.27548 0.22574
 Cu35 Cu 0.72349 -0.22437 0.24924
 Cu36 Cu 0.77601 -0.25055 0.27534
 N37 N 0.77879 -0.29006 0.23991
 N38 N 0.78927 -0.28002 0.25938
 C39 C 0.80945 -0.29322 0.26554
 C40 C 0.81162 -0.31242 0.24903
 C41 C 0.79200 -0.31000 0.23297
 H42 H 0.82160 -0.28916 0.28084
 H43 H 0.78776 -0.32182 0.21748
 N44 N 0.75978 -0.22078 0.28874
 N45 N 0.73981 -0.21083 0.27881
 C46 C 0.73316 -0.19093 0.29216
 C47 C 0.74972 -0.18837 0.31124
 C48 C 0.76634 -0.20745 0.30867
 H49 H 0.71745 -0.17918 0.28837
 H50 H 0.78196 -0.21131 0.32048
 H51 H 0.75953 -0.23582 0.24422
 H52 H 0.73967 -0.25510 0.26463
 N53 N 0.71061 0.24022 0.77900
 N54 N 0.72076 0.26007 0.78867
 C55 C 0.70763 0.26690 0.80865
 C56 C 0.68840 0.25043 0.81147
 C57 C 0.69072 0.23375 0.79246
 H58 H 0.71172 0.28256 0.82032
 H59 H 0.67885 0.21812 0.78872
 Cu60 Cu 0.75016 0.27475 0.77405
 Cu61 Cu 0.72391 0.22418 0.74974
 Cu62 Cu 0.77638 0.25036 0.72367
 N63 N 0.77959 0.28943 0.75946
 N64 N 0.78976 0.27972 0.73968
 C65 C 0.80974 0.29315 0.73331
 C66 C 0.81208 0.31217 0.75001
 C67 C 0.79276 0.30941 0.76637
 H68 H 0.82163 0.28937 0.71774
 H69 H 0.78871 0.32101 0.78207
 N70 N 0.76010 0.22067 0.71018
 N71 N 0.74014 0.21071 0.72012
 C72 C 0.73350 0.19079 0.70679
 C73 C 0.75007 0.18821 0.68772
 C74 C 0.76667 0.20732 0.69028
 H75 H 0.71783 0.17900 0.71062
 H76 H 0.78233 0.21114 0.67850
 H77 H 0.76004 0.23535 0.75471
 H78 H 0.74015 0.25522 0.73485
 N79 N 0.28952 -0.24016 0.77986
 N80 N 0.27933 -0.25998 0.78955
 C81 C 0.29247 -0.26684 0.80951
 C82 C 0.31177 -0.25043 0.81229
 C83 C 0.30944 -0.23374 0.79329
 H84 H 0.28839 -0.28253 0.82114
 H85 H 0.32134 -0.21813 0.78952
 Cu86 Cu 0.24990 -0.27472 0.77500
 Cu87 Cu 0.27621 -0.22414 0.75060
 Cu88 Cu 0.22374 -0.25027 0.72454
 N89 N 0.22046 -0.28931 0.76030
 N90 N 0.21031 -0.27960 0.74051
 C91 C 0.19035 -0.29304 0.73410
 C92 C 0.18800 -0.31208 0.75079
 C93 C 0.20728 -0.30930 0.76719
 H94 H 0.17849 -0.28925 0.71851
 H95 H 0.21135 -0.32094 0.78286
 N96 N 0.24002 -0.22060 0.71105
 N97 N 0.26000 -0.21066 0.72098
 C98 C 0.26665 -0.19074 0.70764
 C99 C 0.25008 -0.18816 0.68857
 C100 C 0.23346 -0.20725 0.69114
 H101 H 0.28233 -0.17897 0.71145
 H102 H 0.21781 -0.21107 0.67936
 H103 H 0.24008 -0.23529 0.75557
 H104 H 0.25995 -0.25521 0.73575
 N105 N 0.71066 -0.24010 0.77948
 N106 N 0.72088 -0.25989 0.78919
 C107 C 0.70775 -0.26675 0.80915
 C108 C 0.68846 -0.25035 0.81193
 C109 C 0.69074 -0.23369 0.79290
 H110 H 0.71184 -0.28243 0.82080
 H111 H 0.67882 -0.21811 0.78912
 Cu112 Cu 0.75027 -0.27454 0.77454
 Cu113 Cu 0.72389 -0.22408 0.75016
 Cu114 Cu 0.77632 -0.25025 0.72403
 N115 N 0.77965 -0.28924 0.75989
 N116 N 0.78975 -0.27958 0.74004
 C117 C 0.80965 -0.29305 0.73358
 C118 C 0.81202 -0.31206 0.75029
 C119 C 0.79281 -0.30925 0.76675
 H120 H 0.82146 -0.28932 0.71794
 H121 H 0.78876 -0.32087 0.78244
 N122 N 0.76003 -0.22058 0.71055
 N123 N 0.74007 -0.21063 0.72051
 C124 C 0.73342 -0.19071 0.70718
 C125 C 0.74996 -0.18815 0.68808
 C126 C 0.76657 -0.20725 0.69063
 H127 H 0.71775 -0.17892 0.71102
 H128 H 0.78221 -0.21108 0.67883
 H129 H 0.74011 -0.25517 0.73530
 H130 H 0.76003 -0.23519 0.75502
 N131 N 0.28953 0.24014 0.77931
 N132 N 0.27932 0.25993 0.78901
 C133 C 0.29247 0.26685 0.80892
 C134 C 0.31176 0.25047 0.81170
 C135 C 0.30947 0.23376 0.79272
 H136 H 0.28838 0.28254 0.82054
 H137 H 0.32141 0.21819 0.78896
 Cu138 Cu 0.24995 0.27469 0.77456
 Cu139 Cu 0.27620 0.22412 0.75009
 Cu140 Cu 0.22375 0.25022 0.72405
 N141 N 0.22057 0.28916 0.75983
 N142 N 0.21043 0.27949 0.74003
 C143 C 0.19053 0.29295 0.73362
 C144 C 0.18822 0.31197 0.75029
 C145 C 0.20746 0.30918 0.76666
 H146 H 0.17865 0.28924 0.71802
 H147 H 0.21153 0.32082 0.78232
 N148 N 0.23999 0.22058 0.71061
 N149 N 0.25996 0.21064 0.72052
 C150 C 0.26657 0.19071 0.70720
 C151 C 0.24997 0.18815 0.68816
 C152 C 0.23337 0.20724 0.69073
 H153 H 0.28224 0.17892 0.71099
 H154 H 0.21770 0.21106 0.67897
 H155 H 0.25989 0.25527 0.73524
 H156 H 0.24003 0.23533 0.75504
 N157 N 0.28979 -0.24012 0.22098
 N158 N 0.27961 -0.25992 0.21129
 C159 C 0.29273 -0.26679 0.19131
 C160 C 0.31199 -0.25037 0.18854
 C161 C 0.30970 -0.23368 0.20755
 H162 H 0.28864 -0.28246 0.17966
 H163 H 0.32158 -0.21806 0.21129
 Cu164 Cu 0.25028 -0.27462 0.22586
 Cu165 Cu 0.27648 -0.22408 0.25024
 Cu166 Cu 0.22398 -0.25020 0.27626
 N167 N 0.22085 -0.28914 0.24041
 N168 N 0.21068 -0.27946 0.26018
 C169 C 0.19071 -0.29286 0.26653
 C170 C 0.18838 -0.31184 0.24982
 C171 C 0.20767 -0.30909 0.23348
 H172 H 0.17879 -0.28909 0.28208
 H173 H 0.21170 -0.32073 0.21780
 N174 N 0.24026 -0.22059 0.28975
 N175 N 0.26024 -0.21064 0.27985
 C176 C 0.26686 -0.19074 0.29321
 C177 C 0.25026 -0.18821 0.31226
 C178 C 0.23365 -0.20729 0.30966
 H179 H 0.28254 -0.17895 0.28943
 H180 H 0.21797 -0.21112 0.32141
 H181 H 0.26011 -0.25514 0.26514
 H182 H 0.24026 -0.23524 0.24528
 N183 N 0.71047 0.23988 0.22039
 N184 N 0.72065 0.25971 0.21073
 C185 C 0.70754 0.26661 0.19078
 C186 C 0.68827 0.25021 0.18797
 C187 C 0.69055 0.23349 0.20694
 H188 H 0.71163 0.28230 0.17918
 H189 H 0.67863 0.21790 0.21066
 Cu190 Cu 0.74999 0.27447 0.22522
 Cu191 Cu 0.72376 0.22386 0.24962
 Cu192 Cu 0.77618 0.25000 0.27574
 N193 N 0.77933 0.28896 0.23997
 N194 N 0.78948 0.27927 0.25976
 C195 C 0.80939 0.29274 0.26616
 C196 C 0.81170 0.31174 0.24948
 C197 C 0.79246 0.30894 0.23310
 H198 H 0.82128 0.28903 0.28174
 H199 H 0.78841 0.32058 0.21744
 N200 N 0.75994 0.22034 0.28916
 N201 N 0.73998 0.21038 0.27922
 C202 C 0.73337 0.19045 0.29253
 C203 C 0.74994 0.18790 0.31160
 C204 C 0.76653 0.20701 0.30905
 H205 H 0.71771 0.17865 0.28871
 H206 H 0.78219 0.21084 0.32083
 H207 H 0.74007 0.25495 0.26455
 H208 H 0.75995 0.23508 0.24475
 C209 C 0.25006 0.07775 0.51279
 C210 C 0.25007 0.07775 0.48751
 C211 C 0.25010 0.05321 0.48014
 N212 N 0.25011 0.03840 0.50017
 C213 C 0.25009 0.05323 0.52018
 C214 C 0.25012 0.04516 0.45529
 C215 C 0.25014 0.02015 0.44742
 C216 C 0.25016 0.01262 0.42298
 C217 C 0.25016 -0.01279 0.42301
 C218 C 0.25015 -0.02027 0.44747
 N219 N 0.25013 -0.00004 0.46207
 C220 C 0.25015 -0.04526 0.45540
 C221 C 0.25015 -0.05329 0.48027
 C222 C 0.25015 -0.07781 0.48766
 C223 C 0.25015 -0.07781 0.51294
 C224 C 0.25016 -0.05328 0.52031
 N225 N 0.25015 -0.03846 0.50028
 C226 C 0.25016 -0.04523 0.54516
 C227 C 0.25014 -0.02021 0.55303
 C228 C 0.25012 -0.01268 0.57747
 C229 C 0.25010 0.01273 0.57743
 C230 C 0.25011 0.02021 0.55297
 N231 N 0.25014 -0.00002 0.53838
 C232 C 0.25008 0.04520 0.54504
 H233 H 0.25004 0.09401 0.52438
 H234 H 0.25006 0.09399 0.47590
 H235 H 0.25016 -0.00003 0.51952
 H236 H 0.25016 0.02420 0.40673
 H237 H 0.25017 -0.02440 0.40679
 H238 H 0.25014 -0.09407 0.47606
 H239 H 0.25015 -0.09405 0.52455
 H240 H 0.25008 0.02435 0.59365
 H241 H 0.25010 -0.00003 0.48093
 H242 H 0.25012 -0.02425 0.59372
 C243 C 0.74981 -0.01286 0.57719
 C244 C 0.74983 0.01249 0.57719
 C245 C 0.74982 0.01988 0.55273
 N246 N 0.74981 -0.00019 0.53795
 C247 C 0.74980 -0.02027 0.55273
 C248 C 0.74983 0.04481 0.54472
 C249 C 0.74984 0.05271 0.51978
 C250 C 0.74987 0.07723 0.51227
 C251 C 0.74987 0.07720 0.48693
 C252 C 0.74983 0.05268 0.47946
 N253 N 0.74981 0.03804 0.49963
 C254 C 0.74982 0.04473 0.45453
 C255 C 0.74979 0.01980 0.44652
 C256 C 0.74978 0.01241 0.42205
 C257 C 0.74975 -0.01294 0.42205
 C258 C 0.74975 -0.02035 0.44651
 N259 N 0.74978 -0.00027 0.46129
 C260 C 0.74973 -0.04527 0.45452
 C261 C 0.74974 -0.05318 0.47947
 C262 C 0.74974 -0.07769 0.48697
 C263 C 0.74975 -0.07767 0.51232
 C264 C 0.74977 -0.05314 0.51979
 N265 N 0.74976 -0.03850 0.49962
 C266 C 0.74978 -0.04520 0.54472
 H267 H 0.74981 -0.02449 0.59341
 H268 H 0.74984 0.02412 0.59340
 H269 H 0.74976 -0.01959 0.49962
 H270 H 0.74989 0.09351 0.52382
 H271 H 0.74989 0.09347 0.47535
 H272 H 0.74978 0.02404 0.40584
 H273 H 0.74973 -0.02457 0.40583
 H274 H 0.74975 -0.09393 0.52390
 H275 H 0.74978 0.01912 0.49963
 H276 H 0.74973 -0.09397 0.47541
 C277 C 0.51273 0.25067 0.07740
 C278 C 0.48735 0.25067 0.07742
 C279 C 0.47992 0.25068 0.05296
 N280 N 0.50001 0.25068 0.03816
 C281 C 0.52012 0.25068 0.05292
 C282 C 0.45497 0.25068 0.04497
 C283 C 0.44703 0.25069 0.02004
 C284 C 0.42248 0.25071 0.01256
 C285 C 0.42247 0.25072 -0.01278
 C286 C 0.44703 0.25071 -0.02027
 N287 N 0.46170 0.25069 -0.00012
 C288 C 0.45496 0.25072 -0.04520
 C289 C 0.47991 0.25072 -0.05324
 C290 C 0.48730 0.25074 -0.07771
 C291 C 0.51268 0.25074 -0.07774
 C292 C 0.52012 0.25072 -0.05329
 N293 N 0.50003 0.25071 -0.03848
 C294 C 0.54508 0.25071 -0.04530
 C295 C 0.55301 0.25069 -0.02036
 C296 C 0.57756 0.25066 -0.01287
 C297 C 0.57756 0.25065 0.01247
 C298 C 0.55300 0.25068 0.01995
 N299 N 0.53833 0.25071 -0.00020
 C300 C 0.54507 0.25067 0.04489
 H301 H 0.52439 0.25067 0.09360
 H302 H 0.47572 0.25067 0.09364
 H303 H 0.51939 0.25076 -0.00019
 H304 H 0.40618 0.25072 0.02413
 H305 H 0.40617 0.25074 -0.02435
 H306 H 0.47564 0.25075 -0.09391
 H307 H 0.52431 0.25075 -0.09396
 H308 H 0.59385 0.25063 0.02404
 H309 H 0.48064 0.25066 -0.00014
 H310 H 0.59386 0.25064 -0.02444
 C311 C 0.57828 0.74940 -0.01217
 C312 C 0.57830 0.74938 0.01311
 C313 C 0.55374 0.74936 0.02051
 N314 N 0.53889 0.74938 0.00050
 C315 C 0.55371 0.74940 -0.01954
 C316 C 0.54570 0.74935 0.04538
 C317 C 0.52067 0.74933 0.05328
 C318 C 0.51316 0.74932 0.07773
 C319 C 0.48771 0.74932 0.07773
 C320 C 0.48020 0.74932 0.05328
 N321 N 0.50043 0.74933 0.03866
 C322 C 0.45516 0.74931 0.04538
 C323 C 0.44709 0.74933 0.02053
 C324 C 0.42252 0.74931 0.01317
 C325 C 0.42249 0.74933 -0.01211
 C326 C 0.44705 0.74936 -0.01952
 N327 N 0.46191 0.74936 0.00049
 C328 C 0.45508 0.74939 -0.04439
 C329 C 0.48012 0.74941 -0.05228
 C330 C 0.48763 0.74943 -0.07673
 C331 C 0.51308 0.74944 -0.07674
 C332 C 0.52060 0.74942 -0.05229
 N333 N 0.50036 0.74940 -0.03767
 C334 C 0.54564 0.74943 -0.04440
 H335 H 0.59454 0.74941 -0.02378
 H336 H 0.59458 0.74937 0.02471
 H337 H 0.50038 0.74939 -0.01880
 H338 H 0.52477 0.74932 0.09396
 H339 H 0.47610 0.74931 0.09397
 H340 H 0.40626 0.74928 0.02479
 H341 H 0.40621 0.74932 -0.02370
 H342 H 0.52469 0.74945 -0.09297
 H343 H 0.50042 0.74931 0.01980
 H344 H 0.47602 0.74944 -0.09297
 C345 C 0.07765 0.51285 0.24933
 C346 C 0.07768 0.48750 0.24933
 C347 C 0.05313 0.48009 0.24932
 N348 N 0.03826 0.50014 0.24932
 C349 C 0.05307 0.52022 0.24932
 C350 C 0.04510 0.45517 0.24932
 C351 C 0.02008 0.44727 0.24930
 C352 C 0.01256 0.42275 0.24931
 C353 C -0.01288 0.42277 0.24929
 C354 C -0.02038 0.44731 0.24925
 N355 N -0.00014 0.46194 0.24925
 C356 C -0.04539 0.45526 0.24921
 C357 C -0.05348 0.48017 0.24918
 C358 C -0.07806 0.48752 0.24911
 C359 C -0.07811 0.51287 0.24911
 C360 C -0.05357 0.52032 0.24918
 N361 N -0.03869 0.50027 0.24922
 C362 C -0.04556 0.54526 0.24921
 C363 C -0.02051 0.55314 0.24926
 C364 C -0.01297 0.57764 0.24933
 C365 C 0.01248 0.57761 0.24936
 C366 C 0.01996 0.55308 0.24931
 N367 N -0.00029 0.53845 0.24924
 C368 C 0.04499 0.54512 0.24933
 H369 H 0.09391 0.52449 0.24934
 H370 H 0.09397 0.47589 0.24933
 H371 H -0.00027 0.51954 0.24913
 H372 H 0.02416 0.40647 0.24934
 H373 H -0.02450 0.40650 0.24929
 H374 H -0.09431 0.47585 0.24907
 H375 H -0.09441 0.52447 0.24906
 H376 H 0.02412 0.59386 0.24941
 H377 H -0.00017 0.48085 0.24921
 H378 H -0.02456 0.59393 0.24935
 C379 C -0.01287 0.57807 0.75070
 C380 C 0.01253 0.57810 0.75073
 C381 C 0.01996 0.55358 0.75074
 N382 N -0.00014 0.53874 0.75071
 C383 C -0.02028 0.55354 0.75069
 C384 C 0.04495 0.54558 0.75078
 C385 C 0.05283 0.52055 0.75076
 C386 C 0.07736 0.51299 0.75080
 C387 C 0.07731 0.48758 0.75076
 C388 C 0.05274 0.48012 0.75070
 N389 N 0.03811 0.50035 0.75070
 C390 C 0.04476 0.45512 0.75065
 C391 C 0.01981 0.44706 0.75060
 C392 C 0.01243 0.42251 0.75054
 C393 C -0.01296 0.42246 0.75052
 C394 C -0.02041 0.44698 0.75056
 N395 N -0.00032 0.46184 0.75061
 C396 C -0.04538 0.45498 0.75055
 C397 C -0.05327 0.48001 0.75058
 C398 C -0.07780 0.48755 0.75059
 C399 C -0.07777 0.51297 0.75063
 C400 C -0.05321 0.52047 0.75063
 N401 N -0.03856 0.50023 0.75060
 C402 C -0.04526 0.54549 0.75066
 H403 H -0.02452 0.59431 0.75069
 H404 H 0.02417 0.59436 0.75075
 H405 H -0.01962 0.50025 0.75056
 H406 H 0.09369 0.52455 0.75085
 H407 H 0.09359 0.47595 0.75077
 H408 H 0.02410 0.40627 0.75053
 H409 H -0.02457 0.40619 0.75047
 H410 H -0.09406 0.52458 0.75064
 H411 H 0.01916 0.50034 0.75066
 H412 H -0.09411 0.47597 0.75058
 C413 C 0.33045 0.25048 0.16937
 C414 C 0.34614 0.25061 0.15362
 C415 C 0.36491 0.25070 0.13485
 C416 C 0.35820 0.25135 0.10994
 C417 C 0.37645 0.25135 0.09170
 C418 C 0.40149 0.25070 0.09830
 C419 C 0.40821 0.25006 0.12321
 C420 C 0.38995 0.25006 0.14145
 C421 C 0.42025 0.25068 0.07953
 C422 C 0.43599 0.25068 0.06382
 H423 H 0.33889 0.25185 0.10464
 H424 H 0.37107 0.25184 0.07248
 H425 H 0.42752 0.24955 0.12851
 H426 H 0.39534 0.24955 0.16066
 C427 C 0.67035 0.74910 0.16976
 C428 C 0.65462 0.74912 0.15402
 C429 C 0.63578 0.74920 0.13529
 C430 C 0.61076 0.75010 0.14194
 C431 C 0.59246 0.75016 0.12373
 C432 C 0.59912 0.74933 0.09881
 C433 C 0.62413 0.74847 0.09216
 C434 C 0.64243 0.74840 0.11037
 C435 C 0.58033 0.74935 0.08006
 C436 C 0.56461 0.74934 0.06431
 H437 H 0.60542 0.75075 0.16116
 H438 H 0.57316 0.75085 0.12907
 H439 H 0.62947 0.74784 0.07294
 H440 H 0.66172 0.74773 0.10502
 C441 C 0.66971 0.25061 -0.16973
 C442 C 0.65397 0.25068 -0.15400
 C443 C 0.63517 0.25069 -0.13524
 C444 C 0.62171 0.27224 -0.13034
 C445 C 0.60345 0.27224 -0.11210
 C446 C 0.59857 0.25069 -0.09867
 C447 C 0.61200 0.22912 -0.10360
 C448 C 0.63026 0.22912 -0.12184
 C449 C 0.57981 0.25070 -0.07989
 C450 C 0.56407 0.25071 -0.06416
 H451 H 0.62533 0.28901 -0.14061
 H452 H 0.59315 0.28901 -0.10846
 H453 H 0.60836 0.21235 -0.09335
 H454 H 0.64053 0.21234 -0.12550
 C455 C 0.33045 0.74938 -0.16889
 C456 C 0.34618 0.74932 -0.15315
 C457 C 0.36500 0.74931 -0.13438
 C458 C 0.35833 0.74870 -0.10945
 C459 C 0.37661 0.74874 -0.09123
 C460 C 0.40164 0.74941 -0.09784
 C461 C 0.40832 0.75005 -0.12277
 C462 C 0.39004 0.75000 -0.14100
 C463 C 0.42043 0.74941 -0.07908
 C464 C 0.43616 0.74940 -0.06333
 H465 H 0.33903 0.74819 -0.10412
 H466 H 0.37124 0.74826 -0.07201
 H467 H 0.42763 0.75058 -0.12808
 H468 H 0.39541 0.75051 -0.16021
 C469 C 0.16966 0.33062 0.24946
 C470 C 0.15395 0.34639 0.24937
 C471 C 0.13516 0.36516 0.24934
 C472 C 0.14184 0.39015 0.24895
 C473 C 0.12355 0.40840 0.24896
 C474 C 0.09853 0.40171 0.24936
 C475 C 0.09185 0.37672 0.24977
 C476 C 0.11014 0.35847 0.24976
 C477 C 0.07974 0.42047 0.24936
 C478 C 0.06400 0.43621 0.24934
 H479 H 0.16114 0.39551 0.24864
 H480 H 0.12889 0.42768 0.24866
 H481 H 0.07255 0.37136 0.25010
 H482 H 0.10480 0.33919 0.25009
 C483 C 0.17028 0.67007 0.75099
 C484 C 0.15451 0.65428 0.75107
 C485 C 0.13564 0.63547 0.75103
 C486 C 0.12159 0.63121 0.72977
 C487 C 0.10323 0.61300 0.72971
 C488 C 0.09881 0.59893 0.75092
 C489 C 0.11287 0.60318 0.77219
 C490 C 0.13123 0.62140 0.77225
 C491 C 0.07988 0.58019 0.75087
 C492 C 0.06402 0.56449 0.75083
 H493 H 0.12482 0.64197 0.71325
 H494 H 0.09249 0.60989 0.71316
 H495 H 0.10963 0.59243 0.78870
 H496 H 0.14196 0.62453 0.78881
 C497 C -0.17059 0.66981 0.24880
 C498 C -0.15478 0.65409 0.24875
 C499 C -0.13589 0.63533 0.24882
 C500 C -0.11296 0.63999 0.25991
 C501 C -0.09462 0.62176 0.26002
 C502 C -0.09914 0.59877 0.24906
 C503 C -0.12208 0.59409 0.23801
 C504 C -0.14041 0.61233 0.23789
 C505 C -0.08027 0.58000 0.24914
 C506 C -0.06450 0.56425 0.24918
 H507 H -0.10926 0.65769 0.26846
 H508 H -0.07696 0.62557 0.26863
 H509 H -0.12578 0.57638 0.22950
 H510 H -0.15808 0.60850 0.22929
 C511 C -0.17021 0.33004 0.75023
 C512 C -0.15449 0.34586 0.75035
 C513 C -0.13566 0.36471 0.75042
 C514 C -0.11061 0.35811 0.74965
 C515 C -0.09233 0.37641 0.74966
 C516 C -0.09900 0.40141 0.75045
 C517 C -0.12404 0.40801 0.75123
 C518 C -0.14233 0.38971 0.75121
 C519 C -0.08018 0.42026 0.75047
 C520 C -0.06441 0.43604 0.75050
 H521 H -0.10524 0.33885 0.74902
 H522 H -0.07303 0.37107 0.74905
 H523 H -0.12942 0.42727 0.75183
 H524 H -0.16162 0.39505 0.75180
 C525 C 0.25021 0.16936 0.33074
 C526 C 0.25019 0.15365 0.34646
 C527 C 0.25016 0.13491 0.36523
 C528 C 0.25081 0.10990 0.35865
 C529 C 0.25080 0.09169 0.37691
 C530 C 0.25013 0.09842 0.40181
 C531 C 0.24947 0.12342 0.40840
 C532 C 0.24948 0.14164 0.39014
 C533 C 0.25012 0.07970 0.42059
 C534 C 0.25012 0.06402 0.43635
 H535 H 0.25133 0.10450 0.33945
 H536 H 0.25131 0.07240 0.37163
 H537 H 0.24895 0.12882 0.42760
 H538 H 0.24897 0.16092 0.39542
 C539 C 0.75003 0.16944 0.66901
 C540 C 0.74998 0.15369 0.65332
 C541 C 0.74992 0.13489 0.63457
 C542 C 0.74924 0.10989 0.64118
 C543 C 0.74921 0.09164 0.62294
 C544 C 0.74986 0.09832 0.59802
 C545 C 0.75052 0.12332 0.59141
 C546 C 0.75056 0.14156 0.60964
 C547 C 0.74985 0.07955 0.57926
 C548 C 0.74984 0.06380 0.56356
 H549 H 0.74873 0.10452 0.66039
 H550 H 0.74868 0.07236 0.62825
 H551 H 0.75103 0.12868 0.57219
 H552 H 0.75108 0.16084 0.60432
 C553 C 0.25014 -0.16942 0.66984
 C554 C 0.25018 -0.15371 0.65412
 C555 C 0.25022 -0.13496 0.63532
 C556 C 0.24956 -0.14169 0.61041
 C557 C 0.24956 -0.12349 0.59214
 C558 C 0.25022 -0.09847 0.59870
 C559 C 0.25088 -0.09173 0.62360
 C560 C 0.25089 -0.10994 0.64187
 C561 C 0.25020 -0.07976 0.57989
 C562 C 0.25018 -0.06409 0.56412
 H563 H 0.24905 -0.16098 0.60513
 H564 H 0.24905 -0.12889 0.57293
 H565 H 0.25139 -0.07244 0.62887
 H566 H 0.25140 -0.10453 0.66108
 C567 C 0.74964 -0.16966 0.33000
 C568 C 0.74960 -0.15395 0.34574
 C569 C 0.74957 -0.13521 0.36453
 C570 C 0.75024 -0.14193 0.38944
 C571 C 0.75027 -0.12372 0.40771
 C572 C 0.74962 -0.09871 0.40115
 C573 C 0.74894 -0.09198 0.37624
 C574 C 0.74891 -0.11019 0.35797
 C575 C 0.74966 -0.07997 0.41994
 C576 C 0.74970 -0.06425 0.43567
 H577 H 0.75076 -0.16121 0.39473
 H578 H 0.75080 -0.12912 0.42692
 H579 H 0.74844 -0.07269 0.37096
 H580 H 0.74839 -0.10478 0.33877
 C581 C 0.66982 0.74947 -0.16924
 C582 C 0.65415 0.74942 -0.15344
 C583 C 0.63542 0.74944 -0.13461
 C584 C 0.61036 0.75009 -0.14113
 C585 C 0.59216 0.75010 -0.12283
 C586 C 0.59894 0.74948 -0.09794
 C587 C 0.62400 0.74886 -0.09141
 C588 C 0.64220 0.74884 -0.10971
 C589 C 0.58022 0.74946 -0.07912
 C590 C 0.56454 0.74945 -0.06335
 H591 H 0.60492 0.75057 -0.16032
 H592 H 0.57283 0.75060 -0.12808
 H593 H 0.62943 0.74839 -0.07221
 H594 H 0.66152 0.74836 -0.10445
 C595 C 0.33040 0.25072 -0.16949
 C596 C 0.34609 0.25082 -0.15374
 C597 C 0.36485 0.25085 -0.13497
 C598 C 0.35814 0.25154 -0.11005
 C599 C 0.37641 0.25150 -0.09182
 C600 C 0.40143 0.25076 -0.09844
 C601 C 0.40814 0.25006 -0.12335
 C602 C 0.38988 0.25010 -0.14158
 C603 C 0.42021 0.25074 -0.07971
 C604 C 0.43597 0.25073 -0.06403
 H605 H 0.33884 0.25210 -0.10474
 H606 H 0.37104 0.25203 -0.07260
 H607 H 0.42745 0.24948 -0.12866
 H608 H 0.39525 0.24954 -0.16079
 C609 C 0.33065 0.74942 0.16975
 C610 C 0.34637 0.74931 0.15403
 C611 C 0.36517 0.74923 0.13530
 C612 C 0.35849 0.74858 0.11038
 C613 C 0.37677 0.74860 0.09217
 C614 C 0.40179 0.74926 0.09881
 C615 C 0.40848 0.74990 0.12372
 C616 C 0.39020 0.74988 0.14194
 C617 C 0.42057 0.74928 0.08006
 C618 C 0.43628 0.74929 0.06432
 H619 H 0.33919 0.74809 0.10505
 H620 H 0.37142 0.74812 0.07295
 H621 H 0.42778 0.75042 0.12905
 H622 H 0.39556 0.75039 0.16116
 C623 C 0.66964 0.25048 0.16915
 C624 C 0.65395 0.25062 0.15340
 C625 C 0.63517 0.25068 0.13465
 C626 C 0.61014 0.25016 0.14128
 C627 C 0.59187 0.25014 0.12305
 C628 C 0.59858 0.25065 0.09814
 C629 C 0.62361 0.25116 0.09150
 C630 C 0.64188 0.25118 0.10973
 C631 C 0.57981 0.25064 0.07940
 C632 C 0.56406 0.25065 0.06371
 H633 H 0.60477 0.24975 0.16049
 H634 H 0.57257 0.24973 0.12837
 H635 H 0.62897 0.25154 0.07228
 H636 H 0.66118 0.25157 0.10441
 C637 C -0.17027 0.67009 0.75048
 C638 C -0.15452 0.65431 0.75059
 C639 C -0.13565 0.63553 0.75063
 C640 C -0.12188 0.63091 0.72926
 C641 C -0.10357 0.61266 0.72927
 C642 C -0.09892 0.59894 0.75065
 C643 C -0.11267 0.60357 0.77204
 C644 C -0.13099 0.62183 0.77203
 C645 C -0.08008 0.58014 0.75066
 C646 C -0.06428 0.56441 0.75066
 H647 H -0.12532 0.64139 0.71261
 H648 H -0.09304 0.60925 0.71263
 H649 H -0.10923 0.59309 0.78868
 H650 H -0.14150 0.62524 0.78867
 C651 C -0.16967 0.33058 0.24925
 C652 C -0.15398 0.34635 0.24915
 C653 C -0.13520 0.36513 0.24910
 C654 C -0.11018 0.35847 0.24981
 C655 C -0.09192 0.37674 0.24984
 C656 C -0.09865 0.40171 0.24916
 C657 C -0.12366 0.40837 0.24845
 C658 C -0.14191 0.39010 0.24842
 C659 C -0.07992 0.42050 0.24918
 C660 C -0.06424 0.43629 0.24920
 H661 H -0.10481 0.33920 0.25035
 H662 H -0.07261 0.37142 0.25040
 H663 H -0.12902 0.42764 0.24795
 H664 H -0.16122 0.39543 0.24789
 C665 C 0.16957 0.33081 0.75052
 C666 C 0.15384 0.34656 0.75063
 C667 C 0.13501 0.36529 0.75069
 C668 C 0.14165 0.39029 0.75130
 C669 C 0.12334 0.40851 0.75128
 C670 C 0.09833 0.40179 0.75064
 C671 C 0.09169 0.37680 0.75004
 C672 C 0.11000 0.35857 0.75006
 C673 C 0.07952 0.42053 0.75063
 C674 C 0.06375 0.43624 0.75064
 H675 H 0.16094 0.39566 0.75178
 H676 H 0.12866 0.42780 0.75174
 H677 H 0.07239 0.37142 0.74954
 H678 H 0.10468 0.33929 0.74957
 C679 C 0.16971 0.66938 0.24957
 C680 C 0.15400 0.65363 0.24947
 C681 C 0.13521 0.63487 0.24945
 C682 C 0.12350 0.62825 0.27149
 C683 C 0.10517 0.61006 0.27147
 C684 C 0.09850 0.59844 0.24941
 C685 C 0.11023 0.60503 0.22737
 C686 C 0.12856 0.62323 0.22739
 C687 C 0.07966 0.57975 0.24939
 C688 C 0.06389 0.56406 0.24936
 H689 H 0.12853 0.63715 0.28865
 H690 H 0.09621 0.60506 0.28861
 H691 H 0.10520 0.59613 0.21022
 H692 H 0.13752 0.62822 0.21025
 C693 C 0.74988 -0.16944 0.66933
 C694 C 0.74982 -0.15375 0.65359
 C695 C 0.74976 -0.13502 0.63477
 C696 C 0.75039 -0.14178 0.60987
 C697 C 0.75039 -0.12359 0.59158
 C698 C 0.74976 -0.09857 0.59813
 C699 C 0.74912 -0.09181 0.62302
 C700 C 0.74912 -0.11000 0.64131
 C701 C 0.74976 -0.07987 0.57932
 C702 C 0.74977 -0.06416 0.56358
 H703 H 0.75090 -0.16107 0.60461
 H704 H 0.75089 -0.12901 0.57238
 H705 H 0.74862 -0.07251 0.62828
 H706 H 0.74863 -0.10457 0.66051
 C707 C 0.25024 -0.16950 0.33097
 C708 C 0.25020 -0.15379 0.34668
 C709 C 0.25017 -0.13505 0.36544
 C710 C 0.24952 -0.14177 0.39035
 C711 C 0.24951 -0.12355 0.40859
 C712 C 0.25015 -0.09855 0.40199
 C713 C 0.25079 -0.09183 0.37709
 C714 C 0.25081 -0.11005 0.35884
 C715 C 0.25015 -0.07983 0.42075
 C716 C 0.25015 -0.06414 0.43649
 H717 H 0.24902 -0.16105 0.39564
 H718 H 0.24901 -0.12893 0.42781
 H719 H 0.25129 -0.07254 0.37180
 H720 H 0.25131 -0.10466 0.33963
 C721 C 0.74993 0.16919 0.33030
 C722 C 0.74993 0.15348 0.34601
 C723 C 0.74992 0.13472 0.36475
 C724 C 0.74922 0.10973 0.35813
 C725 C 0.74920 0.09149 0.37635
 C726 C 0.74988 0.09818 0.40126
 C727 C 0.75058 0.12317 0.40789
 C728 C 0.75060 0.14141 0.38967
 C729 C 0.74986 0.07942 0.42000
 C730 C 0.74984 0.06369 0.43569
 H731 H 0.74870 0.10437 0.33891
 H732 H 0.74866 0.07221 0.37104
 H733 H 0.75111 0.12852 0.42711
 H734 H 0.75115 0.16069 0.39498
 C735 C 0.24997 0.16945 0.66944
 C736 C 0.24998 0.15376 0.65372
 C737 C 0.24998 0.13502 0.63496
 C738 C 0.24931 0.14173 0.61005
 C739 C 0.24932 0.12350 0.59181
 C740 C 0.25001 0.09851 0.59842
 C741 C 0.25068 0.09179 0.62332
 C742 C 0.25067 0.11002 0.64156
 C743 C 0.25002 0.07978 0.57967
 C744 C 0.25005 0.06408 0.56394
 H745 H 0.24877 0.16101 0.60475
 H746 H 0.24880 0.12888 0.57259
 H747 H 0.25121 0.07251 0.62862
 H748 H 0.25119 0.10464 0.66077
   
