data_POSCAR
  _audit_creation_date              2014-09-24
  _audit_creation_method            'ToBaCCo'
  _symmetry_space_group_name_H-M    'P1'
  _symmetry_Int_Tables_number       1
  _symmetry_cell_setting            triclinic
  loop_
  _symmetry_equiv_pos_as_xyz
 x,y,z
_cell_length_a 23.2168
_cell_length_b 23.1475
_cell_length_c 23.2727
_cell_angle_alpha 91.267900
_cell_angle_beta 106.173400
_cell_angle_gamma 79.041000
loop_
  _atom_site_label
  _atom_site_type_symbol
  _atom_site_fract_x
  _atom_site_fract_y
  _atom_site_fract_z
O1 O 0.59896 0.49690 0.05425
 O2 O 0.43873 0.51403 0.05566
 O3 O 0.52910 0.42280 0.06809
 O4 O 0.50956 0.58371 0.04913
 O5 O 0.47943 0.57526 -0.04897
 O6 O 0.50560 0.41374 -0.03011
 O7 O 0.41259 0.49244 -0.03979
 O8 O 0.57107 0.48295 -0.04311
 Cu9 Cu 0.52216 0.50451 0.06691
 Cu10 Cu 0.48870 0.49312 -0.05045
 C11 C 0.61214 0.48712 0.00505
 C12 C 0.39840 0.50511 0.00849
 C13 C 0.52141 0.39096 0.02240
 C14 C 0.49047 0.60678 -0.00323
 O15 O -0.04972 0.59048 0.48504
 O16 O -0.04839 0.43175 0.49872
 O17 O -0.03879 0.51588 0.57264
 O18 O -0.05994 0.50355 0.41094
 O19 O 0.04002 0.49256 0.42698
 O20 O 0.06153 0.49311 0.58917
 O21 O 0.05083 0.41231 0.50803
 O22 O 0.05103 0.57072 0.50921
 Cu23 Cu -0.05947 0.51271 0.49012
 Cu24 Cu 0.06102 0.48997 0.50966
 C25 C 0.00103 0.60777 0.49703
 C26 C 0.00126 0.39514 0.50457
 C27 C 0.01472 0.50581 0.60828
 C28 C -0.01325 0.49655 0.39155
 O29 O 0.51814 0.04877 0.59388
 O30 O 0.48165 0.05416 0.42888
 O31 O 0.41515 0.06560 0.50656
 O32 O 0.57871 0.03818 0.51477
 O33 O 0.58304 -0.05759 0.52269
 O34 O 0.41556 -0.02968 0.49782
 O35 O 0.48680 -0.04213 0.42913
 O36 O 0.50740 -0.04388 0.59249
 Cu37 Cu 0.49741 0.06147 0.51141
 Cu38 Cu 0.49907 -0.05310 0.51096
 C39 C 0.51676 0.00232 0.62126
 C40 C 0.48033 0.00631 0.40117
 C41 C 0.38723 0.02263 0.49964
 C42 C 0.60861 -0.01422 0.51963
 C43 C 0.50497 -0.01576 -0.04834
 C44 C 0.50194 -0.05897 -0.00737
 C45 C 0.49831 -0.04227 0.05028
 C46 C 0.49956 0.01545 0.07009
 C47 C 0.50334 0.05854 0.02959
 C48 C 0.50573 0.04208 -0.02840
 H49 H 0.50668 0.07599 -0.05931
 H50 H 0.49691 -0.07584 0.08138
 C51 C 0.00287 0.50029 1.06082
 C52 C -0.05112 0.49884 1.01439
 C53 C -0.04743 0.49219 0.95546
 C54 C 0.00807 0.48712 0.94086
 C55 C 0.06240 0.48819 0.98736
 C56 C 0.05852 0.49372 1.04646
 H57 H 0.10016 0.49199 1.08248
 H58 H -0.08927 0.49298 0.91984
 C59 C 0.04395 0.00811 0.46104
 C60 C 0.00126 0.05902 0.46633
 C61 C -0.05676 0.05260 0.46959
 C62 C -0.07414 -0.00253 0.46822
 C63 C -0.03056 -0.05378 0.46573
 C64 C 0.02730 -0.04712 0.46172
 H65 H 0.06078 -0.08622 0.45991
 H66 H -0.08947 0.09175 0.47327
 C67 C -0.22941 0.51172 1.03348
 C68 C -0.20646 0.46973 0.99700
 N69 N -0.24276 0.43425 0.96443
 C70 C -0.30131 0.43892 0.96652
 C71 C -0.32430 0.48032 1.00356
 N72 N -0.28764 0.51572 1.03649
 N73 N -0.19384 0.54920 1.06345
 C74 C -0.13615 0.54629 1.05886
 C75 C -0.11233 0.50291 1.02383
 N76 N -0.14875 0.46619 0.99334
 H77 H -0.32955 0.41034 0.93987
 H78 H -0.10955 0.57789 1.08170
 C79 C 0.24111 0.48306 0.97046
 C80 C 0.22033 0.51468 1.01511
 N81 N 0.25880 0.54158 1.05699
 C82 C 0.31754 0.53840 1.05630
 C83 C 0.33829 0.50871 1.01021
 N84 N 0.29916 0.48189 0.96805
 N85 N 0.20387 0.45168 0.93225
 C86 C 0.14641 0.45138 0.93618
 C87 C 0.12401 0.48621 0.97865
 N88 N 0.16253 0.51627 1.01734
 H89 H 0.34716 0.56020 1.09059
 H90 H 0.11930 0.42348 0.90715
 C91 C -0.04744 -0.23308 0.47170
 C92 C 0.00733 -0.21433 0.49927
 N93 N 0.05851 -0.25429 0.52462
 C94 C 0.05766 -0.31266 0.52371
 C95 C 0.00253 -0.33219 0.49752
 N96 N -0.04906 -0.29156 0.47234
 N97 N -0.09718 -0.19271 0.44244
 C98 C -0.09451 -0.13446 0.43984
 C99 C -0.03994 -0.11533 0.46942
 N100 N 0.00938 -0.15649 0.49807
 H101 H 0.09955 -0.34330 0.54439
 H102 H -0.13389 -0.10412 0.41350
 C103 C 0.02456 0.23661 0.47128
 C104 C -0.00484 0.21482 0.50882
 N105 N -0.03083 0.25191 0.54446
 C106 C -0.02902 0.31018 0.54411
 C107 C 0.00097 0.33212 0.50719
 N108 N 0.02744 0.29472 0.47171
 N109 N 0.04713 0.19984 0.43306
 C110 C 0.04171 0.14219 0.43078
 C111 C 0.01355 0.11985 0.46950
 N112 N -0.00924 0.15733 0.50724
 H113 H -0.05055 0.33910 0.57252
 H114 H 0.05782 0.11468 0.39812
 C115 C 0.50517 -0.03590 -0.23139
 C116 C 0.53126 0.00751 -0.19651
 N117 N 0.55253 0.04787 -0.22222
 C118 C 0.54862 0.04707 -0.28160
 C119 C 0.52383 0.00269 -0.31693
 N120 N 0.50312 -0.03817 -0.29046
 N121 N 0.47883 -0.07259 -0.20650
 C122 C 0.47791 -0.06817 -0.14819
 C123 C 0.50664 -0.02627 -0.11190
 N124 N 0.53213 0.01060 -0.13805
 H125 H 0.56541 0.08041 -0.30073
 H126 H 0.45312 -0.09578 -0.13157
 C127 C 0.50165 0.03672 0.25298
 C128 C 0.46595 0.00050 0.21605
 N129 N 0.43475 -0.03199 0.23977
 C130 C 0.43788 -0.03018 0.29901
 C131 C 0.47309 0.00646 0.33621
 N132 N 0.50404 0.03934 0.31208
 N133 N 0.53568 0.06633 0.22974
 C134 C 0.53546 0.06158 0.17118
 C135 C 0.49847 0.02640 0.13338
 N136 N 0.46501 -0.00351 0.15753
 H137 H 0.41317 -0.05708 0.31695
 H138 H 0.56521 0.08370 0.15503
 C139 C 0.51340 -0.24268 -0.02853
 C140 C 0.46645 -0.20849 -0.00850
 N141 N 0.42696 -0.23505 0.00969
 C142 C 0.43263 -0.29453 0.00946
 C143 C 0.47973 -0.32902 -0.01002
 N144 N 0.51910 -0.30231 -0.02884
 N145 N 0.55437 -0.21588 -0.04417
 C146 C 0.55078 -0.15651 -0.04022
 C147 C 0.50383 -0.12224 -0.01998
 N148 N 0.46297 -0.14952 -0.00458
 H149 H 0.40138 -0.31488 0.02538
 H150 H 0.58499 -0.13647 -0.05127
 C151 C 0.49925 0.24135 0.05296
 C152 C 0.54193 0.20651 0.02794
 N153 N 0.57877 0.23223 0.00483
 C154 C 0.57436 0.29155 0.00480
 C155 C 0.53149 0.32676 0.02930
 N156 N 0.49498 0.30084 0.05326
 N157 N 0.46035 0.21539 0.07308
 C158 C 0.46182 0.15629 0.06875
 C159 C 0.50446 0.12136 0.04339
 N160 N 0.54343 0.14785 0.02382
 H161 H 0.60331 0.31123 -0.01510
 H162 H 0.42886 0.13718 0.08310
 C163 C -0.25616 0.00712 0.47521
 C164 C -0.20909 -0.03537 0.51076
 N165 N -0.22276 -0.07199 0.54791
 C166 C -0.28122 -0.06754 0.55133
 C167 C -0.32771 -0.02342 0.51726
 N168 N -0.31370 0.01255 0.47993
 N169 N -0.24380 0.04245 0.43644
 C170 C -0.18615 0.03807 0.43210
 C171 C -0.13791 -0.00264 0.46920
 N172 N -0.15070 -0.03879 0.50776
 H173 H -0.29103 -0.09706 0.58123
 H174 H -0.17784 0.06682 0.40047
 C175 C 0.22668 0.00216 0.45689
 C176 C 0.20069 0.04267 0.49275
 N177 N 0.23524 0.07852 0.52747
 C178 C 0.29481 0.07501 0.52855
 C179 C 0.32153 0.03258 0.49467
 N180 N 0.28649 -0.00267 0.45945
 N181 N 0.19202 -0.03242 0.42072
 C182 C 0.13272 -0.02925 0.41953
 C183 C 0.10688 0.00917 0.45747
 N184 N 0.14180 0.04461 0.49306
 H185 H 0.32164 0.10342 0.55727
 H186 H 0.10620 -0.05717 0.38972
 C187 C 0.01156 0.51674 1.24439
 C188 C -0.02841 0.48385 1.20758
 N189 N -0.06451 0.45747 1.23122
 C190 C -0.06197 0.46217 1.29022
 C191 C -0.02035 0.49336 1.32733
 N192 N 0.01538 0.51994 1.30341
 N193 N 0.04578 0.54520 1.22058
 C194 C 0.04247 0.54176 1.16156
 C195 C 0.00417 0.50712 1.12464
 N196 N -0.03044 0.47894 1.14887
 H197 H -0.09082 0.44049 1.30830
 H198 H 0.06962 0.56586 1.14370
 C199 C -0.00485 0.47811 0.75614
 C200 C 0.03231 0.51352 0.79285
 N201 N 0.06452 0.54450 0.76871
 C202 C 0.06085 0.54186 0.70935
 C203 C 0.02207 0.50796 0.67249
 N204 N -0.00987 0.47688 0.69681
 N205 N -0.03495 0.44510 0.78040
 C206 C -0.03007 0.44618 0.83982
 C207 C 0.00561 0.48289 0.87671
 N208 N 0.03581 0.51599 0.85202
 H209 H 0.08673 0.56697 0.69085
 H210 H -0.05405 0.41875 0.85807
   
