data_POSCAR
  _audit_creation_date              2014-09-24
  _audit_creation_method            'ToBaCCo'
  _symmetry_space_group_name_H-M    'P1'
  _symmetry_Int_Tables_number       1
  _symmetry_cell_setting            triclinic
  loop_
  _symmetry_equiv_pos_as_xyz
 x,y,z
_cell_length_a 25.3179
_cell_length_b 25.4060
_cell_length_c 25.4454
_cell_angle_alpha 91.105600
_cell_angle_beta 91.825300
_cell_angle_gamma 90.846900
loop_
  _atom_site_label
  _atom_site_type_symbol
  _atom_site_fract_x
  _atom_site_fract_y
  _atom_site_fract_z
C1 C -0.00213 0.45860 0.21222
 C2 C 0.04732 0.46335 0.24782
 C3 C 0.04821 0.50614 0.28082
 C4 C -0.00172 0.54057 0.27561
 C5 C -0.04829 0.45907 0.24923
 C6 C -0.04891 0.50198 0.28200
 C7 C -0.00524 0.51111 0.18342
 C8 C -0.00513 0.55409 0.21675
 H9 H 0.08058 0.43700 0.24467
 H10 H -0.00147 0.57521 0.30294
 H11 H -0.08101 0.43087 0.24569
 H12 H -0.00822 0.51400 0.14090
 C13 C 0.02043 0.44736 0.78327
 C14 C -0.02746 0.44812 0.75042
 C15 C -0.03100 0.49341 0.71825
 C16 C 0.01467 0.52944 0.72459
 C17 C 0.06372 0.45139 0.74754
 C18 C 0.06086 0.49676 0.71526
 C19 C 0.02122 0.49667 0.81381
 C20 C 0.01807 0.54214 0.78096
 H21 H -0.06060 0.42082 0.75454
 H22 H 0.01224 0.56432 0.69883
 H23 H 0.09829 0.42640 0.74936
 H24 H 0.02233 0.49906 0.85654
 C25 C 0.22023 -0.00527 0.44622
 C26 C 0.25780 0.04178 0.45473
 C27 C 0.28472 0.04239 0.50190
 C28 C 0.27206 -0.00554 0.53644
 C29 C 0.25433 -0.05364 0.45361
 C30 C 0.28110 -0.05453 0.50078
 C31 C 0.18422 -0.00415 0.49366
 C32 C 0.21147 -0.00432 0.54094
 H33 H 0.25936 0.07441 0.42775
 H34 H 0.29451 -0.00568 0.57466
 H35 H 0.25348 -0.08680 0.42591
 H36 H 0.14135 -0.00407 0.49019
 C37 C 0.77909 -0.00124 0.43829
 C38 C 0.74468 -0.04722 0.43685
 C39 C 0.71106 -0.04999 0.48067
 C40 C 0.71727 -0.00555 0.51757
 C41 C 0.74270 0.04589 0.44235
 C42 C 0.71049 0.04392 0.48405
 C43 C 0.80939 -0.00235 0.49164
 C44 C 0.77646 -0.00458 0.53321
 H45 H 0.75005 -0.08061 0.41021
 H46 H 0.69035 -0.00714 0.55123
 H47 H 0.74590 0.08025 0.41773
 H48 H 0.85221 -0.00178 0.49609
 C49 C 0.44546 0.22359 1.00227
 C50 C 0.45143 0.25871 1.04772
 C51 C 0.49926 0.28934 1.04875
 C52 C 0.53227 0.27926 1.00301
 C53 C 0.44932 0.25689 0.95679
 C54 C 0.49724 0.28744 0.95658
 C55 C 0.49273 0.19133 1.00265
 C56 C 0.54087 0.22223 1.00300
 H57 H 0.42526 0.25783 1.08086
 H58 H 0.56918 0.30363 1.00343
 H59 H 0.42183 0.25434 0.92301
 H60 H 0.49196 0.14853 1.00087
 C61 C 0.43980 0.77644 1.00521
 C62 C 0.44441 0.73742 0.95933
 C63 C 0.48875 0.70784 0.96231
 C64 C 0.52365 0.71914 1.01229
 C65 C 0.44186 0.74300 1.05436
 C66 C 0.48596 0.71318 1.05850
 C67 C 0.48871 0.80734 1.00677
 C68 C 0.53483 0.77541 1.01076
 H69 H 0.41942 0.73895 0.92382
 H70 H 0.55918 0.69402 1.01547
 H71 H 0.41383 0.74668 1.08569
 H72 H 0.49040 0.84983 1.00266
 B73 B 0.99315 1.05737 0.02155
 B74 B 0.98885 1.05305 -0.04602
 B75 B 1.04616 1.03523 -0.01295
 B76 B 1.02907 1.00395 0.04361
 B77 B 0.96141 1.00267 0.04611
 B78 B 0.93577 1.03276 -0.00950
 B79 B 0.98994 0.94355 -0.04197
 B80 B 0.99412 0.94729 0.02560
 B81 B 0.93729 0.96524 -0.00702
 B82 B 0.95374 0.99627 -0.06336
 B83 B 1.02153 0.99788 -0.06636
 B84 B 1.04690 0.96774 -0.01083
 B85 B 0.56056 0.49763 0.47294
 B86 B 0.56403 0.49761 0.54094
 B87 B 0.54324 0.55245 0.50865
 B88 B 0.50511 0.53272 0.45365
 B89 B 0.50408 0.46416 0.45181
 B90 B 0.53976 0.44273 0.50612
 B91 B 0.45327 0.49916 0.54195
 B92 B 0.45048 0.49919 0.47422
 B93 B 0.47154 0.44328 0.50734
 B94 B 0.50826 0.46442 0.56203
 B95 B 0.51073 0.53228 0.56345
 B96 B 0.47486 0.55396 0.50952
 C97 C 0.97010 1.18175 0.11699
 C98 C 0.99387 1.22261 0.09017
 C99 C 1.01968 1.21146 0.04399
 C100 C 1.02072 1.15996 0.02417
 C101 C 0.99725 1.41099 0.17872
 C102 C 0.97105 1.13019 0.09686
 C103 C 0.99427 1.27544 0.11147
 C104 C 0.99510 1.31927 0.13042
 C105 C 0.99633 1.36954 0.15490
 C106 C 0.99519 1.11742 0.04884
 H107 H 0.95141 1.18951 0.15401
 H108 H 1.03981 1.24250 0.02349
 H109 H 1.04375 1.15431 -0.00994
 H110 H 0.95504 1.10079 0.12101
 C111 C 0.94296 0.82964 0.11359
 C112 C 0.98557 0.79537 0.11429
 C113 C 1.03110 0.80929 0.08843
 C114 C 1.03420 0.85675 0.06201
 C115 C 0.99016 0.60719 0.19781
 C116 C 0.94630 0.87744 0.08704
 C117 C 0.98307 0.74504 0.13966
 C118 C 0.98369 0.70212 0.15935
 C119 C 0.98662 0.65114 0.18079
 C120 C 0.99260 0.89318 0.06100
 H121 H 0.90693 0.81932 0.13306
 H122 H 1.06433 0.78288 0.08782
 H123 H 1.06966 0.86312 0.04216
 H124 H 0.91215 0.90194 0.08764
 C125 C 1.04411 1.17313 -0.12569
 C126 C 1.00599 1.21105 -0.11769
 C127 C 0.95887 1.19709 -0.09486
 C128 C 0.95139 1.14626 -0.07683
 C129 C 1.02272 1.40198 -0.18759
 C130 C 1.03628 1.12220 -0.10759
 C131 C 1.01434 1.26415 -0.13350
 C132 C 1.01932 1.30869 -0.14759
 C133 C 1.02247 1.35989 -0.16694
 C134 C 0.99062 1.10753 -0.08033
 H135 H 1.08046 1.18312 -0.14482
 H136 H 0.92805 1.22579 -0.09005
 H137 H 0.91434 1.13865 -0.06060
 H138 H 1.06741 1.09547 -0.11408
 C139 C 0.97871 0.78918 -0.07031
 C140 C 0.99754 0.78396 -0.12083
 C141 C 1.00899 0.82898 -0.14899
 C142 C 1.00390 0.87887 -0.12561
 C143 C 1.01480 0.59226 -0.19934
 C144 C 0.97360 0.83895 -0.04719
 C145 C 1.00301 0.73229 -0.14396
 C146 C 1.00716 0.68841 -0.16204
 C147 C 1.01151 0.63661 -0.18226
 C148 C 0.98873 0.88554 -0.07271
 H149 H 0.96725 0.75467 -0.04875
 H150 H 1.02112 0.82567 -0.18936
 H151 H 1.00860 0.91136 -0.15106
 H152 H 0.95515 0.83958 -0.01010
 C153 C 1.11728 0.95764 0.16634
 C154 C 1.11274 0.99934 0.20208
 C155 C 1.08675 1.04444 0.18653
 C156 C 1.06369 1.04702 0.13623
 C157 C 1.19283 0.99464 0.39468
 C158 C 1.09405 0.96062 0.11592
 C159 C 1.13409 0.99625 0.25486
 C160 C 1.15165 0.99498 0.29931
 C161 C 1.17293 0.99457 0.35109
 C162 C 1.06538 1.00505 0.09917
 H163 H 1.13802 0.92239 0.17759
 H164 H 1.08347 1.07760 0.21362
 H165 H 1.04481 1.08258 0.12799
 H166 H 1.09881 0.92726 0.09093
 C167 C 1.04365 1.01743 -0.21949
 C168 C 1.09046 0.99083 -0.22799
 C169 C 1.11538 0.96553 -0.18624
 C170 C 1.09427 0.96759 -0.13621
 C171 C 1.18512 0.99478 -0.40954
 C172 C 1.02257 1.01937 -0.16930
 C173 C 1.11479 0.99174 -0.27851
 C174 C 1.13645 0.99267 -0.32010
 C175 C 1.16267 0.99384 -0.36839
 C176 C 1.04762 0.99543 -0.12542
 H177 H 1.02392 1.03781 -0.25138
 H178 H 1.15224 0.94534 -0.19189
 H179 H 1.11793 0.95081 -0.10613
 H180 H 0.98805 1.04259 -0.16516
 C181 C 0.94231 0.97961 0.19824
 C182 C 0.89697 1.00743 0.20850
 C183 C 0.87034 1.03304 0.16798
 C184 C 0.88956 1.03113 0.11721
 C185 C 0.81183 1.00158 0.39235
 C186 C 0.96119 0.97761 0.14758
 C187 C 0.87664 1.00756 0.26021
 C188 C 0.85858 1.00640 0.30316
 C189 C 0.83506 1.00401 0.35213
 C190 C 0.93580 1.00343 0.10504
 H191 H 0.96294 0.95880 0.22931
 H192 H 0.83466 1.05458 0.17553
 H193 H 0.86769 1.05221 0.08840
 H194 H 0.99538 0.95398 0.14276
 C195 C 0.87623 0.94305 -0.19211
 C196 C 0.86158 0.98973 -0.21593
 C197 C 0.86850 1.03725 -0.18835
 C198 C 0.89382 1.03832 -0.13889
 C199 C 0.79506 0.99323 -0.41302
 C200 C 0.90138 0.94449 -0.14246
 C201 C 0.84164 0.98935 -0.26931
 C202 C 0.82647 0.98998 -0.31454
 C203 C 0.80962 0.99152 -0.36768
 C204 C 0.91498 0.99255 -0.11635
 H205 H 0.86903 0.90551 -0.21219
 H206 H 0.85547 1.07375 -0.20549
 H207 H 0.89719 1.07551 -0.11935
 H208 H 0.90953 0.90732 -0.12575
 C209 C 1.18982 1.08526 -0.04975
 C210 C 1.20671 1.11322 -0.00476
 C211 C 1.17202 1.12049 0.03602
 C212 C 1.12109 1.09850 0.03207
 C213 C 1.39805 1.19541 0.00204
 C214 C 1.13903 1.06344 -0.05338
 C215 C 1.25967 1.13415 -0.00094
 C216 C 1.30402 1.15186 0.00085
 C217 C 1.35530 1.17403 0.00177
 C218 C 1.10270 1.06884 -0.01272
 H219 H 1.21625 1.07949 -0.08198
 H220 H 1.18448 1.14250 0.07127
 H221 H 1.09693 1.10490 0.06496
 H222 H 1.12991 1.04209 -0.08844
 C223 C 0.78233 1.06089 -0.03598
 C224 C 0.77536 1.10894 -0.00983
 C225 C 0.81887 1.13413 0.01480
 C226 C 0.86864 1.11119 0.01413
 C227 C 0.58949 1.19968 -0.00026
 C228 C 0.83235 1.03799 -0.03666
 C229 C 0.72404 1.13303 -0.00840
 C230 C 0.68157 1.15400 -0.00631
 C231 C 0.63197 1.17887 -0.00318
 C232 C 0.87728 1.06176 -0.01063
 H233 H 0.74907 1.04091 -0.05590
 H234 H 0.81457 1.17209 0.03425
 H235 H 0.90009 1.13446 0.03098
 H236 H 0.83477 1.00107 -0.05773
 C237 C 1.19934 0.94127 0.01220
 C238 C 1.20603 0.89320 -0.01323
 C239 C 1.16274 0.86681 -0.03710
 C240 C 1.11269 0.88914 -0.03601
 C241 C 1.39161 0.80679 0.00050
 C242 C 1.14960 0.96330 0.01352
 C243 C 1.25714 0.87019 -0.01189
 C244 C 1.30023 0.85138 -0.00887
 C245 C 1.35007 0.82853 -0.00396
 C246 C 1.10453 0.93867 -0.01107
 H247 H 1.23253 0.96148 0.03208
 H248 H 1.16750 0.82879 -0.05624
 H249 H 1.08124 0.86654 -0.05443
 H250 H 1.14725 0.99885 0.03652
 C251 C 0.81308 0.85368 -0.03893
 C252 C 0.77713 0.87317 -0.00295
 C253 C 0.78961 0.91598 0.03043
 C254 C 0.83806 0.94185 0.02897
 C255 C 0.58476 0.79537 0.00756
 C256 C 0.86319 0.87606 -0.04458
 C257 C 0.72518 0.85003 -0.00106
 C258 C 0.68106 0.83219 0.00128
 C259 C 0.62913 0.81233 0.00459
 C260 C 0.87860 0.92456 -0.00862
 H261 H 0.80185 0.82025 -0.06410
 H262 H 0.76065 0.93048 0.05742
 H263 H 0.84363 0.97574 0.05315
 H264 H 0.88029 0.90296 -0.02919
 C265 C 0.70899 0.47602 0.43268
 C266 C 0.71288 0.50446 0.38677
 C267 C 0.66691 0.52440 0.36322
 C268 C 0.61834 0.51932 0.38802
 C269 C 0.90285 0.51329 0.30874
 C270 C 0.66068 0.47131 0.45708
 C271 C 0.76419 0.51191 0.36444
 C272 C 0.80813 0.51593 0.34749
 C273 C 0.85981 0.51693 0.32762
 C274 C 0.61496 0.49709 0.43849
 H275 H 0.74369 0.45827 0.45050
 H276 H 0.66857 0.54434 0.32606
 H277 H 0.58437 0.53446 0.36765
 H278 H 0.66100 0.44994 0.49253
 C279 C 0.32607 0.55837 0.39596
 C280 C 0.28971 0.51652 0.39454
 C281 C 0.30580 0.46780 0.41301
 C282 C 0.35664 0.46172 0.43503
 C283 C 0.09648 0.51915 0.31082
 C284 C 0.37699 0.55203 0.41808
 C285 C 0.23635 0.52260 0.37336
 C286 C 0.19161 0.52513 0.35530
 C287 C 0.13956 0.52429 0.33259
 C288 C 0.39312 0.50411 0.44105
 H289 H 0.31499 0.59624 0.38054
 H290 H 0.27887 0.43422 0.41067
 H291 H 0.36643 0.42314 0.44714
 H292 H 0.40271 0.58612 0.41832
 C293 C 0.68646 0.47682 0.64308
 C294 C 0.72503 0.51036 0.62360
 C295 C 0.71353 0.53904 0.57906
 C296 C 0.66410 0.53434 0.55399
 C297 C 0.92105 0.50577 0.69641
 C298 C 0.63648 0.47250 0.61782
 C299 C 0.77810 0.51219 0.64548
 C300 C 0.82339 0.51307 0.66152
 C301 C 0.87653 0.51141 0.67962
 C302 C 0.62294 0.50175 0.57258
 H303 H 0.69537 0.45282 0.67686
 H304 H 0.74361 0.56377 0.56220
 H305 H 0.66097 0.55425 0.51746
 H306 H 0.60964 0.44377 0.63277
 C307 C 0.30297 0.47486 0.57661
 C308 C 0.29379 0.51477 0.61315
 C309 C 0.33587 0.54645 0.63182
 C310 C 0.38631 0.53948 0.61210
 C311 C 0.10474 0.51218 0.68961
 C312 C 0.35337 0.46810 0.55730
 C313 C 0.24152 0.52116 0.63260
 C314 C 0.19748 0.52306 0.64903
 C315 C 0.14653 0.52014 0.66967
 C316 C 0.39672 0.50102 0.57298
 H317 H 0.27097 0.44892 0.56258
 H318 H 0.32971 0.57709 0.66110
 H319 H 0.41593 0.56573 0.62718
 H320 H 0.35680 0.43676 0.52961
 C321 C 0.51661 0.64356 0.34409
 C322 C 0.50307 0.61453 0.29843
 C323 C 0.48071 0.56472 0.30295
 C324 C 0.47700 0.54251 0.35225
 C325 C 0.49931 0.68925 0.10788
 C326 C 0.51240 0.62030 0.39339
 C327 C 0.50723 0.63649 0.24705
 C328 C 0.50825 0.65299 0.20303
 C329 C 0.50566 0.67184 0.15127
 C330 C 0.49893 0.56648 0.39842
 H331 H 0.53005 0.68411 0.34177
 H332 H 0.46460 0.54350 0.26856
 H333 H 0.45206 0.50930 0.35407
 H334 H 0.52059 0.64534 0.42650
 C335 C 0.50121 0.64175 0.67938
 C336 C 0.52885 0.61801 0.72061
 C337 C 0.55265 0.57013 0.71180
 C338 C 0.54691 0.54500 0.66300
 C339 C 0.50723 0.68483 0.91438
 C340 C 0.49609 0.61630 0.63004
 C341 C 0.52777 0.63859 0.77349
 C342 C 0.52479 0.65306 0.81859
 C343 C 0.51765 0.66923 0.87107
 C344 C 0.51674 0.56539 0.62065
 H345 H 0.48193 0.67902 0.68575
 H346 H 0.57372 0.55067 0.74352
 H347 H 0.56289 0.50711 0.66133
 H348 H 0.47236 0.63579 0.60168
 C349 C 0.56057 0.39254 0.32414
 C350 C 0.51630 0.38733 0.29045
 C351 C 0.46679 0.39896 0.30987
 C352 C 0.46225 0.41918 0.36116
 C353 C 0.51471 0.31445 0.09504
 C354 C 0.55570 0.41268 0.37533
 C355 C 0.52119 0.36906 0.23652
 C356 C 0.52323 0.35349 0.19133
 C357 C 0.52156 0.33372 0.13867
 C358 C 0.50697 0.43101 0.39435
 H359 H 0.59904 0.38081 0.31104
 H360 H 0.43151 0.39339 0.28504
 H361 H 0.42327 0.42846 0.37299
 H362 H 0.59063 0.41150 0.40015
 C363 C 0.48296 0.42978 0.71081
 C364 C 0.51142 0.38390 0.71825
 C365 C 0.53238 0.35853 0.67451
 C366 C 0.52847 0.38149 0.62474
 C367 C 0.51133 0.31007 0.91046
 C368 C 0.47930 0.45235 0.66126
 C369 C 0.51689 0.36273 0.77058
 C370 C 0.51909 0.34653 0.81504
 C371 C 0.51763 0.32763 0.86716
 C372 C 0.50658 0.43192 0.61781
 H373 H 0.46421 0.44889 0.74362
 H374 H 0.55145 0.32089 0.67868
 H375 H 0.54130 0.35842 0.59229
 H376 H 0.45781 0.48815 0.65877
 C377 C 0.61916 0.68249 0.56026
 C378 C 0.63304 0.70532 0.51337
 C379 C 0.62934 0.67550 0.46688
 C380 C 0.60604 0.62537 0.46663
 C381 C 0.69134 0.90223 0.49413
 C382 C 0.59607 0.63228 0.55945
 C383 C 0.64941 0.75953 0.51236
 C384 C 0.66189 0.80518 0.50943
 C385 C 0.67676 0.85812 0.50290
 C386 C 0.58218 0.60529 0.51156
 H387 H 0.62583 0.70347 0.59742
 H388 H 0.64270 0.69159 0.43039
 H389 H 0.60373 0.60478 0.42984
 H390 H 0.59210 0.61492 0.59684
 C391 C 0.63490 0.32199 0.53754
 C392 C 0.60945 0.28091 0.50957
 C393 C 0.56726 0.29177 0.47561
 C394 C 0.54877 0.34293 0.47203
 C395 C 0.68313 0.09040 0.49973
 C396 C 0.61580 0.37319 0.53383
 C397 C 0.62809 0.22804 0.51286
 C398 C 0.64376 0.18361 0.51268
 C399 C 0.66359 0.13242 0.50810
 C400 C 0.57007 0.38520 0.50318
 H401 H 0.66922 0.31452 0.56268
 H402 H 0.54858 0.26070 0.45149
 H403 H 0.51825 0.34814 0.44339
 H404 H 0.63715 0.40185 0.55646
 C405 C 0.36048 0.66048 0.52306
 C406 C 0.38850 0.70822 0.52136
 C407 C 0.44256 0.70743 0.51397
 C408 C 0.46874 0.65984 0.50925
 C409 C 0.30566 0.89695 0.51666
 C410 C 0.38701 0.61245 0.51818
 C411 C 0.36296 0.75864 0.52531
 C412 C 0.34441 0.80225 0.52635
 C413 C 0.32392 0.85384 0.52369
 C414 C 0.44239 0.61038 0.51146
 H415 H 0.31812 0.66022 0.52782
 H416 H 0.46509 0.74398 0.51263
 H417 H 0.51024 0.66392 0.50716
 H418 H 0.36303 0.57715 0.51824
 C419 C 0.40021 0.31660 0.56764
 C420 C 0.39436 0.28224 0.52440
 C421 C 0.40664 0.30055 0.47495
 C422 C 0.42730 0.35142 0.46930
 C423 C 0.31303 0.09010 0.51887
 C424 C 0.42093 0.36759 0.56155
 C425 C 0.37378 0.22909 0.52947
 C426 C 0.35610 0.18455 0.53038
 C427 C 0.33396 0.13281 0.52685
 C428 C 0.43872 0.38582 0.51256
 H429 H 0.38820 0.30435 0.60607
 H430 H 0.40042 0.27537 0.44037
 H431 H 0.43476 0.36250 0.43031
 H432 H 0.42009 0.39306 0.59553
   
