data_POSCAR
  _audit_creation_date              2014-09-24
  _audit_creation_method            'ToBaCCo'
  _symmetry_space_group_name_H-M    'P1'
  _symmetry_Int_Tables_number       1
  _symmetry_cell_setting            triclinic
  loop_
  _symmetry_equiv_pos_as_xyz
 x,y,z
_cell_length_a 23.1754
_cell_length_b 21.7568
_cell_length_c 49.4310
_cell_angle_alpha 86.719900
_cell_angle_beta 93.170700
_cell_angle_gamma 118.172500
loop_
  _atom_site_label
  _atom_site_type_symbol
  _atom_site_fract_x
  _atom_site_fract_y
  _atom_site_fract_z
C1 C 0.02507 0.13635 0.52500
 H2 H 0.07509 0.14977 0.52092
 C3 C 0.01291 0.17475 0.54334
 H4 H 0.05402 0.21634 0.55364
 C5 C -0.08861 0.06456 0.51688
 H6 H -0.12805 0.02197 0.50644
 C7 C -0.10308 0.10139 0.53537
 H8 H -0.15368 0.08651 0.53911
 N9 N -0.02522 0.08204 0.51234
 C10 C -0.00185 -0.09436 0.50300
 H11 H -0.02773 -0.11041 0.48373
 C12 C 0.00260 -0.14411 0.52082
 H13 H -0.01937 -0.19777 0.51483
 C14 C 0.05884 -0.00514 0.53394
 H15 H 0.07968 0.04878 0.53923
 C16 C 0.06483 -0.05320 0.55233
 H17 H 0.09046 -0.03573 0.57164
 Zn18 Zn 0.00080 0.03421 0.48887
 N19 N 0.02377 -0.02683 0.51024
 C20 C 0.13191 0.10428 0.46968
 N21 N 0.07295 0.10349 0.47004
 C22 C 0.06267 0.15442 0.45710
 C23 C 0.11244 0.20855 0.44270
 C24 C 0.18340 0.15777 0.45541
 C25 C -0.12408 -0.07321 0.47218
 C26 C -0.16981 -0.11981 0.45383
 C27 C -0.09733 -0.05471 0.41759
 C28 C -0.05339 -0.00940 0.43660
 N29 N -0.06682 -0.01974 0.46339
 H30 H 0.13883 0.06321 0.48025
 H31 H 0.01532 0.15258 0.45790
 H32 H 0.10287 0.24821 0.43232
 H33 H 0.22927 0.15628 0.45499
 H34 H -0.13279 -0.08214 0.49366
 H35 H -0.21339 -0.16256 0.46203
 H36 H -0.08414 -0.04589 0.39648
 H37 H -0.00715 0.03217 0.42992
 C38 C 0.03400 -0.12406 0.54634
 C39 C -0.05193 0.15750 0.54869
 C40 C -0.15613 -0.11197 0.42596
 C41 C 0.17378 0.21094 0.44162
 C42 C 1.13303 0.02846 0.13307
 H43 H 1.13261 0.07789 0.13358
 C44 C 1.17862 0.02280 0.11763
 H45 H 1.21243 0.06798 0.10594
 C46 C 1.08775 -0.09073 0.14728
 H47 H 1.05239 -0.13451 0.15903
 C48 C 1.13205 -0.09905 0.13164
 H49 H 1.13043 -0.14956 0.13128
 N50 N 1.08902 -0.02762 0.14755
 C51 C 0.92337 0.01196 0.15509
 H52 H 0.92557 0.02152 0.17645
 C53 C 0.87005 0.00682 0.13877
 H54 H 0.83173 0.01297 0.14783
 C55 C 0.96795 -0.01393 0.11803
 H56 H 1.00486 -0.02443 0.11017
 C57 C 0.91543 -0.02014 0.10113
 H58 H 0.91317 -0.03409 0.08026
 Zn59 Zn 1.03311 -0.00898 0.16811
 N60 N 0.97059 0.00093 0.14456
 C61 C 1.08106 0.13173 0.18525
 N62 N 1.08838 0.07316 0.18666
 C63 C 1.13951 0.07112 0.20076
 C64 C 1.18578 0.12919 0.21435
 C65 C 1.12632 0.19128 0.19875
 C66 C 0.93619 -0.14274 0.18357
 C67 C 0.89210 -0.19367 0.20126
 C68 C 0.95178 -0.12098 0.23875
 C69 C 0.99412 -0.07113 0.22036
 N70 N 0.98524 -0.08238 0.19330
 H71 H 1.04051 0.13247 0.17361
 H72 H 1.14419 0.02387 0.20141
 H73 H 1.22479 0.12508 0.22600
 H74 H 1.11995 0.23759 0.19766
 H75 H 0.92970 -0.15001 0.16193
 H76 H 0.85293 -0.24089 0.19305
 H77 H 0.95860 -0.11044 0.26017
 H78 H 1.03236 -0.02239 0.22774
 C79 C 0.86529 -0.01057 0.11147
 C80 C 1.17877 -0.04150 0.11694
 C81 C 0.89881 -0.18207 0.22922
 C82 C 1.17996 0.19071 0.21322
 C83 C 0.03342 0.93627 0.88619
 H84 H -0.01690 0.89640 0.88825
 C85 C 0.08131 0.93754 0.90468
 H86 H 0.06752 0.89860 0.92111
 C87 C 0.11206 1.03498 0.86191
 H88 H 0.12337 1.07234 0.84505
 C89 C 0.16211 1.03764 0.87990
 H90 H 0.21176 1.07834 0.87703
 N91 N 0.04929 0.98444 0.86540
 C92 C -0.15290 0.94115 0.85698
 H93 H -0.17226 0.90889 0.83954
 C94 C -0.19501 0.95393 0.87237
 H95 H -0.24652 0.92963 0.86665
 C96 C -0.06152 1.01713 0.88372
 H97 H -0.00921 1.04358 0.88766
 C98 C -0.10106 1.03293 0.89896
 H99 H -0.07840 1.07015 0.91487
 Zn100 Zn -0.02300 0.96913 0.84199
 N101 N -0.08755 0.97168 0.86327
 C102 C -0.10361 0.82381 0.82564
 N103 N -0.04497 0.88314 0.82606
 C104 C 0.00892 0.88542 0.81544
 C105 C 0.00576 0.82704 0.80401
 C106 C -0.10944 0.76421 0.81351
 C107 C 0.01522 1.10587 0.82144
 C108 C 0.01555 1.15526 0.80195
 C109 C -0.01996 1.06759 0.76818
 C110 C -0.01978 1.02000 0.78826
 N111 N -0.00376 1.03933 0.81442
 H112 H -0.14554 0.82206 0.83482
 H113 H 0.05500 0.93300 0.81616
 H114 H 0.04951 0.83001 0.79587
 H115 H -0.15611 0.71718 0.81318
 H116 H 0.02710 1.11976 0.84243
 H117 H 0.02961 1.20726 0.80831
 H118 H -0.03523 1.05035 0.74765
 H119 H -0.03612 0.96657 0.78313
 C120 C -0.16882 1.00116 0.89363
 C121 C 0.14664 0.98787 0.90152
 C122 C -0.00442 1.13550 0.77499
 C123 C -0.05385 0.76581 0.80268
 C124 C 0.37506 0.07885 -0.00961
 C125 C 0.37952 0.08081 0.01813
 C126 C 0.41764 0.04954 0.02670
 N127 N 0.43550 0.02725 0.00529
 C128 C 0.40920 0.04473 -0.01696
 C129 C 0.43278 0.03903 0.05398
 C130 C 0.48563 0.02629 0.06206
 C131 C 0.49854 0.00970 0.08840
 C132 C 0.55632 0.00643 0.08816
 C133 C 0.57680 0.02052 0.06162
 N134 N 0.53371 0.03305 0.04588
 C135 C 0.63533 0.02399 0.05295
 C136 C 0.64742 0.02033 0.02536
 C137 C 0.70483 0.02534 0.01621
 C138 C 0.69434 0.01070 -0.01067
 C139 C 0.63197 0.00158 -0.01802
 N140 N 0.60307 0.00585 0.00444
 C141 C 0.59967 -0.01770 -0.04409
 C142 C 0.53603 -0.02433 -0.04981
 C143 C 0.49712 -0.05361 -0.07286
 C144 C 0.44511 -0.03978 -0.07296
 C145 C 0.45292 -0.00275 -0.05003
 N146 N 0.50816 0.00645 -0.03602
 C147 C 0.41152 0.02502 -0.04347
 H148 H 0.34906 0.09965 -0.02275
 H149 H 0.35790 0.10339 0.03057
 H150 H 0.52983 0.04015 -0.02014
 H151 H 0.46982 0.00170 0.10605
 H152 H 0.58039 -0.00528 0.10556
 H153 H 0.74947 0.03604 0.02766
 H154 H 0.72907 0.00483 -0.02246
 H155 H 0.40634 -0.05463 -0.08838
 H156 H 0.54062 0.05243 0.02597
 H157 H 0.50542 -0.08048 -0.08870
 C158 C 0.02947 0.35912 0.68193
 C159 C 0.03035 0.36228 0.65415
 C160 C -0.00893 0.39183 0.64517
 N161 N -0.03492 0.40544 0.66640
 C162 C -0.01188 0.38505 0.68897
 C163 C -0.02191 0.40369 0.61770
 C164 C -0.04573 0.45066 0.60902
 C165 C -0.06479 0.45882 0.58254
 C166 C -0.07796 0.51425 0.58195
 C167 C -0.06737 0.53780 0.60817
 N168 N -0.04746 0.49898 0.62448
 C169 C -0.07074 0.59734 0.61597
 C170 C -0.07708 0.60954 0.64316
 C171 C -0.08090 0.66704 0.65170
 C172 C -0.09161 0.65643 0.67899
 C173 C -0.09399 0.59275 0.68626
 N174 N -0.08574 0.56394 0.66427
 C175 C -0.10581 0.56146 0.71262
 C176 C -0.09794 0.50202 0.72038
 C177 C -0.11998 0.46269 0.74425
 C178 C -0.09841 0.41350 0.74524
 C179 C -0.06422 0.42364 0.72183
 N180 N -0.06405 0.47776 0.70682
 C181 C -0.03136 0.38573 0.71557
 H182 H 0.05645 0.33998 0.69531
 H183 H 0.05777 0.34597 0.64197
 H184 H -0.03587 0.50172 0.68998
 H185 H -0.06728 0.42914 0.56526
 H186 H -0.09281 0.53527 0.56415
 H187 H -0.07749 0.71152 0.63954
 H188 H -0.09697 0.69172 0.69196
 H189 H -0.10701 0.37467 0.76138
 H190 H -0.02802 0.51068 0.64408
 H191 H -0.14818 0.46912 0.75954
 C192 C 0.65090 0.71137 0.33490
 C193 C 0.65654 0.70486 0.30788
 C194 C 0.63216 0.63437 0.30399
 N195 N 0.61295 0.59758 0.32772
 C196 C 0.62565 0.64480 0.34686
 C197 C 0.63031 0.60513 0.27901
 C198 C 0.58341 0.53640 0.27283
 C199 C 0.58242 0.50239 0.24978
 C200 C 0.52538 0.44009 0.24998
 C201 C 0.49358 0.43732 0.27334
 N202 N 0.52914 0.49639 0.28706
 C203 C 0.43150 0.38318 0.28060
 C204 C 0.40880 0.37136 0.30736
 C205 C 0.35032 0.31601 0.31573
 C206 C 0.35000 0.31877 0.34331
 C207 C 0.40811 0.37604 0.35104
 N208 N 0.44423 0.40749 0.32904
 C209 C 0.42955 0.39436 0.37816
 C210 C 0.48814 0.45438 0.38533
 C211 C 0.51700 0.46604 0.41113
 C212 C 0.56975 0.53173 0.41038
 C213 C 0.57153 0.55908 0.38414
 N214 N 0.52160 0.51134 0.36900
 C215 C 0.61651 0.62758 0.37501
 H216 H 0.66311 0.75972 0.34445
 H217 H 0.67470 0.74688 0.29266
 H218 H 0.50708 0.52041 0.34955
 H219 H 0.61826 0.52104 0.23412
 H220 H 0.50916 0.40152 0.23455
 H221 H 0.31277 0.27574 0.30356
 H222 H 0.31197 0.28113 0.35611
 H223 H 0.60297 0.55611 0.42733
 H224 H 0.51369 0.51223 0.30341
 H225 H 0.50154 0.43104 0.42879
 C226 C -0.06697 0.19537 0.56879
 C227 C -0.02747 0.26266 0.57369
 C228 C -0.04165 0.29810 0.59480
 C229 C -0.00770 0.36726 0.59675
 H230 H 0.01575 0.29251 0.56186
 H231 H -0.08023 0.26772 0.60884
 H232 H -0.11235 0.16744 0.57948
 H233 H 0.02845 0.39837 0.58189
 C234 C 0.85109 0.76906 0.24893
 C235 C 0.78764 0.72890 0.24258
 C236 C 0.74134 0.68662 0.26370
 C237 C 0.67732 0.64866 0.25790
 H238 H 0.76896 0.72937 0.22204
 H239 H 0.75973 0.68656 0.28436
 H240 H 0.86773 0.77036 0.26994
 H241 H 0.65941 0.64648 0.23707
 C242 C 0.19583 -0.01339 -0.07840
 C243 C 0.25940 0.01204 -0.08316
 C244 C 0.30317 0.00490 -0.06192
 C245 C 0.36735 0.03083 -0.06531
 H246 H 0.27895 0.03679 -0.10254
 H247 H 0.28256 -0.02172 -0.04286
 H248 H 0.17791 -0.04009 -0.05905
 H249 H 0.38775 0.05397 -0.08480
 C250 C 0.03338 0.82424 0.56728
 C251 C -0.01668 0.75956 0.56941
 C252 C -0.01843 0.71089 0.59165
 C253 C -0.06996 0.64756 0.59431
 H254 H -0.05816 0.74283 0.55521
 H255 H 0.02267 0.72667 0.60606
 H256 H 0.07261 0.84146 0.58262
 H257 H -0.11036 0.63053 0.57954
 C258 C 0.22709 0.25312 0.22803
 C259 C 0.28903 0.26686 0.23396
 C260 C 0.33187 0.32379 0.25179
 C261 C 0.39125 0.33250 0.25977
 H262 H 0.30796 0.23424 0.22653
 H263 H 0.31333 0.35603 0.25998
 H264 H 0.20999 0.28833 0.23451
 H265 H 0.41054 0.30125 0.25135
 C266 C 0.79366 0.01989 -0.09062
 C267 C 0.72547 -0.01517 -0.08931
 C268 C 0.69514 0.00691 -0.07140
 C269 C 0.62953 -0.03348 -0.06502
 H270 H 0.69647 -0.06250 -0.10018
 H271 H 0.72396 0.05619 -0.06165
 H272 H 0.82005 0.06268 -0.07703
 H273 H 0.59976 -0.07546 -0.07837
 C274 C 0.22501 -0.04981 0.09993
 C275 C 0.28590 0.00146 0.09602
 C276 C 0.32842 -0.00482 0.07657
 C277 C 0.39160 0.04230 0.07513
 H278 H 0.30430 0.04940 0.10685
 H279 H 0.30754 -0.04731 0.06264
 H280 H 0.20852 -0.09931 0.09043
 H281 H 0.41389 0.08313 0.08971
 C282 C 0.80519 0.84214 0.40714
 C283 C 0.74489 0.78297 0.41180
 C284 C 0.71318 0.73579 0.39126
 C285 C 0.65173 0.67775 0.39490
 H286 H 0.72153 0.77298 0.43104
 H287 H 0.73860 0.74324 0.37267
 H288 H 0.82238 0.85104 0.38656
 H289 H 0.63231 0.66870 0.41503
 C290 C -0.01300 0.18161 0.75360
 C291 C -0.01281 0.24188 0.75805
 C292 C -0.02743 0.28030 0.73553
 C293 C -0.01775 0.34539 0.73814
 H294 H -0.00310 0.26284 0.77806
 H295 H -0.04635 0.25483 0.71643
 H296 H -0.02339 0.16301 0.73309
 H297 H -0.00183 0.36916 0.75769
 C298 C 0.80733 -0.02403 0.09367
 C299 C 0.76798 0.00421 0.09673
 C300 C 0.71351 -0.00962 0.07706
 C301 C 0.68608 0.03240 0.07436
 H302 H 0.77801 0.04059 0.11259
 H303 H 0.69799 -0.05255 0.06354
 H304 H 0.79838 -0.05641 0.07642
 H305 H 0.69996 0.07368 0.08854
 C306 C 0.22407 0.26799 0.42492
 C307 C 0.28671 0.28207 0.42386
 C308 C 0.33002 0.33635 0.40456
 C309 C 0.39022 0.34621 0.40029
 H310 H 0.30581 0.25273 0.43622
 H311 H 0.31100 0.36601 0.39221
 H312 H 0.20801 0.29987 0.41230
 H313 H 0.41070 0.31805 0.41266
 C314 C -0.05499 0.70536 0.79011
 C315 C -0.10241 0.66526 0.77275
 C316 C -0.09205 0.61771 0.75595
 C317 C -0.12683 0.59403 0.73294
 H318 H -0.14491 0.67325 0.76875
 H319 H -0.05075 0.60805 0.76083
 H320 H -0.01072 0.69997 0.79222
 H321 H -0.16508 0.60790 0.72706
   
