data_POSCAR
  _audit_creation_date              2014-09-24
  _audit_creation_method            'ToBaCCo'
  _symmetry_space_group_name_H-M    'P1'
  _symmetry_Int_Tables_number       1
  _symmetry_cell_setting            triclinic
  loop_
  _symmetry_equiv_pos_as_xyz
 x,y,z
_cell_length_a 51.1318
_cell_length_b 38.0488
_cell_length_c 34.8191
_cell_angle_alpha 90.052600
_cell_angle_beta 90.017900
_cell_angle_gamma 89.957200
loop_
  _atom_site_label
  _atom_site_type_symbol
  _atom_site_fract_x
  _atom_site_fract_y
  _atom_site_fract_z
C1 C 0.23235 0.23010 0.22976
 C2 C 0.23092 0.26738 0.23297
 C3 C 0.24947 0.28518 0.25540
 C4 C 0.26948 0.26738 0.27473
 C5 C 0.27104 0.23015 0.27245
 C6 C 0.25239 0.21234 0.24982
 H7 H 0.25348 0.18397 0.24776
 H8 H 0.24843 0.31358 0.25772
 C9 C 0.76863 0.26875 0.22651
 C10 C 0.76741 0.23148 0.22319
 C11 C 0.74749 0.21292 0.24195
 C12 C 0.72883 0.23011 0.26466
 C13 C 0.72961 0.26719 0.26787
 C14 C 0.74964 0.28580 0.24925
 H15 H 0.74940 0.31425 0.25079
 H16 H 0.74726 0.18445 0.24027
 C17 C 0.73081 0.73005 0.73494
 C18 C 0.73168 0.76713 0.73195
 C19 C 0.75185 0.78558 0.75046
 C20 C 0.77087 0.76838 0.77302
 C21 C 0.76951 0.73112 0.77623
 C22 C 0.74950 0.71271 0.75746
 H23 H 0.74916 0.68424 0.75904
 H24 H 0.75169 0.81404 0.74905
 C25 C 0.27159 0.76719 0.73403
 C26 C 0.27037 0.73024 0.73145
 C27 C 0.25031 0.71208 0.75028
 C28 C 0.23152 0.72972 0.77292
 C29 C 0.23247 0.76720 0.77459
 C30 C 0.25264 0.78512 0.75544
 H31 H 0.25305 0.81362 0.75594
 H32 H 0.25059 0.68361 0.74919
 O33 O 1.02593 -0.04144 -0.00682
 O34 O 0.97713 0.01106 0.04575
 O35 O 0.97526 -0.03969 -0.00447
 O36 O 1.02797 0.00942 0.04333
 O37 O 1.02690 0.04923 -0.00264
 O38 O 0.97581 -0.00180 -0.05236
 O39 O 0.97575 0.04890 -0.00221
 O40 O 1.02683 -0.00143 -0.05268
 Cu41 Cu 1.00161 -0.01902 0.02419
 Cu42 Cu 1.00128 0.02767 -0.03216
 C43 C 1.03488 -0.03024 -0.03855
 C44 C 0.96784 0.03870 0.03051
 C45 C 0.96667 -0.02938 -0.03679
 C46 C 1.03640 0.03781 0.02869
 O47 O 0.52524 0.45344 0.49891
 O48 O 0.47611 0.50647 0.55016
 O49 O 0.47433 0.45594 0.49988
 O50 O 0.52682 0.50427 0.54938
 O51 O 0.52648 0.54418 0.50348
 O52 O 0.47639 0.49337 0.45158
 O53 O 0.47539 0.54413 0.50199
 O54 O 0.52728 0.49373 0.45343
 Cu55 Cu 0.50059 0.47609 0.52927
 Cu56 Cu 0.50140 0.52279 0.47293
 C57 C 0.53490 0.46476 0.46767
 C58 C 0.46713 0.53415 0.53462
 C59 C 0.46660 0.46617 0.46707
 C60 C 0.53545 0.53271 0.53512
 O61 O -0.02424 0.54653 0.00304
 O62 O 0.02630 0.49645 0.05469
 O63 O 0.02687 0.54646 0.00387
 O64 O -0.02468 0.49624 0.05343
 O65 O -0.02499 0.45784 0.00594
 O66 O 0.02803 0.50628 -0.04179
 O67 O 0.02569 0.45603 0.00918
 O68 O -0.02278 0.50821 -0.04455
 Cu69 Cu 0.00103 0.52540 0.03341
 Cu70 Cu 0.00157 0.47817 -0.02250
 C71 C -0.03205 0.53606 -0.02966
 C72 C 0.03439 0.46746 0.04101
 C73 C 0.03641 0.53479 -0.02734
 C74 C -0.03379 0.46855 0.03800
 O75 O 0.47600 1.04303 0.49974
 O76 O 0.52767 0.99276 0.54883
 O77 O 0.52693 1.04279 0.49838
 O78 O 0.47665 0.99261 0.55047
 O79 O 0.47541 0.95390 0.50331
 O80 O 0.52665 1.00305 0.45221
 O81 O 0.52616 0.95260 0.50308
 O82 O 0.47574 1.00412 0.45275
 Cu83 Cu 0.50184 1.02174 0.52904
 Cu84 Cu 0.50095 0.97450 0.47315
 C85 C 0.46712 1.03230 0.46771
 C86 C 0.53563 0.96399 0.53444
 C87 C 0.53551 1.03141 0.46646
 C88 C 0.46735 0.96471 0.53574
 C89 C 1.17746 0.17054 0.16480
 C90 C 1.18788 0.20183 0.14985
 C91 C 1.20630 0.22118 0.17073
 C92 C 1.21454 0.21005 0.20742
 C93 C 1.20469 0.17796 0.22155
 C94 C 1.18636 0.15864 0.20067
 C95 C 1.15714 0.15056 0.14360
 N96 N 1.14743 0.12017 0.15818
 N97 N 1.12877 0.10251 0.13978
 C98 C 1.11897 0.11447 0.10598
 N99 N 1.12873 0.14483 0.09128
 N100 N 1.14742 0.16251 0.10971
 C101 C 1.09792 0.09489 0.08592
 C102 C 1.08737 0.10733 0.05118
 C103 C 1.06737 0.08887 0.03259
 C104 C 1.05749 0.05756 0.04830
 C105 C 1.06806 0.04512 0.08298
 C106 C 1.08801 0.06355 0.10155
 H107 H 1.18180 0.21147 0.12200
 H108 H 1.21440 0.24459 0.15773
 H109 H 1.21016 0.16843 0.24974
 H110 H 1.17884 0.13461 0.21308
 H111 H 1.09451 0.13138 0.03833
 H112 H 1.05967 0.09914 0.00588
 H113 H 1.06092 0.02108 0.09587
 H114 H 1.09564 0.05316 0.12824
 C115 C 0.67368 0.66846 0.67375
 C116 C 0.68936 0.69295 0.65416
 C117 C 0.70815 0.71259 0.67389
 C118 C 0.71140 0.70851 0.71368
 C119 C 0.69607 0.68373 0.73321
 C120 C 0.67740 0.66390 0.71347
 C121 C 0.65347 0.64797 0.65297
 N122 N 0.64019 0.62176 0.67084
 N123 N 0.62188 0.60355 0.65228
 C124 C 0.61601 0.61082 0.61507
 N125 N 0.62929 0.63703 0.59720
 N126 N 0.64765 0.65519 0.61573
 C127 C 0.59547 0.59073 0.59452
 C128 C 0.58728 0.60091 0.55761
 C129 C 0.56777 0.58213 0.53838
 C130 C 0.55610 0.55262 0.55550
 C131 C 0.56436 0.54233 0.59232
 C132 C 0.58376 0.56122 0.61165
 H133 H 0.68718 0.69694 0.62355
 H134 H 0.72008 0.73113 0.65813
 H135 H 0.69828 0.68013 0.76389
 H136 H 0.66568 0.64529 0.72947
 H137 H 0.59583 0.62353 0.54358
 H138 H 0.56189 0.59071 0.51001
 H139 H 0.55574 0.51973 0.60633
 H140 H 0.58962 0.55259 0.64000
 C141 C -0.17385 0.33042 0.16931
 C142 C -0.18540 0.30151 0.15084
 C143 C -0.20443 0.28144 0.16938
 C144 C -0.21229 0.28932 0.20724
 C145 C -0.20112 0.31898 0.22522
 C146 C -0.18209 0.33907 0.20662
 C147 C -0.15336 0.35137 0.14974
 N148 N -0.14266 0.38001 0.16696
 N149 N -0.12411 0.39861 0.14945
 C150 C -0.11544 0.38936 0.11397
 N151 N -0.12617 0.36074 0.09675
 N152 N -0.14472 0.34216 0.11425
 C153 C -0.09466 0.40985 0.09451
 C154 C -0.08514 0.39930 0.05841
 C155 C -0.06543 0.41838 0.04012
 C156 C -0.05477 0.44852 0.05743
 C157 C -0.06431 0.45918 0.09346
 C158 C -0.08402 0.44004 0.11181
 H159 H -0.17992 0.29447 0.12180
 H160 H -0.21365 0.26052 0.15329
 H161 H -0.20629 0.32600 0.25440
 H162 H -0.17365 0.36122 0.22173
 H163 H -0.09285 0.37619 0.04422
 H164 H -0.05854 0.40946 0.01236
 H165 H -0.05651 0.48228 0.10757
 H166 H -0.09088 0.44895 0.13957
 C167 C 0.33040 0.82722 0.67467
 C168 C 0.31467 0.80305 0.65463
 C169 C 0.29550 0.78374 0.67383
 C170 C 0.29186 0.78782 0.71353
 C171 C 0.30735 0.81210 0.73359
 C172 C 0.32645 0.83160 0.71438
 C173 C 0.35072 0.84774 0.65422
 N174 N 0.36417 0.87364 0.67243
 N175 N 0.38238 0.89209 0.65396
 C176 C 0.38796 0.88537 0.61652
 N177 N 0.37453 0.85944 0.59835
 N178 N 0.35628 0.84106 0.61678
 C179 C 0.40826 0.90580 0.59591
 C180 C 0.41578 0.89635 0.55846
 C181 C 0.43496 0.91546 0.53901
 C182 C 0.44699 0.94458 0.55645
 C183 C 0.43943 0.95414 0.59384
 C184 C 0.42033 0.93491 0.61339
 H185 H 0.31702 0.79919 0.62402
 H186 H 0.28337 0.76573 0.65762
 H187 H 0.30480 0.81571 0.76422
 H188 H 0.33820 0.84997 0.73070
 H189 H 0.40694 0.87406 0.54413
 H190 H 0.44031 0.90742 0.51022
 H191 H 0.44836 0.97642 0.60809
 H192 H 0.41498 0.94296 0.64217
 C193 C -0.17064 0.67068 -0.16759
 C194 C -0.19661 0.66964 -0.15441
 C195 C -0.21613 0.68876 -0.17318
 C196 C -0.20989 0.70995 -0.20480
 C197 C -0.18404 0.71086 -0.21825
 C198 C -0.16459 0.69119 -0.19995
 C199 C -0.14998 0.65071 -0.14743
 N200 N -0.12784 0.64072 -0.16604
 N201 N -0.10925 0.62272 -0.14777
 C202 C -0.11195 0.61430 -0.11007
 N203 N -0.13404 0.62443 -0.09145
 N204 N -0.15272 0.64214 -0.10980
 C205 C -0.09130 0.59453 -0.08965
 C206 C -0.08883 0.59723 -0.04957
 C207 C -0.06932 0.57861 -0.03018
 C208 C -0.05224 0.55634 -0.05038
 C209 C -0.05481 0.55343 -0.09043
 C210 C -0.07398 0.57265 -0.10994
 H211 H -0.20187 0.65385 -0.12973
 H212 H -0.23603 0.68766 -0.16257
 H213 H -0.17896 0.72689 -0.24283
 H214 H -0.14474 0.69253 -0.21067
 H215 H -0.10182 0.61402 -0.03322
 H216 H -0.06784 0.58123 0.00072
 H217 H -0.04185 0.53654 -0.10671
 H218 H -0.07551 0.56997 -0.14082
 C219 C 0.32898 1.17053 0.33156
 C220 C 0.31690 1.19939 0.34941
 C221 C 0.29778 1.21885 0.33020
 C222 C 0.29035 1.21036 0.29230
 C223 C 0.30219 1.18088 0.27487
 C224 C 0.32129 1.16141 0.29414
 C225 C 0.34939 1.14998 0.35189
 N226 N 0.36027 1.12112 0.33533
 N227 N 0.37864 1.10270 0.35352
 C228 C 0.38696 1.11235 0.38905
 N229 N 0.37609 1.14121 0.40562
 N230 N 0.35770 1.15962 0.38743
 C231 C 0.40745 1.09185 0.40926
 C232 C 0.41680 1.10267 0.44537
 C233 C 0.43617 1.08338 0.46433
 C234 C 0.44660 1.05277 0.44767
 C235 C 0.43724 1.04191 0.41161
 C236 C 0.41792 1.06123 0.39261
 H237 H 0.32199 1.20682 0.37850
 H238 H 0.28813 1.23974 0.34580
 H239 H 0.29748 1.17351 0.24563
 H240 H 0.33018 1.13933 0.27946
 H241 H 0.40921 1.12612 0.45904
 H242 H 0.44294 1.09245 0.49209
 H243 H 0.44487 1.01846 0.39796
 H244 H 0.41119 1.05209 0.36487
 C245 C 1.17199 -0.17009 -0.17291
 C246 C 1.19847 -0.16277 -0.16588
 C247 C 1.21804 -0.18325 -0.18277
 C248 C 1.21151 -0.21108 -0.20752
 C249 C 1.18501 -0.21762 -0.21556
 C250 C 1.16542 -0.19772 -0.19787
 C251 C 1.15134 -0.14917 -0.15400
 N252 N 1.12773 -0.16368 -0.14585
 N253 N 1.10930 -0.14502 -0.12806
 C254 C 1.11365 -0.11100 -0.11811
 N255 N 1.13719 -0.09641 -0.12653
 N256 N 1.15572 -0.11519 -0.14394
 C257 C 1.09330 -0.09038 -0.09813
 C258 C 1.09212 -0.05371 -0.10246
 C259 C 1.07285 -0.03420 -0.08353
 C260 C 1.05486 -0.05091 -0.05917
 C261 C 1.05619 -0.08753 -0.05456
 C262 C 1.07504 -0.10714 -0.07425
 H263 H 1.20406 -0.14169 -0.14665
 H264 H 1.23831 -0.17762 -0.17617
 H265 H 1.17947 -0.23835 -0.23527
 H266 H 1.14515 -0.20363 -0.20412
 H267 H 1.10591 -0.04017 -0.12082
 H268 H 1.07228 -0.00597 -0.08744
 H269 H 1.04246 -0.10103 -0.03606
 H270 H 1.07561 -0.13536 -0.07028
 C271 C 0.67099 0.32631 0.32920
 C272 C 0.69767 0.33353 0.33451
 C273 C 0.71665 0.31410 0.31489
 C274 C 0.70930 0.28746 0.28907
 C275 C 0.68256 0.28090 0.28306
 C276 C 0.66360 0.29971 0.30341
 C277 C 0.65095 0.34664 0.35019
 N278 N 0.62740 0.33212 0.35872
 N279 N 0.60933 0.35049 0.37767
 C280 C 0.61400 0.38422 0.38845
 N281 N 0.63751 0.39878 0.37978
 N282 N 0.65568 0.38029 0.36121
 C283 C 0.59384 0.40478 0.40895
 C284 C 0.59289 0.44150 0.40518
 C285 C 0.57355 0.46095 0.42398
 C286 C 0.55520 0.44412 0.44766
 C287 C 0.55637 0.40746 0.45191
 C288 C 0.57532 0.38790 0.43232
 H289 H 0.70389 0.35384 0.35431
 H290 H 0.73711 0.31972 0.32005
 H291 H 0.67631 0.26124 0.26252
 H292 H 0.64315 0.29395 0.29840
 H293 H 0.60686 0.45515 0.38720
 H294 H 0.57312 0.48922 0.42037
 H295 H 0.54238 0.39386 0.46990
 H296 H 0.57570 0.35963 0.43584
 C297 C 0.82836 -0.16989 -0.16958
 C298 C 0.82017 -0.16131 -0.20692
 C299 C 0.80120 -0.18148 -0.22561
 C300 C 0.79004 -0.21115 -0.20770
 C301 C 0.79793 -0.21905 -0.16987
 C302 C 0.81690 -0.19889 -0.15123
 C303 C 0.84866 -0.14870 -0.14983
 N304 N 0.85717 -0.15767 -0.11421
 N305 N 0.87549 -0.13878 -0.09650
 C306 C 0.88610 -0.11008 -0.11364
 N307 N 0.87758 -0.10108 -0.14926
 N308 N 0.85926 -0.11998 -0.16698
 C309 C 0.90660 -0.08920 -0.09393
 C310 C 0.91717 -0.05900 -0.11124
 C311 C 0.93660 -0.03950 -0.09268
 C312 C 0.94593 -0.04977 -0.05641
 C313 C 0.93533 -0.07990 -0.03907
 C314 C 0.91589 -0.09936 -0.05759
 H315 H 0.82855 -0.13911 -0.22195
 H316 H 0.79602 -0.17446 -0.25478
 H317 H 0.78874 -0.23998 -0.15383
 H318 H 0.82236 -0.20590 -0.12218
 H319 H 0.91047 -0.05039 -0.13919
 H320 H 0.94437 -0.01642 -0.10682
 H321 H 0.94206 -0.08854 -0.01114
 H322 H 0.90821 -0.12246 -0.04338
 C323 C 0.32844 0.32951 0.33070
 C324 C 0.33485 0.30863 0.29873
 C325 C 0.31569 0.28839 0.28053
 C326 C 0.28977 0.28909 0.29369
 C327 C 0.28316 0.31060 0.32495
 C328 C 0.30240 0.33030 0.34363
 C329 C 0.34881 0.35013 0.35070
 N330 N 0.34579 0.35939 0.38811
 N331 N 0.36425 0.37763 0.40631
 C332 C 0.38638 0.38763 0.38774
 N333 N 0.38934 0.37853 0.35025
 N334 N 0.37098 0.36001 0.33215
 C335 C 0.40687 0.40783 0.40799
 C336 C 0.42434 0.42917 0.38741
 C337 C 0.44357 0.44848 0.40665
 C338 C 0.44604 0.44622 0.44675
 C339 C 0.42873 0.42462 0.46729
 C340 C 0.40916 0.40591 0.44814
 H341 H 0.35476 0.30745 0.28821
 H342 H 0.32104 0.27212 0.25623
 H343 H 0.26321 0.31152 0.33533
 H344 H 0.29687 0.34635 0.36801
 H345 H 0.42296 0.43127 0.35646
 H346 H 0.45673 0.46483 0.39010
 H347 H 0.43015 0.42250 0.49824
 H348 H 0.39604 0.38955 0.46473
 C349 C 0.17578 0.66939 -0.16464
 C350 C 0.18736 0.69920 -0.14799
 C351 C 0.20590 0.71880 -0.16822
 C352 C 0.21315 0.70950 -0.20597
 C353 C 0.20201 0.67892 -0.22203
 C354 C 0.18353 0.65931 -0.20175
 C355 C 0.15561 0.64905 -0.14362
 N356 N 0.14514 0.61949 -0.15919
 N357 N 0.12676 0.60145 -0.14065
 C358 C 0.11800 0.61221 -0.10574
 N359 N 0.12849 0.64174 -0.09011
 N360 N 0.14690 0.65977 -0.10865
 C361 C 0.09729 0.59228 -0.08537
 C362 C 0.08731 0.60424 -0.05006
 C363 C 0.06758 0.58559 -0.03117
 C364 C 0.05741 0.55453 -0.04713
 C365 C 0.06746 0.54250 -0.08233
 C366 C 0.08714 0.56115 -0.10123
 H367 H 0.18220 0.70740 -0.11919
 H368 H 0.21499 0.74082 -0.15376
 H369 H 0.20669 0.67082 -0.25105
 H370 H 0.17505 0.63646 -0.21549
 H371 H 0.09466 0.62811 -0.03701
 H372 H 0.06028 0.59556 -0.00407
 H373 H 0.06007 0.51866 -0.09542
 H374 H 0.09435 0.55113 -0.12835
 C375 C 0.67232 1.16798 0.32623
 C376 C 0.68807 1.19248 0.34576
 C377 C 0.70665 1.21231 0.32589
 C378 C 0.70962 1.20842 0.28604
 C379 C 0.69422 1.18363 0.26655
 C380 C 0.67575 1.16362 0.28642
 C381 C 0.65234 1.14731 0.34718
 N382 N 0.63894 1.12115 0.32934
 N383 N 0.62082 1.10279 0.34808
 C384 C 0.61527 1.10986 0.38545
 N385 N 0.62867 1.13601 0.40329
 N386 N 0.64683 1.15432 0.38458
 C387 C 0.59494 1.08964 0.40624
 C388 C 0.58712 1.09964 0.44338
 C389 C 0.56781 1.08079 0.46287
 C390 C 0.55596 1.05136 0.44576
 C391 C 0.56385 1.04123 0.40871
 C392 C 0.58306 1.06021 0.38912
 H393 H 0.68611 1.19633 0.37643
 H394 H 0.71865 1.23084 0.34161
 H395 H 0.69623 1.18018 0.23581
 H396 H 0.66398 1.14500 0.27048
 H397 H 0.59581 1.12220 0.45741
 H398 H 0.56221 1.08924 0.49141
 H399 H 0.55509 1.01869 0.39472
 H400 H 0.58864 1.05172 0.36059
 C401 C 0.16984 0.32918 0.18087
 C402 C 0.19623 0.33844 0.17626
 C403 C 0.21593 0.31831 0.19320
 C404 C 0.20965 0.28881 0.21558
 C405 C 0.18320 0.28029 0.22139
 C406 C 0.16348 0.29992 0.20362
 C407 C 0.14918 0.34978 0.16156
 N408 N 0.12625 0.33450 0.15111
 N409 N 0.10799 0.35288 0.13259
 C410 C 0.11184 0.38734 0.12415
 N411 N 0.13467 0.40268 0.13492
 N412 N 0.15303 0.38421 0.15306
 C413 C 0.09177 0.40772 0.10324
 C414 C 0.09012 0.44433 0.10787
 C415 C 0.07125 0.46368 0.08797
 C416 C 0.05409 0.44690 0.06236
 C417 C 0.05588 0.41033 0.05745
 C418 C 0.07435 0.39086 0.07806
 H419 H 0.20168 0.36079 0.15878
 H420 H 0.23616 0.32547 0.18838
 H421 H 0.17785 0.25813 0.23924
 H422 H 0.14327 0.29246 0.20797
 H423 H 0.10325 0.45797 0.12721
 H424 H 0.07032 0.49186 0.09219
 H425 H 0.04278 0.39675 0.03801
 H426 H 0.07529 0.36268 0.07380
 C427 C 0.67268 0.82658 0.67187
 C428 C 0.69933 0.83380 0.66621
 C429 C 0.71843 0.81428 0.68545
 C430 C 0.71125 0.78756 0.71120
 C431 C 0.68455 0.78105 0.71761
 C432 C 0.66546 0.79994 0.69764
 C433 C 0.65249 0.84686 0.65116
 N434 N 0.62898 0.83219 0.64270
 N435 N 0.61078 0.85047 0.62396
 C436 C 0.61528 0.88426 0.61331
 N437 N 0.63875 0.89897 0.62192
 N438 N 0.65706 0.88057 0.64028
 C439 C 0.59499 0.90465 0.59294
 C440 C 0.59377 0.94136 0.59692
 C441 C 0.57428 0.96061 0.57821
 C442 C 0.55608 0.94361 0.55440
 C443 C 0.55752 0.90697 0.54995
 C444 C 0.57660 0.88761 0.56944
 H445 H 0.70541 0.85415 0.64641
 H446 H 0.73886 0.81987 0.68001
 H447 H 0.67843 0.76135 0.73814
 H448 H 0.64504 0.79418 0.70291
 H449 H 0.60765 0.95511 0.61500
 H450 H 0.57364 0.98886 0.58198
 H451 H 0.54363 0.89325 0.53187
 H452 H 0.57718 0.85935 0.56576
 C453 C 0.82781 0.17186 0.16716
 C454 C 0.83362 0.19238 0.19966
 C455 C 0.81398 0.21173 0.21793
 C456 C 0.78817 0.21049 0.20431
 C457 C 0.78216 0.18927 0.17257
 C458 C 0.80188 0.17047 0.15382
 C459 C 0.84870 0.15224 0.14708
 N460 N 0.84616 0.14364 0.10940
 N461 N 0.86506 0.12624 0.09116
 C462 C 0.88718 0.11647 0.10994
 N463 N 0.88968 0.12493 0.14767
 N464 N 0.87088 0.14261 0.16583
 C465 C 0.90805 0.09693 0.08971
 C466 C 0.92546 0.07539 0.11022
 C467 C 0.94482 0.05631 0.09096
 C468 C 0.94750 0.05901 0.05092
 C469 C 0.93037 0.08098 0.03048
 C470 C 0.91066 0.09947 0.04964
 H471 H 0.85343 0.19399 0.21051
 H472 H 0.81888 0.22778 0.24260
 H473 H 0.76230 0.18793 0.16183
 H474 H 0.79681 0.15466 0.12904
 H475 H 0.92385 0.07283 0.14110
 H476 H 0.95783 0.03965 0.10743
 H477 H 0.93193 0.08343 -0.00042
 H478 H 0.89759 0.11601 0.03311
 C479 C 0.32962 0.67148 0.67199
 C480 C 0.33584 0.69065 0.70529
 C481 C 0.31657 0.70985 0.72454
 C482 C 0.29070 0.70974 0.71117
 C483 C 0.28431 0.69021 0.67833
 C484 C 0.30367 0.67155 0.65861
 C485 C 0.35009 0.65143 0.65144
 N486 N 0.34737 0.64347 0.61361
 N487 N 0.36586 0.62546 0.59512
 C488 C 0.38768 0.61442 0.61381
 N489 N 0.39035 0.62228 0.65167
 N490 N 0.37198 0.64055 0.67006
 C491 C 0.40808 0.59405 0.59347
 C492 C 0.42499 0.57182 0.61399
 C493 C 0.44403 0.55216 0.59479
 C494 C 0.44690 0.55488 0.55478
 C495 C 0.43021 0.57744 0.53429
 C496 C 0.41080 0.59656 0.55341
 H497 H 0.35568 0.69120 0.71617
 H498 H 0.32178 0.72474 0.74994
 H499 H 0.26440 0.68989 0.66769
 H500 H 0.29829 0.65684 0.63317
 H501 H 0.42328 0.56924 0.64485
 H502 H 0.45670 0.53507 0.61131
 H503 H 0.43194 0.57994 0.50341
 H504 H 0.39811 0.61361 0.53688
   
