data_POSCAR
  _audit_creation_date              2014-09-24
  _audit_creation_method            'ToBaCCo'
  _symmetry_space_group_name_H-M    'P1'
  _symmetry_Int_Tables_number       1
  _symmetry_cell_setting            triclinic
  loop_
  _symmetry_equiv_pos_as_xyz
 x,y,z
_cell_length_a 49.6414
_cell_length_b 50.6265
_cell_length_c 49.9005
_cell_angle_alpha 90.007400
_cell_angle_beta 89.897400
_cell_angle_gamma 90.001000
loop_
  _atom_site_label
  _atom_site_type_symbol
  _atom_site_fract_x
  _atom_site_fract_y
  _atom_site_fract_z
C1 C 0.34063 0.34246 1.37559
 C2 C 0.31754 0.35304 1.38791
 C3 C 0.30410 0.37522 1.37699
 C4 C 0.31520 0.38704 1.35375
 C5 C 0.33814 0.37664 1.34124
 C6 C 0.35080 0.35417 1.35208
 C7 C 0.35315 0.31978 1.38601
 C8 C 0.37561 0.30819 1.37305
 C9 C 0.38565 0.32054 1.34967
 C10 C 0.37346 0.34325 1.33919
 C11 C 0.38345 0.35497 1.31573
 C12 C 0.37084 0.37730 1.30464
 C13 C 0.34830 0.38815 1.31770
 H14 H 0.30939 0.34285 1.40517
 H15 H 0.30655 0.40488 1.34549
 H16 H 0.34428 0.31049 1.40346
 H17 H 0.40354 0.31308 1.33980
 H18 H 0.40106 0.34663 1.30603
 H19 H 0.33816 0.40509 1.30908
 C20 C 1.15561 0.65908 0.87752
 C21 C 1.17892 0.64810 0.88893
 C22 C 1.19155 0.62567 0.87755
 C23 C 1.17955 0.61420 0.85462
 C24 C 1.15627 0.62496 0.84310
 C25 C 1.14426 0.64749 0.85456
 C26 C 1.14387 0.68187 0.88851
 C27 C 1.12084 0.69369 0.87686
 C28 C 1.10950 0.68137 0.85406
 C29 C 1.12107 0.65859 0.84287
 C30 C 1.11011 0.64713 0.81971
 C31 C 1.12213 0.62478 0.80793
 C32 C 1.14510 0.61370 0.81994
 H33 H 1.18784 0.65815 0.90586
 H34 H 1.18767 0.59631 0.84592
 H35 H 1.15251 0.68980 0.90671
 H36 H 1.09250 0.69012 0.84383
 H37 H 1.09220 0.65564 0.81082
 H38 H 1.15479 0.59676 0.81080
 C39 C 0.65289 -0.16340 0.12066
 C40 C 0.67595 -0.15261 0.10852
 C41 C 0.68775 -0.12939 0.11859
 C42 C 0.67561 -0.11650 0.14047
 C43 C 0.65264 -0.12708 0.15283
 C44 C 0.64131 -0.15073 0.14301
 C45 C 0.64164 -0.18698 0.11110
 C46 C 0.61897 -0.19864 0.12367
 C47 C 0.60767 -0.18555 0.14609
 C48 C 0.61872 -0.16191 0.15584
 C49 C 0.60793 -0.14963 0.17871
 C50 C 0.61920 -0.12611 0.18861
 C51 C 0.64132 -0.11477 0.17535
 H52 H 0.68532 -0.16284 0.09185
 H53 H 0.68427 -0.09836 0.14813
 H54 H 0.65032 -0.19563 0.09324
 H55 H 0.59105 -0.19423 0.15704
 H56 H 0.59077 -0.15834 0.18887
 H57 H 0.65030 -0.09684 0.18317
 C58 C -0.15351 1.16453 -0.36958
 C59 C -0.17626 1.15404 -0.38232
 C60 C -0.18869 1.13065 -0.37300
 C61 C -0.17717 1.11774 -0.35063
 C62 C -0.15448 1.12816 -0.33758
 C63 C -0.14260 1.15164 -0.34709
 C64 C -0.14178 1.18801 -0.37882
 C65 C -0.11947 1.19914 -0.36565
 C66 C -0.10854 1.18606 -0.34331
 C67 C -0.12003 1.16246 -0.33390
 C68 C -0.10971 1.14986 -0.31111
 C69 C -0.12177 1.12671 -0.30107
 C70 C -0.14400 1.11586 -0.31464
 H71 H -0.18366 1.16393 -0.40008
 H72 H -0.18656 1.10029 -0.34224
 H73 H -0.15011 1.19775 -0.39629
 H74 H -0.09158 1.19466 -0.33279
 H75 H -0.09232 1.15817 -0.30107
 H76 H -0.15367 1.09825 -0.30687
 C77 C 0.65340 0.66672 0.62296
 C78 C 0.67571 0.65538 0.61009
 C79 C 0.68696 0.63166 0.61947
 C80 C 0.67514 0.61887 0.64156
 C81 C 0.65280 0.62999 0.65463
 C82 C 0.64197 0.65411 0.64539
 C83 C 0.64268 0.69069 0.61389
 C84 C 0.62068 0.70287 0.62707
 C85 C 0.60943 0.68985 0.64956
 C86 C 0.61999 0.66579 0.65880
 C87 C 0.60928 0.65352 0.68168
 C88 C 0.62006 0.62958 0.69106
 C89 C 0.64161 0.61777 0.67726
 H90 H 0.68452 0.66515 0.59284
 H91 H 0.68388 0.60072 0.64911
 H92 H 0.65120 0.69925 0.59591
 H93 H 0.59326 0.69888 0.66089
 H94 H 0.59256 0.66256 0.69226
 H95 H 0.65017 0.59948 0.68467
 C96 C 0.83830 0.33227 0.12869
 C97 C 0.81546 0.34285 0.11611
 C98 C 0.80397 0.36697 0.12472
 C99 C 0.81626 0.38031 0.14641
 C100 C 0.83894 0.36979 0.15931
 C101 C 0.85010 0.34576 0.15032
 C102 C 0.84948 0.30835 0.11982
 C103 C 0.87267 0.29759 0.13207
 C104 C 0.88420 0.31142 0.15381
 C105 C 0.87289 0.33508 0.16317
 C106 C 0.88372 0.34794 0.18559
 C107 C 0.87229 0.37153 0.19510
 C108 C 0.85022 0.38262 0.18158
 H109 H 0.80737 0.33252 0.09892
 H110 H 0.80752 0.39826 0.15438
 H111 H 0.84056 0.29877 0.10258
 H112 H 0.90127 0.30326 0.16447
 H113 H 0.90097 0.33954 0.19581
 H114 H 0.84130 0.40077 0.18897
 C115 C 0.33942 0.16056 0.87271
 C116 C 0.31700 0.14969 0.88577
 C117 C 0.30414 0.12675 0.87588
 C118 C 0.31478 0.11477 0.85252
 C119 C 0.33707 0.12561 0.83911
 C120 C 0.34942 0.14860 0.84923
 C121 C 0.35184 0.18346 0.88267
 C122 C 0.37391 0.19477 0.86923
 C123 C 0.38373 0.18275 0.84579
 C124 C 0.37163 0.15979 0.83572
 C125 C 0.38120 0.14808 0.81213
 C126 C 0.36873 0.12543 0.80156
 C127 C 0.34681 0.11415 0.81533
 H128 H 0.31027 0.15882 0.90421
 H129 H 0.30501 0.09774 0.84372
 H130 H 0.34394 0.19286 0.90055
 H131 H 0.40089 0.19124 0.83544
 H132 H 0.39841 0.15665 0.80195
 H133 H 0.33690 0.09686 0.80719
 C134 C 0.16448 0.83540 0.37821
 C135 C 0.18879 0.84481 0.38899
 C136 C 0.20141 0.86728 0.37815
 C137 C 0.18937 0.88037 0.35640
 C138 C 0.16519 0.87117 0.34542
 C139 C 0.15252 0.84875 0.35650
 C140 C 0.15217 0.81265 0.38861
 C141 C 0.12765 0.80306 0.37798
 C142 C 0.11568 0.81710 0.35660
 C143 C 0.12809 0.83953 0.34563
 C144 C 0.11681 0.85241 0.32339
 C145 C 0.12977 0.87432 0.31179
 C146 C 0.15374 0.88380 0.32321
 H147 H 0.19816 0.83434 0.40546
 H148 H 0.19878 0.89786 0.34806
 H149 H 0.16142 0.80303 0.40566
 H150 H 0.09745 0.80985 0.34726
 H151 H 0.09843 0.84486 0.31454
 H152 H 0.16360 0.90095 0.31463
 Zn153 Zn 0.00584 1.03013 -0.00883
 Zn154 Zn -0.02019 0.97703 -0.01703
 Zn155 Zn 0.03346 0.98181 0.01034
 Zn156 Zn -0.01591 1.00083 0.03785
 O157 O 0.00073 0.99738 0.00549
 O158 O -0.01080 1.03362 -0.04016
 O159 O -0.00311 0.94730 -0.02779
 O160 O 0.06101 1.00139 -0.00159
 O161 O -0.02978 0.99464 -0.04704
 O162 O 0.04048 1.03763 -0.01532
 O163 O 0.03602 0.95125 -0.00701
 O164 O 0.00364 0.98834 0.06513
 O165 O -0.05119 0.96622 -0.00134
 O166 O 0.04055 0.97448 0.04472
 O167 O -0.04698 0.98358 0.03910
 O168 O -0.02392 1.03430 0.04612
 O169 O -0.00682 1.05629 0.01184
 C170 C -0.02487 1.01819 -0.05449
 C171 C 0.02023 0.93850 -0.02223
 C172 C 0.06182 1.02425 -0.01196
 C173 C 0.02681 0.97779 0.06593
 C174 C -0.06014 0.97000 0.02225
 C175 C -0.01924 1.05588 0.03408
 Zn176 Zn 0.49019 0.01207 0.46364
 Zn177 Zn 0.48443 -0.01365 0.51759
 Zn178 Zn 0.53859 -0.00871 0.49155
 Zn179 Zn 0.51090 0.03927 0.51213
 O180 O 0.50597 0.00720 0.49627
 O181 O 0.45891 -0.00507 0.46104
 O182 O 0.50111 -0.04336 0.52852
 O183 O 0.54580 -0.01626 0.45719
 O184 O 0.45435 -0.02424 0.50063
 O185 O 0.51020 -0.00000 0.43639
 O186 O 0.54088 -0.03928 0.50897
 O187 O 0.54557 0.04640 0.51907
 O188 O 0.47352 0.00300 0.54760
 O189 O 0.56611 0.01071 0.50373
 O190 O 0.49363 0.04176 0.54335
 O191 O 0.49839 0.06616 0.49253
 O192 O 0.48291 0.04602 0.45642
 C193 C 0.44578 -0.01965 0.47711
 C194 C 0.52465 -0.05204 0.52374
 C195 C 0.53270 -0.01189 0.43582
 C196 C 0.56692 0.03318 0.51500
 C197 C 0.47855 0.02606 0.55633
 C198 C 0.48691 0.06695 0.46985
 Zn199 Zn 0.96355 0.48636 0.49553
 Zn200 Zn 1.01788 0.48249 0.52139
 Zn201 Zn 1.01169 0.50676 0.46686
 Zn202 Zn 0.99069 0.53514 0.51448
 O203 O 0.99602 0.50263 0.49964
 O204 O 0.96158 0.45618 0.51365
 O205 O 1.04846 0.47209 0.50471
 O206 O 0.99159 0.49425 0.43989
 O207 O 1.00154 0.45267 0.53285
 O208 O 0.95627 0.47817 0.46143
 O209 O 1.04296 0.48987 0.46460
 O210 O 1.00300 0.56167 0.49413
 O211 O 1.02801 0.50002 0.55122
 O212 O 1.01924 0.54042 0.45896
 O213 O 1.00753 0.53848 0.54577
 O214 O 0.95599 0.54222 0.52104
 O215 O 0.93579 0.50586 0.50713
 C216 C 0.97801 0.44377 0.52848
 C217 C 1.05671 0.47623 0.48093
 C218 C 0.96908 0.48236 0.43981
 C219 C 1.01492 0.56174 0.47163
 C220 C 1.02246 0.52319 0.55938
 C221 C 0.93475 0.52875 0.51744
 Zn222 Zn 0.48475 0.49218 0.96370
 Zn223 Zn 0.53303 0.51248 0.99208
 Zn224 Zn 0.47864 0.51770 1.01780
 Zn225 Zn 0.50500 0.46461 1.01203
 O226 O 0.50028 0.49681 0.99646
 O227 O 0.50481 0.50466 0.93668
 O228 O 0.53528 0.54298 1.00949
 O229 O 0.44823 0.52785 1.00088
 O230 O 0.54052 0.52016 0.95787
 O231 O 0.45326 0.50882 0.96126
 O232 O 0.49530 0.54765 1.02851
 O233 O 0.48775 0.46207 1.04317
 O234 O 0.56044 0.49287 1.00425
 O235 O 0.46805 0.50098 1.04800
 O236 O 0.53953 0.45720 1.01903
 O237 O 0.49267 0.43786 0.99213
 O238 O 0.47783 0.45829 0.95597
 C239 C 0.52748 0.51624 0.93639
 C240 C 0.51898 0.55608 1.02389
 C241 C 0.43972 0.52300 0.97735
 C242 C 0.47302 0.47780 1.05648
 C243 C 0.56102 0.47025 1.01520
 C244 C 0.48167 0.43724 0.96922
 C245 C 1.23090 0.40452 0.41099
 C246 C 1.23688 0.40829 0.38377
 C247 C 1.26079 0.39876 0.37274
 C248 C 1.27981 0.38506 0.38854
 C249 C 1.27357 0.38125 0.41596
 C250 C 1.24951 0.39087 0.42697
 C251 C 1.20530 0.41484 0.42228
 N252 N 1.19840 0.41072 0.44834
 N253 N 1.17526 0.42009 0.45814
 C254 C 1.15811 0.43397 0.44226
 N255 N 1.16509 0.43805 0.41628
 N256 N 1.18812 0.42870 0.40652
 C257 C 1.13228 0.44459 0.45272
 C258 C 1.11553 0.45946 0.43580
 C259 C 1.09117 0.46959 0.44510
 C260 C 1.08275 0.46517 0.47163
 C261 C 1.09941 0.45030 0.48869
 C262 C 1.12397 0.44011 0.47932
 H263 H 1.22289 0.41844 0.37070
 H264 H 1.26349 0.40130 0.35139
 H265 H 1.28756 0.37174 0.42943
 H266 H 1.24563 0.38777 0.44810
 H267 H 1.12119 0.46336 0.41521
 H268 H 1.07890 0.48094 0.43136
 H269 H 1.09350 0.44655 0.50924
 H270 H 1.13639 0.42873 0.49288
 C271 C 0.26490 0.59495 0.90969
 C272 C 0.24690 0.60897 0.92609
 C273 C 0.22281 0.61899 0.91568
 C274 C 0.21587 0.61526 0.88844
 C275 C 0.23421 0.60106 0.87221
 C276 C 0.25820 0.59111 0.88266
 C277 C 0.29060 0.58439 0.92045
 N278 N 0.30726 0.57005 0.90450
 N279 N 0.33040 0.56058 0.91386
 C280 C 0.33798 0.56503 0.93960
 N281 N 0.32133 0.57937 0.95563
 N282 N 0.29811 0.58885 0.94625
 C283 C 0.36391 0.55439 0.94970
 C284 C 0.37269 0.55943 0.97602
 C285 C 0.39730 0.54931 0.98515
 C286 C 0.41360 0.53392 0.96816
 C287 C 0.40474 0.52891 0.94191
 C288 C 0.38028 0.53900 0.93282
 H289 H 0.25131 0.61210 0.94709
 H290 H 0.20932 0.62877 0.92952
 H291 H 0.23093 0.59845 0.85097
 H292 H 0.27170 0.58064 0.86931
 H293 H 0.36058 0.57123 0.98955
 H294 H 0.40355 0.55352 1.00549
 H295 H 0.41674 0.51715 0.92824
 H296 H 0.37423 0.53466 0.91245
 C297 C -0.23680 0.89913 0.08666
 C298 C -0.24184 0.89919 0.11439
 C299 C -0.26629 0.89003 0.12458
 C300 C -0.28647 0.88065 0.10733
 C301 C -0.28150 0.88049 0.07957
 C302 C -0.25692 0.88965 0.06933
 C303 C -0.21066 0.90901 0.07622
 N304 N -0.20447 0.90784 0.04968
 N305 N -0.18088 0.91688 0.04064
 C306 C -0.16257 0.92748 0.05778
 N307 N -0.16883 0.92858 0.08424
 N308 N -0.19230 0.91955 0.09325
 C309 C -0.13635 0.93794 0.04815
 C310 C -0.11903 0.95073 0.06621
 C311 C -0.09443 0.96093 0.05765
 C312 C -0.08630 0.95860 0.03077
 C313 C -0.10344 0.94566 0.01260
 C314 C -0.12829 0.93548 0.02120
 H315 H -0.22681 0.90618 0.12840
 H316 H -0.26922 0.88991 0.14609
 H317 H -0.29674 0.87355 0.06575
 H318 H -0.25373 0.88938 0.04786
 H319 H -0.12449 0.95304 0.08710
 H320 H -0.08176 0.97070 0.07226
 H321 H -0.09775 0.94357 -0.00825
 H322 H -0.14114 0.92569 0.00677
 C323 C 0.73980 0.10134 0.59014
 C324 C 0.74592 0.12837 0.58959
 C325 C 0.76945 0.13793 0.60142
 C326 C 0.78761 0.12076 0.61453
 C327 C 0.78121 0.09356 0.61502
 C328 C 0.75779 0.08402 0.60285
 C329 C 0.71464 0.09138 0.57779
 N330 N 0.71081 0.06512 0.57368
 N331 N 0.68805 0.05623 0.56281
 C332 C 0.66811 0.07321 0.55569
 N333 N 0.67195 0.09946 0.55979
 N334 N 0.69474 0.10836 0.57054
 C335 C 0.64252 0.06328 0.54423
 C336 C 0.61981 0.07980 0.54261
 C337 C 0.59535 0.07014 0.53282
 C338 C 0.59313 0.04382 0.52415
 C339 C 0.61598 0.02746 0.52521
 C340 C 0.64036 0.03704 0.53528
 H341 H 0.73243 0.14230 0.58007
 H342 H 0.77251 0.15908 0.60122
 H343 H 0.79469 0.07924 0.62389
 H344 H 0.75372 0.06302 0.60355
 H345 H 0.62076 0.10010 0.54936
 H346 H 0.57813 0.08325 0.53220
 H347 H 0.61492 0.00707 0.51875
 H348 H 0.65749 0.02384 0.53612
 C349 C 0.41114 0.23704 0.40215
 C350 C 0.41207 0.24337 0.37481
 C351 C 0.40063 0.26675 0.36533
 C352 C 0.38754 0.28455 0.38287
 C353 C 0.38655 0.27789 0.41036
 C354 C 0.39835 0.25461 0.41984
 C355 C 0.42328 0.21214 0.41204
 N356 N 0.42736 0.20816 0.43865
 N357 N 0.43820 0.18572 0.44747
 C358 C 0.44532 0.16627 0.43008
 N359 N 0.44123 0.17025 0.40348
 N360 N 0.43051 0.19273 0.39465
 C361 C 0.45690 0.14111 0.43993
 C362 C 0.45850 0.11892 0.42304
 C363 C 0.46852 0.09491 0.43264
 C364 C 0.47745 0.09264 0.45924
 C365 C 0.47638 0.11497 0.47596
 C366 C 0.46609 0.13888 0.46646
 H367 H 0.42165 0.23020 0.36059
 H368 H 0.40115 0.27005 0.34392
 H369 H 0.37764 0.29105 0.42497
 H370 H 0.39735 0.25035 0.44108
 H371 H 0.45157 0.11995 0.40251
 H372 H 0.46913 0.07809 0.41925
 H373 H 0.48303 0.11385 0.49659
 H374 H 0.46528 0.15562 0.47995
 C375 C 0.91229 0.27365 0.60661
 C376 C 0.92983 0.25347 0.61499
 C377 C 0.91962 0.22931 0.62420
 C378 C 0.89167 0.22486 0.62520
 C379 C 0.87420 0.24522 0.61724
 C380 C 0.88436 0.26925 0.60803
 C381 C 0.92275 0.29904 0.59598
 N382 N 0.90555 0.31711 0.58550
 N383 N 0.91466 0.33975 0.57545
 C384 C 0.94139 0.34540 0.57545
 N385 N 0.95867 0.32740 0.58605
 N386 N 0.94954 0.30466 0.59608
 C387 C 0.95121 0.37056 0.56373
 C388 C 0.97831 0.37839 0.56609
 C389 C 0.98716 0.40224 0.55480
 C390 C 0.96913 0.41858 0.54079
 C391 C 0.94210 0.41066 0.53847
 C392 C 0.93326 0.38705 0.54983
 H393 H 0.95145 0.25618 0.61414
 H394 H 0.93359 0.21394 0.63003
 H395 H 0.85257 0.24263 0.61830
 H396 H 0.87021 0.28438 0.60197
 H397 H 0.99265 0.36616 0.57670
 H398 H 1.00812 0.40779 0.55692
 H399 H 0.92762 0.42277 0.52789
 H400 H 0.91228 0.38169 0.54753
 C401 C 0.08844 0.76596 -0.09270
 C402 C 0.07201 0.74821 -0.10679
 C403 C 0.08249 0.72442 -0.11660
 C404 C 0.10983 0.71756 -0.11263
 C405 C 0.12605 0.73556 -0.09822
 C406 C 0.11553 0.75926 -0.08847
 C407 C 0.07764 0.79141 -0.08253
 N408 N 0.09359 0.80791 -0.06816
 N409 N 0.08419 0.83084 -0.05909
 C410 C 0.05841 0.83836 -0.06398
 N411 N 0.04237 0.82188 -0.07837
 N412 N 0.05180 0.79887 -0.08745
 C413 C 0.04825 0.86401 -0.05368
 C414 C 0.02189 0.87272 -0.05915
 C415 C 0.01266 0.89698 -0.04913
 C416 C 0.02959 0.91295 -0.03341
 C417 C 0.05591 0.90420 -0.02807
 C418 C 0.06510 0.88012 -0.03806
 H419 H 0.05094 0.75260 -0.11017
 H420 H 0.06861 0.71116 -0.12646
 H421 H 0.14737 0.73226 -0.09537
 H422 H 0.12890 0.77255 -0.07788
 H423 H 0.00839 0.86082 -0.07114
 H424 H -0.00773 0.90316 -0.05359
 H425 H 0.06955 0.91596 -0.01607
 H426 H 0.08550 0.87413 -0.03341
 C427 C 0.58700 0.72810 1.09548
 C428 C 0.61411 0.73472 1.09117
 C429 C 0.62453 0.75865 1.10037
 C430 C 0.60819 0.77697 1.11427
 C431 C 0.58091 0.77006 1.11861
 C432 C 0.57052 0.74604 1.10932
 C433 C 0.57622 0.70261 1.08544
 N434 N 0.55016 0.69546 1.08979
 N435 N 0.54072 0.67252 1.08058
 C436 C 0.55696 0.65581 1.06663
 N437 N 0.58296 0.66300 1.06235
 N438 N 0.59237 0.68586 1.07154
 C439 C 0.54679 0.63028 1.05607
 C440 C 0.56397 0.61395 1.04100
 C441 C 0.55482 0.58999 1.03074
 C442 C 0.52821 0.58159 1.03524
 C443 C 0.51093 0.59779 1.05040
 C444 C 0.52014 0.62194 1.06069
 H445 H 0.62754 0.72128 1.08084
 H446 H 0.64584 0.76198 1.09739
 H447 H 0.56700 0.78349 1.12823
 H448 H 0.54945 0.74166 1.11281
 H449 H 0.58461 0.61965 1.03700
 H450 H 0.56873 0.57804 1.01920
 H451 H 0.49032 0.59187 1.05421
 H452 H 0.50638 0.63404 1.07223
 C453 C 0.39951 0.40972 1.22987
 C454 C 0.39833 0.38225 1.23390
 C455 C 0.38899 0.37186 1.25808
 C456 C 0.38069 0.38862 1.27895
 C457 C 0.38171 0.41610 1.27494
 C458 C 0.39099 0.42655 1.25064
 C459 C 0.40980 0.42048 1.20417
 N460 N 0.40896 0.44680 1.19879
 N461 N 0.41844 0.45623 1.17566
 C462 C 0.42921 0.43974 1.15701
 N463 N 0.42999 0.41347 1.16244
 N464 N 0.42048 0.40406 1.18547
 C465 C 0.44017 0.44991 1.13134
 C466 C 0.45406 0.43280 1.11399
 C467 C 0.46464 0.44198 1.08984
 C468 C 0.46152 0.46854 1.08225
 C469 C 0.44753 0.48574 1.09947
 C470 C 0.43703 0.47653 1.12384
 H471 H 0.40452 0.36867 1.21830
 H472 H 0.38795 0.35061 1.26030
 H473 H 0.37568 0.42954 1.29073
 H474 H 0.39171 0.44779 1.24825
 H475 H 0.45695 0.41220 1.11907
 H476 H 0.47523 0.42814 1.07707
 H477 H 0.44481 0.50631 1.09419
 H478 H 0.42639 0.49023 1.13673
 C479 C 0.59178 -0.09035 0.26197
 C480 C 0.59678 -0.11765 0.26064
 C481 C 0.60499 -0.12935 0.23661
 C482 C 0.60874 -0.11394 0.21352
 C483 C 0.60356 -0.08669 0.21474
 C484 C 0.59494 -0.07504 0.23867
 C485 C 0.58375 -0.07790 0.28762
 N486 N 0.57188 -0.05372 0.28805
 N487 N 0.56470 -0.04257 0.31118
 C488 C 0.56932 -0.05503 0.33484
 N489 N 0.58130 -0.07914 0.33440
 N490 N 0.58830 -0.09037 0.31128
 C491 C 0.56102 -0.04289 0.36057
 C492 C 0.57199 -0.05185 0.38487
 C493 C 0.56341 -0.04116 0.40926
 C494 C 0.54337 -0.02156 0.40990
 C495 C 0.53268 -0.01232 0.38558
 C496 C 0.54158 -0.02273 0.36116
 H497 H 0.59440 -0.13000 0.27820
 H498 H 0.60909 -0.15036 0.23622
 H499 H 0.60622 -0.07443 0.19714
 H500 H 0.59128 -0.05396 0.23906
 H501 H 0.58714 -0.06723 0.38508
 H502 H 0.57196 -0.04875 0.42767
 H503 H 0.51726 0.00281 0.38543
 H504 H 0.53272 -0.01543 0.34278
 C505 C -0.09347 1.09184 -0.22736
 C506 C -0.10134 1.07571 -0.24891
 C507 C -0.11038 1.08694 -0.27291
 C508 C -0.11181 1.11454 -0.27584
 C509 C -0.10404 1.13061 -0.25423
 C510 C -0.09493 1.11942 -0.23035
 C511 C -0.08371 1.08023 -0.20186
 N512 N -0.07368 1.09604 -0.18232
 N513 N -0.06480 1.08588 -0.15939
 C514 C -0.06559 1.05945 -0.15491
 N515 N -0.07569 1.04355 -0.17442
 N516 N -0.08454 1.05373 -0.19743
 C517 C -0.05542 1.04845 -0.12929
 C518 C -0.05857 1.02156 -0.12284
 C519 C -0.04883 1.01158 -0.09850
 C520 C -0.03561 1.02827 -0.08024
 C521 C -0.03250 1.05510 -0.08678
 C522 C -0.04230 1.06505 -0.11090
 H523 H -0.10038 1.05440 -0.24733
 H524 H -0.11597 1.07403 -0.28927
 H525 H -0.10539 1.15191 -0.25560
 H526 H -0.08922 1.13248 -0.21415
 H527 H -0.06862 1.00824 -0.13654
 H528 H -0.05153 0.99081 -0.09405
 H529 H -0.02248 1.06857 -0.07319
 H530 H -0.03944 1.08583 -0.11515
 C531 C 1.09186 0.59260 0.73373
 C532 C 1.10087 0.57575 0.75423
 C533 C 1.11043 0.58612 0.77841
 C534 C 1.11128 0.61359 0.78259
 C535 C 1.10221 0.63040 0.76211
 C536 C 1.09256 0.62005 0.73802
 C537 C 1.08185 0.58181 0.70797
 N538 N 1.07083 0.59807 0.68935
 N539 N 1.06185 0.58858 0.66616
 C540 C 1.06354 0.56239 0.66049
 N541 N 1.07461 0.54607 0.67908
 N542 N 1.08355 0.55558 0.70234
 C543 C 1.05333 0.55205 0.63460
 C544 C 1.05728 0.52552 0.62715
 C545 C 1.04747 0.51605 0.60265
 C546 C 1.03339 0.53289 0.58520
 C547 C 1.02951 0.55938 0.59270
 C548 C 1.03939 0.56884 0.61702
 H549 H 1.10048 0.55452 0.75167
 H550 H 1.11696 0.57263 0.79392
 H551 H 1.10303 0.65164 0.76447
 H552 H 1.08592 0.63365 0.72265
 H553 H 1.06798 0.51206 0.64021
 H554 H 1.05076 0.49553 0.59746
 H555 H 1.01880 0.57294 0.57974
 H556 H 1.03593 0.58937 0.62206
 C557 C 0.75978 0.60076 0.58433
 C558 C 0.73822 0.58379 0.59059
 C559 C 0.71450 0.59378 0.60186
 C560 C 0.71177 0.62095 0.60693
 C561 C 0.73319 0.63791 0.60044
 C562 C 0.75692 0.62795 0.58931
 C563 C 0.78529 0.59023 0.57311
 N564 N 0.80703 0.60622 0.56991
 N565 N 0.83014 0.59676 0.56035
 C566 C 0.83252 0.57091 0.55349
 N567 N 0.81074 0.55492 0.55656
 N568 N 0.78762 0.56438 0.56619
 C569 C 0.85848 0.56032 0.54343
 C570 C 0.86037 0.53423 0.53398
 C571 C 0.88504 0.52409 0.52516
 C572 C 0.90840 0.53977 0.52575
 C573 C 0.90646 0.56594 0.53495
 C574 C 0.88178 0.57611 0.54361
 H575 H 0.73974 0.56275 0.58701
 H576 H 0.69821 0.58029 0.60648
 H577 H 0.73181 0.65889 0.60446
 H578 H 0.77309 0.64159 0.58477
 H579 H 0.84282 0.52154 0.53348
 H580 H 0.88586 0.50384 0.51821
 H581 H 0.92406 0.57856 0.53561
 H582 H 0.88107 0.59629 0.55077
 C583 C 0.73313 0.39778 1.08786
 C584 C 0.75199 0.41478 1.09973
 C585 C 0.77521 0.40473 1.11183
 C586 C 0.78050 0.37730 1.11219
 C587 C 0.76151 0.36044 1.09985
 C588 C 0.73819 0.37052 1.08805
 C589 C 0.70813 0.40836 1.07572
 N590 N 0.68759 0.39194 1.06895
 N591 N 0.66490 0.40144 1.05854
 C592 C 0.66180 0.42777 1.05432
 N593 N 0.68239 0.44418 1.06093
 N594 N 0.70506 0.43469 1.07145
 C595 C 0.63629 0.43839 1.04332
 C596 C 0.63458 0.46477 1.03471
 C597 C 0.61029 0.47498 1.02508
 C598 C 0.58708 0.45910 1.02411
 C599 C 0.58885 0.43265 1.03247
 C600 C 0.61320 0.42238 1.04184
 H601 H 0.74879 0.43593 1.09982
 H602 H 0.78938 0.41881 1.11999
 H603 H 0.76377 0.33919 1.10027
 H604 H 0.72401 0.35684 1.07918
 H605 H 0.65201 0.47761 1.03547
 H606 H 0.60958 0.49545 1.01883
 H607 H 0.57135 0.41988 1.03190
 H608 H 0.61379 0.40198 1.04834
 C609 C 0.23384 1.09583 -0.08613
 C610 C 0.25142 1.07910 -0.10019
 C611 C 0.27447 1.08917 -0.11268
 C612 C 0.28090 1.11632 -0.11119
 C613 C 0.26322 1.13289 -0.09663
 C614 C 0.24004 1.12281 -0.08447
 C615 C 0.20895 1.08534 -0.07361
 N616 N 0.18921 1.10196 -0.06514
 N617 N 0.16657 1.09257 -0.05442
 C618 C 0.16275 1.06616 -0.05157
 N619 N 0.18256 1.04953 -0.05988
 N620 N 0.20516 1.05892 -0.07072
 C621 C 0.13727 1.05570 -0.04028
 C622 C 0.13516 1.02906 -0.03262
 C623 C 0.11083 1.01901 -0.02283
 C624 C 0.08799 1.03529 -0.02078
 C625 C 0.09018 1.06200 -0.02814
 C626 C 0.11458 1.07212 -0.03764
 H627 H 0.24729 1.05815 -0.10175
 H628 H 0.28764 1.07525 -0.12264
 H629 H 0.26635 1.15400 -0.09553
 H630 H 0.22686 1.13630 -0.07387
 H631 H 0.15229 1.01592 -0.03427
 H632 H 0.10979 0.99833 -0.01738
 H633 H 0.07296 1.07507 -0.02673
 H634 H 0.11550 1.09272 -0.04340
 C635 C 0.27605 -0.10235 0.40975
 C636 C 0.25596 -0.11189 0.42715
 C637 C 0.23186 -0.12208 0.41695
 C638 C 0.22736 -0.12297 0.38916
 C639 C 0.24769 -0.11396 0.37180
 C640 C 0.27168 -0.10373 0.38196
 C641 C 0.30121 -0.09051 0.42030
 N642 N 0.31892 -0.07860 0.40342
 N643 N 0.34134 -0.06753 0.41271
 C644 C 0.34710 -0.06788 0.43929
 N645 N 0.32946 -0.07988 0.45622
 N646 N 0.30695 -0.09093 0.44692
 C647 C 0.37209 -0.05533 0.44939
 C648 C 0.38008 -0.05817 0.47626
 C649 C 0.40395 -0.04651 0.48541
 C650 C 0.42019 -0.03166 0.46790
 C651 C 0.41202 -0.02865 0.44113
 C652 C 0.38833 -0.04037 0.43199
 H653 H 0.25866 -0.11109 0.44866
 H654 H 0.21648 -0.12868 0.43083
 H655 H 0.24507 -0.11488 0.35028
 H656 H 0.28679 -0.09681 0.36794
 H657 H 0.36804 -0.06957 0.49019
 H658 H 0.40968 -0.04919 0.50616
 H659 H 0.42405 -0.01737 0.42708
 H660 H 0.38278 -0.03766 0.41119
 C661 C 0.59036 -0.22318 0.59918
 C662 C 0.61731 -0.23037 0.59483
 C663 C 0.62722 -0.25446 0.60408
 C664 C 0.61051 -0.27239 0.61807
 C665 C 0.58347 -0.26479 0.62272
 C666 C 0.57358 -0.24060 0.61335
 C667 C 0.58005 -0.19770 0.58870
 N668 N 0.55412 -0.19005 0.59289
 N669 N 0.54505 -0.16722 0.58310
 C670 C 0.56152 -0.15112 0.56869
 N671 N 0.58740 -0.15880 0.56458
 N672 N 0.59645 -0.18156 0.57435
 C673 C 0.55170 -0.12578 0.55743
 C674 C 0.56896 -0.11016 0.54170
 C675 C 0.56007 -0.08635 0.53085
 C676 C 0.53365 -0.07743 0.53545
 C677 C 0.51630 -0.09296 0.55122
 C678 C 0.52523 -0.11693 0.56209
 H679 H 0.63098 -0.21730 0.58431
 H680 H 0.64842 -0.25829 0.60099
 H681 H 0.56935 -0.27786 0.63254
 H682 H 0.55265 -0.23573 0.61695
 H683 H 0.58946 -0.11630 0.53764
 H684 H 0.57401 -0.07490 0.51884
 H685 H 0.49583 -0.08664 0.55513
 H686 H 0.51141 -0.12849 0.57412
 C687 C 1.09197 0.73189 0.40653
 C688 C 1.07582 0.75240 0.39663
 C689 C 1.08747 0.77578 0.38725
 C690 C 1.11567 0.77959 0.38805
 C691 C 1.13164 0.75903 0.39871
 C692 C 1.11996 0.73546 0.40750
 C693 C 1.07977 0.70676 0.41550
 N694 N 1.09439 0.68409 0.41533
 N695 N 1.08345 0.66137 0.42322
 C696 C 1.05749 0.66041 0.43181
 N697 N 1.04288 0.68310 0.43209
 N698 N 1.05376 0.70579 0.42395
 C699 C 1.04562 0.63521 0.44103
 C700 C 1.02403 0.63505 0.45927
 C701 C 1.01382 0.61117 0.46905
 C702 C 1.02464 0.58699 0.46032
 C703 C 1.04569 0.58717 0.44148
 C704 C 1.05625 0.61103 0.43214
 H705 H 1.05413 0.75023 0.39577
 H706 H 1.07409 0.79115 0.38023
 H707 H 1.15338 0.76037 0.39910
 H708 H 1.13293 0.71996 0.41506
 H709 H 1.01549 0.65340 0.46652
 H710 H 0.99754 0.61160 0.48352
 H711 H 1.05451 0.56885 0.43448
 H712 H 1.07279 0.61056 0.41795
 C713 C -0.09346 1.22517 0.10461
 C714 C -0.07699 1.24478 0.11575
 C715 C -0.08810 1.26844 0.12507
 C716 C -0.11602 1.27345 0.12290
 C717 C -0.13233 1.25364 0.11135
 C718 C -0.12124 1.22977 0.10264
 C719 C -0.08178 1.20001 0.09505
 N720 N -0.09710 1.17783 0.09378
 N721 N -0.08667 1.15517 0.08505
 C722 C -0.06055 1.15382 0.07701
 N723 N -0.04524 1.17602 0.07820
 N724 N -0.05561 1.19863 0.08718
 C725 C -0.04923 1.12875 0.06680
 C726 C -0.02729 1.12884 0.04897
 C727 C -0.01743 1.10515 0.03839
 C728 C -0.02895 1.08090 0.04589
 C729 C -0.05046 1.08079 0.06423
 C730 C -0.06067 1.10449 0.07436
 H731 H -0.05546 1.24177 0.11747
 H732 H -0.07443 1.28317 0.13291
 H733 H -0.15396 1.25589 0.10998
 H734 H -0.13445 1.21495 0.09417
 H735 H -0.01814 1.14727 0.04273
 H736 H -0.00078 1.10580 0.02434
 H737 H -0.05980 1.06240 0.07028
 H738 H -0.07751 1.10382 0.08818
 C739 C 0.40967 0.26672 0.89853
 C740 C 0.40327 0.24605 0.91627
 C741 C 0.39166 0.22270 0.90678
 C742 C 0.38639 0.21944 0.87934
 C743 C 0.39294 0.23999 0.86158
 C744 C 0.40438 0.26339 0.87107
 C745 C 0.42154 0.29168 0.90862
 N746 N 0.42454 0.31286 0.89217
 N747 N 0.43482 0.33542 0.90131
 C748 C 0.44262 0.33775 0.92728
 N749 N 0.43974 0.31653 0.94370
 N750 N 0.42939 0.29399 0.93457
 C751 C 0.45354 0.36302 0.93762
 C752 C 0.46419 0.36458 0.96366
 C753 C 0.47374 0.38856 0.97372
 C754 C 0.47273 0.41160 0.95804
 C755 C 0.46238 0.41001 0.93189
 C756 C 0.45298 0.38598 0.92176
 H757 H 0.40706 0.24794 0.93755
 H758 H 0.38703 0.20708 0.92088
 H759 H 0.38881 0.23812 0.84036
 H760 H 0.40904 0.27889 0.85684
 H761 H 0.46504 0.34727 0.97638
 H762 H 0.48157 0.38911 0.99395
 H763 H 0.46136 0.42739 0.91928
 H764 H 0.44491 0.38550 0.90162
 C765 C 0.59162 0.59386 0.76401
 C766 C 0.59431 0.57870 0.74055
 C767 C 0.60342 0.59031 0.71678
 C768 C 0.60956 0.61737 0.71592
 C769 C 0.60641 0.63263 0.73920
 C770 C 0.59772 0.62096 0.76306
 C771 C 0.58282 0.58150 0.78943
 N772 N 0.58754 0.59362 0.81324
 N773 N 0.57972 0.58254 0.83617
 C774 C 0.56674 0.55893 0.83624
 N775 N 0.56196 0.54681 0.81243
 N776 N 0.56995 0.55782 0.78950
 C777 C 0.55758 0.54698 0.86175
 C778 C 0.53741 0.52751 0.86193
 C779 C 0.52784 0.51724 0.88616
 C780 C 0.53855 0.52595 0.91067
 C781 C 0.55923 0.54490 0.91044
 C782 C 0.56850 0.55544 0.88625
 H783 H 0.58983 0.55777 0.74067
 H784 H 0.60559 0.57819 0.69902
 H785 H 0.61125 0.65349 0.73907
 H786 H 0.59573 0.63319 0.78075
 H787 H 0.52856 0.52062 0.84338
 H788 H 0.51193 0.50261 0.88570
 H789 H 0.56783 0.55207 0.92900
 H790 H 0.58419 0.57030 0.88677
 C791 C 0.39816 0.09316 0.72704
 C792 C 0.39017 0.07626 0.74797
 C793 C 0.38037 0.08663 0.77211
 C794 C 0.37833 0.11410 0.77578
 C795 C 0.38582 0.13090 0.75465
 C796 C 0.39567 0.12059 0.73064
 C797 C 0.40952 0.08254 0.70174
 N798 N 0.42042 0.09914 0.68332
 N799 N 0.43107 0.08986 0.66073
 C800 C 0.43125 0.06356 0.65547
 N801 N 0.42025 0.04688 0.67382
 N802 N 0.40964 0.05618 0.69652
 C803 C 0.44341 0.05352 0.63030
 C804 C 0.44058 0.02694 0.62255
 C805 C 0.45197 0.01788 0.59854
 C806 C 0.46657 0.03517 0.58192
 C807 C 0.46952 0.06165 0.58983
 C808 C 0.45804 0.07071 0.61363
 H809 H 0.39186 0.05504 0.74587
 H810 H 0.37494 0.07318 0.78810
 H811 H 0.38394 0.15213 0.75661
 H812 H 0.40136 0.13421 0.71489
 H813 H 0.42941 0.01319 0.63492
 H814 H 0.44936 -0.00265 0.59301
 H815 H 0.48059 0.07554 0.57751
 H816 H 0.46074 0.09127 0.61897
 C817 C 0.09872 0.90893 0.23925
 C818 C 0.12644 0.90411 0.24226
 C819 C 0.13644 0.89313 0.26589
 C820 C 0.11898 0.88661 0.28706
 C821 C 0.09127 0.89146 0.28416
 C822 C 0.08125 0.90260 0.26054
 C823 C 0.08818 0.92013 0.21391
 N824 N 0.06188 0.92716 0.21156
 N825 N 0.05243 0.93691 0.18863
 C826 C 0.06887 0.93999 0.16705
 N827 N 0.09517 0.93300 0.16942
 N828 N 0.10462 0.92332 0.19236
 C829 C 0.05830 0.95033 0.14134
 C830 C 0.07447 0.95022 0.11817
 C831 C 0.06432 0.95930 0.09376
 C832 C 0.03782 0.96886 0.09196
 C833 C 0.02175 0.96932 0.11519
 C834 C 0.03185 0.96008 0.13958
 H835 H 0.14048 0.90872 0.22631
 H836 H 0.15784 0.88928 0.26741
 H837 H 0.07739 0.88680 0.30024
 H838 H 0.05979 0.90604 0.25890
 H839 H 0.09493 0.94283 0.11879
 H840 H 0.07724 0.95872 0.07626
 H841 H 0.00123 0.97654 0.11448
 H842 H 0.01887 0.96054 0.15703
 C843 C 0.90104 0.40717 0.26791
 C844 C 0.89538 0.38000 0.26677
 C845 C 0.88645 0.36845 0.24299
 C846 C 0.88262 0.38387 0.21994
 C847 C 0.88816 0.41105 0.22100
 C848 C 0.89753 0.42256 0.24472
 C849 C 0.91038 0.41926 0.29325
 N850 N 0.92325 0.44295 0.29333
 N851 N 0.93189 0.45356 0.31620
 C852 C 0.92782 0.44101 0.33994
 N853 N 0.91482 0.41742 0.33984
 N854 N 0.90635 0.40674 0.31698
 C855 C 0.93768 0.45248 0.36539
 C856 C 0.92733 0.44362 0.39002
 C857 C 0.93713 0.45376 0.41413
 C858 C 0.95779 0.47273 0.41418
 C859 C 0.96802 0.48178 0.38955
 C860 C 0.95791 0.47191 0.36539
 H861 H 0.89798 0.36758 0.28424
 H862 H 0.88205 0.34749 0.24272
 H863 H 0.88543 0.42330 0.20343
 H864 H 0.90166 0.44356 0.24500
 H865 H 0.91163 0.42878 0.39069
 H866 H 0.92888 0.44634 0.43278
 H867 H 0.98389 0.49645 0.38894
 H868 H 0.96634 0.47909 0.34673
   
