data_POSCAR
  _audit_creation_date              2014-09-24
  _audit_creation_method            'ToBaCCo'
  _symmetry_space_group_name_H-M    'P1'
  _symmetry_Int_Tables_number       1
  _symmetry_cell_setting            triclinic
  loop_
  _symmetry_equiv_pos_as_xyz
 x,y,z
_cell_length_a 34.3228
_cell_length_b 29.9709
_cell_length_c 33.9924
_cell_angle_alpha 90.056400
_cell_angle_beta 83.279900
_cell_angle_gamma 89.050400
loop_
  _atom_site_label
  _atom_site_type_symbol
  _atom_site_fract_x
  _atom_site_fract_y
  _atom_site_fract_z
C1 C 0.61333 0.66290 0.60936
 C2 C 0.65114 0.64781 0.59451
 C3 C 0.67001 0.61542 0.61476
 C4 C 0.65104 0.59697 0.64962
 C5 C 0.61364 0.61148 0.66393
 C6 C 0.59489 0.64496 0.64399
 C7 C 0.58872 0.69574 0.59738
 N8 N 0.55609 0.69819 0.62422
 C9 C 0.55965 0.66727 0.65271
 C10 C 0.60188 0.58694 0.69720
 N11 N 0.63118 0.55780 0.70359
 C12 C 0.66161 0.56393 0.67466
 C13 C 0.70641 0.60785 0.59404
 N14 N 0.70980 0.63426 0.56151
 C15 C 0.67625 0.65900 0.56155
 H16 H 0.59501 0.71760 0.57220
 H17 H 0.53860 0.66240 0.67859
 H18 H 0.57370 0.58957 0.71515
 H19 H 0.68891 0.54502 0.67097
 H20 H 0.72867 0.58445 0.60171
 H21 H 0.67070 0.68357 0.53947
 C22 C 0.87457 0.33470 0.09467
 C23 C 0.83956 0.35135 0.08222
 C24 C 0.81898 0.38572 0.10310
 C25 C 0.83363 0.40474 0.13597
 C26 C 0.86832 0.38861 0.14789
 C27 C 0.88850 0.35294 0.12756
 C28 C 0.89993 0.30030 0.08141
 N29 N 0.92827 0.29657 0.10606
 C30 C 0.92162 0.32913 0.13417
 C31 C 0.87621 0.41395 0.17964
 N32 N 0.84723 0.44534 0.18710
 C33 C 0.82076 0.43955 0.16093
 C34 C 0.78560 0.39400 0.08536
 N35 N 0.78570 0.36603 0.05400
 C36 C 0.81851 0.33972 0.05178
 H37 H 0.89711 0.27848 0.05651
 H38 H 0.93927 0.33544 0.15787
 H39 H 0.90131 0.40991 0.19592
 H40 H 0.79469 0.46004 0.15948
 H41 H 0.76287 0.41861 0.09448
 H42 H 0.82604 0.31346 0.03020
 C43 C 0.39294 0.15764 -0.10335
 C44 C 0.35784 0.13982 -0.08509
 C45 C 0.33750 0.10924 -0.10517
 C46 C 0.35251 0.09533 -0.14354
 C47 C 0.38740 0.11253 -0.16113
 C48 C 0.40739 0.14418 -0.14122
 C49 C 0.41806 0.18934 -0.09184
 N50 N 0.44704 0.19544 -0.12213
 C51 C 0.44073 0.16794 -0.15232
 C52 C 0.39636 0.09162 -0.19704
 N53 N 0.36782 0.06207 -0.20202
 C54 C 0.34050 0.06435 -0.16953
 C55 C 0.30459 0.09792 -0.08025
 N56 N 0.30470 0.12075 -0.04569
 C57 C 0.33720 0.14617 -0.04828
 H58 H 0.41450 0.20784 -0.06426
 H59 H 0.45864 0.16623 -0.18073
 H60 H 0.42244 0.09667 -0.21767
 H61 H 0.31490 0.04366 -0.16405
 H62 H 0.28263 0.07424 -0.08651
 H63 H 0.34512 0.16777 -0.02504
 C64 C 0.11602 0.84104 0.41402
 C65 C 0.14884 0.85890 0.42904
 C66 C 0.17079 0.89127 0.40787
 C67 C 0.15949 0.90714 0.37194
 C68 C 0.12678 0.88994 0.35768
 C69 C 0.10549 0.85615 0.37833
 C70 C 0.08993 0.80827 0.42724
 N71 N 0.06460 0.80241 0.39983
 C72 C 0.07374 0.83212 0.37001
 C73 C 0.12100 0.91297 0.32392
 N74 N 0.14938 0.94419 0.31719
 C75 C 0.17355 0.94017 0.34603
 C76 C 0.20101 0.90196 0.42929
 N77 N 0.19776 0.87699 0.46285
 C78 C 0.16585 0.85089 0.46311
 H79 H 0.09024 0.78899 0.45414
 H80 H 0.05861 0.83645 0.34407
 H81 H 0.09751 0.90723 0.30601
 H82 H 0.19839 0.96120 0.34903
 H83 H 0.22330 0.92656 0.42139
 H84 H 0.15596 0.82755 0.48630
 N85 N 0.05563 0.17052 0.10982
 N86 N 0.04856 0.16721 0.14855
 C87 C 0.02027 0.19677 0.16204
 C88 C 0.00831 0.21915 0.13000
 C89 C 0.03117 0.20162 0.09713
 H90 H 0.00902 0.20153 0.19286
 H91 H 0.03118 0.21189 0.06663
 Cu92 Cu 0.07595 0.12353 0.17753
 Cu93 Cu 0.09837 0.13615 0.08025
 Cu94 Cu 0.16707 0.09542 0.13963
 N95 N 0.10520 0.07689 0.20112
 N96 N 0.14200 0.06755 0.18801
 C97 C 0.15534 0.03501 0.21066
 C98 C 0.12473 0.02297 0.23866
 C99 C 0.09341 0.04992 0.23156
 H100 H 0.18424 0.01962 0.20568
 H101 H 0.06410 0.04963 0.24722
 N102 N 0.17946 0.10680 0.08243
 N103 N 0.15265 0.11900 0.05948
 C104 C 0.16960 0.12154 0.02180
 C105 C 0.20899 0.11113 0.02113
 C106 C 0.21431 0.10184 0.06004
 H107 H 0.15471 0.13186 -0.00310
 H108 H 0.24133 0.09164 0.07117
 H109 H 0.11408 0.08808 0.12054
 H110 H 0.12806 0.14721 0.12736
 N111 N 0.43619 0.83279 0.58360
 N112 N 0.44087 0.83893 0.62104
 C113 C 0.46951 0.81147 0.63084
 C114 C 0.48389 0.78703 0.59758
 C115 C 0.46241 0.80173 0.56797
 H116 H 0.47942 0.80985 0.65986
 H117 H 0.46488 0.78986 0.53770
 Cu118 Cu 0.41003 0.88326 0.65312
 Cu119 Cu 0.39449 0.86423 0.55973
 Cu120 Cu 0.31912 0.90126 0.63041
 N121 N 0.37465 0.92514 0.68316
 N122 N 0.33810 0.93059 0.67584
 C123 C 0.31969 0.95969 0.70239
 C124 C 0.34667 0.97400 0.72671
 C125 C 0.38117 0.95131 0.71371
 H126 H 0.28947 0.97078 0.70302
 H127 H 0.40882 0.95336 0.72589
 N128 N 0.31175 0.88907 0.57464
 N129 N 0.34102 0.87826 0.54734
 C130 C 0.32736 0.87573 0.51189
 C131 C 0.28754 0.88473 0.51722
 C132 C 0.27852 0.89311 0.55733
 H133 H 0.34490 0.86691 0.48437
 H134 H 0.25017 0.90262 0.57259
 H135 H 0.37303 0.91311 0.60172
 H136 H 0.36262 0.85317 0.61242
 N137 N 0.93835 0.68055 0.39121
 N138 N 0.95018 0.67204 0.35371
 C139 C 0.98039 0.69844 0.34129
 C140 C 0.98855 0.72416 0.37288
 C141 C 0.96146 0.71193 0.40430
 H142 H 0.99529 0.69904 0.31144
 H143 H 0.95758 0.72627 0.43375
 Cu144 Cu 0.92557 0.62670 0.32478
 Cu145 Cu 0.89120 0.65303 0.41800
 Cu146 Cu 0.82984 0.61439 0.35133
 N147 N 0.89585 0.58398 0.29815
 N148 N 0.85782 0.58012 0.30764
 C149 C 0.84439 0.54889 0.28432
 C150 C 0.87600 0.53197 0.25935
 C151 C 0.90813 0.55490 0.26901
 H152 H 0.81422 0.53839 0.28641
 H153 H 0.93821 0.55051 0.25589
 N154 N 0.81102 0.63152 0.40630
 N155 N 0.83473 0.64280 0.43246
 C156 C 0.81351 0.64845 0.46807
 C157 C 0.77459 0.64062 0.46385
 C158 C 0.77402 0.63028 0.42438
 H159 H 0.82540 0.65841 0.49477
 H160 H 0.74870 0.62113 0.41016
 H161 H 0.87790 0.60232 0.37909
 H162 H 0.87026 0.66184 0.36547
 N163 N 0.57236 0.32045 -0.08584
 N164 N 0.56325 0.33106 -0.12119
 C165 C 0.53270 0.30664 -0.12935
 C166 C 0.52182 0.27944 -0.09718
 C167 C 0.54730 0.28942 -0.06988
 H168 H 0.51944 0.30860 -0.15665
 H169 H 0.54849 0.27407 -0.04125
 Cu170 Cu 0.59199 0.37587 -0.15328
 Cu171 Cu 0.61822 0.34571 -0.06549
 Cu172 Cu 0.68696 0.38162 -0.14166
 N173 N 0.62622 0.41676 -0.18438
 N174 N 0.66402 0.41751 -0.18125
 C175 C 0.68117 0.44686 -0.20756
 C176 C 0.65233 0.46622 -0.22744
 C177 C 0.61779 0.44621 -0.21210
 H178 H 0.71211 0.45432 -0.21125
 H179 H 0.58886 0.45200 -0.22089
 N180 N 0.70054 0.36390 -0.08903
 N181 N 0.67395 0.35372 -0.05923
 C182 C 0.69171 0.34834 -0.02626
 C183 C 0.73143 0.35520 -0.03597
 C184 C 0.73606 0.36462 -0.07595
 H185 H 0.67689 0.33966 0.00248
 H186 H 0.76304 0.37332 -0.09379
 H187 H 0.63691 0.39635 -0.10600
 H188 H 0.64296 0.33673 -0.12169
 C189 C -0.04301 0.26432 0.10292
 C190 C -0.02104 0.25558 0.13222
 H191 H -0.03942 0.24319 0.07678
 H192 H -0.02641 0.27304 0.16020
 C193 C 0.52490 0.73086 0.62614
 C194 C 0.51535 0.75268 0.59421
 H195 H 0.50795 0.73694 0.65464
 H196 H 0.52992 0.74443 0.56508
 C197 C 1.03613 0.77098 0.40230
 C198 C 1.01791 0.75943 0.37107
 H199 H 1.02967 0.75278 0.42980
 H200 H 1.02651 0.77357 0.34219
 C201 C 0.47728 0.22814 -0.12492
 C202 C 0.49068 0.24591 -0.09307
 H203 H 0.49057 0.23729 -0.15423
 H204 H 0.47988 0.23449 -0.06368
 C205 C 0.15267 -0.02405 0.28831
 C206 C 0.12298 -0.01368 0.26740
 H207 H 0.17899 -0.00425 0.28412
 H208 H 0.09480 -0.02923 0.27397
 C209 C 0.62801 0.52701 -0.26681
 C210 C 0.65779 0.50033 -0.25868
 H211 H 0.60000 0.52443 -0.24861
 H212 H 0.68696 0.50398 -0.27404
 C213 C 0.36986 1.03343 0.76668
 C214 C 0.34055 1.00678 0.75926
 H215 H 0.39673 1.03241 0.74637
 H216 H 0.31188 1.00945 0.77615
 C217 C 0.84484 0.47987 0.21665
 C218 C 0.87708 0.49584 0.22989
 H219 H 0.81640 0.49473 0.22659
 H220 H 0.90569 0.48316 0.21776
 C221 C 0.27644 0.11814 -0.01121
 C222 C 0.23848 0.11116 -0.01398
 H223 H 0.28592 0.12515 0.01744
 H224 H 0.22836 0.10826 -0.04285
 C225 C 0.74368 0.63533 0.53257
 C226 C 0.74041 0.64233 0.49426
 H227 H 0.77207 0.62694 0.54178
 H228 H 0.71163 0.64653 0.48456
 C229 C 0.75502 0.36425 0.02887
 C230 C 0.76253 0.35443 -0.00966
 H231 H 0.72558 0.37424 0.04107
 H232 H 0.79250 0.34863 -0.02273
 C233 C 0.22277 0.87811 0.49380
 C234 C 0.26120 0.88555 0.48603
 H235 H 0.21047 0.86975 0.52365
 H236 H 0.27414 0.88980 0.45569
   
