data_POSCAR
  _audit_creation_date              2014-09-24
  _audit_creation_method            'ToBaCCo'
  _symmetry_space_group_name_H-M    'P1'
  _symmetry_Int_Tables_number       1
  _symmetry_cell_setting            triclinic
  loop_
  _symmetry_equiv_pos_as_xyz
 x,y,z
_cell_length_a 26.0049
_cell_length_b 25.7201
_cell_length_c 26.8669
_cell_angle_alpha 89.830100
_cell_angle_beta 90.120000
_cell_angle_gamma 89.059700
loop_
  _atom_site_label
  _atom_site_type_symbol
  _atom_site_fract_x
  _atom_site_fract_y
  _atom_site_fract_z
C1 C 0.09775 0.14745 0.18464
 C2 C 0.10407 0.18817 0.15038
 C3 C 0.14118 0.18437 0.11367
 C4 C 0.17243 0.13972 0.11037
 C5 C 0.16806 0.10034 0.14550
 C6 C 0.13024 0.10416 0.18297
 C7 C 0.07336 0.14688 0.23008
 N8 N 0.09038 0.10503 0.25646
 C9 C 0.12536 0.07880 0.22821
 C10 C 0.21307 0.07118 0.14308
 N11 N 0.24391 0.09172 0.10761
 C12 C 0.21890 0.13291 0.08690
 C13 C 0.14387 0.23227 0.09056
 N14 N 0.10925 0.26458 0.11254
 C15 C 0.08451 0.23826 0.14870
 H16 H 0.05152 0.17906 0.24581
 H17 H 0.15066 0.04812 0.24204
 H18 H 0.22584 0.04302 0.17071
 H19 H 0.23715 0.16166 0.06358
 H20 H 0.16818 0.24253 0.05950
 H21 H 0.05515 0.25493 0.17249
 C22 C -0.09924 0.85300 0.18324
 C23 C -0.10824 0.81613 0.14590
 C24 C -0.14336 0.82720 0.10837
 C25 C -0.17152 0.87407 0.10844
 C26 C -0.16473 0.90941 0.14669
 C27 C -0.12784 0.89908 0.18418
 C28 C -0.07502 0.84804 0.22867
 N29 N -0.08835 0.88931 0.25736
 C30 C -0.12102 0.92046 0.23090
 C31 C -0.20773 0.94167 0.14656
 N32 N -0.24018 0.92652 0.10986
 C33 C -0.21780 0.88597 0.08580
 C34 C -0.14859 0.78283 0.08051
 N35 N -0.11872 0.74493 0.10093
 C36 C -0.09339 0.76452 0.14068
 H37 H -0.05547 0.81330 0.24231
 H38 H -0.14330 0.95240 0.24648
 H39 H -0.21863 0.96767 0.17653
 H40 H -0.23800 0.86062 0.06053
 H41 H -0.17253 0.77820 0.04785
 H42 H -0.06579 0.74315 0.16335
 C43 C -0.10351 0.11534 -0.17892
 C44 C -0.09937 0.15614 -0.14469
 C45 C -0.13767 0.16461 -0.10956
 C46 C -0.17967 0.13129 -0.10689
 C47 C -0.18433 0.09143 -0.14122
 C48 C -0.14617 0.08365 -0.17769
 C49 C -0.08061 0.10879 -0.22480
 N50 N -0.10829 0.07451 -0.25150
 C51 C -0.14828 0.05893 -0.22310
 C52 C -0.23448 0.07480 -0.13849
 N53 N -0.25923 0.10213 -0.10256
 C54 C -0.22649 0.13721 -0.08342
 C55 C -0.12990 0.21302 -0.08925
 N56 N -0.08771 0.23320 -0.11089
 C57 C -0.06824 0.19899 -0.14424
 H58 H -0.05164 0.13375 -0.24049
 H59 H -0.18118 0.03831 -0.23728
 H60 H -0.25346 0.05013 -0.16512
 H61 H -0.23774 0.16898 -0.05918
 H62 H -0.15395 0.23286 -0.06223
 H63 H -0.03605 0.20630 -0.16859
 C64 C 0.10902 0.87448 -0.18065
 C65 C 0.10297 0.83712 -0.14321
 C66 C 0.13518 0.83691 -0.10194
 C67 C 0.17536 0.87248 -0.09860
 C68 C 0.18313 0.90773 -0.13693
 C69 C 0.14924 0.90922 -0.17793
 C70 C 0.08964 0.87669 -0.22836
 N71 N 0.11686 0.91172 -0.25457
 C72 C 0.15379 0.93125 -0.22458
 C73 C 0.23272 0.92549 -0.13166
 N74 N 0.25451 0.90271 -0.09103
 C75 C 0.21986 0.87030 -0.07060
 C76 C 0.12625 0.79176 -0.07599
 N77 N 0.09085 0.76445 -0.10130
 C78 C 0.07594 0.79135 -0.14234
 H79 H 0.06264 0.84987 -0.24451
 H80 H 0.18561 0.95436 -0.23736
 H81 H 0.25389 0.94666 -0.15960
 H82 H 0.22913 0.84117 -0.04264
 H83 H 0.14648 0.77798 -0.04314
 H84 H 0.04919 0.77774 -0.17015
 C85 C 0.12520 1.09702 0.82154
 C86 C 0.16451 1.09622 0.85742
 C87 C 0.16918 1.13720 0.89048
 C88 C 0.13402 1.17887 0.88898
 C89 C 0.09516 1.17993 0.85344
 C90 C 0.09075 1.13878 0.81946
 C91 C 0.12296 1.07228 0.77617
 N92 N 0.08865 1.09791 0.74671
 C93 C 0.06841 1.13820 0.77289
 C94 C 0.07713 1.23059 0.85070
 N95 N 0.10349 1.25932 0.88390
 C96 C 0.13831 1.22844 0.90746
 C97 C 0.21652 1.13211 0.91326
 N98 N 0.23990 1.08885 0.89513
 C99 C 0.20879 1.06632 0.86139
 H100 H 0.15110 1.04433 0.76260
 H101 H 0.04634 1.16998 0.75646
 H102 H 0.05208 1.24662 0.82208
 H103 H 0.16925 1.24240 0.93066
 H104 H 0.23332 1.15845 0.93987
 H105 H 0.21900 1.03279 0.83918
 C106 C 0.87270 0.89984 0.81896
 C107 C 0.83143 0.90419 0.85242
 C108 C 0.82403 0.86594 0.88801
 C109 C 0.85781 0.82326 0.89118
 C110 C 0.89846 0.81859 0.85801
 C111 C 0.90615 0.85728 0.82184
 C112 C 0.87867 0.92147 0.77234
 N113 N 0.91446 0.89335 0.74709
 C114 C 0.93176 0.85441 0.77706
 C115 C 0.91443 0.76717 0.85910
 N116 N 0.88484 0.74147 0.89211
 C117 C 0.85036 0.77513 0.91210
 C118 C 0.77614 0.87420 0.90846
 N119 N 0.75487 0.91674 0.88652
 C120 C 0.78798 0.93571 0.85246
 H121 H 0.85227 0.94903 0.75506
 H122 H 0.95432 0.82129 0.76427
 H123 H 0.94028 0.74854 0.83283
 H124 H 0.81744 0.76384 0.93403
 H125 H 0.75772 0.85068 0.93652
 H126 H 0.77992 0.96788 0.82763
 C127 C 0.14669 0.89327 1.18668
 C128 C 0.18657 0.88392 1.15263
 C129 C 0.17990 0.84879 1.11444
 C130 C 0.13429 0.82136 1.11059
 C131 C 0.09504 0.82942 1.14473
 C132 C 0.10132 0.86576 1.18318
 C133 C 0.14730 0.91647 1.23263
 N134 N 0.10443 0.90282 1.25763
 C135 C 0.07584 0.87221 1.22773
 C136 C 0.05919 0.79129 1.13656
 N137 N 0.07679 0.76080 1.09906
 C138 C 0.12235 0.77866 1.08279
 C139 C 0.22517 0.84537 1.08844
 N140 N 0.25953 0.87633 1.11091
 C141 C 0.23668 0.90048 1.15003
 H142 H 0.18048 0.93420 1.24966
 H143 H 0.04354 0.84959 1.24023
 H144 H 0.02514 0.78396 1.15840
 H145 H 0.14633 0.75994 1.05499
 H146 H 0.23249 0.82281 1.05517
 H147 H 0.25444 0.92956 1.17317
 C148 C 0.85686 1.10387 1.18840
 C149 C 0.81796 1.11373 1.15322
 C150 C 0.82569 1.14953 1.11559
 C151 C 0.87114 1.17731 1.11359
 C152 C 0.90922 1.16896 1.14902
 C153 C 0.90212 1.13172 1.18670
 C154 C 0.85527 1.07939 1.23386
 N155 N 0.89760 1.09237 1.26017
 C156 C 0.92659 1.12414 1.23176
 C157 C 0.94474 1.20772 1.14275
 N158 N 0.92823 1.23875 1.10494
 C159 C 0.88352 1.22069 1.08677
 C160 C 0.78106 1.15391 1.08858
 N161 N 0.74604 1.12292 1.10995
 C162 C 0.76776 1.09773 1.14928
 H163 H 0.82192 1.06079 1.24961
 H164 H 0.95850 1.14647 1.24557
 H165 H 0.97746 1.21501 1.16631
 H166 H 0.86040 1.23962 1.05823
 H167 H 0.77439 1.17760 1.05574
 H168 H 0.74898 1.06888 1.17199
 O169 O 0.42473 1.09230 1.09934
 O170 O 0.36954 1.04072 1.05545
 C171 C 0.37930 1.07562 1.08911
 O172 O 0.56034 1.09906 0.91442
 O173 O 0.62306 1.05631 0.95969
 C174 C 0.60800 1.08888 0.92519
 O175 O 0.41638 1.09463 0.92448
 O176 O 0.36661 1.03944 0.97011
 C177 C 0.37216 1.07642 0.93806
 O178 O 0.56881 1.09555 1.10016
 O179 O 0.62609 1.05552 1.04749
 C180 C 0.61522 1.08544 1.08461
 Zr181 Zr 0.49709 1.07083 1.07052
 O182 O 0.49641 1.15299 1.06450
 O183 O 0.49470 1.07711 1.14893
 Zr184 Zr 0.49224 1.07030 0.94570
 O185 O 0.49158 1.15262 0.94707
 O186 O 0.48381 1.07137 0.86736
 O187 O 0.44760 1.07762 1.00955
 O188 O 0.53905 1.08288 1.00681
 O189 O 0.57867 0.92746 1.10469
 O190 O 0.63256 0.97158 1.05259
 C191 C 0.62385 0.94251 1.09138
 O192 O 0.43496 0.90361 0.92495
 O193 O 0.37454 0.95066 0.96872
 C194 C 0.38787 0.91449 0.93728
 O195 O 0.57859 0.91717 0.91837
 O196 O 0.63102 0.97118 0.96236
 C197 C 0.62350 0.93535 0.92966
 O198 O 0.43582 0.90897 1.09962
 O199 O 0.37597 0.95305 1.05237
 C200 C 0.38868 0.91965 1.08631
 Zr201 Zr 0.50626 0.93888 1.07108
 O202 O 0.51934 0.85782 1.06325
 O203 O 0.50476 0.92684 1.14888
 Zr204 Zr 0.50445 0.93858 0.94621
 O205 O 0.51634 0.85699 0.94567
 O206 O 0.49739 0.93945 0.86767
 Zr207 Zr 0.42368 0.99966 1.01023
 Zr208 Zr 0.57651 1.00974 1.00653
 O209 O 0.55147 0.93237 1.00824
 O210 O 0.46000 0.92564 1.00962
 O211 O 0.54671 1.00773 1.07952
 O212 O 0.45384 1.00123 0.93764
 O213 O 0.45803 1.00217 1.08124
 O214 O 0.54350 1.00763 0.93486
 H215 H 0.56049 1.11438 1.00631
 H216 H 0.42995 0.99959 0.90893
 H217 H 0.57815 0.90441 1.00896
 H218 H 0.43691 1.00061 1.11182
 H219 H 0.50992 1.04698 0.85373
 H220 H 0.52679 0.95891 0.85420
 H221 H 0.49240 0.84200 0.97020
 H222 H 0.48543 0.84148 1.05896
 H223 H 0.50190 0.96165 1.16419
 H224 H 0.51599 1.04811 1.16242
 H225 H 0.46126 1.16421 1.05461
 H226 H 0.46178 1.16403 0.96734
 O227 O -0.07743 0.41655 0.07695
 O228 O -0.02376 0.36656 0.02839
 C229 C -0.05813 0.37210 0.06281
 O230 O -0.11014 0.55948 -0.09983
 O231 O -0.06713 0.62229 -0.05694
 C232 C -0.10150 0.60746 -0.08879
 O233 O -0.09512 0.41376 -0.09098
 O234 O -0.03088 0.36549 -0.05382
 C235 C -0.07237 0.36972 -0.08011
 O236 O -0.08596 0.56462 0.08628
 O237 O -0.05658 0.62438 0.03035
 C238 C -0.08074 0.61221 0.07044
 Zr239 Zr -0.06096 0.49317 0.05234
 O240 O -0.14222 0.49181 0.05702
 O241 O -0.05696 0.48592 0.13065
 Zr242 Zr -0.07372 0.49129 -0.07281
 O243 O -0.15451 0.48787 -0.06434
 O244 O -0.08164 0.48358 -0.15083
 O245 O -0.07047 0.44505 -0.00929
 O246 O -0.08283 0.53622 -0.00925
 O247 O 0.08489 0.58443 0.06494
 O248 O 0.02433 0.63439 0.02372
 C249 C 0.06270 0.62872 0.05415
 O250 O 0.09205 0.44140 -0.11180
 O251 O 0.05495 0.37817 -0.06409
 C252 C 0.08591 0.39339 -0.09894
 O253 O 0.06655 0.58624 -0.11311
 O254 O 0.01678 0.63512 -0.06013
 C255 C 0.04886 0.63055 -0.09647
 O256 O 0.10660 0.43729 0.06253
 O257 O 0.06097 0.37649 0.01961
 C258 C 0.09606 0.38945 0.05094
 Zr259 Zr 0.06838 0.50809 0.03985
 O260 O 0.14767 0.52231 0.02990
 O261 O 0.07942 0.50431 0.11785
 Zr262 Zr 0.05451 0.50911 -0.08561
 O263 O 0.13332 0.52455 -0.09653
 O264 O 0.04373 0.50333 -0.16355
 Zr265 Zr 0.00799 0.42431 -0.01689
 Zr266 Zr -0.01350 0.57646 -0.01617
 O267 O 0.06445 0.55422 -0.02319
 O268 O 0.07787 0.46387 -0.02428
 O269 O -0.00122 0.54602 0.05598
 O270 O -0.00410 0.45550 -0.08854
 O271 O 0.01043 0.45644 0.05510
 O272 O -0.01714 0.54596 -0.08872
 H273 H -0.11510 0.55697 -0.00608
 H274 H -0.00406 0.43172 -0.11749
 H275 H 0.09113 0.58116 -0.02560
 H276 H 0.01593 0.43356 0.08441
 H277 H -0.06241 0.51226 -0.16630
 H278 H 0.02331 0.53411 -0.17446
 H279 H 0.15258 0.50476 -0.07077
 H280 H 0.16319 0.49121 0.01390
 H281 H 0.05532 0.52978 0.13307
 H282 H -0.02826 0.50780 0.14173
 H283 H -0.15351 0.45841 0.04288
 H284 H -0.16176 0.45805 -0.04226
 O285 O 1.10755 -0.08615 0.57000
 O286 O 1.05550 -0.04517 0.62707
 C287 C 1.09499 -0.07432 0.61517
 O288 O 1.08340 0.09552 0.43268
 O289 O 1.04235 0.04360 0.37620
 C290 C 1.07257 0.08174 0.38755
 O291 O 1.08875 0.09158 0.57116
 O292 O 1.04458 0.04219 0.62758
 C293 C 1.07724 0.07811 0.61620
 O294 O 1.09827 -0.09425 0.43277
 O295 O 1.04828 -0.04848 0.37675
 C296 C 1.08385 -0.08282 0.38795
 Zr297 Zr 1.07323 -0.06512 0.50167
 O298 O 1.15392 -0.05897 0.49387
 O299 O 1.08094 -0.14694 0.50844
 Zr300 Zr 1.06095 0.06500 0.50218
 O301 O 1.14165 0.07284 0.49638
 O302 O 1.05127 0.14672 0.50782
 O303 O 1.07775 0.00049 0.54648
 O304 O 1.07617 0.00085 0.45821
 O305 O 0.92140 -0.10586 0.43341
 O306 O 0.96127 -0.05297 0.37692
 C307 C 0.93159 -0.09153 0.38832
 O308 O 0.90025 0.07476 0.57261
 O309 O 0.95329 0.03256 0.62848
 C310 C 0.91379 0.06222 0.61749
 O311 O 0.90546 0.08446 0.43531
 O312 O 0.95465 0.04021 0.37800
 C313 C 0.91890 0.07389 0.39014
 O314 O 0.91932 -0.10416 0.57149
 O315 O 0.96384 -0.05501 0.62772
 C316 C 0.93145 -0.09121 0.61647
 Zr317 Zr 0.94489 -0.07559 0.50245
 O318 O 0.86391 -0.08186 0.49787
 O319 O 0.95372 -0.15748 0.50717
 Zr320 Zr 0.93261 0.05456 0.50341
 O321 O 0.85175 0.04833 0.49728
 O322 O 0.92513 0.13629 0.51071
 Zr323 Zr 1.00372 -0.00595 0.57780
 Zr324 Zr 1.00209 -0.00456 0.42705
 O325 O 0.92874 -0.01070 0.45929
 O326 O 0.92902 -0.01185 0.54768
 O327 O 1.00946 -0.08021 0.45725
 O328 O 0.99625 0.06899 0.54666
 O329 O 1.01060 -0.08033 0.54582
 O330 O 0.99539 0.07055 0.45806
 H331 H 1.10625 0.00269 0.43573
 H332 H 0.99312 0.09918 0.56934
 H333 H 0.89828 -0.01239 0.43717
 H334 H 1.01438 -0.11090 0.56813
 H335 H 1.03329 0.15914 0.47745
 H336 H 0.94626 0.15226 0.48440
 H337 H 0.84033 0.02415 0.52355
 H338 H 0.84886 -0.06343 0.52677
 H339 H 0.97299 -0.16933 0.47748
 H340 H 1.05955 -0.16265 0.48220
 H341 H 1.16611 -0.03520 0.52005
 H342 H 1.15770 0.05193 0.52336
 N343 N 1.09266 0.10602 0.30424
 N344 N 1.09765 0.11101 0.34959
 N345 N 0.91059 -0.11406 0.30507
 N346 N 0.90696 -0.12097 0.35031
 N347 N 0.88821 0.07738 0.70089
 N348 N 0.88155 0.08298 0.65580
 N349 N 1.12144 -0.09048 0.69795
 N350 N 1.12833 -0.09500 0.65286
 N351 N 0.29294 1.09191 1.11248
 N352 N 0.33935 1.09591 1.12001
 N353 N 0.30322 0.89439 0.91276
 N354 N 0.34953 0.88357 0.91410
 N355 N 0.71086 0.92900 1.11558
 N356 N 0.66453 0.92806 1.12465
 N357 N 0.69172 1.10846 0.89826
 N358 N 0.64497 1.11659 0.89671
 N359 N 0.09114 0.31177 0.09254
 N360 N 0.12056 0.34740 0.07688
 N361 N -0.06665 0.28167 -0.10014
 N362 N -0.09473 0.32254 -0.09676
 N363 N 0.07319 0.71576 -0.08625
 N364 N 0.06860 0.67776 -0.11616
 N365 N -0.10645 0.69832 0.07654
 N366 N -0.10053 0.65488 0.09898
 N367 N 1.09454 0.10058 0.69938
 N368 N 1.10277 0.10586 0.65459
 N369 N 0.91216 -0.11218 0.69972
 N370 N 0.90729 -0.12028 0.65486
 N371 N 1.10528 -0.10303 0.30500
 N372 N 1.10936 -0.11155 0.34987
 N373 N 0.89621 0.09608 0.30769
 N374 N 0.89169 0.10253 0.35278
 N375 N 0.10875 0.30857 -0.12041
 N376 N 0.11503 0.35552 -0.12581
 N377 N -0.04953 0.28545 0.08994
 N378 N -0.07755 0.32618 0.08506
 N379 N -0.12310 0.69252 -0.11037
 N380 N -0.13194 0.64585 -0.11385
 N381 N 0.05471 0.71439 0.08327
 N382 N 0.08307 0.67442 0.07573
 N383 N 0.28773 1.06879 0.91057
 N384 N 0.32633 1.09796 0.91663
 N385 N 0.30468 0.89268 1.08806
 N386 N 0.34729 0.89508 1.11120
 N387 N 0.70015 1.10918 1.08683
 N388 N 0.65784 1.10679 1.11027
 N389 N 0.70796 0.93997 0.90044
 N390 N 0.66806 0.91276 0.90700
   
