data_POSCAR
  _audit_creation_date              2014-09-24
  _audit_creation_method            'ToBaCCo'
  _symmetry_space_group_name_H-M    'P1'
  _symmetry_Int_Tables_number       1
  _symmetry_cell_setting            triclinic
  loop_
  _symmetry_equiv_pos_as_xyz
 x,y,z
_cell_length_a 56.1370
_cell_length_b 56.1367
_cell_length_c 56.1302
_cell_angle_alpha 89.995700
_cell_angle_beta 90.001500
_cell_angle_gamma 90.030000
loop_
  _atom_site_label
  _atom_site_type_symbol
  _atom_site_fract_x
  _atom_site_fract_y
  _atom_site_fract_z
C1 C 0.36551 0.29389 -0.02257
 C2 C 0.37416 0.28529 -0.00088
 C3 C 0.36559 0.29394 0.02080
 C4 C 0.34783 0.31174 0.02106
 C5 C 0.33885 0.32066 -0.00085
 C6 C 0.34771 0.31172 -0.02280
 C7 C 0.33853 0.32083 -0.04428
 C8 C 0.32099 0.33836 -0.04423
 C9 C 0.31195 0.34748 -0.02270
 C10 C 0.32097 0.33855 -0.00080
 C11 C 0.33881 0.32083 0.04258
 C12 C 0.32128 0.33837 0.04263
 C13 C 0.31212 0.34746 0.02116
 C14 C 0.29433 0.36523 0.02100
 C15 C 0.28560 0.37387 -0.00061
 C16 C 0.29411 0.36528 -0.02237
 H17 H 0.34486 0.31443 -0.06134
 H18 H 0.31454 0.34475 -0.06125
 H19 H 0.34527 0.31443 0.05959
 H20 H 0.31493 0.34478 0.05968
 H21 H 0.38783 0.27159 -0.00081
 H22 H 0.27190 0.38753 -0.00045
 C23 C 0.70615 0.63442 0.02206
 C24 C 0.71490 0.62580 0.00045
 C25 C 0.70636 0.63437 -0.02130
 C26 C 0.68849 0.65213 -0.02164
 C27 C 0.67947 0.66103 0.00026
 C28 C 0.68833 0.65215 0.02222
 C29 C 0.67916 0.66122 0.04369
 C30 C 0.66158 0.67873 0.04363
 C31 C 0.65256 0.68779 0.02211
 C32 C 0.66156 0.67887 0.00021
 C33 C 0.67942 0.66123 -0.04317
 C34 C 0.66184 0.67873 -0.04320
 C35 C 0.65268 0.68778 -0.02173
 C36 C 0.63488 0.70553 -0.02153
 C37 C 0.62618 0.71415 0.00011
 C38 C 0.63475 0.70555 0.02181
 H39 H 0.68552 0.65484 0.06075
 H40 H 0.65512 0.68513 0.06064
 H41 H 0.68587 0.65486 -0.06019
 H42 H 0.65547 0.68512 -0.06025
 H43 H 0.72863 0.61216 0.00061
 H44 H 0.61250 0.72782 0.00006
 C45 C 0.63418 0.29415 0.97831
 C46 C 0.62558 0.28535 0.99991
 C47 C 0.63416 0.29385 1.02168
 C48 C 0.65193 0.31174 1.02203
 C49 C 0.66081 0.32082 1.00014
 C50 C 0.65191 0.31199 0.97817
 C51 C 0.66096 0.32122 0.95671
 C52 C 0.67848 0.33881 0.95678
 C53 C 0.68755 0.34780 0.97832
 C54 C 0.67865 0.33875 1.00021
 C55 C 0.66104 0.32078 1.04357
 C56 C 0.67854 0.33838 1.04362
 C57 C 0.68758 0.34759 1.02216
 C58 C 0.70534 0.36541 1.02198
 C59 C 0.71394 0.37415 1.00035
 C60 C 0.70533 0.36562 0.97864
 H61 H 0.65457 0.31488 0.93965
 H62 H 0.68486 0.34532 0.93978
 H63 H 0.65469 0.31428 1.06059
 H64 H 0.68496 0.34472 1.06067
 H65 H 0.61194 0.27160 0.99974
 H66 H 0.72761 0.38785 1.00041
 C67 C 0.29438 0.63399 0.97913
 C68 C 0.28574 0.62538 1.00079
 C69 C 0.29436 0.63399 1.02250
 C70 C 0.31222 0.65178 1.02275
 C71 C 0.32116 0.66068 1.00081
 C72 C 0.31221 0.65175 0.97889
 C73 C 0.32129 0.66081 0.95738
 C74 C 0.33886 0.67834 0.95735
 C75 C 0.34796 0.68745 0.97883
 C76 C 0.33906 0.67856 1.00078
 C77 C 0.32135 0.66092 1.04423
 C78 C 0.33891 0.67845 1.04420
 C79 C 0.34802 0.68754 1.02268
 C80 C 0.36583 0.70537 1.02237
 C81 C 0.37441 0.71393 1.00063
 C82 C 0.36575 0.70524 0.97900
 H83 H 0.31487 0.65439 0.94036
 H84 H 0.34525 0.68472 0.94030
 H85 H 0.31496 0.65455 1.06129
 H86 H 0.34531 0.68487 1.06123
 H87 H 0.27201 0.61172 1.00071
 H88 H 0.38809 0.72763 1.00048
 C89 C 0.02123 0.29378 0.36484
 C90 C -0.00040 0.28509 0.37348
 C91 C -0.02213 0.29371 0.36494
 C92 C -0.02241 0.31161 0.34720
 C93 C -0.00050 0.32059 0.33828
 C94 C 0.02144 0.31164 0.34714
 C95 C 0.04293 0.32076 0.33807
 C96 C 0.04293 0.33836 0.32059
 C97 C 0.02143 0.34748 0.31155
 C98 C -0.00050 0.33854 0.32046
 C99 C -0.04391 0.32076 0.33814
 C100 C -0.04391 0.33837 0.32067
 C101 C -0.02242 0.34752 0.31157
 C102 C -0.02213 0.36539 0.29381
 C103 C -0.00042 0.37401 0.28522
 C104 C 0.02122 0.36532 0.29382
 H105 H 0.05996 0.31433 0.34443
 H106 H 0.05996 0.34478 0.31419
 H107 H -0.06095 0.31435 0.34451
 H108 H -0.06096 0.34479 0.31431
 H109 H -0.00028 0.27133 0.38710
 H110 H -0.00031 0.38773 0.27156
 C111 C 0.02114 0.63462 0.70604
 C112 C -0.00052 0.62607 0.71475
 C113 C -0.02223 0.63471 0.70620
 C114 C -0.02248 0.65250 0.68833
 C115 C -0.00055 0.66134 0.67931
 C116 C 0.02137 0.65237 0.68820
 C117 C 0.04288 0.66137 0.67905
 C118 C 0.04291 0.67888 0.66147
 C119 C 0.02143 0.68803 0.65241
 C120 C -0.00052 0.67920 0.66139
 C121 C -0.04397 0.66167 0.67925
 C122 C -0.04394 0.67919 0.66168
 C123 C -0.02243 0.68821 0.65249
 C124 C -0.02212 0.70602 0.63465
 C125 C -0.00038 0.71452 0.62600
 C126 C 0.02125 0.70580 0.63461
 H127 H 0.05990 0.65492 0.68542
 H128 H 0.05994 0.68521 0.65501
 H129 H -0.06102 0.65535 0.68570
 H130 H -0.06097 0.68563 0.65532
 H131 H -0.00043 0.61242 0.72849
 H132 H -0.00024 0.72820 0.61231
 C133 C 1.02210 0.63461 0.29498
 C134 C 1.00042 0.62592 0.28645
 C135 C 0.97877 0.63454 0.29508
 C136 C 0.97854 0.65239 0.31280
 C137 C 1.00047 0.66139 0.32165
 C138 C 1.02237 0.65247 0.31270
 C139 C 1.04388 0.66162 0.32168
 C140 C 1.04391 0.67925 0.33915
 C141 C 1.02242 0.68838 0.34827
 C142 C 1.00048 0.67936 0.33943
 C143 C 0.95705 0.66148 0.32188
 C144 C 0.95706 0.67911 0.33934
 C145 C 0.97856 0.68828 0.34834
 C146 C 0.97879 0.70617 0.36603
 C147 C 1.00044 0.71490 0.37458
 C148 C 1.02215 0.70630 0.36599
 H149 H 1.06089 0.65521 0.31526
 H150 H 1.06096 0.68570 0.34546
 H151 H 0.94002 0.65501 0.31554
 H152 H 0.94003 0.68552 0.34575
 H153 H 1.00041 0.61220 0.27281
 H154 H 1.00034 0.72867 0.38819
 C155 C 1.02174 0.29531 0.63399
 C156 C 1.00008 0.28676 0.62527
 C157 C 0.97840 0.29535 0.63388
 C158 C 0.97814 0.31306 0.65176
 C159 C 1.00006 0.32192 0.66079
 C160 C 1.02198 0.31301 0.65187
 C161 C 1.04347 0.32200 0.66106
 C162 C 1.04347 0.33943 0.67872
 C163 C 1.02197 0.34853 0.68784
 C164 C 1.00005 0.33969 0.67878
 C165 C 0.95664 0.32212 0.66083
 C166 C 0.95662 0.33956 0.67848
 C167 C 0.97811 0.34857 0.68769
 C168 C 0.97830 0.36623 0.70560
 C169 C 0.99994 0.37479 0.71437
 C170 C 1.02167 0.36622 0.70579
 H171 H 1.06050 0.31560 0.65466
 H172 H 1.06051 0.34575 0.68519
 H173 H 0.93962 0.31576 0.65434
 H174 H 0.93959 0.34594 0.68488
 H175 H 1.00009 0.27313 0.61154
 H176 H 0.99982 0.38837 0.72816
 C177 C 0.29439 -0.02239 0.36557
 C178 C 0.28587 -0.00065 0.37416
 C179 C 0.29454 0.02097 0.36546
 C180 C 0.31230 0.02113 0.34763
 C181 C 0.32115 -0.00082 0.33872
 C182 C 0.31218 -0.02272 0.34771
 C183 C 0.32122 -0.04424 0.33859
 C184 C 0.33870 -0.04429 0.32099
 C185 C 0.34783 -0.02281 0.31183
 C186 C 0.33898 -0.00087 0.32078
 C187 C 0.32140 0.04260 0.33850
 C188 C 0.33889 0.04256 0.32090
 C189 C 0.34791 0.02104 0.31181
 C190 C 0.36562 0.02079 0.29395
 C191 C 0.37419 -0.00087 0.28529
 C192 C 0.36559 -0.02257 0.29393
 H193 H 0.31481 -0.06127 0.34502
 H194 H 0.34504 -0.06134 0.31460
 H195 H 0.31505 0.05965 0.34490
 H196 H 0.34531 0.05957 0.31446
 H197 H 0.27220 -0.00049 0.38786
 H198 H 0.38782 -0.00079 0.27154
 C199 C 0.70601 0.02186 0.63422
 C200 C 0.71480 0.00024 0.62567
 C201 C 0.70625 -0.02150 0.63426
 C202 C 0.68831 -0.02182 0.65197
 C203 C 0.67924 0.00008 0.66081
 C204 C 0.68813 0.02204 0.65190
 C205 C 0.67891 0.04351 0.66091
 C206 C 0.66128 0.04347 0.67837
 C207 C 0.65223 0.02195 0.68744
 C208 C 0.66127 0.00005 0.67859
 C209 C 0.67922 -0.04334 0.66109
 C210 C 0.66158 -0.04336 0.67853
 C211 C 0.65238 -0.02188 0.68752
 C212 C 0.63451 -0.02167 0.70523
 C213 C 0.62578 -0.00002 0.71378
 C214 C 0.63438 0.02167 0.70516
 H215 H 0.68529 0.06055 0.65451
 H216 H 0.65479 0.06048 0.68472
 H217 H 0.68570 -0.06037 0.65477
 H218 H 0.65519 -0.06040 0.68495
 H219 H 0.72858 0.00038 0.61207
 H220 H 0.61206 -0.00005 0.72741
 C221 C 0.36553 1.02187 0.70618
 C222 C 0.37409 1.00014 0.71476
 C223 C 0.36544 0.97851 0.70607
 C224 C 0.34769 0.97832 0.68826
 C225 C 0.33882 1.00026 0.67935
 C226 C 0.34775 1.02218 0.68832
 C227 C 0.33865 1.04369 0.67921
 C228 C 0.32113 1.04369 0.66164
 C229 C 0.31205 1.02220 0.65254
 C230 C 0.32096 1.00028 0.66145
 C231 C 0.33860 0.95684 0.67913
 C232 C 0.32107 0.95686 0.66157
 C233 C 0.31202 0.97837 0.65250
 C234 C 0.29424 0.97864 0.63471
 C235 C 0.28564 1.00031 0.62610
 C236 C 0.29427 1.02197 0.63474
 H237 H 0.34504 1.06072 0.68562
 H238 H 0.31474 1.06072 0.65524
 H239 H 0.34498 0.93980 0.68553
 H240 H 0.31466 0.93984 0.65514
 H241 H 0.38775 1.00001 0.72849
 H242 H 0.27196 1.00033 0.61242
 C243 C 0.70554 0.97891 0.36583
 C244 C 0.71421 1.00058 0.37438
 C245 C 0.70565 1.02227 0.36570
 C246 C 0.68783 1.02249 0.34787
 C247 C 0.67885 1.00054 0.33903
 C248 C 0.68774 0.97864 0.34805
 C249 C 0.67862 0.95711 0.33906
 C250 C 0.66108 0.95705 0.32150
 C251 C 0.65203 0.97851 0.31231
 C252 C 0.66097 1.00048 0.32114
 C253 C 0.67875 1.04396 0.33865
 C254 C 0.66122 1.04390 0.32110
 C255 C 0.65208 1.02237 0.31207
 C256 C 0.63428 1.02203 0.29422
 C257 C 0.62567 1.00027 0.28573
 C258 C 0.63427 0.97866 0.29450
 H259 H 0.68500 0.94011 0.34554
 H260 H 0.65466 0.94000 0.31517
 H261 H 0.68517 1.06102 0.34497
 H262 H 0.65486 1.06092 0.31462
 H263 H 0.72792 1.00052 0.38806
 H264 H 0.61201 1.00010 0.27201
 O265 O 0.82208 0.85491 0.52403
 O266 O 0.85465 0.82226 0.47774
 O267 O 0.82194 0.85499 0.47788
 O268 O 0.85477 0.82215 0.52389
 O269 O 0.82713 0.79422 0.52402
 O270 O 0.79398 0.82738 0.47778
 O271 O 0.82703 0.79430 0.47767
 O272 O 0.79408 0.82732 0.52413
 Cu273 Cu 0.84112 0.84133 0.50088
 Cu274 Cu 0.80775 0.80800 0.50091
 C275 C 0.80241 0.84692 0.53185
 C276 C 0.84663 0.80261 0.46992
 C277 C 0.80225 0.84701 0.47009
 C278 C 0.84678 0.80248 0.53169
 O279 O 0.14589 0.17838 0.47649
 O280 O 0.17850 0.14603 0.52292
 O281 O 0.14581 0.17874 0.52263
 O282 O 0.17859 0.14569 0.47678
 O283 O 0.20655 0.17332 0.47650
 O284 O 0.17344 0.20669 0.52259
 O285 O 0.20649 0.17363 0.52285
 O286 O 0.17348 0.20637 0.47625
 Cu287 Cu 0.15944 0.15945 0.49972
 Cu288 Cu 0.19280 0.19281 0.49953
 C289 C 0.15389 0.19800 0.46856
 C290 C 0.19815 0.15408 0.53070
 C291 C 0.15381 0.19844 0.53033
 C292 C 0.19826 0.15364 0.46892
 O293 O 0.14558 0.82175 0.52261
 O294 O 0.17849 0.85454 0.47663
 O295 O 0.14574 0.82184 0.47647
 O296 O 0.17833 0.85445 0.52277
 O297 O 0.20627 0.82684 0.52291
 O298 O 0.17330 0.79386 0.47642
 O299 O 0.20641 0.82691 0.47656
 O300 O 0.17317 0.79379 0.52277
 Cu301 Cu 0.15928 0.84090 0.49962
 Cu302 Cu 0.19259 0.80754 0.49967
 C303 C 0.15354 0.80207 0.53043
 C304 C 0.19817 0.84654 0.46885
 C305 C 0.15373 0.80218 0.46866
 C306 C 0.19796 0.84643 0.53063
 O307 O 0.82155 0.14587 0.47614
 O308 O 0.85441 0.17885 0.52202
 O309 O 0.82170 0.14612 0.52229
 O310 O 0.85429 0.17858 0.47588
 O311 O 0.82671 0.20655 0.47572
 O312 O 0.79373 0.17370 0.52230
 O313 O 0.82680 0.20678 0.52207
 O314 O 0.79361 0.17348 0.47595
 Cu315 Cu 0.84075 0.15960 0.49909
 Cu316 Cu 0.80741 0.19294 0.49900
 C317 C 0.80187 0.15382 0.46832
 C318 C 0.84643 0.19854 0.52977
 C319 C 0.80206 0.15414 0.53010
 C320 C 0.84630 0.19821 0.46799
 O321 O 0.47696 0.85390 0.82164
 O322 O 0.52325 0.82127 0.85416
 O323 O 0.52309 0.85397 0.82146
 O324 O 0.47711 0.82119 0.85434
 O325 O 0.47692 0.79324 0.82672
 O326 O 0.52313 0.82636 0.79350
 O327 O 0.52326 0.79330 0.82656
 O328 O 0.47679 0.82631 0.79366
 Cu329 Cu 0.50011 0.84034 0.84066
 Cu330 Cu 0.50001 0.80700 0.80730
 C331 C 0.46908 0.84591 0.80200
 C332 C 0.53105 0.80162 0.84613
 C333 C 0.53086 0.84598 0.80177
 C334 C 0.46927 0.80153 0.84636
 O335 O 0.52371 0.17765 0.14501
 O336 O 0.47749 0.14493 0.17767
 O337 O 0.47757 0.17765 0.14491
 O338 O 0.52363 0.14495 0.17779
 O339 O 0.52368 0.17259 0.20571
 O340 O 0.47740 0.20561 0.17250
 O341 O 0.47734 0.17256 0.20561
 O342 O 0.52374 0.20564 0.17258
 Cu343 Cu 0.50061 0.15854 0.15859
 Cu344 Cu 0.50054 0.19191 0.19190
 C345 C 0.53149 0.19734 0.15299
 C346 C 0.46964 0.15293 0.19731
 C347 C 0.46973 0.19732 0.15287
 C348 C 0.53140 0.15296 0.19747
 O349 O 0.52237 0.14566 0.82126
 O350 O 0.47632 0.17840 0.85406
 O351 O 0.47624 0.14564 0.82139
 O352 O 0.52246 0.17839 0.85396
 O353 O 0.52249 0.20634 0.82634
 O354 O 0.47609 0.17321 0.79339
 O355 O 0.47615 0.20633 0.82641
 O356 O 0.52243 0.17325 0.79329
 Cu357 Cu 0.49935 0.15927 0.84043
 Cu358 Cu 0.49928 0.19259 0.80705
 C359 C 0.53015 0.15365 0.80158
 C360 C 0.46848 0.19805 0.84606
 C361 C 0.46839 0.15361 0.80173
 C362 C 0.53026 0.19804 0.84593
 O363 O 0.47648 0.82137 0.14570
 O364 O 0.52247 0.85425 0.17850
 O365 O 0.52261 0.82151 0.14579
 O366 O 0.47633 0.85410 0.17842
 O367 O 0.47626 0.82651 0.20640
 O368 O 0.52273 0.79356 0.17341
 O369 O 0.52261 0.82665 0.20647
 O370 O 0.47639 0.79342 0.17332
 Cu371 Cu 0.49947 0.84057 0.15934
 Cu372 Cu 0.49950 0.80723 0.19270
 C373 C 0.46870 0.80168 0.15368
 C374 C 0.53028 0.84628 0.19818
 C375 C 0.53046 0.80188 0.15380
 C376 C 0.46851 0.84609 0.19808
 O377 O 0.85448 0.52391 0.82204
 O378 O 0.82168 0.47779 0.85476
 O379 O 0.85434 0.47776 0.82198
 O380 O 0.82183 0.52393 0.85484
 O381 O 0.79381 0.52413 0.82730
 O382 O 0.82669 0.47779 0.79407
 O383 O 0.79368 0.47779 0.82720
 O384 O 0.82681 0.52413 0.79414
 Cu385 Cu 0.84085 0.50084 0.84116
 Cu386 Cu 0.80744 0.50098 0.80787
 C387 C 0.84647 0.53178 0.80240
 C388 C 0.80198 0.47003 0.84679
 C389 C 0.84629 0.47001 0.80232
 C390 C 0.80216 0.53179 0.84691
 O391 O 0.14606 0.52311 0.17843
 O392 O 0.17870 0.47707 0.14551
 O393 O 0.14597 0.47698 0.17821
 O394 O 0.17878 0.52321 0.14572
 O395 O 0.20675 0.52313 0.17332
 O396 O 0.17355 0.47672 0.20619
 O397 O 0.20664 0.47679 0.17314
 O398 O 0.17367 0.52306 0.20639
 Cu399 Cu 0.15962 0.50011 0.15921
 Cu400 Cu 0.19296 0.49991 0.19257
 C401 C 0.15408 0.53084 0.19812
 C402 C 0.19833 0.46918 0.15349
 C403 C 0.15393 0.46907 0.19785
 C404 C 0.19846 0.53096 0.15375
 O405 O 0.85431 0.47655 0.17908
 O406 O 0.82170 0.52283 0.14654
 O407 O 0.85442 0.52268 0.17922
 O408 O 0.82157 0.47670 0.14642
 O409 O 0.79365 0.47655 0.17407
 O410 O 0.82683 0.52277 0.20720
 O411 O 0.79375 0.52289 0.17416
 O412 O 0.82676 0.47643 0.20709
 Cu413 Cu 0.84076 0.49969 0.16005
 Cu414 Cu 0.80744 0.49966 0.19344
 C415 C 0.84633 0.46869 0.19873
 C416 C 0.80206 0.53065 0.15457
 C417 C 0.84645 0.53048 0.19890
 C418 C 0.80191 0.46888 0.15443
 O419 O 0.17795 0.52243 0.85485
 O420 O 0.14521 0.47631 0.82206
 O421 O 0.17798 0.47628 0.85477
 O422 O 0.14519 0.52246 0.82214
 O423 O 0.17279 0.52264 0.79417
 O424 O 0.20591 0.47625 0.82713
 O425 O 0.17279 0.47630 0.79408
 O426 O 0.20589 0.52260 0.82722
 Cu427 Cu 0.15883 0.49936 0.84122
 Cu428 Cu 0.19215 0.49945 0.80784
 C429 C 0.19761 0.53027 0.84686
 C430 C 0.15318 0.46856 0.80236
 C431 C 0.19765 0.46850 0.84675
 C432 C 0.15317 0.53032 0.80248
 C433 C 0.24846 0.42988 0.13077
 C434 C 0.23836 0.42084 0.10982
 C435 C 0.21484 0.42658 0.10394
 C436 C 0.20165 0.44177 0.11853
 C437 C 0.28434 0.37523 0.04252
 C438 C 0.23523 0.44507 0.14549
 C439 C 0.25231 0.40704 0.09333
 C440 C 0.26324 0.39622 0.07835
 C441 C 0.27508 0.38445 0.05956
 C442 C 0.21179 0.45148 0.13930
 H443 H 0.26671 0.42565 0.13542
 H444 H 0.20687 0.41977 0.08773
 H445 H 0.18364 0.44627 0.11327
 H446 H 0.24354 0.45229 0.16133
 C447 C 0.75184 0.56981 0.13187
 C448 C 0.76204 0.57912 0.11109
 C449 C 0.78566 0.57365 0.10536
 C450 C 0.79885 0.55844 0.11992
 C451 C 0.71615 0.62446 0.04359
 C452 C 0.76508 0.55460 0.14657
 C453 C 0.74809 0.59286 0.09456
 C454 C 0.73719 0.60362 0.07952
 C455 C 0.72539 0.61530 0.06067
 C456 C 0.78861 0.54843 0.14050
 H457 H 0.73352 0.57384 0.13640
 H458 H 0.79370 0.58067 0.08928
 H459 H 0.81694 0.55412 0.11477
 H460 H 0.75669 0.54715 0.16226
 C461 C 0.78525 0.42731 0.89619
 C462 C 0.76172 0.42165 0.89027
 C463 C 0.75167 0.43080 0.86934
 C464 C 0.76498 0.44600 0.85468
 C465 C 0.71542 0.37574 0.95722
 C466 C 0.79852 0.44251 0.88166
 C467 C 0.74770 0.40780 0.90668
 C468 C 0.73670 0.39692 0.92158
 C469 C 0.72476 0.38506 0.94027
 C470 C 0.78844 0.45232 0.86092
 H471 H 0.79318 0.42041 0.91238
 H472 H 0.73342 0.42663 0.86465
 H473 H 0.75671 0.45331 0.83886
 H474 H 0.81654 0.44695 0.88695
 C475 C 0.24791 0.56944 0.86952
 C476 C 0.23788 0.57849 0.89049
 C477 C 0.21435 0.57281 0.89640
 C478 C 0.20107 0.55767 0.88182
 C479 C 0.28426 0.62400 0.95766
 C480 C 0.23459 0.55430 0.85481
 C481 C 0.25192 0.59225 0.90697
 C482 C 0.26293 0.60305 0.92192
 C483 C 0.27489 0.61479 0.94067
 C484 C 0.21114 0.54794 0.86103
 H485 H 0.26616 0.57363 0.86484
 H486 H 0.20643 0.57964 0.91263
 H487 H 0.18306 0.55320 0.88711
 H488 H 0.24286 0.54706 0.83895
 C489 C 0.10456 0.21422 0.42564
 C490 C 0.11028 0.23782 0.42005
 C491 C 0.13109 0.24806 0.42923
 C492 C 0.14584 0.23487 0.44445
 C493 C 0.04273 0.28371 0.37478
 C494 C 0.11916 0.20108 0.44085
 C495 C 0.09371 0.25173 0.40631
 C496 C 0.07865 0.26262 0.39557
 C497 C 0.05979 0.27444 0.38392
 C498 C 0.13977 0.21136 0.45074
 H499 H 0.08845 0.20615 0.41870
 H500 H 0.13562 0.26636 0.42512
 H501 H 0.16155 0.24329 0.45182
 H502 H 0.11402 0.18302 0.44527
 C503 C 0.13085 0.75183 0.56967
 C504 C 0.10990 0.76189 0.57874
 C505 C 0.10400 0.78540 0.57302
 C506 C 0.11858 0.79865 0.55784
 C507 C 0.04275 0.71580 0.62455
 C508 C 0.14556 0.76511 0.55449
 C509 C 0.09345 0.74790 0.59257
 C510 C 0.07850 0.73694 0.60344
 C511 C 0.05976 0.72507 0.61527
 C512 C 0.13935 0.78856 0.54811
 H513 H 0.13553 0.73359 0.57389
 H514 H 0.08779 0.79335 0.57985
 H515 H 0.11330 0.81665 0.55335
 H516 H 0.16140 0.75683 0.54725
 C517 C 0.86922 0.75235 0.43071
 C518 C 0.89010 0.76246 0.42152
 C519 C 0.89595 0.78602 0.42710
 C520 C 0.88140 0.79927 0.44229
 C521 C 0.95731 0.71625 0.37602
 C522 C 0.85454 0.76564 0.44590
 C523 C 0.90657 0.74846 0.40775
 C524 C 0.92153 0.73748 0.39695
 C525 C 0.94030 0.72557 0.38522
 C526 C 0.86072 0.78912 0.45217
 H527 H 0.86459 0.73407 0.42660
 H528 H 0.91211 0.79400 0.42017
 H529 H 0.88665 0.81731 0.44669
 H530 H 0.83877 0.75731 0.45326
 C531 C 0.89593 0.21543 0.57231
 C532 C 0.88997 0.23894 0.57798
 C533 C 0.86901 0.24893 0.56888
 C534 C 0.85433 0.23558 0.55373
 C535 C 0.95695 0.28529 0.62379
 C536 C 0.88139 0.20211 0.55716
 C537 C 0.90638 0.25299 0.59180
 C538 C 0.92129 0.26401 0.60266
 C539 C 0.93999 0.27595 0.61450
 C540 C 0.86060 0.21213 0.54740
 H541 H 0.91216 0.20754 0.57917
 H542 H 0.86428 0.26717 0.57306
 H543 H 0.83847 0.24381 0.54647
 H544 H 0.88671 0.18411 0.55272
 C545 C 0.43037 0.13032 0.24755
 C546 C 0.42128 0.10937 0.23750
 C547 C 0.42697 0.10346 0.21398
 C548 C 0.44216 0.11802 0.20072
 C549 C 0.37564 0.04225 0.28383
 C550 C 0.44555 0.14502 0.23426
 C551 C 0.40748 0.09291 0.25152
 C552 C 0.39665 0.07797 0.26252
 C553 C 0.38488 0.05924 0.27447
 C554 C 0.45192 0.13879 0.21081
 H555 H 0.42617 0.13501 0.26580
 H556 H 0.42012 0.08724 0.20604
 H557 H 0.44663 0.11273 0.18271
 H558 H 0.45281 0.16086 0.24254
 C559 C 0.56935 0.13107 0.75130
 C560 C 0.57850 0.11016 0.76137
 C561 C 0.57286 0.10427 0.78491
 C562 C 0.55767 0.11880 0.79817
 C563 C 0.62428 0.04311 0.71521
 C564 C 0.55416 0.14573 0.76459
 C565 C 0.59232 0.09373 0.74737
 C566 C 0.60317 0.07881 0.73640
 C567 C 0.61499 0.06008 0.72451
 C568 C 0.54785 0.13952 0.78806
 H569 H 0.57350 0.13574 0.73304
 H570 H 0.57976 0.08809 0.79286
 H571 H 0.55324 0.11353 0.81619
 H572 H 0.54685 0.16154 0.75630
 C573 C 0.42987 0.86868 0.75184
 C574 C 0.42066 0.88949 0.76205
 C575 C 0.42621 0.89522 0.78565
 C576 C 0.44140 0.88063 0.79883
 C577 C 0.37539 0.95701 0.71612
 C578 C 0.44506 0.85395 0.76506
 C579 C 0.40693 0.90605 0.74811
 C580 C 0.39619 0.92109 0.73720
 C581 C 0.38453 0.93994 0.72538
 C582 C 0.45131 0.86002 0.78858
 H583 H 0.42578 0.86415 0.73353
 H584 H 0.41926 0.91133 0.79370
 H585 H 0.44578 0.88578 0.81690
 H586 H 0.45244 0.83824 0.75667
 C587 C 0.57288 0.89581 0.21486
 C588 C 0.57855 0.88992 0.23839
 C589 C 0.56946 0.86898 0.24846
 C590 C 0.55430 0.85427 0.23516
 C591 C 0.62425 0.95714 0.28450
 C592 C 0.55771 0.88123 0.20160
 C593 C 0.59236 0.90639 0.25239
 C594 C 0.60320 0.92135 0.26335
 C595 C 0.61500 0.94012 0.27523
 C596 C 0.54795 0.86047 0.21170
 H597 H 0.57974 0.91202 0.20691
 H598 H 0.57364 0.86431 0.26671
 H599 H 0.54703 0.83843 0.24345
 H600 H 0.55326 0.88650 0.18358
 C601 C 0.42933 0.24831 0.86874
 C602 C 0.42021 0.23822 0.88966
 C603 C 0.42583 0.21467 0.89552
 C604 C 0.44099 0.20143 0.88094
 C605 C 0.37493 0.28434 0.95708
 C606 C 0.44449 0.23502 0.85403
 C607 C 0.40647 0.25223 0.90616
 C608 C 0.39572 0.26319 0.92116
 C609 C 0.38405 0.27506 0.93999
 C610 C 0.45079 0.21155 0.86021
 H611 H 0.42520 0.26658 0.86410
 H612 H 0.41895 0.20671 0.91171
 H613 H 0.44540 0.18340 0.88619
 H614 H 0.45179 0.24333 0.83822
 C615 C 0.57407 0.78519 0.89531
 C616 C 0.57954 0.76158 0.88956
 C617 C 0.57023 0.75139 0.86878
 C618 C 0.55501 0.76464 0.85410
 C619 C 0.62492 0.71558 0.95697
 C620 C 0.55885 0.79840 0.88077
 C621 C 0.59330 0.74762 0.90607
 C622 C 0.60407 0.73669 0.92108
 C623 C 0.61575 0.72485 0.93991
 C624 C 0.54884 0.78817 0.86019
 H625 H 0.58110 0.79322 0.91140
 H626 H 0.57425 0.73308 0.86423
 H627 H 0.54755 0.75626 0.83841
 H628 H 0.55453 0.81647 0.88594
 C629 C 0.42616 0.78488 0.10415
 C630 C 0.42059 0.76131 0.11001
 C631 C 0.42971 0.75127 0.13095
 C632 C 0.44481 0.76462 0.14568
 C633 C 0.37530 0.71498 0.04267
 C634 C 0.44126 0.79819 0.11875
 C635 C 0.40689 0.74725 0.09351
 C636 C 0.39614 0.73624 0.07852
 C637 C 0.38446 0.72431 0.05972
 C638 C 0.45106 0.78811 0.13950
 H639 H 0.41929 0.79281 0.08795
 H640 H 0.42561 0.73299 0.13559
 H641 H 0.45210 0.75634 0.16151
 H642 H 0.44564 0.81623 0.11350
 C643 C 0.57049 0.24774 0.13025
 C644 C 0.57964 0.23767 0.10934
 C645 C 0.57412 0.21408 0.10352
 C646 C 0.55902 0.20078 0.11812
 C647 C 0.62475 0.28415 0.04196
 C648 C 0.55539 0.23439 0.14498
 C649 C 0.59331 0.25174 0.09281
 C650 C 0.60402 0.26277 0.07781
 C651 C 0.61564 0.27476 0.05900
 C652 C 0.54917 0.21088 0.13884
 H653 H 0.57455 0.26603 0.13486
 H654 H 0.58102 0.20613 0.08734
 H655 H 0.55466 0.18272 0.11290
 H656 H 0.54806 0.24269 0.16078
 C657 C 0.21458 0.10503 0.57387
 C658 C 0.23820 0.11078 0.57930
 C659 C 0.24840 0.13152 0.56992
 C660 C 0.23515 0.14617 0.55467
 C661 C 0.28422 0.04345 0.62475
 C662 C 0.20137 0.11954 0.55861
 C663 C 0.25217 0.09429 0.59307
 C664 C 0.26310 0.07930 0.60386
 C665 C 0.27494 0.06049 0.61557
 C666 C 0.21161 0.14007 0.54853
 H667 H 0.20653 0.08897 0.58095
 H668 H 0.26673 0.13607 0.57391
 H669 H 0.24354 0.16183 0.54715
 H670 H 0.18328 0.11437 0.55433
 C671 C 0.78509 0.10418 0.42592
 C672 C 0.76155 0.11005 0.42027
 C673 C 0.75151 0.13103 0.42931
 C674 C 0.76485 0.14578 0.44439
 C675 C 0.71525 0.04262 0.37509
 C676 C 0.79838 0.11880 0.44100
 C677 C 0.74750 0.09353 0.40657
 C678 C 0.73649 0.07853 0.39584
 C679 C 0.72457 0.05970 0.38419
 C680 C 0.78832 0.13960 0.45071
 H681 H 0.79301 0.08795 0.41910
 H682 H 0.73326 0.13568 0.42515
 H683 H 0.75659 0.16164 0.45162
 H684 H 0.81640 0.11355 0.44544
 C685 C 0.78584 0.89638 0.57452
 C686 C 0.76223 0.89063 0.58001
 C687 C 0.75210 0.86975 0.57085
 C688 C 0.76540 0.85498 0.55576
 C689 C 0.71592 0.95819 0.62490
 C690 C 0.79910 0.88175 0.55942
 C691 C 0.74821 0.90721 0.59364
 C692 C 0.73721 0.92226 0.60429
 C693 C 0.72528 0.94111 0.61585
 C694 C 0.78893 0.86107 0.54956
 H695 H 0.79384 0.91254 0.58143
 H696 H 0.73378 0.86520 0.57489
 H697 H 0.75705 0.83922 0.54840
 H698 H 0.81717 0.88692 0.55508
 C699 C 0.24854 0.86917 0.42976
 C700 C 0.23852 0.89011 0.42063
 C701 C 0.21498 0.89601 0.42624
 C702 C 0.20168 0.88145 0.44139
 C703 C 0.28480 0.95732 0.37509
 C704 C 0.23520 0.85448 0.44491
 C705 C 0.25257 0.90656 0.40685
 C706 C 0.26357 0.92152 0.39604
 C707 C 0.27549 0.94029 0.38430
 C708 C 0.21174 0.86070 0.45119
 H709 H 0.26680 0.86449 0.42562
 H710 H 0.20706 0.91221 0.41935
 H711 H 0.18366 0.88673 0.44580
 H712 H 0.24346 0.83865 0.45220
 C713 C 0.10365 0.42602 0.78557
 C714 C 0.10946 0.42053 0.76197
 C715 C 0.13038 0.42968 0.75191
 C716 C 0.14514 0.44474 0.76528
 C717 C 0.04199 0.37559 0.71548
 C718 C 0.11828 0.44108 0.79890
 C719 C 0.09290 0.40691 0.74789
 C720 C 0.07788 0.39624 0.73685
 C721 C 0.05905 0.38466 0.72486
 C722 C 0.13900 0.45092 0.78880
 H723 H 0.08746 0.41911 0.79351
 H724 H 0.13498 0.42565 0.73361
 H725 H 0.16094 0.45207 0.75699
 H726 H 0.11306 0.44540 0.81696
 C727 C 0.10477 0.57358 0.21491
 C728 C 0.11065 0.57910 0.23848
 C729 C 0.13153 0.56988 0.24854
 C730 C 0.14618 0.55473 0.23519
 C731 C 0.04355 0.62461 0.28486
 C732 C 0.11929 0.55842 0.20160
 C733 C 0.09421 0.59286 0.25254
 C734 C 0.07927 0.60366 0.26355
 C735 C 0.06054 0.61539 0.27550
 C736 C 0.13998 0.54852 0.21169
 H737 H 0.08860 0.58053 0.20697
 H738 H 0.13618 0.57395 0.26682
 H739 H 0.16197 0.54735 0.24347
 H740 H 0.11403 0.55408 0.18356
 C741 C 0.89557 0.42571 0.21500
 C742 C 0.88990 0.42021 0.23862
 C743 C 0.86915 0.42950 0.24889
 C744 C 0.85442 0.44471 0.23569
 C745 C 0.95754 0.37488 0.28432
 C746 C 0.88098 0.44093 0.20184
 C747 C 0.90647 0.40647 0.25253
 C748 C 0.92154 0.39571 0.26339
 C749 C 0.94043 0.38404 0.27514
 C750 C 0.86044 0.45091 0.21214
 H751 H 0.91163 0.41870 0.20691
 H752 H 0.86467 0.42545 0.26722
 H753 H 0.83876 0.45215 0.24412
 H754 H 0.88609 0.44526 0.18374
 C755 C 0.89601 0.57434 0.78568
 C756 C 0.89010 0.58002 0.76215
 C757 C 0.86912 0.57097 0.75211
 C758 C 0.85441 0.55583 0.76543
 C759 C 0.95744 0.62531 0.71582
 C760 C 0.88143 0.55920 0.79895
 C761 C 0.90659 0.59376 0.74811
 C762 C 0.92157 0.60452 0.73710
 C763 C 0.94038 0.61619 0.72515
 C764 C 0.86064 0.54947 0.78888
 H765 H 0.91224 0.58117 0.79360
 H766 H 0.86444 0.57515 0.73387
 H767 H 0.83855 0.54858 0.75716
 H768 H 0.88672 0.55473 0.81696
 C769 C 0.78571 0.57433 0.89652
 C770 C 0.76212 0.57991 0.89078
 C771 C 0.75195 0.57082 0.86989
 C772 C 0.76521 0.55573 0.85507
 C773 C 0.71600 0.62494 0.95840
 C774 C 0.79892 0.55924 0.88184
 C775 C 0.74815 0.59356 0.90739
 C776 C 0.73720 0.60424 0.92245
 C777 C 0.72531 0.61584 0.94132
 C778 C 0.78872 0.54946 0.86114
 H779 H 0.79373 0.58119 0.91269
 H780 H 0.73366 0.57493 0.86534
 H781 H 0.75684 0.54845 0.83929
 H782 H 0.81698 0.55484 0.88700
 C783 C 0.24801 0.42936 0.86927
 C784 C 0.23800 0.42023 0.89023
 C785 C 0.21447 0.42585 0.89617
 C786 C 0.20116 0.44100 0.88163
 C787 C 0.28447 0.37475 0.95735
 C788 C 0.23466 0.44452 0.85461
 C789 C 0.25208 0.40646 0.90667
 C790 C 0.26312 0.39566 0.92159
 C791 C 0.27510 0.38393 0.94033
 C792 C 0.21120 0.45081 0.86087
 H793 H 0.26626 0.42523 0.86456
 H794 H 0.20657 0.41896 0.91239
 H795 H 0.18316 0.44541 0.88695
 H796 H 0.24291 0.45182 0.83877
 C797 C 0.24886 0.56998 0.13111
 C798 C 0.23871 0.57934 0.11032
 C799 C 0.21508 0.57393 0.10457
 C800 C 0.20181 0.55875 0.11911
 C801 C 0.28481 0.62456 0.04283
 C802 C 0.23554 0.55481 0.14578
 C803 C 0.25273 0.59305 0.09381
 C804 C 0.26369 0.60379 0.07879
 C805 C 0.27555 0.61544 0.05993
 C806 C 0.21199 0.54871 0.13969
 H807 H 0.26719 0.57395 0.13566
 H808 H 0.20708 0.58099 0.08848
 H809 H 0.18372 0.55449 0.11394
 H810 H 0.24389 0.54732 0.16148
 C811 C 0.75158 0.42978 0.13174
 C812 C 0.76166 0.42064 0.11084
 C813 C 0.78523 0.42622 0.10499
 C814 C 0.79850 0.44137 0.11956
 C815 C 0.71543 0.37533 0.04349
 C816 C 0.76489 0.44493 0.14645
 C817 C 0.74764 0.40691 0.09433
 C818 C 0.73666 0.39616 0.07934
 C819 C 0.72475 0.38449 0.06053
 C820 C 0.78838 0.45120 0.14028
 H821 H 0.73330 0.42567 0.13637
 H822 H 0.79318 0.41932 0.08881
 H823 H 0.81654 0.44576 0.11432
 H824 H 0.75659 0.45225 0.16225
 C825 C 0.86940 0.75211 0.57079
 C826 C 0.89040 0.76211 0.57983
 C827 C 0.89635 0.78563 0.57416
 C828 C 0.88177 0.79894 0.55905
 C829 C 0.95759 0.71566 0.62521
 C830 C 0.85469 0.76546 0.55568
 C831 C 0.90686 0.74804 0.59357
 C832 C 0.92180 0.73700 0.60435
 C833 C 0.94056 0.72502 0.61605
 C834 C 0.86095 0.78891 0.54933
 H835 H 0.86468 0.73387 0.57497
 H836 H 0.91260 0.79352 0.58098
 H837 H 0.88709 0.81694 0.55459
 H838 H 0.83881 0.75722 0.54845
 C839 C 0.86912 0.24838 0.42879
 C840 C 0.88993 0.23818 0.41957
 C841 C 0.89563 0.21457 0.42510
 C842 C 0.88102 0.20138 0.44029
 C843 C 0.95755 0.28414 0.37438
 C844 C 0.85437 0.23515 0.44397
 C845 C 0.90651 0.25213 0.40586
 C846 C 0.92157 0.26305 0.39513
 C847 C 0.94045 0.27488 0.38350
 C848 C 0.86042 0.21163 0.45021
 H849 H 0.86461 0.26670 0.42472
 H850 H 0.91173 0.20652 0.41814
 H851 H 0.88615 0.18331 0.44465
 H852 H 0.83866 0.24355 0.45137
 C853 C 0.13123 0.24890 0.56930
 C854 C 0.11032 0.23886 0.57849
 C855 C 0.10441 0.21530 0.57296
 C856 C 0.11895 0.20198 0.55783
 C857 C 0.04321 0.28522 0.62400
 C858 C 0.14590 0.23554 0.55417
 C859 C 0.09388 0.25293 0.59225
 C860 C 0.07895 0.26394 0.60304
 C861 C 0.06021 0.27588 0.61478
 C862 C 0.13968 0.21204 0.54797
 H863 H 0.13591 0.26717 0.57338
 H864 H 0.08823 0.20738 0.57989
 H865 H 0.11367 0.18394 0.55348
 H866 H 0.16172 0.24380 0.54683
 C867 C 0.10441 0.78568 0.42580
 C868 C 0.11012 0.76206 0.42035
 C869 C 0.13092 0.75189 0.42961
 C870 C 0.14566 0.76517 0.44475
 C871 C 0.04249 0.71592 0.37536
 C872 C 0.11901 0.79892 0.44095
 C873 C 0.09354 0.74806 0.40668
 C874 C 0.07848 0.73710 0.39600
 C875 C 0.05959 0.72522 0.38443
 C876 C 0.13961 0.78871 0.45091
 H877 H 0.08830 0.79371 0.41881
 H878 H 0.13544 0.73356 0.42560
 H879 H 0.16137 0.75679 0.45218
 H880 H 0.11387 0.81701 0.44525
 C881 C 0.56991 0.86867 0.75142
 C882 C 0.57912 0.88954 0.76152
 C883 C 0.57358 0.89537 0.78510
 C884 C 0.55843 0.88080 0.79837
 C885 C 0.62454 0.95685 0.71532
 C886 C 0.55475 0.85397 0.76473
 C887 C 0.59286 0.90604 0.74750
 C888 C 0.60364 0.92102 0.73653
 C889 C 0.61535 0.93982 0.72463
 C890 C 0.54854 0.86012 0.78824
 H891 H 0.57398 0.86406 0.73312
 H892 H 0.58053 0.91153 0.79307
 H893 H 0.55408 0.88603 0.81642
 H894 H 0.54739 0.83819 0.75642
 C895 C 0.42938 0.86877 0.24836
 C896 C 0.42017 0.88962 0.23823
 C897 C 0.42570 0.89541 0.21464
 C898 C 0.44087 0.88084 0.20139
 C899 C 0.37498 0.95709 0.28437
 C900 C 0.44454 0.85407 0.23508
 C901 C 0.40646 0.90614 0.25224
 C902 C 0.39573 0.92116 0.26320
 C903 C 0.38409 0.94000 0.27509
 C904 C 0.45077 0.86020 0.21156
 H905 H 0.42531 0.86419 0.26666
 H906 H 0.41875 0.91155 0.20664
 H907 H 0.44523 0.88605 0.18333
 H908 H 0.45192 0.83832 0.24342
 C909 C 0.57045 0.13041 0.24791
 C910 C 0.57954 0.10943 0.23793
 C911 C 0.57393 0.10348 0.21439
 C912 C 0.55882 0.11803 0.20105
 C913 C 0.62485 0.04230 0.28453
 C914 C 0.55534 0.14509 0.23452
 C915 C 0.59326 0.09299 0.25204
 C916 C 0.60402 0.07806 0.26311
 C917 C 0.61571 0.05932 0.27513
 C918 C 0.54905 0.13882 0.21106
 H919 H 0.57458 0.13512 0.26616
 H920 H 0.58078 0.08725 0.20652
 H921 H 0.55441 0.11271 0.18304
 H922 H 0.54807 0.16095 0.24275
 C923 C 0.42931 0.13068 0.75150
 C924 C 0.42011 0.10985 0.76171
 C925 C 0.42562 0.10416 0.78533
 C926 C 0.44077 0.11881 0.79853
 C927 C 0.37498 0.04219 0.71576
 C928 C 0.44445 0.14546 0.76475
 C929 C 0.40643 0.09326 0.74776
 C930 C 0.39572 0.07818 0.73684
 C931 C 0.38410 0.05929 0.72501
 C932 C 0.45066 0.13943 0.78829
 H933 H 0.42526 0.13519 0.73318
 H934 H 0.41868 0.08804 0.79338
 H935 H 0.44511 0.11368 0.81662
 H936 H 0.45183 0.16119 0.75635
 C937 C 0.56979 0.75171 0.13124
 C938 C 0.57893 0.76181 0.11034
 C939 C 0.57327 0.78534 0.10445
 C940 C 0.55805 0.79855 0.11899
 C941 C 0.62468 0.71564 0.04324
 C942 C 0.55457 0.76496 0.14591
 C943 C 0.59276 0.74782 0.09389
 C944 C 0.60361 0.73686 0.07895
 C945 C 0.61541 0.72496 0.06022
 C946 C 0.54822 0.78842 0.13970
 H947 H 0.57397 0.73345 0.13590
 H948 H 0.58016 0.79330 0.08827
 H949 H 0.55359 0.81657 0.11371
 H950 H 0.54726 0.75665 0.16171
 C951 C 0.43046 0.24753 0.13025
 C952 C 0.42146 0.23752 0.10925
 C953 C 0.42723 0.21403 0.10328
 C954 C 0.44240 0.20077 0.11785
 C955 C 0.37565 0.28384 0.04225
 C956 C 0.44563 0.23424 0.14495
 C957 C 0.40763 0.25154 0.09282
 C958 C 0.39676 0.26254 0.07791
 C959 C 0.38493 0.27449 0.05921
 C960 C 0.45206 0.21082 0.13868
 H961 H 0.42620 0.26575 0.13499
 H962 H 0.42044 0.20612 0.08703
 H963 H 0.44692 0.18280 0.11252
 H964 H 0.45282 0.24249 0.16084
 C965 C 0.56942 0.24834 0.86857
 C966 C 0.57870 0.23819 0.88939
 C967 C 0.57319 0.21459 0.89517
 C968 C 0.55799 0.20135 0.88063
 C969 C 0.62420 0.28417 0.95677
 C970 C 0.55422 0.23506 0.85389
 C971 C 0.59248 0.25217 0.90588
 C972 C 0.60327 0.26310 0.92089
 C973 C 0.61500 0.27493 0.93971
 C974 C 0.54802 0.21154 0.86001
 H975 H 0.57347 0.26665 0.86400
 H976 H 0.58020 0.20658 0.91128
 H977 H 0.55365 0.18328 0.88582
 H978 H 0.54679 0.24341 0.83817
 C979 C 0.43018 0.75125 0.86916
 C980 C 0.42106 0.76137 0.89006
 C981 C 0.42667 0.78493 0.89587
 C982 C 0.44181 0.79818 0.88126
 C983 C 0.37571 0.71528 0.95749
 C984 C 0.44531 0.76454 0.85442
 C985 C 0.40733 0.74738 0.90659
 C986 C 0.39658 0.73643 0.92161
 C987 C 0.38489 0.72456 0.94044
 C988 C 0.45160 0.78803 0.86055
 H989 H 0.42604 0.73297 0.86456
 H990 H 0.41979 0.79291 0.91205
 H991 H 0.44622 0.81622 0.88647
 H992 H 0.45261 0.75621 0.83862
 C993 C 0.75195 0.86955 0.43086
 C994 C 0.76195 0.89055 0.42182
 C995 C 0.78545 0.89654 0.42755
 C996 C 0.79873 0.88200 0.44272
 C997 C 0.71561 0.95746 0.37592
 C998 C 0.76528 0.85488 0.44603
 C999 C 0.74791 0.90695 0.40797
 C1000 C 0.73691 0.92183 0.39708
 C1001 C 0.72495 0.94051 0.38523
 C1002 C 0.78870 0.86118 0.45243
 H1003 H 0.73373 0.86480 0.42663
 H1004 H 0.79334 0.91279 0.42073
 H1005 H 0.81672 0.88735 0.44722
 H1006 H 0.75704 0.83900 0.45325
 C1007 C 0.21446 0.89574 0.57351
 C1008 C 0.23802 0.88993 0.57911
 C1009 C 0.24815 0.86907 0.56992
 C1010 C 0.23489 0.85438 0.55471
 C1011 C 0.28414 0.95718 0.62468
 C1012 C 0.20124 0.88119 0.55829
 C1013 C 0.25199 0.90641 0.59290
 C1014 C 0.26295 0.92139 0.60371
 C1015 C 0.27483 0.94017 0.61546
 C1016 C 0.21141 0.86053 0.54841
 H1017 H 0.20647 0.91189 0.58044
 H1018 H 0.26643 0.86446 0.57406
 H1019 H 0.24324 0.83862 0.54735
 H1020 H 0.18321 0.88641 0.55387
 C1021 C 0.21490 0.10397 0.42652
 C1022 C 0.23843 0.10984 0.42082
 C1023 C 0.24851 0.13082 0.42983
 C1024 C 0.23523 0.14558 0.44493
 C1025 C 0.28452 0.04248 0.37542
 C1026 C 0.20165 0.11861 0.44163
 C1027 C 0.25242 0.09332 0.40709
 C1028 C 0.26337 0.07833 0.39632
 C1029 C 0.27524 0.05952 0.38461
 C1030 C 0.21176 0.13940 0.45130
 H1031 H 0.20694 0.08774 0.41973
 H1032 H 0.26676 0.13547 0.42562
 H1033 H 0.24352 0.16144 0.45213
 H1034 H 0.18363 0.11335 0.44610
 C1035 C 0.78562 0.10497 0.57316
 C1036 C 0.76202 0.11073 0.57867
 C1037 C 0.75184 0.13151 0.56937
 C1038 C 0.76509 0.14618 0.55412
 C1039 C 0.71603 0.04337 0.62422
 C1040 C 0.79883 0.11951 0.55792
 C1041 C 0.74806 0.09423 0.59247
 C1042 C 0.73713 0.07923 0.60328
 C1043 C 0.72529 0.06042 0.61502
 C1044 C 0.78861 0.14008 0.54792
 H1045 H 0.79365 0.08888 0.58019
 H1046 H 0.73354 0.13606 0.57342
 H1047 H 0.75671 0.16187 0.54667
 H1048 H 0.81689 0.11433 0.55358
 C1049 C 0.86916 0.56964 0.24916
 C1050 C 0.89004 0.57881 0.23904
 C1051 C 0.89587 0.57320 0.21548
 C1052 C 0.88130 0.55801 0.20225
 C1053 C 0.95729 0.62447 0.28506
 C1054 C 0.85445 0.55445 0.23589
 C1055 C 0.90652 0.59261 0.25302
 C1056 C 0.92149 0.60344 0.26395
 C1057 C 0.94027 0.61522 0.27580
 C1058 C 0.86061 0.54817 0.21240
 H1059 H 0.86454 0.57377 0.26744
 H1060 H 0.91204 0.58012 0.20750
 H1061 H 0.88653 0.55361 0.18421
 H1062 H 0.83867 0.54712 0.24422
 C1063 C 0.89553 0.42718 0.78556
 C1064 C 0.88966 0.42167 0.76198
 C1065 C 0.86879 0.43091 0.75192
 C1066 C 0.85415 0.44609 0.76526
 C1067 C 0.95681 0.37620 0.71567
 C1068 C 0.88103 0.44236 0.79886
 C1069 C 0.90610 0.40791 0.74793
 C1070 C 0.92104 0.39712 0.73692
 C1071 C 0.93980 0.38539 0.72499
 C1072 C 0.86035 0.45229 0.78876
 H1073 H 0.91169 0.42021 0.79350
 H1074 H 0.86414 0.42685 0.73363
 H1075 H 0.83838 0.45348 0.75698
 H1076 H 0.88629 0.44670 0.81690
 C1077 C 0.10366 0.57291 0.78583
 C1078 C 0.10961 0.57869 0.76233
 C1079 C 0.13058 0.56967 0.75229
 C1080 C 0.14527 0.55447 0.76557
 C1081 C 0.04261 0.62456 0.71610
 C1082 C 0.11821 0.55772 0.79907
 C1083 C 0.09318 0.59255 0.74833
 C1084 C 0.07827 0.60343 0.73735
 C1085 C 0.05957 0.61527 0.72543
 C1086 C 0.13901 0.54803 0.78899
 H1087 H 0.08743 0.57972 0.79376
 H1088 H 0.13530 0.57393 0.73407
 H1089 H 0.16113 0.54727 0.75729
 H1090 H 0.11289 0.55318 0.81705
 C1091 C 0.13107 0.42982 0.24797
 C1092 C 0.11019 0.42072 0.23779
 C1093 C 0.10443 0.42636 0.21422
 C1094 C 0.11906 0.44154 0.20105
 C1095 C 0.04271 0.37531 0.28376
 C1096 C 0.14584 0.44500 0.23475
 C1097 C 0.09363 0.40697 0.25173
 C1098 C 0.07860 0.39620 0.26264
 C1099 C 0.05976 0.38450 0.27448
 C1100 C 0.13975 0.45133 0.21126
 H1101 H 0.13564 0.42566 0.26626
 H1102 H 0.08827 0.41949 0.20620
 H1103 H 0.11388 0.44599 0.18300
 H1104 H 0.16162 0.45229 0.24313
   
