data_POSCAR
  _audit_creation_date              2014-09-24
  _audit_creation_method            'ToBaCCo'
  _symmetry_space_group_name_H-M    'P1'
  _symmetry_Int_Tables_number       1
  _symmetry_cell_setting            triclinic
  loop_
  _symmetry_equiv_pos_as_xyz
 x,y,z
_cell_length_a 46.4263
_cell_length_b 46.4818
_cell_length_c 46.4433
_cell_angle_alpha 90.061500
_cell_angle_beta 90.001900
_cell_angle_gamma 89.982300
loop_
  _atom_site_label
  _atom_site_type_symbol
  _atom_site_fract_x
  _atom_site_fract_y
  _atom_site_fract_z
C1 C 0.25139 0.93920 -0.02659
 C2 C 0.25111 0.92453 -0.00032
 C3 C 0.25101 0.93939 0.02583
 C4 C 0.25132 0.96979 0.02603
 C5 C 0.25149 0.98500 -0.00046
 C6 C 0.25147 0.96967 -0.02692
 C7 C 0.25151 0.98521 -0.05291
 C8 C 0.25153 1.01516 -0.05293
 C9 C 0.25161 1.03081 -0.02697
 C10 C 0.25166 1.01558 -0.00048
 C11 C 0.25145 0.98537 0.05199
 C12 C 0.25175 1.01531 0.05199
 C13 C 0.25184 1.03088 0.02600
 C14 C 0.25209 1.06133 0.02573
 C15 C 0.25194 1.07606 -0.00049
 C16 C 0.25164 1.06127 -0.02671
 H17 H 0.25148 0.97430 -0.07352
 H18 H 0.25152 1.02600 -0.07356
 H19 H 0.25135 0.97450 0.07260
 H20 H 0.25187 1.02620 0.07261
 H21 H 0.25095 0.90116 -0.00017
 H22 H 0.25201 1.09945 -0.00049
 C23 C 0.75153 0.43778 0.47303
 C24 C 0.75119 0.42307 0.49924
 C25 C 0.75137 0.43791 0.52540
 C26 C 0.75203 0.46830 0.52563
 C27 C 0.75226 0.48348 0.49915
 C28 C 0.75195 0.46817 0.47271
 C29 C 0.75206 0.48365 0.44670
 C30 C 0.75241 0.51361 0.44666
 C31 C 0.75279 0.52919 0.47262
 C32 C 0.75279 0.51401 0.49911
 C33 C 0.75246 0.48389 0.55160
 C34 C 0.75311 0.51383 0.55155
 C35 C 0.75326 0.52930 0.52555
 C36 C 0.75385 0.55969 0.52523
 C37 C 0.75373 0.57441 0.49904
 C38 C 0.75314 0.55959 0.47287
 H39 H 0.75181 0.47270 0.42612
 H40 H 0.75243 0.52447 0.42605
 H41 H 0.75233 0.47304 0.57221
 H42 H 0.75345 0.52478 0.57214
 H43 H 0.75077 0.39972 0.49927
 H44 H 0.75404 0.59776 0.49902
 C45 C 0.74715 0.97345 1.06055
 C46 C 0.74703 0.99963 1.07532
 C47 C 0.74713 1.02579 1.06052
 C48 C 0.74725 1.02600 1.03005
 C49 C 0.74747 0.99949 1.01484
 C50 C 0.74746 0.97309 1.03014
 C51 C 0.74779 0.94708 1.01466
 C52 C 0.74817 0.94697 0.98468
 C53 C 0.74816 0.97288 0.96907
 C54 C 0.74774 0.99937 0.98427
 C55 C 0.74719 1.05190 1.01437
 C56 C 0.74734 1.05177 0.98440
 C57 C 0.74764 1.02575 0.96894
 C58 C 0.74788 1.02536 0.93852
 C59 C 0.74837 0.99915 0.92380
 C60 C 0.74856 0.97305 0.93865
 H61 H 0.74780 0.92653 1.02561
 H62 H 0.74846 0.92635 0.97382
 H63 H 0.74700 1.07254 1.02519
 H64 H 0.74727 1.07231 0.97343
 H65 H 0.74690 0.99958 1.09871
 H66 H 0.74865 0.99908 0.90043
 C67 C 0.24704 0.52626 0.56086
 C68 C 0.24690 0.50013 0.57569
 C69 C 0.24676 0.47390 0.56097
 C70 C 0.24683 0.47352 0.53054
 C71 C 0.24688 0.49992 0.51522
 C72 C 0.24694 0.52642 0.53042
 C73 C 0.24691 0.55233 0.51481
 C74 C 0.24683 0.55223 0.48483
 C75 C 0.24685 0.52622 0.46932
 C76 C 0.24691 0.49982 0.48464
 C77 C 0.24688 0.44752 0.51504
 C78 C 0.24702 0.44742 0.48504
 C79 C 0.24703 0.47332 0.46943
 C80 C 0.24719 0.47350 0.43899
 C81 C 0.24704 0.49964 0.42416
 C82 C 0.24684 0.52586 0.43889
 H83 H 0.24693 0.57294 0.52568
 H84 H 0.24680 0.57278 0.47387
 H85 H 0.24686 0.42697 0.52600
 H86 H 0.24709 0.42680 0.47417
 H87 H 0.24694 0.50021 0.59907
 H88 H 0.24713 0.49957 0.40079
 C89 C 0.93833 0.25111 -0.02631
 C90 C 0.92352 0.25063 -0.00012
 C91 C 0.93828 0.25040 0.02608
 C92 C 0.96871 0.25077 0.02642
 C93 C 0.98405 0.25113 -0.00000
 C94 C 0.96883 0.25124 -0.02652
 C95 C 0.98450 0.25145 -0.05245
 C96 C 1.01447 0.25151 -0.05236
 C97 C 1.03001 0.25147 -0.02633
 C98 C 1.01466 0.25135 0.00010
 C99 C 0.98417 0.25078 0.05244
 C100 C 1.01415 0.25115 0.05256
 C101 C 1.02985 0.25142 0.02664
 C102 C 1.06034 0.25173 0.02646
 C103 C 1.07520 0.25173 0.00029
 C104 C 1.06048 0.25153 -0.02596
 H105 H 0.97368 0.25153 -0.07310
 H106 H 1.02541 0.25164 -0.07294
 H107 H 0.97319 0.25054 0.07301
 H108 H 1.02496 0.25118 0.07322
 H109 H 0.90012 0.25042 -0.00006
 H110 H 1.09861 0.25184 0.00035
 C111 C 0.43873 0.75116 0.47525
 C112 C 0.42418 0.75089 0.50157
 C113 C 0.43920 0.75063 0.52763
 C114 C 0.46965 0.75075 0.52762
 C115 C 0.48467 0.75090 0.50100
 C116 C 0.46916 0.75105 0.47468
 C117 C 0.48447 0.75106 0.44855
 C118 C 0.51446 0.75091 0.44825
 C119 C 0.53026 0.75084 0.47407
 C120 C 0.51525 0.75090 0.50069
 C121 C 0.48546 0.75072 0.55344
 C122 C 0.51546 0.75087 0.55314
 C123 C 0.53076 0.75094 0.52701
 C124 C 0.56119 0.75103 0.52643
 C125 C 0.57573 0.75086 0.50010
 C126 C 0.56070 0.75070 0.47405
 H127 H 0.47336 0.75115 0.42805
 H128 H 0.52518 0.75089 0.42755
 H129 H 0.47474 0.75064 0.57414
 H130 H 0.52658 0.75087 0.57363
 H131 H 0.40079 0.75087 0.50177
 H132 H 0.59911 0.75083 0.49988
 C133 C -0.02682 0.74867 0.06142
 C134 C -0.00062 0.74889 0.07626
 C135 C 0.02559 0.74904 0.06153
 C136 C 0.02595 0.74885 0.03111
 C137 C -0.00046 0.74874 0.01574
 C138 C -0.02701 0.74870 0.03093
 C139 C -0.05292 0.74873 0.01521
 C140 C -0.05278 0.74882 -0.01476
 C141 C -0.02673 0.74880 -0.03025
 C142 C -0.00031 0.74869 -0.01486
 C143 C 0.05201 0.74877 0.01569
 C144 C 0.05217 0.74858 -0.01427
 C145 C 0.02626 0.74855 -0.03000
 C146 C 0.02614 0.74842 -0.06047
 C147 C -0.00000 0.74864 -0.07538
 C148 C -0.02629 0.74890 -0.06072
 H149 H -0.07359 0.74872 0.02601
 H150 H -0.07336 0.74888 -0.02573
 H151 H 0.07257 0.74882 0.02669
 H152 H 0.07285 0.74849 -0.02504
 H153 H -0.00058 0.74897 0.09965
 H154 H 0.00011 0.74865 -0.09878
 C155 C 0.47327 0.24839 0.56198
 C156 C 0.49960 0.24843 0.57656
 C157 C 0.52569 0.24837 0.56157
 C158 C 0.52570 0.24813 0.53114
 C159 C 0.49909 0.24821 0.51609
 C160 C 0.47274 0.24839 0.53155
 C161 C 0.44662 0.24860 0.51620
 C162 C 0.44638 0.24866 0.48620
 C163 C 0.47223 0.24841 0.47045
 C164 C 0.49883 0.24812 0.48552
 C165 C 0.55155 0.24784 0.51538
 C166 C 0.55130 0.24760 0.48540
 C167 C 0.52519 0.24776 0.47006
 C168 C 0.52467 0.24758 0.43964
 C169 C 0.49837 0.24799 0.42505
 C170 C 0.47228 0.24846 0.44001
 H171 H 0.42611 0.24876 0.52727
 H172 H 0.42569 0.24886 0.47545
 H173 H 0.57225 0.24775 0.52612
 H174 H 0.57182 0.24735 0.47432
 H175 H 0.49978 0.24853 0.59993
 H176 H 0.49821 0.24796 0.40168
 C177 C 0.94013 -0.02599 0.25292
 C178 C 0.92505 -0.00000 0.25262
 C179 C 0.93954 0.02631 0.25219
 C180 C 0.96997 0.02694 0.25219
 C181 C 0.98553 0.00067 0.25238
 C182 C 0.97055 -0.02594 0.25270
 C183 C 0.98638 -0.05173 0.25275
 C184 C 1.01635 -0.05141 0.25244
 C185 C 1.03163 -0.02529 0.25217
 C186 C 1.01611 0.00100 0.25221
 C187 C 0.98521 0.05306 0.25197
 C188 C 1.01520 0.05340 0.25194
 C189 C 1.03111 0.02761 0.25203
 C190 C 1.06160 0.02761 0.25193
 C191 C 1.07661 0.00154 0.25177
 C192 C 1.06204 -0.02474 0.25183
 H193 H 0.97569 -0.07242 0.25298
 H194 H 1.02747 -0.07189 0.25245
 H195 H 0.97406 0.07352 0.25185
 H196 H 1.02585 0.07412 0.25180
 H197 H 0.90166 -0.00026 0.25267
 H198 H 1.10001 0.00164 0.25157
 C199 C 0.43984 0.47463 0.75376
 C200 C 0.42513 0.50085 0.75361
 C201 C 0.43998 0.52698 0.75316
 C202 C 0.47043 0.52714 0.75297
 C203 C 0.48562 0.50063 0.75301
 C204 C 0.47027 0.47424 0.75335
 C205 C 0.48573 0.44822 0.75324
 C206 C 0.51573 0.44809 0.75277
 C207 C 0.53138 0.47398 0.75248
 C208 C 0.51620 0.50050 0.75267
 C209 C 0.48608 0.55303 0.75273
 C210 C 0.51609 0.55290 0.75254
 C211 C 0.53156 0.52688 0.75249
 C212 C 0.56200 0.52648 0.75223
 C213 C 0.57670 0.50024 0.75194
 C214 C 0.56182 0.47412 0.75200
 H215 H 0.47475 0.42768 0.75348
 H216 H 0.52657 0.42746 0.75266
 H217 H 0.47523 0.57365 0.75272
 H218 H 0.52708 0.57344 0.75239
 H219 H 0.40174 0.50091 0.75381
 H220 H 0.60008 0.50015 0.75164
 C221 C 1.02770 0.94046 0.74765
 C222 C 1.00148 0.92569 0.74766
 C223 C 0.97527 0.94043 0.74765
 C224 C 0.97494 0.97082 0.74751
 C225 C 1.00138 0.98615 0.74762
 C226 C 1.02791 0.97093 0.74774
 C227 C 1.05385 0.98658 0.74798
 C228 C 1.05375 1.01653 0.74815
 C229 C 1.02771 1.03207 0.74798
 C230 C 1.00128 1.01673 0.74764
 C231 C 0.94891 0.98627 0.74729
 C232 C 0.94879 1.01622 0.74716
 C233 C 0.97472 1.03191 0.74736
 C234 C 0.97487 1.06237 0.74731
 C235 C 1.00106 1.07722 0.74777
 C236 C 1.02734 1.06253 0.74817
 H237 H 1.07450 0.97576 0.74810
 H238 H 1.07434 1.02746 0.74838
 H239 H 0.92834 0.97531 0.74717
 H240 H 0.92812 1.02701 0.74696
 H241 H 1.00140 0.90231 0.74770
 H242 H 1.00098 1.10060 0.74785
 C243 C 0.47451 0.56172 0.24625
 C244 C 0.50085 0.57622 0.24657
 C245 C 0.52689 0.56117 0.24681
 C246 C 0.52684 0.53077 0.24661
 C247 C 0.50019 0.51581 0.24641
 C248 C 0.47389 0.53134 0.24629
 C249 C 0.44773 0.51610 0.24624
 C250 C 0.44739 0.48615 0.24636
 C251 C 0.47320 0.47033 0.24643
 C252 C 0.49985 0.48528 0.24638
 C253 C 0.55265 0.51494 0.24663
 C254 C 0.55231 0.48498 0.24645
 C255 C 0.52615 0.46974 0.24635
 C256 C 0.52551 0.43936 0.24626
 C257 C 0.49917 0.42488 0.24642
 C258 C 0.47314 0.43994 0.24657
 H259 H 0.42724 0.52722 0.24616
 H260 H 0.42666 0.47548 0.24636
 H261 H 0.57338 0.52561 0.24675
 H262 H 0.57280 0.47384 0.24644
 H263 H 0.50108 0.59958 0.24667
 H264 H 0.49891 0.40152 0.24647
 O265 O 0.25081 0.17577 0.20808
 O266 O 0.28229 0.16758 0.24818
 O267 O 0.17522 0.21020 0.24974
 O268 O 0.16477 0.24752 0.27818
 O269 O 0.21027 0.25101 0.17370
 O270 O 0.25032 0.28253 0.16581
 O271 O 0.25022 0.29007 0.32316
 O272 O 0.21664 0.25135 0.33018
 O273 O 0.32420 0.25113 0.28844
 O274 O 0.33335 0.21873 0.24774
 O275 O 0.28956 0.32470 0.24950
 O276 O 0.24820 0.33328 0.21674
 O277 O 0.25057 0.32454 0.28840
 O278 O 0.21795 0.33340 0.24750
 O279 O 0.32418 0.29004 0.24954
 O280 O 0.33300 0.24874 0.21672
 O281 O 0.28965 0.25194 0.32319
 O282 O 0.25485 0.21923 0.33214
 O283 O 0.25083 0.21061 0.17362
 O284 O 0.28228 0.25068 0.16574
 O285 O 0.17542 0.25035 0.20822
 O286 O 0.16860 0.28361 0.24875
 O287 O 0.21002 0.17569 0.24828
 O288 O 0.25164 0.16671 0.27961
 Zr289 Zr 0.24906 0.19868 0.24728
 O290 O 0.27567 0.22344 0.27437
 Zr291 Zr 0.19834 0.24908 0.24743
 O292 O 0.22294 0.27601 0.27453
 Zr293 Zr 0.24912 0.24938 0.19692
 O294 O 0.27588 0.27626 0.22170
 Zr295 Zr 0.25077 0.25114 0.29997
 O296 O 0.22357 0.22365 0.27551
 Zr297 Zr 0.30127 0.25106 0.24938
 O298 O 0.27696 0.22389 0.22200
 Zr299 Zr 0.25053 0.30158 0.24936
 O300 O 0.22347 0.27701 0.22205
 O301 O 0.22231 0.22253 0.22056
 O302 O 0.27766 0.27815 0.27634
 C303 C 0.25153 0.18425 0.18177
 C304 C 0.18367 0.18390 0.24972
 C305 C 0.18388 0.25136 0.18190
 C306 C 0.25032 0.31637 0.31476
 C307 C 0.31598 0.25159 0.31480
 C308 C 0.31590 0.31636 0.24953
 H309 H 0.28732 0.21043 0.28654
 H310 H 0.28776 0.28814 0.20867
 H311 H 0.21004 0.21022 0.20822
 H312 H 0.20991 0.28771 0.28665
 H313 H 0.20382 0.23508 0.32513
 H314 H 0.17174 0.25752 0.29563
 H315 H 0.32924 0.26443 0.20285
 H316 H 0.29753 0.23742 0.17251
 H317 H 0.24339 0.20259 0.32560
 H318 H 0.23497 0.16941 0.29262
 H319 H 0.26387 0.32949 0.20282
 H320 H 0.23696 0.29769 0.17260
 H321 H 0.29747 0.17448 0.23491
 H322 H 0.32867 0.20421 0.26257
 H323 H 0.17448 0.29741 0.23363
 H324 H 0.20369 0.32905 0.26270
 O325 O 0.74993 0.82478 0.21078
 O326 O 0.71865 0.83309 0.25074
 O327 O 0.82549 0.79014 0.25221
 O328 O 0.83578 0.75270 0.28053
 O329 O 0.79074 0.74980 0.17576
 O330 O 0.75061 0.71828 0.16768
 O331 O 0.75022 0.71044 0.32490
 O332 O 0.78380 0.74893 0.33230
 O333 O 0.67626 0.74934 0.29044
 O334 O 0.66750 0.78213 0.24964
 O335 O 0.71089 0.67589 0.25106
 O336 O 0.75219 0.66720 0.21850
 O337 O 0.74980 0.67583 0.29020
 O338 O 0.78260 0.66715 0.24913
 O339 O 0.67633 0.71062 0.25119
 O340 O 0.66755 0.75190 0.21873
 O341 O 0.71096 0.74842 0.32504
 O342 O 0.74566 0.78111 0.33429
 O343 O 0.75007 0.79034 0.17586
 O344 O 0.71863 0.75024 0.16767
 O345 O 0.82525 0.75011 0.21062
 O346 O 0.83197 0.71675 0.25089
 O347 O 0.79076 0.82471 0.25084
 O348 O 0.74907 0.83358 0.28230
 Zr349 Zr 0.75169 0.80179 0.24972
 O350 O 0.72490 0.77706 0.27654
 Zr351 Zr 0.80228 0.75132 0.24968
 O352 O 0.77758 0.72436 0.27653
 Zr353 Zr 0.75172 0.75137 0.19892
 O354 O 0.72481 0.72446 0.22356
 Zr355 Zr 0.74980 0.74930 0.30195
 O356 O 0.77712 0.77678 0.27782
 Zr357 Zr 0.69933 0.74955 0.25135
 O358 O 0.72383 0.77674 0.22418
 Zr359 Zr 0.74997 0.69891 0.25118
 O360 O 0.77717 0.72355 0.22405
 O361 O 0.77847 0.77804 0.22289
 O362 O 0.72287 0.72237 0.27821
 C363 C 0.74926 0.81661 0.18439
 C364 C 0.81709 0.81645 0.25227
 C365 C 0.81707 0.74929 0.18424
 C366 C 0.75006 0.68414 0.31656
 C367 C 0.68461 0.74878 0.31678
 C368 C 0.68455 0.68429 0.25104
 H369 H 0.71326 0.79006 0.28876
 H370 H 0.71295 0.71264 0.21043
 H371 H 0.79079 0.79038 0.21065
 H372 H 0.79055 0.71261 0.28863
 H373 H 0.79669 0.76517 0.32739
 H374 H 0.82875 0.74264 0.29791
 H375 H 0.67158 0.73651 0.20457
 H376 H 0.70337 0.76346 0.17453
 H377 H 0.75727 0.79772 0.32794
 H378 H 0.76586 0.83099 0.29516
 H379 H 0.73682 0.67133 0.20435
 H380 H 0.76395 0.70311 0.17445
 H381 H 0.70329 0.82615 0.23768
 H382 H 0.67183 0.79627 0.26497
 H383 H 0.82607 0.70297 0.23574
 H384 H 0.79666 0.67124 0.26460
 O385 O 0.75042 0.17479 0.78912
 O386 O 0.71986 0.16616 0.74926
 O387 O 0.82576 0.21047 0.74850
 O388 O 0.83688 0.24810 0.72153
 O389 O 0.79003 0.25022 0.82491
 O390 O 0.74887 0.27996 0.83411
 O391 O 0.74970 0.28881 0.67508
 O392 O 0.78287 0.25162 0.66697
 O393 O 0.67629 0.25052 0.71021
 O394 O 0.66637 0.21932 0.75056
 O395 O 0.71188 0.32475 0.74865
 O396 O 0.74745 0.33186 0.78217
 O397 O 0.74878 0.32373 0.70950
 O398 O 0.78595 0.32939 0.74677
 O399 O 0.67701 0.29024 0.74890
 O400 O 0.66852 0.24830 0.78254
 O401 O 0.71070 0.25050 0.67530
 O402 O 0.75089 0.21673 0.66710
 O403 O 0.74995 0.20914 0.82412
 O404 O 0.71732 0.24952 0.83162
 O405 O 0.82508 0.25014 0.79063
 O406 O 0.83107 0.28450 0.74981
 O407 O 0.79149 0.17540 0.74898
 O408 O 0.75109 0.16757 0.71676
 Zr409 Zr 0.75218 0.19816 0.75047
 O410 O 0.72479 0.22272 0.72403
 Zr411 Zr 0.80238 0.24909 0.75126
 O412 O 0.77760 0.27520 0.72367
 Zr413 Zr 0.75138 0.24838 0.80141
 O414 O 0.72514 0.27562 0.77651
 Zr415 Zr 0.74984 0.25011 0.69830
 O416 O 0.77760 0.22356 0.72288
 Zr417 Zr 0.69942 0.25064 0.74910
 O418 O 0.72387 0.22298 0.77589
 Zr419 Zr 0.75022 0.30097 0.74872
 O420 O 0.77695 0.27670 0.77677
 O421 O 0.77857 0.22198 0.77764
 O422 O 0.72308 0.27725 0.72196
 C423 C 0.74947 0.18288 0.81551
 C424 C 0.81776 0.18405 0.74797
 C425 C 0.81645 0.25085 0.81690
 C426 C 0.74909 0.31518 0.68321
 C427 C 0.68439 0.25050 0.68382
 C428 C 0.68549 0.31658 0.74878
 H429 H 0.71272 0.20962 0.71240
 H430 H 0.71358 0.28786 0.78956
 H431 H 0.79091 0.20964 0.78986
 H432 H 0.79050 0.28707 0.71157
 H433 H 0.79805 0.23808 0.67335
 H434 H 0.82999 0.25737 0.70366
 H435 H 0.67154 0.26498 0.79544
 H436 H 0.70306 0.23497 0.82534
 H437 H 0.73491 0.20325 0.67111
 H438 H 0.76519 0.17406 0.70216
 H439 H 0.76457 0.32911 0.79456
 H440 H 0.76256 0.29536 0.82883
 H441 H 0.70391 0.17324 0.76153
 H442 H 0.67182 0.20362 0.73724
 H443 H 0.82627 0.29716 0.76628
 H444 H 0.77848 0.34913 0.74367
 O445 O 0.24966 0.82428 0.79135
 O446 O 0.28122 0.83245 0.75140
 O447 O 0.17433 0.78969 0.74933
 O448 O 0.16394 0.75242 0.72092
 O449 O 0.20882 0.74911 0.82569
 O450 O 0.24894 0.71750 0.83370
 O451 O 0.24950 0.70984 0.67640
 O452 O 0.21597 0.74869 0.66923
 O453 O 0.32351 0.74868 0.71123
 O454 O 0.33245 0.78112 0.75200
 O455 O 0.28847 0.67528 0.75026
 O456 O 0.24715 0.66664 0.78275
 O457 O 0.24975 0.67541 0.71120
 O458 O 0.21685 0.66671 0.75208
 O459 O 0.32333 0.70967 0.75029
 O460 O 0.33190 0.75114 0.78316
 O461 O 0.28887 0.74790 0.67657
 O462 O 0.25429 0.78057 0.66730
 O463 O 0.24950 0.78948 0.82584
 O464 O 0.28088 0.74944 0.83394
 O465 O 0.17438 0.74963 0.79077
 O466 O 0.16766 0.71641 0.75028
 O467 O 0.20887 0.82442 0.75105
 O468 O 0.25071 0.83316 0.71969
 Zr469 Zr 0.24801 0.80134 0.75215
 O470 O 0.27480 0.77647 0.72525
 Zr471 Zr 0.19743 0.75088 0.75176
 O472 O 0.22207 0.72392 0.72484
 Zr473 Zr 0.24787 0.75067 0.80260
 O474 O 0.27478 0.72374 0.77794
 Zr475 Zr 0.24998 0.74879 0.69957
 O476 O 0.22270 0.77635 0.72382
 Zr477 Zr 0.30038 0.74879 0.75029
 O478 O 0.27585 0.77605 0.77752
 Zr479 Zr 0.24953 0.69842 0.75021
 O480 O 0.22236 0.72301 0.77737
 O481 O 0.22118 0.77749 0.77877
 O482 O 0.27678 0.72174 0.72329
 C483 C 0.25028 0.81583 0.81767
 C484 C 0.18256 0.81604 0.74947
 C485 C 0.18251 0.74870 0.81716
 C486 C 0.24959 0.68355 0.68483
 C487 C 0.31521 0.74821 0.68487
 C488 C 0.31487 0.68339 0.75031
 H489 H 0.28650 0.78946 0.71310
 H490 H 0.28658 0.71185 0.79103
 H491 H 0.20885 0.78981 0.79103
 H492 H 0.20909 0.71222 0.71268
 H493 H 0.20324 0.76508 0.67414
 H494 H 0.17103 0.74255 0.70344
 H495 H 0.32811 0.73540 0.79696
 H496 H 0.29622 0.76255 0.82712
 H497 H 0.24312 0.79740 0.67390
 H498 H 0.23396 0.83056 0.70677
 H499 H 0.26257 0.67061 0.79690
 H500 H 0.23552 0.70241 0.82690
 H501 H 0.29644 0.82545 0.76458
 H502 H 0.32778 0.79564 0.73716
 H503 H 0.17343 0.70260 0.76544
 H504 H 0.20283 0.67084 0.73659
 O505 O 0.24890 0.32578 0.71214
 O506 O 0.21749 0.33411 0.75208
 O507 O 0.32436 0.29120 0.75372
 O508 O 0.33455 0.25386 0.78226
 O509 O 0.28969 0.25061 0.67740
 O510 O 0.24953 0.21917 0.66930
 O511 O 0.24905 0.21162 0.82660
 O512 O 0.28264 0.25018 0.83388
 O513 O 0.17512 0.25049 0.79193
 O514 O 0.16639 0.28321 0.75109
 O515 O 0.20967 0.17695 0.75277
 O516 O 0.25106 0.16817 0.72026
 O517 O 0.24858 0.17693 0.79198
 O518 O 0.28140 0.16814 0.75095
 O519 O 0.17515 0.21172 0.75274
 O520 O 0.16646 0.25293 0.72021
 O521 O 0.20979 0.24961 0.82656
 O522 O 0.24446 0.28228 0.83582
 O523 O 0.24909 0.29124 0.67731
 O524 O 0.21756 0.25114 0.66923
 O525 O 0.32415 0.25100 0.71231
 O526 O 0.33087 0.21783 0.75263
 O527 O 0.28965 0.32578 0.75225
 O528 O 0.24795 0.33473 0.78364
 Zr529 Zr 0.25057 0.30285 0.75116
 O530 O 0.22378 0.27816 0.77802
 Zr531 Zr 0.30114 0.25237 0.75132
 O532 O 0.27642 0.22543 0.77819
 Zr533 Zr 0.25064 0.25231 0.70049
 O534 O 0.22370 0.22545 0.72516
 Zr535 Zr 0.24864 0.25044 0.80352
 O536 O 0.27596 0.27789 0.77936
 Zr537 Zr 0.19820 0.25062 0.75286
 O538 O 0.22273 0.27775 0.72565
 Zr539 Zr 0.24880 0.19994 0.75289
 O540 O 0.27603 0.22454 0.72574
 O541 O 0.27737 0.27902 0.72442
 O542 O 0.22169 0.22348 0.77982
 C543 C 0.24829 0.31755 0.68576
 C544 C 0.31598 0.31753 0.75370
 C545 C 0.31600 0.25009 0.68593
 C546 C 0.24885 0.18529 0.81833
 C547 C 0.18346 0.24997 0.81827
 C548 C 0.18334 0.18537 0.75268
 H549 H 0.21214 0.29119 0.79020
 H550 H 0.21184 0.21361 0.71205
 H551 H 0.28971 0.29132 0.71217
 H552 H 0.28937 0.21370 0.79032
 H553 H 0.29549 0.26645 0.82895
 H554 H 0.32756 0.24370 0.79959
 H555 H 0.17053 0.23754 0.70606
 H556 H 0.20234 0.26445 0.67600
 H557 H 0.25593 0.29895 0.82939
 H558 H 0.26470 0.33213 0.79655
 H559 H 0.23566 0.17224 0.70612
 H560 H 0.26278 0.20396 0.67616
 H561 H 0.20220 0.32718 0.73893
 H562 H 0.17074 0.29739 0.76637
 H563 H 0.32490 0.20394 0.73760
 H564 H 0.29546 0.17227 0.76640
 O565 O 0.75356 0.67504 0.70868
 O566 O 0.78501 0.66686 0.74874
 O567 O 0.67798 0.70951 0.75026
 O568 O 0.66760 0.74687 0.77874
 O569 O 0.71298 0.75023 0.67419
 O570 O 0.75301 0.78172 0.66618
 O571 O 0.75303 0.78947 0.82350
 O572 O 0.71953 0.75076 0.83064
 O573 O 0.82701 0.75054 0.78874
 O574 O 0.83616 0.71808 0.74812
 O575 O 0.79236 0.82403 0.74979
 O576 O 0.75093 0.83252 0.71699
 O577 O 0.75337 0.82389 0.78868
 O578 O 0.72079 0.83277 0.74783
 O579 O 0.82699 0.78937 0.74981
 O580 O 0.83570 0.74797 0.71698
 O581 O 0.79250 0.75143 0.82353
 O582 O 0.75777 0.71867 0.83258
 O583 O 0.75354 0.70983 0.67416
 O584 O 0.78495 0.74988 0.66613
 O585 O 0.67816 0.74964 0.70874
 O586 O 0.67134 0.78291 0.74923
 O587 O 0.71277 0.67500 0.74883
 O588 O 0.75442 0.66614 0.78025
 Zr589 Zr 0.75182 0.69800 0.74782
 O590 O 0.77849 0.72281 0.77480
 Zr591 Zr 0.70111 0.74840 0.74793
 O592 O 0.72575 0.77537 0.77493
 Zr593 Zr 0.75185 0.74863 0.69736
 O594 O 0.77865 0.77555 0.72204
 Zr595 Zr 0.75360 0.75053 0.80037
 O596 O 0.72635 0.72300 0.77602
 Zr597 Zr 0.80405 0.75039 0.74972
 O598 O 0.77969 0.72317 0.72245
 Zr599 Zr 0.75333 0.80091 0.74968
 O600 O 0.72621 0.77629 0.72247
 O601 O 0.72506 0.72182 0.72107
 O602 O 0.78047 0.77751 0.77667
 C603 C 0.75427 0.68349 0.68237
 C604 C 0.68642 0.68321 0.75026
 C605 C 0.68660 0.75061 0.68243
 C606 C 0.75311 0.81574 0.81505
 C607 C 0.81882 0.75108 0.81510
 C608 C 0.81872 0.81569 0.74981
 H609 H 0.79016 0.70981 0.78697
 H610 H 0.79051 0.78741 0.70897
 H611 H 0.71277 0.70949 0.70876
 H612 H 0.71274 0.78708 0.78703
 H613 H 0.70671 0.73448 0.82565
 H614 H 0.67459 0.75691 0.79616
 H615 H 0.83201 0.76373 0.70317
 H616 H 0.80022 0.73665 0.67291
 H617 H 0.74628 0.70201 0.82610
 H618 H 0.73769 0.66879 0.79319
 H619 H 0.76668 0.82879 0.70313
 H620 H 0.73969 0.79691 0.67298
 H621 H 0.80023 0.67377 0.73552
 H622 H 0.83148 0.70357 0.76296
 H623 H 0.67723 0.79671 0.73412
 H624 H 0.70648 0.82838 0.76298
 O625 O 0.24948 0.67554 0.28936
 O626 O 0.21877 0.66720 0.24947
 O627 O 0.32487 0.71109 0.24876
 O628 O 0.33634 0.74875 0.22214
 O629 O 0.28921 0.75086 0.32532
 O630 O 0.24818 0.78056 0.33460
 O631 O 0.24934 0.78980 0.17542
 O632 O 0.28241 0.75246 0.16737
 O633 O 0.17575 0.75170 0.21045
 O634 O 0.16562 0.72053 0.25070
 O635 O 0.21160 0.82573 0.24898
 O636 O 0.24712 0.83274 0.28254
 O637 O 0.24853 0.82467 0.20988
 O638 O 0.28569 0.83008 0.24728
 O639 O 0.17658 0.79136 0.24914
 O640 O 0.16783 0.74947 0.28273
 O641 O 0.21021 0.75163 0.17558
 O642 O 0.25027 0.71771 0.16737
 O643 O 0.24907 0.70983 0.32442
 O644 O 0.21641 0.75040 0.33181
 O645 O 0.32431 0.75062 0.29110
 O646 O 0.33050 0.78508 0.25035
 O647 O 0.29047 0.67614 0.24917
 O648 O 0.25008 0.66843 0.21704
 Zr649 Zr 0.25128 0.69901 0.25075
 O650 O 0.22409 0.72373 0.22427
 Zr651 Zr 0.30170 0.74976 0.25169
 O652 O 0.27712 0.77600 0.22405
 Zr653 Zr 0.25062 0.74913 0.30176
 O654 O 0.22459 0.77655 0.27682
 Zr655 Zr 0.24931 0.75106 0.19861
 O656 O 0.27687 0.72436 0.22324
 Zr657 Zr 0.19881 0.75169 0.24935
 O658 O 0.22305 0.72388 0.27617
 Zr659 Zr 0.24983 0.80183 0.24910
 O660 O 0.27634 0.77742 0.27721
 O661 O 0.27774 0.72269 0.27799
 O662 O 0.22262 0.77826 0.22228
 C663 C 0.24854 0.68357 0.31578
 C664 C 0.31675 0.68471 0.24815
 C665 C 0.31564 0.75137 0.31735
 C666 C 0.24883 0.81617 0.18356
 C667 C 0.18390 0.75169 0.18407
 C668 C 0.18519 0.81765 0.24905
 H669 H 0.21199 0.71069 0.21260
 H670 H 0.21306 0.78882 0.28987
 H671 H 0.29004 0.71028 0.29019
 H672 H 0.29010 0.78783 0.21199
 H673 H 0.29751 0.73884 0.17377
 H674 H 0.32949 0.75788 0.20418
 H675 H 0.17093 0.76610 0.29567
 H676 H 0.20223 0.73576 0.32559
 H677 H 0.23421 0.70432 0.17132
 H678 H 0.26414 0.67492 0.20239
 H679 H 0.26416 0.82986 0.29500
 H680 H 0.26169 0.79609 0.32923
 H681 H 0.20293 0.67427 0.26188
 H682 H 0.17107 0.70478 0.23745
 H683 H 0.32579 0.79767 0.26690
 H684 H 0.27833 0.84986 0.24412
 O685 O 0.74854 0.32253 0.28946
 O686 O 0.77998 0.33081 0.24947
 O687 O 0.67325 0.28773 0.24750
 O688 O 0.66280 0.25038 0.21927
 O689 O 0.70791 0.24734 0.32390
 O690 O 0.74809 0.21577 0.33185
 O691 O 0.74851 0.20817 0.17457
 O692 O 0.71482 0.24688 0.16742
 O693 O 0.82240 0.24719 0.20931
 O694 O 0.83127 0.27970 0.25011
 O695 O 0.78759 0.17373 0.24839
 O696 O 0.74638 0.16490 0.28088
 O697 O 0.74888 0.17374 0.20938
 O698 O 0.71601 0.16494 0.25029
 O699 O 0.82237 0.20822 0.24835
 O700 O 0.83094 0.24963 0.28116
 O701 O 0.78772 0.24631 0.17469
 O702 O 0.75302 0.27890 0.16547
 O703 O 0.74853 0.28774 0.32396
 O704 O 0.77994 0.24775 0.33207
 O705 O 0.67341 0.24775 0.28902
 O706 O 0.66675 0.21442 0.24856
 O707 O 0.70770 0.32255 0.24924
 O708 O 0.74944 0.33145 0.21785
 Zr709 Zr 0.74687 0.29960 0.25029
 O710 O 0.77368 0.27484 0.22335
 Zr711 Zr 0.69641 0.24900 0.24999
 O712 O 0.72107 0.22213 0.22302
 Zr713 Zr 0.74691 0.24894 0.30076
 O714 O 0.77385 0.22211 0.27606
 Zr715 Zr 0.74887 0.24709 0.19773
 O716 O 0.72155 0.27456 0.22201
 Zr717 Zr 0.79933 0.24725 0.24839
 O718 O 0.77478 0.27441 0.27565
 Zr719 Zr 0.74861 0.19673 0.24838
 O720 O 0.72142 0.22122 0.27559
 O721 O 0.72013 0.27568 0.27695
 O722 O 0.77577 0.22014 0.22143
 C723 C 0.74925 0.31408 0.31576
 C724 C 0.68143 0.31408 0.24764
 C725 C 0.68159 0.24688 0.31540
 C726 C 0.74869 0.18189 0.18301
 C727 C 0.81406 0.24671 0.18297
 C728 C 0.81395 0.18194 0.24840
 H729 H 0.78531 0.28786 0.21119
 H730 H 0.78570 0.21025 0.28915
 H731 H 0.70779 0.28799 0.28923
 H732 H 0.70810 0.21040 0.21088
 H733 H 0.70203 0.26320 0.17236
 H734 H 0.66992 0.24066 0.20172
 H735 H 0.82716 0.23395 0.29503
 H736 H 0.79526 0.26088 0.32524
 H737 H 0.74172 0.29566 0.17204
 H738 H 0.73270 0.32881 0.20494
 H739 H 0.76173 0.16897 0.29507
 H740 H 0.73465 0.20067 0.32510
 H741 H 0.79525 0.32386 0.26263
 H742 H 0.82665 0.29412 0.23516
 H743 H 0.67253 0.20068 0.26377
 H744 H 0.70199 0.16900 0.23479
 C745 C 0.25243 0.07733 0.05049
 C746 C 0.25270 0.09202 0.07191
 C747 C 0.25293 0.10995 0.09646
 C748 C 0.25298 0.12593 0.11693
 C749 C 0.25282 0.14542 0.14026
 C750 C 0.25241 0.16276 0.15958
 C751 C 0.75447 0.57659 0.55133
 C752 C 0.75493 0.59129 0.57271
 C753 C 0.75535 0.60920 0.59723
 C754 C 0.75553 0.62515 0.61768
 C755 C 0.75547 0.64464 0.64097
 C756 C 0.75512 0.66199 0.66025
 C757 C 0.74706 0.94738 0.07746
 C758 C 0.74703 0.92605 0.09218
 C759 C 0.74709 0.90159 0.11012
 C760 C 0.74728 0.88120 0.12610
 C761 C 0.74769 0.85796 0.14560
 C762 C 0.74826 0.83872 0.16294
 C763 C 0.24661 0.44785 0.57796
 C764 C 0.24652 0.42659 0.59281
 C765 C 0.24649 0.40223 0.61095
 C766 C 0.24660 0.38194 0.62709
 C767 C 0.24691 0.35880 0.64676
 C768 C 0.24739 0.33962 0.66421
 C769 C 0.74770 0.05142 0.92161
 C770 C 0.74759 0.07281 0.90697
 C771 C 0.74757 0.09739 0.88920
 C772 C 0.74768 0.11791 0.87339
 C773 C 0.74802 0.14131 0.85409
 C774 C 0.74853 0.16068 0.83688
 C775 C 0.24669 0.55195 0.42196
 C776 C 0.24660 0.57334 0.40730
 C777 C 0.24660 0.59793 0.38947
 C778 C 0.24672 0.61846 0.37364
 C779 C 0.24706 0.64190 0.35432
 C780 C 0.24758 0.66131 0.33713
 C781 C 0.25156 0.92314 0.94869
 C782 C 0.25171 0.90838 0.92731
 C783 C 0.25182 0.89035 0.90282
 C784 C 0.25180 0.87431 0.88240
 C785 C 0.25157 0.85473 0.85912
 C786 C 0.25115 0.83735 0.83983
 C787 C 0.75146 0.42087 0.44692
 C788 C 0.75141 0.40618 0.42553
 C789 C 0.75131 0.38828 0.40099
 C790 C 0.75112 0.37235 0.38052
 C791 C 0.75074 0.35289 0.35719
 C792 C 0.75020 0.33556 0.33790
 C793 C 0.07627 0.25201 0.05124
 C794 C 0.09101 0.25226 0.07263
 C795 C 0.10907 0.25248 0.09707
 C796 C 0.12519 0.25255 0.11742
 C797 C 0.14486 0.25244 0.14059
 C798 C 0.16232 0.25211 0.15980
 C799 C 0.57836 0.75131 0.55237
 C800 C 0.59332 0.75154 0.57358
 C801 C 0.61156 0.75175 0.59787
 C802 C 0.62778 0.75182 0.61811
 C803 C 0.64753 0.75170 0.64120
 C804 C 0.66503 0.75136 0.66036
 C805 C 0.05098 0.74810 0.92367
 C806 C 0.07247 0.74783 0.90909
 C807 C 0.09708 0.74759 0.89126
 C808 C 0.11760 0.74751 0.87536
 C809 C 0.14097 0.74762 0.85592
 C810 C 0.16031 0.74794 0.83862
 C811 C 0.55068 0.24702 0.42257
 C812 C 0.57199 0.24657 0.40777
 C813 C 0.59645 0.24615 0.38976
 C814 C 0.61687 0.24593 0.37375
 C815 C 0.64015 0.24591 0.35424
 C816 C 0.65944 0.24617 0.33688
 C817 C 0.94837 0.74844 0.07733
 C818 C 0.92692 0.74824 0.09199
 C819 C 0.90235 0.74807 0.10990
 C820 C 0.88188 0.74804 0.12587
 C821 C 0.85855 0.74819 0.14538
 C822 C 0.83924 0.74854 0.16273
 C823 C 0.44724 0.24834 0.57905
 C824 C 0.42590 0.24830 0.59383
 C825 C 0.40138 0.24831 0.61178
 C826 C 0.38090 0.24842 0.62773
 C827 C 0.35754 0.24873 0.64717
 C828 C 0.33819 0.24920 0.66447
 C829 C 0.92241 0.25142 0.94890
 C830 C 0.90785 0.25169 0.92740
 C831 C 0.89011 0.25194 0.90272
 C832 C 0.87432 0.25203 0.88212
 C833 C 0.85502 0.25193 0.85863
 C834 C 0.83782 0.25160 0.83919
 C835 C 0.42165 0.75154 0.44924
 C836 C 0.40695 0.75186 0.42786
 C837 C 0.38915 0.75216 0.40323
 C838 C 0.37337 0.75231 0.38265
 C839 C 0.35412 0.75229 0.35914
 C840 C 0.33696 0.75203 0.33967
 C841 C 0.07734 0.05248 0.25193
 C842 C 0.09184 0.07399 0.25191
 C843 C 0.10958 0.09863 0.25183
 C844 C 0.12543 0.11915 0.25165
 C845 C 0.14485 0.14249 0.25125
 C846 C 0.16217 0.16179 0.25070
 C847 C 0.57901 0.55252 0.75226
 C848 C 0.59381 0.57383 0.75228
 C849 C 0.61186 0.59826 0.75223
 C850 C 0.62792 0.61863 0.75209
 C851 C 0.64749 0.64186 0.75174
 C852 C 0.66489 0.66110 0.75121
 C853 C 0.95003 0.07825 0.74691
 C854 C 0.92850 0.09280 0.74660
 C855 C 0.90377 0.11052 0.74634
 C856 C 0.88314 0.12629 0.74629
 C857 C 0.85959 0.14555 0.74649
 C858 C 0.84010 0.16271 0.74696
 C859 C 0.44852 0.57880 0.24600
 C860 C 0.42712 0.59347 0.24584
 C861 C 0.40248 0.61121 0.24579
 C862 C 0.38189 0.62696 0.24591
 C863 C 0.35839 0.64619 0.24632
 C864 C 0.33897 0.66335 0.24696
 C865 C 0.05246 0.92446 0.74759
 C866 C 0.07377 0.90960 0.74755
 C867 C 0.09809 0.89134 0.74757
 C868 C 0.11832 0.87505 0.74770
 C869 C 0.14137 0.85521 0.74803
 C870 C 0.16049 0.83765 0.74853
 C871 C 0.55143 0.42219 0.24605
 C872 C 0.57262 0.40723 0.24591
 C873 C 0.59689 0.38900 0.24583
 C874 C 0.61713 0.37279 0.24590
 C875 C 0.64020 0.35306 0.24619
 C876 C 0.65935 0.33559 0.24669
 C877 C 0.92352 0.94773 0.25335
 C878 C 0.90902 0.92624 0.25366
 C879 C 0.89127 0.90162 0.25389
 C880 C 0.87541 0.88111 0.25393
 C881 C 0.85598 0.85779 0.25371
 C882 C 0.83863 0.83852 0.25324
 C883 C 0.42288 0.44856 0.75426
 C884 C 0.40817 0.42720 0.75464
 C885 C 0.39027 0.40267 0.75497
 C886 C 0.37434 0.38221 0.75509
 C887 C 0.35487 0.35889 0.75497
 C888 C 0.33753 0.33961 0.75459
 C889 C 0.07651 0.25127 0.94933
 C890 C 0.09118 0.25097 0.92792
 C891 C 0.10905 0.25060 0.90336
 C892 C 0.12499 0.25030 0.88289
 C893 C 0.14448 0.25004 0.85959
 C894 C 0.16186 0.24993 0.84033
 C895 C 0.57739 0.75030 0.44776
 C896 C 0.59202 0.74992 0.42632
 C897 C 0.60996 0.74947 0.40177
 C898 C 0.62598 0.74913 0.38135
 C899 C 0.64556 0.74884 0.35809
 C900 C 0.66300 0.74872 0.33886
 C901 C 0.94905 0.74934 0.92316
 C902 C 0.92777 0.74977 0.90830
 C903 C 0.90343 0.75028 0.89011
 C904 C 0.88317 0.75066 0.87391
 C905 C 0.86008 0.75099 0.85416
 C906 C 0.84091 0.75113 0.83666
 C907 C 0.44606 0.24910 0.42322
 C908 C 0.42475 0.24968 0.40838
 C909 C 0.40043 0.25034 0.39013
 C910 C 0.38022 0.25085 0.37384
 C911 C 0.35718 0.25131 0.35399
 C912 C 0.33807 0.25155 0.33642
 C913 C 0.05173 0.74952 0.07843
 C914 C 0.07322 0.74997 0.09298
 C915 C 0.09797 0.75052 0.11061
 C916 C 0.11864 0.75095 0.12629
 C917 C 0.14221 0.75137 0.14548
 C918 C 0.16167 0.75160 0.16264
 C919 C 0.55200 0.24867 0.57824
 C920 C 0.57358 0.24900 0.59270
 C921 C 0.59838 0.24943 0.61031
 C922 C 0.61906 0.24979 0.62600
 C923 C 0.64264 0.25015 0.64521
 C924 C 0.66212 0.25037 0.66239
 C925 C 0.92134 0.24967 0.05218
 C926 C 0.90661 0.24901 0.07353
 C927 C 0.88864 0.24825 0.09802
 C928 C 0.87263 0.24767 0.11843
 C929 C 0.85308 0.24711 0.14168
 C930 C 0.83566 0.24681 0.16091
 C931 C 0.42250 0.75014 0.55391
 C932 C 0.40787 0.74969 0.57536
 C933 C 0.38992 0.74915 0.59991
 C934 C 0.37390 0.74875 0.62033
 C935 C 0.35431 0.74838 0.64359
 C936 C 0.33686 0.74821 0.66282
 C937 C 0.25124 0.07725 0.94855
 C938 C 0.25082 0.09205 0.92723
 C939 C 0.25029 0.11022 0.90287
 C940 C 0.24985 0.12641 0.88261
 C941 C 0.24939 0.14616 0.85952
 C942 C 0.24908 0.16368 0.84038
 C943 C 0.75271 0.57644 0.44676
 C944 C 0.75226 0.59118 0.42544
 C945 C 0.75168 0.60924 0.40105
 C946 C 0.75120 0.62535 0.38076
 C947 C 0.75068 0.64502 0.35766
 C948 C 0.75033 0.66251 0.33854
 C949 C 0.74728 0.05055 0.07644
 C950 C 0.74748 0.07201 0.09104
 C951 C 0.74778 0.09660 0.10886
 C952 C 0.74805 0.11710 0.12475
 C953 C 0.74835 0.14044 0.14419
 C954 C 0.74854 0.15975 0.16151
 C955 C 0.24741 0.55243 0.57772
 C956 C 0.24779 0.57382 0.59243
 C957 C 0.24826 0.59835 0.61039
 C958 C 0.24866 0.61879 0.62639
 C959 C 0.24907 0.64210 0.64592
 C960 C 0.24936 0.66139 0.66329
 C961 C 0.74932 0.94689 0.92184
 C962 C 0.75000 0.92548 0.90719
 C963 C 0.75083 0.90094 0.88931
 C964 C 0.75150 0.88048 0.87338
 C965 C 0.75220 0.85717 0.85390
 C966 C 0.75269 0.83788 0.83656
 C967 C 0.24764 0.44733 0.42211
 C968 C 0.24809 0.42595 0.40737
 C969 C 0.24864 0.40146 0.38935
 C970 C 0.24911 0.38105 0.37331
 C971 C 0.24962 0.35778 0.35373
 C972 C 0.24999 0.33851 0.33633
 C973 C 0.25052 0.92258 0.05203
 C974 C 0.25006 0.90796 0.07346
 C975 C 0.24954 0.89013 0.09807
 C976 C 0.24916 0.87427 0.11859
 C977 C 0.24885 0.85488 0.14199
 C978 C 0.24873 0.83762 0.16135
 C979 C 0.75080 0.42113 0.55156
 C980 C 0.75029 0.40658 0.57302
 C981 C 0.74972 0.38887 0.59765
 C982 C 0.74932 0.37309 0.61821
 C983 C 0.74900 0.35379 0.64163
 C984 C 0.74892 0.33658 0.66101
 C985 C 0.05206 0.07856 0.74888
 C986 C 0.07346 0.09325 0.74957
 C987 C 0.09802 0.11115 0.75041
 C988 C 0.11850 0.12709 0.75109
 C989 C 0.14185 0.14655 0.75181
 C990 C 0.16117 0.16387 0.75230
 C991 C 0.55320 0.57777 0.24746
 C992 C 0.57469 0.59230 0.24809
 C993 C 0.59931 0.61009 0.24887
 C994 C 0.61981 0.62598 0.24951
 C995 C 0.64314 0.64543 0.25020
 C996 C 0.66243 0.66277 0.25067
 C997 C 0.07911 0.94928 0.25137
 C998 C 0.09379 0.92790 0.25092
 C999 C 0.11156 0.90330 0.25036
 C1000 C 0.12734 0.88274 0.24991
 C1001 C 0.14661 0.85928 0.24946
 C1002 C 0.16380 0.83987 0.24919
 C1003 C 0.57865 0.44792 0.75144
 C1004 C 0.59331 0.42649 0.75092
 C1005 C 0.61122 0.40192 0.75029
 C1006 C 0.62716 0.38144 0.74978
 C1007 C 0.64663 0.35808 0.74927
 C1008 C 0.66397 0.33875 0.74896
 C1009 C 0.92235 0.05220 0.25157
 C1010 C 0.90736 0.07335 0.25098
 C1011 C 0.88908 0.09757 0.25026
 C1012 C 0.87283 0.11776 0.24967
 C1013 C 0.85305 0.14079 0.24906
 C1014 C 0.83553 0.15990 0.24867
 C1015 C 0.42308 0.55313 0.75273
 C1016 C 0.40820 0.57440 0.75231
 C1017 C 0.38996 0.59873 0.75177
 C1018 C 0.37371 0.61897 0.75132
 C1019 C 0.35393 0.64207 0.75085
 C1020 C 0.33642 0.66125 0.75054
 C1021 C 0.94916 0.92348 0.74795
 C1022 C 0.92785 0.90866 0.74828
 C1023 C 0.90345 0.89056 0.74871
 C1024 C 0.88313 0.87443 0.74908
 C1025 C 0.85996 0.85476 0.74945
 C1026 C 0.84078 0.83729 0.74968
 C1027 C 0.44684 0.42332 0.24705
 C1028 C 0.42538 0.40876 0.24752
 C1029 C 0.40083 0.39088 0.24811
 C1030 C 0.38041 0.37491 0.24859
 C1031 C 0.35717 0.35535 0.24907
 C1032 C 0.33796 0.33793 0.24936
   
