data_POSCAR
  _audit_creation_date              2014-09-24
  _audit_creation_method            'ToBaCCo'
  _symmetry_space_group_name_H-M    'P1'
  _symmetry_Int_Tables_number       1
  _symmetry_cell_setting            triclinic
  loop_
  _symmetry_equiv_pos_as_xyz
 x,y,z
_cell_length_a 36.1518
_cell_length_b 36.3197
_cell_length_c 47.8998
_cell_angle_alpha 92.240000
_cell_angle_beta 90.104600
_cell_angle_gamma 90.996800
loop_
  _atom_site_label
  _atom_site_type_symbol
  _atom_site_fract_x
  _atom_site_fract_y
  _atom_site_fract_z
C1 C -0.01392 0.50598 0.98655
 C2 C -0.01400 0.50583 1.01504
 C3 C -0.01206 0.54058 1.03252
 C4 C -0.01580 0.47091 1.03023
 C5 C -0.01195 0.47133 0.96905
 C6 C -0.01590 0.54083 0.97138
 C7 C 0.01605 0.56688 1.02873
 C8 C 0.01729 0.59963 1.04504
 C9 C -0.00932 0.60705 1.06621
 C10 C -0.03704 0.57952 1.07003
 C11 C -0.03826 0.54700 1.05349
 C12 C 0.01077 0.46429 1.05074
 C13 C 0.00997 0.43132 1.06480
 C14 C -0.01751 0.40435 1.05868
 C15 C -0.04452 0.41129 1.03849
 C16 C -0.04387 0.44442 1.02458
 C17 C -0.03827 0.46406 0.94790
 C18 C -0.03728 0.43134 0.93164
 C19 C -0.00989 0.40525 0.93620
 C20 C 0.01689 0.41285 0.95704
 C21 C 0.01609 0.44576 0.97314
 C22 C -0.04448 0.56584 0.97662
 C23 C -0.04564 0.59875 0.96248
 C24 C -0.01848 0.60707 0.94259
 C25 C 0.00962 0.58155 0.93699
 C26 C 0.01082 0.54874 0.95118
 H27 H 0.03734 0.56191 1.01323
 H28 H 0.04062 0.61786 1.04162
 H29 H -0.05949 0.58331 1.08464
 H30 H -0.06031 0.52704 1.05670
 H31 H 0.03255 0.48442 1.05550
 H32 H 0.03130 0.42661 1.08008
 H33 H -0.06516 0.44935 1.00930
 H34 H -0.06001 0.48349 0.94431
 H35 H -0.05842 0.42608 0.91587
 H36 H 0.03865 0.39348 0.96068
 H37 H 0.03723 0.45123 0.98887
 H38 H -0.06577 0.55995 0.99177
 H39 H -0.06751 0.61792 0.96742
 H40 H 0.03054 0.58680 0.92142
 H41 H 0.03288 0.52962 0.94663
 H42 H -0.06637 0.39125 1.03369
 C43 C 0.50471 -0.01513 0.48469
 C44 C 0.50428 -0.01615 0.51312
 C45 C 0.46921 -0.01386 0.52914
 C46 C 0.53881 -0.01940 0.52964
 C47 C 0.53986 -0.01431 0.46867
 C48 C 0.46997 -0.01472 0.46809
 C49 C 0.44545 0.01597 0.52645
 C50 C 0.41203 0.01721 0.54105
 C51 C 0.40191 -0.01120 0.55881
 C52 C 0.42619 -0.04063 0.56187
 C53 C 0.45958 -0.04183 0.54727
 C54 C 0.54718 0.00687 0.55106
 C55 C 0.58004 0.00490 0.56625
 C56 C 0.60508 -0.02358 0.56047
 C57 C 0.59619 -0.05041 0.53944
 C58 C 0.56327 -0.04843 0.52425
 C59 C 0.54553 -0.04052 0.44689
 C60 C 0.57840 -0.04029 0.43165
 C61 C 0.60628 -0.01371 0.43781
 C62 C 0.60028 0.01293 0.45937
 C63 C 0.56728 0.01276 0.47454
 C64 C 0.44269 -0.04240 0.47050
 C65 C 0.41002 -0.04140 0.45492
 C66 C 0.40419 -0.01290 0.43644
 C67 C 0.43190 0.01436 0.43372
 C68 C 0.46450 0.01337 0.44933
 H69 H 0.45277 0.03820 0.51297
 H70 H 0.39426 0.04057 0.53864
 H71 H 0.41903 -0.06314 0.57512
 H72 H 0.47761 -0.06502 0.54966
 H73 H 0.52850 0.02927 0.55571
 H74 H 0.58574 0.02556 0.58267
 H75 H 0.55700 -0.06934 0.50812
 H76 H 0.52454 -0.06138 0.44183
 H77 H 0.58182 -0.06072 0.41483
 H78 H 0.62127 0.03364 0.46473
 H79 H 0.56316 0.03369 0.49091
 H80 H 0.44668 -0.06470 0.48451
 H81 H 0.38912 -0.06268 0.45760
 H82 H 0.42856 0.03627 0.41928
 H83 H 0.48538 0.03477 0.44697
 H84 H 0.61498 -0.07258 0.53442
 C85 C 0.08152 0.02206 0.25887
 H86 H 0.08274 0.02318 0.23636
 C87 C 0.11416 0.02276 0.27452
 H88 H 0.14047 0.02478 0.26388
 C89 C 0.04556 0.01880 0.30004
 H90 H 0.01881 0.01758 0.30996
 C91 C 0.07750 0.01948 0.31650
 H92 H 0.07489 0.01802 0.33894
 N93 N 0.04813 0.01940 0.27173
 C94 C -0.02465 -0.03340 0.20868
 H95 H -0.04682 -0.01380 0.20813
 C96 C -0.02650 -0.06566 0.19183
 H97 H -0.05030 -0.07081 0.17839
 C98 C 0.03268 -0.05103 0.22763
 H99 H 0.05544 -0.04560 0.24188
 C100 C 0.03186 -0.08368 0.21127
 H101 H 0.05451 -0.10263 0.21272
 Zn102 Zn 0.00534 0.01729 0.24878
 N103 N 0.00487 -0.02646 0.22585
 C104 C 0.00383 0.05723 0.19859
 N105 N 0.00638 0.05965 0.22695
 C106 C 0.01020 0.09283 0.24090
 C107 C 0.01053 0.12540 0.22638
 C108 C 0.00379 0.08916 0.18323
 C109 C -0.04405 -0.01274 0.28717
 C110 C -0.07557 -0.01456 0.30390
 C111 C -0.09478 0.04346 0.28614
 C112 C -0.06285 0.04422 0.26982
 N113 N -0.03801 0.01661 0.27090
 H114 H 0.00173 0.03063 0.18779
 H115 H 0.01253 0.09393 0.26344
 H116 H 0.01278 0.15157 0.23793
 H117 H 0.00162 0.08678 0.16068
 H118 H -0.02411 -0.03460 0.28731
 H119 H -0.07938 -0.03774 0.31720
 H120 H -0.11435 0.06554 0.28477
 H121 H -0.05815 0.06680 0.25618
 C122 C 0.00203 -0.09131 0.19302
 C123 C 0.11241 0.02111 0.30374
 C124 C -0.10139 0.01389 0.30362
 C125 C 0.00698 0.12381 0.19717
 C126 C -0.00139 0.06989 0.76319
 H127 H -0.00227 0.07085 0.74066
 C128 C -0.00282 0.10248 0.77956
 H129 H -0.00445 0.12855 0.76945
 C130 C 0.00236 0.03463 0.80366
 H131 H 0.00382 0.00814 0.81303
 C132 C 0.00121 0.06657 0.82083
 H133 H 0.00183 0.06429 0.84329
 N134 N 0.00172 0.03689 0.77538
 C135 C 0.05696 -0.03459 0.71381
 H136 H 0.03737 -0.05740 0.71186
 C137 C 0.09020 -0.03582 0.69899
 H138 H 0.09608 -0.05984 0.68575
 C139 C 0.07361 0.02376 0.73437
 H140 H 0.06738 0.04671 0.74847
 C141 C 0.10714 0.02367 0.71997
 H142 H 0.12597 0.04704 0.72276
 Zn143 Zn 0.00440 -0.00570 0.75138
 N144 N 0.04918 -0.00497 0.73091
 C145 C -0.03316 -0.00702 0.69889
 N146 N -0.03703 -0.00559 0.72715
 C147 C -0.07095 -0.00321 0.73923
 C148 C -0.10283 -0.00326 0.72276
 C149 C -0.06435 -0.00710 0.68160
 C150 C 0.03234 -0.05451 0.78992
 C151 C 0.03303 -0.08598 0.80575
 C152 C -0.02461 -0.10624 0.78414
 C153 C -0.02425 -0.07436 0.76880
 N154 N 0.00368 -0.04899 0.77222
 H155 H -0.00596 -0.00818 0.68966
 H156 H -0.07318 -0.00146 0.76176
 H157 H -0.12955 -0.00118 0.73281
 H158 H -0.06077 -0.00896 0.65916
 H159 H 0.05453 -0.03420 0.79190
 H160 H 0.05566 -0.08941 0.82020
 H161 H -0.04694 -0.12621 0.78091
 H162 H -0.04620 -0.07013 0.75402
 C163 C 0.11585 -0.00641 0.70202
 C164 C -0.00116 0.10108 0.80879
 C165 C 0.00416 -0.11229 0.80308
 C166 C -0.09980 -0.00545 0.69352
 C167 C -0.02646 -0.35775 0.10849
 C168 C -0.02543 -0.32497 0.12474
 C169 C -0.00687 -0.29368 0.11545
 C170 C 0.01156 -0.29601 0.08971
 C171 C 0.01089 -0.32881 0.07343
 C172 C -0.00833 -0.36073 0.08225
 C173 C -0.00612 -0.25971 0.13363
 C174 C -0.00184 -0.22578 0.12387
 C175 C -0.00128 -0.19192 0.14219
 C176 C -0.01154 -0.15845 0.13098
 C177 C -0.01085 -0.12585 0.14752
 C178 C 0.00063 -0.12598 0.17555
 C179 C 0.01128 -0.15942 0.18671
 C180 C 0.01042 -0.19202 0.17023
 H181 H -0.04001 -0.38102 0.11773
 H182 H -0.03922 -0.32412 0.14482
 H183 H 0.02692 -0.27264 0.08210
 H184 H 0.02424 -0.32787 0.05332
 H185 H -0.01120 -0.26288 0.15568
 H186 H -0.00051 -0.22230 0.10155
 H187 H -0.02026 -0.15755 0.10937
 H188 H -0.01869 -0.10041 0.13823
 H189 H 0.02011 -0.16041 0.20827
 H190 H 0.01961 -0.21703 0.17941
 C191 C -0.02430 0.33546 0.05831
 C192 C -0.02348 0.30213 0.07193
 C193 C -0.01594 0.30157 0.10067
 C194 C -0.01024 0.33530 0.11572
 C195 C -0.01090 0.36859 0.10207
 C196 C -0.01772 0.36902 0.07321
 C197 C -0.01522 0.26548 0.11421
 C198 C 0.00213 0.26026 0.13852
 C199 C 0.00320 0.22441 0.15240
 C200 C 0.02894 0.22040 0.17402
 C201 C 0.03042 0.18770 0.18837
 C202 C 0.00613 0.15816 0.18142
 C203 C -0.01961 0.16200 0.15977
 C204 C -0.02128 0.19480 0.14552
 H205 H -0.02941 0.33493 0.03601
 H206 H -0.02831 0.27663 0.05987
 H207 H -0.00586 0.33635 0.13806
 H208 H -0.00654 0.39411 0.11418
 H209 H -0.02807 0.24233 0.10287
 H210 H 0.01760 0.28290 0.14849
 H211 H 0.04801 0.24272 0.17989
 H212 H 0.05075 0.18543 0.20481
 H213 H -0.03915 0.13991 0.15434
 H214 H -0.04236 0.19688 0.12967
 C215 C 0.33381 0.00122 0.56064
 C216 C 0.29996 0.00139 0.57470
 C217 C 0.29754 -0.00974 0.60238
 C218 C 0.32977 -0.02168 0.61561
 C219 C 0.36362 -0.02180 0.60156
 C220 C 0.36604 -0.01037 0.57391
 C221 C 0.26087 -0.00966 0.61628
 C222 C 0.25654 -0.00862 0.64413
 C223 C 0.21997 -0.00821 0.65814
 C224 C 0.21807 0.00503 0.68601
 C225 C 0.18436 0.00565 0.70020
 C226 C 0.15169 -0.00725 0.68689
 C227 C 0.15360 -0.02103 0.65911
 C228 C 0.18736 -0.02163 0.64488
 H229 H 0.33461 0.00956 0.53919
 H230 H 0.27553 0.01028 0.56388
 H231 H 0.32903 -0.03159 0.63659
 H232 H 0.38797 -0.03074 0.61241
 H233 H 0.23678 -0.00868 0.60291
 H234 H 0.28067 -0.00612 0.65750
 H235 H 0.24280 0.01508 0.69685
 H236 H 0.18396 0.01577 0.72176
 H237 H 0.12891 -0.03107 0.64825
 H238 H 0.18772 -0.03314 0.62373
 C239 C -0.34631 -0.05881 0.58516
 C240 C -0.31339 -0.06000 0.60045
 C241 C -0.29286 -0.02762 0.60695
 C242 C -0.30626 0.00619 0.59813
 C243 C -0.33918 0.00737 0.58288
 C244 C -0.35962 -0.02508 0.57627
 C245 C -0.25874 -0.03002 0.62400
 C246 C -0.23147 -0.00444 0.62434
 C247 C -0.19784 -0.00623 0.64201
 C248 C -0.16613 0.01392 0.63454
 C249 C -0.13422 0.01394 0.65106
 C250 C -0.13343 -0.00595 0.67563
 C251 C -0.16523 -0.02599 0.68321
 C252 C -0.19712 -0.02605 0.66667
 H253 H -0.36170 -0.08422 0.58076
 H254 H -0.30395 -0.08634 0.60727
 H255 H -0.29197 0.03193 0.60340
 H256 H -0.34859 0.03376 0.57617
 H257 H -0.25565 -0.05453 0.63587
 H258 H -0.23293 0.01825 0.61042
 H259 H -0.16607 0.02979 0.61585
 H260 H -0.11038 0.03012 0.64489
 H261 H -0.16543 -0.04177 0.70193
 H262 H -0.22126 -0.04103 0.67368
 C263 C -0.05310 -0.34365 0.91866
 C264 C -0.05379 -0.31084 0.90437
 C265 C -0.02083 -0.29169 0.89851
 C266 C 0.01289 -0.30551 0.90797
 C267 C 0.01356 -0.33825 0.92233
 C268 C -0.01938 -0.35784 0.92768
 C269 C -0.02288 -0.25710 0.88317
 C270 C 0.00492 -0.24439 0.86745
 C271 C 0.00353 -0.21016 0.85146
 C272 C 0.03666 -0.19627 0.84038
 C273 C 0.03696 -0.16451 0.82482
 C274 C 0.00401 -0.14588 0.81985
 C275 C -0.02921 -0.15976 0.83083
 C276 C -0.02955 -0.19156 0.84635
 H277 H -0.07894 -0.35821 0.92225
 H278 H -0.08014 -0.30065 0.89751
 H279 H 0.03875 -0.29084 0.90485
 H280 H 0.03989 -0.34796 0.92962
 H281 H -0.04867 -0.24258 0.88456
 H282 H 0.03024 -0.25980 0.86594
 H283 H 0.06251 -0.21010 0.84374
 H284 H 0.06294 -0.15490 0.81629
 H285 H -0.05504 -0.14587 0.82758
 H286 H -0.05594 -0.20142 0.85381
 C287 C -0.01565 0.36970 0.89044
 C288 C -0.01606 0.33650 0.87470
 C289 C -0.01036 0.30290 0.88749
 C290 C -0.00449 0.30330 0.91660
 C291 C -0.00384 0.33659 0.93230
 C292 C -0.00952 0.37009 0.91940
 C293 C -0.01195 0.26840 0.86977
 C294 C 0.00057 0.23583 0.87775
 C295 C -0.00085 0.20163 0.85971
 C296 C 0.02263 0.17270 0.86603
 C297 C 0.02238 0.14001 0.84965
 C298 C -0.00150 0.13546 0.82656
 C299 C -0.02547 0.16410 0.82044
 C300 C -0.02537 0.19673 0.83691
 H301 H -0.01987 0.39515 0.87992
 H302 H -0.02082 0.33708 0.85239
 H303 H -0.00117 0.27816 0.92759
 H304 H 0.00023 0.33605 0.95469
 H305 H -0.02265 0.27063 0.84881
 H306 H 0.01410 0.23408 0.89778
 H307 H 0.04157 0.17555 0.88357
 H308 H 0.04135 0.11852 0.85475
 H309 H -0.04473 0.16103 0.80313
 H310 H -0.04498 0.21761 0.83188
 C311 C -0.34194 -0.04713 0.41355
 C312 C -0.30947 -0.04726 0.39779
 C313 C -0.29269 -0.01409 0.39005
 C314 C -0.30941 0.01939 0.39809
 C315 C -0.34199 0.01951 0.41377
 C316 C -0.35867 -0.01374 0.42165
 C317 C -0.25883 -0.01569 0.37266
 C318 C -0.23346 0.01172 0.37226
 C319 C -0.19965 0.01093 0.35464
 C320 C -0.18012 0.04416 0.35106
 C321 C -0.14829 0.04512 0.33460
 C322 C -0.13507 0.01277 0.32135
 C323 C -0.15426 -0.02062 0.32520
 C324 C -0.18607 -0.02163 0.34172
 H325 H -0.35383 -0.07321 0.41955
 H326 H -0.29727 -0.07341 0.39175
 H327 H -0.29810 0.04550 0.39170
 H328 H -0.35462 0.04565 0.41916
 H329 H -0.25495 -0.04072 0.36017
 H330 H -0.23757 0.03635 0.38526
 H331 H -0.18964 0.06960 0.36096
 H332 H -0.13378 0.07120 0.33251
 H333 H -0.14493 -0.04602 0.31516
 H334 H -0.19940 -0.04809 0.34438
 C335 C 0.35357 -0.04400 0.40777
 C336 C 0.32124 -0.04262 0.39182
 C337 C 0.30387 -0.00895 0.38784
 C338 C 0.31988 0.02354 0.39989
 C339 C 0.35220 0.02215 0.41584
 C340 C 0.36945 -0.01161 0.41993
 C341 C 0.27013 -0.00877 0.37016
 C342 C 0.24532 0.01831 0.37141
 C343 C 0.21167 0.01837 0.35364
 C344 C 0.18144 0.03938 0.36270
 C345 C 0.14927 0.04036 0.34653
 C346 C 0.14676 0.02059 0.32077
 C347 C 0.17726 0.00004 0.31146
 C348 C 0.20941 -0.00098 0.32763
 H349 H 0.36652 -0.07036 0.41015
 H350 H 0.30977 -0.06799 0.38252
 H351 H 0.30809 0.05020 0.39669
 H352 H 0.36364 0.04756 0.42506
 H353 H 0.26498 -0.03276 0.35652
 H354 H 0.24855 0.04060 0.38692
 H355 H 0.18262 0.05494 0.38245
 H356 H 0.12649 0.05694 0.35407
 H357 H 0.17613 -0.01563 0.29177
 H358 H 0.23248 -0.01653 0.31944
   
