data_POSCAR
  _audit_creation_date              2014-09-24
  _audit_creation_method            'ToBaCCo'
  _symmetry_space_group_name_H-M    'P1'
  _symmetry_Int_Tables_number       1
  _symmetry_cell_setting            triclinic
  loop_
  _symmetry_equiv_pos_as_xyz
 x,y,z
_cell_length_a 33.9438
_cell_length_b 29.4599
_cell_length_c 15.5229
_cell_angle_alpha 90.150200
_cell_angle_beta 88.811400
_cell_angle_gamma 90.113700
loop_
  _atom_site_label
  _atom_site_type_symbol
  _atom_site_fract_x
  _atom_site_fract_y
  _atom_site_fract_z
C1 C 0.24217 0.27219 0.28594
 C2 C 0.23871 0.22640 0.29014
 C3 C 0.20162 0.20336 0.26799
 C4 C 0.27269 0.19700 0.30856
 C5 C 0.27483 0.29647 0.32872
 C6 C 0.21419 0.29851 0.23396
 C7 C 0.16967 0.20456 0.32621
 C8 C 0.13550 0.17993 0.30967
 C9 C 0.13227 0.15409 0.23351
 C10 C 0.16410 0.15483 0.17342
 C11 C 0.19865 0.17862 0.19132
 C12 C 0.27355 0.17098 0.38409
 C13 C 0.30384 0.13956 0.39598
 C14 C 0.33244 0.13252 0.33071
 C15 C 0.33162 0.15879 0.25562
 C16 C 0.30228 0.19131 0.24520
 C17 C 0.29705 0.32982 0.28517
 C18 C 0.32794 0.35209 0.32651
 C19 C 0.33707 0.34140 0.41213
 C20 C 0.31409 0.30878 0.45593
 C21 C 0.28321 0.28685 0.41489
 C22 C 0.21397 0.29191 0.14467
 C23 C 0.18666 0.31427 0.09431
 C24 C 0.15867 0.34386 0.13204
 C25 C 0.15946 0.35095 0.22200
 C26 C 0.18717 0.32859 0.27245
 H27 H 0.17159 0.22376 0.38561
 H28 H 0.11168 0.18176 0.35678
 H29 H 0.16341 0.13546 0.11421
 H30 H 0.22323 0.17751 0.14578
 H31 H 0.25056 0.17463 0.43302
 H32 H 0.30394 0.11936 0.45418
 H33 H 0.30164 0.21077 0.18613
 H34 H 0.29096 0.33805 0.21879
 H35 H 0.34511 0.37697 0.29082
 H36 H 0.31954 0.30040 0.52240
 H37 H 0.26561 0.26242 0.45076
 H38 H 0.23489 0.26898 0.11395
 H39 H 0.18778 0.30774 0.02588
 H40 H 0.13865 0.37345 0.25389
 H41 H 0.18697 0.33391 0.34155
 H42 H 0.35351 0.15382 0.20474
 C43 C 0.72905 0.22520 0.14151
 C44 C 0.72853 0.27110 0.14980
 C45 C 0.76227 0.29891 0.11870
 C46 C 0.69331 0.29626 0.18063
 C47 C 0.69536 0.19606 0.16849
 C48 C 0.76386 0.20168 0.10329
 C49 C 0.79860 0.29790 0.16025
 C50 C 0.83106 0.32135 0.12528
 C51 C 0.82768 0.34523 0.04754
 C52 C 0.79110 0.34672 0.00715
 C53 C 0.75855 0.32423 0.04307
 C54 C 0.69624 0.32549 0.25158
 C55 C 0.66476 0.35356 0.27545
 C56 C 0.63010 0.35357 0.22753
 C57 C 0.62696 0.32364 0.15731
 C58 C 0.65829 0.29503 0.13426
 C59 C 0.67949 0.16575 0.10878
 C60 C 0.65040 0.13481 0.13409
 C61 C 0.63690 0.13291 0.22023
 C62 C 0.65191 0.16443 0.27961
 C63 C 0.68098 0.19572 0.25392
 C64 C 0.77546 0.20912 0.01723
 C65 C 0.80927 0.18831 -0.01702
 C66 C 0.83177 0.15913 0.03388
 C67 C 0.81942 0.15097 0.11955
 C68 C 0.78571 0.17199 0.15379
 H69 H 0.80188 0.27834 0.21864
 H70 H 0.85904 0.31968 0.15740
 H71 H 0.78763 0.36538 -0.05220
 H72 H 0.73072 0.32520 0.01022
 H73 H 0.72325 0.32716 0.28745
 H74 H 0.66816 0.37648 0.32940
 H75 H 0.65577 0.27307 0.07857
 H76 H 0.69003 0.16569 0.04243
 H77 H 0.63890 0.11215 0.08583
 H78 H 0.64228 0.16399 0.34647
 H79 H 0.69321 0.21858 0.30120
 H80 H 0.75841 0.23129 -0.02314
 H81 H 0.81745 0.19486 -0.08354
 H82 H 0.83615 0.12906 0.16092
 H83 H 0.77706 0.16584 0.22032
 H84 H 0.60045 0.32255 0.11977
 C85 C 0.76277 0.77618 0.71171
 C86 C 0.75840 0.73026 0.71506
 C87 C 0.72720 0.70616 0.66686
 C88 C 0.78451 0.70319 0.77097
 C89 C 0.80030 0.79730 0.73830
 C90 C 0.73137 0.80767 0.68239
 C91 C 0.70435 0.67230 0.70721
 C92 C 0.67391 0.65096 0.66316
 C93 C 0.66573 0.66301 0.57775
 C94 C 0.68945 0.69596 0.53669
 C95 C 0.72004 0.71703 0.58052
 C96 C 0.78697 0.71421 0.85864
 C97 C 0.81298 0.69128 0.91145
 C98 C 0.83692 0.65630 0.87798
 C99 C 0.83364 0.64442 0.79044
 C100 C 0.80749 0.66756 0.73743
 C101 C 0.83482 0.78917 0.68994
 C102 C 0.86935 0.81282 0.70787
 C103 C 0.87026 0.84470 0.77571
 C104 C 0.83568 0.85111 0.82642
 C105 C 0.80093 0.82817 0.80693
 C106 C 0.74201 0.84766 0.63823
 C107 C 0.71399 0.88088 0.62172
 C108 C 0.67455 0.87432 0.64675
 C109 C 0.66323 0.83371 0.68719
 C110 C 0.69155 0.80104 0.70657
 H111 H 0.70938 0.66321 0.77364
 H112 H 0.65620 0.62586 0.69694
 H113 H 0.68463 0.70545 0.47051
 H114 H 0.73795 0.74218 0.54720
 H115 H 0.76900 0.74121 0.88588
 H116 H 0.81474 0.70182 0.97805
 H117 H 0.80579 0.65834 0.66998
 H118 H 0.83465 0.76549 0.63646
 H119 H 0.89518 0.80555 0.66841
 H120 H 0.83454 0.87541 0.87872
 H121 H 0.77433 0.83498 0.84448
 H122 H 0.77235 0.85396 0.61886
 H123 H 0.72319 0.91200 0.59012
 H124 H 0.63290 0.82839 0.70785
 H125 H 0.68251 0.77153 0.74340
 H126 H 0.85114 0.61718 0.76286
 C127 C 0.26854 0.72608 0.85647
 C128 C 0.26806 0.77214 0.85395
 C129 C 0.30241 0.79903 0.82410
 C130 C 0.23497 0.79814 0.89299
 C131 C 0.23487 0.70065 0.89518
 C132 C 0.30337 0.69932 0.82764
 C133 C 0.33045 0.81315 0.88351
 C134 C 0.36014 0.84367 0.85887
 C135 C 0.36243 0.86023 0.77410
 C136 C 0.33501 0.84478 0.71393
 C137 C 0.30492 0.81480 0.73909
 C138 C 0.23161 0.80229 0.98268
 C139 C 0.19951 0.82468 1.02068
 C140 C 0.17077 0.84527 0.96958
 C141 C 0.17551 0.84287 0.87902
 C142 C 0.20712 0.81911 0.84122
 C143 C 0.20471 0.68405 0.84353
 C144 C 0.17214 0.66176 0.88100
 C145 C 0.16879 0.65632 0.97125
 C146 C 0.19972 0.67281 1.02208
 C147 C 0.23246 0.69412 0.98437
 C148 C 0.31622 0.69908 0.74107
 C149 C 0.34808 0.67186 0.71456
 C150 C 0.36752 0.64429 0.77415
 C151 C 0.35431 0.64467 0.86063
 C152 C 0.32271 0.67188 0.88696
 H153 H 0.32862 0.80150 0.94958
 H154 H 0.38108 0.85458 0.90638
 H155 H 0.33583 0.85730 0.64843
 H156 H 0.28303 0.80475 0.69291
 H157 H 0.25379 0.78780 1.02345
 H158 H 0.19821 0.82674 1.09020
 H159 H 0.20961 0.81662 0.77168
 H160 H 0.20620 0.68881 0.77436
 H161 H 0.14922 0.65005 0.83900
 H162 H 0.19960 0.66872 1.09115
 H163 H 0.25577 0.70611 1.02526
 H164 H 0.30123 0.71930 0.69374
 H165 H 0.35734 0.67241 0.64743
 H166 H 0.36769 0.62329 0.90830
 H167 H 0.31330 0.67130 0.95401
 H168 H 0.15418 0.85780 0.83682
 O169 O 1.02456 -0.05546 0.07254
 O170 O 0.94597 0.02909 0.04522
 O171 O 0.95921 -0.05212 -0.01431
 O172 O 1.00932 0.02513 0.13358
 O173 O 1.04487 0.05236 0.02471
 O174 O 0.99262 -0.02279 -0.12455
 O175 O 0.97998 0.05907 -0.06345
 O176 O 1.05686 -0.02755 -0.04056
 Cu177 Cu 0.98139 -0.01652 0.07020
 Cu178 Cu 1.02176 0.01852 -0.06201
 C179 C 1.05393 -0.05599 0.02040
 C180 C 0.94993 0.05884 -0.01334
 C181 C 0.96737 -0.05065 -0.09439
 C182 C 1.03591 0.05162 0.10460
 O183 O 0.54435 0.45343 0.46072
 O184 O 0.48887 0.51704 0.62676
 O185 O 0.47786 0.44124 0.54328
 O186 O 0.55512 0.52904 0.54440
 O187 O 0.52403 0.56615 0.44278
 O188 O 0.44644 0.47830 0.44207
 O189 O 0.45708 0.55421 0.52629
 O190 O 0.51259 0.49001 0.35938
 Cu191 Cu 0.51964 0.48143 0.55399
 Cu192 Cu 0.48197 0.52608 0.43255
 C193 C 0.53761 0.46053 0.38177
 C194 C 0.46372 0.54648 0.60513
 C195 C 0.44927 0.44453 0.49217
 C196 C 0.55260 0.56268 0.49394
 O197 O -0.04525 0.54488 0.06694
 O198 O 0.03189 0.45813 0.08934
 O199 O 0.03102 0.54601 0.08887
 O200 O -0.04447 0.45704 0.06810
 O201 O -0.03544 0.45777 -0.07324
 O202 O 0.04120 0.54565 -0.05211
 O203 O 0.04059 0.45735 -0.05207
 O204 O -0.03543 0.54537 -0.07418
 Cu205 Cu -0.00763 0.50161 0.09243
 Cu206 Cu 0.00380 0.50160 -0.07705
 C207 C -0.05394 0.55929 -0.00732
 C208 C 0.04949 0.44315 0.02219
 C209 C 0.04945 0.56037 0.02236
 C210 C -0.05329 0.44288 -0.00638
 O211 O 0.52905 0.99338 0.37759
 O212 O 0.46372 0.94110 0.54116
 O213 O 0.45390 0.99206 0.40502
 O214 O 0.53988 0.94417 0.51320
 O215 O 0.54580 1.00775 0.58774
 O216 O 0.45644 1.05258 0.48908
 O217 O 0.47057 1.00155 0.62400
 O218 O 0.53185 1.05650 0.45453
 Cu219 Cu 0.49598 0.96132 0.45163
 Cu220 Cu 0.50123 1.03577 0.54734
 C221 C 0.54140 1.03371 0.38770
 C222 C 0.45665 0.96209 0.61121
 C223 C 0.44083 1.03066 0.42808
 C224 C 0.55818 0.96855 0.56689
 N225 N 1.04529 0.08503 0.24511
 N226 N 1.07202 0.11514 0.28139
 C227 C 1.09867 0.12703 0.21944
 C228 C 1.08872 0.10574 0.14255
 C229 C 1.05551 0.07989 0.16147
 H230 H 1.10383 0.10790 0.08069
 H231 H 1.02194 0.06940 0.27851
 H232 H 1.07203 0.12336 0.34680
 N233 N 0.58424 0.63439 0.44264
 N234 N 0.61402 0.66069 0.46446
 C235 C 0.63221 0.64204 0.53228
 C236 C 0.61302 0.60188 0.55415
 C237 C 0.58286 0.59839 0.49580
 H238 H 0.61950 0.57877 0.60603
 H239 H 0.56486 0.64155 0.39311
 H240 H 0.62069 0.69158 0.43470
 N241 N -0.10013 0.39735 -0.09242
 N242 N -0.13179 0.37213 -0.07828
 C243 C -0.13794 0.36822 0.00745
 C244 C -0.10877 0.39187 0.04985
 C245 C -0.08560 0.41015 -0.01601
 H246 H -0.10611 0.39717 0.11851
 H247 H -0.08952 0.40672 -0.15350
 H248 H -0.14901 0.35830 -0.12680
 N249 N 0.43017 0.95409 0.76131
 N250 N 0.40601 0.92677 0.80446
 C251 C 0.39205 0.89514 0.74993
 C252 C 0.40836 0.90255 0.66847
 C253 C 0.43229 0.94025 0.67864
 H254 H 0.40341 0.88344 0.61001
 H255 H 0.44494 0.98162 0.78838
 H256 H 0.39862 0.93063 0.86970
 N257 N -0.10823 0.60762 0.05125
 N258 N -0.13717 0.63260 0.02141
 C259 C -0.13491 0.63264 -0.06557
 C260 C -0.10277 0.60651 -0.09186
 C261 C -0.08677 0.59133 -0.01575
 H262 H -0.09268 0.59894 -0.15691
 H263 H -0.10392 0.60114 0.11650
 H264 H -0.15856 0.64809 0.06070
 N265 N 0.39773 1.03815 0.30151
 N266 N 0.36990 1.06575 0.27500
 C267 C 0.36173 1.09608 0.33791
 C268 C 0.38557 1.08777 0.40739
 C269 C 0.40807 1.05079 0.38137
 H270 H 0.38722 1.10679 0.46695
 H271 H 0.41009 1.01198 0.26438
 H272 H 0.35682 1.06375 0.21479
 N273 N 1.09271 -0.11096 0.10514
 N274 N 1.12622 -0.13755 0.09140
 C275 C 1.13815 -0.13243 0.00829
 C276 C 1.11286 -0.10222 -0.03162
 C277 C 1.08528 -0.08957 0.03093
 H278 H 1.11457 -0.08979 -0.09712
 H279 H 1.07727 -0.10774 0.16372
 H280 H 1.13798 -0.15881 0.13791
 N281 N 0.54931 0.43240 0.23174
 N282 N 0.57305 0.40343 0.19148
 C283 C 0.59804 0.38587 0.24898
 C284 C 0.58964 0.40441 0.32947
 C285 C 0.55859 0.43365 0.31563
 H286 H 0.60388 0.39747 0.38976
 H287 H 0.52702 0.45067 0.20209
 H288 H 0.57243 0.39666 0.12547
 N289 N 0.96185 -0.09446 -0.23049
 N290 N 0.93511 -0.12494 -0.26572
 C291 C 0.90448 -0.12951 -0.20921
 C292 C 0.91163 -0.10290 -0.13685
 C293 C 0.94746 -0.08180 -0.15285
 H294 H 0.89344 -0.09905 -0.07929
 H295 H 0.98828 -0.08404 -0.25995
 H296 H 0.93825 -0.13880 -0.32738
 N297 N 0.41909 0.37229 0.54371
 N298 N 0.38969 0.34524 0.52292
 C299 C 0.37076 0.36329 0.45551
 C300 C 0.38905 0.40392 0.43287
 C301 C 0.41951 0.40825 0.49045
 H302 H 0.38165 0.42689 0.38143
 H303 H 0.43884 0.36571 0.59283
 H304 H 0.38371 0.31436 0.55335
 N305 N 0.09367 0.60834 0.10972
 N306 N 0.12751 0.63433 0.09564
 C307 C 0.13568 0.63472 0.00997
 C308 C 0.10689 0.60935 -0.03170
 C309 C 0.08168 0.59321 0.03283
 H310 H 0.10535 0.60129 -0.09955
 H311 H 0.08136 0.60075 0.17022
 H312 H 0.14249 0.65075 0.14475
 N313 N 0.57770 1.03217 0.24735
 N314 N 0.60259 1.05806 0.20323
 C315 C 0.60877 1.09679 0.24779
 C316 C 0.58653 1.09520 0.32402
 C317 C 0.56738 1.05362 0.32096
 H318 H 0.58490 1.12020 0.37510
 H319 H 0.56858 0.99994 0.22773
 H320 H 0.61586 1.04823 0.14489
 N321 N 0.09826 0.38806 -0.03732
 N322 N 0.12691 0.36221 -0.00899
 C323 C 0.12903 0.36683 0.07751
 C324 C 0.09975 0.39692 0.10493
 C325 C 0.08117 0.40959 0.03004
 H326 H 0.09330 0.40905 0.16949
 H327 H 0.09089 0.39107 -0.10205
 H328 H 0.14462 0.34232 -0.04964
 N329 N 0.62238 0.97955 0.63748
 N330 N 0.65345 0.95492 0.65650
 C331 C 0.64612 0.91134 0.63586
 C332 C 0.60885 0.90792 0.60175
 C333 C 0.59497 0.95213 0.60344
 H334 H 0.59451 0.87795 0.57675
 H335 H 0.62061 1.01471 0.64545
 H336 H 0.67917 0.96789 0.68307
 N337 N 0.92008 0.12638 -0.08307
 N338 N 0.88901 0.15279 -0.07072
 C339 C 0.86802 0.13751 -0.00185
 C340 C 0.88670 0.09957 0.03072
 C341 C 0.91948 0.09376 -0.02251
 H342 H 0.87801 0.07913 0.08574
 H343 H 0.94147 0.13113 -0.13155
 H344 H 0.88318 0.18140 -0.10783
 N345 N 0.45105 0.56924 0.75717
 N346 N 0.42621 0.59507 0.80159
 C347 C 0.40093 0.61462 0.74686
 C348 C 0.41066 0.60071 0.66334
 C349 C 0.44244 0.57180 0.67315
 H350 H 0.39608 0.60906 0.60416
 H351 H 0.47342 0.55007 0.78445
 H352 H 0.42708 0.59901 0.86833
   
