data_POSCAR
  _audit_creation_date              2014-09-24
  _audit_creation_method            'ToBaCCo'
  _symmetry_space_group_name_H-M    'P1'
  _symmetry_Int_Tables_number       1
  _symmetry_cell_setting            triclinic
  loop_
  _symmetry_equiv_pos_as_xyz
 x,y,z
_cell_length_a 27.2610
_cell_length_b 27.2611
_cell_length_c 22.9572
_cell_angle_alpha 89.937900
_cell_angle_beta 89.938100
_cell_angle_gamma 90.080800
loop_
  _atom_site_label
  _atom_site_type_symbol
  _atom_site_fract_x
  _atom_site_fract_y
  _atom_site_fract_z
O1 O -0.04745 0.31853 0.05582
 O2 O 0.04895 0.31817 -0.05750
 O3 O -0.04720 0.31825 -0.05760
 O4 O 0.04865 0.31856 0.05596
 O5 O 0.04817 0.23743 0.05604
 O6 O -0.04699 0.23712 -0.05683
 O7 O 0.04846 0.23706 -0.05672
 O8 O -0.04725 0.23740 0.05589
 Cu9 Cu 0.00076 0.32663 -0.00089
 Cu10 Cu 0.00059 0.22912 -0.00037
 C11 C -0.06383 0.27786 0.07460
 C12 C 0.06520 0.27739 -0.07586
 C13 C -0.06351 0.27747 -0.07596
 C14 C 0.06478 0.27788 0.07479
 O15 O 0.45224 0.81836 0.55747
 O16 O 0.54815 0.81823 0.44366
 O17 O 0.45202 0.81828 0.44398
 O18 O 0.54844 0.81795 0.55712
 O19 O 0.54780 0.73683 0.55681
 O20 O 0.45206 0.73715 0.44434
 O21 O 0.54755 0.73710 0.44401
 O22 O 0.45227 0.73723 0.55717
 Cu23 Cu 0.50024 0.82644 0.50057
 Cu24 Cu 0.49989 0.72896 0.50060
 C25 C 0.43583 0.77767 0.57612
 C26 C 0.56425 0.77750 0.42501
 C27 C 0.43557 0.77760 0.42543
 C28 C 0.56463 0.77718 0.57564
 O29 O 0.95183 0.68285 -0.05863
 O30 O 1.04805 0.68244 0.05474
 O31 O 0.95196 0.68245 0.05485
 O32 O 1.04803 0.68265 -0.05878
 O33 O 1.04789 0.76377 -0.05826
 O34 O 0.95247 0.76357 0.05472
 O35 O 1.04792 0.76356 0.05460
 O36 O 0.95235 0.76396 -0.05811
 Cu37 Cu 0.99995 0.67437 -0.00200
 Cu38 Cu 1.00018 0.77184 -0.00177
 C39 C 0.93559 0.72363 -0.07711
 C40 C 1.06440 0.72310 0.07348
 C41 C 0.93582 0.72313 0.07362
 C42 C 1.06442 0.72340 -0.07730
 O43 O 0.54759 0.18047 0.55749
 O44 O 0.45181 0.18028 0.44385
 O45 O 0.54789 0.18082 0.44404
 O46 O 0.45146 0.18049 0.55736
 O47 O 0.45174 0.26162 0.55697
 O48 O 0.54743 0.26194 0.44436
 O49 O 0.45203 0.26141 0.44415
 O50 O 0.54719 0.26160 0.55712
 Cu51 Cu 0.49969 0.17226 0.50070
 Cu52 Cu 0.49958 0.26977 0.50066
 C53 C 0.56378 0.22121 0.57608
 C54 C 0.43558 0.22096 0.42516
 C55 C 0.56412 0.22161 0.42543
 C56 C 0.43514 0.22118 0.57593
 O57 O 0.68147 -0.04755 0.05556
 O58 O 0.68183 0.04883 -0.05778
 O59 O 0.68180 -0.04731 -0.05785
 O60 O 0.68141 0.04853 0.05571
 O61 O 0.76254 0.04832 0.05562
 O62 O 0.76293 -0.04683 -0.05725
 O63 O 0.76295 0.04862 -0.05717
 O64 O 0.76260 -0.04708 0.05547
 Cu65 Cu 0.67338 0.00062 -0.00113
 Cu66 Cu 0.77089 0.00078 -0.00082
 C67 C 0.72214 -0.06378 0.07427
 C68 C 0.72261 0.06521 -0.07624
 C69 C 0.72259 -0.06349 -0.07629
 C70 C 0.72207 0.06477 0.07449
 O71 O 0.18145 0.45153 0.55712
 O72 O 0.18149 0.54743 0.44329
 O73 O 0.18190 0.45129 0.44364
 O74 O 0.18139 0.54770 0.55681
 O75 O 0.26251 0.54767 0.55664
 O76 O 0.26302 0.45194 0.44414
 O77 O 0.26261 0.54743 0.44378
 O78 O 0.26257 0.45214 0.55696
 Cu79 Cu 0.17332 0.49946 0.50020
 Cu80 Cu 0.27080 0.49983 0.50040
 C81 C 0.22215 0.43542 0.57585
 C82 C 0.22220 0.56382 0.42468
 C83 C 0.22271 0.43514 0.42517
 C84 C 0.22203 0.56416 0.57546
 O85 O 0.31745 1.04966 0.05678
 O86 O 0.31726 0.95341 -0.05659
 O87 O 0.31717 1.04957 -0.05676
 O88 O 0.31774 0.95349 0.05686
 O89 O 0.23661 0.95356 0.05700
 O90 O 0.23606 1.04899 -0.05596
 O91 O 0.23614 0.95348 -0.05578
 O92 O 0.23634 1.04907 0.05690
 Cu93 Cu 0.32564 1.00158 0.00002
 Cu94 Cu 0.22817 1.00126 0.00059
 C95 C 0.27676 1.06581 0.07563
 C96 C 0.27651 0.93697 -0.07492
 C97 C 0.27637 1.06570 -0.07519
 C98 C 0.27711 0.93708 0.07570
 O99 O 0.81960 0.54777 0.55689
 O100 O 0.81916 0.45200 0.44328
 O101 O 0.81921 0.54809 0.44340
 O102 O 0.81899 0.45165 0.55669
 O103 O 0.73786 0.45217 0.55656
 O104 O 0.73808 0.54787 0.44398
 O105 O 0.73803 0.45246 0.44383
 O106 O 0.73847 0.54761 0.55678
 Cu107 Cu 0.82749 0.49987 0.50005
 Cu108 Cu 0.72998 0.50006 0.50032
 C109 C 0.77896 0.56406 0.57564
 C110 C 0.77837 0.43585 0.42478
 C111 C 0.77851 0.56443 0.42492
 C112 C 0.77821 0.43541 0.57534
 O113 O 0.21934 0.28567 0.17539
 O114 O 0.32731 0.25860 0.26601
 O115 O 0.28611 0.21813 0.17487
 O116 O 0.26051 0.32613 0.26638
 O117 O 0.21452 0.28037 0.32440
 O118 O 0.24011 0.17237 0.23288
 O119 O 0.28131 0.21283 0.32402
 O120 O 0.17334 0.23991 0.23342
 Cu121 Cu 0.27798 0.27673 0.21482
 Cu122 Cu 0.22270 0.22174 0.28453
 C123 C 0.17826 0.26680 0.18867
 C124 C 0.32237 0.23176 0.31081
 C125 C 0.26682 0.17719 0.18793
 C126 C 0.23372 0.32134 0.31126
 O127 O 0.75970 0.82726 0.23303
 O128 O 0.78637 0.71920 0.32400
 O129 O 0.82703 0.76028 0.23282
 O130 O 0.71888 0.78605 0.32402
 O131 O 0.67320 0.74014 0.26604
 O132 O 0.78135 0.71435 0.17487
 O133 O 0.74068 0.67327 0.26606
 O134 O 0.71404 0.78135 0.17504
 Cu135 Cu 0.77760 0.77783 0.28432
 Cu136 Cu 0.72271 0.72264 0.21466
 C137 C 0.73295 0.82241 0.18823
 C138 C 0.76747 0.67814 0.31084
 C139 C 0.82229 0.73354 0.18799
 C140 C 0.67793 0.76688 0.31086
 O141 O 0.82700 0.24035 0.23338
 O142 O 0.71888 0.21397 0.32456
 O143 O 0.75960 0.17326 0.23343
 O144 O 0.78610 0.28128 0.32426
 O145 O 0.74039 0.32709 0.26622
 O146 O 0.71386 0.21908 0.17544
 O147 O 0.67314 0.25980 0.26658
 O148 O 0.78129 0.28614 0.17533
 Cu149 Cu 0.77751 0.22259 0.28477
 Cu150 Cu 0.72255 0.27765 0.21505
 C151 C 0.82226 0.26713 0.18852
 C152 C 0.67790 0.23296 0.31141
 C153 C 0.73282 0.17810 0.18865
 C154 C 0.76717 0.32227 0.31100
 O155 O 0.25958 0.67323 0.26582
 O156 O 0.28584 0.78202 0.17565
 O157 O 0.32674 0.74060 0.26632
 O158 O 0.21881 0.71454 0.17489
 O159 O 0.17283 0.75983 0.23319
 O160 O 0.28078 0.78585 0.32468
 O161 O 0.23989 0.82728 0.23402
 O162 O 0.21360 0.71851 0.32411
 Cu163 Cu 0.27737 0.72302 0.21480
 Cu164 Cu 0.22214 0.77741 0.28488
 C165 C 0.23276 0.67768 0.31068
 C166 C 0.26673 0.82286 0.18916
 C167 C 0.32184 0.76705 0.31138
 C168 C 0.17776 0.73340 0.18811
 O169 O 0.67303 0.25881 0.73443
 O170 O 0.78154 0.28515 0.82451
 O171 O 0.74032 0.32606 0.73391
 O172 O 0.71429 0.21787 0.82517
 O173 O 0.75978 0.17214 0.76681
 O174 O 0.78580 0.28033 0.67553
 O175 O 0.82702 0.23941 0.76614
 O176 O 0.71851 0.21307 0.67607
 Cu177 Cu 0.72268 0.27657 0.78539
 Cu178 Cu 0.77735 0.22161 0.71525
 C179 C 0.67761 0.23207 0.68958
 C180 C 0.82245 0.26621 0.81094
 C181 C 0.76695 0.32132 0.68892
 C182 C 0.73322 0.17690 0.81186
 O183 O 0.32609 0.74062 0.73471
 O184 O 0.21727 0.71467 0.82489
 O185 O 0.25871 0.67347 0.73436
 O186 O 0.28459 0.78190 0.82510
 O187 O 0.23932 0.82754 0.76641
 O188 O 0.21343 0.71911 0.67569
 O189 O 0.17199 0.76032 0.76622
 O190 O 0.28081 0.78626 0.67602
 Cu191 Cu 0.27622 0.72306 0.78568
 Cu192 Cu 0.22182 0.77790 0.71517
 C193 C 0.32166 0.76725 0.68967
 C194 C 0.17642 0.73371 0.81126
 C195 C 0.23229 0.67814 0.68923
 C196 C 0.26576 0.82288 0.81152
 O197 O 0.25932 0.32634 0.73479
 O198 O 0.28504 0.21813 0.82589
 O199 O 0.32619 0.25886 0.73477
 O200 O 0.21803 0.28544 0.82571
 O201 O 0.17216 0.23981 0.76764
 O202 O 0.28030 0.21321 0.67674
 O203 O 0.23914 0.17248 0.76786
 O204 O 0.21345 0.28071 0.67672
 Cu205 Cu 0.27677 0.27680 0.78613
 Cu206 Cu 0.22164 0.22195 0.71638
 C207 C 0.23261 0.32165 0.68993
 C208 C 0.26586 0.17720 0.81273
 C209 C 0.32135 0.23211 0.68995
 C210 C 0.17698 0.26653 0.81248
 O211 O 0.71983 0.78555 0.67534
 O212 O 0.82828 0.76038 0.76625
 O213 O 0.78736 0.71875 0.67571
 O214 O 0.76073 0.82718 0.76571
 O215 O 0.71523 0.78147 0.82435
 O216 O 0.74186 0.67303 0.73434
 O217 O 0.78279 0.71466 0.82487
 O218 O 0.67433 0.73985 0.73397
 Cu219 Cu 0.77866 0.77756 0.71484
 Cu220 Cu 0.72399 0.72263 0.78530
 C221 C 0.67891 0.76644 0.68890
 C222 C 0.82369 0.73385 0.81137
 C223 C 0.76850 0.67775 0.68934
 C224 C 0.73400 0.82249 0.81064
 C225 C 0.27597 0.10263 0.11542
 C226 C 0.27310 0.13622 0.14942
 C227 C 0.77819 0.60291 0.61764
 C228 C 0.77511 0.63660 0.65135
 C229 C 0.72301 0.89722 0.11623
 C230 C 0.72620 0.86349 0.15000
 C231 C 0.22306 0.39648 0.61790
 C232 C 0.22614 0.36277 0.65170
 C233 C 0.89713 0.27700 0.11652
 C234 C 0.86337 0.27382 0.15028
 C235 C 0.39682 0.77681 0.61807
 C236 C 0.36299 0.77374 0.65172
 C237 C 0.10323 0.72390 0.11564
 C238 C 0.13680 0.72694 0.14962
 C239 C 0.60268 0.22221 0.61801
 C240 C 0.63642 0.22541 0.65165
 C241 C 0.72360 0.10213 0.88407
 C242 C 0.72668 0.13582 0.85019
 C243 C 0.22312 0.60271 0.38257
 C244 C 0.22623 0.63644 0.34876
 C245 C 0.27550 0.89791 0.88322
 C246 C 0.27232 0.86411 0.84958
 C247 C 0.77727 0.39699 0.38281
 C248 C 0.77397 0.36332 0.34910
 C249 C 0.10216 0.27638 0.88451
 C250 C 0.13588 0.27323 0.85070
 C251 C 0.60315 0.77653 0.38293
 C252 C 0.63684 0.77340 0.34911
 C253 C 0.89863 0.72460 0.88330
 C254 C 0.86488 0.72757 0.84955
 C255 C 0.39686 0.22183 0.38299
 C256 C 0.36332 0.22501 0.34908
 C257 C 0.72372 0.89754 0.88191
 C258 C 0.72710 0.86373 0.84840
 C259 C 0.22385 0.39612 0.38326
 C260 C 0.22711 0.36241 0.34951
 C261 C 0.27534 0.10252 0.88500
 C262 C 0.27229 0.13614 0.85106
 C263 C 0.77756 0.60339 0.38289
 C264 C 0.77429 0.63707 0.34908
 C265 C 0.10136 0.72430 0.88304
 C266 C 0.13514 0.72728 0.84929
 C267 C 0.60310 0.22275 0.38344
 C268 C 0.63681 0.22613 0.34964
 C269 C 0.89752 0.27638 0.88223
 C270 C 0.86371 0.27304 0.84872
 C271 C 0.39658 0.77674 0.38349
 C272 C 0.36288 0.77363 0.34970
 C273 C 0.27636 0.89802 0.11759
 C274 C 0.27330 0.86417 0.15122
 C275 C 0.77711 0.39631 0.61717
 C276 C 0.77376 0.36250 0.65081
 C277 C 0.72292 0.10353 0.11659
 C278 C 0.72610 0.13711 0.15044
 C279 C 0.22281 0.60319 0.61736
 C280 C 0.22584 0.63696 0.65108
 C281 C 0.89696 0.72399 0.11576
 C282 C 0.86333 0.72706 0.14966
 C283 C 0.39616 0.22208 0.61794
 C284 C 0.36245 0.22533 0.65173
 C285 C 0.10361 0.27698 0.11680
 C286 C 0.13725 0.27371 0.15056
 C287 C 0.60378 0.77611 0.61737
 C288 C 0.63764 0.77292 0.65091
   
