data_POSCAR
  _audit_creation_date              2014-09-24
  _audit_creation_method            'ToBaCCo'
  _symmetry_space_group_name_H-M    'P1'
  _symmetry_Int_Tables_number       1
  _symmetry_cell_setting            triclinic
  loop_
  _symmetry_equiv_pos_as_xyz
 x,y,z
_cell_length_a 26.9099
_cell_length_b 27.1045
_cell_length_c 26.4344
_cell_angle_alpha 89.829100
_cell_angle_beta 90.750000
_cell_angle_gamma 90.203300
loop_
  _atom_site_label
  _atom_site_type_symbol
  _atom_site_fract_x
  _atom_site_fract_y
  _atom_site_fract_z
N1 N 0.23691 0.24816 0.23571
 N2 N -0.21113 0.79799 0.20813
 N3 N -0.19813 0.18432 -0.20121
 N4 N 0.23008 0.75913 -0.22977
 N5 N 0.21975 1.23720 0.78055
 N6 N 0.76623 0.79851 0.78918
 N7 N 0.20631 0.77288 1.21055
 N8 N 0.79062 1.18881 1.20820
 O9 O 0.51705 0.97007 0.89921
 O10 O 0.43112 0.98221 1.10798
 O11 O 0.57656 0.95151 1.04393
 O12 O 0.41750 0.93331 0.95914
 O13 O 0.52079 0.96208 1.10225
 O14 O 0.42548 0.98535 0.90085
 O15 O 0.42043 0.93271 1.04807
 O16 O 0.58305 0.94693 0.94737
 C17 C 0.55733 0.94508 0.90497
 C18 C 0.41430 0.94210 1.09302
 C19 C 0.56127 0.94376 1.08771
 C20 C 0.41186 0.94365 0.91398
 O21 O 0.43940 1.07487 0.93657
 O22 O 0.54020 1.05536 1.08187
 O23 O 0.58290 1.02994 0.96977
 O24 O 0.38319 1.02867 1.04995
 O25 O 0.44638 1.07260 1.07739
 O26 O 0.52813 1.06699 0.92320
 O27 O 0.37831 1.02869 0.96056
 O28 O 0.58537 1.02569 1.01880
 Co29 Co 0.47753 1.02238 0.92344
 Co30 Co 0.48416 1.01728 1.08433
 Co31 Co 0.54350 0.97694 0.98896
 Co32 Co 0.40536 0.98228 1.00429
 O33 O 0.47827 1.00481 1.00369
 C34 C 0.39415 1.06923 0.94350
 C35 C 0.58049 1.05347 1.05831
 C36 C 0.57235 1.06165 0.93574
 C37 C 0.40023 1.06754 1.07071
 O38 O 0.02300 0.46068 0.10479
 O39 O 0.03109 0.53415 -0.09345
 O40 O 0.05468 0.42682 -0.04697
 O41 O 0.05224 0.57330 0.01143
 O42 O 0.00574 0.44916 -0.10622
 O43 O 0.02461 0.55231 0.08636
 O44 O 0.02062 0.60693 -0.06009
 O45 O 0.05496 0.41518 0.04504
 C46 C 0.05300 0.42830 0.09026
 C47 C 0.04448 0.57918 -0.09219
 C48 C 0.04507 0.42885 -0.09269
 C49 C 0.05676 0.57385 0.05880
 O50 O -0.07678 0.54547 0.06949
 O51 O -0.08469 0.46266 -0.07509
 O52 O -0.03999 0.39360 0.04398
 O53 O -0.02913 0.61528 -0.05273
 O54 O -0.07492 0.55016 -0.06617
 O55 O -0.07147 0.45426 0.08947
 O56 O -0.03371 0.59726 0.02893
 O57 O -0.04310 0.39820 -0.04934
 Co58 Co -0.02425 0.50307 0.07980
 Co59 Co -0.02884 0.49980 -0.07821
 Co60 Co 0.00502 0.41510 -0.00257
 Co61 Co -0.00662 0.55986 -0.02023
 O62 O -0.01297 0.49008 0.00072
 C63 C -0.06890 0.58905 0.05750
 C64 C -0.08133 0.41687 -0.06983
 C65 C -0.06978 0.40942 0.07679
 C66 C -0.07054 0.59646 -0.07136
 O67 O 1.12439 0.04034 0.46305
 O68 O 0.92011 0.03202 0.53882
 O69 O 0.97583 0.06997 0.43607
 O70 O 1.05995 0.01151 0.61121
 O71 O 0.91831 0.01855 0.44608
 O72 O 1.10401 0.04824 0.55493
 O73 O 0.98508 0.05409 0.57990
 O74 O 1.06192 0.07689 0.43046
 C75 C 1.10732 0.07350 0.43566
 C76 C 0.94049 0.06087 0.56978
 C77 C 0.93158 0.06021 0.43196
 C78 C 1.09126 0.04391 0.59988
 O79 O 1.10503 -0.05074 0.55963
 O80 O 0.95373 -0.07149 0.45946
 O81 O 1.07096 -0.01944 0.40079
 O82 O 0.96742 -0.02798 0.62289
 O83 O 0.94484 -0.06355 0.55157
 O84 O 1.11506 -0.05170 0.46462
 O85 O 1.02984 -0.07264 0.57271
 O86 O 0.97883 -0.02531 0.39770
 Co87 Co 1.10328 -0.00306 0.51042
 Co88 Co 0.94247 -0.01871 0.49920
 Co89 Co 1.02134 0.02327 0.42282
 Co90 Co 1.00707 -0.00856 0.57217
 O91 O 1.02235 0.00036 0.49874
 C92 C 1.07492 -0.08167 0.57657
 C93 C 0.95899 -0.06488 0.41309
 C94 C 1.10350 -0.04960 0.41819
 C95 C 0.93617 -0.05691 0.59839
 C96 C 1.19076 0.25313 0.31700
 C97 C 1.21784 0.22546 0.28169
 C98 C 1.22378 0.17450 0.29087
 C99 C 1.19871 0.15101 0.33045
 C100 C 1.16666 0.17834 0.36162
 C101 C 1.16432 0.22971 0.35565
 C102 C 1.13701 0.15354 0.39731
 C103 C 1.14106 0.10215 0.40330
 C104 C 1.17568 0.07609 0.37455
 C105 C 1.20379 0.10013 0.33802
 H106 H 1.24611 0.15226 0.26605
 H107 H 1.14137 0.25168 0.38024
 H108 H 1.11067 0.17384 0.41981
 H109 H 1.22865 0.07870 0.31488
 H110 H 1.18789 0.29278 0.31309
 H111 H 1.17917 0.03645 0.37861
 C112 C 0.82591 -0.12038 0.22869
 C113 C 0.81832 -0.17034 0.24101
 C114 C 0.84288 -0.19000 0.28391
 C115 C 0.87394 -0.16012 0.31441
 C116 C 0.88133 -0.11003 0.30143
 C117 C 0.85708 -0.09056 0.25852
 C118 C 0.91195 -0.07999 0.33216
 C119 C 0.93402 -0.09885 0.37678
 C120 C 0.92645 -0.14871 0.38927
 C121 C 0.89726 -0.17922 0.35805
 H122 H 0.83750 -0.22853 0.29353
 H123 H 0.86222 -0.05223 0.24800
 H124 H 0.91656 -0.04130 0.32270
 H125 H 0.89196 -0.21749 0.36871
 H126 H 0.80847 -0.10465 0.19525
 H127 H 0.94257 -0.16389 0.42367
 C128 C 0.88623 0.16943 0.76564
 C129 C 0.83426 0.16862 0.75860
 C130 C 0.81454 0.15224 0.71202
 C131 C 0.84626 0.13597 0.67346
 C132 C 0.89829 0.13562 0.68177
 C133 C 0.91784 0.15302 0.72777
 C134 C 0.92978 0.11569 0.64504
 C135 C 0.90995 0.09498 0.60033
 C136 C 0.85840 0.09826 0.59117
 C137 C 0.82691 0.11865 0.62727
 H138 H 0.77461 0.15189 0.70611
 H139 H 0.95759 0.15306 0.73487
 H140 H 0.96932 0.11311 0.65299
 H141 H 0.78721 0.11898 0.61991
 H142 H 0.90248 0.18172 0.80110
 H143 H 0.84199 0.08244 0.55725
 C144 C 1.23624 -0.20625 0.68361
 C145 C 1.20687 -0.22210 0.72419
 C146 C 1.15502 -0.21464 0.72131
 C147 C 1.13362 -0.18806 0.68095
 C148 C 1.16423 -0.16888 0.64257
 C149 C 1.21521 -0.17964 0.64332
 C150 C 1.14387 -0.13701 0.60583
 C151 C 1.09333 -0.12379 0.60720
 C152 C 1.06252 -0.14604 0.64328
 C153 C 1.08252 -0.17785 0.67991
 H154 H 1.13159 -0.22664 0.75203
 H155 H 1.23915 -0.16579 0.61382
 H156 H 1.16792 -0.12035 0.57792
 H157 H 1.05841 -0.19267 0.70879
 H158 H 1.27599 -0.21231 0.68454
 H159 H 1.02352 -0.13652 0.64514
 C160 C 0.32470 1.23006 1.21640
 C161 C 0.27386 1.22241 1.20700
 C162 C 0.25869 1.18843 1.17005
 C163 C 0.29387 1.16073 1.14389
 C164 C 0.34522 1.16865 1.15293
 C165 C 0.36023 1.20384 1.18905
 C166 C 0.38036 1.14010 1.12693
 C167 C 0.36455 1.10243 1.09369
 C168 C 0.31323 1.09443 1.08648
 C169 C 0.27837 1.12395 1.11024
 H170 H 0.21930 1.18241 1.16334
 H171 H 0.39933 1.21031 1.19688
 H172 H 0.41969 1.14582 1.13415
 H173 H 0.23917 1.11684 1.10360
 H174 H 0.33666 1.25632 1.24487
 H175 H 0.29969 1.06447 1.06301
 C176 C 0.30487 0.75855 0.82614
 C177 C 0.27289 0.78405 0.79257
 C178 C 0.27907 0.83533 0.78704
 C179 C 0.31486 0.86085 0.81580
 C180 C 0.34459 0.83534 0.85176
 C181 C 0.34005 0.78393 0.85574
 C182 C 0.37717 0.86197 0.88388
 C183 C 0.38111 0.91350 0.87909
 C184 C 0.35311 0.93784 0.84134
 C185 C 0.31999 0.91192 0.81040
 H186 H 0.25423 0.85600 0.76243
 H187 H 0.36281 0.76351 0.88259
 H188 H 0.39893 0.84289 0.91260
 H189 H 0.29776 0.93200 0.78280
 H190 H 0.30089 0.71907 0.83110
 H191 H 0.35540 0.97754 0.83694
 C192 C 0.73380 0.80171 1.13185
 C193 C 0.74432 0.81590 1.18221
 C194 C 0.71117 0.84854 1.20609
 C195 C 0.66997 0.86827 1.17928
 C196 C 0.66180 0.85495 1.12822
 C197 C 0.69328 0.82104 1.10529
 C198 C 0.62352 0.87718 1.10000
 C199 C 0.59303 0.91322 1.12158
 C200 C 0.59935 0.92451 1.17311
 C201 C 0.63758 0.90220 1.20177
 H202 H 0.71803 0.85921 1.24503
 H203 H 0.68726 0.81026 1.06623
 H204 H 0.61883 0.86800 1.06030
 H205 H 0.64290 0.91280 1.24096
 H206 H 0.75762 0.77654 1.11194
 H207 H 0.57664 0.95254 1.19042
 C208 C 0.76725 1.10279 0.82208
 C209 C 0.76128 1.15396 0.81617
 C210 C 0.71809 1.17643 0.83463
 C211 C 0.68216 1.14865 0.86027
 C212 C 0.68955 1.09756 0.86786
 C213 C 0.73175 1.07483 0.84784
 C214 C 0.65449 1.07010 0.89513
 C215 C 0.61133 1.09268 0.91330
 C216 C 0.60366 1.14315 0.90459
 C217 C 0.63922 1.17114 0.87897
 H218 H 0.71341 1.21593 0.83027
 H219 H 0.73779 1.03562 0.85298
 H220 H 0.65981 1.03079 0.90066
 H221 H 0.63286 1.21022 0.87323
 H222 H 0.80058 1.08490 0.80896
 H223 H 0.57017 1.16083 0.91763
 C224 C 0.23714 0.32062 0.17800
 C225 C 0.21106 0.28830 0.21012
 C226 C 0.15914 0.29366 0.21360
 C227 C 0.13418 0.33115 0.18706
 C228 C 0.16050 0.36172 0.15319
 C229 C 0.21208 0.35640 0.14928
 C230 C 0.13441 0.39580 0.12272
 C231 C 0.08282 0.40101 0.12775
 C232 C 0.05767 0.37295 0.16405
 C233 C 0.08295 0.33772 0.19294
 H234 H 0.13764 0.26795 0.23587
 H235 H 0.23303 0.37972 0.12385
 H236 H 0.15378 0.41727 0.09441
 H237 H 0.06228 0.31496 0.21913
 H238 H 0.27700 0.31747 0.17427
 H239 H 0.01775 0.37614 0.16779
 C240 C -0.16570 0.21262 -0.11902
 C241 C -0.18206 0.22360 -0.16837
 C242 C -0.18181 0.27257 -0.18558
 C243 C -0.16370 0.31036 -0.15403
 C244 C -0.14510 0.29853 -0.10518
 C245 C -0.14714 0.24976 -0.08767
 C246 C -0.12232 0.33513 -0.07565
 C247 C -0.11733 0.38337 -0.09434
 C248 C -0.13909 0.39580 -0.14123
 C249 C -0.16208 0.35946 -0.17097
 H250 H -0.19497 0.28082 -0.22359
 H251 H -0.13329 0.24018 -0.05025
 H252 H -0.10574 0.32543 -0.03934
 H253 H -0.17660 0.36930 -0.20805
 H254 H -0.16602 0.17487 -0.10548
 H255 H -0.13524 0.43275 -0.15643
 C256 C 0.18835 0.74476 -0.14900
 C257 C 0.20147 0.72759 -0.19706
 C258 C 0.18401 0.68131 -0.21370
 C259 C 0.15290 0.65284 -0.18260
 C260 C 0.13936 0.67139 -0.13484
 C261 C 0.15779 0.71685 -0.11807
 C262 C 0.10595 0.64526 -0.10508
 C263 C 0.08510 0.60068 -0.12193
 C264 C 0.10012 0.58087 -0.16825
 C265 C 0.13384 0.60693 -0.19855
 H266 H 0.19393 0.66825 -0.25092
 H267 H 0.14759 0.73141 -0.08151
 H268 H 0.09482 0.66080 -0.06925
 H269 H 0.14396 0.59189 -0.23490
 H270 H 0.20084 0.78063 -0.13601
 H271 H 0.08431 0.54650 -0.18185
 C272 C -0.20438 0.70701 0.20400
 C273 C -0.18762 0.75399 0.18955
 C274 C -0.15126 0.75824 0.15240
 C275 C -0.13295 0.71618 0.12835
 C276 C -0.14925 0.66864 0.14321
 C277 C -0.18476 0.66452 0.18158
 C278 C -0.12978 0.62644 0.11928
 C279 C -0.09495 0.63172 0.08023
 C280 C -0.08090 0.67958 0.06494
 C281 C -0.09929 0.72117 0.08893
 H282 H -0.13925 0.79468 0.14060
 H283 H -0.19808 0.62860 0.19345
 H284 H -0.14102 0.58991 0.13146
 H285 H -0.08697 0.75734 0.07666
 H286 H -0.23298 0.70342 0.23222
 H287 H -0.05442 0.68513 0.03494
 C288 C 1.18606 0.23091 0.69526
 C289 C 1.19749 0.20996 0.74276
 C290 C 1.18562 0.15996 0.75143
 C291 C 1.16175 0.13177 0.71422
 C292 C 1.15139 0.15273 0.66628
 C293 C 1.16376 0.20233 0.65712
 C294 C 1.12858 0.12370 0.62863
 C295 C 1.11449 0.07477 0.63923
 C296 C 1.12351 0.05495 0.68751
 C297 C 1.14758 0.08301 0.72455
 H298 H 1.19329 0.14354 0.78814
 H299 H 1.15586 0.21908 0.62065
 H300 H 1.12109 0.13926 0.59148
 H301 H 1.15494 0.06664 0.76134
 H302 H 1.19525 0.26912 0.68760
 H303 H 1.11298 0.01727 0.69617
 C304 C 0.79761 -0.11796 0.77125
 C305 C 0.79015 -0.16703 0.75592
 C306 C 0.81064 -0.18361 0.71070
 C307 C 0.83944 -0.15165 0.68128
 C308 C 0.84845 -0.10279 0.69798
 C309 C 0.82667 -0.08605 0.74255
 C310 C 0.87990 -0.07186 0.67038
 C311 C 0.90156 -0.08877 0.62582
 C312 C 0.89088 -0.13653 0.60827
 C313 C 0.86038 -0.16797 0.63608
 H314 H 0.80496 -0.22163 0.69931
 H315 H 0.83295 -0.04869 0.75573
 H316 H 0.88766 -0.03472 0.68354
 H317 H 0.85362 -0.20513 0.62258
 H318 H 0.78234 -0.10510 0.80653
 H319 H 0.90732 -0.15002 0.57380
 C320 C 1.12851 -0.19390 0.24008
 C321 C 1.18006 -0.20177 0.24646
 C322 C 1.20474 -0.18009 0.28809
 C323 C 1.17933 -0.14879 0.32076
 C324 C 1.12826 -0.13907 0.31228
 C325 C 1.10299 -0.16262 0.27247
 C326 C 1.10351 -0.10573 0.34358
 C327 C 1.12905 -0.08320 0.38392
 C328 C 1.17940 -0.09405 0.39281
 C329 C 1.20449 -0.12628 0.36124
 H330 H 1.24410 -0.18677 0.29406
 H331 H 1.06377 -0.15599 0.26570
 H332 H 1.06441 -0.09796 0.33719
 H333 H 1.24356 -0.13345 0.36836
 H334 H 1.10855 -0.20982 0.20822
 H335 H 1.19955 -0.07695 0.42393
 C336 C 0.79127 0.11160 0.25559
 C337 C 0.80575 0.16161 0.24994
 C338 C 0.83681 0.18253 0.28765
 C339 C 0.85502 0.15382 0.32799
 C340 C 0.84144 0.10352 0.33179
 C341 C 0.80879 0.08310 0.29598
 C342 C 0.86294 0.07376 0.36961
 C343 C 0.89927 0.09339 0.40237
 C344 C 0.91078 0.14394 0.39993
 C345 C 0.88839 0.17408 0.36340
 H346 H 0.84732 0.22110 0.28523
 H347 H 0.79814 0.04456 0.29816
 H348 H 0.85447 0.03462 0.37085
 H349 H 0.89905 0.21261 0.36129
 H350 H 0.76809 0.09356 0.22738
 H351 H 0.93883 0.15965 0.42491
 C352 C 0.22457 0.30998 -0.16578
 C353 C 0.19834 0.27965 -0.20070
 C354 C 0.14864 0.29260 -0.21282
 C355 C 0.12498 0.33125 -0.18772
 C356 C 0.15066 0.35766 -0.14949
 C357 C 0.20086 0.34787 -0.14005
 C358 C 0.12510 0.39187 -0.11992
 C359 C 0.07439 0.40046 -0.12886
 C360 C 0.05009 0.37687 -0.16949
 C361 C 0.07509 0.34221 -0.19847
 H362 H 0.12671 0.27080 -0.23913
 H363 H 0.22152 0.36864 -0.11177
 H364 H 0.14405 0.41039 -0.08885
 H365 H 0.05491 0.32272 -0.22804
 H366 H 0.26335 0.30338 -0.15683
 H367 H 0.01090 0.38299 -0.17689
 C368 C -0.12688 0.21530 0.18367
 C369 C -0.17856 0.22340 0.18653
 C370 C -0.19819 0.26736 0.16567
 C371 C -0.16682 0.30300 0.14417
 C372 C -0.11535 0.29363 0.14085
 C373 C -0.09581 0.24971 0.16058
 C374 C -0.08416 0.32850 0.11812
 C375 C -0.10332 0.37360 0.10063
 C376 C -0.15413 0.38353 0.10550
 C377 C -0.18586 0.34813 0.12644
 H378 H -0.23770 0.27457 0.16795
 H379 H -0.05641 0.24204 0.15835
 H380 H -0.04477 0.32102 0.11481
 H381 H -0.22515 0.35615 0.12906
 H382 H -0.11065 0.18140 0.19788
 H383 H -0.16937 0.41818 0.09205
 C384 C -0.16315 0.78885 -0.15163
 C385 C -0.20080 0.76742 -0.18172
 C386 C -0.20680 0.71599 -0.18197
 C387 C -0.17526 0.68616 -0.15232
 C388 C -0.13695 0.70821 -0.12287
 C389 C -0.13134 0.75952 -0.12264
 C390 C -0.10423 0.67862 -0.09474
 C391 C -0.10903 0.62715 -0.09562
 C392 C -0.14806 0.60540 -0.12356
 C393 C -0.18095 0.63472 -0.15179
 H394 H -0.23614 0.69962 -0.20492
 H395 H -0.10238 0.77697 -0.10006
 H396 H -0.07430 0.69569 -0.07314
 H397 H -0.21021 0.61715 -0.17385
 H398 H -0.15860 0.82849 -0.15032
 H399 H -0.15218 0.56566 -0.12487
 C400 C 0.15982 0.69741 0.22498
 C401 C 0.18656 0.72915 0.19249
 C402 C 0.18773 0.71746 0.14054
 C403 C 0.16067 0.67725 0.12135
 C404 C 0.13156 0.64802 0.15407
 C405 C 0.13261 0.65752 0.20600
 C406 C 0.09985 0.61160 0.13397
 C407 C 0.09672 0.60442 0.08145
 C408 C 0.12867 0.63123 0.04972
 C409 C 0.16016 0.66747 0.06943
 H410 H 0.20636 0.74176 0.11422
 H411 H 0.11109 0.63513 0.23180
 H412 H 0.07578 0.59086 0.15888
 H413 H 0.18273 0.68902 0.04381
 H414 H 0.15887 0.70443 0.26527
 H415 H 0.12781 0.62578 0.00919
 C416 C 0.30100 1.20085 0.77893
 C417 C 0.25876 1.21546 0.80572
 C418 C 0.25408 1.20148 0.85678
 C419 C 0.28996 1.17135 0.87990
 C420 C 0.33285 1.15799 0.85291
 C421 C 0.33847 1.17367 0.80277
 C422 C 0.36813 1.12692 0.87555
 C423 C 0.35951 1.10631 0.92339
 C424 C 0.31628 1.11856 0.94933
 C425 C 0.28232 1.15195 0.92842
 H426 H 0.22056 1.21076 0.87694
 H427 H 0.37078 1.16311 0.78136
 H428 H 0.40089 1.11643 0.85474
 H429 H 0.24922 1.16106 0.94930
 H430 H 0.30473 1.21069 0.73941
 H431 H 0.30868 1.10207 0.98550
 C432 C 0.28618 0.76604 1.16758
 C433 C 0.24832 0.79447 1.18990
 C434 C 0.25460 0.84636 1.19033
 C435 C 0.29639 0.86888 1.16955
 C436 C 0.33223 0.84014 1.14477
 C437 C 0.32698 0.78864 1.14440
 C438 C 0.37207 0.86370 1.12037
 C439 C 0.37709 0.91531 1.12275
 C440 C 0.34264 0.94299 1.15006
 C441 C 0.30225 0.92010 1.17262
 H442 H 0.22615 0.86999 1.20563
 H443 H 0.35459 0.76580 1.12649
 H444 H 0.39871 0.84225 1.09937
 H445 H 0.27527 0.94257 1.19198
 H446 H 0.28435 0.72614 1.16797
 H447 H 0.34559 0.98284 1.15185
 C448 C 0.70300 1.17144 1.21397
 C449 C 0.74610 1.17766 1.18499
 C450 C 0.74448 1.16546 1.13317
 C451 C 0.70247 1.14194 1.11237
 C452 C 0.66024 1.13422 1.14262
 C453 C 0.66018 1.15079 1.19271
 C454 C 0.61976 1.10749 1.12337
 C455 C 0.62149 1.08620 1.07503
 C456 C 0.66334 1.09447 1.04487
 C457 C 0.70319 1.12286 1.06308
 H458 H 0.77767 1.16942 1.11067
 H459 H 0.62797 1.14526 1.21629
 H460 H 0.58795 1.10103 1.14730
 H461 H 0.73538 1.12813 1.03944
 H462 H 0.70329 1.18121 1.25368
 H463 H 0.66574 1.07835 1.00762
 C464 C 0.69835 0.78510 0.85073
 C465 C 0.71608 0.80768 0.80630
 C466 C 0.68591 0.84338 0.78192
 C467 C 0.64409 0.86231 0.80612
 C468 C 0.62987 0.84227 0.85312
 C469 C 0.65528 0.80182 0.87348
 C470 C 0.59432 0.86629 0.88181
 C471 C 0.57532 0.91185 0.86586
 C472 C 0.58560 0.92943 0.81721
 C473 C 0.61945 0.90421 0.78698
 H474 H 0.69750 0.85986 0.74660
 H475 H 0.64427 0.78572 0.90922
 H476 H 0.58601 0.85273 0.91946
 H477 H 0.62967 0.91994 0.75083
 H478 H 0.71913 0.75657 0.87013
 H479 H 0.57124 0.96474 0.80462
   
