data_POSCAR
  _audit_creation_date              2014-09-24
  _audit_creation_method            'ToBaCCo'
  _symmetry_space_group_name_H-M    'P1'
  _symmetry_Int_Tables_number       1
  _symmetry_cell_setting            triclinic
  loop_
  _symmetry_equiv_pos_as_xyz
 x,y,z
_cell_length_a 50.2376
_cell_length_b 50.2683
_cell_length_c 50.5463
_cell_angle_alpha 90.168200
_cell_angle_beta 89.953400
_cell_angle_gamma 89.836700
loop_
  _atom_site_label
  _atom_site_type_symbol
  _atom_site_fract_x
  _atom_site_fract_y
  _atom_site_fract_z
C1 C 0.34125 0.34039 1.36912
 C2 C 0.31784 0.35023 1.38077
 C3 C 0.30366 0.37185 1.36962
 C4 C 0.31401 0.38337 1.34625
 C5 C 0.33762 0.37395 1.33465
 C6 C 0.35129 0.35239 1.34615
 C7 C 0.35451 0.31842 1.38008
 C8 C 0.37808 0.30803 1.36858
 C9 C 0.38822 0.32098 1.34589
 C10 C 0.37490 0.34270 1.33454
 C11 C 0.38478 0.35472 1.31154
 C12 C 0.37107 0.37597 1.29962
 C13 C 0.34752 0.38551 1.31140
 H14 H 0.31151 0.34139 1.39919
 H15 H 0.30338 0.39907 1.33616
 H16 H 0.34529 0.30877 1.39681
 H17 H 0.40686 0.31481 1.33708
 H18 H 0.40315 0.34745 1.30285
 H19 H 0.33660 0.40164 1.30219
 C20 C 1.16462 0.66536 0.87377
 C21 C 1.18636 0.65420 0.88726
 C22 C 1.19750 0.62958 0.87932
 C23 C 1.18593 0.61626 0.85751
 C24 C 1.16453 0.62744 0.84359
 C25 C 1.15385 0.65207 0.85175
 C26 C 1.15344 0.68959 0.88219
 C27 C 1.13150 0.70108 0.86884
 C28 C 1.12151 0.68769 0.84630
 C29 C 1.13247 0.66346 0.83776
 C30 C 1.12249 0.65062 0.81518
 C31 C 1.13312 0.62609 0.80670
 C32 C 1.15396 0.61451 0.82132
 H33 H 1.19391 0.66447 0.90454
 H34 H 1.19442 0.59784 0.85017
 H35 H 1.16131 0.69867 0.89996
 H36 H 1.10570 0.69640 0.83461
 H37 H 1.10673 0.66005 0.80396
 H38 H 1.16200 0.59537 0.81542
 C39 C 0.65711 -0.16323 0.12637
 C40 C 0.68017 -0.15284 0.11462
 C41 C 0.69323 -0.13080 0.12579
 C42 C 0.68268 -0.11893 0.14877
 C43 C 0.65973 -0.12915 0.16078
 C44 C 0.64699 -0.15151 0.14965
 C45 C 0.64439 -0.18549 0.11543
 C46 C 0.62178 -0.19681 0.12764
 C47 C 0.61197 -0.18478 0.15103
 C48 C 0.62428 -0.16226 0.16194
 C49 C 0.61421 -0.15036 0.18503
 C50 C 0.62671 -0.12799 0.19621
 C51 C 0.64951 -0.11754 0.18392
 H52 H 0.68831 -0.16234 0.09711
 H53 H 0.69230 -0.10164 0.15729
 H54 H 0.65315 -0.19468 0.09808
 H55 H 0.59413 -0.19223 0.16044
 H56 H 0.59648 -0.15841 0.19421
 H57 H 0.65962 -0.10064 0.19264
 C58 C -0.16567 1.16605 -0.36926
 C59 C -0.18803 1.15531 -0.38196
 C60 C -0.20210 1.13355 -0.37108
 C61 C -0.19254 1.12262 -0.34709
 C62 C -0.16992 1.13290 -0.33446
 C63 C -0.15650 1.15477 -0.34549
 C64 C -0.15243 1.18808 -0.37997
 C65 C -0.13031 1.19923 -0.36706
 C66 C -0.12107 1.18761 -0.34350
 C67 C -0.13400 1.16548 -0.33266
 C68 C -0.12492 1.15404 -0.30905
 C69 C -0.13815 1.13213 -0.29791
 C70 C -0.16073 1.12179 -0.31071
 H71 H -0.19369 1.16368 -0.40083
 H72 H -0.20313 1.10676 -0.33728
 H73 H -0.15941 1.19663 -0.39838
 H74 H -0.10423 1.19621 -0.33322
 H75 H -0.10734 1.16201 -0.29951
 H76 H -0.17134 1.10522 -0.30203
 C77 C 0.65664 0.66196 0.62212
 C78 C 0.67979 0.65204 0.61001
 C79 C 0.69312 0.62985 0.62051
 C80 C 0.68296 0.61739 0.64320
 C81 C 0.66003 0.62728 0.65572
 C82 C 0.64688 0.64973 0.64521
 C83 C 0.64344 0.68422 0.61174
 C84 C 0.62071 0.69507 0.62434
 C85 C 0.61135 0.68262 0.64759
 C86 C 0.62416 0.66011 0.65795
 C87 C 0.61462 0.64791 0.68100
 C88 C 0.62766 0.62560 0.69171
 C89 C 0.65034 0.61537 0.67885
 H90 H 0.68747 0.66154 0.59236
 H91 H 0.69333 0.60042 0.65150
 H92 H 0.65190 0.69377 0.59451
 H93 H 0.59348 0.68973 0.65732
 H94 H 0.59693 0.65573 0.69057
 H95 H 0.66082 0.59848 0.68717
 C96 C 0.84756 0.34288 0.12673
 C97 C 0.82519 0.35314 0.11360
 C98 C 0.80998 0.37427 0.12449
 C99 C 0.81859 0.38529 0.14883
 C100 C 0.84117 0.37548 0.16192
 C101 C 0.85553 0.35400 0.15100
 C102 C 0.86176 0.32130 0.11604
 C103 C 0.88364 0.30995 0.12957
 C104 C 0.89148 0.32160 0.15382
 C105 C 0.87773 0.34350 0.16445
 C106 C 0.88582 0.35498 0.18846
 C107 C 0.87174 0.37659 0.19946
 C108 C 0.84932 0.38658 0.18609
 H109 H 0.82032 0.34486 0.09444
 H110 H 0.80722 0.40076 0.15859
 H111 H 0.85451 0.31244 0.09789
 H112 H 0.90880 0.31424 0.16426
 H113 H 0.90325 0.34724 0.19847
 H114 H 0.83799 0.40284 0.19468
 C115 C 0.34068 0.15718 0.87483
 C116 C 0.31740 0.14773 0.88690
 C117 C 0.30466 0.12443 0.87770
 C118 C 0.31581 0.11104 0.85565
 C119 C 0.33883 0.12053 0.84315
 C120 C 0.35149 0.14348 0.85297
 C121 C 0.35316 0.18030 0.88420
 C122 C 0.37662 0.18981 0.87226
 C123 C 0.38743 0.17571 0.85065
 C124 C 0.37481 0.15295 0.84070
 C125 C 0.38488 0.13984 0.81829
 C126 C 0.37172 0.11760 0.80763
 C127 C 0.34894 0.10779 0.82049
 H128 H 0.31000 0.15813 0.90421
 H129 H 0.30599 0.09387 0.84719
 H130 H 0.34422 0.19119 0.90048
 H131 H 0.40569 0.18244 0.84147
 H132 H 0.40278 0.14723 0.80889
 H133 H 0.33854 0.09077 0.81236
 C134 C 0.15361 0.84103 0.37555
 C135 C 0.17675 0.85121 0.38734
 C136 C 0.19000 0.87318 0.37633
 C137 C 0.17953 0.88517 0.35345
 C138 C 0.15655 0.87508 0.34133
 C139 C 0.14362 0.85284 0.35235
 C140 C 0.14075 0.81880 0.38631
 C141 C 0.11810 0.80761 0.37400
 C142 C 0.10838 0.81979 0.35074
 C143 C 0.12087 0.84223 0.33998
 C144 C 0.11101 0.85412 0.31688
 C145 C 0.12381 0.87626 0.30566
 C146 C 0.14657 0.88664 0.31812
 H147 H 0.18483 0.84155 0.40473
 H148 H 0.18927 0.90239 0.34503
 H149 H 0.14946 0.80951 0.40357
 H150 H 0.09052 0.81246 0.34126
 H151 H 0.09325 0.84615 0.30768
 H152 H 0.15692 0.90337 0.30942
 Zn153 Zn -0.00646 0.96774 0.01473
 Zn154 Zn -0.03529 1.01655 -0.00213
 Zn155 Zn 0.01914 1.02112 0.02173
 Zn156 Zn 0.01197 0.99779 -0.03237
 O157 O -0.00261 1.00084 0.00054
 O158 O -0.04039 0.95956 0.02195
 O159 O -0.03719 1.04709 0.01584
 O160 O 0.02964 1.00371 0.05105
 O161 O -0.06166 0.99619 0.01019
 O162 O 0.01091 0.96434 0.04529
 O163 O 0.00312 1.05117 0.03298
 O164 O 0.04266 1.01517 -0.03515
 O165 O -0.04411 1.02464 -0.03549
 O166 O 0.04904 1.03153 0.00502
 O167 O -0.00894 1.01075 -0.05793
 O168 O 0.01955 0.96412 -0.04135
 O169 O 0.00606 0.94180 -0.00626
 C170 C -0.06179 0.97284 0.01966
 C171 C -0.02035 1.05997 0.02948
 C172 C 0.02509 0.98014 0.05887
 C173 C 0.05662 1.02822 -0.01876
 C174 C -0.03178 1.02157 -0.05722
 C175 C 0.01663 0.94235 -0.02906
 Zn176 Zn 0.48135 0.00569 0.46630
 Zn177 Zn 0.47583 -0.02045 0.51915
 Zn178 Zn 0.52967 -0.01367 0.49440
 Zn179 Zn 0.50042 0.03357 0.51472
 O180 O 0.49677 0.00123 0.49868
 O181 O 0.45058 -0.01166 0.46338
 O182 O 0.49288 -0.05033 0.52912
 O183 O 0.53757 -0.02060 0.46054
 O184 O 0.44609 -0.03105 0.50234
 O185 O 0.50163 -0.00640 0.43968
 O186 O 0.53269 -0.04465 0.51124
 O187 O 0.53417 0.04134 0.52283
 O188 O 0.46483 -0.00442 0.54914
 O189 O 0.55608 0.00665 0.50688
 O190 O 0.48247 0.03564 0.54511
 O191 O 0.48870 0.06050 0.49477
 O192 O 0.47403 0.03980 0.45900
 C193 C 0.43758 -0.02629 0.47916
 C194 C 0.51654 -0.05830 0.52489
 C195 C 0.52455 -0.01708 0.43933
 C196 C 0.55583 0.02897 0.51867
 C197 C 0.46855 0.01900 0.55788
 C198 C 0.47796 0.06104 0.47206
 Zn199 Zn 1.00522 0.46788 0.48791
 Zn200 Zn 1.03420 0.51588 0.50682
 Zn201 Zn 0.98006 0.52158 0.48260
 Zn202 Zn 0.98658 0.49660 0.53602
 O203 O 1.00148 0.50054 0.50331
 O204 O 1.03899 0.46012 0.47962
 O205 O 1.03653 0.54660 0.48942
 O206 O 0.96880 0.50485 0.45309
 O207 O 1.06065 0.49548 0.49420
 O208 O 0.98713 0.46511 0.45776
 O209 O 0.99648 0.55145 0.47185
 O210 O 0.95575 0.51419 0.53920
 O211 O 1.04252 0.52347 0.54048
 O212 O 0.95049 0.53221 0.49964
 O213 O 1.00737 0.50857 0.56216
 O214 O 0.97935 0.46269 0.54388
 O215 O 0.99345 0.44129 0.50827
 C216 C 1.06051 0.47285 0.48298
 C217 C 1.02001 0.55982 0.47571
 C218 C 0.97275 0.48127 0.44484
 C219 C 0.94235 0.52817 0.52309
 C220 C 1.03006 0.51959 0.56198
 C221 C 0.98286 0.44121 0.53107
 Zn222 Zn 0.48788 0.49286 0.96389
 Zn223 Zn 0.48286 0.51802 1.01735
 Zn224 Zn 0.50850 0.46443 1.01132
 Zn225 Zn 0.53634 0.51247 0.99148
 O226 O 0.50385 0.49698 0.99605
 O227 O 0.45698 0.51023 0.96172
 O228 O 0.47254 0.50127 1.04703
 O229 O 0.49664 0.43766 0.99111
 O230 O 0.45269 0.52861 1.00130
 O231 O 0.48043 0.45886 0.95635
 O232 O 0.49110 0.46162 1.04196
 O233 O 0.56333 0.49248 1.00329
 O234 O 0.49949 0.54792 1.02773
 O235 O 0.54260 0.45703 1.01869
 O236 O 0.53897 0.54336 1.00876
 O237 O 0.54362 0.51965 0.95757
 O238 O 0.50766 0.50505 0.93706
 C239 C 0.44395 0.52434 0.97810
 C240 C 0.47686 0.47777 1.05520
 C241 C 0.48494 0.43746 0.96887
 C242 C 0.56386 0.46996 1.01456
 C243 C 0.52282 0.55644 1.02311
 C244 C 0.53042 0.51594 0.93649
 C245 C 1.23206 0.40108 0.40545
 C246 C 1.24100 0.37507 0.41026
 C247 C 1.26423 0.36543 0.39840
 C248 C 1.27974 0.38160 0.38152
 C249 C 1.27059 0.40784 0.37696
 C250 C 1.24713 0.41729 0.38858
 C251 C 1.20708 0.41119 0.41785
 C252 C 1.20479 0.43793 0.42582
 C253 C 1.18118 0.44750 0.43703
 C254 C 1.15934 0.43051 0.44092
 C255 C 1.16177 0.40368 0.43330
 C256 C 1.18523 0.39420 0.42174
 C257 C 1.13400 0.44081 0.45243
 C258 C 1.10932 0.43102 0.44364
 C259 C 1.08552 0.44103 0.45401
 C260 C 1.08578 0.46136 0.47312
 C261 C 1.11037 0.47111 0.48205
 C262 C 1.13420 0.46082 0.47198
 H263 H 1.23007 0.36203 0.42333
 H264 H 1.26917 0.34483 0.40201
 H265 H 1.28179 0.42178 0.36518
 H266 H 1.24076 0.43737 0.38415
 H267 H 1.22130 0.45152 0.42355
 H268 H 1.17997 0.46836 0.44228
 H269 H 1.14556 0.38988 0.43633
 H270 H 1.18606 0.37359 0.41554
 H271 H 1.10830 0.41602 0.42827
 H272 H 1.06687 0.43328 0.44655
 H273 H 1.11118 0.48666 0.49690
 H274 H 1.15279 0.46848 0.47963
 C275 C 0.26697 0.59734 0.91579
 C276 C 0.24762 0.58056 0.90472
 C277 C 0.22471 0.59106 0.89306
 C278 C 0.22012 0.61879 0.89239
 C279 C 0.23918 0.63546 0.90452
 C280 C 0.26229 0.62490 0.91581
 C281 C 0.29235 0.58622 0.92630
 C282 C 0.30507 0.59779 0.94828
 C283 C 0.32953 0.58796 0.95725
 C284 C 0.34178 0.56618 0.94458
 C285 C 0.32875 0.55428 0.92299
 C286 C 0.30450 0.56426 0.91387
 C287 C 0.36822 0.55612 0.95341
 C288 C 0.38683 0.54676 0.93475
 C289 C 0.41136 0.53659 0.94284
 C290 C 0.41813 0.53582 0.96979
 C291 C 0.39985 0.54566 0.98849
 C292 C 0.37510 0.55558 0.98040
 H293 H 0.25011 0.55917 0.90510
 H294 H 0.21027 0.57716 0.88530
 H295 H 0.23730 0.65689 0.90397
 H296 H 0.27696 0.63851 0.92369
 H297 H 0.29615 0.61449 0.95859
 H298 H 0.33907 0.59777 0.97379
 H299 H 0.33730 0.53717 0.91305
 H300 H 0.29556 0.55503 0.89668
 H301 H 0.38254 0.54747 0.91378
 H302 H 0.42512 0.52944 0.92791
 H303 H 0.40447 0.54522 1.00941
 H304 H 0.36116 0.56233 0.99534
 C305 C -0.23395 0.89842 0.09127
 C306 C -0.23697 0.89702 0.11888
 C307 C -0.26058 0.88761 0.13002
 C308 C -0.28181 0.87948 0.11383
 C309 C -0.27885 0.88098 0.08622
 C310 C -0.25518 0.89032 0.07506
 C311 C -0.20874 0.90835 0.07951
 C312 C -0.20912 0.92480 0.05707
 C313 C -0.18542 0.93459 0.04641
 C314 C -0.16077 0.92820 0.05796
 C315 C -0.16039 0.91154 0.08024
 C316 C -0.18407 0.90169 0.09085
 C317 C -0.13560 0.93930 0.04721
 C318 C -0.11226 0.92380 0.04642
 C319 C -0.08837 0.93458 0.03724
 C320 C -0.08728 0.96108 0.02851
 C321 C -0.11070 0.97644 0.02890
 C322 C -0.13455 0.96570 0.03819
 H323 H -0.22116 0.90344 0.13194
 H324 H -0.26207 0.88640 0.15135
 H325 H -0.29492 0.87512 0.07321
 H326 H -0.25341 0.89090 0.05373
 H327 H -0.22779 0.93052 0.04801
 H328 H -0.18640 0.94711 0.02904
 H329 H -0.14179 0.90647 0.08982
 H330 H -0.18303 0.88877 0.10792
 H331 H -0.11247 0.90327 0.05283
 H332 H -0.07072 0.92216 0.03706
 H333 H -0.11054 0.99696 0.02242
 H334 H -0.15205 0.97830 0.03888
 C335 C 0.72774 0.10288 0.59200
 C336 C 0.73641 0.12886 0.58682
 C337 C 0.75933 0.13891 0.59883
 C338 C 0.77470 0.12319 0.61632
 C339 C 0.76597 0.09688 0.62100
 C340 C 0.74287 0.08702 0.60919
 C341 C 0.70284 0.09249 0.57985
 C342 C 0.70078 0.06563 0.57229
 C343 C 0.67711 0.05572 0.56167
 C344 C 0.65496 0.07248 0.55801
 C345 C 0.65718 0.09944 0.56514
 C346 C 0.68073 0.10927 0.57607
 C347 C 0.62953 0.06178 0.54731
 C348 C 0.60492 0.07137 0.55669
 C349 C 0.58103 0.06104 0.54704
 C350 C 0.58115 0.04059 0.52805
 C351 C 0.60566 0.03101 0.51856
 C352 C 0.62957 0.04161 0.52795
 H353 H 0.72544 0.14159 0.57344
 H354 H 0.76403 0.15949 0.59498
 H355 H 0.77721 0.08323 0.63314
 H356 H 0.73673 0.06695 0.61384
 H357 H 0.71750 0.05219 0.57450
 H358 H 0.67608 0.03477 0.55676
 H359 H 0.64071 0.11306 0.56224
 H360 H 0.68140 0.12998 0.58196
 H361 H 0.60406 0.08651 0.57195
 H362 H 0.56245 0.06868 0.55490
 H363 H 0.60638 0.01540 0.50377
 H364 H 0.64809 0.03408 0.51988
 C365 C 0.41379 0.23720 0.39935
 C366 C 0.41875 0.24530 0.37327
 C367 C 0.40735 0.26857 0.36326
 C368 C 0.39072 0.28489 0.37912
 C369 C 0.38661 0.27692 0.40563
 C370 C 0.39773 0.25344 0.41544
 C371 C 0.42476 0.21163 0.40955
 C372 C 0.43245 0.20911 0.43618
 C373 C 0.44165 0.18480 0.44597
 C374 C 0.44380 0.16242 0.42931
 C375 C 0.43663 0.16509 0.40256
 C376 C 0.42705 0.18929 0.39286
 C377 C 0.45305 0.13634 0.43989
 C378 C 0.44236 0.11236 0.43022
 C379 C 0.45075 0.08791 0.44037
 C380 C 0.46971 0.08686 0.46074
 C381 C 0.48043 0.11073 0.47045
 C382 C 0.47237 0.13517 0.46000
 H383 H 0.43136 0.23353 0.36036
 H384 H 0.41083 0.27272 0.34260
 H385 H 0.37529 0.28891 0.41941
 H386 H 0.39330 0.24784 0.43562
 H387 H 0.43139 0.22594 0.44954
 H388 H 0.44662 0.18348 0.46675
 H389 H 0.43843 0.14848 0.38900
 H390 H 0.42098 0.19029 0.37235
 H391 H 0.42707 0.11242 0.41515
 H392 H 0.44197 0.06983 0.43265
 H393 H 0.49526 0.11052 0.48599
 H394 H 0.48148 0.15313 0.46758
 C395 C 0.90684 0.27041 0.60323
 C396 C 0.87904 0.26745 0.60252
 C397 C 0.86707 0.24432 0.61196
 C398 C 0.88261 0.22350 0.62228
 C399 C 0.91044 0.22632 0.62277
 C400 C 0.92243 0.24952 0.61335
 C401 C 0.91942 0.29530 0.59362
 C402 C 0.94321 0.29449 0.57898
 C403 C 0.95469 0.31794 0.56956
 C404 C 0.94262 0.34273 0.57456
 C405 C 0.91896 0.34352 0.58940
 C406 C 0.90753 0.32011 0.59884
 C407 C 0.95427 0.36765 0.56393
 C408 C 0.95392 0.39118 0.57903
 C409 C 0.96359 0.41495 0.56853
 C410 C 0.97394 0.41573 0.54270
 C411 C 0.97486 0.39208 0.52780
 C412 C 0.96509 0.36833 0.53828
 H413 H 0.86648 0.28301 0.59451
 H414 H 0.84557 0.24292 0.61160
 H415 H 0.92298 0.21054 0.63036
 H416 H 0.94387 0.25127 0.61438
 H417 H 0.95275 0.27568 0.57443
 H418 H 0.97307 0.31668 0.55843
 H419 H 0.90897 0.36223 0.59334
 H420 H 0.88939 0.32146 0.61037
 H421 H 0.94614 0.39123 0.59902
 H422 H 0.96276 0.43276 0.58060
 H423 H 0.98262 0.39202 0.50781
 H424 H 0.96536 0.35064 0.52601
 C425 C 0.09580 0.77314 -0.10353
 C426 C 0.08092 0.75460 -0.11803
 C427 C 0.09263 0.73110 -0.12723
 C428 C 0.11970 0.72524 -0.12213
 C429 C 0.13448 0.74415 -0.10753
 C430 C 0.12271 0.76770 -0.09847
 C431 C 0.08324 0.79800 -0.09356
 C432 C 0.09687 0.82232 -0.09488
 C433 C 0.08516 0.84566 -0.08522
 C434 C 0.05958 0.84518 -0.07395
 C435 C 0.04589 0.82087 -0.07272
 C436 C 0.05757 0.79755 -0.08247
 C437 C 0.04748 0.86987 -0.06306
 C438 C 0.03372 0.86945 -0.03885
 C439 C 0.02328 0.89289 -0.02804
 C440 C 0.02631 0.91727 -0.04124
 C441 C 0.03961 0.91759 -0.06573
 C442 C 0.05010 0.89416 -0.07649
 H443 H 0.06013 0.75831 -0.12235
 H444 H 0.07984 0.71714 -0.13739
 H445 H 0.15549 0.74148 -0.10374
 H446 H 0.13469 0.78159 -0.08724
 H447 H 0.11656 0.82334 -0.10355
 H448 H 0.09632 0.86403 -0.08618
 H449 H 0.02607 0.81992 -0.06436
 H450 H 0.04667 0.77906 -0.08095
 H451 H 0.03162 0.85109 -0.02790
 H452 H 0.01320 0.89194 -0.00912
 H453 H 0.04224 0.93602 -0.07644
 H454 H 0.06028 0.89505 -0.09536
 C455 C 0.58711 0.73269 1.09574
 C456 C 0.58568 0.73818 1.12297
 C457 C 0.59651 0.76155 1.13338
 C458 C 0.60959 0.78007 1.11693
 C459 C 0.61057 0.77456 1.08954
 C460 C 0.59933 0.75140 1.07914
 C461 C 0.57663 0.70724 1.08480
 C462 C 0.58976 0.69441 1.06373
 C463 C 0.58043 0.67024 1.05379
 C464 C 0.55795 0.65795 1.06489
 C465 C 0.54467 0.67083 1.08584
 C466 C 0.55381 0.69523 1.09558
 C467 C 0.54871 0.63168 1.05479
 C468 C 0.52142 0.62551 1.05356
 C469 C 0.51294 0.60091 1.04369
 C470 C 0.53154 0.58211 1.03451
 C471 C 0.55878 0.58818 1.03590
 C472 C 0.56726 0.61254 1.04610
 H473 H 0.57695 0.72399 1.13648
 H474 H 0.59585 0.76413 1.15462
 H475 H 0.61919 0.78852 1.07574
 H476 H 0.60009 0.74830 1.05795
 H477 H 0.60760 0.70278 1.05514
 H478 H 0.59090 0.66122 1.03731
 H479 H 0.52745 0.66187 1.09506
 H480 H 0.54293 0.70468 1.11155
 H481 H 0.50655 0.63986 1.05974
 H482 H 0.49181 0.59682 1.04272
 H483 H 0.57361 0.57397 1.02927
 H484 H 0.58843 0.61625 1.04735
 C485 C 0.39964 0.40972 1.22652
 C486 C 0.40091 0.38215 1.23094
 C487 C 0.39166 0.37129 1.25460
 C488 C 0.38104 0.38772 1.27454
 C489 C 0.37985 0.41532 1.27021
 C490 C 0.38903 0.42620 1.24646
 C491 C 0.40946 0.42110 1.20121
 C492 C 0.42355 0.44524 1.20084
 C493 C 0.43370 0.45526 1.17710
 C494 C 0.43011 0.44126 1.15328
 C495 C 0.41558 0.41744 1.15356
 C496 C 0.40530 0.40752 1.17722
 C497 C 0.44214 0.45092 1.12830
 C498 C 0.45525 0.43301 1.11133
 C499 C 0.46663 0.44183 1.08775
 C500 C 0.46503 0.46876 1.08048
 C501 C 0.45193 0.48673 1.09747
 C502 C 0.44071 0.47790 1.12124
 H503 H 0.40932 0.36892 1.21619
 H504 H 0.39255 0.34992 1.25713
 H505 H 0.37202 0.42855 1.28528
 H506 H 0.38754 0.44749 1.24359
 H507 H 0.42737 0.45604 1.21900
 H508 H 0.44504 0.47354 1.17748
 H509 H 0.41210 0.40648 1.13541
 H510 H 0.39402 0.38921 1.17669
 H511 H 0.45697 0.41217 1.11644
 H512 H 0.47658 0.42746 1.07514
 H513 H 0.45037 0.50760 1.09244
 H514 H 0.43057 0.49209 1.13390
 C515 C 0.59691 -0.09247 0.26822
 C516 C 0.59725 -0.12026 0.26500
 C517 C 0.60683 -0.13175 0.24165
 C518 C 0.61621 -0.11573 0.22091
 C519 C 0.61570 -0.08794 0.22405
 C520 C 0.60620 -0.07644 0.24744
 C521 C 0.58699 -0.08029 0.29320
 C522 C 0.57158 -0.05691 0.29273
 C523 C 0.56207 -0.04564 0.31624
 C524 C 0.56769 -0.05753 0.34076
 C525 C 0.58320 -0.08084 0.34121
 C526 C 0.59277 -0.09205 0.31773
 C527 C 0.55708 -0.04598 0.36575
 C528 C 0.57255 -0.04599 0.38891
 C529 C 0.56215 -0.03623 0.41269
 C530 C 0.53606 -0.02611 0.41384
 C531 C 0.52077 -0.02558 0.39057
 C532 C 0.53114 -0.03546 0.36681
 H533 H 0.58992 -0.13316 0.28047
 H534 H 0.60722 -0.15323 0.23998
 H535 H 0.62251 -0.07504 0.20833
 H536 H 0.60646 -0.05499 0.24938
 H537 H 0.56654 -0.04749 0.27415
 H538 H 0.55041 -0.02752 0.31522
 H539 H 0.58763 -0.09070 0.35971
 H540 H 0.60488 -0.10987 0.31882
 H541 H 0.59276 -0.05353 0.38867
 H542 H 0.57451 -0.03678 0.43022
 H543 H 0.50056 -0.01803 0.39080
 H544 H 0.51857 -0.03547 0.34943
 C545 C -0.10927 1.09699 -0.22558
 C546 C -0.10947 1.12476 -0.22883
 C547 C -0.11895 1.13614 -0.25219
 C548 C -0.12836 1.12004 -0.27293
 C549 C -0.12822 1.09227 -0.26967
 C550 C -0.11883 1.08089 -0.24626
 C551 C -0.09889 1.08490 -0.20084
 C552 C -0.08352 1.06150 -0.20173
 C553 C -0.07332 1.05041 -0.17851
 C554 C -0.07817 1.06250 -0.15386
 C555 C -0.09372 1.08579 -0.15295
 C556 C -0.10399 1.09682 -0.17615
 C557 C -0.06665 1.05120 -0.12924
 C558 C -0.08128 1.05128 -0.10551
 C559 C -0.07009 1.04142 -0.08220
 C560 C -0.04404 1.03114 -0.08209
 C561 C -0.02954 1.03070 -0.10589
 C562 C -0.04070 1.04066 -0.12917
 H563 H -0.10196 1.13773 -0.21343
 H564 H -0.11908 1.15761 -0.25394
 H565 H -0.13507 1.07929 -0.28536
 H566 H -0.11924 1.05945 -0.24429
 H567 H -0.07897 1.05196 -0.22043
 H568 H -0.06169 1.03229 -0.17988
 H569 H -0.09759 1.09578 -0.13433
 H570 H -0.11604 1.11466 -0.17473
 H571 H -0.10147 1.05886 -0.10498
 H572 H -0.08184 1.04193 -0.06423
 H573 H -0.00938 1.02304 -0.10647
 H574 H -0.02874 1.04065 -0.14699
 C575 C 1.10348 0.58931 0.73510
 C576 C 1.13045 0.58699 0.74220
 C577 C 1.14001 0.59881 0.76536
 C578 C 1.12278 0.61289 0.78234
 C579 C 1.09570 0.61472 0.77554
 C580 C 1.08623 0.60331 0.75214
 C581 C 1.09345 0.57761 0.70986
 C582 C 1.06742 0.56752 0.70808
 C583 C 1.05771 0.55748 0.68417
 C584 C 1.07389 0.55677 0.66145
 C585 C 1.10010 0.56636 0.66337
 C586 C 1.10966 0.57684 0.68716
 C587 C 1.06331 0.54655 0.63581
 C588 C 1.07151 0.55778 0.61165
 C589 C 1.06116 0.54860 0.58766
 C590 C 1.04198 0.52836 0.58725
 C591 C 1.03380 0.51703 0.61126
 C592 C 1.04453 0.52582 0.63523
 H593 H 1.14429 0.57599 0.72988
 H594 H 1.16106 0.59726 0.76968
 H595 H 1.08170 0.62498 0.78829
 H596 H 1.06542 0.60591 0.74725
 H597 H 1.05446 0.56731 0.72519
 H598 H 1.03730 0.55069 0.68348
 H599 H 1.11335 0.56575 0.64649
 H600 H 1.12967 0.58475 0.68755
 H601 H 1.08549 0.57411 0.61123
 H602 H 1.06765 0.55786 0.56944
 H603 H 1.01922 0.50120 0.61150
 H604 H 1.03816 0.51624 0.65329
 C605 C 0.76664 0.60170 0.58677
 C606 C 0.74604 0.58378 0.59256
 C607 C 0.72207 0.59292 0.60340
 C608 C 0.71814 0.62017 0.60827
 C609 C 0.73855 0.63813 0.60199
 C610 C 0.76264 0.62896 0.59150
 C611 C 0.79249 0.59189 0.57648
 C612 C 0.81643 0.60073 0.58779
 C613 C 0.84083 0.59087 0.57875
 C614 C 0.84178 0.57227 0.55798
 C615 C 0.81788 0.56376 0.54636
 C616 C 0.79343 0.57333 0.55566
 C617 C 0.86764 0.56132 0.54892
 C618 C 0.87372 0.55977 0.52183
 C619 C 0.89814 0.54933 0.51339
 C620 C 0.91676 0.53986 0.53189
 C621 C 0.91057 0.54136 0.55898
 C622 C 0.88635 0.55215 0.56741
 H623 H 0.74872 0.56265 0.58926
 H624 H 0.70657 0.57872 0.60796
 H625 H 0.73606 0.65922 0.60575
 H626 H 0.77816 0.64317 0.58705
 H627 H 0.81622 0.61487 0.60399
 H628 H 0.85900 0.59785 0.58792
 H629 H 0.81810 0.54929 0.53044
 H630 H 0.77524 0.56634 0.54653
 H631 H 0.85966 0.56687 0.50721
 H632 H 0.90232 0.54837 0.49239
 H633 H 0.92452 0.53428 0.57372
 H634 H 0.88203 0.55293 0.58839
 C635 C 0.73887 0.40224 1.08708
 C636 C 0.75304 0.41861 1.10463
 C637 C 0.77649 0.40967 1.11654
 C638 C 0.78655 0.38381 1.11162
 C639 C 0.77218 0.36761 1.09371
 C640 C 0.74890 0.37673 1.08161
 C641 C 0.71354 0.41159 1.07490
 C642 C 0.69232 0.39386 1.07075
 C643 C 0.66835 0.40271 1.05982
 C644 C 0.66481 0.42960 1.05304
 C645 C 0.68607 0.44730 1.05705
 C646 C 0.71016 0.43838 1.06769
 C647 C 0.63892 0.43926 1.04235
 C648 C 0.63807 0.45960 1.02330
 C649 C 0.61373 0.46941 1.01411
 C650 C 0.58964 0.45887 1.02347
 C651 C 0.59041 0.43816 1.04205
 C652 C 0.61474 0.42859 1.05151
 H653 H 0.74586 0.43835 1.10949
 H654 H 0.78690 0.42368 1.12902
 H655 H 0.77793 0.34728 1.08963
 H656 H 0.73870 0.36364 1.06796
 H657 H 0.69402 0.37316 1.07637
 H658 H 0.65260 0.38841 1.05666
 H659 H 0.68401 0.46821 1.05242
 H660 H 0.72616 0.45254 1.07019
 H661 H 0.65625 0.46794 1.01538
 H662 H 0.61377 0.48525 0.99963
 H663 H 0.57218 0.42977 1.04979
 H664 H 0.61455 0.41326 1.06650
 C665 C 0.23333 1.09577 -0.08659
 C666 C 0.25137 1.07815 -0.09871
 C667 C 0.27474 1.08751 -0.11035
 C668 C 0.28113 1.11485 -0.10996
 C669 C 0.26320 1.13234 -0.09710
 C670 C 0.23963 1.12295 -0.08579
 C671 C 0.20772 1.08589 -0.07554
 C672 C 0.19658 1.09728 -0.05258
 C673 C 0.17209 1.08843 -0.04282
 C674 C 0.15822 1.06788 -0.05570
 C675 C 0.16962 1.05621 -0.07836
 C676 C 0.19391 1.06520 -0.08824
 C677 C 0.13184 1.05875 -0.04590
 C678 C 0.11194 1.05120 -0.06394
 C679 C 0.08754 1.04155 -0.05503
 C680 C 0.08221 1.03953 -0.02783
 C681 C 0.10173 1.04774 -0.00969
 C682 C 0.12636 1.05713 -0.01864
 H683 H 0.24757 1.05696 -0.09902
 H684 H 0.28820 1.07292 -0.11877
 H685 H 0.26641 1.15360 -0.09689
 H686 H 0.22595 1.13719 -0.07712
 H687 H 0.20682 1.11301 -0.04208
 H688 H 0.16381 1.09802 -0.02545
 H689 H 0.15978 1.04000 -0.08853
 H690 H 0.20163 1.05618 -0.10615
 H691 H 0.11516 1.05282 -0.08506
 H692 H 0.07279 1.03571 -0.06952
 H693 H 0.09821 1.04631 0.01140
 H694 H 0.14131 1.06253 -0.00419
 C695 C 0.26375 -0.09926 0.41053
 C696 C 0.24265 -0.10749 0.42685
 C697 C 0.21865 -0.11616 0.41583
 C698 C 0.21521 -0.11693 0.38822
 C699 C 0.23628 -0.10860 0.37194
 C700 C 0.26017 -0.09978 0.38294
 C701 C 0.28942 -0.09017 0.42207
 C702 C 0.31365 -0.09639 0.40951
 C703 C 0.33770 -0.08688 0.41955
 C704 C 0.33816 -0.07114 0.44253
 C705 C 0.31410 -0.06549 0.45557
 C706 C 0.28996 -0.07482 0.44540
 C707 C 0.36362 -0.05987 0.45219
 C708 C 0.37027 -0.06055 0.47918
 C709 C 0.39440 -0.04987 0.48804
 C710 C 0.41213 -0.03799 0.47009
 C711 C 0.40531 -0.03721 0.44313
 C712 C 0.38140 -0.04814 0.43429
 H713 H 0.24480 -0.10757 0.44816
 H714 H 0.20273 -0.12215 0.42895
 H715 H 0.23448 -0.10927 0.35061
 H716 H 0.27580 -0.09318 0.36977
 H717 H 0.31406 -0.10869 0.39190
 H718 H 0.35602 -0.09189 0.40934
 H719 H 0.31389 -0.05318 0.47319
 H720 H 0.27167 -0.06939 0.45540
 H721 H 0.35695 -0.06962 0.49337
 H722 H 0.39909 -0.05072 0.50893
 H723 H 0.41851 -0.02824 0.42878
 H724 H 0.37663 -0.04706 0.41343
 C725 C 0.58430 -0.23462 0.59394
 C726 C 0.59684 -0.25291 0.57693
 C727 C 0.60865 -0.27600 0.58684
 C728 C 0.60796 -0.28186 0.61414
 C729 C 0.59457 -0.26377 0.63099
 C730 C 0.58315 -0.24046 0.62107
 C731 C 0.57324 -0.20919 0.58353
 C732 C 0.55015 -0.19773 0.59456
 C733 C 0.54047 -0.17334 0.58534
 C734 C 0.55349 -0.15991 0.56470
 C735 C 0.57625 -0.17165 0.55335
 C736 C 0.58609 -0.19583 0.56275
 C737 C 0.54375 -0.13361 0.55521
 C738 C 0.56195 -0.11402 0.54716
 C739 C 0.55303 -0.08963 0.53745
 C740 C 0.52569 -0.08398 0.53590
 C741 C 0.50741 -0.10323 0.54448
 C742 C 0.51635 -0.12785 0.55389
 H743 H 0.59741 -0.24950 0.55580
 H744 H 0.61749 -0.28964 0.57273
 H745 H 0.59410 -0.26662 0.65219
 H746 H 0.57417 -0.22660 0.63488
 H747 H 0.53950 -0.20762 0.61033
 H748 H 0.52305 -0.16481 0.59473
 H749 H 0.58653 -0.16219 0.53709
 H750 H 0.60411 -0.20377 0.55399
 H751 H 0.58319 -0.11743 0.54851
 H752 H 0.56763 -0.07508 0.53128
 H753 H 0.48620 -0.09947 0.54340
 H754 H 0.50175 -0.14255 0.55962
 C755 C 1.08340 0.73684 0.40500
 C756 C 1.08185 0.74262 0.37787
 C757 C 1.09267 0.76609 0.36777
 C758 C 1.10586 0.78442 0.38443
 C759 C 1.10692 0.77863 0.41173
 C760 C 1.09571 0.75537 0.42182
 C761 C 1.07300 0.71124 0.41557
 C762 C 1.08634 0.69814 0.43624
 C763 C 1.07713 0.67382 0.44580
 C764 C 1.05454 0.66166 0.43471
 C765 C 1.04105 0.67483 0.41417
 C766 C 1.05010 0.69936 0.40480
 C767 C 1.04544 0.63524 0.44441
 C768 C 1.01816 0.62906 0.44600
 C769 C 1.00982 0.60438 0.45568
 C770 C 1.02856 0.58548 0.46426
 C771 C 1.05577 0.59153 0.46240
 C772 C 1.06410 0.61599 0.45243
 H773 H 1.07303 0.72859 0.36419
 H774 H 1.09194 0.76886 0.34657
 H775 H 1.11561 0.79244 0.42571
 H776 H 1.09656 0.75203 0.44295
 H777 H 1.10425 0.70641 0.44481
 H778 H 1.08776 0.66457 0.46198
 H779 H 1.02373 0.66598 0.40498
 H780 H 1.03908 0.70903 0.38913
 H781 H 1.00321 0.64349 0.44032
 H782 H 0.98870 0.60032 0.45700
 H783 H 1.07071 0.57727 0.46857
 H784 H 1.08525 0.61971 0.45087
 C785 C -0.08030 1.23916 0.09940
 C786 C -0.08015 1.24467 0.12665
 C787 C -0.09123 1.26825 0.13651
 C788 C -0.10326 1.28696 0.11943
 C789 C -0.10259 1.28158 0.09200
 C790 C -0.09116 1.25819 0.08218
 C791 C -0.07022 1.21324 0.08904
 C792 C -0.08312 1.20066 0.06777
 C793 C -0.07440 1.17595 0.05849
 C794 C -0.05273 1.16292 0.07043
 C795 C -0.03961 1.17559 0.09154
 C796 C -0.04820 1.20048 0.10069
 C797 C -0.04422 1.13613 0.06098
 C798 C -0.01713 1.12897 0.06002
 C799 C -0.00931 1.10401 0.05033
 C800 C -0.02840 1.08581 0.04116
 C801 C -0.05546 1.09281 0.04252
 C802 C -0.06327 1.11755 0.05245
 H803 H -0.07239 1.23029 0.14057
 H804 H -0.09177 1.27074 0.15777
 H805 H -0.11022 1.29571 0.07777
 H806 H -0.09084 1.25505 0.06099
 H807 H -0.10036 1.20963 0.05853
 H808 H -0.08468 1.16707 0.04187
 H809 H -0.02299 1.16606 0.10135
 H810 H -0.03756 1.20973 0.11689
 H811 H -0.00190 1.14287 0.06616
 H812 H 0.01170 1.09923 0.04942
 H813 H -0.07068 1.07911 0.03590
 H814 H -0.08432 1.12208 0.05352
 C815 C 0.41297 0.26264 0.90009
 C816 C 0.40042 0.24520 0.91788
 C817 C 0.38906 0.22147 0.90897
 C818 C 0.38946 0.21471 0.88195
 C819 C 0.40197 0.23217 0.86417
 C820 C 0.41379 0.25563 0.87314
 C821 C 0.42481 0.28814 0.90953
 C822 C 0.42438 0.31093 0.89344
 C823 C 0.43522 0.33490 0.90234
 C824 C 0.44631 0.33696 0.92780
 C825 C 0.44674 0.31418 0.94390
 C826 C 0.43637 0.29006 0.93480
 C827 C 0.45690 0.36284 0.93769
 C828 C 0.47861 0.36363 0.95528
 C829 C 0.48780 0.38786 0.96534
 C830 C 0.47588 0.41190 0.95761
 C831 C 0.45463 0.41126 0.93961
 C832 C 0.44507 0.38703 0.92999
 H833 H 0.39897 0.25001 0.93871
 H834 H 0.38002 0.20838 0.92335
 H835 H 0.40234 0.22796 0.84316
 H836 H 0.42366 0.26821 0.85886
 H837 H 0.41531 0.31047 0.87404
 H838 H 0.43491 0.35180 0.88913
 H839 H 0.45471 0.31497 0.96376
 H840 H 0.43754 0.27290 0.94763
 H841 H 0.48865 0.34554 0.96125
 H842 H 0.50436 0.38780 0.97904
 H843 H 0.44489 0.42950 0.93353
 H844 H 0.42799 0.38732 0.91697
 C845 C 0.59995 0.59012 0.76429
 C846 C 0.60899 0.57406 0.74328
 C847 C 0.61785 0.58553 0.71971
 C848 C 0.61790 0.61332 0.71660
 C849 C 0.60880 0.62935 0.73759
 C850 C 0.59988 0.61789 0.76111
 C851 C 0.59064 0.57802 0.78944
 C852 C 0.59669 0.58998 0.81386
 C853 C 0.58753 0.57896 0.83750
 C854 C 0.57218 0.55563 0.83733
 C855 C 0.56634 0.54349 0.81292
 C856 C 0.57544 0.55457 0.78925
 C857 C 0.56190 0.54435 0.86249
 C858 C 0.53605 0.53379 0.86387
 C859 C 0.52601 0.52413 0.88777
 C860 C 0.54154 0.52492 0.91088
 C861 C 0.56752 0.53510 0.90943
 C862 C 0.57760 0.54464 0.88550
 H863 H 0.60956 0.55262 0.74518
 H864 H 0.62448 0.57262 0.70382
 H865 H 0.60889 0.65082 0.73597
 H866 H 0.59271 0.63082 0.77675
 H867 H 0.60865 0.60785 0.81474
 H868 H 0.59212 0.58900 0.85591
 H869 H 0.55482 0.52534 0.81211
 H870 H 0.57021 0.54499 0.77077
 H871 H 0.52330 0.53359 0.84661
 H872 H 0.50587 0.51651 0.88823
 H873 H 0.58007 0.53585 0.92683
 H874 H 0.59775 0.55222 0.88502
 C875 C 0.39701 0.08339 0.73330
 C876 C 0.38845 0.06690 0.75405
 C877 C 0.38051 0.07789 0.77830
 C878 C 0.38098 0.10558 0.78231
 C879 C 0.38972 0.12198 0.76160
 C880 C 0.39772 0.11103 0.73747
 C881 C 0.40521 0.07203 0.70733
 C882 C 0.39869 0.08527 0.68374
 C883 C 0.40775 0.07570 0.65939
 C884 C 0.42340 0.05255 0.65801
 C885 C 0.42918 0.03873 0.68144
 C886 C 0.42023 0.04841 0.70588
 C887 C 0.43459 0.04366 0.63230
 C888 C 0.43426 0.01670 0.62485
 C889 C 0.44502 0.00861 0.60055
 C890 C 0.45659 0.02730 0.58341
 C891 C 0.45695 0.05422 0.59099
 C892 C 0.44600 0.06230 0.61508
 H893 H 0.38751 0.04555 0.75142
 H894 H 0.37409 0.06469 0.79393
 H895 H 0.38996 0.14340 0.76385
 H896 H 0.40461 0.12428 0.72208
 H897 H 0.38660 0.10314 0.68408
 H898 H 0.40259 0.08648 0.64159
 H899 H 0.44140 0.02095 0.68095
 H900 H 0.42580 0.03787 0.72370
 H901 H 0.42545 0.00195 0.63772
 H902 H 0.44449 -0.01228 0.59529
 H903 H 0.46570 0.06914 0.57827
 H904 H 0.44684 0.08315 0.62046
 C905 C 0.09449 0.91053 0.23309
 C906 C 0.10451 0.92693 0.25327
 C907 C 0.11393 0.91587 0.27686
 C908 C 0.11371 0.88815 0.28067
 C909 C 0.10389 0.87179 0.26031
 C910 C 0.09431 0.88286 0.23685
 C911 C 0.08416 0.92210 0.20815
 C912 C 0.06041 0.91255 0.19704
 C913 C 0.05101 0.92271 0.17313
 C914 C 0.06524 0.94252 0.15958
 C915 C 0.08879 0.95240 0.17094
 C916 C 0.09811 0.94234 0.19501
 C917 C 0.05569 0.95234 0.13351
 C918 C 0.05776 0.97936 0.12662
 C919 C 0.04820 0.98844 0.10224
 C920 C 0.03625 0.97070 0.08430
 C921 C 0.03451 0.94367 0.09108
 C922 C 0.04419 0.93460 0.11530
 H923 H 0.10463 0.94834 0.25099
 H924 H 0.12101 0.92907 0.29227
 H925 H 0.10397 0.85036 0.26232
 H926 H 0.08711 0.86971 0.22145
 H927 H 0.04900 0.89730 0.20698
 H928 H 0.03248 0.91509 0.16529
 H929 H 0.10039 0.96743 0.16090
 H930 H 0.11660 0.94990 0.20303
 H931 H 0.06629 0.99359 0.14030
 H932 H 0.04976 1.00940 0.09762
 H933 H 0.02565 0.92941 0.07763
 H934 H 0.04281 0.91358 0.11968
 C935 C 0.89696 0.41134 0.27348
 C936 C 0.89779 0.38364 0.26961
 C937 C 0.88952 0.37240 0.24570
 C938 C 0.88035 0.38859 0.22498
 C939 C 0.87952 0.41630 0.22882
 C940 C 0.88770 0.42754 0.25280
 C941 C 0.90603 0.42319 0.29891
 C942 C 0.92066 0.44702 0.29930
 C943 C 0.93022 0.45741 0.32316
 C944 C 0.92551 0.44411 0.34710
 C945 C 0.91038 0.42065 0.34680
 C946 C 0.90069 0.41036 0.32301
 C947 C 0.93725 0.45393 0.37219
 C948 C 0.94964 0.43600 0.38953
 C949 C 0.96114 0.44498 0.41301
 C950 C 0.96039 0.47211 0.41983
 C951 C 0.94788 0.49009 0.40255
 C952 C 0.93655 0.48109 0.37886
 H953 H 0.90517 0.37059 0.28496
 H954 H 0.89011 0.35097 0.24352
 H955 H 0.87283 0.42935 0.21316
 H956 H 0.88656 0.44892 0.25521
 H957 H 0.92541 0.45723 0.28108
 H958 H 0.94205 0.47538 0.32280
 H959 H 0.90608 0.41023 0.36503
 H960 H 0.88898 0.39232 0.32351
 H961 H 0.95079 0.41502 0.38473
 H962 H 0.97060 0.43058 0.42586
 H963 H 0.94700 0.51110 0.40725
 H964 H 0.92699 0.49530 0.36588
   
