data_POSCAR
  _audit_creation_date              2014-09-24
  _audit_creation_method            'ToBaCCo'
  _symmetry_space_group_name_H-M    'P1'
  _symmetry_Int_Tables_number       1
  _symmetry_cell_setting            triclinic
  loop_
  _symmetry_equiv_pos_as_xyz
 x,y,z
_cell_length_a 62.4337
_cell_length_b 57.4364
_cell_length_c 66.0067
_cell_angle_alpha 90.878500
_cell_angle_beta 89.545800
_cell_angle_gamma 90.329600
loop_
  _atom_site_label
  _atom_site_type_symbol
  _atom_site_fract_x
  _atom_site_fract_y
  _atom_site_fract_z
N1 N 0.60048 0.65418 0.61075
 N2 N 0.59307 0.64572 0.62780
 C3 C 0.57522 0.65735 0.63327
 C4 C 0.57117 0.67406 0.61886
 C5 C 0.58762 0.67144 0.60477
 H6 H 0.56599 0.65399 0.64683
 H7 H 0.59031 0.68155 0.59131
 Cu8 Cu 0.60769 0.62072 0.64156
 Cu9 Cu 0.62661 0.64274 0.59791
 Cu10 Cu 0.65437 0.59996 0.62303
 N11 N 0.62368 0.59687 0.65550
 N12 N 0.64197 0.58900 0.64833
 C13 C 0.64951 0.57273 0.66085
 C14 C 0.63514 0.57013 0.67687
 C15 C 0.61894 0.58589 0.67285
 H16 H 0.66428 0.56342 0.65824
 H17 H 0.60470 0.58920 0.68180
 N18 N 0.66426 0.61317 0.59719
 N19 N 0.65339 0.62903 0.58738
 C20 C 0.66384 0.63400 0.57004
 C21 C 0.68225 0.62074 0.56891
 C22 C 0.68200 0.60777 0.58640
 H23 H 0.65862 0.64659 0.55915
 H24 H 0.69373 0.59505 0.59076
 H25 H 0.62589 0.60971 0.61002
 H26 H 0.64072 0.63268 0.62464
 N27 N 0.89146 0.33453 0.11442
 N28 N 0.89525 0.33973 0.13349
 C29 C 0.91222 0.32750 0.13973
 C30 C 0.91954 0.31365 0.12368
 C31 C 0.90581 0.31869 0.10785
 H32 H 0.91859 0.32872 0.15487
 H33 H 0.90618 0.31158 0.09261
 Cu34 Cu 0.87779 0.36196 0.14854
 Cu35 Cu 0.86818 0.34875 0.09959
 Cu36 Cu 0.84190 0.39429 0.12381
 N37 N 0.86599 0.39025 0.16043
 N38 N 0.85234 0.40314 0.15060
 C39 C 0.84746 0.42202 0.16202
 C40 C 0.85859 0.42082 0.18005
 C41 C 0.87017 0.40038 0.17850
 H42 H 0.83656 0.43554 0.15758
 H43 H 0.88124 0.39366 0.18946
 N44 N 0.83386 0.38252 0.09670
 N45 N 0.84412 0.36541 0.08732
 C46 C 0.83491 0.36131 0.06923
 C47 C 0.81792 0.37643 0.06718
 C48 C 0.81773 0.38961 0.08491
 H49 H 0.83980 0.34786 0.05857
 H50 H 0.80666 0.40336 0.08891
 H51 H 0.87101 0.37952 0.11606
 H52 H 0.84905 0.35910 0.12385
 N53 N 0.39199 0.16553 -0.11330
 N54 N 0.39600 0.16067 -0.13246
 C55 C 0.41312 0.17312 -0.13858
 C56 C 0.42027 0.18664 -0.12237
 C57 C 0.40639 0.18131 -0.10658
 H58 H 0.41975 0.17239 -0.15375
 H59 H 0.40675 0.18822 -0.09127
 Cu60 Cu 0.37870 0.13848 -0.14772
 Cu61 Cu 0.36823 0.15123 -0.09866
 Cu62 Cu 0.34194 0.10598 -0.12328
 N63 N 0.36696 0.11015 -0.15972
 N64 N 0.35295 0.09723 -0.14999
 C65 C 0.34822 0.07833 -0.16144
 C66 C 0.35982 0.07952 -0.17937
 C67 C 0.37153 0.10001 -0.17775
 H68 H 0.33709 0.06478 -0.15706
 H69 H 0.38294 0.10674 -0.18862
 N70 N 0.33337 0.11761 -0.09620
 N71 N 0.34368 0.13456 -0.08663
 C72 C 0.33406 0.13859 -0.06859
 C73 C 0.31674 0.12360 -0.06680
 C74 C 0.31679 0.11057 -0.08461
 H75 H 0.33888 0.15193 -0.05781
 H76 H 0.30557 0.09696 -0.08880
 H77 H 0.37109 0.12066 -0.11537
 H78 H 0.34952 0.14122 -0.12308
 N79 N 0.10808 0.83936 0.38611
 N80 N 0.10382 0.84421 0.36720
 C81 C 0.08655 0.83187 0.36123
 C82 C 0.07953 0.81830 0.37728
 C83 C 0.09375 0.82364 0.39283
 H84 H 0.07979 0.83277 0.34626
 H85 H 0.09377 0.81676 0.40796
 Cu86 Cu 0.12119 0.86608 0.35198
 Cu87 Cu 0.13204 0.85365 0.40049
 Cu88 Cu 0.15848 0.89845 0.37617
 N89 N 0.13319 0.89407 0.34018
 N90 N 0.14736 0.90698 0.34984
 C91 C 0.15225 0.92564 0.33856
 C92 C 0.14059 0.92425 0.32082
 C93 C 0.12868 0.90394 0.32237
 H94 H 0.16354 0.93912 0.34290
 H95 H 0.11719 0.89716 0.31159
 N96 N 0.16713 0.88703 0.40287
 N97 N 0.15675 0.87027 0.41233
 C98 C 0.16643 0.86634 0.43010
 C99 C 0.18386 0.88120 0.43184
 C100 C 0.18382 0.89405 0.41428
 H101 H 0.16158 0.85314 0.44072
 H102 H 0.19514 0.90751 0.41013
 H103 H 0.12930 0.88416 0.38447
 H104 H 0.15062 0.86334 0.37584
 C105 C 0.11324 0.12140 0.14192
 C106 C 0.09633 0.13734 0.14134
 C107 C 0.09467 0.15303 0.12529
 C108 C 0.11021 0.15268 0.10976
 C109 C 0.12722 0.13683 0.11014
 C110 C 0.12874 0.12112 0.12627
 C111 C 0.11487 0.10575 0.15793
 C112 C 0.13163 0.08949 0.15842
 C113 C 0.14703 0.08934 0.14271
 C114 C 0.14575 0.10509 0.12673
 C115 C 0.16121 0.10503 0.11119
 C116 C 0.15983 0.12063 0.09501
 C117 C 0.14266 0.13640 0.09460
 H118 H 0.08453 0.13770 0.15348
 H119 H 0.10891 0.16456 0.09723
 H120 H 0.10314 0.10640 0.17011
 H121 H 0.15983 0.07669 0.14270
 H122 H 0.17450 0.09303 0.11187
 H123 H 0.14116 0.14821 0.08205
 C124 C 0.38557 0.87833 0.63904
 C125 C 0.40174 0.86148 0.63838
 C126 C 0.40323 0.84555 0.62205
 C127 C 0.38827 0.84663 0.60628
 C128 C 0.37196 0.86333 0.60676
 C129 C 0.37060 0.87926 0.62319
 C130 C 0.38412 0.89424 0.65532
 C131 C 0.36805 0.91133 0.65592
 C132 C 0.35315 0.91207 0.64004
 C133 C 0.35426 0.89611 0.62377
 C134 C 0.33927 0.89675 0.60807
 C135 C 0.34046 0.88090 0.59162
 C136 C 0.35701 0.86435 0.59106
 H137 H 0.41306 0.86059 0.65072
 H138 H 0.38946 0.83460 0.59351
 H139 H 0.39544 0.89316 0.66763
 H140 H 0.34088 0.92533 0.64015
 H141 H 0.32643 0.90936 0.60887
 H142 H 0.35839 0.85234 0.57830
 C143 C 0.88657 0.62205 0.36084
 C144 C 0.90332 0.63842 0.36126
 C145 C 0.90514 0.65451 0.37743
 C146 C 0.88993 0.65413 0.39324
 C147 C 0.87309 0.63785 0.39303
 C148 C 0.87139 0.62173 0.37677
 C149 C 0.88478 0.60599 0.34472
 C150 C 0.86817 0.58931 0.34437
 C151 C 0.85310 0.58914 0.36035
 C152 C 0.85455 0.60527 0.37647
 C153 C 0.83944 0.60515 0.39231
 C154 C 0.84100 0.62115 0.40861
 C155 C 0.85798 0.63738 0.40885
 H156 H 0.91485 0.63879 0.34891
 H157 H 0.89138 0.66633 0.40586
 H158 H 0.89626 0.60662 0.33234
 H159 H 0.84042 0.57618 0.36045
 H160 H 0.82627 0.59279 0.39178
 H161 H 0.85960 0.64952 0.42148
 C162 C 0.61756 0.37891 -0.14111
 C163 C 0.60009 0.36352 -0.13989
 C164 C 0.59805 0.34813 -0.12362
 C165 C 0.61369 0.34840 -0.10839
 C166 C 0.63127 0.36368 -0.10942
 C167 C 0.63327 0.37894 -0.12587
 C168 C 0.61955 0.39427 -0.15733
 C169 C 0.63707 0.40970 -0.15860
 C170 C 0.65276 0.40949 -0.14342
 C171 C 0.65096 0.39427 -0.12707
 C172 C 0.66656 0.39413 -0.11189
 C173 C 0.66462 0.37908 -0.09533
 C174 C 0.64684 0.36395 -0.09423
 H175 H 0.58824 0.36326 -0.15181
 H176 H 0.61208 0.33684 -0.09564
 H177 H 0.60723 0.39450 -0.16880
 H178 H 0.66648 0.42109 -0.14442
 H179 H 0.68033 0.40561 -0.11309
 H180 H 0.64495 0.35255 -0.08140
 C181 C -0.02819 0.26657 0.12326
 C182 C -0.03293 0.28005 0.14060
 C183 C -0.05013 0.29551 0.14077
 C184 C -0.06305 0.29804 0.12351
 C185 C -0.05810 0.28449 0.10610
 C186 C -0.04097 0.26894 0.10603
 C187 C -0.01004 0.25000 0.12319
 C188 C -0.01234 0.22758 0.11464
 C189 C 0.00467 0.21187 0.11483
 C190 C 0.02438 0.21830 0.12347
 C191 C 0.02672 0.24078 0.13189
 C192 C 0.00968 0.25644 0.13182
 C193 C 0.04238 0.20157 0.12382
 C194 C 0.06337 0.20886 0.11923
 C195 C 0.08032 0.19310 0.11962
 C196 C 0.07667 0.16974 0.12473
 C197 C 0.05569 0.16245 0.12934
 C198 C 0.03872 0.17818 0.12883
 H199 H -0.02350 0.27839 0.15420
 H200 H -0.05310 0.30540 0.15456
 H201 H -0.06740 0.28565 0.09242
 H202 H -0.03754 0.25893 0.09236
 H203 H -0.02740 0.22208 0.10805
 H204 H 0.00246 0.19474 0.10807
 H205 H 0.04167 0.24614 0.13881
 H206 H 0.01197 0.27367 0.13835
 H207 H 0.06663 0.22673 0.11515
 H208 H 0.09635 0.19923 0.11616
 H209 H 0.05238 0.14451 0.13316
 H210 H 0.02275 0.17212 0.13261
 C211 C 0.52026 0.72464 0.61896
 C212 C 0.52275 0.70962 0.63536
 C213 C 0.53917 0.69319 0.63529
 C214 C 0.55351 0.69133 0.61881
 C215 C 0.55089 0.70629 0.60234
 C216 C 0.53449 0.72275 0.60243
 C217 C 0.50299 0.74231 0.61917
 C218 C 0.50700 0.76494 0.61221
 C219 C 0.49082 0.78165 0.61259
 C220 C 0.47024 0.77610 0.61989
 C221 C 0.46619 0.75345 0.62677
 C222 C 0.48240 0.73675 0.62644
 C223 C 0.45307 0.79390 0.62040
 C224 C 0.43203 0.78797 0.61484
 C225 C 0.41588 0.80472 0.61534
 C226 C 0.42040 0.82777 0.62146
 C227 C 0.44144 0.83369 0.62703
 C228 C 0.45760 0.81696 0.62648
 H229 H 0.51221 0.71085 0.64843
 H230 H 0.54064 0.68214 0.64832
 H231 H 0.56142 0.70536 0.58928
 H232 H 0.53279 0.73386 0.58944
 H233 H 0.52276 0.76982 0.60671
 H234 H 0.49437 0.79889 0.60700
 H235 H 0.45056 0.74871 0.63266
 H236 H 0.47875 0.71940 0.63172
 H237 H 0.42809 0.77041 0.60990
 H238 H 0.39978 0.79959 0.61115
 H239 H 0.44545 0.85135 0.63162
 H240 H 0.47361 0.82200 0.63105
 C241 C 1.02720 0.77068 0.37829
 C242 C 1.03150 0.78391 0.36103
 C243 C 1.04870 0.79959 0.36067
 C244 C 1.06205 0.80258 0.37767
 C245 C 1.05750 0.78933 0.39502
 C246 C 1.04037 0.77358 0.39528
 C247 C 1.00914 0.75378 0.37852
 C248 C 1.01177 0.73158 0.38677
 C249 C 0.99487 0.71553 0.38674
 C250 C 0.97493 0.72138 0.37857
 C251 C 0.97224 0.74364 0.37046
 C252 C 0.98919 0.75965 0.37037
 C253 C 0.95705 0.70425 0.37838
 C254 C 0.93610 0.71119 0.38345
 C255 C 0.91927 0.69503 0.38323
 C256 C 0.92301 0.67164 0.37782
 C257 C 0.94395 0.66472 0.37272
 C258 C 0.96079 0.68084 0.37306
 H259 H 1.02174 0.78187 0.34762
 H260 H 1.05134 0.80925 0.34695
 H261 H 1.06713 0.79087 0.40852
 H262 H 1.03728 0.76379 0.40890
 H263 H 1.02702 0.72650 0.39299
 H264 H 0.99734 0.69857 0.39326
 H265 H 0.95711 0.74856 0.36390
 H266 H 0.98665 0.77670 0.36408
 H267 H 0.93278 0.72908 0.38778
 H268 H 0.90327 0.70089 0.38707
 H269 H 0.94733 0.64677 0.36867
 H270 H 0.97673 0.67504 0.36890
 C271 C 0.47365 0.23474 -0.12149
 C272 C 0.45914 0.23394 -0.10514
 C273 C 0.44187 0.21834 -0.10540
 C274 C 0.43867 0.20316 -0.12204
 C275 C 0.45323 0.20398 -0.13839
 C276 C 0.47050 0.21956 -0.13811
 C277 C 0.49196 0.25136 -0.12127
 C278 C 0.51222 0.24450 -0.12852
 C279 C 0.52940 0.26020 -0.12850
 C280 C 0.52671 0.28314 -0.12125
 C281 C 0.50647 0.28999 -0.11394
 C282 C 0.48929 0.27428 -0.11392
 C283 C 0.54492 0.29990 -0.12150
 C284 C 0.54178 0.32311 -0.12718
 C285 C 0.55897 0.33878 -0.12776
 C286 C 0.57970 0.33161 -0.12264
 C287 C 0.58281 0.30844 -0.11682
 C288 C 0.56562 0.29276 -0.11627
 H289 H 0.46126 0.24523 -0.09201
 H290 H 0.43102 0.21835 -0.09255
 H291 H 0.45143 0.19256 -0.15144
 H292 H 0.48125 0.21994 -0.15106
 H293 H 0.51484 0.22690 -0.13407
 H294 H 0.54473 0.25446 -0.13444
 H295 H 0.50395 0.30747 -0.10806
 H296 H 0.47383 0.28016 -0.10842
 H297 H 0.52606 0.32909 -0.13149
 H298 H 0.55603 0.35658 -0.13210
 H299 H 0.59863 0.30233 -0.11299
 H300 H 0.56852 0.27507 -0.11162
 C301 C 0.13945 -0.02674 0.27208
 C302 C 0.13422 -0.05032 0.26862
 C303 C 0.13457 -0.06620 0.28445
 C304 C 0.14046 -0.05896 0.30404
 C305 C 0.14600 -0.03552 0.30750
 C306 C 0.14536 -0.01955 0.29175
 C307 C 0.13853 -0.00971 0.25532
 C308 C 0.15334 0.00879 0.25421
 C309 C 0.15225 0.02493 0.23862
 C310 C 0.13649 0.02285 0.22358
 C311 C 0.12181 0.00423 0.22460
 C312 C 0.12273 -0.01173 0.24032
 C313 C 0.13529 0.04004 0.20696
 C314 C 0.11536 0.04681 0.19928
 C315 C 0.11421 0.06271 0.18353
 C316 C 0.13293 0.07254 0.17521
 C317 C 0.15285 0.06593 0.18300
 C318 C 0.15402 0.04979 0.19859
 H319 H 0.13005 -0.05663 0.25362
 H320 H 0.13050 -0.08422 0.28125
 H321 H 0.15037 -0.02936 0.32250
 H322 H 0.14910 -0.00149 0.29510
 H323 H 0.16591 0.01074 0.26531
 H324 H 0.16365 0.03919 0.23851
 H325 H 0.10966 0.00183 0.21314
 H326 H 0.11085 -0.02551 0.24081
 H327 H 0.10058 0.03998 0.20553
 H328 H 0.09859 0.06711 0.17773
 H329 H 0.16759 0.07335 0.17718
 H330 H 0.16966 0.04478 0.20392
 C331 C 0.63895 0.52357 -0.27384
 C332 C 0.65539 0.52450 -0.28844
 C333 C 0.65421 0.53986 -0.30462
 C334 C 0.63650 0.55478 -0.30667
 C335 C 0.62012 0.55383 -0.29186
 C336 C 0.62134 0.53844 -0.27573
 C337 C 0.64000 0.50701 -0.25680
 C338 C 0.63313 0.51374 -0.23725
 C339 C 0.63353 0.49797 -0.22135
 C340 C 0.64084 0.47510 -0.22460
 C341 C 0.64795 0.46845 -0.24410
 C342 C 0.64754 0.48422 -0.26001
 C343 C 0.64061 0.45815 -0.20781
 C344 C 0.63428 0.43492 -0.21133
 C345 C 0.63338 0.41915 -0.19543
 C346 C 0.63876 0.42625 -0.17563
 C347 C 0.64535 0.44940 -0.17215
 C348 C 0.64626 0.46517 -0.18806
 H349 H 0.66932 0.51348 -0.28726
 H350 H 0.66731 0.53988 -0.31541
 H351 H 0.60613 0.56474 -0.29261
 H352 H 0.60824 0.53792 -0.26489
 H353 H 0.62748 0.53124 -0.23422
 H354 H 0.62772 0.50358 -0.20657
 H355 H 0.65390 0.45105 -0.24705
 H356 H 0.65275 0.47843 -0.27493
 H357 H 0.62961 0.42902 -0.22632
 H358 H 0.62849 0.40137 -0.19864
 H359 H 0.64940 0.45546 -0.15704
 H360 H 0.65144 0.48286 -0.18489
 C361 C 0.36118 1.02952 0.77130
 C362 C 0.35494 1.02279 0.79090
 C363 C 0.35428 1.03906 0.80685
 C364 C 0.36009 1.06238 0.80365
 C365 C 0.36634 1.06915 0.78412
 C366 C 0.36676 1.05296 0.76811
 C367 C 0.36203 1.01216 0.75433
 C368 C 0.37813 1.01349 0.73936
 C369 C 0.37897 0.99721 0.72344
 C370 C 0.36387 0.97900 0.72216
 C371 C 0.34780 0.97762 0.73715
 C372 C 0.34683 0.99405 0.75297
 C373 C 0.36490 0.96152 0.70528
 C374 C 0.34606 0.95238 0.69665
 C375 C 0.34707 0.93600 0.68079
 C376 C 0.36694 0.92851 0.67301
 C377 C 0.38577 0.93768 0.68161
 C378 C 0.38477 0.95387 0.69760
 H379 H 0.35093 1.00484 0.79403
 H380 H 0.34965 1.03323 0.82178
 H381 H 0.37064 1.08706 0.78111
 H382 H 0.37122 1.05889 0.75316
 H383 H 0.39030 1.02698 0.74005
 H384 H 0.39138 0.99904 0.71202
 H385 H 0.33606 0.96368 0.73682
 H386 H 0.33403 0.99265 0.76405
 H387 H 0.33048 0.95807 0.70198
 H388 H 0.33223 0.92909 0.67474
 H389 H 0.40135 0.93257 0.67584
 H390 H 0.39961 0.96024 0.70405
 C391 C 0.85954 0.47068 0.22948
 C392 C 0.86455 0.44718 0.23267
 C393 C 0.86421 0.43102 0.21664
 C394 C 0.85859 0.43790 0.19707
 C395 C 0.85325 0.46127 0.19388
 C396 C 0.85384 0.47750 0.20987
 C397 C 0.86051 0.48802 0.24646
 C398 C 0.84576 0.50640 0.24782
 C399 C 0.84692 0.52284 0.26362
 C400 C 0.86274 0.52120 0.27858
 C401 C 0.87736 0.50270 0.27732
 C402 C 0.87634 0.48641 0.26141
 C403 C 0.86407 0.53875 0.29538
 C404 C 0.88407 0.54599 0.30293
 C405 C 0.88537 0.56227 0.31882
 C406 C 0.86672 0.57195 0.32745
 C407 C 0.84672 0.56484 0.31981
 C408 C 0.84541 0.54837 0.30405
 H409 H 0.86855 0.44117 0.24763
 H410 H 0.86812 0.41307 0.21964
 H411 H 0.84908 0.46716 0.17893
 H412 H 0.85025 0.49550 0.20675
 H413 H 0.83318 0.50803 0.23675
 H414 H 0.83556 0.53701 0.26395
 H415 H 0.88955 0.50065 0.28871
 H416 H 0.88816 0.47271 0.26073
 H417 H 0.89880 0.53925 0.29644
 H418 H 0.90103 0.56706 0.32448
 H419 H 0.83203 0.57215 0.32590
 H420 H 0.82972 0.54300 0.29882
 C421 C 0.27095 0.12098 -0.01769
 C422 C 0.26540 0.11307 -0.03724
 C423 C 0.28034 0.11365 -0.05311
 C424 C 0.30110 0.12242 -0.04987
 C425 C 0.30670 0.13031 -0.03037
 C426 C 0.29185 0.12946 -0.01444
 C427 C 0.25494 0.12062 -0.00085
 C428 C 0.25451 0.13857 0.01388
 C429 C 0.23936 0.13837 0.02957
 C430 C 0.22408 0.12036 0.03084
 C431 C 0.22452 0.10240 0.01612
 C432 C 0.23982 0.10246 0.00055
 C433 C 0.20768 0.12040 0.04734
 C434 C 0.20081 0.09945 0.05612
 C435 C 0.18527 0.09950 0.07147
 C436 C 0.17633 0.12053 0.07860
 C437 C 0.18329 0.14149 0.06992
 C438 C 0.19866 0.14141 0.05442
 H439 H 0.24937 0.10685 -0.04043
 H440 H 0.27545 0.10772 -0.06802
 H441 H 0.32266 0.13687 -0.02734
 H442 H 0.29684 0.13526 0.00048
 H443 H 0.26570 0.15300 0.01316
 H444 H 0.23973 0.15231 0.04079
 H445 H 0.21285 0.08839 0.01644
 H446 H 0.23984 0.08818 -0.01034
 H447 H 0.20759 0.08296 0.05126
 H448 H 0.18010 0.08301 0.07761
 H449 H 0.17700 0.15804 0.07521
 H450 H 0.20331 0.15785 0.04785
 C451 C 0.72984 0.62037 0.52125
 C452 C 0.73505 0.61319 0.54088
 C453 C 0.71957 0.61314 0.55631
 C454 C 0.69859 0.62050 0.55252
 C455 C 0.69335 0.62772 0.53295
 C456 C 0.70875 0.62753 0.51748
 C457 C 0.74630 0.62046 0.50481
 C458 C 0.74650 0.63806 0.49023
 C459 C 0.76184 0.63809 0.47470
 C460 C 0.77754 0.62065 0.47346
 C461 C 0.77741 0.60312 0.48810
 C462 C 0.76194 0.60297 0.50352
 C463 C 0.79392 0.62075 0.45694
 C464 C 0.80103 0.59977 0.44799
 C465 C 0.81637 0.59989 0.43245
 C466 C 0.82485 0.62099 0.42533
 C467 C 0.81771 0.64197 0.43424
 C468 C 0.80252 0.64184 0.44991
 H469 H 0.75120 0.60797 0.54445
 H470 H 0.72418 0.60774 0.57129
 H471 H 0.67725 0.63318 0.52947
 H472 H 0.70403 0.63272 0.50247
 H473 H 0.73491 0.65200 0.49089
 H474 H 0.76125 0.65168 0.46355
 H475 H 0.78941 0.58959 0.48779
 H476 H 0.76212 0.58897 0.51432
 H477 H 0.79457 0.58321 0.45282
 H478 H 0.82170 0.58339 0.42614
 H479 H 0.82366 0.65856 0.42897
 H480 H 0.79767 0.65832 0.45662
 C481 C 0.77362 0.37907 0.01754
 C482 C 0.76774 0.38745 0.03692
 C483 C 0.78220 0.38686 0.05296
 C484 C 0.80280 0.37763 0.05006
 C485 C 0.80874 0.36930 0.03072
 C486 C 0.79437 0.37013 0.01462
 C487 C 0.75810 0.37941 0.00053
 C488 C 0.75752 0.36113 -0.01388
 C489 C 0.74278 0.36127 -0.02970
 C490 C 0.72807 0.37958 -0.03141
 C491 C 0.72869 0.39788 -0.01703
 C492 C 0.74357 0.39785 -0.00132
 C493 C 0.71203 0.37945 -0.04798
 C494 C 0.70600 0.40028 -0.05723
 C495 C 0.69066 0.40017 -0.07254
 C496 C 0.68109 0.37920 -0.07914
 C497 C 0.68728 0.35834 -0.07003
 C498 C 0.70246 0.35848 -0.05459
 H499 H 0.75179 0.39405 0.03985
 H500 H 0.77704 0.39315 0.06774
 H501 H 0.82459 0.36238 0.02793
 H502 H 0.79961 0.36396 -0.00017
 H503 H 0.76826 0.34648 -0.01281
 H504 H 0.74300 0.34705 -0.04065
 H505 H 0.71745 0.41212 -0.01770
 H506 H 0.74374 0.41238 0.00931
 H507 H 0.71323 0.41672 -0.05274
 H508 H 0.68610 0.41660 -0.07903
 H509 H 0.68048 0.34182 -0.07491
 H510 H 0.70647 0.34213 -0.04765
 C511 C 0.22990 0.88335 0.48012
 C512 C 0.20883 0.87550 0.48363
 C513 C 0.19389 0.87486 0.46797
 C514 C 0.19957 0.88235 0.44850
 C515 C 0.22048 0.89058 0.44501
 C516 C 0.23551 0.89094 0.46060
 C517 C 0.24601 0.88332 0.49664
 C518 C 0.26167 0.90096 0.49810
 C519 C 0.27700 0.90065 0.51341
 C520 C 0.27696 0.88282 0.52779
 C521 C 0.26116 0.86533 0.52644
 C522 C 0.24598 0.86549 0.51101
 C523 C 0.29333 0.88239 0.54406
 C524 C 0.30162 0.86114 0.55070
 C525 C 0.31681 0.86067 0.56612
 C526 C 0.32432 0.88146 0.57515
 C527 C 0.31617 0.90273 0.56840
 C528 C 0.30080 0.90319 0.55313
 H529 H 0.20377 0.87001 0.49854
 H530 H 0.17781 0.86873 0.47120
 H531 H 0.22542 0.89621 0.43011
 H532 H 0.25167 0.89670 0.45721
 H533 H 0.26202 0.91514 0.48750
 H534 H 0.28907 0.91425 0.51380
 H535 H 0.26039 0.85152 0.53741
 H536 H 0.23439 0.85143 0.51021
 H537 H 0.29652 0.84479 0.54388
 H538 H 0.32247 0.84395 0.57111
 H539 H 0.32178 0.91910 0.57480
 H540 H 0.29459 0.91986 0.54861
   
