data_POSCAR
  _audit_creation_date              2014-09-24
  _audit_creation_method            'ToBaCCo'
  _symmetry_space_group_name_H-M    'P1'
  _symmetry_Int_Tables_number       1
  _symmetry_cell_setting            triclinic
  loop_
  _symmetry_equiv_pos_as_xyz
 x,y,z
_cell_length_a 37.7271
_cell_length_b 21.9848
_cell_length_c 13.6713
_cell_angle_alpha 89.985600
_cell_angle_beta 89.802100
_cell_angle_gamma 90.279500
loop_
  _atom_site_label
  _atom_site_type_symbol
  _atom_site_fract_x
  _atom_site_fract_y
  _atom_site_fract_z
C1 C 0.75050 0.24940 0.54661
 C2 C 0.75085 0.24913 0.44685
 C3 C 0.78120 0.22397 0.39063
 C4 C 0.72086 0.27398 0.38968
 C5 C 0.72172 0.27933 0.60294
 C6 C 0.77882 0.21966 0.60417
 C7 C 0.81589 0.24539 0.40620
 C8 C 0.84448 0.21889 0.35709
 C9 C 0.83865 0.17109 0.29107
 C10 C 0.80398 0.15079 0.27320
 C11 C 0.77541 0.17728 0.32243
 C12 C 0.72690 0.32112 0.32228
 C13 C 0.69850 0.34777 0.27317
 C14 C 0.66385 0.32719 0.29038
 C15 C 0.65777 0.27892 0.35521
 C16 C 0.68615 0.25220 0.40428
 C17 C 0.70203 0.24562 0.67156
 C18 C 0.67391 0.27252 0.72204
 C19 C 0.66540 0.33351 0.70500
 C20 C 0.68549 0.36783 0.63845
 C21 C 0.71365 0.34099 0.58798
 C22 C 0.78692 0.15793 0.59010
 C23 C 0.81477 0.13127 0.64150
 C24 C 0.83449 0.16586 0.70808
 C25 C 0.82591 0.22690 0.72435
 C26 C 0.79810 0.25363 0.67293
 H27 H 0.82082 0.28206 0.45732
 H28 H 0.87108 0.23546 0.37137
 H29 H 0.79895 0.11405 0.22209
 H30 H 0.74885 0.16037 0.30916
 H31 H 0.75349 0.33832 0.30984
 H32 H 0.70349 0.38494 0.22284
 H33 H 0.68104 0.21524 0.45486
 H34 H 0.70798 0.19814 0.68443
 H35 H 0.65862 0.24564 0.77367
 H36 H 0.67926 0.41517 0.62518
 H37 H 0.72894 0.36803 0.53662
 H38 H 0.77192 0.13073 0.53861
 H39 H 0.82108 0.08389 0.62883
 H40 H 0.84095 0.25397 0.77599
 H41 H 0.79209 0.30116 0.68510
 H42 H 0.63109 0.26241 0.36859
 C43 C 0.24981 0.75043 0.45187
 C44 C 0.25005 0.75035 0.55165
 C45 C 0.21997 0.77484 0.60952
 C46 C 0.28035 0.72567 0.60807
 C47 C 0.27864 0.72185 0.39408
 C48 C 0.22072 0.77899 0.39535
 C49 C 0.22613 0.82084 0.67872
 C50 C 0.19793 0.84583 0.73132
 C51 C 0.16334 0.82471 0.71589
 C52 C 0.15710 0.77780 0.64875
 C53 C 0.18531 0.75270 0.59615
 C54 C 0.31502 0.74758 0.59304
 C55 C 0.34336 0.72251 0.64466
 C56 C 0.33729 0.67582 0.71251
 C57 C 0.30272 0.65486 0.72944
 C58 C 0.27438 0.67982 0.67783
 C59 C 0.28750 0.66043 0.40776
 C60 C 0.31547 0.63473 0.35503
 C61 C 0.33457 0.66995 0.28750
 C62 C 0.32531 0.73074 0.27185
 C63 C 0.29737 0.75651 0.32459
 C64 C 0.20201 0.74448 0.32596
 C65 C 0.17406 0.77030 0.27381
 C66 C 0.16471 0.83102 0.28990
 C67 C 0.18372 0.86607 0.35753
 C68 C 0.21171 0.84031 0.40968
 H69 H 0.25269 0.83822 0.69043
 H70 H 0.20303 0.88209 0.78312
 H71 H 0.13044 0.76102 0.63646
 H72 H 0.18012 0.71647 0.54442
 H73 H 0.32010 0.78370 0.54091
 H74 H 0.37000 0.73920 0.63120
 H75 H 0.24783 0.66258 0.69086
 H76 H 0.27293 0.63267 0.45972
 H77 H 0.32232 0.58754 0.36732
 H78 H 0.33987 0.75832 0.21959
 H79 H 0.29077 0.80382 0.31265
 H80 H 0.20871 0.69726 0.31346
 H81 H 0.15960 0.74283 0.22149
 H82 H 0.17682 0.91321 0.37019
 H83 H 0.22624 0.86801 0.46149
 H84 H 0.29771 0.61879 0.78180
 C85 C 0.24945 0.24966 -0.45119
 C86 C 0.24964 0.24997 -0.55098
 C87 C 0.27897 0.27839 -0.60795
 C88 C 0.22054 0.22181 -0.60835
 C89 C 0.21907 0.22480 -0.39411
 C90 C 0.27965 0.27414 -0.39377
 C91 C 0.28846 0.33964 -0.59368
 C92 C 0.31668 0.36526 -0.64618
 C93 C 0.33549 0.33013 -0.71419
 C94 C 0.32563 0.26944 -0.73023
 C95 C 0.29743 0.24381 -0.67767
 C96 C 0.20212 0.25681 -0.67726
 C97 C 0.17398 0.23144 -0.72980
 C98 C 0.16419 0.17063 -0.71453
 C99 C 0.18300 0.13508 -0.64745
 C100 C 0.21115 0.16044 -0.59496
 C101 C 0.22492 0.17897 -0.32453
 C102 C 0.19657 0.15417 -0.27164
 C103 C 0.16207 0.17528 -0.28713
 C104 C 0.15614 0.22191 -0.35500
 C105 C 0.18452 0.24680 -0.40785
 C106 C 0.31420 0.25204 -0.40764
 C107 C 0.34247 0.27690 -0.35494
 C108 C 0.33639 0.32352 -0.28722
 C109 C 0.30191 0.34466 -0.27144
 C110 C 0.27366 0.31991 -0.32413
 H111 H 0.27412 0.36739 -0.54160
 H112 H 0.32388 0.41238 -0.63336
 H113 H 0.33985 0.24175 -0.78276
 H114 H 0.29036 0.19664 -0.69013
 H115 H 0.20914 0.30409 -0.68897
 H116 H 0.15975 0.25943 -0.78164
 H117 H 0.22547 0.13241 -0.54347
 H118 H 0.25139 0.16170 -0.31246
 H119 H 0.20158 0.11815 -0.21939
 H120 H 0.12961 0.23883 -0.36758
 H121 H 0.17956 0.28293 -0.45981
 H122 H 0.31925 0.21597 -0.45970
 H123 H 0.36905 0.26012 -0.36751
 H124 H 0.29693 0.38070 -0.21921
 H125 H 0.24718 0.33725 -0.31202
 H126 H 0.17583 0.08786 -0.63526
 C127 C -0.25037 0.74965 -0.45138
 C128 C -0.25050 0.74985 -0.55113
 C129 C -0.22041 0.77553 -0.60812
 C130 C -0.28068 0.72435 -0.60763
 C131 C -0.27889 0.71932 -0.39413
 C132 C -0.22170 0.77969 -0.39471
 C133 C -0.22638 0.82272 -0.67513
 C134 C -0.19795 0.84994 -0.72452
 C135 C -0.16329 0.82984 -0.70795
 C136 C -0.15729 0.78153 -0.64333
 C137 C -0.18573 0.75428 -0.59403
 C138 C -0.31542 0.74511 -0.59198
 C139 C -0.34384 0.71835 -0.64158
 C140 C -0.33779 0.67099 -0.70810
 C141 C -0.30309 0.65132 -0.72601
 C142 C -0.27468 0.67805 -0.67633
 C143 C -0.28702 0.65755 -0.40875
 C144 C -0.31505 0.63032 -0.35766
 C145 C -0.33494 0.66444 -0.29076
 C146 C -0.32630 0.72558 -0.27397
 C147 C -0.29831 0.75281 -0.32512
 C148 C -0.20223 0.74590 -0.32648
 C149 C -0.17420 0.77291 -0.27564
 C150 C -0.16556 0.83409 -0.29192
 C151 C -0.18544 0.86848 -0.35806
 C152 C -0.21350 0.84152 -0.40888
 H153 H -0.25296 0.83949 -0.68719
 H154 H -0.20299 0.88710 -0.77463
 H155 H -0.13065 0.76525 -0.63027
 H156 H -0.18068 0.71726 -0.54377
 H157 H -0.32052 0.78148 -0.54049
 H158 H -0.37050 0.73431 -0.62740
 H159 H -0.24807 0.66164 -0.68968
 H160 H -0.27191 0.63072 -0.46045
 H161 H -0.32131 0.58287 -0.37093
 H162 H -0.34139 0.75244 -0.22215
 H163 H -0.29227 0.80038 -0.31255
 H164 H -0.20828 0.69829 -0.31420
 H165 H -0.15907 0.74597 -0.22437
 H166 H -0.17911 0.91596 -0.37076
 H167 H -0.22863 0.86861 -0.45991
 H168 H -0.29798 0.61491 -0.77753
 O169 O -0.04996 0.89565 0.18257
 O170 O -0.08905 0.95063 0.08956
 C171 C -0.08173 0.91136 0.15706
 O172 O 0.05028 1.11217 0.17194
 O173 O 0.08887 1.05420 0.08155
 C174 C 0.08190 1.09574 0.14577
 O175 O -0.04903 1.10796 0.18241
 O176 O -0.08839 1.05282 0.08981
 C177 C -0.08088 1.09216 0.15720
 O178 O 0.04968 0.89148 0.17323
 O179 O 0.08864 0.94939 0.08264
 C180 C 0.08142 0.90796 0.14715
 Zr181 Zr -0.00021 0.92473 0.12636
 O182 O 0.00372 0.92469 0.28080
 O183 O -0.00412 0.82862 0.12519
 Zr184 Zr 0.00029 1.07865 0.12518
 O185 O 0.00431 1.08005 0.27957
 O186 O -0.00320 1.17474 0.12134
 O187 O -0.03155 1.00172 0.14590
 O188 O 0.03076 1.00175 0.14290
 O189 O 0.04901 0.89010 -0.16853
 O190 O 0.08834 0.94863 -0.08113
 C191 C 0.08084 0.90646 -0.14397
 O192 O -0.05044 1.10581 -0.17619
 O193 O -0.08934 1.05110 -0.08039
 C194 C -0.08215 1.08969 -0.14927
 O195 O 0.04902 1.11244 -0.17103
 O196 O 0.08813 1.05448 -0.08312
 C197 C 0.08078 1.09629 -0.14660
 O198 O -0.05024 0.89544 -0.17632
 O199 O -0.08893 0.94994 -0.08099
 C200 C -0.08188 0.91130 -0.14968
 Zr201 Zr -0.00057 0.92418 -0.12055
 O202 O 0.00320 0.92294 -0.27507
 O203 O -0.00482 0.82811 -0.11731
 Zr204 Zr -0.00044 1.07800 -0.12173
 O205 O 0.00314 1.07791 -0.27633
 O206 O -0.00430 1.17405 -0.12066
 Zr207 Zr -0.05311 1.00129 0.00379
 Zr208 Zr 0.05260 1.00145 0.00095
 O209 O 0.03023 1.00113 -0.13986
 O210 O -0.03213 1.00093 -0.13946
 O211 O 0.03129 0.91259 0.00227
 O212 O -0.03093 1.08932 0.00250
 O213 O -0.03130 0.91335 0.00363
 O214 O 0.03169 1.09025 0.00077
 H215 H 0.04669 1.00192 0.20036
 H216 H -0.04693 1.12493 0.00249
 H217 H 0.04603 1.00097 -0.19789
 H218 H -0.04743 0.87765 0.00393
 H219 H 0.01779 1.19028 0.08547
 H220 H 0.01587 1.18999 -0.08225
 H221 H -0.01667 1.05285 -0.30142
 H222 H -0.01564 0.94962 -0.30069
 H223 H 0.01566 0.81246 -0.08020
 H224 H 0.01634 0.81292 0.08767
 H225 H -0.01590 0.94972 0.30662
 H226 H -0.01459 1.05327 0.30581
 O227 O 0.55000 0.39435 -0.17919
 O228 O 0.58878 0.44879 -0.08379
 C229 C 0.58168 0.41028 -0.15268
 O230 O 0.45172 0.61083 -0.17231
 O231 O 0.41220 0.55264 -0.08435
 C232 C 0.41984 0.59460 -0.14763
 O233 O 0.55115 0.60454 -0.17794
 O234 O 0.58964 0.54982 -0.08263
 C235 C 0.58274 0.58850 -0.15127
 O236 O 0.45080 0.38815 -0.17032
 O237 O 0.41154 0.44679 -0.08316
 C238 C 0.41899 0.40459 -0.14598
 Zr239 Zr 0.50036 0.42236 -0.12224
 O240 O 0.49741 0.41802 -0.27662
 O241 O 0.50184 0.32660 -0.10975
 Zr242 Zr 0.50091 0.57637 -0.12351
 O243 O 0.49760 0.57606 -0.27811
 O244 O 0.50520 0.67242 -0.12271
 O245 O 0.53224 0.49936 -0.14145
 O246 O 0.46998 0.49931 -0.14160
 O247 O 0.44949 0.38884 0.17027
 O248 O 0.41091 0.44730 0.08101
 C249 C 0.41785 0.40553 0.14492
 O250 O 0.54905 0.60615 0.18065
 O251 O 0.58837 0.55135 0.08769
 C252 C 0.58087 0.59054 0.15528
 O253 O 0.44981 0.60993 0.17065
 O254 O 0.41113 0.55153 0.08098
 C255 C 0.41816 0.59322 0.14495
 O256 O 0.54914 0.39359 0.17964
 O257 O 0.58862 0.44919 0.08704
 C258 C 0.58101 0.40964 0.15422
 Zr259 Zr 0.49960 0.42281 0.12409
 O260 O 0.49542 0.42293 0.27858
 O261 O 0.50246 0.32669 0.12288
 Zr262 Zr 0.49974 0.57677 0.12342
 O263 O 0.49544 0.57815 0.27782
 O264 O 0.50366 0.67288 0.11961
 Zr265 Zr 0.55305 0.49977 0.00157
 Zr266 Zr 0.44733 0.49957 -0.00077
 O267 O 0.46893 0.49968 0.14106
 O268 O 0.53121 0.49993 0.14377
 O269 O 0.46819 0.41086 0.00031
 O270 O 0.53123 0.58770 0.00061
 O271 O 0.53099 0.41168 0.00133
 O272 O 0.46862 0.58843 -0.00080
 H273 H 0.45433 0.49911 -0.19965
 H274 H 0.54738 0.62338 0.00066
 H275 H 0.45292 0.49960 0.19865
 H276 H 0.54699 0.37607 0.00136
 H277 H 0.48526 0.68828 -0.08326
 H278 H 0.48269 0.68838 0.08446
 H279 H 0.51395 0.55096 0.30389
 H280 H 0.51540 0.44737 0.30429
 H281 H 0.48495 0.31190 0.07456
 H282 H 0.50200 0.31068 -0.17755
 H283 H 0.51397 0.44904 -0.30273
 H284 H 0.51771 0.55195 -0.30336
 C285 C 0.36349 0.35480 0.23634
 C286 C 0.38835 0.37728 0.19371
 C287 C -0.13550 0.85762 0.24628
 C288 C -0.11090 0.88229 0.20584
 C289 C 0.63445 0.64373 0.24553
 C290 C 0.60994 0.61941 0.20455
 C291 C 0.13620 1.14624 0.23632
 C292 C 0.11136 1.12392 0.19407
 C293 C 0.63586 0.36062 -0.24481
 C294 C 0.61105 0.38321 -0.20285
 C295 C 0.13420 0.85247 -0.23316
 C296 C 0.10983 0.87667 -0.19167
 C297 C 0.36654 0.64829 -0.23699
 C298 C 0.39092 0.62425 -0.19558
 C299 C -0.13616 1.13902 -0.24129
 C300 C -0.11145 1.11660 -0.19922
 C301 C 0.63710 0.63852 -0.24308
 C302 C 0.61224 0.61574 -0.20113
 C303 C 0.13435 1.14945 -0.23800
 C304 C 0.10988 1.12569 -0.19547
 C305 C 0.36559 0.35096 -0.23591
 C306 C 0.38998 0.37496 -0.19406
 C307 C -0.13607 0.86131 -0.24154
 C308 C -0.11128 0.88402 -0.19958
 C309 C 0.36401 0.64388 0.23553
 C310 C 0.38877 0.62138 0.19332
 C311 C -0.13456 1.14515 0.24700
 C312 C -0.10995 1.12097 0.20633
 C313 C 0.63453 0.35617 0.24260
 C314 C 0.61002 0.38065 0.20262
 C315 C 0.13537 0.85723 0.23800
 C316 C 0.11071 0.87978 0.19570
   
