data_POSCAR
  _audit_creation_date              2014-09-24
  _audit_creation_method            'ToBaCCo'
  _symmetry_space_group_name_H-M    'P1'
  _symmetry_Int_Tables_number       1
  _symmetry_cell_setting            triclinic
  loop_
  _symmetry_equiv_pos_as_xyz
 x,y,z
_cell_length_a 20.9660
_cell_length_b 20.8370
_cell_length_c 16.5632
_cell_angle_alpha 89.931800
_cell_angle_beta 90.018500
_cell_angle_gamma 94.087900
loop_
  _atom_site_label
  _atom_site_type_symbol
  _atom_site_fract_x
  _atom_site_fract_y
  _atom_site_fract_z
C1 C -0.16468 0.32478 0.00150
 C2 C -0.13532 0.30913 0.07456
 C3 C -0.07056 0.29502 0.07354
 C4 C -0.03482 0.29577 0.00088
 C5 C -0.06913 0.30190 -0.07195
 C6 C -0.13414 0.31394 -0.07225
 C7 C 0.03691 0.28987 0.00079
 C8 C 0.07162 0.28464 -0.07246
 C9 C 0.13859 0.28747 -0.07282
 C10 C 0.17188 0.29336 -0.00021
 C11 C 0.13939 0.29124 0.07308
 C12 C 0.07253 0.29076 0.07388
 H13 H -0.21517 0.33308 0.00137
 H14 H -0.04936 0.28273 0.13022
 H15 H -0.04678 0.29734 -0.12993
 H16 H 0.04836 0.27799 -0.13008
 H17 H 0.22354 0.29212 -0.00048
 H18 H 0.05005 0.29120 0.13230
 C19 C 0.32989 0.80034 0.49876
 C20 C 0.36186 0.79463 0.57208
 C21 C 0.42860 0.79249 0.57223
 C22 C 0.46450 0.79741 0.49933
 C23 C 0.42957 0.79867 0.42593
 C24 C 0.36278 0.79864 0.42565
 C25 C 0.53704 0.80036 0.49970
 C26 C 0.57278 0.79812 0.42688
 C27 C 0.63984 0.80565 0.42716
 C28 C 0.67219 0.81432 0.50035
 C29 C 0.63908 0.80989 0.57331
 C30 C 0.57213 0.80452 0.57309
 H31 H 0.27807 0.79841 0.49823
 H32 H 0.45075 0.78581 0.62996
 H33 H 0.45254 0.79899 0.36782
 H34 H 0.55018 0.78933 0.36920
 H35 H 0.72402 0.81651 0.50096
 H36 H 0.54918 0.80288 0.63122
 C37 C 1.16443 0.67520 -0.00140
 C38 C 1.13541 0.69057 0.07187
 C39 C 1.07072 0.70470 0.07131
 C40 C 1.03464 0.70443 -0.00108
 C41 C 1.06870 0.69902 -0.07421
 C42 C 1.13369 0.68662 -0.07494
 C43 C 0.96286 0.71011 -0.00031
 C44 C 0.92727 0.71495 -0.07302
 C45 C 0.86022 0.71253 -0.07217
 C46 C 0.82786 0.70678 0.00110
 C47 C 0.86130 0.70880 0.07376
 C48 C 0.92807 0.70940 0.07336
 H49 H 1.21489 0.66672 -0.00177
 H50 H 1.04991 0.71669 0.12825
 H51 H 1.04614 0.70446 -0.13196
 H52 H 0.94996 0.72101 -0.13109
 H53 H 0.77623 0.70813 0.00192
 H54 H 0.95104 0.70910 0.13147
 C55 C 0.67024 0.19898 0.50204
 C56 C 0.63802 0.20476 0.57516
 C57 C 0.57126 0.20700 0.57491
 C58 C 0.53564 0.20248 0.50174
 C59 C 0.57088 0.20111 0.42862
 C60 C 0.63761 0.20081 0.42875
 C61 C 0.46310 0.20007 0.50136
 C62 C 0.42790 0.20174 0.42803
 C63 C 0.36088 0.19446 0.42747
 C64 C 0.32795 0.18656 0.50026
 C65 C 0.36047 0.19167 0.57368
 C66 C 0.42746 0.19697 0.57436
 H67 H 0.72206 0.20080 0.50179
 H68 H 0.54886 0.21342 0.63250
 H69 H 0.54826 0.20107 0.37031
 H70 H 0.45083 0.20987 0.37045
 H71 H 0.27611 0.18441 0.49996
 H72 H 0.45001 0.19930 0.63275
 C73 C 0.68807 -0.16600 0.00398
 C74 C 0.70297 -0.13294 0.07603
 C75 C 0.71324 -0.06541 0.07386
 C76 C 0.70526 -0.03049 0.00143
 C77 C 0.69659 -0.06617 -0.07085
 C78 C 0.69141 -0.13349 -0.06986
 C79 C 0.70525 0.04198 0.00115
 C80 C 0.71287 0.07799 -0.07138
 C81 C 0.70260 0.14402 -0.07355
 C82 C 0.68832 0.17506 -0.00130
 C83 C 0.69175 0.14302 0.07261
 C84 C 0.69687 0.07643 0.07352
 H85 H 0.68430 -0.21819 0.00373
 H86 H 0.72717 -0.04096 0.12920
 H87 H 0.69454 -0.04299 -0.12895
 H88 H 0.72653 0.05552 -0.12681
 H89 H 0.68501 0.22679 -0.00103
 H90 H 0.69499 0.05293 0.13161
 C91 C 0.18923 0.31442 0.50032
 C92 C 0.19571 0.34787 0.57299
 C93 C 0.19950 0.41537 0.57240
 C94 C 0.19564 0.45048 0.49912
 C95 C 0.19376 0.41458 0.42624
 C96 C 0.19239 0.34729 0.42698
 C97 C 0.19538 0.52329 0.49852
 C98 C 0.19971 0.55896 0.42523
 C99 C 0.19581 0.62589 0.42440
 C100 C 0.18873 0.65833 0.49729
 C101 C 0.19061 0.62582 0.57094
 C102 C 0.19219 0.55873 0.57144
 H103 H 0.19015 0.26244 0.50056
 H104 H 0.20706 0.43887 0.62980
 H105 H 0.19440 0.43720 0.36778
 H106 H 0.20753 0.53651 0.36795
 H107 H 0.18944 0.71041 0.49717
 H108 H 0.19180 0.53597 0.62980
 C109 C 0.31266 1.16620 -0.00109
 C110 C 0.30318 1.13299 0.07176
 C111 C 0.29470 1.06560 0.07108
 C112 C 0.29523 1.03039 -0.00214
 C113 C 0.29596 1.06628 -0.07493
 C114 C 0.30322 1.13383 -0.07469
 C115 C 0.29555 0.95764 -0.00260
 C116 C 0.28905 0.92157 -0.07525
 C117 C 0.29882 0.85542 -0.07699
 C118 C 0.31267 0.82431 -0.00459
 C119 C 0.30857 0.85625 0.06913
 C120 C 0.30289 0.92273 0.06987
 H121 H 0.31655 1.21838 -0.00016
 H122 H 0.28611 1.04220 0.12845
 H123 H 0.29191 1.04318 -0.13301
 H124 H 0.27669 0.94367 -0.13139
 H125 H 0.31598 0.77258 -0.00415
 H126 H 0.30309 0.94537 0.12826
 C127 C 0.81032 0.68552 0.50276
 C128 C 0.80209 0.65185 0.57525
 C129 C 0.79791 0.58434 0.57452
 C130 C 0.80369 0.54950 0.50146
 C131 C 0.80766 0.58559 0.42865
 C132 C 0.80892 0.65289 0.42935
 C133 C 0.80389 0.47674 0.50096
 C134 C 0.79915 0.44114 0.42774
 C135 C 0.80346 0.37425 0.42693
 C136 C 0.81071 0.34177 0.49988
 C137 C 0.80894 0.37421 0.57351
 C138 C 0.80753 0.44131 0.57392
 H139 H 0.80950 0.73750 0.50282
 H140 H 0.78859 0.56050 0.63147
 H141 H 0.80882 0.56303 0.37028
 H142 H 0.79064 0.46373 0.37062
 H143 H 0.81011 0.28970 0.49984
 H144 H 0.80857 0.46419 0.63220
 O145 O 0.23087 0.30829 0.15537
 O146 O 0.34210 0.25254 0.30747
 O147 O 0.31543 0.22622 0.15437
 O148 O 0.25260 0.33249 0.30834
 O149 O 0.18123 0.25462 0.34468
 O150 O 0.24427 0.14854 0.19153
 O151 O 0.26920 0.17646 0.34459
 O152 O 0.15789 0.23195 0.19182
 Cu153 Cu 0.29266 0.28755 0.22810
 Cu154 Cu 0.20610 0.19488 0.27139
 C155 C 0.17657 0.27833 0.14576
 C156 C 0.32336 0.20687 0.35447
 C157 C 0.28857 0.17016 0.14448
 C158 C 0.20767 0.31074 0.35449
 O159 O 0.65918 0.74882 0.30622
 O160 O 0.77179 0.68983 0.15842
 O161 O 0.74908 0.66835 0.31073
 O162 O 0.69191 0.77414 0.15271
 O163 O 0.75746 0.85421 0.19597
 O164 O 0.82173 0.74527 0.34607
 O165 O 0.84294 0.76884 0.19183
 O166 O 0.73300 0.82260 0.34698
 Cu167 Cu 0.71014 0.71288 0.22912
 Cu168 Cu 0.79608 0.80552 0.27347
 C169 C 0.67811 0.79328 0.35480
 C170 C 0.82505 0.72130 0.14715
 C171 C 0.79446 0.68953 0.35648
 C172 C 0.71660 0.83138 0.14508
 O173 O 0.84393 0.25661 0.19599
 O174 O 0.72805 0.18956 0.34591
 O175 O 0.75048 0.16679 0.19243
 O176 O 0.81363 0.28151 0.34655
 O177 O 0.74795 0.35229 0.30315
 O178 O 0.67996 0.23474 0.15437
 O179 O 0.65907 0.25888 0.30726
 O180 O 0.77228 0.31970 0.14953
 Cu181 Cu 0.79100 0.21671 0.27348
 Cu182 Cu 0.70826 0.29884 0.22513
 C183 C 0.82656 0.29636 0.14354
 C184 C 0.67547 0.21521 0.35515
 C185 C 0.70596 0.18206 0.14545
 C186 C 0.78927 0.33532 0.35359
 O187 O 0.25163 0.64758 0.30077
 O188 O 0.32020 0.76454 0.15135
 O189 O 0.34132 0.74041 0.30436
 O190 O 0.22794 0.67973 0.14667
 O191 O 0.15647 0.74295 0.19309
 O192 O 0.27258 0.81007 0.34245
 O193 O 0.24979 0.83267 0.18891
 O194 O 0.18630 0.71874 0.34379
 Cu195 Cu 0.29183 0.70057 0.22245
 Cu196 Cu 0.20938 0.78310 0.27028
 C197 C 0.21033 0.66479 0.35103
 C198 C 0.29423 0.81721 0.14203
 C199 C 0.32506 0.78425 0.35194
 C200 C 0.17371 0.70317 0.14071
 O201 O 0.82053 0.28205 0.65451
 O202 O 0.75715 0.16504 0.80652
 O203 O 0.73010 0.19469 0.65584
 O204 O 0.84546 0.26069 0.80715
 O205 O 0.77506 0.32624 0.85125
 O206 O 0.66041 0.26204 0.69749
 O207 O 0.69119 0.23531 0.84988
 O208 O 0.75355 0.35197 0.69682
 Cu209 Cu 0.79514 0.21864 0.72764
 Cu210 Cu 0.71278 0.30078 0.77702
 C211 C 0.79567 0.33549 0.64712
 C212 C 0.71604 0.18168 0.85733
 C213 C 0.67684 0.21956 0.64818
 C214 C 0.82858 0.30186 0.85825
 O215 O 0.24385 0.83461 0.80335
 O216 O 0.17935 0.71795 0.65183
 O217 O 0.15421 0.73999 0.80434
 O218 O 0.26982 0.80509 0.65256
 O219 O 0.33918 0.73740 0.69449
 O220 O 0.22424 0.67394 0.84840
 O221 O 0.24605 0.64769 0.69420
 O222 O 0.30936 0.76387 0.84687
 Cu223 Cu 0.20496 0.78143 0.72470
 Cu224 Cu 0.28685 0.69873 0.77421
 C225 C 0.28500 0.81774 0.85408
 C226 C 0.20401 0.66441 0.64448
 C227 C 0.17090 0.69865 0.85546
 C228 C 0.32292 0.77994 0.64501
 O229 O 0.26795 0.17419 0.65418
 O230 O 0.15824 0.22699 0.80967
 O231 O 0.18357 0.25534 0.65635
 O232 O 0.24910 0.14652 0.80553
 O233 O 0.31361 0.22716 0.84973
 O234 O 0.25596 0.33244 0.69164
 O235 O 0.22867 0.30655 0.84302
 O236 O 0.34177 0.24813 0.69491
 Cu237 Cu 0.20704 0.19316 0.72854
 Cu238 Cu 0.29259 0.28628 0.77295
 C239 C 0.32274 0.20348 0.64643
 C240 C 0.17562 0.27452 0.85438
 C241 C 0.21091 0.31111 0.64567
 C242 C 0.28989 0.16961 0.85649
 O243 O 0.74179 0.66698 0.69420
 O244 O 0.67889 0.77353 0.84762
 O245 O 0.65699 0.75173 0.69323
 O246 O 0.76798 0.69601 0.84608
 O247 O 0.84098 0.77213 0.80928
 O248 O 0.73004 0.82799 0.65680
 O249 O 0.75036 0.85111 0.81082
 O250 O 0.81315 0.74471 0.65766
 Cu251 Cu 0.70421 0.71425 0.77366
 Cu252 Cu 0.79092 0.80675 0.73044
 C253 C 0.78639 0.68863 0.64767
 C254 C 0.70556 0.82957 0.85734
 C255 C 0.67595 0.79775 0.64668
 C256 C 0.82238 0.72604 0.85565
   
