data_POSCAR
  _audit_creation_date              2014-09-24
  _audit_creation_method            'ToBaCCo'
  _symmetry_space_group_name_H-M    'P1'
  _symmetry_Int_Tables_number       1
  _symmetry_cell_setting            triclinic
  loop_
  _symmetry_equiv_pos_as_xyz
 x,y,z
_cell_length_a 43.0375
_cell_length_b 43.3979
_cell_length_c 43.6467
_cell_angle_alpha 90.038900
_cell_angle_beta 90.073500
_cell_angle_gamma 89.788300
loop_
  _atom_site_label
  _atom_site_type_symbol
  _atom_site_fract_x
  _atom_site_fract_y
  _atom_site_fract_z
N1 N 0.36451 0.35663 1.35015
 N2 N 1.14296 0.64969 0.85743
 N3 N 0.64339 -0.14414 0.14517
 N4 N -0.14953 1.14367 -0.35300
 N5 N 0.65027 0.64776 0.64313
 N6 N 0.84948 0.35475 0.15443
 N7 N 0.35037 0.15184 0.84775
 N8 N 0.14072 0.84797 0.35177
 Zn9 Zn 0.00247 1.04231 -0.01625
 Zn10 Zn -0.02632 0.97996 -0.02285
 Zn11 Zn 0.03687 0.98672 0.00531
 Zn12 Zn -0.01870 1.00878 0.03922
 O13 O -0.00147 1.00438 0.00129
 O14 O -0.01842 1.04544 -0.05139
 O15 O -0.00661 0.94570 -0.03589
 O16 O 0.06763 1.01094 -0.00804
 O17 O -0.03960 0.99942 -0.05692
 O18 O 0.04186 1.05158 -0.02536
 O19 O 0.04023 0.95177 -0.01590
 O20 O 0.00539 0.99415 0.06938
 O21 O -0.06072 0.96730 -0.00313
 O22 O 0.04621 0.97662 0.04400
 O23 O -0.05454 0.98861 0.04254
 O24 O -0.02728 1.04797 0.04879
 O25 O -0.01176 1.07296 0.00750
 C26 C -0.03499 1.02666 -0.06650
 C27 C 0.02116 0.93644 -0.03196
 C28 C 0.06717 1.03716 -0.02089
 C29 C 0.03160 0.98071 0.06891
 C30 C -0.07012 0.97219 0.02405
 C31 C -0.02377 1.07291 0.03405
 Zn32 Zn 0.48993 -0.03881 0.47920
 Zn33 Zn 0.51238 -0.00771 0.53565
 Zn34 Zn 0.52134 0.02234 0.47439
 Zn35 Zn 0.45783 0.01757 0.50207
 O36 O 0.49542 -0.00159 0.49778
 O37 O 0.50353 -0.07056 0.50179
 O38 O 0.54868 0.01152 0.53993
 O39 O 0.53389 0.00331 0.43980
 O40 O 0.52014 -0.04740 0.54378
 O41 O 0.51042 -0.04173 0.44394
 O42 O 0.55605 0.03323 0.49467
 O43 O 0.45621 0.05356 0.48235
 O44 O 0.48844 0.00628 0.56620
 O45 O 0.50323 0.05776 0.46240
 O46 O 0.44862 0.02639 0.54106
 O47 O 0.42610 -0.00493 0.48776
 O48 O 0.45014 -0.04648 0.47018
 C49 C 0.51595 -0.07170 0.52816
 C50 C 0.56496 0.02774 0.52190
 C51 C 0.52795 -0.02341 0.42945
 C52 C 0.47608 0.06845 0.46687
 C53 C 0.46270 0.02062 0.56596
 C54 C 0.42544 -0.03108 0.47473
 Zn55 Zn 1.01320 0.45650 0.48629
 Zn56 Zn 1.04477 0.51253 0.51017
 Zn57 Zn 0.98161 0.51780 0.48141
 Zn58 Zn 0.98966 0.48748 0.54258
 O59 O 1.00727 0.49363 0.50507
 O60 O 1.05310 0.44881 0.47778
 O61 O 1.04658 0.54854 0.49059
 O62 O 0.96914 0.49885 0.44684
 O63 O 1.07677 0.49014 0.49592
 O64 O 0.99353 0.45404 0.45043
 O65 O 1.00001 0.55298 0.46949
 O66 O 0.95318 0.50688 0.54639
 O67 O 1.05344 0.52105 0.54941
 O68 O 0.94682 0.52910 0.50120
 O69 O 1.01304 0.50134 0.57360
 O70 O 0.98205 0.44775 0.55033
 O71 O 0.99934 0.42461 0.50852
 C72 C 1.07767 0.46418 0.48252
 C73 C 1.02709 0.56346 0.47450
 C74 C 0.97580 0.47244 0.43606
 C75 C 0.93734 0.52348 0.52817
 C76 C 1.03882 0.51543 0.57400
 C77 C 0.98658 0.42346 0.53472
 Zn78 Zn 0.48215 0.49878 0.95776
 Zn79 Zn 0.47688 0.52626 1.02043
 Zn80 Zn 0.50815 0.46487 1.01124
 Zn81 Zn 0.53872 0.52190 0.98928
 O82 O 0.50140 0.50299 0.99475
 O83 O 0.44557 0.51806 0.95642
 O84 O 0.46642 0.50567 1.05469
 O85 O 0.49435 0.43415 0.98746
 O86 O 0.44083 0.53801 1.00281
 O87 O 0.47397 0.45952 0.94832
 O88 O 0.48900 0.46039 1.04719
 O89 O 0.57095 0.49958 1.00276
 O90 O 0.49568 0.56121 1.03280
 O91 O 0.54833 0.45692 1.01872
 O92 O 0.54112 0.55747 1.00944
 O93 O 0.54663 0.53069 0.95002
 O94 O 0.50441 0.51389 0.92657
 C95 C 0.43021 0.53341 0.97601
 C96 C 0.47253 0.47838 1.06344
 C97 C 0.48003 0.43444 0.96204
 C98 C 0.57255 0.47302 1.01477
 C99 C 0.52248 0.57186 1.02686
 C100 C 0.53091 0.52662 0.92574
 C101 C 1.28132 0.38805 0.39425
 C102 C 1.29074 0.35705 0.39639
 C103 C 1.31776 0.34679 0.38189
 C104 C 1.33656 0.36735 0.36535
 C105 C 1.32750 0.39847 0.36369
 C106 C 1.30011 0.40863 0.37769
 C107 C 1.25181 0.39869 0.40877
 C108 C 1.24902 0.42866 0.42079
 C109 C 1.22103 0.43882 0.43360
 C110 C 1.19519 0.41912 0.43522
 C111 C 1.19820 0.38896 0.42375
 C112 C 1.22598 0.37900 0.41045
 C113 C 1.16506 0.43012 0.44814
 C114 C 1.13672 0.41955 0.43601
 C115 C 1.10843 0.43009 0.44772
 C116 C 1.10772 0.45193 0.47144
 C117 C 1.13591 0.46259 0.48365
 C118 C 1.16426 0.45160 0.47233
 H119 H 1.27732 0.34059 0.40941
 H120 H 1.32382 0.32262 0.38347
 H121 H 1.34155 0.41497 0.35138
 H122 H 1.29346 0.43256 0.37505
 H123 H 1.26850 0.44436 0.42042
 H124 H 1.21958 0.46233 0.44177
 H125 H 1.17909 0.37288 0.42505
 H126 H 1.22693 0.35594 0.40105
 H127 H 1.13626 0.40360 0.41695
 H128 H 1.08707 0.42173 0.43760
 H129 H 1.13603 0.47930 0.50209
 H130 H 1.18552 0.45984 0.48270
 C131 C 0.22184 0.61459 0.90544
 C132 C 0.19647 0.59535 0.89870
 C133 C 0.17029 0.60700 0.88360
 C134 C 0.16890 0.63812 0.87502
 C135 C 0.19363 0.65764 0.88271
 C136 C 0.21988 0.64600 0.89768
 C137 C 0.25092 0.60170 0.91881
 C138 C 0.26851 0.61863 0.94011
 C139 C 0.29704 0.60734 0.95078
 C140 C 0.30859 0.57886 0.94038
 C141 C 0.29052 0.56153 0.91984
 C142 C 0.26211 0.57283 0.90912
 C143 C 0.33986 0.56768 0.94984
 C144 C 0.35938 0.55326 0.92836
 C145 C 0.38866 0.54240 0.93692
 C146 C 0.39933 0.54578 0.96718
 C147 C 0.38003 0.56055 0.98867
 C148 C 0.35058 0.57140 0.98008
 H149 H 0.19698 0.57119 0.90486
 H150 H 0.15125 0.59170 0.87816
 H151 H 0.19303 0.68169 0.87615
 H152 H 0.23911 0.66138 0.90212
 H153 H 0.26037 0.64077 0.94833
 H154 H 0.31046 0.62132 0.96647
 H155 H 0.29850 0.53927 0.91177
 H156 H 0.24938 0.55932 0.89249
 H157 H 0.35214 0.55062 0.90474
 H158 H 0.40297 0.53134 0.91970
 H159 H 0.38754 0.56345 1.01218
 H160 H 0.33600 0.58222 0.99721
 C161 C -0.27246 0.88861 0.10506
 C162 C -0.29745 0.87936 0.08644
 C163 C -0.32519 0.86913 0.09957
 C164 C -0.32849 0.86780 0.13156
 C165 C -0.30365 0.87730 0.15015
 C166 C -0.27605 0.88772 0.13707
 C167 C -0.24265 0.89894 0.09134
 C168 C -0.21421 0.89115 0.10528
 C169 C -0.18621 0.90194 0.09336
 C170 C -0.18591 0.92055 0.06708
 C171 C -0.21418 0.92766 0.05255
 C172 C -0.24228 0.91706 0.06462
 C173 C -0.15625 0.93345 0.05570
 C174 C -0.14899 0.93317 0.02431
 C175 C -0.12086 0.94545 0.01391
 C176 C -0.09971 0.95860 0.03469
 C177 C -0.10716 0.95896 0.06604
 C178 C -0.13502 0.94642 0.07642
 H179 H -0.29538 0.87946 0.06172
 H180 H -0.34406 0.86196 0.08479
 H181 H -0.30547 0.87626 0.17486
 H182 H -0.25752 0.89520 0.15210
 H183 H -0.21355 0.87662 0.12542
 H184 H -0.16470 0.89569 0.10472
 H185 H -0.21460 0.94222 0.03240
 H186 H -0.26377 0.92376 0.05350
 H187 H -0.16491 0.92314 0.00790
 H188 H -0.11580 0.94489 -0.01038
 H189 H -0.09139 0.96888 0.08266
 H190 H -0.14019 0.94728 0.10068
 C191 C 0.76660 0.11050 0.60634
 C192 C 0.76989 0.11186 0.63838
 C193 C 0.79735 0.12253 0.65164
 C194 C 0.82236 0.13180 0.63323
 C195 C 0.81932 0.13007 0.60121
 C196 C 0.79172 0.11962 0.58790
 C197 C 0.73700 0.09975 0.59238
 C198 C 0.73705 0.08149 0.56572
 C199 C 0.70915 0.07070 0.55327
 C200 C 0.68068 0.07771 0.56737
 C201 C 0.68056 0.09635 0.59367
 C202 C 0.70835 0.10737 0.60594
 C203 C 0.65119 0.06491 0.55538
 C204 C 0.62959 0.05185 0.57560
 C205 C 0.60176 0.03967 0.56462
 C206 C 0.59472 0.04052 0.53317
 C207 C 0.61631 0.05364 0.51289
 C208 C 0.64439 0.06554 0.52389
 H209 H 0.75126 0.10451 0.65329
 H210 H 0.79894 0.12388 0.67636
 H211 H 0.83831 0.13701 0.58654
 H212 H 0.78989 0.11919 0.56317
 H213 H 0.75869 0.07488 0.55489
 H214 H 0.70989 0.05612 0.53313
 H215 H 0.65887 0.10252 0.60470
 H216 H 0.70736 0.12198 0.62603
 H217 H 0.63441 0.05074 0.59993
 H218 H 0.58565 0.02975 0.58086
 H219 H 0.61157 0.05458 0.48854
 H220 H 0.66061 0.07564 0.50786
 C221 C 0.40926 0.27614 0.38497
 C222 C 0.40177 0.27853 0.35367
 C223 C 0.38793 0.30528 0.34212
 C224 C 0.38112 0.33010 0.36163
 C225 C 0.38945 0.32823 0.39265
 C226 C 0.40342 0.30153 0.40422
 C227 C 0.42150 0.24672 0.39770
 C228 C 0.41097 0.23593 0.42620
 C229 C 0.42087 0.20743 0.43746
 C230 C 0.44142 0.18890 0.42046
 C231 C 0.45252 0.19995 0.39227
 C232 C 0.44267 0.22855 0.38101
 C233 C 0.45048 0.15785 0.43181
 C234 C 0.48103 0.14676 0.42839
 C235 C 0.48936 0.11761 0.43946
 C236 C 0.46732 0.09895 0.45421
 C237 C 0.43673 0.10995 0.45732
 C238 C 0.42841 0.13898 0.44621
 H239 H 0.40555 0.25930 0.33829
 H240 H 0.38151 0.30626 0.31815
 H241 H 0.38467 0.34732 0.40794
 H242 H 0.40941 0.30066 0.42830
 H243 H 0.39438 0.24914 0.43949
 H244 H 0.41226 0.19983 0.45948
 H245 H 0.46822 0.18616 0.37852
 H246 H 0.45150 0.23635 0.35915
 H247 H 0.49863 0.16085 0.41765
 H248 H 0.51315 0.10984 0.43678
 H249 H 0.41911 0.09613 0.46837
 H250 H 0.40454 0.14654 0.44866
 C251 C 0.89418 0.22444 0.61182
 C252 C 0.91213 0.19932 0.62206
 C253 C 0.89781 0.17269 0.63312
 C254 C 0.86527 0.17062 0.63424
 C255 C 0.84732 0.19554 0.62368
 C256 C 0.86160 0.22210 0.61250
 C257 C 0.90927 0.25323 0.60103
 C258 C 0.89651 0.28212 0.60853
 C259 C 0.91043 0.30924 0.59833
 C260 C 0.93759 0.30821 0.58049
 C261 C 0.95048 0.27933 0.57309
 C262 C 0.93648 0.25215 0.58325
 C263 C 0.95198 0.33721 0.56933
 C264 C 0.96425 0.33912 0.53955
 C265 C 0.97622 0.36691 0.52854
 C266 C 0.97607 0.39345 0.54703
 C267 C 0.96448 0.39135 0.57704
 C268 C 0.95268 0.36355 0.58808
 H269 H 0.93725 0.20049 0.62215
 H270 H 0.91210 0.15373 0.64108
 H271 H 0.82221 0.19462 0.62452
 H272 H 0.84709 0.24081 0.60436
 H273 H 0.87583 0.28381 0.62255
 H274 H 0.89963 0.33105 0.60409
 H275 H 0.97154 0.27773 0.55963
 H276 H 0.94674 0.23027 0.57683
 H277 H 0.96377 0.31937 0.52439
 H278 H 0.98488 0.36778 0.50527
 H279 H 0.96424 0.41129 0.59197
 H280 H 0.94398 0.36273 0.61133
 C281 C 0.10129 0.73456 -0.11515
 C282 C 0.11114 0.73022 -0.14555
 C283 C 0.12458 0.70231 -0.15461
 C284 C 0.12857 0.67831 -0.13342
 C285 C 0.11885 0.68261 -0.10305
 C286 C 0.10516 0.71041 -0.09402
 C287 C 0.08780 0.76443 -0.10527
 C288 C 0.06142 0.76535 -0.08633
 C289 C 0.04948 0.79354 -0.07608
 C290 C 0.06391 0.82132 -0.08429
 C291 C 0.09000 0.82040 -0.10360
 C292 C 0.10174 0.79226 -0.11409
 C293 C 0.05268 0.85107 -0.07171
 C294 C 0.07397 0.87235 -0.05974
 C295 C 0.06365 0.90004 -0.04698
 C296 C 0.03178 0.90724 -0.04613
 C297 C 0.01045 0.88612 -0.05847
 C298 C 0.02081 0.85819 -0.07096
 H299 H 0.10830 0.74839 -0.16233
 H300 H 0.13218 0.69947 -0.17809
 H301 H 0.12182 0.66434 -0.08640
 H302 H 0.09814 0.71327 -0.07037
 H303 H 0.05008 0.74424 -0.07942
 H304 H 0.02948 0.79360 -0.06105
 H305 H 0.10142 0.84149 -0.11046
 H306 H 0.12222 0.79221 -0.12848
 H307 H 0.09864 0.86730 -0.05969
 H308 H 0.08070 0.91581 -0.03772
 H309 H -0.01424 0.89100 -0.05812
 H310 H 0.00394 0.84222 -0.08021
 C311 C 0.60257 0.77257 1.11215
 C312 C 0.63502 0.77625 1.11251
 C313 C 0.64832 0.80357 1.12302
 C314 C 0.62952 0.82805 1.13313
 C315 C 0.59707 0.82467 1.13228
 C316 C 0.58372 0.79720 1.12198
 C317 C 0.58866 0.74301 1.10175
 C318 C 0.56117 0.74262 1.08425
 C319 C 0.54904 0.71477 1.07344
 C320 C 0.56430 0.68681 1.07969
 C321 C 0.59129 0.68711 1.09778
 C322 C 0.60324 0.71483 1.10880
 C323 C 0.55311 0.65748 1.06631
 C324 C 0.57430 0.63727 1.05231
 C325 C 0.56420 0.60964 1.03946
 C326 C 0.53266 0.60138 1.04053
 C327 C 0.51139 0.62155 1.05463
 C328 C 0.52150 0.64949 1.06720
 H329 H 0.65024 0.75801 1.10457
 H330 H 0.67339 0.80544 1.12365
 H331 H 0.58210 0.84326 1.13989
 H332 H 0.55867 0.79505 1.12227
 H333 H 0.54952 0.76390 1.07815
 H334 H 0.52833 0.71516 1.05932
 H335 H 0.60321 0.66581 1.10336
 H336 H 0.62396 0.71418 1.12287
 H337 H 0.59872 0.64304 1.05097
 H338 H 0.58121 0.59464 1.02882
 H339 H 0.48694 0.61583 1.05574
 H340 H 0.50474 0.66466 1.07799
 C341 C 0.39588 0.39709 1.26674
 C342 C 0.41672 0.39147 1.29099
 C343 C 0.40636 0.37834 1.31832
 C344 C 0.37494 0.37079 1.32211
 C345 C 0.35402 0.37652 1.29807
 C346 C 0.36437 0.38954 1.27065
 C347 C 0.40711 0.41011 1.23727
 C348 C 0.38910 0.43162 1.22088
 C349 C 0.39947 0.44326 1.19283
 C350 C 0.42809 0.43366 1.18054
 C351 C 0.44624 0.41243 1.19713
 C352 C 0.43585 0.40075 1.22508
 C353 C 0.43888 0.44526 1.15034
 C354 C 0.45402 0.42533 1.12977
 C355 C 0.46474 0.43612 1.10161
 C356 C 0.46048 0.46710 1.09317
 C357 C 0.44499 0.48702 1.11352
 C358 C 0.43434 0.47621 1.14183
 H359 H 0.44103 0.39742 1.28892
 H360 H 0.42279 0.37418 1.33668
 H361 H 0.32977 0.37042 1.30041
 H362 H 0.34782 0.39306 1.25227
 H363 H 0.36703 0.43959 1.22981
 H364 H 0.38482 0.45938 1.18052
 H365 H 0.46860 0.40488 1.18854
 H366 H 0.45014 0.38395 1.23690
 H367 H 0.45735 0.40123 1.13532
 H368 H 0.47636 0.42008 1.08640
 H369 H 0.44141 0.51103 1.10775
 H370 H 0.42305 0.49223 1.15728
 C371 C 0.61092 -0.10381 0.22858
 C372 C 0.61128 -0.13600 0.22471
 C373 C 0.62154 -0.14914 0.19733
 C374 C 0.63140 -0.13045 0.17299
 C375 C 0.63052 -0.09828 0.17655
 C376 C 0.62046 -0.08508 0.20407
 C377 C 0.60090 -0.09005 0.25820
 C378 C 0.58316 -0.06275 0.25899
 C379 C 0.57279 -0.05065 0.28691
 C380 C 0.57975 -0.06573 0.31455
 C381 C 0.59805 -0.09257 0.31384
 C382 C 0.60862 -0.10450 0.28603
 C383 C 0.56686 -0.05448 0.34398
 C384 C 0.55317 -0.07537 0.36440
 C385 C 0.54059 -0.06515 0.39203
 C386 C 0.54163 -0.03380 0.40008
 C387 C 0.55552 -0.01284 0.37976
 C388 C 0.56783 -0.02308 0.35183
 H389 H 0.60355 -0.15111 0.24288
 H390 H 0.62224 -0.17400 0.19531
 H391 H 0.63795 -0.08341 0.15807
 H392 H 0.62076 -0.06025 0.20635
 H393 H 0.57653 -0.05120 0.23798
 H394 H 0.55848 -0.03007 0.28684
 H395 H 0.60416 -0.10436 0.33487
 H396 H 0.62289 -0.12509 0.28635
 H397 H 0.55178 -0.09963 0.35876
 H398 H 0.53010 -0.08190 0.40717
 H399 H 0.55661 0.01145 0.38531
 H400 H 0.57840 -0.00655 0.33651
 C401 C -0.11778 1.10500 -0.26851
 C402 C -0.11786 1.13709 -0.27306
 C403 C -0.12795 1.14968 -0.30078
 C404 C -0.13797 1.13052 -0.32474
 C405 C -0.13744 1.09843 -0.32046
 C406 C -0.12751 1.08580 -0.29263
 C407 C -0.10774 1.09181 -0.23863
 C408 C -0.09006 1.06450 -0.23735
 C409 C -0.07974 1.05286 -0.20921
 C410 C -0.08673 1.06838 -0.18181
 C411 C -0.10492 1.09528 -0.18302
 C412 C -0.11540 1.10679 -0.21106
 C413 C -0.07408 1.05739 -0.15212
 C414 C -0.06091 1.07846 -0.13148
 C415 C -0.04838 1.06840 -0.10373
 C416 C -0.04892 1.03702 -0.09580
 C417 C -0.06236 1.01590 -0.11631
 C418 C -0.07465 1.02597 -0.14431
 H419 H -0.10999 1.15253 -0.25520
 H420 H -0.12833 1.17449 -0.30339
 H421 H -0.14497 1.08320 -0.33865
 H422 H -0.12802 1.06102 -0.28981
 H423 H -0.08346 1.05257 -0.25815
 H424 H -0.06549 1.03224 -0.20895
 H425 H -0.11108 1.10742 -0.16219
 H426 H -0.12959 1.12744 -0.21113
 H427 H -0.05980 1.10275 -0.13707
 H428 H -0.03822 1.08529 -0.08847
 H429 H -0.06307 0.99157 -0.11087
 H430 H -0.08485 1.00928 -0.15975
 C431 C 1.11368 0.60441 0.77513
 C432 C 1.14465 0.60215 0.78526
 C433 C 1.15422 0.61696 0.81207
 C434 C 1.13298 0.63400 0.82982
 C435 C 1.10191 0.63585 0.81998
 C436 C 1.09244 0.62148 0.79288
 C437 C 1.10370 0.58947 0.74597
 C438 C 1.07360 0.57733 0.74283
 C439 C 1.06394 0.56425 0.71516
 C440 C 1.08425 0.56249 0.68998
 C441 C 1.11454 0.57407 0.69333
 C442 C 1.12405 0.58759 0.72084
 C443 C 1.07364 0.54935 0.66019
 C444 C 1.08428 0.56164 0.63228
 C445 C 1.07361 0.55002 0.60434
 C446 C 1.05164 0.52620 0.60357
 C447 C 1.04115 0.51367 0.63134
 C448 C 1.05222 0.52493 0.65931
 H449 H 1.16158 0.58880 0.77256
 H450 H 1.17839 0.61526 0.81877
 H451 H 1.08491 0.64860 0.83320
 H452 H 1.06853 0.62423 0.78564
 H453 H 1.05741 0.57785 0.76178
 H454 H 1.04029 0.55602 0.71340
 H455 H 1.13105 0.57271 0.67468
 H456 H 1.14725 0.59704 0.72215
 H457 H 1.10027 0.58082 0.63194
 H458 H 1.08190 0.56034 0.58330
 H459 H 1.02439 0.49512 0.63145
 H460 H 1.04398 0.51440 0.68024
 C461 C 0.73500 0.61195 0.60624
 C462 C 0.71104 0.62210 0.58670
 C463 C 0.68321 0.63355 0.59876
 C464 C 0.67878 0.63530 0.63061
 C465 C 0.70268 0.62512 0.65012
 C466 C 0.73036 0.61344 0.63810
 C467 C 0.76476 0.59990 0.59359
 C468 C 0.79307 0.60619 0.60842
 C469 C 0.82094 0.59409 0.59724
 C470 C 0.82124 0.57567 0.57079
 C471 C 0.79311 0.56985 0.55553
 C472 C 0.76514 0.58172 0.56688
 C473 C 0.85078 0.56211 0.55960
 C474 C 0.85848 0.56295 0.52835
 C475 C 0.88664 0.55049 0.51805
 C476 C 0.90743 0.53661 0.53879
 C477 C 0.89949 0.53553 0.57000
 C478 C 0.87156 0.54826 0.58030
 H479 H 0.71395 0.62163 0.56207
 H480 H 0.66510 0.64114 0.58324
 H481 H 0.70000 0.62643 0.67474
 H482 H 0.74806 0.60535 0.65383
 H483 H 0.79376 0.62067 0.62861
 H484 H 0.84237 0.59934 0.60915
 H485 H 0.79268 0.55546 0.53525
 H486 H 0.74375 0.57606 0.55512
 H487 H 0.84294 0.57367 0.51196
 H488 H 0.89207 0.55164 0.49386
 H489 H 0.91499 0.52503 0.58658
 H490 H 0.86602 0.54701 0.60447
 C491 C 0.77226 0.39479 1.10732
 C492 C 0.77465 0.39703 1.13934
 C493 C 0.80012 0.38432 1.15472
 C494 C 0.82388 0.36925 1.13839
 C495 C 0.82189 0.36785 1.10625
 C496 C 0.79624 0.38028 1.09090
 C497 C 0.74439 0.40681 1.09126
 C498 C 0.72942 0.38894 1.06885
 C499 C 0.70225 0.39959 1.05477
 C500 C 0.68972 0.42847 1.06258
 C501 C 0.70504 0.44660 1.08456
 C502 C 0.73202 0.43581 1.09887
 C503 C 0.66027 0.43935 1.04859
 C504 C 0.65722 0.46992 1.03846
 C505 C 0.62897 0.48060 1.02669
 C506 C 0.60306 0.46101 1.02509
 C507 C 0.60629 0.43026 1.03475
 C508 C 0.63466 0.41951 1.04623
 H509 H 0.75634 0.40785 1.15257
 H510 H 0.80088 0.38560 1.17948
 H511 H 0.84011 0.35688 1.09304
 H512 H 0.79516 0.37862 1.06616
 H513 H 0.73835 0.36639 1.06275
 H514 H 0.69099 0.38526 1.03777
 H515 H 0.69572 0.46884 1.09119
 H516 H 0.74323 0.45012 1.11592
 H517 H 0.67670 0.48559 1.03976
 H518 H 0.62724 0.50441 1.01946
 H519 H 0.58678 0.41460 1.03380
 H520 H 0.63632 0.39591 1.05412
 C521 C 0.26840 1.12009 -0.10684
 C522 C 0.29004 1.09905 -0.11914
 C523 C 0.31712 1.10942 -0.13335
 C524 C 0.32295 1.14110 -0.13635
 C525 C 0.30141 1.16216 -0.12411
 C526 C 0.27473 1.15181 -0.10920
 C527 C 0.23914 1.10905 -0.09224
 C528 C 0.21162 1.12655 -0.09420
 C529 C 0.18406 1.11597 -0.08111
 C530 C 0.18293 1.08720 -0.06632
 C531 C 0.21047 1.06974 -0.06426
 C532 C 0.23823 1.08066 -0.07671
 C533 C 0.15308 1.07516 -0.05383
 C534 C 0.15271 1.05579 -0.02794
 C535 C 0.12481 1.04347 -0.01717
 C536 C 0.09657 1.05084 -0.03154
 C537 C 0.09669 1.07072 -0.05686
 C538 C 0.12461 1.08242 -0.06812
 H539 H 0.28588 1.07449 -0.11839
 H540 H 0.33341 1.09267 -0.14238
 H541 H 0.30515 1.18672 -0.12626
 H542 H 0.25912 1.16879 -0.09949
 H543 H 0.21107 1.14827 -0.10634
 H544 H 0.16361 1.13047 -0.08268
 H545 H 0.21062 1.04728 -0.05351
 H546 H 0.25896 1.06673 -0.07411
 H547 H 0.17393 1.05019 -0.01583
 H548 H 0.12528 1.02836 0.00257
 H549 H 0.07524 1.07647 -0.06857
 H550 H 0.12383 1.09658 -0.08850
 C551 C 0.22147 -0.11619 0.39649
 C552 C 0.21481 -0.14791 0.39730
 C553 C 0.18832 -0.15954 0.38293
 C554 C 0.16740 -0.13973 0.36788
 C555 C 0.17323 -0.10789 0.36825
 C556 C 0.20011 -0.09630 0.38200
 C557 C 0.25100 -0.10411 0.40974
 C558 C 0.27831 -0.12202 0.40903
 C559 C 0.30620 -0.11056 0.42066
 C560 C 0.30788 -0.08055 0.43272
 C561 C 0.28056 -0.06265 0.43358
 C562 C 0.25247 -0.07437 0.42252
 C563 C 0.33806 -0.06789 0.44379
 C564 C 0.33915 -0.04680 0.46831
 C565 C 0.36748 -0.03463 0.47823
 C566 C 0.39543 -0.04377 0.46432
 C567 C 0.39450 -0.06503 0.44011
 C568 C 0.36617 -0.07667 0.42974
 H569 H 0.23013 -0.16392 0.40891
 H570 H 0.18445 -0.18417 0.38315
 H571 H 0.15724 -0.09201 0.35733
 H572 H 0.20446 -0.07181 0.38051
 H573 H 0.27842 -0.14481 0.39895
 H574 H 0.32648 -0.12537 0.42014
 H575 H 0.28087 -0.03931 0.44229
 H576 H 0.23191 -0.06002 0.42402
 H577 H 0.31816 -0.03990 0.48014
 H578 H 0.36759 -0.01843 0.49712
 H579 H 0.41569 -0.07220 0.42873
 H580 H 0.36637 -0.09219 0.41032
 C581 C 0.60794 -0.27126 0.60614
 C582 C 0.64049 -0.27390 0.60786
 C583 C 0.65436 -0.30058 0.61955
 C584 C 0.63602 -0.32529 0.62957
 C585 C 0.60354 -0.32294 0.62731
 C586 C 0.58964 -0.29620 0.61578
 C587 C 0.59319 -0.24233 0.59498
 C588 C 0.56636 -0.24318 0.57658
 C589 C 0.55246 -0.21589 0.56634
 C590 C 0.56510 -0.18712 0.57421
 C591 C 0.59193 -0.18630 0.59259
 C592 C 0.60574 -0.21355 0.60292
 C593 C 0.55076 -0.15802 0.56296
 C594 C 0.54961 -0.13177 0.58183
 C595 C 0.53772 -0.10393 0.57074
 C596 C 0.52652 -0.10172 0.54057
 C597 C 0.52686 -0.12816 0.52194
 C598 C 0.53891 -0.15597 0.53299
 H599 H 0.65527 -0.25532 0.60020
 H600 H 0.67943 -0.30173 0.62126
 H601 H 0.58896 -0.34174 0.63484
 H602 H 0.56453 -0.29480 0.61510
 H603 H 0.55628 -0.26497 0.56982
 H604 H 0.53165 -0.21732 0.55245
 H605 H 0.60254 -0.16457 0.59872
 H606 H 0.62611 -0.21204 0.61741
 H607 H 0.55798 -0.13271 0.60522
 H608 H 0.53760 -0.08405 0.58575
 H609 H 0.51852 -0.12719 0.49854
 H610 H 0.53978 -0.17564 0.51773
 C611 C 1.09788 0.76742 0.38805
 C612 C 1.10256 0.79351 0.40662
 C613 C 1.11615 0.82007 0.39459
 C614 C 1.12520 0.82113 0.36375
 C615 C 1.11994 0.79542 0.34497
 C616 C 1.10645 0.76881 0.35699
 C617 C 1.08535 0.73846 0.40130
 C618 C 1.06478 0.71984 0.38449
 C619 C 1.05430 0.69186 0.39649
 C620 C 1.06416 0.68189 0.42556
 C621 C 1.08420 0.70084 0.44260
 C622 C 1.09472 0.72872 0.43060
 C623 C 1.05440 0.65148 0.43782
 C624 C 1.07576 0.63290 0.45379
 C625 C 1.06683 0.60440 0.46556
 C626 C 1.03633 0.59364 0.46157
 C627 C 1.01496 0.61206 0.44539
 C628 C 1.02391 0.64070 0.43364
 H629 H 1.09577 0.79339 0.43050
 H630 H 1.11983 0.83979 0.40934
 H631 H 1.12703 0.79575 0.32118
 H632 H 1.10361 0.74899 0.34218
 H633 H 1.05683 0.72685 0.36199
 H634 H 1.03905 0.67770 0.38269
 H635 H 1.09188 0.69406 0.46526
 H636 H 1.11081 0.74231 0.44403
 H637 H 1.09958 0.64024 0.45690
 H638 H 1.08396 0.59074 0.47773
 H639 H 0.99127 0.60447 0.44199
 H640 H 1.00683 0.65460 0.42169
 C641 C -0.11053 1.27081 0.12166
 C642 C -0.09159 1.29438 0.13341
 C643 C -0.10473 1.32180 0.14421
 C644 C -0.13705 1.32629 0.14343
 C645 C -0.15603 1.30263 0.13206
 C646 C -0.14291 1.27523 0.12120
 C647 C -0.09657 1.24182 0.10976
 C648 C -0.11085 1.21329 0.11530
 C649 C -0.09805 1.18608 0.10364
 C650 C -0.07061 1.18673 0.08620
 C651 C -0.05619 1.21523 0.08085
 C652 C -0.06903 1.24246 0.09248
 C653 C -0.05742 1.15782 0.07328
 C654 C -0.04498 1.15728 0.04351
 C655 C -0.03358 1.12984 0.03096
 C656 C -0.03442 1.10230 0.04786
 C657 C -0.04643 1.10293 0.07779
 C658 C -0.05776 1.13038 0.09036
 H659 H -0.06662 1.29152 0.13451
 H660 H -0.08966 1.33969 0.15296
 H661 H -0.18104 1.30539 0.13161
 H662 H -0.15813 1.25768 0.11202
 H663 H -0.13188 1.21196 0.12882
 H664 H -0.10994 1.16457 0.10788
 H665 H -0.03487 1.21648 0.06778
 H666 H -0.05763 1.26408 0.08753
 H667 H -0.04474 1.17792 0.02960
 H668 H -0.02458 1.13013 0.00780
 H669 H -0.04728 1.08216 0.09150
 H670 H -0.06671 1.13012 0.11353
 C671 C 0.39583 0.23353 0.87927
 C672 C 0.38417 0.21179 0.90021
 C673 C 0.36999 0.18479 0.88990
 C674 C 0.36637 0.17914 0.85840
 C675 C 0.37803 0.20075 0.83745
 C676 C 0.39292 0.22738 0.84772
 C677 C 0.41024 0.26276 0.89026
 C678 C 0.40721 0.29012 0.87322
 C679 C 0.42004 0.31766 0.88379
 C680 C 0.43565 0.31890 0.91210
 C681 C 0.43883 0.29151 0.92908
 C682 C 0.42661 0.26380 0.91816
 C683 C 0.44781 0.34869 0.92417
 C684 C 0.47458 0.34955 0.94276
 C685 C 0.48511 0.37739 0.95506
 C686 C 0.46958 0.40509 0.94845
 C687 C 0.44333 0.40448 0.92938
 C688 C 0.43235 0.37660 0.91769
 H689 H 0.38538 0.21580 0.92465
 H690 H 0.36142 0.16842 0.90655
 H691 H 0.37542 0.19713 0.81304
 H692 H 0.40214 0.24310 0.83082
 H693 H 0.39439 0.29054 0.85188
 H694 H 0.41761 0.33801 0.86966
 H695 H 0.45026 0.29146 0.95118
 H696 H 0.43004 0.24320 0.93172
 H697 H 0.48758 0.32876 0.94775
 H698 H 0.50558 0.37730 0.96953
 H699 H 0.43071 0.42549 0.92422
 H700 H 0.41128 0.37697 0.90415
 C701 C 0.61361 0.60963 0.72563
 C702 C 0.62395 0.59027 0.70185
 C703 C 0.63561 0.60275 0.67469
 C704 C 0.63730 0.63482 0.67079
 C705 C 0.62675 0.65417 0.69441
 C706 C 0.61495 0.64173 0.72148
 C707 C 0.60185 0.59651 0.75482
 C708 C 0.60912 0.61054 0.78295
 C709 C 0.59791 0.59846 0.81042
 C710 C 0.57928 0.57193 0.81050
 C711 C 0.57213 0.55777 0.78239
 C712 C 0.58326 0.56993 0.75486
 C713 C 0.56717 0.55935 0.83980
 C714 C 0.53680 0.54768 0.84163
 C715 C 0.52515 0.53668 0.86942
 C716 C 0.54356 0.53724 0.89604
 C717 C 0.57404 0.54859 0.89413
 C718 C 0.58573 0.55943 0.86633
 H719 H 0.62356 0.56547 0.70444
 H720 H 0.64352 0.58741 0.65673
 H721 H 0.62798 0.67896 0.69202
 H722 H 0.60674 0.65729 0.73912
 H723 H 0.62373 0.63079 0.78379
 H724 H 0.60354 0.61018 0.83161
 H725 H 0.55811 0.53712 0.78166
 H726 H 0.57698 0.55873 0.73358
 H727 H 0.52176 0.54766 0.82173
 H728 H 0.50153 0.52819 0.87014
 H729 H 0.58891 0.54914 0.91416
 H730 H 0.60940 0.56775 0.86559
 C731 C 0.38144 0.10699 0.76589
 C732 C 0.40292 0.11873 0.78726
 C733 C 0.39276 0.13280 0.81426
 C734 C 0.36088 0.13619 0.82032
 C735 C 0.33939 0.12455 0.79903
 C736 C 0.34952 0.10980 0.77239
 C737 C 0.39225 0.09248 0.73677
 C738 C 0.37459 0.09521 0.70975
 C739 C 0.38492 0.08212 0.68234
 C740 C 0.41361 0.06654 0.68090
 C741 C 0.43123 0.06371 0.70793
 C742 C 0.42055 0.07620 0.73552
 C743 C 0.42538 0.05396 0.65126
 C744 C 0.44415 0.02732 0.65047
 C745 C 0.45624 0.01641 0.62278
 C746 C 0.44922 0.03143 0.59515
 C747 C 0.42992 0.05754 0.59569
 C748 C 0.41845 0.06890 0.62342
 H749 H 0.42764 0.11761 0.78295
 H750 H 0.40983 0.14138 0.83035
 H751 H 0.31468 0.12702 0.80296
 H752 H 0.33221 0.10054 0.75696
 H753 H 0.35293 0.10794 0.70950
 H754 H 0.37031 0.08431 0.66226
 H755 H 0.45364 0.05232 0.70781
 H756 H 0.43459 0.07301 0.75586
 H757 H 0.44947 0.01472 0.67122
 H758 H 0.47089 -0.00394 0.62293
 H759 H 0.42445 0.06977 0.57473
 H760 H 0.40474 0.08984 0.62299
 C761 C 0.11026 0.88787 0.26715
 C762 C 0.14204 0.88689 0.27477
 C763 C 0.15204 0.87334 0.30209
 C764 C 0.13050 0.86119 0.32299
 C765 C 0.09878 0.86199 0.31538
 C766 C 0.08881 0.87489 0.28773
 C767 C 0.09954 0.90243 0.23801
 C768 C 0.07064 0.91761 0.23642
 C769 C 0.06039 0.93089 0.20905
 C770 C 0.07902 0.93001 0.18259
 C771 C 0.10814 0.91526 0.18431
 C772 C 0.11809 0.90139 0.21151
 C773 C 0.06789 0.94394 0.15329
 C774 C 0.07615 0.93085 0.12490
 C775 C 0.06511 0.94341 0.09748
 C776 C 0.04497 0.96891 0.09780
 C777 C 0.03676 0.98217 0.12598
 C778 C 0.04839 0.97008 0.15339
 H779 H 0.15930 0.89697 0.25986
 H780 H 0.17669 0.87253 0.30698
 H781 H 0.08164 0.85271 0.33096
 H782 H 0.06424 0.87445 0.28246
 H783 H 0.05587 0.91948 0.25638
 H784 H 0.03760 0.94150 0.20864
 H785 H 0.12345 0.91450 0.16469
 H786 H 0.14026 0.88955 0.21155
 H787 H 0.09053 0.91038 0.12375
 H788 H 0.07152 0.93253 0.07605
 H789 H 0.02145 1.00202 0.12682
 H790 H 0.04208 0.98134 0.17463
 C791 C 0.88417 0.39269 0.23779
 C792 C 0.87263 0.36237 0.23675
 C793 C 0.86138 0.34999 0.20939
 C794 C 0.86083 0.36777 0.18264
 C795 C 0.87162 0.39819 0.18356
 C796 C 0.88341 0.41049 0.21081
 C797 C 0.89744 0.40535 0.26672
 C798 C 0.89411 0.43672 0.27428
 C799 C 0.90702 0.44849 0.30129
 C800 C 0.92329 0.42911 0.32162
 C801 C 0.92625 0.39770 0.31419
 C802 C 0.91379 0.38606 0.28703
 C803 C 0.93724 0.44139 0.35040
 C804 C 0.96527 0.42905 0.36169
 C805 C 0.97772 0.43931 0.38939
 C806 C 0.96284 0.46261 0.40625
 C807 C 0.93537 0.47573 0.39467
 C808 C 0.92255 0.46506 0.36715
 H809 H 0.87209 0.34819 0.25712
 H810 H 0.85278 0.32657 0.20906
 H811 H 0.87144 0.41211 0.16298
 H812 H 0.89251 0.43370 0.21053
 H813 H 0.88132 0.45222 0.25946
 H814 H 0.90453 0.47285 0.30602
 H815 H 0.93805 0.38188 0.32947
 H816 H 0.91734 0.36192 0.28185
 H817 H 0.97776 0.41146 0.34910
 H818 H 0.99918 0.42906 0.39754
 H819 H 0.92335 0.49365 0.40730
 H820 H 0.90075 0.47487 0.35942
   
