data_POSCAR
  _audit_creation_date              2014-09-24
  _audit_creation_method            'ToBaCCo'
  _symmetry_space_group_name_H-M    'P1'
  _symmetry_Int_Tables_number       1
  _symmetry_cell_setting            triclinic
  loop_
  _symmetry_equiv_pos_as_xyz
 x,y,z
_cell_length_a 42.6998
_cell_length_b 41.9085
_cell_length_c 41.9885
_cell_angle_alpha 89.404200
_cell_angle_beta 87.429700
_cell_angle_gamma 91.327300
loop_
  _atom_site_label
  _atom_site_type_symbol
  _atom_site_fract_x
  _atom_site_fract_y
  _atom_site_fract_z
C1 C 0.72143 0.68137 0.95474
 H2 H 0.74437 0.68201 0.94269
 C3 C 0.69678 0.69773 0.94172
 H4 H 0.70077 0.71116 0.91967
 C5 C 0.68748 0.66117 0.99686
 H6 H 0.68361 0.64597 1.01765
 C7 C 0.66224 0.67717 0.98467
 H8 H 0.63915 0.67444 0.99630
 N9 N 0.71630 0.66322 0.98161
 C10 C 0.80748 0.64165 1.01783
 H11 H 0.80402 0.61603 1.01968
 C12 C 0.83513 0.65579 1.02773
 H13 H 0.85302 0.64104 1.03739
 C14 C 0.78803 0.69217 1.00353
 H15 H 0.76940 0.70616 0.99439
 C16 C 0.81550 0.70739 1.01334
 H17 H 0.81805 0.73314 1.01177
 Zn18 Zn 0.74865 0.63643 0.99429
 N19 N 0.78471 0.65981 1.00583
 C20 C 0.78864 0.61253 0.94533
 N21 N 0.75921 0.61010 0.95913
 C22 C 0.73673 0.59101 0.94662
 C23 C 0.74371 0.57301 0.91940
 C24 C 0.79655 0.59502 0.91824
 C25 C 0.72962 0.62912 1.05788
 C26 C 0.71991 0.61364 1.08630
 C27 C 0.72205 0.56324 1.05882
 C28 C 0.73180 0.57976 1.03081
 N29 N 0.73499 0.61216 1.03081
 H30 H 0.80594 0.62853 0.95485
 H31 H 0.71331 0.59006 0.95760
 H32 H 0.72576 0.55787 0.90954
 H33 H 0.82005 0.59722 0.90744
 H34 H 0.73278 0.65481 1.05725
 H35 H 0.71536 0.62759 1.10756
 H36 H 0.71922 0.53747 1.05851
 H37 H 0.73681 0.56669 1.00920
 C38 C 0.83924 0.68891 1.02551
 C39 C 0.66682 0.69517 0.95657
 C40 C 0.71595 0.58040 1.08681
 C41 C 0.77393 0.57516 0.90510
 C42 C 0.72586 0.32423 0.51903
 H43 H 0.74752 0.32213 0.53122
 C44 C 0.69896 0.30727 0.53032
 H45 H 0.69993 0.29198 0.55120
 C46 C 0.69741 0.34843 0.47838
 H47 H 0.69651 0.36528 0.45884
 C48 C 0.67003 0.33192 0.48886
 H49 H 0.64832 0.33600 0.47722
 N50 N 0.72456 0.34459 0.49368
 C51 C 0.82010 0.36546 0.45627
 H52 H 0.81898 0.39121 0.45542
 C53 C 0.84744 0.35051 0.44574
 H54 H 0.86740 0.36473 0.43653
 C55 C 0.79538 0.31543 0.46930
 H56 H 0.77500 0.30192 0.47840
 C57 C 0.82236 0.29948 0.45895
 H58 H 0.82269 0.27365 0.46003
 Zn59 Zn 0.75997 0.37140 0.48293
 N60 N 0.79493 0.34788 0.46812
 C61 C 0.79925 0.38902 0.53223
 N62 N 0.77046 0.39341 0.52043
 C63 C 0.74851 0.41086 0.53656
 C64 C 0.75536 0.42492 0.56565
 C65 C 0.80701 0.40262 0.56104
 C66 C 0.74652 0.38576 0.42067
 C67 C 0.73726 0.40381 0.39481
 C68 C 0.73659 0.45041 0.42826
 C69 C 0.74601 0.43143 0.45360
 N70 N 0.75008 0.39958 0.44950
 H71 H 0.81610 0.37434 0.51978
 H72 H 0.72553 0.41335 0.52710
 H73 H 0.73778 0.43863 0.57847
 H74 H 0.82995 0.39877 0.57023
 H75 H 0.75009 0.36043 0.41807
 H76 H 0.73358 0.39234 0.37223
 H77 H 0.73241 0.47553 0.43185
 H78 H 0.74932 0.44200 0.47660
 C79 C 0.84867 0.31725 0.44727
 C80 C 0.67069 0.31151 0.51534
 C81 C 0.73183 0.43631 0.39871
 C82 C 0.78489 0.42058 0.57800
 C83 C 0.22739 -0.18130 0.03056
 H84 H 0.24903 -0.18356 0.04276
 C85 C 0.20056 -0.19865 0.04134
 H86 H 0.20149 -0.21433 0.06194
 C87 C 0.19909 -0.15674 -0.01001
 H88 H 0.19826 -0.13971 -0.02940
 C89 C 0.17180 -0.17363 -0.00004
 H90 H 0.15018 -0.16963 -0.01188
 N91 N 0.22615 -0.16070 0.00541
 C92 C 0.32182 -0.14294 -0.03189
 H93 H 0.32210 -0.11712 -0.03159
 C94 C 0.34776 -0.15894 -0.04437
 H95 H 0.36811 -0.14541 -0.05376
 C96 C 0.29456 -0.19207 -0.02089
 H97 H 0.27355 -0.20481 -0.01220
 C98 C 0.32009 -0.20909 -0.03331
 H99 H 0.31876 -0.23490 -0.03409
 Zn100 Zn 0.26189 -0.13471 -0.00579
 N101 N 0.29598 -0.15957 -0.02033
 C102 C 0.30145 -0.11530 0.04306
 N103 N 0.27268 -0.11161 0.03100
 C104 C 0.25076 -0.09329 0.04606
 C105 C 0.25763 -0.07747 0.07421
 C106 C 0.30925 -0.09993 0.07103
 C107 C 0.24835 -0.12168 -0.06832
 C108 C 0.23908 -0.10416 -0.09453
 C109 C 0.23966 -0.05664 -0.06232
 C110 C 0.24906 -0.07515 -0.03664
 N111 N 0.25245 -0.10719 -0.03992
 H112 H 0.31828 -0.13063 0.03142
 H113 H 0.22781 -0.09131 0.03640
 H114 H 0.24004 -0.06306 0.08616
 H115 H 0.33217 -0.10320 0.08049
 H116 H 0.25140 -0.14715 -0.07027
 H117 H 0.23497 -0.11629 -0.11670
 H118 H 0.23603 -0.03132 -0.05920
 H119 H 0.25286 -0.06403 -0.01400
 C120 C 0.34689 -0.19227 -0.04518
 C121 C 0.17246 -0.19451 0.02605
 C122 C 0.23421 -0.07142 -0.09142
 C123 C 0.28717 -0.08091 0.08680
 C124 C 0.22046 0.16645 0.46170
 H125 H 0.24298 0.16875 0.44891
 C126 C 0.19402 0.17990 0.44902
 H127 H 0.19623 0.19290 0.42657
 C128 C 0.18950 0.14466 0.50531
 H129 H 0.18755 0.12987 0.52655
 C130 C 0.16249 0.15770 0.49346
 H131 H 0.13999 0.15326 0.50586
 N132 N 0.21769 0.14887 0.48914
 C133 C 0.31219 0.13518 0.52156
 H134 H 0.31075 0.10944 0.52383
 C135 C 0.33906 0.15166 0.53041
 H136 H 0.35837 0.13857 0.53959
 C137 C 0.28837 0.18365 0.50760
 H138 H 0.26834 0.19593 0.49911
 C139 C 0.31496 0.20118 0.51636
 H140 H 0.31541 0.22699 0.51459
 Zn141 Zn 0.25252 0.12501 0.50090
 N142 N 0.28760 0.15121 0.51028
 C143 C 0.29169 0.10158 0.45087
 N144 N 0.26287 0.09845 0.46592
 C145 C 0.24020 0.07893 0.45434
 C146 C 0.24613 0.06171 0.42640
 C147 C 0.29858 0.08478 0.42306
 C148 C 0.23664 0.11813 0.56520
 C149 C 0.22832 0.10277 0.59405
 C150 C 0.23168 0.05208 0.56729
 C151 C 0.24003 0.06844 0.53882
 N152 N 0.24186 0.10092 0.53827
 H153 H 0.30910 0.11787 0.45975
 H154 H 0.21725 0.07744 0.46635
 H155 H 0.22785 0.04668 0.41697
 H156 H 0.32143 0.08790 0.41098
 H157 H 0.23860 0.14390 0.56409
 H158 H 0.22362 0.11674 0.61523
 H159 H 0.22964 0.02627 0.56755
 H160 H 0.24479 0.05524 0.51725
 C161 C 0.34051 0.18493 0.52790
 C162 C 0.16469 0.17498 0.46477
 C163 C 0.22560 0.06949 0.59508
 C164 C 0.27556 0.06493 0.41053
 C165 C 0.17542 0.46271 0.22836
 H166 H 0.17351 0.45054 0.25124
 C167 C 0.19384 0.45006 0.20338
 H168 H 0.20618 0.42812 0.20704
 C169 C 0.15961 0.50461 0.19470
 H170 H 0.14536 0.52512 0.19094
 C171 C 0.17777 0.49283 0.16918
 H172 H 0.17749 0.50444 0.14602
 N173 N 0.15839 0.48923 0.22347
 C174 C 0.12859 0.52866 0.31537
 H175 H 0.10379 0.53005 0.31145
 C176 C 0.14048 0.54040 0.34342
 H177 H 0.12484 0.55098 0.36117
 C178 C 0.17940 0.51379 0.29666
 H179 H 0.19444 0.50372 0.27817
 C180 C 0.19231 0.52535 0.32447
 H181 H 0.21733 0.52419 0.32741
 Zn182 Zn 0.12867 0.50142 0.25570
 N183 N 0.14800 0.51551 0.29279
 C184 C 0.10016 0.45406 0.29622
 N185 N 0.10241 0.46529 0.26567
 C186 C 0.08837 0.44945 0.24176
 C187 C 0.07157 0.42084 0.24821
 C188 C 0.08351 0.42581 0.30368
 C189 C 0.12144 0.56422 0.23682
 C190 C 0.10649 0.59092 0.22533
 C191 C 0.05856 0.55924 0.22347
 C192 C 0.07444 0.53305 0.23507
 N193 N 0.10546 0.53591 0.24094
 H194 H 0.11208 0.46636 0.31478
 H195 H 0.09104 0.45856 0.21757
 H196 H 0.06120 0.40785 0.22900
 H197 H 0.08255 0.41672 0.32797
 H198 H 0.14601 0.56582 0.24202
 H199 H 0.11958 0.61318 0.22145
 H200 H 0.03404 0.55673 0.21813
 H201 H 0.06210 0.51045 0.23900
 C202 C 0.17259 0.53874 0.34803
 C203 C 0.19456 0.46499 0.17337
 C204 C 0.07486 0.58833 0.21835
 C205 C 0.06940 0.40885 0.27947
 C206 C -0.17571 0.03391 0.21513
 H207 H -0.17670 0.04424 0.23865
 C208 C -0.19130 0.04828 0.19037
 H209 H -0.20455 0.06964 0.19492
 C210 C -0.15596 -0.00558 0.18001
 H211 H -0.14142 -0.02596 0.17577
 C212 C -0.17116 0.00800 0.15463
 H213 H -0.16853 -0.00229 0.13111
 N214 N -0.15840 0.00753 0.20954
 C215 C -0.14289 -0.03790 0.30100
 H216 H -0.11780 -0.04034 0.29757
 C217 C -0.15829 -0.05000 0.32858
 H218 H -0.14504 -0.06186 0.34646
 C219 C -0.19080 -0.01975 0.28163
 H220 H -0.20329 -0.00820 0.26307
 C221 C -0.20723 -0.03164 0.30906
 H222 H -0.23241 -0.02917 0.31168
 Zn223 Zn -0.13416 -0.00845 0.24252
 N224 N -0.15913 -0.02288 0.27835
 C225 C -0.10850 0.03524 0.28542
 N226 N -0.10661 0.02489 0.25480
 C227 C -0.08641 0.03908 0.23263
 C228 C -0.06664 0.06440 0.24118
 C229 C -0.08922 0.06032 0.29492
 C230 C -0.12917 -0.07057 0.22113
 C231 C -0.11462 -0.09821 0.21055
 C232 C -0.06431 -0.07138 0.21515
 C233 C -0.07982 -0.04417 0.22568
 N234 N -0.11171 -0.04416 0.22800
 H235 H -0.12526 0.02444 0.30251
 H236 H -0.08581 0.03080 0.20829
 H237 H -0.05068 0.07567 0.22347
 H238 H -0.09103 0.06842 0.31935
 H239 H -0.15447 -0.06998 0.22369
 H240 H -0.12871 -0.11897 0.20467
 H241 H -0.03893 -0.07117 0.21291
 H242 H -0.06638 -0.02321 0.23196
 C243 C -0.19070 -0.04683 0.33273
 C244 C -0.18875 0.03534 0.15977
 C245 C -0.08193 -0.09854 0.20741
 C246 C -0.06812 0.07503 0.27268
 C247 C 0.32569 0.53612 0.71859
 H248 H 0.32456 0.54730 0.74171
 C249 C 0.31018 0.54950 0.69326
 H250 H 0.29679 0.57090 0.69691
 C251 C 0.34594 0.49563 0.68495
 H252 H 0.36071 0.47529 0.68146
 C253 C 0.33081 0.50823 0.65904
 H254 H 0.33365 0.49728 0.63585
 N255 N 0.34327 0.50975 0.71399
 C256 C 0.35945 0.46893 0.80751
 H257 H 0.38465 0.46708 0.80466
 C258 C 0.34384 0.45787 0.83543
 H259 H 0.35702 0.44730 0.85415
 C260 C 0.31146 0.48450 0.78630
 H261 H 0.29900 0.49462 0.76691
 C262 C 0.29483 0.47360 0.81398
 H263 H 0.26955 0.47530 0.81590
 Zn264 Zn 0.36796 0.49581 0.74747
 N265 N 0.34323 0.48216 0.78376
 C266 C 0.39118 0.54291 0.78833
 N267 N 0.39402 0.53091 0.75837
 C268 C 0.41310 0.54541 0.73543
 C269 C 0.43049 0.57300 0.74241
 C270 C 0.40810 0.57029 0.79628
 C271 C 0.37445 0.43315 0.72852
 C272 C 0.38928 0.40596 0.71713
 C273 C 0.43897 0.43472 0.71788
 C274 C 0.42318 0.46145 0.72932
 N275 N 0.39140 0.46032 0.73381
 H276 H 0.37522 0.53180 0.80600
 H277 H 0.41436 0.53585 0.71158
 H278 H 0.44551 0.58454 0.72405
 H279 H 0.40549 0.57973 0.82016
 H280 H 0.34925 0.43288 0.73256
 H281 H 0.37548 0.38469 0.71229
 H282 H 0.46419 0.43591 0.71364
 H283 H 0.43624 0.48312 0.73415
 C284 C 0.31128 0.46024 0.83876
 C285 C 0.31308 0.53559 0.66316
 C286 C 0.42177 0.40684 0.71146
 C287 C 0.42780 0.58557 0.77313
 C288 C 0.68781 0.97527 0.72177
 H289 H 0.68632 0.96360 0.74491
 C290 C 0.70592 0.96221 0.69685
 H291 H 0.71858 0.94053 0.70085
 C292 C 0.67068 1.01591 0.68732
 H293 H 0.65585 1.03593 0.68326
 C294 C 0.68850 1.00366 0.66180
 H295 H 0.68749 1.01447 0.63833
 N296 N 0.67015 1.00124 0.71643
 C297 C 0.63671 1.03787 0.80829
 H298 H 0.61206 1.03849 0.80346
 C299 C 0.64702 1.04862 0.83738
 H300 H 0.63026 1.05780 0.85495
 C301 C 0.68865 1.02540 0.79101
 H302 H 0.70469 1.01649 0.77274
 C303 C 0.70002 1.03601 0.81990
 H304 H 0.72491 1.03536 0.82380
 Zn305 Zn 0.63957 1.01210 0.74816
 N306 N 0.65742 1.02631 0.78596
 C307 C 0.61456 0.96209 0.78728
 N308 N 0.61509 0.97460 0.75722
 C309 C 0.60127 0.95883 0.73314
 C310 C 0.58613 0.92919 0.73896
 C311 C 0.59973 0.93275 0.79409
 C312 C 0.63055 1.07456 0.72941
 C313 C 0.61490 1.10092 0.71815
 C314 C 0.56780 1.06800 0.71599
 C315 C 0.58438 1.04215 0.72737
 N316 N 0.61532 1.04582 0.73333
 H317 H 0.62645 0.97429 0.80592
 H318 H 0.60269 0.96892 0.70928
 H319 H 0.57546 0.91656 0.71970
 H320 H 0.59976 0.92291 0.81806
 H321 H 0.65507 1.07680 0.73467
 H322 H 0.62740 1.12355 0.71452
 H323 H 0.54334 1.06488 0.71068
 H324 H 0.57263 1.01923 0.73115
 C325 C 0.67892 1.04760 0.84332
 C326 C 0.70565 0.97612 0.66643
 C327 C 0.58332 1.09757 0.71117
 C328 C 0.58564 0.91601 0.76974
 C329 C 0.03370 0.21823 -0.16585
 H330 H 0.04547 0.24119 -0.16963
 C331 C 0.04575 0.19114 -0.18064
 H332 H 0.06673 0.19324 -0.19607
 C333 C -0.00692 0.18699 -0.13962
 H334 H -0.02680 0.18526 -0.12282
 C335 C 0.00436 0.15933 -0.15391
 H336 H -0.00709 0.13648 -0.14835
 N337 N 0.00797 0.21567 -0.14560
 C338 C -0.02706 0.31192 -0.13311
 H339 H -0.02711 0.31273 -0.10736
 C340 C -0.03890 0.33727 -0.15021
 H341 H -0.04804 0.35774 -0.13762
 C342 C -0.01619 0.28367 -0.18087
 H343 H -0.00793 0.26241 -0.19258
 C344 C -0.02797 0.30859 -0.19895
 H345 H -0.02859 0.30659 -0.22462
 Zn346 Zn -0.00369 0.25203 -0.12193
 N347 N -0.01600 0.28582 -0.14853
 C348 C 0.04513 0.29401 -0.10434
 N349 N 0.03153 0.26465 -0.09898
 C350 C 0.04425 0.24301 -0.07920
 C351 C 0.07159 0.25078 -0.06355
 C352 C 0.07239 0.30271 -0.08921
 C353 C -0.06576 0.23561 -0.10939
 C354 C -0.09318 0.22720 -0.09185
 C355 C -0.06492 0.23239 -0.04342
 C356 C -0.03789 0.24093 -0.06202
 N357 N -0.03875 0.24177 -0.09441
 H358 H 0.03527 0.31053 -0.12082
 H359 H 0.03334 0.21958 -0.07594
 H360 H 0.08164 0.23347 -0.04787
 H361 H 0.08309 0.32611 -0.09369
 H362 H -0.06577 0.23680 -0.13514
 H363 H -0.11432 0.22163 -0.10428
 H364 H -0.06389 0.23094 -0.01770
 H365 H -0.01629 0.24647 -0.05060
 C366 C -0.03957 0.33555 -0.18339
 C367 C 0.03116 0.16137 -0.17427
 C368 C -0.09277 0.22524 -0.05859
 C369 C 0.08578 0.28090 -0.06874
 C370 C 0.45912 0.22262 0.18294
 H371 H 0.44598 0.24414 0.18659
 C372 C 0.44847 0.19392 0.19743
 H373 H 0.42721 0.19338 0.21252
 C374 C 0.50157 0.19632 0.15701
 H375 H 0.52155 0.19694 0.14032
 C376 C 0.49177 0.16723 0.17102
 H377 H 0.50449 0.14580 0.16535
 N378 N 0.48502 0.22322 0.16281
 C379 C 0.51618 0.32219 0.14560
 H380 H 0.51693 0.32146 0.11982
 C381 C 0.52594 0.34976 0.16089
 H382 H 0.53435 0.37033 0.14686
 C383 C 0.50496 0.29593 0.19528
 H384 H 0.49707 0.27472 0.20845
 C385 C 0.51466 0.32318 0.21162
 H386 H 0.51428 0.32296 0.23743
 Zn387 Zn 0.49467 0.26049 0.13797
 N388 N 0.50583 0.29606 0.16282
 C389 C 0.44422 0.29820 0.12066
 N390 N 0.45849 0.26992 0.11535
 C391 C 0.44583 0.24750 0.09615
 C392 C 0.41805 0.25350 0.08087
 C393 C 0.41653 0.30511 0.10594
 C394 C 0.55744 0.25018 0.12517
 C395 C 0.58461 0.24185 0.10795
 C396 C 0.55507 0.24012 0.06020
 C397 C 0.52831 0.24868 0.07837
 N398 N 0.52987 0.25268 0.11041
 H399 H 0.45391 0.31532 0.13675
 H400 H 0.45717 0.22486 0.09298
 H401 H 0.40816 0.23567 0.06549
 H402 H 0.40546 0.32775 0.11028
 H403 H 0.55799 0.25361 0.15064
 H404 H 0.60615 0.23873 0.12021
 H405 H 0.55350 0.23567 0.03494
 H406 H 0.50627 0.25117 0.06704
 C407 C 0.52526 0.35032 0.19416
 C408 C 0.46469 0.16589 0.19095
 C409 C 0.58334 0.23623 0.07530
 C410 C 0.40330 0.28261 0.08590
 C411 C 0.95608 0.72121 0.69149
 H412 H 0.94408 0.74359 0.69366
 C413 C 0.94353 0.69384 0.70709
 H414 H 0.92187 0.69516 0.72142
 C415 C 0.99754 0.69143 0.66811
 H416 H 1.01785 0.69021 0.65196
 C417 C 0.98584 0.66358 0.68332
 H418 H 0.99736 0.64118 0.67896
 N419 N 0.98235 0.71942 0.67207
 C420 C 1.01857 0.81623 0.65315
 H421 H 1.01978 0.81527 0.62738
 C422 C 1.02921 0.84348 0.66842
 H423 H 1.03874 0.86359 0.65441
 C424 C 1.00530 0.79085 0.70287
 H425 H 0.99631 0.77009 0.71609
 C426 C 1.01582 0.81775 0.71918
 H427 H 1.01493 0.81773 0.74500
 Zn428 Zn 0.99436 0.75526 0.64612
 N429 N 1.00677 0.79071 0.67041
 C430 C 0.94637 0.79504 0.62618
 N431 N 0.95921 0.76582 0.62249
 C432 C 0.94602 0.74333 0.60374
 C433 C 0.91919 0.75019 0.58721
 C434 C 0.91966 0.80283 0.61016
 C435 C 1.05659 0.74046 0.63372
 C436 C 1.08346 0.73185 0.61608
 C437 C 1.05418 0.73444 0.56820
 C438 C 1.02777 0.74312 0.58679
 N439 N 1.02931 0.74526 0.61903
 H440 H 0.95649 0.81228 0.64189
 H441 H 0.95627 0.72003 0.60180
 H442 H 0.90889 0.73230 0.57218
 H443 H 0.90971 0.82622 0.61319
 H444 H 1.05721 0.74268 0.65933
 H445 H 1.10481 0.72718 0.62814
 H446 H 1.05263 0.73184 0.54268
 H447 H 1.00605 0.74763 0.57551
 C448 C 1.02788 0.84428 0.70170
 C449 C 0.95829 0.66467 0.70249
 C450 C 1.08217 0.72846 0.58308
 C451 C 0.90596 0.78027 0.59050
 C452 C 0.53485 0.72603 0.33664
 H453 H 0.54755 0.74863 0.33432
 C454 C 0.54584 0.69940 0.32018
 H455 H 0.56696 0.70153 0.30495
 C456 C 0.49285 0.69504 0.36072
 H457 H 0.47280 0.69311 0.37728
 C458 C 0.50304 0.66786 0.34471
 H459 H 0.49060 0.64526 0.34876
 N460 N 0.50890 0.72336 0.35659
 C461 C 0.47604 0.81968 0.37451
 H462 H 0.47495 0.81852 0.40029
 C463 C 0.46607 0.84686 0.35888
 H464 H 0.45721 0.86668 0.37272
 C465 C 0.48813 0.79479 0.32512
 H466 H 0.49630 0.77423 0.31215
 C467 C 0.47826 0.82162 0.30845
 H468 H 0.47892 0.82164 0.28262
 Zn469 Zn 0.49804 0.75870 0.38229
 N470 N 0.48691 0.79442 0.35758
 C471 C 0.54750 0.79865 0.40177
 N472 N 0.53345 0.76933 0.40599
 C473 C 0.54593 0.74670 0.42484
 C474 C 0.57349 0.75336 0.44060
 C475 C 0.57495 0.80626 0.41704
 C476 C 0.43538 0.74358 0.39344
 C477 C 0.40772 0.73433 0.41019
 C478 C 0.43578 0.73466 0.45893
 C479 C 0.46308 0.74411 0.44119
 N480 N 0.46244 0.74773 0.40894
 H481 H 0.53791 0.81601 0.38598
 H482 H 0.53472 0.72332 0.42719
 H483 H 0.58339 0.73525 0.45546
 H484 H 0.58601 0.82962 0.41337
 H485 H 0.43553 0.74687 0.36784
 H486 H 0.38651 0.73027 0.39743
 H487 H 0.43652 0.73088 0.48444
 H488 H 0.48473 0.74798 0.45308
 C489 C 0.46709 0.84787 0.32556
 C490 C 0.52997 0.66997 0.32456
 C491 C 0.40794 0.72947 0.44314
 C492 C 0.58815 0.78342 0.43651
 C493 C 0.36750 -0.00343 0.24868
 C494 C 0.13250 1.00157 0.76298
 C495 C 0.62651 0.51091 0.25302
 C496 C 0.86145 0.49048 0.74600
 C497 C 0.24661 0.36463 0.00700
 C498 C 0.74098 0.13691 1.00683
 C499 C 0.24046 0.63482 0.50764
 C500 C 0.75239 0.86398 0.50697
 C501 C 0.00960 0.23362 0.36255
 C502 C 1.00232 0.74355 0.11844
 C503 C 0.50330 0.25129 0.61493
 C504 C 0.50975 0.74762 0.85461
 C505 C 0.42860 -0.07611 0.28577
 C506 C 0.42707 -0.07121 0.25291
 C507 C 0.40866 -0.04690 0.24121
 C508 C 0.45557 -0.12632 0.31035
 C509 C 0.39489 -0.03115 0.29515
 C510 C 0.41337 -0.05532 0.30679
 C511 C 0.44411 -0.10334 0.29834
 C512 C 0.39006 -0.02816 0.26217
 H513 H 0.43946 -0.08662 0.23633
 H514 H 0.40773 -0.04368 0.21566
 H515 H 0.38407 -0.01523 0.31225
 H516 H 0.41524 -0.05819 0.33231
 C517 C 0.91584 0.40809 0.77330
 C518 C 0.88311 0.40695 0.77544
 C519 C 0.86619 0.43318 0.76587
 C520 C 0.94611 0.36077 0.79929
 C521 C 0.91465 0.46149 0.75051
 C522 C 0.93158 0.43513 0.76020
 C523 C 0.93294 0.38225 0.78651
 C524 C 0.88160 0.46167 0.75481
 H525 H 0.87061 0.38600 0.78520
 H526 H 0.84083 0.43175 0.76818
 H527 H 0.92771 0.48149 0.73972
 H528 H 0.95695 0.43603 0.75785
 C529 C 0.07380 1.08144 0.79223
 C530 C 0.08943 1.08225 0.76231
 C531 C 0.10760 1.05664 0.75233
 C532 C 0.04503 1.13282 0.81331
 C533 C 0.09331 1.02847 0.80159
 C534 C 0.07516 1.05419 0.81156
 C535 C 0.05757 1.10914 0.80352
 C536 C 0.11160 1.03000 0.77267
 H537 H 0.08781 1.10287 0.74673
 H538 H 0.11827 1.05801 0.72853
 H539 H 0.09400 1.00766 0.81702
 H540 H 0.06261 1.05300 0.83456
 C541 C 0.56885 0.59018 0.28605
 C542 C 0.58313 0.59146 0.25548
 C543 C 0.60061 0.56586 0.24412
 C544 C 0.54255 0.64164 0.31026
 C545 C 0.58801 0.53670 0.29318
 C546 C 0.57056 0.56238 0.30453
 C547 C 0.55395 0.61798 0.29898
 C548 C 0.60531 0.53882 0.26369
 H549 H 0.58117 0.61249 0.24054
 H550 H 0.61041 0.56770 0.21999
 H551 H 0.58923 0.51558 0.30811
 H552 H 0.55901 0.56081 0.32802
 C553 C 0.56370 0.43060 0.23200
 C554 C 0.56344 0.45889 0.21408
 C555 C 0.58237 0.48500 0.22207
 C556 C 0.53711 0.37832 0.20964
 C557 C 0.60023 0.45539 0.26724
 C558 C 0.58128 0.42932 0.25922
 C559 C 0.54840 0.40217 0.22073
 C560 C 0.60309 0.48287 0.24729
 H561 H 0.54947 0.46040 0.19322
 H562 H 0.58227 0.50636 0.20733
 H563 H 0.61289 0.45345 0.28885
 H564 H 0.58101 0.40783 0.27381
 C565 C 0.06829 0.92308 0.74026
 C566 C 0.06941 0.95131 0.72220
 C567 C 0.08885 0.97682 0.73066
 C568 C 0.04047 0.87183 0.71730
 C569 C 0.10451 0.94674 0.77652
 C570 C 0.08504 0.92125 0.76800
 C571 C 0.05235 0.89521 0.72865
 C572 C 0.10866 0.97412 0.75659
 H573 H 0.05611 0.95323 0.70091
 H574 H 0.08983 0.99813 0.71581
 H575 H 0.11651 0.94444 0.79850
 H576 H 0.08372 0.89978 0.78265
 C577 C 0.91339 0.58071 0.72781
 C578 C 0.89165 0.56998 0.70626
 C579 C 0.87533 0.54109 0.71159
 C580 C 0.94328 0.63537 0.71390
 C581 C 0.90210 0.53353 0.76058
 C582 C 0.91847 0.56256 0.75514
 C583 C 0.93006 0.61049 0.72137
 C584 C 0.88103 0.52149 0.73829
 H585 H 0.88698 0.58422 0.68538
 H586 H 0.85767 0.53485 0.69496
 H587 H 0.90588 0.52030 0.78231
 H588 H 0.93487 0.57091 0.77234
 C589 C 0.42634 0.07964 0.21995
 C590 C 0.42042 0.07214 0.25216
 C591 C 0.40297 0.04461 0.26104
 C592 C 0.45213 0.13543 0.20225
 C593 C 0.39907 0.03080 0.20557
 C594 C 0.41657 0.05837 0.19672
 C595 C 0.44093 0.10985 0.21065
 C596 C 0.38978 0.02474 0.23785
 H597 H 0.42853 0.08799 0.27044
 H598 H 0.39831 0.03970 0.28619
 H599 H 0.39247 0.01470 0.18695
 H600 H 0.42194 0.06341 0.17169
 C601 C 0.27228 0.41832 -0.08055
 C602 C 0.27623 0.38542 -0.07857
 C603 C 0.26769 0.36882 -0.05052
 C604 C 0.29527 0.44741 -0.13290
 C605 C 0.25003 0.41779 -0.02629
 C606 C 0.25877 0.43446 -0.05455
 C607 C 0.28376 0.43510 -0.10894
 C608 C 0.25570 0.38479 -0.02327
 H609 H 0.28636 0.37258 -0.09865
 H610 H 0.27108 0.34330 -0.04978
 H611 H 0.23864 0.43085 -0.00718
 H612 H 0.25510 0.45991 -0.05606
 C613 C 0.77433 0.91148 0.41510
 C614 C 0.74982 0.92227 0.43509
 C615 C 0.74278 0.90700 0.46447
 C616 C 0.79381 0.93998 0.36118
 C617 C 0.78424 0.86979 0.45339
 C618 C 0.79111 0.88494 0.42414
 C619 C 0.78348 0.92765 0.38563
 C620 C 0.76099 0.88149 0.47500
 H621 H 0.73624 0.94248 0.42805
 H622 H 0.72331 0.91538 0.47925
 H623 H 0.79715 0.84864 0.45873
 H624 H 0.80968 0.87591 0.40852
 C625 C 0.77444 0.08068 1.08632
 C626 C 0.78347 0.07328 1.05489
 C627 C 0.77216 0.09091 1.02955
 C628 C 0.79816 0.05018 1.13479
 C629 C 0.74300 0.12352 1.06711
 C630 C 0.75429 0.10587 1.09232
 C631 C 0.78714 0.06373 1.11258
 C632 C 0.75083 0.11578 1.03501
 H633 H 0.79971 0.05428 1.04997
 H634 H 0.78034 0.08530 1.00552
 H635 H 0.72891 0.14386 1.07317
 H636 H 0.74788 0.11241 1.11661
 C637 C 0.27587 0.58020 0.58727
 C638 C 0.28558 0.57334 0.55589
 C639 C 0.27383 0.59058 0.53051
 C640 C 0.29952 0.55045 0.63618
 C641 C 0.24303 0.62181 0.56799
 C642 C 0.25476 0.60455 0.59321
 C643 C 0.28866 0.56356 0.61365
 C644 C 0.25139 0.61445 0.53591
 H645 H 0.30257 0.55502 0.55104
 H646 H 0.28235 0.58536 0.50650
 H647 H 0.22808 0.64150 0.57406
 H648 H 0.24782 0.61072 0.61748
 C649 C 0.20585 0.58143 0.42693
 C650 C 0.21089 0.56510 0.45541
 C651 C 0.22163 0.58167 0.48174
 C652 C 0.18512 0.55230 0.37622
 C653 C 0.22135 0.63101 0.45124
 C654 C 0.21069 0.61444 0.42510
 C655 C 0.19482 0.56486 0.39963
 C656 C 0.22833 0.61486 0.47970
 H657 H 0.20630 0.53960 0.45735
 H658 H 0.22412 0.56835 0.50361
 H659 H 0.22483 0.65664 0.44913
 H660 H 0.20620 0.62746 0.40340
 C661 C 0.70736 0.08638 0.92401
 C662 C 0.71063 0.06930 0.95244
 C663 C 0.72068 0.08500 0.97960
 C664 C 0.68923 0.05927 0.87119
 C665 C 0.72300 0.13495 0.94999
 C666 C 0.71301 0.11929 0.92307
 C667 C 0.69766 0.07078 0.89564
 C668 C 0.72849 0.11797 0.97840
 H669 H 0.70537 0.04389 0.95364
 H670 H 0.72204 0.07119 1.00134
 H671 H 0.72741 0.16049 0.94843
 H672 H 0.70989 0.13289 0.90139
 C673 C 0.73589 0.92489 0.58966
 C674 C 0.75095 0.93797 0.56209
 C675 C 0.75661 0.91888 0.53535
 C676 C 0.71881 0.95960 0.63933
 C677 C 0.73278 0.87355 0.56416
 C678 C 0.72727 0.89257 0.59074
 C679 C 0.72770 0.94448 0.61654
 C680 C 0.74626 0.88656 0.53539
 H681 H 0.75824 0.96290 0.56123
 H682 H 0.76938 0.92954 0.51498
 H683 H 0.72598 0.84852 0.56583
 H684 H 0.71592 0.88208 0.61208
 C685 C 0.22623 0.41799 0.09431
 C686 C 0.20699 0.39222 0.08635
 C687 C 0.21330 0.37533 0.05850
 C688 C 0.20861 0.44954 0.14599
 C689 C 0.25896 0.40931 0.04660
 C690 C 0.25250 0.42634 0.07461
 C691 C 0.21801 0.43573 0.12252
 C692 C 0.23856 0.38445 0.03710
 H693 H 0.18700 0.38504 0.10181
 H694 H 0.19839 0.35476 0.05421
 H695 H 0.27982 0.41572 0.03212
 H696 H 0.26797 0.44592 0.08087
 C697 C -0.07275 0.27365 0.41216
 C698 C -0.04255 0.28439 0.41897
 C699 C -0.01631 0.27078 0.40378
 C700 C -0.12337 0.30158 0.43604
 C701 C -0.05055 0.23576 0.37494
 C702 C -0.07660 0.24931 0.39021
 C703 C -0.10004 0.28884 0.42578
 C704 C -0.01962 0.24562 0.38188
 H705 H -0.03929 0.30378 0.43546
 H706 H 0.00675 0.28029 0.40867
 H707 H -0.05522 0.21849 0.35676
 H708 H -0.09990 0.24140 0.38409
 C709 C 0.42293 0.77057 0.90808
 C710 C 0.43276 0.78851 0.88117
 C711 C 0.46022 0.78111 0.86402
 C712 C 0.37303 0.79157 0.94005
 C713 C 0.46775 0.73661 0.89979
 C714 C 0.44013 0.74421 0.91713
 C715 C 0.39557 0.78049 0.92627
 C716 C 0.47939 0.75612 0.87401
 H717 H 0.41918 0.80847 0.87342
 H718 H 0.46616 0.79512 0.84275
 H719 H 0.48042 0.71581 0.90688
 H720 H 0.43233 0.72968 0.93758
 C721 C 1.09065 0.76956 0.06702
 C722 C 1.08636 0.77488 0.09964
 C723 C 1.05805 0.76635 0.11550
 C724 C 1.14375 0.79099 0.03901
 C725 C 1.03812 0.74615 0.06634
 C726 C 1.06665 0.75485 0.05041
 C727 C 1.11948 0.78037 0.05098
 C728 C 1.03285 0.75294 0.09903
 H729 H 1.10488 0.78593 0.11284
 H730 H 1.05552 0.77072 0.14085
 H731 H 1.02060 0.73382 0.05298
 H732 H 1.06998 0.75012 0.02519
 C733 C 0.58916 0.27796 0.55927
 C734 C 0.56488 0.26197 0.54419
 C735 C 0.53699 0.25335 0.56142
 C736 C 0.64187 0.29788 0.52918
 C737 C 0.55806 0.27637 0.60880
 C738 C 0.58571 0.28485 0.59164
 C739 C 0.61768 0.28799 0.54203
 C740 C 0.53263 0.26144 0.59391
 H741 H 0.56756 0.25598 0.51919
 H742 H 0.51936 0.23985 0.54930
 H743 H 0.55635 0.28170 0.63399
 H744 H 0.60447 0.29686 0.60372
 C745 C 0.41896 0.22318 0.56553
 C746 C 0.43673 0.25011 0.55517
 C747 C 0.46401 0.25888 0.57070
 C748 C 0.36772 0.20162 0.53905
 C749 C 0.45532 0.21408 0.60705
 C750 C 0.42826 0.20547 0.59163
 C751 C 0.39102 0.21296 0.55012
 C752 C 0.47464 0.24021 0.59615
 H753 H 0.42941 0.26444 0.53534
 H754 H 0.47686 0.28032 0.56287
 H755 H 0.46050 0.20041 0.62806
 H756 H 0.41430 0.18501 0.60037
 C757 C 0.91932 0.72023 0.06509
 C758 C 0.93815 0.74695 0.05643
 C759 C 0.96523 0.75387 0.07299
 C760 C 0.86730 0.70316 0.03741
 C761 C 0.95437 0.70749 0.10683
 C762 C 0.92753 0.70067 0.09031
 C763 C 0.89112 0.71240 0.04906
 C764 C 0.97451 0.73368 0.09793
 H765 H 0.93170 0.76263 0.03725
 H766 H 0.97883 0.77529 0.06659
 H767 H 0.95850 0.69257 0.12729
 H768 H 0.91273 0.68031 0.09770
 C769 C 0.59132 0.72621 0.90988
 C770 C 0.59109 0.71989 0.87733
 C771 C 0.56488 0.72694 0.86016
 C772 C 0.64027 0.70794 0.94124
 C773 C 0.53909 0.74760 0.90787
 C774 C 0.56545 0.74044 0.92507
 C775 C 0.61790 0.71706 0.92750
 C776 C 0.53774 0.73964 0.87529
 H777 H 0.61115 0.70928 0.86518
 H778 H 0.56552 0.72200 0.83487
 H779 H 0.52020 0.75980 0.92018
 H780 H 0.56566 0.74605 0.95018
 C781 C 0.08695 0.20173 0.41903
 C782 C 0.05852 0.20927 0.43471
 C783 C 0.03307 0.21875 0.41720
 C784 C 0.13674 0.18516 0.45005
 C785 C 0.06429 0.21192 0.36829
 C786 C 0.08953 0.20250 0.38578
 C787 C 0.11368 0.19291 0.43661
 C788 C 0.03598 0.22170 0.38360
 H789 H 0.05601 0.20787 0.46048
 H790 H 0.01135 0.22350 0.43024
 H791 H 0.06713 0.21267 0.34252
 H792 H 0.11121 0.19611 0.37331
 C793 C 0.54148 0.17236 0.66870
 C794 C 0.53491 0.16912 0.63663
 C795 C 0.52258 0.19449 0.61999
 C796 C 0.56760 0.12408 0.69755
 C797 C 0.52358 0.22689 0.66736
 C798 C 0.53603 0.20134 0.68400
 C799 C 0.55532 0.14628 0.68507
 C800 C 0.51561 0.22359 0.63521
 H801 H 0.53970 0.14704 0.62432
 H802 H 0.51828 0.19143 0.59497
 H803 H 0.52106 0.24929 0.67961
 H804 H 0.54192 0.20438 0.70863
 C805 C 1.03562 0.66359 0.17419
 C806 C 1.03115 0.66072 0.14163
 C807 C 1.02020 0.68639 0.12435
 C808 C 1.05993 0.61503 0.20421
 C809 C 1.01828 0.71825 0.17216
 C810 C 1.02935 0.69242 0.18942
 C811 C 1.04839 0.63735 0.19121
 C812 C 1.01260 0.71541 0.13937
 H813 H 1.03660 0.63873 0.12943
 H814 H 1.01758 0.68366 0.09898
 H815 H 1.01516 0.74053 0.18448
 H816 H 1.03362 0.69514 0.21450
 C817 C 0.96109 0.82406 0.16911
 C818 C 0.98403 0.82958 0.14486
 C819 C 0.99779 0.80404 0.12903
 C820 C 0.93335 0.87370 0.19510
 C821 C 0.96558 0.76707 0.16169
 C822 C 0.95178 0.79277 0.17747
 C823 C 0.94597 0.85075 0.18385
 C824 C 0.98961 0.77210 0.13777
 H825 H 0.99075 0.85376 0.13757
 H826 H 1.01412 0.80968 0.10926
 H827 H 0.95727 0.74312 0.16792
 H828 H 0.93344 0.78825 0.19574
 C829 C 0.46350 0.33086 0.66853
 C830 C 0.48394 0.33688 0.64218
 C831 C 0.49701 0.31164 0.62521
 C832 C 0.43699 0.37972 0.69753
 C833 C 0.46890 0.27398 0.66069
 C834 C 0.45579 0.29936 0.67764
 C835 C 0.44920 0.35720 0.68487
 C836 C 0.49076 0.27955 0.63483
 H837 H 0.48931 0.36118 0.63429
 H838 H 0.51144 0.31755 0.60406
 H839 H 0.46188 0.24985 0.66773
 H840 H 0.43929 0.29440 0.69753
 C841 C 0.47348 0.66528 0.80357
 C842 C 0.46613 0.69623 0.79415
 C843 C 0.47878 0.72260 0.80973
 C844 C 0.44465 0.61422 0.78139
 C845 C 0.50610 0.68702 0.84411
 C846 C 0.49358 0.66083 0.82844
 C847 C 0.45807 0.63787 0.79037
 C848 C 0.49961 0.71863 0.83465
 H849 H 0.44985 0.69996 0.77548
 H850 H 0.47164 0.74622 0.80287
 H851 H 0.51979 0.68212 0.86455
 H852 H 0.49863 0.63696 0.83663
 C853 C -0.01998 0.14976 0.30964
 C854 C -0.00593 0.17567 0.29275
 C855 C 0.00498 0.20241 0.30914
 C856 C -0.04910 0.10154 0.28268
 C857 C -0.01118 0.17653 0.35922
 C858 C -0.02180 0.14997 0.34289
 C859 C -0.03478 0.12368 0.29360
 C860 C 0.00092 0.20402 0.34271
 H861 H -0.00390 0.17547 0.26694
 H862 H 0.01620 0.22163 0.29526
 H863 H -0.01372 0.17630 0.38501
 H864 H -0.03236 0.12991 0.35626
 C865 C 0.03753 0.32134 0.31008
 C866 C 0.00974 0.30501 0.30329
 C867 C 0.00145 0.27634 0.31936
 C868 C 0.05547 0.37797 0.28704
 C869 C 0.04866 0.28067 0.34895
 C870 C 0.05689 0.30899 0.33280
 C871 C 0.04597 0.35198 0.29607
 C872 C 0.02107 0.26309 0.34214
 H873 H -0.00584 0.31476 0.28621
 H874 H -0.02071 0.26470 0.31451
 H875 H 0.06363 0.27373 0.36774
 H876 H 0.07804 0.32191 0.33891
 C877 C 0.54712 0.83169 0.80204
 C878 C 0.53931 0.83284 0.83460
 C879 C 0.52760 0.80573 0.85078
 C880 C 0.57136 0.88529 0.77718
 C881 C 0.53179 0.77551 0.80198
 C882 C 0.54370 0.80294 0.78573
 C883 C 0.56006 0.86017 0.78670
 C884 C 0.52250 0.77675 0.83470
 H885 H 0.54253 0.85477 0.84765
 H886 H 0.52207 0.80743 0.87612
 H887 H 0.53052 0.75346 0.78894
 H888 H 0.55058 0.80160 0.76064
 C889 C 0.68196 0.54049 0.16713
 C890 C 0.66529 0.51141 0.16738
 C891 C 0.64863 0.50076 0.19505
 C892 C 0.70570 0.56591 0.11313
 C893 C 0.66698 0.54731 0.22292
 C894 C 0.68360 0.55790 0.19524
 C895 C 0.69549 0.55365 0.13769
 C896 C 0.64723 0.51976 0.22274
 H897 H 0.66460 0.49724 0.14597
 H898 H 0.63673 0.47779 0.19426
 H899 H 0.66811 0.56162 0.24418
 H900 H 0.69694 0.58020 0.19553
 C901 C 0.19079 1.02911 0.67843
 C902 C 0.17383 1.00020 0.67864
 C903 C 0.15629 0.99019 0.70597
 C904 C 0.21492 1.05376 0.62432
 C905 C 0.17438 1.03696 0.73368
 C906 C 0.19188 1.04693 0.70632
 C907 C 0.20471 1.04187 0.64903
 C908 C 0.15429 1.00968 0.73330
 H909 H 0.17351 0.98576 0.65740
 H910 H 0.14409 0.96737 0.70519
 H911 H 0.17505 1.05158 0.75477
 H912 H 0.20539 1.06912 0.70663
 C913 C 0.19486 0.97119 0.83681
 C914 C 0.19242 0.95392 0.80872
 C915 C 0.17345 0.96469 0.78481
 C916 C 0.22258 0.94442 0.88504
 C917 C 0.16077 1.01115 0.81610
 C918 C 0.17976 1.00028 0.84006
 C919 C 0.21069 0.95756 0.86308
 C920 C 0.15546 0.99236 0.78896
 H921 H 0.20440 0.93157 0.80569
 H922 H 0.17150 0.95047 0.76357
 H923 H 0.15021 1.03412 0.81932
 H924 H 0.18212 1.01426 0.86142
 C925 C 0.69101 0.48110 0.32512
 C926 C 0.68847 0.46413 0.29686
 C927 C 0.66897 0.47486 0.27337
 C928 C 0.71911 0.45411 0.37299
 C929 C 0.65611 0.52080 0.30533
 C930 C 0.67562 0.50998 0.32886
 C931 C 0.70708 0.46733 0.35117
 C932 C 0.65052 0.50212 0.27817
 H933 H 0.70068 0.44197 0.29342
 H934 H 0.66685 0.46080 0.25204
 H935 H 0.64528 0.54358 0.30897
 H936 H 0.67809 0.52379 0.35032
 C937 C 0.81582 0.45601 0.66125
 C938 C 0.84813 0.46193 0.66094
 C939 C 0.86216 0.47274 0.68825
 C940 C 0.79307 0.43392 0.60806
 C941 C 0.81165 0.47128 0.71690
 C942 C 0.79761 0.46036 0.68935
 C943 C 0.80221 0.44429 0.63275
 C944 C 0.84415 0.47875 0.71652
 H945 H 0.86260 0.45803 0.63953
 H946 H 0.88731 0.47692 0.68728
 H947 H 0.79696 0.47322 0.73838
 H948 H 0.77265 0.45499 0.69008
 C949 C 0.31528 -0.04156 0.16963
 C950 C 0.32685 -0.06237 0.19224
 C951 C 0.34242 -0.05038 0.21828
 C952 C 0.29505 -0.06585 0.11617
 C953 C 0.33295 0.00342 0.20050
 C954 C 0.31745 -0.00862 0.17435
 C955 C 0.30332 -0.05422 0.14069
 C956 C 0.34809 -0.01721 0.22146
 H957 H 0.32446 -0.08797 0.18940
 H958 H 0.35042 -0.06734 0.23552
 H959 H 0.33437 0.02902 0.20355
 H960 H 0.30788 0.00779 0.15743
 C961 C 0.30304 0.02698 0.32529
 C962 C 0.30774 -0.00555 0.32045
 C963 C 0.32638 -0.01547 0.29428
 C964 C 0.28231 0.04951 0.38062
 C965 C 0.33337 0.03935 0.27648
 C966 C 0.31457 0.04920 0.30240
 C967 C 0.29033 0.03829 0.35531
 C968 C 0.34225 0.00717 0.27380
 H969 H 0.29831 -0.02310 0.33764
 H970 H 0.33039 -0.04072 0.29147
 H971 H 0.34207 0.05734 0.25945
 H972 H 0.31032 0.07441 0.30539
 C973 C 0.80528 0.52679 0.82673
 C974 C 0.79948 0.53645 0.79562
 C975 C 0.81640 0.52344 0.76975
 C976 C 0.78234 0.55736 0.87699
 C977 C 0.84462 0.49080 0.80613
 C978 C 0.82758 0.50369 0.83182
 C979 C 0.79158 0.54312 0.85373
 C980 C 0.83923 0.50010 0.77435
 H981 H 0.78281 0.55496 0.79141
 H982 H 0.81249 0.53248 0.74604
 H983 H 0.86317 0.47489 0.81177
 H984 H 0.83295 0.49672 0.85586
 C985 C 0.15778 0.68802 0.53844
 C986 C 0.18336 0.70461 0.52362
 C987 C 0.20995 0.68811 0.51289
 C988 C 0.10888 0.71635 0.56537
 C989 C 0.18477 0.63844 0.53104
 C990 C 0.15838 0.65488 0.54154
 C991 C 0.13130 0.70448 0.55214
 C992 C 0.21172 0.65478 0.51784
 H993 H 0.18287 0.73029 0.52056
 H994 H 0.22879 0.70163 0.50071
 H995 H 0.18459 0.61274 0.53408
 H996 H 0.13858 0.64170 0.55266
 C997 C 0.65938 0.19309 1.03466
 C998 C 0.65921 0.16005 1.03913
 C999 C 0.68543 0.14267 1.02994
 C1000 C 0.61023 0.22327 1.05862
 C1001 C 0.71211 0.19118 1.01068
 C1002 C 0.68569 0.20863 1.02006
 C1003 C 0.63282 0.21056 1.04664
 C1004 C 0.71296 0.15795 1.01676
 H1005 H 0.63886 0.14768 1.05011
 H1006 H 0.68452 0.11705 1.03368
 H1007 H 0.73144 0.20386 0.99839
 H1008 H 0.68583 0.23420 1.01598
 C1009 C 0.82950 0.18701 0.98005
 C1010 C 0.81865 0.16197 0.96164
 C1011 C 0.79044 0.14621 0.96996
 C1012 C 0.88212 0.21454 0.95738
 C1013 C 0.78379 0.17991 1.01608
 C1014 C 0.81226 0.19584 1.00756
 C1015 C 0.85830 0.20308 0.96956
 C1016 C 0.77149 0.15577 0.99654
 H1017 H 0.83221 0.15438 0.94073
 H1018 H 0.78404 0.12604 0.95560
 H1019 H 0.77120 0.18653 1.03789
 H1020 H 0.82080 0.21483 1.02241
 C1021 C 0.32732 0.68789 0.48049
 C1022 C 0.31660 0.66333 0.46135
 C1023 C 0.28879 0.64671 0.46962
 C1024 C 0.38002 0.71674 0.45958
 C1025 C 0.28216 0.67881 0.51688
 C1026 C 0.31021 0.69553 0.50846
 C1027 C 0.35607 0.70450 0.47067
 C1028 C 0.27013 0.65489 0.49692
 H1029 H 0.33006 0.65665 0.44005
 H1030 H 0.28265 0.62685 0.45474
 H1031 H 0.26978 0.68451 0.53908
 H1032 H 0.31862 0.71414 0.52386
 C1033 C 0.66827 0.81312 0.47755
 C1034 C 0.66558 0.83967 0.49717
 C1035 C 0.69232 0.85525 0.50769
 C1036 C 0.61677 0.79135 0.45176
 C1037 C 0.72490 0.81733 0.47948
 C1038 C 0.69797 0.80184 0.46882
 C1039 C 0.64054 0.80008 0.46382
 C1040 C 0.72266 0.84408 0.49963
 H1041 H 0.64274 0.84922 0.50327
 H1042 H 0.68895 0.87694 0.52098
 H1043 H 0.74761 0.80899 0.47121
 H1044 H 0.70038 0.78179 0.45289
 C1045 C 0.16435 0.31418 -0.02743
 C1046 C 0.16347 0.34644 -0.01977
 C1047 C 0.18979 0.36185 -0.00829
 C1048 C 0.11401 0.28996 -0.05336
 C1049 C 0.21840 0.31268 -0.01184
 C1050 C 0.19184 0.29726 -0.02353
 C1051 C 0.13734 0.29969 -0.04118
 C1052 C 0.21762 0.34522 -0.00333
 H1053 H 0.14254 0.35996 -0.02330
 H1054 H 0.18857 0.38712 -0.00340
 H1055 H 0.23962 0.29927 -0.01057
 H1056 H 0.19298 0.27240 -0.03020
 C1057 C 0.32543 0.31230 0.04266
 C1058 C 0.33078 0.33696 0.02039
 C1059 C 0.30570 0.35298 0.00810
 C1060 C 0.37502 0.29025 0.07036
 C1061 C 0.26937 0.31930 0.03990
 C1062 C 0.29467 0.30337 0.05237
 C1063 C 0.35189 0.29899 0.05768
 C1064 C 0.27429 0.34410 0.01700
 H1065 H 0.35451 0.34476 0.01345
 H1066 H 0.31133 0.37328 -0.00736
 H1067 H 0.24586 0.31284 0.04879
 H1068 H 0.29026 0.28485 0.07030
 C1069 C 0.83059 0.81253 0.54483
 C1070 C 0.83469 0.84351 0.53269
 C1071 C 0.80966 0.85918 0.51996
 C1072 C 0.87864 0.78873 0.57375
 C1073 C 0.77596 0.81276 0.53106
 C1074 C 0.80121 0.79710 0.54401
 C1075 C 0.85626 0.79821 0.56028
 C1076 C 0.77990 0.84399 0.51819
 H1077 H 0.85713 0.85598 0.53383
 H1078 H 0.81340 0.88362 0.51179
 H1079 H 0.75327 0.80073 0.53232
 H1080 H 0.79759 0.77337 0.55417
   
