data_POSCAR
  _audit_creation_date              2014-09-24
  _audit_creation_method            'ToBaCCo'
  _symmetry_space_group_name_H-M    'P1'
  _symmetry_Int_Tables_number       1
  _symmetry_cell_setting            triclinic
  loop_
  _symmetry_equiv_pos_as_xyz
 x,y,z
_cell_length_a 32.0661
_cell_length_b 28.0975
_cell_length_c 16.3962
_cell_angle_alpha 89.965600
_cell_angle_beta 89.536000
_cell_angle_gamma 90.099100
loop_
  _atom_site_label
  _atom_site_type_symbol
  _atom_site_fract_x
  _atom_site_fract_y
  _atom_site_fract_z
C1 C 0.64783 0.27743 0.57347
 C2 C 0.63295 0.29346 0.49824
 C3 C 0.64774 0.27493 0.42464
 C4 C 0.67912 0.23984 0.42493
 C5 C 0.69619 0.22470 0.50017
 C6 C 0.68045 0.24339 0.57485
 C7 C 0.69852 0.22863 0.64845
 C8 C 0.73107 0.19598 0.64891
 C9 C 0.74744 0.17738 0.57571
 C10 C 0.72931 0.19114 0.50061
 C11 C 0.69374 0.21953 0.35202
 C12 C 0.72509 0.18540 0.35264
 C13 C 0.74424 0.17159 0.42593
 C14 C 0.77640 0.13692 0.42704
 C15 C 0.79340 0.12341 0.50216
 C16 C 0.78098 0.14457 0.57581
 H17 H 0.68773 0.24243 0.70650
 H18 H 0.74337 0.18538 0.70743
 H19 H 0.68064 0.22947 0.29380
 H20 H 0.73394 0.16972 0.29483
 H21 H 0.60854 0.32019 0.49680
 H22 H 0.81943 0.09872 0.50254
 C23 C 0.35515 0.73700 0.43050
 C24 C 0.37087 0.72235 0.50555
 C25 C 0.35295 0.73735 0.57902
 C26 C 0.31820 0.76813 0.57816
 C27 C 0.30186 0.78335 0.50232
 C28 C 0.32049 0.76786 0.42812
 C29 C 0.30412 0.78369 0.35369
 C30 C 0.26952 0.81349 0.35199
 C31 C 0.25002 0.82834 0.42465
 C32 C 0.26648 0.81354 0.50061
 C33 C 0.29959 0.78425 0.65086
 C34 C 0.26484 0.81391 0.64920
 C35 C 0.24715 0.82807 0.57475
 C36 C 0.21096 0.85701 0.57219
 C37 C 0.19588 0.87207 0.49657
 C38 C 0.21405 0.85717 0.42336
 H39 H 0.31797 0.77315 0.29605
 H40 H 0.25799 0.82467 0.29314
 H41 H 0.31177 0.77401 0.70969
 H42 H 0.25174 0.82551 0.70689
 H43 H 0.39710 0.69801 0.50681
 H44 H 0.16767 0.89336 0.49433
 C45 C 0.14246 0.23192 -0.42861
 C46 C 0.12588 0.21725 -0.50301
 C47 C 0.14397 0.23090 -0.57747
 C48 C 0.17794 0.26326 -0.57764
 C49 C 0.19495 0.27868 -0.50248
 C50 C 0.17755 0.26233 -0.42764
 C51 C 0.19534 0.27718 -0.35388
 C52 C 0.22963 0.30761 -0.35347
 C53 C 0.24699 0.32476 -0.42678
 C54 C 0.22943 0.31048 -0.50210
 C55 C 0.19443 0.28168 -0.65084
 C56 C 0.22739 0.31397 -0.65043
 C57 C 0.24608 0.32814 -0.57691
 C58 C 0.27944 0.36148 -0.57549
 C59 C 0.29651 0.37454 -0.50024
 C60 C 0.28155 0.35590 -0.42672
 H61 H 0.18279 0.26545 -0.29574
 H62 H 0.24216 0.31811 -0.29505
 H63 H 0.18134 0.27193 -0.70917
 H64 H 0.23773 0.32807 -0.70855
 H65 H 0.09970 0.19267 -0.50263
 H66 H 0.32326 0.39828 -0.49898
 C67 C -0.28571 0.64205 -0.42272
 C68 C -0.30216 0.62758 -0.49762
 C69 C -0.28827 0.64687 -0.57180
 C70 C -0.25371 0.67841 -0.57193
 C71 C -0.23652 0.69359 -0.49677
 C72 C -0.25314 0.67624 -0.42177
 C73 C -0.23492 0.69115 -0.34825
 C74 C -0.20179 0.72310 -0.34809
 C75 C -0.18480 0.74041 -0.42145
 C76 C -0.20199 0.72539 -0.49666
 C77 C -0.23485 0.69343 -0.64528
 C78 C -0.20052 0.72374 -0.64515
 C79 C -0.18401 0.74105 -0.57166
 C80 C -0.14832 0.77109 -0.57057
 C81 C -0.13256 0.78604 -0.49535
 C82 C -0.15019 0.77136 -0.42159
 H83 H -0.24552 0.67756 -0.28993
 H84 H -0.18887 0.73321 -0.28979
 H85 H -0.24604 0.68096 -0.70363
 H86 H -0.18664 0.73274 -0.70348
 H87 H -0.32849 0.60318 -0.49762
 H88 H -0.10633 0.81052 -0.49394
 N89 N -0.03081 0.90888 -0.08352
 N90 N -0.04946 0.86855 -0.10305
 N91 N 0.04713 0.96421 -0.14342
 N92 N 0.07350 0.95954 -0.20507
 N93 N 0.05437 0.93179 -0.08764
 N94 N 0.08602 0.90458 -0.10967
 N95 N -0.03814 0.94170 -0.13865
 N96 N -0.06215 0.92471 -0.19668
 C97 C -0.06932 0.87931 -0.17322
 C98 C 0.09774 0.92235 -0.18303
 N99 N 0.02005 1.09708 -0.08503
 N100 N 0.03903 1.13720 -0.10565
 N101 N -0.05848 1.04133 -0.13710
 N102 N -0.08550 1.04590 -0.19670
 N103 N -0.06509 1.07369 -0.08065
 N104 N -0.09686 1.10111 -0.10094
 N105 N 0.02665 1.06426 -0.14078
 N106 N 0.05035 1.08103 -0.20022
 Mn107 Mn -0.00567 1.00292 -0.14041
 C108 C 0.05808 1.12635 -0.17738
 C109 C -0.10946 1.08304 -0.17333
 N110 N 0.05636 0.93123 0.08728
 N111 N 0.08877 0.90428 0.10472
 N112 N -0.03490 0.94078 0.14911
 N113 N -0.05880 0.92401 0.20830
 N114 N -0.02897 0.90837 0.09255
 N115 N -0.04846 0.86847 0.11220
 N116 N 0.05046 0.96341 0.14417
 N117 N 0.07857 0.95901 0.20194
 Mn118 Mn 0.01277 0.91970 0.00220
 C119 C 0.10243 0.92220 0.17627
 C120 C -0.06767 0.87929 0.18364
 N121 N -0.06333 1.07254 0.09640
 N122 N -0.09886 1.09423 0.11413
 N123 N 0.03008 1.06305 0.14559
 N124 N 0.05676 1.07853 0.20023
 N125 N 0.02188 1.09645 0.09199
 N126 N 0.04241 1.13594 0.10969
 N127 N -0.05518 1.03988 0.15125
 N128 N -0.08479 1.03824 0.20720
 Mn129 Mn -0.02179 1.08550 0.00578
 Mn130 Mn -0.00232 1.00189 0.14809
 Cl131 Cl -0.00424 1.00255 0.00382
 C132 C -0.11226 1.07166 0.18282
 C133 C 0.06467 1.12369 0.17639
 N134 N 0.55665 0.57215 -0.09099
 N135 N 0.59175 0.59462 -0.10926
 N136 N 0.46349 0.56458 -0.14036
 N137 N 0.43937 0.58219 -0.19767
 N138 N 0.47192 0.59718 -0.08551
 N139 N 0.45378 0.63789 -0.10431
 N140 N 0.54839 0.53968 -0.14606
 N141 N 0.57773 0.53882 -0.20276
 C142 C 0.60495 0.57269 -0.17841
 C143 C 0.43328 0.62776 -0.17407
 N144 N 0.43535 0.43198 -0.08299
 N145 N 0.40378 0.40418 -0.10316
 N146 N 0.52601 0.44091 -0.14481
 N147 N 0.55000 0.42475 -0.20398
 N148 N 0.52050 0.40831 -0.08841
 N149 N 0.54090 0.36899 -0.10812
 N150 N 0.44134 0.46494 -0.13885
 N151 N 0.41406 0.46032 -0.19810
 Mn152 Mn 0.49471 0.50260 -0.14299
 C153 C 0.39055 0.42269 -0.17467
 C154 C 0.55931 0.37986 -0.18067
 N155 N 0.47426 0.59740 0.09034
 N156 N 0.45623 0.63796 0.11084
 N157 N 0.55200 0.54059 0.14213
 N158 N 0.57893 0.54540 0.20187
 N159 N 0.55895 0.57261 0.08521
 N160 N 0.59093 0.59987 0.10504
 N161 N 0.46718 0.56478 0.14622
 N162 N 0.44398 0.58214 0.20584
 Mn163 Mn 0.51558 0.58525 -0.00033
 C164 C 0.43706 0.62755 0.18254
 C165 C 0.60326 0.58227 0.17785
 N166 N 0.52261 0.40849 0.08849
 N167 N 0.54203 0.36847 0.10701
 N168 N 0.44527 0.46547 0.14794
 N169 N 0.41595 0.46612 0.20463
 N170 N 0.43748 0.43254 0.09337
 N171 N 0.40250 0.40980 0.11182
 N172 N 0.53013 0.44124 0.14359
 N173 N 0.55485 0.42452 0.20059
 Mn174 Mn 0.47894 0.41977 0.00269
 Mn175 Mn 0.49861 0.50297 0.14544
 Cl176 Cl 0.49692 0.50262 0.00122
 C177 C 0.56220 0.37920 0.17700
 C178 C 0.38900 0.43190 0.18071
 C179 C 0.30260 0.43073 0.34222
 C180 C 0.29824 0.38075 0.35350
 C181 C 0.31828 0.34984 0.29855
 C182 C 0.34522 0.36736 0.23847
 C183 C 0.35301 0.41627 0.23132
 C184 C 0.32972 0.44859 0.28008
 C185 C 0.27942 0.46334 0.39005
 C186 C 0.28321 0.51222 0.37759
 C187 C 0.30941 0.52962 0.31653
 C188 C 0.33225 0.49832 0.26772
 H189 H 0.25756 0.45133 0.43632
 H190 H 0.26520 0.53669 0.41464
 H191 H 0.31155 0.56758 0.30622
 H192 H 0.35085 0.51352 0.21895
 H193 H 0.31573 0.31162 0.30620
 H194 H 0.36242 0.34217 0.20125
 C195 C -0.08443 0.78488 0.34693
 C196 C -0.12837 0.78881 0.35844
 C197 C -0.15123 0.81805 0.30557
 C198 C -0.13114 0.84540 0.24617
 C199 C -0.08776 0.84418 0.23751
 C200 C -0.06397 0.81329 0.28686
 C201 C -0.06041 0.75287 0.39369
 C202 C -0.01719 0.75103 0.38479
 C203 C 0.00292 0.78035 0.32852
 C204 C -0.02007 0.81099 0.27944
 H205 H -0.07486 0.72888 0.43720
 H206 H 0.00078 0.72678 0.42184
 H207 H 0.03649 0.77912 0.32262
 H208 H -0.00314 0.83276 0.23590
 H209 H -0.18454 0.82252 0.31413
 H210 H -0.14942 0.86941 0.20912
 C211 C 0.66647 0.66870 0.31108
 C212 C 0.68931 0.63466 0.35729
 C213 C 0.68511 0.58622 0.33867
 C214 C 0.65902 0.57094 0.27691
 C215 C 0.63549 0.60322 0.23147
 C216 C 0.63950 0.65289 0.24729
 C217 C 0.66712 0.71771 0.33106
 C218 C 0.64381 0.75054 0.28724
 C219 C 0.61834 0.73537 0.22435
 C220 C 0.61553 0.68718 0.20530
 H221 H 0.68503 0.73133 0.38142
 H222 H 0.64504 0.78792 0.30300
 H223 H 0.59994 0.76104 0.19107
 H224 H 0.59389 0.67787 0.15815
 H225 H 0.70178 0.55965 0.37357
 H226 H 0.65613 0.53300 0.26628
 C227 C 0.15162 1.17439 0.30724
 C228 C 0.12854 1.20941 0.35117
 C229 C 0.08696 1.21825 0.32980
 C230 C 0.06791 1.19298 0.26732
 C231 C 0.08931 1.15688 0.22613
 C232 C 0.13166 1.14798 0.24432
 C233 C 0.19312 1.16268 0.32774
 C234 C 0.21473 1.12731 0.28540
 C235 C 0.19546 1.10244 0.22272
 C236 C 0.15429 1.11242 0.20235
 H237 H 0.20922 1.18027 0.37692
 H238 H 0.24655 1.11898 0.30161
 H239 H 0.21241 1.07502 0.19012
 H240 H 0.14036 1.09217 0.15343
 H241 H 0.06871 1.24428 0.36331
 H242 H 0.03528 1.19949 0.25479
 C243 C 0.60331 0.27250 -0.30161
 C244 C 0.63027 0.29792 -0.35565
 C245 C 0.63511 0.34700 -0.34554
 C246 C 0.61357 0.37124 -0.28510
 C247 C 0.58545 0.34799 -0.23261
 C248 C 0.58058 0.29765 -0.23947
 C249 C 0.59630 0.22316 -0.31148
 C250 C 0.56867 0.19875 -0.26058
 C251 C 0.54680 0.22294 -0.20007
 C252 C 0.55227 0.27179 -0.18985
 H253 H 0.61175 0.20300 -0.35900
 H254 H 0.56382 0.16092 -0.26878
 H255 H 0.52501 0.20380 -0.16133
 H256 H 0.53356 0.28829 -0.14318
 H257 H 0.65520 0.36714 -0.38647
 H258 H 0.61776 0.40941 -0.28163
 C259 C 0.16388 0.83577 -0.31218
 C260 C 0.18737 0.86966 -0.35818
 C261 C 0.18174 0.91827 -0.34262
 C262 C 0.15395 0.93385 -0.28319
 C263 C 0.13002 0.90164 -0.23753
 C264 C 0.13489 0.85185 -0.25137
 C265 C 0.16615 0.78649 -0.32950
 C266 C 0.14194 0.75375 -0.28638
 C267 C 0.11403 0.76925 -0.22702
 C268 C 0.10989 0.81764 -0.21047
 H269 H 0.18611 0.77261 -0.37718
 H270 H 0.14436 0.71616 -0.30009
 H271 H 0.09484 0.74364 -0.19459
 H272 H 0.08624 0.82720 -0.16659
 H273 H 0.19865 0.94466 -0.37814
 H274 H 0.15034 0.97185 -0.27419
 C275 C 0.41025 0.73222 -0.31641
 C276 C 0.37080 0.71751 -0.34521
 C277 C 0.35132 0.67762 -0.31087
 C278 C 0.37139 0.65058 -0.25199
 C279 C 0.41137 0.66281 -0.22523
 C280 C 0.43099 0.70455 -0.25619
 C281 C 0.43008 0.77309 -0.34853
 C282 C 0.46976 0.78620 -0.32270
 C283 C 0.49048 0.75875 -0.26520
 C284 C 0.47156 0.71820 -0.23244
 H285 H 0.41503 0.79516 -0.39370
 H286 H 0.48464 0.81760 -0.34789
 H287 H 0.52150 0.76881 -0.24611
 H288 H 0.48934 0.69782 -0.18919
 H289 H 0.32138 0.66575 -0.33338
 H290 H 0.35627 0.61859 -0.22947
 C291 C -0.17096 1.16773 -0.31203
 C292 C -0.19574 1.13343 -0.35380
 C293 C -0.19299 1.08545 -0.33101
 C294 C -0.16678 1.07096 -0.26885
 C295 C -0.14170 1.10356 -0.22724
 C296 C -0.14394 1.15273 -0.24782
 C297 C -0.16981 1.21598 -0.33690
 C298 C -0.14456 1.24894 -0.29749
 C299 C -0.11901 1.23458 -0.23415
 C300 C -0.11811 1.18703 -0.21019
 H301 H -0.18778 1.22878 -0.38780
 H302 H -0.14439 1.28576 -0.31699
 H303 H -0.09920 1.26032 -0.20424
 H304 H -0.09647 1.17800 -0.16282
 H305 H -0.21099 1.05863 -0.36275
 H306 H -0.16504 1.03331 -0.25485
 C307 C 0.69255 0.57374 -0.33699
 C308 C 0.69539 0.62354 -0.35139
 C309 C 0.67391 0.65484 -0.29928
 C310 C 0.64697 0.63758 -0.23909
 C311 C 0.64072 0.58858 -0.22899
 C312 C 0.66546 0.55620 -0.27461
 C313 C 0.71728 0.54111 -0.38166
 C314 C 0.71547 0.49252 -0.36500
 C315 C 0.68948 0.47549 -0.30326
 C316 C 0.66456 0.50681 -0.25846
 H317 H 0.73898 0.55301 -0.42832
 H318 H 0.73489 0.46804 -0.39921
 H319 H 0.68913 0.43786 -0.28930
 H320 H 0.64572 0.49212 -0.20954
 H321 H 0.67543 0.69294 -0.30931
 H322 H 0.62862 0.66282 -0.20412
 C323 C 0.08477 1.22911 -0.32215
 C324 C 0.12319 1.21202 -0.35347
 C325 C 0.14088 1.17096 -0.32039
 C326 C 0.12009 1.14532 -0.25989
 C327 C 0.08114 1.16010 -0.23013
 C328 C 0.06330 1.20285 -0.26019
 C329 C 0.06669 1.27107 -0.35309
 C330 C 0.02802 1.28663 -0.32443
 C331 C 0.00658 1.26059 -0.26524
 C332 C 0.02376 1.21898 -0.23358
 H333 H 0.08231 1.29211 -0.39953
 H334 H 0.01446 1.31887 -0.34871
 H335 H -0.02362 1.27264 -0.24391
 H336 H 0.00552 1.19976 -0.18879
 H337 H 0.17006 1.15737 -0.34456
 H338 H 0.13383 1.11248 -0.23823
 C339 C 0.33466 0.33635 -0.31802
 C340 C 0.30510 0.36803 -0.35192
 C341 C 0.30220 0.41456 -0.32222
 C342 C 0.32892 0.43062 -0.26167
 C343 C 0.35928 0.40065 -0.22863
 C344 C 0.36218 0.35274 -0.25604
 C345 C 0.33871 0.28928 -0.34723
 C346 C 0.36902 0.25896 -0.31615
 C347 C 0.39624 0.27501 -0.25655
 C348 C 0.39321 0.32143 -0.22708
 H349 H 0.31873 0.27554 -0.39455
 H350 H 0.37171 0.22297 -0.33910
 H351 H 0.42012 0.25149 -0.23349
 H352 H 0.41584 0.33220 -0.18242
 H353 H 0.28020 0.43926 -0.34870
 H354 H 0.32680 0.46741 -0.24228
 C355 C -0.09104 0.77755 -0.32109
 C356 C -0.13152 0.79082 -0.34627
 C357 C -0.15180 0.82890 -0.30816
 C358 C -0.13171 0.85558 -0.24879
 C359 C -0.09093 0.84470 -0.22541
 C360 C -0.07030 0.80492 -0.26052
 C361 C -0.07028 0.73847 -0.35697
 C362 C -0.02963 0.72710 -0.33484
 C363 C -0.00892 0.75442 -0.27708
 C364 C -0.02882 0.79306 -0.24032
 H365 H -0.08532 0.71647 -0.40227
 H366 H -0.01402 0.69712 -0.36302
 H367 H 0.02279 0.74569 -0.26082
 H368 H -0.01116 0.81348 -0.19676
 H369 H -0.18254 0.83969 -0.32789
 H370 H -0.14751 0.88625 -0.22315
 C371 C 0.41578 0.72905 0.33165
 C372 C 0.37479 0.71655 0.35635
 C373 C 0.35425 0.67890 0.31780
 C374 C 0.37446 0.65209 0.25821
 C375 C 0.41561 0.66228 0.23521
 C376 C 0.43658 0.70154 0.27078
 C377 C 0.43690 0.76761 0.36795
 C378 C 0.47789 0.77838 0.34573
 C379 C 0.49857 0.75097 0.28748
 C380 C 0.47833 0.71281 0.25035
 H381 H 0.42190 0.78967 0.41361
 H382 H 0.49379 0.80798 0.37419
 H383 H 0.53050 0.75929 0.27111
 H384 H 0.49585 0.69232 0.20617
 H385 H 0.32307 0.66873 0.33696
 H386 H 0.35837 0.62197 0.23172
 C387 C -0.19896 1.06870 0.34349
 C388 C -0.20456 1.11844 0.35556
 C389 C -0.18534 1.15032 0.30077
 C390 C -0.15805 1.13416 0.24035
 C391 C -0.14898 1.08565 0.23264
 C392 C -0.17144 1.05222 0.28097
 C393 C -0.22122 1.03495 0.39088
 C394 C -0.21602 0.98629 0.37789
 C395 C -0.18937 0.97022 0.31656
 C396 C -0.16758 1.00267 0.26793
 H397 H -0.24338 1.04588 0.43731
 H398 H -0.23325 0.96094 0.41478
 H399 H -0.18602 0.93241 0.30586
 H400 H -0.14869 0.98846 0.21881
 H401 H -0.18868 1.18840 0.30897
 H402 H -0.14147 1.16016 0.20352
 C403 C 0.59340 0.27431 0.31332
 C404 C 0.62944 0.29438 0.34891
 C405 C 0.64469 0.33798 0.32053
 C406 C 0.62356 0.36318 0.26082
 C407 C 0.58649 0.34564 0.22741
 C408 C 0.57143 0.30016 0.25222
 C409 C 0.57790 0.22982 0.33969
 C410 C 0.54144 0.21107 0.30696
 C411 C 0.51954 0.23646 0.24843
 C412 C 0.53404 0.28066 0.22160
 H413 H 0.59384 0.20922 0.38568
 H414 H 0.52994 0.17685 0.32760
 H415 H 0.49096 0.22194 0.22396
 H416 H 0.51531 0.29903 0.17735
 H417 H 0.67202 0.35381 0.34802
 H418 H 0.63534 0.39788 0.24304
 C419 C 0.16529 0.83590 0.30808
 C420 C 0.19146 0.86931 0.34758
 C421 C 0.19069 0.91707 0.32380
 C422 C 0.16305 0.93269 0.26474
 C423 C 0.13545 0.90104 0.22709
 C424 C 0.13700 0.85175 0.24706
 C425 C 0.16526 0.78738 0.33084
 C426 C 0.13879 0.75494 0.29326
 C427 C 0.11122 0.77020 0.23383
 C428 C 0.10970 0.81808 0.21175
 H429 H 0.18555 0.77397 0.37785
 H430 H 0.13933 0.71783 0.31102
 H431 H 0.09026 0.74492 0.20572
 H432 H 0.08655 0.82778 0.16760
 H433 H 0.21017 0.94294 0.35441
 H434 H 0.16207 0.97035 0.25050
   
