data_POSCAR
  _audit_creation_date              2014-09-24
  _audit_creation_method            'ToBaCCo'
  _symmetry_space_group_name_H-M    'P1'
  _symmetry_Int_Tables_number       1
  _symmetry_cell_setting            triclinic
  loop_
  _symmetry_equiv_pos_as_xyz
 x,y,z
_cell_length_a 26.1763
_cell_length_b 27.2140
_cell_length_c 36.5889
_cell_angle_alpha 89.056900
_cell_angle_beta 89.849700
_cell_angle_gamma 117.474700
loop_
  _atom_site_label
  _atom_site_type_symbol
  _atom_site_fract_x
  _atom_site_fract_y
  _atom_site_fract_z
C1 C -0.00656 0.53123 1.35030
 C2 C 0.04294 0.57007 1.33149
 C3 C 0.04127 0.57283 1.29314
 C4 C -0.00629 0.53358 1.27362
 C5 C -0.05284 0.49175 1.29360
 C6 C -0.05355 0.48996 1.33201
 C7 C -0.00657 0.53431 1.23255
 C8 C -0.05899 0.51307 1.21337
 C9 C -0.05997 0.50895 1.17519
 C10 C -0.00783 0.52912 1.15555
 C11 C 0.04501 0.55350 1.17376
 C12 C 0.04531 0.55522 1.21208
 H13 H -0.00945 0.53555 1.37930
 H14 H 0.07774 0.60506 1.27867
 H15 H -0.08834 0.45951 1.27931
 H16 H -0.09949 0.49910 1.22795
 H17 H -0.00845 0.52847 1.12595
 H18 H 0.08642 0.57205 1.22565
 C19 C 0.51969 0.51394 1.34937
 C20 C 0.50729 0.55241 1.33026
 C21 C 0.51522 0.55740 1.29212
 C22 C 0.52608 0.51886 1.27233
 C23 C 0.53395 0.47800 1.29238
 C24 C 0.53528 0.47792 1.33077
 C25 C 0.52799 0.52045 1.23109
 C26 C 0.55660 0.49569 1.21150
 C27 C 0.55466 0.49351 1.17324
 C28 C 0.52834 0.52030 1.15398
 C29 C 0.50150 0.54704 1.17236
 C30 C 0.50046 0.54603 1.21072
 H31 H 0.51703 0.51197 1.37887
 H32 H 0.51035 0.59017 1.27803
 H33 H 0.54088 0.44687 1.27841
 H34 H 0.58040 0.47765 1.22552
 H35 H 0.53115 0.52213 1.12441
 H36 H 0.47705 0.56461 1.22418
 C37 C 0.51216 1.00777 1.34068
 C38 C 0.49715 0.95822 1.32227
 C39 C 0.49096 0.95715 1.28443
 C40 C 0.49599 1.00415 1.26506
 C41 C 0.50904 1.05311 1.28389
 C42 C 0.51946 1.05621 1.32160
 C43 C 0.48944 1.00230 1.22496
 C44 C 0.52916 1.04597 1.20279
 C45 C 0.52578 1.04299 1.16467
 C46 C 0.48352 0.99469 1.14878
 C47 C 0.44346 0.95105 1.17065
 C48 C 0.44568 0.95544 1.20862
 H49 H 0.51608 1.00733 1.37008
 H50 H 0.48106 0.91924 1.27018
 H51 H 0.51283 1.08935 1.26889
 H52 H 0.56321 1.08211 1.21516
 H53 H 0.48217 0.99014 1.11940
 H54 H 0.41485 0.92141 1.22539
 C55 C 1.00041 0.48629 0.65927
 C56 C 0.95102 0.47223 0.68077
 C57 C 0.95441 0.46970 0.71880
 C58 C 1.00569 0.47650 0.73544
 C59 C 1.05401 0.48755 0.71321
 C60 C 1.05301 0.49590 0.67535
 C61 C 1.00962 0.47433 0.77596
 C62 C 1.06153 0.50865 0.79352
 C63 C 1.06483 0.50904 0.83161
 C64 C 1.01593 0.47529 0.85258
 C65 C 0.96376 0.44074 0.83569
 C66 C 0.96125 0.43942 0.79747
 H67 H 0.99667 0.48806 0.62989
 H68 H 0.91670 0.46155 0.73515
 H69 H 1.09346 0.49197 0.72553
 H70 H 1.09932 0.53641 0.77783
 H71 H 1.01918 0.47466 0.88208
 H72 H 0.92121 0.41168 0.78464
 C73 C 0.48438 0.48022 0.64661
 C74 C 0.51906 0.46406 0.66737
 C75 C 0.51508 0.46306 0.70559
 C76 C 0.47254 0.47279 0.72334
 C77 C 0.43575 0.48573 0.70142
 C78 C 0.44374 0.49241 0.66349
 C79 C 0.46792 0.47132 0.76433
 C80 C 0.44313 0.50077 0.78247
 C81 C 0.44110 0.50161 0.82068
 C82 C 0.46612 0.47465 0.84133
 C83 C 0.49052 0.44478 0.82408
 C84 C 0.48943 0.44156 0.78589
 H85 H 0.48914 0.48345 0.61709
 H86 H 0.54514 0.45424 0.72103
 H87 H 0.40158 0.49211 0.71344
 H88 H 0.42648 0.52463 0.76737
 H89 H 0.46428 0.47473 0.87092
 H90 H 0.50602 0.41605 0.77335
 C91 C 0.49825 -0.00793 0.65376
 C92 C 0.53272 0.04121 0.67188
 C93 C 0.52980 0.04182 0.71002
 C94 C 0.48974 -0.00495 0.73008
 C95 C 0.45378 -0.05352 0.71103
 C96 C 0.45900 -0.05624 0.67280
 C97 C 0.48634 -0.00261 0.77082
 C98 C 0.47653 -0.04897 0.79322
 C99 C 0.47518 -0.04653 0.83169
 C100 C 0.48736 0.00473 0.84745
 C101 C 0.49790 0.05144 0.82566
 C102 C 0.49528 0.04699 0.78760
 H103 H 0.50159 -0.00727 0.62439
 H104 H 0.55847 0.07921 0.72395
 H105 H 0.42235 -0.08954 0.72600
 H106 H 0.47007 -0.08715 0.78064
 H107 H 0.49016 0.00980 0.87669
 H108 H 0.50202 0.08294 0.77110
 O109 O 0.42797 0.66972 0.96548
 O110 O 0.41933 0.76251 0.96546
 C111 C 0.39042 0.78949 0.96561
 O112 O 0.34693 0.77714 0.98651
 O113 O 0.25094 0.68925 0.97020
 C114 C 0.22984 0.64291 0.95451
 O115 O 0.24285 0.60453 0.96256
 O116 O 0.34167 0.60857 0.94717
 C117 C 0.39586 0.63335 0.94361
 O118 O 0.42060 0.66398 1.03834
 O119 O 0.42232 0.76083 1.03859
 C120 C 0.38754 0.76430 1.06101
 O121 O 0.33362 0.73979 1.05674
 O122 O 0.23762 0.65349 1.04030
 C123 C 0.22693 0.60391 1.04794
 O124 O 0.25249 0.57974 1.03270
 O125 O 0.35205 0.58317 1.01779
 C126 C 0.39363 0.61123 1.03892
 Cr127 Cr 0.41926 0.71277 1.00190
 Cr128 Cr 0.29405 0.71335 1.01295
 Cr129 Cr 0.29881 0.59715 0.99053
 O130 O 0.33691 0.67418 1.00176
 O131 O 0.58822 0.35124 0.95792
 O132 O 0.59674 0.26147 0.94376
 C133 C 0.62526 0.23471 0.94063
 O134 O 0.66404 0.23931 0.96285
 O135 O 0.75862 0.33403 0.96350
 C136 C 0.78389 0.38675 0.96163
 O137 O 0.76903 0.41712 0.98040
 O138 O 0.67481 0.42367 0.96467
 C139 C 0.62625 0.39982 0.94936
 O140 O 0.56620 0.31966 1.02872
 O141 O 0.57272 0.22880 1.01431
 C142 C 0.60254 0.21487 1.03537
 O143 O 0.65735 0.23966 1.03583
 O144 O 0.75713 0.33030 1.03644
 C145 C 0.76263 0.36973 1.05651
 O146 O 0.73493 0.39681 1.05118
 O147 O 0.64166 0.40318 1.03553
 C148 C 0.59147 0.36607 1.04429
 Cr149 Cr 0.58437 0.29196 0.98667
 Cr150 Cr 0.70749 0.28750 0.99962
 Cr151 Cr 0.70342 0.40691 1.00746
 O152 O 0.66502 0.32904 0.99785
 O153 O 0.64868 0.39104 0.54065
 O154 O 0.73975 0.38107 0.55823
 C155 C 0.76786 0.35416 0.56217
 O156 O 0.76559 0.31895 0.53948
 O157 O 0.66524 0.23006 0.53845
 C158 C 0.61039 0.20607 0.53743
 O159 O 0.58168 0.21899 0.51450
 O160 O 0.57382 0.30879 0.52930
 C161 C 0.59723 0.35386 0.54639
 O162 O 0.68787 0.41684 0.47138
 O163 O 0.78017 0.40695 0.48837
 C164 C 0.79383 0.37789 0.46722
 O165 O 0.76731 0.32515 0.46665
 O166 O 0.67300 0.22986 0.46585
 C167 C 0.63700 0.22770 0.44237
 O168 O 0.61074 0.25657 0.44439
 O169 O 0.60180 0.34571 0.45990
 C170 C 0.64066 0.39519 0.45434
 Cr171 Cr 0.71263 0.39594 0.51408
 Cr172 Cr 0.71617 0.27764 0.50252
 Cr173 Cr 0.59520 0.28394 0.48753
 O174 O 0.67442 0.31956 0.50128
 O175 O 0.35230 0.59726 0.53194
 O176 O 0.25870 0.60308 0.54827
 C177 C 0.22896 0.62806 0.55326
 O178 O 0.23527 0.66933 0.53396
 O179 O 0.33547 0.75858 0.54026
 C180 C 0.39031 0.78356 0.54098
 O181 O 0.42200 0.77448 0.51838
 O182 O 0.42766 0.68196 0.52949
 C183 C 0.40166 0.63290 0.54240
 O184 O 0.32420 0.58810 0.46089
 O185 O 0.22952 0.59379 0.47683
 C186 C 0.21754 0.62706 0.45817
 O187 O 0.24380 0.67954 0.46138
 O188 O 0.33863 0.77384 0.46770
 C189 C 0.37759 0.77986 0.44502
 O190 O 0.40411 0.75104 0.44648
 O191 O 0.41245 0.65975 0.45789
 C192 C 0.37480 0.61251 0.44765
 Cr193 Cr 0.29274 0.59869 0.50415
 Cr194 Cr 0.29004 0.71876 0.50073
 Cr195 Cr 0.41334 0.71533 0.48838
 O196 O 0.33219 0.67723 0.49764
 C197 C 0.48729 0.58579 0.34838
 C198 C 0.45786 0.57038 0.38019
 C199 C 0.43789 0.60556 0.39950
 C200 C 0.39110 0.58193 0.42114
 H201 H 0.44541 0.52959 0.39196
 H202 H 0.46285 0.65024 0.39748
 H203 H 0.49144 0.62315 0.33472
 H204 H 0.36513 0.53727 0.42104
 C205 C 0.48499 0.90663 0.34263
 C206 C 0.45089 0.89202 0.37217
 C207 C 0.43551 0.84067 0.39341
 C208 C 0.39282 0.82483 0.41793
 H209 H 0.43250 0.91858 0.38066
 H210 H 0.45968 0.81766 0.39012
 H211 H 0.50017 0.87877 0.33187
 H212 H 0.36912 0.84858 0.41990
 C213 C 0.09379 0.60489 0.35037
 C214 C 0.10394 0.59274 0.38455
 C215 C 0.15727 0.62549 0.40490
 C216 C 0.16819 0.60101 0.43373
 H217 H 0.07369 0.55449 0.39788
 H218 H 0.18655 0.66773 0.39669
 H219 H 0.12781 0.63982 0.33593
 H220 H 0.13928 0.55770 0.43977
 C221 C 0.55129 0.44148 0.34958
 C222 C 0.57354 0.45116 0.38330
 C223 C 0.58898 0.41231 0.40300
 C224 C 0.62962 0.43128 0.42861
 H225 H 0.58338 0.48975 0.39656
 H226 H 0.56577 0.36840 0.39759
 H227 H 0.54983 0.40630 0.33522
 H228 H 0.65448 0.47563 0.43204
 C229 C 0.53639 0.10708 0.33914
 C230 C 0.56454 0.11895 0.37084
 C231 C 0.58174 0.17135 0.38995
 C232 C 0.62415 0.18624 0.41408
 H233 H 0.57820 0.09040 0.38289
 H234 H 0.55772 0.19455 0.38649
 H235 H 0.53005 0.13940 0.32534
 H236 H 0.64771 0.16228 0.41593
 C237 C 0.89859 0.44815 0.35119
 C238 C 0.89858 0.43790 0.38731
 C239 C 0.84648 0.40051 0.40823
 C240 C 0.84513 0.40805 0.44418
 H241 H 0.93734 0.45853 0.40308
 H242 H 0.80873 0.37026 0.39442
 H243 H 0.85985 0.42309 0.33607
 H244 H 0.88153 0.44195 0.45678
 C245 C 0.58253 0.46566 1.15289
 C246 C 0.55695 0.43427 1.12408
 C247 C 0.58806 0.41509 1.09927
 C248 C 0.56027 0.37844 1.07328
 H249 H 0.51316 0.42519 1.11742
 H250 H 0.63458 0.43345 1.10099
 H251 H 0.62487 0.47209 1.16114
 H252 H 0.51361 0.35801 1.07275
 C253 C 0.88439 0.48559 1.15583
 C254 C 0.87299 0.44906 1.12919
 C255 C 0.82005 0.42874 1.10731
 C256 C 0.80634 0.38572 1.08536
 H257 H 0.90419 0.43455 1.12280
 H258 H 0.79471 0.45095 1.10740
 H259 H 0.85199 0.49751 1.16422
 H260 H 0.83197 0.36378 1.08635
 C261 C 0.56717 0.09032 1.14204
 C262 C 0.55245 0.10262 1.10958
 C263 C 0.59130 0.15147 1.08761
 C264 C 0.56969 0.16635 1.05906
 H265 H 0.50930 0.07762 1.09956
 H266 H 0.63602 0.17556 1.09509
 H267 H 0.60882 0.11765 1.15329
 H268 H 0.52422 0.14243 1.05313
 C269 C 0.47729 0.57870 1.15168
 C270 C 0.45560 0.56420 1.11822
 C271 C 0.43836 0.59903 1.09545
 C272 C 0.41145 0.57948 1.06398
 H273 H 0.45094 0.52582 1.10690
 H274 H 0.44795 0.64029 1.10408
 H275 H 0.47818 0.61503 1.16400
 H276 H 0.39987 0.53716 1.05673
 C277 C 0.10010 0.58182 1.15306
 C278 C 0.11041 0.56191 1.12225
 C279 C 0.16229 0.59509 1.09969
 C280 C 0.18052 0.57143 1.07453
 H281 H 0.07958 0.52136 1.11300
 H282 H 0.18473 0.63962 1.10296
 H283 H 0.13300 0.62058 1.16346
 H284 H 0.15986 0.52666 1.07280
 C285 C 0.40291 0.89904 1.15362
 C286 C 0.42381 0.87147 1.13398
 C287 C 0.38771 0.82403 1.11132
 C288 C 0.41371 0.80089 1.09183
 H289 H 0.47017 0.88681 1.13288
 H290 H 0.34244 0.81219 1.10773
 H291 H 0.35695 0.88405 1.15689
 H292 H 0.45944 0.81482 1.09557
 C293 C 0.55953 0.44853 0.64881
 C294 C 0.54248 0.41555 0.61991
 C295 C 0.58221 0.40332 0.59799
 C296 C 0.56107 0.36375 0.57302
 H297 H 0.49785 0.39794 0.61157
 H298 H 0.62830 0.42794 0.60116
 H299 H 0.60278 0.46336 0.65918
 H300 H 0.51485 0.33817 0.57132
 C301 C 0.57212 0.09185 0.65077
 C302 C 0.55759 0.10313 0.61777
 C303 C 0.59644 0.15042 0.59444
 C304 C 0.57669 0.15979 0.56277
 H305 H 0.51508 0.07660 0.60735
 H306 H 0.64010 0.17714 0.60295
 H307 H 0.61276 0.12036 0.66265
 H308 H 0.53217 0.13347 0.55561
 C309 C 0.89546 0.45815 0.66305
 C310 C 0.87663 0.41983 0.63729
 C311 C 0.82532 0.40702 0.61507
 C312 C 0.80800 0.36446 0.59244
 H313 H 0.90160 0.39818 0.63139
 H314 H 0.80553 0.43430 0.61484
 H315 H 0.87008 0.47823 0.67144
 H316 H 0.82912 0.33825 0.59361
 C317 C 0.41026 0.51297 0.64139
 C318 C 0.43623 0.55238 0.61569
 C319 C 0.40378 0.57106 0.59144
 C320 C 0.43144 0.61616 0.57007
 H321 H 0.48259 0.57082 0.61208
 H322 H 0.35732 0.54697 0.59032
 H323 H 0.36465 0.49707 0.64706
 H324 H 0.47761 0.64124 0.57257
 C325 C 0.42425 0.89411 0.65422
 C326 C 0.43677 0.88435 0.62023
 C327 C 0.39956 0.83561 0.59851
 C328 C 0.42111 0.82780 0.56714
 H329 H 0.47735 0.91240 0.60747
 H330 H 0.35599 0.80773 0.60739
 H331 H 0.38706 0.86191 0.66828
 H332 H 0.46570 0.85549 0.56004
 C333 C 0.10458 0.51449 0.65495
 C334 C 0.11309 0.54139 0.62277
 C335 C 0.16823 0.56402 0.60266
 C336 C 0.18174 0.60749 0.58020
 H337 H 0.08045 0.55118 0.61175
 H338 H 0.19594 0.54444 0.60513
 H339 H 0.14089 0.51175 0.66723
 H340 H 0.15389 0.62717 0.57959
 C341 C 0.41027 0.52848 0.83885
 C342 C 0.43140 0.55899 0.86845
 C343 C 0.39813 0.57997 0.88987
 C344 C 0.42511 0.61801 0.91503
 H345 H 0.47389 0.56741 0.87784
 H346 H 0.35184 0.56192 0.88684
 H347 H 0.36969 0.52297 0.82770
 H348 H 0.47165 0.63615 0.91670
 C349 C 0.12039 0.54197 0.84941
 C350 C 0.12485 0.57270 0.87843
 C351 C 0.17696 0.59468 0.90067
 C352 C 0.18585 0.63166 0.92659
 H353 H 0.08826 0.57812 0.88738
 H354 H 0.20645 0.57714 0.89761
 H355 H 0.15785 0.53919 0.83916
 H356 H 0.15836 0.65151 0.92860
 C357 C 0.46279 0.90513 0.85296
 C358 C 0.45005 0.89955 0.88894
 C359 C 0.43577 0.84792 0.91006
 C360 C 0.40820 0.83941 0.94224
 H361 H 0.44650 0.93206 0.90348
 H362 H 0.44620 0.81681 0.89915
 H363 H 0.46076 0.86933 0.83912
 H364 H 0.39511 0.86969 0.95137
 C365 C 0.51472 0.41457 0.84597
 C366 C 0.54999 0.43815 0.87391
 C367 C 0.56908 0.40599 0.89789
 C368 C 0.61239 0.43108 0.92124
 H369 H 0.56377 0.48137 0.87973
 H370 H 0.54591 0.36114 0.89736
 H371 H 0.50411 0.37256 0.83855
 H372 H 0.63715 0.47585 0.92051
 C373 C 0.91158 0.40607 0.85768
 C374 C 0.90042 0.42440 0.88880
 C375 C 0.84838 0.39140 0.91087
 C376 C 0.83427 0.41582 0.93758
 H377 H 0.92956 0.46571 0.89780
 H378 H 0.82170 0.34797 0.90519
 H379 H 0.88040 0.36659 0.84715
 H380 H 0.86043 0.45985 0.94174
 C381 C 0.51322 0.10539 0.84287
 C382 C 0.55354 0.12452 0.86866
 C383 C 0.56751 0.17510 0.88960
 C384 C 0.61288 0.19366 0.91179
 H385 H 0.57639 0.10096 0.87534
 H386 H 0.53904 0.19401 0.88904
 H387 H 0.49244 0.12978 0.83378
 H388 H 0.64027 0.17349 0.91136
   
