data_POSCAR
  _audit_creation_date              2014-09-24
  _audit_creation_method            'ToBaCCo'
  _symmetry_space_group_name_H-M    'P1'
  _symmetry_Int_Tables_number       1
  _symmetry_cell_setting            triclinic
  loop_
  _symmetry_equiv_pos_as_xyz
 x,y,z
_cell_length_a 32.7221
_cell_length_b 32.7171
_cell_length_c 28.3674
_cell_angle_alpha 90.035400
_cell_angle_beta 89.926400
_cell_angle_gamma 94.573600
loop_
  _atom_site_label
  _atom_site_type_symbol
  _atom_site_fract_x
  _atom_site_fract_y
  _atom_site_fract_z
C1 C -0.05549 0.30530 0.03657
 C2 C -0.07215 0.31749 -0.00630
 C3 C -0.04952 0.31930 -0.04823
 C4 C -0.00704 0.31378 -0.04638
 C5 C 0.01142 0.30450 -0.00284
 C6 C -0.01280 0.29975 0.03883
 C7 C 0.00593 0.28688 0.08042
 C8 C 0.04759 0.28124 0.08188
 C9 C 0.07198 0.28628 0.04132
 C10 C 0.05380 0.29751 -0.00161
 C11 C 0.01750 0.31795 -0.08711
 C12 C 0.05860 0.31034 -0.08605
 C13 C 0.07750 0.30005 -0.04372
 C14 C 0.11897 0.29028 -0.04261
 C15 C 0.13626 0.27966 0.00027
 C16 C 0.11376 0.27845 0.04208
 H17 H -0.01130 0.28020 0.11232
 H18 H 0.06029 0.27154 0.11489
 H19 H 0.00495 0.32688 -0.12050
 H20 H 0.07532 0.31242 -0.11897
 H21 H -0.10476 0.32144 -0.00784
 H22 H 0.16804 0.27230 0.00122
 C23 C 0.38100 0.80442 0.53436
 C24 C 0.36149 0.80444 0.49054
 C25 C 0.38398 0.80645 0.44845
 C26 C 0.42734 0.80897 0.45003
 C27 C 0.44749 0.80960 0.49430
 C28 C 0.42427 0.80811 0.53658
 C29 C 0.44479 0.80859 0.58009
 C30 C 0.48722 0.80832 0.58205
 C31 C 0.51063 0.80729 0.54057
 C32 C 0.49080 0.80924 0.49630
 C33 C 0.45102 0.80998 0.40857
 C34 C 0.49351 0.80940 0.41054
 C35 C 0.51390 0.80819 0.45403
 C36 C 0.55659 0.80439 0.45640
 C37 C 0.57564 0.80205 0.50031
 C38 C 0.55316 0.80254 0.54223
 H39 H 0.42807 0.80844 0.61306
 H40 H 0.50150 0.80798 0.61644
 H41 H 0.43680 0.81058 0.37418
 H42 H 0.51027 0.80933 0.37760
 H43 H 0.32829 0.80029 0.48907
 H44 H 0.60798 0.79697 0.50177
 C45 C 0.87999 0.70047 -0.04492
 C46 C 0.86031 0.70331 -0.00148
 C47 C 0.88132 0.69926 0.04080
 C48 C 0.92323 0.69185 0.04013
 C49 C 0.94353 0.68829 -0.00373
 C50 C 0.92170 0.69220 -0.04647
 C51 C 0.94228 0.68841 -0.08950
 C52 C 0.98373 0.68159 -0.09056
 C53 C 1.00658 0.67963 -0.04865
 C54 C 0.98600 0.68212 -0.00482
 C55 C 0.94537 0.68836 0.08210
 C56 C 0.98703 0.68263 0.08104
 C57 C 1.00809 0.68017 0.03796
 C58 C 1.05093 0.67651 0.03677
 C59 C 1.07023 0.67103 -0.00660
 C60 C 1.04923 0.67413 -0.04945
 H61 H 0.92642 0.69052 -0.12277
 H62 H 0.99774 0.67785 -0.12470
 H63 H 0.93071 0.69040 0.11616
 H64 H 1.00279 0.68027 0.11435
 H65 H 0.82840 0.71016 -0.00055
 H66 H 1.10328 0.66961 -0.00722
 C67 C 0.44650 0.19966 0.45693
 C68 C 0.42451 0.20016 0.49915
 C69 C 0.44380 0.19652 0.54263
 C70 C 0.48634 0.19206 0.54443
 C71 C 0.50901 0.19113 0.50186
 C72 C 0.48893 0.19430 0.45788
 C73 C 0.51186 0.19281 0.41610
 C74 C 0.55405 0.18986 0.41751
 C75 C 0.57485 0.18854 0.46077
 C76 C 0.55203 0.18834 0.50331
 C77 C 0.50680 0.18895 0.58764
 C78 C 0.54903 0.18630 0.58907
 C79 C 0.57232 0.18680 0.54735
 C80 C 0.61546 0.18626 0.54850
 C81 C 0.63756 0.18655 0.50629
 C82 C 0.61798 0.18787 0.46264
 H83 H 0.49736 0.19427 0.38192
 H84 H 0.57029 0.18892 0.38432
 H85 H 0.49033 0.18885 0.62077
 H86 H 0.56334 0.18405 0.62325
 H87 H 0.39205 0.20478 0.49822
 H88 H 0.67078 0.18772 0.50747
 C89 C 0.73770 0.07998 0.04558
 C90 C 0.74826 0.10064 0.00365
 C91 C 0.74202 0.08201 -0.04052
 C92 C 0.72396 0.04106 -0.04251
 C93 C 0.71172 0.02024 -0.00013
 C94 C 0.71907 0.03961 0.04411
 C95 C 0.70916 0.01759 0.08571
 C96 C 0.69200 -0.02271 0.08399
 C97 C 0.68382 -0.04234 0.04062
 C98 C 0.69396 -0.02081 -0.00181
 C99 C 0.72113 0.01916 -0.08516
 C100 C 0.70566 -0.02170 -0.08644
 C101 C 0.69054 -0.04192 -0.04543
 C102 C 0.67477 -0.08361 -0.04548
 C103 C 0.65711 -0.10093 -0.00473
 C104 C 0.66693 -0.08356 0.03857
 H105 H 0.71504 0.03117 0.12008
 H106 H 0.68486 -0.03843 0.11692
 H107 H 0.73236 0.03294 -0.11784
 H108 H 0.70594 -0.03696 -0.12012
 H109 H 0.76142 0.13211 0.00559
 H110 H 0.64461 -0.13278 -0.00567
 C111 C 0.18276 0.56928 0.45859
 C112 C 0.17888 0.58867 0.50207
 C113 C 0.18090 0.56707 0.54441
 C114 C 0.18643 0.52461 0.54331
 C115 C 0.18934 0.50441 0.49923
 C116 C 0.18690 0.52670 0.45672
 C117 C 0.19050 0.50634 0.41338
 C118 C 0.19778 0.46501 0.41183
 C119 C 0.20185 0.44268 0.45355
 C120 C 0.19704 0.46237 0.49765
 C121 C 0.18997 0.50204 0.58502
 C122 C 0.19818 0.46095 0.58349
 C123 C 0.20233 0.44077 0.54018
 C124 C 0.21310 0.39992 0.53820
 C125 C 0.21691 0.38062 0.49469
 C126 C 0.21205 0.40151 0.45246
 H127 H 0.18818 0.52240 0.38025
 H128 H 0.20086 0.45083 0.37765
 H129 H 0.18709 0.51615 0.61926
 H130 H 0.20156 0.44519 0.61662
 H131 H 0.17695 0.62162 0.50307
 H132 H 0.22650 0.34963 0.49369
 C133 C 0.23725 0.91607 -0.04500
 C134 C 0.22493 0.89924 -0.00216
 C135 C 0.24575 0.91237 0.03843
 C136 C 0.26727 0.95158 0.03953
 C137 C 0.27064 0.97464 -0.00267
 C138 C 0.25782 0.95590 -0.04592
 C139 C 0.26639 0.97722 -0.08817
 C140 C 0.28399 1.01750 -0.08747
 C141 C 0.29425 1.03749 -0.04456
 C142 C 0.28908 1.01530 -0.00201
 C143 C 0.28601 0.96817 0.08060
 C144 C 0.30212 1.00883 0.08177
 C145 C 0.30174 1.03373 0.04139
 C146 C 0.31551 1.07601 0.04291
 C147 C 0.31969 1.09772 0.00023
 C148 C 0.30962 1.07907 -0.04308
 H149 H 0.25837 0.96349 -0.12193
 H150 H 0.28926 1.03295 -0.12092
 H151 H 0.28770 0.95055 0.11257
 H152 H 0.31521 1.02061 0.11458
 H153 H 0.20712 0.86972 -0.00201
 H154 H 0.32801 1.13049 0.00077
 C155 C 0.76994 0.59343 0.53849
 C156 C 0.76723 0.61370 0.49544
 C157 C 0.77330 0.59377 0.45279
 C158 C 0.78268 0.55232 0.45296
 C159 C 0.78568 0.53143 0.49657
 C160 C 0.77955 0.55215 0.53954
 C161 C 0.78246 0.53095 0.58236
 C162 C 0.79065 0.48983 0.58296
 C163 C 0.79592 0.46835 0.54076
 C164 C 0.79381 0.48947 0.49718
 C165 C 0.78867 0.53113 0.41078
 C166 C 0.79682 0.49001 0.41136
 C167 C 0.79898 0.46852 0.45414
 C168 C 0.80595 0.42649 0.45498
 C169 C 0.80821 0.40607 0.49806
 C170 C 0.80321 0.42629 0.54088
 H171 H 0.77832 0.54602 0.61582
 H172 H 0.79265 0.47495 0.61686
 H173 H 0.78695 0.54618 0.37694
 H174 H 0.80132 0.47515 0.37786
 H175 H 0.75910 0.64522 0.49508
 H176 H 0.81282 0.37360 0.49823
 O177 O 0.25705 0.27223 0.18968
 O178 O 0.34317 0.25476 0.26869
 O179 O 0.31538 0.22356 0.18931
 O180 O 0.28464 0.30494 0.26874
 O181 O 0.24463 0.25935 0.30779
 O182 O 0.27717 0.17759 0.22999
 O183 O 0.30297 0.21058 0.30923
 O184 O 0.21771 0.22559 0.22845
 Cu185 Cu 0.30400 0.26857 0.22530
 Cu186 Cu 0.25656 0.21378 0.27282
 C187 C 0.22319 0.25088 0.19470
 C188 C 0.33764 0.23026 0.30319
 C189 C 0.30163 0.18662 0.19601
 C190 C 0.26000 0.29598 0.30246
 O191 O 0.72790 0.81796 0.21983
 O192 O 0.75601 0.73846 0.30339
 O193 O 0.78203 0.76370 0.22218
 O194 O 0.70111 0.79142 0.30436
 O195 O 0.65678 0.74716 0.26923
 O196 O 0.73761 0.71830 0.18880
 O197 O 0.71104 0.69346 0.27017
 O198 O 0.68386 0.77264 0.18564
 Cu199 Cu 0.74578 0.78295 0.26583
 Cu200 Cu 0.69258 0.72879 0.22495
 C201 C 0.70223 0.80829 0.18736
 C202 C 0.73886 0.70229 0.30057
 C203 C 0.77374 0.73530 0.19231
 C204 C 0.66570 0.77248 0.30223
 O205 O 0.84249 0.25568 0.22322
 O206 O 0.76671 0.21674 0.31213
 O207 O 0.79456 0.19003 0.23290
 O208 O 0.81800 0.28142 0.30592
 O209 O 0.77025 0.31320 0.26928
 O210 O 0.74671 0.22166 0.19611
 O211 O 0.71908 0.24869 0.27540
 O212 O 0.79437 0.28735 0.18678
 Cu213 Cu 0.81033 0.23311 0.27251
 Cu214 Cu 0.75279 0.27109 0.22844
 C215 C 0.83068 0.27648 0.18867
 C216 C 0.72984 0.22598 0.30864
 C217 C 0.76781 0.19093 0.20071
 C218 C 0.79785 0.31264 0.30068
 O219 O 0.25441 0.75670 0.18138
 O220 O 0.22883 0.67379 0.26572
 O221 O 0.19856 0.69811 0.18402
 O222 O 0.28238 0.73771 0.26315
 O223 O 0.23967 0.77711 0.29776
 O224 O 0.15514 0.73276 0.22441
 O225 O 0.18842 0.71287 0.30470
 O226 O 0.20890 0.79328 0.21531
 Cu227 Cu 0.24518 0.71213 0.22045
 Cu228 Cu 0.19378 0.75761 0.26451
 C229 C 0.23406 0.78806 0.18201
 C230 C 0.20616 0.67991 0.30090
 C231 C 0.16313 0.71100 0.18909
 C232 C 0.27536 0.76500 0.29343
 O233 O 0.71825 0.24941 0.73405
 O234 O 0.80141 0.29405 0.80971
 O235 O 0.76847 0.31479 0.73015
 O236 O 0.75057 0.22893 0.81411
 O237 O 0.79638 0.19492 0.77652
 O238 O 0.81231 0.27964 0.69099
 O239 O 0.84608 0.26073 0.76981
 O240 O 0.76260 0.21394 0.69620
 Cu241 Cu 0.75519 0.27521 0.77592
 Cu242 Cu 0.80866 0.23365 0.72952
 C243 C 0.72632 0.22422 0.70193
 C244 C 0.83805 0.28535 0.80254
 C245 C 0.79340 0.31179 0.69616
 C246 C 0.77114 0.19778 0.81022
 O247 O 0.28180 0.74242 0.72756
 O248 O 0.20010 0.70391 0.80907
 O249 O 0.22811 0.67966 0.72948
 O250 O 0.25310 0.76706 0.80960
 O251 O 0.21048 0.80351 0.77099
 O252 O 0.18395 0.71563 0.69219
 O253 O 0.15623 0.74001 0.77161
 O254 O 0.23769 0.77731 0.68883
 Cu255 Cu 0.24550 0.72014 0.77278
 Cu256 Cu 0.19296 0.76328 0.72742
 C257 C 0.27308 0.76432 0.69260
 C258 C 0.16397 0.71466 0.80369
 C259 C 0.20133 0.68256 0.69747
 C260 C 0.23556 0.80005 0.80470
 O261 O 0.28655 0.30657 0.72126
 O262 O 0.31288 0.22815 0.80651
 O263 O 0.34106 0.25293 0.72455
 O264 O 0.26070 0.28370 0.80478
 O265 O 0.21619 0.23779 0.77214
 O266 O 0.29624 0.20829 0.69059
 O267 O 0.26845 0.18325 0.77214
 O268 O 0.24150 0.26149 0.68832
 Cu269 Cu 0.30483 0.27246 0.76758
 Cu270 Cu 0.25106 0.21831 0.72722
 C271 C 0.25990 0.29706 0.68979
 C272 C 0.29481 0.19237 0.80394
 C273 C 0.33242 0.22527 0.69394
 C274 C 0.22504 0.26545 0.80272
 O275 O 0.69025 0.78449 0.69626
 O276 O 0.77551 0.75919 0.77205
 O277 O 0.74510 0.73231 0.69149
 O278 O 0.71828 0.80848 0.77925
 O279 O 0.67734 0.76130 0.81523
 O280 O 0.70448 0.68525 0.72767
 O281 O 0.73463 0.71225 0.80831
 O282 O 0.64907 0.73818 0.73219
 Cu283 Cu 0.73629 0.77583 0.73108
 Cu284 Cu 0.68719 0.71943 0.77420
 C285 C 0.65523 0.76508 0.70020
 C286 C 0.76920 0.73262 0.80432
 C287 C 0.72852 0.69591 0.69399
 C288 C 0.69448 0.79740 0.81311
 C289 C 0.35129 0.12840 0.09592
 C290 C 0.31824 0.09874 0.08561
 C291 C 0.28449 0.09519 0.11644
 C292 C 0.28133 0.12219 0.15382
 C293 C 0.31155 0.15418 0.16199
 C294 C 0.34814 0.15595 0.13468
 C295 C 0.38826 0.12987 0.06991
 C296 C 0.42092 0.15816 0.08099
 C297 C 0.41796 0.18479 0.11882
 C298 C 0.38224 0.18351 0.14580
 H299 H 0.39264 0.10853 0.04154
 H300 H 0.44899 0.15887 0.06067
 H301 H 0.44379 0.20608 0.12788
 H302 H 0.38245 0.20331 0.17628
 H303 H 0.25854 0.07331 0.10954
 H304 H 0.25353 0.11945 0.17472
 C305 C 0.71770 0.61263 0.59831
 C306 C 0.75849 0.61558 0.58132
 C307 C 0.78806 0.64276 0.60234
 C308 C 0.77771 0.66760 0.63955
 C309 C 0.73739 0.66619 0.65673
 C310 C 0.70673 0.63845 0.63599
 C311 C 0.68733 0.58527 0.57751
 C312 C 0.64689 0.58354 0.59313
 C313 C 0.63582 0.60930 0.62910
 C314 C 0.66514 0.63678 0.65006
 H315 H 0.69450 0.56508 0.54896
 H316 H 0.62394 0.56239 0.57692
 H317 H 0.60425 0.60810 0.64068
 H318 H 0.65434 0.65673 0.67671
 H319 H 0.81925 0.64535 0.58914
 H320 H 0.80140 0.68862 0.65471
 C321 C 0.71343 0.87013 0.07336
 C322 C 0.67541 0.88830 0.07346
 C323 C 0.64681 0.87892 0.10943
 C324 C 0.65570 0.85238 0.14583
 C325 C 0.69472 0.83796 0.14962
 C326 C 0.72480 0.84937 0.11491
 C327 C 0.74198 0.87402 0.03449
 C328 C 0.78408 0.87446 0.04693
 C329 C 0.79582 0.85696 0.08901
 C330 C 0.76622 0.84197 0.12126
 H331 H 0.73601 0.88779 -0.00810
 H332 H 0.80732 0.88421 0.02122
 H333 H 0.82795 0.85391 0.09599
 H334 H 0.77648 0.82734 0.15269
 H335 H 0.61725 0.89169 0.10889
 H336 H 0.63243 0.84404 0.17207
 C337 C 0.26883 0.37564 0.58988
 C338 C 0.22663 0.37809 0.58021
 C339 C 0.19704 0.35627 0.60780
 C340 C 0.20865 0.33121 0.64415
 C341 C 0.25015 0.32720 0.65380
 C342 C 0.28083 0.34954 0.62661
 C343 C 0.29934 0.39785 0.56282
 C344 C 0.34076 0.39364 0.57099
 C345 C 0.35258 0.36722 0.60593
 C346 C 0.32308 0.34526 0.63343
 H347 H 0.29147 0.41852 0.53508
 H348 H 0.36380 0.41068 0.54982
 H349 H 0.38479 0.36360 0.61168
 H350 H 0.33396 0.32470 0.65942
 H351 H 0.16475 0.35783 0.60026
 H352 H 0.18497 0.31411 0.66443
 C353 C 0.88088 0.26866 0.06804
 C354 C 0.91684 0.29582 0.07429
 C355 C 0.92277 0.31625 0.11770
 C356 C 0.89467 0.30974 0.15449
 C357 C 0.85840 0.28476 0.14814
 C358 C 0.85064 0.26492 0.10420
 C359 C 0.87501 0.24369 0.02732
 C360 C 0.83873 0.21914 0.02047
 C361 C 0.80799 0.21798 0.05427
 C362 C 0.81391 0.24026 0.09585
 H363 H 0.89846 0.24249 0.00058
 H364 H 0.83433 0.20106 -0.01127
 H365 H 0.77972 0.19910 0.04873
 H366 H 0.78939 0.23769 0.12121
 H367 H 0.94919 0.33790 0.12305
 H368 H 0.90084 0.32502 0.18792
 C369 C 0.35206 0.75259 0.59421
 C370 C 0.35546 0.79320 0.57642
 C371 C 0.33308 0.82299 0.59745
 C372 C 0.30747 0.81322 0.63581
 C373 C 0.30356 0.77340 0.65449
 C374 C 0.32589 0.74245 0.63343
 C375 C 0.37334 0.72151 0.57276
 C376 C 0.36896 0.68137 0.58935
 C377 C 0.34306 0.67123 0.62711
 C378 C 0.32157 0.70119 0.64881
 H379 H 0.39323 0.72774 0.54270
 H380 H 0.38541 0.65792 0.57249
 H381 H 0.33931 0.63985 0.63946
 H382 H 0.30136 0.69114 0.67717
 H383 H 0.33521 0.85399 0.58372
 H384 H 0.29023 0.83698 0.65088
 C385 C 0.08081 0.72611 0.09560
 C386 C 0.07626 0.68585 0.07617
 C387 C 0.10087 0.65594 0.09319
 C388 C 0.12782 0.66433 0.13058
 C389 C 0.13189 0.70319 0.15161
 C390 C 0.10898 0.73495 0.13331
 C391 C 0.06022 0.75862 0.07596
 C392 C 0.06628 0.79832 0.09356
 C393 C 0.09371 0.80699 0.13009
 C394 C 0.11519 0.77600 0.14941
 H395 H 0.03998 0.75419 0.04604
 H396 H 0.05021 0.82268 0.07807
 H397 H 0.09901 0.83811 0.14297
 H398 H 0.13731 0.78544 0.17603
 H399 H 0.09882 0.62555 0.07769
 H400 H 0.14596 0.64024 0.14304
 C401 C 0.66386 0.16053 0.60978
 C402 C 0.63935 0.19110 0.59282
 C403 C 0.64053 0.22913 0.61553
 C404 C 0.66715 0.23810 0.65287
 C405 C 0.69375 0.20944 0.66851
 C406 C 0.69102 0.16956 0.64835
 C407 C 0.66181 0.12113 0.58927
 C408 C 0.68561 0.09106 0.60673
 C409 C 0.71147 0.09951 0.64504
 C410 C 0.71412 0.13825 0.66592
 H411 H 0.64147 0.11313 0.56005
 H412 H 0.68364 0.06089 0.59080
 H413 H 0.72938 0.07582 0.65888
 H414 H 0.73366 0.14299 0.69644
 H415 H 0.62200 0.25279 0.60274
 H416 H 0.66864 0.26867 0.66782
 C417 C 0.79235 0.12632 0.91270
 C418 C 0.75260 0.10589 0.91893
 C419 C 0.72139 0.11406 0.88711
 C420 C 0.72816 0.14345 0.85174
 C421 C 0.76650 0.16515 0.84634
 C422 C 0.79917 0.15638 0.87655
 C423 C 0.82590 0.11651 0.94077
 C424 C 0.86448 0.13726 0.93512
 C425 C 0.87056 0.16800 0.90141
 C426 C 0.83838 0.17749 0.87229
 H427 H 0.82272 0.09237 0.96684
 H428 H 0.88971 0.12961 0.95723
 H429 H 0.90045 0.18440 0.89758
 H430 H 0.84457 0.20140 0.84646
 H431 H 0.69075 0.09932 0.89134
 H432 H 0.70298 0.14989 0.82885
 C433 C 0.23031 0.60658 0.40016
 C434 C 0.19004 0.59569 0.41666
 C435 C 0.15657 0.61169 0.39478
 C436 C 0.16239 0.63826 0.35662
 C437 C 0.20181 0.64936 0.33918
 C438 C 0.23638 0.63368 0.36112
 C439 C 0.26483 0.59195 0.42268
 C440 C 0.30440 0.60380 0.40717
 C441 C 0.31045 0.63064 0.36942
 C442 C 0.27698 0.64561 0.34669
 H443 H 0.26168 0.57159 0.45271
 H444 H 0.33050 0.59242 0.42484
 H445 H 0.34129 0.64017 0.35785
 H446 H 0.28366 0.66692 0.31829
 H447 H 0.12577 0.60383 0.40769
 H448 H 0.13587 0.65051 0.34069
 C449 C 0.26779 0.85752 0.91830
 C450 C 0.23910 0.88822 0.91786
 C451 C 0.21248 0.89089 0.87962
 C452 C 0.21248 0.86283 0.84274
 C453 C 0.24151 0.83347 0.84069
 C454 C 0.27237 0.83437 0.87611
 C455 C 0.29500 0.85143 0.95740
 C456 C 0.33414 0.83854 0.94527
 C457 C 0.34057 0.81991 0.90212
 C458 C 0.30925 0.81575 0.86891
 H459 H 0.29321 0.86618 1.00006
 H460 H 0.35826 0.83999 0.97145
 H461 H 0.36979 0.80791 0.89472
 H462 H 0.31588 0.80119 0.83588
 H463 H 0.19015 0.91365 0.87945
 H464 H 0.18911 0.86391 0.81586
 C465 C 0.84393 0.38683 0.39433
 C466 C 0.80730 0.40176 0.41141
 C467 C 0.77024 0.39128 0.38833
 C468 C 0.76853 0.36447 0.35031
 C469 C 0.80383 0.34714 0.33429
 C470 C 0.84235 0.35969 0.35494
 C471 C 0.88209 0.39850 0.41547
 C472 C 0.91808 0.38422 0.39772
 C473 C 0.91675 0.35853 0.35852
 C474 C 0.87938 0.34644 0.33708
 H475 H 0.88445 0.41901 0.44547
 H476 H 0.94719 0.39352 0.41413
 H477 H 0.94488 0.34810 0.34446
 H478 H 0.88003 0.32752 0.30588
 H479 H 0.74209 0.40274 0.40110
 H480 H 0.73884 0.35538 0.33506
 C481 C 0.15841 0.32079 0.88921
 C482 C 0.14273 0.28657 0.91643
 C483 C 0.15300 0.24716 0.90403
 C484 C 0.17792 0.24107 0.86548
 C485 C 0.19443 0.27423 0.83866
 C486 C 0.18430 0.31445 0.84978
 C487 C 0.15022 0.36124 0.90122
 C488 C 0.16573 0.39439 0.87394
 C489 C 0.18986 0.38802 0.83456
 C490 C 0.19920 0.34850 0.82248
 H491 H 0.13179 0.36755 0.93167
 H492 H 0.15892 0.42519 0.88335
 H493 H 0.20154 0.41387 0.81335
 H494 H 0.21786 0.34487 0.79147
 H495 H 0.14159 0.22072 0.92458
 H496 H 0.18575 0.21021 0.85763
 C497 C 0.58415 0.75424 0.39917
 C498 C 0.58113 0.79515 0.41425
 C499 C 0.60454 0.82715 0.39196
 C500 C 0.63109 0.81919 0.35517
 C501 C 0.63509 0.77899 0.33960
 C502 C 0.61166 0.74588 0.36200
 C503 C 0.56113 0.72128 0.42144
 C504 C 0.56557 0.68093 0.40808
 C505 C 0.59316 0.67254 0.37277
 C506 C 0.61611 0.70445 0.35008
 H507 H 0.53972 0.72633 0.44955
 H508 H 0.54786 0.65601 0.42560
 H509 H 0.59700 0.64107 0.36306
 H510 H 0.63765 0.69583 0.32389
 H511 H 0.60276 0.85846 0.40375
 H512 H 0.64901 0.84470 0.33895
 C513 C 0.84911 0.75163 0.90199
 C514 C 0.85653 0.71058 0.91258
 C515 C 0.83734 0.67849 0.88614
 C516 C 0.81016 0.68640 0.85014
 C517 C 0.80156 0.72663 0.83938
 C518 C 0.82125 0.75987 0.86530
 C519 C 0.86795 0.78463 0.92832
 C520 C 0.85877 0.82477 0.91960
 C521 C 0.83092 0.83288 0.88454
 C522 C 0.81236 0.80097 0.85756
 H523 H 0.88972 0.77969 0.95603
 H524 H 0.87312 0.84969 0.94040
 H525 H 0.82344 0.86407 0.87837
 H526 H 0.79033 0.80912 0.83169
 H527 H 0.84241 0.64700 0.89455
 H528 H 0.79500 0.66079 0.83109
 C529 C 0.42776 0.24687 0.39079
 C530 C 0.42416 0.20795 0.41294
 C531 C 0.39575 0.17738 0.39616
 C532 C 0.36977 0.18513 0.35913
 C533 C 0.37109 0.22379 0.33737
 C534 C 0.40145 0.25498 0.35225
 C535 C 0.45630 0.27833 0.40727
 C536 C 0.45984 0.31662 0.38572
 C537 C 0.43484 0.32455 0.34785
 C538 C 0.40574 0.29443 0.33148
 H539 H 0.47617 0.27370 0.43689
 H540 H 0.48207 0.34031 0.39851
 H541 H 0.43787 0.35437 0.33114
 H542 H 0.38736 0.30311 0.30242
 H543 H 0.39271 0.14757 0.41300
 H544 H 0.34746 0.16071 0.34824
 C545 C 0.70606 0.85313 0.93180
 C546 C 0.68464 0.88848 0.91987
 C547 C 0.66703 0.89202 0.87516
 C548 C 0.67057 0.86222 0.84112
 C549 C 0.68886 0.82644 0.85182
 C550 C 0.70534 0.82080 0.89756
 C551 C 0.72958 0.85058 0.97545
 C552 C 0.74898 0.81204 0.98122
 C553 C 0.74318 0.77963 0.95019
 C554 C 0.72233 0.78401 0.90871
 H555 H 0.76901 0.80654 1.01037
 H556 H 0.75735 0.75142 0.95707
 H557 H 0.72088 0.75828 0.88485
 H558 H 0.64934 0.91770 0.86680
 H559 H 0.65781 0.86657 0.80640
 C560 C 0.26483 0.38535 0.39153
 C561 C 0.22407 0.38064 0.40871
 C562 C 0.19618 0.35101 0.38883
 C563 C 0.20831 0.32522 0.35327
 C564 C 0.24883 0.32794 0.33647
 C565 C 0.27759 0.35874 0.35535
 C566 C 0.29363 0.41509 0.41109
 C567 C 0.33410 0.41873 0.39554
 C568 C 0.34682 0.39260 0.36082
 C569 C 0.31918 0.36272 0.34118
 H570 H 0.28520 0.43577 0.43858
 H571 H 0.35578 0.44172 0.41079
 H572 H 0.37842 0.39537 0.34920
 H573 H 0.33132 0.34291 0.31536
 H574 H 0.16512 0.34680 0.40225
 H575 H 0.18593 0.30205 0.33956
 C576 C 0.34485 0.12582 0.89499
 C577 C 0.30890 0.10592 0.91501
 C578 C 0.27050 0.11339 0.89688
 C579 C 0.26709 0.14051 0.85989
 C580 C 0.30192 0.16158 0.84020
 C581 C 0.34140 0.15381 0.85697
 C582 C 0.38413 0.11808 0.91155
 C583 C 0.41927 0.13737 0.89096
 C584 C 0.41597 0.16424 0.85336
 C585 C 0.37750 0.17233 0.83623
 H586 H 0.38800 0.09681 0.94010
 H587 H 0.44924 0.13112 0.90394
 H588 H 0.44340 0.17869 0.83716
 H589 H 0.37647 0.19258 0.80623
 H590 H 0.24279 0.09862 0.91224
 H591 H 0.23670 0.14617 0.84757
 C592 C 0.80008 0.63935 0.38531
 C593 C 0.76725 0.61718 0.40890
 C594 C 0.72706 0.62016 0.39330
 C595 C 0.71877 0.64625 0.35638
 C596 C 0.75038 0.67059 0.33428
 C597 C 0.79169 0.66591 0.34726
 C598 C 0.84109 0.63584 0.39897
 C599 C 0.87326 0.65716 0.37486
 C600 C 0.86522 0.68214 0.33680
 C601 C 0.82492 0.68649 0.32292
 H602 H 0.84859 0.61631 0.42797
 H603 H 0.90461 0.65399 0.38548
 H604 H 0.89038 0.69813 0.31782
 H605 H 0.82025 0.70543 0.29248
 H606 H 0.70172 0.60324 0.41108
 H607 H 0.68715 0.64882 0.34652
 C608 C 0.10098 0.64984 0.89503
 C609 C 0.07317 0.67882 0.90908
 C610 C 0.07302 0.71596 0.88434
 C611 C 0.10143 0.72594 0.84893
 C612 C 0.13095 0.69912 0.83649
 C613 C 0.12943 0.65965 0.85775
 C614 C 0.09974 0.61051 0.91585
 C615 C 0.12585 0.58161 0.90051
 C616 C 0.15300 0.59084 0.86358
 C617 C 0.15461 0.62921 0.84202
 H618 H 0.07796 0.60144 0.94338
 H619 H 0.12443 0.55159 0.91673
 H620 H 0.17253 0.56791 0.85110
 H621 H 0.17482 0.63400 0.81207
 H622 H 0.05257 0.73887 0.89473
 H623 H 0.10165 0.75599 0.83284
 C624 C 0.66853 0.16313 0.40290
 C625 C 0.64429 0.19385 0.42021
 C626 C 0.64697 0.23254 0.39899
 C627 C 0.67392 0.24158 0.36192
 C628 C 0.69942 0.21237 0.34507
 C629 C 0.69613 0.17228 0.36467
 C630 C 0.66551 0.12334 0.42242
 C631 C 0.68890 0.09310 0.40447
 C632 C 0.71526 0.10172 0.36659
 C633 C 0.71879 0.14079 0.34659
 H634 H 0.64478 0.11519 0.45127
 H635 H 0.68621 0.06267 0.41969
 H636 H 0.73287 0.07791 0.35239
 H637 H 0.73877 0.14563 0.31642
 H638 H 0.62873 0.25633 0.41215
 H639 H 0.67593 0.27230 0.34736
 C640 C 0.89845 0.34657 0.89869
 C641 C 0.92813 0.31838 0.90901
 C642 C 0.93114 0.28451 0.87914
 C643 C 0.90342 0.27627 0.84275
 C644 C 0.87136 0.30135 0.83472
 C645 C 0.87033 0.33840 0.86075
 C646 C 0.89731 0.38359 0.92417
 C647 C 0.86905 0.41172 0.91290
 C648 C 0.84205 0.40407 0.87553
 C649 C 0.84282 0.36806 0.84935
 H650 H 0.91884 0.39147 0.95229
 H651 H 0.86863 0.43998 0.93271
 H652 H 0.82079 0.42647 0.86630
 H653 H 0.82263 0.36461 0.81927
 H654 H 0.95300 0.26211 0.88635
 H655 H 0.90551 0.24825 0.82283
 C656 C 0.33640 0.83053 0.38529
 C657 C 0.36072 0.80044 0.40372
 C658 C 0.36066 0.76228 0.38142
 C659 C 0.33505 0.75264 0.34324
 C660 C 0.30814 0.78060 0.32652
 C661 C 0.31034 0.82083 0.34588
 C662 C 0.33766 0.87017 0.40510
 C663 C 0.31433 0.89993 0.38603
 C664 C 0.28976 0.89093 0.34677
 C665 C 0.28784 0.85192 0.32662
 H666 H 0.35706 0.87861 0.43500
 H667 H 0.31574 0.93030 0.40141
 H668 H 0.27232 0.91441 0.33161
 H669 H 0.26947 0.84688 0.29521
 H670 H 0.37939 0.73910 0.39502
 H671 H 0.33470 0.72214 0.32843
 C672 C 0.25917 0.84030 0.06214
 C673 C 0.24903 0.88075 0.07476
 C674 C 0.23389 0.88881 0.11964
 C675 C 0.23084 0.85882 0.15394
 C676 C 0.23887 0.81859 0.14330
 C677 C 0.24988 0.80848 0.09617
 C678 C 0.27674 0.83116 0.01629
 C679 C 0.27857 0.78731 0.00691
 C680 C 0.26318 0.75721 0.03770
 C681 C 0.24942 0.76740 0.08172
 H682 H 0.29141 0.77605 -0.02527
 H683 H 0.26330 0.72523 0.02782
 H684 H 0.23727 0.74233 0.10358
 H685 H 0.22369 0.91865 0.12814
 H686 H 0.22078 0.86699 0.18886
 C687 C 0.83994 0.38650 0.60258
 C688 C 0.80355 0.40138 0.58471
 C689 C 0.76600 0.38968 0.60644
 C690 C 0.76377 0.36217 0.64400
 C691 C 0.79897 0.34523 0.66087
 C692 C 0.83777 0.35856 0.64130
 C693 C 0.87854 0.39907 0.58289
 C694 C 0.91429 0.38491 0.60126
 C695 C 0.91234 0.35839 0.63969
 C696 C 0.87459 0.34542 0.65978
 H697 H 0.88143 0.42028 0.55358
 H698 H 0.94370 0.39491 0.58593
 H699 H 0.94028 0.34801 0.65423
 H700 H 0.87477 0.32578 0.69039
 H701 H 0.73796 0.40083 0.59302
 H702 H 0.73391 0.35255 0.65858
 C703 C 0.78812 0.11347 0.10400
 C704 C 0.74719 0.10223 0.09024
 C705 C 0.71475 0.11694 0.11556
 C706 C 0.72226 0.14391 0.15301
 C707 C 0.76241 0.15723 0.16607
 C708 C 0.79603 0.14181 0.14164
 C709 C 0.82138 0.09801 0.07986
 C710 C 0.86162 0.11161 0.09094
 C711 C 0.86951 0.14058 0.12628
 C712 C 0.83727 0.15556 0.15149
 H713 H 0.81654 0.07539 0.05219
 H714 H 0.88679 0.09987 0.07172
 H715 H 0.90082 0.15160 0.13421
 H716 H 0.84547 0.17859 0.17769
 H717 H 0.68336 0.10880 0.10492
 H718 H 0.69639 0.15573 0.17089
 C719 C 0.14781 0.61034 0.60597
 C720 C 0.18227 0.59139 0.58874
 C721 C 0.22013 0.59878 0.61131
 C722 C 0.22487 0.62635 0.64864
 C723 C 0.19208 0.64801 0.66418
 C724 C 0.15254 0.63846 0.64443
 C725 C 0.10866 0.60168 0.58588
 C726 C 0.07470 0.61975 0.60373
 C727 C 0.07901 0.64632 0.64205
 C728 C 0.11740 0.65551 0.66248
 H729 H 0.10390 0.58049 0.55672
 H730 H 0.04479 0.61268 0.58815
 H731 H 0.05238 0.65966 0.65628
 H732 H 0.11890 0.67519 0.69315
 H733 H 0.24671 0.58435 0.59856
 H734 H 0.25506 0.63232 0.66384
 C735 C 0.83466 0.67291 0.10710
 C736 C 0.85847 0.70535 0.08490
 C737 C 0.85805 0.74527 0.10239
 C738 C 0.83240 0.75388 0.13960
 C739 C 0.80592 0.72293 0.15981
 C740 C 0.80856 0.68161 0.14542
 C741 C 0.83619 0.63200 0.09185
 C742 C 0.81329 0.60015 0.11473
 C743 C 0.78878 0.60840 0.15318
 C744 C 0.78644 0.64864 0.16862
 H745 H 0.85542 0.62431 0.06260
 H746 H 0.81494 0.56886 0.10292
 H747 H 0.77162 0.58346 0.17130
 H748 H 0.76796 0.65339 0.19946
 H749 H 0.87653 0.77021 0.08579
 H750 H 0.83182 0.78537 0.15104
 C751 C 0.39470 0.16710 0.60536
 C752 C 0.41865 0.20066 0.58549
 C753 C 0.41691 0.23985 0.60461
 C754 C 0.39027 0.24664 0.64148
 C755 C 0.36431 0.21447 0.66013
 C756 C 0.36766 0.17388 0.64351
 C757 C 0.39718 0.12692 0.58811
 C758 C 0.37418 0.09392 0.60871
 C759 C 0.34866 0.10027 0.64688
 C760 C 0.34545 0.13975 0.66437
 H761 H 0.41719 0.12069 0.55900
 H762 H 0.37652 0.06320 0.59533
 H763 H 0.33142 0.07442 0.66321
 H764 H 0.32619 0.14295 0.69492
 H765 H 0.43535 0.26567 0.58971
 H766 H 0.38868 0.27772 0.65408
 C767 C 0.14616 0.22803 0.09510
 C768 C 0.13562 0.26834 0.08568
 C769 C 0.15115 0.30081 0.11420
 C770 C 0.17836 0.29422 0.15057
 C771 C 0.19049 0.25491 0.15969
 C772 C 0.17400 0.22117 0.13229
 C773 C 0.13041 0.19457 0.06738
 C774 C 0.14235 0.15525 0.07559
 C775 C 0.17018 0.14857 0.11128
 C776 C 0.18596 0.18108 0.13936
 H777 H 0.10881 0.19856 0.03920
 H778 H 0.13015 0.12987 0.05398
 H779 H 0.17969 0.11804 0.11719
 H780 H 0.20775 0.17440 0.16621
 H781 H 0.14361 0.33182 0.10681
 H782 H 0.19097 0.32023 0.17099
 C783 C 0.56774 0.75366 0.60861
 C784 C 0.57435 0.79252 0.58655
 C785 C 0.60330 0.82172 0.60505
 C786 C 0.62698 0.81261 0.64367
 C787 C 0.62263 0.77395 0.66562
 C788 C 0.59112 0.74445 0.64932
 C789 C 0.53890 0.72337 0.59014
 C790 C 0.53149 0.68562 0.61231
 C791 C 0.55285 0.67705 0.65286
 C792 C 0.58254 0.70570 0.67100
 H793 H 0.52171 0.72846 0.55845
 H794 H 0.50894 0.66295 0.59804
 H795 H 0.54657 0.64779 0.67029
 H796 H 0.59756 0.69650 0.70240
 H797 H 0.60850 0.85152 0.58847
 H798 H 0.65005 0.83591 0.65560
   
