data_POSCAR
  _audit_creation_date              2014-09-24
  _audit_creation_method            'ToBaCCo'
  _symmetry_space_group_name_H-M    'P1'
  _symmetry_Int_Tables_number       1
  _symmetry_cell_setting            triclinic
  loop_
  _symmetry_equiv_pos_as_xyz
 x,y,z
_cell_length_a 47.6938
_cell_length_b 47.7218
_cell_length_c 47.5922
_cell_angle_alpha 90.085000
_cell_angle_beta 90.053000
_cell_angle_gamma 90.065700
loop_
  _atom_site_label
  _atom_site_type_symbol
  _atom_site_fract_x
  _atom_site_fract_y
  _atom_site_fract_z
N1 N 0.14937 0.16905 0.22794
 N2 N 0.16984 0.15070 0.22896
 C3 C 0.16603 0.13385 0.25124
 C4 C 0.14171 0.14184 0.26511
 C5 C 0.13170 0.16438 0.24953
 H6 H 0.17980 0.11673 0.25656
 H7 H 0.11309 0.17663 0.25353
 Cu8 Cu 0.19913 0.14971 0.20064
 Cu9 Cu 0.14759 0.19771 0.19872
 Cu10 Cu 0.20007 0.19630 0.14807
 N11 N 0.22826 0.14903 0.17211
 N12 N 0.22828 0.16702 0.15128
 C13 C 0.25014 0.16157 0.13426
 C14 C 0.26485 0.13885 0.14501
 C15 C 0.25018 0.13155 0.16914
 H16 H 0.25490 0.17347 0.11557
 H17 H 0.25479 0.11459 0.18339
 N18 N 0.16979 0.22430 0.14839
 N19 N 0.14972 0.22488 0.16746
 C20 C 0.13270 0.24677 0.16206
 C21 C 0.14265 0.26071 0.13856
 C22 C 0.16613 0.24576 0.13049
 H23 H 0.11476 0.25252 0.17465
 H24 H 0.17963 0.25020 0.11283
 H25 H 0.16831 0.17474 0.16846
 H26 H 0.19005 0.19885 0.19042
 N27 N -0.14987 0.83208 0.22606
 N28 N -0.16999 0.85082 0.22501
 C29 C -0.16673 0.86897 0.24646
 C30 C -0.14328 0.86119 0.26181
 C31 C -0.13311 0.83767 0.24814
 H32 H -0.18036 0.88657 0.25054
 H33 H -0.11513 0.82522 0.25403
 Cu34 Cu -0.19864 0.84939 0.19588
 Cu35 Cu -0.14717 0.80151 0.19908
 Cu36 Cu -0.19779 0.79872 0.14676
 N37 N -0.22659 0.84804 0.16608
 N38 N -0.22633 0.82796 0.14719
 C39 C -0.24801 0.83154 0.12945
 C40 C -0.26280 0.85533 0.13750
 C41 C -0.24838 0.86522 0.16090
 H42 H -0.25239 0.81782 0.11192
 H43 H -0.25343 0.88338 0.17347
 N44 N -0.16715 0.77112 0.14991
 N45 N -0.14799 0.77220 0.16990
 C46 C -0.13015 0.75061 0.16660
 C47 C -0.13836 0.73515 0.14338
 C48 C -0.16190 0.74884 0.13330
 H49 H -0.11229 0.74661 0.17998
 H50 H -0.17446 0.74284 0.11537
 H51 H -0.16703 0.82208 0.16643
 H52 H -0.18940 0.79954 0.18932
 N53 N -0.15069 0.16779 -0.22440
 N54 N -0.17066 0.14882 -0.22367
 C55 C -0.16690 0.13073 -0.24510
 C56 C -0.14328 0.13881 -0.26005
 C57 C -0.13356 0.16243 -0.24618
 H58 H -0.18033 0.11300 -0.24946
 H59 H -0.11564 0.17512 -0.25178
 Cu60 Cu -0.19977 0.15006 -0.19496
 Cu61 Cu -0.14861 0.19844 -0.19755
 Cu62 Cu -0.19970 0.20094 -0.14590
 N63 N -0.22795 0.15121 -0.16533
 N64 N -0.22794 0.17139 -0.14654
 C65 C -0.24964 0.16769 -0.12890
 C66 C -0.26421 0.14371 -0.13686
 C67 C -0.24963 0.13382 -0.16015
 H68 H -0.25414 0.18146 -0.11146
 H69 H -0.25448 0.11551 -0.17261
 N70 N -0.16930 0.22886 -0.14882
 N71 N -0.14996 0.22786 -0.16860
 C72 C -0.13236 0.24966 -0.16530
 C73 C -0.14092 0.26522 -0.14231
 C74 C -0.16440 0.25134 -0.13233
 H75 H -0.11442 0.25376 -0.17851
 H76 H -0.17715 0.25735 -0.11457
 H77 H -0.16873 0.17769 -0.16508
 H78 H -0.19100 0.20001 -0.18830
 N79 N 0.15022 0.83299 -0.22751
 N80 N 0.16893 0.85316 -0.22631
 C81 C 0.16501 0.87061 -0.24815
 C82 C 0.14252 0.86096 -0.26387
 C83 C 0.13362 0.83702 -0.25006
 H84 H 0.17742 0.88913 -0.25213
 H85 H 0.11646 0.82342 -0.25601
 Cu86 Cu 0.19696 0.85479 -0.19668
 Cu87 Cu 0.14868 0.80338 -0.19951
 Cu88 Cu 0.19417 0.80918 -0.14282
 N89 N 0.22620 0.85314 -0.16826
 N90 N 0.22492 0.83571 -0.14699
 C91 C 0.24713 0.84008 -0.13003
 C92 C 0.26349 0.86138 -0.14140
 C93 C 0.24940 0.86898 -0.16579
 H94 H 0.25092 0.82850 -0.11091
 H95 H 0.25513 0.88522 -0.18048
 N96 N 0.16698 0.77829 -0.14695
 N97 N 0.15019 0.77580 -0.16886
 C98 C 0.13476 0.75238 -0.16600
 C99 C 0.14217 0.73932 -0.14112
 C100 C 0.16269 0.75641 -0.12958
 H101 H 0.11899 0.74555 -0.18081
 H102 H 0.17397 0.75300 -0.11019
 H103 H 0.16368 0.82819 -0.16790
 H104 H 0.19024 0.80558 -0.18574
 N105 N 0.17066 1.15027 0.77260
 N106 N 0.14841 1.16618 0.77545
 C107 C 0.13092 1.16158 0.75366
 C108 C 0.14291 1.14161 0.73616
 C109 C 0.16815 1.13499 0.74898
 H110 H 0.11101 1.17200 0.75083
 H111 H 0.18332 1.11966 0.74210
 Cu112 Cu 0.14452 1.19119 0.80746
 Cu113 Cu 0.20042 1.14904 0.80053
 Cu114 Cu 0.19332 1.19259 0.85849
 N115 N 0.14729 1.22232 0.83373
 N116 N 0.16618 1.22272 0.85385
 C117 C 0.16264 1.24595 0.86952
 C118 C 0.14041 1.26112 0.85850
 C119 C 0.13125 1.24540 0.83573
 H120 H 0.17539 1.25136 0.88752
 H121 H 0.11383 1.25004 0.82196
 N122 N 0.22507 1.16657 0.85370
 N123 N 0.22804 1.15059 0.83126
 C124 C 0.25163 1.13541 0.83394
 C125 C 0.26428 1.14210 0.85927
 C126 C 0.24679 1.16199 0.87125
 H127 H 0.25869 1.12007 0.81882
 H128 H 0.24966 1.17247 0.89120
 H129 H 0.17625 1.16044 0.83412
 H130 H 0.19475 1.18955 0.81574
 N131 N 0.82944 0.85197 0.77519
 N132 N 0.84892 0.83254 0.77436
 C133 C 0.86583 0.83743 0.75222
 C134 C 0.85632 0.86113 0.73839
 C135 C 0.83319 0.86976 0.75366
 H136 H 0.88350 0.82451 0.74640
 H137 H 0.82011 0.88778 0.74959
 Cu138 Cu 0.84992 0.80265 0.80212
 Cu139 Cu 0.80047 0.85283 0.80387
 Cu140 Cu 0.80250 0.80075 0.85444
 N141 N 0.85113 0.77401 0.83115
 N142 N 0.83264 0.77346 0.85159
 C143 C 0.83825 0.75170 0.86864
 C144 C 0.86152 0.73773 0.85832
 C145 C 0.86912 0.75255 0.83449
 H146 H 0.82606 0.74629 0.88698
 H147 H 0.88657 0.74819 0.82071
 N148 N 0.77366 0.83024 0.85370
 N149 N 0.77299 0.85018 0.83454
 C150 C 0.75092 0.86701 0.83964
 C151 C 0.73694 0.85717 0.86310
 C152 C 0.75199 0.83382 0.87144
 H153 H 0.74520 0.88486 0.82695
 H154 H 0.74760 0.82050 0.88924
 H155 H 0.82389 0.83263 0.83431
 H156 H 0.80038 0.81033 0.81217
 N157 N 0.16999 0.84795 1.23052
 N158 N 0.15013 0.82895 1.22882
 C159 C 0.13030 0.83458 1.24809
 C160 C 0.13826 0.85835 1.26291
 C161 C 0.16365 0.86622 1.25112
 H162 H 0.11191 0.82180 1.25160
 H163 H 0.17670 0.88377 1.25710
 Cu164 Cu 0.15310 0.79754 1.20301
 Cu165 Cu 0.20311 0.84657 1.20673
 Cu166 Cu 0.19868 0.80170 1.14925
 N167 N 0.15089 0.77231 1.17112
 N168 N 0.16872 0.77383 1.15015
 C169 C 0.16281 0.75341 1.13147
 C170 C 0.13988 0.73842 1.14121
 C171 C 0.13289 0.75110 1.16644
 H172 H 0.17436 0.74973 1.11229
 H173 H 0.11631 0.74501 1.18065
 N174 N 0.22752 0.83123 1.15277
 N175 N 0.22940 0.84783 1.17489
 C176 C 0.25131 0.86525 1.17151
 C177 C 0.26408 0.85935 1.14605
 C178 C 0.24834 0.83763 1.13475
 H179 H 0.25730 0.88123 1.18646
 H180 H 0.25197 0.82700 1.11503
 H181 H 0.17881 0.83109 1.17468
 H182 H 0.20281 0.80543 1.19171
 N183 N 0.82823 1.15497 1.22862
 N184 N 0.85077 1.17062 1.22610
 C185 C 0.86855 1.16465 1.24727
 C186 C 0.85640 1.14418 1.26404
 C187 C 0.83075 1.13867 1.25146
 H188 H 0.88870 1.17459 1.25029
 H189 H 0.81506 1.12373 1.25808
 Cu190 Cu 0.85418 1.19744 1.19550
 Cu191 Cu 0.79692 1.15702 1.20248
 Cu192 Cu 0.81205 1.19042 1.13974
 N193 N 0.85339 1.22563 1.16592
 N194 N 0.83693 1.22244 1.14400
 C195 C 0.84095 1.24379 1.12610
 C196 C 0.86100 1.26164 1.13735
 C197 C 0.86841 1.24936 1.16276
 H198 H 0.82998 1.24591 1.10635
 H199 H 0.88377 1.25686 1.17769
 N200 N 0.77959 1.16557 1.14466
 N201 N 0.77342 1.15325 1.16866
 C202 C 0.74966 1.13831 1.16541
 C203 C 0.74024 1.14171 1.13809
 C204 C 0.75979 1.15914 1.12558
 H205 H 0.73977 1.12619 1.18182
 H206 H 0.75962 1.16672 1.10418
 H207 H 0.82523 1.16254 1.17136
 H208 H 0.80511 1.19459 1.18132
 N209 N 0.52934 1.04975 0.97221
 N210 N 0.55077 1.06699 0.96947
 N211 N 0.47091 1.03027 0.95242
 N212 N 0.44976 1.03364 0.93491
 N213 N 0.47031 1.04937 0.97228
 N214 N 0.44878 1.06641 0.96867
 N215 N 0.52995 1.03030 0.95269
 N216 N 0.55175 1.03400 0.93592
 C217 C 0.56455 1.05702 0.94674
 C218 C 0.43613 1.05627 0.94524
 N219 N 0.46963 0.95090 0.97159
 N220 N 0.44793 0.93410 0.96767
 N221 N 0.52950 0.96953 0.95234
 N222 N 0.55135 0.96584 0.93566
 N223 N 0.52855 0.94984 0.97155
 N224 N 0.54973 0.93240 0.96864
 N225 N 0.47047 0.97028 0.95205
 N226 N 0.44926 0.96738 0.93451
 Mn227 Mn 0.50034 1.00009 0.95201
 C228 C 0.43538 0.94472 0.94444
 C229 C 0.56375 0.94252 0.94616
 N230 N 0.47085 1.04899 1.03316
 N231 N 0.44902 1.06559 1.03700
 N232 N 0.53080 1.02975 1.05152
 N233 N 0.55295 1.03324 1.06789
 N234 N 0.52981 1.04939 1.03226
 N235 N 0.55131 1.06655 1.03477
 N236 N 0.47179 1.02962 1.05270
 N237 N 0.45054 1.03232 1.07017
 Mn238 Mn 0.49993 1.04971 1.00249
 C239 C 0.43655 1.05488 1.06023
 C240 C 0.56554 1.05635 1.05709
 N241 N 0.52916 0.94951 1.03159
 N242 N 0.55043 0.93205 1.03393
 N243 N 0.47138 0.96969 1.05230
 N244 N 0.45018 0.96692 1.06983
 N245 N 0.47016 0.95060 1.03246
 N246 N 0.44815 0.93415 1.03610
 N247 N 0.53042 0.96895 1.05109
 N248 N 0.55251 0.96504 1.06744
 Mn249 Mn 0.49923 0.94988 1.00180
 Mn250 Mn 0.50125 0.99950 1.05227
 Cl251 Cl 0.50019 0.99980 1.00214
 C252 C 0.56479 0.94188 1.05639
 C253 C 0.43589 0.94464 1.05955
 N254 N 0.03344 0.46890 0.04765
 N255 N 0.03694 0.44691 0.06410
 N256 N 0.05309 0.52876 0.03006
 N257 N 0.06955 0.55077 0.03375
 N258 N 0.03377 0.52779 0.04967
 N259 N 0.03655 0.54903 0.06720
 N260 N 0.05298 0.46973 0.02824
 N261 N 0.07018 0.44827 0.03086
 C262 C 0.05996 0.43422 0.05333
 C263 C 0.05899 0.56315 0.05712
 N264 N 0.03345 0.53049 -0.05001
 N265 N 0.03654 0.55211 -0.06689
 N266 N 0.05289 0.47123 -0.03216
 N267 N 0.06981 0.44969 -0.03626
 N268 N 0.03307 0.47163 -0.05130
 N269 N 0.03595 0.45050 -0.06894
 N270 N 0.05304 0.53035 -0.03064
 N271 N 0.07012 0.55195 -0.03392
 Mn272 Mn 0.05339 0.50007 -0.00110
 C273 C 0.05949 0.56534 -0.05669
 C274 C 0.05897 0.43698 -0.05936
 N275 N -0.02645 0.52834 0.04977
 N276 N -0.02934 0.54923 0.06771
 N277 N -0.04688 0.47060 0.02852
 N278 N -0.06505 0.45003 0.03183
 N279 N -0.02718 0.46938 0.04777
 N280 N -0.03145 0.44790 0.06472
 N281 N -0.04591 0.52946 0.03026
 N282 N -0.06265 0.55109 0.03451
 Mn283 Mn 0.00341 0.49851 0.04906
 C284 C -0.05203 0.56323 0.05799
 C285 C -0.05518 0.43601 0.05447
 N286 N -0.02723 0.47210 -0.05113
 N287 N -0.03049 0.45087 -0.06860
 N288 N -0.04605 0.53108 -0.03046
 N289 N -0.06291 0.55280 -0.03383
 N290 N -0.02654 0.53094 -0.04988
 N291 N -0.02945 0.55250 -0.06687
 N292 N -0.04694 0.47202 -0.03190
 N293 N -0.06418 0.45067 -0.03578
 Mn294 Mn 0.00318 0.50124 -0.05086
 Mn295 Mn -0.04682 0.50086 -0.00089
 Cl296 Cl 0.00329 0.50016 -0.00093
 C297 C -0.05365 0.43769 -0.05882
 C298 C -0.05220 0.56598 -0.05668
 N299 N 1.04731 -0.02939 0.52890
 N300 N 1.06493 -0.03241 0.55001
 N301 N 1.02660 -0.04926 0.47051
 N302 N 1.02916 -0.06654 0.44902
 N303 N 1.04610 -0.02985 0.46975
 N304 N 1.06252 -0.03345 0.44770
 N305 N 1.02777 -0.04877 0.52964
 N306 N 1.03169 -0.06563 0.55132
 C307 C 1.05502 -0.05510 0.56382
 C308 C 1.05169 -0.05648 0.43498
 N309 N 0.94742 -0.02866 0.47133
 N310 N 0.93025 -0.03137 0.44978
 N311 N 0.96719 -0.04815 0.53050
 N312 N 0.96362 -0.06495 0.55226
 N313 N 0.94808 -0.02839 0.53035
 N314 N 0.93108 -0.03109 0.55198
 N315 N 0.96632 -0.04863 0.47125
 N316 N 0.96249 -0.06550 0.44952
 Mn317 Mn 0.99697 -0.04909 0.50053
 C318 C 0.93983 -0.05446 0.43636
 C319 C 0.94096 -0.05398 0.56547
 N320 N 1.04675 0.03054 0.46971
 N321 N 1.06356 0.03339 0.44795
 N322 N 1.02880 0.05050 0.52936
 N323 N 1.03301 0.06753 0.55088
 N324 N 1.04798 0.03079 0.52877
 N325 N 1.06568 0.03382 0.54986
 N326 N 1.02791 0.05057 0.47015
 N327 N 1.03149 0.06769 0.44862
 Mn328 Mn 1.04736 0.00052 0.49923
 C329 C 1.05386 0.05664 0.43496
 C330 C 1.05614 0.05683 0.56348
 N331 N 0.94872 0.03157 0.53014
 N332 N 0.93189 0.03433 0.55187
 N333 N 0.96747 0.05111 0.47101
 N334 N 0.96395 0.06802 0.44933
 N335 N 0.94811 0.03154 0.47117
 N336 N 0.93091 0.03458 0.44971
 N337 N 0.96816 0.05106 0.53033
 N338 N 0.96494 0.06775 0.55233
 Mn339 Mn 0.94781 0.00152 0.50071
 Mn340 Mn 0.99809 0.05124 0.50026
 Cl341 Cl 0.99758 0.00106 0.50019
 C342 C 0.94214 0.05696 0.56555
 C343 C 0.94099 0.05743 0.43626
 C344 C 1.10570 0.10383 0.33659
 C345 C 1.13201 0.09496 0.32690
 C346 C 1.14384 0.10753 0.30335
 C347 C 1.12990 0.12940 0.28928
 C348 C 1.10390 0.13819 0.30021
 N349 N 1.09266 0.12535 0.32314
 C350 C 1.09207 0.09076 0.36137
 N351 N 1.07181 0.10516 0.37550
 C352 C 1.05891 0.09464 0.39874
 C353 C 1.06646 0.06820 0.40912
 C354 C 1.08675 0.05276 0.39455
 C355 C 1.09939 0.06378 0.37064
 H356 H 1.16412 0.10005 0.29663
 H357 H 1.09220 0.15499 0.29053
 H358 H 1.04316 0.10710 0.40929
 H359 H 1.09282 0.03205 0.40157
 H360 H 1.14383 0.07881 0.33749
 H361 H 1.11446 0.05099 0.35956
 C362 C 0.88996 -0.09994 0.33597
 C363 C 0.86284 -0.09305 0.32669
 C364 C 0.85211 -0.10559 0.30248
 C365 C 0.86808 -0.12524 0.28749
 C366 C 0.89493 -0.13185 0.29767
 N367 N 0.90500 -0.11925 0.32126
 C368 C 0.90246 -0.08739 0.36162
 N369 N 0.92419 -0.10079 0.37447
 C370 C 0.93661 -0.09069 0.39818
 C371 C 0.92713 -0.06567 0.41036
 C372 C 0.90513 -0.05126 0.39725
 C373 C 0.89287 -0.06190 0.37288
 H374 H 0.83112 -0.10015 0.29585
 H375 H 0.90807 -0.14683 0.28687
 H376 H 0.95369 -0.10232 0.40754
 H377 H 0.89746 -0.03165 0.40574
 H378 H 0.84965 -0.07862 0.33814
 H379 H 0.87641 -0.04993 0.36294
 C380 C 0.89155 0.10113 0.66602
 C381 C 0.86439 0.09375 0.67479
 C382 C 0.85315 0.10586 0.69896
 C383 C 0.86864 0.12558 0.71439
 C384 C 0.89557 0.13270 0.70472
 N385 N 0.90614 0.12050 0.68116
 C386 C 0.90456 0.08894 0.64049
 N387 N 0.92602 0.10287 0.62770
 C388 C 0.93867 0.09307 0.60399
 C389 C 0.92968 0.06787 0.59177
 C390 C 0.90805 0.05291 0.60492
 C391 C 0.89559 0.06321 0.62926
 H392 H 0.83213 0.10005 0.70519
 H393 H 0.90837 0.14774 0.71588
 H394 H 0.95546 0.10511 0.59460
 H395 H 0.90077 0.03311 0.59645
 H396 H 0.85154 0.07927 0.66295
 H397 H 0.87942 0.05082 0.63918
 C398 C 1.10749 -0.10141 0.66235
 C399 C 1.13477 -0.09426 0.67097
 C400 C 1.14613 -0.10656 0.69495
 C401 C 1.13065 -0.12626 0.71034
 C402 C 1.10373 -0.13338 0.70068
 N403 N 1.09299 -0.12093 0.67733
 C404 C 1.09421 -0.08869 0.63720
 N405 N 1.07220 -0.10208 0.62471
 C406 C 1.05913 -0.09176 0.60149
 C407 C 1.06822 -0.06653 0.58943
 C408 C 1.09048 -0.05215 0.60222
 C409 C 1.10337 -0.06299 0.62611
 H410 H 1.16720 -0.10084 0.70115
 H411 H 1.09100 -0.14847 0.71183
 H412 H 1.04188 -0.10338 0.59235
 H413 H 1.09787 -0.03238 0.59385
 H414 H 1.14760 -0.07973 0.65923
 H415 H 1.12000 -0.05099 0.63581
 C416 C 0.33699 1.10013 1.11131
 C417 C 0.32617 1.09105 1.13719
 C418 C 0.30231 1.10377 1.14824
 C419 C 0.28906 1.12591 1.13394
 C420 C 0.30092 1.13465 1.10830
 N421 N 0.32410 1.12173 1.09788
 C422 C 0.36233 1.08746 1.09840
 N423 N 0.37557 1.10150 1.07729
 C424 C 0.39905 1.09148 1.06455
 C425 C 0.41068 1.06592 1.07312
 C426 C 0.39721 1.05086 1.09445
 C427 C 0.37301 1.06137 1.10698
 H428 H 0.29467 1.09622 1.16822
 H429 H 0.29187 1.15155 1.09626
 H430 H 0.40874 1.10364 1.04801
 H431 H 0.40527 1.03080 1.10137
 H432 H 0.33606 1.07468 1.14929
 H433 H 0.36285 1.04883 1.12286
 C434 C 0.33671 0.89820 0.89234
 C435 C 0.32719 0.90619 0.86562
 C436 C 0.30310 0.89395 0.85447
 C437 C 0.28832 0.87331 0.86953
 C438 C 0.29914 0.86528 0.89588
 N439 N 0.32257 0.87779 0.90642
 C440 C 0.36190 0.91100 0.90550
 N441 N 0.37485 0.89736 0.92705
 C442 C 0.39810 0.90773 0.94002
 C443 C 0.40974 0.93328 0.93130
 C444 C 0.39652 0.94793 0.90952
 C445 C 0.37258 0.93704 0.89673
 H446 H 0.29644 0.90070 0.83386
 H447 H 0.28895 0.84943 0.90844
 H448 H 0.40760 0.89588 0.95690
 H449 H 0.40456 0.96795 0.90245
 H450 H 0.33825 0.92143 0.85303
 H451 H 0.36254 0.94927 0.88051
 C452 C 0.66485 0.88992 1.09978
 C453 C 0.67584 0.86451 1.08971
 C454 C 0.69980 0.85320 1.10206
 C455 C 0.71297 0.86673 1.12482
 C456 C 0.70097 0.89193 1.13451
 N457 N 0.67771 0.90263 1.12194
 C458 C 0.63937 0.90311 1.08759
 N459 N 0.62633 0.92394 1.10223
 C460 C 0.60277 0.93690 1.09267
 C461 C 0.59081 0.92887 1.06698
 C462 C 0.60406 0.90782 1.05131
 C463 C 0.62835 0.89507 1.06136
 H464 H 0.70760 0.83361 1.09376
 H465 H 0.70995 0.90340 1.15191
 H466 H 0.59327 0.95319 1.10531
 H467 H 0.59575 0.90128 1.03115
 H468 H 0.66604 0.85296 1.07282
 H469 H 0.63827 0.87941 1.04834
 C470 C 0.66396 1.10868 0.90144
 C471 C 0.67465 1.13440 0.91106
 C472 C 0.69842 1.14586 0.89849
 C473 C 0.71167 1.13217 0.87592
 C474 C 0.69990 1.10669 0.86659
 N475 N 0.67682 1.09583 0.87940
 C476 C 0.63875 1.09539 0.91409
 N477 N 0.62513 1.07480 0.89957
 C478 C 0.60170 1.06192 0.90959
 C479 C 0.59049 1.06981 0.93566
 C480 C 0.60441 1.09055 0.95121
 C481 C 0.62856 1.10318 0.94070
 H482 H 0.70595 1.16570 0.90647
 H483 H 0.70896 1.09512 0.84932
 H484 H 0.59167 1.04585 0.89704
 H485 H 0.59673 1.09693 0.97165
 H486 H 0.66472 1.14608 0.92775
 H487 H 0.63906 1.11857 0.95364
 C488 C 0.10952 0.33452 0.09964
 C489 C 0.13703 0.32590 0.09363
 C490 C 0.14772 0.30187 0.10629
 C491 C 0.13132 0.28638 0.12519
 C492 C 0.10413 0.29598 0.13109
 N493 N 0.09408 0.31942 0.11835
 C494 C 0.09706 0.35992 0.08678
 N495 N 0.07470 0.37230 0.09954
 C496 C 0.06235 0.39582 0.08920
 C497 C 0.07256 0.40831 0.06458
 C498 C 0.09521 0.39567 0.05078
 C499 C 0.10739 0.37146 0.06166
 H500 H 0.16902 0.29577 0.10151
 H501 H 0.09070 0.28477 0.14552
 H502 H 0.04476 0.40482 0.10035
 H503 H 0.10346 0.40441 0.03150
 H504 H 0.15054 0.33771 0.07979
 H505 H 0.12441 0.36189 0.05016
 C506 C -0.10183 0.33907 -0.10919
 C507 C -0.09569 0.33024 -0.13667
 C508 C -0.10848 0.30624 -0.14741
 C509 C -0.12764 0.29101 -0.13107
 C510 C -0.13372 0.30087 -0.10394
 N511 N -0.12083 0.32426 -0.09384
 C512 C -0.08863 0.36428 -0.09659
 N513 N -0.10140 0.37706 -0.07440
 C514 C -0.09063 0.40035 -0.06188
 C515 C -0.06554 0.41215 -0.07169
 C516 C -0.05178 0.39910 -0.09417
 C517 C -0.06311 0.37515 -0.10655
 H518 H -0.10356 0.29991 -0.16867
 H519 H -0.14836 0.28987 -0.09057
 H520 H -0.10177 0.40969 -0.04442
 H521 H -0.03214 0.40729 -0.10211
 H522 H -0.08160 0.34184 -0.15011
 H523 H -0.05162 0.36521 -0.12339
 C524 C 0.10650 0.66433 -0.10698
 C525 C 0.10194 0.67114 -0.13531
 C526 C 0.11374 0.69541 -0.14641
 C527 C 0.13033 0.71299 -0.12954
 C528 C 0.13510 0.70501 -0.10152
 N529 N 0.12320 0.68126 -0.09110
 C530 C 0.09374 0.63911 -0.09412
 N531 N 0.10631 0.62697 -0.07147
 C532 C 0.09576 0.60359 -0.05893
 C533 C 0.07113 0.59113 -0.06922
 C534 C 0.05754 0.60367 -0.09209
 C535 C 0.06865 0.62762 -0.10449
 H536 H 0.10996 0.70018 -0.16829
 H537 H 0.14783 0.71779 -0.08773
 H538 H 0.10671 0.59468 -0.04114
 H539 H 0.03825 0.59500 -0.10042
 H540 H 0.08973 0.65776 -0.14902
 H541 H 0.05737 0.63714 -0.12172
 C542 C -0.09891 0.66173 0.10975
 C543 C -0.09251 0.67061 0.13720
 C544 C -0.10534 0.69451 0.14808
 C545 C -0.12478 0.70959 0.13195
 C546 C -0.13098 0.69977 0.10481
 N547 N -0.11808 0.67649 0.09459
 C548 C -0.08597 0.63649 0.09696
 N549 N -0.09866 0.62439 0.07432
 C550 C -0.08822 0.60117 0.06145
 C551 C -0.06352 0.58869 0.07137
 C552 C -0.04983 0.60097 0.09437
 C553 C -0.06084 0.62488 0.10711
 H554 H -0.10026 0.70085 0.16932
 H555 H -0.14578 0.71068 0.09154
 H556 H -0.09932 0.59244 0.04362
 H557 H -0.03050 0.59220 0.10244
 H558 H -0.07822 0.65912 0.15051
 H559 H -0.04939 0.63419 0.12437
 C560 C 1.10828 0.10431 0.66179
 C561 C 1.13653 0.09973 0.66872
 C562 C 1.14778 0.11205 0.69278
 C563 C 1.13116 0.12916 0.71005
 C564 C 1.10318 0.13379 0.70201
 N565 N 1.09263 0.12143 0.67846
 C566 C 1.09521 0.09136 0.63664
 N567 N 1.07221 0.10364 0.62494
 C568 C 1.05928 0.09301 0.60174
 C569 C 1.06947 0.06855 0.58895
 C570 C 1.09278 0.05527 0.60093
 C571 C 1.10561 0.06648 0.62475
 H572 H 1.16960 0.10825 0.69761
 H573 H 1.08953 0.14687 0.71451
 H574 H 1.04119 0.10375 0.59327
 H575 H 1.10107 0.03613 0.59195
 H576 H 1.15008 0.08716 0.65558
 H577 H 1.12317 0.05542 0.63387
 C578 C 0.89053 -0.10027 0.66484
 C579 C 0.86326 -0.09347 0.67362
 C580 C 0.85219 -0.10605 0.69756
 C581 C 0.86798 -0.12564 0.71277
 C582 C 0.89493 -0.13233 0.70299
 N583 N 0.90536 -0.11965 0.67964
 C584 C 0.90338 -0.08744 0.63960
 N585 N 0.92499 -0.10089 0.62661
 C586 C 0.93756 -0.09056 0.60314
 C587 C 0.92834 -0.06528 0.59138
 C588 C 0.90654 -0.05078 0.60470
 C589 C 0.89414 -0.06164 0.62883
 H590 H 0.83108 -0.10065 0.70384
 H591 H 0.90789 -0.14732 0.71398
 H592 H 0.95450 -0.10225 0.59359
 H593 H 0.89910 -0.03095 0.59655
 H594 H 0.85022 -0.07905 0.66199
 H595 H 0.87781 -0.04963 0.63896
 C596 C 1.09692 -0.10536 0.33409
 C597 C 1.08219 -0.12387 0.31642
 C598 C 1.09559 -0.13549 0.29312
 C599 C 1.12354 -0.12859 0.28705
 C600 C 1.13725 -0.10937 0.30473
 N601 N 1.12383 -0.09850 0.32747
 C602 C 1.08419 -0.09305 0.35971
 N603 N 1.09596 -0.06962 0.37115
 C604 C 1.08592 -0.05747 0.39498
 C605 C 1.06277 -0.06909 0.40890
 C606 C 1.05038 -0.09326 0.39762
 C607 C 1.06103 -0.10536 0.37318
 H608 H 1.08392 -0.14973 0.27981
 H609 H 1.15877 -0.10333 0.30093
 H610 H 1.09611 -0.03884 0.40304
 H611 H 1.03259 -0.10302 0.40783
 H612 H 1.06049 -0.12922 0.32016
 H613 H 1.05150 -0.12445 0.36552
 C614 C 0.89070 0.10498 0.33737
 C615 C 0.86265 0.10003 0.32985
 C616 C 0.85154 0.11284 0.30605
 C617 C 0.86810 0.13081 0.28964
 C618 C 0.89591 0.13564 0.29818
 N619 N 0.90632 0.12283 0.32147
 C620 C 0.90351 0.09185 0.36247
 N621 N 0.92600 0.10443 0.37490
 C622 C 0.93852 0.09377 0.39826
 C623 C 0.92835 0.06904 0.41048
 C624 C 0.90562 0.05542 0.39769
 C625 C 0.89325 0.06663 0.37369
 H626 H 0.82986 0.10875 0.30079
 H627 H 0.90951 0.14937 0.28635
 H628 H 0.95620 0.10476 0.40736
 H629 H 0.89739 0.03605 0.40620
 H630 H 0.84911 0.08685 0.34238
 H631 H 0.87613 0.05534 0.36397
 C632 C 0.10463 0.33723 -0.10987
 C633 C 0.09829 0.32829 -0.13730
 C634 C 0.11006 0.30359 -0.14761
 C635 C 0.12841 0.28779 -0.13091
 C636 C 0.13481 0.29782 -0.10389
 N637 N 0.12290 0.32186 -0.09420
 C638 C 0.09228 0.36299 -0.09751
 N639 N 0.10513 0.37519 -0.07499
 C640 C 0.09496 0.39871 -0.06242
 C641 C 0.07038 0.41134 -0.07247
 C642 C 0.05659 0.39895 -0.09536
 C643 C 0.06733 0.37480 -0.10783
 H644 H 0.10493 0.29710 -0.16879
 H645 H 0.14886 0.28643 -0.09023
 H646 H 0.10613 0.40752 -0.04467
 H647 H 0.03735 0.40781 -0.10354
 H648 H 0.08475 0.34025 -0.15098
 H649 H 0.05578 0.36540 -0.12497
 C650 C -0.10633 0.33684 0.10039
 C651 C -0.12609 0.32066 0.08567
 C652 C -0.13678 0.29635 0.09779
 C653 C -0.12778 0.28773 0.12452
 C654 C -0.10775 0.30434 0.13844
 N655 N -0.09766 0.32805 0.12619
 C656 C -0.09404 0.36275 0.08834
 N657 N -0.06912 0.37236 0.09858
 C658 C -0.05639 0.39573 0.08831
 C659 C -0.06880 0.41089 0.06636
 C660 C -0.09464 0.40166 0.05578
 C661 C -0.10740 0.37780 0.06678
 H662 H -0.15191 0.28430 0.08593
 H663 H -0.10002 0.29862 0.15900
 H664 H -0.03651 0.40227 0.09715
 H665 H -0.10511 0.41298 0.03910
 H666 H -0.13296 0.32616 0.06474
 H667 H -0.12766 0.37167 0.05862
 C668 C -0.09907 0.66476 -0.10737
 C669 C -0.09273 0.67326 -0.13491
 C670 C -0.10550 0.69705 -0.14601
 C671 C -0.12483 0.71238 -0.12998
 C672 C -0.13097 0.70293 -0.10273
 N673 N -0.11814 0.67973 -0.09230
 C674 C -0.08612 0.63965 -0.09447
 N675 N -0.09924 0.62699 -0.07244
 C676 C -0.08877 0.60368 -0.05977
 C677 C -0.06367 0.59175 -0.06932
 C678 C -0.04951 0.60476 -0.09157
 C679 C -0.06052 0.62871 -0.10407
 H680 H -0.10048 0.70310 -0.16731
 H681 H -0.14570 0.71402 -0.08954
 H682 H -0.10021 0.59438 -0.04250
 H683 H -0.02984 0.59648 -0.09930
 H684 H -0.07855 0.66150 -0.14811
 H685 H -0.04877 0.63858 -0.12077
 C686 C 0.10170 0.66527 0.10561
 C687 C 0.08673 0.68172 0.12498
 C688 C 0.09912 0.70564 0.13635
 C689 C 0.12625 0.71362 0.12830
 C690 C 0.14017 0.69722 0.10817
 N691 N 0.12778 0.67376 0.09760
 C692 C 0.09001 0.63902 0.09360
 N693 N 0.10132 0.62843 0.06953
 C694 C 0.09191 0.60429 0.05748
 C695 C 0.06985 0.58926 0.06981
 C696 C 0.05806 0.59959 0.09471
 C697 C 0.06812 0.62427 0.10673
 H698 H 0.08729 0.71799 0.15129
 H699 H 0.16110 0.70259 0.10128
 H700 H 0.10161 0.59697 0.03828
 H701 H 0.04116 0.58850 0.10506
 H702 H 0.06557 0.67656 0.13121
 H703 H 0.05907 0.63117 0.12636
 C704 C 0.33839 1.10483 0.89380
 C705 C 0.33198 1.10110 0.86525
 C706 C 0.30803 1.11347 0.85403
 C707 C 0.29036 1.12979 0.87100
 C708 C 0.29793 1.13369 0.89929
 N709 N 0.32138 1.12128 0.90981
 C710 C 0.36332 1.09161 0.90681
 N711 N 0.37495 1.10344 0.93016
 C712 C 0.39802 1.09251 0.94295
 C713 C 0.41070 1.06823 0.93223
 C714 C 0.39874 1.05540 0.90857
 C715 C 0.37507 1.06690 0.89590
 H716 H 0.30360 1.11032 0.83196
 H717 H 0.28508 1.14618 0.91319
 H718 H 0.40649 1.10289 0.96133
 H719 H 0.40762 1.03641 0.89986
 H720 H 0.34543 1.08911 0.85146
 H721 H 0.36596 1.05620 0.87804
 C722 C 0.33671 0.89887 1.11076
 C723 C 0.32908 0.90451 1.13870
 C724 C 0.30541 0.89172 1.15009
 C725 C 0.28925 0.87311 1.13392
 C726 C 0.29777 0.86777 1.10617
 N727 N 0.32094 0.88054 1.09550
 C728 C 0.36186 0.91164 1.09770
 N729 N 0.37392 0.89871 1.07521
 C730 C 0.39733 0.90892 1.06247
 C731 C 0.41003 0.93352 1.07243
 C732 C 0.39767 0.94750 1.09517
 C733 C 0.37357 0.93677 1.10774
 H734 H 0.30013 0.89623 1.17171
 H735 H 0.28607 0.85361 1.09283
 H736 H 0.40611 0.89764 1.04481
 H737 H 0.40655 0.96681 1.10322
 H738 H 0.34147 0.91811 1.15201
 H739 H 0.36420 0.94836 1.12485
 C740 C 0.66634 1.10716 1.10034
 C741 C 0.67864 1.13149 1.08906
 C742 C 0.70276 1.14258 1.10133
 C743 C 0.71460 1.12994 1.12509
 C744 C 0.70145 1.10605 1.13613
 N745 N 0.67809 1.09539 1.12361
 C746 C 0.64072 1.09414 1.08816
 N747 N 0.62709 1.07393 1.10311
 C748 C 0.60334 1.06121 1.09360
 C749 C 0.59179 1.06893 1.06766
 C750 C 0.60563 1.08932 1.05169
 C751 C 0.63012 1.10176 1.06166
 H752 H 0.71181 1.16139 1.09244
 H753 H 0.70988 1.09560 1.15443
 H754 H 0.59333 1.04542 1.10646
 H755 H 0.59763 1.09557 1.03134
 H756 H 0.66983 1.14238 1.07127
 H757 H 0.64041 1.11690 1.04836
 C758 C 0.66312 0.89136 0.90102
 C759 C 0.67152 0.86391 0.90758
 C760 C 0.69561 0.85285 0.89530
 C761 C 0.71131 0.86882 0.87624
 C762 C 0.70197 0.89598 0.86986
 N763 N 0.67849 0.90639 0.88222
 C764 C 0.63775 0.90426 0.91346
 N765 N 0.62552 0.92637 0.90014
 C766 C 0.60207 0.93913 0.91018
 C767 C 0.58955 0.92962 0.93504
 C768 C 0.60206 0.90725 0.94938
 C769 C 0.62617 0.89464 0.93881
 H770 H 0.70159 0.83161 0.90047
 H771 H 0.71338 0.90912 0.85533
 H772 H 0.59315 0.95649 0.89862
 H773 H 0.59331 0.89954 0.96889
 H774 H 0.65947 0.85075 0.92155
 H775 H 0.63567 0.87789 0.95074
   
