data_POSCAR
  _audit_creation_date              2014-09-24
  _audit_creation_method            'ToBaCCo'
  _symmetry_space_group_name_H-M    'P1'
  _symmetry_Int_Tables_number       1
  _symmetry_cell_setting            triclinic
  loop_
  _symmetry_equiv_pos_as_xyz
 x,y,z
_cell_length_a 36.5845
_cell_length_b 36.6374
_cell_length_c 18.5785
_cell_angle_alpha 89.964500
_cell_angle_beta 89.999200
_cell_angle_gamma 91.629800
loop_
  _atom_site_label
  _atom_site_type_symbol
  _atom_site_fract_x
  _atom_site_fract_y
  _atom_site_fract_z
C1 C -0.08398 0.25187 -0.06752
 C2 C -0.10276 0.25568 -0.00198
 C3 C -0.08495 0.25689 0.06500
 C4 C -0.04660 0.25123 0.06680
 C5 C -0.02673 0.24882 0.00137
 C6 C -0.04560 0.24654 -0.06532
 C7 C -0.02594 0.23464 -0.12552
 C8 C 0.01197 0.23318 -0.12424
 C9 C 0.03196 0.24304 -0.06235
 C10 C 0.01214 0.24654 0.00289
 C11 C -0.02797 0.24355 0.13104
 C12 C 0.00985 0.24103 0.13256
 C13 C 0.03078 0.24571 0.06976
 C14 C 0.06954 0.24637 0.07095
 C15 C 0.08864 0.24599 0.00563
 C16 C 0.07092 0.24516 -0.06145
 H17 H -0.03957 0.22429 -0.17311
 H18 H 0.02508 0.22201 -0.17104
 H19 H -0.04241 0.23726 0.18034
 H20 H 0.02212 0.23369 0.18317
 H21 H -0.13190 0.26026 -0.00342
 H22 H 0.11827 0.24775 0.00739
 C23 C 0.42469 0.73916 0.43220
 C24 C 0.40640 0.74112 0.49812
 C25 C 0.42492 0.74773 0.56284
 C26 C 0.46319 0.75479 0.56145
 C27 C 0.48259 0.75180 0.49559
 C28 C 0.46332 0.74444 0.43051
 C29 C 0.48329 0.74324 0.36601
 C30 C 0.52123 0.74663 0.36572
 C31 C 0.54093 0.75453 0.42900
 C32 C 0.52139 0.75650 0.49488
 C33 C 0.48243 0.76636 0.62315
 C34 C 0.52034 0.77017 0.62265
 C35 C 0.54054 0.76280 0.56034
 C36 C 0.57929 0.76277 0.56088
 C37 C 0.59796 0.76266 0.49511
 C38 C 0.57957 0.76001 0.42903
 H39 H 0.47014 0.73985 0.31448
 H40 H 0.53468 0.74209 0.31504
 H41 H 0.46842 0.77330 0.67224
 H42 H 0.53352 0.77993 0.67129
 H43 H 0.37708 0.73583 0.49939
 H44 H 0.62759 0.76442 0.49539
 C45 C 1.07877 0.74023 0.05997
 C46 C 1.09739 0.74085 -0.00580
 C47 C 1.07970 0.74630 -0.07187
 C48 C 1.04182 0.75435 -0.07095
 C49 C 1.02196 0.75214 -0.00520
 C50 C 1.04056 0.74599 0.06070
 C51 C 1.02057 0.74736 0.12519
 C52 C 0.98300 0.75179 0.12504
 C53 C 0.96395 0.75784 0.06077
 C54 C 0.98350 0.75761 -0.00513
 C55 C 1.02384 0.76840 -0.13143
 C56 C 0.98620 0.77273 -0.13160
 C57 C 0.96489 0.76374 -0.07097
 C58 C 0.92592 0.76411 -0.07197
 C59 C 0.90760 0.76611 -0.00565
 C60 C 0.92598 0.76442 0.06027
 H61 H 1.03347 0.74587 0.17715
 H62 H 0.96924 0.75015 0.17636
 H63 H 1.03874 0.77801 -0.17819
 H64 H 0.97440 0.78527 -0.17846
 H65 H 1.12634 0.73520 -0.00536
 H66 H 0.87817 0.76885 -0.00474
 C67 C 0.41654 0.23247 0.57268
 C68 C 0.39768 0.23235 0.50709
 C69 C 0.41575 0.23570 0.44101
 C70 C 0.45458 0.23645 0.43992
 C71 C 0.47429 0.23864 0.50571
 C72 C 0.45517 0.23775 0.57235
 C73 C 0.47523 0.24304 0.63615
 C74 C 0.51312 0.24668 0.63531
 C75 C 0.53272 0.24739 0.57033
 C76 C 0.51322 0.24223 0.50480
 C77 C 0.47430 0.23501 0.37520
 C78 C 0.51219 0.23854 0.37426
 C79 C 0.53248 0.24101 0.43833
 C80 C 0.57134 0.24297 0.43829
 C81 C 0.58971 0.24953 0.50323
 C82 C 0.57125 0.25278 0.56870
 H83 H 0.46209 0.24544 0.68778
 H84 H 0.52667 0.24838 0.68680
 H85 H 0.46087 0.23055 0.32412
 H86 H 0.52499 0.24019 0.32209
 H87 H 0.36805 0.23029 0.50754
 H88 H 0.61930 0.25237 0.50282
 C89 C 0.75112 -0.06564 0.06247
 C90 C 0.75203 -0.08365 -0.00425
 C91 C 0.75208 -0.06497 -0.07047
 C92 C 0.75363 -0.02606 -0.06946
 C93 C 0.75160 -0.00724 -0.00285
 C94 C 0.75330 -0.02681 0.06296
 C95 C 0.76132 -0.00676 0.12581
 C96 C 0.75999 0.03108 0.12669
 C97 C 0.75105 0.05063 0.06446
 C98 C 0.74996 0.03163 -0.00200
 C99 C 0.76150 -0.00509 -0.13124
 C100 C 0.75908 0.03271 -0.13057
 C101 C 0.74932 0.05140 -0.06772
 C102 C 0.74351 0.08971 -0.06681
 C103 C 0.74291 0.10753 0.00012
 C104 C 0.74641 0.08889 0.06550
 H105 H 0.77068 -0.01981 0.17426
 H106 H 0.76767 0.04473 0.17610
 H107 H 0.77174 -0.01725 -0.17983
 H108 H 0.76727 0.04711 -0.17890
 H109 H 0.75019 -0.11324 -0.00466
 H110 H 0.73829 0.13662 0.00184
 C111 C 0.24553 0.56571 0.56834
 C112 C 0.24133 0.58339 0.50202
 C113 C 0.23774 0.56397 0.43735
 C114 C 0.23446 0.52537 0.44001
 C115 C 0.24187 0.50698 0.50536
 C116 C 0.24925 0.52725 0.56899
 C117 C 0.26181 0.50855 0.62981
 C118 C 0.26238 0.47057 0.63117
 C119 C 0.25024 0.44972 0.57192
 C120 C 0.24234 0.46819 0.50683
 C121 C 0.22307 0.50464 0.38011
 C122 C 0.22355 0.46670 0.38151
 C123 C 0.23535 0.44803 0.44295
 C124 C 0.23936 0.40970 0.44322
 C125 C 0.24347 0.39180 0.50922
 C126 C 0.24736 0.41100 0.57422
 H127 H 0.27267 0.52304 0.67607
 H128 H 0.27380 0.45790 0.67826
 H129 H 0.21283 0.51748 0.33205
 H130 H 0.21375 0.45217 0.33438
 H131 H 0.24130 0.61296 0.50059
 H132 H 0.24401 0.36224 0.50980
 C133 C 0.24866 1.06510 0.07413
 C134 C 0.25140 1.08410 0.00851
 C135 C 0.25281 1.06625 -0.05818
 C136 C 0.25749 1.02788 -0.05885
 C137 C 0.25555 1.00779 0.00664
 C138 C 0.25153 1.02630 0.07340
 C139 C 0.25327 1.00553 0.13704
 C140 C 0.25467 0.96767 0.13549
 C141 C 0.25854 0.94872 0.07048
 C142 C 0.25877 0.96903 0.00530
 C143 C 0.26762 1.00940 -0.12180
 C144 C 0.26947 0.97163 -0.12339
 C145 C 0.26250 0.95072 -0.06146
 C146 C 0.26115 0.91206 -0.06360
 C147 C 0.26206 0.89266 0.00120
 C148 C 0.26228 0.91018 0.06815
 H149 H 0.25493 1.01795 0.18946
 H150 H 0.25247 0.95376 0.18646
 H151 H 0.27565 1.02395 -0.17010
 H152 H 0.27789 0.95915 -0.17317
 H153 H 0.24848 1.11349 0.00894
 H154 H 0.26265 0.86310 -0.00050
 C155 C 0.76075 0.58988 0.43314
 C156 C 0.75907 0.60807 0.49922
 C157 C 0.75596 0.58936 0.56466
 C158 C 0.75717 0.55066 0.56465
 C159 C 0.75681 0.53149 0.49818
 C160 C 0.75737 0.55114 0.43215
 C161 C 0.75377 0.53143 0.36758
 C162 C 0.75226 0.49350 0.36715
 C163 C 0.75210 0.47338 0.43150
 C164 C 0.75556 0.49253 0.49777
 C165 C 0.75897 0.53055 0.62885
 C166 C 0.75795 0.49262 0.62845
 C167 C 0.75746 0.47288 0.56366
 C168 C 0.75814 0.43412 0.56243
 C169 C 0.75306 0.41597 0.49681
 C170 C 0.74891 0.43469 0.43181
 H171 H 0.75107 0.54485 0.31629
 H172 H 0.75188 0.48035 0.31521
 H173 H 0.76191 0.54372 0.68053
 H174 H 0.75662 0.47928 0.68012
 H175 H 0.75977 0.63768 0.49967
 H176 H 0.75203 0.38636 0.49636
 O177 O 0.29801 0.24459 0.22597
 O178 O 0.20115 0.24552 0.17548
 O179 O 0.24870 0.29305 0.22601
 O180 O 0.25038 0.19571 0.17692
 O181 O 0.23150 0.18088 0.28628
 O182 O 0.23494 0.27791 0.33821
 O183 O 0.18517 0.23432 0.28828
 O184 O 0.28272 0.22705 0.33599
 Cu185 Cu 0.25114 0.24590 0.18980
 Cu186 Cu 0.23214 0.22795 0.32334
 C187 C 0.30686 0.23648 0.28988
 C188 C 0.17676 0.24138 0.22354
 C189 C 0.24207 0.30198 0.29070
 C190 C 0.24024 0.17181 0.22274
 O191 O 0.69786 0.75379 0.21525
 O192 O 0.79555 0.75557 0.16766
 O193 O 0.75104 0.70572 0.21780
 O194 O 0.74435 0.80204 0.16384
 O195 O 0.75448 0.81912 0.27638
 O196 O 0.76537 0.72311 0.32839
 O197 O 0.80917 0.77511 0.27723
 O198 O 0.71200 0.76784 0.32774
 Cu199 Cu 0.74549 0.75219 0.18017
 Cu200 Cu 0.76180 0.77286 0.31365
 C201 C 0.68837 0.76077 0.27946
 C202 C 0.81885 0.76669 0.21382
 C203 C 0.76000 0.69815 0.28199
 C204 C 0.74801 0.82689 0.21105
 O205 O 0.73105 0.31629 0.21856
 O206 O 0.73766 0.21958 0.16865
 O207 O 0.68674 0.25803 0.22045
 O208 O 0.78298 0.27376 0.16705
 O209 O 0.80046 0.26020 0.27750
 O210 O 0.70417 0.25045 0.33328
 O211 O 0.75146 0.20627 0.28140
 O212 O 0.75183 0.30405 0.32731
 Cu213 Cu 0.73290 0.26899 0.18266
 Cu214 Cu 0.75396 0.25407 0.31593
 C215 C 0.74041 0.32663 0.28132
 C216 C 0.74461 0.19640 0.21710
 C217 C 0.67921 0.25134 0.28597
 C218 C 0.80808 0.26844 0.21275
 O219 O 0.26405 0.77562 0.16674
 O220 O 0.25350 0.67848 0.21589
 O221 O 0.21054 0.72762 0.16383
 O222 O 0.30734 0.72510 0.21612
 O223 O 0.29298 0.74174 0.32667
 O224 O 0.19552 0.74146 0.27558
 O225 O 0.23948 0.69416 0.32720
 O226 O 0.24982 0.79125 0.27792
 Cu227 Cu 0.26026 0.72540 0.17933
 Cu228 Cu 0.24280 0.74412 0.31279
 C229 C 0.25901 0.79989 0.21415
 C230 C 0.24526 0.66985 0.28026
 C231 C 0.18656 0.73398 0.21108
 C232 C 0.31653 0.73230 0.28057
 O233 O 0.75619 0.30084 0.66608
 O234 O 0.74576 0.20454 0.72035
 O235 O 0.70242 0.25339 0.67141
 O236 O 0.80019 0.25276 0.71783
 O237 O 0.78679 0.26671 0.83038
 O238 O 0.68997 0.27371 0.78039
 O239 O 0.73191 0.22172 0.83082
 O240 O 0.74784 0.31803 0.77878
 Cu241 Cu 0.75244 0.25107 0.68280
 Cu242 Cu 0.73734 0.27178 0.81619
 C243 C 0.75465 0.32570 0.71337
 C244 C 0.73706 0.19678 0.78480
 C245 C 0.67972 0.26447 0.71753
 C246 C 0.81000 0.25924 0.78231
 O247 O 0.30811 0.73303 0.77971
 O248 O 0.21067 0.73362 0.82894
 O249 O 0.25455 0.68429 0.78191
 O250 O 0.26351 0.78192 0.82757
 O251 O 0.24570 0.79620 0.71770
 O252 O 0.24463 0.69888 0.66828
 O253 O 0.19618 0.74389 0.71536
 O254 O 0.29410 0.75093 0.66977
 Cu255 Cu 0.26080 0.73173 0.81574
 Cu256 Cu 0.24382 0.74899 0.68146
 C257 C 0.31767 0.74221 0.71638
 C258 C 0.18685 0.73841 0.78042
 C259 C 0.24862 0.67503 0.71701
 C260 C 0.25486 0.80558 0.78112
 O261 O 0.25375 0.29439 0.79222
 O262 O 0.25182 0.19706 0.84158
 O263 O 0.30131 0.24137 0.79033
 O264 O 0.20425 0.24804 0.84133
 O265 O 0.18807 0.23644 0.72886
 O266 O 0.28455 0.22726 0.67922
 O267 O 0.23408 0.18272 0.73120
 O268 O 0.23956 0.27987 0.67999
 Cu269 Cu 0.25451 0.24690 0.82746
 Cu270 Cu 0.23483 0.22996 0.69374
 C271 C 0.24711 0.30364 0.72772
 C272 C 0.24246 0.17337 0.79489
 C273 C 0.30926 0.23277 0.72610
 C274 C 0.17972 0.24369 0.79350
 O275 O 0.74398 0.80352 0.82946
 O276 O 0.74461 0.70634 0.78061
 O277 O 0.79349 0.75438 0.82875
 O278 O 0.69603 0.75565 0.77928
 O279 O 0.71112 0.77051 0.66762
 O280 O 0.80866 0.76883 0.71697
 O281 O 0.76040 0.72116 0.66931
 O282 O 0.75784 0.81871 0.71740
 Cu283 Cu 0.74319 0.75357 0.81584
 Cu284 Cu 0.76131 0.77149 0.68178
 C285 C 0.75026 0.82760 0.78166
 C286 C 0.75190 0.69725 0.71638
 C287 C 0.81763 0.76120 0.78116
 C288 C 0.68703 0.76269 0.71477
 C289 C 0.24150 0.08644 0.13602
 C290 C 0.22108 0.07587 0.19584
 C291 C 0.21937 0.10613 0.23835
 C292 C 0.23780 0.13330 0.20088
 O293 O 0.25068 0.12171 0.13884
 H294 H 0.20633 0.05032 0.20533
 H295 H 0.20460 0.10862 0.28850
 C296 C 0.75023 0.61199 0.63011
 C297 C 0.72736 0.60287 0.68706
 C298 C 0.72718 0.63297 0.73009
 C299 C 0.74879 0.65873 0.69512
 O300 O 0.76246 0.64631 0.63437
 H301 H 0.71094 0.57812 0.69446
 H302 H 0.71113 0.63660 0.77837
 C303 C 0.74633 0.91224 0.12477
 C304 C 0.73201 0.92263 0.19068
 C305 C 0.73195 0.89219 0.23292
 C306 C 0.74478 0.86509 0.18942
 O307 O 0.75298 0.87684 0.12406
 H308 H 0.72067 0.94845 0.20579
 H309 H 0.72209 0.88963 0.28766
 C310 C 0.24706 0.38891 0.64178
 C311 C 0.23518 0.40008 0.70887
 C312 C 0.23621 0.36994 0.75193
 C313 C 0.24719 0.34230 0.70756
 O314 O 0.25345 0.35352 0.64105
 H315 H 0.22473 0.42628 0.72410
 H316 H 0.22745 0.36776 0.80744
 C317 C 0.89338 0.26510 0.12605
 C318 C 0.90534 0.28034 0.19062
 C319 C 0.87491 0.28314 0.23245
 C320 C 0.84641 0.27093 0.18987
 O321 O 0.85727 0.26053 0.12549
 H322 H 0.93248 0.29019 0.20514
 H323 H 0.87350 0.29389 0.28659
 C324 C 0.40290 0.74461 0.62991
 C325 C 0.41382 0.72809 0.69303
 C326 C 0.38361 0.72678 0.73608
 C327 C 0.35630 0.74172 0.69549
 O328 O 0.36778 0.75226 0.63119
 H329 H 0.44002 0.71650 0.70491
 H330 H 0.38125 0.71456 0.78899
 C331 C 0.10135 0.73328 0.12506
 C332 C 0.09169 0.71123 0.18292
 C333 C 0.12179 0.71101 0.22634
 C334 C 0.14799 0.73160 0.19041
 O335 O 0.13598 0.74463 0.12884
 H336 H 0.06655 0.69550 0.19096
 H337 H 0.12512 0.69553 0.27541
 C338 C 0.59418 0.26198 0.63261
 C339 C 0.58590 0.28663 0.68620
 C340 C 0.61637 0.28932 0.72855
 C341 C 0.64131 0.26710 0.69633
 O342 O 0.62812 0.25085 0.63815
 H343 H 0.56140 0.30224 0.69182
 H344 H 0.62066 0.30697 0.77465
 C345 C 0.73730 0.11140 0.87129
 C346 C 0.72448 0.09956 0.80470
 C347 C 0.72312 0.13004 0.76271
 C348 C 0.73377 0.15843 0.80701
 O349 O 0.74183 0.14745 0.87262
 H350 H 0.71532 0.07244 0.78870
 H351 H 0.71436 0.13156 0.70718
 C352 C 0.24027 0.58536 0.36920
 C353 C 0.25588 0.57359 0.30572
 C354 C 0.25750 0.60333 0.26164
 C355 C 0.24381 0.63134 0.30192
 O356 O 0.23361 0.62067 0.36700
 H357 H 0.26710 0.54723 0.29421
 H358 H 0.26954 0.60499 0.20849
 C359 C 0.25678 0.89029 0.86909
 C360 C 0.23752 0.90056 0.80858
 C361 C 0.23639 0.87070 0.76480
 C362 C 0.25405 0.84406 0.80251
 O363 O 0.26617 0.85570 0.86563
 H364 H 0.22387 0.92592 0.79906
 H365 H 0.22227 0.86791 0.71382
 C366 C 0.74083 0.41187 0.36714
 C367 C 0.71613 0.41966 0.31323
 C368 C 0.71442 0.38938 0.27042
 C369 C 0.73719 0.36494 0.30262
 O370 O 0.75290 0.37830 0.36129
 H371 H 0.69971 0.44360 0.30782
 H372 H 0.69691 0.38479 0.22416
 C373 C 0.09346 0.24783 0.87644
 C374 C 0.08346 0.25954 0.80830
 C375 C 0.11430 0.25828 0.76725
 C376 C 0.14121 0.24726 0.81337
 O377 O 0.12896 0.24142 0.87930
 H378 H 0.05766 0.27008 0.79067
 H379 H 0.11722 0.26614 0.71133
 C380 C 0.60259 0.76275 0.36293
 C381 C 0.59322 0.77931 0.29876
 C382 C 0.62355 0.77795 0.25624
 C383 C 0.64962 0.76213 0.29846
 O384 O 0.63726 0.75336 0.36312
 H385 H 0.56812 0.79271 0.28559
 H386 H 0.62712 0.78963 0.20309
 C387 C 0.90393 0.76121 0.86506
 C388 C 0.91451 0.74933 0.79735
 C389 C 0.88380 0.74950 0.75570
 C390 C 0.85638 0.76001 0.80103
 O391 O 0.86823 0.76672 0.86694
 H392 H 0.94053 0.73907 0.78040
 H393 H 0.88127 0.74087 0.70017
 C394 C 0.39244 0.24042 0.37605
 C395 C 0.40072 0.26335 0.31880
 C396 C 0.37051 0.26249 0.27608
 C397 C 0.34538 0.24029 0.31148
 O398 O 0.35835 0.22721 0.37239
 H399 H 0.42496 0.28048 0.31095
 H400 H 0.36633 0.27828 0.22768
 C401 C 0.74879 0.91327 0.86640
 C402 C 0.73594 0.92378 0.79931
 C403 C 0.73665 0.89335 0.75709
 C404 C 0.74841 0.86615 0.80164
 O405 O 0.75528 0.87785 0.86753
 H406 H 0.72463 0.94948 0.78337
 H407 H 0.72749 0.89076 0.70189
 C408 C 0.24173 0.38726 0.37670
 C409 C 0.25763 0.39864 0.31260
 C410 C 0.25814 0.36840 0.26999
 C411 C 0.24350 0.34057 0.31170
 O412 O 0.23382 0.35177 0.37636
 H413 H 0.26934 0.42528 0.29958
 H414 H 0.26962 0.36645 0.21648
 C415 C 0.24704 0.08773 0.87948
 C416 C 0.23181 0.07587 0.81483
 C417 C 0.22877 0.10636 0.77330
 C418 C 0.24152 0.13472 0.81570
 O419 O 0.25214 0.12369 0.87987
 H420 H 0.22165 0.04882 0.80065
 H421 H 0.21736 0.10791 0.71968
 C422 C 0.76561 0.61328 0.36799
 C423 C 0.78592 0.60528 0.30743
 C424 C 0.78449 0.63544 0.26450
 C425 C 0.76481 0.66013 0.30322
 O426 O 0.75377 0.64709 0.36601
 H427 H 0.80142 0.58114 0.29693
 H428 H 0.79807 0.63980 0.21333
 C429 C 0.10109 0.74228 0.86504
 C430 C 0.08875 0.73341 0.79638
 C431 C 0.11932 0.73158 0.75454
 C432 C 0.14812 0.73821 0.80068
 O433 O 0.13732 0.74419 0.86727
 H434 H 0.06120 0.72673 0.77882
 H435 H 0.12054 0.72483 0.69790
 C436 C 0.59478 0.23888 0.37326
 C437 C 0.58843 0.21507 0.31648
 C438 C 0.61833 0.21877 0.27288
 C439 C 0.64136 0.24330 0.30762
 O440 O 0.62751 0.25511 0.36862
 H441 H 0.56581 0.19576 0.30933
 H442 H 0.62387 0.20348 0.22446
 C443 C 0.89516 0.25534 0.86848
 C444 C 0.90775 0.26533 0.80048
 C445 C 0.87750 0.26634 0.75760
 C446 C 0.84859 0.25828 0.80261
 O447 O 0.85900 0.25210 0.86934
 H448 H 0.93509 0.27366 0.78414
 H449 H 0.87644 0.27418 0.70148
 C450 C 0.40149 0.73096 0.36817
 C451 C 0.40889 0.70610 0.31449
 C452 C 0.37873 0.70515 0.27129
 C453 C 0.35463 0.72840 0.30319
 O454 O 0.36811 0.74369 0.36217
 H455 H 0.43254 0.68922 0.30930
 H456 H 0.37392 0.68783 0.22487
 C457 C 0.26606 0.88623 0.13248
 C458 C 0.28582 0.89443 0.19422
 C459 C 0.28381 0.86361 0.23549
 C460 C 0.26443 0.83841 0.19473
 O461 O 0.25405 0.85177 0.13222
 H462 H 0.30144 0.91915 0.20651
 H463 H 0.29685 0.85926 0.28696
 C464 C 0.76352 0.41060 0.62686
 C465 C 0.78665 0.41807 0.68429
 C466 C 0.78448 0.38789 0.72736
 C467 C 0.76148 0.36369 0.69166
 O468 O 0.74915 0.37706 0.63063
 H469 H 0.80442 0.44181 0.69242
 H470 H 0.79963 0.38315 0.77635
 C471 C 0.74363 0.11112 0.13235
 C472 C 0.72828 0.09998 0.19718
 C473 C 0.72923 0.13017 0.24023
 C474 C 0.74370 0.15773 0.19773
 O475 O 0.75205 0.14647 0.13251
 H476 H 0.71598 0.07366 0.21063
 H477 H 0.71824 0.13245 0.29407
 C478 C 0.24491 0.58890 0.63424
 C479 C 0.23230 0.57816 0.70150
 C480 C 0.23388 0.60885 0.74304
 C481 C 0.24597 0.63629 0.69761
 O482 O 0.25235 0.62446 0.63181
 H483 H 0.22146 0.55166 0.71784
 H484 H 0.22529 0.61134 0.79852
 C485 C 0.90370 0.76954 0.12620
 C486 C 0.91375 0.79063 0.18507
 C487 C 0.88368 0.79075 0.22853
 C488 C 0.85725 0.77065 0.19202
 O489 O 0.86915 0.75811 0.12995
 H490 H 0.93932 0.80555 0.19381
 H491 H 0.88074 0.80535 0.27872
 C492 C 0.39382 0.22799 0.63881
 C493 C 0.40284 0.20892 0.70037
 C494 C 0.37291 0.21031 0.74410
 C495 C 0.34742 0.22874 0.70487
 O496 O 0.35973 0.23904 0.64109
 H497 H 0.42752 0.19426 0.71108
 H498 H 0.36925 0.19743 0.79614
 C499 C 0.09213 0.24875 0.13764
 C500 C 0.08359 0.26690 0.20054
 C501 C 0.11348 0.26408 0.24393
 C502 C 0.13852 0.24578 0.20338
 O503 O 0.12592 0.23683 0.13908
 H504 H 0.05945 0.28218 0.21233
 H505 H 0.11755 0.27620 0.29653
 C506 C 0.60172 0.76029 0.62769
 C507 C 0.59131 0.74196 0.68992
 C508 C 0.62143 0.74262 0.73308
 C509 C 0.64839 0.76023 0.69346
 O510 O 0.63670 0.77068 0.62955
 H511 H 0.56562 0.72776 0.70116
 H512 H 0.62409 0.72970 0.78514
   
