data_POSCAR
  _audit_creation_date              2014-09-24
  _audit_creation_method            'ToBaCCo'
  _symmetry_space_group_name_H-M    'P1'
  _symmetry_Int_Tables_number       1
  _symmetry_cell_setting            triclinic
  loop_
  _symmetry_equiv_pos_as_xyz
 x,y,z
_cell_length_a 58.1812
_cell_length_b 55.7797
_cell_length_c 55.7895
_cell_angle_alpha 91.151000
_cell_angle_beta 87.792500
_cell_angle_gamma 92.939900
loop_
  _atom_site_label
  _atom_site_type_symbol
  _atom_site_fract_x
  _atom_site_fract_y
  _atom_site_fract_z
N1 N 0.58007 0.64554 0.61201
 N2 N 0.57410 0.64206 0.63470
 C3 C 0.55586 0.65508 0.64073
 C4 C 0.54994 0.66714 0.62064
 C5 C 0.56554 0.66057 0.60267
 H6 H 0.54775 0.65607 0.65847
 H7 H 0.56687 0.66704 0.58449
 Cu8 Cu 0.59112 0.62132 0.65428
 Cu9 Cu 0.60755 0.63182 0.59728
 Cu10 Cu 0.64671 0.61628 0.63905
 N11 N 0.60977 0.59962 0.67098
 N12 N 0.63193 0.59851 0.66577
 C13 C 0.64093 0.58289 0.68045
 C14 C 0.62330 0.57339 0.69532
 C15 C 0.60375 0.58441 0.68883
 H16 H 0.65878 0.57824 0.67979
 H17 H 0.58648 0.58158 0.69648
 N18 N 0.65558 0.62384 0.60553
 N19 N 0.64045 0.62801 0.58925
 C20 C 0.65156 0.63067 0.56777
 C21 C 0.67478 0.62826 0.57080
 C22 C 0.67676 0.62400 0.59493
 H23 H 0.64343 0.63458 0.55128
 H24 H 0.69237 0.62068 0.60397
 H25 H 0.61727 0.60720 0.62245
 H26 H 0.62195 0.63997 0.62901
 N27 N 0.90564 0.33861 0.11142
 N28 N 0.91361 0.34796 0.13147
 C29 C 0.93129 0.33528 0.13817
 C30 C 0.93475 0.31726 0.12123
 C31 C 0.91822 0.31992 0.10445
 H32 H 0.94113 0.33899 0.15401
 H33 H 0.91536 0.30888 0.08857
 Cu34 Cu 0.90057 0.37624 0.14643
 Cu35 Cu 0.87900 0.35081 0.09638
 Cu36 Cu 0.85463 0.40040 0.12362
 N37 N 0.88675 0.40405 0.16152
 N38 N 0.86843 0.41304 0.15281
 C39 C 0.86202 0.43164 0.16683
 C40 C 0.87730 0.43459 0.18512
 C41 C 0.89281 0.41686 0.18122
 H42 H 0.84751 0.44243 0.16381
 H43 H 0.90726 0.41348 0.19208
 N44 N 0.84312 0.38506 0.09400
 N45 N 0.85198 0.36579 0.08397
 C46 C 0.83980 0.35908 0.06467
 C47 C 0.82271 0.37508 0.06235
 C48 C 0.82533 0.39134 0.08113
 H49 H 0.84314 0.34382 0.05303
 H50 H 0.81477 0.40638 0.08526
 H51 H 0.88392 0.38583 0.10854
 H52 H 0.86442 0.36554 0.12728
 N53 N 0.40629 0.15594 -0.11547
 N54 N 0.41576 0.14561 -0.13453
 C55 C 0.43564 0.15781 -0.14062
 C56 C 0.43890 0.17649 -0.12429
 C57 C 0.42002 0.17477 -0.10852
 H58 H 0.44703 0.15339 -0.15566
 H59 H 0.41636 0.18663 -0.09343
 Cu60 Cu 0.40143 0.11698 -0.14926
 Cu61 Cu 0.37643 0.14485 -0.10176
 Cu62 Cu 0.34968 0.09487 -0.12872
 N63 N 0.38611 0.08905 -0.16426
 N64 N 0.36557 0.08093 -0.15658
 C65 C 0.35862 0.06216 -0.17051
 C66 C 0.37584 0.05816 -0.18764
 C67 C 0.39306 0.07547 -0.18316
 H68 H 0.34238 0.05199 -0.16823
 H69 H 0.40926 0.07809 -0.19315
 N70 N 0.33633 0.11147 -0.10038
 N71 N 0.34618 0.13093 -0.09054
 C72 C 0.33256 0.13846 -0.07211
 C73 C 0.31346 0.12280 -0.07010
 C74 C 0.31640 0.10588 -0.08820
 H75 H 0.33636 0.15395 -0.06070
 H76 H 0.30473 0.09076 -0.09226
 H77 H 0.37864 0.10931 -0.11233
 H78 H 0.36425 0.12922 -0.13302
 N79 N 0.10422 0.84321 0.38195
 N80 N 0.08905 0.85819 0.37525
 C81 C 0.06817 0.84668 0.37479
 C82 C 0.07049 0.82311 0.38119
 C83 C 0.09363 0.82148 0.38550
 H84 H 0.05259 0.85469 0.36962
 H85 H 0.10207 0.80581 0.39113
 Cu86 Cu 0.09821 0.89073 0.36595
 Cu87 Cu 0.13643 0.85329 0.38607
 Cu88 Cu 0.14944 0.91432 0.38187
 N89 N 0.11209 0.91930 0.35069
 N90 N 0.13246 0.92827 0.35665
 C91 C 0.13841 0.94730 0.34288
 C92 C 0.12075 0.95041 0.32753
 C93 C 0.10426 0.93241 0.33301
 H94 H 0.15444 0.95793 0.34385
 H95 H 0.08809 0.92875 0.32438
 N96 N 0.16903 0.89269 0.39806
 N97 N 0.16465 0.86925 0.39884
 C98 C 0.18075 0.85951 0.41180
 C99 C 0.19580 0.87778 0.41959
 C100 C 0.18790 0.89854 0.41050
 H101 H 0.18079 0.84075 0.41636
 H102 H 0.19496 0.91665 0.41333
 H103 H 0.12683 0.88673 0.39618
 H104 H 0.13931 0.88367 0.36496
 C105 C 0.10191 0.14711 0.12258
 N106 N 0.10189 0.13138 0.14086
 C107 C 0.11821 0.11486 0.14130
 N108 N 0.13463 0.11416 0.12336
 C109 C 0.13481 0.12985 0.10506
 N110 N 0.11841 0.14632 0.10471
 C111 C 0.39055 0.84636 0.61289
 N112 N 0.39057 0.86347 0.63057
 C113 C 0.37555 0.88130 0.63048
 N114 N 0.36047 0.88198 0.61257
 C115 C 0.36038 0.86501 0.59477
 N116 N 0.37544 0.84719 0.59499
 C117 C 0.89397 0.64494 0.38616
 N118 N 0.87514 0.64685 0.40109
 C119 C 0.85668 0.63113 0.39910
 N120 N 0.85698 0.61362 0.38183
 C121 C 0.87584 0.61146 0.36697
 N122 N 0.89437 0.62706 0.36928
 C123 C 0.61768 0.35441 -0.12352
 N124 N 0.63463 0.35458 -0.10743
 C125 C 0.65115 0.37271 -0.10724
 N126 N 0.65060 0.39076 -0.12318
 C127 C 0.63369 0.39069 -0.13931
 N128 N 0.61729 0.37247 -0.13943
 C129 C -0.01620 0.26684 0.12118
 N130 N -0.01901 0.28213 0.14018
 N131 N -0.03483 0.29856 0.14012
 C132 C -0.04863 0.30013 0.12118
 N133 N -0.04590 0.28472 0.10223
 N134 N -0.02988 0.26847 0.10217
 C135 C 0.00135 0.24886 0.12126
 N136 N 0.00880 0.23822 0.10048
 N137 N 0.02489 0.22206 0.10059
 C138 C 0.03392 0.21577 0.12151
 N139 N 0.02636 0.22631 0.14229
 N140 N 0.01047 0.24266 0.14215
 C141 C 0.05155 0.19789 0.12172
 N142 N 0.05596 0.18677 0.14235
 N143 N 0.07191 0.17049 0.14257
 C144 C 0.08423 0.16494 0.12224
 N145 N 0.07992 0.17615 0.10162
 N146 N 0.06377 0.19223 0.10134
 C147 C 0.50014 0.71830 0.61738
 N148 N 0.51054 0.70978 0.59696
 N149 N 0.52631 0.69335 0.59794
 C150 C 0.53210 0.68472 0.61936
 N151 N 0.52156 0.69310 0.63974
 N152 N 0.50593 0.70964 0.63878
 C153 C 0.48332 0.73696 0.61650
 N154 N 0.47644 0.74866 0.63690
 N155 N 0.46154 0.76595 0.63618
 C156 C 0.45283 0.77207 0.61506
 N157 N 0.45959 0.76028 0.59465
 N158 N 0.47464 0.74310 0.59535
 C159 C 0.43658 0.79130 0.61438
 N160 N 0.42467 0.79483 0.59439
 N161 N 0.40992 0.81232 0.59391
 C162 C 0.40671 0.82701 0.61332
 N163 N 0.41868 0.82352 0.63325
 N164 N 0.43328 0.80593 0.63380
 C165 C 1.01943 0.76957 0.38555
 N166 N 1.01427 0.79256 0.38150
 N167 N 1.03086 0.80988 0.37998
 C168 C 1.05320 0.80493 0.38275
 N169 N 1.05833 0.78194 0.38697
 N170 N 1.04177 0.76455 0.38819
 C171 C 1.00111 0.75051 0.38685
 N172 N 1.00602 0.72712 0.38345
 N173 N 0.98924 0.70992 0.38405
 C174 C 0.96700 0.71550 0.38839
 N175 N 0.96213 0.73886 0.39200
 N176 N 0.97887 0.75607 0.39111
 C177 C 0.94838 0.69673 0.38863
 N178 N 0.92748 0.70110 0.39897
 N179 N 0.91031 0.68439 0.39859
 C180 C 0.91332 0.66278 0.38761
 N181 N 0.93423 0.65839 0.37725
 N182 N 0.95150 0.67502 0.37788
 C183 C 0.49357 0.22811 -0.12368
 N184 N 0.47995 0.22424 -0.10368
 N185 N 0.46247 0.20784 -0.10389
 C186 C 0.45815 0.19455 -0.12402
 N187 N 0.47187 0.19831 -0.14396
 N188 N 0.48918 0.21490 -0.14383
 C189 C 0.51256 0.24648 -0.12362
 N190 N 0.52175 0.25529 -0.14458
 N191 N 0.53873 0.27225 -0.14456
 C192 C 0.54733 0.28079 -0.12361
 N193 N 0.53826 0.27185 -0.10265
 N194 N 0.52109 0.25509 -0.10265
 C195 C 0.56586 0.29966 -0.12364
 N196 N 0.57875 0.30379 -0.10406
 N197 N 0.59546 0.32106 -0.10410
 C198 C 0.59969 0.33498 -0.12362
 N199 N 0.58674 0.33090 -0.14315
 N200 N 0.57022 0.31346 -0.14322
 C201 C 0.11937 0.00082 0.27322
 N202 N 0.09977 -0.01157 0.28066
 N203 N 0.10018 -0.02762 0.29800
 C204 C 0.12016 -0.03168 0.30867
 N205 N 0.13972 -0.01917 0.30136
 N206 N 0.13935 -0.00329 0.28387
 C207 C 0.11908 0.01812 0.25377
 N208 N 0.13903 0.02609 0.24251
 N209 N 0.13881 0.04152 0.22461
 C210 C 0.11865 0.04973 0.21749
 N211 N 0.09869 0.04187 0.22884
 N212 N 0.09890 0.02625 0.24659
 C213 C 0.11847 0.06668 0.19772
 N214 N 0.09951 0.07912 0.19398
 N215 N 0.09945 0.09457 0.17607
 C216 C 0.11826 0.09795 0.16111
 N217 N 0.13717 0.08542 0.16479
 N218 N 0.13731 0.07016 0.18284
 C219 C 0.62712 0.52110 -0.25439
 N220 N 0.64650 0.53021 -0.26594
 N221 N 0.64529 0.54722 -0.28223
 C222 C 0.62469 0.55588 -0.28740
 N223 N 0.60535 0.54688 -0.27568
 N224 N 0.60653 0.52974 -0.25956
 C225 C 0.62828 0.50193 -0.23689
 N226 N 0.60883 0.48940 -0.22930
 N227 N 0.60983 0.47174 -0.21372
 C228 C 0.63028 0.46609 -0.20499
 N229 N 0.64974 0.47871 -0.21246
 N230 N 0.64877 0.49624 -0.22822
 C231 C 0.63128 0.44653 -0.18790
 N232 N 0.65053 0.44375 -0.17544
 N233 N 0.65130 0.42601 -0.15988
 C234 C 0.63293 0.41029 -0.15639
 N235 N 0.61373 0.41302 -0.16893
 N236 N 0.61289 0.43087 -0.18432
 C237 C 0.37579 1.00516 0.75830
 N238 N 0.39574 1.01701 0.76442
 N239 N 0.39574 1.03398 0.78157
 C240 C 0.37583 1.03953 0.79339
 N241 N 0.35590 1.02760 0.78737
 N242 N 0.35586 1.01080 0.77005
 C243 C 0.37576 0.98659 0.73928
 N244 N 0.35582 0.97901 0.72902
 N245 N 0.35581 0.96228 0.71164
 C246 C 0.37570 0.95234 0.70407
 N247 N 0.39561 0.95983 0.71442
 N248 N 0.39566 0.97674 0.73163
 C249 C 0.37566 0.93385 0.68497
 N250 N 0.39388 0.91978 0.68135
 N251 N 0.39379 0.90294 0.66407
 C252 C 0.37559 0.89973 0.64963
 N253 N 0.35742 0.91388 0.65318
 N254 N 0.35740 0.93056 0.67062
 C255 C 0.87690 0.48660 0.24013
 N256 N 0.89574 0.47363 0.23555
 N257 N 0.89582 0.45695 0.21812
 C258 C 0.87714 0.45281 0.20449
 N259 N 0.85834 0.46584 0.20901
 N260 N 0.85818 0.48236 0.22659
 C261 C 0.87678 0.50498 0.25933
 N262 N 0.85673 0.51432 0.26732
 N263 N 0.85661 0.53102 0.28472
 C264 C 0.87656 0.53917 0.29461
 N265 N 0.89662 0.52990 0.28657
 N266 N 0.89672 0.51303 0.26932
 C267 C 0.87643 0.55780 0.31357
 N268 N 0.89629 0.56977 0.31976
 N269 N 0.89611 0.58689 0.33676
 C270 C 0.87609 0.59251 0.34833
 N271 N 0.85625 0.58043 0.34224
 N272 N 0.85640 0.56346 0.32509
 C273 C 0.25885 0.12529 -0.01933
 N274 N 0.26282 0.10472 -0.03188
 N275 N 0.28011 0.10400 -0.04820
 C276 C 0.29423 0.12373 -0.05234
 N277 N 0.29033 0.14427 -0.03971
 N278 N 0.27287 0.14508 -0.02358
 C279 C 0.23987 0.12600 -0.00126
 N280 N 0.23186 0.14729 0.00671
 N281 N 0.21470 0.14789 0.02321
 C282 C 0.20513 0.12724 0.03253
 N283 N 0.21321 0.10597 0.02463
 N284 N 0.23018 0.10535 0.00794
 C285 C 0.18661 0.12786 0.05111
 N286 N 0.18168 0.10861 0.06524
 N287 N 0.16517 0.10927 0.08243
 C288 C 0.15280 0.12910 0.08592
 N289 N 0.15759 0.14830 0.07166
 N290 N 0.17429 0.14774 0.05465
 C291 C 0.72801 0.63208 0.51829
 N292 N 0.73270 0.63367 0.54193
 N293 N 0.71573 0.63240 0.55865
 C294 C 0.69344 0.62974 0.55233
 N295 N 0.68872 0.62830 0.52869
 N296 N 0.70571 0.62933 0.51196
 C297 C 0.74678 0.63304 0.49994
 N298 N 0.74300 0.62563 0.47703
 N299 N 0.76022 0.62597 0.46056
 C300 C 0.78177 0.63397 0.46635
 N301 N 0.78549 0.64156 0.48921
 N302 N 0.76834 0.64099 0.50573
 C303 C 0.80090 0.63391 0.44841
 N304 N 0.82109 0.64626 0.45265
 N305 N 0.83870 0.64570 0.43672
 C306 C 0.83685 0.63260 0.41605
 N307 N 0.81665 0.62025 0.41179
 N308 N 0.79895 0.62099 0.42764
 C309 C 0.77256 0.37423 0.01060
 N310 N 0.77713 0.39428 0.02414
 N311 N 0.79309 0.39451 0.04064
 C312 C 0.80523 0.37479 0.04403
 N313 N 0.80077 0.35479 0.03039
 N314 N 0.78464 0.35447 0.01405
 C315 C 0.75471 0.37392 -0.00732
 N316 N 0.74592 0.35281 -0.01649
 N317 N 0.72947 0.35256 -0.03247
 C318 C 0.72138 0.37341 -0.04005
 N319 N 0.73029 0.39451 -0.03100
 N320 N 0.74656 0.39476 -0.01483
 C321 C 0.70322 0.37317 -0.05762
 N322 N 0.69897 0.39342 -0.06944
 N323 N 0.68247 0.39323 -0.08536
 C324 C 0.66945 0.37285 -0.08984
 N325 N 0.67364 0.35262 -0.07794
 N326 N 0.69030 0.35275 -0.06220
 C327 C 0.24812 0.87321 0.46836
 N328 N 0.24107 0.89486 0.46178
 N329 N 0.22469 0.89626 0.44593
 C330 C 0.21462 0.87606 0.43617
 N331 N 0.22170 0.85437 0.44268
 N332 N 0.23821 0.85297 0.45843
 C333 C 0.26561 0.87183 0.48649
 N334 N 0.27502 0.85069 0.49107
 N335 N 0.29055 0.84953 0.50793
 C336 C 0.29707 0.86942 0.52090
 N337 N 0.28765 0.89052 0.51630
 N338 N 0.27226 0.89172 0.49936
 C339 C 0.31371 0.86818 0.53991
 N340 N 0.31698 0.88694 0.55549
 N341 N 0.33182 0.88586 0.57297
 C342 C 0.34407 0.86606 0.57542
 N343 N 0.34090 0.84732 0.55977
 N344 N 0.32591 0.84832 0.54238
   
