data_POSCAR
  _audit_creation_date              2014-09-24
  _audit_creation_method            'ToBaCCo'
  _symmetry_space_group_name_H-M    'P1'
  _symmetry_Int_Tables_number       1
  _symmetry_cell_setting            triclinic
  loop_
  _symmetry_equiv_pos_as_xyz
 x,y,z
_cell_length_a 38.8783
_cell_length_b 38.5236
_cell_length_c 39.6784
_cell_angle_alpha 91.399400
_cell_angle_beta 92.136900
_cell_angle_gamma 91.129400
loop_
  _atom_site_label
  _atom_site_type_symbol
  _atom_site_fract_x
  _atom_site_fract_y
  _atom_site_fract_z
N1 N 0.58788 0.68370 0.60833
 N2 N 0.57409 0.66989 0.63475
 C3 C 0.54686 0.68872 0.64353
 C4 C 0.54318 0.71548 0.62116
 C5 C 0.56960 0.71146 0.59909
 H6 H 0.53051 0.68303 0.66419
 H7 H 0.57536 0.72778 0.57816
 Cu8 Cu 0.59235 0.62797 0.65432
 Cu9 Cu 0.62886 0.66507 0.58830
 Cu10 Cu 0.66306 0.59147 0.62421
 N11 N 0.61169 0.58666 0.67416
 N12 N 0.63996 0.57315 0.66290
 C13 C 0.64806 0.54529 0.68115
 C14 C 0.62328 0.54071 0.70499
 C15 C 0.60054 0.56753 0.69969
 H16 H 0.66976 0.52893 0.67662
 H17 H 0.57776 0.57296 0.71351
 N18 N 0.68269 0.61384 0.58493
 N19 N 0.67018 0.64231 0.57175
 C20 C 0.68936 0.65136 0.54566
 C21 C 0.71485 0.62720 0.54200
 C22 C 0.70982 0.60376 0.56724
 H23 H 0.68462 0.67338 0.52992
 H24 H 0.72499 0.58115 0.57241
 H25 H 0.62051 0.61423 0.60188
 H26 H 0.64805 0.64223 0.63145
 N27 N 0.91695 0.32267 0.10702
 N28 N 0.92718 0.33273 0.13771
 C29 C 0.95329 0.31269 0.14821
 C30 C 0.96025 0.28914 0.12244
 C31 C 0.93661 0.29642 0.09666
 H32 H 0.96669 0.31564 0.17246
 H33 H 0.93328 0.28320 0.07239
 Cu34 Cu 0.90628 0.37219 0.15999
 Cu35 Cu 0.87789 0.34317 0.08329
 Cu36 Cu 0.83867 0.41184 0.12376
 N37 N 0.88456 0.41115 0.18225
 N38 N 0.85755 0.42592 0.16828
 C39 C 0.84715 0.45154 0.18895
 C40 C 0.86907 0.45320 0.21722
 C41 C 0.89256 0.42727 0.21211
 H42 H 0.82571 0.46822 0.18352
 H43 H 0.91368 0.42058 0.22907
 N44 N 0.82344 0.39378 0.07862
 N45 N 0.83798 0.36722 0.06352
 C46 C 0.82125 0.36042 0.03369
 C47 C 0.79523 0.38404 0.02966
 C48 C 0.79740 0.40487 0.05855
 H49 H 0.82762 0.34000 0.01596
 H50 H 0.78083 0.42614 0.06468
 H51 H 0.88359 0.39199 0.10581
 H52 H 0.85374 0.36076 0.12580
 N53 N 0.41097 0.18467 -0.10828
 N54 N 0.42240 0.17065 -0.13613
 C55 C 0.44907 0.18998 -0.14640
 C56 C 0.45486 0.21735 -0.12360
 C57 C 0.43029 0.21313 -0.09963
 H58 H 0.46359 0.18437 -0.16853
 H59 H 0.42632 0.22989 -0.07793
 Cu60 Cu 0.40215 0.12794 -0.15584
 Cu61 Cu 0.37113 0.16569 -0.08621
 Cu62 Cu 0.33464 0.08915 -0.12024
 N63 N 0.38247 0.08410 -0.17342
 N64 N 0.35546 0.06954 -0.16012
 C65 C 0.34699 0.03993 -0.17747
 C66 C 0.37028 0.03548 -0.20265
 C67 C 0.39246 0.06393 -0.19932
 H68 H 0.32605 0.02243 -0.17170
 H69 H 0.41414 0.06953 -0.21472
 N70 N 0.31730 0.11299 -0.07996
 N71 N 0.33068 0.14257 -0.06753
 C72 C 0.31255 0.15288 -0.04094
 C73 C 0.28684 0.12842 -0.03616
 C74 C 0.29065 0.10343 -0.06125
 H75 H 0.31786 0.17624 -0.02584
 H76 H 0.27475 0.08037 -0.06589
 H77 H 0.37880 0.11469 -0.10134
 H78 H 0.34856 0.14028 -0.12817
 N79 N 0.07856 0.82935 0.38737
 N80 N 0.06648 0.84061 0.35837
 C81 C 0.03897 0.82080 0.34800
 C82 C 0.03312 0.79609 0.37214
 C83 C 0.05875 0.80257 0.39686
 H84 H 0.02405 0.82450 0.32489
 H85 H 0.06351 0.78821 0.41952
 Cu86 Cu 0.08748 0.88070 0.33764
 Cu87 Cu 0.12068 0.84827 0.40933
 Cu88 Cu 0.16020 0.91796 0.37150
 N89 N 0.10971 0.92003 0.31682
 N90 N 0.13849 0.93402 0.32983
 C91 C 0.14903 0.95968 0.30996
 C92 C 0.12541 0.96212 0.28323
 C93 C 0.10074 0.93665 0.28844
 H94 H 0.17204 0.97553 0.31472
 H95 H 0.07834 0.93034 0.27231
 N96 N 0.17816 0.89789 0.41372
 N97 N 0.16353 0.87082 0.42762
 C98 C 0.18322 0.86146 0.45440
 C99 C 0.21134 0.88391 0.45771
 C100 C 0.20723 0.90682 0.43168
 H101 H 0.17780 0.83963 0.47011
 H102 H 0.22495 0.92749 0.42553
 H103 H 0.11600 0.89795 0.39144
 H104 H 0.14200 0.86724 0.36623
 C105 C 0.11048 0.15658 0.11039
 C106 C 0.13973 0.14237 0.09627
 C107 C 0.15456 0.11340 0.11016
 C108 C 0.14055 0.09852 0.13864
 C109 C 0.11173 0.11259 0.15266
 C110 C 0.09673 0.14202 0.13860
 C111 C 0.09016 0.18397 0.10152
 N112 N 0.06477 0.18663 0.12392
 C113 C 0.06859 0.16123 0.14680
 C114 C 0.10326 0.09226 0.17929
 N115 N 0.12645 0.06644 0.18197
 C116 C 0.14939 0.07017 0.15725
 C117 C 0.18215 0.10500 0.09101
 N118 N 0.18461 0.12846 0.06617
 C119 C 0.15881 0.15143 0.06921
 H120 H 0.09360 0.20084 0.08042
 H121 H 0.05172 0.15669 0.16740
 H122 H 0.08193 0.09628 0.19551
 H123 H 0.17051 0.05299 0.15266
 H124 H 0.19949 0.08377 0.09517
 H125 H 0.15408 0.17294 0.05272
 C126 C 0.39203 0.85021 0.60850
 C127 C 0.36263 0.86507 0.59384
 C128 C 0.34695 0.89238 0.61011
 C129 C 0.36025 0.90486 0.64158
 C130 C 0.38926 0.89014 0.65601
 C131 C 0.40512 0.86253 0.63948
 C132 C 0.41278 0.82373 0.59822
 N133 N 0.43789 0.81954 0.62240
 C134 C 0.43338 0.84311 0.64777
 C135 C 0.39680 0.90768 0.68601
 N136 N 0.37296 0.93251 0.69037
 C137 C 0.35039 0.93092 0.66335
 C138 C 0.31928 0.90173 0.58985
 N139 N 0.31770 0.88049 0.56198
 C140 C 0.34403 0.85796 0.56427
 H141 H 0.40959 0.80833 0.57508
 H142 H 0.44970 0.84619 0.67037
 H143 H 0.41801 0.90263 0.70357
 H144 H 0.32889 0.94785 0.65930
 H145 H 0.30131 0.92195 0.59541
 H146 H 0.34935 0.83801 0.54559
 C147 C 0.88556 0.65654 0.38950
 C148 C 0.85802 0.64082 0.40559
 C149 C 0.84374 0.60981 0.39288
 C150 C 0.85657 0.59428 0.36374
 C151 C 0.88370 0.60981 0.34778
 C152 C 0.89809 0.64135 0.36057
 C153 C 0.90509 0.68612 0.39681
 N154 N 0.92874 0.68943 0.37276
 C155 C 0.92466 0.66233 0.35039
 C156 C 0.89134 0.58852 0.32081
 N157 N 0.86928 0.56071 0.31994
 C158 C 0.84782 0.56410 0.34597
 C159 C 0.81788 0.60033 0.41376
 N160 N 0.81589 0.62505 0.43855
 C161 C 0.84031 0.64995 0.43375
 H162 H 0.90233 0.70397 0.41800
 H163 H 0.94037 0.65787 0.32881
 H164 H 0.91118 0.59323 0.30303
 H165 H 0.82775 0.54558 0.35186
 H166 H 0.80137 0.57741 0.41085
 H167 H 0.84508 0.67280 0.44978
 C168 C 0.60696 0.35741 -0.11345
 C169 C 0.63807 0.37224 -0.10041
 C170 C 0.65281 0.40031 -0.11601
 C171 C 0.63692 0.41365 -0.14511
 C172 C 0.60627 0.39899 -0.15796
 C173 C 0.59132 0.37058 -0.14217
 C174 C 0.58704 0.32961 -0.10397
 N175 N 0.56003 0.32545 -0.12650
 C176 C 0.56246 0.35034 -0.14997
 C177 C 0.59692 0.41684 -0.18633
 N178 N 0.62134 0.44167 -0.19120
 C179 C 0.64596 0.43994 -0.16616
 C180 C 0.68291 0.40904 -0.09821
 N181 N 0.68695 0.38669 -0.07251
 C182 C 0.65968 0.36406 -0.07363
 H183 H 0.59234 0.31303 -0.08285
 H184 H 0.54457 0.35342 -0.17120
 H185 H 0.57433 0.41180 -0.20265
 H186 H 0.66854 0.45669 -0.16317
 H187 H 0.70096 0.42965 -0.10389
 H188 H 0.65561 0.34341 -0.05618
 C189 C 0.00461 0.25501 0.15141
 C190 C -0.01436 0.26367 0.12229
 C191 C -0.00614 0.24491 0.09239
 C192 C 0.02007 0.21974 0.09271
 C193 C 0.03805 0.21172 0.12305
 C194 C 0.02877 0.22992 0.15183
 C195 C 0.03731 0.23457 0.18847
 C196 C 0.00981 0.26280 0.18832
 H197 H -0.01916 0.24997 0.06852
 H198 H 0.02600 0.20635 0.06940
 H199 H 0.06394 0.24494 0.19347
 H200 H 0.03014 0.21134 0.20294
 H201 H 0.02072 0.28934 0.19364
 H202 H -0.01323 0.25580 0.20268
 C203 C 0.50030 0.75265 0.64989
 C204 C 0.51667 0.74233 0.62078
 C205 C 0.50623 0.75915 0.59081
 C206 C 0.48014 0.78449 0.59105
 C207 C 0.46450 0.79427 0.62145
 C208 C 0.47614 0.77766 0.65031
 C209 C 0.47073 0.77464 0.68706
 C210 C 0.49828 0.74645 0.68669
 H211 H 0.51766 0.75238 0.56714
 H212 H 0.47252 0.79659 0.56768
 H213 H 0.44455 0.76445 0.69221
 H214 H 0.47908 0.79850 0.70169
 H215 H 0.48786 0.72013 0.69189
 H216 H 0.52252 0.75415 0.70090
 C217 C 1.00063 0.75030 0.39977
 C218 C 1.00729 0.77002 0.37155
 C219 C 0.98616 0.76181 0.34224
 C220 C 0.96055 0.73493 0.34226
 C221 C 0.95453 0.71641 0.37184
 C222 C 0.97519 0.72559 0.40004
 C223 C 0.98207 0.71694 0.43589
 C224 C 1.01077 0.74504 0.43594
 H225 H 0.98963 0.77540 0.31904
 H226 H 0.94522 0.72901 0.31943
 H227 H 0.99182 0.69019 0.43864
 H228 H 0.96038 0.72383 0.45207
 H229 H 1.03701 0.73436 0.43914
 H230 H 1.00558 0.76815 0.45215
 C231 C 0.49492 0.26230 -0.09600
 C232 C 0.48139 0.24509 -0.12495
 C233 C 0.49494 0.25560 -0.15586
 C234 C 0.52058 0.28232 -0.15660
 C235 C 0.53395 0.29859 -0.12637
 C236 C 0.52024 0.28711 -0.09662
 C237 C 0.52184 0.29245 -0.05932
 C238 C 0.49334 0.26413 -0.05856
 H239 H 0.48552 0.24357 -0.17946
 H240 H 0.53026 0.28979 -0.18065
 H241 H 0.51321 0.31868 -0.05151
 H242 H 0.54680 0.28443 -0.04770
 H243 H 0.46838 0.27408 -0.05006
 H244 H 0.50197 0.23979 -0.04670
 C245 C 0.09637 -0.00533 0.23676
 C246 C 0.12648 -0.01388 0.25483
 C247 C 0.15768 0.00146 0.24503
 C248 C 0.15773 0.02724 0.22043
 C249 C 0.12654 0.03894 0.20584
 C250 C 0.09626 0.02083 0.21331
 C251 C 0.06205 0.03332 0.22389
 C252 C 0.06205 0.00434 0.24920
 H253 H 0.18190 -0.00559 0.25707
 H254 H 0.18195 0.03936 0.21419
 H255 H 0.04181 0.02976 0.20351
 H256 H 0.06345 0.05947 0.23638
 H257 H 0.04208 -0.01614 0.24314
 H258 H 0.06335 0.01387 0.27592
 C259 C 0.64860 0.49139 -0.26602
 C260 C 0.62127 0.51413 -0.27145
 C261 C 0.59161 0.50878 -0.25242
 C262 C 0.59131 0.48417 -0.22673
 C263 C 0.62091 0.46517 -0.21869
 C264 C 0.64862 0.46796 -0.23999
 C265 C 0.68625 0.47316 -0.23236
 C266 C 0.68638 0.49865 -0.26097
 H267 H 0.56883 0.52398 -0.25660
 H268 H 0.56863 0.48133 -0.21194
 H269 H 0.70097 0.44933 -0.23769
 H270 H 0.69216 0.48600 -0.20739
 H271 H 0.70113 0.48935 -0.28277
 H272 H 0.69230 0.52590 -0.25241
 C273 C 0.34220 0.98694 0.76257
 C274 C 0.37182 1.00616 0.77286
 C275 C 0.40309 0.99691 0.75851
 C276 C 0.40354 0.97192 0.73205
 C277 C 0.37264 0.95640 0.71873
 C278 C 0.34244 0.96310 0.73576
 C279 C 0.30745 0.97321 0.72315
 C280 C 0.30710 0.99897 0.75277
 H281 H 0.42701 1.00982 0.76684
 H282 H 0.42775 0.96624 0.72069
 H283 H 0.28815 0.95170 0.72480
 H284 H 0.30765 0.98629 0.69851
 H285 H 0.28787 0.99207 0.77167
 H286 H 0.30706 1.02655 0.74510
 C287 C 0.89773 0.48624 0.26595
 C288 C 0.86795 0.47760 0.24639
 C289 C 0.83710 0.49360 0.25522
 C290 C 0.83737 0.52020 0.28026
 C291 C 0.86860 0.53203 0.29614
 C292 C 0.89819 0.51317 0.28983
 C293 C 0.93369 0.52466 0.28139
 C294 C 0.93326 0.49492 0.25545
 H295 H 0.81304 0.48652 0.24198
 H296 H 0.81357 0.53293 0.28578
 H297 H 0.95262 0.52124 0.30268
 H298 H 0.93458 0.55047 0.26955
 H299 H 0.95173 0.47425 0.26198
 H300 H 0.93385 0.50368 0.22898
 C301 C 0.24578 0.09885 0.00171
 C302 C 0.26082 0.12911 -0.01005
 C303 C 0.24973 0.16066 0.00472
 C304 C 0.22443 0.16068 0.02966
 C305 C 0.21025 0.12912 0.04108
 C306 C 0.22238 0.09883 0.02633
 C307 C 0.21852 0.06031 0.02574
 C308 C 0.24523 0.06027 -0.00199
 H309 H 0.26011 0.18527 -0.00327
 H310 H 0.21635 0.18523 0.04024
 H311 H 0.19239 0.05137 0.01658
 H312 H 0.22810 0.04877 0.04962
 H313 H 0.23443 0.05104 -0.02703
 H314 H 0.27021 0.04892 0.00599
 C315 C 0.75280 0.65586 0.50061
 C316 C 0.74122 0.62607 0.51623
 C317 C 0.75615 0.59451 0.50569
 C318 C 0.78078 0.59393 0.48012
 C319 C 0.79175 0.62501 0.46505
 C320 C 0.77717 0.65544 0.47691
 C321 C 0.77566 0.69349 0.47163
 C322 C 0.74823 0.69408 0.49866
 H323 H 0.74834 0.57022 0.51655
 H324 H 0.79130 0.56933 0.47233
 H325 H 0.76535 0.69959 0.44600
 H326 H 0.80003 0.70732 0.47978
 H327 H 0.72226 0.70080 0.48849
 H328 H 0.75685 0.70805 0.52242
 C329 C 0.76233 0.35707 -0.01999
 C330 C 0.77041 0.38621 0.00075
 C331 C 0.75365 0.41740 -0.00678
 C332 C 0.72693 0.41783 -0.03178
 C333 C 0.71579 0.38690 -0.04888
 C334 C 0.73532 0.35723 -0.04382
 C335 C 0.72501 0.32060 -0.03697
 C336 C 0.75482 0.32037 -0.01105
 H337 H 0.76027 0.44111 0.00738
 H338 H 0.71361 0.44178 -0.03633
 H339 H 0.72863 0.30288 -0.05902
 H340 H 0.69960 0.31825 -0.02523
 H341 H 0.77570 0.30271 -0.01834
 H342 H 0.74649 0.31798 0.01532
 C343 C 0.26052 0.91192 0.49142
 C344 C 0.24082 0.88220 0.48209
 C345 C 0.25037 0.85057 0.49659
 C346 C 0.27636 0.84991 0.52224
 C347 C 0.29255 0.88096 0.53460
 C348 C 0.28539 0.91146 0.51743
 C349 C 0.27637 0.94685 0.53001
 C350 C 0.24936 0.94744 0.50131
 H351 H 0.23714 0.82653 0.48886
 H352 H 0.28251 0.82547 0.53369
 H353 H 0.29770 0.96609 0.52732
 H354 H 0.26479 0.94677 0.55519
 H355 H 0.25533 0.96680 0.48194
 H356 H 0.22250 0.94769 0.50999
   
