data_POSCAR
  _audit_creation_date              2014-09-24
  _audit_creation_method            'ToBaCCo'
  _symmetry_space_group_name_H-M    'P1'
  _symmetry_Int_Tables_number       1
  _symmetry_cell_setting            triclinic
  loop_
  _symmetry_equiv_pos_as_xyz
 x,y,z
_cell_length_a 47.6146
_cell_length_b 47.4384
_cell_length_c 47.2217
_cell_angle_alpha 89.968800
_cell_angle_beta 89.829400
_cell_angle_gamma 89.805500
loop_
  _atom_site_label
  _atom_site_type_symbol
  _atom_site_fract_x
  _atom_site_fract_y
  _atom_site_fract_z
N1 N 0.16281 1.22172 0.14321
 N2 N 0.14303 1.22122 0.16266
 C3 C 0.12529 1.24299 0.15824
 C4 C 0.13446 1.25813 0.13470
 C5 C 0.15843 1.24376 0.12588
 H6 H 0.10728 1.24755 0.17143
 H7 H 0.17181 1.24863 0.10806
 Cu8 Cu 0.14302 1.19207 0.19177
 Cu9 Cu 0.19285 1.19371 0.14144
 Cu10 Cu 0.19250 1.14158 0.19310
 N11 N 0.14300 1.16295 0.22089
 N12 N 0.16236 1.14316 0.22111
 C13 C 0.15767 1.12571 0.24307
 C14 C 0.13401 1.13497 0.25772
 C15 C 0.12536 1.15879 0.24283
 H16 H 0.17080 1.10777 0.24797
 H17 H 0.10756 1.17218 0.24747
 N18 N 0.22115 1.14366 0.16289
 N19 N 0.22137 1.16345 0.14325
 C20 C 0.24336 1.15892 0.12577
 C21 C 0.25775 1.13508 0.13478
 C22 C 0.24294 1.12608 0.15842
 H23 H 0.24851 1.17208 0.10784
 H24 H 0.24757 1.10798 0.17148
 H25 H 0.17097 1.16161 0.16101
 H26 H 0.19311 1.18418 0.18414
 N27 N 0.83728 0.77925 0.14211
 N28 N 0.85729 0.78029 0.16118
 C29 C 0.87519 0.75866 0.15685
 C30 C 0.86598 0.74317 0.13376
 C31 C 0.84178 0.75699 0.12502
 H32 H 0.89349 0.75451 0.16966
 H33 H 0.82817 0.75118 0.10774
 Cu34 Cu 0.85710 0.80944 0.19020
 Cu35 Cu 0.80676 0.80679 0.14089
 Cu36 Cu 0.80570 0.85777 0.19367
 N37 N 0.85689 0.83833 0.21949
 N38 N 0.83591 0.85629 0.22141
 C39 C 0.83977 0.87297 0.24406
 C40 C 0.86480 0.86539 0.25709
 C41 C 0.87510 0.84329 0.24069
 H42 H 0.82563 0.88979 0.25006
 H43 H 0.89398 0.83115 0.24428
 N44 N 0.77721 0.85580 0.16351
 N45 N 0.77775 0.83654 0.14336
 C46 C 0.75616 0.84120 0.12563
 C47 C 0.74118 0.86457 0.13494
 C48 C 0.75523 0.87320 0.15909
 H49 H 0.75188 0.82857 0.10715
 H50 H 0.74996 0.89091 0.17246
 H51 H 0.82769 0.83940 0.16067
 H52 H 0.80668 0.81545 0.18370
 N53 N 0.83685 1.22040 -0.14306
 N54 N 0.85692 1.21954 -0.16219
 C55 C 0.87465 1.24117 -0.15774
 C56 C 0.86526 1.25637 -0.13442
 C57 C 0.84119 1.24241 -0.12571
 H58 H 0.89284 1.24566 -0.17069
 H59 H 0.82778 1.24765 -0.10800
 Cu60 Cu 0.85688 1.19068 -0.19151
 Cu61 Cu 0.80653 1.19289 -0.14168
 Cu62 Cu 0.80993 1.13835 -0.19047
 N63 N 0.85683 1.16181 -0.22085
 N64 N 0.83780 1.14183 -0.22061
 C65 C 0.84201 1.12473 -0.24291
 C66 C 0.86508 1.13436 -0.25822
 C67 C 0.87384 1.15811 -0.24343
 H68 H 0.82934 1.10640 -0.24713
 H69 H 0.89120 1.17179 -0.24864
 N70 N 0.77950 1.14181 -0.16215
 N71 N 0.77816 1.16272 -0.14379
 C72 C 0.75542 1.15918 -0.12720
 C73 C 0.74161 1.13482 -0.13538
 C74 C 0.75755 1.12447 -0.15776
 H75 H 0.74955 1.17328 -0.11024
 H76 H 0.75362 1.10563 -0.16992
 H77 H 0.82994 1.16119 -0.15888
 H78 H 0.80723 1.18118 -0.18404
 N79 N 0.16340 0.77953 -0.14276
 N80 N 0.14347 0.78042 -0.16195
 C81 C 0.12581 0.75870 -0.15765
 C82 C 0.13519 0.74336 -0.13452
 C83 C 0.15912 0.75727 -0.12566
 H84 H 0.10778 0.75408 -0.17066
 H85 H 0.17233 0.75180 -0.10791
 Cu86 Cu 0.14334 0.80960 -0.19093
 Cu87 Cu 0.19358 0.80714 -0.14125
 Cu88 Cu 0.19353 0.85889 -0.19324
 N89 N 0.14322 0.83870 -0.22001
 N90 N 0.16332 0.85756 -0.22100
 C91 C 0.15908 0.87470 -0.24326
 C92 C 0.13484 0.86631 -0.25721
 C93 C 0.12537 0.84330 -0.24163
 H94 H 0.17266 0.89211 -0.24856
 H95 H 0.10718 0.83047 -0.24587
 N96 N 0.22218 0.85664 -0.16321
 N97 N 0.22223 0.83703 -0.14340
 C98 C 0.24415 0.84147 -0.12598
 C99 C 0.25865 0.86509 -0.13518
 C100 C 0.24400 0.87405 -0.15890
 H101 H 0.24911 0.82842 -0.10791
 H102 H 0.24870 0.89205 -0.17205
 H103 H 0.17192 0.83957 -0.16070
 H104 H 0.19360 0.81635 -0.18401
 C105 C 0.54330 1.03783 -0.00505
 H106 H 0.54251 1.03650 0.01781
 C107 C 0.56517 1.05225 -0.01823
 H108 H 0.58110 1.06203 -0.00525
 C109 C 0.52463 1.02444 -0.04953
 H110 H 0.50926 1.01281 -0.06155
 C111 C 0.54619 1.03873 -0.06364
 H112 H 0.54682 1.03857 -0.08656
 N113 N 0.52386 1.02398 -0.02074
 C114 C 0.45630 1.00483 0.03795
 H115 H 0.45692 0.98207 0.03654
 C116 C 0.43449 1.01807 0.05251
 H117 H 0.41840 1.00524 0.06231
 C118 C 0.47537 1.04900 0.02459
 H119 H 0.49087 1.06090 0.01290
 C120 C 0.45390 1.06317 0.03906
 H121 H 0.45349 1.08599 0.03900
 Zn122 Zn 0.49983 0.99990 -0.00026
 N123 N 0.47589 1.02034 0.02402
 C124 C 0.52421 0.97529 0.04907
 N125 N 0.52374 0.97576 0.02027
 C126 C 0.54346 0.96198 0.00467
 C127 C 0.56533 0.94764 0.01795
 C128 C 0.54572 0.96103 0.06328
 C129 C 0.45623 0.99515 -0.03828
 C130 C 0.43434 0.98201 -0.05260
 C131 C 0.45371 0.93683 -0.03906
 C132 C 0.47525 0.95090 -0.02484
 N133 N 0.47584 0.97956 -0.02444
 H134 H 0.50863 0.98691 0.06104
 H135 H 0.54292 0.96335 -0.01819
 H136 H 0.58151 0.93796 0.00503
 H137 H 0.54608 0.96115 0.08621
 H138 H 0.45686 1.01791 -0.03698
 H139 H 0.41825 0.99493 -0.06232
 H140 H 0.45327 0.91402 -0.03887
 H141 H 0.49074 0.93894 -0.01318
 C142 C 0.43274 1.04763 0.05275
 C143 C 0.56716 1.05240 -0.04790
 C144 C 0.43255 0.95247 -0.05271
 C145 C 0.56697 0.94743 0.04764
 C146 C -0.00544 0.54194 1.03917
 H147 H 0.01721 0.54029 1.03954
 C148 C -0.01872 0.56364 1.05392
 H149 H -0.00595 0.57863 1.06533
 C150 C -0.04907 0.52551 1.02188
 H151 H -0.06071 0.51120 1.00858
 C152 C -0.06330 0.54683 1.03658
 H153 H -0.08594 0.54814 1.03505
 N154 N -0.02059 0.52369 1.02320
 C155 C 0.03913 0.45680 1.00557
 H156 H 0.03887 0.45802 0.98270
 C157 C 0.05338 0.43485 1.01891
 H158 H 0.06397 0.41924 1.00597
 C159 C 0.02330 0.47446 1.04979
 H160 H 0.01077 0.48942 1.06163
 C161 C 0.03760 0.45296 1.06409
 H162 H 0.03660 0.45209 1.08698
 Zn163 Zn 0.00062 0.49945 0.99962
 N164 N 0.02405 0.47566 1.02102
 C165 C 0.04739 0.53262 0.98661
 N166 N 0.02238 0.52347 0.97642
 C167 C 0.01072 0.53537 0.95306
 C168 C 0.02470 0.55667 0.93844
 C169 C 0.06129 0.55511 0.97366
 C170 C -0.03979 0.45784 0.99380
 C171 C -0.05408 0.43569 0.98087
 C172 C -0.03248 0.44851 0.93639
 C173 C -0.01822 0.47010 0.95029
 N174 N -0.02229 0.47457 0.97847
 H175 H 0.05570 0.52365 1.00592
 H176 H -0.00996 0.52906 0.94621
 H177 H 0.01517 0.56468 0.91932
 H178 H 0.08003 0.56305 0.98367
 H179 H -0.04168 0.46097 1.01642
 H180 H -0.06691 0.42200 0.99384
 H181 H -0.02895 0.44550 0.91395
 H182 H -0.00284 0.48216 0.93870
 C183 C 0.05238 0.43238 1.04855
 C184 C -0.04802 0.56670 1.05235
 C185 C -0.05030 0.43054 0.95179
 C186 C 0.04987 0.56786 0.94926
 C187 C 1.04002 -0.00629 0.54142
 H188 H 1.04188 0.01621 0.53822
 C189 C 1.05427 -0.01919 0.56373
 H190 H 1.06706 -0.00630 0.57747
 C191 C 1.01850 -0.04950 0.52919
 H192 H 1.00311 -0.06094 0.51711
 C193 C 1.03275 -0.06337 0.55093
 H194 H 1.02922 -0.08569 0.55399
 N195 N 1.02258 -0.02148 0.52462
 C196 C 1.00563 0.03913 0.45707
 H197 H 0.98297 0.03950 0.45865
 C198 C 1.01890 0.05393 0.43539
 H199 H 1.00610 0.06536 0.42032
 C200 C 1.04931 0.02186 0.47371
 H201 H 1.06098 0.00857 0.48809
 C202 C 1.06353 0.03661 0.45241
 H203 H 1.08620 0.03513 0.45121
 Zn204 Zn 0.99965 -0.00033 0.49963
 N205 N 1.02082 0.02317 0.47541
 C206 C 0.97688 0.04953 0.52493
 N207 N 0.97618 0.02091 0.52359
 C208 C 0.96120 0.00548 0.54251
 C209 C 0.94700 0.01868 0.56467
 C210 C 0.96262 0.06369 0.54663
 C211 C 0.98963 -0.04666 0.46366
 C212 C 0.97558 -0.06132 0.44245
 C213 C 0.93892 -0.02611 0.44387
 C214 C 0.95288 -0.01313 0.46631
 N215 N 0.97795 -0.02331 0.47549
 H216 H 0.98935 0.06134 0.50993
 H217 H 0.96152 -0.01729 0.54117
 H218 H 0.93651 0.00575 0.58033
 H219 H 0.96358 0.08646 0.54759
 H220 H 1.01034 -0.05352 0.46999
 H221 H 0.98514 -0.08047 0.43463
 H222 H 0.92013 -0.01608 0.43595
 H223 H 0.94454 0.00616 0.47526
 C224 C 1.04822 0.05241 0.43246
 C225 C 1.05053 -0.04811 0.56897
 C226 C 0.95031 -0.05056 0.43120
 C227 C 0.94795 0.04816 0.56727
 C228 C 0.09956 0.33211 1.09881
 C229 C 0.12426 0.32059 1.08736
 C230 C 0.13545 0.29590 1.09912
 C231 C 0.12246 0.28262 1.12255
 C232 C 0.09739 0.29455 1.13354
 C233 C 0.08585 0.31917 1.12168
 C234 C 0.08786 0.35823 1.08655
 C235 C 0.06290 0.36958 1.09767
 C236 C 0.05166 0.39421 1.08562
 C237 C 0.06534 0.40755 1.06272
 C238 C 0.09063 0.39603 1.05224
 C239 C 0.10180 0.37125 1.06384
 C240 C 0.06087 0.33116 1.13224
 C241 C 0.04953 0.35586 1.12037
 C242 C 0.13744 0.33409 1.06443
 C243 C 0.12647 0.35906 1.05294
 H244 H 0.04994 0.32132 1.14980
 H245 H 0.03018 0.36431 1.12906
 H246 H 0.15647 0.32531 1.05531
 H247 H 0.13729 0.36881 1.03528
 H248 H 0.15452 0.28746 1.08996
 H249 H 0.08666 0.28492 1.15128
 H250 H 0.03193 0.40251 1.09355
 H251 H 0.10158 0.40626 1.03493
 C252 C -0.09780 0.66741 1.09931
 C253 C -0.11996 0.68071 1.08496
 C254 C -0.13165 0.70550 1.09622
 C255 C -0.12123 0.71716 1.12159
 C256 C -0.09864 0.70364 1.13539
 C257 C -0.08695 0.67875 1.12442
 C258 C -0.08567 0.64115 1.08778
 C259 C -0.06364 0.62776 1.10224
 C260 C -0.05213 0.60284 1.09116
 C261 C -0.06206 0.59159 1.06542
 C262 C -0.08426 0.60536 1.05126
 C263 C -0.09621 0.63006 1.06240
 C264 C -0.06469 0.66488 1.13816
 C265 C -0.05332 0.63976 1.12732
 C266 C -0.12999 0.66894 1.05963
 C267 C -0.11824 0.64410 1.04849
 H268 H -0.05602 0.67352 1.15748
 H269 H -0.03617 0.62973 1.13857
 H270 H -0.14701 0.67905 1.04828
 H271 H -0.12647 0.63581 1.02882
 H272 H -0.14878 0.71561 1.08510
 H273 H -0.09026 0.71216 1.15484
 H274 H -0.03534 0.59232 1.10249
 H275 H -0.09172 0.59735 1.03117
 C276 C -0.09902 0.33118 0.90173
 C277 C -0.12520 0.32163 0.91139
 C278 C -0.13662 0.29708 0.89967
 C279 C -0.12221 0.28214 0.87822
 C280 C -0.09589 0.29212 0.86885
 C281 C -0.08417 0.31656 0.88060
 C282 C -0.08687 0.35694 0.91407
 C283 C -0.06044 0.36621 0.90480
 C284 C -0.04872 0.39037 0.91702
 C285 C -0.06341 0.40558 0.93810
 C286 C -0.09015 0.39613 0.94677
 C287 C -0.10183 0.37168 0.93505
 C288 C -0.05787 0.32663 0.87168
 C289 C -0.04615 0.35097 0.88367
 C290 C -0.13950 0.33687 0.93252
 C291 C -0.12807 0.36154 0.94406
 H292 H -0.04618 0.31555 0.85537
 H293 H -0.02574 0.35794 0.87631
 H294 H -0.15971 0.32966 0.94020
 H295 H -0.13978 0.37267 0.96031
 H296 H -0.15686 0.28991 0.90717
 H297 H -0.08436 0.28093 0.85257
 H298 H -0.02790 0.39691 0.91053
 H299 H -0.10190 0.40777 0.96262
 C300 C 0.09904 0.66862 0.90110
 C301 C 0.08248 0.68630 0.88405
 C302 C 0.09445 0.71060 0.87226
 C303 C 0.12264 0.71757 0.87787
 C304 C 0.13881 0.69976 0.89537
 C305 C 0.12718 0.67513 0.90682
 C306 C 0.08667 0.64282 0.91320
 C307 C 0.10342 0.62467 0.92950
 C308 C 0.09168 0.59981 0.94040
 C309 C 0.06294 0.59358 0.93630
 C310 C 0.04643 0.61272 0.92042
 C311 C 0.05830 0.63686 0.90830
 C312 C 0.14317 0.65677 0.92375
 C313 C 0.13157 0.63184 0.93468
 C314 C 0.05422 0.67939 0.87927
 C315 C 0.04226 0.65523 0.89144
 H316 H 0.16487 0.66165 0.92847
 H317 H 0.14467 0.61819 0.94751
 H318 H 0.04121 0.69284 0.86616
 H319 H 0.02033 0.65077 0.88740
 H320 H 0.08168 0.72421 0.85908
 H321 H 0.16055 0.70472 0.89971
 H322 H 0.10514 0.58547 0.95194
 H323 H 0.02416 0.60938 0.91771
 C324 C 1.09809 0.10017 0.33193
 C325 C 1.12054 0.08618 0.31867
 C326 C 1.13238 0.09775 0.29403
 C327 C 1.12175 0.12307 0.28227
 C328 C 1.09867 0.13635 0.29577
 C329 C 1.08699 0.12516 0.32063
 C330 C 1.08592 0.08839 0.35814
 C331 C 1.06368 0.10259 0.37157
 C332 C 1.05218 0.09133 0.39647
 C333 C 1.06227 0.06565 0.40762
 C334 C 1.08466 0.05172 0.39380
 C335 C 1.09664 0.06307 0.36915
 C336 C 1.06448 0.13860 0.33452
 C337 C 1.05313 0.12759 0.35964
 C338 C 1.13073 0.06087 0.33034
 C339 C 1.11889 0.04945 0.35507
 H340 H 1.05563 0.15786 0.32593
 H341 H 1.03583 0.13863 0.36970
 H342 H 1.14796 0.04974 0.32022
 H343 H 1.12725 0.02981 0.36327
 H344 H 1.14977 0.08676 0.28419
 H345 H 1.08984 0.15567 0.28744
 H346 H 1.03525 0.10248 0.40704
 H347 H 1.09227 0.03167 0.40173
 C348 C 1.09941 -0.09808 0.66888
 C349 C 1.12528 -0.08817 0.67877
 C350 C 1.13674 -0.09978 0.70349
 C351 C 1.12284 -0.12169 0.71821
 C352 C 1.09679 -0.13136 0.70770
 C353 C 1.08493 -0.11948 0.68326
 C354 C 1.08719 -0.08574 0.64300
 C355 C 1.06096 -0.09513 0.63350
 C356 C 1.04916 -0.08290 0.60924
 C357 C 1.06366 -0.06177 0.59410
 C358 C 1.09026 -0.05303 0.60374
 C359 C 1.10192 -0.06466 0.62836
 C360 C 1.05879 -0.12852 0.67294
 C361 C 1.04693 -0.11642 0.64859
 C362 C 1.13931 -0.06687 0.66368
 C363 C 1.12791 -0.05545 0.63879
 H364 H 1.04734 -0.14498 0.68387
 H365 H 1.02665 -0.12384 0.64146
 H366 H 1.15931 -0.05901 0.67112
 H367 H 1.13943 -0.03911 0.62775
 H368 H 1.15671 -0.09184 0.71075
 H369 H 1.08539 -0.14789 0.71849
 H370 H 1.02844 -0.08944 0.60259
 H371 H 1.10190 -0.03717 0.59215
 C372 C 0.90069 -0.09919 0.33060
 C373 C 0.91683 -0.11732 0.31359
 C374 C 0.90471 -0.12938 0.28945
 C375 C 0.87686 -0.12266 0.28156
 C376 C 0.86128 -0.10378 0.29873
 C377 C 0.87291 -0.09243 0.32346
 C378 C 0.91314 -0.08701 0.35639
 C379 C 0.89669 -0.06986 0.37408
 C380 C 0.90847 -0.05891 0.39895
 C381 C 0.93708 -0.06367 0.40555
 C382 C 0.95332 -0.08039 0.38679
 C383 C 0.94131 -0.09268 0.36277
 C384 C 0.85723 -0.07464 0.34136
 C385 C 0.86880 -0.06383 0.36641
 C386 C 0.94488 -0.12290 0.32096
 C387 C 0.95701 -0.11049 0.34494
 H388 H 0.83575 -0.06921 0.33606
 H389 H 0.85592 -0.05038 0.37972
 H390 H 0.95763 -0.13678 0.30797
 H391 H 0.97879 -0.11510 0.34973
 H392 H 0.91738 -0.14340 0.27659
 H393 H 0.83982 -0.09838 0.29351
 H394 H 0.89513 -0.04678 0.41298
 H395 H 0.97550 -0.08369 0.39030
 C396 C 0.90007 0.09864 0.66750
 C397 C 0.87540 0.08730 0.67904
 C398 C 0.86407 0.09910 0.70376
 C399 C 0.87694 0.12244 0.71701
 C400 C 0.90184 0.13347 0.70493
 C401 C 0.91355 0.12152 0.68036
 C402 C 0.91202 0.08624 0.64147
 C403 C 0.93700 0.09719 0.63016
 C404 C 0.94846 0.08502 0.60559
 C405 C 0.93494 0.06221 0.59223
 C406 C 0.90966 0.05183 0.60375
 C407 C 0.89830 0.06354 0.62849
 C408 C 0.93854 0.13195 0.66842
 C409 C 0.95014 0.11990 0.64382
 C410 C 0.86243 0.06438 0.66558
 C411 C 0.87362 0.05278 0.64067
 H412 H 0.94930 0.14950 0.67822
 H413 H 0.96952 0.12844 0.63540
 H414 H 0.84342 0.05536 0.67437
 H415 H 0.86298 0.03513 0.63094
 H416 H 0.84499 0.09006 0.71223
 H417 H 0.91243 0.15115 0.71457
 H418 H 0.96820 0.09286 0.59733
 H419 H 0.89885 0.03457 0.59352
 C420 C 0.33271 1.09817 0.09960
 C421 C 0.32096 1.08684 0.12437
 C422 C 0.29637 1.09881 0.13551
 C423 C 0.28347 1.12214 0.12225
 C424 C 0.29549 1.13303 0.09717
 C425 C 0.32005 1.12107 0.08573
 C426 C 0.35877 1.08580 0.08800
 C427 C 0.37041 1.09690 0.06305
 C428 C 0.39503 1.08481 0.05195
 C429 C 0.40799 1.06181 0.06569
 C430 C 0.39616 1.05124 0.09092
 C431 C 0.37145 1.06299 0.10203
 C432 C 0.33227 1.13157 0.06072
 C433 C 0.35697 1.11963 0.04953
 C434 C 0.33412 1.06382 0.13764
 C435 C 0.35899 1.05216 0.12671
 H436 H 0.32264 1.14913 0.04968
 H437 H 0.36563 1.12827 0.03015
 H438 H 0.32513 1.05478 0.15669
 H439 H 0.36848 1.03443 0.13759
 H440 H 0.28757 1.08994 0.15466
 H441 H 0.28589 1.15077 0.08647
 H442 H 0.40363 1.09276 0.03224
 H443 H 0.40610 1.03377 0.10182
 C444 C 0.66675 1.09967 -0.09856
 C445 C 0.67798 1.12460 -0.08744
 C446 C 0.70245 1.13584 -0.09946
 C447 C 0.71576 1.12247 -0.12261
 C448 C 0.70421 1.09727 -0.13332
 C449 C 0.67978 1.08575 -0.12131
 C450 C 0.64087 1.08790 -0.08609
 C451 C 0.62974 1.06280 -0.09700
 C452 C 0.60524 1.05159 -0.08488
 C453 C 0.59190 1.06533 -0.06201
 C454 C 0.60329 1.09065 -0.05155
 C455 C 0.62784 1.10191 -0.06337
 C456 C 0.66809 1.06058 -0.13159
 C457 C 0.64355 1.04926 -0.11959
 C458 C 0.66448 1.13787 -0.06451
 C459 C 0.63980 1.12675 -0.05273
 H460 H 0.67804 1.04950 -0.14902
 H461 H 0.63531 1.02976 -0.12807
 H462 H 0.67306 1.15704 -0.05561
 H463 H 0.63005 1.13763 -0.03506
 H464 H 0.71092 1.15505 -0.09068
 H465 H 0.71407 1.08654 -0.15096
 H466 H 0.59700 1.03182 -0.09273
 H467 H 0.59308 1.10152 -0.03414
 C468 C 0.33309 0.90199 -0.09981
 C469 C 0.32147 0.91334 -0.12459
 C470 C 0.29707 0.90136 -0.13583
 C471 C 0.28424 0.87800 -0.12263
 C472 C 0.29613 0.86708 -0.09753
 C473 C 0.32051 0.87904 -0.08601
 C474 C 0.35895 0.91439 -0.08809
 C475 C 0.37048 0.90324 -0.06314
 C476 C 0.39494 0.91533 -0.05196
 C477 C 0.40785 0.93839 -0.06562
 C478 C 0.39609 0.94901 -0.09083
 C479 C 0.37156 0.93725 -0.10202
 C480 C 0.33260 0.86852 -0.06100
 C481 C 0.35711 0.88046 -0.04972
 C482 C 0.33455 0.93641 -0.13777
 C483 C 0.35921 0.94811 -0.12672
 H484 H 0.32302 0.85092 -0.05003
 H485 H 0.36568 0.87178 -0.03033
 H486 H 0.32566 0.94546 -0.15683
 H487 H 0.36864 0.96588 -0.13754
 H488 H 0.28836 0.91024 -0.15499
 H489 H 0.28659 0.84930 -0.08689
 H490 H 0.40346 0.90731 -0.03228
 H491 H 0.40597 0.96651 -0.10168
 C492 C 0.66672 0.90029 0.09798
 C493 C 0.67939 0.91398 0.12094
 C494 C 0.70384 0.90239 0.13288
 C495 C 0.71568 0.87732 0.12192
 C496 C 0.70283 0.86428 0.09848
 C497 C 0.67836 0.87558 0.08653
 C498 C 0.64074 0.91200 0.08568
 C499 C 0.62805 0.89814 0.06282
 C500 C 0.60341 0.90932 0.05115
 C501 C 0.59165 0.93447 0.06182
 C502 C 0.60461 0.94804 0.08490
 C503 C 0.62918 0.93687 0.09692
 C504 C 0.66521 0.86249 0.06344
 C505 C 0.64042 0.87354 0.05184
 C506 C 0.66728 0.93892 0.13155
 C507 C 0.64265 0.95021 0.11970
 H508 H 0.67412 0.84351 0.05430
 H509 H 0.63091 0.86279 0.03406
 H510 H 0.67694 0.94982 0.14916
 H511 H 0.63406 0.96953 0.12844
 H512 H 0.71345 0.91296 0.15066
 H513 H 0.71152 0.84514 0.08958
 H514 H 0.59345 0.89854 0.03364
 H515 H 0.59604 0.96766 0.09296
   
