data_POSCAR
  _audit_creation_date              2014-09-24
  _audit_creation_method            'ToBaCCo'
  _symmetry_space_group_name_H-M    'P1'
  _symmetry_Int_Tables_number       1
  _symmetry_cell_setting            triclinic
  loop_
  _symmetry_equiv_pos_as_xyz
 x,y,z
_cell_length_a 20.9554
_cell_length_b 20.8586
_cell_length_c 25.8452
_cell_angle_alpha 101.681600
_cell_angle_beta 97.427100
_cell_angle_gamma 88.602600
loop_
  _atom_site_label
  _atom_site_type_symbol
  _atom_site_fract_x
  _atom_site_fract_y
  _atom_site_fract_z
C1 C -0.02121 0.68143 0.99406
 C2 C -0.05677 0.66031 1.03016
 C3 C -0.05889 0.59284 1.03036
 C4 C -0.02188 0.54776 0.99857
 C5 C 0.01476 0.57071 0.96413
 C6 C 0.01292 0.63679 0.95939
 C7 C -0.01980 0.47691 1.00189
 C8 C -0.01040 0.42865 0.95702
 C9 C -0.00116 0.36278 0.96069
 C10 C -0.00698 0.34393 1.00897
 C11 C -0.01794 0.39094 1.05424
 C12 C -0.02353 0.45732 1.05038
 H13 H -0.02114 0.73292 0.99226
 H14 H -0.08753 0.57523 1.05644
 H15 H 0.04459 0.53648 0.94093
 H16 H -0.00961 0.44237 0.91894
 H17 H -0.00002 0.29308 1.01192
 H18 H -0.02950 0.49409 1.08534
 C19 C 0.33871 -0.01998 0.49003
 C20 C 0.37857 -0.02866 0.53610
 C21 C 0.44537 -0.02076 0.53887
 C22 C 0.47337 -0.00924 0.49508
 C23 C 0.43280 -0.00277 0.44871
 C24 C 0.36544 -0.00725 0.44596
 C25 C 0.54493 -0.00616 0.49747
 C26 C 0.57392 0.03538 0.47069
 C27 C 0.64122 0.03596 0.47083
 C28 C 0.67963 -0.00217 0.50179
 C29 C 0.65201 -0.04158 0.53119
 C30 C 0.58448 -0.04542 0.52653
 H31 H 0.28707 -0.02542 0.48776
 H32 H 0.47581 -0.02333 0.57549
 H33 H 0.45390 0.00536 0.41461
 H34 H 0.54353 0.06593 0.44878
 H35 H 0.73157 -0.00038 0.50364
 H36 H 0.56204 -0.07821 0.54613
 C37 C 0.09152 0.05671 0.25868
 H38 H 0.07900 0.06876 0.21990
 C39 C 0.15567 0.04556 0.27629
 H40 H 0.19132 0.04892 0.25025
 C41 C 0.05987 0.04161 0.34006
 H42 H 0.02264 0.04083 0.36510
 C43 C 0.12384 0.03006 0.35939
 H44 H 0.13495 0.01991 0.39903
 N45 N 0.04480 0.05313 0.28989
 C46 C -0.12302 -0.04090 0.20958
 H47 H -0.15490 -0.01813 0.23754
 C48 C -0.13877 -0.10248 0.17810
 H49 H -0.18253 -0.12611 0.18259
 C50 C -0.02790 -0.03778 0.16975
 H51 H 0.01558 -0.01290 0.16681
 C52 C -0.04204 -0.09915 0.13720
 H53 H -0.00877 -0.12093 0.10987
 Zn54 Zn -0.04037 0.06587 0.25801
 N55 N -0.06705 -0.01092 0.20649
 C56 C -0.05658 0.13598 0.17271
 N57 N -0.03740 0.13895 0.22547
 C58 C -0.01313 0.19498 0.25777
 C59 C -0.00851 0.25156 0.23764
 C60 C -0.05221 0.19154 0.15069
 C61 C -0.10920 0.03732 0.33849
 C62 C -0.15948 0.04439 0.36986
 C63 C -0.18876 0.14564 0.34140
 C64 C -0.13787 0.13680 0.31078
 N65 N -0.09998 0.08266 0.30896
 H66 H -0.07529 0.09068 0.14773
 H67 H 0.00253 0.19556 0.29943
 H68 H 0.01133 0.29530 0.26428
 H69 H -0.06785 0.18870 0.10868
 H70 H -0.07985 -0.00634 0.33531
 H71 H -0.16763 0.00643 0.39132
 H72 H -0.21904 0.18832 0.34100
 H73 H -0.13082 0.17185 0.28650
 C74 C -0.09682 -0.13334 0.14262
 C75 C 0.17257 0.03089 0.32697
 C76 C -0.20120 0.09811 0.37028
 C77 C -0.02852 0.25043 0.18346
 C78 C 0.09713 0.06581 0.79018
 H79 H 0.13739 0.04718 0.76953
 C80 C 0.09754 0.13097 0.81665
 H81 H 0.13814 0.16167 0.81577
 C82 C -0.00400 0.04861 0.81689
 H83 H -0.04391 0.01649 0.81616
 C84 C -0.00505 0.11357 0.84475
 H85 H -0.04597 0.13120 0.86520
 N86 N 0.04592 0.02655 0.78918
 C87 C 0.16121 -0.10916 0.71233
 H88 H 0.15766 -0.14011 0.74058
 C89 C 0.21652 -0.11230 0.68731
 H90 H 0.25340 -0.14725 0.69573
 C91 C 0.11906 -0.02461 0.66909
 H92 H 0.08219 0.01154 0.66395
 C93 C 0.17378 -0.02628 0.64299
 H94 H 0.17792 0.00776 0.61702
 Zn95 Zn 0.04353 -0.05798 0.74444
 N96 N 0.11373 -0.06568 0.70317
 C97 C -0.04678 -0.06425 0.64905
 N98 N -0.03722 -0.07031 0.70097
 C99 C -0.08652 -0.08645 0.72536
 C100 C -0.14834 -0.09622 0.69793
 C101 C -0.10840 -0.07233 0.62033
 C102 C 0.05628 -0.11101 0.83941
 C103 C 0.05956 -0.16239 0.86715
 C104 C 0.05144 -0.23920 0.78289
 C105 C 0.04661 -0.18670 0.75687
 N106 N 0.05023 -0.12418 0.78522
 H107 H -0.00716 -0.05269 0.62977
 H108 H -0.07779 -0.09170 0.76644
 H109 H -0.18682 -0.10778 0.71871
 H110 H -0.11566 -0.06616 0.57936
 H111 H 0.05824 -0.06085 0.86106
 H112 H 0.06408 -0.15164 0.91026
 H113 H 0.04859 -0.28859 0.75950
 H114 H 0.04062 -0.19561 0.71380
 C115 C 0.22390 -0.06972 0.65283
 C116 C 0.04524 0.15597 0.84321
 C117 C 0.05811 -0.22730 0.83870
 C118 C -0.15998 -0.08864 0.64483
 C119 C -0.08727 -0.29305 0.06633
 C120 C -0.13105 -0.30625 0.09864
 C121 C -0.14367 -0.24742 0.12956
 C122 C -0.10647 -0.20235 0.11446
 O123 O -0.07280 -0.22991 0.07593
 H124 H -0.15125 -0.35281 0.10046
 H125 H -0.17394 -0.23936 0.16113
 C126 C -0.02062 0.37047 0.10571
 C127 C -0.01691 0.41225 0.15492
 C128 C -0.01951 0.37307 0.19072
 C129 C -0.02456 0.31001 0.16108
 O130 O -0.02537 0.30840 0.10952
 H131 H -0.01194 0.46492 0.16433
 H132 H -0.01828 0.38908 0.23334
 C133 C 0.35108 -0.04910 0.58029
 C134 C 0.38552 -0.08047 0.61716
 C135 C 0.34253 -0.09282 0.64896
 C136 C 0.28456 -0.06843 0.62933
 O137 O 0.28965 -0.04184 0.58758
 H138 H 0.43581 -0.09405 0.62021
 H139 H 0.35291 -0.11622 0.68280
 C140 C -0.30812 -0.07350 0.56638
 C141 C -0.32865 -0.11521 0.59644
 C142 C -0.27537 -0.12854 0.62853
 C143 C -0.22596 -0.09432 0.61608
 O144 O -0.24548 -0.06167 0.57806
 H145 H -0.37653 -0.13330 0.59645
 H146 H -0.27330 -0.15874 0.65815
 C147 C 0.04185 -0.34193 0.91942
 C148 C 0.07586 -0.38103 0.88228
 C149 C 0.08828 -0.34251 0.84815
 C150 C 0.06153 -0.28261 0.86663
 O151 O 0.03399 -0.28181 0.91002
 H152 H 0.08893 -0.43202 0.87869
 H153 H 0.11284 -0.35686 0.81326
 C154 C 0.01988 0.31511 0.91541
 C155 C 0.05377 0.33210 0.87772
 C156 C 0.06803 0.27470 0.84605
 C157 C 0.04188 0.22656 0.86644
 O158 O 0.01256 0.25087 0.90861
 H159 H 0.06814 0.38045 0.87446
 H160 H 0.09411 0.26877 0.81188
 C161 C -0.32951 0.07209 0.43972
 C162 C -0.35936 0.11832 0.41320
 C163 C -0.31422 0.13704 0.38575
 C164 C -0.26002 0.10080 0.39692
 O165 O -0.26916 0.06188 0.42987
 H166 H -0.40817 0.13635 0.41298
 H167 H -0.32144 0.17091 0.35891
 C168 C 0.32296 0.00020 0.39697
 C169 C 0.34294 -0.00486 0.34742
 C170 C 0.28953 0.00584 0.31448
 C171 C 0.24034 0.01679 0.34604
 O172 O 0.26057 0.01286 0.39606
 H173 H 0.39041 -0.01605 0.33594
 H174 H 0.28726 0.00470 0.27229
   
