data_POSCAR
  _audit_creation_date              2014-09-24
  _audit_creation_method            'ToBaCCo'
  _symmetry_space_group_name_H-M    'P1'
  _symmetry_Int_Tables_number       1
  _symmetry_cell_setting            triclinic
  loop_
  _symmetry_equiv_pos_as_xyz
 x,y,z
_cell_length_a 37.1880
_cell_length_b 36.7665
_cell_length_c 35.3694
_cell_angle_alpha 92.794300
_cell_angle_beta 92.585900
_cell_angle_gamma 92.830500
loop_
  _atom_site_label
  _atom_site_type_symbol
  _atom_site_fract_x
  _atom_site_fract_y
  _atom_site_fract_z
N1 N 0.18061 0.21497 0.24614
 N2 N 0.19715 0.19206 0.26745
 C3 C 0.17665 0.18435 0.29684
 C4 C 0.14542 0.20310 0.29331
 C5 C 0.14896 0.22233 0.26088
 H6 H 0.18381 0.16644 0.31904
 H7 H 0.13059 0.24144 0.24966
 Cu8 Cu 0.24352 0.17437 0.25402
 Cu9 Cu 0.20258 0.23678 0.20317
 Cu10 Cu 0.28748 0.20887 0.18197
 N11 N 0.28198 0.14874 0.23045
 N12 N 0.29997 0.16285 0.20307
 C13 C 0.32633 0.14071 0.19365
 C14 C 0.32426 0.11077 0.21579
 C15 C 0.29579 0.11680 0.23891
 H16 H 0.34542 0.14587 0.17210
 H17 H 0.28638 0.09978 0.26089
 N18 N 0.26243 0.24613 0.15400
 N19 N 0.22973 0.25608 0.16134
 C20 C 0.21999 0.28140 0.13704
 C21 C 0.24791 0.28748 0.11322
 C22 C 0.27426 0.26466 0.12470
 H23 H 0.19461 0.29450 0.13680
 H24 H 0.30012 0.26167 0.11239
 H25 H 0.23486 0.19385 0.18973
 H26 H 0.25462 0.23177 0.22226
 N27 N 0.65797 0.71907 0.75133
 N28 N 0.67193 0.69005 0.76509
 C29 C 0.65140 0.67829 0.79304
 C30 C 0.62309 0.70111 0.79681
 C31 C 0.62828 0.72674 0.76986
 H32 H 0.65625 0.65459 0.80912
 H33 H 0.61158 0.74912 0.76366
 Cu34 Cu 0.71500 0.67007 0.74414
 Cu35 Cu 0.67787 0.74409 0.70918
 Cu36 Cu 0.75066 0.70629 0.66753
 N37 N 0.75616 0.64940 0.71993
 N38 N 0.76940 0.66323 0.68960
 C39 C 0.79695 0.64353 0.67835
 C40 C 0.80148 0.61598 0.70301
 C41 C 0.77501 0.62043 0.72906
 H42 H 0.81274 0.64889 0.65410
 H43 H 0.76952 0.60362 0.75256
 N44 N 0.72830 0.75003 0.64933
 N45 N 0.70147 0.76538 0.66607
 C46 C 0.69324 0.79553 0.64791
 C47 C 0.71560 0.79893 0.61804
 C48 C 0.73757 0.76971 0.61986
 H49 H 0.67222 0.81347 0.65539
 H50 H 0.75919 0.76364 0.60151
 H51 H 0.69860 0.69783 0.68498
 H52 H 0.73016 0.72814 0.71653
 N53 N 0.33263 0.74216 0.76822
 N54 N 0.32543 0.77050 0.79026
 C55 C 0.34949 0.77342 0.82013
 C56 C 0.37311 0.74568 0.81633
 C57 C 0.36134 0.72621 0.78321
 H58 H 0.35121 0.79533 0.84177
 H59 H 0.37372 0.70321 0.76990
 Cu60 Cu 0.28804 0.80298 0.77484
 Cu61 Cu 0.30792 0.73033 0.71899
 Cu62 Cu 0.24219 0.78817 0.69150
 N63 N 0.24992 0.83472 0.75935
 N64 N 0.23277 0.82842 0.72621
 C65 C 0.20854 0.85370 0.72096
 C66 C 0.21023 0.87743 0.75262
 C67 C 0.23681 0.86456 0.77656
 H68 H 0.19091 0.85428 0.69593
 H69 H 0.24585 0.87614 0.80427
 N70 N 0.25507 0.74613 0.65992
 N71 N 0.27975 0.72351 0.67021
 C72 C 0.28351 0.69889 0.64124
 C73 C 0.26008 0.70685 0.61157
 C74 C 0.24262 0.73675 0.62439
 H75 H 0.30301 0.67804 0.64101
 H76 H 0.22318 0.75137 0.60824
 H77 H 0.29574 0.78291 0.70911
 H78 H 0.26114 0.75410 0.73220
 N79 N 0.84694 0.24664 0.26902
 N80 N 0.83717 0.26920 0.29621
 C81 C 0.86403 0.27378 0.32318
 C82 C 0.89226 0.25318 0.31209
 C83 C 0.88026 0.23610 0.27762
 H84 H 0.86364 0.29182 0.34824
 H85 H 0.89468 0.21792 0.25957
 Cu86 Cu 0.79179 0.29299 0.29197
 Cu87 Cu 0.81682 0.23347 0.22346
 Cu88 Cu 0.73400 0.27216 0.21795
 N89 N 0.75407 0.32535 0.27782
 N90 N 0.73149 0.31671 0.24877
 C91 C 0.70870 0.34351 0.24429
 C92 C 0.71769 0.37076 0.27186
 C93 C 0.74641 0.35828 0.29289
 H94 H 0.68755 0.34312 0.22226
 H95 H 0.76102 0.37237 0.31687
 N96 N 0.74984 0.23796 0.17888
 N97 N 0.78170 0.22367 0.18020
 C98 C 0.78592 0.20496 0.14709
 C99 C 0.75533 0.20820 0.12396
 C100 C 0.73311 0.22918 0.14498
 H101 H 0.81016 0.19183 0.13956
 H102 H 0.70748 0.23906 0.13547
 H103 H 0.78903 0.28058 0.22397
 H104 H 0.77001 0.24096 0.24892
 N105 N 0.85082 0.74287 0.26170
 N106 N 0.85114 0.70732 0.25563
 C107 C 0.87459 0.69949 0.22904
 C108 C 0.88947 0.73179 0.21737
 C109 C 0.87401 0.75901 0.23871
 H110 H 0.87994 0.67227 0.21848
 H111 H 0.87949 0.78813 0.23804
 Cu112 Cu 0.81965 0.67393 0.28075
 Cu113 Cu 0.82077 0.76418 0.30007
 Cu114 Cu 0.74305 0.70982 0.30712
 N115 N 0.77770 0.64348 0.29045
 N116 N 0.74707 0.65747 0.29897
 C117 C 0.72138 0.63041 0.29932
 C118 C 0.73707 0.59779 0.29059
 C119 C 0.77280 0.60711 0.28541
 H120 H 0.69342 0.63444 0.30466
 H121 H 0.79323 0.58900 0.27654
 N122 N 0.74912 0.76044 0.32879
 N123 N 0.77924 0.78085 0.32752
 C124 C 0.77824 0.80965 0.35249
 C125 C 0.74587 0.80703 0.37035
 C126 C 0.72810 0.77581 0.35434
 H127 H 0.80087 0.82862 0.36001
 H128 H 0.70368 0.76286 0.36406
 H129 H 0.79648 0.71821 0.32507
 H130 H 0.78468 0.72775 0.27452
 N131 N 0.30701 0.24356 -0.25694
 N132 N 0.29286 0.21918 -0.28249
 C133 C 0.31663 0.21291 -0.30919
 C134 C 0.34775 0.23385 -0.29956
 C135 C 0.34083 0.25321 -0.26618
 H136 H 0.31221 0.19327 -0.33294
 H137 H 0.35862 0.27302 -0.25010
 Cu138 Cu 0.24708 0.19370 -0.27608
 Cu139 Cu 0.27880 0.26169 -0.21535
 Cu140 Cu 0.20864 0.20242 -0.19238
 N141 N 0.21315 0.15678 -0.25990
 N142 N 0.19813 0.16006 -0.22706
 C143 C 0.17918 0.12886 -0.22115
 C144 C 0.18303 0.10475 -0.25183
 C145 C 0.20465 0.12335 -0.27586
 H146 H 0.16575 0.12329 -0.19540
 H147 H 0.21513 0.11264 -0.30194
 N148 N 0.22393 0.24696 -0.16142
 N149 N 0.25076 0.26960 -0.16981
 C150 C 0.25521 0.29648 -0.14238
 C151 C 0.22990 0.29017 -0.11561
 C152 C 0.21070 0.25868 -0.12853
 H153 H 0.27595 0.31822 -0.14139
 H154 H 0.18920 0.24488 -0.11435
 H155 H 0.26091 0.20912 -0.20953
 H156 H 0.22717 0.23949 -0.23018
 N157 N 0.64039 0.28337 -0.23425
 N158 N 0.64979 0.29585 -0.26677
 C159 C 0.62108 0.29232 -0.29163
 C160 C 0.59224 0.27689 -0.27324
 C161 C 0.60550 0.27187 -0.23693
 H162 H 0.62123 0.30071 -0.32050
 H163 H 0.59095 0.26035 -0.21416
 Cu164 Cu 0.69838 0.31676 -0.27215
 Cu165 Cu 0.67384 0.28276 -0.19071
 Cu166 Cu 0.76388 0.29753 -0.20884
 N167 N 0.74470 0.34425 -0.26831
 N168 N 0.77058 0.33635 -0.24394
 C169 C 0.79867 0.36065 -0.24582
 C170 C 0.78968 0.38532 -0.27261
 C171 C 0.75533 0.37404 -0.28632
 H172 H 0.82273 0.36154 -0.22738
 H173 H 0.73861 0.38761 -0.30651
 N174 N 0.74769 0.27237 -0.16443
 N175 N 0.71332 0.26779 -0.15715
 C176 C 0.71030 0.24803 -0.12638
 C177 C 0.74449 0.23990 -0.11360
 C178 C 0.76761 0.25605 -0.13810
 H179 H 0.68497 0.23908 -0.11516
 H180 H 0.79660 0.25464 -0.13776
 H181 H 0.71566 0.31884 -0.20459
 H182 H 0.71353 0.27153 -0.22661
 N183 N 0.14762 0.76940 0.25256
 N184 N 0.16128 0.78112 0.22149
 C185 C 0.13524 0.77931 0.19358
 C186 C 0.10375 0.76556 0.20839
 C187 C 0.11261 0.75971 0.24574
 H188 H 0.13881 0.78809 0.16520
 H189 H 0.09471 0.74991 0.26672
 Cu190 Cu 0.21113 0.79966 0.22216
 Cu191 Cu 0.17539 0.76969 0.30014
 Cu192 Cu 0.26788 0.77917 0.29375
 N193 N 0.25687 0.82688 0.23285
 N194 N 0.27960 0.81908 0.26055
 C195 C 0.30757 0.84412 0.26273
 C196 C 0.30141 0.86907 0.23515
 C197 C 0.26924 0.85701 0.21669
 H198 H 0.32937 0.84520 0.28412
 H199 H 0.25493 0.87025 0.19431
 N200 N 0.24470 0.75380 0.33505
 N201 N 0.20951 0.75333 0.33879
 C202 C 0.20106 0.73434 0.36892
 C203 C 0.23218 0.72150 0.38452
 C204 C 0.25960 0.73442 0.36256
 H205 H 0.17391 0.72802 0.37724
 H206 H 0.28800 0.72961 0.36588
 H207 H 0.22077 0.80261 0.29122
 H208 H 0.21850 0.75497 0.27023
 N209 N 0.46998 0.39470 0.50389
 N210 N 0.43670 0.40321 0.50979
 C211 C 0.42270 0.38091 0.53494
 C212 C 0.44855 0.35719 0.54536
 C213 C 0.47832 0.36663 0.52513
 H214 H 0.39589 0.38221 0.54542
 H215 H 0.50402 0.35412 0.52567
 Cu216 Cu 0.41494 0.44348 0.48580
 Cu217 Cu 0.49933 0.41962 0.46804
 Cu218 Cu 0.46134 0.49202 0.42492
 N219 N 0.40208 0.49223 0.47381
 N220 N 0.42089 0.51134 0.45046
 C221 C 0.40577 0.54333 0.44590
 C222 C 0.37585 0.54434 0.46748
 C223 C 0.37416 0.51144 0.48495
 H224 H 0.41514 0.56386 0.42723
 H225 H 0.35387 0.50179 0.50355
 N226 N 0.50885 0.47515 0.41308
 N227 N 0.52384 0.44821 0.43020
 C228 C 0.55547 0.44208 0.41465
 C229 C 0.56048 0.46622 0.38646
 C230 C 0.53048 0.48695 0.38627
 H231 H 0.57278 0.42040 0.42181
 H232 H 0.52411 0.50804 0.36719
 H233 H 0.47487 0.46879 0.47470
 H234 H 0.45747 0.43627 0.43513
 N235 N -0.00867 -0.06362 1.01351
 N236 N -0.03031 -0.04711 1.03634
 C237 C -0.03671 -0.06808 1.06558
 C238 C -0.01834 -0.09951 1.06074
 C239 C -0.00058 -0.09585 1.02743
 H240 H -0.05484 -0.06175 1.08778
 H241 H 0.01606 -0.11538 1.01377
 Cu242 Cu -0.05173 -0.00202 1.02393
 Cu243 Cu 0.00632 -0.04182 0.96736
 Cu244 Cu -0.05068 0.02232 0.93364
 N245 N -0.08601 0.03084 1.00398
 N246 N -0.08614 0.03950 0.96837
 C247 C -0.11411 0.06034 0.96124
 C248 C -0.13258 0.06480 0.99423
 C249 C -0.11389 0.04583 1.02079
 H250 H -0.12064 0.07090 0.93393
 H251 H -0.12069 0.04229 1.04984
 N252 N -0.01259 0.00156 0.90345
 N253 N 0.00897 -0.02293 0.91644
 C254 C 0.03227 -0.03152 0.88987
 C255 C 0.02514 -0.01133 0.85860
 C256 C -0.00335 0.00940 0.86823
 H257 H 0.05327 -0.05052 0.89348
 H258 H -0.01605 0.02903 0.85093
 H259 H -0.01107 0.01137 0.97309
 H260 H -0.04540 -0.02634 0.95975
 N261 N 1.01520 0.61263 0.99709
 N262 N 1.04887 0.61282 1.01007
 C263 C 1.05642 0.64330 1.03235
 C264 C 1.02565 0.66301 1.03356
 C265 C 0.99998 0.64261 1.01086
 H266 H 1.08193 0.65004 1.04761
 H267 H 0.97219 0.64867 1.00499
 Cu268 Cu 1.07801 0.57147 0.99845
 Cu269 Cu 0.99321 0.57247 0.96495
 Cu270 Cu 1.05339 0.51607 0.92230
 N271 N 1.09973 0.52487 0.98988
 N272 N 1.09169 0.50399 0.95906
 C273 C 1.11199 0.47458 0.95966
 C274 C 1.13322 0.47699 0.99305
 C275 C 1.12457 0.50908 1.01155
 H276 H 1.11042 0.45250 0.93818
 H277 H 1.13571 0.52021 1.03870
 N278 N 1.00396 0.52182 0.90079
 N279 N 0.98078 0.54159 0.91882
 C280 C 0.94978 0.54128 0.89785
 C281 C 0.95336 0.52067 0.86481
 C282 C 0.98813 0.50849 0.86745
 H283 H 0.92694 0.55696 0.90493
 H284 H 1.00130 0.49234 0.84633
 H285 H 1.02919 0.53096 0.96946
 H286 H 1.04102 0.56961 0.93939
 N287 N 0.51382 0.10061 0.51577
 N288 N 0.54771 0.10187 0.52823
 C289 C 0.55380 0.13037 0.55352
 C290 C 0.52178 0.14743 0.55753
 C291 C 0.49693 0.12778 0.53318
 H292 H 0.57929 0.13755 0.56865
 H293 H 0.46878 0.13297 0.52815
 Cu294 Cu 0.57942 0.06437 0.51197
 Cu295 Cu 0.49429 0.06346 0.47820
 Cu296 Cu 0.55798 0.01439 0.43157
 N297 N 0.60370 0.02012 0.49949
 N298 N 0.59689 0.00166 0.46693
 C299 C 0.61867 -0.02654 0.46490
 C300 C 0.63956 -0.02594 0.49839
 C301 C 0.62922 0.00382 0.51973
 H302 H 0.61821 -0.04677 0.44160
 H303 H 0.63958 0.01299 0.54784
 N304 N 0.50838 0.01863 0.41049
 N305 N 0.48400 0.03613 0.42920
 C306 C 0.45317 0.03516 0.40776
 C307 C 0.45816 0.01612 0.37400
 C308 C 0.49355 0.00586 0.37658
 H309 H 0.42921 0.04879 0.41540
 H310 H 0.50777 -0.00872 0.35509
 H311 H 0.53254 0.02393 0.47951
 H312 H 0.54247 0.06563 0.45311
 N313 N -0.00323 0.09360 0.50456
 N314 N -0.03508 0.09712 0.48779
 C315 C -0.03188 0.12124 0.46053
 C316 C 0.00403 0.13319 0.46007
 C317 C 0.02146 0.11481 0.48808
 H318 H -0.05376 0.12859 0.44169
 H319 H 0.04997 0.11676 0.49594
 Cu320 Cu -0.07699 0.06761 0.50138
 Cu321 Cu 0.00366 0.06130 0.54620
 Cu322 Cu -0.07506 0.03435 0.58770
 N323 N -0.11273 0.03036 0.51468
 N324 N -0.11218 0.01806 0.54898
 C325 C -0.13850 -0.00808 0.55077
 C326 C -0.15635 -0.01288 0.51548
 C327 C -0.13952 0.01229 0.49336
 H328 H -0.14344 -0.02299 0.57578
 H329 H -0.14554 0.01631 0.46369
 N330 N -0.02768 0.03505 0.61451
 N331 N 0.00254 0.04236 0.59752
 C332 C 0.03059 0.03565 0.62109
 C333 C 0.01726 0.02374 0.65453
 C334 C -0.01974 0.02407 0.64957
 H335 H 0.05861 0.03907 0.61440
 H336 H -0.03944 0.01488 0.66907
 H337 H -0.04362 0.02886 0.54309
 H338 H -0.04461 0.07661 0.56320
 N339 N 0.50075 0.57964 0.01506
 N340 N 0.46817 0.57676 -0.00129
 C341 C 0.46609 0.60097 -0.02863
 C342 C 0.49933 0.61962 -0.02959
 C343 C 0.52068 0.60519 -0.00172
 H344 H 0.44262 0.60390 -0.04722
 H345 H 0.54870 0.61264 0.00571
 Cu346 Cu 0.43275 0.53948 0.01289
 Cu347 Cu 0.51521 0.54935 0.05632
 Cu348 Cu 0.44247 0.51245 0.10156
 N349 N 0.39671 0.50650 0.03361
 N350 N 0.40044 0.49764 0.06909
 C351 C 0.37205 0.47621 0.07761
 C352 C 0.34952 0.47048 0.04570
 C353 C 0.36583 0.49012 0.01801
 H354 H 0.36864 0.46459 0.10483
 H355 H 0.35602 0.49238 -0.01099
 N356 N 0.49193 0.51479 0.12370
 N357 N 0.51982 0.52911 0.10682
 C358 C 0.55000 0.52474 0.12835
 C359 C 0.54045 0.50604 0.15971
 C360 C 0.50362 0.49992 0.15571
 H361 H 0.57702 0.53266 0.12074
 H362 H 0.48671 0.48468 0.17411
 H363 H 0.47341 0.50868 0.05544
 H364 H 0.46542 0.55613 0.07324
 N365 N 0.52123 -0.10639 -0.00946
 N366 N 0.54212 -0.09180 -0.03433
 C367 C 0.54085 -0.11348 -0.06603
 C368 C 0.51875 -0.14375 -0.06083
 C369 C 0.50656 -0.13859 -0.02448
 H370 H 0.55674 -0.10895 -0.09039
 H371 H 0.48955 -0.15727 -0.00962
 Cu372 Cu 0.57418 -0.04963 -0.02093
 Cu373 Cu 0.51750 -0.08258 0.04118
 Cu374 Cu 0.55787 0.00537 0.05271
 N375 N 0.60548 -0.00685 -0.00746
 N376 N 0.60031 0.01381 0.02300
 C377 C 0.62524 0.04184 0.02557
 C378 C 0.64682 0.03845 -0.00520
 C379 C 0.63338 0.00753 -0.02564
 H380 H 0.62609 0.06419 0.04670
 H381 H 0.64273 -0.00302 -0.05232
 N382 N 0.52139 -0.01358 0.08647
 N383 N 0.50679 -0.04718 0.08311
 C384 C 0.48202 -0.05088 0.10964
 C385 C 0.48098 -0.01791 0.13027
 C386 C 0.50617 0.00495 0.11476
 H387 H 0.46456 -0.07495 0.11225
 H388 H 0.51214 0.03341 0.12289
 H389 H 0.52542 -0.03310 0.01877
 H390 H 0.56464 -0.04881 0.04707
 N391 N 1.01648 0.39732 0.48932
 N392 N 1.03641 0.40910 0.46223
 C393 C 1.03768 0.38257 0.43487
 C394 C 1.01753 0.35228 0.44532
 C395 C 1.00426 0.36273 0.47996
 H396 H 1.05293 0.38504 0.40975
 H397 H 0.98787 0.34602 0.49754
 Cu398 Cu 1.06171 0.45668 0.46593
 Cu399 Cu 1.01003 0.42745 0.53540
 Cu400 Cu 1.04945 0.51506 0.53903
 N401 N 1.09608 0.49734 0.47935
 N402 N 1.09230 0.51935 0.50917
 C403 C 1.11980 0.54481 0.51178
 C404 C 1.14170 0.53840 0.48171
 C405 C 1.12570 0.50829 0.46161
 H406 H 1.12275 0.56716 0.53291
 H407 H 1.13485 0.49546 0.43586
 N408 N 1.01294 0.49937 0.57439
 N409 N 0.99866 0.46571 0.57382
 C410 C 0.97407 0.46381 0.60065
 C411 C 0.97275 0.49799 0.61872
 C412 C 0.99764 0.51980 0.60127
 H413 H 0.95719 0.43984 0.60542
 H414 H 1.00364 0.54864 0.60730
 H415 H 1.01540 0.47537 0.50852
 H416 H 1.05688 0.46110 0.53442
 C417 C 0.36418 0.01746 0.23413
 C418 C 0.34369 -0.01933 0.23714
 C419 C 0.36516 -0.04776 0.24266
 C420 C 0.40561 -0.03662 0.24501
 C421 C 0.38825 0.02225 0.27034
 C422 C 0.40992 -0.00597 0.27639
 C423 C 0.39013 0.01082 0.20225
 C424 C 0.41199 -0.01740 0.20798
 H425 H 0.31453 -0.02224 0.23606
 H426 H 0.42326 -0.05968 0.24967
 H427 H 0.38908 0.04691 0.28845
 H428 H 0.38984 0.02578 0.17664
 C429 C 0.13931 -0.05246 0.74178
 C430 C 0.15802 -0.01489 0.75118
 C431 C 0.13463 0.01191 0.75764
 C432 C 0.09475 -0.00132 0.75446
 C433 C 0.11509 -0.05937 0.77469
 C434 C 0.09190 -0.03271 0.78174
 C435 C 0.11339 -0.04649 0.70799
 C436 C 0.09018 -0.01973 0.71437
 H437 H 0.18698 -0.00986 0.75154
 H438 H 0.07647 0.02112 0.75947
 H439 H 0.11730 -0.08276 0.79200
 H440 H 0.11524 -0.06020 0.68037
 C441 C 0.65841 0.45271 0.25945
 C442 C 0.68392 0.48644 0.26780
 C443 C 0.66662 0.51780 0.27488
 C444 C 0.62542 0.51237 0.27260
 C445 C 0.63433 0.45129 0.29323
 C446 C 0.61714 0.48258 0.30043
 C447 C 0.63337 0.46273 0.22636
 C448 C 0.61631 0.49409 0.23322
 H449 H 0.71285 0.48489 0.26786
 H450 H 0.61108 0.53778 0.27810
 H451 H 0.62998 0.42674 0.30841
 H452 H 0.63036 0.44716 0.19951
 C453 C 0.85879 0.53365 0.72766
 C454 C 0.83715 0.49725 0.72771
 C455 C 0.85750 0.46765 0.73047
 C456 C 0.89824 0.47729 0.73330
 C457 C 0.88322 0.53477 0.76367
 C458 C 0.90382 0.50532 0.76701
 C459 C 0.88468 0.52885 0.69517
 C460 C 0.90532 0.49923 0.69818
 H461 H 0.80798 0.49558 0.72749
 H462 H 0.91500 0.45323 0.73579
 H463 H 0.88530 0.55817 0.78359
 H464 H 0.88577 0.54606 0.67132
 C465 C 0.22936 0.35874 0.03871
 C466 C 0.23329 0.33671 0.00154
 C467 C 0.23848 0.35731 -0.02888
 C468 C 0.23954 0.39857 -0.01921
 C469 C 0.26310 0.38427 0.04316
 C470 C 0.26849 0.40558 0.01320
 C471 C 0.19850 0.38391 0.03033
 C472 C 0.20379 0.40468 -0.00018
 H473 H 0.23258 0.30719 -0.00011
 H474 H 0.24387 0.41551 -0.04394
 H475 H 0.28130 0.38443 0.06790
 H476 H 0.17430 0.38428 0.04621
 C477 C 0.74161 0.16593 -0.04017
 C478 C 0.75022 0.18427 -0.00079
 C479 C 0.75979 0.16065 0.02599
 C480 C 0.76020 0.12091 0.01093
 C481 C 0.77490 0.14505 -0.04954
 C482 C 0.78508 0.12186 -0.02281
 C483 C 0.71252 0.13615 -0.03401
 C484 C 0.72212 0.11268 -0.00713
 H485 H 0.74858 0.21329 0.00525
 H486 H 0.76743 0.10172 0.03295
 H487 H 0.78934 0.14856 -0.07515
 H488 H 0.68592 0.13515 -0.04796
 C489 C 0.26019 0.64834 0.45281
 C490 C 0.26530 0.66863 0.49163
 C491 C 0.26637 0.64636 0.52130
 C492 C 0.26276 0.60568 0.50938
 C493 C 0.29088 0.62235 0.45154
 C494 C 0.29257 0.60008 0.48123
 C495 C 0.22608 0.62338 0.45528
 C496 C 0.22729 0.60128 0.48516
 H497 H 0.26834 0.69807 0.49500
 H498 H 0.26387 0.58749 0.53355
 H499 H 0.30835 0.62069 0.42795
 H500 H 0.20238 0.62488 0.43659
 C501 C 0.73623 0.85279 0.52976
 C502 C 0.74281 0.83719 0.48999
 C503 C 0.74949 0.86275 0.46434
 C504 C 0.74942 0.90209 0.48096
 C505 C 0.76942 0.87781 0.54062
 C506 C 0.77644 0.90390 0.51560
 C507 C 0.70539 0.87853 0.52394
 C508 C 0.71236 0.90430 0.49832
 H509 H 0.74224 0.80817 0.48278
 H510 H 0.75448 0.92275 0.45976
 H511 H 0.78513 0.87593 0.56695
 H512 H 0.67986 0.87550 0.53730
 C513 C 0.05357 0.22318 0.33409
 C514 C 0.01731 0.22421 0.31212
 C515 C -0.01041 0.23368 0.33356
 C516 C 0.00061 0.24115 0.37583
 C517 C 0.05923 0.26079 0.35434
 C518 C 0.03188 0.27040 0.37638
 C519 C 0.04632 0.19676 0.36547
 C520 C 0.01840 0.20608 0.38727
 H521 H 0.01372 0.21709 0.28203
 H522 H -0.02197 0.24833 0.39368
 H523 H 0.08302 0.27844 0.35124
 H524 H 0.05976 0.17146 0.36773
 C525 C -0.04589 0.76756 0.14439
 C526 C -0.00909 0.76721 0.16539
 C527 C 0.01945 0.76931 0.14255
 C528 C 0.00835 0.77209 0.10054
 C529 C -0.04421 0.80230 0.12265
 C530 C -0.01563 0.80512 0.09987
 C531 C -0.04623 0.73670 0.11369
 C532 C -0.01759 0.73853 0.09122
 H533 H -0.00643 0.76743 0.19598
 H534 H 0.03142 0.77423 0.08175
 H535 H -0.06477 0.82206 0.12437
 H536 H -0.06646 0.71436 0.11120
 C537 C 0.44221 0.25071 0.66686
 C538 C 0.47863 0.26020 0.68785
 C539 C 0.50701 0.26201 0.66464
 C540 C 0.49608 0.25438 0.62248
 C541 C 0.43896 0.27953 0.63745
 C542 C 0.46702 0.28156 0.61400
 C543 C 0.44768 0.21500 0.64398
 C544 C 0.47562 0.21687 0.62065
 H545 H 0.48111 0.26621 0.71813
 H546 H 0.51899 0.25623 0.60347
 H547 H 0.41684 0.29753 0.63692
 H548 H 0.43089 0.19031 0.64600
 C549 C 0.53464 0.72025 0.84799
 C550 C 0.49893 0.71845 0.82460
 C551 C 0.46935 0.72216 0.84529
 C552 C 0.47797 0.72667 0.88827
 C553 C 0.53465 0.75593 0.87206
 C554 C 0.50507 0.75962 0.89309
 C555 C 0.52990 0.69026 0.87640
 C556 C 0.50016 0.69363 0.89747
 H557 H 0.49732 0.71499 0.79394
 H558 H 0.45394 0.72927 0.90556
 H559 H 0.55737 0.77563 0.87366
 H560 H 0.54674 0.66722 0.87805
 C561 C 0.11579 0.20441 0.31967
 C562 C 0.08332 0.21478 0.30801
 H563 H 0.12090 0.19757 0.34879
 H564 H 0.07893 0.22126 0.27866
 C565 C 0.59351 0.69789 0.82335
 C566 C 0.56623 0.72043 0.82252
 H567 H 0.59457 0.67675 0.84346
 H568 H 0.56607 0.74140 0.80211
 C569 C 0.40665 0.74171 0.83949
 C570 C 0.43324 0.72213 0.82634
 H571 H 0.41073 0.75774 0.86598
 H572 H 0.42997 0.70847 0.79851
 C573 C -0.07395 0.25203 0.33104
 C574 C -0.04719 0.23380 0.31618
 H575 H -0.06928 0.26764 0.35770
 H576 H -0.05139 0.21955 0.28874
 C577 C -0.08313 0.73479 0.18904
 C578 C -0.07640 0.76515 0.17082
 H579 H -0.06818 0.71086 0.18264
 H580 H -0.09133 0.78915 0.17693
 C581 C 0.37872 0.23379 0.67973
 C582 C 0.41053 0.24974 0.69207
 H583 H 0.37658 0.21927 0.65225
 H584 H 0.41326 0.26453 0.71938
 C585 C 0.55687 0.26790 0.71345
 C586 C 0.54478 0.27169 0.67768
 H587 H 0.53882 0.25663 0.73354
 H588 H 0.56304 0.28097 0.65678
 C589 C 0.06719 0.76024 0.19105
 C590 C 0.05752 0.77130 0.15677
 H591 H 0.04734 0.74760 0.20833
 H592 H 0.07764 0.78256 0.13884
 C593 C 0.34850 0.08013 0.21556
 C594 C 0.33903 0.04823 0.22998
 H595 H 0.37447 0.08403 0.20330
 H596 H 0.31298 0.04497 0.24227
 C597 C 0.82842 0.58778 0.70053
 C598 C 0.83378 0.56491 0.72831
 H599 H 0.84355 0.58605 0.67523
 H600 H 0.81833 0.56767 0.75343
 C601 C 0.80867 0.41998 0.71940
 C602 C 0.84179 0.43026 0.73384
 H603 H 0.79399 0.43822 0.70201
 H604 H 0.85757 0.41132 0.74915
 C605 C 0.31986 -0.09796 0.22877
 C606 C 0.35052 -0.08537 0.24739
 H607 H 0.30767 -0.08127 0.20776
 H608 H 0.36498 -0.10233 0.26641
 C609 C 0.18918 -0.09264 0.75951
 C610 C 0.16428 -0.08257 0.73390
 H611 H 0.19281 -0.07757 0.78664
 H612 H 0.16051 -0.09710 0.70659
 C613 C 0.70084 0.40582 0.27770
 C614 C 0.67714 0.41794 0.25220
 H615 H 0.70807 0.42208 0.30355
 H616 H 0.67008 0.40205 0.22614
 C617 C 0.72013 0.56091 0.28431
 C618 C 0.68442 0.55428 0.28353
 H619 H 0.73800 0.53921 0.27879
 H620 H 0.66704 0.57658 0.28855
 C621 C 0.17166 0.06591 0.74363
 C622 C 0.14589 0.05074 0.76376
 H623 H 0.18431 0.04955 0.72218
 H624 H 0.13084 0.06746 0.78279
 C625 C 0.25037 0.31225 0.08181
 C626 C 0.22469 0.33489 0.07195
 H627 H 0.27460 0.31173 0.06591
 H628 H 0.20022 0.33592 0.08734
 C629 C 0.71621 0.82801 0.59073
 C630 C 0.73073 0.82303 0.55707
 H631 H 0.70461 0.85363 0.59839
 H632 H 0.74207 0.79713 0.54999
 C633 C 0.73640 0.82486 0.40639
 C634 C 0.75567 0.85278 0.42431
 H635 H 0.71385 0.81236 0.42026
 H636 H 0.77683 0.86739 0.41035
 C637 C 0.22549 0.30922 -0.07876
 C638 C 0.24218 0.34131 -0.06758
 H639 H 0.20741 0.29583 -0.06003
 H640 H 0.25811 0.35636 -0.08703
 C641 C 0.75453 0.21604 -0.08310
 C642 C 0.73076 0.19200 -0.06959
 H643 H 0.78254 0.21675 -0.07312
 H644 H 0.70287 0.19083 -0.07996
 C645 C 0.23360 0.69684 0.41596
 C646 C 0.25970 0.67358 0.42049
 H647 H 0.21140 0.69642 0.43478
 H648 H 0.28144 0.67326 0.40111
 C649 C 0.25644 0.69123 0.57255
 C650 C 0.27025 0.65989 0.56129
 H651 H 0.24104 0.70624 0.55239
 H652 H 0.28319 0.64317 0.58170
 C653 C 0.74880 0.19685 0.08377
 C654 C 0.76750 0.17150 0.06625
 H655 H 0.72708 0.20922 0.06843
 H656 H 0.78707 0.15671 0.08211
 C657 C 0.44420 0.32910 0.57317
 C658 C 0.47092 0.30836 0.58438
 H659 H 0.41790 0.32610 0.58477
 H660 H 0.49680 0.31103 0.57173
 C661 C -0.02135 0.86929 0.08495
 C662 C -0.00840 0.83668 0.07647
 H663 H -0.03608 0.87350 0.11034
 H664 H 0.00774 0.83283 0.05202
 C665 C 0.02093 0.69678 0.05680
 C666 C -0.01179 0.70869 0.06321
 H667 H 0.04458 0.71032 0.07123
 H668 H -0.03555 0.69349 0.05105
 C669 C 0.51573 0.17930 0.58296
 C670 C 0.48289 0.18580 0.59470
 H671 H 0.53886 0.19647 0.59354
 H672 H 0.46052 0.16660 0.58652
 C673 C 0.02114 0.15809 0.43397
 C674 C 0.00243 0.18231 0.41528
 H675 H 0.04988 0.15685 0.43079
 H676 H -0.02567 0.18535 0.42093
 C677 C 0.51125 0.64706 0.94402
 C678 C 0.48814 0.66669 0.92453
 H679 H 0.54000 0.65187 0.94155
 H680 H 0.45962 0.66402 0.92942
 C681 C 0.51550 0.82435 0.91221
 C682 C 0.50065 0.79164 0.91930
 H683 H 0.52836 0.82777 0.88565
 H684 H 0.48605 0.78795 0.94475
 C685 C 0.01300 0.31584 0.42543
 C686 C 0.03335 0.30668 0.39651
 H687 H -0.00607 0.29607 0.43598
 H688 H 0.05365 0.32627 0.38783
 C689 C 0.35037 0.57356 0.46764
 C690 C 0.31926 0.57191 0.48525
 H691 H 0.35751 0.59689 0.45151
 H692 H 0.31290 0.54942 0.50284
 C693 C 0.83435 0.08439 0.00036
 C694 C 0.81727 0.10059 -0.02773
 H695 H 0.82459 0.08584 0.02870
 H696 H 0.82802 0.09964 -0.05566
 C697 C 0.67405 0.06487 -0.01785
 C698 C 0.69678 0.08458 0.00628
 H699 H 0.67598 0.06745 -0.04809
 H700 H 0.69734 0.07964 0.03625
 C701 C 0.17329 0.56050 0.47066
 C702 C 0.19614 0.57835 0.49621
 H703 H 0.17858 0.56086 0.44080
 H704 H 0.19276 0.57514 0.52615
 C705 C 0.15840 0.45071 0.00771
 C706 C 0.17730 0.42967 -0.01511
 H707 H 0.16313 0.45038 0.03815
 H708 H 0.17527 0.43264 -0.04544
 C709 C 0.66557 0.94762 0.51053
 C710 C 0.68597 0.93040 0.48598
 H711 H 0.66930 0.94366 0.54059
 H712 H 0.68488 0.93710 0.45647
 C713 C 0.81433 0.95985 0.50325
 C714 C 0.80600 0.93180 0.52457
 H715 H 0.80015 0.96291 0.47634
 H716 H 0.82153 0.92897 0.55078
 C717 C 0.31645 0.44676 0.04406
 C718 C 0.29905 0.43303 0.01212
 H719 H 0.30722 0.43913 0.07126
 H720 H 0.30736 0.44163 -0.01514
 C721 C 0.58944 0.46547 0.35957
 C722 C 0.59076 0.48691 0.33006
 H723 H 0.60947 0.44552 0.36379
 H724 H 0.57171 0.50798 0.32689
 C725 C 0.04461 -0.01015 0.82324
 C726 C 0.06955 -0.03395 0.81515
 H727 H 0.03810 0.01076 0.80400
 H728 H 0.07440 -0.05554 0.83420
 C729 C 0.03771 0.01068 0.68738
 C730 C 0.06843 -0.00598 0.68280
 H731 H 0.02632 0.01284 0.71499
 H732 H 0.07759 -0.01090 0.65442
 C733 C 0.56436 0.49079 0.18834
 C734 C 0.59271 0.51002 0.20470
 H735 H 0.55747 0.46371 0.19749
 H736 H 0.59762 0.53838 0.19861
 C737 C 0.45564 -0.00658 0.15894
 C738 C 0.43793 -0.02995 0.18024
 H739 H 0.45230 0.02241 0.16328
 H740 H 0.44348 -0.05860 0.17844
 C741 C 0.94813 0.51031 0.64779
 C742 C 0.93056 0.48716 0.66948
 H743 H 0.94524 0.53937 0.65198
 H744 H 0.93574 0.45843 0.66731
 C745 C 0.92624 0.51825 0.83299
 C746 C 0.93052 0.50186 0.79895
 H747 H 0.90174 0.53214 0.83791
 H748 H 0.95388 0.48611 0.79416
 C749 C 0.43156 0.01249 0.34172
 C750 C 0.43633 -0.00630 0.30905
 H751 H 0.40693 0.02652 0.34530
 H752 H 0.45975 -0.02236 0.30607
   
