data_POSCAR
  _audit_creation_date              2014-09-24
  _audit_creation_method            'ToBaCCo'
  _symmetry_space_group_name_H-M    'P1'
  _symmetry_Int_Tables_number       1
  _symmetry_cell_setting            triclinic
  loop_
  _symmetry_equiv_pos_as_xyz
 x,y,z
_cell_length_a 38.4088
_cell_length_b 38.4040
_cell_length_c 28.0486
_cell_angle_alpha 89.500000
_cell_angle_beta 90.256100
_cell_angle_gamma 89.358200
loop_
  _atom_site_label
  _atom_site_type_symbol
  _atom_site_fract_x
  _atom_site_fract_y
  _atom_site_fract_z
C1 C -0.10022 0.32192 0.03055
 C2 C -0.10139 0.32320 -0.01842
 C3 C -0.07398 0.30262 -0.03438
 N4 N -0.05549 0.28983 0.00303
 C5 C -0.07182 0.30111 0.04265
 C6 C -0.06698 0.29349 -0.08219
 C7 C -0.03217 0.28612 -0.09620
 C8 C -0.02225 0.26882 -0.13731
 C9 C 0.01354 0.26872 -0.13839
 C10 C 0.02478 0.28600 -0.09793
 N11 N -0.00329 0.29623 -0.07225
 C12 C 0.05996 0.29341 -0.08626
 C13 C 0.06888 0.30284 -0.03906
 C14 C 0.09634 0.32376 -0.02537
 C15 C 0.09752 0.32279 0.02362
 C16 C 0.07044 0.30175 0.03809
 N17 N 0.05263 0.29008 -0.00016
 C18 C 0.06323 0.29131 0.08539
 C19 C 0.02915 0.28195 0.09849
 C20 C 0.01988 0.26470 0.14013
 C21 C -0.01596 0.26435 0.14118
 C22 C -0.02748 0.28143 0.10016
 N23 N 0.00016 0.29174 0.07423
 C24 C -0.06237 0.29015 0.08912
 H25 H -0.11806 0.33492 0.05447
 H26 H -0.12023 0.33765 -0.03977
 H27 H -0.00075 0.30817 0.04446
 H28 H -0.03884 0.25687 -0.16364
 H29 H 0.02925 0.25670 -0.16573
 H30 H 0.11364 0.33830 -0.04826
 H31 H 0.11592 0.33628 0.04598
 H32 H -0.03162 0.25322 0.16930
 H33 H -0.00280 0.31193 -0.04211
 H34 H 0.03702 0.25384 0.16728
 C35 C 0.60244 0.73632 0.53285
 C36 C 0.60271 0.73848 0.48403
 C37 C 0.57256 0.75627 0.47056
 N38 N 0.55381 0.76480 0.50949
 C39 C 0.57199 0.75253 0.54757
 C40 C 0.56335 0.76566 0.42326
 C41 C 0.52980 0.77797 0.41037
 C42 C 0.52152 0.79405 0.36732
 C43 C 0.48600 0.79886 0.36665
 C44 C 0.47345 0.78555 0.40937
 N45 N 0.50042 0.77294 0.43581
 C46 C 0.43776 0.78166 0.42044
 C47 C 0.42583 0.77329 0.46697
 C48 C 0.39182 0.76528 0.47896
 C49 C 0.39154 0.75874 0.52695
 C50 C 0.42495 0.76471 0.54363
 N51 N 0.44582 0.77362 0.50686
 C52 C 0.43538 0.76347 0.59220
 C53 C 0.47033 0.76682 0.60717
 C54 C 0.48063 0.77414 0.65345
 C55 C 0.51640 0.77251 0.65434
 C56 C 0.52699 0.76398 0.60866
 N57 N 0.49872 0.76069 0.58009
 C58 C 0.56175 0.75662 0.59552
 H59 H 0.62210 0.72363 0.55486
 H60 H 0.62272 0.72781 0.46121
 H61 H 0.49852 0.75041 0.54597
 H62 H 0.53917 0.80096 0.33887
 H63 H 0.47118 0.80996 0.33727
 H64 H 0.36911 0.76423 0.45623
 H65 H 0.36894 0.75070 0.54685
 H66 H 0.53269 0.77648 0.68536
 H67 H 0.49858 0.75742 0.46616
 H68 H 0.46405 0.77976 0.68359
 C69 C 1.09724 0.68264 -0.01909
 C70 C 1.09837 0.68220 0.02985
 C71 C 1.07314 0.70564 0.04492
 N72 N 1.05638 0.72007 0.00709
 C73 C 1.07171 0.70674 -0.03217
 C74 C 1.06654 0.71501 0.09269
 C75 C 1.03199 0.72259 0.10742
 C76 C 1.02240 0.73755 0.15045
 C77 C 0.98661 0.73781 0.15184
 C78 C 0.97517 0.72346 0.10948
 N79 N 1.00294 0.71433 0.08259
 C80 C 0.93992 0.71775 0.09742
 C81 C 0.92941 0.71266 0.04957
 C82 C 0.89714 0.70113 0.03457
 C83 C 0.89595 0.70570 -0.01400
 C84 C 0.92816 0.71838 -0.02737
 N85 N 0.94846 0.72263 0.01156
 C86 C 0.93754 0.72978 -0.07350
 C87 C 0.97250 0.73557 -0.08630
 C88 C 0.98317 0.75289 -0.12720
 C89 C 1.01880 0.74948 -0.12908
 C90 C 1.02896 0.72987 -0.08945
 N91 N 1.00055 0.72174 -0.06345
 C92 C 1.06320 0.71782 -0.07915
 H93 H 1.11305 0.66663 -0.04227
 H94 H 1.11540 0.66614 0.05191
 H95 H 1.00008 0.70440 -0.03468
 H96 H 1.03913 0.74748 0.17816
 H97 H 0.97085 0.74782 0.18064
 H98 H 0.87620 0.69117 0.05625
 H99 H 0.87365 0.70046 -0.03627
 H100 H 1.03513 0.76024 -0.15674
 H101 H 1.00220 0.70020 0.05105
 H102 H 0.96701 0.76611 -0.15353
 C103 C 0.60402 0.20989 0.47948
 C104 C 0.60438 0.21510 0.52782
 C105 C 0.57193 0.22860 0.53967
 N106 N 0.55242 0.23301 0.49982
 C107 C 0.57212 0.22213 0.46284
 C108 C 0.56148 0.23999 0.58531
 C109 C 0.52608 0.24489 0.59771
 C110 C 0.51455 0.26000 0.63966
 C111 C 0.47896 0.25658 0.64058
 C112 C 0.46959 0.23962 0.59910
 N113 N 0.49847 0.23241 0.57330
 C114 C 0.43525 0.22990 0.58698
 C115 C 0.42578 0.22261 0.53923
 C116 C 0.39450 0.20875 0.52409
 C117 C 0.39414 0.21112 0.47521
 C118 C 0.42597 0.22472 0.46191
 N119 N 0.44511 0.23182 0.50108
 C120 C 0.43594 0.23392 0.41512
 C121 C 0.47104 0.23902 0.40212
 C122 C 0.48188 0.25229 0.35851
 C123 C 0.51758 0.24960 0.35792
 C124 C 0.52765 0.23494 0.40125
 N125 N 0.49913 0.22840 0.42789
 C126 C 0.56231 0.22648 0.41436
 H127 H 0.62520 0.19876 0.45918
 H128 H 0.62628 0.20932 0.55087
 H129 H 0.49871 0.21405 0.45953
 H130 H 0.53013 0.27158 0.66743
 H131 H 0.46196 0.26561 0.66867
 H132 H 0.37374 0.19837 0.54571
 H133 H 0.37279 0.20346 0.45259
 H134 H 0.53419 0.25758 0.32883
 H135 H 0.49957 0.21657 0.54341
 H136 H 0.46578 0.26212 0.32953
 C137 C 0.71493 -0.10560 -0.02334
 C138 C 0.71867 -0.10685 0.02526
 C139 C 0.73452 -0.07602 0.03858
 N140 N 0.74191 -0.05708 -0.00098
 C141 C 0.73079 -0.07540 -0.03892
 C142 C 0.74651 -0.06667 0.08473
 C143 C 0.75478 -0.03166 0.09484
 C144 C 0.77208 -0.02002 0.13531
 C145 C 0.76804 0.01559 0.13612
 C146 C 0.74842 0.02474 0.09633
 N147 N 0.74081 -0.00403 0.07117
 C148 C 0.73490 0.05826 0.08629
 C149 C 0.72347 0.06734 0.03977
 C150 C 0.70406 0.09648 0.02716
 C151 C 0.70387 0.09811 -0.02169
 C152 C 0.72181 0.06879 -0.03783
 N153 N 0.73369 0.05026 0.00021
 C154 C 0.73258 0.06111 -0.08515
 C155 C 0.74275 0.02658 -0.09744
 C156 C 0.75917 0.01691 -0.13948
 C157 C 0.76010 -0.01885 -0.14027
 C158 C 0.74401 -0.03040 -0.09897
 N159 N 0.73364 -0.00257 -0.07303
 C160 C 0.73769 -0.06578 -0.08697
 H161 H 0.70225 -0.12518 -0.04457
 H162 H 0.71063 -0.12860 0.04685
 H163 H 0.71784 -0.00354 -0.04294
 H164 H 0.78489 -0.03534 0.16286
 H165 H 0.77760 0.03261 0.16368
 H166 H 0.69177 0.11518 0.05048
 H167 H 0.69166 0.11915 -0.04118
 H168 H 0.77133 -0.03442 -0.16838
 H169 H 0.72269 -0.00516 0.04347
 H170 H 0.76871 0.03353 -0.16773
 C171 C 0.21923 0.39425 0.46387
 C172 C 0.22624 0.39349 0.51187
 C173 C 0.23972 0.42573 0.52322
 N174 N 0.24196 0.44573 0.48341
 C175 C 0.22972 0.42647 0.44694
 C176 C 0.25279 0.43531 0.56848
 C177 C 0.26198 0.46984 0.57974
 C178 C 0.28067 0.47940 0.61990
 C179 C 0.28098 0.51516 0.62043
 C180 C 0.26250 0.52663 0.58056
 N181 N 0.25083 0.49878 0.55614
 C182 C 0.25454 0.56195 0.56993
 C183 C 0.24202 0.57339 0.52476
 C184 C 0.23333 0.60754 0.51283
 C185 C 0.22498 0.60789 0.46531
 C186 C 0.22929 0.57407 0.44929
 N187 N 0.24000 0.55314 0.48559
 C188 C 0.22656 0.56402 0.40101
 C189 C 0.23104 0.52933 0.38524
 C190 C 0.23616 0.51974 0.33825
 C191 C 0.23784 0.48398 0.33763
 C192 C 0.23293 0.47244 0.38415
 N193 N 0.22876 0.50036 0.41290
 C194 C 0.23023 0.43698 0.39829
 H195 H 0.20786 0.37325 0.44385
 H196 H 0.22198 0.37146 0.53526
 H197 H 0.22090 0.49970 0.44826
 H198 H 0.29222 0.46248 0.64681
 H199 H 0.29291 0.53079 0.64778
 H200 H 0.23385 0.63027 0.53524
 H201 H 0.21780 0.63081 0.44464
 H202 H 0.24186 0.46840 0.30613
 H203 H 0.23266 0.49935 0.52859
 H204 H 0.23840 0.53658 0.30735
 C205 C 0.24736 0.89249 0.01453
 C206 C 0.24090 0.89325 -0.03349
 C207 C 0.25438 0.92427 -0.05088
 N208 N 0.26743 0.94316 -0.01463
 C209 C 0.26320 0.92364 0.02519
 C210 C 0.25654 0.93412 -0.09963
 C211 C 0.26102 0.96936 -0.11347
 C212 C 0.27190 0.98041 -0.15817
 C213 C 0.27229 1.01615 -0.15743
 C214 C 0.26148 1.02616 -0.11235
 N215 N 0.25485 0.99744 -0.08568
 C216 C 0.25625 1.06102 -0.09758
 C217 C 0.25185 1.06921 -0.04875
 C218 C 0.23258 1.09718 -0.03191
 C219 C 0.23549 1.09628 0.01674
 C220 C 0.25679 1.06799 0.02826
 N221 N 0.26621 1.05096 -0.01190
 C222 C 0.26782 1.05848 0.07512
 C223 C 0.27755 1.02368 0.08655
 C224 C 0.29588 1.01296 0.12704
 C225 C 0.29833 0.97716 0.12554
 C226 C 0.28139 0.96704 0.08434
 N227 N 0.26881 0.99548 0.06084
 C228 C 0.27603 0.93230 0.07046
 H229 H 0.24076 0.87165 0.03900
 H230 H 0.22784 0.87310 -0.05321
 H231 H 0.25229 0.99552 0.03131
 H232 H 0.27935 0.96444 -0.18812
 H233 H 0.27999 1.03275 -0.18683
 H234 H 0.21717 1.11574 -0.05247
 H235 H 0.22262 1.11404 0.04085
 H236 H 0.31084 0.96051 0.15198
 H237 H 0.24362 0.99715 -0.05196
 H238 H 0.30655 1.02917 0.15475
 C239 C 0.74104 0.38795 0.52177
 C240 C 0.73789 0.38963 0.47310
 C241 C 0.74836 0.42265 0.45939
 N242 N 0.75758 0.44125 0.49808
 C243 C 0.75295 0.42013 0.53626
 C244 C 0.75082 0.43468 0.41176
 C245 C 0.75639 0.46985 0.39962
 C246 C 0.76623 0.48163 0.35484
 C247 C 0.76619 0.51737 0.35662
 C248 C 0.75618 0.52638 0.40238
 N249 N 0.75034 0.49726 0.42839
 C250 C 0.74977 0.56071 0.41770
 C251 C 0.74495 0.56931 0.46606
 C252 C 0.73047 0.60020 0.48216
 C253 C 0.73141 0.59851 0.53100
 C254 C 0.74680 0.56678 0.54311
 N255 N 0.75498 0.54893 0.50332
 C256 C 0.75480 0.55537 0.59004
 C257 C 0.76357 0.52040 0.60115
 C258 C 0.77882 0.50913 0.64352
 C259 C 0.78078 0.47335 0.64163
 C260 C 0.76633 0.46372 0.59836
 N261 N 0.75605 0.49259 0.57384
 C262 C 0.76068 0.42899 0.58385
 H263 H 0.73486 0.36568 0.54395
 H264 H 0.72880 0.36887 0.45055
 H265 H 0.74096 0.49313 0.54297
 H266 H 0.77239 0.46609 0.32392
 H267 H 0.77221 0.53474 0.32727
 H268 H 0.71984 0.62152 0.46100
 H269 H 0.72160 0.61835 0.55473
 H270 H 0.79129 0.45638 0.66927
 H271 H 0.73860 0.49621 0.46167
 H272 H 0.78748 0.52502 0.67286
 O273 O 0.24124 0.28076 0.17392
 O274 O 0.31056 0.24972 0.25519
 O275 O 0.28689 0.23121 0.17207
 O276 O 0.26583 0.30126 0.25662
 O277 O 0.23150 0.26540 0.29593
 O278 O 0.24881 0.19699 0.20739
 O279 O 0.27408 0.21318 0.28933
 O280 O 0.20352 0.24825 0.21280
 Cu281 Cu 0.27978 0.26937 0.21095
 Cu282 Cu 0.23536 0.22775 0.25489
 C283 C 0.21061 0.26942 0.17922
 C284 C 0.30428 0.22590 0.28565
 C285 C 0.27125 0.20234 0.17503
 C286 C 0.24605 0.29479 0.29168
 O287 O 0.75606 0.80524 0.23914
 O288 O 0.78256 0.73231 0.31803
 O289 O 0.80500 0.75784 0.23698
 O290 O 0.73639 0.78196 0.32206
 O291 O 0.69967 0.74731 0.28522
 O292 O 0.76731 0.72603 0.19722
 O293 O 0.74656 0.69834 0.27882
 O294 O 0.71775 0.77161 0.20350
 Cu295 Cu 0.77384 0.77268 0.28276
 Cu296 Cu 0.72935 0.73204 0.23753
 C297 C 0.73218 0.80086 0.20822
 C298 C 0.76847 0.70291 0.31215
 C299 C 0.79754 0.73871 0.20179
 C300 C 0.70642 0.76869 0.31828
 O301 O 0.71926 0.23035 0.18695
 O302 O 0.74346 0.30209 0.26610
 O303 O 0.76319 0.27972 0.18298
 O304 O 0.69568 0.25460 0.26872
 O305 O 0.73403 0.22192 0.30800
 O306 O 0.80125 0.24545 0.22035
 O307 O 0.78194 0.26786 0.30267
 O308 O 0.75594 0.19557 0.22589
 Cu309 Cu 0.72635 0.27002 0.22269
 Cu310 Cu 0.77185 0.22884 0.26784
 C311 C 0.73443 0.20103 0.19206
 C312 C 0.76688 0.29720 0.29778
 C313 C 0.79353 0.26665 0.18674
 C314 C 0.70367 0.23509 0.30395
 O315 O 0.27254 0.76118 0.31142
 O316 O 0.20518 0.74607 0.22048
 O317 O 0.23779 0.70852 0.28345
 O318 O 0.23858 0.80132 0.24903
 O319 O 0.27903 0.79013 0.19550
 O320 O 0.27992 0.69757 0.23217
 O321 O 0.24618 0.73467 0.16775
 O322 O 0.31366 0.75220 0.25793
 Cu323 Cu 0.23442 0.75582 0.27129
 Cu324 Cu 0.28373 0.74272 0.20787
 C325 C 0.30449 0.75832 0.30050
 C326 C 0.21424 0.73720 0.17877
 C327 C 0.25916 0.68737 0.26444
 C328 C 0.25852 0.81148 0.21586
 O329 O 0.75470 0.28371 0.83292
 O330 O 0.68799 0.26043 0.74391
 O331 O 0.70872 0.23474 0.82431
 O332 O 0.73106 0.31190 0.75311
 O333 O 0.76906 0.28071 0.71235
 O334 O 0.74910 0.20396 0.78718
 O335 O 0.72694 0.22797 0.70658
 O336 O 0.79427 0.25459 0.79205
 Cu337 Cu 0.71691 0.27605 0.79252
 Cu338 Cu 0.76400 0.23890 0.74573
 C339 C 0.78589 0.27313 0.82753
 C340 C 0.69601 0.23939 0.71082
 C341 C 0.72467 0.20615 0.81754
 C342 C 0.75323 0.30936 0.71987
 O343 O 0.24027 0.79297 0.77441
 O344 O 0.21705 0.71969 0.69717
 O345 O 0.19592 0.74269 0.77987
 O346 O 0.26179 0.77070 0.69297
 O347 O 0.30114 0.73800 0.73028
 O348 O 0.23528 0.70944 0.81628
 O349 O 0.25706 0.68676 0.73272
 O350 O 0.27915 0.75956 0.81162
 Cu351 Cu 0.22468 0.75960 0.73223
 Cu352 Cu 0.27199 0.71977 0.77616
 C353 C 0.26360 0.78868 0.80625
 C354 C 0.23339 0.69092 0.70131
 C355 C 0.20464 0.72200 0.81357
 C356 C 0.29291 0.75968 0.69757
 O357 O 0.25471 0.31134 0.73507
 O358 O 0.27903 0.23637 0.81180
 O359 O 0.30132 0.26212 0.73071
 O360 O 0.23439 0.28691 0.81806
 O361 O 0.19584 0.25442 0.78098
 O362 O 0.26221 0.23190 0.69121
 O363 O 0.24144 0.20389 0.77302
 O364 O 0.21474 0.27964 0.69950
 Cu365 Cu 0.27124 0.27736 0.77765
 Cu366 Cu 0.22489 0.23892 0.73250
 C367 C 0.23062 0.30819 0.70417
 C368 C 0.26397 0.20747 0.80588
 C369 C 0.29285 0.24372 0.69521
 C370 C 0.20392 0.27470 0.81477
 O371 O 0.73506 0.77597 0.69523
 O372 O 0.80807 0.74613 0.77148
 O373 O 0.78191 0.72677 0.69028
 O374 O 0.76320 0.79717 0.77504
 O375 O 0.72967 0.76156 0.81607
 O376 O 0.74601 0.69211 0.72897
 O377 O 0.77310 0.70985 0.80904
 O378 O 0.69967 0.74187 0.73562
 Cu379 Cu 0.77548 0.76510 0.72904
 Cu380 Cu 0.73323 0.72311 0.77633
 C381 C 0.70497 0.76360 0.70210
 C382 C 0.80303 0.72269 0.80295
 C383 C 0.76726 0.69750 0.69515
 C384 C 0.74407 0.79097 0.81083
 C385 C 0.26773 0.08320 0.11238
 C386 C 0.27342 0.11730 0.10578
 C387 C 0.26900 0.14236 0.14481
 C388 C 0.27871 0.17546 0.13932
 H389 H 0.28126 0.12712 0.07116
 H390 H 0.25661 0.13397 0.17755
 H391 H 0.26444 0.07400 0.14873
 H392 H 0.29216 0.18334 0.10714
 C393 C 0.75297 0.58056 0.62989
 C394 C 0.76782 0.61184 0.62747
 C395 C 0.76217 0.63782 0.66495
 C396 C 0.77485 0.66994 0.66049
 H397 H 0.78290 0.61891 0.59632
 H398 H 0.74632 0.63102 0.69547
 H399 H 0.73927 0.57291 0.66196
 H400 H 0.79079 0.67649 0.62996
 C401 C 0.75341 0.90802 0.12025
 C402 C 0.73063 0.88405 0.13415
 C403 C 0.74053 0.85770 0.17009
 C404 C 0.72115 0.82951 0.17652
 H405 H 0.70429 0.88428 0.12032
 H406 H 0.76496 0.86025 0.18924
 H407 H 0.77745 0.90979 0.14038
 H408 H 0.69765 0.82626 0.15552
 C409 C 0.26021 0.40787 0.60481
 C410 C 0.23512 0.38929 0.62534
 C411 C 0.24379 0.36237 0.66130
 C412 C 0.22117 0.33744 0.67230
 H413 H 0.20822 0.39336 0.61460
 H414 H 0.26970 0.36174 0.67685
 H415 H 0.28699 0.40407 0.61626
 H416 H 0.19610 0.33688 0.65440
 C417 C 0.91111 0.28724 0.12751
 C418 C 0.87814 0.27827 0.11907
 C419 C 0.85352 0.27265 0.15821
 C420 C 0.81933 0.27522 0.15020
 H421 H 0.86914 0.27398 0.08297
 H422 H 0.86334 0.26622 0.19354
 H423 H 0.91939 0.29059 0.16416
 H424 H 0.80985 0.28386 0.11555
 C425 C 0.40935 0.75635 0.62999
 C426 C 0.37886 0.77322 0.63308
 C427 C 0.35282 0.76190 0.66796
 C428 C 0.31962 0.77240 0.66451
 H429 H 0.37241 0.79408 0.60817
 H430 H 0.36064 0.74341 0.69553
 H431 H 0.41593 0.73648 0.65633
 H432 H 0.31175 0.79043 0.63641
 C433 C 0.09398 0.71707 0.12658
 C434 C 0.12759 0.72180 0.11546
 C435 C 0.15394 0.72695 0.15301
 C436 C 0.18764 0.73018 0.14225
 H437 H 0.13578 0.72427 0.07873
 H438 H 0.14561 0.72858 0.18982
 H439 H 0.08754 0.71721 0.16411
 H440 H 0.19602 0.72758 0.10558
 C441 C 0.58822 0.25140 0.62000
 C442 C 0.61234 0.23003 0.63870
 C443 C 0.63849 0.24324 0.67224
 C444 C 0.66928 0.22717 0.67741
 H445 H 0.61317 0.20283 0.62881
 H446 H 0.63296 0.26698 0.69158
 H447 H 0.58719 0.27831 0.63137
 H448 H 0.67535 0.20461 0.65589
 C449 C 0.73984 0.08823 0.88204
 C450 C 0.71878 0.11535 0.87264
 C451 C 0.73065 0.14487 0.84338
 C452 C 0.71377 0.17541 0.84500
 H453 H 0.69223 0.11566 0.88501
 H454 H 0.75409 0.14213 0.82227
 H455 H 0.76393 0.08672 0.86220
 H456 H 0.69115 0.17814 0.86772
 C457 C 0.21892 0.59208 0.36571
 C458 C 0.24321 0.60444 0.33633
 C459 C 0.23759 0.63800 0.31148
 C460 C 0.26124 0.65102 0.28161
 H461 H 0.26830 0.59135 0.33392
 H462 H 0.21470 0.65338 0.32032
 H463 H 0.19452 0.60624 0.36946
 H464 H 0.28374 0.63541 0.27183
 C465 C 0.25422 0.90884 0.86403
 C466 C 0.26633 0.87612 0.86893
 C467 C 0.25984 0.84958 0.83260
 C468 C 0.27249 0.81725 0.83843
 H469 H 0.28101 0.86845 0.90048
 H470 H 0.24338 0.85604 0.80222
 H471 H 0.24386 0.91667 0.82949
 H472 H 0.28929 0.81122 0.86863
 C473 C 0.74649 0.40987 0.37210
 C474 C 0.76575 0.38090 0.36892
 C475 C 0.75907 0.35555 0.33119
 C476 C 0.77616 0.32515 0.33069
 H477 H 0.78556 0.37524 0.39565
 H478 H 0.73863 0.36099 0.30528
 H479 H 0.72771 0.41632 0.34432
 H480 H 0.79621 0.31973 0.35716
 C481 C 0.08551 0.29021 0.87745
 C482 C 0.11979 0.28555 0.88520
 C483 C 0.14409 0.27969 0.84548
 C484 C 0.17836 0.28333 0.85186
 H485 H 0.13039 0.28372 0.92090
 H486 H 0.13395 0.27204 0.81103
 H487 H 0.07691 0.28948 0.84065
 H488 H 0.18811 0.29281 0.88562
 C489 C 0.58918 0.76123 0.38454
 C490 C 0.62135 0.77390 0.38733
 C491 C 0.64698 0.76654 0.34989
 C492 C 0.67960 0.77796 0.35333
 H493 H 0.62910 0.78871 0.41828
 H494 H 0.63934 0.75062 0.31994
 H495 H 0.58102 0.74785 0.35256
 H496 H 0.68705 0.79406 0.38318
 C497 C 0.91003 0.73992 0.89173
 C498 C 0.88777 0.71715 0.87351
 C499 C 0.86051 0.72890 0.83995
 C500 C 0.83188 0.71017 0.83334
 H501 H 0.88906 0.69001 0.88441
 H502 H 0.86297 0.75409 0.82257
 H503 H 0.90895 0.76685 0.87986
 H504 H 0.82858 0.68601 0.85302
 C505 C 0.40877 0.24320 0.37948
 C506 C 0.38663 0.22022 0.36149
 C507 C 0.36043 0.23168 0.32617
 C508 C 0.33196 0.21307 0.31785
 H509 H 0.38744 0.19329 0.37336
 H510 H 0.36357 0.25673 0.30865
 H511 H 0.40814 0.26985 0.36637
 H512 H 0.32785 0.18899 0.33738
 C513 C 0.73911 0.90930 0.87575
 C514 C 0.74575 0.87514 0.88178
 C515 C 0.74653 0.85097 0.84132
 C516 C 0.73977 0.81723 0.84828
 H517 H 0.75231 0.86432 0.91639
 H518 H 0.75276 0.86072 0.80602
 H519 H 0.73604 0.91847 0.83930
 H520 H 0.73147 0.80830 0.88316
 C521 C 0.22796 0.41041 0.35963
 C522 C 0.24386 0.37922 0.36201
 C523 C 0.24322 0.35489 0.32174
 C524 C 0.24159 0.32060 0.32970
 H525 H 0.25829 0.37139 0.39363
 H526 H 0.24456 0.36505 0.28562
 H527 H 0.21423 0.41741 0.32703
 H528 H 0.23754 0.31096 0.36568
 C529 C 0.25360 0.08735 0.86672
 C530 C 0.26289 0.12056 0.87326
 C531 C 0.25795 0.14704 0.83533
 C532 C 0.27192 0.17862 0.83934
 H533 H 0.27475 0.12839 0.90656
 H534 H 0.24179 0.14101 0.80477
 H535 H 0.24561 0.08009 0.83108
 H536 H 0.28857 0.18413 0.86962
 C537 C 0.74621 0.58819 0.38054
 C538 C 0.76451 0.61752 0.38178
 C539 C 0.75954 0.64429 0.34456
 C540 C 0.77671 0.67433 0.34573
 H541 H 0.78261 0.62196 0.41082
 H542 H 0.74032 0.63990 0.31688
 H543 H 0.72930 0.58322 0.35035
 H544 H 0.79562 0.67887 0.37374
 C545 C 0.08790 0.71785 0.88333
 C546 C 0.12260 0.71745 0.88903
 C547 C 0.14581 0.72116 0.84771
 C548 C 0.17974 0.71365 0.85155
 H549 H 0.13450 0.71715 0.92399
 H550 H 0.13524 0.73116 0.81432
 H551 H 0.07839 0.72038 0.84703
 H552 H 0.18987 0.70227 0.88437
 C553 C 0.58828 0.22367 0.37499
 C554 C 0.62086 0.23541 0.37782
 C555 C 0.64425 0.23455 0.33646
 C556 C 0.67847 0.22965 0.34256
 H557 H 0.63046 0.24702 0.41027
 H558 H 0.63349 0.23887 0.30108
 H559 H 0.57941 0.21343 0.34119
 H560 H 0.68859 0.22310 0.37770
 C561 C 0.90598 0.29039 0.88331
 C562 C 0.87215 0.28558 0.89329
 C563 C 0.84643 0.27971 0.85508
 C564 C 0.81224 0.28182 0.86373
 H565 H 0.86311 0.28350 0.92961
 H566 H 0.85554 0.27320 0.81969
 H567 H 0.91307 0.28982 0.84599
 H568 H 0.80324 0.29006 0.89847
 C569 C 0.41216 0.78675 0.38088
 C570 C 0.38987 0.76191 0.36868
 C571 C 0.36405 0.76715 0.33053
 C572 C 0.33076 0.75955 0.33860
 H573 H 0.38956 0.73750 0.38835
 H574 H 0.37236 0.77662 0.29595
 H575 H 0.41250 0.81085 0.36051
 H576 H 0.32264 0.75255 0.37438
 C577 C 0.28689 0.90281 0.10174
 C578 C 0.27039 0.89466 0.14208
 C579 C 0.27658 0.86017 0.16442
 C580 C 0.25659 0.84817 0.19972
 H581 H 0.25023 0.91182 0.15569
 H582 H 0.29626 0.84321 0.14913
 H583 H 0.30532 0.88429 0.08692
 H584 H 0.23677 0.86496 0.21496
 C585 C 0.76355 0.39993 0.61908
 C586 C 0.74566 0.40003 0.66000
 C587 C 0.74286 0.36986 0.69302
 C588 C 0.76029 0.33954 0.68869
 H589 H 0.73010 0.42280 0.66865
 H590 H 0.72430 0.37281 0.72170
 H591 H 0.77757 0.37689 0.60796
 H592 H 0.77936 0.33583 0.66095
 C593 C 0.73338 0.08357 0.12632
 C594 C 0.73925 0.11758 0.12093
 C595 C 0.73901 0.14123 0.16176
 C596 C 0.72884 0.17432 0.15579
 H597 H 0.74508 0.12847 0.08619
 H598 H 0.74811 0.13183 0.19623
 H599 H 0.72884 0.07349 0.16197
 H600 H 0.71795 0.18270 0.12178
 C601 C 0.26227 0.58816 0.60717
 C602 C 0.23769 0.60921 0.62491
 C603 C 0.24631 0.63574 0.66058
 C604 C 0.22460 0.66247 0.66869
 H605 H 0.21119 0.60767 0.61166
 H606 H 0.27135 0.63437 0.67855
 H607 H 0.28861 0.58941 0.62101
 H608 H 0.20046 0.66465 0.64864
 C609 C 0.91385 0.71876 0.13681
 C610 C 0.88208 0.73306 0.13204
 C611 C 0.85763 0.73464 0.17214
 C612 C 0.82339 0.73266 0.16423
 H613 H 0.87371 0.74429 0.09831
 H614 H 0.86764 0.73768 0.20805
 H615 H 0.92176 0.70886 0.17157
 H616 H 0.81389 0.72710 0.12866
 C617 C 0.40912 0.22893 0.62636
 C618 C 0.37609 0.24002 0.62174
 C619 C 0.35235 0.24087 0.66281
 C620 C 0.31800 0.23768 0.65659
 H621 H 0.36637 0.24974 0.58782
 H622 H 0.36302 0.24473 0.69820
 H623 H 0.41814 0.22065 0.66139
 H624 H 0.30782 0.23161 0.62155
 C625 C 0.09102 0.28977 0.12276
 C626 C 0.12436 0.28213 0.11354
 C627 C 0.14981 0.27656 0.15232
 C628 C 0.18383 0.27965 0.14404
 H629 H 0.13299 0.27825 0.07727
 H630 H 0.14071 0.26905 0.18744
 H631 H 0.08339 0.29274 0.15967
 H632 H 0.19250 0.28908 0.10957
 C633 C 0.58789 0.75117 0.63423
 C634 C 0.61873 0.76699 0.63399
 C635 C 0.64504 0.75941 0.67113
 C636 C 0.67649 0.77395 0.66941
 H637 H 0.62499 0.78483 0.60518
 H638 H 0.63920 0.74046 0.69876
 H639 H 0.58107 0.73449 0.66406
 H640 H 0.68223 0.79257 0.64132
   
