data_POSCAR
  _audit_creation_date              2014-09-24
  _audit_creation_method            'ToBaCCo'
  _symmetry_space_group_name_H-M    'P1'
  _symmetry_Int_Tables_number       1
  _symmetry_cell_setting            triclinic
  loop_
  _symmetry_equiv_pos_as_xyz
 x,y,z
_cell_length_a 26.6684
_cell_length_b 26.7264
_cell_length_c 67.4020
_cell_angle_alpha 86.544600
_cell_angle_beta 84.911800
_cell_angle_gamma 120.670700
loop_
  _atom_site_label
  _atom_site_type_symbol
  _atom_site_fract_x
  _atom_site_fract_y
  _atom_site_fract_z
C1 C -0.10986 -0.02350 0.54217
 H2 H -0.11077 -0.06156 0.54897
 C3 C -0.11227 0.01563 0.55441
 H4 H -0.11534 0.00687 0.57051
 C5 C -0.10025 0.03664 0.51303
 H6 H -0.09398 0.04518 0.49683
 C7 C -0.10144 0.07757 0.52474
 H8 H -0.09698 0.11720 0.51751
 N9 N -0.10344 -0.01227 0.52185
 C10 C -0.01975 -0.10473 0.51999
 H11 H 0.01716 -0.06988 0.50991
 C12 C -0.01205 -0.14418 0.53203
 H13 H 0.03096 -0.13935 0.53105
 C14 C -0.12099 -0.15448 0.53314
 H15 H -0.16338 -0.15816 0.53343
 C16 C -0.11529 -0.19456 0.54543
 H17 H -0.15345 -0.22833 0.55542
 Zn18 Zn -0.08770 -0.05878 0.50521
 N19 N -0.07350 -0.11016 0.52098
 C20 C 0.02790 0.03616 0.49232
 N21 N -0.02189 -0.00640 0.48605
 C22 C -0.02852 -0.00711 0.46627
 C23 C 0.01475 0.03759 0.45201
 C24 C 0.07264 0.08165 0.47847
 C25 C -0.19311 -0.09240 0.48782
 C26 C -0.23648 -0.12611 0.47609
 C27 C -0.19505 -0.18771 0.47305
 C28 C -0.15229 -0.15235 0.48453
 N29 N -0.15176 -0.10563 0.49155
 H30 H 0.03154 0.03634 0.50817
 H31 H -0.06860 -0.04082 0.46158
 H32 H 0.00794 0.03727 0.43640
 H33 H 0.11093 0.11661 0.48374
 H34 H -0.19201 -0.05513 0.49368
 H35 H -0.26915 -0.11448 0.47406
 H36 H -0.19045 -0.22189 0.46700
 H37 H -0.11810 -0.16121 0.48737
 C38 C -0.06024 -0.18969 0.54507
 C39 C -0.10673 0.06752 0.54571
 C40 C -0.23818 -0.17486 0.46810
 C41 C 0.06539 0.08349 0.45812
 C42 C 1.14418 0.10578 0.13733
 H43 H 1.14761 0.14795 0.13701
 C44 C 1.18543 0.09987 0.12523
 H45 H 1.22025 0.13772 0.11545
 C46 C 1.09307 0.00499 0.15010
 H47 H 1.05698 -0.03168 0.15988
 C48 C 1.13340 -0.00303 0.13805
 H49 H 1.12819 -0.04603 0.13866
 N50 N 1.09887 0.05871 0.14929
 C51 C 0.95782 0.09648 0.15368
 H52 H 0.95254 0.10197 0.16935
 C53 C 0.91739 0.09463 0.14137
 H54 H 0.88139 0.09941 0.14757
 C55 C 1.00810 0.07859 0.12687
 H56 H 1.04205 0.07024 0.12135
 C57 C 0.96861 0.07594 0.11418
 H58 H 0.97349 0.06692 0.09891
 Zn59 Zn 1.04628 0.07495 0.16408
 N60 N 1.00155 0.08763 0.14633
 C61 C 1.08693 0.18854 0.17742
 N62 N 1.09299 0.14102 0.17707
 C63 C 1.13335 0.13690 0.18688
 C64 C 1.16870 0.18080 0.19803
 C65 C 1.12122 0.23351 0.18864
 C66 C 0.95000 -0.03902 0.17781
 C67 C 0.90270 -0.08147 0.19173
 C68 C 0.94315 -0.01855 0.21748
 C69 C 0.98958 0.02237 0.20317
 N70 N 0.99167 0.01211 0.18368
 H71 H 1.05483 0.19107 0.16938
 H72 H 1.13703 0.09850 0.18639
 H73 H 1.19918 0.17555 0.20623
 H74 H 1.11539 0.27067 0.18916
 H75 H 0.95191 -0.04552 0.16213
 H76 H 0.86851 -0.12088 0.18672
 H77 H 0.94143 -0.00885 0.23281
 H78 H 1.02225 0.06356 0.20755
 C79 C 0.92171 0.08249 0.12154
 C80 C 1.18024 0.04491 0.12537
 C81 C 0.89813 -0.07050 0.21172
 C82 C 1.16247 0.22960 0.19923
 C83 C 0.12770 0.94047 0.85620
 H84 H 0.08751 0.89813 0.85757
 C85 C 0.17219 0.94812 0.86727
 H86 H 0.16561 0.91144 0.87730
 C87 C 0.18347 1.04009 0.84196
 H88 H 0.18743 1.07566 0.83207
 C89 C 0.22918 1.04989 0.85298
 H90 H 0.26832 1.09314 0.85147
 N91 N 0.13364 0.98616 0.84405
 C92 C -0.04847 0.94062 0.84560
 H93 H -0.05731 0.92997 0.83058
 C94 C -0.09078 0.94214 0.85899
 H95 H -0.13171 0.93248 0.85382
 C96 C 0.01829 0.97167 0.86943
 H97 H 0.06128 0.98456 0.87336
 C98 C -0.02197 0.97500 0.88307
 H99 H -0.00956 0.98766 0.89763
 Zn100 Zn 0.06677 0.96760 0.83140
 N101 N 0.00503 0.95582 0.85095
 C102 C -0.00511 0.84957 0.82199
 N103 N 0.04845 0.90004 0.81881
 C104 C 0.09357 0.90537 0.80594
 C105 C 0.08535 0.85978 0.79503
 C106 C -0.01538 0.80266 0.81129
 C107 C 0.09086 1.08073 0.81791
 C108 C 0.08825 1.12179 0.80481
 C109 C 0.06341 1.05513 0.77970
 C110 C 0.06690 1.01570 0.79315
 N111 N 0.07931 1.02850 0.81199
 H112 H -0.04003 0.84583 0.83260
 H113 H 0.13579 0.94593 0.80381
 H114 H 0.12140 0.86599 0.78432
 H115 H -0.05838 0.76296 0.81377
 H116 H 0.09893 1.08916 0.83315
 H117 H 0.09497 1.16208 0.80998
 H118 H 0.05150 1.04333 0.76500
 H119 H 0.05622 0.97351 0.78883
 C120 C -0.07716 0.96176 0.87787
 C121 C 0.22355 1.00348 0.86593
 C122 C 0.07254 1.10818 0.78567
 C123 C 0.03014 0.80774 0.79744
 C124 C 0.45886 0.02887 -0.02248
 C125 C 0.42746 0.02811 -0.00458
 C126 C 0.44653 0.02634 0.01398
 C127 C 0.49852 0.02471 0.01483
 C128 C 0.53113 0.02577 -0.00319
 C129 C 0.51148 0.02820 -0.02192
 C130 C 0.54559 0.03110 -0.03960
 C131 C 0.59644 0.02890 -0.03887
 C132 C 0.61550 0.02418 -0.02044
 C133 C 0.58350 0.02434 -0.00247
 C134 C 0.51816 0.02090 0.03323
 C135 C 0.56997 0.02060 0.03391
 C136 C 0.60380 0.02323 0.01624
 C137 C 0.65678 0.02344 0.01678
 C138 C 0.68648 0.02107 -0.00096
 C139 C 0.66652 0.02075 -0.01949
 H140 H 0.53357 0.03550 -0.05423
 H141 H 0.62113 0.03183 -0.05296
 H142 H 0.49349 0.01775 0.04736
 H143 H 0.58275 0.01731 0.04850
 H144 H 0.38728 0.02883 -0.00509
 H145 H 0.72628 0.01971 -0.00032
 C146 C -0.03389 0.33930 0.65086
 C147 C -0.02532 0.31402 0.66800
 C148 C -0.01543 0.34018 0.68574
 C149 C -0.01599 0.39268 0.68665
 C150 C -0.02279 0.41996 0.66920
 C151 C -0.03104 0.39358 0.65116
 C152 C -0.03733 0.42161 0.63407
 C153 C -0.03445 0.47497 0.63453
 C154 C -0.02804 0.50111 0.65235
 C155 C -0.02234 0.47325 0.66989
 C156 C -0.01184 0.41756 0.70466
 C157 C -0.01259 0.46909 0.70544
 C158 C -0.01663 0.49831 0.68817
 C159 C -0.01658 0.55119 0.68874
 C160 C -0.02119 0.57854 0.67124
 C161 C -0.02673 0.55458 0.65311
 H162 H -0.04423 0.40281 0.62008
 H163 H -0.03781 0.49519 0.62073
 H164 H -0.00918 0.39679 0.71848
 H165 H -0.01027 0.48555 0.71981
 H166 H -0.02576 0.27331 0.66742
 H167 H -0.02063 0.61933 0.67175
 C168 C 0.54094 0.63741 0.35598
 C169 C 0.57586 0.67344 0.33837
 C170 C 0.56092 0.65750 0.31942
 C171 C 0.50824 0.60451 0.31791
 C172 C 0.47272 0.56693 0.33563
 C173 C 0.48905 0.58343 0.35474
 C174 C 0.45239 0.54621 0.37207
 C175 C 0.40188 0.49283 0.37069
 C176 C 0.38574 0.47470 0.35193
 C177 C 0.42061 0.51285 0.33423
 C178 C 0.48936 0.58888 0.29923
 C179 C 0.43768 0.53653 0.29789
 C180 C 0.40326 0.49728 0.31514
 C181 C 0.35117 0.44348 0.31389
 C182 C 0.31801 0.40590 0.33144
 C183 C 0.33480 0.42014 0.35037
 H184 H 0.46218 0.55815 0.38691
 H185 H 0.37507 0.46635 0.38454
 H186 H 0.51387 0.61749 0.28546
 H187 H 0.42489 0.52737 0.28313
 H188 H 0.61652 0.71389 0.33946
 H189 H 0.27914 0.36394 0.33028
 C190 C -0.08134 0.19522 0.58587
 C191 C -0.13014 0.13711 0.59017
 C192 C -0.13973 0.09636 0.57657
 C193 C -0.10161 0.11256 0.55855
 C194 C -0.05538 0.17095 0.55374
 C195 C -0.04526 0.21187 0.56720
 C196 C -0.06944 0.23571 0.60167
 C197 C -0.01893 0.29249 0.59977
 C198 C -0.00800 0.32689 0.61551
 C199 C -0.04761 0.30595 0.63332
 C200 C -0.09838 0.25011 0.63525
 C201 C -0.10924 0.21470 0.61974
 C202 C -0.16832 0.11953 0.60821
 C203 C -0.15844 0.15770 0.62258
 H204 H -0.20608 0.07528 0.61138
 H205 H -0.18891 0.14174 0.63641
 H206 H -0.17615 0.05147 0.58021
 H207 H -0.02538 0.18442 0.53990
 H208 H 0.03204 0.36950 0.61398
 H209 H -0.12851 0.23359 0.64918
 H210 H -0.00837 0.25586 0.56287
 H211 H 0.01345 0.31047 0.58651
 C212 C 0.74551 0.81555 0.25521
 C213 C 0.77207 0.79173 0.24296
 C214 C 0.82104 0.82874 0.22844
 C215 C 0.84497 0.88956 0.22629
 C216 C 0.81828 0.91287 0.23834
 C217 C 0.76922 0.87656 0.25255
 C218 C 0.69451 0.77499 0.27092
 C219 C 0.66498 0.79443 0.28376
 C220 C 0.62021 0.75564 0.29899
 C221 C 0.60333 0.69651 0.30170
 C222 C 0.63105 0.67615 0.28867
 C223 C 0.67622 0.71481 0.27327
 C224 C 0.75048 0.73141 0.24560
 C225 C 0.70389 0.69386 0.26053
 H226 H 0.77067 0.71307 0.23624
 H227 H 0.68962 0.64773 0.26222
 H228 H 0.84168 0.81048 0.21923
 H229 H 0.83542 0.95961 0.23672
 H230 H 0.59929 0.77202 0.30897
 H231 H 0.61847 0.63048 0.29092
 H232 H 0.75118 0.89739 0.26141
 H233 H 0.67619 0.83947 0.28254
 C234 C 0.34181 0.01983 -0.09193
 C235 C 0.32914 0.06468 -0.09569
 C236 C 0.29320 0.06086 -0.11028
 C237 C 0.26890 0.01243 -0.12110
 C238 C 0.28406 -0.03032 -0.11807
 C239 C 0.32016 -0.02668 -0.10377
 C240 C 0.37580 0.02277 -0.07499
 C241 C 0.38707 -0.02174 -0.06912
 C242 C 0.41538 -0.01887 -0.05239
 C243 C 0.43393 0.02872 -0.04130
 C244 C 0.42404 0.07381 -0.04719
 C245 C 0.39490 0.07106 -0.06382
 C246 C 0.35074 0.11204 -0.08441
 C247 C 0.38316 0.11530 -0.06889
 H248 H 0.34154 0.14667 -0.08739
 H249 H 0.39802 0.15238 -0.06040
 H250 H 0.28162 0.09405 -0.11246
 H251 H 0.26684 -0.06749 -0.12655
 H252 H 0.42182 -0.05453 -0.04781
 H253 H 0.43782 0.11033 -0.03845
 H254 H 0.32947 -0.06135 -0.10198
 H255 H 0.37316 -0.05984 -0.07689
 C256 C -0.04595 0.69194 0.58743
 C257 C 0.00070 0.75099 0.58271
 C258 C -0.00341 0.78892 0.56849
 C259 C -0.05342 0.76895 0.55870
 C260 C -0.09829 0.70969 0.56274
 C261 C -0.09473 0.67167 0.57687
 C262 C -0.04163 0.65397 0.60369
 C263 C -0.08763 0.59609 0.61064
 C264 C -0.08237 0.56349 0.62644
 C265 C -0.03089 0.58735 0.63542
 C266 C 0.01520 0.64468 0.62862
 C267 C 0.01007 0.67825 0.61300
 C268 C 0.05079 0.77211 0.59242
 C269 C 0.05561 0.73636 0.60709
 H270 H 0.08674 0.81715 0.58869
 H271 H 0.09515 0.75492 0.61423
 H272 H 0.03153 0.83459 0.56557
 H273 H -0.13664 0.69263 0.55501
 H274 H -0.11889 0.51972 0.63186
 H275 H 0.05465 0.66348 0.63583
 H276 H -0.13078 0.62678 0.57937
 H277 H -0.12849 0.57562 0.60443
 C278 C 0.25688 0.34210 0.24246
 C279 C 0.19807 0.32644 0.24101
 C280 C 0.16856 0.29277 0.22603
 C281 C 0.19654 0.27360 0.21258
 C282 C 0.25580 0.29197 0.21335
 C283 C 0.28575 0.32596 0.22800
 C284 C 0.28482 0.37289 0.25985
 C285 C 0.34145 0.38641 0.26351
 C286 C 0.36362 0.41094 0.28076
 C287 C 0.33038 0.42341 0.29459
 C288 C 0.27466 0.41151 0.29092
 C289 C 0.25153 0.38609 0.27378
 C290 C 0.16832 0.34251 0.25495
 C291 C 0.19458 0.37194 0.27093
 H292 H 0.12353 0.33107 0.25373
 H293 H 0.16925 0.38237 0.28153
 H294 H 0.12270 0.27865 0.22560
 H295 H 0.27868 0.27870 0.20285
 H296 H 0.40635 0.41900 0.28358
 H297 H 0.24868 0.42055 0.30179
 H298 H 0.33092 0.33783 0.22800
 H299 H 0.36872 0.37700 0.25356
 C300 C 0.80675 -0.01201 -0.08239
 C301 C 0.86846 0.02407 -0.08332
 C302 C 0.90607 0.01460 -0.09628
 C303 C 0.88385 -0.02952 -0.10910
 C304 C 0.82234 -0.06324 -0.10883
 C305 C 0.78441 -0.05505 -0.09557
 C306 C 0.76823 -0.00254 -0.06738
 C307 C 0.70649 -0.03991 -0.06361
 C308 C 0.67314 -0.03115 -0.04855
 C309 C 0.70030 0.01576 -0.03723
 C310 C 0.76142 0.05397 -0.04121
 C311 C 0.79553 0.04456 -0.05581
 C312 C 0.89259 0.06994 -0.07146
 C313 C 0.85689 0.08052 -0.05823
 H314 H 0.93992 0.09817 -0.07240
 H315 H 0.87776 0.11645 -0.04933
 H316 H 0.95312 0.04389 -0.09691
 H317 H 0.80282 -0.09804 -0.11820
 H318 H 0.62617 -0.06208 -0.04533
 H319 H 0.78269 0.08978 -0.03227
 H320 H 0.73776 -0.08287 -0.09587
 H321 H 0.68342 -0.07725 -0.07162
 C322 C 0.30209 0.03393 0.08205
 C323 C 0.24201 -0.01134 0.08550
 C324 C 0.20289 -0.00903 0.10030
 C325 C 0.22261 0.03817 0.11169
 C326 C 0.28264 0.08148 0.10886
 C327 C 0.32193 0.07941 0.09432
 C328 C 0.34150 0.03215 0.06514
 C329 C 0.40098 0.07697 0.05968
 C330 C 0.43509 0.07452 0.04326
 C331 C 0.41110 0.02712 0.03206
 C332 C 0.35218 -0.01786 0.03735
 C333 C 0.31721 -0.01561 0.05371
 C334 C 0.22104 -0.05781 0.07383
 C335 C 0.25790 -0.06007 0.05835
 H336 H 0.17518 -0.09270 0.07654
 H337 H 0.23936 -0.09667 0.04963
 H338 H 0.15655 -0.04263 0.10233
 H339 H 0.29917 0.11769 0.11777
 H340 H 0.48029 0.11008 0.03911
 H341 H 0.33346 -0.05421 0.02850
 H342 H 0.36736 0.11433 0.09277
 H343 H 0.42178 0.11480 0.06762
 C344 C 0.65048 0.73113 0.42610
 C345 C 0.65996 0.78664 0.42972
 C346 C 0.69456 0.81660 0.44443
 C347 C 0.72231 0.79321 0.45551
 C348 C 0.70935 0.73614 0.45235
 C349 C 0.67424 0.70582 0.43805
 C350 C 0.61737 0.70272 0.40920
 C351 C 0.60811 0.64872 0.40378
 C352 C 0.58121 0.62650 0.38693
 C353 C 0.56232 0.65710 0.37523
 C354 C 0.56960 0.70987 0.38076
 C355 C 0.59703 0.73292 0.39758
 C356 C 0.63670 0.81312 0.41810
 C357 C 0.60593 0.78685 0.40240
 H358 H 0.64350 0.85551 0.42091
 H359 H 0.59000 0.80978 0.39360
 H360 H 0.70331 0.86037 0.44572
 H361 H 0.72459 0.71297 0.46131
 H362 H 0.57659 0.58607 0.38265
 H363 H 0.55544 0.73378 0.37155
 H364 H 0.66682 0.66273 0.43652
 H365 H 0.62260 0.62366 0.41200
 C366 C 0.03703 0.21666 0.74649
 C367 C -0.00390 0.15574 0.75110
 C368 C 0.00823 0.12118 0.76392
 C369 C 0.06046 0.14618 0.77255
 C370 C 0.10008 0.20678 0.76863
 C371 C 0.08876 0.24170 0.75568
 C372 C 0.02351 0.25132 0.73184
 C373 C 0.06291 0.31131 0.72507
 C374 C 0.04944 0.34062 0.71057
 C375 C -0.00391 0.31119 0.70273
 C376 C -0.04389 0.25196 0.70964
 C377 C -0.03042 0.22177 0.72389
 C378 C -0.05667 0.12943 0.74286
 C379 C -0.06986 0.16182 0.72968
 H380 H -0.08820 0.08289 0.74658
 H381 H -0.11111 0.13928 0.72359
 H382 H -0.02330 0.07452 0.76731
 H383 H 0.14044 0.22696 0.77529
 H384 H 0.08138 0.38610 0.70508
 H385 H -0.08489 0.22895 0.70341
 H386 H 0.12102 0.28799 0.75304
 H387 H 0.10491 0.33594 0.73037
 C388 C 0.79331 0.05469 0.08219
 C389 C 0.81047 0.01311 0.08561
 C390 C 0.85131 0.02220 0.09879
 C391 C 0.87560 0.07216 0.10883
 C392 C 0.85670 0.11203 0.10624
 C393 C 0.81614 0.10361 0.09303
 C394 C 0.75301 0.04538 0.06676
 C395 C 0.73664 0.08614 0.06103
 C396 C 0.70307 0.07765 0.04538
 C397 C 0.68426 0.02799 0.03531
 C398 C 0.69833 -0.01388 0.04137
 C399 C 0.73292 -0.00534 0.05678
 C400 C 0.78770 -0.03685 0.07562
 C401 C 0.74945 -0.04607 0.06161
 H402 H 0.80038 -0.06896 0.07845
 H403 H 0.73385 -0.08495 0.05403
 H404 H 0.86480 -0.00950 0.10113
 H405 H 0.87463 0.15063 0.11401
 H406 H 0.69342 0.11093 0.04064
 H407 H 0.68425 -0.05204 0.03345
 H408 H 0.80385 0.13616 0.09134
 H409 H 0.75089 0.12571 0.06797
 C410 C 0.18756 0.23231 0.41492
 C411 C 0.12619 0.20932 0.41634
 C412 C 0.08706 0.16087 0.43043
 C413 C 0.10783 0.13492 0.44347
 C414 C 0.16864 0.15870 0.44255
 C415 C 0.20813 0.20666 0.42840
 C416 C 0.22760 0.28275 0.39906
 C417 C 0.28895 0.30656 0.39543
 C418 C 0.32386 0.35204 0.37995
 C419 C 0.29871 0.37554 0.36793
 C420 C 0.23792 0.35259 0.37150
 C421 C 0.20225 0.30626 0.38676
 C422 C 0.10406 0.23475 0.40374
 C423 C 0.14130 0.28248 0.38939
 H424 H 0.05709 0.21739 0.40497
 H425 H 0.12195 0.30044 0.37996
 H426 H 0.04012 0.14358 0.43141
 H427 H 0.18559 0.13952 0.45257
 H428 H 0.37058 0.36829 0.37707
 H429 H 0.21826 0.37014 0.36202
 H430 H 0.25441 0.22290 0.42827
 H431 H 0.31063 0.28989 0.40406
 C432 C 0.00775 0.68272 0.75630
 C433 C -0.03802 0.69370 0.76167
 C434 C -0.03166 0.73236 0.77581
 C435 C 0.02003 0.76085 0.78470
 C436 C 0.06398 0.74757 0.78011
 C437 C 0.05800 0.70898 0.76617
 C438 C 0.00141 0.64521 0.73988
 C439 C 0.04621 0.63512 0.73239
 C440 C 0.03967 0.60317 0.71615
 C441 C -0.01188 0.57984 0.70721
 C442 C -0.05718 0.58849 0.71476
 C443 C -0.05081 0.62123 0.73087
 C444 C -0.08913 0.66742 0.75248
 C445 C -0.09554 0.63168 0.73750
 H446 H -0.12441 0.67536 0.75671
 H447 H -0.13558 0.61311 0.73064
 H448 H -0.06585 0.74241 0.77916
 H449 H 0.10372 0.76789 0.78711
 H450 H 0.07545 0.59766 0.71024
 H451 H -0.09679 0.57098 0.70766
 H452 H 0.09363 0.70116 0.76311
 H453 H 0.08718 0.65270 0.73847
   
