data_POSCAR
  _audit_creation_date              2014-09-24
  _audit_creation_method            'ToBaCCo'
  _symmetry_space_group_name_H-M    'P1'
  _symmetry_Int_Tables_number       1
  _symmetry_cell_setting            triclinic
  loop_
  _symmetry_equiv_pos_as_xyz
 x,y,z
_cell_length_a 35.4066
_cell_length_b 37.7136
_cell_length_c 35.5210
_cell_angle_alpha 90.060900
_cell_angle_beta 90.138200
_cell_angle_gamma 89.904500
loop_
  _atom_site_label
  _atom_site_type_symbol
  _atom_site_fract_x
  _atom_site_fract_y
  _atom_site_fract_z
C1 C 0.25050 0.24990 0.25023
 C2 C 0.75037 0.75241 0.24926
 C3 C 0.74988 0.25083 0.74939
 C4 C 0.24979 0.74829 0.75005
 C5 C 0.05415 0.05349 0.01205
 H6 H 0.05458 0.05521 -0.01834
 C7 C 0.07662 0.07622 0.03359
 H8 H 0.09452 0.09549 0.01980
 C9 C 0.02995 0.02661 0.06730
 H10 H 0.01133 0.00766 0.08038
 C11 C 0.05198 0.04883 0.08988
 H12 H 0.05052 0.04667 0.12025
 N13 N 0.03176 0.02903 0.02910
 C14 C 0.01527 -0.05471 -0.05415
 H15 H -0.01525 -0.05603 -0.05476
 C16 C 0.03658 -0.07786 -0.07631
 H17 H 0.02249 -0.09702 -0.09421
 C18 C 0.07104 -0.02846 -0.02973
 H19 H 0.08441 -0.00958 -0.01115
 C20 C 0.09340 -0.05113 -0.05144
 H21 H 0.12390 -0.04938 -0.04979
 Zn22 Zn 0.00176 -0.00038 -0.00214
 N23 N 0.03269 -0.03035 -0.03180
 C24 C -0.02600 0.02751 -0.07137
 N25 N -0.02775 0.02973 -0.03315
 C26 C -0.04975 0.05447 -0.01588
 C27 C -0.07190 0.07768 -0.03719
 C28 C -0.04772 0.05021 -0.09374
 C29 C -0.01253 -0.05474 0.04939
 C30 C -0.03413 -0.07750 0.07160
 C31 C -0.09059 -0.04948 0.04734
 C32 C -0.06794 -0.02724 0.02557
 N33 N -0.02962 -0.02993 0.02734
 H34 H -0.00769 0.00831 -0.08462
 H35 H -0.05013 0.05604 0.01454
 H36 H -0.08954 0.09714 -0.02323
 H37 H -0.04635 0.04817 -0.12413
 H38 H 0.01796 -0.05669 0.04978
 H39 H -0.02031 -0.09701 0.08929
 H40 H -0.12105 -0.04705 0.04599
 H41 H -0.08106 -0.00799 0.00723
 C42 C 0.07599 -0.07595 -0.07500
 C43 C 0.07558 0.07376 0.07284
 C44 C -0.07350 -0.07472 0.07065
 C45 C -0.07095 0.07541 -0.07647
 C46 C 0.05156 0.55512 0.51403
 H47 H 0.05210 0.55683 0.48364
 C48 C 0.07375 0.57802 0.53564
 H49 H 0.09158 0.59740 0.52193
 C50 C 0.02737 0.52807 0.56919
 H51 H 0.00887 0.50896 0.58220
 C52 C 0.04911 0.55047 0.59185
 H53 H 0.04759 0.54829 0.62222
 N54 N 0.02933 0.53048 0.53100
 C55 C 0.01405 0.44671 0.44760
 H56 H -0.01645 0.44509 0.44694
 C57 C 0.03565 0.42385 0.42537
 H58 H 0.02180 0.40461 0.40739
 C59 C 0.06950 0.47345 0.47216
 H60 H 0.08262 0.49242 0.49081
 C61 C 0.09214 0.45109 0.45038
 H62 H 0.12261 0.45316 0.45206
 Zn63 Zn -0.00020 0.50082 0.49960
 N64 N 0.03117 0.47118 0.47005
 C65 C -0.02760 0.52863 0.43024
 N66 N -0.02980 0.53070 0.46845
 C67 C -0.05220 0.55521 0.48558
 C68 C -0.07426 0.57836 0.46411
 C69 C -0.04921 0.55128 0.40773
 C70 C -0.01423 0.44629 0.55103
 C71 C -0.03573 0.42323 0.57299
 C72 C -0.09233 0.45064 0.54828
 C73 C -0.06979 0.47320 0.52677
 N74 N -0.03145 0.47094 0.52887
 H75 H -0.00896 0.50963 0.41711
 H76 H -0.05291 0.55667 0.51599
 H77 H -0.09219 0.59766 0.47795
 H78 H -0.04745 0.54939 0.37735
 H79 H 0.01628 0.44469 0.55168
 H80 H -0.02181 0.40385 0.59075
 H81 H -0.12282 0.45271 0.54664
 H82 H -0.08299 0.49232 0.50834
 C83 C 0.07503 0.42618 0.42670
 C84 C 0.07258 0.57556 0.57489
 C85 C -0.07512 0.42554 0.57167
 C86 C -0.07280 0.57627 0.42484
 C87 C 0.54997 0.05270 0.51626
 H88 H 0.55041 0.05411 0.48584
 C89 C 0.57222 0.07582 0.53754
 H90 H 0.59001 0.09504 0.52354
 C91 C 0.52594 0.02622 0.57179
 H92 H 0.50748 0.00725 0.58507
 C93 C 0.54774 0.04886 0.59413
 H94 H 0.54629 0.04699 0.62452
 N95 N 0.52777 0.02824 0.53357
 C96 C 0.51212 -0.05600 0.45069
 H97 H 0.48162 -0.05757 0.45012
 C98 C 0.53360 -0.07886 0.42836
 H99 H 0.51967 -0.09806 0.41038
 C100 C 0.56768 -0.02929 0.47503
 H101 H 0.58089 -0.01032 0.49361
 C102 C 0.59021 -0.05169 0.45318
 H103 H 0.62070 -0.04965 0.45473
 Zn104 Zn 0.49811 -0.00170 0.50256
 N105 N 0.52935 -0.03151 0.47303
 C106 C 0.47019 0.02557 0.43315
 N107 N 0.46824 0.02790 0.47135
 C108 C 0.44582 0.05243 0.48844
 C109 C 0.42347 0.07532 0.46693
 C110 C 0.44828 0.04794 0.41060
 C111 C 0.48445 -0.05586 0.55453
 C112 C 0.46309 -0.07894 0.57659
 C113 C 0.40633 -0.05198 0.55170
 C114 C 0.42874 -0.02940 0.53009
 N115 N 0.46708 -0.03144 0.53220
 H116 H 0.48884 0.00659 0.42004
 H117 H 0.44530 0.05410 0.51884
 H118 H 0.40555 0.09464 0.48074
 H119 H 0.44985 0.04585 0.38022
 H120 H 0.51497 -0.05730 0.55518
 H121 H 0.47713 -0.09818 0.59445
 H122 H 0.37583 -0.05013 0.55000
 H123 H 0.41542 -0.01047 0.51151
 C124 C 0.57299 -0.07656 0.42953
 C125 C 0.57117 0.07377 0.57682
 C126 C 0.42369 -0.07689 0.57521
 C127 C 0.42465 0.07294 0.42767
 C128 C 0.55225 0.55441 0.01438
 H129 H 0.55292 0.55572 -0.01603
 C130 C 0.57458 0.57740 0.03574
 H131 H 0.59265 0.59643 0.02180
 C132 C 0.52753 0.52836 0.06985
 H133 H 0.50874 0.50963 0.08306
 C134 C 0.54939 0.55087 0.09225
 H135 H 0.54767 0.54915 0.12264
 N136 N 0.52966 0.53023 0.03163
 C137 C 0.51319 0.44633 -0.05150
 H138 H 0.48266 0.44520 -0.05227
 C139 C 0.53444 0.42313 -0.07366
 H140 H 0.52031 0.40413 -0.09172
 C141 C 0.56902 0.47217 -0.02674
 H142 H 0.58242 0.49091 -0.00802
 C143 C 0.59133 0.44942 -0.04841
 H144 H 0.62183 0.45097 -0.04660
 Zn145 Zn 0.49974 0.50059 0.00057
 N146 N 0.53067 0.47052 -0.02899
 C147 C 0.47233 0.52855 -0.06875
 N148 N 0.47017 0.53054 -0.03054
 C149 C 0.44778 0.55501 -0.01333
 C150 C 0.42560 0.57813 -0.03473
 C151 C 0.45065 0.55121 -0.09119
 C152 C 0.48570 0.44664 0.05258
 C153 C 0.46424 0.42385 0.07487
 C154 C 0.40760 0.45111 0.05007
 C155 C 0.43012 0.47341 0.02823
 N156 N 0.46845 0.47110 0.03022
 H157 H 0.49098 0.50960 -0.08194
 H158 H 0.44710 0.55642 0.01708
 H159 H 0.40763 0.59736 -0.02082
 H160 H 0.45237 0.54938 -0.12158
 H161 H 0.51621 0.44499 0.05314
 H162 H 0.47820 0.40461 0.09279
 H163 H 0.37712 0.45319 0.04849
 H164 H 0.41689 0.49235 0.00962
 C165 C 0.57385 0.42479 -0.07216
 C166 C 0.57319 0.57552 0.07502
 C167 C 0.42485 0.42621 0.07368
 C168 C 0.42700 0.57611 -0.07400
 C169 C 0.14038 -0.14235 -0.13990
 C170 C 0.14707 -0.17773 -0.12827
 C171 C 0.16948 -0.20062 -0.15090
 C172 C 0.18511 -0.18798 -0.18496
 C173 C 0.17852 -0.15261 -0.19657
 C174 C 0.15604 -0.12973 -0.17400
 C175 C 0.14981 -0.09448 -0.18622
 C176 C 0.16538 -0.08218 -0.21975
 C177 C 0.18741 -0.10455 -0.24179
 C178 C 0.19400 -0.13937 -0.23047
 C179 C 0.17574 -0.23589 -0.13875
 C180 C 0.16040 -0.24817 -0.10513
 C181 C 0.13853 -0.22577 -0.08296
 C182 C 0.13183 -0.19094 -0.09427
 C183 C 0.20812 -0.21124 -0.20801
 C184 C 0.22741 -0.23026 -0.22741
 C185 C 0.11748 -0.11894 -0.11682
 C186 C 0.09852 -0.09940 -0.09772
 H187 H 0.13290 -0.07606 -0.17003
 H188 H 0.16034 -0.05515 -0.22867
 H189 H 0.19948 -0.09488 -0.26780
 H190 H 0.21134 -0.15575 -0.24854
 H191 H 0.19248 -0.25431 -0.15509
 H192 H 0.16548 -0.27521 -0.09626
 H193 H 0.12666 -0.23544 -0.05687
 H194 H 0.11461 -0.17454 -0.07608
 C195 C 0.13982 0.36030 0.36161
 C196 C 0.14337 0.32399 0.37114
 C197 C 0.16569 0.30111 0.34840
 C198 C 0.18421 0.31466 0.31622
 C199 C 0.18062 0.35094 0.30665
 C200 C 0.15849 0.37387 0.32950
 C201 C 0.15559 0.41011 0.31953
 C202 C 0.17400 0.42330 0.28788
 C203 C 0.19550 0.40084 0.26543
 C204 C 0.19879 0.36504 0.27453
 C205 C 0.16895 0.26494 0.35854
 C206 C 0.15062 0.25173 0.39022
 C207 C 0.12875 0.27409 0.41243
 C208 C 0.12507 0.30982 0.40314
 C209 C 0.20724 0.29141 0.29314
 C210 C 0.22661 0.27242 0.27384
 C211 C 0.11690 0.38364 0.38475
 C212 C 0.09782 0.40303 0.40391
 H213 H 0.13914 0.42861 0.33608
 H214 H 0.17151 0.45109 0.28069
 H215 H 0.20967 0.41117 0.24081
 H216 H 0.21561 0.34857 0.25609
 H217 H 0.18563 0.24651 0.34212
 H218 H 0.15341 0.22400 0.39757
 H219 H 0.11457 0.26369 0.43702
 H220 H 0.10777 0.32616 0.42131
 C221 C 0.63794 -0.14153 0.36359
 C222 C 0.67497 -0.15068 0.37525
 C223 C 0.69787 -0.17252 0.35195
 C224 C 0.68357 -0.18512 0.31718
 C225 C 0.64645 -0.17623 0.30565
 C226 C 0.62356 -0.15436 0.32892
 C227 C 0.58654 -0.14580 0.31678
 C228 C 0.57255 -0.15851 0.28264
 C229 C 0.59494 -0.17991 0.25989
 C230 C 0.63150 -0.18874 0.27111
 C231 C 0.73483 -0.18125 0.36413
 C232 C 0.74874 -0.16883 0.39841
 C233 C 0.72634 -0.14751 0.42122
 C234 C 0.68987 -0.13843 0.40991
 C235 C 0.70707 -0.20714 0.29325
 C236 C 0.72662 -0.22541 0.27337
 C237 C 0.61480 -0.11869 0.38707
 C238 C 0.59569 -0.09957 0.40649
 H239 H 0.56804 -0.12927 0.33351
 H240 H 0.54417 -0.15173 0.27380
 H241 H 0.58394 -0.18972 0.23341
 H242 H 0.64783 -0.20545 0.25246
 H243 H 0.75334 -0.19769 0.34733
 H244 H 0.77707 -0.17577 0.40729
 H245 H 0.73729 -0.13792 0.44782
 H246 H 0.67354 -0.12176 0.42862
 C247 C 0.63817 0.35839 -0.13714
 C248 C 0.67503 0.34892 -0.12523
 C249 C 0.69774 0.32660 -0.14820
 C250 C 0.68344 0.31387 -0.18291
 C251 C 0.64647 0.32304 -0.19467
 C252 C 0.62376 0.34538 -0.17172
 C253 C 0.58689 0.35422 -0.18409
 C254 C 0.57287 0.34133 -0.21815
 C255 C 0.59508 0.31948 -0.24058
 C256 C 0.63149 0.31036 -0.22913
 C257 C 0.73453 0.31756 -0.13577
 C258 C 0.74846 0.33014 -0.10156
 C259 C 0.72625 0.35194 -0.07908
 C260 C 0.68994 0.36133 -0.09064
 C261 C 0.70683 0.29154 -0.20663
 C262 C 0.72628 0.27310 -0.22644
 C263 C 0.61524 0.38176 -0.11402
 C264 C 0.59632 0.40131 -0.09490
 H265 H 0.56853 0.37111 -0.16761
 H266 H 0.54461 0.34834 -0.22717
 H267 H 0.58406 0.30953 -0.26700
 H268 H 0.64768 0.29329 -0.24753
 H269 H 0.75289 0.30073 -0.15231
 H270 H 0.77666 0.32296 -0.09249
 H271 H 0.73720 0.36165 -0.05253
 H272 H 0.67375 0.37835 -0.07217
 C273 C -0.13608 0.14174 -0.14088
 C274 C -0.15239 0.17250 -0.12475
 C275 C -0.17534 0.19519 -0.14713
 C276 C -0.18179 0.18700 -0.18551
 C277 C -0.16539 0.15632 -0.20169
 C278 C -0.14249 0.13359 -0.17931
 C279 C -0.12653 0.10300 -0.19608
 C280 C -0.13301 0.09509 -0.23388
 C281 C -0.15536 0.11734 -0.25578
 C282 C -0.17141 0.14765 -0.24003
 C283 C -0.19146 0.22572 -0.13038
 C284 C -0.18508 0.23363 -0.09257
 C285 C -0.16261 0.21147 -0.07068
 C286 C -0.14638 0.18122 -0.08643
 C287 C -0.20562 0.20986 -0.20825
 C288 C -0.22562 0.22856 -0.22728
 C289 C -0.11290 0.11837 -0.11796
 C290 C -0.09373 0.09885 -0.09900
 H291 H -0.10891 0.08489 -0.18021
 H292 H -0.12058 0.07157 -0.24625
 H293 H -0.16027 0.11111 -0.28514
 H294 H -0.18850 0.16419 -0.25823
 H295 H -0.20913 0.24375 -0.14627
 H296 H -0.19765 0.25708 -0.08021
 H297 H -0.15773 0.21774 -0.04133
 H298 H -0.12913 0.16479 -0.06826
 C299 C -0.13712 0.64280 0.35988
 C300 C -0.15386 0.67336 0.37600
 C301 C -0.17645 0.69617 0.35340
 C302 C -0.18210 0.68829 0.31482
 C303 C -0.16528 0.65781 0.29866
 C304 C -0.14274 0.63496 0.32127
 C305 C -0.12633 0.60457 0.30451
 C306 C -0.13204 0.59696 0.26652
 C307 C -0.15405 0.61933 0.24441
 C308 C -0.17052 0.64945 0.26013
 C309 C -0.19303 0.72649 0.37013
 C310 C -0.18743 0.73410 0.40813
 C311 C -0.16530 0.71182 0.43024
 C312 C -0.14864 0.68176 0.41451
 C313 C -0.20560 0.71126 0.29187
 C314 C -0.22535 0.73005 0.27269
 C315 C -0.11428 0.61933 0.38302
 C316 C -0.09535 0.59975 0.40214
 H317 H -0.10896 0.58638 0.32054
 H318 H -0.11929 0.57360 0.25416
 H319 H -0.15836 0.61334 0.21490
 H320 H -0.18732 0.66609 0.24177
 H321 H -0.21046 0.74460 0.35408
 H322 H -0.20034 0.75739 0.42048
 H323 H -0.16103 0.71784 0.45974
 H324 H -0.13169 0.66524 0.43285
 C325 C 0.36003 0.13907 0.36254
 C326 C 0.35556 0.17512 0.37284
 C327 C 0.33346 0.19811 0.34996
 C328 C 0.31606 0.18493 0.31689
 C329 C 0.32048 0.14888 0.30660
 C330 C 0.34243 0.12585 0.32956
 C331 C 0.34621 0.08986 0.31883
 C332 C 0.32880 0.07700 0.28635
 C333 C 0.30745 0.09956 0.26383
 C334 C 0.30333 0.13513 0.27364
 C335 C 0.32930 0.23402 0.36086
 C336 C 0.34652 0.24686 0.39344
 C337 C 0.36815 0.22440 0.41580
 C338 C 0.37272 0.18892 0.40577
 C339 C 0.29331 0.20829 0.29360
 C340 C 0.27416 0.22735 0.27411
 C341 C 0.38285 0.11565 0.38575
 C342 C 0.40188 0.09619 0.40492
 H343 H 0.36258 0.07129 0.33541
 H344 H 0.33194 0.04939 0.27859
 H345 H 0.29404 0.08948 0.23858
 H346 H 0.28666 0.15169 0.25510
 H347 H 0.31275 0.25251 0.34437
 H348 H 0.34304 0.27439 0.40137
 H349 H 0.38146 0.23450 0.44109
 H350 H 0.38978 0.17247 0.42409
 C351 C 0.36197 0.64219 -0.13877
 C352 C 0.32761 0.65586 -0.12443
 C353 C 0.30464 0.67809 -0.14730
 C354 C 0.31614 0.68647 -0.18437
 C355 C 0.35061 0.67302 -0.19863
 C356 C 0.37364 0.65086 -0.17574
 C357 C 0.40802 0.63779 -0.19059
 C358 C 0.41933 0.64639 -0.22701
 C359 C 0.39677 0.66799 -0.24942
 C360 C 0.36275 0.68118 -0.23556
 C361 C 0.27041 0.69145 -0.13238
 C362 C 0.25919 0.68311 -0.09588
 C363 C 0.28163 0.66136 -0.07351
 C364 C 0.31547 0.64781 -0.08747
 C365 C 0.29245 0.70877 -0.20787
 C366 C 0.27266 0.72721 -0.22744
 C367 C 0.38510 0.61895 -0.11567
 C368 C 0.40424 0.59949 -0.09661
 H369 H 0.42653 0.62087 -0.17425
 H370 H 0.44573 0.63619 -0.23791
 H371 H 0.40563 0.67455 -0.27771
 H372 H 0.34609 0.69776 -0.25408
 H373 H 0.25201 0.70848 -0.14870
 H374 H 0.23294 0.69359 -0.08491
 H375 H 0.27279 0.65495 -0.04518
 H376 H 0.33198 0.63103 -0.06898
 C377 C -0.13875 -0.13954 0.13609
 C378 C -0.17641 -0.12962 0.14444
 C379 C -0.19908 -0.15181 0.16746
 C380 C -0.18397 -0.18380 0.18195
 C381 C -0.14636 -0.19378 0.17353
 C382 C -0.12367 -0.17157 0.15053
 C383 C -0.08614 -0.18208 0.14253
 C384 C -0.07145 -0.21363 0.15684
 C385 C -0.09364 -0.23534 0.17932
 C386 C -0.13068 -0.22566 0.18767
 C387 C -0.23662 -0.14133 0.17548
 C388 C -0.25135 -0.10981 0.16115
 C389 C -0.22919 -0.08812 0.13862
 C390 C -0.19213 -0.09777 0.13027
 C391 C -0.20707 -0.20636 0.20559
 C392 C -0.22629 -0.22502 0.22529
 C393 C -0.11552 -0.11672 0.11280
 C394 C -0.09631 -0.09764 0.09353
 H395 H -0.06778 -0.16608 0.12518
 H396 H -0.04268 -0.22126 0.15044
 H397 H -0.08209 -0.25982 0.19037
 H398 H -0.14683 -0.24343 0.20529
 H399 H -0.25497 -0.15732 0.19287
 H400 H -0.28012 -0.10219 0.16756
 H401 H -0.24077 -0.06366 0.12755
 H402 H -0.17602 -0.08001 0.11262
 C403 C -0.14005 0.35963 0.63622
 C404 C -0.17886 0.36731 0.64139
 C405 C -0.20139 0.34483 0.66423
 C406 C -0.18499 0.31479 0.68173
 C407 C -0.14624 0.30700 0.67641
 C408 C -0.12369 0.32949 0.65359
 C409 C -0.08500 0.32120 0.64875
 C410 C -0.06905 0.29152 0.66594
 C411 C -0.09110 0.26953 0.68825
 C412 C -0.12927 0.27705 0.69353
 C413 C -0.24011 0.35308 0.66906
 C414 C -0.25610 0.38269 0.65180
 C415 C -0.23407 0.40467 0.62945
 C416 C -0.19588 0.39720 0.62421
 C417 C -0.20791 0.29209 0.70539
 C418 C -0.22697 0.27337 0.72519
 C419 C -0.11694 0.38284 0.61324
 C420 C -0.09783 0.40224 0.59424
 H421 H -0.06670 0.33750 0.63165
 H422 H -0.03941 0.28557 0.66193
 H423 H -0.07858 0.24651 0.70154
 H424 H -0.14527 0.25914 0.71113
 H425 H -0.25840 0.33677 0.68617
 H426 H -0.28575 0.38860 0.65578
 H427 H -0.24663 0.42764 0.61610
 H428 H -0.17992 0.41509 0.60657
 C429 C 0.35903 -0.14335 0.63937
 C430 C 0.32011 -0.13601 0.64430
 C431 C 0.29759 -0.15888 0.66669
 C432 C 0.31415 -0.18885 0.68415
 C433 C 0.35303 -0.19624 0.67920
 C434 C 0.37554 -0.17345 0.65670
 C435 C 0.41436 -0.18138 0.65216
 C436 C 0.43046 -0.21097 0.66941
 C437 C 0.40844 -0.23322 0.69146
 C438 C 0.37016 -0.22606 0.69640
 C439 C 0.25873 -0.15106 0.67115
 C440 C 0.24262 -0.12138 0.65415
 C441 C 0.26466 -0.09896 0.63232
 C442 C 0.30297 -0.10608 0.62731
 C443 C 0.29127 -0.21179 0.70757
 C444 C 0.27208 -0.23054 0.72724
 C445 C 0.38207 -0.11990 0.61660
 C446 C 0.40110 -0.10034 0.59772
 H447 H 0.43265 -0.16484 0.63530
 H448 H 0.46020 -0.21664 0.66565
 H449 H 0.42108 -0.25615 0.70483
 H450 H 0.35418 -0.24411 0.71381
 H451 H 0.24039 -0.16779 0.68773
 H452 H 0.21287 -0.11578 0.65791
 H453 H 0.25202 -0.07594 0.61915
 H454 H 0.31893 -0.08787 0.61004
 C455 C 0.36056 0.36032 0.13888
 C456 C 0.34136 0.37400 0.17068
 C457 C 0.31942 0.35106 0.19356
 C458 C 0.31654 0.31463 0.18433
 C459 C 0.33561 0.30096 0.15247
 C460 C 0.35773 0.32386 0.12970
 C461 C 0.37658 0.30957 0.09802
 C462 C 0.37362 0.27369 0.08906
 C463 C 0.35195 0.25131 0.11131
 C464 C 0.33309 0.26464 0.14269
 C465 C 0.30072 0.36528 0.22537
 C466 C 0.30331 0.40120 0.23415
 C467 C 0.32463 0.42368 0.21167
 C468 C 0.34355 0.41038 0.18031
 C469 C 0.29365 0.29137 0.20739
 C470 C 0.27435 0.27239 0.22667
 C471 C 0.38328 0.38369 0.11570
 C472 C 0.40221 0.40307 0.09650
 H473 H 0.39376 0.32592 0.07984
 H474 H 0.38822 0.26321 0.06472
 H475 H 0.34972 0.22347 0.10423
 H476 H 0.31659 0.24619 0.15914
 H477 H 0.28401 0.34881 0.24383
 H478 H 0.28874 0.41163 0.25853
 H479 H 0.32657 0.45158 0.21860
 H480 H 0.35983 0.42890 0.16373
 C481 C 0.14059 0.13952 0.13792
 C482 C 0.14330 0.17600 0.12891
 C483 C 0.16553 0.19888 0.15176
 C484 C 0.18483 0.18516 0.18351
 C485 C 0.18217 0.14868 0.19250
 C486 C 0.16008 0.12577 0.16957
 C487 C 0.15805 0.08936 0.17899
 C488 C 0.17731 0.07597 0.21017
 C489 C 0.19880 0.09841 0.23267
 C490 C 0.20122 0.13438 0.22413
 C491 C 0.16790 0.23523 0.14218
 C492 C 0.14882 0.24861 0.11090
 C493 C 0.12706 0.22625 0.08856
 C494 C 0.12423 0.19035 0.09732
 C495 C 0.20765 0.20843 0.20679
 C496 C 0.22684 0.22741 0.22631
 C497 C 0.11762 0.11621 0.11476
 C498 C 0.09848 0.09686 0.09560
 H499 H 0.14165 0.07086 0.16237
 H500 H 0.17550 0.04805 0.21693
 H501 H 0.21366 0.08792 0.25691
 H502 H 0.21809 0.15081 0.24260
 H503 H 0.18447 0.25367 0.15871
 H504 H 0.15093 0.27648 0.10397
 H505 H 0.11229 0.23678 0.06429
 H506 H 0.10699 0.17401 0.07907
 C507 C 0.13780 0.64094 0.64018
 C508 C 0.15341 0.67224 0.62473
 C509 C 0.17637 0.69461 0.64744
 C510 C 0.18357 0.68552 0.68544
 C511 C 0.16788 0.65429 0.70094
 C512 C 0.14491 0.63193 0.67825
 C513 C 0.12954 0.60083 0.69436
 C514 C 0.13667 0.59208 0.73182
 C515 C 0.15915 0.61394 0.75400
 C516 C 0.17466 0.64472 0.73890
 C517 C 0.19170 0.72575 0.63139
 C518 C 0.18454 0.73455 0.59395
 C519 C 0.16211 0.71267 0.57174
 C520 C 0.14665 0.68184 0.58679
 C521 C 0.20723 0.70818 0.70855
 C522 C 0.22699 0.72690 0.72783
 C523 C 0.11459 0.61792 0.61693
 C524 C 0.09540 0.59867 0.59771
 H525 H 0.11187 0.58299 0.67824
 H526 H 0.12469 0.56820 0.74369
 H527 H 0.16462 0.60702 0.78308
 H528 H 0.19196 0.66087 0.75728
 H529 H 0.20932 0.74361 0.64755
 H530 H 0.19649 0.75847 0.58213
 H531 H 0.15664 0.71962 0.54267
 H532 H 0.12937 0.66568 0.56840
 C533 C 0.63678 0.14005 0.64076
 C534 C 0.62458 0.17510 0.64846
 C535 C 0.64758 0.19801 0.67051
 C536 C 0.68261 0.18572 0.68474
 C537 C 0.69475 0.15065 0.67718
 C538 C 0.67178 0.12775 0.65510
 C539 C 0.68454 0.09280 0.64791
 C540 C 0.71897 0.08082 0.66217
 C541 C 0.74140 0.10320 0.68381
 C542 C 0.72958 0.13774 0.69130
 C543 C 0.63482 0.23292 0.67786
 C544 C 0.60029 0.24487 0.66386
 C545 C 0.57779 0.22248 0.64230
 C546 C 0.58966 0.18797 0.63459
 C547 C 0.70610 0.20904 0.70727
 C548 C 0.72580 0.22812 0.72616
 C549 C 0.61337 0.11666 0.61811
 C550 C 0.59406 0.09715 0.59929
 H551 H 0.66808 0.07438 0.63126
 H552 H 0.72828 0.05400 0.65642
 H553 H 0.76810 0.09376 0.69486
 H554 H 0.74800 0.15414 0.70827
 H555 H 0.65135 0.25133 0.69446
 H556 H 0.59096 0.27165 0.66974
 H557 H 0.55098 0.23188 0.63147
 H558 H 0.57117 0.17155 0.61769
 C559 C 0.63839 0.64177 0.13937
 C560 C 0.62574 0.67658 0.14759
 C561 C 0.64849 0.69948 0.16990
 C562 C 0.68371 0.68743 0.18386
 C563 C 0.69632 0.65261 0.17577
 C564 C 0.67360 0.62971 0.15343
 C565 C 0.68681 0.59501 0.14572
 C566 C 0.72144 0.58326 0.15972
 C567 C 0.74363 0.60565 0.18160
 C568 C 0.73136 0.63995 0.18961
 C569 C 0.63529 0.73415 0.17777
 C570 C 0.60056 0.74586 0.16401
 C571 C 0.57830 0.72347 0.14220
 C572 C 0.59061 0.68921 0.13398
 C573 C 0.70694 0.71073 0.20667
 C574 C 0.72645 0.72978 0.22578
 C575 C 0.61520 0.61837 0.11653
 C576 C 0.59601 0.59887 0.09759
 H577 H 0.67055 0.57661 0.12885
 H578 H 0.73109 0.55664 0.15356
 H579 H 0.77049 0.59639 0.19244
 H580 H 0.74961 0.65636 0.20676
 H581 H 0.65161 0.75254 0.19458
 H582 H 0.59089 0.77245 0.17029
 H583 H 0.55135 0.73270 0.13157
 H584 H 0.57230 0.67278 0.11689
   
