data_POSCAR
  _audit_creation_date              2014-09-24
  _audit_creation_method            'ToBaCCo'
  _symmetry_space_group_name_H-M    'P1'
  _symmetry_Int_Tables_number       1
  _symmetry_cell_setting            triclinic
  loop_
  _symmetry_equiv_pos_as_xyz
 x,y,z
_cell_length_a 17.9719
_cell_length_b 28.8713
_cell_length_c 18.1710
_cell_angle_alpha 90.171700
_cell_angle_beta 89.805500
_cell_angle_gamma 89.876200
loop_
  _atom_site_label
  _atom_site_type_symbol
  _atom_site_fract_x
  _atom_site_fract_y
  _atom_site_fract_z
N1 N 0.12976 0.04956 0.07805
 N2 N 0.17471 0.08529 0.08628
 N3 N 0.07861 -0.04760 0.13087
 N4 N 0.08678 -0.08307 0.17583
 N5 N 0.13064 -0.04796 0.07995
 N6 N 0.17564 -0.08370 0.08884
 N7 N 0.07777 0.04985 0.12899
 N8 N 0.08585 0.08576 0.17330
 C9 C 0.14658 0.10742 0.14599
 C10 C 0.14764 -0.10514 0.14898
 N11 N -0.13288 -0.04836 0.07910
 N12 N -0.17738 -0.08426 0.08777
 N13 N -0.08232 0.04979 0.12839
 N14 N -0.09079 0.08623 0.17181
 N15 N -0.13361 0.04905 0.07720
 N16 N -0.18057 0.08721 0.08546
 N17 N -0.08158 -0.04774 0.13036
 N18 N -0.08970 -0.08318 0.17535
 Mn19 Mn -0.00189 0.00108 0.13055
 C20 C -0.14978 -0.10549 0.14814
 C21 C -0.15117 0.10878 0.14498
 N22 N 0.13187 -0.04935 -0.07848
 N23 N 0.17904 -0.08740 -0.08653
 N24 N 0.07965 0.04727 -0.13194
 N25 N 0.08786 0.08277 -0.17692
 N26 N 0.13080 0.04802 -0.08049
 N27 N 0.17522 0.08397 -0.08908
 N28 N 0.08050 -0.05035 -0.12959
 N29 N 0.08916 -0.08685 -0.17280
 Mn30 Mn 0.13167 0.00008 -0.00024
 C31 C 0.14972 -0.10916 -0.14586
 C32 C 0.14783 0.10520 -0.14955
 N33 N -0.13243 0.04743 -0.08132
 N34 N -0.17715 0.08330 -0.09011
 N35 N -0.07997 -0.05080 -0.13013
 N36 N -0.08786 -0.08727 -0.17356
 N37 N -0.13197 -0.04993 -0.07928
 N38 N -0.17872 -0.08799 -0.08773
 N39 N -0.08061 0.04683 -0.13245
 N40 N -0.08859 0.08230 -0.17742
 Mn41 Mn -0.13360 -0.00044 -0.00109
 Mn42 Mn -0.00009 -0.00180 -0.13199
 Cl43 Cl -0.00097 -0.00027 -0.00071
 C44 C -0.14917 0.10456 -0.15038
 C45 C -0.14858 -0.10968 -0.14700
 N46 N 0.63275 0.54877 0.57959
 N47 N 0.67799 0.58436 0.58809
 N48 N 0.58083 0.45139 0.63040
 N49 N 0.58896 0.41558 0.67463
 N50 N 0.63254 0.45124 0.57916
 N51 N 0.67729 0.41529 0.58709
 N52 N 0.58101 0.54891 0.63081
 N53 N 0.58963 0.58460 0.67556
 C54 C 0.65042 0.60628 0.64826
 C55 C 0.64944 0.39352 0.64698
 N56 N 0.36892 0.45161 0.57995
 N57 N 0.32406 0.41581 0.58808
 N58 N 0.42068 0.54907 0.63136
 N59 N 0.41211 0.58472 0.67626
 N60 N 0.36898 0.54914 0.58047
 N61 N 0.32377 0.58483 0.58932
 N62 N 0.42057 0.45154 0.63091
 N63 N 0.41225 0.41569 0.67512
 Mn64 Mn 0.50078 0.50024 0.63178
 C65 C 0.35173 0.39385 0.64777
 C66 C 0.35137 0.60657 0.64936
 N67 N 0.63254 0.45111 0.42062
 N68 N 0.67754 0.41529 0.41175
 N69 N 0.58094 0.54870 0.37023
 N70 N 0.58913 0.58444 0.32588
 N71 N 0.63268 0.54867 0.42108
 N72 N 0.67754 0.58443 0.41275
 N73 N 0.58081 0.45127 0.36976
 N74 N 0.58916 0.41558 0.32488
 Mn75 Mn 0.63357 0.49994 0.50011
 C76 C 0.64979 0.39357 0.35171
 C77 C 0.64968 0.60626 0.35303
 N78 N 0.36907 0.54928 0.42199
 N79 N 0.32414 0.58515 0.41389
 N80 N 0.42068 0.45170 0.37026
 N81 N 0.41219 0.41611 0.32536
 N82 N 0.36895 0.45175 0.42145
 N83 N 0.32377 0.41617 0.41282
 N84 N 0.42080 0.54916 0.37077
 N85 N 0.41251 0.58492 0.32641
 Mn86 Mn 0.36805 0.50045 0.50097
 Mn87 Mn 0.50081 0.50021 0.36938
 Cl88 Cl 0.50080 0.50021 0.50058
 C89 C 0.35192 0.60693 0.35395
 C90 C 0.35146 0.39440 0.35258
 C91 C 0.23354 0.22961 0.23351
 N92 N 0.17289 0.20943 0.26439
 N93 N 0.14524 0.17042 0.23647
 C94 C 0.17729 0.15019 0.17674
 N95 N 0.23791 0.17033 0.14582
 N96 N 0.26557 0.20935 0.17373
 C97 C 0.26401 0.27256 0.26432
 N98 N 0.32462 0.29278 0.23344
 N99 N 0.35239 0.33172 0.26152
 C100 C 0.32050 0.35181 0.32145
 N101 N 0.25990 0.33165 0.35236
 N102 N 0.23213 0.29271 0.32427
 C103 C 0.76500 0.77203 0.23571
 N104 N 0.82490 0.79284 0.26676
 N105 N 0.85194 0.83200 0.23894
 C106 C 0.82002 0.85173 0.17913
 N107 N 0.76014 0.83097 0.14806
 N108 N 0.73308 0.79182 0.17588
 C109 C 0.73526 0.72885 0.26619
 N110 N 0.67519 0.70821 0.23519
 N111 N 0.64806 0.66904 0.26284
 C112 C 0.68007 0.64910 0.32243
 N113 N 0.74013 0.66968 0.35347
 N114 N 0.76727 0.70888 0.32581
 C115 C 0.76515 0.22725 0.76277
 N116 N 0.82537 0.20651 0.73148
 N117 N 0.85258 0.16728 0.75902
 C118 C 0.82049 0.14741 0.81878
 N119 N 0.76030 0.16809 0.85005
 N120 N 0.73309 0.20731 0.82252
 C121 C 0.73525 0.27054 0.73266
 N122 N 0.67507 0.29120 0.76411
 N123 N 0.64783 0.33049 0.73685
 C124 C 0.67985 0.35053 0.67721
 N125 N 0.74002 0.32992 0.64572
 N126 N 0.76726 0.29062 0.67298
 C127 C 0.23297 0.77179 0.76872
 N128 N 0.26519 0.79196 0.82813
 N129 N 0.23778 0.83114 0.85617
 C130 C 0.17711 0.85161 0.82586
 N131 N 0.14487 0.83138 0.76641
 N132 N 0.17231 0.79219 0.73835
 C133 C 0.26343 0.72869 0.73781
 N134 N 0.23166 0.70853 0.67811
 N135 N 0.25959 0.66950 0.64998
 C136 C 0.32024 0.64927 0.68058
 N137 N 0.35200 0.66938 0.74026
 N138 N 0.32408 0.70840 0.76838
 C139 C 0.23439 0.22783 0.76372
 N140 N 0.17448 0.20721 0.73226
 N141 N 0.14696 0.16804 0.75974
 C142 C 0.17838 0.14808 0.81965
 N143 N 0.23825 0.16866 0.85110
 N144 N 0.26577 0.20781 0.82362
 C145 C 0.26474 0.27108 0.73358
 N146 N 0.32483 0.29150 0.76499
 N147 N 0.35246 0.33068 0.73772
 C148 C 0.32095 0.35089 0.67809
 N149 N 0.26088 0.33053 0.64665
 N150 N 0.23326 0.29133 0.67391
 C151 C 0.76893 0.77137 0.76718
 N152 N 0.73630 0.79163 0.82658
 N153 N 0.76349 0.83073 0.85470
 C154 C 0.82439 0.85110 0.82450
 N155 N 0.85710 0.83079 0.76504
 N156 N 0.82985 0.79166 0.73690
 C157 C 0.73851 0.72829 0.73626
 N158 N 0.77040 0.70797 0.67645
 N159 N 0.74244 0.66901 0.64845
 C160 C 0.68163 0.64897 0.67929
 N161 N 0.64977 0.66925 0.73907
 N162 N 0.67770 0.70820 0.76704
 C163 C 0.23456 0.77259 0.23670
 N164 N 0.17400 0.79314 0.26769
 N165 N 0.14640 0.83219 0.23985
 C166 C 0.17838 0.85211 0.18006
 N167 N 0.23892 0.83161 0.14908
 N168 N 0.26652 0.79257 0.17691
 C169 C 0.26494 0.72946 0.26722
 N170 N 0.32541 0.70895 0.23605
 N171 N 0.35303 0.66984 0.26365
 C172 C 0.32115 0.64982 0.32339
 N173 N 0.26070 0.67029 0.35461
 N174 N 0.23307 0.70940 0.32700
 C175 C 0.76660 0.22797 0.23136
 N176 N 0.73418 0.20806 0.17180
 N177 N 0.76121 0.16886 0.14344
 C178 C 0.82171 0.14806 0.17356
 N179 N 0.85414 0.16802 0.23316
 N180 N 0.82708 0.20723 0.26153
 C181 C 0.73655 0.27116 0.26261
 N182 N 0.76858 0.29111 0.32238
 N183 N 0.74106 0.33021 0.35074
 C184 C 0.68056 0.35074 0.32033
 N185 N 0.64855 0.33083 0.26059
 N186 N 0.67605 0.29175 0.23224
   
