data_POSCAR
  _audit_creation_date              2014-09-24
  _audit_creation_method            'ToBaCCo'
  _symmetry_space_group_name_H-M    'P1'
  _symmetry_Int_Tables_number       1
  _symmetry_cell_setting            triclinic
  loop_
  _symmetry_equiv_pos_as_xyz
 x,y,z
_cell_length_a 38.8585
_cell_length_b 40.5506
_cell_length_c 40.6075
_cell_angle_alpha 88.214200
_cell_angle_beta 88.837200
_cell_angle_gamma 90.046500
loop_
  _atom_site_label
  _atom_site_type_symbol
  _atom_site_fract_x
  _atom_site_fract_y
  _atom_site_fract_z
C1 C 0.19102 0.17541 0.26252
 C2 C 0.16378 0.18058 0.28517
 C3 C 0.14243 0.20833 0.28169
 C4 C 0.14863 0.23122 0.25550
 C5 C 0.17550 0.22635 0.23272
 C6 C 0.19673 0.19832 0.23604
 C7 C 0.21260 0.14775 0.26576
 C8 C 0.23955 0.14270 0.24295
 C9 C 0.24482 0.16544 0.21640
 C10 C 0.22357 0.19319 0.21277
 C11 C 0.22863 0.21591 0.18623
 C12 C 0.20737 0.24383 0.18308
 C13 C 0.18121 0.24900 0.20646
 H14 H 0.15899 0.16304 0.30543
 H15 H 0.13233 0.25275 0.25262
 H16 H 0.20860 0.13007 0.28606
 H17 H 0.26548 0.16160 0.19862
 H18 H 0.24903 0.21195 0.16820
 H19 H 0.16494 0.27059 0.20374
 C20 C 0.69914 0.67156 0.74817
 C21 C 0.67007 0.67221 0.76930
 C22 C 0.64713 0.69880 0.76777
 C23 C 0.65362 0.72523 0.74519
 C24 C 0.68248 0.72493 0.72400
 C25 C 0.70527 0.69792 0.72525
 C26 C 0.72210 0.64495 0.74948
 C27 C 0.75092 0.64422 0.72796
 C28 C 0.75663 0.67023 0.70496
 C29 C 0.73409 0.69723 0.70348
 C30 C 0.73973 0.72351 0.68061
 C31 C 0.71701 0.75052 0.67958
 C32 C 0.68872 0.75113 0.70138
 H33 H 0.66506 0.65200 0.78685
 H34 H 0.63612 0.74601 0.74397
 H35 H 0.71745 0.62476 0.76713
 H36 H 0.77883 0.66941 0.68840
 H37 H 0.76168 0.72299 0.66374
 H38 H 0.67128 0.77198 0.70025
 C39 C 0.28597 0.83881 0.70810
 C40 C 0.30819 0.83170 0.73409
 C41 C 0.32342 0.80056 0.73760
 C42 C 0.31645 0.77609 0.71475
 C43 C 0.29429 0.78279 0.68848
 C44 C 0.27874 0.81418 0.68534
 C45 C 0.27154 0.87038 0.70392
 C46 C 0.24996 0.87730 0.67739
 C47 C 0.24212 0.85272 0.65534
 C48 C 0.25652 0.82123 0.65900
 C49 C 0.24997 0.79708 0.63607
 C50 C 0.26599 0.76629 0.63844
 C51 C 0.28798 0.75900 0.66482
 H52 H 0.31404 0.85047 0.75158
 H53 H 0.32855 0.75210 0.71717
 H54 H 0.27765 0.88970 0.72073
 H55 H 0.22559 0.85851 0.63475
 H56 H 0.23324 0.80250 0.61555
 H57 H 0.30034 0.73509 0.66674
 C58 C 0.80007 0.31790 0.22051
 C59 C 0.81224 0.30965 0.25187
 C60 C 0.82283 0.27748 0.25955
 C61 C 0.82274 0.25348 0.23547
 C62 C 0.81091 0.26148 0.20373
 C63 C 0.79906 0.29376 0.19632
 C64 C 0.78711 0.34942 0.21366
 C65 C 0.77204 0.35708 0.18319
 C66 C 0.77149 0.33327 0.15889
 C67 C 0.78510 0.30161 0.16519
 C68 C 0.78379 0.27726 0.14144
 C69 C 0.79593 0.24519 0.14866
 C70 C 0.80941 0.23752 0.17968
 H71 H 0.81207 0.32787 0.27089
 H72 H 0.83075 0.22850 0.24178
 H73 H 0.78721 0.36751 0.23275
 H74 H 0.75957 0.33919 0.13555
 H75 H 0.77294 0.28311 0.11759
 H76 H 0.81826 0.21264 0.18512
 C77 C 0.80158 0.72800 0.27148
 C78 C 0.82916 0.73949 0.25136
 C79 C 0.84885 0.76645 0.26080
 C80 C 0.84093 0.78227 0.29015
 C81 C 0.81330 0.77138 0.31035
 C82 C 0.79358 0.74405 0.30109
 C83 C 0.78179 0.70084 0.26253
 C84 C 0.75429 0.68951 0.28295
 C85 C 0.74646 0.70558 0.31217
 C86 C 0.76577 0.73288 0.32137
 C87 C 0.75768 0.74928 0.35043
 C88 C 0.77696 0.77661 0.35951
 C89 C 0.80490 0.78752 0.33949
 H90 H 0.83508 0.72767 0.22837
 H91 H 0.85616 0.80331 0.29702
 H92 H 0.78793 0.68843 0.23991
 H93 H 0.72518 0.69669 0.32770
 H94 H 0.73623 0.74097 0.36605
 H95 H 0.81993 0.80862 0.34646
 C96 C 0.32943 0.23240 -0.24526
 C97 C 0.35489 0.24635 -0.26663
 C98 C 0.37192 0.27538 -0.25822
 C99 C 0.36357 0.29057 -0.22861
 C100 C 0.33811 0.27727 -0.20724
 C101 C 0.32102 0.24803 -0.21547
 C102 C 0.31190 0.20339 -0.25316
 C103 C 0.28668 0.18973 -0.23152
 C104 C 0.27849 0.20555 -0.20205
 C105 C 0.29522 0.23468 -0.19404
 C106 C 0.28620 0.25088 -0.16508
 C107 C 0.30289 0.28024 -0.15714
 C108 C 0.32904 0.29305 -0.17804
 H109 H 0.36115 0.23490 -0.28975
 H110 H 0.37663 0.31317 -0.22254
 H111 H 0.31789 0.19126 -0.27599
 H112 H 0.25864 0.19545 -0.18553
 H113 H 0.26614 0.24072 -0.14883
 H114 H 0.34188 0.31566 -0.17170
 C115 C 0.70931 0.27051 -0.26281
 C116 C 0.69113 0.25986 -0.28992
 C117 C 0.67793 0.22777 -0.29012
 C118 C 0.68192 0.20626 -0.26272
 C119 C 0.70001 0.21656 -0.23521
 C120 C 0.71407 0.24874 -0.23546
 C121 C 0.72381 0.30219 -0.26306
 C122 C 0.74340 0.31222 -0.23663
 C123 C 0.74799 0.29065 -0.20933
 C124 C 0.73351 0.25897 -0.20866
 C125 C 0.73885 0.23716 -0.18190
 C126 C 0.72484 0.20517 -0.18135
 C127 C 0.70514 0.19511 -0.20784
 H128 H 0.68800 0.27617 -0.31134
 H129 H 0.67171 0.18139 -0.26322
 H130 H 0.72071 0.31887 -0.28417
 H131 H 0.76330 0.29828 -0.18890
 H132 H 0.75385 0.24513 -0.16139
 H133 H 0.69447 0.17039 -0.20733
 C134 C 0.21778 0.79530 0.22857
 C135 C 0.19037 0.78929 0.20770
 C136 C 0.16560 0.76538 0.21633
 C137 C 0.16788 0.74760 0.24651
 C138 C 0.19504 0.75358 0.26783
 C139 C 0.22026 0.77743 0.25880
 C140 C 0.24322 0.81834 0.21929
 C141 C 0.27127 0.82348 0.23953
 C142 C 0.27375 0.80614 0.26982
 C143 C 0.24821 0.78306 0.27972
 C144 C 0.25046 0.76492 0.30966
 C145 C 0.22515 0.74128 0.31872
 C146 C 0.19766 0.73584 0.29780
 H147 H 0.18837 0.80291 0.18441
 H148 H 0.14858 0.72920 0.25338
 H149 H 0.24186 0.83165 0.19575
 H150 H 0.29580 0.81008 0.28517
 H151 H 0.27191 0.76897 0.32569
 H152 H 0.17846 0.71740 0.30491
 C153 C 0.46032 0.46593 0.45934
 C154 C 0.46438 0.43782 0.47963
 C155 C 0.49157 0.41594 0.47430
 C156 C 0.51512 0.42198 0.44788
 C157 C 0.51112 0.44993 0.42673
 C158 C 0.48362 0.47201 0.43275
 C159 C 0.43319 0.48801 0.46512
 C160 C 0.42913 0.51610 0.44442
 C161 C 0.45209 0.52197 0.41805
 C162 C 0.47922 0.50018 0.41205
 C163 C 0.50183 0.50612 0.38547
 C164 C 0.52876 0.48446 0.37888
 C165 C 0.53369 0.45630 0.39955
 H166 H 0.44641 0.43283 0.49997
 H167 H 0.53600 0.40485 0.44359
 H168 H 0.41527 0.48331 0.48553
 H169 H 0.44862 0.54365 0.40214
 H170 H 0.49842 0.52769 0.36940
 H171 H 0.55469 0.43955 0.39445
 C172 C -0.04182 -0.05465 0.98822
 C173 C -0.04639 -0.08543 1.00428
 C174 C -0.02658 -0.11261 0.99516
 C175 C -0.00249 -0.10937 0.96887
 C176 C 0.00217 -0.07876 0.95212
 C177 C -0.01749 -0.05128 0.96200
 C178 C -0.06004 -0.02685 0.99885
 C179 C -0.05403 0.00412 0.98356
 C180 C -0.03059 0.00729 0.95707
 C181 C -0.01214 -0.02016 0.94630
 C182 C 0.01250 -0.01663 0.92089
 C183 C 0.03230 -0.04374 0.91091
 C184 C 0.02682 -0.07479 0.92639
 H185 H -0.06457 -0.08815 1.02479
 H186 H 0.01296 -0.13037 0.96193
 H187 H -0.07790 -0.02900 1.01969
 H188 H -0.02580 0.03147 0.94570
 H189 H 0.01648 0.00744 0.90909
 H190 H 0.04219 -0.09559 0.91874
 C191 C 1.01749 0.50440 1.02520
 C192 C 1.00538 0.52659 1.04875
 C193 C 0.98219 0.55165 1.03969
 C194 C 0.97184 0.55527 1.00699
 C195 C 0.98328 0.53319 0.98333
 C196 C 1.00612 0.50757 0.99237
 C197 C 1.03893 0.47783 1.03424
 C198 C 1.04871 0.45453 1.01097
 C199 C 1.03767 0.45796 0.97844
 C200 C 1.01611 0.48413 0.96899
 C201 C 1.00257 0.48603 0.93718
 C202 C 0.97907 0.51104 0.92858
 C203 C 0.97035 0.53496 0.95136
 H204 H 1.01278 0.52361 1.07427
 H205 H 0.95338 0.57431 1.00043
 H206 H 1.04686 0.47447 1.05957
 H207 H 1.04462 0.43932 0.96092
 H208 H 1.00924 0.46737 0.91963
 H209 H 0.95192 0.55394 0.94460
 C210 C 0.53307 0.01782 0.51038
 C211 C 0.52977 0.04558 0.53001
 C212 C 0.50956 0.07247 0.51982
 C213 C 0.49204 0.07143 0.48991
 C214 C 0.49485 0.04383 0.47014
 C215 C 0.51559 0.01696 0.48023
 C216 C 0.55330 -0.00920 0.52042
 C217 C 0.55610 -0.03686 0.50072
 C218 C 0.53897 -0.03761 0.47071
 C219 C 0.51861 -0.01086 0.46029
 C220 C 0.50079 -0.01163 0.43057
 C221 C 0.47994 0.01512 0.42069
 C222 C 0.47721 0.04266 0.44046
 H223 H 0.54323 0.04658 0.55308
 H224 H 0.47631 0.09213 0.48196
 H225 H 0.56638 -0.00902 0.54376
 H226 H 0.54101 -0.05933 0.45586
 H227 H 0.50292 -0.03303 0.41534
 H228 H 0.46111 0.06315 0.43260
 C229 C -0.08095 0.07393 0.55784
 C230 C -0.07549 0.10084 0.53565
 C231 C -0.04810 0.12298 0.54018
 C232 C -0.02664 0.11846 0.56708
 C233 C -0.03158 0.09176 0.58929
 C234 C -0.05874 0.06933 0.58474
 C235 C -0.10764 0.05114 0.55331
 C236 C -0.11214 0.02387 0.57533
 C237 C -0.08999 0.01957 0.60190
 C238 C -0.06320 0.04195 0.60671
 C239 C -0.04018 0.03694 0.63260
 C240 C -0.01297 0.05899 0.63683
 C241 C -0.00907 0.08663 0.61541
 H242 H -0.09216 0.10429 0.51476
 H243 H -0.00558 0.13557 0.57022
 H244 H -0.12458 0.05440 0.53259
 H245 H -0.09345 -0.00166 0.61854
 H246 H -0.04286 0.01553 0.64912
 H247 H 0.01213 0.10358 0.61842
 C248 C 0.41022 0.54706 0.02666
 C249 C 0.40595 0.57741 0.00997
 C250 C 0.42987 0.60280 0.01322
 C251 C 0.45900 0.59776 0.03260
 C252 C 0.46391 0.56724 0.04933
 C253 C 0.43922 0.54188 0.04651
 C254 C 0.38529 0.52226 0.02471
 C255 C 0.38875 0.49234 0.04271
 C256 C 0.41771 0.48706 0.06215
 C257 C 0.44303 0.51160 0.06415
 C258 C 0.47166 0.50667 0.08410
 C259 C 0.49623 0.53160 0.08709
 C260 C 0.49238 0.56191 0.06963
 H261 H 0.38328 0.58182 -0.00470
 H262 H 0.47717 0.61776 0.03531
 H263 H 0.36286 0.52654 0.00974
 H264 H 0.42019 0.46392 0.07599
 H265 H 0.47471 0.48357 0.09790
 H266 H 0.51121 0.58134 0.07213
 C267 C 0.57536 -0.05832 0.00001
 C268 C 0.56671 -0.08274 -0.02211
 C269 C 0.53630 -0.10096 -0.01756
 C270 C 0.51437 -0.09490 0.00952
 C271 C 0.52284 -0.07078 0.03199
 C272 C 0.55335 -0.05225 0.02723
 C273 C 0.60568 -0.03993 -0.00460
 C274 C 0.61431 -0.01561 0.01748
 C275 C 0.59242 -0.00956 0.04471
 C276 C 0.56193 -0.02779 0.04977
 C277 C 0.53991 -0.02222 0.07697
 C278 C 0.50973 -0.04108 0.08180
 C279 C 0.50141 -0.06511 0.05931
 H280 H 0.58357 -0.08768 -0.04297
 H281 H 0.49096 -0.10918 0.01331
 H282 H 0.62268 -0.04435 -0.02549
 H283 H 0.59905 0.00929 0.06183
 H284 H 0.54641 -0.00368 0.09447
 H285 H 0.47809 -0.07951 0.06335
 C286 C 1.05455 0.46871 0.50842
 C287 C 1.04258 0.45045 0.48219
 C288 C 1.01230 0.43172 0.48581
 C289 C 0.99423 0.43038 0.51607
 C290 C 1.00583 0.44842 0.54267
 C291 C 1.03602 0.46779 0.53874
 C292 C 1.08379 0.48907 0.50449
 C293 C 1.09436 0.50855 0.53055
 C294 C 1.07615 0.50719 0.56053
 C295 C 1.04701 0.48718 0.56479
 C296 C 1.02799 0.48728 0.59434
 C297 C 0.99800 0.46853 0.59833
 C298 C 0.98702 0.44876 0.57263
 H299 H 1.05596 0.45185 0.45848
 H300 H 0.97047 0.41637 0.51841
 H301 H 1.09775 0.49030 0.48112
 H302 H 1.08441 0.52249 0.58034
 H303 H 1.03599 0.50259 0.61423
 H304 H 0.96352 0.43448 0.57560
 C305 C 0.43909 0.01555 0.20278
 H306 H 0.43698 0.03726 0.21750
 C307 C 0.46361 0.01451 0.17699
 H308 H 0.48026 0.03550 0.17167
 C309 C 0.42055 -0.03857 0.19177
 H310 H 0.40488 -0.05985 0.19814
 C311 C 0.44430 -0.04055 0.16585
 H312 H 0.44585 -0.06307 0.15228
 N313 N 0.41740 -0.01044 0.20899
 C314 C 0.32725 0.03109 0.26031
 H315 H 0.32415 0.01308 0.28037
 C316 C 0.30448 0.05770 0.25765
 H317 H 0.28395 0.06014 0.27581
 C318 C 0.35758 0.04958 0.21197
 H319 H 0.37781 0.04606 0.19382
 C320 C 0.33539 0.07649 0.20838
 H321 H 0.33894 0.09383 0.18777
 Zn322 Zn 0.38296 -0.00936 0.24311
 N323 N 0.35347 0.02776 0.23790
 C324 C 0.40190 0.01688 0.30430
 N325 N 0.40601 -0.00868 0.28366
 C326 C 0.42820 -0.03377 0.29063
 C327 C 0.44681 -0.03415 0.31970
 C328 C 0.42012 0.01753 0.33357
 C329 C 0.33945 -0.05124 0.21130
 C330 C 0.32573 -0.08165 0.20333
 C331 C 0.34025 -0.10301 0.25749
 C332 C 0.35473 -0.07234 0.26415
 N333 N 0.35542 -0.04776 0.24049
 H334 H 0.38487 0.03701 0.29795
 H335 H 0.43148 -0.05346 0.27347
 H336 H 0.46433 -0.05425 0.32513
 H337 H 0.41658 0.03805 0.34972
 H338 H 0.34024 -0.03123 0.19304
 H339 H 0.31569 -0.08509 0.17900
 H340 H 0.34162 -0.12320 0.27550
 H341 H 0.36704 -0.06889 0.28741
 C342 C 0.30866 0.08081 0.23140
 C343 C 0.46582 -0.01357 0.15784
 C344 C 0.32690 -0.10799 0.22625
 C345 C 0.44289 -0.00831 0.34144
 C346 C 0.09339 0.02269 0.72331
 H347 H 0.09637 -0.00228 0.73298
 C348 C 0.06551 0.03071 0.70365
 H349 H 0.04708 0.01174 0.69811
 C350 C 0.11453 0.07756 0.71827
 H351 H 0.13365 0.09569 0.72416
 C352 C 0.08709 0.08659 0.69814
 H353 H 0.08529 0.11160 0.68820
 N354 N 0.11742 0.04585 0.72982
 C355 C 0.19546 -0.02806 0.74271
 H356 H 0.19742 -0.03140 0.76912
 C357 C 0.21228 -0.04996 0.72175
 H358 H 0.22667 -0.07048 0.73214
 C359 C 0.17588 0.00350 0.69667
 H360 H 0.16216 0.02467 0.68689
 C361 C 0.19282 -0.01719 0.67506
 H362 H 0.19179 -0.01217 0.64875
 Zn363 Zn 0.15431 0.02980 0.75507
 N364 N 0.17708 -0.00233 0.72980
 C365 C 0.12905 -0.01911 0.80377
 N366 N 0.13281 0.01336 0.79462
 C367 C 0.11610 0.03732 0.81128
 C368 C 0.09498 0.02929 0.83836
 C369 C 0.10777 -0.02830 0.83088
 C370 C 0.20167 0.08039 0.73724
 C371 C 0.22412 0.10666 0.74234
 C372 C 0.21549 0.09778 0.80100
 C373 C 0.19354 0.07155 0.79484
 N374 N 0.18626 0.06394 0.76334
 H375 H 0.14102 -0.03798 0.78928
 H376 H 0.11838 0.06278 0.80274
 H377 H 0.08138 0.04861 0.85104
 H378 H 0.10417 -0.05414 0.83756
 H379 H 0.19594 0.07356 0.71241
 H380 H 0.23545 0.12013 0.72138
 H381 H 0.22036 0.10429 0.82615
 H382 H 0.18212 0.05755 0.81531
 C383 C 0.21091 -0.04434 0.68746
 C384 C 0.06250 0.06293 0.69048
 C385 C 0.23068 0.11580 0.77465
 C386 C 0.09026 -0.00370 0.84811
 C387 C 0.60297 0.50503 0.17692
 H388 H 0.60507 0.48161 0.19022
 C389 C 0.57720 0.50976 0.15378
 H390 H 0.55969 0.48973 0.14919
 C391 C 0.62249 0.56002 0.16773
 H392 H 0.63970 0.57977 0.17373
 C393 C 0.59713 0.56576 0.14431
 H394 H 0.59506 0.58981 0.13217
 N395 N 0.62497 0.52999 0.18346
 C396 C 0.71693 0.48763 0.22684
 H397 H 0.71907 0.50402 0.24722
 C398 C 0.74034 0.46196 0.22331
 H399 H 0.76056 0.45844 0.24104
 C400 C 0.68662 0.47082 0.18008
 H401 H 0.66531 0.47411 0.16364
 C402 C 0.70949 0.44460 0.17573
 H403 H 0.70547 0.42763 0.15611
 Zn404 Zn 0.65686 0.52256 0.21760
 N405 N 0.69012 0.49092 0.20604
 C406 C 0.64043 0.47792 0.27162
 N407 N 0.63190 0.50669 0.25555
 C408 C 0.60464 0.52496 0.26577
 C409 C 0.58538 0.51505 0.29369
 C410 C 0.62176 0.46707 0.29976
 C411 C 0.70273 0.57518 0.20387
 C412 C 0.72182 0.60336 0.21049
 C413 C 0.69479 0.60391 0.26456
 C414 C 0.67638 0.57567 0.25702
 N415 N 0.68042 0.56203 0.22700
 H416 H 0.66171 0.46332 0.26277
 H417 H 0.59810 0.54745 0.25230
 H418 H 0.56398 0.53019 0.30150
 H419 H 0.62884 0.44432 0.31255
 H420 H 0.70591 0.56352 0.18040
 H421 H 0.73965 0.61361 0.19205
 H422 H 0.69132 0.61432 0.28862
 H423 H 0.65925 0.56450 0.27541
 C424 C 0.73610 0.43964 0.19822
 C425 C 0.57402 0.54059 0.13736
 C426 C 0.71790 0.61796 0.24108
 C427 C 0.59406 0.48581 0.31116
 C428 C 0.91902 0.49108 0.71354
 H429 H 0.92351 0.51207 0.72870
 C430 C 0.93885 0.48683 0.68495
 H431 H 0.95852 0.50482 0.67809
 C432 C 0.88810 0.44192 0.70424
 H433 H 0.86882 0.42405 0.71206
 C434 C 0.90705 0.43695 0.67526
 H435 H 0.90201 0.41560 0.66073
 N436 N 0.89397 0.46895 0.72244
 C437 C 0.81620 0.51837 0.78156
 H438 H 0.81468 0.50114 0.80243
 C439 C 0.79376 0.54516 0.77980
 H440 H 0.77490 0.54872 0.79935
 C441 C 0.84230 0.53460 0.73028
 H442 H 0.86094 0.53014 0.71085
 C443 C 0.82048 0.56191 0.72767
 H444 H 0.82261 0.57842 0.70626
 Zn445 Zn 0.86837 0.47608 0.76171
 N446 N 0.83998 0.51370 0.75712
 C447 C 0.89788 0.50888 0.81487
 N448 N 0.89964 0.48156 0.79630
 C449 C 0.92358 0.45772 0.80210
 C450 C 0.94583 0.46005 0.82855
 C451 C 0.91959 0.51217 0.84153
 C452 C 0.81352 0.43423 0.74957
 C453 C 0.79287 0.40618 0.75330
 C454 C 0.82355 0.39105 0.80269
 C455 C 0.84383 0.41929 0.79789
 N456 N 0.83916 0.43963 0.77108
 H457 H 0.87925 0.52793 0.80946
 H458 H 0.92477 0.43648 0.78664
 H459 H 0.96407 0.44048 0.83369
 H460 H 0.91716 0.53363 0.85661
 H461 H 0.81001 0.45118 0.72881
 H462 H 0.77342 0.40158 0.73530
 H463 H 0.82809 0.37434 0.82347
 H464 H 0.86370 0.42446 0.81519
 C465 C 0.79590 0.56727 0.75276
 C466 C 0.93270 0.45949 0.66542
 C467 C 0.79841 0.38393 0.77983
 C468 C 0.94352 0.48720 0.84887
 C469 C 0.17278 0.40854 0.01264
 H470 H 0.19202 0.42743 0.00824
 C471 C 0.13812 0.41768 0.01591
 H472 H 0.13100 0.44344 0.01360
 C473 C 0.15823 0.35231 0.02256
 H474 H 0.16622 0.32693 0.02598
 C475 C 0.12359 0.36043 0.02672
 H476 H 0.10492 0.34123 0.03276
 N477 N 0.18216 0.37621 0.01579
 C478 C 0.24775 0.30123 0.04796
 H479 H 0.25867 0.29456 0.02439
 C480 C 0.24803 0.27849 0.07457
 H481 H 0.25906 0.25424 0.07150
 C482 C 0.21940 0.34062 0.08087
 H483 H 0.20804 0.36483 0.08296
 C484 C 0.21875 0.31855 0.10789
 H485 H 0.20695 0.32601 0.13086
 Zn486 Zn 0.22888 0.36165 0.01544
 N487 N 0.23319 0.33146 0.05152
 C488 C 0.28297 0.39559 0.04514
 N489 N 0.26002 0.39718 0.02024
 C490 C 0.26114 0.42222 -0.00287
 C491 C 0.28609 0.44690 -0.00150
 C492 C 0.30861 0.41954 0.04715
 C493 C 0.21968 0.31529 -0.03470
 C494 C 0.22854 0.29844 -0.06317
 C495 C 0.27925 0.33263 -0.06974
 C496 C 0.26959 0.34868 -0.04111
 N497 N 0.24012 0.34000 -0.02427
 H498 H 0.28211 0.37523 0.06292
 H499 H 0.24339 0.42239 -0.02305
 H500 H 0.28710 0.46653 -0.02020
 H501 H 0.32699 0.41767 0.06680
 H502 H 0.19670 0.30835 -0.02077
 H503 H 0.21223 0.27872 -0.07124
 H504 H 0.30283 0.33983 -0.08270
 H505 H 0.28610 0.36767 -0.03211
 C506 C 0.23281 0.28688 0.10468
 C507 C 0.11325 0.39331 0.02340
 C508 C 0.25856 0.30712 -0.08097
 C509 C 0.31041 0.44537 0.02338
 C510 C 0.73505 0.05929 -0.01150
 H511 H 0.75066 0.05577 -0.03345
 C512 C 0.70677 0.03870 -0.00470
 H513 H 0.70121 0.01901 -0.02119
 C514 C 0.72186 0.09042 0.03554
 H515 H 0.72716 0.11102 0.05084
 C516 C 0.69350 0.07034 0.04331
 H517 H 0.67736 0.07540 0.06461
 N518 N 0.74193 0.08477 0.00842
 C519 C 0.79542 0.15535 -0.05785
 H520 H 0.81836 0.15956 -0.04395
 C521 C 0.79055 0.17266 -0.08761
 H522 H 0.80980 0.19018 -0.09672
 C523 C 0.74142 0.12876 -0.06233
 H524 H 0.72181 0.11245 -0.05191
 C525 C 0.73574 0.14528 -0.09247
 H526 H 0.71193 0.14135 -0.10517
 Zn527 Zn 0.77792 0.11506 -0.00309
 N528 N 0.77083 0.13421 -0.04559
 C529 C 0.84847 0.11450 0.00695
 N530 N 0.82212 0.09477 -0.00198
 C531 C 0.82769 0.06251 -0.00892
 C532 C 0.86079 0.04898 -0.00658
 C533 C 0.88156 0.10185 0.01026
 C534 C 0.76743 0.18021 0.01915
 C535 C 0.76862 0.20535 0.04186
 C536 C 0.79043 0.16601 0.08218
 C537 C 0.78872 0.14161 0.05880
 N538 N 0.77763 0.14911 0.02790
 H539 H 0.84378 0.14016 0.01185
 H540 H 0.80661 0.04711 -0.01599
 H541 H 0.86493 0.02327 -0.01188
 H542 H 0.90217 0.11770 0.01792
 H543 H 0.75839 0.18559 -0.00543
 H544 H 0.76062 0.23009 0.03474
 H545 H 0.79957 0.15966 0.10657
 H546 H 0.79659 0.11666 0.06511
 C547 C 0.76042 0.16786 -0.10505
 C548 C 0.68549 0.04450 0.02290
 C549 C 0.78044 0.19837 0.07360
 C550 C 0.88798 0.06889 0.00348
 C551 C 0.21735 0.58190 0.46923
 H552 H 0.23480 0.58236 0.44812
 C553 C 0.19030 0.55920 0.47119
 H554 H 0.18665 0.54224 0.45148
 C555 C 0.20117 0.60300 0.52111
 H556 H 0.20582 0.61978 0.54069
 C557 C 0.17398 0.58054 0.52418
 H558 H 0.15759 0.58051 0.54605
 N559 N 0.22208 0.60338 0.49385
 C560 C 0.28164 0.68415 0.44703
 H561 H 0.30334 0.68538 0.46322
 C562 C 0.27997 0.70543 0.41932
 H563 H 0.30044 0.72306 0.41405
 C564 C 0.22848 0.65962 0.43387
 H565 H 0.20822 0.64205 0.43972
 C566 C 0.22581 0.68036 0.40598
 H567 H 0.20361 0.67823 0.39050
 Zn568 Zn 0.26073 0.63161 0.49014
 N569 N 0.25646 0.66131 0.45335
 C570 C 0.32079 0.60754 0.45799
 N571 N 0.29918 0.60385 0.48461
 C572 C 0.30317 0.57873 0.50721
 C573 C 0.33015 0.55633 0.50380
 C574 C 0.34812 0.58575 0.45368
 C575 C 0.24151 0.68027 0.53439
 C576 C 0.24469 0.70058 0.56132
 C577 C 0.29657 0.67136 0.57608
 C578 C 0.29264 0.65184 0.54866
 N579 N 0.26537 0.65655 0.52850
 H580 H 0.31667 0.62706 0.43983
 H581 H 0.28517 0.57603 0.52779
 H582 H 0.33317 0.53636 0.52183
 H583 H 0.36506 0.58898 0.43232
 H584 H 0.22028 0.68370 0.51780
 H585 H 0.22573 0.71964 0.56539
 H586 H 0.31852 0.66772 0.59178
 H587 H 0.31172 0.63333 0.54330
 C588 C 0.25206 0.70332 0.39827
 C589 C 0.16844 0.55827 0.49894
 C590 C 0.27270 0.69624 0.58239
 C591 C 0.35289 0.55976 0.47683
 C592 C 0.68210 0.92769 0.51642
 H593 H 0.69994 0.94766 0.51110
 C594 C 0.64657 0.93362 0.51508
 H595 H 0.63734 0.95813 0.50871
 C596 C 0.67187 0.87152 0.53131
 H597 H 0.68170 0.84730 0.53773
 C598 C 0.63643 0.87644 0.53060
 H599 H 0.61914 0.85601 0.53634
 N600 N 0.69404 0.89689 0.52423
 C601 C 0.76485 0.82580 0.55567
 H602 H 0.77838 0.82240 0.53251
 C603 C 0.76508 0.80066 0.58002
 H604 H 0.77868 0.77789 0.57557
 C605 C 0.72984 0.85909 0.58969
 H606 H 0.71578 0.88180 0.59302
 C607 C 0.72900 0.83444 0.61445
 H608 H 0.71440 0.83842 0.63696
 Zn609 Zn 0.74172 0.88587 0.52590
 N610 N 0.74683 0.85404 0.56067
 C611 C 0.78950 0.92268 0.56108
 N612 N 0.77007 0.92321 0.53354
 C613 C 0.77244 0.94876 0.51101
 C614 C 0.79539 0.97480 0.51556
 C615 C 0.81273 0.94812 0.56653
 C616 C 0.73569 0.84018 0.47603
 C617 C 0.74445 0.82382 0.44735
 C618 C 0.79275 0.86085 0.43899
 C619 C 0.78313 0.87651 0.46796
 N620 N 0.75491 0.86605 0.48579
 H621 H 0.78763 0.90212 0.57858
 H622 H 0.75734 0.94840 0.48895
 H623 H 0.79760 0.99467 0.49721
 H624 H 0.82830 0.94689 0.58834
 H625 H 0.71372 0.83191 0.49074
 H626 H 0.72887 0.80324 0.44010
 H627 H 0.81527 0.86921 0.42496
 H628 H 0.79852 0.89666 0.47637
 C629 C 0.74628 0.80455 0.60936
 C630 C 0.62345 0.90757 0.52223
 C631 C 0.77336 0.83419 0.42853
 C632 C 0.81610 0.97443 0.54337
 C633 C -0.01503 0.22776 0.44865
 H634 H 0.00777 0.24282 0.45037
 C635 C -0.02148 0.20238 0.47215
 H636 H -0.00391 0.19854 0.49225
 C637 C -0.06456 0.21277 0.41950
 H638 H -0.08078 0.21576 0.39841
 C639 C -0.07184 0.18722 0.44225
 H640 H -0.09389 0.17141 0.43891
 N641 N -0.03702 0.23305 0.42334
 C642 C 0.01852 0.27900 0.33892
 H643 H 0.00376 0.30125 0.33487
 C644 C 0.04694 0.27275 0.31855
 H645 H 0.05407 0.29026 0.29890
 C646 C 0.02727 0.22874 0.36895
 H647 H 0.01937 0.21154 0.38852
 C648 C 0.05602 0.22157 0.34910
 H649 H 0.07013 0.19891 0.35355
 Zn650 Zn -0.02976 0.26722 0.39044
 N651 N 0.00918 0.25712 0.36356
 C652 C -0.03207 0.33518 0.38637
 N653 N -0.02409 0.31010 0.40791
 C654 C -0.01322 0.31647 0.43882
 C655 C -0.00933 0.34916 0.44862
 C656 C -0.02891 0.36791 0.39524
 C657 C -0.07058 0.26156 0.33258
 C658 C -0.10193 0.26049 0.31626
 C659 C -0.13115 0.27479 0.36697
 C660 C -0.09934 0.27674 0.38194
 N661 N -0.07001 0.26916 0.36499
 H662 H -0.04115 0.32978 0.36215
 H663 H -0.00744 0.29648 0.45592
 H664 H -0.00050 0.35398 0.47313
 H665 H -0.03538 0.38756 0.37778
 H666 H -0.04696 0.25548 0.31964
 H667 H -0.10241 0.25383 0.29067
 H668 H -0.15451 0.27958 0.38100
 H669 H -0.09805 0.28273 0.40766
 C670 C 0.06597 0.24388 0.32355
 C671 C -0.05047 0.18200 0.46899
 C672 C -0.13260 0.26647 0.33395
 C673 C -0.01722 0.37521 0.42643
 C674 C -0.05803 0.67324 0.10498
 H675 H -0.07823 0.69096 0.10943
 C676 C -0.06651 0.64102 0.09708
 H677 H -0.09326 0.63372 0.09605
 C678 C 0.00147 0.66100 0.10013
 H679 H 0.02795 0.66902 0.10141
 C680 C -0.00592 0.62885 0.09085
 H681 H 0.01486 0.61200 0.08533
 N682 N -0.02450 0.68229 0.10744
 C683 C -0.03646 0.77387 0.16050
 H684 H -0.01605 0.78711 0.14726
 C685 C -0.05607 0.78985 0.18418
 H686 H -0.05090 0.81546 0.18910
 C687 C -0.06777 0.72428 0.17056
 H688 H -0.07155 0.69847 0.16596
 C689 C -0.08793 0.73938 0.19481
 H690 H -0.10739 0.72513 0.20827
 Zn691 Zn -0.01349 0.72569 0.11983
 N692 N -0.04315 0.74197 0.15339
 C693 C -0.04201 0.77667 0.08061
 N694 N -0.01557 0.75475 0.08223
 C695 C 0.00983 0.75490 0.05862
 C696 C 0.01093 0.77979 0.03390
 C697 C -0.04187 0.80188 0.05650
 C698 C 0.03562 0.70460 0.16430
 C699 C 0.06479 0.70708 0.18357
 C700 C 0.08313 0.75411 0.14962
 C701 C 0.05361 0.75075 0.13096
 N702 N 0.03046 0.72640 0.13875
 H703 H -0.06276 0.77535 0.09871
 H704 H 0.03022 0.73680 0.06004
 H705 H 0.03221 0.78089 0.01627
 H706 H -0.06236 0.81994 0.05660
 H707 H 0.01631 0.68608 0.17052
 H708 H 0.06824 0.69021 0.20443
 H709 H 0.10081 0.77419 0.14374
 H710 H 0.04838 0.76868 0.11150
 C711 C -0.08230 0.77278 0.20135
 C712 C -0.04033 0.61859 0.08983
 C713 C 0.08850 0.73240 0.17667
 C714 C -0.01447 0.80426 0.03347
 C715 C 0.48901 0.21605 0.54968
 H716 H 0.48465 0.23937 0.53691
 C717 C 0.48466 0.18675 0.53310
 H718 H 0.47666 0.18758 0.50769
 C719 C 0.50680 0.18619 0.59752
 H720 H 0.51640 0.18632 0.62234
 C721 C 0.50348 0.15637 0.58159
 H722 H 0.51008 0.13350 0.59440
 N723 N 0.50057 0.21527 0.58109
 C724 C 0.48825 0.29891 0.64434
 H725 H 0.50848 0.31447 0.63372
 C726 C 0.46546 0.31139 0.66775
 H727 H 0.46815 0.33664 0.67528
 C728 C 0.45942 0.24730 0.64690
 H729 H 0.45700 0.22246 0.63830
 C730 C 0.43630 0.25872 0.67093
 H731 H 0.41619 0.24258 0.68077
 Zn732 Zn 0.51562 0.25442 0.60032
 N733 N 0.48476 0.26749 0.63420
 C734 C 0.48817 0.30358 0.55912
 N735 N 0.51833 0.28898 0.56762
 C736 C 0.54882 0.29921 0.55362
 C737 C 0.54961 0.32517 0.53000
 C738 C 0.48786 0.32980 0.53608
 C739 C 0.56696 0.25191 0.64949
 C740 C 0.59778 0.24080 0.66315
 C741 C 0.61235 0.21564 0.61155
 C742 C 0.58166 0.22774 0.59867
 N743 N 0.55947 0.24509 0.61781
 H744 H 0.46429 0.29497 0.57057
 H745 H 0.57253 0.28736 0.56078
 H746 H 0.57394 0.33333 0.51909
 H747 H 0.46357 0.34124 0.52993
 H748 H 0.54871 0.26522 0.66446
 H749 H 0.60324 0.24597 0.68851
 H750 H 0.62945 0.20114 0.59640
 H751 H 0.57483 0.22220 0.57375
 C752 C 0.43919 0.29133 0.68125
 C753 C 0.49311 0.15671 0.54867
 C754 C 0.62052 0.22193 0.64411
 C755 C 0.51894 0.34099 0.52133
 C756 C 0.47626 0.69483 0.92702
 H757 H 0.50363 0.69917 0.92424
 C758 C 0.46356 0.67574 0.95398
 H759 H 0.48119 0.66477 0.97147
 C760 C 0.41943 0.70650 0.90995
 H761 H 0.40222 0.71960 0.89360
 C762 C 0.40580 0.68881 0.93710
 H763 H 0.37819 0.68782 0.94122
 N764 N 0.45410 0.70963 0.90558
 C765 C 0.51569 0.75490 0.82490
 H766 H 0.49965 0.77658 0.82235
 C767 C 0.54451 0.75158 0.80444
 H768 H 0.55072 0.77066 0.78602
 C769 C 0.52728 0.70366 0.85218
 H770 H 0.52020 0.68491 0.87054
 C771 C 0.55668 0.69941 0.83214
 H772 H 0.57230 0.67750 0.83538
 Zn773 Zn 0.46878 0.74261 0.87432
 N774 N 0.50796 0.73151 0.84861
 C775 C 0.51070 0.79396 0.89750
 N776 N 0.47859 0.78047 0.89852
 C777 C 0.45341 0.79218 0.91876
 C778 C 0.46010 0.81851 0.93906
 C779 C 0.51839 0.82046 0.91720
 C780 C 0.42398 0.72597 0.82489
 C781 C 0.39961 0.73086 0.80045
 C782 C 0.39462 0.78774 0.81596
 C783 C 0.41915 0.78179 0.84012
 N784 N 0.43328 0.75128 0.84406
 H785 H 0.53070 0.78376 0.88206
 H786 H 0.42828 0.78066 0.91951
 H787 H 0.44009 0.82744 0.95543
 H788 H 0.54416 0.83065 0.91638
 H789 H 0.43596 0.70207 0.82836
 H790 H 0.39262 0.71069 0.78505
 H791 H 0.38388 0.81223 0.81283
 H792 H 0.42739 0.80171 0.85518
 C793 C 0.56550 0.72393 0.80820
 C794 C 0.42789 0.67344 0.95944
 C795 C 0.38486 0.76201 0.79568
 C796 C 0.49288 0.83277 0.93844
 N797 N 0.11426 0.21284 0.30457
 N798 N 0.09476 0.23798 0.30197
 N799 N 0.61735 0.69867 0.78924
 N800 N 0.59559 0.72204 0.78752
 N801 N 0.34666 0.79487 0.76410
 N802 N 0.36102 0.76710 0.76956
 N803 N -0.17044 0.26949 0.29013
 N804 N -0.16557 0.26315 0.31949
 N805 N -0.12593 0.77788 0.24194
 N806 N -0.10229 0.79028 0.22510
 N807 N 0.39464 0.28965 0.72179
 N808 N 0.41574 0.30544 0.70455
 N809 N 0.66383 0.21746 0.68312
 N810 N 0.65149 0.20821 0.65727
 N811 N 0.13819 0.76002 0.19408
 N812 N 0.11646 0.73676 0.19855
 N813 N 0.26139 0.11443 0.24729
 N814 N 0.28635 0.10874 0.22746
 N815 N 0.77470 0.61724 0.72900
 N816 N 0.77265 0.59460 0.75136
 N817 N 0.76003 0.34371 0.76104
 N818 N 0.78040 0.35321 0.78299
 N819 N 0.29634 -0.15754 0.22837
 N820 N 0.31941 -0.14037 0.21565
 N821 N 0.23872 -0.09280 0.67164
 N822 N 0.22809 -0.06497 0.66445
 N823 N 0.75410 0.38765 0.17817
 N824 N 0.75629 0.41023 0.19910
 N825 N 0.73410 0.66143 0.27496
 N826 N 0.73805 0.64642 0.24808
 N827 N 0.26876 0.16031 0.75999
 N828 N 0.25084 0.14419 0.78162
 N829 N 0.21119 0.26731 0.15622
 N830 N 0.23051 0.26268 0.13112
 N831 N 0.72137 0.77746 0.65623
 N832 N 0.74351 0.77739 0.63272
 N833 N 0.76734 0.79300 0.38906
 N834 N 0.78351 0.81801 0.39901
 N835 N 0.29356 0.29771 -0.12815
 N836 N 0.26764 0.28959 -0.10998
 N837 N 0.73040 0.18287 -0.15386
 N838 N 0.75465 0.18794 -0.13400
 N839 N 0.22689 0.72170 0.34860
 N840 N 0.25115 0.72402 0.36900
 N841 N 0.26041 0.74363 0.61274
 N842 N 0.27827 0.71767 0.60919
 N843 N 0.79417 0.21961 0.12524
 N844 N 0.78216 0.22438 0.09657
 N845 N 0.49362 0.38762 0.49613
 N846 N 0.51969 0.36878 0.49848
 N847 N -0.03018 0.85753 0.01467
 N848 N -0.01068 0.83255 0.01157
 N849 N -0.03310 0.56931 0.06208
 N850 N -0.04943 0.58553 0.08225
 N851 N 0.50814 0.10106 0.53964
 N852 N 0.49344 0.12751 0.52979
 N853 N -0.04069 0.14983 0.51743
 N854 N -0.05840 0.15544 0.49191
 N855 N 0.42276 0.63195 1.00056
 N856 N 0.41346 0.65887 0.98906
 N857 N 0.52867 0.87392 0.95968
 N858 N 0.50001 0.85868 0.96046
 N859 N -0.00121 0.41910 0.45977
 N860 N -0.01413 0.40925 0.43440
 N861 N 0.40175 0.53905 0.44922
 N862 N 0.38016 0.53642 0.47310
 N863 N 0.93272 0.03073 -0.00401
 N864 N 0.92217 0.05658 0.00772
 N865 N 0.64524 0.00294 0.01120
 N866 N 0.65497 0.02555 0.02993
 N867 N 0.12258 0.53114 0.52720
 N868 N 0.14098 0.53466 0.50108
 N869 N 0.06445 0.42743 0.02035
 N870 N 0.07764 0.40097 0.02888
 N871 N 0.57259 0.93696 0.51138
 N872 N 0.58684 0.91158 0.52145
 N873 N 0.86179 0.99941 0.57099
 N874 N 0.84116 1.00006 0.54701
 N875 N 0.36271 0.46733 0.04228
 N876 N 0.33683 0.46997 0.02366
 N877 N 0.55001 0.49239 0.35059
 N878 N 0.57494 0.47503 0.34018
 N879 N 0.05816 -0.03969 0.88530
 N880 N 0.06592 -0.01087 0.87422
 N881 N 0.01190 0.05156 0.66148
 N882 N 0.03611 0.07146 0.66769
 N883 N 0.52417 0.52562 0.10897
 N884 N 0.54692 0.54720 0.11463
 N885 N 0.48716 -0.03739 0.10969
 N886 N 0.48956 -0.01456 0.13035
 N887 N 0.97847 0.47167 0.62826
 N888 N 0.95192 0.45443 0.63556
 N889 N 0.96104 0.51103 0.89818
 N890 N 0.96386 0.48784 0.87789
 N891 N 0.46093 0.01499 0.39085
 N892 N 0.46233 -0.00870 0.37105
   
