data_POSCAR
  _audit_creation_date              2014-09-24
  _audit_creation_method            'ToBaCCo'
  _symmetry_space_group_name_H-M    'P1'
  _symmetry_Int_Tables_number       1
  _symmetry_cell_setting            triclinic
  loop_
  _symmetry_equiv_pos_as_xyz
 x,y,z
_cell_length_a 35.7180
_cell_length_b 36.4086
_cell_length_c 37.1898
_cell_angle_alpha 89.844600
_cell_angle_beta 89.842100
_cell_angle_gamma 89.206800
loop_
  _atom_site_label
  _atom_site_type_symbol
  _atom_site_fract_x
  _atom_site_fract_y
  _atom_site_fract_z
N1 N 0.11552 0.12644 0.22140
 N2 N 0.13902 0.09923 0.21452
 C3 C 0.13510 0.07283 0.23955
 C4 C 0.10829 0.08447 0.26389
 C5 C 0.09629 0.11868 0.25159
 H6 H 0.15151 0.04767 0.24091
 H7 H 0.07474 0.13625 0.26307
 Cu8 Cu 0.17514 0.10375 0.17600
 Cu9 Cu 0.11019 0.16828 0.18862
 Cu10 Cu 0.19046 0.18508 0.13799
 N11 N 0.21083 0.10839 0.13715
 N12 N 0.21930 0.14100 0.12443
 C13 C 0.24933 0.13765 0.10259
 C14 C 0.25945 0.10072 0.10118
 C15 C 0.23416 0.08302 0.12299
 H16 H 0.26255 0.16032 0.08891
 H17 H 0.23429 0.05409 0.12969
 N18 N 0.14802 0.22063 0.14224
 N19 N 0.11710 0.21352 0.16044
 C20 C 0.09160 0.24025 0.15408
 C21 C 0.10711 0.26552 0.13096
 C22 C 0.14300 0.25240 0.12403
 H23 H 0.06322 0.24060 0.16431
 H24 H 0.16292 0.26368 0.10519
 H25 H 0.14417 0.15350 0.14446
 H26 H 0.16635 0.16945 0.18691
 N27 N -0.12960 0.86092 0.22546
 N28 N -0.15736 0.88419 0.21943
 C29 C -0.15554 0.91201 0.24313
 C30 C -0.12565 0.90515 0.26573
 C31 C -0.10977 0.87252 0.25384
 H32 H -0.17510 0.93492 0.24451
 H33 H -0.08532 0.85858 0.26465
 Cu34 Cu -0.19485 0.87431 0.18315
 Cu35 Cu -0.12120 0.81770 0.19577
 Cu36 Cu -0.17267 0.81548 0.11670
 N37 N -0.22366 0.87258 0.13912
 N38 N -0.21367 0.85106 0.11235
 C39 C -0.23713 0.85681 0.08455
 C40 C -0.26360 0.88285 0.09473
 C41 C -0.25422 0.89229 0.12963
 H42 H -0.23561 0.84254 0.05910
 H43 H -0.26784 0.91254 0.14659
 N44 N -0.13038 0.78163 0.12672
 N45 N -0.11005 0.78330 0.15627
 C46 C -0.08258 0.75760 0.15463
 C47 C -0.08661 0.73826 0.12309
 C48 C -0.11714 0.75406 0.10604
 H49 H -0.06172 0.75272 0.17519
 H50 H -0.12849 0.74619 0.08030
 H51 H -0.14160 0.84646 0.15242
 H52 H -0.17331 0.81105 0.17145
 N53 N -0.12016 0.14424 -0.22321
 N54 N -0.14794 0.12136 -0.21870
 C55 C -0.14471 0.09386 -0.24265
 C56 C -0.11388 0.10044 -0.26396
 C57 C -0.09889 0.13270 -0.25105
 H58 H -0.16391 0.07128 -0.24501
 H59 H -0.07404 0.14629 -0.26069
 Cu60 Cu -0.18723 0.13091 -0.18385
 Cu61 Cu -0.11376 0.18652 -0.19169
 Cu62 Cu -0.16830 0.18549 -0.11398
 N63 N -0.21785 0.13074 -0.14093
 N64 N -0.20920 0.15053 -0.11274
 C65 C -0.23381 0.14366 -0.08612
 C66 C -0.25952 0.11868 -0.09862
 C67 C -0.24852 0.11105 -0.13361
 H68 H -0.23358 0.15647 -0.05991
 H69 H -0.26112 0.09204 -0.15212
 N70 N -0.12595 0.21906 -0.12097
 N71 N -0.10480 0.21906 -0.15018
 C72 C -0.07819 0.24470 -0.14657
 C73 C -0.08349 0.26220 -0.11401
 C74 C -0.11395 0.24529 -0.09846
 H75 H -0.05699 0.25078 -0.16646
 H76 H -0.12627 0.25159 -0.07259
 H77 H -0.13534 0.15617 -0.15044
 H78 H -0.16667 0.19310 -0.16850
 N79 N 0.10467 0.85006 -0.21677
 N80 N 0.12940 0.87598 -0.22209
 C81 C 0.11952 0.89554 -0.25150
 C82 C 0.08660 0.88139 -0.26482
 C83 C 0.07780 0.85282 -0.24201
 H84 H 0.13436 0.91902 -0.26184
 H85 H 0.05374 0.83521 -0.24384
 Cu86 Cu 0.17054 0.88298 -0.18848
 Cu87 Cu 0.10957 0.81406 -0.17808
 Cu88 Cu 0.18369 0.82478 -0.11921
 N89 N 0.21146 0.88933 -0.15446
 N90 N 0.21736 0.86537 -0.12850
 C91 C 0.24782 0.87506 -0.10975
 C92 C 0.26147 0.90730 -0.12437
 C93 C 0.23756 0.91568 -0.15254
 H94 H 0.25838 0.86035 -0.08654
 H95 H 0.23939 0.93904 -0.17046
 N96 N 0.14671 0.78542 -0.11416
 N97 N 0.11929 0.78045 -0.13733
 C98 C 0.09957 0.75087 -0.12708
 C99 C 0.11504 0.73707 -0.09572
 C100 C 0.14459 0.75971 -0.08814
 H101 H 0.07508 0.74077 -0.14069
 H102 H 0.16318 0.75742 -0.06533
 H103 H 0.13676 0.84831 -0.14281
 H104 H 0.16677 0.81826 -0.17192
 N105 N 0.12487 1.11752 0.77609
 N106 N 0.09946 1.14376 0.77947
 C107 C 0.07461 1.14133 0.75252
 C108 C 0.08545 1.11237 0.73091
 C109 C 0.11738 1.09769 0.74659
 H110 H 0.05058 1.15930 0.74873
 H111 H 0.13316 1.07371 0.73798
 Cu112 Cu 0.10263 1.17907 0.81802
 Cu113 Cu 0.16282 1.10889 0.81270
 Cu114 Cu 0.18268 1.18619 0.86359
 N115 N 0.10643 1.21183 0.85861
 N116 N 0.13874 1.21690 0.87463
 C117 C 0.13492 1.24461 0.89835
 C118 C 0.09800 1.25668 0.89750
 C119 C 0.08069 1.23519 0.87229
 H120 H 0.15714 1.25487 0.91512
 H121 H 0.05192 1.23756 0.86350
 N122 N 0.21570 1.14204 0.86160
 N123 N 0.20684 1.11205 0.84380
 C124 C 0.23183 1.08522 0.85139
 C125 C 0.25794 1.09900 0.87472
 C126 C 0.24709 1.13515 0.88067
 H127 H 0.23091 1.05751 0.84108
 H128 H 0.25974 1.15424 0.89910
 H129 H 0.14673 1.14463 0.85457
 H130 H 0.16950 1.16388 0.81351
 N131 N 0.85887 0.87962 0.78098
 N132 N 0.89131 0.86267 0.78547
 C133 C 0.91619 0.87562 0.76162
 C134 C 0.89824 0.90123 0.74028
 C135 C 0.86174 0.90317 0.75303
 H136 H 0.94489 0.86612 0.75898
 H137 H 0.83929 0.92070 0.74321
 Cu138 Cu 0.89665 0.82187 0.81853
 Cu139 Cu 0.81632 0.86981 0.81308
 Cu140 Cu 0.84114 0.82084 0.89021
 N141 N 0.90150 0.78346 0.85434
 N142 N 0.87798 0.78186 0.88152
 C143 C 0.88626 0.75206 0.90161
 C144 C 0.91676 0.73434 0.88612
 C145 C 0.92597 0.75511 0.85643
 H146 H 0.87198 0.74456 0.92620
 H147 H 0.94854 0.74973 0.83765
 N148 N 0.79632 0.85253 0.88740
 N149 N 0.78541 0.86938 0.85763
 C150 C 0.75341 0.88824 0.86458
 C151 C 0.74433 0.88320 0.90052
 C152 C 0.77215 0.86063 0.91409
 H153 H 0.73894 0.90581 0.84551
 H154 H 0.77466 0.85098 0.94152
 H155 H 0.85467 0.86176 0.85246
 H156 H 0.83086 0.81941 0.83695
 N157 N 0.14932 0.88855 1.21955
 N158 N 0.12509 0.86218 1.22469
 C159 C 0.10317 0.87072 1.25306
 C160 C 0.11419 0.90439 1.26623
 C161 C 0.14335 0.91504 1.24421
 H162 H 0.08053 0.85404 1.26296
 H163 H 0.15941 0.93991 1.24633
 Cu164 Cu 0.12396 0.81948 1.19351
 Cu165 Cu 0.18815 0.88505 1.18265
 Cu166 Cu 0.17227 0.82096 1.11575
 N167 N 0.11422 0.78466 1.15529
 N168 N 0.13420 0.78450 1.12554
 C169 C 0.12317 0.75660 1.10460
 C170 C 0.09438 0.73875 1.12198
 C171 C 0.08911 0.75742 1.15390
 H172 H 0.13475 0.75013 1.07844
 H173 H 0.06899 0.75121 1.17476
 N174 N 0.20974 0.85996 1.11118
 N175 N 0.21701 0.88328 1.13731
 C176 C 0.24533 0.90499 1.12690
 C177 C 0.25603 0.89500 1.09246
 C178 C 0.23277 0.86664 1.08325
 H179 H 0.25690 0.92682 1.14290
 H180 H 0.23329 0.85150 1.05828
 H181 H 0.15001 0.86134 1.14933
 H182 H 0.18665 0.82988 1.16815
 N183 N 0.84553 1.11304 1.21665
 N184 N 0.87107 1.13779 1.22313
 C185 C 0.89095 1.12753 1.25223
 C186 C 0.87717 1.09444 1.26445
 C187 C 0.84855 1.08588 1.24117
 H188 H 0.91404 1.14268 1.26330
 H189 H 0.83082 1.06205 1.24236
 Cu190 Cu 0.87642 1.18073 1.19269
 Cu191 Cu 0.80889 1.11956 1.17843
 Cu192 Cu 0.83304 1.18254 1.11243
 N193 N 0.89086 1.21480 1.15520
 N194 N 0.87283 1.21645 1.12444
 C195 C 0.88690 1.24386 1.10442
 C196 C 0.91565 1.25966 1.12349
 C197 C 0.91771 1.24041 1.15543
 H198 H 0.87728 1.25149 1.07785
 H199 H 0.93668 1.24528 1.17747
 N200 N 0.79337 1.14595 1.10598
 N201 N 0.78306 1.12328 1.13185
 C202 C 0.75388 1.10352 1.12036
 C203 C 0.74570 1.11404 1.08549
 C204 C 0.77140 1.14070 1.07707
 H205 H 0.73995 1.08265 1.13599
 H206 H 0.77318 1.15579 1.05206
 H207 H 0.85054 1.14088 1.14703
 H208 H 0.81491 1.17457 1.16387
 O209 O 0.44903 1.08025 1.04635
 O210 O 0.40721 1.04237 1.01878
 C211 C 0.41525 1.07060 1.03829
 O212 O 0.55435 1.05798 0.92044
 O213 O 0.59474 1.02805 0.95886
 C214 C 0.58770 1.04883 0.93129
 O215 O 0.44978 1.06835 0.92522
 O216 O 0.40736 1.03658 0.95926
 C217 C 0.41587 1.06074 0.93498
 O218 O 0.55344 1.07072 1.05337
 O219 O 0.59427 1.03431 1.02114
 C220 C 0.58690 1.05942 1.04492
 Zr221 Zr 0.50100 1.05472 1.03279
 O222 O 0.50761 1.11222 1.02774
 O223 O 0.49763 1.05805 1.08945
 Zr224 Zr 0.50130 1.04504 0.94252
 O225 O 0.50783 1.10212 0.93440
 O226 O 0.49589 1.03752 0.88631
 O227 O 0.46805 1.05824 0.98686
 O228 O 0.53395 1.05548 0.98709
 O229 O 0.55065 0.94790 1.06633
 O230 O 0.59286 0.97305 1.02697
 C231 C 0.58452 0.95411 1.05540
 O232 O 0.44601 0.93123 0.93875
 O233 O 0.40549 0.97250 0.96525
 C234 C 0.41260 0.94349 0.94615
 O235 O 0.55061 0.93343 0.93147
 O236 O 0.59283 0.96698 0.96361
 C237 C 0.58450 0.94247 0.93975
 O238 O 0.44603 0.94738 1.06322
 O239 O 0.40543 0.97853 1.02587
 C240 C 0.41260 0.95659 1.05265
 Zr241 Zr 0.49885 0.96264 1.04240
 O242 O 0.50179 0.90459 1.04576
 O243 O 0.49567 0.96661 1.09903
 Zr244 Zr 0.49887 0.95291 0.95242
 O245 O 0.50320 0.89530 0.95971
 O246 O 0.49340 0.94553 0.89628
 Zr247 Zr 0.44396 1.00590 0.99236
 Zr248 Zr 0.55602 1.00188 0.99257
 O249 O 0.53163 0.94989 0.99811
 O250 O 0.46510 0.95183 0.99821
 O251 O 0.53321 1.00824 1.04452
 O252 O 0.46737 0.99952 0.94074
 O253 O 0.46720 1.01068 1.04402
 O254 O 0.53342 0.99706 0.94046
 H255 H 0.55144 1.07630 0.98518
 H256 H 0.45020 0.99805 0.91993
 H257 H 0.54853 0.92817 1.00022
 H258 H 0.45037 1.01395 1.06503
 H259 H 0.51850 1.02416 0.87773
 H260 H 0.51090 0.96260 0.88450
 H261 H 0.48221 0.88785 0.97540
 H262 H 0.47767 0.89495 1.03713
 H263 H 0.50800 0.98977 1.10571
 H264 H 0.49837 1.08454 1.09544
 H265 H 0.48745 1.12159 1.01186
 H266 H 0.49133 1.11482 0.95191
 O267 O 0.07499 0.44704 -0.05768
 O268 O 0.04242 0.40672 -0.02239
 C269 C 0.06719 0.41415 -0.04677
 O270 O 0.07795 0.55259 0.06480
 O271 O 0.03834 0.59154 0.03404
 C272 C 0.06579 0.58512 0.05602
 O273 O 0.08455 0.44999 0.06362
 O274 O 0.04594 0.40791 0.03747
 C275 C 0.07439 0.41656 0.05719
 O276 O 0.06457 0.54938 -0.06550
 O277 O 0.03373 0.59007 -0.02840
 C278 C 0.05500 0.58242 -0.05577
 Zr279 Zr 0.05148 0.49823 -0.04150
 O280 O 0.11008 0.50371 -0.04768
 O281 O 0.04331 0.49398 -0.09761
 Zr282 Zr 0.05801 0.50035 0.04940
 O283 O 0.11702 0.50305 0.05121
 O284 O 0.05695 0.49791 0.10632
 O285 O 0.06338 0.46697 0.00421
 O286 O 0.06059 0.53126 0.00255
 O287 O -0.06434 0.54677 -0.05469
 O288 O -0.02878 0.58855 -0.02428
 C289 C -0.05473 0.58010 -0.04698
 O290 O -0.05791 0.44734 0.07177
 O291 O -0.01999 0.40665 0.04124
 C292 C -0.04687 0.41429 0.06360
 O293 O -0.05672 0.55001 0.07402
 O294 O -0.02482 0.59040 0.03815
 C295 C -0.04849 0.58296 0.06356
 O296 O -0.06365 0.44394 -0.04827
 O297 O -0.02290 0.40488 -0.01898
 C298 C -0.05145 0.41137 -0.03964
 Zr299 Zr -0.04233 0.49622 -0.03488
 O300 O -0.10152 0.49851 -0.03194
 O301 O -0.04441 0.49137 -0.09156
 Zr302 Zr -0.03566 0.49850 0.05589
 O303 O -0.09377 0.49979 0.06663
 O304 O -0.02604 0.49568 0.11201
 Zr305 Zr 0.00993 0.44339 0.00855
 Zr306 Zr 0.00593 0.55324 0.00595
 O307 O -0.04709 0.52901 0.01013
 O308 O -0.04521 0.46474 0.01173
 O309 O 0.00286 0.53000 -0.04574
 O310 O 0.01275 0.46709 0.05999
 O311 O 0.00539 0.46479 -0.04388
 O312 O 0.01047 0.53278 0.05894
 H313 H 0.08194 0.54815 -0.00004
 H314 H 0.01459 0.45027 0.08094
 H315 H -0.06990 0.54477 0.01091
 H316 H 0.00466 0.44748 -0.06439
 H317 H 0.04844 0.52223 0.11524
 H318 H -0.01904 0.52052 0.12014
 H319 H -0.10646 0.50101 0.04308
 H320 H -0.10941 0.47986 -0.01418
 H321 H -0.02880 0.51110 -0.10177
 H322 H 0.06861 0.49428 -0.10860
 H323 H 0.12217 0.48609 -0.03091
 H324 H 0.12565 0.50690 0.02625
 O325 O 0.93315 0.07095 0.44887
 O326 O 0.96145 0.03094 0.40933
 C327 C 0.94069 0.05946 0.41661
 O328 O 1.06660 0.05569 0.54731
 O329 O 1.02813 0.02710 0.58783
 C330 C 1.05618 0.04777 0.57982
 O331 O 1.05852 0.06149 0.44702
 O332 O 1.02376 0.02672 0.40849
 C333 C 1.04793 0.05202 0.41508
 O334 O 0.93098 0.06926 0.54979
 O335 O 0.96364 0.03248 0.58938
 C336 C 0.94048 0.05921 0.58209
 Zr337 Zr 0.94807 0.04772 0.49924
 O338 O 0.94644 0.10586 0.49815
 O339 O 0.88897 0.04639 0.49917
 Zr340 Zr 1.04251 0.04007 0.49769
 O341 O 1.04756 0.09778 0.50132
 O342 O 1.10124 0.03431 0.49124
 O343 O 0.99525 0.05064 0.46654
 O344 O 0.99640 0.05110 0.52959
 O345 O 0.91859 -0.05822 0.55160
 O346 O 0.95811 -0.02849 0.58992
 C347 C 0.92956 -0.04907 0.58355
 O348 O 1.05140 -0.07514 0.44873
 O349 O 1.02048 -0.03705 0.40914
 C350 C 1.04259 -0.06459 0.41643
 O351 O 1.05873 -0.06895 0.54943
 O352 O 1.02388 -0.03443 0.58910
 C353 C 1.04953 -0.05883 0.58175
 O354 O 0.92315 -0.06631 0.45123
 O355 O 0.95728 -0.03307 0.41052
 C356 C 0.93273 -0.05764 0.41865
 Zr357 Zr 0.94161 -0.04441 0.50078
 O358 O 0.93700 -0.10199 0.50690
 O359 O 0.88268 -0.03891 0.49686
 Zr360 Zr 1.03590 -0.05234 0.49925
 O361 O 1.02999 -0.10985 0.50532
 O362 O 1.09455 -0.05919 0.49365
 Zr363 Zr 0.99127 -0.00289 0.44548
 Zr364 Zr 0.99292 -0.00142 0.55293
 O365 O 0.98877 -0.05466 0.53159
 O366 O 0.98782 -0.05597 0.46803
 O367 O 0.93809 0.00282 0.53231
 O368 O 1.04562 -0.00699 0.46698
 O369 O 0.93753 0.00182 0.46848
 O370 O 1.04704 -0.00627 0.53036
 H371 H 0.99875 0.07270 0.54550
 H372 H 1.06721 -0.00857 0.45023
 H373 H 0.98748 -0.07565 0.54855
 H374 H 0.91559 0.00331 0.45226
 H375 H 1.11099 0.02057 0.51228
 H376 H 1.10636 -0.04127 0.50982
 H377 H 1.01722 -0.11908 0.48365
 H378 H 0.95371 -0.11358 0.48885
 H379 H 0.87458 -0.02050 0.51491
 H380 H 0.88040 0.07237 0.49823
 H381 H 0.96933 0.11455 0.51009
 H382 H 1.02830 0.10880 0.48538
 C383 C 1.09675 0.06492 0.29413
 C384 C 1.07691 0.08026 0.32075
 C385 C 1.06493 0.05812 0.35159
 C386 C 1.06317 0.07253 0.38449
 H387 H 1.07055 0.10945 0.32073
 H388 H 1.05784 0.02961 0.34728
 H389 H 1.10580 0.03646 0.29670
 H390 H 1.07294 0.10019 0.38904
 C391 C 0.88650 -0.07208 0.29597
 C392 C 0.90010 -0.08731 0.32598
 C393 C 0.91373 -0.06463 0.35568
 C394 C 0.91546 -0.07803 0.38912
 H395 H 0.90090 -0.11696 0.32886
 H396 H 0.92279 -0.03690 0.35002
 H397 H 0.88290 -0.04253 0.29409
 H398 H 0.90422 -0.10491 0.39496
 C399 C 0.89964 0.07738 0.70624
 C400 C 0.91261 0.09202 0.67583
 C401 C 0.92540 0.06849 0.64601
 C402 C 0.92523 0.08095 0.61218
 H403 H 0.91272 0.12161 0.67245
 H404 H 0.93473 0.04064 0.65183
 H405 H 0.89655 0.04788 0.70845
 H406 H 0.91378 0.10805 0.60637
 C407 C 1.06408 -0.10512 0.70464
 C408 C 1.07990 -0.09117 0.67512
 C409 C 1.05689 -0.07695 0.64522
 C410 C 1.07064 -0.07544 0.61177
 H411 H 1.11015 -0.09080 0.67268
 H412 H 1.02841 -0.06782 0.65064
 H413 H 1.03396 -0.10814 0.70591
 H414 H 1.09824 -0.08683 0.60617
 C415 C 0.28938 1.08352 1.08369
 C416 C 0.31803 1.10150 1.06909
 C417 C 0.34912 1.08040 1.05302
 C418 C 0.38403 1.09308 1.05245
 H419 H 0.31978 1.13113 1.07083
 H420 H 0.34357 1.05289 1.04344
 H421 H 0.29025 1.05370 1.08391
 H422 H 0.39000 1.11967 1.06398
 C423 C 0.29205 0.92798 0.88679
 C424 C 0.31718 0.91544 0.91069
 C425 C 0.34867 0.93810 0.92245
 C426 C 0.38095 0.92228 0.93257
 H427 H 0.31558 0.88766 0.92101
 H428 H 0.34565 0.96778 0.92231
 H429 H 0.29603 0.95477 0.87466
 H430 H 0.38471 0.89281 0.92990
 C431 C 0.70695 0.89618 1.07352
 C432 C 0.67918 0.91721 1.08673
 C433 C 0.64880 0.93091 1.06350
 C434 C 0.61524 0.93920 1.07741
 H435 H 0.67781 0.92351 1.11516
 H436 H 0.65370 0.93353 1.03482
 H437 H 0.70614 0.88805 1.04550
 H438 H 0.60981 0.93401 1.10566
 C439 C 0.71023 1.10468 0.92068
 C440 C 0.68350 1.08473 0.90528
 C441 C 0.65212 1.07045 0.92648
 C442 C 0.61946 1.06321 0.91081
 H443 H 0.68370 1.07982 0.87657
 H444 H 0.65542 1.06684 0.95526
 H445 H 0.70789 1.11136 0.94901
 H446 H 0.61538 1.06954 0.88258
 C447 C 0.08684 0.29640 0.11389
 C448 C 0.10412 0.32434 0.09785
 C449 C 0.08206 0.35382 0.08041
 C450 C 0.09672 0.38669 0.07360
 H451 H 0.13440 0.32587 0.09815
 H452 H 0.05293 0.34888 0.07413
 H453 H 0.05650 0.29636 0.11516
 H454 H 0.12509 0.39240 0.08197
 C455 C -0.06139 0.29262 -0.09942
 C456 C -0.07674 0.31777 -0.07756
 C457 C -0.05489 0.34848 -0.06335
 C458 C -0.07195 0.37999 -0.05413
 H459 H -0.10631 0.31655 -0.07107
 H460 H -0.02469 0.34572 -0.06139
 H461 H -0.03261 0.29538 -0.10821
 H462 H -0.10172 0.38352 -0.05887
 C463 C 0.10202 0.70629 -0.07347
 C464 C 0.08529 0.67718 -0.08771
 C465 C 0.07241 0.64688 -0.06472
 C466 C 0.06881 0.61300 -0.07786
 H467 H 0.08198 0.67517 -0.11660
 H468 H 0.06662 0.65223 -0.03655
 H469 H 0.10784 0.70687 -0.04489
 H470 H 0.07704 0.60730 -0.10539
 C471 C -0.06334 0.70732 0.11047
 C472 C -0.07880 0.67812 0.09518
 C473 C -0.05573 0.64760 0.08133
 C474 C -0.06909 0.61356 0.08046
 H475 H -0.10902 0.67640 0.09334
 H476 H -0.02776 0.65311 0.07163
 H477 H -0.03342 0.70781 0.11522
 H478 H -0.09616 0.60796 0.09238
 C479 C 1.06532 0.09887 0.69948
 C480 C 1.08310 0.08256 0.67219
 C481 C 1.06178 0.06828 0.64182
 C482 C 1.07755 0.06328 0.60961
 H483 H 1.11340 0.08016 0.67201
 H484 H 1.03236 0.06234 0.64582
 H485 H 1.03531 0.10354 0.69825
 H486 H 1.10620 0.07150 0.60486
 C487 C 0.91568 -0.07910 0.71023
 C488 C 0.89831 -0.07351 0.67894
 C489 C 0.91912 -0.05809 0.64833
 C490 C 0.90789 -0.06293 0.61441
 H491 H 0.86980 -0.08262 0.67527
 H492 H 0.94509 -0.04404 0.65368
 H493 H 0.94513 -0.07272 0.71261
 H494 H 0.88262 -0.07812 0.60912
 C495 C 1.09810 -0.07476 0.29658
 C496 C 1.08116 -0.09135 0.32417
 C497 C 1.06488 -0.06996 0.35405
 C498 C 1.05902 -0.08538 0.38623
 H499 H 1.08000 -0.12107 0.32522
 H500 H 1.05842 -0.04108 0.34989
 H501 H 1.10152 -0.04522 0.29686
 H502 H 1.06790 -0.11356 0.39099
 C503 C 0.89029 0.07245 0.29526
 C504 C 0.90602 0.08807 0.32382
 C505 C 0.91996 0.06577 0.35405
 C506 C 0.92506 0.08071 0.38642
 H507 H 0.90815 0.11771 0.32524
 H508 H 0.92583 0.03679 0.34982
 H509 H 0.88576 0.04307 0.29496
 H510 H 0.91698 0.10911 0.39106
 C511 C 0.08010 0.28674 -0.08243
 C512 C 0.09764 0.31809 -0.07594
 C513 C 0.07736 0.34864 -0.05866
 C514 C 0.08804 0.38337 -0.06316
 H515 H 0.12612 0.32192 -0.08526
 H516 H 0.05233 0.34263 -0.04328
 H517 H 0.05065 0.28428 -0.07580
 H518 H 0.11200 0.38940 -0.08001
 C519 C -0.06098 0.29059 0.11245
 C520 C -0.07585 0.31945 0.09526
 C521 C -0.05268 0.35017 0.08325
 C522 C -0.06771 0.38372 0.07939
 H523 H -0.10579 0.32081 0.09050
 H524 H -0.02329 0.34523 0.07731
 H525 H -0.03170 0.29046 0.12003
 H526 H -0.09640 0.38889 0.08774
 C527 C -0.06297 0.70174 -0.10068
 C528 C -0.08062 0.67424 -0.08444
 C529 C -0.05933 0.64290 -0.06979
 C530 C -0.07530 0.61039 -0.06443
 H531 H -0.11089 0.67477 -0.08204
 H532 H -0.03000 0.64652 -0.06333
 H533 H -0.03306 0.69981 -0.10550
 H534 H -0.10379 0.60589 -0.07317
 C535 C 0.07333 0.70694 0.10921
 C536 C 0.08990 0.68049 0.08985
 C537 C 0.06872 0.64902 0.07658
 C538 C 0.08568 0.61662 0.07098
 H539 H 0.11972 0.68153 0.08444
 H540 H 0.03897 0.65228 0.07180
 H541 H 0.04427 0.70443 0.11718
 H542 H 0.11484 0.61284 0.07830
 C543 C 0.28829 1.07778 0.89183
 C544 C 0.32002 1.09327 0.90227
 C545 C 0.34993 1.07093 0.91884
 C546 C 0.38542 1.08185 0.91784
 H547 H 0.32449 1.12227 0.89749
 H548 H 0.34287 1.04493 0.93126
 H549 H 0.28513 1.04829 0.89428
 H550 H 0.39247 1.10687 0.90362
 C551 C 0.28576 0.91059 1.06980
 C552 C 0.31619 0.92565 1.08399
 C553 C 0.34645 0.93975 1.06102
 C554 C 0.38123 0.94209 1.07383
 H555 H 0.31967 0.92614 1.11294
 H556 H 0.34047 0.94731 1.03338
 H557 H 0.28363 0.90759 1.04089
 H558 H 0.38722 0.93224 1.10078
 C559 C 0.71576 1.10030 1.06219
 C560 C 0.68351 1.08864 1.07603
 C561 C 0.65335 1.07479 1.05312
 C562 C 0.61803 1.07544 1.06500
 H563 H 0.67875 1.09023 1.10480
 H564 H 0.66003 1.06414 1.02664
 H565 H 0.71959 1.10143 1.03329
 H566 H 0.61157 1.08819 1.09064
 C567 C 0.71386 0.90029 0.92161
 C568 C 0.68072 0.90910 0.90730
 C569 C 0.65087 0.92586 0.92955
 C570 C 0.61505 0.92437 0.91949
 H571 H 0.67518 0.90300 0.87931
 H572 H 0.65831 0.93917 0.95454
 H573 H 0.71827 0.90403 0.95019
 H574 H 0.60777 0.90944 0.89537
   
