data_POSCAR
  _audit_creation_date              2014-09-24
  _audit_creation_method            'ToBaCCo'
  _symmetry_space_group_name_H-M    'P1'
  _symmetry_Int_Tables_number       1
  _symmetry_cell_setting            triclinic
  loop_
  _symmetry_equiv_pos_as_xyz
 x,y,z
_cell_length_a 46.6743
_cell_length_b 46.6972
_cell_length_c 46.6897
_cell_angle_alpha 89.991700
_cell_angle_beta 90.000000
_cell_angle_gamma 90.006500
loop_
  _atom_site_label
  _atom_site_type_symbol
  _atom_site_fract_x
  _atom_site_fract_y
  _atom_site_fract_z
C1 C 0.27434 0.23797 0.23756
 C2 C 0.26208 0.22570 0.26207
 C3 C 0.23784 0.23781 0.27420
 C4 C 0.22558 0.26234 0.26195
 C5 C 0.23771 0.27446 0.23772
 C6 C 0.26223 0.26221 0.22545
 C7 C 0.29784 0.23080 0.22123
 N8 N 0.30009 0.25010 0.19970
 C9 C 0.27855 0.26939 0.20195
 C10 C 0.22139 0.29796 0.23055
 N11 N 0.19985 0.30020 0.24984
 C12 C 0.20208 0.27866 0.26913
 C13 C 0.23066 0.22148 0.29769
 N14 N 0.24995 0.19994 0.29992
 C15 C 0.26925 0.20219 0.27838
 H16 H 0.31223 0.21294 0.22469
 H17 H 0.27507 0.28726 0.18758
 H18 H 0.22487 0.31235 0.21269
 H19 H 0.18769 0.27519 0.28699
 H20 H 0.21280 0.22495 0.31208
 H21 H 0.28711 0.18781 0.27490
 C22 C 0.72515 -0.23826 0.23705
 C23 C 0.73744 -0.22598 0.26156
 C24 C 0.76174 -0.23804 0.27362
 C25 C 0.77405 -0.26251 0.26132
 C26 C 0.76191 -0.27465 0.23710
 C27 C 0.73732 -0.26246 0.22489
 C28 C 0.70158 -0.23113 0.22079
 N29 N 0.69937 -0.25043 0.19925
 C30 C 0.72097 -0.26968 0.20142
 C31 C 0.77828 -0.29811 0.22988
 N32 N 0.79986 -0.30028 0.24915
 C33 C 0.79761 -0.27876 0.26847
 C34 C 0.76892 -0.22172 0.29711
 N35 N 0.74956 -0.20024 0.29941
 C36 C 0.73023 -0.20252 0.27791
 H37 H 0.68716 -0.21330 0.22432
 H38 H 0.72449 -0.28753 0.18704
 H39 H 0.77478 -0.31249 0.21201
 H40 H 0.81201 -0.27524 0.28632
 H41 H 0.78682 -0.22516 0.31146
 H42 H 0.71231 -0.18819 0.27448
 C43 C 0.72598 0.23875 0.76240
 C44 C 0.73832 0.22646 0.73793
 C45 C 0.76259 0.23857 0.72585
 C46 C 0.77481 0.26312 0.73810
 C47 C 0.76261 0.27527 0.76229
 C48 C 0.73806 0.26301 0.77451
 C49 C 0.70243 0.23156 0.77866
 N50 N 0.70014 0.25090 0.80016
 C51 C 0.72167 0.27022 0.79796
 C52 C 0.77890 0.29879 0.76948
 N53 N 0.80049 0.30100 0.75023
 C54 C 0.79833 0.27944 0.73095
 C55 C 0.76984 0.22222 0.70240
 N56 N 0.75055 0.20067 0.70015
 C57 C 0.73120 0.20293 0.72164
 H58 H 0.68808 0.21367 0.77516
 H59 H 0.72512 0.28811 0.81232
 H60 H 0.77534 0.31319 0.78732
 H61 H 0.81276 0.27593 0.71312
 H62 H 0.78773 0.22568 0.68806
 H63 H 0.71333 0.18855 0.72509
 C64 C 0.27442 -0.23888 0.76325
 C65 C 0.26216 -0.22661 0.73873
 C66 C 0.23785 -0.23865 0.72668
 C67 C 0.22550 -0.26310 0.73900
 C68 C 0.23762 -0.27523 0.76324
 C69 C 0.26222 -0.26305 0.77544
 C70 C 0.29799 -0.23175 0.77952
 N71 N 0.30017 -0.25103 0.80108
 C72 C 0.27856 -0.27026 0.79893
 C73 C 0.22121 -0.29866 0.77049
 N74 N 0.19963 -0.30082 0.75122
 C75 C 0.20191 -0.27932 0.73187
 C76 C 0.23069 -0.22233 0.70317
 N77 N 0.25007 -0.20088 0.70086
 C78 C 0.26940 -0.20316 0.72236
 H79 H 0.31243 -0.21394 0.77596
 H80 H 0.27501 -0.28809 0.81334
 H81 H 0.22468 -0.31302 0.78838
 H82 H 0.18753 -0.27579 0.71401
 H83 H 0.21279 -0.22576 0.68882
 H84 H 0.28733 -0.18884 0.72578
 C85 C 0.72523 -0.23844 0.76315
 C86 C 0.73750 -0.22616 0.73864
 C87 C 0.76180 -0.23822 0.72657
 C88 C 0.77410 -0.26270 0.73885
 C89 C 0.76197 -0.27485 0.76308
 C90 C 0.73739 -0.26265 0.77530
 C91 C 0.70167 -0.23131 0.77942
 N92 N 0.69946 -0.25062 0.80096
 C93 C 0.72105 -0.26988 0.79877
 C94 C 0.77834 -0.29831 0.77029
 N95 N 0.79991 -0.30048 0.75101
 C96 C 0.79766 -0.27896 0.73170
 C97 C 0.76897 -0.22189 0.70307
 N98 N 0.74963 -0.20040 0.70079
 C99 C 0.73030 -0.20269 0.72230
 H100 H 0.68725 -0.21348 0.77589
 H101 H 0.72456 -0.28774 0.81316
 H102 H 0.77484 -0.31270 0.78816
 H103 H 0.81205 -0.27542 0.71384
 H104 H 0.78687 -0.22532 0.68872
 H105 H 0.71239 -0.18835 0.72574
 C106 C 0.27476 0.23809 0.76250
 C107 C 0.26242 0.22579 0.73804
 C108 C 0.23813 0.23787 0.72599
 C109 C 0.22588 0.26239 0.73826
 C110 C 0.23808 0.27455 0.76243
 C111 C 0.26266 0.26234 0.77463
 C112 C 0.29834 0.23095 0.77874
 N113 N 0.30062 0.25029 0.80024
 C114 C 0.27906 0.26957 0.79807
 C115 C 0.22175 0.29804 0.76963
 N116 N 0.20014 0.30023 0.75041
 C117 C 0.20234 0.27867 0.73114
 C118 C 0.23088 0.22151 0.70254
 N119 N 0.25019 0.19999 0.70026
 C120 C 0.26957 0.20229 0.72173
 H121 H 0.31272 0.21308 0.77522
 H122 H 0.27559 0.28745 0.81243
 H123 H 0.22528 0.31245 0.78745
 H124 H 0.18789 0.27516 0.71333
 H125 H 0.21296 0.22495 0.68821
 H126 H 0.28746 0.18793 0.72516
 C127 C 0.27449 -0.23870 0.23693
 C128 C 0.26223 -0.22643 0.26145
 C129 C 0.23792 -0.23847 0.27351
 C130 C 0.22556 -0.26291 0.26119
 C131 C 0.23767 -0.27504 0.23694
 C132 C 0.26228 -0.26287 0.22475
 C133 C 0.29806 -0.23158 0.22067
 N134 N 0.30023 -0.25086 0.19910
 C135 C 0.27861 -0.27008 0.20126
 C136 C 0.22125 -0.29846 0.22970
 N137 N 0.19967 -0.30061 0.24897
 C138 C 0.20196 -0.27913 0.26832
 C139 C 0.23077 -0.22216 0.29702
 N140 N 0.25016 -0.20072 0.29933
 C141 C 0.26949 -0.20300 0.27783
 H142 H 0.31251 -0.21378 0.22422
 H143 H 0.27505 -0.28791 0.18684
 H144 H 0.22471 -0.31282 0.21181
 H145 H 0.18758 -0.27559 0.28617
 H146 H 0.21286 -0.22559 0.31136
 H147 H 0.28742 -0.18869 0.27441
 C148 C 0.72641 0.23861 0.23766
 C149 C 0.73866 0.22636 0.26219
 C150 C 0.76286 0.23852 0.27435
 C151 C 0.77509 0.26307 0.26212
 C152 C 0.76297 0.27518 0.23787
 C153 C 0.73849 0.26287 0.22557
 C154 C 0.70294 0.23139 0.22130
 N155 N 0.70069 0.25069 0.19977
 C156 C 0.72219 0.27003 0.20205
 C157 C 0.77925 0.29872 0.23071
 N158 N 0.80076 0.30098 0.25005
 C159 C 0.79856 0.27944 0.26935
 C160 C 0.77004 0.22219 0.29785
 N161 N 0.75078 0.20061 0.30004
 C162 C 0.73151 0.20284 0.27848
 H163 H 0.68859 0.21349 0.22474
 H164 H 0.72565 0.28790 0.18768
 H165 H 0.77574 0.31309 0.21284
 H166 H 0.81293 0.27596 0.28724
 H167 H 0.78787 0.22569 0.31226
 H168 H 0.71368 0.18842 0.27496
 O169 O 0.27380 0.02722 0.47226
 O170 O 0.27387 -0.02856 0.52804
 O171 O 0.27388 -0.02855 0.47225
 O172 O 0.27381 0.02721 0.52803
 O173 O 0.22642 0.02715 0.52803
 O174 O 0.22649 -0.02862 0.47225
 O175 O 0.22649 -0.02862 0.52804
 O176 O 0.22641 0.02715 0.47226
 Cu177 Cu 0.27862 -0.00067 0.50014
 Cu178 Cu 0.22167 -0.00074 0.50015
 C179 C 0.25009 0.03660 0.46285
 C180 C 0.25019 -0.03800 0.53746
 C181 C 0.25019 -0.03799 0.46283
 C182 C 0.25011 0.03660 0.53744
 O183 O 0.72656 0.02784 0.52804
 O184 O 0.72630 -0.02792 0.47226
 O185 O 0.72630 -0.02793 0.52805
 O186 O 0.72656 0.02785 0.47227
 O187 O 0.77394 0.02764 0.47227
 O188 O 0.77368 -0.02814 0.52805
 O189 O 0.77368 -0.02813 0.47225
 O190 O 0.77394 0.02763 0.52803
 Cu191 Cu 0.72165 -0.00002 0.50015
 Cu192 Cu 0.77859 -0.00028 0.50015
 C193 C 0.75029 0.03716 0.53744
 C194 C 0.74994 -0.03743 0.46283
 C195 C 0.74995 -0.03745 0.53747
 C196 C 0.75029 0.03717 0.46286
 O197 O 0.47249 0.27417 0.02703
 O198 O 0.52828 0.27437 -0.02875
 O199 O 0.47247 0.27426 -0.02875
 O200 O 0.52828 0.27427 0.02702
 O201 O 0.52836 0.22691 0.02695
 O202 O 0.47256 0.22690 -0.02881
 O203 O 0.52836 0.22700 -0.02882
 O204 O 0.47257 0.22681 0.02696
 Cu205 Cu 0.50037 0.27905 -0.00086
 Cu206 Cu 0.50047 0.22213 -0.00094
 C207 C 0.46312 0.25045 0.03642
 C208 C 0.53774 0.25072 -0.03820
 C209 C 0.46309 0.25058 -0.03818
 C210 C 0.53774 0.25060 0.03640
 O211 O 0.52780 0.72550 0.02797
 O212 O 0.47200 0.72538 -0.02781
 O213 O 0.52780 0.72546 -0.02781
 O214 O 0.47200 0.72542 0.02797
 O215 O 0.47194 0.77278 0.02793
 O216 O 0.52775 0.77282 -0.02785
 O217 O 0.47194 0.77274 -0.02784
 O218 O 0.52774 0.77286 0.02794
 Cu219 Cu 0.49991 0.72066 0.00008
 Cu220 Cu 0.49984 0.77758 0.00004
 C221 C 0.53719 0.74920 0.03737
 C222 C 0.46255 0.74905 -0.03723
 C223 C 0.53719 0.74915 -0.03724
 C224 C 0.46255 0.74909 0.03736
 O225 O 0.02750 0.47301 0.27314
 O226 O -0.02830 0.52878 0.27300
 O227 O -0.02828 0.47300 0.27321
 O228 O 0.02752 0.52878 0.27293
 O229 O 0.02746 0.52861 0.22557
 O230 O -0.02834 0.47284 0.22584
 O231 O -0.02836 0.52861 0.22563
 O232 O 0.02744 0.47285 0.22577
 Cu233 Cu -0.00039 0.50092 0.27785
 Cu234 Cu -0.00046 0.50072 0.22092
 C235 C 0.03688 0.46352 0.24948
 C236 C -0.03775 0.53810 0.24929
 C237 C -0.03771 0.46349 0.24957
 C238 C 0.03692 0.53810 0.24920
 O239 O 0.02752 0.52852 0.72732
 O240 O -0.02830 0.47276 0.72708
 O241 O -0.02829 0.52853 0.72727
 O242 O 0.02749 0.47276 0.72712
 O243 O 0.02746 0.47259 0.77449
 O244 O -0.02833 0.52837 0.77464
 O245 O -0.02833 0.47259 0.77445
 O246 O 0.02748 0.52835 0.77469
 Cu247 Cu -0.00039 0.50067 0.72242
 Cu248 Cu -0.00044 0.50046 0.77935
 C249 C 0.03693 0.53784 0.75104
 C250 C -0.03773 0.46326 0.75072
 C251 C -0.03773 0.53786 0.75098
 C252 C 0.03689 0.46326 0.75078
 C253 C 0.36175 0.25018 0.13796
 C254 C 0.38346 0.27469 0.14106
 C255 C 0.40408 0.27473 0.12040
 C256 C 0.40097 0.25027 0.09866
 C257 C 0.37043 0.25321 0.08680
 C258 C 0.34981 0.25316 0.10747
 C259 C 0.37988 0.22276 0.13739
 C260 C 0.40050 0.22281 0.11673
 C261 C 0.33955 0.25014 0.16020
 C262 C 0.32130 0.25011 0.17847
 C263 C 0.42317 0.25032 0.07642
 C264 C 0.44141 0.25037 0.05814
 H265 H 0.38270 0.29060 0.15799
 H266 H 0.42099 0.29068 0.11963
 H267 H 0.36545 0.25515 0.06417
 H268 H 0.32716 0.25507 0.10254
 H269 H 0.37679 0.20489 0.15194
 H270 H 0.41508 0.20497 0.11358
 C271 C 0.63871 0.74943 0.13878
 C272 C 0.62565 0.77907 0.13316
 C273 C 0.60498 0.77902 0.11253
 C274 C 0.59941 0.74934 0.09955
 C275 C 0.59245 0.72998 0.12520
 C276 C 0.61311 0.73003 0.14583
 C277 C 0.64942 0.73913 0.10946
 C278 C 0.62876 0.73908 0.08883
 C279 C 0.66095 0.74948 0.16098
 C280 C 0.67924 0.74952 0.17921
 C281 C 0.57717 0.74928 0.07735
 C282 C 0.55891 0.74923 0.05909
 H283 H 0.63206 0.79840 0.14439
 H284 H 0.59370 0.79831 0.10610
 H285 H 0.57300 0.71735 0.12701
 H286 H 0.61136 0.71744 0.16530
 H287 H 0.67130 0.73246 0.10526
 H288 H 0.63294 0.73237 0.06696
 C289 C 0.63942 0.25090 -0.13944
 C290 C 0.63081 0.22078 -0.12944
 C291 C 0.61012 0.22076 -0.10886
 C292 C 0.60006 0.25086 -0.10028
 C293 C 0.59063 0.26505 -0.12840
 C294 C 0.61132 0.26507 -0.14899
 C295 C 0.64812 0.26682 -0.11202
 C296 C 0.62743 0.26680 -0.09143
 C297 C 0.66170 0.25091 -0.16160
 C298 C 0.68001 0.25090 -0.17981
 C299 C 0.57778 0.25083 -0.07811
 C300 C 0.55949 0.25079 -0.05989
 H301 H 0.64015 0.20120 -0.13780
 H302 H 0.60173 0.20116 -0.09958
 H303 H 0.56955 0.27426 -0.13184
 H304 H 0.60797 0.27430 -0.17007
 H305 H 0.66873 0.27720 -0.10905
 H306 H 0.63030 0.27716 -0.07082
 C307 C 0.36086 0.74893 -0.13848
 C308 C 0.35073 0.76107 -0.10965
 C309 C 0.37143 0.76108 -0.08906
 C310 C 0.40023 0.74896 -0.09931
 C311 C 0.40803 0.76676 -0.12583
 C312 C 0.38734 0.76675 -0.14642
 C313 C 0.37252 0.71899 -0.13150
 C314 C 0.39321 0.71901 -0.11091
 C315 C 0.33859 0.74893 -0.16065
 C316 C 0.32029 0.74894 -0.17887
 C317 C 0.42250 0.74898 -0.07715
 C318 C 0.44080 0.74901 -0.05892
 H319 H 0.32920 0.76896 -0.10575
 H320 H 0.36762 0.76898 -0.06753
 H321 H 0.42805 0.77836 -0.12823
 H322 H 0.38963 0.77834 -0.16645
 H323 H 0.36516 0.69950 -0.14182
 H324 H 0.40358 0.69952 -0.10360
 C325 C 0.13820 0.36195 0.24976
 C326 C 0.11711 0.35958 0.27487
 C327 C 0.09650 0.38025 0.27481
 C328 C 0.09900 0.40126 0.24965
 C329 C 0.09879 0.38240 0.22272
 C330 C 0.11940 0.36173 0.22278
 C331 C 0.15022 0.39250 0.25154
 C332 C 0.12961 0.41317 0.25148
 C333 C 0.16039 0.33970 0.24981
 C334 C 0.17863 0.32143 0.24984
 C335 C 0.07682 0.42351 0.24958
 C336 C 0.05859 0.44179 0.24953
 H337 H 0.11826 0.34312 0.29126
 H338 H 0.07999 0.38150 0.29115
 H339 H 0.08378 0.38504 0.20516
 H340 H 0.12204 0.34666 0.20527
 H341 H 0.17291 0.39746 0.25274
 H342 H 0.13465 0.43584 0.25263
 C343 C 0.13880 0.63889 0.75127
 C344 C 0.14105 0.61795 0.72603
 C345 C 0.12032 0.59740 0.72600
 C346 C 0.09935 0.59981 0.75122
 C347 C 0.08752 0.63044 0.74959
 C348 C 0.10826 0.65099 0.74961
 C349 C 0.13902 0.61993 0.77813
 C350 C 0.11828 0.59939 0.77811
 C351 C 0.16112 0.66100 0.75128
 C352 C 0.17947 0.67918 0.75126
 C353 C 0.07703 0.57769 0.75118
 C354 C 0.05871 0.55950 0.75113
 H355 H 0.15749 0.61915 0.70962
 H356 H 0.11899 0.58101 0.70957
 H357 H 0.06486 0.63555 0.74851
 H358 H 0.10336 0.67369 0.74855
 H359 H 0.15413 0.62243 0.79563
 H360 H 0.11563 0.58428 0.79559
 C361 C -0.13943 0.63932 0.24914
 C362 C -0.14209 0.61801 0.27404
 C363 C -0.12140 0.59743 0.27406
 C364 C -0.10007 0.60017 0.24918
 C365 C -0.08820 0.63074 0.25143
 C366 C -0.10890 0.65133 0.25141
 C367 C -0.13931 0.62077 0.22200
 C368 C -0.11861 0.60018 0.22202
 C369 C -0.16171 0.66148 0.24913
 C370 C -0.18002 0.67969 0.24913
 C371 C -0.07779 0.57800 0.24921
 C372 C -0.05950 0.55979 0.24924
 H373 H -0.15876 0.61900 0.29022
 H374 H -0.12034 0.58078 0.29026
 H375 H -0.06554 0.63579 0.25291
 H376 H -0.10397 0.67400 0.25287
 H377 H -0.15416 0.62355 0.20433
 H378 H -0.11574 0.58533 0.20436
 C379 C -0.13903 0.36164 0.75035
 C380 C -0.14255 0.38381 0.72632
 C381 C -0.12195 0.40449 0.72639
 C382 C -0.09984 0.40098 0.75048
 C383 C -0.08793 0.37056 0.74677
 C384 C -0.10854 0.34988 0.74670
 C385 C -0.13812 0.37922 0.77811
 C386 C -0.11752 0.39990 0.77818
 C387 C -0.16121 0.33939 0.75028
 C388 C -0.17945 0.32110 0.75025
 C389 C -0.07766 0.42323 0.75055
 C390 C -0.05943 0.44152 0.75063
 H391 H -0.15971 0.38330 0.71063
 H392 H -0.12146 0.42170 0.71076
 H393 H -0.06531 0.36569 0.74440
 H394 H -0.10356 0.32730 0.74427
 H395 H -0.15240 0.37573 0.79613
 H396 H -0.11415 0.41412 0.79626
 C397 C 0.24998 0.13818 0.36154
 C398 C 0.26323 0.10976 0.35166
 C399 C 0.26325 0.08909 0.37226
 C400 C 0.25002 0.09886 0.40073
 C401 C 0.21994 0.10962 0.39292
 C402 C 0.21992 0.13030 0.37231
 C403 C 0.26681 0.14651 0.38853
 C404 C 0.26683 0.12583 0.40913
 C405 C 0.24995 0.16043 0.33936
 C406 C 0.24995 0.17871 0.32112
 C407 C 0.25003 0.07661 0.42291
 C408 C 0.25006 0.05833 0.44114
 H409 H 0.27184 0.10619 0.33035
 H410 H 0.27187 0.06781 0.36861
 H411 H 0.20038 0.10171 0.40270
 H412 H 0.20034 0.14009 0.36445
 H413 H 0.27775 0.16685 0.39122
 H414 H 0.27779 0.12847 0.42947
 C415 C 0.75058 0.13885 0.63861
 C416 C 0.75854 0.14999 0.60872
 C417 C 0.75850 0.12929 0.58814
 C418 C 0.75051 0.09948 0.59947
 C419 C 0.72137 0.10347 0.61419
 C420 C 0.72141 0.12416 0.63476
 C421 C 0.77175 0.11439 0.64451
 C422 C 0.77171 0.09369 0.62394
 C423 C 0.75061 0.16112 0.66076
 C424 C 0.75060 0.17941 0.67898
 C425 C 0.75045 0.07720 0.57732
 C426 C 0.75039 0.05891 0.55912
 H427 H 0.76375 0.17217 0.60411
 H428 H 0.76368 0.13375 0.56591
 H429 H 0.70238 0.09112 0.60891
 H430 H 0.70245 0.12954 0.64711
 H431 H 0.78555 0.11341 0.66320
 H432 H 0.78548 0.07498 0.62500
 C433 C 0.25017 -0.13929 0.63906
 C434 C 0.26226 -0.14955 0.61026
 C435 C 0.26228 -0.12895 0.58958
 C436 C 0.25020 -0.10010 0.59973
 C437 C 0.26806 -0.09222 0.62619
 C438 C 0.26805 -0.11282 0.64687
 C439 C 0.22022 -0.12762 0.63208
 C440 C 0.22024 -0.10702 0.61141
 C441 C 0.25014 -0.16147 0.66132
 C442 C 0.25011 -0.17969 0.67961
 C443 C 0.25021 -0.07792 0.57748
 C444 C 0.25021 -0.05969 0.55920
 H445 H 0.27012 -0.17109 0.60644
 H446 H 0.27015 -0.13284 0.56805
 H447 H 0.27970 -0.07222 0.62849
 H448 H 0.27967 -0.11047 0.66687
 H449 H 0.20072 -0.13490 0.64246
 H450 H 0.20076 -0.09665 0.60408
 C451 C 0.74961 -0.13866 0.36120
 C452 C 0.73000 -0.11316 0.35442
 C453 C 0.73005 -0.09257 0.37510
 C454 C 0.74971 -0.09950 0.40054
 C455 C 0.77931 -0.10487 0.38724
 C456 C 0.77925 -0.12546 0.36656
 C457 C 0.73965 -0.14950 0.39060
 C458 C 0.73970 -0.12891 0.41128
 C459 C 0.74957 -0.16083 0.33894
 C460 C 0.74955 -0.17905 0.32065
 C461 C 0.74978 -0.07733 0.42280
 C462 C 0.74985 -0.05911 0.44109
 H463 H 0.71720 -0.11142 0.33508
 H464 H 0.71730 -0.07319 0.37348
 H465 H 0.79861 -0.09351 0.39352
 H466 H 0.79851 -0.13174 0.35512
 H467 H 0.73313 -0.17142 0.39480
 H468 H 0.73322 -0.13320 0.43320
 C469 C 0.63878 0.74927 -0.13859
 C470 C 0.63019 0.71915 -0.12859
 C471 C 0.60951 0.71912 -0.10798
 C472 C 0.59946 0.74922 -0.09938
 C473 C 0.59000 0.76341 -0.12750
 C474 C 0.61067 0.76343 -0.14811
 C475 C 0.64751 0.76519 -0.11118
 C476 C 0.62684 0.76516 -0.09057
 C477 C 0.66104 0.74929 -0.16077
 C478 C 0.67933 0.74932 -0.17900
 C479 C 0.57720 0.74919 -0.07720
 C480 C 0.55892 0.74917 -0.05895
 H481 H 0.63952 0.69957 -0.13695
 H482 H 0.60114 0.69952 -0.09869
 H483 H 0.56892 0.77262 -0.13092
 H484 H 0.60731 0.77267 -0.16918
 H485 H 0.66811 0.77556 -0.10821
 H486 H 0.62973 0.77552 -0.06995
 C487 C 0.36138 0.25042 -0.13939
 C488 C 0.35125 0.26257 -0.11057
 C489 C 0.37195 0.26262 -0.08999
 C490 C 0.40075 0.25050 -0.10024
 C491 C 0.40854 0.26829 -0.12678
 C492 C 0.38784 0.26825 -0.14736
 C493 C 0.37306 0.22050 -0.13240
 C494 C 0.39376 0.22054 -0.11182
 C495 C 0.33910 0.25037 -0.16155
 C496 C 0.32077 0.25032 -0.17974
 C497 C 0.42304 0.25054 -0.07809
 C498 C 0.44134 0.25056 -0.05987
 H499 H 0.32972 0.27045 -0.10668
 H500 H 0.36815 0.27053 -0.06846
 H501 H 0.42855 0.27991 -0.12919
 H502 H 0.39012 0.27982 -0.16740
 H503 H 0.36571 0.20099 -0.14271
 H504 H 0.40415 0.20107 -0.10449
 C505 C 0.36091 0.74907 0.13865
 C506 C 0.38264 0.77355 0.14179
 C507 C 0.40332 0.77354 0.12119
 C508 C 0.40026 0.74906 0.09947
 C509 C 0.36976 0.75202 0.08752
 C510 C 0.34907 0.75203 0.10812
 C511 C 0.37901 0.72162 0.13817
 C512 C 0.39969 0.72162 0.11757
 C513 C 0.33865 0.74908 0.16083
 C514 C 0.32035 0.74910 0.17906
 C515 C 0.42252 0.74906 0.07729
 C516 C 0.44081 0.74907 0.05906
 H517 H 0.38185 0.78948 0.15870
 H518 H 0.42025 0.78948 0.12046
 H519 H 0.36484 0.75395 0.06487
 H520 H 0.32644 0.75395 0.10312
 H521 H 0.37586 0.70377 0.15273
 H522 H 0.41426 0.70376 0.11448
 C523 C 0.63909 0.25062 0.13797
 C524 C 0.62607 0.28028 0.13235
 C525 C 0.60546 0.28028 0.11167
 C526 C 0.59988 0.25061 0.09865
 C527 C 0.59284 0.23124 0.12427
 C528 C 0.61345 0.23124 0.14494
 C529 C 0.64985 0.24034 0.10866
 C530 C 0.62924 0.24033 0.08799
 C531 C 0.66127 0.25063 0.16022
 C532 C 0.67950 0.25065 0.17851
 C533 C 0.57769 0.25060 0.07640
 C534 C 0.55945 0.25060 0.05813
 H535 H 0.63248 0.29959 0.14361
 H536 H 0.59421 0.29958 0.10523
 H537 H 0.57337 0.21863 0.12602
 H538 H 0.61164 0.21864 0.16440
 H539 H 0.67174 0.23365 0.10450
 H540 H 0.63347 0.23364 0.06612
 C541 C -0.13939 0.63911 0.75106
 C542 C -0.14204 0.61779 0.77595
 C543 C -0.12135 0.59720 0.77595
 C544 C -0.10003 0.59994 0.75106
 C545 C -0.08816 0.63052 0.75332
 C546 C -0.10885 0.65111 0.75332
 C547 C -0.13928 0.62057 0.72391
 C548 C -0.11859 0.59998 0.72391
 C549 C -0.16166 0.66127 0.75105
 C550 C -0.17997 0.67948 0.75102
 C551 C -0.07776 0.57778 0.75105
 C552 C -0.05948 0.55955 0.75103
 H553 H -0.15870 0.61878 0.79214
 H554 H -0.12029 0.58055 0.79215
 H555 H -0.06550 0.63556 0.75479
 H556 H -0.10391 0.67378 0.75479
 H557 H -0.15414 0.62336 0.70624
 H558 H -0.11573 0.58514 0.70624
 C559 C -0.13885 0.36171 0.24999
 C560 C -0.14249 0.38379 0.22590
 C561 C -0.12193 0.40451 0.22582
 C562 C -0.09973 0.40112 0.24985
 C563 C -0.08778 0.37071 0.24620
 C564 C -0.10834 0.34999 0.24628
 C565 C -0.13788 0.37939 0.27769
 C566 C -0.11731 0.40011 0.27762
 C567 C -0.16099 0.33942 0.25005
 C568 C -0.17920 0.32111 0.25006
 C569 C -0.07759 0.42342 0.24976
 C570 C -0.05939 0.44173 0.24968
 H571 H -0.15971 0.38320 0.21027
 H572 H -0.12153 0.42167 0.21014
 H573 H -0.06516 0.36588 0.24378
 H574 H -0.10334 0.32741 0.24392
 H575 H -0.15209 0.37593 0.29577
 H576 H -0.11391 0.41440 0.29564
 C577 C 0.13839 0.36186 0.75055
 C578 C 0.11736 0.35939 0.77571
 C579 C 0.09671 0.38002 0.77576
 C580 C 0.09910 0.40109 0.75063
 C581 C 0.09886 0.38229 0.72367
 C582 C 0.11952 0.36167 0.72362
 C583 C 0.15034 0.39244 0.75238
 C584 C 0.12968 0.41306 0.75242
 C585 C 0.16062 0.33967 0.75050
 C586 C 0.17890 0.32143 0.75045
 C587 C 0.07687 0.42329 0.75068
 C588 C 0.05861 0.44154 0.75072
 H589 H 0.11859 0.34290 0.79206
 H590 H 0.08024 0.38118 0.79214
 H591 H 0.08380 0.38494 0.70615
 H592 H 0.12215 0.34665 0.70607
 H593 H 0.17302 0.39745 0.75354
 H594 H 0.13467 0.43574 0.75362
 C595 C 0.13882 0.63912 0.24893
 C596 C 0.14103 0.61814 0.22372
 C597 C 0.12029 0.59760 0.22375
 C598 C 0.09936 0.60005 0.24899
 C599 C 0.08754 0.63068 0.24733
 C600 C 0.10828 0.65122 0.24730
 C601 C 0.13906 0.62020 0.27582
 C602 C 0.11832 0.59966 0.27585
 C603 C 0.16115 0.66122 0.24892
 C604 C 0.17950 0.67940 0.24893
 C605 C 0.07703 0.57794 0.24904
 C606 C 0.05870 0.55976 0.24910
 H607 H 0.15745 0.61932 0.20729
 H608 H 0.11893 0.58118 0.20734
 H609 H 0.06487 0.63580 0.24628
 H610 H 0.10339 0.67392 0.24622
 H611 H 0.15420 0.62271 0.29330
 H612 H 0.11569 0.58458 0.29336
 C613 C 0.74966 -0.13876 0.63904
 C614 C 0.76177 -0.14902 0.61024
 C615 C 0.76181 -0.12841 0.58957
 C616 C 0.74974 -0.09956 0.59973
 C617 C 0.76759 -0.09170 0.62620
 C618 C 0.76755 -0.11231 0.64687
 C619 C 0.71973 -0.12708 0.63205
 C620 C 0.71977 -0.10647 0.61138
 C621 C 0.74963 -0.16095 0.66129
 C622 C 0.74962 -0.17919 0.67956
 C623 C 0.74980 -0.07738 0.57748
 C624 C 0.74986 -0.05914 0.55920
 H625 H 0.76961 -0.17057 0.60642
 H626 H 0.76969 -0.13230 0.56805
 H627 H 0.77924 -0.07171 0.62851
 H628 H 0.77916 -0.10997 0.66688
 H629 H 0.70022 -0.13435 0.64242
 H630 H 0.70030 -0.09608 0.60405
 C631 C 0.25024 -0.13918 0.36116
 C632 C 0.23060 -0.11369 0.35437
 C633 C 0.23061 -0.09311 0.37506
 C634 C 0.25024 -0.10003 0.40052
 C635 C 0.27986 -0.10537 0.38725
 C636 C 0.27986 -0.12595 0.36656
 C637 C 0.24025 -0.15005 0.39054
 C638 C 0.24025 -0.12947 0.41123
 C639 C 0.25023 -0.16133 0.33888
 C640 C 0.25020 -0.17954 0.32059
 C641 C 0.25023 -0.07788 0.42279
 C642 C 0.25022 -0.05967 0.44108
 H643 H 0.21783 -0.11196 0.33501
 H644 H 0.21783 -0.07375 0.37343
 H645 H 0.29913 -0.09398 0.39356
 H646 H 0.29913 -0.13219 0.35514
 H647 H 0.23375 -0.17198 0.39472
 H648 H 0.23375 -0.13377 0.43314
 C649 C 0.75069 0.13882 0.36162
 C650 C 0.76390 0.11038 0.35175
 C651 C 0.76383 0.08969 0.37234
 C652 C 0.75055 0.09947 0.40079
 C653 C 0.72052 0.11030 0.39291
 C654 C 0.72059 0.13099 0.37233
 C655 C 0.76748 0.14709 0.38866
 C656 C 0.76741 0.12640 0.40925
 C657 C 0.75075 0.16108 0.33946
 C658 C 0.75078 0.17937 0.32123
 C659 C 0.75047 0.07720 0.42295
 C660 C 0.75039 0.05891 0.44117
 H661 H 0.77255 0.10680 0.33046
 H662 H 0.77241 0.06839 0.36869
 H663 H 0.70092 0.10242 0.40265
 H664 H 0.70105 0.14083 0.36443
 H665 H 0.77846 0.16740 0.39139
 H666 H 0.77833 0.12900 0.42962
 C667 C 0.25010 0.13821 0.63869
 C668 C 0.25807 0.14938 0.60881
 C669 C 0.25806 0.12870 0.58821
 C670 C 0.25008 0.09887 0.59952
 C671 C 0.22093 0.10283 0.61421
 C672 C 0.22094 0.12351 0.63481
 C673 C 0.27128 0.11376 0.64458
 C674 C 0.27127 0.09308 0.62399
 C675 C 0.25012 0.16046 0.66086
 C676 C 0.25014 0.17875 0.67908
 C677 C 0.25008 0.07662 0.57735
 C678 C 0.25009 0.05834 0.55913
 H679 H 0.26326 0.17157 0.60423
 H680 H 0.26324 0.13318 0.56599
 H681 H 0.20195 0.09047 0.60891
 H682 H 0.20196 0.12887 0.64715
 H683 H 0.28507 0.11277 0.66328
 H684 H 0.28505 0.07438 0.62505
   
