data_POSCAR
  _audit_creation_date              2014-09-24
  _audit_creation_method            'ToBaCCo'
  _symmetry_space_group_name_H-M    'P1'
  _symmetry_Int_Tables_number       1
  _symmetry_cell_setting            triclinic
  loop_
  _symmetry_equiv_pos_as_xyz
 x,y,z
_cell_length_a 49.2924
_cell_length_b 49.4124
_cell_length_c 17.5620
_cell_angle_alpha 89.959200
_cell_angle_beta 89.923600
_cell_angle_gamma 120.664100
loop_
  _atom_site_label
  _atom_site_type_symbol
  _atom_site_fract_x
  _atom_site_fract_y
  _atom_site_fract_z
O1 O 0.21574 0.47378 0.43134
 O2 O 0.27035 0.47145 0.57261
 O3 O 0.21577 0.46736 0.57856
 O4 O 0.26945 0.47465 0.42461
 O5 O 0.29465 0.52640 0.43427
 O6 O 0.24038 0.51911 0.58791
 O7 O 0.29535 0.52318 0.57997
 O8 O 0.24087 0.52548 0.44207
 Cu9 Cu 0.24034 0.46664 0.50042
 Cu10 Cu 0.27024 0.52870 0.51181
 C11 C 0.21864 0.50017 0.41419
 C12 C 0.29261 0.49716 0.59961
 C13 C 0.21866 0.49195 0.60897
 C14 C 0.29176 0.50160 0.40464
 O15 O 0.53077 -0.26215 0.42905
 O16 O 0.51986 -0.21895 0.58363
 O17 O 0.52125 -0.27117 0.57538
 O18 O 0.52338 -0.21383 0.43672
 O19 O 0.47175 -0.24356 0.42318
 O20 O 0.46968 -0.29979 0.56196
 O21 O 0.46822 -0.24686 0.56878
 O22 O 0.47928 -0.29235 0.41658
 Cu23 Cu 0.52891 -0.23873 0.50782
 Cu24 Cu 0.46711 -0.27367 0.49165
 C25 C 0.50714 -0.28490 0.39674
 C26 C 0.49250 -0.22441 0.60056
 C27 C 0.49499 -0.29576 0.59118
 C28 C 0.49763 -0.21882 0.40742
 O29 O 1.18896 0.76084 0.57047
 O30 O 1.24346 0.81380 0.42185
 O31 O 1.18965 0.76058 0.42162
 O32 O 1.24318 0.81371 0.57080
 O33 O 1.26787 0.78696 0.57165
 O34 O 1.21546 0.73496 0.42266
 O35 O 1.26920 0.78818 0.42518
 O36 O 1.21395 0.73441 0.56993
 Cu37 Cu 1.21377 0.78988 0.49606
 Cu38 Cu 1.24407 0.75848 0.49736
 C39 C 1.19197 0.73830 0.59495
 C40 C 1.26607 0.81043 0.39897
 C41 C 1.19335 0.73846 0.39720
 C42 C 1.26492 0.80948 0.59607
 O43 O 0.79798 0.54143 0.42972
 O44 O 0.74162 0.53533 0.57706
 O45 O 0.79755 0.54224 0.57877
 O46 O 0.74166 0.53470 0.42954
 O47 O 0.72031 0.48309 0.43068
 O48 O 0.77547 0.49060 0.58106
 O49 O 0.71928 0.48369 0.57603
 O50 O 0.77684 0.48990 0.43298
 Cu51 Cu 0.77200 0.54361 0.50333
 Cu52 Cu 0.74604 0.48168 0.50517
 C53 C 0.79732 0.51669 0.40699
 C54 C 0.72019 0.50838 0.60028
 C55 C 0.79596 0.51760 0.60563
 C56 C 0.72083 0.50756 0.40641
 O57 O 0.45354 0.24703 0.42607
 O58 O 0.45380 0.19804 0.58291
 O59 O 0.46069 0.25421 0.57242
 O60 O 0.45114 0.19345 0.43407
 O61 O 0.50293 0.21725 0.42427
 O62 O 0.51240 0.27616 0.56434
 O63 O 0.50524 0.21939 0.57137
 O64 O 0.50548 0.27120 0.41886
 Cu65 Cu 0.44964 0.22082 0.50528
 Cu66 Cu 0.51167 0.24821 0.49419
 C67 C 0.47938 0.26787 0.39666
 C68 C 0.47927 0.19950 0.60282
 C69 C 0.48833 0.27605 0.59028
 C70 C 0.47571 0.19526 0.40520
 O71 O 0.73678 0.21361 0.42260
 O72 O 0.79013 0.26683 0.57099
 O73 O 0.73647 0.21379 0.57022
 O74 O 0.79039 0.26711 0.42269
 O75 O 0.76460 0.29279 0.42222
 O76 O 0.71098 0.23978 0.56980
 O77 O 0.76509 0.29315 0.56875
 O78 O 0.71085 0.23914 0.42349
 Cu79 Cu 0.76606 0.23778 0.49658
 Cu80 Cu 0.73535 0.26884 0.49601
 C81 C 0.71416 0.21677 0.39929
 C82 C 0.78720 0.28957 0.59423
 C83 C 0.71411 0.21730 0.59400
 C84 C 0.78704 0.28945 0.39834
 N85 N 1.03227 0.56322 -0.08255
 N86 N 1.05474 0.59276 -0.09515
 N87 N 0.96665 0.50748 -0.12962
 N88 N 0.94191 0.49673 -0.17438
 N89 N 0.96599 0.52599 -0.07697
 N90 N 0.94081 0.52873 -0.08546
 N91 N 1.03281 0.54468 -0.13531
 N92 N 1.05575 0.56083 -0.18434
 C93 C 1.06923 0.59073 -0.15889
 C94 C 0.92600 0.51011 -0.14639
 N95 N 0.97274 0.43298 -0.08619
 N96 N 0.95008 0.40351 -0.09743
 N97 N 1.03682 0.48894 -0.14064
 N98 N 1.06123 0.50130 -0.18709
 N99 N 1.03893 0.47019 -0.09113
 N100 N 1.06481 0.46905 -0.10316
 N101 N 0.97050 0.45176 -0.13531
 N102 N 0.94606 0.43579 -0.18047
 Mn103 Mn 1.00168 0.49822 -0.13591
 C104 C 0.93357 0.40576 -0.15629
 C105 C 1.07841 0.48863 -0.16338
 N106 N 0.96837 0.52527 0.08811
 N107 N 0.94390 0.52843 0.10428
 N108 N 1.03675 0.54346 0.13157
 N109 N 1.06063 0.55942 0.17811
 N110 N 1.03454 0.56235 0.08258
 N111 N 1.05674 0.59188 0.09538
 N112 N 0.97051 0.50646 0.13746
 N113 N 0.94744 0.49603 0.18773
 Mn114 Mn 1.00026 0.54463 0.00284
 C115 C 0.93100 0.50985 0.16651
 C116 C 1.07293 0.58954 0.15495
 N117 N 1.04101 0.46895 0.07302
 N118 N 1.06410 0.46322 0.08475
 N119 N 0.97440 0.45055 0.13134
 N120 N 0.95019 0.43454 0.17725
 N121 N 0.97493 0.43222 0.07798
 N122 N 0.95123 0.40306 0.08680
 N123 N 1.04077 0.48745 0.12629
 N124 N 1.06388 0.49510 0.17516
 Mn125 Mn 1.00693 0.45073 -0.00666
 Mn126 Mn 1.00565 0.49701 0.13242
 Cl127 Cl 1.00366 0.49769 -0.00175
 C128 C 1.07839 0.48000 0.14829
 C129 C 0.93607 0.40498 0.14914
 N130 N 0.47349 0.43298 0.09216
 N131 N 0.47087 0.40530 0.10386
 N132 N 0.45583 0.48241 0.14023
 N133 N 0.44001 0.49115 0.18433
 N134 N 0.43718 0.46221 0.08889
 N135 N 0.40803 0.45635 0.09724
 N136 N 0.49249 0.45349 0.14254
 N137 N 0.50357 0.44056 0.18926
 C138 C 0.48988 0.41051 0.16465
 C139 C 0.41024 0.47465 0.15707
 N140 N 0.53056 0.56263 0.08540
 N141 N 0.53185 0.58994 0.09236
 N142 N 0.54898 0.51410 0.14008
 N143 N 0.56544 0.50715 0.18702
 N144 N 0.56736 0.53396 0.08765
 N145 N 0.59689 0.54139 0.09789
 N146 N 0.51199 0.54279 0.13769
 N147 N 0.49972 0.55570 0.18061
 Mn148 Mn 0.50236 0.49818 0.14099
 C149 C 0.51238 0.58508 0.15211
 C150 C 0.59528 0.52440 0.15999
 N151 N 0.43701 0.46070 -0.07568
 N152 N 0.40750 0.45310 -0.08812
 N153 N 0.49173 0.45060 -0.12497
 N154 N 0.49806 0.43483 -0.17575
 N155 N 0.47294 0.43151 -0.07179
 N156 N 0.46574 0.40235 -0.08522
 N157 N 0.45578 0.48038 -0.12803
 N158 N 0.43975 0.48723 -0.17649
 Mn159 Mn 0.45481 0.44652 0.00851
 C160 C 0.40972 0.47003 -0.15103
 C161 C 0.48185 0.40478 -0.14966
 N162 N 0.56737 0.53258 -0.07636
 N163 N 0.59711 0.54112 -0.08892
 N164 N 0.51250 0.54113 -0.13064
 N165 N 0.50445 0.55539 -0.18181
 N166 N 0.53106 0.56129 -0.07903
 N167 N 0.53664 0.58982 -0.09432
 N168 N 0.54886 0.51168 -0.12683
 N169 N 0.56543 0.50504 -0.17427
 Mn170 Mn 0.54938 0.54797 0.00447
 Mn171 Mn 0.50226 0.49593 -0.12857
 Cl172 Cl 0.50221 0.49713 0.00617
 C173 C 0.59545 0.52351 -0.14977
 C174 C 0.51964 0.58572 -0.15809
 N175 N 0.44134 -0.03430 0.07831
 N176 N 0.41183 -0.05657 0.09198
 N177 N 0.49557 0.03091 0.12971
 N178 N 0.50466 0.05410 0.17867
 N179 N 0.47663 0.03173 0.07844
 N180 N 0.47184 0.05530 0.09217
 N181 N 0.46037 -0.03532 0.12902
 N182 N 0.44451 -0.05852 0.17765
 C183 C 0.41431 -0.07162 0.15387
 C184 C 0.48977 0.06912 0.15468
 N185 N 0.57202 0.02945 0.07740
 N186 N 0.60104 0.05330 0.08739
 N187 N 0.51804 -0.03665 0.12892
 N188 N 0.50970 -0.05992 0.17762
 N189 N 0.53748 -0.03648 0.07758
 N190 N 0.54324 -0.05939 0.09035
 N191 N 0.55297 0.02971 0.12929
 N192 N 0.56832 0.05395 0.17526
 Mn193 Mn 0.50669 -0.00291 0.13002
 C194 C 0.59827 0.06840 0.14865
 C195 C 0.52555 -0.07393 0.15265
 N196 N 0.47700 0.03204 -0.08712
 N197 N 0.47354 0.05658 -0.09855
 N198 N 0.46054 -0.03502 -0.13770
 N199 N 0.44474 -0.05823 -0.18602
 N200 N 0.44151 -0.03410 -0.08672
 N201 N 0.41206 -0.05651 -0.09975
 N202 N 0.49592 0.03123 -0.13867
 N203 N 0.50623 0.05536 -0.18554
 Mn204 Mn 0.45874 -0.00110 -0.00433
 C205 C 0.49210 0.07096 -0.16008
 C206 C 0.41459 -0.07146 -0.16165
 N207 N 0.53711 -0.03690 -0.08593
 N208 N 0.54048 -0.06157 -0.09415
 N209 N 0.55306 0.02950 -0.13877
 N210 N 0.56846 0.05389 -0.18446
 N211 N 0.57200 0.02920 -0.08682
 N212 N 0.60098 0.05316 -0.09639
 N213 N 0.51780 -0.03702 -0.13754
 N214 N 0.50731 -0.06196 -0.18194
 Mn215 Mn 0.55501 -0.00363 -0.00453
 Mn216 Mn 0.50680 -0.00289 -0.13904
 Cl217 Cl 0.50676 -0.00264 -0.00444
 C218 C 0.52174 -0.07702 -0.15426
 C219 C 0.59831 0.06835 -0.15755
 C220 C 1.19077 0.52753 0.37004
 C221 C 1.19527 0.50170 0.36426
 C222 C 1.17647 0.47721 0.31344
 C223 C 1.15321 0.47842 0.26963
 C224 C 1.14827 0.50405 0.27814
 C225 C 1.16737 0.52860 0.32788
 C226 C 1.12405 0.50457 0.23754
 C227 C 1.10501 0.48012 0.18716
 C228 C 1.11080 0.45533 0.17668
 C229 C 1.13454 0.45433 0.21807
 H230 H 1.17989 0.45729 0.30814
 H231 H 1.16403 0.54850 0.33474
 H232 H 1.11994 0.52396 0.24532
 H233 H 1.13809 0.43460 0.21027
 H234 H 1.20482 0.54662 0.40901
 H235 H 1.09638 0.43624 0.13808
 C236 C 0.54282 0.70763 0.31439
 C237 C 0.51209 0.69759 0.34107
 C238 C 0.48691 0.66875 0.31461
 C239 C 0.49267 0.64929 0.26733
 C240 C 0.52374 0.65942 0.24244
 C241 C 0.54848 0.68896 0.26482
 C242 C 0.52980 0.63916 0.19909
 C243 C 0.50542 0.60840 0.18393
 C244 C 0.47457 0.59869 0.20765
 C245 C 0.46812 0.61914 0.24786
 H246 H 0.46309 0.66045 0.33444
 H247 H 0.57243 0.69713 0.24636
 H248 H 0.55372 0.64650 0.18184
 H249 H 0.44417 0.61088 0.26650
 H250 H 0.56275 0.72983 0.33262
 H251 H 0.45553 0.57501 0.19614
 C252 C 0.28387 -0.14502 0.31110
 C253 C 0.28816 -0.16826 0.34606
 C254 C 0.31583 -0.16892 0.32947
 C255 C 0.33930 -0.14604 0.28215
 C256 C 0.33469 -0.12285 0.24757
 C257 C 0.30668 -0.12285 0.26162
 C258 C 0.35864 -0.09944 0.20184
 C259 C 0.38762 -0.09818 0.19348
 C260 C 0.39195 -0.12129 0.22818
 C261 C 0.36783 -0.14532 0.27110
 H262 H 0.31988 -0.18639 0.35595
 H263 H 0.30276 -0.10520 0.23587
 H264 H 0.35539 -0.08135 0.17607
 H265 H 0.37185 -0.16281 0.29747
 H266 H 0.26287 -0.14383 0.32206
 H267 H 0.41417 -0.12063 0.22235
 C268 C 0.83848 0.54625 0.30680
 C269 C 0.82118 0.51910 0.35165
 C270 C 0.82786 0.49470 0.34605
 C271 C 0.85217 0.49777 0.29843
 C272 C 0.86954 0.52521 0.25370
 C273 C 0.86222 0.54915 0.25768
 C274 C 0.89451 0.52860 0.20768
 C275 C 0.90293 0.50537 0.20819
 C276 C 0.88537 0.47817 0.25260
 C277 C 0.86000 0.47422 0.29660
 H278 H 0.81493 0.47377 0.38089
 H279 H 0.87530 0.57039 0.22404
 H280 H 0.90815 0.54978 0.17413
 H281 H 0.84698 0.45307 0.33058
 H282 H 0.83373 0.56534 0.30997
 H283 H 0.89139 0.45995 0.25363
 C284 C 0.45208 0.27958 0.29328
 C285 C 0.47893 0.28927 0.33871
 C286 C 0.50412 0.32044 0.33356
 C287 C 0.50177 0.34221 0.28689
 C288 C 0.47442 0.33239 0.24223
 C289 C 0.45002 0.30086 0.24464
 C290 C 0.47135 0.35455 0.19872
 C291 C 0.49468 0.38654 0.20192
 C292 C 0.52195 0.39597 0.24550
 C293 C 0.52566 0.37395 0.28686
 H294 H 0.52473 0.32819 0.36923
 H295 H 0.42888 0.29290 0.21096
 H296 H 0.45014 0.34719 0.16571
 H297 H 0.54675 0.38191 0.32077
 H298 H 0.43242 0.25562 0.29637
 H299 H 0.54029 0.42053 0.24830
 C300 C 0.65979 0.18851 0.34542
 C301 C 0.69041 0.19319 0.34700
 C302 C 0.69720 0.17351 0.30327
 C303 C 0.67340 0.14878 0.26054
 C304 C 0.64234 0.14340 0.26260
 C305 C 0.63592 0.16373 0.30400
 C306 C 0.61807 0.11737 0.22467
 C307 C 0.62445 0.09693 0.18335
 C308 C 0.65557 0.10324 0.17836
 C309 C 0.67985 0.12884 0.21726
 H310 H 0.72080 0.17707 0.30366
 H311 H 0.61230 0.16007 0.30561
 H312 H 0.59413 0.11283 0.22786
 H313 H 0.70355 0.13275 0.21446
 H314 H 0.65395 0.20327 0.37882
 H315 H 0.66091 0.08775 0.14655
 C316 C 0.45019 0.15811 -0.30266
 C317 C 0.47835 0.17820 -0.34242
 C318 C 0.50480 0.17494 -0.32996
 C319 C 0.50249 0.15078 -0.28302
 C320 C 0.47391 0.13055 -0.24448
 C321 C 0.44816 0.13489 -0.25350
 C322 C 0.47116 0.10550 -0.20030
 C323 C 0.49613 0.09959 -0.19726
 C324 C 0.52449 0.11995 -0.23521
 C325 C 0.52784 0.14562 -0.27671
 H326 H 0.52669 0.18994 -0.36011
 H327 H 0.42606 0.11962 -0.22451
 H328 H 0.44908 0.08963 -0.17190
 H329 H 0.54990 0.16077 -0.30597
 H330 H 0.42941 0.16002 -0.31009
 H331 H 0.54403 0.11580 -0.23335
 C332 C 0.66967 0.47618 -0.33508
 C333 C 0.69674 0.50575 -0.34941
 C334 C 0.69893 0.53269 -0.31567
 C335 C 0.67419 0.53024 -0.27069
 C336 C 0.64643 0.50065 -0.26086
 C337 C 0.64463 0.47374 -0.29222
 C338 C 0.62080 0.49856 -0.22067
 C339 C 0.62301 0.52549 -0.18789
 C340 C 0.65121 0.55451 -0.19439
 C341 C 0.67650 0.55697 -0.23634
 H342 H 0.71973 0.55564 -0.32471
 H343 H 0.62368 0.45082 -0.28439
 H344 H 0.59916 0.47602 -0.21483
 H345 H 0.69771 0.57980 -0.24257
 H346 H 0.66714 0.45491 -0.35964
 H347 H 0.65327 0.57550 -0.16932
 C348 C 0.80944 0.33968 -0.33850
 C349 C 0.80914 0.31154 -0.35409
 C350 C 0.83235 0.30679 -0.32027
 C351 C 0.85606 0.33018 -0.27451
 C352 C 0.85708 0.35902 -0.26360
 C353 C 0.83337 0.36329 -0.29454
 C354 C 0.88219 0.38337 -0.22331
 C355 C 0.90587 0.37902 -0.19195
 C356 C 0.90379 0.34975 -0.19914
 C357 C 0.87923 0.32558 -0.24086
 H358 H 0.83233 0.28512 -0.33026
 H359 H 0.83361 0.38513 -0.28584
 H360 H 0.88352 0.40584 -0.21697
 H361 H 0.87865 0.30351 -0.24792
 H362 H 0.79192 0.34415 -0.36292
 H363 H 0.92188 0.34604 -0.17519
 C364 C 0.46438 -0.19724 -0.35362
 C365 C 0.48957 -0.20273 -0.34656
 C366 C 0.51432 -0.18411 -0.29616
 C367 C 0.51487 -0.15917 -0.25664
 C368 C 0.49040 -0.15258 -0.26765
 C369 C 0.46484 -0.17228 -0.31470
 C370 C 0.49243 -0.12592 -0.23318
 C371 C 0.51837 -0.10613 -0.18695
 C372 C 0.54173 -0.11381 -0.17355
 C373 C 0.54013 -0.13997 -0.20849
 H374 H 0.53380 -0.18825 -0.28999
 H375 H 0.44572 -0.16779 -0.32330
 H376 H 0.47407 -0.12039 -0.24298
 H377 H 0.55896 -0.14482 -0.19899
 H378 H 0.44518 -0.21112 -0.39251
 H379 H 0.56183 -0.09900 -0.13784
 C380 C 0.34262 0.52569 -0.33252
 C381 C 0.31492 0.49715 -0.35053
 C382 C 0.31084 0.46888 -0.31998
 C383 C 0.33428 0.46914 -0.27386
 C384 C 0.36261 0.49782 -0.26022
 C385 C 0.36635 0.52594 -0.28889
 C386 C 0.38696 0.49788 -0.21896
 C387 C 0.38299 0.46982 -0.18872
 C388 C 0.35423 0.44164 -0.19871
 C389 C 0.33015 0.44121 -0.24188
 H390 H 0.28953 0.44670 -0.33193
 H391 H 0.38779 0.54816 -0.27814
 H392 H 0.40907 0.51975 -0.21050
 H393 H 0.30848 0.41904 -0.25095
 H394 H 0.34663 0.54793 -0.35454
 H395 H 0.35088 0.41980 -0.17569
 C396 C 1.14812 0.72198 -0.30966
 C397 C 1.16929 0.71573 -0.34863
 C398 C 1.16782 0.68694 -0.33590
 C399 C 1.14488 0.66422 -0.28742
 C400 C 1.12346 0.67051 -0.24892
 C401 C 1.12559 0.69968 -0.25973
 C402 C 1.09964 0.64706 -0.20274
 C403 C 1.09647 0.61719 -0.19739
 C404 C 1.11818 0.61149 -0.23516
 C405 C 1.14239 0.63487 -0.27897
 H406 H 1.18381 0.68166 -0.36589
 H407 H 1.10939 0.70498 -0.23096
 H408 H 1.08270 0.65145 -0.17443
 H409 H 1.15860 0.62965 -0.30806
 H410 H 1.14882 0.74404 -0.31824
 H411 H 1.11614 0.58867 -0.23146
 C412 C 0.83830 0.54903 -0.29858
 C413 C 0.81876 0.52030 -0.33580
 C414 C 0.82225 0.49440 -0.31974
 C415 C 0.84596 0.49748 -0.27037
 C416 C 0.86596 0.52663 -0.23426
 C417 C 0.86151 0.55209 -0.24769
 C418 C 0.89095 0.53015 -0.18846
 C419 C 0.89678 0.50527 -0.18141
 C420 C 0.87633 0.47627 -0.21608
 C421 C 0.85086 0.47224 -0.25931
 H422 H 0.80746 0.47215 -0.34829
 H423 H 0.87659 0.57460 -0.22065
 H424 H 0.90697 0.55270 -0.16259
 H425 H 0.83576 0.44976 -0.28652
 H426 H 0.83594 0.56930 -0.30965
 H427 H 0.88052 0.45684 -0.21105
 C428 C 0.52045 0.33203 -0.36856
 C429 C 0.49275 0.30247 -0.36147
 C430 C 0.46892 0.29901 -0.31152
 C431 C 0.47257 0.32489 -0.26973
 C432 C 0.50006 0.35478 -0.27937
 C433 C 0.52398 0.35801 -0.32837
 C434 C 0.50305 0.38095 -0.24022
 C435 C 0.47930 0.37740 -0.18997
 C436 C 0.45259 0.34744 -0.17884
 C437 C 0.44909 0.32146 -0.21893
 H438 H 0.44757 0.27626 -0.30534
 H439 H 0.54528 0.38065 -0.33613
 H440 H 0.52388 0.40396 -0.24838
 H441 H 0.42797 0.29873 -0.21039
 H442 H 0.53906 0.33531 -0.40712
 H443 H 0.43399 0.34421 -0.14029
 C444 C 0.65983 0.18928 -0.35141
 C445 C 0.69043 0.19394 -0.35322
 C446 C 0.69727 0.17428 -0.30965
 C447 C 0.67346 0.14942 -0.26719
 C448 C 0.64238 0.14395 -0.26920
 C449 C 0.63595 0.16438 -0.31010
 C450 C 0.61807 0.11767 -0.23193
 C451 C 0.62447 0.09709 -0.19139
 C452 C 0.65561 0.10350 -0.18624
 C453 C 0.67993 0.12936 -0.22447
 H454 H 0.72088 0.17787 -0.31024
 H455 H 0.61230 0.16066 -0.31161
 H456 H 0.59411 0.11303 -0.23513
 H457 H 0.70366 0.13335 -0.22173
 H458 H 0.65400 0.20408 -0.38472
 H459 H 0.66093 0.08788 -0.15492
 C460 C 1.17876 0.46121 -0.29023
 C461 C 1.19543 0.48886 -0.33362
 C462 C 1.18763 0.51238 -0.32736
 C463 C 1.16220 0.50759 -0.28184
 C464 C 1.14514 0.47947 -0.23920
 C465 C 1.15409 0.45674 -0.24250
 C466 C 1.11861 0.47400 -0.19691
 C467 C 1.10826 0.49569 -0.19959
 C468 C 1.12560 0.52368 -0.24131
 C469 C 1.15259 0.52980 -0.28126
 H470 H 1.20010 0.53359 -0.36150
 H471 H 1.14130 0.43503 -0.21038
 H472 H 1.10512 0.45223 -0.16530
 H473 H 1.16533 0.55142 -0.31373
 H474 H 1.18449 0.44281 -0.29427
 H475 H 1.11801 0.54071 -0.24376
 C476 C 0.46584 0.65141 -0.35400
 C477 C 0.49394 0.68081 -0.36129
 C478 C 0.52117 0.68553 -0.32323
 C479 C 0.52051 0.66120 -0.28039
 C480 C 0.49256 0.63139 -0.27693
 C481 C 0.46529 0.62689 -0.31312
 C482 C 0.49241 0.60659 -0.23750
 C483 C 0.51953 0.61161 -0.19916
 C484 C 0.54680 0.64158 -0.20028
 C485 C 0.54744 0.66610 -0.24141
 H486 H 0.54295 0.70804 -0.32703
 H487 H 0.44356 0.60432 -0.31033
 H488 H 0.47117 0.58356 -0.23574
 H489 H 0.56899 0.68884 -0.24284
 H490 H 0.44437 0.64685 -0.38217
 H491 H 0.56791 0.64583 -0.17080
 C492 C 0.28220 -0.14758 -0.30651
 C493 C 0.28789 -0.16856 -0.34776
 C494 C 0.31666 -0.16758 -0.33798
 C495 C 0.33997 -0.14523 -0.29009
 C496 C 0.33424 -0.12402 -0.24907
 C497 C 0.30508 -0.12568 -0.25690
 C498 C 0.35819 -0.10084 -0.20331
 C499 C 0.38803 -0.09800 -0.20090
 C500 C 0.39330 -0.11939 -0.24131
 C501 C 0.36935 -0.14308 -0.28477
 H502 H 0.32149 -0.18342 -0.37000
 H503 H 0.30027 -0.10958 -0.22613
 H504 H 0.35418 -0.08412 -0.17285
 H505 H 0.37411 -0.15913 -0.31595
 H506 H 0.26016 -0.14797 -0.31301
 H507 H 0.41615 -0.11757 -0.23986
 C508 C 0.47050 -0.19196 0.35619
 C509 C 0.49733 -0.19500 0.35766
 C510 C 0.52402 -0.17422 0.31475
 C511 C 0.52404 -0.15031 0.27154
 C512 C 0.49735 -0.14670 0.27301
 C513 C 0.47060 -0.16785 0.31475
 C514 C 0.49797 -0.12178 0.23348
 C515 C 0.52459 -0.10087 0.19084
 C516 C 0.55051 -0.10530 0.18688
 C517 C 0.55038 -0.12967 0.22762
 H518 H 0.54469 -0.17663 0.31522
 H519 H 0.44988 -0.16554 0.31602
 H520 H 0.47775 -0.11865 0.23582
 H521 H 0.57094 -0.13222 0.22527
 H522 H 0.44975 -0.20765 0.38925
 H523 H 0.57123 -0.08934 0.15408
 C524 C 0.34626 0.53046 0.35106
 C525 C 0.31573 0.50387 0.35039
 C526 C 0.30941 0.47808 0.30414
 C527 C 0.33371 0.47813 0.26237
 C528 C 0.36474 0.50423 0.26730
 C529 C 0.37062 0.53059 0.31011
 C530 C 0.38953 0.50310 0.23137
 C531 C 0.38367 0.47651 0.18935
 C532 C 0.35259 0.45139 0.18121
 C533 C 0.32778 0.45208 0.21799
 H534 H 0.28587 0.45756 0.30278
 H535 H 0.39422 0.55091 0.31379
 H536 H 0.41345 0.52269 0.23717
 H537 H 0.30410 0.43199 0.21305
 H538 H 0.35171 0.55057 0.38639
 H539 H 0.34765 0.43075 0.14872
 C540 C 1.14984 0.72138 0.30112
 C541 C 1.17123 0.71573 0.34076
 C542 C 1.17040 0.68718 0.32925
 C543 C 1.14777 0.66404 0.28148
 C544 C 1.12607 0.66969 0.24238
 C545 C 1.12763 0.69866 0.25174
 C546 C 1.10252 0.64583 0.19709
 C547 C 1.09986 0.61616 0.19318
 C548 C 1.12182 0.61103 0.23146
 C549 C 1.14581 0.63487 0.27448
 H550 H 1.18658 0.68237 0.35986
 H551 H 1.11118 0.70343 0.22241
 H552 H 1.08540 0.64976 0.16827
 H553 H 1.16226 0.63018 0.30412
 H554 H 1.15008 0.74325 0.30887
 H555 H 1.12018 0.58833 0.22884
 C556 C 0.44442 0.15071 0.31409
 C557 C 0.47310 0.17138 0.35024
 C558 C 0.49969 0.16883 0.33497
 C559 C 0.49761 0.14549 0.28615
 C560 C 0.46870 0.12470 0.24993
 C561 C 0.44230 0.12772 0.26376
 C562 C 0.46654 0.10067 0.20279
 C563 C 0.49261 0.09662 0.19439
 C564 C 0.52119 0.11757 0.23022
 C565 C 0.52382 0.14206 0.27489
 H566 H 0.52191 0.18444 0.36292
 H567 H 0.41991 0.11196 0.23680
 H568 H 0.44431 0.08423 0.17603
 H569 H 0.54612 0.15778 0.30236
 H570 H 0.42364 0.15231 0.32476
 H571 H 0.54149 0.11475 0.22426
 C572 C 0.66626 0.47627 0.35485
 C573 C 0.69575 0.50428 0.35470
 C574 C 0.69994 0.52990 0.31069
 C575 C 0.67463 0.52797 0.26950
 C576 C 0.64464 0.50024 0.27335
 C577 C 0.64085 0.47433 0.31493
 C578 C 0.61880 0.49912 0.23685
 C579 C 0.62273 0.52509 0.19503
 C580 C 0.65284 0.55199 0.18845
 C581 C 0.67857 0.55355 0.22603
 H582 H 0.72266 0.55153 0.30984
 H583 H 0.61810 0.45281 0.31792
 H584 H 0.59565 0.47813 0.24114
 H585 H 0.70143 0.57489 0.22192
 H586 H 0.66242 0.45628 0.38867
 H587 H 0.65628 0.57219 0.15615
 C588 C 0.81466 0.34318 0.34164
 C589 C 0.81047 0.31286 0.34514
 C590 C 0.83048 0.30610 0.30256
 C591 C 0.85521 0.32976 0.25933
 C592 C 0.86015 0.36057 0.25967
 C593 C 0.83940 0.36689 0.29963
 C594 C 0.88627 0.38479 0.22180
 C595 C 0.90730 0.37862 0.18240
 C596 C 0.90142 0.34773 0.17868
 C597 C 0.87566 0.32345 0.21748
 H598 H 0.82726 0.28270 0.30442
 H599 H 0.84275 0.39034 0.29986
 H600 H 0.89049 0.40857 0.22381
 H601 H 0.87209 0.29993 0.21599
 H602 H 0.79960 0.34896 0.37407
 H603 H 0.91742 0.34262 0.14826
   
