data_POSCAR
  _audit_creation_date              2014-09-24
  _audit_creation_method            'ToBaCCo'
  _symmetry_space_group_name_H-M    'P1'
  _symmetry_Int_Tables_number       1
  _symmetry_cell_setting            triclinic
  loop_
  _symmetry_equiv_pos_as_xyz
 x,y,z
_cell_length_a 38.0014
_cell_length_b 38.0053
_cell_length_c 38.0444
_cell_angle_alpha 90.052600
_cell_angle_beta 89.938300
_cell_angle_gamma 90.054600
loop_
  _atom_site_label
  _atom_site_type_symbol
  _atom_site_fract_x
  _atom_site_fract_y
  _atom_site_fract_z
C1 C 0.32151 0.36755 1.36999
 C2 C 0.33807 0.33756 1.38358
 C3 C 0.36814 0.32396 1.36706
 C4 C 0.38167 0.34045 1.33700
 C5 C 0.36514 0.37043 1.32341
 C6 C 0.33510 0.38399 1.33991
 H7 H 0.32734 0.32458 1.40665
 H8 H 0.40471 0.32978 1.32392
 H9 H 0.32214 0.40698 1.32908
 C10 C 1.17959 0.63154 0.87002
 C11 C 1.16612 0.61510 0.83987
 C12 C 1.13610 0.62863 0.82337
 C13 C 1.11949 0.65855 0.83705
 C14 C 1.13289 0.67501 0.86715
 C15 C 1.16291 0.66149 0.88366
 H16 H 1.17916 0.59214 0.82899
 H17 H 1.09648 0.66926 0.82405
 H18 H 1.17346 0.67453 0.90675
 C19 C 0.67715 -0.13623 0.13056
 C20 C 0.66341 -0.11955 0.16045
 C21 C 0.63332 -0.13303 0.17694
 C22 C 0.61687 -0.16319 0.16353
 C23 C 0.63054 -0.17993 0.13365
 C24 C 0.66067 -0.16640 0.11715
 H25 H 0.67629 -0.09640 0.17114
 H26 H 0.59378 -0.17378 0.17659
 H27 H 0.67150 -0.17955 0.09422
 C28 C -0.17648 1.13653 -0.36892
 C29 C -0.15987 1.16658 -0.38233
 C30 C -0.12976 1.18005 -0.36579
 C31 C -0.11627 1.16335 -0.33586
 C32 C -0.13290 1.13328 -0.32246
 C33 C -0.16296 1.11988 -0.33901
 H34 H -0.17063 1.17964 -0.40528
 H35 H -0.09320 1.17389 -0.32276
 H36 H -0.17605 1.09683 -0.32841
 C37 C 0.67667 0.63611 0.63090
 C38 C 0.66016 0.66613 0.61740
 C39 C 0.63007 0.67965 0.63389
 C40 C 0.61646 0.66308 0.66385
 C41 C 0.63296 0.63305 0.67737
 C42 C 0.66303 0.61956 0.66086
 H43 H 0.67093 0.67917 0.59443
 H44 H 0.59340 0.67376 0.67685
 H45 H 0.67603 0.59654 0.67155
 C46 C 0.82372 0.36341 0.13113
 C47 C 0.84011 0.33327 0.11763
 C48 C 0.87014 0.31964 0.13410
 C49 C 0.88378 0.33627 0.16405
 C50 C 0.86739 0.36641 0.17754
 C51 C 0.83740 0.37998 0.16105
 H52 H 0.82923 0.32028 0.09467
 H53 H 0.90680 0.32560 0.17711
 H54 H 0.82450 0.40309 0.17172
 C55 C 0.32005 0.13197 0.86933
 C56 C 0.33359 0.11567 0.83912
 C57 C 0.36364 0.12932 0.82267
 C58 C 0.38021 0.15924 0.83645
 C59 C 0.36674 0.17556 0.86661
 C60 C 0.33669 0.16191 0.88307
 H61 H 0.32058 0.09272 0.82816
 H62 H 0.40325 0.17004 0.82349
 H63 H 0.32609 0.17484 0.90621
 C64 C 0.17896 0.86840 0.36922
 C65 C 0.16248 0.83836 0.38290
 C66 C 0.13245 0.82464 0.36650
 C67 C 0.11884 0.84099 0.33648
 C68 C 0.13527 0.87101 0.32277
 C69 C 0.16530 0.88474 0.33915
 H70 H 0.17319 0.82541 0.40593
 H71 H 0.09583 0.83013 0.32357
 H72 H 0.17820 0.90777 0.32825
 Zn73 Zn 0.01961 0.99124 -0.04330
 Zn74 Zn -0.00778 0.95507 0.02070
 Zn75 Zn 0.02651 1.02590 0.02721
 Zn76 Zn -0.04427 1.01878 -0.00691
 O77 O -0.00144 0.99779 -0.00053
 O78 O 0.02878 0.94596 -0.05260
 O79 O 0.01440 0.95219 0.06197
 O80 O 0.06635 1.03928 0.00543
 O81 O 0.00856 0.91909 -0.00501
 O82 O 0.06093 1.01341 -0.04654
 O83 O 0.03997 1.00441 0.06705
 O84 O -0.04747 1.06008 0.01530
 O85 O -0.05305 0.94556 0.02985
 O86 O 0.00479 1.06574 0.04057
 O87 O -0.08019 0.99282 0.00926
 O88 O -0.05359 1.02800 -0.05211
 O89 O -0.00619 1.00747 -0.07917
 C90 C 0.02340 0.91828 -0.03484
 C91 C 0.03338 0.97386 0.07874
 C92 C 0.07788 1.03250 -0.02513
 C93 C -0.02588 1.07714 0.03412
 C94 C -0.08085 0.96304 0.02422
 C95 C -0.03594 1.02249 -0.07984
 Zn96 Zn 0.47947 0.00925 0.45599
 Zn97 Zn 0.47243 -0.02533 0.52649
 Zn98 Zn 0.54326 -0.01829 0.49234
 Zn99 Zn 0.50676 0.04547 0.52002
 O100 O 0.50044 0.00273 0.49875
 O101 O 0.43813 -0.01288 0.45276
 O102 O 0.49411 -0.06517 0.53980
 O103 O 0.55267 -0.02755 0.44713
 O104 O 0.43263 -0.03870 0.50472
 O105 O 0.50533 -0.00705 0.42009
 O106 O 0.54640 -0.05957 0.51450
 O107 O 0.55201 0.05495 0.52920
 O108 O 0.45891 -0.00380 0.56635
 O109 O 0.57915 0.00765 0.50854
 O110 O 0.48449 0.04842 0.56130
 O111 O 0.49053 0.08144 0.49432
 O112 O 0.47038 0.05453 0.44672
 C113 C 0.42114 -0.03195 0.47418
 C114 C 0.52479 -0.07660 0.53332
 C115 C 0.53508 -0.02207 0.41940
 C116 C 0.57981 0.03742 0.52355
 C117 C 0.46547 0.02676 0.57806
 C118 C 0.47577 0.08223 0.46448
 Zn119 Zn 1.02096 0.50789 0.45692
 Zn120 Zn 1.02779 0.47338 0.52745
 Zn121 Zn 0.99358 0.54415 0.52091
 Zn122 Zn 0.95705 0.48036 0.49328
 O123 O 0.99988 0.50140 0.49968
 O124 O 1.06228 0.48578 0.45372
 O125 O 1.04125 0.49495 0.56729
 O126 O 1.00990 0.58011 0.49517
 O127 O 1.06762 0.46000 0.50570
 O128 O 1.03012 0.55316 0.44759
 O129 O 1.01576 0.54716 0.56218
 O130 O 0.92115 0.50632 0.50942
 O131 O 1.00602 0.43354 0.54080
 O132 O 0.94832 0.55363 0.53005
 O133 O 0.95379 0.43911 0.51549
 O134 O 0.94772 0.47105 0.44808
 O135 O 0.99517 0.49156 0.42104
 C136 C 1.07919 0.46674 0.47515
 C137 C 1.03470 0.52552 0.57897
 C138 C 1.02471 0.58088 0.46533
 C139 C 0.92051 0.53611 0.52439
 C140 C 0.97534 0.42210 0.53433
 C141 C 0.96539 0.47653 0.42035
 Zn142 Zn 0.47990 0.49169 0.95707
 Zn143 Zn 0.47311 0.52629 1.02764
 Zn144 Zn 0.50729 0.45548 1.02094
 Zn145 Zn 0.54385 0.51922 0.99329
 O146 O 0.50099 0.49821 0.99978
 O147 O 0.43861 0.51383 0.95398
 O148 O 0.45968 0.50476 1.06752
 O149 O 0.49089 0.41950 0.99524
 O150 O 0.43326 0.53965 1.00600
 O151 O 0.47067 0.44642 0.94774
 O152 O 0.48513 0.45254 1.06227
 O153 O 0.57973 0.49328 1.00937
 O154 O 0.49490 0.56615 1.04093
 O155 O 0.55253 0.44598 1.02997
 O156 O 0.54712 0.56052 1.01549
 O157 O 0.55317 0.52845 0.94807
 O158 O 0.50570 0.50795 0.92114
 C159 C 0.42169 0.53289 0.97546
 C160 C 0.46622 0.47420 1.07914
 C161 C 0.47604 0.41872 0.96544
 C162 C 0.58036 0.46349 1.02431
 C163 C 0.52559 0.57757 1.03438
 C164 C 0.53549 0.52295 0.92038
 C165 C 1.23181 0.40414 0.41338
 C166 C 1.22875 0.44439 0.41256
 C167 C 1.19798 0.45671 0.42623
 C168 C 1.17327 0.42757 0.43940
 C169 C 1.19524 0.40633 0.46573
 C170 C 1.22606 0.39400 0.45204
 C171 C 1.19899 0.39068 0.39409
 C172 C 1.16824 0.40299 0.40776
 C173 C 1.26478 0.39092 0.39830
 C174 C 1.29157 0.38001 0.38526
 C175 C 1.13998 0.44100 0.45362
 C176 C 1.11235 0.45248 0.46414
 H177 H 1.24898 0.46170 0.40219
 H178 H 1.19187 0.48458 0.42758
 H179 H 1.18733 0.40142 0.49271
 H180 H 1.24454 0.37852 0.46729
 H181 H 1.19983 0.37300 0.37168
 H182 H 1.14274 0.39585 0.39705
 C183 C 0.26919 0.59517 0.91355
 C184 C 0.27131 0.59848 0.95373
 C185 C 0.30209 0.58624 0.96749
 C186 C 0.32767 0.57191 0.93969
 C187 C 0.33265 0.60216 0.91345
 C188 C 0.30193 0.61438 0.89971
 C189 C 0.27591 0.55611 0.90584
 C190 C 0.30663 0.54389 0.91957
 C191 C 0.23625 0.60830 0.89839
 C192 C 0.20949 0.61914 0.88531
 C193 C 0.36092 0.55857 0.95397
 C194 C 0.38854 0.54714 0.96450
 H195 H 0.25050 0.60946 0.96993
 H196 H 0.30765 0.58673 0.99547
 H197 H 0.35809 0.61307 0.90632
 H198 H 0.30105 0.63575 0.88081
 H199 H 0.25808 0.53950 0.89093
 H200 H 0.31512 0.51679 0.91643
 C201 C -0.23316 0.90061 0.08727
 C202 C -0.20380 0.90486 0.11461
 C203 C -0.17309 0.91730 0.10094
 C204 C -0.17469 0.92428 0.06124
 C205 C -0.20593 0.94939 0.05635
 C206 C -0.23668 0.93694 0.07003
 C207 C -0.21743 0.87686 0.05862
 C208 C -0.18667 0.88931 0.04493
 C209 C -0.26611 0.88724 0.10232
 C210 C -0.29290 0.87625 0.11531
 C211 C -0.14147 0.93778 0.04692
 C212 C -0.11391 0.94915 0.03604
 H213 H -0.20686 0.89865 0.14229
 H214 H -0.14985 0.92172 0.11692
 H215 H -0.20407 0.97470 0.04325
 H216 H -0.26116 0.95158 0.06867
 H217 H -0.22940 0.85244 0.04984
 H218 H -0.17229 0.87556 0.02443
 C219 C 0.73213 0.09933 0.58682
 C220 C 0.69934 0.11157 0.60698
 C221 C 0.66861 0.09926 0.59326
 C222 C 0.67364 0.07591 0.56071
 C223 C 0.69888 0.04671 0.57252
 C224 C 0.72962 0.05903 0.58625
 C225 C 0.72583 0.11075 0.54863
 C226 C 0.69505 0.09842 0.53489
 C227 C 0.76509 0.11256 0.60192
 C228 C 0.79189 0.12344 0.61493
 C229 C 0.64041 0.06254 0.54633
 C230 C 0.61285 0.05126 0.53541
 H231 H 0.70018 0.12845 0.63000
 H232 H 0.64313 0.10561 0.60453
 H233 H 0.69313 0.01882 0.57026
 H234 H 0.75020 0.04168 0.59575
 H235 H 0.74394 0.12705 0.53371
 H236 H 0.68679 0.10416 0.50820
 C237 C 0.41183 0.23446 0.40348
 C238 C 0.42732 0.21105 0.37443
 C239 C 0.44121 0.18034 0.38658
 C240 C 0.43825 0.17605 0.42659
 C241 C 0.39893 0.18038 0.43475
 C242 C 0.38505 0.21106 0.42261
 C243 C 0.44195 0.23974 0.42984
 C244 C 0.45585 0.20901 0.44200
 C245 C 0.39657 0.26736 0.39039
 C246 C 0.38345 0.29409 0.37952
 C247 C 0.45280 0.14286 0.43977
 C248 C 0.46383 0.11530 0.45087
 H249 H 0.42740 0.21801 0.34675
 H250 H 0.45320 0.16098 0.36933
 H251 H 0.38333 0.16103 0.44885
 H252 H 0.35758 0.21799 0.42631
 H253 H 0.45152 0.26534 0.43819
 H254 H 0.47734 0.20828 0.46076
 C255 C 0.91374 0.26968 0.59757
 C256 C 0.90757 0.27521 0.55810
 C257 C 0.92119 0.30594 0.54564
 C258 C 0.93966 0.32816 0.57386
 C259 C 0.96737 0.30364 0.58997
 C260 C 0.95373 0.27286 0.60245
 C261 C 0.89839 0.30256 0.61531
 C262 C 0.91200 0.33328 0.60285
 C263 C 0.89869 0.23674 0.61092
 C264 C 0.88562 0.20998 0.62184
 C265 C 0.95382 0.36140 0.56027
 C266 C 0.96431 0.38900 0.54868
 H267 H 0.89375 0.25661 0.54140
 H268 H 0.91904 0.31364 0.51826
 H269 H 0.99521 0.30988 0.59144
 H270 H 0.96989 0.25274 0.61461
 H271 H 0.87858 0.30178 0.63588
 H272 H 0.90386 0.35881 0.61276
 C273 C 0.08800 0.76612 -0.09571
 C274 C 0.07581 0.76426 -0.05728
 C275 C 0.06177 0.79496 -0.04516
 C276 C 0.06130 0.82449 -0.07267
 C277 C 0.04147 0.80900 -0.10424
 C278 C 0.05552 0.77829 -0.11637
 C279 C 0.11364 0.79731 -0.09711
 C280 C 0.09961 0.82797 -0.08500
 C281 C 0.10340 0.73324 -0.10878
 C282 C 0.11660 0.70652 -0.11964
 C283 C 0.04659 0.85767 -0.05953
 C284 C 0.03545 0.88521 -0.04844
 H285 H 0.07799 0.74090 -0.04103
 H286 H 0.05191 0.79788 -0.01852
 H287 H 0.01844 0.82106 -0.11601
 H288 H 0.04452 0.76404 -0.13853
 H289 H 0.14047 0.79547 -0.10677
 H290 H 0.11443 0.85240 -0.08430
 C291 C 0.58724 0.73024 1.09716
 C292 C 0.58059 0.73033 1.05738
 C293 C 0.56697 0.69954 1.04502
 C294 C 0.56131 0.67166 1.07366
 C295 C 0.53803 0.68963 1.10135
 C296 C 0.55167 0.72046 1.11372
 C297 C 0.61097 0.69826 1.10368
 C298 C 0.59735 0.66749 1.09134
 C299 C 0.60227 0.76324 1.11041
 C300 C 0.61528 0.79007 1.12129
 C301 C 0.54714 0.63836 1.06018
 C302 C 0.53662 0.61072 1.04867
 H303 H 0.58607 0.75264 1.04041
 H304 H 0.56076 0.69548 1.01746
 H305 H 0.51306 0.67911 1.11041
 H306 H 0.53838 0.73634 1.13339
 H307 H 0.63626 0.69965 1.11687
 H308 H 0.61098 0.64254 1.09396
 C309 C 0.40275 0.41399 1.23190
 C310 C 0.39762 0.45391 1.22830
 C311 C 0.41017 0.46725 1.19745
 C312 C 0.42658 0.43933 1.17328
 C313 C 0.39775 0.41144 1.16838
 C314 C 0.38523 0.39813 1.19918
 C315 C 0.44232 0.40800 1.22654
 C316 C 0.45484 0.42132 1.19574
 C317 C 0.38932 0.39926 1.26493
 C318 C 0.37832 0.38645 1.29176
 C319 C 0.44023 0.45318 1.13996
 C320 C 0.45185 0.46343 1.11231
 H321 H 0.38525 0.47023 1.24821
 H322 H 0.40854 0.49500 1.19092
 H323 H 0.38800 0.40293 1.14294
 H324 H 0.36476 0.37821 1.20012
 H325 H 0.45905 0.39452 1.24531
 H326 H 0.48231 0.41924 1.18813
 C327 C 0.59607 -0.08763 0.26774
 C328 C 0.59820 -0.11274 0.29922
 C329 C 0.58608 -0.09849 0.32977
 C330 C 0.57300 -0.06050 0.32589
 C331 C 0.54523 -0.06199 0.29665
 C332 C 0.55736 -0.07626 0.26607
 C333 C 0.61625 -0.05455 0.27928
 C334 C 0.60411 -0.04028 0.30987
 C335 C 0.60914 -0.10327 0.23498
 C336 C 0.62004 -0.11662 0.20836
 C337 C 0.55985 -0.04556 0.35895
 C338 C 0.54874 -0.03425 0.38642
 H339 H 0.60835 -0.13940 0.29767
 H340 H 0.58587 -0.11294 0.35438
 H341 H 0.51841 -0.05263 0.29968
 H342 H 0.54093 -0.07912 0.24291
 H343 H 0.63811 -0.04333 0.26470
 H344 H 0.61557 -0.01683 0.32150
 C345 C -0.09622 1.08795 -0.23156
 C346 C -0.11147 1.10546 -0.19854
 C347 C -0.09953 1.09123 -0.16796
 C348 C -0.07349 1.06085 -0.17337
 C349 C -0.04420 1.07615 -0.19662
 C350 C -0.05615 1.09040 -0.22721
 C351 C -0.10488 1.04867 -0.22756
 C352 C -0.09292 1.03441 -0.19694
 C353 C -0.10910 1.10357 -0.26435
 C354 C -0.11982 1.11690 -0.29100
 C355 C -0.06051 1.04593 -0.14029
 C356 C -0.04952 1.03465 -0.11282
 H357 H -0.13005 1.12714 -0.19912
 H358 H -0.10789 1.10071 -0.14235
 H359 H -0.01650 1.07580 -0.18968
 H360 H -0.03869 1.10224 -0.24647
 H361 H -0.11913 1.03342 -0.24705
 H362 H -0.09692 1.00695 -0.19019
 C363 C 1.09852 0.58530 0.73175
 C364 C 1.11470 0.60253 0.69903
 C365 C 1.10210 0.58934 0.66821
 C366 C 1.07454 0.56020 0.67309
 C367 C 1.04603 0.57658 0.69656
 C368 C 1.05863 0.58977 0.72738
 C369 C 1.10518 0.54571 0.72712
 C370 C 1.09255 0.53250 0.69625
 C371 C 1.11201 0.59989 0.76481
 C372 C 1.12301 0.61263 0.79167
 C373 C 1.06080 0.54648 0.63975
 C374 C 1.04912 0.53629 0.61211
 H375 H 1.13437 0.62325 0.69998
 H376 H 1.11098 0.59877 0.64277
 H377 H 1.01835 0.57768 0.68960
 H378 H 1.04175 0.60217 0.74682
 H379 H 1.11860 0.52950 0.74637
 H380 H 1.09517 0.50498 0.68904
 C381 C 0.76810 0.59858 0.58696
 C382 C 0.78965 0.57678 0.61315
 C383 C 0.82039 0.56434 0.59959
 C384 C 0.82662 0.57489 0.56115
 C385 C 0.82398 0.61519 0.56081
 C386 C 0.79320 0.62765 0.57438
 C387 C 0.76306 0.57447 0.55495
 C388 C 0.79385 0.56200 0.54137
 C389 C 0.73512 0.61196 0.60189
 C390 C 0.70831 0.62294 0.61481
 C391 C 0.85987 0.56138 0.54694
 C392 C 0.88745 0.55001 0.53614
 H393 H 0.78147 0.57156 0.64000
 H394 H 0.83855 0.54846 0.61484
 H395 H 0.84445 0.63242 0.55077
 H396 H 0.78731 0.65555 0.57596
 H397 H 0.73757 0.56780 0.54391
 H398 H 0.79474 0.54465 0.51870
 C399 C 0.73251 0.40108 1.08710
 C400 C 0.73509 0.43908 1.07370
 C401 C 0.70438 0.45153 1.06006
 C402 C 0.67411 0.42476 1.06116
 C403 C 0.67127 0.41376 1.09987
 C404 C 0.70195 0.40132 1.11350
 C405 C 0.71898 0.37967 1.05564
 C406 C 0.68825 0.39213 1.04199
 C407 C 0.76542 0.38769 1.10210
 C408 C 0.79216 0.37667 1.11504
 C409 C 0.64093 0.43826 1.04688
 C410 C 0.61339 0.44962 1.03605
 H411 H 0.75893 0.45480 1.07478
 H412 H 0.70192 0.47793 1.04945
 H413 H 0.64725 0.41557 1.11524
 H414 H 0.70420 0.39248 1.14053
 H415 H 0.73235 0.35678 1.04500
 H416 H 0.67530 0.37992 1.01966
 C417 C 0.23040 1.09523 -0.08721
 C418 C 0.22121 1.05777 -0.09919
 C419 C 0.19048 1.04544 -0.08545
 C420 C 0.17191 1.07175 -0.06106
 C421 C 0.16747 1.10520 -0.08320
 C422 C 0.19821 1.11753 -0.09693
 C423 C 0.23020 1.09369 -0.04687
 C424 C 0.19942 1.08133 -0.03311
 C425 C 0.26335 1.10849 -0.10236
 C426 C 0.29013 1.11944 -0.11542
 C427 C 0.13865 1.05830 -0.04677
 C428 C 0.11103 1.04680 -0.03619
 H429 H 0.23743 1.04228 -0.11688
 H430 H 0.18039 1.01937 -0.09138
 H431 H 0.14239 1.11809 -0.08765
 H432 H 0.19945 1.14099 -0.11316
 H433 H 0.25227 1.10161 -0.03057
 H434 H 0.19511 1.07866 -0.00502
 C435 C 0.26861 -0.09473 0.41243
 C436 C 0.30124 -0.10546 0.39119
 C437 C 0.33198 -0.09311 0.40484
 C438 C 0.32712 -0.07120 0.43841
 C439 C 0.30665 -0.09517 0.46367
 C440 C 0.27586 -0.10755 0.45000
 C441 C 0.27033 -0.05444 0.41460
 C442 C 0.30108 -0.04207 0.42826
 C443 C 0.23566 -0.10802 0.39738
 C444 C 0.20889 -0.11901 0.38439
 C445 C 0.36038 -0.05773 0.45262
 C446 C 0.38800 -0.04623 0.46315
 H447 H 0.30030 -0.12141 0.36752
 H448 H 0.35736 -0.09847 0.39286
 H449 H 0.31554 -0.10182 0.48995
 H450 H 0.25836 -0.12481 0.46457
 H451 H 0.24923 -0.03714 0.40620
 H452 H 0.30632 -0.01417 0.43156
 C453 C 0.58602 -0.22905 0.59644
 C454 C 0.58931 -0.22503 0.55644
 C455 C 0.57577 -0.19430 0.54399
 C456 C 0.56025 -0.17057 0.57276
 C457 C 0.59020 -0.16541 0.59932
 C458 C 0.60374 -0.19613 0.61176
 C459 C 0.54664 -0.22439 0.60430
 C460 C 0.53308 -0.19361 0.59184
 C461 C 0.60097 -0.26199 0.60979
 C462 C 0.61393 -0.28876 0.62074
 C463 C 0.54616 -0.13732 0.55920
 C464 C 0.53573 -0.10972 0.54764
 H465 H 0.60119 -0.24462 0.53937
 H466 H 0.57605 -0.18757 0.51627
 H467 H 0.59990 -0.13985 0.60766
 H468 H 0.62503 -0.19689 0.63074
 H469 H 0.53083 -0.24356 0.61839
 H470 H 0.50565 -0.18641 0.59525
 C471 C 1.08825 0.73329 0.40390
 C472 C 1.06731 0.73749 0.43818
 C473 C 1.05352 0.70672 0.45043
 C474 C 1.06205 0.67478 0.42719
 C475 C 1.10233 0.67448 0.42419
 C476 C 1.11609 0.70522 0.41195
 C477 C 1.06269 0.71555 0.37815
 C478 C 1.04890 0.68478 0.39040
 C479 C 1.10338 0.76625 0.39071
 C480 C 1.11637 0.79304 0.37977
 C481 C 1.04761 0.64154 0.44047
 C482 C 1.03663 0.61396 0.45164
 H483 H 1.06360 0.76243 0.45162
 H484 H 1.03801 0.70529 0.47436
 H485 H 1.11862 0.65208 0.43107
 H486 H 1.14417 0.70913 0.40836
 H487 H 1.05598 0.72624 0.35256
 H488 H 1.03039 0.66910 0.37532
 C489 C -0.08691 1.22981 0.09734
 C490 C -0.08541 1.20045 0.12498
 C491 C -0.07194 1.16965 0.11252
 C492 C -0.06128 1.17122 0.07362
 C493 C -0.03560 1.20233 0.07101
 C494 C -0.04909 1.23316 0.08349
 C495 C -0.10797 1.21415 0.06668
 C496 C -0.09450 1.18338 0.05422
 C497 C -0.10179 1.26281 0.11070
 C498 C -0.11470 1.28964 0.12166
 C499 C -0.04725 1.13792 0.06004
 C500 C -0.03684 1.11028 0.04846
 H501 H -0.09412 1.20359 0.15199
 H502 H -0.06910 1.14641 0.12884
 H503 H -0.00917 1.20031 0.06033
 H504 H -0.03422 1.25756 0.08350
 H505 H -0.13139 1.22620 0.05569
 H506 H -0.10641 1.16908 0.03256
 C507 C 0.41153 0.26662 0.90411
 C508 C 0.43925 0.28273 0.87951
 C509 C 0.45326 0.31342 0.89176
 C510 C 0.43817 0.32496 0.92739
 C511 C 0.44413 0.29350 0.95195
 C512 C 0.43012 0.26281 0.93971
 C513 C 0.38420 0.29580 0.90967
 C514 C 0.39819 0.32644 0.92189
 C515 C 0.39616 0.23376 0.89092
 C516 C 0.38299 0.20706 0.87995
 C517 C 0.45284 0.35812 0.94065
 C518 C 0.46398 0.38566 0.95180
 H519 H 0.44720 0.27105 0.85469
 H520 H 0.47321 0.32803 0.87743
 H521 H 0.45815 0.29516 0.97675
 H522 H 0.43213 0.23820 0.95402
 H523 H 0.35628 0.29267 0.90445
 H524 H 0.38225 0.34956 0.92714
 C525 C 0.59601 0.58805 0.76843
 C526 C 0.61562 0.55453 0.77949
 C527 C 0.60360 0.54037 0.81017
 C528 C 0.57316 0.56113 0.82673
 C529 C 0.54503 0.56331 0.79788
 C530 C 0.55705 0.57746 0.76722
 C531 C 0.59913 0.61298 0.80002
 C532 C 0.58712 0.59884 0.83065
 C533 C 0.60897 0.60356 0.73558
 C534 C 0.61977 0.61680 0.70888
 C535 C 0.56012 0.54631 0.85986
 C536 C 0.54909 0.53508 0.88737
 H537 H 0.63703 0.54294 0.76455
 H538 H 0.61470 0.51665 0.82150
 H539 H 0.51806 0.55447 0.80122
 H540 H 0.54037 0.58076 0.74431
 H541 H 0.60984 0.63943 0.79848
 H542 H 0.58756 0.61319 0.85534
 C543 C 0.40142 0.08628 0.73094
 C544 C 0.38812 0.04904 0.72255
 C545 C 0.40079 0.03589 0.69165
 C546 C 0.42549 0.06130 0.67223
 C547 C 0.45435 0.07044 0.69894
 C548 C 0.44170 0.08356 0.72980
 C549 C 0.39155 0.10843 0.69873
 C550 C 0.40420 0.09531 0.66789
 C551 C 0.38787 0.10080 0.76403
 C552 C 0.37682 0.11345 0.79093
 C553 C 0.43928 0.04764 0.63887
 C554 C 0.45100 0.03749 0.61121
 H555 H 0.37035 0.03430 0.73938
 H556 H 0.39388 0.00990 0.68201
 H557 H 0.48228 0.06686 0.69407
 H558 H 0.45878 0.09123 0.75135
 H559 H 0.37596 0.13232 0.70002
 H560 H 0.39943 0.10797 0.64277
 C561 C 0.09734 0.91419 0.23134
 C562 C 0.06178 0.89847 0.22045
 C563 C 0.04914 0.91164 0.18968
 C564 C 0.07328 0.93927 0.17277
 C565 C 0.10910 0.92102 0.16901
 C566 C 0.12175 0.90784 0.19979
 C567 C 0.09139 0.95415 0.23213
 C568 C 0.07872 0.96735 0.20130
 C569 C 0.11090 0.89962 0.26434
 C570 C 0.12199 0.88692 0.29115
 C571 C 0.05951 0.95298 0.13948
 C572 C 0.04781 0.96315 0.11186
 H573 H 0.04773 0.87873 0.23559
 H574 H 0.02425 0.90319 0.17848
 H575 H 0.12331 0.91870 0.14435
 H576 H 0.14679 0.89423 0.20149
 H577 H 0.09667 0.97061 0.25486
 H578 H 0.07315 0.99511 0.19763
 C579 C 0.90454 0.41145 0.26851
 C580 C 0.92849 0.38660 0.28935
 C581 C 0.94058 0.40072 0.31995
 C582 C 0.92756 0.43834 0.32676
 C583 C 0.88728 0.43594 0.32489
 C584 C 0.87518 0.42181 0.29426
 C585 C 0.92632 0.44511 0.26334
 C586 C 0.93843 0.45925 0.29398
 C587 C 0.89149 0.39595 0.23569
 C588 C 0.88063 0.38271 0.20902
 C589 C 0.94068 0.45315 0.35987
 C590 C 0.95177 0.46438 0.38736
 H591 H 0.93537 0.36022 0.28082
 H592 H 0.95782 0.38642 0.33763
 H593 H 0.86981 0.44463 0.34575
 H594 H 0.84733 0.41838 0.28889
 H595 H 0.93173 0.45680 0.23787
 H596 H 0.95421 0.48306 0.29478
   
