data_POSCAR
  _audit_creation_date              2014-09-24
  _audit_creation_method            'ToBaCCo'
  _symmetry_space_group_name_H-M    'P1'
  _symmetry_Int_Tables_number       1
  _symmetry_cell_setting            triclinic
  loop_
  _symmetry_equiv_pos_as_xyz
 x,y,z
_cell_length_a 43.5554
_cell_length_b 42.4617
_cell_length_c 41.8505
_cell_angle_alpha 86.282000
_cell_angle_beta 94.406200
_cell_angle_gamma 90.835500
loop_
  _atom_site_label
  _atom_site_type_symbol
  _atom_site_fract_x
  _atom_site_fract_y
  _atom_site_fract_z
C1 C 0.24898 0.49490 1.00157
 C2 C 0.74766 0.51375 0.00114
 C3 C 0.00374 0.24320 0.49297
 C4 C 1.00427 0.74795 0.50952
 C5 C 0.48658 -0.01598 0.25230
 C6 C 0.52071 0.02034 0.74776
 C7 C 0.29665 0.03035 0.46205
 H8 H 0.29867 0.04553 0.48184
 C9 C 0.31637 0.03494 0.43744
 H10 H 0.33358 0.05360 0.43864
 C11 C 0.27198 -0.01242 0.43657
 H12 H 0.25446 -0.03067 0.43615
 C13 C 0.29138 -0.00874 0.41143
 H14 H 0.28822 -0.02414 0.39183
 N15 N 0.27549 0.00650 0.46166
 C16 C 0.21830 0.03844 0.53303
 H17 H 0.22390 0.02078 0.55232
 C18 C 0.19907 0.06334 0.53790
 H19 H 0.18998 0.06473 0.56114
 C20 C 0.22274 0.05738 0.47904
 H21 H 0.23182 0.05463 0.45606
 C22 C 0.20345 0.08269 0.48283
 H23 H 0.19844 0.09932 0.46254
 Zn24 Zn 0.25295 -0.00033 0.49854
 N25 N 0.22939 0.03571 0.50387
 C26 C 0.29456 0.02078 0.54657
 N27 N 0.28165 -0.00587 0.53489
 C28 C 0.29007 -0.03487 0.54804
 C29 C 0.31291 -0.03780 0.57338
 C30 C 0.31733 0.01902 0.57188
 C31 C 0.19542 -0.03118 0.49806
 C32 C 0.17441 -0.05617 0.49639
 C33 C 0.21598 -0.09050 0.48686
 C34 C 0.23632 -0.06479 0.48914
 N35 N 0.22584 -0.03582 0.49496
 H36 H 0.28738 0.04363 0.53594
 H37 H 0.27953 -0.05584 0.53869
 H38 H 0.31959 -0.06119 0.58310
 H39 H 0.32734 0.04095 0.57949
 H40 H 0.18716 -0.00796 0.50174
 H41 H 0.15047 -0.05095 0.49835
 H42 H 0.22488 -0.11335 0.48230
 H43 H 0.26049 -0.06793 0.48604
 C44 C 0.19092 0.08558 0.51253
 C45 C 0.31452 0.01472 0.41220
 C46 C 0.18457 -0.08663 0.49116
 C47 C 0.32714 -0.01068 0.58561
 C48 C 0.70509 0.01441 0.53174
 H49 H 0.70166 0.03106 0.51112
 C50 C 0.68449 0.01340 0.55573
 H51 H 0.66515 0.02926 0.55290
 C52 C 0.73350 -0.02786 0.55868
 H53 H 0.75215 -0.04443 0.55934
 C54 C 0.71349 -0.02964 0.58329
 H55 H 0.71719 -0.04739 0.60295
 N56 N 0.72907 -0.00592 0.53366
 C57 C 0.79509 0.03845 0.47137
 H58 H 0.79694 0.02018 0.45478
 C59 C 0.81341 0.06562 0.46887
 H60 H 0.82871 0.06824 0.44969
 C61 C 0.77246 0.05694 0.51626
 H62 H 0.75693 0.05319 0.53509
 C63 C 0.79036 0.08449 0.51463
 H64 H 0.78825 0.10189 0.53213
 Zn65 Zn 0.75373 -0.00442 0.49834
 N66 N 0.77521 0.03456 0.49484
 C67 C 0.72350 0.01311 0.43714
 N68 N 0.72654 -0.00960 0.46155
 C69 C 0.70780 -0.03544 0.46213
 C70 C 0.68450 -0.03905 0.43778
 C71 C 0.70060 0.01043 0.41217
 C72 C 0.80547 -0.03434 0.52857
 C73 C 0.82932 -0.05609 0.53335
 C74 C 0.80828 -0.08188 0.48661
 C75 C 0.78472 -0.05959 0.48283
 N76 N 0.78371 -0.03651 0.50375
 H77 H 0.73813 0.03386 0.43746
 H78 H 0.71038 -0.05285 0.48219
 H79 H 0.66984 -0.05966 0.43989
 H80 H 0.69831 0.02915 0.39329
 H81 H 0.80439 -0.01541 0.54455
 H82 H 0.84641 -0.05367 0.55329
 H83 H 0.80838 -0.09946 0.46912
 H84 H 0.76757 -0.06045 0.46282
 C85 C 0.81159 0.08881 0.49114
 C86 C 0.68867 -0.00880 0.58209
 C87 C 0.83121 -0.08031 0.51223
 C88 C 0.68026 -0.01562 0.41236
 C89 C 0.48228 0.20714 1.03989
 H90 H 0.46349 0.20748 1.02139
 C91 C 0.48367 0.18324 1.06445
 H92 H 0.46576 0.16537 1.06419
 C93 C 0.52959 0.22889 1.06041
 H94 H 0.54789 0.24614 1.05819
 C95 C 0.53183 0.20547 1.08550
 H96 H 0.55176 0.20521 1.10268
 N97 N 0.50508 0.22925 1.03821
 C98 C 0.46937 0.30979 0.97760
 H99 H 0.48656 0.31142 0.96022
 C100 C 0.44745 0.33344 0.97751
 H101 H 0.44771 0.35322 0.95983
 C102 C 0.44911 0.28280 1.02282
 H103 H 0.45045 0.26355 1.04104
 C104 C 0.42644 0.30571 1.02328
 H105 H 0.41059 0.30381 1.04201
 Zn106 Zn 0.50347 0.25723 1.00109
 N107 N 0.47001 0.28527 1.00021
 C108 C 0.47672 0.23528 0.94190
 N109 N 0.49975 0.23181 0.96563
 C110 C 0.52072 0.20844 0.96597
 C111 C 0.51940 0.18750 0.94161
 C112 C 0.47450 0.21485 0.91690
 C113 C 0.54522 0.30363 1.02230
 C114 C 0.57025 0.32448 1.02085
 C115 C 0.58373 0.30070 0.97299
 C116 C 0.55843 0.28039 0.97537
 N117 N 0.53977 0.28218 0.99976
 H118 H 0.45995 0.25372 0.94243
 H119 H 0.53846 0.20594 0.98551
 H120 H 0.53639 0.16913 0.94351
 H121 H 0.45596 0.21803 0.89822
 H122 H 0.52963 0.30496 1.04107
 H123 H 0.57314 0.34149 1.03893
 H124 H 0.59800 0.29900 0.95307
 H125 H 0.55335 0.26373 0.95722
 C126 C 0.42568 0.33160 1.00055
 C127 C 0.50882 0.18212 1.08769
 C128 C 0.58995 0.32340 0.99569
 C129 C 0.49605 0.19051 0.91632
 C130 C 0.46246 0.79753 -0.04322
 H131 H 0.44597 0.79585 -0.02512
 C132 C 0.45881 0.82026 -0.06879
 H133 H 0.43924 0.83589 -0.07040
 C134 C 0.50881 0.78017 -0.06219
 H135 H 0.52860 0.76495 -0.05919
 C136 C 0.50609 0.80262 -0.08813
 H137 H 0.52351 0.80353 -0.10522
 N138 N 0.48727 0.77821 -0.04026
 C139 C 0.46575 0.69680 0.02319
 H140 H 0.48545 0.69741 0.04055
 C141 C 0.44534 0.67116 0.02411
 H142 H 0.44926 0.65214 0.04243
 C143 C 0.43759 0.72009 -0.02283
 H144 H 0.43521 0.73864 -0.04172
 C145 C 0.41636 0.69509 -0.02253
 H146 H 0.39789 0.69479 -0.04134
 Zn147 Zn 0.49305 0.75171 -0.00224
 N148 N 0.46168 0.72050 -0.00015
 C149 C 0.47508 0.77242 0.05723
 N150 N 0.49299 0.77823 0.03226
 C151 C 0.51019 0.80506 0.02949
 C152 C 0.50935 0.82774 0.05201
 C153 C 0.47397 0.79425 0.08076
 C154 C 0.53347 0.70844 -0.02279
 C155 C 0.55986 0.69007 -0.02187
 C156 C 0.58066 0.71735 0.02400
 C157 C 0.55382 0.73522 0.02213
 N158 N 0.53088 0.73036 -0.00096
 H159 H 0.46115 0.75117 0.05862
 H160 H 0.52398 0.80920 0.00918
 H161 H 0.52283 0.84922 0.04885
 H162 H 0.45888 0.78918 0.09980
 H163 H 0.51472 0.70496 -0.04076
 H164 H 0.56071 0.67316 -0.03992
 H165 H 0.59846 0.72138 0.04289
 H166 H 0.55112 0.75251 0.03951
 C167 C 0.42030 0.67011 0.00108
 C168 C 0.48115 0.82355 -0.09120
 C169 C 0.58391 0.69396 0.00220
 C170 C 0.49105 0.82268 0.07811
 C171 C 1.04092 0.49468 0.20005
 H172 H 1.01922 0.48196 0.20031
 C173 C 1.06057 0.49016 0.17603
 H174 H 1.05399 0.47374 0.15790
 C175 C 1.07496 0.53290 0.22237
 H176 H 1.07993 0.55032 0.23980
 C177 C 1.09555 0.52882 0.19891
 H178 H 1.11619 0.54329 0.19861
 N179 N 1.04819 0.51598 0.22238
 C180 C 0.99075 0.49167 0.30102
 H181 H 0.97851 0.51364 0.30116
 C182 C 0.98686 0.46784 0.32492
 H183 H 0.97142 0.47152 0.34341
 C184 C 1.02689 0.46086 0.27754
 H185 H 1.04313 0.45867 0.25957
 C186 C 1.02351 0.43624 0.30092
 H187 H 1.03743 0.41539 0.30066
 Zn188 Zn 1.01704 0.52352 0.24991
 N189 N 1.01065 0.48790 0.27811
 C190 C 0.95597 0.51304 0.22378
 N191 N 0.98100 0.53246 0.22293
 C192 C 0.98222 0.55691 0.20045
 C193 C 0.95774 0.56238 0.17732
 C194 C 0.93100 0.51749 0.20099
 C195 C 1.05208 0.55359 0.29795
 C196 C 1.05802 0.57526 0.32142
 C197 C 1.01319 0.60442 0.29949
 C198 C 1.00825 0.58225 0.27634
 N199 N 1.02737 0.55725 0.27623
 H200 H 0.95576 0.49331 0.24141
 H201 H 1.00267 0.57166 0.20000
 H202 H 0.95958 0.58170 0.15931
 H203 H 0.91208 0.50091 0.20228
 H204 H 1.06652 0.53309 0.29780
 H205 H 1.07746 0.57132 0.33893
 H206 H 0.99679 0.62326 0.29907
 H207 H 0.98826 0.58429 0.25942
 C208 C 1.00340 0.43977 0.32517
 C209 C 1.08816 0.50745 0.17513
 C210 C 1.03811 0.60079 0.32305
 C211 C 0.93179 0.54226 0.17684
 C212 C -0.05325 0.44384 0.80401
 H213 H -0.03667 0.42526 0.80310
 C214 C -0.07423 0.44198 0.82767
 H215 H -0.07381 0.42167 0.84475
 C216 C -0.07297 0.49343 0.78357
 H217 H -0.07178 0.51386 0.76692
 C218 C -0.09425 0.49264 0.80699
 H219 H -0.10904 0.51273 0.80770
 N220 N -0.05304 0.46923 0.78252
 C221 C -0.00333 0.43716 0.70437
 H222 H 0.01409 0.45555 0.70339
 C223 C -0.00483 0.41418 0.68194
 H224 H 0.01144 0.41556 0.66365
 C225 C -0.04695 0.41501 0.72827
 H226 H -0.06379 0.41592 0.74583
 C227 C -0.04927 0.39148 0.70629
 H228 H -0.06774 0.37417 0.70741
 Zn229 Zn -0.02143 0.47138 0.75385
 N230 N -0.02410 0.43714 0.72700
 C231 C 0.03669 0.44686 0.77903
 N232 N 0.01631 0.47074 0.77951
 C233 C 0.02113 0.49389 0.80031
 C234 C 0.04746 0.49392 0.82155
 C235 C 0.06329 0.44582 0.79999
 C236 C -0.05025 0.51167 0.70571
 C237 C -0.05295 0.53697 0.68270
 C238 C -0.00266 0.55544 0.70218
 C239 C -0.00099 0.52974 0.72485
 N240 N -0.02459 0.50851 0.72621
 H241 H 0.03207 0.42820 0.76292
 H242 H 0.00414 0.51217 0.80070
 H243 H 0.04980 0.51248 0.83803
 H244 H 0.07904 0.42638 0.79936
 H245 H -0.06844 0.49409 0.70690
 H246 H -0.07356 0.53871 0.66646
 H247 H 0.01697 0.57119 0.70163
 H248 H 0.01961 0.52632 0.74071
 C249 C -0.02799 0.39077 0.68282
 C250 C -0.09503 0.46659 0.82955
 C251 C -0.02894 0.55931 0.68038
 C252 C 0.06914 0.46951 0.82172
 C253 C 0.03441 0.22794 0.48867
 C254 C 0.04866 0.20684 0.51210
 C255 C 0.07638 0.18837 0.50747
 C256 C 0.08303 0.16175 0.52833
 C257 C 0.10830 0.14291 0.52444
 C258 C 0.12779 0.15055 0.49974
 C259 C 0.12136 0.17735 0.47904
 C260 C 0.09609 0.19629 0.48298
 C261 C 0.15375 0.13009 0.49388
 C262 C 0.16851 0.11025 0.51806
 H263 H 0.03764 0.20207 0.53429
 H264 H 0.06821 0.15507 0.54733
 H265 H 0.11183 0.12190 0.54026
 H266 H 0.13600 0.18368 0.45978
 H267 H 0.09233 0.21705 0.46689
 H268 H 0.16086 0.13074 0.46968
 H269 H 0.04365 0.23095 0.46537
 H270 H 0.16226 0.11171 0.54245
 C271 C 0.72297 0.53873 -0.00611
 C272 C 0.71941 0.56527 0.01141
 C273 C 0.69295 0.58686 0.00473
 C274 C 0.69570 0.61795 0.01418
 C275 C 0.67089 0.63869 0.00872
 C276 C 0.64264 0.62849 -0.00593
 C277 C 0.63996 0.59741 -0.01538
 C278 C 0.66467 0.57672 -0.00987
 C279 C 0.61557 0.64931 -0.01213
 C280 C 0.61057 0.67523 0.00585
 H281 H 0.73664 0.57096 0.03023
 H282 H 0.71721 0.62630 0.02555
 H283 H 0.67415 0.66269 0.01560
 H284 H 0.61843 0.58891 -0.02658
 H285 H 0.66117 0.55265 -0.01648
 H286 H 0.59813 0.64193 -0.02989
 H287 H 0.70711 0.53549 -0.02687
 H288 H 0.62768 0.68035 0.02502
 C289 C 0.97443 -0.23356 0.50928
 C290 C 0.97276 -0.20091 0.51214
 C291 C 0.94361 -0.18296 0.50949
 C292 C 0.94422 -0.15230 0.52022
 C293 C 0.91772 -0.13387 0.51716
 C294 C 0.88981 -0.14577 0.50334
 C295 C 0.88926 -0.17627 0.49219
 C296 C 0.91581 -0.19472 0.49522
 C297 C 0.86147 -0.12651 0.49866
 C298 C 0.85633 -0.10106 0.51724
 H299 H 0.99370 -0.18751 0.51701
 H300 H 0.96542 -0.14240 0.53076
 H301 H 0.91956 -0.11007 0.52490
 H302 H 0.86822 -0.18579 0.48091
 H303 H 0.91445 -0.21775 0.48560
 H304 H 0.84414 -0.13354 0.48059
 H305 H 0.95324 -0.24701 0.50644
 H306 H 0.87293 -0.09700 0.53720
 C307 C 0.26868 0.46571 1.00075
 C308 C 0.29495 0.46028 1.02161
 C309 C 0.31507 0.43289 1.01966
 C310 C 0.34698 0.43664 1.02568
 C311 C 0.36669 0.41133 1.02343
 C312 C 0.35472 0.38161 1.01570
 C313 C 0.32272 0.37758 1.01076
 C314 C 0.30303 0.40308 1.01237
 C315 C 0.37515 0.35443 1.01363
 C316 C 0.40412 0.35801 1.00168
 H317 H 0.30242 0.47814 1.03795
 H318 H 0.35669 0.45933 1.03170
 H319 H 0.39122 0.41491 1.02825
 H320 H 0.31299 0.35476 1.00525
 H321 H 0.27843 0.39933 1.00844
 H322 H 0.36642 0.33099 1.01977
 H323 H 0.26217 0.44850 0.98339
 H324 H 0.41086 0.38096 0.99150
 C325 C 0.97940 0.21719 0.49360
 C326 C 0.94815 0.22166 0.48434
 C327 C 0.92578 0.19507 0.48311
 C328 C 0.89445 0.20075 0.48579
 C329 C 0.87286 0.17601 0.48441
 C330 C 0.88229 0.14510 0.48008
 C331 C 0.91349 0.13969 0.47652
 C332 C 0.93501 0.16431 0.47800
 C333 C 0.86052 0.11801 0.47835
 C334 C 0.83164 0.11732 0.49084
 H335 H 0.93972 0.24529 0.47807
 H336 H 0.88670 0.22436 0.48910
 H337 H 0.84889 0.18137 0.48621
 H338 H 0.92131 0.11623 0.47261
 H339 H 0.95873 0.15919 0.47449
 H340 H 0.86879 0.09677 0.46905
 H341 H 0.98652 0.19402 0.50351
 H342 H 0.82459 0.13713 0.50344
 C343 C 0.26885 0.52459 0.00273
 C344 C 0.29289 0.53055 -0.01716
 C345 C 0.31216 0.55938 -0.01568
 C346 C 0.34363 0.55753 -0.02016
 C347 C 0.36252 0.58436 -0.01842
 C348 C 0.35006 0.61367 -0.01273
 C349 C 0.31838 0.61571 -0.00931
 C350 C 0.29960 0.58875 -0.01045
 C351 C 0.36941 0.64250 -0.01145
 C352 C 0.40008 0.64183 0.00094
 H353 H 0.29918 0.51247 -0.03250
 H354 H 0.35368 0.53519 -0.02462
 H355 H 0.38671 0.58225 -0.02209
 H356 H 0.30822 0.63815 -0.00542
 H357 H 0.27522 0.59102 -0.00780
 H358 H 0.35870 0.66497 -0.01867
 H359 H 0.26355 0.54232 0.01893
 H360 H 0.40938 0.61994 0.01216
 C361 C 0.03235 -0.23030 0.51266
 C362 C 0.04592 -0.21498 0.48660
 C363 C 0.06948 -0.18988 0.49080
 C364 C 0.09225 -0.18567 0.46890
 C365 C 0.11411 -0.16132 0.47183
 C366 C 0.11315 -0.14045 0.49649
 C367 C 0.09007 -0.14441 0.51802
 C368 C 0.06855 -0.16893 0.51537
 C369 C 0.13442 -0.11315 0.49925
 C370 C 0.16451 -0.11292 0.48957
 H371 H 0.03929 -0.22148 0.46243
 H372 H 0.09308 -0.20123 0.44948
 H373 H 0.13109 -0.15832 0.45428
 H374 H 0.08856 -0.12831 0.53689
 H375 H 0.05067 -0.17081 0.53200
 H376 H 0.12641 -0.09363 0.51160
 H377 H 0.04015 -0.22391 0.53662
 H378 H 0.17333 -0.13470 0.48190
 C379 C 0.73123 0.48245 1.00773
 C380 C 0.71049 0.46925 0.98502
 C381 C 0.69008 0.44200 0.99260
 C382 C 0.67581 0.42574 0.96727
 C383 C 0.65478 0.40126 0.97324
 C384 C 0.64760 0.39249 1.00485
 C385 C 0.66181 0.40882 1.03015
 C386 C 0.68279 0.43329 1.02418
 C387 C 0.62397 0.36815 1.01217
 C388 C 0.61469 0.34463 0.99141
 H389 H 0.70866 0.47988 0.96071
 H390 H 0.68056 0.43236 0.94269
 H391 H 0.64355 0.39012 0.95291
 H392 H 0.65630 0.40294 1.05464
 H393 H 0.69231 0.44588 1.04435
 H394 H 0.61430 0.36890 1.03509
 H395 H 0.73493 0.47053 1.03134
 H396 H 0.62741 0.34258 0.97043
 C397 C 0.48270 0.01418 1.23076
 C398 C 0.50405 0.02408 1.20883
 C399 C 0.50003 0.05284 1.18696
 C400 C 0.52597 0.06702 1.17395
 C401 C 0.52301 0.09398 1.15293
 C402 C 0.49388 0.10732 1.14445
 C403 C 0.46790 0.09275 1.15701
 C404 C 0.47085 0.06582 1.17797
 C405 C 0.48931 0.13516 1.12138
 C406 C 0.51289 0.15610 1.11305
 H407 H 0.52492 0.01059 1.20838
 H408 H 0.54863 0.05716 1.18004
 H409 H 0.54352 0.10373 1.14295
 H410 H 0.44512 0.10212 1.15040
 H411 H 0.45011 0.05496 1.18638
 H412 H 0.46605 0.13963 1.11133
 H413 H 0.46271 0.02855 1.23274
 H414 H 0.53535 0.15380 1.12587
 C415 C 0.00587 0.72410 0.53826
 C416 C -0.01638 0.70044 0.54264
 C417 C -0.01500 0.67723 0.57075
 C418 C -0.03078 0.64835 0.56824
 C419 C -0.02973 0.62573 0.59414
 C420 C -0.01316 0.63179 0.62335
 C421 C 0.00236 0.66081 0.62594
 C422 C 0.00128 0.68341 0.60008
 C423 C -0.01037 0.60809 0.65103
 C424 C -0.03187 0.58369 0.65583
 H425 H -0.03481 0.69806 0.52402
 H426 H -0.04353 0.64302 0.54594
 H427 H -0.04129 0.60334 0.59082
 H428 H 0.01526 0.66610 0.64815
 H429 H 0.01292 0.70575 0.60342
 H430 H 0.00884 0.61112 0.66848
 H431 H 0.02574 0.72471 0.55542
 H432 H -0.05246 0.58362 0.63959
 C433 C 0.52282 0.98913 -0.23228
 C434 C 0.49813 0.97655 -0.21597
 C435 C 0.49966 0.94702 -0.19509
 C436 C 0.47696 0.94127 -0.17335
 C437 C 0.47748 0.91383 -0.15302
 C438 C 0.50063 0.89129 -0.15430
 C439 C 0.52323 0.89693 -0.17619
 C440 C 0.52267 0.92436 -0.19659
 C441 C 0.50293 0.86263 -0.13216
 C442 C 0.47802 0.84953 -0.11658
 H443 H 0.47673 0.98945 -0.21802
 H444 H 0.45898 0.95834 -0.17172
 H445 H 0.46017 0.91093 -0.13585
 H446 H 0.54133 0.87997 -0.17762
 H447 H 0.54009 0.92738 -0.21361
 H448 H 0.52539 0.85202 -0.12770
 H449 H 0.54519 0.97823 -0.22805
 H450 H 0.45549 0.85991 -0.12156
 C451 C 0.99734 0.26704 0.46458
 C452 C 1.01341 0.29573 0.46215
 C453 C 1.01061 0.31805 0.43351
 C454 C 1.01691 0.35011 0.43738
 C455 C 1.01572 0.37186 0.41083
 C456 C 1.00847 0.36187 0.37973
 C457 C 1.00272 0.32971 0.37576
 C458 C 1.00357 0.30797 0.40240
 C459 C 1.00833 0.38426 0.35113
 C460 C 1.00093 0.41601 0.35232
 H461 H 1.02828 0.30251 0.48257
 H462 H 1.02289 0.35835 0.46105
 H463 H 1.02130 0.39631 0.41468
 H464 H 0.99760 0.32140 0.35198
 H465 H 0.99960 0.28327 0.39843
 H466 H 1.01304 0.37520 0.32844
 H467 H 0.98229 0.26019 0.44436
 H468 H 0.99223 0.42384 0.37400
 C469 C 0.48880 0.95591 0.23194
 C470 C 0.46819 0.95108 0.20543
 C471 C 0.47005 0.92341 0.18615
 C472 C 0.46405 0.92711 0.15274
 C473 C 0.46614 0.90139 0.13386
 C474 C 0.47359 0.87135 0.14821
 C475 C 0.47846 0.86739 0.18173
 C476 C 0.47707 0.89329 0.20058
 C477 C 0.47577 0.84395 0.12855
 C478 C 0.48967 0.84676 0.09947
 H479 H 0.45156 0.96917 0.19733
 H480 H 0.45821 0.95006 0.14123
 H481 H 0.46154 0.90489 0.10809
 H482 H 0.48382 0.84434 0.19327
 H483 H 0.48101 0.88967 0.22641
 H484 H 0.46845 0.82119 0.13852
 H485 H 0.50630 0.93835 0.23879
 H486 H 0.50076 0.86914 0.09332
 C487 C 0.00543 0.25942 0.52442
 C488 C -0.01819 0.27833 0.53310
 C489 C -0.01528 0.29744 0.56163
 C490 C -0.04203 0.30865 0.57355
 C491 C -0.04013 0.32798 0.59951
 C492 C -0.01126 0.33652 0.61409
 C493 C 0.01545 0.32544 0.60200
 C494 C 0.01355 0.30623 0.57607
 C495 C -0.00774 0.35833 0.64045
 C496 C -0.03160 0.36662 0.65870
 H497 H -0.03954 0.27960 0.51804
 H498 H -0.06451 0.30269 0.56252
 H499 H -0.06130 0.33670 0.60735
 H500 H 0.03799 0.33207 0.61238
 H501 H 0.03481 0.29924 0.56697
 H502 H 0.01511 0.36776 0.64605
 H503 H 0.02605 0.25666 0.54039
 H504 H -0.05359 0.35455 0.65601
 C505 C 0.52416 0.04644 0.77097
 C506 C 0.50011 0.05595 0.78836
 C507 C 0.50404 0.07945 0.81304
 C508 C 0.47813 0.09558 0.82117
 C509 C 0.48085 0.11758 0.84473
 C510 C 0.50970 0.12383 0.86071
 C511 C 0.53546 0.10723 0.85298
 C512 C 0.53273 0.08527 0.82948
 C513 C 0.51383 0.14607 0.88661
 C514 C 0.49303 0.17004 0.89101
 H515 H 0.47719 0.04654 0.78298
 H516 H 0.45566 0.09110 0.80927
 H517 H 0.46022 0.12898 0.85073
 H518 H 0.55785 0.11111 0.86533
 H519 H 0.55307 0.07248 0.82496
 H520 H 0.53499 0.14378 0.90170
 H521 H 0.54690 0.05644 0.77582
 H522 H 0.47361 0.17358 0.87347
 C523 C 1.00362 0.73074 0.47877
 C524 C 1.02677 0.71001 0.47263
 C525 C 1.02695 0.69426 0.44211
 C526 C 1.04167 0.66513 0.44194
 C527 C 1.04150 0.64922 0.41368
 C528 C 1.02704 0.66253 0.38476
 C529 C 1.01292 0.69202 0.38488
 C530 C 1.01300 0.70783 0.41314
 C531 C 1.02442 0.64573 0.35463
 C532 C 1.04303 0.62031 0.34903
 H533 H 1.04473 0.70428 0.49140
 H534 H 1.05266 0.65426 0.46394
 H535 H 1.05194 0.62619 0.41499
 H536 H 1.00166 0.70285 0.36300
 H537 H 1.00232 0.73075 0.41207
 H538 H 1.00691 0.65413 0.33656
 H539 H 0.98461 0.73508 0.46085
 H540 H 1.06227 0.61468 0.36629
 C541 C 1.23104 0.49200 0.03138
 C542 C 1.20701 0.51243 0.03560
 C543 C 1.18980 0.51113 0.06472
 C544 C 1.15897 0.52062 0.06190
 C545 C 1.14206 0.52037 0.08894
 C546 C 1.15587 0.51106 0.11950
 C547 C 1.18694 0.50232 0.12249
 C548 C 1.20375 0.50206 0.09530
 C549 C 1.13853 0.51154 0.14849
 C550 C 1.10708 0.50462 0.14762
 H551 H 1.19956 0.52920 0.01601
 H552 H 1.14790 0.52816 0.03864
 H553 H 1.11840 0.52816 0.08597
 H554 H 1.19817 0.49553 0.14587
 H555 H 1.22777 0.49553 0.09838
 H556 H 1.15106 0.51603 0.17113
 H557 H 1.23789 0.47442 0.05042
 H558 H 1.09580 0.49598 0.12587
 C559 C 0.54684 0.02352 0.72571
 C560 C 0.55413 -0.00026 0.70603
 C561 C 0.57812 0.00326 0.68278
 C562 C 0.59091 -0.02398 0.67219
 C563 C 0.61332 -0.02171 0.64994
 C564 C 0.62341 0.00802 0.63777
 C565 C 0.61015 0.03523 0.64787
 C566 C 0.58774 0.03296 0.67009
 C567 C 0.64645 0.01167 0.61348
 C568 C 0.66693 -0.01198 0.60770
 H569 H 0.54249 -0.02289 0.70860
 H570 H 0.58349 -0.04715 0.68114
 H571 H 0.62209 -0.04331 0.64194
 H572 H 0.61705 0.05840 0.63841
 H573 H 0.57766 0.05454 0.67657
 H574 H 0.64798 0.03449 0.60061
 H575 H 0.55905 0.04586 0.72388
 H576 H 0.66796 -0.03342 0.62316
 C577 C -0.23423 0.51240 0.97164
 C578 C -0.21394 0.48796 0.96780
 C579 C -0.19545 0.48709 0.93964
 C580 C -0.16754 0.47073 0.94285
 C581 C -0.14925 0.46984 0.91688
 C582 C -0.15888 0.48487 0.88685
 C583 C -0.18702 0.50090 0.88362
 C584 C -0.20521 0.50190 0.90963
 C585 C -0.13989 0.48551 0.85883
 C586 C -0.11571 0.46473 0.85625
 H587 H -0.21032 0.46975 0.98704
 H588 H -0.15954 0.45913 0.96574
 H589 H -0.12740 0.45796 0.92081
 H590 H -0.19503 0.51266 0.86082
 H591 H -0.22703 0.51395 0.90596
 H592 H -0.14603 0.50261 0.83921
 H593 H -0.23548 0.53238 0.95415
 H594 H -0.11175 0.44565 0.87444
 C595 C 0.45890 -0.02049 0.27213
 C596 C 0.45103 0.00208 0.29287
 C597 C 0.42337 -0.00035 0.31126
 C598 C 0.41017 0.02745 0.31995
 C599 C 0.38444 0.02625 0.33798
 C600 C 0.37177 -0.00299 0.34838
 C601 C 0.38477 -0.03082 0.33927
 C602 C 0.41036 -0.02958 0.32097
 C603 C 0.34556 -0.00552 0.36908
 C604 C 0.33736 0.01870 0.38778
 H605 H 0.46487 0.02346 0.29411
 H606 H 0.41968 0.05025 0.31255
 H607 H 0.37464 0.04831 0.34344
 H608 H 0.37548 -0.05365 0.34690
 H609 H 0.42033 -0.05152 0.31527
 H610 H 0.33438 -0.02834 0.37195
 H611 H 0.44430 -0.04112 0.26915
 H612 H 0.35048 0.04050 0.38728
 C613 C 0.22693 0.49781 0.97159
 C614 C 0.20387 0.47536 0.96511
 C615 C 0.17992 0.47943 0.93811
 C616 C 0.16456 0.45268 0.92661
 C617 C 0.14081 0.45575 0.90216
 C618 C 0.13182 0.48580 0.88886
 C619 C 0.14697 0.51255 0.90064
 C620 C 0.17080 0.50947 0.92493
 C621 C 0.10555 0.49026 0.86437
 C622 C 0.09563 0.46720 0.84331
 H623 H 0.20335 0.45395 0.98063
 H624 H 0.17079 0.42932 0.93677
 H625 H 0.12901 0.43463 0.89451
 H626 H 0.14012 0.53598 0.89122
 H627 H 0.18128 0.53071 0.93393
 H628 H 0.09481 0.51314 0.86241
 H629 H 0.22902 0.51819 0.95492
 H630 H 0.10956 0.44628 0.84324
 C631 C 0.51560 -0.01366 0.27465
 C632 C 0.52402 -0.03774 0.29793
 C633 C 0.55262 -0.03728 0.31946
 C634 C 0.56828 -0.00912 0.32670
 C635 C 0.59487 -0.00976 0.34773
 C636 C 0.60642 -0.03860 0.36190
 C637 C 0.59048 -0.06660 0.35493
 C638 C 0.56390 -0.06594 0.33399
 C639 C 0.63369 -0.04037 0.38545
 C640 C 0.65601 -0.01634 0.38806
 H641 H 0.50948 -0.05864 0.29940
 H642 H 0.55970 0.01356 0.31696
 H643 H 0.60562 0.01249 0.35346
 H644 H 0.59858 -0.08910 0.36582
 H645 H 0.55210 -0.08795 0.32910
 H646 H 0.63600 -0.06183 0.40068
 H647 H 0.53066 0.00662 0.27152
 H648 H 0.65441 0.00336 0.37028
 C649 C 0.76818 0.52028 0.03122
 C650 C 0.79952 0.52823 0.03194
 C651 C 0.81955 0.52984 0.06212
 C652 C 0.84848 0.54468 0.06100
 C653 C 0.86886 0.54501 0.08849
 C654 C 0.86062 0.53052 0.11789
 C655 C 0.83169 0.51570 0.11897
 C656 C 0.81140 0.51524 0.09149
 C657 C 0.88213 0.52821 0.14721
 C658 C 0.90871 0.54693 0.15150
 H659 H 0.81006 0.53341 0.00959
 H660 H 0.85557 0.55562 0.03860
 H661 H 0.89127 0.55576 0.08614
 H662 H 0.82493 0.50387 0.14110
 H663 H 0.78990 0.50249 0.09336
 H664 H 0.87632 0.51081 0.16578
 H665 H 0.75711 0.51850 0.05356
 H666 H 0.91219 0.56611 0.13380
 C667 C 0.49077 0.02389 0.72672
 C668 C 0.47660 -0.00118 0.71099
 C669 C 0.44792 0.00199 0.68973
 C670 C 0.44072 -0.02112 0.66778
 C671 C 0.41398 -0.01893 0.64709
 C672 C 0.39364 0.00632 0.64827
 C673 C 0.40067 0.02924 0.67046
 C674 C 0.42738 0.02702 0.69118
 C675 C 0.36597 0.01052 0.62564
 C676 C 0.35116 -0.01438 0.61004
 H677 H 0.48745 -0.02408 0.71375
 H678 H 0.45614 -0.04067 0.66624
 H679 H 0.40984 -0.03659 0.62972
 H680 H 0.38539 0.04893 0.67183
 H681 H 0.43154 0.04478 0.70842
 H682 H 0.35681 0.03409 0.62227
 H683 H 0.48200 0.04751 0.72138
 H684 H 0.35858 -0.03817 0.61736
   
