data_POSCAR
  _audit_creation_date              2014-09-24
  _audit_creation_method            'ToBaCCo'
  _symmetry_space_group_name_H-M    'P1'
  _symmetry_Int_Tables_number       1
  _symmetry_cell_setting            triclinic
  loop_
  _symmetry_equiv_pos_as_xyz
 x,y,z
_cell_length_a 48.3738
_cell_length_b 47.7770
_cell_length_c 48.3818
_cell_angle_alpha 89.868600
_cell_angle_beta 89.997700
_cell_angle_gamma 90.045100
loop_
  _atom_site_label
  _atom_site_type_symbol
  _atom_site_fract_x
  _atom_site_fract_y
  _atom_site_fract_z
C1 C 0.60488 0.64455 0.62506
 N2 N 0.60505 0.62465 0.64512
 C3 C 0.62503 0.60474 0.64533
 N4 N 0.64485 0.60472 0.62547
 C5 C 0.64468 0.62462 0.60541
 N6 N 0.62469 0.64454 0.60521
 C7 C 0.89596 0.35461 0.12503
 N8 N 0.89582 0.37453 0.14498
 C9 C 0.87587 0.39449 0.14508
 N10 N 0.85606 0.39452 0.12522
 C11 C 0.85619 0.37461 0.10527
 N12 N 0.87614 0.35465 0.10517
 C13 C 0.39490 0.14480 -0.12525
 N14 N 0.39477 0.12489 -0.14521
 C15 C 0.37480 0.10493 -0.14533
 N16 N 0.35496 0.10488 -0.12550
 C17 C 0.35509 0.12480 -0.10555
 N18 N 0.37506 0.14476 -0.10542
 C19 C 0.10406 0.85492 0.37431
 N20 N 0.12391 0.85492 0.39413
 C21 C 0.14384 0.87492 0.39401
 N22 N 0.14393 0.89493 0.37406
 C23 C 0.12408 0.89495 0.35423
 N24 N 0.10415 0.87494 0.35436
 N25 N 0.09292 0.16992 0.11317
 N26 N 0.08240 0.15881 0.13575
 C27 C 0.06000 0.17367 0.14336
 C28 C 0.05650 0.19507 0.12454
 C29 C 0.07762 0.19221 0.10565
 H30 H 0.04717 0.16932 0.16117
 H31 H 0.08152 0.20533 0.08783
 Cu32 Cu 0.09897 0.12601 0.15294
 Cu33 Cu 0.12560 0.15469 0.09520
 Cu34 Cu 0.15492 0.09556 0.12472
 N35 N 0.11530 0.09246 0.16889
 N36 N 0.13718 0.08065 0.15775
 C37 C 0.14419 0.05794 0.17271
 C38 C 0.12570 0.05552 0.19423
 C39 C 0.10763 0.07761 0.19134
 H40 H 0.16140 0.04423 0.16828
 H41 H 0.09027 0.08242 0.20458
 N42 N 0.16987 0.11371 0.09131
 N43 N 0.15870 0.13624 0.08006
 C44 C 0.17357 0.14362 0.05763
 C45 C 0.19495 0.12484 0.05480
 C46 C 0.19214 0.10616 0.07634
 H47 H 0.16926 0.16132 0.04435
 H48 H 0.20537 0.08847 0.08072
 H49 H 0.11975 0.11399 0.10862
 H50 H 0.14272 0.13664 0.13008
 N51 N 0.40669 0.83028 0.61226
 N52 N 0.41750 0.84169 0.63450
 C53 C 0.43995 0.82687 0.64213
 C54 C 0.44318 0.80520 0.62367
 C55 C 0.42185 0.80785 0.60498
 H56 H 0.45298 0.83142 0.65972
 H57 H 0.41771 0.79448 0.58745
 Cu58 Cu 0.40113 0.87476 0.65120
 Cu59 Cu 0.37380 0.84531 0.59439
 Cu60 Cu 0.34429 0.90429 0.62386
 N61 N 0.38441 0.90784 0.66755
 N62 N 0.36216 0.91928 0.65673
 C63 C 0.35488 0.94172 0.67187
 C64 C 0.37358 0.94432 0.69319
 C65 C 0.39205 0.92263 0.68998
 H66 H 0.33735 0.95511 0.66771
 H67 H 0.40964 0.91805 0.70301
 N68 N 0.32926 0.88605 0.59059
 N69 N 0.34050 0.86359 0.57937
 C70 C 0.32558 0.85616 0.55703
 C71 C 0.30410 0.87484 0.55422
 C72 C 0.30690 0.89350 0.57568
 H73 H 0.32995 0.83852 0.54376
 H74 H 0.29362 0.91114 0.58004
 H75 H 0.37929 0.88619 0.60717
 H76 H 0.35710 0.86340 0.62938
 N77 N 0.90781 0.66918 0.38746
 N78 N 0.91895 0.65747 0.36555
 C79 C 0.94136 0.67236 0.35788
 C80 C 0.94424 0.69438 0.37599
 C81 C 0.92274 0.69188 0.39450
 H82 H 0.95460 0.66762 0.34050
 H83 H 0.91831 0.70552 0.41175
 Cu84 Cu 0.90306 0.62395 0.34919
 Cu85 Cu 0.87484 0.65419 0.40521
 Cu86 Cu 0.84543 0.59511 0.37585
 N87 N 0.88596 0.59116 0.33261
 N88 N 0.86343 0.57998 0.34314
 C89 C 0.85598 0.55771 0.32784
 C90 C 0.87486 0.55492 0.30672
 C91 C 0.89361 0.57635 0.31020
 H92 H 0.83821 0.54453 0.33177
 H93 H 0.91140 0.58075 0.29737
 N94 N 0.83027 0.61345 0.40897
 N95 N 0.84148 0.63596 0.42017
 C96 C 0.82650 0.64342 0.44245
 C97 C 0.80500 0.62472 0.44524
 C98 C 0.80786 0.60601 0.42384
 H99 H 0.83085 0.66108 0.45570
 H100 H 0.79461 0.58832 0.41951
 H101 H 0.88029 0.61315 0.39295
 H102 H 0.85873 0.63584 0.37005
 N103 N 0.59277 0.33112 -0.11236
 N104 N 0.58164 0.34293 -0.13429
 C105 C 0.55918 0.32812 -0.14190
 C106 C 0.55626 0.30605 -0.12375
 C107 C 0.57779 0.30844 -0.10526
 H108 H 0.54595 0.33294 -0.15928
 H109 H 0.58221 0.29473 -0.08800
 Cu110 Cu 0.59762 0.37643 -0.15073
 Cu111 Cu 0.62581 0.34596 -0.09469
 Cu112 Cu 0.65536 0.40503 -0.12421
 N113 N 0.61480 0.40920 -0.16742
 N114 N 0.63738 0.42028 -0.15693
 C115 C 0.64489 0.44256 -0.17231
 C116 C 0.62600 0.44545 -0.19342
 C117 C 0.60718 0.42407 -0.18986
 H118 H 0.66271 0.45567 -0.16844
 H119 H 0.58937 0.41974 -0.20267
 N120 N 0.67051 0.38657 -0.09106
 N121 N 0.65925 0.36406 -0.07981
 C122 C 0.67423 0.35649 -0.05753
 C123 C 0.69578 0.37512 -0.05480
 C124 C 0.69295 0.39390 -0.07623
 H125 H 0.66985 0.33881 -0.04425
 H126 H 0.70625 0.41156 -0.08062
 H127 H 0.62047 0.38705 -0.10703
 H128 H 0.64194 0.36435 -0.12991
 C129 C -0.08408 0.33465 0.12494
 C130 C -0.06634 0.31694 0.12488
 C131 C -0.04515 0.29581 0.12482
 C132 C -0.03491 0.28528 0.14985
 C133 C -0.01428 0.26478 0.14980
 C134 C -0.00382 0.25472 0.12471
 C135 C -0.01407 0.26524 0.09968
 C136 C -0.03470 0.28575 0.09973
 C137 C 0.01743 0.23366 0.12465
 C138 C 0.03525 0.21604 0.12460
 H139 H -0.04284 0.29292 0.16937
 H140 H -0.00650 0.25679 0.16927
 H141 H -0.00613 0.25762 0.08016
 H142 H -0.04247 0.29375 0.08025
 C143 C 0.58375 0.66561 0.62485
 C144 C 0.56599 0.68330 0.62469
 C145 C 0.54478 0.70441 0.62451
 C146 C 0.54020 0.72080 0.64804
 C147 C 0.51957 0.74130 0.64788
 C148 C 0.50343 0.74548 0.62417
 C149 C 0.50802 0.72909 0.60064
 C150 C 0.52865 0.70860 0.60081
 C151 C 0.48219 0.76655 0.62401
 C152 C 0.46439 0.78420 0.62386
 H153 H 0.55255 0.71773 0.66648
 H154 H 0.51620 0.75385 0.66619
 H155 H 0.49566 0.73215 0.58220
 H156 H 0.53201 0.69603 0.58250
 C157 C 1.08412 0.83491 0.37445
 C158 C 1.06641 0.81713 0.37459
 C159 C 1.04529 0.79591 0.37480
 C160 C 1.03818 0.78249 0.39958
 C161 C 1.01765 0.76186 0.39979
 C162 C 1.00415 0.75456 0.37522
 C163 C 1.01126 0.76797 0.35043
 C164 C 1.03179 0.78860 0.35022
 C165 C 0.98302 0.73333 0.37545
 C166 C 0.96532 0.71556 0.37568
 H167 H 1.04849 0.78797 0.41870
 H168 H 1.01231 0.75162 0.41907
 H169 H 1.00096 0.76248 0.33131
 H170 H 1.03713 0.79884 0.33094
 C171 C 0.41602 0.16591 -0.12512
 C172 C 0.43376 0.18364 -0.12499
 C173 C 0.45494 0.20481 -0.12483
 C174 C 0.48150 0.19862 -0.13460
 C175 C 0.50208 0.21919 -0.13441
 C176 C 0.49620 0.24604 -0.12445
 C177 C 0.46963 0.25224 -0.11468
 C178 C 0.44905 0.23167 -0.11487
 C179 C 0.51738 0.26720 -0.12422
 C180 C 0.53513 0.28493 -0.12401
 H181 H 0.48628 0.17792 -0.14235
 H182 H 0.52255 0.21417 -0.14201
 H183 H 0.46486 0.27294 -0.10693
 H184 H 0.42858 0.23669 -0.10726
 C185 C 0.12418 -0.08503 0.33427
 C186 C 0.12428 -0.06725 0.31655
 C187 C 0.12443 -0.04602 0.29540
 C188 C 0.12220 -0.01773 0.30261
 C189 C 0.12240 0.00291 0.28206
 C190 C 0.12483 -0.00467 0.25421
 C191 C 0.12704 -0.03296 0.24699
 C192 C 0.12684 -0.05360 0.26754
 C193 C 0.12510 0.01656 0.23306
 C194 C 0.12536 0.03434 0.21534
 H195 H 0.12033 -0.01164 0.32409
 H196 H 0.12068 0.02472 0.28787
 H197 H 0.12894 -0.03905 0.22551
 H198 H 0.12858 -0.07541 0.26173
 C199 C 0.62520 0.58483 -0.33459
 C200 C 0.62534 0.56718 -0.31675
 C201 C 0.62549 0.54611 -0.29544
 C202 C 0.62518 0.55398 -0.26756
 C203 C 0.62530 0.53351 -0.24684
 C204 C 0.62573 0.50510 -0.25392
 C205 C 0.62604 0.49723 -0.28180
 C206 C 0.62592 0.51770 -0.30252
 C207 C 0.62583 0.48404 -0.23260
 C208 C 0.62591 0.46642 -0.21473
 H209 H 0.62485 0.57589 -0.26186
 H210 H 0.62506 0.53983 -0.22535
 H211 H 0.62637 0.47531 -0.28750
 H212 H 0.62616 0.51138 -0.32401
 C213 C 0.37465 1.08388 0.83356
 C214 C 0.37453 1.06620 0.81582
 C215 C 0.37439 1.04512 0.79463
 C216 C 0.37481 1.01670 0.80186
 C217 C 0.37467 0.99621 0.78126
 C218 C 0.37409 1.00405 0.75334
 C219 C 0.37367 1.03246 0.74611
 C220 C 0.37382 1.05295 0.76671
 C221 C 0.37393 0.98297 0.73214
 C222 C 0.37377 0.96533 0.71437
 H223 H 0.37525 1.01041 0.82339
 H224 H 0.37500 0.97431 0.78708
 H225 H 0.37323 1.03875 0.72458
 H226 H 0.37349 1.07486 0.76089
 C227 C 0.87572 0.41553 0.16618
 C228 C 0.87560 0.43320 0.18393
 C229 C 0.87547 0.45427 0.20514
 C230 C 0.87778 0.44650 0.23299
 C231 C 0.87766 0.46697 0.25360
 C232 C 0.87523 0.49530 0.24646
 C233 C 0.87292 0.50308 0.21862
 C234 C 0.87304 0.48260 0.19800
 C235 C 0.87511 0.51635 0.26769
 C236 C 0.87500 0.53397 0.28548
 H237 H 0.87967 0.42465 0.23874
 H238 H 0.87945 0.46073 0.27507
 H239 H 0.87104 0.52492 0.21287
 H240 H 0.87125 0.48884 0.17653
 C241 C 0.33411 0.12476 -0.08458
 C242 C 0.31650 0.12474 -0.06695
 C243 C 0.29548 0.12473 -0.04590
 C244 C 0.27290 0.10646 -0.04787
 C245 C 0.25247 0.10647 -0.02741
 C246 C 0.25453 0.12475 -0.00490
 C247 C 0.27712 0.14302 -0.00293
 C248 C 0.29755 0.14301 -0.02339
 C249 C 0.23351 0.12477 0.01615
 C250 C 0.21591 0.12479 0.03378
 H251 H 0.27109 0.09224 -0.06519
 H252 H 0.23509 0.09226 -0.02914
 H253 H 0.27892 0.15724 0.01439
 H254 H 0.31492 0.15723 -0.02166
 C255 C 0.66564 0.62462 0.58443
 C256 C 0.68326 0.62462 0.56681
 C257 C 0.70431 0.62464 0.54578
 C258 C 0.69701 0.62790 0.51793
 C259 C 0.71746 0.62791 0.49750
 C260 C 0.74530 0.62467 0.50483
 C261 C 0.75260 0.62141 0.53268
 C262 C 0.73215 0.62139 0.55311
 C263 C 0.76635 0.62468 0.48380
 C264 C 0.78398 0.62469 0.46620
 H265 H 0.67555 0.63042 0.51204
 H266 H 0.71159 0.63044 0.47603
 H267 H 0.77406 0.61888 0.53857
 H268 H 0.73802 0.61886 0.57458
 C269 C 0.83523 0.37464 0.08428
 C270 C 0.81761 0.37468 0.06666
 C271 C 0.79657 0.37473 0.04563
 C272 C 0.79810 0.39373 0.02359
 C273 C 0.77763 0.39380 0.00317
 C274 C 0.75555 0.37486 0.00471
 C275 C 0.75403 0.35585 0.02675
 C276 C 0.77449 0.35578 0.04717
 C277 C 0.73448 0.37494 -0.01629
 C278 C 0.71683 0.37502 -0.03387
 H279 H 0.81508 0.40847 0.02220
 H280 H 0.77901 0.40859 -0.01379
 H281 H 0.73704 0.34112 0.02815
 H282 H 0.77311 0.34100 0.06413
 C283 C 0.16483 0.87490 0.41496
 C284 C 0.18246 0.87489 0.43258
 C285 C 0.20349 0.87489 0.45361
 C286 C 0.21875 0.85055 0.45891
 C287 C 0.23919 0.85053 0.47935
 C288 C 0.24445 0.87486 0.49460
 C289 C 0.22919 0.89921 0.48930
 C290 C 0.20875 0.89922 0.46885
 C291 C 0.26548 0.87485 0.51563
 C292 C 0.28310 0.87484 0.53325
 H293 H 0.21485 0.83162 0.44725
 H294 H 0.25087 0.83159 0.48328
 H295 H 0.23309 0.91814 0.50097
 H296 H 0.19707 0.91816 0.46493
   
