data_POSCAR
  _audit_creation_date              2014-09-24
  _audit_creation_method            'ToBaCCo'
  _symmetry_space_group_name_H-M    'P1'
  _symmetry_Int_Tables_number       1
  _symmetry_cell_setting            triclinic
  loop_
  _symmetry_equiv_pos_as_xyz
 x,y,z
_cell_length_a 39.3650
_cell_length_b 39.3720
_cell_length_c 39.3730
_cell_angle_alpha 89.964400
_cell_angle_beta 90.024300
_cell_angle_gamma 90.042300
loop_
  _atom_site_label
  _atom_site_type_symbol
  _atom_site_fract_x
  _atom_site_fract_y
  _atom_site_fract_z
C1 C 0.27414 0.25046 0.22551
 N2 N 0.27386 0.22607 0.24993
 C3 C 0.24951 0.22580 0.27437
 N4 N 0.22523 0.25032 0.27421
 C5 C 0.22512 0.27491 0.24997
 N6 N 0.24967 0.27478 0.22572
 C7 C 0.72510 -0.25059 0.22488
 N8 N 0.72536 -0.22632 0.24945
 C9 C 0.74978 -0.22603 0.27384
 N10 N 0.77419 -0.25039 0.27352
 C11 C 0.77445 -0.27492 0.24924
 N12 N 0.74978 -0.27475 0.22505
 C13 C 0.72602 0.25031 0.77414
 N14 N 0.72634 0.22591 0.74977
 C15 C 0.75072 0.22571 0.72535
 N16 N 0.77496 0.25030 0.72551
 C17 C 0.77508 0.27496 0.74968
 N18 N 0.75044 0.27470 0.77389
 C19 C 0.27538 -0.25036 0.77557
 N20 N 0.27526 -0.22616 0.75089
 C21 C 0.25090 -0.22589 0.72642
 N22 N 0.22643 -0.25021 0.72676
 C23 C 0.22608 -0.27461 0.75117
 N24 N 0.25062 -0.27448 0.77544
 C25 C 0.72494 -0.25056 0.77559
 N26 N 0.72519 -0.22630 0.75097
 C27 C 0.74953 -0.22607 0.72652
 N28 N 0.77388 -0.25050 0.72682
 C29 C 0.77417 -0.27503 0.75115
 N30 N 0.74957 -0.27478 0.77540
 C31 C 0.27408 0.25024 0.77416
 N32 N 0.27387 0.22593 0.74969
 C33 C 0.24954 0.22569 0.72519
 N34 N 0.22521 0.25015 0.72537
 C35 C 0.22502 0.27467 0.74966
 N36 N 0.24955 0.27451 0.77395
 C37 C 0.27498 -0.25083 0.22463
 N38 N 0.27481 -0.22660 0.24923
 C39 C 0.25043 -0.22630 0.27364
 N40 N 0.22595 -0.25063 0.27330
 C41 C 0.22558 -0.27514 0.24898
 N42 N 0.25023 -0.27497 0.22477
 C43 C 0.72650 0.25077 0.22573
 N44 N 0.72684 0.22636 0.25013
 C45 C 0.75121 0.22614 0.27457
 N46 N 0.77546 0.25073 0.27441
 C47 C 0.77558 0.27542 0.25021
 N48 N 0.75093 0.27516 0.22598
 O49 O 0.27805 0.03255 0.46669
 O50 O 0.27844 -0.03353 0.53287
 O51 O 0.27833 -0.03360 0.46673
 O52 O 0.27809 0.03261 0.53277
 O53 O 0.22207 0.03230 0.53282
 O54 O 0.22230 -0.03385 0.46675
 O55 O 0.22241 -0.03379 0.53293
 O56 O 0.22202 0.03225 0.46671
 Cu57 Cu 0.28384 -0.00048 0.49976
 Cu58 Cu 0.21659 -0.00082 0.49980
 C59 C 0.24997 0.04375 0.45538
 C60 C 0.25049 -0.04496 0.54427
 C61 C 0.25035 -0.04506 0.45541
 C62 C 0.25004 0.04381 0.54410
 O63 O 0.72260 0.03265 0.53296
 O64 O 0.72234 -0.03345 0.46688
 O65 O 0.72228 -0.03349 0.53301
 O66 O 0.72270 0.03271 0.46689
 O67 O 0.77872 0.03248 0.46696
 O68 O 0.77830 -0.03369 0.53312
 O69 O 0.77837 -0.03364 0.46693
 O70 O 0.77862 0.03241 0.53308
 Cu71 Cu 0.71686 -0.00038 0.49992
 Cu72 Cu 0.78412 -0.00065 0.50003
 C73 C 0.75065 0.04387 0.54434
 C74 C 0.75031 -0.04486 0.45556
 C75 C 0.75022 -0.04491 0.54443
 C76 C 0.75077 0.04396 0.45561
 O77 O 0.46723 0.27857 0.03301
 O78 O 0.53326 0.27850 -0.03315
 O79 O 0.46717 0.27851 -0.03312
 O80 O 0.53335 0.27860 0.03300
 O81 O 0.53334 0.22258 0.03307
 O82 O 0.46712 0.22249 -0.03300
 O83 O 0.53326 0.22248 -0.03302
 O84 O 0.46718 0.22255 0.03308
 Cu85 Cu 0.50026 0.28416 -0.00007
 Cu86 Cu 0.50022 0.21691 0.00005
 C87 C 0.45587 0.25057 0.04437
 C88 C 0.54458 0.25048 -0.04443
 C89 C 0.45579 0.25049 -0.04439
 C90 C 0.54469 0.25061 0.04437
 O91 O 0.53317 0.72118 0.03341
 O92 O 0.46710 0.72124 -0.03283
 O93 O 0.53322 0.72123 -0.03277
 O94 O 0.46705 0.72114 0.03334
 O95 O 0.46705 0.77715 0.03333
 O96 O 0.53328 0.77725 -0.03272
 O97 O 0.46711 0.77726 -0.03276
 O98 O 0.53323 0.77720 0.03338
 Cu99 Cu 0.50014 0.71559 0.00029
 Cu100 Cu 0.50017 0.78282 0.00031
 C101 C 0.54453 0.74919 0.04474
 C102 C 0.45578 0.74926 -0.04414
 C103 C 0.54459 0.74925 -0.04408
 C104 C 0.45569 0.74913 0.04465
 O105 O 0.03272 0.46807 0.27758
 O106 O -0.03338 0.53416 0.27737
 O107 O -0.03340 0.46806 0.27764
 O108 O 0.03283 0.53416 0.27731
 O109 O 0.03271 0.53405 0.22129
 O110 O -0.03342 0.46783 0.22163
 O111 O -0.03343 0.53401 0.22135
 O112 O 0.03266 0.46791 0.22157
 Cu113 Cu -0.00030 0.50115 0.28309
 Cu114 Cu -0.00038 0.50095 0.21585
 C115 C 0.04401 0.45665 0.24961
 C116 C -0.04475 0.54540 0.24933
 C117 C -0.04473 0.45658 0.24969
 C118 C 0.04415 0.54542 0.24925
 O119 O 0.03215 0.53367 0.72272
 O120 O -0.03402 0.46756 0.72233
 O121 O -0.03405 0.53365 0.72270
 O122 O 0.03211 0.46758 0.72234
 O123 O 0.03212 0.46724 0.77836
 O124 O -0.03399 0.53338 0.77871
 O125 O -0.03396 0.46720 0.77834
 O126 O 0.03215 0.53337 0.77873
 Cu127 Cu -0.00096 0.50067 0.71691
 Cu128 Cu -0.00093 0.50028 0.78415
 C129 C 0.04352 0.54483 0.75078
 C130 C -0.04530 0.45601 0.75027
 C131 C -0.04537 0.54484 0.75076
 C132 C 0.04344 0.45607 0.75029
 C133 C 0.35172 0.25059 0.14826
 C134 C 0.35213 0.22627 0.17439
 C135 C 0.32698 0.22621 0.19942
 C136 C 0.30083 0.25052 0.19894
 C137 C 0.30045 0.27488 0.17281
 C138 C 0.32559 0.27490 0.14776
 C139 C 0.37843 0.25060 0.12162
 C140 C 0.39220 0.28131 0.10968
 C141 C 0.41732 0.28131 0.08461
 C142 C 0.42927 0.25059 0.07094
 C143 C 0.41551 0.21987 0.08289
 C144 C 0.39037 0.21988 0.10793
 H145 H 0.32816 0.20716 0.21923
 H146 H 0.28065 0.29391 0.17155
 H147 H 0.42747 0.30540 0.07604
 H148 H 0.42406 0.19577 0.07280
 H149 H 0.32431 0.29368 0.12770
 H150 H 0.38388 0.30537 0.12004
 H151 H 0.37218 0.20750 0.17576
 H152 H 0.37994 0.19583 0.11626
 C153 C 0.64866 0.74921 0.14883
 C154 C 0.64866 0.77396 0.17451
 C155 C 0.67382 0.77406 0.19956
 C156 C 0.69970 0.74932 0.19965
 C157 C 0.69953 0.72451 0.17385
 C158 C 0.67438 0.72450 0.14880
 C159 C 0.62194 0.74920 0.12215
 C160 C 0.60780 0.71851 0.11058
 C161 C 0.58271 0.71850 0.08546
 C162 C 0.57113 0.74918 0.07135
 C163 C 0.58523 0.77988 0.08293
 C164 C 0.61036 0.77988 0.10801
 H165 H 0.67277 0.79358 0.21890
 H166 H 0.71892 0.70503 0.17275
 H167 H 0.57228 0.69442 0.07720
 H168 H 0.57698 0.80395 0.07249
 H169 H 0.67536 0.70537 0.12908
 H170 H 0.61581 0.69448 0.12129
 H171 H 0.62891 0.79306 0.17552
 H172 H 0.62108 0.80391 0.11601
 C173 C 0.64851 0.25038 -0.14854
 C174 C 0.64808 0.22601 -0.17461
 C175 C 0.67320 0.22597 -0.19967
 C176 C 0.69934 0.25033 -0.19928
 C177 C 0.69974 0.27472 -0.17320
 C178 C 0.67463 0.27472 -0.14813
 C179 C 0.62183 0.25040 -0.12187
 C180 C 0.60810 0.28112 -0.11000
 C181 C 0.58305 0.28115 -0.08486
 C182 C 0.57113 0.25045 -0.07105
 C183 C 0.58483 0.21972 -0.08294
 C184 C 0.60990 0.21970 -0.10805
 H185 H 0.67201 0.20689 -0.21943
 H186 H 0.71954 0.29378 -0.17200
 H187 H 0.57293 0.30526 -0.07635
 H188 H 0.57628 0.19564 -0.07275
 H189 H 0.67594 0.29353 -0.12812
 H190 H 0.61641 0.30517 -0.12047
 H191 H 0.62804 0.20721 -0.17590
 H192 H 0.62030 0.19564 -0.11633
 C193 C 0.35170 0.74944 -0.14826
 C194 C 0.35181 0.77415 -0.17401
 C195 C 0.32668 0.77426 -0.19909
 C196 C 0.30072 0.74957 -0.19915
 C197 C 0.30076 0.72480 -0.17327
 C198 C 0.32589 0.72479 -0.14819
 C199 C 0.37840 0.74939 -0.12157
 C200 C 0.39244 0.71868 -0.10996
 C201 C 0.41752 0.71863 -0.08482
 C202 C 0.42919 0.74930 -0.07076
 C203 C 0.41519 0.78001 -0.08238
 C204 C 0.39007 0.78005 -0.10748
 H205 H 0.32783 0.79375 -0.21849
 H206 H 0.28131 0.70537 -0.17214
 H207 H 0.42787 0.69454 -0.07653
 H208 H 0.42352 0.80408 -0.07198
 H209 H 0.32483 0.70569 -0.12842
 H210 H 0.38435 0.69466 -0.12064
 H211 H 0.37163 0.79321 -0.17505
 H212 H 0.37944 0.80410 -0.11552
 C213 C 0.14783 0.35244 0.24990
 C214 C 0.17400 0.35289 0.22564
 C215 C 0.19904 0.32776 0.22566
 C216 C 0.19853 0.30158 0.24997
 C217 C 0.17235 0.30116 0.27425
 C218 C 0.14729 0.32628 0.27420
 C219 C 0.12119 0.37915 0.24983
 C220 C 0.10922 0.39290 0.28051
 C221 C 0.08418 0.41804 0.28044
 C222 C 0.07055 0.43002 0.24969
 C223 C 0.08251 0.41627 0.21901
 C224 C 0.10754 0.39112 0.21908
 H225 H 0.21888 0.32898 0.20665
 H226 H 0.17107 0.28133 0.29327
 H227 H 0.07560 0.42817 0.30452
 H228 H 0.07245 0.42485 0.19488
 H229 H 0.12721 0.32497 0.29294
 H230 H 0.11956 0.38455 0.30459
 H231 H 0.17539 0.37296 0.20688
 H232 H 0.11588 0.38070 0.19505
 C233 C 0.14810 0.64843 0.75124
 C234 C 0.14778 0.67462 0.72698
 C235 C 0.17304 0.69956 0.72697
 C236 C 0.19924 0.69894 0.75125
 C237 C 0.19952 0.67276 0.77557
 C238 C 0.17426 0.64780 0.77554
 C239 C 0.12129 0.62186 0.75115
 C240 C 0.10749 0.60983 0.78180
 C241 C 0.08225 0.58485 0.78169
 C242 C 0.07022 0.57134 0.75092
 C243 C 0.08401 0.58336 0.72026
 C244 C 0.10926 0.60832 0.72038
 H245 H 0.17192 0.71940 0.70794
 H246 H 0.21936 0.67141 0.79458
 H247 H 0.07209 0.57621 0.80575
 H248 H 0.07540 0.57339 0.69611
 H249 H 0.17548 0.62770 0.79429
 H250 H 0.11588 0.62008 0.80591
 H251 H 0.12771 0.67610 0.70822
 H252 H 0.11971 0.61670 0.69635
 C253 C -0.14905 0.64917 0.24912
 C254 C -0.17477 0.64909 0.22438
 C255 C -0.19995 0.67409 0.22435
 C256 C -0.20013 0.69990 0.24916
 C257 C -0.17426 0.69985 0.27393
 C258 C -0.14908 0.67486 0.27386
 C259 C -0.12231 0.62255 0.24916
 C260 C -0.11072 0.60848 0.27986
 C261 C -0.08553 0.58349 0.27992
 C262 C -0.07139 0.57193 0.24926
 C263 C -0.08300 0.58596 0.21855
 C264 C -0.10814 0.61101 0.21850
 H265 H -0.21934 0.67296 0.20485
 H266 H -0.17321 0.71920 0.29345
 H267 H -0.07726 0.57310 0.30402
 H268 H -0.07255 0.57771 0.19449
 H269 H -0.12933 0.67592 0.29298
 H270 H -0.12145 0.61646 0.30388
 H271 H -0.17573 0.62937 0.20525
 H272 H -0.11617 0.62167 0.19445
 C273 C -0.14897 0.35150 0.74978
 C274 C -0.17472 0.35141 0.77446
 C275 C -0.19973 0.32622 0.77446
 C276 C -0.19971 0.30038 0.74968
 C277 C -0.17384 0.30062 0.72493
 C278 C -0.14883 0.32583 0.72503
 C279 C -0.12237 0.37829 0.74989
 C280 C -0.10832 0.38980 0.78063
 C281 C -0.08336 0.41505 0.78076
 C282 C -0.07181 0.42932 0.75014
 C283 C -0.08581 0.41779 0.71938
 C284 C -0.11082 0.39258 0.71927
 H285 H -0.21913 0.32721 0.79393
 H286 H -0.17267 0.28126 0.70543
 H287 H -0.07299 0.42326 0.80488
 H288 H -0.07756 0.42834 0.69536
 H289 H -0.12905 0.32493 0.70594
 H290 H -0.11632 0.37897 0.80461
 H291 H -0.17583 0.37113 0.79358
 H292 H -0.12146 0.38460 0.69519
 C293 C 0.24952 0.14808 0.35156
 C294 C 0.27381 0.14774 0.32542
 C295 C 0.27380 0.17293 0.30041
 C296 C 0.24947 0.19905 0.30092
 C297 C 0.22513 0.19935 0.32705
 C298 C 0.22517 0.17416 0.35208
 C299 C 0.24961 0.12134 0.37819
 C300 C 0.21895 0.10747 0.39015
 C301 C 0.21906 0.08230 0.41519
 C302 C 0.24984 0.07040 0.42883
 C303 C 0.28050 0.08425 0.41687
 C304 C 0.28039 0.10944 0.39185
 H305 H 0.29285 0.17180 0.28061
 H306 H 0.20608 0.21913 0.32832
 H307 H 0.19500 0.07207 0.42377
 H308 H 0.30465 0.07575 0.42693
 H309 H 0.20640 0.17539 0.37214
 H310 H 0.19485 0.11576 0.37981
 H311 H 0.29260 0.12772 0.32404
 H312 H 0.30441 0.11995 0.38352
 C313 C 0.75088 0.14805 0.64819
 C314 C 0.77521 0.17419 0.64771
 C315 C 0.77519 0.19935 0.67273
 C316 C 0.75082 0.19897 0.69883
 C317 C 0.72650 0.17279 0.69931
 C318 C 0.72655 0.14763 0.67430
 C319 C 0.75084 0.12134 0.62155
 C320 C 0.72010 0.10941 0.60784
 C321 C 0.72003 0.08426 0.58281
 C322 C 0.75072 0.07049 0.57089
 C323 C 0.78148 0.08243 0.58458
 C324 C 0.78153 0.10756 0.60963
 H325 H 0.79423 0.21918 0.67148
 H326 H 0.70743 0.17160 0.71908
 H327 H 0.69591 0.07571 0.57271
 H328 H 0.80556 0.07228 0.57603
 H329 H 0.70777 0.12757 0.67566
 H330 H 0.69605 0.11984 0.61614
 H331 H 0.79400 0.17548 0.62767
 H332 H 0.80561 0.11589 0.62001
 C333 C 0.25096 -0.14870 0.64869
 C334 C 0.22665 -0.17484 0.64834
 C335 C 0.22664 -0.19986 0.67353
 C336 C 0.25099 -0.19936 0.69967
 C337 C 0.27536 -0.17322 0.69998
 C338 C 0.27533 -0.14819 0.67479
 C339 C 0.25087 -0.12206 0.62195
 C340 C 0.28153 -0.11006 0.60812
 C341 C 0.28141 -0.08504 0.58293
 C342 C 0.25063 -0.07147 0.57096
 C343 C 0.21997 -0.08346 0.58479
 C344 C 0.22009 -0.10845 0.61001
 H345 H 0.20757 -0.21966 0.67238
 H346 H 0.29442 -0.17196 0.71977
 H347 H 0.30547 -0.07643 0.57273
 H348 H 0.19582 -0.07345 0.57624
 H349 H 0.29412 -0.12813 0.67603
 H350 H 0.30563 -0.12035 0.61645
 H351 H 0.20784 -0.17623 0.62831
 H352 H 0.19607 -0.11681 0.62049
 C353 C 0.74993 -0.14870 0.35135
 C354 C 0.72556 -0.14822 0.32525
 C355 C 0.72548 -0.17329 0.30013
 C356 C 0.74981 -0.19943 0.30050
 C357 C 0.77419 -0.19988 0.32662
 C358 C 0.77423 -0.17483 0.35174
 C359 C 0.75002 -0.12205 0.37805
 C360 C 0.78079 -0.10840 0.39001
 C361 C 0.78088 -0.08338 0.41517
 C362 C 0.75021 -0.07140 0.42893
 C363 C 0.71944 -0.08501 0.41695
 C364 C 0.71935 -0.11007 0.39182
 H365 H 0.70641 -0.17205 0.28035
 H366 H 0.79322 -0.21969 0.32780
 H367 H 0.80502 -0.07333 0.42374
 H368 H 0.69537 -0.07643 0.42710
 H369 H 0.79304 -0.17619 0.37177
 H370 H 0.80482 -0.11675 0.37959
 H371 H 0.70680 -0.12816 0.32397
 H372 H 0.69525 -0.12039 0.38349
 C373 C 0.64867 0.74936 -0.14820
 C374 C 0.67436 0.72462 -0.14819
 C375 C 0.69946 0.72459 -0.17329
 C376 C 0.69961 0.74941 -0.19912
 C377 C 0.67378 0.77421 -0.19899
 C378 C 0.64868 0.77413 -0.17389
 C379 C 0.62197 0.74934 -0.12150
 C380 C 0.61039 0.78001 -0.10738
 C381 C 0.58528 0.77998 -0.08229
 C382 C 0.57119 0.74928 -0.07068
 C383 C 0.58278 0.71861 -0.08476
 C384 C 0.60786 0.71864 -0.10989
 H385 H 0.71882 0.70508 -0.17221
 H386 H 0.67272 0.79374 -0.21834
 H387 H 0.57701 0.80405 -0.07188
 H388 H 0.57237 0.69452 -0.07649
 H389 H 0.62896 0.79327 -0.17489
 H390 H 0.62108 0.80405 -0.11540
 H391 H 0.67535 0.70547 -0.12847
 H392 H 0.61586 0.69462 -0.12058
 C393 C 0.35161 0.25036 -0.14841
 C394 C 0.32547 0.27465 -0.14799
 C395 C 0.30035 0.27463 -0.17309
 C396 C 0.30075 0.25029 -0.19921
 C397 C 0.32691 0.22598 -0.19961
 C398 C 0.35204 0.22603 -0.17452
 C399 C 0.37832 0.25039 -0.12174
 C400 C 0.39032 0.21969 -0.10800
 C401 C 0.41546 0.21972 -0.08292
 C402 C 0.42916 0.25045 -0.07098
 C403 C 0.41716 0.28115 -0.08469
 C404 C 0.39204 0.28112 -0.10979
 H405 H 0.28054 0.29365 -0.17188
 H406 H 0.32811 0.20693 -0.21939
 H407 H 0.42406 0.19563 -0.07281
 H408 H 0.42726 0.30527 -0.07613
 H409 H 0.37209 0.20727 -0.17583
 H410 H 0.37995 0.19562 -0.11632
 H411 H 0.32416 0.29343 -0.12796
 H412 H 0.38368 0.30517 -0.12018
 C413 C 0.35140 0.74904 0.14856
 C414 C 0.32562 0.72434 0.14850
 C415 C 0.30047 0.72432 0.17354
 C416 C 0.30036 0.74910 0.19939
 C417 C 0.32629 0.77383 0.19933
 C418 C 0.35144 0.77375 0.17428
 C419 C 0.37813 0.74905 0.12190
 C420 C 0.38982 0.77975 0.10786
 C421 C 0.41499 0.77978 0.08283
 C422 C 0.42904 0.74910 0.07121
 C423 C 0.41734 0.71839 0.08521
 C424 C 0.39220 0.71838 0.11028
 H425 H 0.28104 0.70486 0.17242
 H426 H 0.32740 0.79332 0.21870
 H427 H 0.42334 0.80387 0.07248
 H428 H 0.42771 0.69432 0.07691
 H429 H 0.37123 0.79283 0.17534
 H430 H 0.37917 0.80378 0.11589
 H431 H 0.32460 0.70524 0.12875
 H432 H 0.38411 0.69433 0.12091
 C433 C 0.64890 0.25075 0.14838
 C434 C 0.67500 0.27512 0.14794
 C435 C 0.70014 0.27516 0.17301
 C436 C 0.69980 0.25078 0.19914
 C437 C 0.67368 0.22639 0.19956
 C438 C 0.64853 0.22640 0.17449
 C439 C 0.62217 0.25071 0.12171
 C440 C 0.61020 0.21999 0.10801
 C441 C 0.58506 0.21995 0.08294
 C442 C 0.57132 0.25065 0.07095
 C443 C 0.58330 0.28138 0.08462
 C444 C 0.60842 0.28141 0.10972
 H445 H 0.71992 0.29424 0.17180
 H446 H 0.67252 0.20732 0.21935
 H447 H 0.57648 0.19584 0.07286
 H448 H 0.57317 0.30546 0.07604
 H449 H 0.62850 0.20757 0.17582
 H450 H 0.62061 0.19594 0.11636
 H451 H 0.67627 0.29393 0.12790
 H452 H 0.61676 0.30548 0.12008
 C453 C -0.14952 0.64884 0.75117
 C454 C -0.14957 0.67453 0.72640
 C455 C -0.17468 0.69960 0.72636
 C456 C -0.20048 0.69972 0.75120
 C457 C -0.20027 0.67391 0.77604
 C458 C -0.17516 0.64883 0.77598
 C459 C -0.12284 0.62213 0.75109
 C460 C -0.10863 0.61049 0.78172
 C461 C -0.08353 0.58539 0.78162
 C462 C -0.07200 0.57140 0.75089
 C463 C -0.08618 0.58304 0.72025
 C464 C -0.11133 0.60809 0.72036
 H465 H -0.17365 0.71894 0.70682
 H466 H -0.21960 0.67283 0.79559
 H467 H -0.07304 0.57708 0.80566
 H468 H -0.07797 0.57269 0.69614
 H469 H -0.17611 0.62911 0.79513
 H470 H -0.11659 0.62112 0.80579
 H471 H -0.12988 0.67555 0.70723
 H472 H -0.12209 0.61613 0.69636
 C473 C -0.14845 0.35200 0.25012
 C474 C -0.17420 0.35191 0.22542
 C475 C -0.19921 0.32670 0.22541
 C476 C -0.19920 0.30084 0.25021
 C477 C -0.17332 0.30109 0.27498
 C478 C -0.14831 0.32630 0.27489
 C479 C -0.12183 0.37881 0.25003
 C480 C -0.11022 0.39303 0.28066
 C481 C -0.08521 0.41824 0.28055
 C482 C -0.07126 0.42987 0.24981
 C483 C -0.08287 0.41568 0.21918
 C484 C -0.10784 0.39042 0.21929
 H485 H -0.21861 0.32770 0.20592
 H486 H -0.17215 0.28172 0.29450
 H487 H -0.07691 0.42873 0.30459
 H488 H -0.07255 0.42396 0.19506
 H489 H -0.12854 0.32539 0.29400
 H490 H -0.12082 0.38498 0.30473
 H491 H -0.17531 0.37164 0.20628
 H492 H -0.11587 0.37966 0.19530
 C493 C 0.14750 0.35203 0.74982
 C494 C 0.14706 0.32596 0.72544
 C495 C 0.17219 0.30090 0.72536
 C496 C 0.19836 0.30128 0.74968
 C497 C 0.19878 0.32737 0.77406
 C498 C 0.17367 0.35244 0.77411
 C499 C 0.12078 0.37867 0.74992
 C500 C 0.10713 0.39054 0.78069
 C501 C 0.08205 0.41565 0.78081
 C502 C 0.07002 0.42946 0.75016
 C503 C 0.08364 0.41758 0.71938
 C504 C 0.10874 0.39249 0.71927
 H505 H 0.17098 0.28114 0.70628
 H506 H 0.21860 0.32857 0.79310
 H507 H 0.07201 0.42414 0.80495
 H508 H 0.07501 0.42777 0.69533
 H509 H 0.17500 0.37244 0.79293
 H510 H 0.11552 0.38008 0.80471
 H511 H 0.12700 0.32467 0.70667
 H512 H 0.11906 0.38423 0.69517
 C513 C 0.14881 0.64906 0.24888
 C514 C 0.14899 0.67473 0.27364
 C515 C 0.17425 0.69969 0.27370
 C516 C 0.20008 0.69971 0.24890
 C517 C 0.19975 0.67394 0.22406
 C518 C 0.17448 0.64897 0.22410
 C519 C 0.12198 0.62247 0.24895
 C520 C 0.11038 0.60844 0.27968
 C521 C 0.08510 0.58349 0.27978
 C522 C 0.07087 0.57193 0.24914
 C523 C 0.08248 0.58592 0.21841
 C524 C 0.10772 0.61092 0.21832
 H525 H 0.17331 0.71901 0.29324
 H526 H 0.21909 0.67280 0.20453
 H527 H 0.07683 0.57314 0.30389
 H528 H 0.07197 0.57767 0.19437
 H529 H 0.17533 0.62927 0.20495
 H530 H 0.12117 0.61642 0.30368
 H531 H 0.12929 0.67581 0.29279
 H532 H 0.11575 0.62154 0.19425
 C533 C 0.74968 -0.14877 0.64883
 C534 C 0.72532 -0.14827 0.67492
 C535 C 0.72523 -0.17333 0.70009
 C536 C 0.74955 -0.19948 0.69980
 C537 C 0.77391 -0.19996 0.67368
 C538 C 0.77396 -0.17492 0.64851
 C539 C 0.74980 -0.12211 0.62208
 C540 C 0.78059 -0.10853 0.61010
 C541 C 0.78072 -0.08351 0.58489
 C542 C 0.75007 -0.07147 0.57110
 C543 C 0.71928 -0.08502 0.58309
 C544 C 0.71915 -0.11006 0.60827
 H545 H 0.70617 -0.17207 0.71986
 H546 H 0.79294 -0.21977 0.67255
 H547 H 0.80488 -0.07351 0.57632
 H548 H 0.69522 -0.07638 0.57293
 H549 H 0.79277 -0.17631 0.62850
 H550 H 0.80461 -0.11691 0.62054
 H551 H 0.70656 -0.12821 0.67615
 H552 H 0.69503 -0.12034 0.61662
 C553 C 0.25055 -0.14900 0.35123
 C554 C 0.22619 -0.17512 0.35160
 C555 C 0.22615 -0.20016 0.32646
 C556 C 0.25050 -0.19972 0.30034
 C557 C 0.27490 -0.17361 0.30000
 C558 C 0.27491 -0.14855 0.32514
 C559 C 0.25052 -0.12234 0.37794
 C560 C 0.28121 -0.11031 0.39169
 C561 C 0.28117 -0.08524 0.41681
 C562 C 0.25042 -0.07163 0.42879
 C563 C 0.21972 -0.08366 0.41505
 C564 C 0.21978 -0.10870 0.38990
 H565 H 0.20706 -0.21994 0.32762
 H566 H 0.29397 -0.17238 0.28022
 H567 H 0.30525 -0.07662 0.42695
 H568 H 0.19560 -0.07362 0.42361
 H569 H 0.29372 -0.12852 0.32387
 H570 H 0.30530 -0.12062 0.38336
 H571 H 0.20739 -0.17647 0.37162
 H572 H 0.19573 -0.11707 0.37949
 C573 C 0.75127 0.14838 0.35179
 C574 C 0.77563 0.17450 0.35229
 C575 C 0.77566 0.19969 0.32725
 C576 C 0.75130 0.19937 0.30111
 C577 C 0.72695 0.17321 0.30062
 C578 C 0.72696 0.14803 0.32564
 C579 C 0.75117 0.12164 0.37845
 C580 C 0.72039 0.10966 0.39205
 C581 C 0.72027 0.08445 0.41706
 C582 C 0.75092 0.07065 0.42908
 C583 C 0.78171 0.08264 0.41551
 C584 C 0.78182 0.10783 0.39048
 H585 H 0.79472 0.21949 0.32851
 H586 H 0.70789 0.17206 0.28082
 H587 H 0.69611 0.07588 0.42706
 H588 H 0.80576 0.07247 0.42413
 H589 H 0.70816 0.12799 0.32426
 H590 H 0.69637 0.12011 0.38368
 H591 H 0.79442 0.17575 0.37234
 H592 H 0.80593 0.11618 0.38019
 C593 C 0.24968 0.14813 0.64787
 C594 C 0.27401 0.14781 0.67401
 C595 C 0.27397 0.17294 0.69905
 C596 C 0.24957 0.19901 0.69859
 C597 C 0.22522 0.19931 0.67245
 C598 C 0.22529 0.17418 0.64739
 C599 C 0.24977 0.12141 0.62124
 C600 C 0.21910 0.10755 0.60927
 C601 C 0.21918 0.08239 0.58424
 C602 C 0.24995 0.07048 0.57062
 C603 C 0.28062 0.08433 0.58258
 C604 C 0.28053 0.10951 0.60758
 H605 H 0.29304 0.17181 0.71885
 H606 H 0.20612 0.21905 0.67121
 H607 H 0.19511 0.07217 0.57568
 H608 H 0.30475 0.07581 0.57252
 H609 H 0.20649 0.17541 0.62734
 H610 H 0.19500 0.11583 0.61960
 H611 H 0.29285 0.12783 0.67537
 H612 H 0.30456 0.12000 0.61591
   
