data_POSCAR
  _audit_creation_date              2014-09-24
  _audit_creation_method            'ToBaCCo'
  _symmetry_space_group_name_H-M    'P1'
  _symmetry_Int_Tables_number       1
  _symmetry_cell_setting            triclinic
  loop_
  _symmetry_equiv_pos_as_xyz
 x,y,z
_cell_length_a 51.5911
_cell_length_b 26.4177
_cell_length_c 19.8398
_cell_angle_alpha 89.942600
_cell_angle_beta 89.950700
_cell_angle_gamma 90.054100
loop_
  _atom_site_label
  _atom_site_type_symbol
  _atom_site_fract_x
  _atom_site_fract_y
  _atom_site_fract_z
O1 O 0.73608 0.31076 0.56267
 O2 O 0.78195 0.26829 0.43210
 O3 O 0.73588 0.30978 0.43195
 O4 O 0.78202 0.26877 0.56252
 O5 O 0.76395 0.19281 0.56355
 O6 O 0.71784 0.23380 0.43302
 O7 O 0.76389 0.19234 0.43320
 O8 O 0.71804 0.23479 0.56370
 Cu9 Cu 0.76078 0.29709 0.49720
 Cu10 Cu 0.73907 0.20580 0.49846
 C11 C 0.71914 0.28008 0.58469
 C12 C 0.78094 0.22290 0.41143
 C13 C 0.71889 0.27885 0.41103
 C14 C 0.78103 0.22363 0.58428
 O15 O 0.26231 0.68779 0.56573
 O16 O 0.21697 0.73440 0.43671
 O17 O 0.26193 0.68875 0.43555
 O18 O 0.21728 0.73337 0.56744
 O19 O 0.23699 0.80775 0.56797
 O20 O 0.28165 0.76315 0.43613
 O21 O 0.23667 0.80880 0.43723
 O22 O 0.28202 0.76217 0.56630
 Cu23 Cu 0.23758 0.70361 0.50133
 Cu24 Cu 0.26129 0.79301 0.50198
 C25 C 0.28011 0.71684 0.58690
 C26 C 0.21899 0.77960 0.41570
 C27 C 0.27961 0.71817 0.41446
 C28 C 0.21941 0.77826 0.58939
 O29 O 0.26203 0.31230 -0.56798
 O30 O 0.21649 0.26767 -0.43779
 O31 O 0.26197 0.31151 -0.43784
 O32 O 0.21632 0.26904 -0.56861
 O33 O 0.23505 0.19379 -0.56966
 O34 O 0.28074 0.23627 -0.43889
 O35 O 0.23523 0.19242 -0.43878
 O36 O 0.28077 0.23705 -0.56909
 Cu37 Cu 0.23725 0.29767 -0.50299
 Cu38 Cu 0.25979 0.20724 -0.50426
 C39 C 0.27942 0.28248 -0.58955
 C40 C 0.21803 0.22242 -0.41672
 C41 C 0.27935 0.28135 -0.41720
 C42 C 0.21778 0.22409 -0.59065
 O43 O -0.26379 0.68825 -0.56451
 O44 O -0.21832 0.73134 -0.43367
 O45 O -0.26376 0.68724 -0.43379
 O46 O -0.21834 0.73215 -0.56396
 O47 O -0.23733 0.80718 -0.56307
 O48 O -0.28273 0.76228 -0.43290
 O49 O -0.23729 0.80640 -0.43273
 O50 O -0.28277 0.76328 -0.56360
 Cu51 Cu -0.23917 0.70215 -0.49906
 Cu52 Cu -0.26199 0.79234 -0.49796
 C53 C -0.28113 0.71834 -0.58562
 C54 C -0.21985 0.77639 -0.41195
 C55 C -0.28110 0.71702 -0.41193
 C56 C -0.21992 0.77747 -0.58469
 O57 O -0.03647 0.91467 0.12721
 O58 O -0.06502 0.95866 0.06051
 C59 C -0.05968 0.92769 0.10910
 O60 O 0.03630 1.09182 0.11950
 O61 O 0.06473 1.04383 0.05748
 C62 C 0.05949 1.07808 0.10199
 O63 O -0.03637 1.08789 0.12511
 O64 O -0.06496 1.04275 0.05996
 C65 C -0.05959 1.07449 0.10760
 O66 O 0.03601 0.90910 0.12063
 O67 O 0.06460 0.95690 0.05842
 C68 C 0.05925 0.92290 0.10338
 Zr69 Zr -0.00028 0.93599 0.08536
 O70 O 0.00048 0.92783 0.19136
 O71 O -0.00137 0.85658 0.07328
 Zr72 Zr -0.00014 1.06441 0.08561
 O73 O 0.00222 1.06627 0.19211
 O74 O -0.00280 1.14437 0.08196
 O75 O -0.02315 1.00030 0.09875
 O76 O 0.02214 1.00018 0.09826
 O77 O 0.03625 0.90865 -0.11765
 O78 O 0.06468 0.95663 -0.05560
 C79 C 0.05944 0.92254 -0.10032
 O80 O -0.03605 1.08743 -0.12455
 O81 O -0.06483 1.04268 -0.05918
 C82 C -0.05933 1.07432 -0.10697
 O83 O 0.03658 1.09148 -0.11783
 O84 O 0.06491 1.04340 -0.05560
 C85 C 0.05974 1.07761 -0.10029
 O86 O -0.03633 0.91284 -0.12367
 O87 O -0.06494 0.95826 -0.05887
 C88 C -0.05955 0.92639 -0.10633
 Zr89 Zr -0.00015 0.93610 -0.08378
 O90 O 0.00266 0.93378 -0.19018
 O91 O -0.00273 0.85613 -0.07963
 Zr92 Zr 0.00004 1.06446 -0.08397
 O93 O 0.00288 1.06757 -0.19029
 O94 O -0.00276 1.14437 -0.07943
 Zr95 Zr -0.03898 1.00044 0.00065
 Zr96 Zr 0.03848 1.00022 0.00106
 O97 O 0.02229 1.00022 -0.09632
 O98 O -0.02305 1.00035 -0.09736
 O99 O 0.02315 0.92624 0.00099
 O100 O -0.02280 1.07361 0.00068
 O101 O -0.02313 0.92703 0.00088
 O102 O 0.02325 1.07426 0.00090
 H103 H 0.03359 1.00033 0.13832
 H104 H -0.03466 1.10309 0.00052
 H105 H 0.03374 1.00020 -0.13642
 H106 H -0.03512 0.89770 0.00114
 H107 H 0.01287 1.15719 0.05876
 H108 H 0.01331 1.15724 -0.05829
 H109 H -0.00939 1.04230 -0.20854
 H110 H -0.01052 0.95723 -0.20839
 H111 H 0.01224 0.84374 -0.05318
 H112 H -0.00177 0.84224 0.11943
 H113 H 0.00303 0.96203 0.21027
 H114 H -0.01128 1.04319 0.20984
 O115 O 0.46337 0.41348 0.12476
 O116 O 0.43480 0.45745 0.05817
 C117 C 0.44014 0.42653 0.10678
 O118 O 0.53583 0.59069 0.11824
 O119 O 0.56434 0.54329 0.05571
 C120 C 0.55904 0.57709 0.10078
 O121 O 0.46321 0.58612 0.12366
 O122 O 0.43474 0.54117 0.05797
 C123 C 0.44003 0.57252 0.10605
 O124 O 0.53592 0.40800 0.11714
 O125 O 0.56440 0.45618 0.05522
 C126 C 0.55912 0.42188 0.09975
 Zr127 Zr 0.49954 0.43495 0.08257
 O128 O 0.50064 0.42640 0.18847
 O129 O 0.49841 0.35558 0.06999
 Zr130 Zr 0.49949 0.56342 0.08361
 O131 O 0.50196 0.56540 0.19008
 O132 O 0.49664 0.64334 0.07974
 O133 O 0.47660 0.49908 0.09644
 O134 O 0.52185 0.49922 0.09580
 O135 O 0.53616 0.40852 -0.12038
 O136 O 0.56451 0.45660 -0.05820
 C137 C 0.55933 0.42247 -0.10291
 O138 O 0.46333 0.58604 -0.12700
 O139 O 0.43478 0.54105 -0.06130
 C140 C 0.44012 0.57240 -0.10943
 O141 O 0.53601 0.59132 -0.12036
 O142 O 0.56440 0.54369 -0.05780
 C143 C 0.55919 0.57764 -0.10277
 O144 O 0.46354 0.41313 -0.12743
 O145 O 0.43489 0.45745 -0.06148
 C146 C 0.44031 0.42633 -0.10975
 Zr147 Zr 0.49968 0.43565 -0.08647
 O148 O 0.50254 0.43252 -0.19279
 O149 O 0.49703 0.35572 -0.08180
 Zr150 Zr 0.49959 0.56412 -0.08588
 O151 O 0.50248 0.56882 -0.19208
 O152 O 0.49654 0.64393 -0.07962
 Zr153 Zr 0.46077 0.49941 -0.00162
 Zr154 Zr 0.53822 0.49980 -0.00133
 O155 O 0.52197 0.50001 -0.09871
 O156 O 0.47671 0.49982 -0.09965
 O157 O 0.52298 0.42571 -0.00184
 O158 O 0.47673 0.57277 -0.00119
 O159 O 0.47669 0.42611 -0.00194
 O160 O 0.52286 0.57374 -0.00103
 H161 H 0.53328 0.49914 0.13589
 H162 H 0.46471 0.60203 -0.00123
 H163 H 0.53338 0.50011 -0.13888
 H164 H 0.46465 0.39685 -0.00190
 H165 H 0.51249 0.65631 0.05749
 H166 H 0.51290 0.65690 -0.06018
 H167 H 0.49081 0.54276 -0.21096
 H168 H 0.49043 0.45800 -0.21110
 H169 H 0.51226 0.34333 -0.05638
 H170 H 0.49794 0.34111 0.11605
 H171 H 0.50197 0.46078 0.20759
 H172 H 0.48860 0.54209 0.20798
 C173 C 0.37809 0.37313 0.21380
 C174 C 0.37256 0.39462 0.27758
 C175 C 0.35129 0.37623 0.31611
 C176 C 0.33555 0.33677 0.29034
 C177 C 0.34061 0.31638 0.22569
 C178 C 0.36197 0.33458 0.18732
 C179 C 0.36666 0.31359 0.12283
 C180 C 0.35069 0.27576 0.09695
 C181 C 0.32979 0.25801 0.13444
 C182 C 0.32474 0.27790 0.19815
 C183 C 0.34629 0.39802 0.38001
 C184 C 0.36165 0.43723 0.40475
 C185 C 0.38234 0.45540 0.36691
 C186 C 0.38786 0.43443 0.30409
 C187 C 0.31455 0.31660 0.33117
 C188 C 0.29767 0.30022 0.36718
 C189 C 0.40033 0.39084 0.17551
 C190 C 0.41869 0.40636 0.14406
 H191 H 0.38263 0.32627 0.09168
 H192 H 0.35453 0.26019 0.04749
 H193 H 0.31741 0.22869 0.11404
 H194 H 0.30823 0.26294 0.22539
 H195 H 0.33042 0.38519 0.41140
 H196 H 0.35750 0.45353 0.45363
 H197 H 0.39421 0.48587 0.38637
 H198 H 0.40415 0.44989 0.27653
 C199 C -0.12088 0.87164 0.21659
 C200 C -0.12353 0.88533 0.28524
 C201 C -0.14464 0.86621 0.32362
 C202 C -0.16297 0.83352 0.29312
 C203 C -0.16050 0.82033 0.22428
 C204 C -0.13937 0.83944 0.18587
 C205 C -0.13722 0.82559 0.11718
 C206 C -0.15543 0.79374 0.08732
 C207 C -0.17614 0.77519 0.12484
 C208 C -0.17873 0.78816 0.19259
 C209 C -0.14686 0.88034 0.39225
 C210 C -0.12875 0.91244 0.42201
 C211 C -0.10803 0.93090 0.38455
 C212 C -0.10539 0.91777 0.31689
 C213 C -0.18398 0.81286 0.33332
 C214 C -0.20082 0.79627 0.36921
 C215 C -0.09913 0.89070 0.17778
 C216 C -0.08104 0.90709 0.14615
 H217 H -0.12148 0.83915 0.08589
 H218 H -0.15346 0.78341 0.03478
 H219 H -0.19026 0.75056 0.10135
 H220 H -0.19514 0.77278 0.21977
 H221 H -0.16256 0.86682 0.42365
 H222 H -0.13076 0.92290 0.47450
 H223 H -0.09389 0.95542 0.40807
 H224 H -0.08897 0.93326 0.28983
 C225 C 0.62073 0.63170 0.20730
 C226 C 0.62816 0.60443 0.26569
 C227 C 0.64942 0.62148 0.30512
 C228 C 0.66307 0.66579 0.28607
 C229 C 0.65605 0.69232 0.22680
 C230 C 0.63476 0.67529 0.18737
 C231 C 0.62796 0.70264 0.12865
 C232 C 0.64186 0.74552 0.10926
 C233 C 0.66275 0.76203 0.14762
 C234 C 0.66984 0.73591 0.20582
 C235 C 0.65650 0.59358 0.36325
 C236 C 0.64299 0.55004 0.38181
 C237 C 0.62219 0.53338 0.34328
 C238 C 0.61474 0.56015 0.28593
 C239 C 0.68361 0.68499 0.32906
 C240 C 0.70007 0.70054 0.36681
 C241 C 0.59872 0.61458 0.16789
 C242 C 0.58047 0.59875 0.13642
 H243 H 0.61187 0.69120 0.09717
 H244 H 0.63639 0.76604 0.06426
 H245 H 0.67354 0.79526 0.13223
 H246 H 0.68626 0.75012 0.23394
 H247 H 0.67258 0.60495 0.39480
 H248 H 0.64872 0.52908 0.42628
 H249 H 0.61181 0.49942 0.35770
 H250 H 0.59851 0.54548 0.25748
 C251 C 0.12136 1.13721 0.20336
 C252 C 0.14119 1.10377 0.22466
 C253 C 0.16205 1.12228 0.26441
 C254 C 0.16304 1.17415 0.28219
 C255 C 0.14357 1.20779 0.25938
 C256 C 0.12265 1.18924 0.21988
 C257 C 0.10331 1.22348 0.19804
 C258 C 0.10461 1.27464 0.21465
 C259 C 0.12505 1.29280 0.25332
 C260 C 0.14435 1.25993 0.27561
 C261 C 0.18146 1.08804 0.28587
 C262 C 0.18045 1.03708 0.26797
 C263 C 0.16020 1.01909 0.22853
 C264 C 0.14065 1.05178 0.20735
 C265 C 0.18347 1.19250 0.32616
 C266 C 0.19992 1.20754 0.36434
 C267 C 0.09931 1.11776 0.16617
 C268 C 0.08098 1.10060 0.13631
 H269 H 0.08704 1.21114 0.16783
 H270 H 0.08967 1.30032 0.19742
 H271 H 0.12597 1.33258 0.26611
 H272 H 0.15987 1.27586 0.30551
 H273 H 0.19766 1.10030 0.31639
 H274 H 0.19550 1.01144 0.28466
 H275 H 0.15961 0.97954 0.21444
 H276 H 0.12521 1.03589 0.17710
 C277 C 0.62139 0.36483 -0.20521
 C278 C 0.62221 0.31351 -0.22544
 C279 C 0.64320 0.29572 -0.26529
 C280 C 0.66321 0.32942 -0.28488
 C281 C 0.66269 0.38051 -0.26336
 C282 C 0.64176 0.39823 -0.22315
 C283 C 0.64172 0.44940 -0.20199
 C284 C 0.66178 0.48210 -0.21999
 C285 C 0.68209 0.46492 -0.25990
 C286 C 0.68265 0.41473 -0.28146
 C287 C 0.64354 0.24426 -0.28513
 C288 C 0.62369 0.21136 -0.26614
 C289 C 0.60316 0.22880 -0.22721
 C290 C 0.60232 0.27926 -0.20696
 C291 C 0.68374 0.31195 -0.32922
 C292 C 0.70026 0.29736 -0.36758
 C293 C 0.59925 0.38367 -0.16770
 C294 C 0.58087 0.40038 -0.13757
 H295 H 0.62627 0.46464 -0.17119
 H296 H 0.66150 0.52106 -0.20316
 H297 H 0.69753 0.49058 -0.27413
 H298 H 0.69892 0.40306 -0.31217
 H299 H 0.65912 0.22889 -0.31535
 H300 H 0.62427 0.17212 -0.28171
 H301 H 0.58779 0.20311 -0.21257
 H302 H 0.58597 0.29103 -0.17658
 C303 C 0.12132 0.86714 -0.20534
 C304 C 0.12966 0.89508 -0.26238
 C305 C 0.15106 0.87774 -0.30107
 C306 C 0.16393 0.83247 -0.28263
 C307 C 0.15600 0.80523 -0.22467
 C308 C 0.13456 0.82254 -0.18602
 C309 C 0.12679 0.79440 -0.12872
 C310 C 0.13991 0.75051 -0.10996
 C311 C 0.16095 0.73371 -0.14756
 C312 C 0.16899 0.76061 -0.20433
 C313 C 0.15903 0.90627 -0.35791
 C314 C 0.14622 0.95068 -0.37598
 C315 C 0.12529 0.96764 -0.33815
 C316 C 0.11698 0.94027 -0.28205
 C317 C 0.18444 0.81281 -0.32531
 C318 C 0.20082 0.79674 -0.36295
 C319 C 0.09920 0.88464 -0.16663
 C320 C 0.08090 0.90073 -0.13561
 H321 H 0.11053 0.80597 -0.09790
 H322 H 0.13369 0.72940 -0.06605
 H323 H 0.17108 0.69962 -0.13271
 H324 H 0.18553 0.74619 -0.23186
 H325 H 0.17527 0.89475 -0.38881
 H326 H 0.15260 0.97205 -0.41953
 H327 H 0.11551 1.00234 -0.35210
 H328 H 0.10066 0.95514 -0.25414
 C329 C 0.37793 0.62466 -0.21599
 C330 C 0.37236 0.60289 -0.27956
 C331 C 0.35122 0.62134 -0.31826
 C332 C 0.33559 0.66103 -0.29275
 C333 C 0.34054 0.68138 -0.22803
 C334 C 0.36179 0.66314 -0.18952
 C335 C 0.36636 0.68398 -0.12491
 C336 C 0.35036 0.72175 -0.09905
 C337 C 0.32958 0.73960 -0.13672
 C338 C 0.32466 0.71985 -0.20057
 C339 C 0.34621 0.59937 -0.38204
 C340 C 0.36142 0.55982 -0.40639
 C341 C 0.38197 0.54151 -0.36830
 C342 C 0.38752 0.56273 -0.30566
 C343 C 0.31484 0.68156 -0.33389
 C344 C 0.29816 0.69841 -0.36997
 C345 C 0.40025 0.60742 -0.17796
 C346 C 0.41867 0.59231 -0.14664
 H347 H 0.38222 0.67118 -0.09358
 H348 H 0.35409 0.73717 -0.04946
 H349 H 0.31718 0.76887 -0.11635
 H350 H 0.30824 0.73487 -0.22794
 H351 H 0.33044 0.61229 -0.41357
 H352 H 0.35724 0.54333 -0.45514
 H353 H 0.39370 0.51073 -0.38741
 H354 H 0.40369 0.54714 -0.27786
 C355 C -0.11948 1.13425 -0.21473
 C356 C -0.14353 1.14523 -0.18352
 C357 C -0.16441 1.16444 -0.22264
 C358 C -0.16113 1.17249 -0.29269
 C359 C -0.13702 1.16179 -0.32381
 C360 C -0.11614 1.14268 -0.28470
 C361 C -0.09223 1.13232 -0.31695
 C362 C -0.08902 1.14069 -0.38581
 C363 C -0.10943 1.15940 -0.42405
 C364 C -0.13321 1.16976 -0.39375
 C365 C -0.18827 1.17509 -0.19041
 C366 C -0.19143 1.16691 -0.12147
 C367 C -0.17104 1.14800 -0.08326
 C368 C -0.14730 1.13730 -0.11362
 C369 C -0.18247 1.19127 -0.33328
 C370 C -0.19958 1.20639 -0.36941
 C371 C -0.09827 1.11363 -0.17529
 C372 C -0.08052 1.09600 -0.14357
 H373 H -0.07575 1.11779 -0.28935
 H374 H -0.07059 1.13269 -0.40959
 H375 H -0.10683 1.16598 -0.47749
 H376 H -0.14850 1.18417 -0.42576
 H377 H -0.20468 1.18983 -0.21808
 H378 H -0.20981 1.17526 -0.09761
 H379 H -0.17363 1.14157 -0.02978
 H380 H -0.13199 1.12277 -0.08177
 C381 C 0.62129 0.63152 -0.20849
 C382 C 0.62868 0.60421 -0.26685
 C383 C 0.65015 0.62083 -0.30597
 C384 C 0.66403 0.66475 -0.28665
 C385 C 0.65709 0.69120 -0.22730
 C386 C 0.63560 0.67461 -0.18819
 C387 C 0.62885 0.70194 -0.12943
 C388 C 0.64302 0.74435 -0.10972
 C389 C 0.66413 0.76040 -0.14776
 C390 C 0.67116 0.73430 -0.20597
 C391 C 0.65719 0.59292 -0.36407
 C392 C 0.64344 0.54977 -0.38291
 C393 C 0.62242 0.53355 -0.34470
 C394 C 0.61501 0.56034 -0.28738
 C395 C 0.68463 0.68384 -0.32959
 C396 C 0.70111 0.69960 -0.36725
 C397 C 0.59908 0.61486 -0.16943
 C398 C 0.58069 0.59926 -0.13820
 H399 H 0.61260 0.69085 -0.09819
 H400 H 0.63760 0.76487 -0.06471
 H401 H 0.67513 0.79325 -0.13210
 H402 H 0.68775 0.74816 -0.23384
 H403 H 0.67342 0.60398 -0.39539
 H404 H 0.64915 0.52878 -0.42733
 H405 H 0.61186 0.49988 -0.35934
 H406 H 0.59861 0.54602 -0.25918
 C407 C 0.12143 1.13617 -0.20347
 C408 C 0.12160 1.18704 -0.22586
 C409 C 0.14232 1.20497 -0.26669
 C410 C 0.16274 1.17188 -0.28492
 C411 C 0.16285 1.12128 -0.26128
 C412 C 0.14218 1.10342 -0.22021
 C413 C 0.14272 1.05271 -0.19706
 C414 C 0.16311 1.02058 -0.21399
 C415 C 0.18321 1.03790 -0.25463
 C416 C 0.18319 1.08765 -0.27813
 C417 C 0.14195 1.25592 -0.28889
 C418 C 0.12171 1.28819 -0.27121
 C419 C 0.10146 1.27064 -0.23124
 C420 C 0.10131 1.22068 -0.20868
 C421 C 0.18306 1.18951 -0.32992
 C422 C 0.19938 1.20446 -0.36868
 C423 C 0.09950 1.11697 -0.16537
 C424 C 0.08125 1.09992 -0.13496
 H425 H 0.12747 1.03738 -0.16559
 H426 H 0.16323 0.98193 -0.19580
 H427 H 0.19891 1.01268 -0.26797
 H428 H 0.19929 1.09946 -0.30940
 H429 H 0.15727 1.27137 -0.31999
 H430 H 0.12174 1.32704 -0.28862
 H431 H 0.08579 1.29586 -0.21763
 H432 H 0.08516 1.20881 -0.17759
 C433 C 0.37915 0.37159 -0.21827
 C434 C 0.38036 0.37306 -0.28954
 C435 C 0.35926 0.35448 -0.32830
 C436 C 0.33702 0.33476 -0.29552
 C437 C 0.33565 0.33399 -0.22426
 C438 C 0.35679 0.35251 -0.18548
 C439 C 0.35495 0.35158 -0.11429
 C440 C 0.33286 0.33286 -0.08233
 C441 C 0.31224 0.31458 -0.12026
 C442 C 0.31351 0.31504 -0.19045
 C443 C 0.36100 0.35604 -0.39954
 C444 C 0.38295 0.37536 -0.43148
 C445 C 0.40351 0.39380 -0.39356
 C446 C 0.40234 0.39280 -0.32340
 C447 C 0.31572 0.31520 -0.33554
 C448 C 0.29866 0.29937 -0.37124
 C449 C 0.40089 0.38995 -0.17891
 C450 C 0.41899 0.40590 -0.14699
 H451 H 0.37048 0.36541 -0.08262
 H452 H 0.33173 0.33262 -0.02786
 H453 H 0.29513 0.30004 -0.09519
 H454 H 0.29697 0.30054 -0.21783
 H455 H 0.34549 0.34231 -0.43134
 H456 H 0.38403 0.37593 -0.48594
 H457 H 0.42049 0.40889 -0.41863
 H458 H 0.41884 0.40761 -0.29614
 C459 C -0.12025 0.86797 -0.21333
 C460 C -0.11717 0.85966 -0.28338
 C461 C -0.13818 0.84042 -0.32188
 C462 C -0.16216 0.82956 -0.29010
 C463 C -0.16525 0.83792 -0.22008
 C464 C -0.14424 0.85729 -0.18158
 C465 C -0.14783 0.86570 -0.11174
 C466 C -0.17152 0.85532 -0.08085
 C467 C -0.19202 0.83615 -0.11845
 C468 C -0.18903 0.82747 -0.18730
 C469 C -0.13463 0.83250 -0.39190
 C470 C -0.11100 0.84315 -0.42287
 C471 C -0.09047 0.86207 -0.38522
 C472 C -0.09341 0.87030 -0.31627
 C473 C -0.18355 0.81021 -0.33002
 C474 C -0.20062 0.79450 -0.36581
 C475 C -0.09878 0.88797 -0.17431
 C476 C -0.08085 0.90507 -0.14282
 H477 H -0.13244 0.88047 -0.08035
 H478 H -0.17400 0.86225 -0.02747
 H479 H -0.21037 0.82805 -0.09418
 H480 H -0.20554 0.81261 -0.21452
 H481 H -0.15002 0.81800 -0.42349
 H482 H -0.10860 0.83668 -0.47637
 H483 H -0.07217 0.87038 -0.40954
 H484 H -0.07685 0.88503 -0.28916
 C485 C 0.37866 0.62616 0.21466
 C486 C 0.37982 0.62448 0.28593
 C487 C 0.35875 0.64310 0.32475
 C488 C 0.33659 0.66308 0.29204
 C489 C 0.33521 0.66376 0.22079
 C490 C 0.35629 0.64510 0.18195
 C491 C 0.35439 0.64571 0.11077
 C492 C 0.33229 0.66428 0.07891
 C493 C 0.31174 0.68284 0.11691
 C494 C 0.31309 0.68272 0.18708
 C495 C 0.36041 0.64131 0.39599
 C496 C 0.38224 0.62160 0.42787
 C497 C 0.40278 0.60312 0.38988
 C498 C 0.40170 0.60444 0.31972
 C499 C 0.31543 0.68308 0.33215
 C500 C 0.29857 0.69939 0.36808
 C501 C 0.40047 0.60824 0.17523
 C502 C 0.41863 0.59265 0.14324
 H503 H 0.36986 0.63163 0.07906
 H504 H 0.33108 0.66417 0.02445
 H505 H 0.29463 0.69729 0.09191
 H506 H 0.29660 0.69742 0.21454
 H507 H 0.34492 0.65507 0.42785
 H508 H 0.38324 0.62076 0.48233
 H509 H 0.41967 0.58772 0.41490
 H510 H 0.41817 0.58955 0.29240
 C511 C -0.12059 1.13181 0.21492
 C512 C -0.13908 1.16402 0.18426
 C513 C -0.16019 1.18309 0.22272
 C514 C -0.16267 1.16985 0.29159
 C515 C -0.14428 1.13732 0.32212
 C516 C -0.12318 1.11825 0.28369
 C517 C -0.10500 1.08595 0.31544
 C518 C -0.10757 1.07298 0.38322
 C519 C -0.12827 1.09136 0.42068
 C520 C -0.14643 1.12325 0.39083
 C521 C -0.17842 1.21524 0.19104
 C522 C -0.17583 1.22829 0.12327
 C523 C -0.15516 1.20977 0.08571
 C524 C -0.13697 1.17788 0.11553
 C525 C -0.18382 1.19003 0.33175
 C526 C -0.20077 1.20597 0.36779
 C527 C -0.09893 1.11244 0.17589
 C528 C -0.08093 1.09567 0.14425
 H529 H -0.08861 1.07047 0.28837
 H530 H -0.09337 1.04863 0.40683
 H531 H -0.13023 1.08101 0.47325
 H532 H -0.16213 1.13670 0.42225
 H533 H -0.19481 1.23057 0.21825
 H534 H -0.18994 1.25296 0.09980
 H535 H -0.15320 1.22018 0.03316
 H536 H -0.12127 1.16431 0.08420
 C537 C 0.62100 0.36358 0.20176
 C538 C 0.62182 0.31214 0.22153
 C539 C 0.64274 0.29417 0.26145
 C540 C 0.66271 0.32780 0.28135
 C541 C 0.66215 0.37905 0.26041
 C542 C 0.64129 0.39696 0.22022
 C543 C 0.64121 0.44829 0.19961
 C544 C 0.66117 0.48099 0.21821
 C545 C 0.68140 0.46363 0.25817
 C546 C 0.68200 0.41328 0.27915
 C547 C 0.64303 0.24264 0.28106
 C548 C 0.62324 0.20980 0.26164
 C549 C 0.60281 0.22738 0.22250
 C550 C 0.60200 0.27794 0.20255
 C551 C 0.68326 0.31012 0.32537
 C552 C 0.69986 0.29566 0.36349
 C553 C 0.59892 0.38261 0.16435
 C554 C 0.58059 0.39953 0.13431
 H555 H 0.62580 0.46368 0.16881
 H556 H 0.66085 0.52008 0.20182
 H557 H 0.69675 0.48928 0.27291
 H558 H 0.69821 0.40149 0.30998
 H559 H 0.65852 0.22717 0.31148
 H560 H 0.62377 0.17050 0.27707
 H561 H 0.58750 0.20173 0.20749
 H562 H 0.58572 0.28984 0.17203
 C563 C 0.12098 0.86851 0.20999
 C564 C 0.12766 0.89427 0.27012
 C565 C 0.14897 0.87725 0.30939
 C566 C 0.16341 0.83448 0.28845
 C567 C 0.15721 0.80972 0.22729
 C568 C 0.13589 0.82671 0.18800
 C569 C 0.12996 0.80116 0.12727
 C570 C 0.14474 0.76007 0.10586
 C571 C 0.16564 0.74356 0.14416
 C572 C 0.17189 0.76795 0.20426
 C573 C 0.15533 0.90366 0.36923
 C574 C 0.14108 0.94573 0.38962
 C575 C 0.12025 0.96240 0.35121
 C576 C 0.11350 0.93706 0.29219
 C577 C 0.18388 0.81487 0.33131
 C578 C 0.20029 0.79862 0.36873
 C579 C 0.09891 0.88552 0.17070
 C580 C 0.08066 0.90130 0.13920
 H581 H 0.11391 0.81269 0.09570
 H582 H 0.13996 0.74096 0.05929
 H583 H 0.17710 0.71171 0.12721
 H584 H 0.18841 0.75392 0.23218
 H585 H 0.17145 0.89230 0.40066
 H586 H 0.14626 0.96554 0.43541
 H587 H 0.10932 0.99526 0.36707
 H588 H 0.09723 0.95169 0.26387
   
