data_POSCAR
  _audit_creation_date              2014-09-24
  _audit_creation_method            'ToBaCCo'
  _symmetry_space_group_name_H-M    'P1'
  _symmetry_Int_Tables_number       1
  _symmetry_cell_setting            triclinic
  loop_
  _symmetry_equiv_pos_as_xyz
 x,y,z
_cell_length_a 23.7665
_cell_length_b 23.7245
_cell_length_c 7.8647
_cell_angle_alpha 90.114000
_cell_angle_beta 90.099600
_cell_angle_gamma 119.632300
loop_
  _atom_site_label
  _atom_site_type_symbol
  _atom_site_fract_x
  _atom_site_fract_y
  _atom_site_fract_z
C1 C 0.19650 0.49351 0.40499
 C2 C 0.19713 0.49664 0.59061
 C3 C 0.25466 0.50839 0.67597
 C4 C 0.30552 0.50504 0.59299
 C5 C 0.30295 0.50071 0.40983
 C6 C 0.25149 0.50016 0.32277
 H7 H 0.25165 0.49855 0.18453
 H8 H 0.25643 0.51209 0.81375
 C9 C 0.49277 -0.30631 0.41530
 C10 C 0.49798 -0.30209 0.59794
 C11 C 0.49639 -0.25073 0.68241
 C12 C 0.50040 -0.19720 0.59654
 C13 C 0.49871 -0.19924 0.41211
 C14 C 0.49008 -0.25570 0.32903
 H15 H 0.48740 -0.25719 0.19115
 H16 H 0.49812 -0.24966 0.82056
 C17 C 1.30214 0.80193 0.40832
 C18 C 1.29791 0.80472 0.59260
 C19 C 1.24803 0.75225 0.67863
 C20 C 1.19805 0.69939 0.59459
 C21 C 1.20066 0.69668 0.41086
 C22 C 1.25485 0.74555 0.32559
 H23 H 1.25631 0.74274 0.18797
 H24 H 1.24624 0.75422 0.81650
 C25 C 0.80334 0.49954 0.42442
 C26 C 0.80122 0.49489 0.60766
 C27 C 0.74645 0.48882 0.69194
 C28 C 0.70020 0.49981 0.61003
 C29 C 0.70173 0.50380 0.42540
 C30 C 0.75199 0.50080 0.33932
 H31 H 0.75297 0.50288 0.20138
 H32 H 0.74480 0.48497 0.82977
 C33 C 0.49812 0.30037 0.41504
 C34 C 0.50526 0.30546 0.59865
 C35 C 0.51480 0.25863 0.68427
 C36 C 0.50658 0.20202 0.60281
 C37 C 0.50084 0.19839 0.42038
 C38 C 0.49917 0.24872 0.33248
 H39 H 0.49525 0.24592 0.19468
 H40 H 0.51984 0.26184 0.82175
 C41 C 0.69667 0.19928 0.41387
 C42 C 0.69571 0.20244 0.59655
 C43 C 0.74468 0.25771 0.67926
 C44 C 0.79969 0.30542 0.59295
 C45 C 0.80147 0.29988 0.40982
 C46 C 0.74856 0.24905 0.32657
 H47 H 0.74945 0.24628 0.18874
 H48 H 0.74308 0.25985 0.81695
 O49 O 0.91096 0.54270 -0.32399
 O50 O 0.83710 0.46410 -0.14937
 C51 C 0.85184 0.50042 -0.28536
 O52 O 1.08655 0.44955 -0.34035
 O53 O 1.16154 0.52987 -0.16885
 C54 C 1.14605 0.49182 -0.30269
 O55 O 0.90965 0.37135 -0.35153
 O56 O 0.83719 0.37242 -0.16192
 C57 C 0.85095 0.35248 -0.30392
 O58 O 1.08692 0.63796 -0.31821
 O59 O 1.16206 0.62490 -0.16546
 C60 C 1.14602 0.65126 -0.28982
 Zr61 Zr 0.99915 0.57527 -0.18455
 O62 O 0.97993 0.62939 -0.37056
 O63 O 1.00409 0.65901 -0.07433
 Zr64 Zr 0.99734 0.42982 -0.22007
 O65 O 0.97846 0.42650 -0.47098
 O66 O 0.98968 0.33724 -0.24386
 O67 O 0.94260 0.47575 -0.23083
 O68 O 1.05286 0.52933 -0.24073
 O69 O 1.08931 0.63437 0.33590
 O70 O 1.16240 0.62307 0.16769
 C71 C 1.14778 0.64829 0.29841
 O72 O 0.91142 0.35570 0.31296
 O73 O 0.83722 0.37255 0.17125
 C74 C 0.85327 0.34599 0.29274
 O75 O 1.08752 0.44344 0.32839
 O76 O 1.16142 0.52588 0.16031
 C77 C 1.14643 0.48685 0.29296
 O78 O 0.91389 0.54635 0.34108
 O79 O 0.83902 0.46034 0.18493
 C80 C 0.85527 0.50119 0.31231
 Zr81 Zr 1.00156 0.56376 0.22504
 O82 O 1.00787 0.55586 0.48116
 O83 O 1.00716 0.65540 0.25301
 Zr84 Zr 1.00153 0.41837 0.18843
 O85 O 1.01612 0.36207 0.37804
 O86 O 1.00640 0.34006 0.07503
 Zr87 Zr 0.90115 0.44838 0.00878
 Zr88 Zr 1.09936 0.54564 -0.00241
 O89 O 1.05599 0.51840 0.23614
 O90 O 0.94610 0.46285 0.24766
 O91 O 1.06167 0.60972 0.02054
 O92 O 0.93912 0.38503 -0.01467
 O93 O 0.94039 0.54950 0.02458
 O94 O 1.06058 0.44382 -0.02260
 H95 H 1.07807 0.54056 -0.34657
 H96 H 0.90698 0.33818 -0.02228
 H97 H 1.08321 0.53450 0.33855
 H98 H 0.90891 0.56542 0.03018
 H99 H 1.03365 0.34274 -0.23374
 H100 H 0.96548 0.29968 0.10021
 H101 H 0.98065 0.31636 0.37758
 H102 H 0.96921 0.51527 0.50719
 H103 H 0.96466 0.65110 0.22392
 H104 H 1.04761 0.69609 -0.09941
 H105 H 1.01532 0.67505 -0.37635
 H106 H 1.01774 0.46126 -0.51600
 O107 O 0.36482 0.45165 0.32686
 O108 O 0.37454 0.53679 0.16812
 C109 C 0.35087 0.49678 0.29657
 O110 O 0.63581 0.55017 0.34482
 O111 O 0.62828 0.46651 0.18161
 C112 C 0.65196 0.50665 0.31145
 O113 O 0.52799 0.61902 0.36613
 O114 O 0.46423 0.62900 0.16651
 C115 C 0.49432 0.64466 0.31308
 O116 O 0.44792 0.36139 0.32538
 O117 O 0.53512 0.37302 0.17259
 C118 C 0.49330 0.34748 0.29729
 Zr119 Zr 0.42329 0.42359 0.18835
 O120 O 0.35529 0.36932 0.38312
 O121 O 0.34563 0.34136 0.07186
 Zr122 Zr 0.56596 0.56896 0.22664
 O123 O 0.58982 0.58509 0.47463
 O124 O 0.64402 0.66563 0.23206
 O125 O 0.46602 0.52321 0.24034
 O126 O 0.52194 0.46936 0.24693
 O127 O 0.45841 0.36947 -0.34098
 O128 O 0.53672 0.37425 -0.15976
 C129 C 0.50014 0.35196 -0.29697
 O130 O 0.54673 0.63436 -0.32049
 O131 O 0.46467 0.62893 -0.15765
 C132 C 0.50335 0.65096 -0.28761
 O133 O 0.64287 0.55291 -0.31546
 O134 O 0.63308 0.46941 -0.14776
 C135 C 0.65751 0.50824 -0.27946
 O136 O 0.36921 0.45858 -0.33880
 O137 O 0.37609 0.54013 -0.16860
 C138 C 0.35330 0.50210 -0.30221
 Zr139 Zr 0.43806 0.43800 -0.22261
 O140 O 0.45396 0.45267 -0.47823
 O141 O 0.34742 0.35257 -0.25633
 Zr142 Zr 0.58226 0.58104 -0.17804
 O143 O 0.64983 0.66570 -0.31652
 O144 O 0.66999 0.64931 -0.05931
 Zr145 Zr 0.45195 0.55191 0.00196
 Zr146 Zr 0.55193 0.45240 0.00893
 O147 O 0.53761 0.48176 -0.23256
 O148 O 0.48302 0.53842 -0.23542
 O149 O 0.45101 0.38950 -0.01914
 O150 O 0.55296 0.61456 0.02314
 O151 O 0.39092 0.45120 -0.01980
 O152 O 0.61448 0.55374 0.03223
 H153 H 0.53596 0.45876 0.35434
 H154 H 0.56842 0.66178 0.02639
 H155 H 0.54839 0.46718 -0.33880
 H156 H 0.34376 0.43544 -0.02651
 H157 H 0.68276 0.66413 0.27227
 H158 H 0.70535 0.64160 -0.09906
 H159 H 0.65303 0.70602 -0.26761
 H160 H 0.45753 0.49500 -0.49640
 H161 H 0.35281 0.31469 -0.23017
 H162 H 0.35151 0.30359 0.09666
 H163 H 0.33675 0.32193 0.36763
 H164 H 0.55458 0.54869 0.53122
 O165 O 0.45749 0.08667 0.34713
 O166 O 0.53548 0.16252 0.17545
 C167 C 0.49850 0.14607 0.30958
 O168 O 0.54769 -0.08774 0.33184
 O169 O 0.46401 -0.16192 0.16694
 C170 C 0.50388 -0.14664 0.29653
 O171 O 0.63315 0.08755 0.33514
 O172 O 0.62395 0.16244 0.17321
 C173 C 0.64739 0.14648 0.30303
 O174 O 0.36494 -0.08820 0.34131
 O175 O 0.36985 -0.16193 0.16352
 C176 C 0.34768 -0.14736 0.30035
 Zr177 Zr 0.42428 -0.00012 0.20349
 O178 O 0.36378 0.02894 0.33567
 O179 O 0.33401 -0.01920 0.10064
 Zr180 Zr 0.57337 0.00016 0.19940
 O181 O 0.64822 0.01994 0.38055
 O182 O 0.65016 -0.00888 0.09225
 O183 O 0.52569 0.05422 0.24336
 O184 O 0.47295 -0.05262 0.24494
 O185 O 0.35623 -0.08462 -0.31625
 O186 O 0.37188 -0.15958 -0.16833
 C187 C 0.34480 -0.14335 -0.29092
 O188 O 0.63651 0.09091 -0.32428
 O189 O 0.62334 0.16390 -0.16177
 C190 C 0.64841 0.14925 -0.29102
 O191 O 0.54960 -0.08671 -0.33472
 O192 O 0.46679 -0.16049 -0.16568
 C193 C 0.50582 -0.14576 -0.29766
 O194 O 0.46052 0.09188 -0.33547
 O195 O 0.53490 0.16543 -0.15123
 C196 C 0.50069 0.15111 -0.29092
 Zr197 Zr 0.42787 0.00300 -0.20320
 O198 O 0.41413 -0.00454 -0.45496
 O199 O 0.34516 0.01476 -0.19629
 Zr200 Zr 0.56847 0.00105 -0.21332
 O201 O 0.55080 -0.00301 -0.46966
 O202 O 0.65527 -0.00365 -0.22499
 Zr203 Zr 0.54793 0.09973 0.00561
 Zr204 Zr 0.44953 -0.09833 0.00146
 O205 O 0.47003 -0.05383 -0.23723
 O206 O 0.52661 0.05921 -0.23677
 O207 O 0.38606 -0.06001 -0.00378
 O208 O 0.60998 0.06046 -0.00535
 O209 O 0.44711 0.06172 0.00283
 O210 O 0.55069 -0.06053 -0.00860
 H211 H 0.46151 -0.07669 0.35278
 H212 H 0.65718 0.09152 -0.00597
 H213 H 0.45639 -0.07953 -0.34306
 H214 H 0.43062 0.09280 0.00451
 H215 H 0.64490 -0.05150 0.12632
 H216 H 0.68247 0.02401 -0.31855
 H217 H 0.54840 0.03607 -0.49351
 H218 H 0.45198 -0.00383 -0.50223
 H219 H 0.33877 0.02667 -0.31229
 H220 H 0.29923 -0.06202 0.14167
 H221 H 0.32764 -0.00865 0.39405
 H222 H 0.65452 -0.01798 0.39733
   
