data_POSCAR
  _audit_creation_date              2014-09-24
  _audit_creation_method            'ToBaCCo'
  _symmetry_space_group_name_H-M    'P1'
  _symmetry_Int_Tables_number       1
  _symmetry_cell_setting            triclinic
  loop_
  _symmetry_equiv_pos_as_xyz
 x,y,z
_cell_length_a 42.0668
_cell_length_b 40.9294
_cell_length_c 35.0893
_cell_angle_alpha 89.961000
_cell_angle_beta 90.091800
_cell_angle_gamma 89.902800
loop_
  _atom_site_label
  _atom_site_type_symbol
  _atom_site_fract_x
  _atom_site_fract_y
  _atom_site_fract_z
C1 C 1.20381 0.25790 0.30844
 H2 H 1.20611 0.23157 0.30915
 C3 C 1.18110 0.27334 0.33115
 H4 H 1.16600 0.25877 0.34941
 C5 C 1.21951 0.30867 0.28197
 H6 H 1.23432 0.32234 0.26261
 C7 C 1.19705 0.32508 0.30405
 H8 H 1.19501 0.35138 0.30170
 N9 N 1.22166 0.27556 0.28356
 C10 C 1.23163 0.21213 0.18528
 H11 H 1.25715 0.21013 0.18230
 C12 C 1.21159 0.19532 0.16031
 H13 H 1.22187 0.18041 0.13802
 C14 C 1.18722 0.23438 0.21765
 H15 H 1.17763 0.24993 0.23962
 C16 C 1.16638 0.21808 0.19341
 H17 H 1.14104 0.22058 0.19792
 Zn18 Zn 1.24676 0.25209 0.24832
 N19 N 1.21919 0.23053 0.21388
 C20 C 1.26821 0.18884 0.27011
 N21 N 1.27142 0.22139 0.27633
 C22 C 1.29057 0.23267 0.30452
 C23 C 1.30790 0.21101 0.32733
 C24 C 1.28508 0.16622 0.29210
 C25 C 1.25729 0.30125 0.19458
 C26 C 1.27449 0.32354 0.17265
 C27 C 1.32280 0.30328 0.20156
 C28 C 1.30467 0.28128 0.22286
 N29 N 1.27246 0.28102 0.21947
 H30 H 1.25189 0.18014 0.24863
 H31 H 1.29241 0.25871 0.30930
 H32 H 1.32381 0.22186 0.34787
 H33 H 1.28014 0.14077 0.28670
 H34 H 1.23168 0.30027 0.19210
 H35 H 1.26186 0.33990 0.15364
 H36 H 1.34842 0.30311 0.20460
 H37 H 1.31639 0.26454 0.24211
 C38 C 1.17846 0.19787 0.16459
 C39 C 1.17689 0.30726 0.32820
 C40 C 1.30769 0.32496 0.17621
 C41 C 1.30569 0.17673 0.32170
 C42 C 0.70628 -0.23291 0.30564
 H43 H 0.70444 -0.25879 0.31154
 C44 C 0.68787 -0.21068 0.32630
 H45 H 0.67211 -0.21973 0.34826
 C46 C 0.72948 -0.18978 0.27038
 H47 H 0.74549 -0.18163 0.24832
 C48 C 0.71155 -0.16673 0.29036
 H49 H 0.71385 -0.14111 0.28316
 N50 N 0.72690 -0.22219 0.27855
 C51 C 0.74370 -0.30463 0.20005
 H52 H 0.76926 -0.30447 0.19795
 C53 C 0.72642 -0.32673 0.17792
 H54 H 0.73911 -0.34323 0.15922
 C55 C 0.69625 -0.28196 0.22478
 H56 H 0.68443 -0.26429 0.24266
 C57 C 0.67803 -0.30386 0.20340
 H58 H 0.65240 -0.30307 0.20591
 Zn59 Zn 0.75336 -0.25256 0.25211
 N60 N 0.72856 -0.28275 0.22297
 C61 C 0.80419 -0.29303 0.27131
 N62 N 0.78008 -0.27534 0.28683
 C63 C 0.77751 -0.27180 0.32530
 C64 C 0.79939 -0.28691 0.34964
 C65 C 0.82653 -0.30845 0.29450
 C66 C 0.77940 -0.23116 0.18125
 C67 C 0.80213 -0.21547 0.15881
 C68 C 0.82739 -0.19582 0.21632
 C69 C 0.80435 -0.21199 0.23758
 N70 N 0.78112 -0.22935 0.21989
 H71 H 0.80686 -0.29429 0.24079
 H72 H 0.75906 -0.25668 0.33730
 H73 H 0.79723 -0.28354 0.38014
 H74 H 0.84531 -0.32266 0.28142
 H75 H 0.76060 -0.24497 0.16779
 H76 H 0.80084 -0.21766 0.12809
 H77 H 0.84546 -0.18181 0.23102
 H78 H 0.80507 -0.21098 0.26839
 C79 C 0.69308 -0.32660 0.17936
 C80 C 0.69052 -0.17704 0.31894
 C81 C 0.82668 -0.19771 0.17638
 C82 C 0.82439 -0.30539 0.33422
 C83 C 0.70533 0.26938 -0.19812
 H84 H 0.70216 0.24342 -0.19372
 C85 C 0.68691 0.29168 -0.17757
 H86 H 0.66963 0.28259 -0.15736
 C87 C 0.73263 0.31258 -0.22872
 H88 H 0.75087 0.32073 -0.24811
 C89 C 0.71479 0.33573 -0.20869
 H90 H 0.71901 0.36146 -0.21375
 N91 N 0.72741 0.28007 -0.22348
 C92 C 0.74340 0.19766 -0.30150
 H93 H 0.76909 0.19670 -0.30059
 C94 C 0.72665 0.17580 -0.32457
 H95 H 0.73968 0.15825 -0.34156
 C96 C 0.69541 0.22231 -0.28103
 H97 H 0.68330 0.24060 -0.26426
 C98 C 0.67771 0.20101 -0.30385
 H99 H 0.65204 0.20285 -0.30380
 Zn100 Zn 0.75266 0.24820 -0.24890
 N101 N 0.72765 0.21999 -0.27984
 C102 C 0.77427 0.19085 -0.21098
 N103 N 0.77465 0.22406 -0.21113
 C104 C 0.79306 0.24112 -0.18624
 C105 C 0.81417 0.22477 -0.16207
 C106 C 0.79501 0.17354 -0.18737
 C107 C 0.77334 0.28807 -0.30976
 C108 C 0.79548 0.30385 -0.33301
 C109 C 0.83747 0.27701 -0.29804
 C110 C 0.81450 0.26190 -0.27560
 N111 N 0.78316 0.26832 -0.28099
 H112 H 0.75888 0.17770 -0.23021
 H113 H 0.79271 0.26755 -0.18684
 H114 H 0.83002 0.23878 -0.14408
 H115 H 0.79524 0.14710 -0.18855
 H116 H 0.74818 0.29227 -0.31401
 H117 H 0.78603 0.32088 -0.35362
 H118 H 0.86182 0.26977 -0.29307
 H119 H 0.82197 0.24465 -0.25410
 C120 C 0.69332 0.17719 -0.32586
 C121 C 0.69146 0.32541 -0.18277
 C122 C 0.82861 0.29927 -0.32712
 C123 C 0.81608 0.19057 -0.16349
 C124 C 1.20427 -0.24106 -0.19123
 H125 H 1.20679 -0.26736 -0.19057
 C126 C 1.18147 -0.22585 -0.16847
 H127 H 1.16651 -0.24057 -0.15018
 C128 C 1.21950 -0.19011 -0.21768
 H129 H 1.23418 -0.17629 -0.23704
 C130 C 1.19689 -0.17395 -0.19559
 H131 H 1.19453 -0.14767 -0.19796
 N132 N 1.22196 -0.22320 -0.21610
 C133 C 1.23218 -0.28715 -0.31370
 H134 H 1.25771 -0.28930 -0.31637
 C135 C 1.21224 -0.30448 -0.33828
 H136 H 1.22260 -0.31991 -0.36004
 C137 C 1.18763 -0.26425 -0.28218
 H138 H 1.17798 -0.24833 -0.26061
 C139 C 1.16689 -0.28103 -0.30612
 H140 H 1.14153 -0.27846 -0.30184
 Zn141 Zn 1.24711 -0.24656 -0.25130
 N142 N 1.21961 -0.26822 -0.28566
 C143 C 1.26677 -0.30988 -0.22818
 N144 N 1.27158 -0.27730 -0.22318
 C145 C 1.29194 -0.26611 -0.19604
 C146 C 1.30904 -0.28803 -0.17329
 C147 C 1.28324 -0.33262 -0.20597
 C148 C 1.25752 -0.19715 -0.30472
 C149 C 1.27464 -0.17486 -0.32671
 C150 C 1.32312 -0.19586 -0.29894
 C151 C 1.30505 -0.21784 -0.27755
 N152 N 1.27279 -0.21770 -0.28028
 H153 H 1.24964 -0.31839 -0.24882
 H154 H 1.29478 -0.24008 -0.19196
 H155 H 1.32560 -0.27858 -0.15240
 H156 H 1.27863 -0.35840 -0.21008
 H157 H 1.23187 -0.19788 -0.30680
 H158 H 1.26195 -0.15822 -0.34531
 H159 H 1.34877 -0.19635 -0.29641
 H160 H 1.31686 -0.23494 -0.25882
 C161 C 1.17910 -0.30189 -0.33422
 C162 C 1.17695 -0.19200 -0.17142
 C163 C 1.30790 -0.17380 -0.32373
 C164 C 1.30481 -0.32185 -0.17811
 C165 C 0.25776 0.19643 0.70318
 H166 H 0.23209 0.19496 0.70394
 C167 C 0.27500 0.17511 0.68000
 H168 H 0.26238 0.15738 0.66282
 C169 C 0.30516 0.22210 0.72389
 H170 H 0.31680 0.24066 0.74072
 C171 C 0.32334 0.20133 0.70096
 H172 H 0.34896 0.20379 0.70099
 N173 N 0.27297 0.21910 0.72487
 C174 C 0.20512 0.24061 0.81535
 H175 H 0.20486 0.26702 0.81385
 C176 C 0.18453 0.22445 0.84009
 H177 H 0.16954 0.23913 0.85832
 C178 C 0.22610 0.19033 0.79363
 H179 H 0.24211 0.17710 0.77520
 C180 C 0.20614 0.17310 0.81815
 H181 H 0.20688 0.14674 0.81670
 Zn182 Zn 0.24708 0.24725 0.75459
 N183 N 0.22442 0.22340 0.79172
 C184 C 0.18589 0.26196 0.72529
 N185 N 0.21762 0.26718 0.72096
 C186 C 0.22891 0.28600 0.69208
 C187 C 0.20790 0.30189 0.66740
 C188 C 0.16407 0.27740 0.70135
 C189 C 0.29301 0.26896 0.80691
 C190 C 0.31011 0.29155 0.82861
 C191 C 0.28185 0.33512 0.79673
 C192 C 0.26534 0.31170 0.77559
 N193 N 0.27132 0.27931 0.78076
 H194 H 0.17728 0.24600 0.74744
 H195 H 0.25429 0.28909 0.68868
 H196 H 0.21731 0.31714 0.64487
 H197 H 0.13891 0.27388 0.70628
 H198 H 0.29688 0.24306 0.81104
 H199 H 0.32763 0.28275 0.84881
 H200 H 0.27635 0.36072 0.79256
 H201 H 0.24727 0.31950 0.75568
 C202 C 0.18399 0.18998 0.84122
 C203 C 0.30827 0.17736 0.67867
 C204 C 0.30460 0.32518 0.82373
 C205 C 0.17495 0.29810 0.67231
 C206 C 0.77205 0.71107 0.68750
 H207 H 0.74686 0.70743 0.68303
 C208 C 0.79411 0.69449 0.66481
 H209 H 0.78568 0.67767 0.64326
 C210 C 0.81365 0.73685 0.72162
 H211 H 0.82139 0.75380 0.74323
 C212 C 0.83641 0.72098 0.69959
 H213 H 0.86134 0.72586 0.70477
 N214 N 0.78216 0.73102 0.71603
 C215 C 0.70662 0.73219 0.80174
 H216 H 0.70472 0.75821 0.80669
 C217 C 0.68853 0.71048 0.82346
 H218 H 0.67355 0.72080 0.84536
 C219 C 0.73094 0.68832 0.76914
 H220 H 0.74784 0.67963 0.74838
 C221 C 0.71334 0.66568 0.79017
 H222 H 0.71645 0.64014 0.78333
 Zn223 Zn 0.75229 0.75204 0.74826
 N224 N 0.72708 0.72092 0.77489
 C225 C 0.69487 0.78009 0.71925
 N226 N 0.72717 0.78043 0.71761
 C227 C 0.74274 0.80113 0.69373
 C228 C 0.72585 0.82336 0.67119
 C229 C 0.67703 0.80191 0.69719
 C230 C 0.79226 0.75893 0.81120
 C231 C 0.81426 0.77468 0.83464
 C232 C 0.79931 0.82598 0.80547
 C233 C 0.77748 0.80929 0.78276
 N234 N 0.77528 0.77621 0.78498
 H235 H 0.68285 0.76316 0.73790
 H236 H 0.76843 0.80055 0.69247
 H237 H 0.73873 0.83957 0.65238
 H238 H 0.65138 0.80177 0.69964
 H239 H 0.79000 0.73262 0.81232
 H240 H 0.82879 0.76037 0.85394
 H241 H 0.80159 0.85221 0.80246
 H242 H 0.76338 0.82268 0.76230
 C243 C 0.69142 0.67635 0.81803
 C244 C 0.82681 0.69895 0.67127
 C245 C 0.81872 0.80849 0.83093
 C246 C 0.69251 0.82411 0.67290
 C247 C 0.77235 0.21189 0.18708
 H248 H 0.74715 0.20757 0.18359
 C249 C 0.79418 0.19560 0.16384
 H250 H 0.78560 0.17830 0.14291
 C251 C 0.81416 0.23907 0.21929
 H252 H 0.82198 0.25655 0.24027
 C253 C 0.83672 0.22353 0.19664
 H254 H 0.86164 0.22906 0.20081
 N255 N 0.78270 0.23231 0.21501
 C256 C 0.70649 0.23210 0.29986
 H257 H 0.70372 0.25810 0.30431
 C258 C 0.68819 0.21010 0.32092
 H259 H 0.67141 0.21946 0.34158
 C260 C 0.73277 0.18847 0.26869
 H261 H 0.75063 0.18003 0.24896
 C262 C 0.71499 0.16561 0.28916
 H263 H 0.71883 0.13982 0.28405
 Zn264 Zn 0.75300 0.25261 0.24797
 N265 N 0.72796 0.22106 0.27396
 C266 C 0.69552 0.27933 0.21739
 N267 N 0.72778 0.28128 0.21794
 C268 C 0.74342 0.30367 0.19631
 C269 C 0.72655 0.32597 0.17389
 C270 C 0.67770 0.30107 0.19522
 C271 C 0.79479 0.25874 0.30921
 C272 C 0.81646 0.27466 0.33291
 C273 C 0.79674 0.32633 0.30919
 C274 C 0.77544 0.30943 0.28599
 N275 N 0.77582 0.27623 0.28525
 H276 H 0.68351 0.26100 0.23415
 H277 H 0.76913 0.30433 0.19674
 H278 H 0.73947 0.34359 0.15690
 H279 H 0.65201 0.29953 0.19572
 H280 H 0.79439 0.23233 0.30817
 H281 H 0.83271 0.26034 0.35012
 H282 H 0.79692 0.35278 0.30852
 H283 H 0.75957 0.32290 0.26756
 C284 C 0.69223 0.17631 0.31560
 C285 C 0.82691 0.20089 0.16906
 C286 C 0.81834 0.30887 0.33202
 C287 C 0.69321 0.32494 0.17325
 C288 C 0.25748 0.69778 0.20248
 H289 H 0.23178 0.69719 0.20202
 C290 C 0.27479 0.67587 0.18008
 H291 H 0.26218 0.65820 0.16282
 C292 C 0.30498 0.72141 0.22599
 H293 H 0.31666 0.73947 0.24350
 C294 C 0.32323 0.69988 0.20411
 H295 H 0.34889 0.70172 0.20501
 N296 N 0.27269 0.71969 0.22523
 C297 C 0.20510 0.74220 0.31584
 H298 H 0.20526 0.76861 0.31446
 C299 C 0.18450 0.72630 0.34084
 H300 H 0.16909 0.74061 0.35906
 C301 C 0.22460 0.69149 0.29306
 H302 H 0.24005 0.67801 0.27419
 C303 C 0.20453 0.67459 0.31780
 H304 H 0.20448 0.64814 0.31731
 Zn305 Zn 0.24693 0.74830 0.25468
 N306 N 0.22382 0.72468 0.29173
 C307 C 0.18593 0.76374 0.22563
 N308 N 0.21768 0.76866 0.22100
 C309 C 0.22891 0.78739 0.19200
 C310 C 0.20782 0.80348 0.16752
 C311 C 0.16406 0.77935 0.20192
 C312 C 0.29194 0.76925 0.30844
 C313 C 0.30922 0.79138 0.33058
 C314 C 0.28404 0.83553 0.29639
 C315 C 0.26722 0.81244 0.27505
 N316 N 0.27158 0.77998 0.28114
 H317 H 0.17733 0.74787 0.24787
 H318 H 0.25428 0.79025 0.18832
 H319 H 0.21720 0.81864 0.14490
 H320 H 0.13891 0.77603 0.20713
 H321 H 0.29475 0.74327 0.31309
 H322 H 0.32606 0.78097 0.35041
 H323 H 0.27820 0.86083 0.29120
 H324 H 0.25001 0.82068 0.25430
 C325 C 0.18360 0.69204 0.34145
 C326 C 0.30816 0.67656 0.18089
 C327 C 0.30573 0.82559 0.32520
 C328 C 0.17487 0.79995 0.17274
 O329 O 1.05583 -0.04794 0.07019
 O330 O 1.02657 -0.08416 0.03451
 C331 C 1.04789 -0.07722 0.06000
 O332 O 0.94165 0.04391 0.06819
 O333 O 0.97213 0.08021 0.03418
 C334 C 0.94973 0.07320 0.05815
 O335 O 0.94483 -0.04697 0.07250
 O336 O 0.97282 -0.08362 0.03588
 C337 C 0.95234 -0.07637 0.06213
 O338 O 1.05995 0.04294 0.06591
 O339 O 1.02911 0.07978 0.03294
 C340 C 1.05212 0.07235 0.05601
 Zr341 Zr 1.04029 -0.00223 0.04923
 O342 O 1.04106 0.00074 0.10946
 O343 O 1.09042 -0.00433 0.04582
 Zr344 Zr 0.96064 -0.00158 0.05116
 O345 O 0.96588 0.00007 0.11103
 O346 O 0.91052 -0.00354 0.05504
 O347 O 1.00037 -0.03133 0.05759
 O348 O 1.00073 0.02701 0.05712
 O349 O 1.05855 0.04280 -0.06344
 O350 O 1.02839 0.07974 -0.02992
 C351 C 1.05102 0.07225 -0.05341
 O352 O 0.94256 -0.04696 -0.06580
 O353 O 0.97155 -0.08368 -0.03036
 C354 C 0.95032 -0.07638 -0.05581
 O355 O 0.93976 0.04398 -0.06174
 O356 O 0.97112 0.08034 -0.02900
 C357 C 0.94805 0.07328 -0.05212
 O358 O 1.05403 -0.04788 -0.06787
 O359 O 1.02532 -0.08413 -0.03164
 C360 C 1.04602 -0.07717 -0.05774
 Zr361 Zr 1.03853 -0.00221 -0.04698
 O362 O 1.03516 0.00184 -0.10704
 O363 O 1.08863 -0.00547 -0.05042
 Zr364 Zr 0.95877 -0.00150 -0.04500
 O365 O 0.95774 0.00202 -0.10520
 O366 O 0.90862 -0.00281 -0.04142
 Zr367 Zr 0.99926 -0.05084 0.00205
 Zr368 Zr 0.99989 0.04727 0.00205
 O369 O 0.99877 0.02699 -0.05300
 O370 O 0.99834 -0.03125 -0.05354
 O371 O 1.04582 0.02671 0.00102
 O372 O 0.95360 -0.02990 0.00320
 O373 O 1.04517 -0.03066 0.00104
 O374 O 0.95368 0.02755 0.00318
 H375 H 1.00120 0.04200 0.07929
 H376 H 0.93460 -0.04417 0.00368
 H377 H 0.99858 0.04208 -0.07509
 H378 H 1.06400 -0.04523 0.00067
 H379 H 0.90208 0.00607 0.03120
 H380 H 0.90060 -0.00262 -0.06801
 H381 H 0.97059 -0.01624 -0.11540
 H382 H 1.02545 -0.01853 -0.11675
 H383 H 1.09716 0.00430 -0.02675
 H384 H 1.09838 -0.00454 0.07244
 H385 H 1.02557 -0.01542 0.11915
 H386 H 0.94404 0.00036 0.12157
 O387 O 0.94272 0.45370 0.43542
 O388 O 0.97188 0.41634 0.46984
 C389 C 0.95042 0.42411 0.44484
 O390 O 1.05953 0.54269 0.43838
 O391 O 1.02973 0.57938 0.47276
 C392 C 1.05222 0.57206 0.44897
 O393 O 1.05455 0.45224 0.43247
 O394 O 1.02609 0.41574 0.46868
 C395 C 1.04665 0.42288 0.44246
 O396 O 0.94027 0.54440 0.44112
 O397 O 0.97226 0.58023 0.47382
 C398 C 0.94891 0.57357 0.45096
 Zr399 Zr 0.96010 0.49874 0.45590
 O400 O 0.96568 0.50052 0.39610
 O401 O 0.91008 0.49834 0.44999
 Zr402 Zr 1.03931 0.49759 0.45436
 O403 O 1.03363 0.49994 0.39457
 O404 O 1.08937 0.49462 0.45003
 O405 O 0.99920 0.46863 0.44742
 O406 O 0.99994 0.52743 0.44869
 O407 O 0.94307 0.54301 0.57064
 O408 O 0.97343 0.57949 0.53682
 C409 C 0.95113 0.57235 0.56084
 O410 O 1.05659 0.45038 0.57060
 O411 O 1.02707 0.41474 0.53446
 C412 C 1.04845 0.42127 0.55997
 O413 O 1.06117 0.54131 0.56779
 O414 O 1.03041 0.57867 0.53554
 C415 C 1.05345 0.57087 0.55838
 O416 O 0.94482 0.45195 0.57256
 O417 O 0.97265 0.41556 0.53549
 C418 C 0.95207 0.42262 0.56170
 Zr419 Zr 0.96142 0.49758 0.55254
 O420 O 0.96489 0.50048 0.61268
 O421 O 0.91125 0.49521 0.55591
 Zr422 Zr 1.04113 0.49645 0.55061
 O423 O 1.04201 0.49927 0.61086
 O424 O 1.09126 0.49404 0.54714
 Zr425 Zr 0.99976 0.44859 0.50281
 Zr426 Zr 1.00097 0.54673 0.50417
 O427 O 1.00174 0.52576 0.55892
 O428 O 1.00101 0.46746 0.55870
 O429 O 0.95465 0.52707 0.50481
 O430 O 1.04578 0.46857 0.50197
 O431 O 0.95431 0.47008 0.50393
 O432 O 1.04677 0.52588 0.50282
 H433 H 0.99982 0.54295 0.42699
 H434 H 1.06459 0.45398 0.50129
 H435 H 1.00237 0.54051 0.58130
 H436 H 0.93516 0.45604 0.50412
 H437 H 1.09803 0.50274 0.47447
 H438 H 1.09923 0.49354 0.57374
 H439 H 1.02921 0.48089 0.62076
 H440 H 0.97420 0.47973 0.62195
 H441 H 0.90263 0.51105 0.53723
 H442 H 0.90124 0.49470 0.47569
 H443 H 0.94391 0.50197 0.38541
 H444 H 1.05540 0.50030 0.38383
 O445 O 0.54501 0.05998 0.56380
 O446 O 0.58006 0.03008 0.52759
 C447 C 0.57346 0.05185 0.55336
 O448 O 0.45631 -0.05804 0.56311
 O449 O 0.42021 -0.02680 0.52983
 C450 C 0.42756 -0.04973 0.55392
 O451 O 0.54453 -0.05548 0.56524
 O452 O 0.57981 -0.02661 0.52827
 C453 C 0.57305 -0.04790 0.55453
 O454 O 0.45695 0.06346 0.56189
 O455 O 0.42056 0.03140 0.53051
 C456 C 0.42813 0.05495 0.55358
 Zr457 Zr 0.50055 0.04289 0.54436
 O458 O 0.50063 0.03657 0.60414
 O459 O 0.50155 0.09429 0.55030
 Zr460 Zr 0.50021 -0.03859 0.54492
 O461 O 0.49991 -0.03348 0.60485
 O462 O 0.50213 -0.09016 0.54811
 O463 O 0.52936 0.00203 0.55137
 O464 O 0.47218 0.00238 0.55202
 O465 O 0.45473 0.06199 0.43073
 O466 O 0.41946 0.03164 0.46591
 C467 C 0.42624 0.05422 0.44127
 O468 O 0.54249 -0.05591 0.42662
 O469 O 0.57887 -0.02671 0.46165
 C470 C 0.57130 -0.04817 0.43598
 O471 O 0.45420 -0.05845 0.43208
 O472 O 0.41916 -0.02684 0.46625
 C473 C 0.42575 -0.04999 0.44221
 O474 O 0.54296 0.05881 0.42592
 O475 O 0.57909 0.02939 0.46126
 C476 C 0.57171 0.05074 0.43531
 Zr477 Zr 0.49904 0.04260 0.44795
 O478 O 0.49465 0.04065 0.38784
 O479 O 0.50216 0.09421 0.44642
 Zr480 Zr 0.49868 -0.03945 0.44894
 O481 O 0.49455 -0.04045 0.38880
 O482 O 0.49993 -0.09099 0.45273
 Zr483 Zr 0.54757 0.00167 0.49538
 Zr484 Zr 0.45169 0.00234 0.49730
 O485 O 0.47082 0.00173 0.44197
 O486 O 0.52738 0.00136 0.44030
 O487 O 0.47159 0.04960 0.49665
 O488 O 0.52717 -0.04523 0.49636
 O489 O 0.52738 0.04875 0.49551
 O490 O 0.47104 -0.04518 0.49750
 H491 H 0.45795 0.00252 0.57451
 H492 H 0.54104 -0.06482 0.49623
 H493 H 0.45607 0.00163 0.41992
 H494 H 0.54143 0.06813 0.49493
 H495 H 0.49150 -0.09856 0.52493
 H496 H 0.49953 -0.09925 0.42618
 H497 H 0.51150 -0.02635 0.37836
 H498 H 0.51373 0.02950 0.37771
 H499 H 0.48616 0.10289 0.46443
 H500 H 0.50601 0.10342 0.52481
 H501 H 0.49986 0.05884 0.61515
 H502 H 0.49942 -0.05597 0.61532
 O503 O 0.54479 0.55851 0.06593
 O504 O 0.57977 0.52934 0.02884
 C505 C 0.57321 0.55056 0.05522
 O506 O 0.45633 0.44051 0.06282
 O507 O 0.42014 0.47237 0.03048
 C508 C 0.42756 0.44904 0.05401
 O509 O 0.54470 0.44349 0.06472
 O510 O 0.57982 0.47343 0.02865
 C511 C 0.57317 0.45163 0.05436
 O512 O 0.45669 0.56208 0.06411
 O513 O 0.42027 0.53113 0.03125
 C514 C 0.42785 0.55400 0.05525
 Zr515 Zr 0.50033 0.54185 0.04611
 O516 O 0.50046 0.53462 0.10575
 O517 O 0.50135 0.59315 0.05312
 Zr518 Zr 0.50016 0.46025 0.04484
 O519 O 0.49993 0.46417 0.10490
 O520 O 0.50229 0.40864 0.04667
 O521 O 0.52915 0.50088 0.05211
 O522 O 0.47208 0.50113 0.05301
 O523 O 0.45429 0.56262 -0.06692
 O524 O 0.41915 0.53150 -0.03241
 C525 C 0.42583 0.55449 -0.05660
 O526 O 0.54223 0.44498 -0.07396
 O527 O 0.57856 0.47367 -0.03833
 C528 C 0.57104 0.45262 -0.06449
 O529 O 0.45394 0.44228 -0.06828
 O530 O 0.41900 0.47325 -0.03320
 C531 C 0.42553 0.45052 -0.05779
 O532 O 0.54275 0.55959 -0.07201
 O533 O 0.57889 0.52920 -0.03778
 C534 C 0.57151 0.55115 -0.06305
 Zr535 Zr 0.49873 0.54319 -0.05025
 O536 O 0.49426 0.54243 -0.11038
 O537 O 0.50179 0.59482 -0.05046
 Zr538 Zr 0.49843 0.46109 -0.05122
 O539 O 0.49414 0.46127 -0.11135
 O540 O 0.49979 0.40949 -0.04872
 Zr541 Zr 0.54724 0.50147 -0.00391
 Zr542 Zr 0.45155 0.50194 -0.00163
 O543 O 0.47055 0.50235 -0.05706
 O544 O 0.52704 0.50208 -0.05896
 O545 O 0.47135 0.54926 -0.00136
 O546 O 0.52703 0.45450 -0.00395
 O547 O 0.52714 0.54856 -0.00265
 O548 O 0.47092 0.45445 -0.00265
 H549 H 0.45780 0.50099 0.07544
 H550 H 0.54104 0.43503 -0.00446
 H551 H 0.45577 0.50257 -0.07907
 H552 H 0.54127 0.56788 -0.00286
 H553 H 0.49144 0.40065 0.02345
 H554 H 0.49921 0.40171 -0.07546
 H555 H 0.51133 0.47522 -0.12152
 H556 H 0.51314 0.53112 -0.12079
 H557 H 0.48562 0.60314 -0.03244
 H558 H 0.50590 0.60267 0.02785
 H559 H 0.49960 0.55672 0.11721
 H560 H 0.49963 0.44148 0.11475
 C561 C 1.11239 0.13897 0.10185
 C562 C 1.14183 0.12609 0.11286
 C563 C 1.16376 0.14559 0.13214
 C564 C 1.15649 0.17830 0.14070
 C565 C 1.12717 0.19133 0.12849
 C566 C 1.10521 0.17172 0.10922
 C567 C 1.08932 0.11772 0.08472
 C568 C 1.07129 0.09805 0.07124
 H569 H 1.14753 0.10069 0.10741
 H570 H 1.18587 0.13468 0.14163
 H571 H 1.12107 0.21656 0.13426
 H572 H 1.08248 0.18190 0.10076
 C573 C 1.11350 0.63759 0.60452
 C574 C 1.14271 0.62491 0.61666
 C575 C 1.16448 0.64489 0.63551
 C576 C 1.15727 0.67788 0.64252
 C577 C 1.12816 0.69066 0.62931
 C578 C 1.10637 0.67058 0.61044
 C579 C 1.09066 0.61607 0.58744
 C580 C 1.07272 0.59637 0.57388
 H581 H 1.14838 0.59934 0.61230
 H582 H 1.18644 0.63421 0.64583
 H583 H 1.12212 0.71608 0.63393
 H584 H 1.08384 0.68062 0.60106
 C585 C 0.63844 0.10962 0.60679
 C586 C 0.66540 0.09871 0.62651
 C587 C 0.68359 0.12073 0.64794
 C588 C 0.67490 0.15395 0.65013
 C589 C 0.64804 0.16470 0.62971
 C590 C 0.63000 0.14271 0.60826
 C591 C 0.61801 0.08703 0.58690
 C592 C 0.59890 0.06975 0.57101
 H593 H 0.67204 0.07313 0.62587
 H594 H 0.70394 0.11162 0.66362
 H595 H 0.64098 0.19015 0.63030
 H596 H 0.60914 0.15147 0.59321
 C597 C 0.63766 0.60711 0.11084
 C598 C 0.62707 0.63906 0.11723
 C599 C 0.64514 0.66059 0.13921
 C600 C 0.67415 0.65047 0.15542
 C601 C 0.68481 0.61833 0.14849
 C602 C 0.66666 0.59680 0.12635
 C603 C 0.61759 0.58490 0.08998
 C604 C 0.59862 0.56798 0.07341
 H605 H 0.60459 0.64729 0.10548
 H606 H 0.63643 0.68524 0.14329
 H607 H 0.70684 0.60956 0.16081
 H608 H 0.67502 0.57206 0.12178
 C609 C 0.89657 -0.14431 0.11298
 C610 C 0.86525 -0.14615 0.09964
 C611 C 0.84267 -0.16426 0.11965
 C612 C 0.85116 -0.18069 0.15339
 C613 C 0.88298 -0.17953 0.16589
 C614 C 0.90551 -0.16131 0.14587
 C615 C 0.91843 -0.12241 0.09482
 C616 C 0.93510 -0.10231 0.07983
 H617 H 0.85802 -0.13270 0.07444
 H618 H 0.81833 -0.16434 0.10952
 H619 H 0.89034 -0.19235 0.19144
 H620 H 0.92965 -0.15981 0.15660
 C621 C 0.89634 0.35388 0.61164
 C622 C 0.90494 0.33834 0.64545
 C623 C 0.88278 0.31956 0.66536
 C624 C 0.85099 0.31598 0.65208
 C625 C 0.84333 0.33130 0.61691
 C626 C 0.86569 0.34997 0.59717
 C627 C 0.91787 0.37625 0.59354
 C628 C 0.93452 0.39655 0.57884
 H629 H 0.92855 0.34165 0.65723
 H630 H 0.89063 0.31009 0.69250
 H631 H 0.82043 0.32847 0.60338
 H632 H 0.85883 0.36181 0.57076
 C633 C 0.36314 -0.10500 0.61147
 C634 C 0.37069 -0.11142 0.64961
 C635 C 0.35260 -0.13358 0.67069
 C636 C 0.32662 -0.14972 0.65392
 C637 C 0.31886 -0.14275 0.61570
 C638 C 0.33709 -0.12060 0.59458
 C639 C 0.38362 -0.08408 0.58944
 C640 C 0.40259 -0.06761 0.57232
 H641 H 0.39087 -0.09960 0.66295
 H642 H 0.35890 -0.13803 0.70018
 H643 H 0.29920 -0.15501 0.60188
 H644 H 0.33119 -0.11606 0.56498
 C645 C 0.36313 0.39361 0.11139
 C646 C 0.37028 0.38764 0.14974
 C647 C 0.35212 0.36556 0.17084
 C648 C 0.32647 0.34902 0.15387
 C649 C 0.31912 0.35552 0.11542
 C650 C 0.33742 0.37760 0.09429
 C651 C 0.38366 0.41451 0.08940
 C652 C 0.40262 0.43104 0.07233
 H653 H 0.39022 0.39977 0.16324
 H654 H 0.35810 0.36148 0.20049
 H655 H 0.29972 0.34294 0.10144
 H656 H 0.33185 0.38175 0.06452
 C657 C 0.88959 0.13854 -0.10383
 C658 C 0.88214 0.13066 -0.14155
 C659 C 0.85826 0.14765 -0.16078
 C660 C 0.84138 0.17282 -0.14252
 C661 C 0.84937 0.18107 -0.10476
 C662 C 0.87327 0.16385 -0.08543
 C663 C 0.91207 0.11845 -0.08367
 C664 C 0.92958 0.09917 -0.06839
 H665 H 0.89448 0.11097 -0.15597
 H666 H 0.85310 0.14119 -0.19007
 H667 H 0.83669 0.20031 -0.09001
 H668 H 0.87861 0.16986 -0.05605
 C669 C 0.89238 0.64255 0.40241
 C670 C 0.90239 0.65981 0.37020
 C671 C 0.88045 0.67770 0.34874
 C672 C 0.84815 0.67838 0.35913
 C673 C 0.83853 0.66199 0.39239
 C674 C 0.86053 0.64409 0.41382
 C675 C 0.91379 0.62033 0.42108
 C676 C 0.93066 0.59994 0.43541
 H677 H 0.92693 0.65860 0.36098
 H678 H 0.88863 0.69053 0.32361
 H679 H 0.81380 0.66183 0.40090
 H680 H 0.85248 0.63048 0.43848
 C681 C 0.35968 0.11039 0.38777
 C682 C 0.34620 0.10039 0.35338
 C683 C 0.32791 0.12211 0.33168
 C684 C 0.32266 0.15488 0.34365
 C685 C 0.33617 0.16403 0.37925
 C686 C 0.35438 0.14213 0.40076
 C687 C 0.38123 0.08914 0.40803
 C688 C 0.40082 0.07241 0.42395
 H689 H 0.35064 0.07598 0.34266
 H690 H 0.31989 0.11312 0.30441
 H691 H 0.33213 0.18771 0.39188
 H692 H 0.36466 0.15016 0.42749
 C693 C 0.35921 0.60993 -0.11085
 C694 C 0.35255 0.60323 -0.14914
 C695 C 0.33452 0.62516 -0.17081
 C696 C 0.32289 0.65424 -0.15451
 C697 C 0.32919 0.66045 -0.11576
 C698 C 0.34729 0.63847 -0.09414
 C699 C 0.38071 0.58909 -0.08999
 C700 C 0.40032 0.57256 -0.07386
 H701 H 0.36199 0.58144 -0.16253
 H702 H 0.33051 0.61981 -0.20064
 H703 H 0.32022 0.68234 -0.10217
 H704 H 0.35250 0.64406 -0.06460
 C705 C 1.10151 -0.14293 -0.11254
 C706 C 1.11981 -0.16638 -0.09339
 C707 C 1.14410 -0.18290 -0.11264
 C708 C 1.15054 -0.17572 -0.15106
 C709 C 1.13155 -0.15267 -0.17020
 C710 C 1.10723 -0.13638 -0.15104
 C711 C 1.07954 -0.12263 -0.09207
 C712 C 1.06292 -0.10317 -0.07586
 H713 H 1.11589 -0.17121 -0.06340
 H714 H 1.15848 -0.20048 -0.09725
 H715 H 1.13567 -0.14713 -0.19998
 H716 H 1.09343 -0.11801 -0.16601
 C717 C 1.10186 0.35710 0.38712
 C718 C 1.11952 0.33300 0.40603
 C719 C 1.14370 0.31628 0.38679
 C720 C 1.15064 0.32385 0.34859
 C721 C 1.13224 0.34755 0.32966
 C722 C 1.10805 0.36406 0.34883
 C723 C 1.08003 0.37752 0.40766
 C724 C 1.06350 0.39698 0.42403
 H725 H 1.11520 0.32778 0.43585
 H726 H 1.15760 0.29821 0.40206
 H727 H 1.13666 0.35344 0.30005
 H728 H 1.09472 0.38288 0.33404
 C729 C 0.63419 -0.10702 0.38086
 C730 C 0.62105 -0.13691 0.36962
 C731 C 0.63937 -0.15966 0.34968
 C732 C 0.67122 -0.15288 0.34058
 C733 C 0.68432 -0.12277 0.35208
 C734 C 0.66590 -0.09999 0.37211
 C735 C 0.61453 -0.08388 0.40093
 C736 C 0.59602 -0.06627 0.41730
 H737 H 0.59649 -0.14257 0.37608
 H738 H 0.62842 -0.18234 0.34081
 H739 H 0.70888 -0.11697 0.34593
 H740 H 0.67635 -0.07697 0.38071
 C741 C 0.63429 0.39503 -0.12112
 C742 C 0.66668 0.40108 -0.12685
 C743 C 0.68535 0.37852 -0.14693
 C744 C 0.67185 0.34958 -0.16145
 C745 C 0.63928 0.34385 -0.15552
 C746 C 0.62071 0.36638 -0.13554
 C747 C 0.61446 0.41772 -0.10048
 C748 C 0.59584 0.43492 -0.08366
 H749 H 0.67750 0.42310 -0.11573
 H750 H 0.71043 0.38349 -0.15062
 H751 H 0.62801 0.32212 -0.16676
 H752 H 0.59565 0.36145 -0.13139
 C753 C 1.11376 0.13666 -0.09831
 C754 C 1.10793 0.16904 -0.10869
 C755 C 1.13141 0.18707 -0.12747
 C756 C 1.16118 0.17283 -0.13665
 C757 C 1.16681 0.14037 -0.12458
 C758 C 1.14337 0.12260 -0.10573
 C759 C 1.08932 0.11678 -0.08168
 C760 C 1.07054 0.09774 -0.06848
 H761 H 1.08497 0.18009 -0.10321
 H762 H 1.12513 0.21144 -0.13672
 H763 H 1.18951 0.12852 -0.12892
 H764 H 1.14823 0.09759 -0.09737
 C765 C 1.11366 0.63797 0.40400
 C766 C 1.14539 0.62761 0.40375
 C767 C 1.16836 0.64571 0.38439
 C768 C 1.15989 0.67449 0.36500
 C769 C 1.12811 0.68531 0.36640
 C770 C 1.10510 0.66706 0.38571
 C771 C 1.08995 0.61719 0.42070
 C772 C 1.07158 0.59773 0.43394
 H773 H 1.15224 0.60506 0.41777
 H774 H 1.19268 0.63699 0.38414
 H775 H 1.12083 0.70718 0.35133
 H776 H 1.08057 0.67516 0.38550
 C777 C 0.63511 0.10768 0.37846
 C778 C 0.66729 0.10100 0.37192
 C779 C 0.68596 0.12325 0.35145
 C780 C 0.67264 0.15249 0.33734
 C781 C 0.64027 0.15884 0.34405
 C782 C 0.62172 0.13663 0.36443
 C783 C 0.61527 0.08525 0.39931
 C784 C 0.59660 0.06823 0.41622
 H785 H 0.67794 0.07870 0.38266
 H786 H 0.71088 0.11780 0.34712
 H787 H 0.62914 0.18079 0.33309
 H788 H 0.59680 0.14201 0.36916
 C789 C 0.63550 0.60871 -0.11828
 C790 C 0.62558 0.64109 -0.12260
 C791 C 0.64394 0.66330 -0.14324
 C792 C 0.67297 0.65372 -0.16033
 C793 C 0.68270 0.62078 -0.15532
 C794 C 0.66415 0.59863 -0.13458
 C795 C 0.61530 0.58606 -0.09821
 C796 C 0.59646 0.56886 -0.08180
 H797 H 0.60321 0.64912 -0.11049
 H798 H 0.63423 0.68754 -0.14699
 H799 H 0.70513 0.61194 -0.16620
 H800 H 0.67218 0.57362 -0.13130
 C801 C 0.89356 -0.14171 -0.10969
 C802 C 0.87499 -0.16474 -0.09039
 C803 C 0.85080 -0.18139 -0.10972
 C804 C 0.84476 -0.17481 -0.14841
 C805 C 0.86401 -0.15214 -0.16766
 C806 C 0.88821 -0.13573 -0.14842
 C807 C 0.91571 -0.12145 -0.08939
 C808 C 0.93271 -0.10213 -0.07349
 H809 H 0.87868 -0.16923 -0.06027
 H810 H 0.83626 -0.19868 -0.09423
 H811 H 0.86028 -0.14708 -0.19764
 H812 H 0.90229 -0.11777 -0.16355
 C813 C 0.89274 0.35979 0.39083
 C814 C 0.87687 0.33412 0.40903
 C815 C 0.85271 0.31725 0.38993
 C816 C 0.84402 0.32620 0.35261
 C817 C 0.86048 0.35170 0.33448
 C818 C 0.88463 0.36836 0.35349
 C819 C 0.91518 0.37968 0.41113
 C820 C 0.93245 0.39870 0.42706
 H821 H 0.88270 0.32760 0.43815
 H822 H 0.84033 0.29776 0.40457
 H823 H 0.85473 0.35870 0.30550
 H824 H 0.89660 0.38837 0.33927
 C825 C 0.35916 -0.10673 0.38985
 C826 C 0.34451 -0.09696 0.35601
 C827 C 0.32636 -0.11912 0.33481
 C828 C 0.32250 -0.15212 0.34670
 C829 C 0.33714 -0.16102 0.38176
 C830 C 0.35516 -0.13869 0.40279
 C831 C 0.38060 -0.08503 0.40957
 C832 C 0.40019 -0.06813 0.42517
 H833 H 0.34788 -0.07237 0.34531
 H834 H 0.31733 -0.11023 0.30792
 H835 H 0.33417 -0.18487 0.39440
 H836 H 0.36633 -0.14656 0.42910
 C837 C 0.35869 0.39490 -0.11111
 C838 C 0.35101 0.40138 -0.14920
 C839 C 0.33299 0.37901 -0.17021
 C840 C 0.32248 0.34970 -0.15343
 C841 C 0.32978 0.34375 -0.11486
 C842 C 0.34780 0.36616 -0.09391
 C843 C 0.38025 0.41610 -0.09092
 C844 C 0.39992 0.43267 -0.07505
 H845 H 0.35964 0.42334 -0.16297
 H846 H 0.32815 0.38420 -0.19992
 H847 H 0.32166 0.32170 -0.10090
 H848 H 0.35380 0.36074 -0.06454
 C849 C 1.10656 -0.14320 0.11015
 C850 C 1.13577 -0.12961 0.12064
 C851 C 1.15826 -0.14835 0.14011
 C852 C 1.15186 -0.18110 0.14939
 C853 C 1.12263 -0.19482 0.13802
 C854 C 1.10008 -0.17593 0.11853
 C855 C 1.08334 -0.12271 0.09182
 C856 C 1.06576 -0.10322 0.07701
 H857 H 1.14096 -0.10424 0.11436
 H858 H 1.18023 -0.13688 0.14897
 H859 H 1.11714 -0.22008 0.14437
 H860 H 1.07756 -0.18669 0.11043
 C861 C 1.10686 0.35482 0.60941
 C862 C 1.10051 0.32200 0.61738
 C863 C 1.12301 0.30313 0.63698
 C864 C 1.15203 0.31699 0.64883
 C865 C 1.15832 0.34983 0.63993
 C866 C 1.13590 0.36854 0.62036
 C867 C 1.08367 0.37536 0.59117
 C868 C 1.06616 0.39502 0.57657
 H869 H 1.07812 0.31114 0.60891
 H870 H 1.11765 0.27779 0.64305
 H871 H 1.18013 0.36139 0.64917
 H872 H 1.14098 0.39399 0.61440
 C873 C 0.63742 -0.10674 0.60767
 C874 C 0.66627 -0.09713 0.62411
 C875 C 0.68447 -0.11969 0.64490
 C876 C 0.67394 -0.15212 0.64964
 C877 C 0.64515 -0.16155 0.63250
 C878 C 0.62708 -0.13904 0.61175
 C879 C 0.61729 -0.08360 0.58809
 C880 C 0.59834 -0.06601 0.57229
 H881 H 0.67446 -0.07216 0.62136
 H882 H 0.70637 -0.11155 0.65805
 H883 H 0.63659 -0.18639 0.63506
 H884 H 0.60477 -0.14678 0.59920
 C885 C 0.63812 0.39352 0.10743
 C886 C 0.66519 0.40410 0.12710
 C887 C 0.68344 0.38174 0.14807
 C888 C 0.67468 0.34856 0.14983
 C889 C 0.64770 0.33817 0.12951
 C890 C 0.62960 0.36048 0.10851
 C891 C 0.61772 0.41636 0.08786
 C892 C 0.59859 0.43374 0.07208
 H893 H 0.67187 0.42965 0.12675
 H894 H 0.70390 0.39055 0.16372
 H895 H 0.64060 0.31275 0.12981
 H896 H 0.60865 0.35201 0.09351
 C897 C 0.89482 0.14283 0.10785
 C898 C 0.86799 0.15509 0.08895
 C899 C 0.84610 0.17456 0.10854
 C900 C 0.85081 0.18189 0.14730
 C901 C 0.87819 0.16992 0.16576
 C902 C 0.90000 0.15051 0.14615
 C903 C 0.91550 0.11998 0.08917
 C904 C 0.93188 0.09940 0.07455
 H905 H 0.86366 0.14902 0.05934
 H906 H 0.82542 0.18369 0.09348
 H907 H 0.88224 0.17464 0.19574
 H908 H 0.92044 0.14075 0.16117
 C909 C 0.89565 0.64135 0.61086
 C910 C 0.89987 0.64808 0.64957
 C911 C 0.87769 0.66719 0.66898
 C912 C 0.85090 0.67985 0.64990
 C913 C 0.84710 0.67339 0.61079
 C914 C 0.86937 0.65421 0.59140
 C915 C 0.91669 0.61882 0.59221
 C916 C 0.93326 0.59844 0.57750
 H917 H 0.91987 0.63784 0.66501
 H918 H 0.88101 0.67121 0.69922
 H919 H 0.82689 0.68305 0.59527
 H920 H 0.86576 0.64887 0.56146
 C921 C 0.36397 0.11230 0.60910
 C922 C 0.33764 0.10040 0.62908
 C923 C 0.31926 0.12160 0.65136
 C924 C 0.32712 0.15496 0.65412
 C925 C 0.35340 0.16670 0.63353
 C926 C 0.37165 0.14552 0.61123
 C927 C 0.38446 0.09046 0.58823
 C928 C 0.40333 0.07337 0.57170
 H929 H 0.33164 0.07469 0.62796
 H930 H 0.29938 0.11174 0.66716
 H931 H 0.35980 0.19230 0.63457
 H932 H 0.39206 0.15500 0.59603
 C933 C 0.36399 0.60925 0.11421
 C934 C 0.37311 0.61717 0.15146
 C935 C 0.35488 0.63883 0.17315
 C936 C 0.32715 0.65302 0.15790
 C937 C 0.31790 0.64461 0.12056
 C938 C 0.33627 0.62295 0.09883
 C939 C 0.38427 0.58847 0.09159
 C940 C 0.40305 0.57200 0.07403
 H941 H 0.39456 0.60682 0.16367
 H942 H 0.36240 0.64436 0.20195
 H943 H 0.29687 0.65535 0.10784
 H944 H 0.32909 0.61725 0.06993
   
