data_POSCAR
  _audit_creation_date              2014-09-24
  _audit_creation_method            'ToBaCCo'
  _symmetry_space_group_name_H-M    'P1'
  _symmetry_Int_Tables_number       1
  _symmetry_cell_setting            triclinic
  loop_
  _symmetry_equiv_pos_as_xyz
 x,y,z
_cell_length_a 24.2860
_cell_length_b 24.2505
_cell_length_c 16.0297
_cell_angle_alpha 90.006000
_cell_angle_beta 89.902500
_cell_angle_gamma 90.408600
loop_
  _atom_site_label
  _atom_site_type_symbol
  _atom_site_fract_x
  _atom_site_fract_y
  _atom_site_fract_z
O1 O -0.05733 0.31948 0.07508
 O2 O 0.05516 0.31565 -0.08096
 O3 O -0.05317 0.30703 -0.08826
 O4 O 0.05208 0.30667 0.08304
 O5 O 0.04415 0.21650 0.08822
 O6 O -0.05086 0.21653 -0.08685
 O7 O 0.05524 0.22507 -0.07039
 O8 O -0.06122 0.22859 0.07230
 Cu9 Cu -0.00073 0.32122 -0.00273
 Cu10 Cu -0.00347 0.21313 0.00098
 C11 C -0.08029 0.27456 0.09661
 C12 C 0.07617 0.26944 -0.09909
 C13 C -0.06998 0.26067 -0.11687
 C14 C 0.06670 0.26037 0.11419
 O15 O 0.55696 0.81128 0.42078
 O16 O 0.44651 0.81030 0.58243
 O17 O 0.55560 0.80995 0.58384
 O18 O 0.44835 0.80885 0.41943
 O19 O 0.44802 0.71857 0.42422
 O20 O 0.55630 0.71967 0.58012
 O21 O 0.44923 0.71987 0.58338
 O22 O 0.55466 0.72079 0.42088
 Cu23 Cu 0.50183 0.81938 0.50177
 Cu24 Cu 0.50208 0.71087 0.50229
 C25 C 0.57498 0.76556 0.39339
 C26 C 0.42843 0.76436 0.60995
 C27 C 0.57546 0.76451 0.60871
 C28 C 0.42891 0.76291 0.39477
 O29 O 0.94526 0.68366 -0.08046
 O30 O 1.05848 0.68010 0.07363
 O31 O 0.94888 0.69334 0.08300
 O32 O 1.05337 0.69327 -0.09024
 O33 O 1.05223 0.78366 -0.08653
 O34 O 0.95633 0.78354 0.08766
 O35 O 1.06176 0.77102 0.07242
 O36 O 0.94547 0.77427 -0.07057
 Cu37 Cu 1.00157 0.67867 -0.00341
 Cu38 Cu 1.00431 0.78659 0.00081
 C39 C 0.92422 0.72982 -0.09855
 C40 C 1.08110 0.72501 0.09593
 C41 C 0.93394 0.73966 0.11388
 C42 C 1.07101 0.73969 -0.11781
 O43 O 0.55287 0.18958 0.58247
 O44 O 0.44277 0.18850 0.42082
 O45 O 0.55143 0.19155 0.41963
 O46 O 0.44415 0.19032 0.58427
 O47 O 0.44351 0.28059 0.58100
 O48 O 0.55148 0.28184 0.42403
 O49 O 0.44481 0.27899 0.42141
 O50 O 0.55024 0.28004 0.58306
 Cu51 Cu 0.49776 0.18069 0.50181
 Cu52 Cu 0.49740 0.28923 0.50240
 C53 C 0.57087 0.23556 0.60985
 C54 C 0.42470 0.23422 0.39364
 C55 C 0.57082 0.23750 0.39484
 C56 C 0.42463 0.23572 0.60998
 O57 O 0.69217 -0.05056 0.08486
 O58 O 0.69086 0.05234 -0.09046
 O59 O 0.68340 -0.05627 -0.07759
 O60 O 0.67933 0.05897 0.07305
 O61 O 0.77016 0.06148 0.07292
 O62 O 0.77420 -0.05217 -0.07516
 O63 O 0.78096 0.05367 -0.08581
 O64 O 0.78225 -0.04464 0.08556
 Cu65 Cu 0.67748 0.00103 -0.00230
 Cu66 Cu 0.78544 0.00476 -0.00015
 C67 C 0.73852 -0.06607 0.11420
 C68 C 0.73679 0.07113 -0.11792
 C69 C 0.72978 -0.07476 -0.10010
 C70 C 0.72423 0.08123 0.09581
 O71 O 0.19038 0.55195 0.42028
 O72 O 0.18938 0.44434 0.58478
 O73 O 0.18845 0.55331 0.58334
 O74 O 0.18756 0.44318 0.42120
 O75 O 0.27780 0.44579 0.42060
 O76 O 0.27860 0.55027 0.58502
 O77 O 0.27949 0.44339 0.58040
 O78 O 0.28050 0.55259 0.42571
 Cu79 Cu 0.17968 0.49815 0.50247
 Cu80 Cu 0.28793 0.49794 0.50294
 C81 C 0.23630 0.57165 0.39602
 C82 C 0.23476 0.42458 0.60979
 C83 C 0.23413 0.57099 0.61182
 C84 C 0.23311 0.42552 0.39291
 O85 O 0.30781 0.94690 -0.09128
 O86 O 0.30787 1.05141 0.08190
 O87 O 0.32078 0.94167 0.07240
 O88 O 0.31639 1.05509 -0.08191
 O89 O 0.22593 1.05449 -0.07116
 O90 O 0.23001 0.93805 0.07156
 O91 O 0.21796 1.04361 0.08765
 O92 O 0.21769 0.94780 -0.08744
 Cu93 Cu 0.32215 0.99877 -0.00467
 Cu94 Cu 0.21437 0.99564 0.00037
 C95 C 0.26165 0.92928 -0.11920
 C96 C 0.26182 1.06601 0.11381
 C97 C 0.27602 0.91881 0.09479
 C98 C 0.27012 1.07582 -0.09982
 O99 O 0.80967 0.44819 0.41971
 O100 O 0.81090 0.55548 0.58446
 O101 O 0.81096 0.44664 0.58258
 O102 O 0.81235 0.55691 0.42078
 O103 O 0.72210 0.55442 0.42032
 O104 O 0.72078 0.44993 0.58442
 O105 O 0.72079 0.55666 0.58019
 O106 O 0.71954 0.44768 0.42529
 Cu107 Cu 0.82025 0.50186 0.50190
 Cu108 Cu 0.71195 0.50232 0.50257
 C109 C 0.76377 0.42854 0.39558
 C110 C 0.76552 0.57524 0.60970
 C111 C 0.76516 0.42907 0.61104
 C112 C 0.76686 0.57460 0.39255
 C113 C 0.11453 0.15282 0.18136
 C114 C 0.15435 0.11294 0.18230
 C115 C 0.20485 0.13992 0.18244
 N116 N 0.19663 0.19526 0.18231
 C117 C 0.14142 0.20346 0.18095
 C118 C 0.25726 0.11387 0.17418
 C119 C 0.30445 0.13529 0.21611
 C120 C 0.35501 0.10941 0.22431
 C121 C 0.38757 0.14289 0.27398
 C122 C 0.35640 0.18868 0.29431
 N123 N 0.30586 0.18299 0.26003
 C124 C 0.37611 0.23660 0.33600
 C125 C 0.35001 0.28830 0.32565
 C126 C 0.37720 0.33857 0.31891
 C127 C 0.33756 0.37844 0.31769
 C128 C 0.28726 0.35142 0.32361
 N129 N 0.29498 0.29628 0.32791
 C130 C 0.23562 0.37756 0.33337
 C131 C 0.18784 0.35630 0.29273
 C132 C 0.13710 0.38207 0.28594
 C133 C 0.10420 0.34877 0.23656
 C134 C 0.13529 0.30320 0.21509
 N135 N 0.18614 0.30880 0.24831
 C136 C 0.11518 0.25582 0.17263
 H137 H 0.07068 0.14492 0.18371
 H138 H 0.14654 0.06902 0.18516
 H139 H 0.21894 0.28280 0.23746
 H140 H 0.36736 0.06991 0.19969
 H141 H 0.43018 0.13527 0.28939
 H142 H 0.42105 0.34589 0.31326
 H143 H 0.34502 0.42229 0.31135
 H144 H 0.06149 0.35634 0.22167
 H145 H 0.27324 0.20943 0.26931
 H146 H 0.12474 0.42142 0.31103
 C147 C 0.62285 0.66127 0.31856
 C148 C 0.66257 0.62146 0.31712
 C149 C 0.71283 0.64854 0.32309
 N150 N 0.70501 0.70365 0.32764
 C151 C 0.64997 0.71156 0.32544
 C152 C 0.76447 0.62247 0.33292
 C153 C 0.81235 0.64373 0.29231
 C154 C 0.86315 0.61802 0.28571
 C155 C 0.89618 0.65133 0.23637
 C156 C 0.86510 0.69683 0.21475
 N157 N 0.81413 0.69118 0.24780
 C158 C 0.88532 0.74420 0.17232
 C159 C 0.85906 0.79658 0.18069
 C160 C 0.88591 0.84727 0.18067
 C161 C 0.84607 0.88711 0.18163
 C162 C 0.79560 0.86009 0.18233
 N163 N 0.80385 0.80476 0.18246
 C164 C 0.74321 0.88616 0.17462
 C165 C 0.69602 0.86487 0.21701
 C166 C 0.64567 0.89106 0.22620
 C167 C 0.61293 0.85744 0.27548
 C168 C 0.64380 0.81129 0.29476
 N169 N 0.69434 0.81688 0.26012
 C170 C 0.62380 0.76323 0.33589
 H171 H 0.57903 0.65389 0.31293
 H172 H 0.65519 0.57760 0.31068
 H173 H 0.72672 0.79005 0.26831
 H174 H 0.87549 0.57871 0.31090
 H175 H 0.93896 0.64381 0.22164
 H176 H 0.92975 0.85523 0.18270
 H177 H 0.85379 0.93106 0.18408
 H178 H 0.57040 0.86529 0.29128
 H179 H 0.78128 0.71707 0.23678
 H180 H 0.63350 0.93086 0.20258
 C181 C 0.61763 0.34336 0.32060
 C182 C 0.65797 0.38321 0.32055
 C183 C 0.70792 0.35597 0.32399
 N184 N 0.69940 0.30077 0.32494
 C185 C 0.64415 0.29299 0.32395
 C186 C 0.76027 0.38091 0.33646
 C187 C 0.80734 0.35765 0.29789
 C188 C 0.86261 0.37166 0.30939
 C189 C 0.89268 0.34132 0.25237
 C190 C 0.85512 0.30959 0.20863
 N191 N 0.80378 0.32006 0.23615
 C192 C 0.86647 0.27397 0.14182
 C193 C 0.82645 0.23635 0.11343
 C194 C 0.82404 0.21584 0.03328
 C195 C 0.78397 0.17648 0.03298
 C196 C 0.76315 0.17412 0.11301
 N197 N 0.78868 0.21127 0.16272
 C198 C 0.72502 0.13441 0.14100
 C199 C 0.68931 0.14581 0.20763
 C200 C 0.65695 0.10830 0.25063
 C201 C 0.62666 0.13843 0.30761
 C202 C 0.64139 0.19367 0.29690
 N203 N 0.67930 0.19717 0.23555
 C204 C 0.61854 0.24084 0.33581
 H205 H 0.57381 0.35083 0.31744
 H206 H 0.65112 0.42720 0.31744
 H207 H 0.69381 0.23348 0.20822
 H208 H 0.88058 0.40066 0.35266
 H209 H 0.93692 0.34258 0.24413
 H210 H 0.84839 0.22836 -0.01932
 H211 H 0.77122 0.15257 -0.01994
 H212 H 0.59718 0.12051 0.35024
 H213 H 0.76747 0.30613 0.20837
 H214 H 0.65519 0.06406 0.24184
 C215 C 0.34219 0.61708 0.32077
 C216 C 0.38247 0.65699 0.32055
 C217 C 0.35587 0.70733 0.32380
 N218 N 0.30063 0.69948 0.32494
 C219 C 0.29220 0.64425 0.32423
 C220 C 0.38140 0.75952 0.33557
 C221 C 0.35872 0.80661 0.29632
 C222 C 0.37339 0.86187 0.30683
 C223 C 0.34329 0.89189 0.24962
 C224 C 0.31111 0.85429 0.20663
 N225 N 0.32105 0.80298 0.23483
 C226 C 0.27551 0.86555 0.13993
 C227 C 0.23754 0.82567 0.11205
 C228 C 0.21689 0.82316 0.03202
 C229 C 0.17688 0.78371 0.03246
 C230 C 0.17433 0.76329 0.11265
 N231 N 0.21195 0.78852 0.16186
 C232 C 0.13427 0.72563 0.14112
 C233 C 0.14542 0.69011 0.20810
 C234 C 0.10774 0.65833 0.25175
 C235 C 0.13764 0.62814 0.30902
 C236 C 0.19292 0.64230 0.29781
 N237 N 0.19666 0.67982 0.23594
 C238 C 0.23987 0.61924 0.33673
 H239 H 0.34912 0.57309 0.31779
 H240 H 0.42631 0.64960 0.31733
 H241 H 0.23304 0.69382 0.20831
 H242 H 0.40271 0.87985 0.34954
 H243 H 0.34505 0.93611 0.24069
 H244 H 0.22970 0.84704 -0.02098
 H245 H 0.15270 0.77104 -0.02010
 H246 H 0.11959 0.59912 0.35227
 H247 H 0.30663 0.76659 0.20768
 H248 H 0.06355 0.65692 0.24324
 C249 C 0.84264 0.11437 0.80639
 C250 C 0.88284 0.15447 0.80813
 C251 C 0.85621 0.20475 0.81213
 N252 N 0.80103 0.19634 0.81291
 C253 C 0.79236 0.14111 0.80992
 C254 C 0.88265 0.25689 0.82286
 C255 C 0.86271 0.30484 0.78265
 C256 C 0.89385 0.35116 0.76304
 C257 C 0.86074 0.38514 0.71589
 C258 C 0.80988 0.35892 0.70846
 N259 N 0.81169 0.31055 0.75042
 C260 C 0.76203 0.38045 0.66925
 C261 C 0.71006 0.35394 0.67845
 C262 C 0.65995 0.38065 0.68401
 C263 C 0.61994 0.34057 0.68257
 C264 C 0.64666 0.29041 0.67615
 N265 N 0.70178 0.29872 0.67437
 C266 C 0.62004 0.23849 0.66633
 C267 C 0.63970 0.19053 0.70713
 C268 C 0.60796 0.14502 0.72882
 C269 C 0.64076 0.11121 0.77670
 C270 C 0.69216 0.13663 0.78268
 N271 N 0.69084 0.18437 0.73875
 C272 C 0.74000 0.11511 0.82255
 H273 H 0.84973 0.07042 0.80281
 H274 H 0.92671 0.14726 0.80529
 H275 H 0.72383 0.21046 0.72731
 H276 H 0.93669 0.35891 0.77756
 H277 H 0.87308 0.42519 0.69281
 H278 H 0.65279 0.42442 0.69060
 H279 H 0.57618 0.34774 0.68830
 H280 H 0.62775 0.07173 0.80121
 H281 H 0.77890 0.28395 0.76036
 H282 H 0.56488 0.13777 0.71541
 C283 C 0.11536 0.84582 0.80693
 C284 C 0.15555 0.88598 0.80542
 C285 C 0.20579 0.85925 0.80909
 N286 N 0.19711 0.80401 0.81232
 C287 C 0.14194 0.79546 0.81147
 C288 C 0.25815 0.88527 0.82134
 C289 C 0.30606 0.86372 0.78137
 C290 C 0.35722 0.88955 0.77441
 C291 C 0.39027 0.85561 0.72702
 C292 C 0.35891 0.80964 0.70641
 N293 N 0.30773 0.81564 0.73835
 C294 C 0.37898 0.76152 0.66630
 C295 C 0.35237 0.70960 0.67646
 C296 C 0.37910 0.65946 0.68301
 C297 C 0.33908 0.61938 0.68496
 C298 C 0.28897 0.64607 0.67956
 N299 N 0.29723 0.70127 0.67511
 C300 C 0.23703 0.61957 0.67031
 C301 C 0.18908 0.64112 0.70960
 C302 C 0.13801 0.61520 0.71596
 C303 C 0.10475 0.64905 0.76317
 C304 C 0.13599 0.69507 0.78421
 N305 N 0.18726 0.68922 0.75246
 C306 C 0.11570 0.74319 0.82431
 H307 H 0.07148 0.85305 0.80429
 H308 H 0.14848 0.92992 0.80185
 H309 H 0.22023 0.71544 0.76342
 H310 H 0.36986 0.92940 0.79787
 H311 H 0.43327 0.86316 0.71322
 H312 H 0.42286 0.65230 0.68851
 H313 H 0.34624 0.57562 0.69165
 H314 H 0.06167 0.64150 0.77652
 H315 H 0.27493 0.78914 0.72801
 H316 H 0.12551 0.57547 0.69191
 C317 C 0.37896 0.33996 0.68830
 C318 C 0.33903 0.37965 0.68817
 C319 C 0.28888 0.35221 0.68293
 N320 N 0.29683 0.29707 0.68080
 C321 C 0.35195 0.28953 0.68314
 C322 C 0.23705 0.37704 0.66940
 C323 C 0.18930 0.35366 0.70684
 C324 C 0.13464 0.36911 0.69569
 C325 C 0.10333 0.33800 0.75041
 C326 C 0.13950 0.30431 0.79276
 N327 N 0.19134 0.31430 0.76638
 C328 C 0.12583 0.26619 0.85579
 C329 C 0.16365 0.22561 0.88094
 C330 C 0.16567 0.20439 0.96073
 C331 C 0.20484 0.16517 0.96062
 C332 C 0.22597 0.16325 0.88072
 N333 N 0.20155 0.20121 0.83131
 C334 C 0.26663 0.12557 0.85531
 C335 C 0.30477 0.13958 0.79244
 C336 C 0.33875 0.10359 0.75008
 C337 C 0.36982 0.13517 0.69569
 C338 C 0.35401 0.18982 0.70696
 N339 N 0.31452 0.19157 0.76634
 C340 C 0.37715 0.23779 0.66972
 H341 H 0.42285 0.34750 0.69222
 H342 H 0.34621 0.42367 0.69199
 H343 H 0.29828 0.22703 0.79334
 H344 H 0.11774 0.39956 0.65418
 H345 H 0.05904 0.33970 0.75749
 H346 H 0.14229 0.21707 1.01404
 H347 H 0.21755 0.14177 1.01390
 H348 H 0.40051 0.11843 0.65436
 H349 H 0.22684 0.29832 0.79331
 H350 H 0.34071 0.05925 0.75699
 C351 C 0.62134 0.66017 0.68650
 C352 C 0.66117 0.62037 0.68782
 C353 C 0.71145 0.64760 0.68270
 N354 N 0.70369 0.70271 0.67918
 C355 C 0.64856 0.71046 0.68056
 C356 C 0.76322 0.62251 0.66972
 C357 C 0.81090 0.64546 0.70777
 C358 C 0.86553 0.62975 0.69687
 C359 C 0.89676 0.66066 0.75182
 C360 C 0.86059 0.69446 0.79419
 N361 N 0.80878 0.68467 0.76755
 C362 C 0.87437 0.73284 0.85696
 C363 C 0.83656 0.77358 0.88176
 C364 C 0.83487 0.79626 0.96070
 C365 C 0.79508 0.83502 0.95986
 C366 C 0.77336 0.83509 0.88046
 N367 N 0.79815 0.79680 0.83208
 C368 C 0.73384 0.87297 0.85281
 C369 C 0.69769 0.86004 0.78739
 C370 C 0.66449 0.89648 0.74482
 C371 C 0.63309 0.86518 0.69046
 C372 C 0.64783 0.81029 0.70247
 N373 N 0.68716 0.80818 0.76177
 C374 C 0.62365 0.76235 0.66684
 H375 H 0.57742 0.65276 0.69027
 H376 H 0.65385 0.57640 0.69239
 H377 H 0.70206 0.77262 0.79012
 H378 H 0.88245 0.59932 0.65526
 H379 H 0.94103 0.65883 0.75889
 H380 H 0.85903 0.78513 1.01388
 H381 H 0.78287 0.85971 1.01211
 H382 H 0.60265 0.88214 0.64905
 H383 H 0.77313 0.70072 0.79412
 H384 H 0.66277 0.94079 0.75247
   
