data_POSCAR
  _audit_creation_date              2014-09-24
  _audit_creation_method            'ToBaCCo'
  _symmetry_space_group_name_H-M    'P1'
  _symmetry_Int_Tables_number       1
  _symmetry_cell_setting            triclinic
  loop_
  _symmetry_equiv_pos_as_xyz
 x,y,z
_cell_length_a 23.5666
_cell_length_b 23.6456
_cell_length_c 29.6597
_cell_angle_alpha 89.989800
_cell_angle_beta 90.060800
_cell_angle_gamma 120.124000
loop_
  _atom_site_label
  _atom_site_type_symbol
  _atom_site_fract_x
  _atom_site_fract_y
  _atom_site_fract_z
C1 C 0.03442 0.52297 1.29329
 C2 C -0.03599 0.48104 1.29360
 C3 C -0.06660 0.45557 1.25153
 C4 C -0.03688 0.48063 1.20926
 C5 C 0.03314 0.52356 1.20902
 C6 C 0.06410 0.54823 1.25096
 H7 H 0.11480 0.58723 1.25060
 H8 H -0.11710 0.41600 1.25179
 C9 C 0.51393 0.48022 1.20784
 C10 C 0.47296 0.50890 1.20709
 C11 C 0.46063 0.52930 1.24884
 C12 C 0.47991 0.51756 1.29140
 C13 C 0.50598 0.47399 1.29207
 C14 C 0.52447 0.45974 1.25016
 H15 H 0.54913 0.43187 1.25047
 H16 H 0.43424 0.55543 1.24792
 C17 C 0.48999 0.96544 1.29413
 C18 C 0.52120 1.03579 1.29400
 C19 C 0.54366 1.06703 1.25172
 C20 C 0.52796 1.03500 1.20948
 C21 C 0.48251 0.96571 1.20958
 C22 C 0.46804 0.93385 1.25184
 H23 H 0.43894 0.88136 1.25195
 H24 H 0.57377 1.11939 1.25180
 C25 C 0.96601 0.49099 0.70728
 C26 C 1.03612 0.52126 0.70699
 C27 C 1.06855 0.54345 0.74879
 C28 C 1.03707 0.52999 0.79132
 C29 C 0.96725 0.48511 0.79157
 C30 C 0.93462 0.47093 0.74952
 H31 H 0.88192 0.44295 0.74958
 H32 H 1.12125 0.57176 0.74797
 C33 C 0.47697 0.51177 0.79286
 C34 C 0.51815 0.48315 0.79302
 C35 C 0.54229 0.47635 0.75106
 C36 C 0.51797 0.48266 0.70904
 C37 C 0.47686 0.51135 0.70891
 C38 C 0.45251 0.51789 0.75080
 H39 H 0.41468 0.53106 0.75067
 H40 H 0.58010 0.46315 0.75111
 C41 C 0.48850 -0.03730 0.79225
 C42 C 0.51580 0.03243 0.79252
 C43 C 0.52166 0.06324 0.75067
 C44 C 0.51646 0.03329 0.70864
 C45 C 0.48959 -0.03613 0.70830
 C46 C 0.48430 -0.06691 0.75004
 H47 H 0.47297 -0.11731 0.74949
 H48 H 0.53382 0.11389 0.75084
 O49 O 0.42809 0.66545 0.95051
 O50 O 0.43432 0.77769 0.95993
 C51 C 0.39539 0.79066 0.93880
 O52 O 0.33541 0.76635 0.94905
 O53 O 0.22227 0.66127 0.95878
 C54 C 0.20820 0.60848 0.93879
 O55 O 0.23257 0.57338 0.94967
 O56 O 0.33867 0.56713 0.95863
 C57 C 0.39232 0.60606 0.93916
 O58 O 0.42829 0.65259 1.04080
 O59 O 0.43045 0.76304 1.05042
 C60 C 0.39859 0.79144 1.06031
 O61 O 0.34736 0.78127 1.03942
 O62 O 0.23649 0.67335 1.04911
 C63 C 0.20890 0.61359 1.06023
 O64 O 0.21950 0.57214 1.04038
 O65 O 0.32687 0.56812 1.04887
 C66 C 0.38671 0.60006 1.06009
 Cr67 Cr 0.42620 0.71281 1.00041
 Cr68 Cr 0.28737 0.71841 0.99912
 Cr69 Cr 0.28147 0.57428 0.99939
 O70 O 0.33169 0.66842 0.99973
 O71 O 0.57027 0.33266 0.95153
 O72 O 0.56844 0.22239 0.96009
 C73 C 0.60845 0.21084 0.93921
 O74 O 0.66857 0.23687 0.94959
 O75 O 0.77932 0.34462 0.95937
 C76 C 0.79222 0.39773 0.94037
 O77 O 0.76653 0.43134 0.95204
 O78 O 0.65760 0.43235 0.96037
 C79 C 0.60471 0.39233 0.94045
 O80 O 0.56869 0.34345 1.04187
 O81 O 0.57139 0.23536 1.05061
 C82 C 0.60541 0.20922 1.06058
 O83 O 0.65744 0.22164 1.03988
 O84 O 0.76616 0.33161 1.04969
 C85 C 0.79121 0.39079 1.06179
 O86 O 0.77824 0.43117 1.04282
 O87 O 0.66833 0.43032 1.05085
 C88 C 0.60849 0.39629 1.06163
 Cr89 Cr 0.57382 0.28550 1.00103
 Cr90 Cr 0.71576 0.28577 0.99968
 Cr91 Cr 0.71569 0.42717 1.00148
 O92 O 0.66844 0.33289 1.00078
 O93 O 0.65188 0.43143 0.53881
 O94 O 0.76181 0.43259 0.54813
 C95 C 0.78874 0.40003 0.55960
 O96 O 0.77741 0.34757 0.54007
 O97 O 0.66791 0.23886 0.55164
 C98 C 0.60770 0.21118 0.56188
 O99 O 0.56667 0.22090 0.54064
 O100 O 0.56808 0.33060 0.55094
 C101 C 0.60139 0.39085 0.56073
 O102 O 0.66298 0.42693 0.44839
 O103 O 0.77461 0.43151 0.45774
 C104 C 0.78745 0.39127 0.43846
 O105 O 0.76145 0.33176 0.44990
 O106 O 0.65334 0.22109 0.46132
 C107 C 0.60138 0.20905 0.44034
 O108 O 0.56732 0.23505 0.45050
 O109 O 0.56305 0.34214 0.46077
 C110 C 0.60241 0.39348 0.43938
 Cr111 Cr 0.71083 0.42662 0.49830
 Cr112 Cr 0.71296 0.28673 0.50068
 Cr113 Cr 0.57031 0.28424 0.50067
 O114 O 0.66480 0.33258 0.49983
 O115 O 0.34384 0.56504 0.53870
 O116 O 0.23660 0.56909 0.54772
 C117 C 0.21143 0.60348 0.55853
 O118 O 0.22445 0.65601 0.53835
 O119 O 0.33625 0.76239 0.54978
 C120 C 0.39620 0.78792 0.56042
 O121 O 0.43608 0.77605 0.53964
 O122 O 0.43039 0.66443 0.54995
 C123 C 0.39539 0.60456 0.56016
 O124 O 0.33272 0.56885 0.44832
 O125 O 0.22352 0.56924 0.45729
 C126 C 0.21268 0.61049 0.43742
 O127 O 0.24090 0.67042 0.44819
 O128 O 0.35125 0.77913 0.45953
 C129 C 0.40300 0.78964 0.43905
 O130 O 0.43514 0.76174 0.44949
 O131 O 0.43411 0.65204 0.45967
 C132 C 0.39317 0.60078 0.43877
 Cr133 Cr 0.28629 0.57207 0.49801
 Cr134 Cr 0.29017 0.71495 0.49893
 Cr135 Cr 0.42988 0.71157 0.49964
 O136 O 0.33539 0.66618 0.49877
 C137 C 0.46153 0.54236 0.33074
 C138 C 0.50615 0.56257 0.37276
 C139 C 0.48211 0.57889 0.40922
 C140 C 0.41775 0.57845 0.39979
 C141 C 0.43320 0.62275 0.35860
 C142 C 0.45745 0.60535 0.32301
 C143 C 0.39209 0.49136 0.34648
 C144 C 0.36978 0.50951 0.38255
 H145 H 0.55601 0.57216 0.37266
 H146 H 0.51036 0.59802 0.44001
 H147 H 0.42980 0.66662 0.35854
 H148 H 0.47819 0.63784 0.29429
 H149 H 0.36270 0.44403 0.33041
 H150 H 0.32177 0.47756 0.39704
 C151 C 0.47180 0.92182 0.33348
 C152 C 0.40052 0.89861 0.34747
 C153 C 0.37799 0.85595 0.38239
 C154 C 0.42777 0.83788 0.40056
 C155 C 0.44835 0.81351 0.35925
 C156 C 0.47264 0.85737 0.32485
 C157 C 0.51332 0.94593 0.37706
 C158 C 0.48917 0.90309 0.41227
 H159 H 0.36978 0.91436 0.33073
 H160 H 0.32827 0.83557 0.39495
 H161 H 0.44971 0.76856 0.35859
 H162 H 0.49585 0.84908 0.29598
 H163 H 0.56246 0.98702 0.37880
 H164 H 0.51624 0.91144 0.44355
 C165 C 0.07953 0.54257 0.33199
 C166 C 0.05839 0.49779 0.37388
 C167 C 0.10107 0.52176 0.40916
 C168 C 0.16410 0.58642 0.39897
 C169 C 0.19099 0.57207 0.35610
 C170 C 0.14698 0.54840 0.32147
 C171 C 0.09783 0.61120 0.34900
 C172 C 0.14090 0.63361 0.38393
 H173 H 0.01916 0.44766 0.37421
 H174 H 0.09427 0.49308 0.43937
 H175 H 0.23902 0.57638 0.35399
 H176 H 0.15790 0.53109 0.29063
 H177 H 0.07823 0.64006 0.33449
 H178 H 0.15745 0.68121 0.39900
 C179 C 0.52684 0.44916 0.33387
 C180 C 0.48820 0.43516 0.37843
 C181 C 0.51485 0.41957 0.41376
 C182 C 0.57533 0.41460 0.40110
 C183 C 0.55183 0.36639 0.36157
 C184 C 0.52563 0.38351 0.32690
 C185 C 0.59886 0.49834 0.34542
 C186 C 0.62383 0.48095 0.38037
 H187 H 0.43942 0.42789 0.38119
 H188 H 0.49018 0.40396 0.44609
 H189 H 0.54995 0.31982 0.36259
 H190 H 0.50006 0.34967 0.29951
 H191 H 0.62811 0.54379 0.32718
 H192 H 0.67404 0.51175 0.39173
 C193 C 0.53815 0.07937 0.33328
 C194 C 0.60789 0.10045 0.35000
 C195 C 0.62857 0.14201 0.38561
 C196 C 0.57886 0.16161 0.40138
 C197 C 0.56319 0.18824 0.35896
 C198 C 0.54031 0.14522 0.32400
 C199 C 0.49314 0.05520 0.37513
 C200 C 0.51541 0.09711 0.41092
 H201 H 0.63897 0.08410 0.33457
 H202 H 0.67707 0.16081 0.40011
 H203 H 0.56608 0.23524 0.35732
 H204 H 0.52080 0.15565 0.29396
 H205 H 0.44380 0.01411 0.37515
 H206 H 0.48636 0.08846 0.44123
 C207 C 0.91962 0.46104 0.33267
 C208 C 0.85218 0.45572 0.32285
 C209 C 0.80850 0.43142 0.35757
 C210 C 0.83569 0.41603 0.39989
 C211 C 0.85850 0.36898 0.38381
 C212 C 0.90123 0.39200 0.34879
 C213 C 0.94135 0.50492 0.37507
 C214 C 0.89895 0.48035 0.41043
 H215 H 0.84104 0.47366 0.29238
 H216 H 0.76051 0.42726 0.35590
 H217 H 0.84191 0.32100 0.39824
 H218 H 0.92051 0.36329 0.33360
 H219 H 0.98075 0.55497 0.37580
 H220 H 0.90608 0.50838 0.44102
 C221 C 0.54209 0.46202 1.16683
 C222 C 0.60614 0.46063 1.17665
 C223 C 0.62671 0.43743 1.14220
 C224 C 0.58372 0.41993 1.09991
 C225 C 0.51431 0.37055 1.11613
 C226 C 0.49325 0.39219 1.15102
 C227 C 0.56191 0.50547 1.12437
 C228 C 0.58192 0.48257 1.08913
 H229 H 0.63667 0.48212 1.20625
 H230 H 0.67254 0.43732 1.14364
 H231 H 0.48440 0.32190 1.10214
 H232 H 0.44546 0.36195 1.16637
 H233 H 0.56770 0.55372 1.12333
 H234 H 0.60106 0.51012 1.05814
 C235 C 0.91900 0.45967 1.17007
 C236 C 0.94003 0.50585 1.12899
 C237 C 0.89941 0.48156 1.09272
 C238 C 0.83802 0.41491 1.10120
 C239 C 0.86372 0.36979 1.11630
 C240 C 0.90477 0.39254 1.15236
 C241 C 0.84960 0.44968 1.17935
 C242 C 0.80751 0.42540 1.14372
 H243 H 0.97653 0.55698 1.13013
 H244 H 0.90589 0.51116 1.06308
 H245 H 0.84983 0.32307 1.10071
 H246 H 0.92530 0.36480 1.16736
 H247 H 0.83551 0.46397 1.21022
 H248 H 0.75790 0.41680 1.14520
 C249 C 0.55231 0.08083 1.16772
 C250 C 0.50134 0.10080 1.15527
 C251 C 0.51775 0.14222 1.11979
 C252 C 0.58491 0.16204 1.09950
 C253 C 0.63308 0.18944 1.13916
 C254 C 0.61704 0.14703 1.17430
 C255 C 0.56759 0.05618 1.12384
 C256 C 0.58227 0.09736 1.08797
 H257 H 0.45538 0.08330 1.17324
 H258 H 0.48572 0.15961 1.10772
 H259 H 0.67889 0.23579 1.13811
 H260 H 0.65166 0.15724 1.20154
 H261 H 0.57502 0.01479 1.12192
 H262 H 0.59797 0.08798 1.05581
 C263 C 0.44717 0.52837 1.16527
 C264 C 0.43197 0.48860 1.12122
 C265 C 0.41386 0.51348 1.08606
 C266 C 0.40923 0.57416 1.09835
 C267 C 0.36265 0.55212 1.13887
 C268 C 0.38134 0.52697 1.17319
 C269 C 0.49587 0.59973 1.15248
 C270 C 0.47666 0.62335 1.11770
 H271 H 0.42690 0.44077 1.11881
 H272 H 0.39749 0.48821 1.05399
 H273 H 0.31588 0.55046 1.13895
 H274 H 0.34870 0.50245 1.20135
 H275 H 0.54223 0.62955 1.16977
 H276 H 0.50660 0.67321 1.10577
 C277 C 0.07991 0.54535 1.16765
 C278 C 0.05843 0.49992 1.12616
 C279 C 0.09960 0.52404 1.09026
 C280 C 0.16174 0.58986 1.09937
 C281 C 0.13717 0.63583 1.11460
 C282 C 0.09562 0.61313 1.15036
 C283 C 0.14855 0.55392 1.17734
 C284 C 0.19115 0.57795 1.14201
 H285 H 0.02074 0.44925 1.12659
 H286 H 0.09258 0.49485 1.06029
 H287 H 0.15226 0.68304 1.09938
 H288 H 0.07591 0.64141 1.16559
 H289 H 0.16183 0.53922 1.20839
 H290 H 0.24057 0.58599 1.14389
 C291 C 0.45649 0.91981 1.16785
 C292 C 0.43933 0.94450 1.12473
 C293 C 0.42308 0.90338 1.08869
 C294 C 0.42079 0.83861 1.09936
 C295 C 0.48879 0.85834 1.11819
 C296 C 0.50682 0.89978 1.15381
 C297 C 0.39201 0.85362 1.17518
 C298 C 0.37435 0.81124 1.13986
 H299 H 0.43185 0.98590 1.12359
 H300 H 0.40605 0.91286 1.05710
 H301 H 0.52024 0.84096 1.10500
 H302 H 0.55355 0.91727 1.17080
 H303 H 0.35867 0.84338 1.20321
 H304 H 0.32847 0.76493 1.13935
 C305 C 0.53781 0.45603 0.66792
 C306 C 0.49172 0.43266 0.62666
 C307 C 0.51404 0.41316 0.59100
 C308 C 0.57911 0.41527 0.59998
 C309 C 0.62725 0.48583 0.61464
 C310 C 0.60615 0.50643 0.65023
 C311 C 0.54395 0.39489 0.67813
 C312 C 0.56646 0.37451 0.64300
 H313 H 0.44176 0.42239 0.62717
 H314 H 0.48427 0.39096 0.56117
 H315 H 0.67508 0.51650 0.59953
 H316 H 0.63608 0.55446 0.66515
 H317 H 0.52813 0.36725 0.70930
 H318 H 0.57133 0.33127 0.64499
 C319 C 0.54301 0.08029 0.66782
 C320 C 0.49208 0.09751 0.65041
 C321 C 0.51264 0.13998 0.61529
 C322 C 0.58365 0.16372 0.60071
 C323 C 0.62433 0.19140 0.64387
 C324 C 0.60401 0.14781 0.67858
 C325 C 0.56684 0.05885 0.62628
 C326 C 0.58635 0.10144 0.59103
 H327 H 0.44365 0.07821 0.66510
 H328 H 0.48152 0.15664 0.60036
 H329 H 0.66751 0.23975 0.64624
 H330 H 0.63164 0.15930 0.70978
 H331 H 0.57694 0.01921 0.62623
 H332 H 0.60866 0.09476 0.56101
 C333 C 0.91961 0.47064 0.66592
 C334 C 0.94363 0.51243 0.62272
 C335 C 0.90111 0.48786 0.58726
 C336 C 0.83650 0.42526 0.59839
 C337 C 0.85656 0.37703 0.61646
 C338 C 0.89887 0.40033 0.65170
 C339 C 0.85358 0.46870 0.67441
 C340 C 0.81004 0.44379 0.63966
 H341 H 0.98559 0.56112 0.62126
 H342 H 0.90970 0.51439 0.55578
 H343 H 0.83783 0.32783 0.60360
 H344 H 0.91607 0.37090 0.66849
 H345 H 0.84374 0.49035 0.70345
 H346 H 0.76317 0.44216 0.64031
 C347 C 0.45741 0.53817 0.66764
 C348 C 0.45139 0.59938 0.67780
 C349 C 0.42931 0.62004 0.64254
 C350 C 0.41693 0.57947 0.59947
 C351 C 0.48196 0.58138 0.59086
 C352 C 0.50387 0.56164 0.62665
 C353 C 0.38919 0.48798 0.64952
 C354 C 0.36850 0.50887 0.61381
 H355 H 0.46712 0.62696 0.70900
 H356 H 0.42465 0.66340 0.64449
 H357 H 0.51206 0.60370 0.56123
 H358 H 0.55382 0.57192 0.62747
 H359 H 0.35906 0.43984 0.66421
 H360 H 0.32086 0.47836 0.59832
 C361 C 0.46273 0.91758 0.66710
 C362 C 0.43873 0.93977 0.62598
 C363 C 0.41877 0.89767 0.59042
 C364 C 0.42117 0.83507 0.59941
 C365 C 0.49225 0.85829 0.61364
 C366 C 0.51331 0.90033 0.64906
 C367 C 0.40161 0.85009 0.67757
 C368 C 0.38083 0.80697 0.64258
 H369 H 0.42868 0.97943 0.62646
 H370 H 0.39627 0.90487 0.56066
 H371 H 0.52311 0.84176 0.59818
 H372 H 0.56190 0.91936 0.66350
 H373 H 0.37411 0.83835 0.70878
 H374 H 0.33744 0.75875 0.64474
 C375 C 0.08166 0.53909 0.66533
 C376 C 0.05677 0.49529 0.62305
 C377 C 0.09890 0.51782 0.58734
 C378 C 0.16397 0.58055 0.59740
 C379 C 0.14474 0.63010 0.61396
 C380 C 0.10279 0.60880 0.64938
 C381 C 0.14744 0.54068 0.67433
 C382 C 0.19057 0.56361 0.63937
 H383 H 0.01470 0.44665 0.62251
 H384 H 0.08973 0.48969 0.55655
 H385 H 0.16361 0.67865 0.59988
 H386 H 0.08607 0.63930 0.66513
 H387 H 0.15734 0.52014 0.70401
 H388 H 0.23720 0.56474 0.64041
 C389 C 0.45721 0.53883 0.83379
 C390 C 0.50252 0.56207 0.87546
 C391 C 0.47980 0.58223 0.91060
 C392 C 0.41516 0.58075 0.90067
 C393 C 0.42905 0.62125 0.85747
 C394 C 0.45194 0.60031 0.82294
 C395 C 0.38853 0.48886 0.85118
 C396 C 0.36695 0.51011 0.88613
 H397 H 0.55202 0.57086 0.87579
 H398 H 0.50880 0.60394 0.94078
 H399 H 0.42493 0.66488 0.85501
 H400 H 0.46887 0.62793 0.79183
 H401 H 0.35896 0.44041 0.83676
 H402 H 0.31905 0.47957 0.90119
 C403 C 0.08040 0.55372 0.83086
 C404 C 0.14671 0.61842 0.82426
 C405 C 0.18882 0.63514 0.85975
 C406 C 0.16119 0.58778 0.89966
 C407 C 0.09625 0.58525 0.91047
 C408 C 0.05540 0.57013 0.87423
 C409 C 0.10072 0.50345 0.84417
 C410 C 0.14175 0.52055 0.87996
 H411 H 0.15686 0.65263 0.79683
 H412 H 0.23425 0.68144 0.86120
 H413 H 0.08700 0.60241 0.94205
 H414 H 0.01494 0.57922 0.87533
 H415 H 0.08374 0.45738 0.82660
 H416 H 0.15924 0.48893 0.89260
 C417 C 0.46292 0.91872 0.83120
 C418 C 0.40285 0.85029 0.82074
 C419 C 0.38247 0.80787 0.85605
 C420 C 0.42125 0.83737 0.89961
 C421 C 0.49291 0.86173 0.88657
 C422 C 0.51399 0.90291 0.85065
 C423 C 0.43670 0.94045 0.87131
 C424 C 0.41696 0.89918 0.90727
 H425 H 0.37606 0.83688 0.78915
 H426 H 0.34134 0.75856 0.85346
 H427 H 0.52402 0.84625 0.90303
 H428 H 0.56289 0.92213 0.83675
 H429 H 0.42409 0.97830 0.86952
 H430 H 0.39267 0.90592 0.93615
 C431 C 0.53839 0.45697 0.83423
 C432 C 0.60713 0.50746 0.85131
 C433 C 0.62912 0.48704 0.88654
 C434 C 0.58124 0.41663 0.90166
 C435 C 0.51651 0.41498 0.91140
 C436 C 0.49339 0.43436 0.87601
 C437 C 0.54390 0.39547 0.82399
 C438 C 0.56722 0.37537 0.85880
 H439 H 0.63648 0.55561 0.83645
 H440 H 0.67714 0.51799 0.90138
 H441 H 0.48782 0.39381 0.94174
 H442 H 0.44388 0.42555 0.87629
 H443 H 0.52688 0.36729 0.79308
 H444 H 0.57160 0.33185 0.85675
 C445 C 0.92143 0.45825 0.83329
 C446 C 0.85606 0.39317 0.82564
 C447 C 0.81336 0.37454 0.86084
 C448 C 0.83964 0.42071 0.90150
 C449 C 0.90519 0.42459 0.91242
 C450 C 0.94668 0.44173 0.87652
 C451 C 0.89944 0.50700 0.84723
 C452 C 0.85787 0.48813 0.88278
 H453 H 0.84667 0.36050 0.79735
 H454 H 0.76788 0.32824 0.86126
 H455 H 0.91481 0.40747 0.94390
 H456 H 0.98837 0.43459 0.87778
 H457 H 0.91553 0.55319 0.83009
 H458 H 0.83901 0.51842 0.89574
 C459 C 0.54234 0.07928 0.83358
 C460 C 0.49196 0.09761 0.85056
 C461 C 0.51273 0.14020 0.88568
 C462 C 0.58344 0.16310 0.90056
 C463 C 0.58515 0.10044 0.91061
 C464 C 0.56549 0.05769 0.87548
 C465 C 0.60390 0.14630 0.82294
 C466 C 0.62424 0.19007 0.85748
 H467 H 0.44389 0.07926 0.83541
 H468 H 0.48216 0.15775 0.90023
 H469 H 0.60748 0.09379 0.94069
 H470 H 0.57621 0.01854 0.87579
 H471 H 0.63150 0.15759 0.79177
 H472 H 0.66685 0.23843 0.85480
   
