data_POSCAR
  _audit_creation_date              2014-09-24
  _audit_creation_method            'ToBaCCo'
  _symmetry_space_group_name_H-M    'P1'
  _symmetry_Int_Tables_number       1
  _symmetry_cell_setting            triclinic
  loop_
  _symmetry_equiv_pos_as_xyz
 x,y,z
_cell_length_a 59.1162
_cell_length_b 59.1197
_cell_length_c 59.1383
_cell_angle_alpha 89.999100
_cell_angle_beta 89.990800
_cell_angle_gamma 90.034600
loop_
  _atom_site_label
  _atom_site_type_symbol
  _atom_site_fract_x
  _atom_site_fract_y
  _atom_site_fract_z
N1 N 0.17118 0.22486 0.23038
 N2 N 0.17742 0.20698 0.24207
 C3 C 0.16290 0.20400 0.25941
 C4 C 0.14690 0.22092 0.25839
 C5 C 0.15254 0.23388 0.23986
 H6 H 0.16383 0.19059 0.27181
 H7 H 0.14377 0.24872 0.23376
 Cu8 Cu 0.20384 0.18948 0.23320
 Cu9 Cu 0.18762 0.23515 0.20374
 Cu10 Cu 0.23479 0.20392 0.18790
 N11 N 0.23027 0.17197 0.22433
 N12 N 0.24229 0.17776 0.20651
 C13 C 0.25949 0.16305 0.20397
 C14 C 0.25809 0.14730 0.22109
 C15 C 0.23943 0.15332 0.23373
 H16 H 0.27206 0.16376 0.19071
 H17 H 0.23308 0.14475 0.24859
 N18 N 0.22443 0.23092 0.17130
 N19 N 0.20648 0.24280 0.17734
 C20 C 0.20380 0.26010 0.16276
 C21 C 0.22083 0.25894 0.14693
 C22 C 0.23362 0.24037 0.15271
 H23 H 0.19050 0.27261 0.16353
 H24 H 0.24849 0.23425 0.14399
 H25 H 0.20051 0.20396 0.19474
 H26 H 0.21871 0.22220 0.21293
 N27 N 0.67158 0.72516 0.73030
 N28 N 0.67777 0.70724 0.74194
 C29 C 0.66328 0.70430 0.75931
 C30 C 0.64727 0.72121 0.75828
 C31 C 0.65294 0.73418 0.73978
 H32 H 0.66419 0.69086 0.77167
 H33 H 0.64419 0.74904 0.73370
 Cu34 Cu 0.70416 0.68963 0.73316
 Cu35 Cu 0.68802 0.73540 0.70369
 Cu36 Cu 0.73511 0.70419 0.68780
 N37 N 0.73060 0.67222 0.72414
 N38 N 0.74263 0.67806 0.70635
 C39 C 0.75981 0.66334 0.70376
 C40 C 0.75840 0.64756 0.72084
 C41 C 0.73979 0.65359 0.73353
 H42 H 0.77239 0.66407 0.69050
 H43 H 0.73342 0.64498 0.74835
 N44 N 0.72478 0.73119 0.67125
 N45 N 0.70685 0.74307 0.67730
 C46 C 0.70418 0.76038 0.66274
 C47 C 0.72121 0.75922 0.64692
 C48 C 0.73399 0.74064 0.65267
 H49 H 0.69089 0.77291 0.66353
 H50 H 0.74886 0.73452 0.64395
 H51 H 0.70085 0.70414 0.69473
 H52 H 0.71907 0.72234 0.71297
 N53 N 0.32807 0.77522 0.73043
 N54 N 0.32191 0.79318 0.74206
 C55 C 0.33638 0.79608 0.75945
 C56 C 0.35232 0.77908 0.75849
 C57 C 0.34664 0.76613 0.73997
 H58 H 0.33544 0.80947 0.77186
 H59 H 0.35536 0.75124 0.73390
 Cu60 Cu 0.29549 0.81073 0.73316
 Cu61 Cu 0.31162 0.76492 0.70380
 Cu62 Cu 0.26448 0.79621 0.68796
 N63 N 0.26904 0.82828 0.72430
 N64 N 0.25696 0.82243 0.70653
 C65 C 0.23971 0.83710 0.70403
 C66 C 0.24114 0.85287 0.72114
 C67 C 0.25984 0.84690 0.73374
 H68 H 0.22711 0.83634 0.69079
 H69 H 0.26620 0.85545 0.74861
 N70 N 0.27482 0.76917 0.67136
 N71 N 0.29275 0.75728 0.67739
 C72 C 0.29540 0.73996 0.66282
 C73 C 0.27835 0.74110 0.64701
 C74 C 0.26559 0.75971 0.65278
 H75 H 0.30869 0.72742 0.66360
 H76 H 0.25073 0.76583 0.64407
 H77 H 0.29879 0.79604 0.69474
 H78 H 0.28060 0.77792 0.71305
 N79 N 0.82918 0.27492 0.23082
 N80 N 0.82297 0.29285 0.24245
 C81 C 0.83739 0.29580 0.25986
 C82 C 0.85333 0.27882 0.25891
 C83 C 0.84775 0.26585 0.24038
 H84 H 0.83638 0.30919 0.27229
 H85 H 0.85650 0.25096 0.23433
 Cu86 Cu 0.79659 0.31045 0.23364
 Cu87 Cu 0.81277 0.26467 0.20418
 Cu88 Cu 0.76567 0.29593 0.18826
 N89 N 0.77018 0.32788 0.22462
 N90 N 0.75815 0.32207 0.20682
 C91 C 0.74092 0.33675 0.20431
 C92 C 0.74232 0.35249 0.22143
 C93 C 0.76098 0.34649 0.23405
 H94 H 0.72834 0.33603 0.19106
 H95 H 0.76730 0.35503 0.24894
 N96 N 0.77604 0.26894 0.17168
 N97 N 0.79397 0.25704 0.17774
 C98 C 0.79665 0.23976 0.16313
 C99 C 0.77965 0.24095 0.14729
 C100 C 0.76686 0.25952 0.15306
 H101 H 0.80994 0.22722 0.16392
 H102 H 0.75201 0.26566 0.14434
 H103 H 0.79992 0.29586 0.19516
 H104 H 0.78168 0.27768 0.21341
 N105 N 0.82859 0.72518 0.26965
 N106 N 0.82237 0.70725 0.25800
 C107 C 0.83687 0.70426 0.24067
 C108 C 0.85286 0.72122 0.24164
 C109 C 0.84721 0.73421 0.26013
 H110 H 0.83593 0.69083 0.22830
 H111 H 0.85598 0.74909 0.26618
 Cu112 Cu 0.79598 0.68972 0.26692
 Cu113 Cu 0.81215 0.73547 0.29627
 Cu114 Cu 0.76502 0.70415 0.31219
 N115 N 0.76960 0.67217 0.27583
 N116 N 0.75757 0.67796 0.29364
 C117 C 0.74040 0.66321 0.29621
 C118 C 0.74185 0.64744 0.27912
 C119 C 0.76048 0.65349 0.26647
 H120 H 0.72783 0.66390 0.30947
 H121 H 0.76685 0.64491 0.25163
 N122 N 0.77536 0.73120 0.32871
 N123 N 0.79329 0.74311 0.32265
 C124 C 0.79593 0.76044 0.33721
 C125 C 0.77889 0.75925 0.35301
 C126 C 0.76613 0.74064 0.34728
 H127 H 0.80921 0.77300 0.33642
 H128 H 0.75127 0.73450 0.35600
 H129 H 0.79929 0.70426 0.30534
 H130 H 0.78106 0.72242 0.28712
 N131 N 0.32873 0.22498 -0.23067
 N132 N 0.32250 0.20707 -0.24235
 C133 C 0.33704 0.20407 -0.25968
 C134 C 0.35307 0.22101 -0.25866
 C135 C 0.34741 0.23400 -0.24014
 H136 H 0.33609 0.19064 -0.27205
 H137 H 0.35615 0.24887 -0.23404
 Cu138 Cu 0.29598 0.18958 -0.23346
 Cu139 Cu 0.31218 0.23526 -0.20402
 Cu140 Cu 0.26496 0.20401 -0.18818
 N141 N 0.26952 0.17202 -0.22456
 N142 N 0.25749 0.17783 -0.20676
 C143 C 0.24028 0.16313 -0.20420
 C144 C 0.24167 0.14734 -0.22127
 C145 C 0.26034 0.15335 -0.23392
 H146 H 0.22769 0.16387 -0.19094
 H147 H 0.26669 0.14475 -0.24876
 N148 N 0.27529 0.23104 -0.17161
 N149 N 0.29325 0.24294 -0.17762
 C150 C 0.29585 0.26026 -0.16302
 C151 C 0.27875 0.25908 -0.14724
 C152 C 0.26602 0.24048 -0.15305
 H153 H 0.30914 0.27281 -0.16376
 H154 H 0.25113 0.23433 -0.14438
 H155 H 0.29917 0.20404 -0.19496
 H156 H 0.28101 0.22225 -0.21318
 N157 N 0.67143 0.27479 -0.23054
 N158 N 0.67761 0.29274 -0.24219
 C159 C 0.66316 0.29564 -0.25959
 C160 C 0.64718 0.27866 -0.25861
 C161 C 0.65283 0.26569 -0.24007
 H162 H 0.66410 0.30908 -0.27196
 H163 H 0.64411 0.25080 -0.23399
 Cu164 Cu 0.70406 0.31032 -0.23330
 Cu165 Cu 0.68797 0.26459 -0.20387
 Cu166 Cu 0.73512 0.29592 -0.18802
 N167 N 0.73049 0.32788 -0.22441
 N168 N 0.74257 0.32207 -0.20663
 C169 C 0.75977 0.33679 -0.20411
 C170 C 0.75833 0.35255 -0.22120
 C171 C 0.73968 0.34650 -0.23383
 H172 H 0.77237 0.33609 -0.19088
 H173 H 0.73332 0.35508 -0.24867
 N174 N 0.72480 0.26892 -0.17142
 N175 N 0.70687 0.25698 -0.17743
 C176 C 0.70427 0.23969 -0.16281
 C177 C 0.72132 0.24093 -0.14700
 C178 C 0.73406 0.25953 -0.15284
 H179 H 0.69099 0.22712 -0.16354
 H180 H 0.74892 0.26571 -0.14415
 H181 H 0.70093 0.29584 -0.19481
 H182 H 0.71914 0.27769 -0.21309
 N183 N 0.17161 0.77520 0.26944
 N184 N 0.17816 0.79282 0.25749
 C185 C 0.16366 0.79581 0.24015
 C186 C 0.14736 0.77916 0.24142
 C187 C 0.15281 0.76637 0.26011
 H188 H 0.16480 0.80904 0.22758
 H189 H 0.14378 0.75175 0.26643
 Cu190 Cu 0.20485 0.80996 0.26635
 Cu191 Cu 0.18788 0.76495 0.29622
 Cu192 Cu 0.23507 0.79627 0.31217
 N193 N 0.23099 0.82790 0.27533
 N194 N 0.24270 0.82240 0.29345
 C195 C 0.25970 0.83733 0.29621
 C196 C 0.25846 0.85293 0.27893
 C197 C 0.24012 0.84660 0.26596
 H198 H 0.27200 0.83687 0.30974
 H199 H 0.23395 0.85497 0.25091
 N200 N 0.22458 0.76927 0.32881
 N201 N 0.20664 0.75738 0.32273
 C202 C 0.20394 0.74005 0.33728
 C203 C 0.22094 0.74119 0.35313
 C204 C 0.23375 0.75979 0.34740
 H205 H 0.19066 0.72749 0.33644
 H206 H 0.24863 0.76587 0.35612
 H207 H 0.20081 0.79618 0.30496
 H208 H 0.21913 0.77752 0.28739
 N209 N 0.47489 0.42108 0.48056
 N210 N 0.45694 0.42723 0.49218
 C211 C 0.45404 0.41278 0.50959
 C212 C 0.47105 0.39685 0.50866
 C213 C 0.48400 0.40252 0.49012
 H214 H 0.44064 0.41373 0.52200
 H215 H 0.49890 0.39381 0.48406
 Cu216 Cu 0.43936 0.45361 0.48326
 Cu217 Cu 0.48513 0.43756 0.45388
 Cu218 Cu 0.45378 0.48463 0.43797
 N219 N 0.42180 0.47997 0.47435
 N220 N 0.42761 0.49204 0.45658
 C221 C 0.41289 0.50923 0.45407
 C222 C 0.39714 0.50777 0.47117
 C223 C 0.40318 0.48912 0.48379
 H224 H 0.41358 0.52183 0.44082
 H225 H 0.39463 0.48278 0.49867
 N226 N 0.48081 0.47433 0.42138
 N227 N 0.49274 0.45642 0.42743
 C228 C 0.51003 0.45380 0.41281
 C229 C 0.50881 0.47081 0.39697
 C230 C 0.49021 0.48355 0.40277
 H231 H 0.52259 0.44053 0.41359
 H232 H 0.48403 0.49839 0.39405
 H233 H 0.47203 0.46867 0.46306
 H234 H 0.45392 0.45043 0.44480
 N235 N -0.02530 -0.07855 0.98038
 N236 N -0.04348 -0.07265 0.99178
 C237 C -0.04638 -0.08711 1.00917
 C238 C -0.02913 -0.10276 1.00846
 C239 C -0.01604 -0.09694 0.99008
 H240 H -0.05996 -0.08637 1.02139
 H241 H -0.00095 -0.10546 0.98421
 Cu242 Cu -0.06160 -0.04672 0.98281
 Cu243 Cu -0.01510 -0.06202 0.95381
 Cu244 Cu -0.04629 -0.01501 0.93802
 N245 N -0.07848 -0.01990 0.97407
 N246 N -0.07239 -0.00759 0.95656
 C247 C -0.08687 0.00982 0.95425
 C248 C -0.10274 0.00823 0.97121
 C249 C -0.09706 -0.01070 0.98353
 H250 H -0.08594 0.02263 0.94123
 H251 H -0.10581 -0.01723 0.99820
 N252 N -0.01934 -0.02526 0.92141
 N253 N -0.00743 -0.04318 0.92741
 C254 C 0.00982 -0.04583 0.91275
 C255 C 0.00859 -0.02878 0.89693
 C256 C -0.00998 -0.01603 0.90279
 H257 H 0.02234 -0.05913 0.91347
 H258 H -0.01618 -0.00119 0.89410
 H259 H -0.02866 -0.03115 0.96345
 H260 H -0.04637 -0.04925 0.94454
 N261 N 1.02535 0.57854 0.98043
 N262 N 1.04326 0.57236 0.99204
 C263 C 1.04619 0.58677 1.00948
 C264 C 1.02923 0.60273 1.00851
 C265 C 1.01628 0.59712 0.98997
 H266 H 1.05957 0.58579 1.02189
 H267 H 1.00141 0.60588 0.98391
 Cu268 Cu 1.06075 0.54595 0.98324
 Cu269 Cu 1.01510 0.56211 0.95374
 Cu270 Cu 1.04638 0.51500 0.93787
 N271 N 1.07826 0.51964 0.97428
 N272 N 1.07247 0.50758 0.95653
 C273 C 1.08714 0.49037 0.95402
 C274 C 1.10284 0.49181 0.97115
 C275 C 1.09685 0.51045 0.98378
 H276 H 1.08646 0.47777 0.94078
 H277 H 1.10537 0.51677 0.99865
 N278 N 1.01941 0.52534 0.92126
 N279 N 1.00750 0.54327 0.92729
 C280 C 0.99024 0.54592 0.91266
 C281 C 0.99147 0.52889 0.89682
 C282 C 1.01004 0.51613 0.90265
 H283 H 0.97770 0.55920 0.91341
 H284 H 1.01621 0.50128 0.89395
 H285 H 1.02815 0.53095 0.96294
 H286 H 1.04633 0.54917 0.94470
 N287 N 0.52537 0.07853 0.48059
 N288 N 0.54328 0.07231 0.49224
 C289 C 0.54628 0.08681 0.50959
 C290 C 0.52933 0.10280 0.50864
 C291 C 0.51635 0.09715 0.49012
 H292 H 0.55971 0.08585 0.52197
 H293 H 0.50149 0.10590 0.48405
 Cu294 Cu 0.56081 0.04597 0.48331
 Cu295 Cu 0.51513 0.06205 0.45390
 Cu296 Cu 0.54645 0.01499 0.43795
 N297 N 0.57833 0.01964 0.47438
 N298 N 0.57257 0.00762 0.45656
 C299 C 0.58734 -0.00950 0.45398
 C300 C 0.60308 -0.00800 0.47107
 C301 C 0.59702 0.01058 0.48375
 H302 H 0.58670 -0.02207 0.44072
 H303 H 0.60558 0.01694 0.49860
 N304 N 0.51943 0.02528 0.42139
 N305 N 0.50750 0.04318 0.42744
 C306 C 0.49021 0.04580 0.41283
 C307 C 0.49144 0.02878 0.39698
 C308 C 0.51004 0.01605 0.40278
 H309 H 0.47765 0.05906 0.41360
 H310 H 0.51623 0.00121 0.39407
 H311 H 0.52824 0.03086 0.46300
 H312 H 0.54643 0.04913 0.44481
 N313 N -0.02558 0.07872 0.51942
 N314 N -0.04348 0.07251 0.50775
 C315 C -0.04643 0.08696 0.49038
 C316 C -0.02948 0.10294 0.49136
 C317 C -0.01653 0.09733 0.50989
 H318 H -0.05985 0.08601 0.47799
 H319 H -0.00168 0.10612 0.51599
 Cu320 Cu -0.06114 0.04624 0.51667
 Cu321 Cu -0.01536 0.06227 0.54609
 Cu322 Cu -0.04665 0.01520 0.56198
 N323 N -0.07851 0.01980 0.52554
 N324 N -0.07274 0.00778 0.54335
 C325 C -0.08748 -0.00939 0.54590
 C326 C -0.10319 -0.00793 0.52879
 C327 C -0.09714 0.01067 0.51612
 H328 H -0.08685 -0.02194 0.55919
 H329 H -0.10572 0.01702 0.50127
 N330 N -0.01967 0.02553 0.57858
 N331 N -0.00775 0.04345 0.57254
 C332 C 0.00955 0.04608 0.58715
 C333 C 0.00832 0.02904 0.60299
 C334 C -0.01028 0.01629 0.59717
 H335 H 0.02211 0.05935 0.58638
 H336 H -0.01647 0.00143 0.60585
 H337 H -0.02855 0.03116 0.53686
 H338 H -0.04670 0.04939 0.55515
 N339 N 0.47495 0.57866 0.01965
 N340 N 0.45699 0.57249 0.00803
 C341 C 0.45409 0.58692 -0.00938
 C342 C 0.47110 0.60285 -0.00845
 C343 C 0.48406 0.59721 0.01007
 H344 H 0.44069 0.58596 -0.02178
 H345 H 0.49896 0.60594 0.01611
 Cu346 Cu 0.43942 0.54613 0.01694
 Cu347 Cu 0.48521 0.56220 0.04630
 Cu348 Cu 0.45383 0.51511 0.06219
 N349 N 0.42186 0.51976 0.02582
 N350 N 0.42766 0.50769 0.04359
 C351 C 0.41293 0.49049 0.04609
 C352 C 0.39719 0.49195 0.02899
 C353 C 0.40324 0.51061 0.01638
 H354 H 0.41361 0.47788 0.05933
 H355 H 0.39470 0.51696 0.00151
 N356 N 0.48086 0.52543 0.07878
 N357 N 0.49280 0.54334 0.07274
 C358 C 0.51010 0.54598 0.08734
 C359 C 0.50887 0.52895 0.10318
 C360 C 0.49026 0.51621 0.09738
 H361 H 0.52266 0.55925 0.08657
 H362 H 0.48408 0.50136 0.10609
 H363 H 0.47210 0.53111 0.03709
 H364 H 0.45400 0.54934 0.05537
 N365 N 0.52523 -0.07865 0.01968
 N366 N 0.54318 -0.07247 0.00805
 C367 C 0.54608 -0.08689 -0.00937
 C368 C 0.52907 -0.10281 -0.00845
 C369 C 0.51612 -0.09719 0.01009
 H370 H 0.55948 -0.08592 -0.02178
 H371 H 0.50121 -0.10592 0.01613
 Cu372 Cu 0.56077 -0.04613 0.01700
 Cu373 Cu 0.51499 -0.06221 0.04636
 Cu374 Cu 0.54638 -0.01515 0.06227
 N375 N 0.57834 -0.01978 0.02588
 N376 N 0.57255 -0.00772 0.04366
 C377 C 0.58729 0.00947 0.04617
 C378 C 0.60302 0.00802 0.02905
 C379 C 0.59697 -0.01062 0.01643
 H380 H 0.58661 0.02207 0.05941
 H381 H 0.60550 -0.01696 0.00155
 N382 N 0.51935 -0.02546 0.07888
 N383 N 0.50740 -0.04337 0.07283
 C384 C 0.49010 -0.04600 0.08745
 C385 C 0.49134 -0.02899 0.10330
 C386 C 0.50996 -0.01625 0.09750
 H387 H 0.47753 -0.05927 0.08667
 H388 H 0.51615 -0.00141 0.10621
 H389 H 0.52810 -0.03112 0.03717
 H390 H 0.54620 -0.04936 0.05542
 N391 N 1.02506 0.42150 0.51931
 N392 N 1.04267 0.42798 0.50734
 C393 C 1.04558 0.41350 0.48998
 C394 C 1.02891 0.39725 0.49127
 C395 C 1.01616 0.40272 0.50999
 H396 H 1.05876 0.41465 0.47735
 H397 H 1.00151 0.39375 0.51631
 Cu398 Cu 1.06005 0.45467 0.51555
 Cu399 Cu 1.01496 0.43791 0.54598
 Cu400 Cu 1.04625 0.48488 0.56183
 N401 N 1.07777 0.48067 0.52513
 N402 N 1.07227 0.49238 0.54323
 C403 C 1.08718 0.50936 0.54598
 C404 C 1.10274 0.50811 0.52871
 C405 C 1.09642 0.48982 0.51575
 H406 H 1.08674 0.52170 0.55948
 H407 H 1.10477 0.48371 0.50067
 N408 N 1.01933 0.47458 0.57846
 N409 N 1.00739 0.45667 0.57243
 C410 C 0.99009 0.45405 0.58705
 C411 C 0.99135 0.47109 0.60287
 C412 C 1.00995 0.48382 0.59706
 H413 H 0.97751 0.44079 0.58627
 H414 H 1.01614 0.49868 0.60573
 H415 H 1.02777 0.46921 0.53677
 H416 H 1.04652 0.45080 0.55431
 Si417 Si 0.37422 -0.00037 0.25026
 Si418 Si 0.12544 -0.00042 0.74972
 Si419 Si 0.62575 0.49979 0.25004
 Si420 Si 0.87465 0.50014 0.74988
 Si421 Si 0.24990 0.37555 -0.00005
 Si422 Si 0.75026 0.12455 0.00022
 Si423 Si 0.24997 0.62433 0.49995
 Si424 Si 0.74992 0.87567 0.49994
 Si425 Si -0.00048 0.25011 0.37473
 Si426 Si 0.00005 0.74999 0.12493
 Si427 Si 0.50017 0.24977 0.62588
 Si428 Si 0.49990 0.75006 0.87478
 C429 C 0.09384 0.23124 0.30121
 N430 N 0.09483 0.22414 0.32300
 N431 N 0.07747 0.22765 0.33696
 C432 C 0.05860 0.23837 0.32954
 N433 N 0.05761 0.24547 0.30775
 N434 N 0.07497 0.24196 0.29380
 C435 C 0.11253 0.22750 0.28619
 C436 C 0.12822 0.22444 0.27353
 C437 C 0.03985 0.24208 0.34448
 C438 C 0.02393 0.24524 0.35680
 C439 C 0.59426 0.73142 0.80121
 N440 N 0.58127 0.71381 0.80814
 N441 N 0.56394 0.71724 0.82215
 C442 C 0.55909 0.73836 0.82966
 N443 N 0.57207 0.75597 0.82272
 N444 N 0.58940 0.75254 0.80872
 C445 C 0.61293 0.72775 0.78613
 C446 C 0.62860 0.72472 0.77344
 C447 C 0.54028 0.74208 0.84454
 C448 C 0.52432 0.74523 0.85684
 C449 C 0.40548 0.76877 0.80125
 N450 N 0.41656 0.78654 0.81063
 N451 N 0.43392 0.78308 0.82459
 C452 C 0.44072 0.76175 0.82961
 N453 N 0.42966 0.74398 0.82019
 N454 N 0.41230 0.74744 0.80623
 C455 C 0.38674 0.77248 0.78624
 C456 C 0.37102 0.77555 0.77362
 C457 C 0.45953 0.75803 0.84450
 C458 C 0.47548 0.75488 0.85681
 C459 C -0.09471 0.26883 0.30108
 N460 N -0.08120 0.28629 0.30733
 N461 N -0.06388 0.28286 0.32134
 C462 C -0.05957 0.26187 0.32954
 N463 N -0.07305 0.24440 0.32325
 N464 N -0.09037 0.24783 0.30924
 C465 C -0.11337 0.27250 0.28599
 C466 C -0.12903 0.27551 0.27329
 C467 C -0.04079 0.25814 0.34444
 C468 C -0.02486 0.25497 0.35676
 C469 C -0.09420 0.73140 0.19863
 N470 N -0.08829 0.75268 0.19243
 N471 N -0.07099 0.75610 0.17839
 C472 C -0.05909 0.73833 0.17011
 N473 N -0.06498 0.71704 0.17633
 N474 N -0.08228 0.71363 0.19037
 C475 C -0.11283 0.72773 0.21376
 C476 C -0.12849 0.72471 0.22647
 C477 C -0.04030 0.74201 0.15520
 C478 C -0.02436 0.74515 0.14288
 C479 C 0.40524 0.23104 0.69915
 N480 N 0.41121 0.25234 0.69300
 N481 N 0.42861 0.25577 0.67906
 C482 C 0.44059 0.23802 0.67082
 N483 N 0.43463 0.21672 0.67699
 N484 N 0.41723 0.21329 0.69092
 C485 C 0.38651 0.22735 0.71426
 C486 C 0.37080 0.22433 0.72697
 C487 C 0.45955 0.24175 0.65603
 C488 C 0.47560 0.24491 0.64381
 C489 C 0.59498 0.26863 0.69925
 N490 N 0.57353 0.26809 0.70739
 N491 N 0.55610 0.26463 0.69350
 C492 C 0.55956 0.26160 0.67103
 N493 N 0.58101 0.26214 0.66288
 N494 N 0.59845 0.26560 0.67677
 C495 C 0.61378 0.27228 0.71427
 C496 C 0.62949 0.27531 0.72698
 C497 C 0.54072 0.25783 0.65610
 C498 C 0.52471 0.25465 0.64383
 C499 C 0.09424 0.76881 0.19865
 N500 N 0.09276 0.74935 0.18660
 N501 N 0.07544 0.74588 0.17259
 C502 C 0.05909 0.76178 0.17020
 N503 N 0.06054 0.78122 0.18229
 N504 N 0.07786 0.78469 0.19630
 C505 C 0.11293 0.77257 0.21369
 C506 C 0.12864 0.77566 0.22632
 C507 C 0.04034 0.75800 0.15526
 C508 C 0.02443 0.75483 0.14292
 C509 C 0.30075 0.09415 0.23182
 N510 N 0.32320 0.09772 0.23496
 N511 N 0.33716 0.08034 0.23834
 C512 C 0.32909 0.05886 0.23867
 N513 N 0.30664 0.05530 0.23552
 N514 N 0.29268 0.07267 0.23214
 C515 C 0.28570 0.11285 0.22812
 C516 C 0.27307 0.12855 0.22496
 C517 C 0.34405 0.04010 0.24236
 C518 C 0.35633 0.02413 0.24549
 C519 C 0.80101 0.59442 0.73151
 N520 N 0.82361 0.59792 0.73342
 N521 N 0.83759 0.58056 0.73680
 C522 C 0.82939 0.55919 0.73836
 N523 N 0.80679 0.55570 0.73646
 N524 N 0.79281 0.57305 0.73308
 C525 C 0.78597 0.61311 0.72784
 C526 C 0.77336 0.62881 0.72468
 C527 C 0.84439 0.54048 0.74202
 C528 C 0.85672 0.52456 0.74513
 C529 C 0.80099 0.40576 0.76823
 N530 N 0.81364 0.40697 0.74913
 N531 N 0.82768 0.42430 0.74581
 C532 C 0.82953 0.44092 0.76150
 N533 N 0.81688 0.43972 0.78060
 N534 N 0.80284 0.42239 0.78392
 C535 C 0.78591 0.38706 0.77183
 C536 C 0.77329 0.37134 0.77494
 C537 C 0.84444 0.45973 0.75780
 C538 C 0.85673 0.47569 0.75467
 C539 C 0.30032 -0.09476 0.26865
 N540 N 0.29295 -0.07573 0.25818
 N541 N 0.30697 -0.05838 0.25480
 C542 C 0.32880 -0.05953 0.26177
 N543 N 0.33618 -0.07855 0.27226
 N544 N 0.32216 -0.09590 0.27564
 C545 C 0.28521 -0.11347 0.27229
 C546 C 0.27258 -0.12922 0.27537
 C547 C 0.34384 -0.04077 0.25816
 C548 C 0.35622 -0.02484 0.25506
 C549 C 0.19927 -0.09485 0.73151
 N550 N 0.20727 -0.07484 0.73939
 N551 N 0.19328 -0.05747 0.74273
 C552 C 0.17086 -0.05957 0.73829
 N553 N 0.16286 -0.07958 0.73039
 N554 N 0.17685 -0.09695 0.72705
 C555 C 0.21435 -0.11359 0.72788
 C556 C 0.22697 -0.12933 0.72477
 C557 C 0.15583 -0.04081 0.74189
 C558 C 0.14346 -0.02488 0.74496
 C559 C 0.69966 0.40564 0.23197
 N560 N 0.70763 0.42566 0.23985
 N561 N 0.69361 0.44299 0.24316
 C562 C 0.67121 0.44084 0.23869
 N563 N 0.66324 0.42082 0.23079
 N564 N 0.67726 0.40349 0.22748
 C565 C 0.71475 0.38697 0.22837
 C566 C 0.72737 0.37126 0.22527
 C567 C 0.65616 0.45954 0.24225
 C568 C 0.64377 0.47542 0.24530
 C569 C 0.69932 0.59419 0.26849
 N570 N 0.68901 0.59138 0.24820
 N571 N 0.67498 0.57405 0.24483
 C572 C 0.67083 0.55902 0.26166
 N573 N 0.68116 0.56182 0.28194
 N574 N 0.69519 0.57915 0.28532
 C575 C 0.71437 0.61289 0.27216
 C576 C 0.72695 0.62863 0.27530
 C577 C 0.65594 0.54021 0.25796
 C578 C 0.64366 0.52425 0.25483
 C579 C 0.19889 0.09420 0.76814
 N580 N 0.20691 0.07425 0.76015
 N581 N 0.19294 0.05687 0.75677
 C582 C 0.17053 0.05890 0.76126
 N583 N 0.16251 0.07885 0.76925
 N584 N 0.17648 0.09624 0.77264
 C585 C 0.21397 0.11290 0.77180
 C586 C 0.22665 0.12859 0.77491
 C587 C 0.15557 0.04011 0.75763
 C588 C 0.14330 0.02411 0.75451
 C589 C 0.23114 0.30178 0.09396
 N590 N 0.22061 0.32215 0.09327
 N591 N 0.22406 0.33619 0.07598
 C592 C 0.23816 0.33028 0.05888
 N593 N 0.24866 0.30991 0.05956
 N594 N 0.24521 0.29587 0.07685
 C595 C 0.22750 0.28669 0.11259
 C596 C 0.22446 0.27401 0.12825
 C597 C 0.24184 0.34529 0.04020
 C598 C 0.24502 0.35763 0.02432
 C599 C 0.73160 0.80211 0.59406
 N600 N 0.72105 0.82246 0.59338
 N601 N 0.72445 0.83649 0.57607
 C602 C 0.73853 0.83057 0.55896
 N603 N 0.74906 0.81022 0.55964
 N604 N 0.74566 0.79619 0.57694
 C605 C 0.72794 0.78702 0.61266
 C606 C 0.72488 0.77432 0.62829
 C607 C 0.74209 0.84552 0.54024
 C608 C 0.74516 0.85781 0.52432
 C609 C 0.76849 0.80213 0.40586
 N610 N 0.77905 0.79857 0.42590
 N611 N 0.77568 0.81260 0.44320
 C612 C 0.76168 0.83062 0.44096
 N613 N 0.75112 0.83419 0.42093
 N614 N 0.75449 0.82015 0.40362
 C615 C 0.77211 0.78703 0.38727
 C616 C 0.77519 0.77434 0.37164
 C617 C 0.75790 0.84553 0.45966
 C618 C 0.75473 0.85781 0.47557
 C619 C 0.26813 0.30183 -0.09422
 N620 N 0.25411 0.31985 -0.09642
 N621 N 0.25076 0.33387 -0.07910
 C622 C 0.26134 0.33030 -0.05907
 N623 N 0.27532 0.31226 -0.05686
 N624 N 0.27868 0.29824 -0.07418
 C625 C 0.27183 0.28678 -0.11289
 C626 C 0.27497 0.27415 -0.12857
 C627 C 0.25767 0.34528 -0.04036
 C628 C 0.25461 0.35762 -0.02445
 C629 C 0.73203 0.19815 -0.09403
 N630 N 0.72071 0.17822 -0.09278
 N631 N 0.72415 0.16422 -0.07545
 C632 C 0.73901 0.16973 -0.05887
 N633 N 0.75032 0.18966 -0.06013
 N634 N 0.74689 0.20366 -0.07745
 C635 C 0.72828 0.21323 -0.11266
 C636 C 0.72510 0.22588 -0.12832
 C637 C 0.74255 0.15481 -0.04010
 C638 C 0.74556 0.14249 -0.02417
 C639 C 0.23121 0.69818 0.40599
 N640 N 0.24517 0.70413 0.42318
 N641 N 0.24861 0.69007 0.44045
 C642 C 0.23820 0.66963 0.44104
 N643 N 0.22421 0.66368 0.42387
 N644 N 0.22077 0.67774 0.40659
 C645 C 0.22758 0.71330 0.38738
 C646 C 0.22457 0.72604 0.37175
 C647 C 0.24189 0.65460 0.45970
 C648 C 0.24509 0.64225 0.47558
 C649 C 0.26798 0.69810 0.59414
 N650 N 0.27844 0.70179 0.57406
 N651 N 0.27515 0.68773 0.55676
 C652 C 0.26134 0.66954 0.55902
 N653 N 0.25086 0.66586 0.57909
 N654 N 0.25414 0.67993 0.59640
 C655 C 0.27156 0.71324 0.61276
 C656 C 0.27463 0.72596 0.62839
 C657 C 0.25771 0.65456 0.54030
 C658 C 0.25466 0.64223 0.52437
 C659 C 0.76924 0.19808 0.09435
 N660 N 0.75535 0.17996 0.09666
 N661 N 0.75192 0.16594 0.07934
 C662 C 0.76230 0.16962 0.05923
 N663 N 0.77619 0.18774 0.05693
 N664 N 0.77962 0.20176 0.07423
 C665 C 0.77290 0.21319 0.11297
 C666 C 0.77597 0.22587 0.12862
 C667 C 0.75843 0.15471 0.04051
 C668 C 0.75517 0.14243 0.02460
 C669 C 0.48132 0.34379 0.55165
 N670 N 0.48796 0.32339 0.54352
 N671 N 0.49145 0.30609 0.55755
 C672 C 0.48843 0.30865 0.58015
 N673 N 0.48178 0.32904 0.58828
 N674 N 0.47828 0.34635 0.57425
 C675 C 0.47764 0.36248 0.53654
 C676 C 0.47459 0.37817 0.52385
 C677 C 0.49217 0.28997 0.59525
 C678 C 0.49534 0.27413 0.60773
 C679 C -0.01884 0.84430 0.05141
 N680 N 0.00219 0.83989 0.05944
 N681 N 0.00565 0.82255 0.07341
 C682 C -0.01182 0.80911 0.07980
 N683 N -0.03284 0.81350 0.07176
 N684 N -0.03631 0.83084 0.05778
 C685 C -0.02254 0.86295 0.03634
 C686 C -0.02558 0.87861 0.02364
 C687 C -0.00804 0.79031 0.09468
 C688 C -0.00483 0.77439 0.10698
 C689 C 0.01897 0.65574 0.05138
 N690 N 0.03366 0.66004 0.06847
 N691 N 0.03014 0.67738 0.08244
 C692 C 0.01182 0.69091 0.07976
 N693 N -0.00285 0.68662 0.06266
 N694 N 0.00066 0.66928 0.04869
 C695 C 0.02270 0.63704 0.03636
 C696 C 0.02573 0.62137 0.02369
 C697 C 0.00809 0.70968 0.09467
 C698 C 0.00491 0.72560 0.10698
 C699 C 0.51909 0.15576 0.55171
 N700 N 0.50197 0.17054 0.54792
 N701 N 0.49845 0.18780 0.56200
 C702 C 0.51194 0.19080 0.58031
 N703 N 0.52908 0.17604 0.58409
 N704 N 0.53260 0.15877 0.57001
 C705 C 0.52282 0.13712 0.53657
 C706 C 0.52585 0.12146 0.52384
 C707 C 0.50821 0.20950 0.59539
 C708 C 0.50504 0.22536 0.60782
 C709 C -0.01938 0.15589 0.44837
 N710 N -0.03380 0.17372 0.44823
 N711 N -0.03037 0.19105 0.43422
 C712 C -0.01243 0.19105 0.41992
 N713 N 0.00200 0.17323 0.42008
 N714 N -0.00143 0.15590 0.43409
 C715 C -0.02302 0.13726 0.46350
 C716 C -0.02601 0.12160 0.47621
 C717 C -0.00862 0.20981 0.40501
 C718 C -0.00539 0.22573 0.39270
 C719 C 0.48129 0.65584 0.94857
 N720 N 0.46762 0.67424 0.94934
 N721 N 0.47101 0.69157 0.93532
 C722 C 0.48817 0.69102 0.92011
 N723 N 0.50187 0.67264 0.91936
 N724 N 0.49848 0.65531 0.93338
 C725 C 0.47765 0.63717 0.96367
 C726 C 0.47463 0.62150 0.97637
 C727 C 0.49192 0.70976 0.90514
 C728 C 0.49507 0.72566 0.89278
 C729 C 0.51880 0.84419 0.94860
 N730 N 0.53223 0.84123 0.93024
 N731 N 0.52872 0.82392 0.91622
 C732 C 0.51166 0.80907 0.92013
 N733 N 0.49826 0.81202 0.93851
 N734 N 0.50177 0.82932 0.95253
 C735 C 0.52251 0.86287 0.96367
 C736 C 0.52554 0.87855 0.97636
 C737 C 0.50794 0.79035 0.90514
 C738 C 0.50476 0.77445 0.89277
 C739 C 0.01857 0.34427 0.44838
 N740 N 0.03196 0.34129 0.43000
 N741 N 0.02841 0.32399 0.41599
 C742 C 0.01135 0.30916 0.41994
 N743 N -0.00203 0.31214 0.43833
 N744 N 0.00152 0.32944 0.45233
 C745 C 0.02234 0.36292 0.46345
 C746 C 0.02540 0.37858 0.47613
 C747 C 0.00760 0.29042 0.40500
 C748 C 0.00441 0.27450 0.39268
 C749 C 0.34391 0.55026 0.48178
 N750 N 0.32272 0.54427 0.47533
 N751 N 0.30540 0.55831 0.47862
 C752 C 0.30876 0.57877 0.48845
 N753 N 0.32994 0.58475 0.49492
 N754 N 0.34725 0.57071 0.49163
 C755 C 0.36259 0.53521 0.47814
 C756 C 0.37833 0.52265 0.47501
 C757 C 0.29010 0.59383 0.49208
 C758 C 0.27427 0.60627 0.49518
 C759 C 0.84428 0.05083 -0.01808
 N760 N 0.82310 0.04483 -0.02452
 N761 N 0.80578 0.05885 -0.02121
 C762 C 0.80914 0.07930 -0.01137
 N763 N 0.83032 0.08530 -0.00491
 N764 N 0.84764 0.07128 -0.00823
 C765 C 0.86291 0.03579 -0.02173
 C766 C 0.87858 0.02319 -0.02489
 C767 C 0.79048 0.09428 -0.00769
 C768 C 0.77460 0.10663 -0.00457
 C769 C 0.65626 0.05052 0.01845
 N770 N 0.65255 0.07259 0.01343
 N771 N 0.66988 0.08662 0.01012
 C772 C 0.69145 0.07900 0.01175
 N773 N 0.69517 0.05693 0.01676
 N774 N 0.67783 0.04289 0.02007
 C775 C 0.63759 0.03546 0.02208
 C776 C 0.62184 0.02289 0.02521
 C777 C 0.71011 0.09406 0.00811
 C778 C 0.72595 0.10650 0.00501
 C779 C 0.15584 0.55065 0.51817
 N780 N 0.15249 0.57333 0.51759
 N781 N 0.16983 0.58735 0.51425
 C782 C 0.19103 0.57907 0.51140
 N783 N 0.19438 0.55639 0.51199
 N784 N 0.17704 0.54238 0.51532
 C785 C 0.13721 0.53560 0.52181
 C786 C 0.12151 0.52300 0.52492
 C787 C 0.20970 0.59408 0.50779
 C788 C 0.22559 0.60642 0.50470
 C789 C 0.15588 0.44926 -0.01823
 N790 N 0.17708 0.45753 -0.01538
 N791 N 0.19441 0.44353 -0.01206
 C792 C 0.19104 0.42084 -0.01150
 N793 N 0.16984 0.41256 -0.01436
 N794 N 0.15251 0.42657 -0.01768
 C795 C 0.13724 0.46430 -0.02186
 C796 C 0.12156 0.47689 -0.02499
 C797 C 0.20970 0.40584 -0.00789
 C798 C 0.22557 0.39348 -0.00481
 C799 C 0.65613 0.94952 0.48172
 N800 N 0.67725 0.95779 0.48514
 N801 N 0.69455 0.94376 0.48849
 C802 C 0.69123 0.92107 0.48850
 N803 N 0.67011 0.91280 0.48508
 N804 N 0.65281 0.92683 0.48174
 C805 C 0.63753 0.96458 0.47805
 C806 C 0.62184 0.97715 0.47491
 C807 C 0.70984 0.90603 0.49211
 C808 C 0.72565 0.89363 0.49519
 C809 C 0.84367 0.94968 0.51817
 N810 N 0.82656 0.94849 0.53340
 N811 N 0.80930 0.93439 0.53007
 C812 C 0.80868 0.92104 0.51143
 N813 N 0.82576 0.92225 0.49619
 N814 N 0.84302 0.93635 0.49952
 C815 C 0.86230 0.96470 0.52184
 C816 C 0.87802 0.97724 0.52497
 C817 C 0.79004 0.90603 0.50778
 C818 C 0.77420 0.89363 0.50468
 C819 C 0.34391 0.44954 0.01830
 N820 N 0.32517 0.45088 0.03146
 N821 N 0.30785 0.43682 0.02813
 C822 C 0.30878 0.42099 0.01156
 N823 N 0.32750 0.41968 -0.00163
 N824 N 0.34481 0.43373 0.00170
 C825 C 0.36261 0.46455 0.02198
 C826 C 0.37837 0.47709 0.02514
 C827 C 0.29009 0.40598 0.00788
 C828 C 0.27424 0.39357 0.00475
 C829 C 0.55173 0.48133 0.34403
 N830 N 0.56671 0.46508 0.33787
 N831 N 0.58080 0.46851 0.32061
 C832 C 0.58036 0.48830 0.30902
 N833 N 0.56537 0.50453 0.31516
 N834 N 0.55128 0.50110 0.33242
 C835 C 0.53658 0.47764 0.36263
 C836 C 0.52389 0.47454 0.37829
 C837 C 0.59537 0.49192 0.29030
 C838 C 0.60775 0.49501 0.27442
 C839 C 0.05126 -0.01837 0.84375
 N840 N 0.05716 0.00291 0.83749
 N841 N 0.07126 0.00623 0.82022
 C842 C 0.07991 -0.01162 0.80870
 N843 N 0.07398 -0.03289 0.81493
 N844 N 0.05988 -0.03621 0.83221
 C845 C 0.03619 -0.02198 0.86244
 C846 C 0.02358 -0.02507 0.87817
 C847 C 0.09495 -0.00807 0.78999
 C848 C 0.10738 -0.00507 0.77410
 C849 C 0.05110 0.01843 0.65602
 N850 N 0.06141 0.03614 0.66635
 N851 N 0.07554 0.03265 0.68357
 C852 C 0.07980 0.01135 0.69095
 N853 N 0.06945 -0.00634 0.68065
 N854 N 0.05532 -0.00286 0.66344
 C855 C 0.03600 0.02218 0.63739
 C856 C 0.02336 0.02532 0.62170
 C857 C 0.09490 0.00760 0.70958
 C858 C 0.10735 0.00441 0.72539
 C859 C 0.55176 0.51840 0.15611
 N860 N 0.56154 0.53617 0.16684
 N861 N 0.57564 0.53273 0.18408
 C862 C 0.58041 0.51141 0.19108
 N863 N 0.57061 0.49365 0.18037
 N864 N 0.55651 0.49709 0.16313
 C865 C 0.53662 0.52211 0.13751
 C866 C 0.52394 0.52523 0.12186
 C867 C 0.59540 0.50771 0.20979
 C868 C 0.60777 0.50457 0.22567
 C869 C 0.44841 -0.01851 0.15627
 N870 N 0.45290 -0.00234 0.17191
 N871 N 0.43880 0.00104 0.18917
 C872 C 0.41978 -0.01163 0.19131
 N873 N 0.41530 -0.02781 0.17568
 N874 N 0.42939 -0.03119 0.15842
 C875 C 0.46357 -0.02217 0.13766
 C876 C 0.47626 -0.02527 0.12200
 C877 C 0.40470 -0.00808 0.21000
 C878 C 0.39227 -0.00507 0.22587
 C879 C 0.94861 0.48170 0.65589
 N880 N 0.95011 0.46876 0.67476
 N881 N 0.93605 0.47214 0.69204
 C882 C 0.92006 0.48854 0.69097
 N883 N 0.91858 0.50151 0.67211
 N884 N 0.93265 0.49813 0.65482
 C885 C 0.96368 0.47799 0.63724
 C886 C 0.97631 0.47484 0.62156
 C887 C 0.90504 0.49226 0.70965
 C888 C 0.89265 0.49538 0.72551
 C889 C 0.94869 0.51844 0.84382
 N890 N 0.94933 0.49878 0.83202
 N891 N 0.93525 0.49538 0.81475
 C892 C 0.92010 0.51153 0.80879
 N893 N 0.91948 0.53120 0.82057
 N894 N 0.93356 0.53460 0.83783
 C895 C 0.96380 0.52208 0.86244
 C896 C 0.97644 0.52518 0.87812
 C897 C 0.90508 0.50794 0.79009
 C898 C 0.89268 0.50487 0.77422
 C899 C 0.44855 0.01827 0.34401
 N900 N 0.45590 0.02057 0.32240
 N901 N 0.44179 0.01718 0.30515
 C902 C 0.41992 0.01138 0.30898
 N903 N 0.41258 0.00907 0.33059
 N904 N 0.42668 0.01247 0.34784
 C905 C 0.46371 0.02196 0.36261
 C906 C 0.47638 0.02506 0.37827
 C907 C 0.40478 0.00763 0.29038
 C908 C 0.39231 0.00446 0.27458
   
