data_POSCAR
  _audit_creation_date              2014-09-24
  _audit_creation_method            'ToBaCCo'
  _symmetry_space_group_name_H-M    'P1'
  _symmetry_Int_Tables_number       1
  _symmetry_cell_setting            triclinic
  loop_
  _symmetry_equiv_pos_as_xyz
 x,y,z
_cell_length_a 31.2220
_cell_length_b 44.3155
_cell_length_c 22.4153
_cell_angle_alpha 89.986500
_cell_angle_beta 89.985200
_cell_angle_gamma 89.809500
loop_
  _atom_site_label
  _atom_site_type_symbol
  _atom_site_fract_x
  _atom_site_fract_y
  _atom_site_fract_z
C1 C 0.73220 0.33143 0.50445
 C2 C 0.73994 0.31810 0.56039
 C3 C 0.75060 0.28723 0.56210
 C4 C 0.75018 0.26915 0.51021
 C5 C 0.73950 0.28299 0.45543
 C6 C 0.73158 0.31414 0.45211
 C7 C 0.76075 0.23607 0.51366
 C8 C 0.77723 0.22042 0.46362
 C9 C 0.78904 0.18964 0.46706
 C10 C 0.78426 0.17486 0.52233
 C11 C 0.76919 0.19007 0.57274
 C12 C 0.75638 0.22019 0.56791
 H13 H 0.72268 0.35490 0.50157
 H14 H 0.76065 0.27770 0.60418
 H15 H 0.73710 0.26976 0.41506
 H16 H 0.78371 0.23273 0.42307
 H17 H 0.79230 0.15123 0.52711
 H18 H 0.74326 0.23091 0.60720
 C19 C 0.22118 0.82446 0.48625
 C20 C 0.21826 0.80873 0.54080
 C21 C 0.22548 0.77719 0.54030
 C22 C 0.23790 0.76200 0.48754
 C23 C 0.24106 0.77884 0.43435
 C24 C 0.23107 0.80956 0.43302
 C25 C 0.24758 0.72878 0.48733
 C26 C 0.24357 0.71192 0.43425
 C27 C 0.25668 0.68179 0.43156
 C28 C 0.27125 0.66752 0.48331
 C29 C 0.27548 0.68328 0.53763
 C30 C 0.26345 0.71407 0.53881
 H31 H 0.21201 0.84802 0.48377
 H32 H 0.22249 0.76456 0.58128
 H33 H 0.25116 0.76839 0.39310
 H34 H 0.23080 0.72199 0.39407
 H35 H 0.27958 0.64387 0.48031
 H36 H 0.26945 0.72714 0.57857
 C37 C 0.27894 0.32523 -0.51032
 C38 C 0.26904 0.31095 -0.56418
 C39 C 0.25770 0.28039 -0.56383
 C40 C 0.25939 0.26310 -0.51085
 C41 C 0.27144 0.27787 -0.45749
 C42 C 0.27998 0.30899 -0.45673
 C43 C 0.24959 0.22986 -0.51182
 C44 C 0.23623 0.21452 -0.45971
 C45 C 0.22825 0.18314 -0.45990
 C46 C 0.23130 0.16764 -0.51461
 C47 C 0.24200 0.18263 -0.56742
 C48 C 0.25280 0.21320 -0.56533
 H49 H 0.28831 0.34876 -0.51054
 H50 H 0.24783 0.27049 -0.60562
 H51 H 0.27468 0.26548 -0.41623
 H52 H 0.23289 0.22685 -0.41853
 H53 H 0.22150 0.14427 -0.51762
 H54 H 0.26340 0.22362 -0.60628
 C55 C -0.23115 0.83262 -0.48541
 C56 C -0.22889 0.81692 -0.54004
 C57 C -0.23746 0.78559 -0.53970
 C58 C -0.25030 0.77061 -0.48699
 C59 C -0.25269 0.78739 -0.43367
 C60 C -0.24156 0.81788 -0.43221
 C61 C -0.26090 0.73760 -0.48704
 C62 C -0.25689 0.72033 -0.43428
 C63 C -0.26981 0.69013 -0.43243
 C64 C -0.28440 0.67632 -0.48459
 C65 C -0.28861 0.69269 -0.53778
 C66 C -0.27705 0.72331 -0.53873
 H67 H -0.22101 0.85593 -0.48283
 H68 H -0.23508 0.77297 -0.58076
 H69 H -0.26298 0.77703 -0.39244
 H70 H -0.24413 0.73009 -0.39386
 H71 H -0.29425 0.65290 -0.48308
 H72 H -0.28260 0.73608 -0.57913
 N73 N -0.04982 0.94707 -0.05960
 N74 N -0.07965 0.92668 -0.07047
 N75 N 0.03854 0.96644 -0.10942
 N76 N 0.06303 0.95934 -0.15526
 N77 N 0.03994 0.94510 -0.06878
 N78 N 0.06541 0.92289 -0.08618
 N79 N -0.05108 0.96855 -0.09994
 N80 N -0.08173 0.96343 -0.13897
 C81 C -0.09972 0.93748 -0.11978
 C82 C 0.08010 0.93233 -0.13994
 N83 N 0.04407 1.05271 -0.06880
 N84 N 0.07129 1.07375 -0.08617
 N85 N -0.04859 1.03332 -0.09993
 N86 N -0.07923 1.03963 -0.13839
 N87 N -0.04568 1.05461 -0.05942
 N88 N -0.07432 1.07605 -0.06951
 N89 N 0.04108 1.03144 -0.10937
 N90 N 0.06616 1.03741 -0.15514
 Mn91 Mn -0.00501 0.99994 -0.10503
 C92 C 0.08531 1.06363 -0.13983
 C93 C -0.09542 1.06616 -0.11861
 N94 N 0.04677 0.94510 0.06014
 N95 N 0.07522 0.92361 0.07100
 N96 N -0.04025 0.96810 0.10965
 N97 N -0.06530 0.96203 0.15542
 N98 N -0.04303 0.94679 0.06915
 N99 N -0.07008 0.92564 0.08654
 N100 N 0.04941 0.96647 0.10054
 N101 N 0.07968 0.96022 0.13955
 Mn102 Mn -0.00153 0.94569 0.00022
 C103 C 0.09595 0.93363 0.12035
 C104 C -0.08422 0.93572 0.14017
 N105 N -0.03876 1.05462 0.06915
 N106 N -0.06424 1.07684 0.08642
 N107 N 0.05186 1.03116 0.10061
 N108 N 0.08222 1.03644 0.14004
 N109 N 0.05089 1.05250 0.06000
 N110 N 0.08055 1.07299 0.07108
 N111 N -0.03795 1.03309 0.10939
 N112 N -0.06307 1.03996 0.15468
 Mn113 Mn 0.00267 1.05392 0.00021
 Mn114 Mn 0.00574 0.99971 0.10541
 Cl115 Cl 0.00048 0.99980 0.00020
 C116 C -0.07977 1.06710 0.13948
 C117 C 0.10029 1.06238 0.12080
 N118 N 0.45451 0.46676 0.10284
 N119 N 0.42526 0.46070 0.14342
 N120 N 0.54558 0.44664 0.06441
 N121 N 0.57287 0.42510 0.07954
 N122 N 0.54446 0.46776 0.10550
 N123 N 0.57111 0.46121 0.14931
 N124 N 0.45563 0.44556 0.06195
 N125 N 0.42709 0.42441 0.07392
 C126 C 0.40801 0.43442 0.12462
 C127 C 0.58911 0.43476 0.13221
 N128 N 0.54689 0.46892 -0.10510
 N129 N 0.57587 0.46387 -0.14659
 N130 N 0.45754 0.44591 -0.06711
 N131 N 0.43196 0.42365 -0.08323
 N132 N 0.45704 0.46747 -0.10731
 N133 N 0.43104 0.46049 -0.15151
 N134 N 0.54753 0.44740 -0.06481
 N135 N 0.57712 0.42704 -0.07817
 Mn136 Mn 0.50160 0.44606 -0.00138
 C137 C 0.59491 0.43791 -0.12906
 C138 C 0.41508 0.43330 -0.13558
 N139 N 0.54240 0.53278 0.10649
 N140 N 0.56776 0.53992 0.15127
 N141 N 0.45224 0.55300 0.06327
 N142 N 0.42181 0.57297 0.07465
 N143 N 0.45242 0.53161 0.10382
 N144 N 0.42217 0.53645 0.14377
 N145 N 0.54218 0.55433 0.06625
 N146 N 0.56728 0.57675 0.08303
 Mn147 Mn 0.49847 0.49972 0.10507
 C148 C 0.58366 0.56716 0.13573
 C149 C 0.40299 0.56215 0.12476
 N150 N 0.45489 0.53244 -0.10596
 N151 N 0.42787 0.53871 -0.14940
 N152 N 0.54420 0.55466 -0.06275
 N153 N 0.57312 0.57560 -0.07422
 N154 N 0.54495 0.53364 -0.10398
 N155 N 0.57439 0.53962 -0.14438
 N156 N 0.45428 0.55383 -0.06545
 N157 N 0.42704 0.57539 -0.08076
 Mn158 Mn 0.50089 0.50063 -0.10595
 Mn159 Mn 0.49825 0.55426 0.00034
 Cl160 Cl 0.49982 0.50015 -0.00047
 C161 C 0.41021 0.56533 -0.13277
 C162 C 0.59208 0.56567 -0.12504
 C163 C 0.30324 0.36210 0.28070
 C164 C 0.31521 0.33157 0.28581
 C165 C 0.30137 0.31430 0.33422
 C166 C 0.27564 0.32724 0.37885
 C167 C 0.26123 0.35705 0.37179
 C168 C 0.27458 0.37423 0.32294
 C169 C 0.32473 0.38195 0.23629
 C170 C 0.33704 0.41128 0.25274
 C171 C 0.36244 0.42869 0.21502
 C172 C 0.37655 0.41718 0.16008
 C173 C 0.36274 0.38848 0.14205
 C174 C 0.33697 0.37103 0.17976
 H175 H 0.31328 0.29144 0.33894
 H176 H 0.24095 0.36740 0.40531
 H177 H 0.37246 0.45078 0.23013
 H178 H 0.37292 0.37915 0.09968
 H179 H 0.26383 0.39742 0.31959
 H180 H 0.32898 0.42032 0.29618
 H181 H 0.33760 0.32152 0.25469
 H182 H 0.32752 0.34873 0.16528
 C183 C -0.18225 0.86560 0.30973
 C184 C -0.20869 0.87963 0.35216
 C185 C -0.22507 0.86339 0.40024
 C186 C -0.21608 0.83235 0.40733
 C187 C -0.19230 0.81783 0.36196
 C188 C -0.17527 0.83432 0.31420
 C189 C -0.15964 0.88405 0.26405
 C190 C -0.15201 0.87302 0.20611
 C191 C -0.12839 0.89006 0.16500
 C192 C -0.11205 0.91842 0.18107
 C193 C -0.12051 0.92968 0.23837
 C194 C -0.14379 0.91269 0.27938
 H195 H -0.24529 0.87537 0.43160
 H196 H -0.18376 0.79422 0.36521
 H197 H -0.12238 0.88085 0.12103
 H198 H -0.10819 0.95140 0.25222
 H199 H -0.15479 0.82280 0.28251
 H200 H -0.16413 0.85121 0.19264
 H201 H -0.21620 0.90344 0.34882
 H202 H -0.14818 0.92170 0.32386
 C203 C 0.66140 0.64373 0.31214
 C204 C 0.69521 0.66418 0.30384
 C205 C 0.71078 0.68103 0.35212
 C206 C 0.69257 0.67773 0.40915
 C207 C 0.65727 0.65849 0.41626
 C208 C 0.64202 0.64163 0.36845
 C209 C 0.64667 0.62370 0.26348
 C210 C 0.63979 0.59298 0.27533
 C211 C 0.62127 0.57437 0.23248
 C212 C 0.60904 0.58607 0.17683
 C213 C 0.61800 0.61642 0.16358
 C214 C 0.63685 0.63511 0.20661
 H215 H 0.73801 0.69573 0.34545
 H216 H 0.64177 0.65613 0.45923
 H217 H 0.61517 0.55102 0.24381
 H218 H 0.60896 0.62599 0.12093
 H219 H 0.61519 0.62662 0.37564
 H220 H 0.64783 0.58351 0.31847
 H221 H 0.71054 0.66624 0.26070
 H222 H 0.64192 0.65872 0.19646
 C223 C 0.20816 1.13301 0.27555
 C224 C 0.19629 1.16351 0.28163
 C225 C 0.21026 1.18038 0.33051
 C226 C 0.23604 1.16706 0.37464
 C227 C 0.25054 1.13734 0.36644
 C228 C 0.23704 1.12056 0.31713
 C229 C 0.18617 1.11346 0.23108
 C230 C 0.17374 1.08409 0.24715
 C231 C 0.14758 1.06706 0.20974
 C232 C 0.13283 1.07901 0.15549
 C233 C 0.14687 1.10771 0.13768
 C234 C 0.17338 1.12476 0.17508
 H235 H 0.19826 1.20317 0.33608
 H236 H 0.27081 1.12668 0.39958
 H237 H 0.13741 1.04497 0.22465
 H238 H 0.13622 1.11738 0.09584
 H239 H 0.24771 1.09739 0.31304
 H240 H 0.18223 1.07474 0.29018
 H241 H 0.17377 1.17381 0.25102
 H242 H 0.18290 1.14710 0.16086
 C243 C 0.70414 0.36987 -0.28843
 C244 C 0.70088 0.33825 -0.28742
 C245 C 0.71588 0.32091 -0.33523
 C246 C 0.73333 0.33482 -0.38642
 C247 C 0.73980 0.36627 -0.38484
 C248 C 0.72601 0.38342 -0.33625
 C249 C 0.68058 0.38876 -0.24406
 C250 C 0.66167 0.41610 -0.26233
 C251 C 0.63546 0.43247 -0.22381
 C252 C 0.62668 0.42178 -0.16620
 C253 C 0.64641 0.39503 -0.14675
 C254 C 0.67336 0.37875 -0.18520
 H255 H 0.70972 0.29689 -0.33409
 H256 H 0.75533 0.37786 -0.42141
 H257 H 0.62065 0.45299 -0.24024
 H258 H 0.64039 0.38642 -0.10232
 H259 H 0.73109 0.40757 -0.33735
 H260 H 0.66535 0.42434 -0.30748
 H261 H 0.68408 0.32688 -0.25171
 H262 H 0.68789 0.35809 -0.16912
 C263 C 0.17398 0.85869 -0.30905
 C264 C 0.16546 0.82764 -0.31347
 C265 C 0.18175 0.81064 -0.36116
 C266 C 0.20625 0.82446 -0.40651
 C267 C 0.21684 0.85520 -0.39937
 C268 C 0.20122 0.87191 -0.35135
 C269 C 0.15221 0.87786 -0.26357
 C270 C 0.13795 0.90696 -0.27913
 C271 C 0.11570 0.92479 -0.23826
 C272 C 0.10668 0.91395 -0.18083
 C273 C 0.12133 0.88508 -0.16456
 C274 C 0.14393 0.86719 -0.20556
 H275 H 0.17209 0.78728 -0.36443
 H276 H 0.23769 0.86657 -0.43068
 H277 H 0.10465 0.94687 -0.25228
 H278 H 0.11484 0.87617 -0.12050
 H279 H 0.20995 0.89547 -0.34801
 H280 H 0.14284 0.91574 -0.32368
 H281 H 0.14438 0.81673 -0.28182
 H282 H 0.15480 0.84502 -0.19192
 C283 C 0.32428 0.63613 -0.31109
 C284 C 0.29741 0.66128 -0.30317
 C285 C 0.28195 0.67737 -0.35267
 C286 C 0.29286 0.66853 -0.41141
 C287 C 0.32151 0.64402 -0.41816
 C288 C 0.33677 0.62816 -0.36901
 C289 C 0.34009 0.61796 -0.25998
 C290 C 0.34227 0.58639 -0.26502
 C291 C 0.36318 0.56921 -0.22181
 C292 C 0.38204 0.58316 -0.17225
 C293 C 0.37723 0.61448 -0.16471
 C294 C 0.35643 0.63180 -0.20839
 H295 H 0.25972 0.69568 -0.34452
 H296 H 0.33374 0.63738 -0.46136
 H297 H 0.36590 0.54506 -0.22831
 H298 H 0.39150 0.62577 -0.12680
 H299 H 0.35895 0.60969 -0.37643
 H300 H 0.32904 0.57503 -0.30359
 H301 H 0.28738 0.66796 -0.25884
 H302 H 0.35522 0.65609 -0.20339
 C303 C -0.20224 1.14039 -0.26895
 C304 C -0.23167 1.12882 -0.31063
 C305 C -0.24388 1.14589 -0.36025
 C306 C -0.22768 1.17508 -0.36844
 C307 C -0.20185 1.18781 -0.32392
 C308 C -0.18903 1.17059 -0.27478
 C309 C -0.18071 1.12002 -0.22529
 C310 C -0.16977 1.09043 -0.24227
 C311 C -0.14380 1.07254 -0.20599
 C312 C -0.12772 1.08382 -0.15200
 C313 C -0.14028 1.11276 -0.13321
 C314 C -0.16663 1.13068 -0.16947
 H315 H -0.26412 1.13574 -0.39391
 H316 H -0.18866 1.21021 -0.32965
 H317 H -0.13479 1.05029 -0.22163
 H318 H -0.12859 1.12192 -0.09152
 H319 H -0.16614 1.18024 -0.24404
 H320 H -0.17920 1.08153 -0.28525
 H321 H -0.24346 1.10596 -0.30667
 H322 H -0.17496 1.15318 -0.15455
 C323 C 0.69911 0.63837 -0.27748
 C324 C 0.72683 0.62634 -0.32104
 C325 C 0.73977 0.64386 -0.36963
 C326 C 0.72596 0.67389 -0.37502
 C327 C 0.70171 0.68678 -0.32879
 C328 C 0.68821 0.66917 -0.28065
 C329 C 0.67711 0.61821 -0.23409
 C330 C 0.66545 0.62845 -0.17685
 C331 C 0.63906 0.61094 -0.14010
 C332 C 0.62405 0.58282 -0.15979
 C333 C 0.63754 0.57191 -0.21549
 C334 C 0.66355 0.58941 -0.25227
 H335 H 0.75882 0.63354 -0.40453
 H336 H 0.69031 0.70983 -0.33227
 H337 H 0.62940 0.61979 -0.09711
 H338 H 0.62656 0.55029 -0.23188
 H339 H 0.66664 0.67919 -0.24840
 H340 H 0.67582 0.65032 -0.16105
 H341 H 0.73682 0.60295 -0.31917
 H342 H 0.67108 0.58090 -0.29631
 C343 C 0.18227 1.13388 -0.31001
 C344 C 0.20889 1.12010 -0.35250
 C345 C 0.22493 1.13650 -0.40060
 C346 C 0.21534 1.16746 -0.40762
 C347 C 0.19110 1.18170 -0.36235
 C348 C 0.17450 1.16505 -0.31458
 C349 C 0.16023 1.11529 -0.26408
 C350 C 0.15266 1.12636 -0.20617
 C351 C 0.12930 1.10929 -0.16488
 C352 C 0.11315 1.08086 -0.18076
 C353 C 0.12168 1.06950 -0.23798
 C354 C 0.14474 1.08653 -0.27916
 H355 H 0.24542 1.12474 -0.43193
 H356 H 0.18195 1.20520 -0.36562
 H357 H 0.12324 1.11856 -0.12097
 H358 H 0.10953 1.04771 -0.25165
 H359 H 0.15376 1.17635 -0.28291
 H360 H 0.16456 1.14828 -0.19290
 H361 H 0.21689 1.09636 -0.34914
 H362 H 0.14915 1.07748 -0.32360
 C363 C 0.32318 0.35861 -0.30332
 C364 C 0.33922 0.32946 -0.31474
 C365 C 0.32388 0.31264 -0.36305
 C366 C 0.29235 0.32472 -0.40094
 C367 C 0.27485 0.35318 -0.38773
 C368 C 0.28999 0.36989 -0.33941
 C369 C 0.34332 0.37815 -0.25737
 C370 C 0.35110 0.40874 -0.26989
 C371 C 0.37312 0.42681 -0.22929
 C372 C 0.38795 0.41476 -0.17517
 C373 C 0.37906 0.38447 -0.16153
 C374 C 0.35705 0.36630 -0.20235
 H375 H 0.33816 0.29086 -0.37252
 H376 H 0.25002 0.36279 -0.41570
 H377 H 0.37952 0.45006 -0.24107
 H378 H 0.39009 0.37461 -0.12006
 H379 H 0.27635 0.39199 -0.33106
 H380 H 0.34158 0.41849 -0.31217
 H381 H 0.36508 0.32024 -0.28816
 H382 H 0.35115 0.34291 -0.19117
 C383 C -0.20769 0.86743 -0.27504
 C384 C -0.19571 0.83697 -0.28132
 C385 C -0.20951 0.82019 -0.33038
 C386 C -0.23521 0.83357 -0.37452
 C387 C -0.24971 0.86328 -0.36629
 C388 C -0.23641 0.87996 -0.31675
 C389 C -0.18592 0.88687 -0.23021
 C390 C -0.17360 0.91632 -0.24587
 C391 C -0.14741 0.93320 -0.20829
 C392 C -0.13250 0.92103 -0.15432
 C393 C -0.14651 0.89228 -0.13683
 C394 C -0.17309 0.87538 -0.17438
 H395 H -0.19754 0.79739 -0.33599
 H396 H -0.26995 0.87396 -0.39944
 H397 H -0.13728 0.95535 -0.22293
 H398 H -0.13575 0.88246 -0.09519
 H399 H -0.24717 0.90311 -0.31252
 H400 H -0.18212 0.92582 -0.28875
 H401 H -0.17328 0.82661 -0.25067
 H402 H -0.18257 0.85298 -0.16045
 C403 C 0.29020 0.63153 0.27566
 C404 C 0.26248 0.61890 0.31837
 C405 C 0.24846 0.63595 0.36709
 C406 C 0.26134 0.66609 0.37356
 C407 C 0.28550 0.67957 0.32801
 C408 C 0.29996 0.66244 0.27967
 C409 C 0.31351 0.61195 0.23245
 C410 C 0.32852 0.58343 0.25061
 C411 C 0.35602 0.56672 0.21424
 C412 C 0.36950 0.57819 0.15901
 C413 C 0.35294 0.60595 0.13926
 C414 C 0.32512 0.62265 0.17558
 H415 H 0.22945 0.62517 0.40139
 H416 H 0.29621 0.70269 0.33227
 H417 H 0.36817 0.54535 0.23062
 H418 H 0.36253 0.61520 0.09659
 H419 H 0.32149 0.67292 0.24805
 H420 H 0.32097 0.57462 0.29439
 H421 H 0.25341 0.59537 0.31581
 H422 H 0.31365 0.64431 0.15983
 C423 C -0.16193 1.14005 0.31889
 C424 C -0.18873 1.16510 0.30946
 C425 C -0.20426 1.18193 0.35789
 C426 C -0.19358 1.17396 0.41718
 C427 C -0.16525 1.14939 0.42555
 C428 C -0.14981 1.13282 0.37737
 C429 C -0.14600 1.12126 0.26866
 C430 C -0.14318 1.08977 0.27531
 C431 C -0.12327 1.07212 0.23191
 C432 C -0.10605 1.08547 0.18054
 C433 C -0.11113 1.11669 0.17185
 C434 C -0.13091 1.13448 0.21567
 H435 H -0.22638 1.20016 0.34850
 H436 H -0.15339 1.14328 0.46925
 H437 H -0.12030 1.04806 0.23940
 H438 H -0.09812 1.12753 0.13256
 H439 H -0.12777 1.11441 0.38600
 H440 H -0.15548 1.07883 0.31495
 H441 H -0.19865 1.17119 0.26475
 H442 H -0.13256 1.15868 0.20935
 C443 C 0.68705 0.36173 0.29682
 C444 C 0.67164 0.33264 0.30959
 C445 C 0.68771 0.31634 0.35824
 C446 C 0.71943 0.32886 0.39504
 C447 C 0.73659 0.35714 0.38009
 C448 C 0.72064 0.37337 0.33152
 C449 C 0.66559 0.38096 0.25137
 C450 C 0.65676 0.41141 0.26413
 C451 C 0.63315 0.42908 0.22436
 C452 C 0.61786 0.41676 0.17080
 C453 C 0.62791 0.38665 0.15682
 C454 C 0.65141 0.36885 0.19688
 H455 H 0.67365 0.29471 0.36904
 H456 H 0.76153 0.36710 0.40721
 H457 H 0.62590 0.45221 0.23634
 H458 H 0.61654 0.37658 0.11578
 H459 H 0.73377 0.39545 0.32208
 H460 H 0.66664 0.42132 0.30605
 H461 H 0.64552 0.32316 0.28403
 H462 H 0.65805 0.34555 0.18560
 C463 C 0.19982 0.86011 0.27579
 C464 C 0.18623 0.83004 0.28214
 C465 C 0.19911 0.81287 0.33125
 C466 C 0.22547 0.82547 0.37539
 C467 C 0.24150 0.85471 0.36714
 C468 C 0.22915 0.87176 0.31753
 C469 C 0.17912 0.88019 0.23089
 C470 C 0.16858 0.91005 0.24639
 C471 C 0.14340 0.92777 0.20876
 C472 C 0.12770 0.91605 0.15490
 C473 C 0.13994 0.88684 0.13755
 C474 C 0.16554 0.86908 0.17514
 H475 H 0.18598 0.79045 0.33689
 H476 H 0.26226 0.86476 0.40031
 H477 H 0.13464 0.95026 0.22330
 H478 H 0.12854 0.87734 0.09599
 H479 H 0.24116 0.89454 0.31325
 H480 H 0.17769 0.91932 0.28919
 H481 H 0.16328 0.82037 0.25150
 H482 H 0.17366 0.84637 0.16132
   
