data_POSCAR
  _audit_creation_date              2014-09-24
  _audit_creation_method            'ToBaCCo'
  _symmetry_space_group_name_H-M    'P1'
  _symmetry_Int_Tables_number       1
  _symmetry_cell_setting            triclinic
  loop_
  _symmetry_equiv_pos_as_xyz
 x,y,z
_cell_length_a 47.9610
_cell_length_b 48.4147
_cell_length_c 8.1918
_cell_angle_alpha 90.324800
_cell_angle_beta 89.735700
_cell_angle_gamma 90.052300
loop_
  _atom_site_label
  _atom_site_type_symbol
  _atom_site_fract_x
  _atom_site_fract_y
  _atom_site_fract_z
O1 O 0.22560 0.27456 0.13663
 O2 O 0.27843 0.22117 0.22734
 O3 O 0.22554 0.22079 0.15681
 O4 O 0.27882 0.27471 0.19583
 O5 O 0.27145 0.27810 0.46079
 O6 O 0.21796 0.22326 0.42165
 O7 O 0.27084 0.22447 0.49212
 O8 O 0.21822 0.27702 0.40176
 Cu9 Cu 0.25317 0.24734 0.15444
 Cu10 Cu 0.24353 0.25114 0.46890
 C11 C 0.21281 0.28507 0.25843
 C12 C 0.28377 0.21366 0.37221
 C13 C 0.21253 0.21262 0.28302
 C14 C 0.28426 0.28582 0.33251
 O15 O 0.73053 0.22275 0.39953
 O16 O 0.78231 0.27716 0.32056
 O17 O 0.73017 0.27645 0.40808
 O18 O 0.78252 0.22335 0.30828
 O19 O 0.77035 0.22431 0.04912
 O20 O 0.71814 0.27746 0.14871
 O21 O 0.77038 0.27795 0.06129
 O22 O 0.71838 0.22362 0.14032
 Cu23 Cu 0.75772 0.24981 0.38454
 Cu24 Cu 0.74296 0.25096 0.07442
 C25 C 0.71556 0.21384 0.28298
 C26 C 0.78532 0.28694 0.17800
 C27 C 0.71517 0.28610 0.29436
 C28 C 0.78542 0.21469 0.16252
 O29 O 0.72669 0.77910 0.65715
 O30 O 0.77966 0.72515 0.69990
 O31 O 0.72651 0.72523 0.63929
 O32 O 0.77945 0.77878 0.72922
 O33 O 0.77178 0.77615 0.99371
 O34 O 0.71903 0.72338 0.90438
 O35 O 0.77219 0.72240 0.96481
 O36 O 0.71887 0.77718 0.92205
 Cu37 Cu 0.75418 0.75243 0.65673
 Cu38 Cu 0.74436 0.74946 0.97100
 C39 C 0.71364 0.78747 0.78313
 C40 C 0.78501 0.71434 0.83681
 C41 C 0.71367 0.71499 0.76109
 C42 C 0.78483 0.78670 0.87392
 O43 O 0.28152 0.77759 0.80685
 O44 O 0.22923 0.72461 0.90800
 O45 O 0.28141 0.72386 0.82061
 O46 O 0.22952 0.77826 0.89843
 O47 O 0.21762 0.77708 0.63908
 O48 O 0.26918 0.72222 0.56157
 O49 O 0.21696 0.72321 0.64901
 O50 O 0.26952 0.77582 0.54747
 Cu51 Cu 0.25675 0.75127 0.88392
 Cu52 Cu 0.24196 0.74938 0.57383
 C53 C 0.28454 0.78578 0.66077
 C54 C 0.21408 0.71481 0.79468
 C55 C 0.28421 0.71368 0.67834
 C56 C 0.21467 0.78713 0.78179
 O57 O 1.02900 -0.02987 0.02849
 O58 O 0.97547 0.02149 0.13408
 O59 O 0.97479 -0.03051 0.05092
 O60 O 1.02959 0.02219 0.10932
 O61 O 1.02680 0.03238 -0.15209
 O62 O 0.97209 -0.01992 -0.20994
 O63 O 0.97260 0.03205 -0.12674
 O64 O 1.02615 -0.01965 -0.23282
 Cu65 Cu 1.00254 -0.00540 0.10606
 Cu66 Cu 0.99905 0.00746 -0.20572
 C67 C 1.03680 -0.03367 -0.11819
 C68 C 0.96483 0.03567 0.02024
 C69 C 0.96409 -0.03427 -0.08907
 C70 C 1.03761 0.03629 -0.01267
 O71 O 0.52992 0.47044 0.58174
 O72 O 0.47758 0.52284 0.69688
 O73 O 0.47652 0.46991 0.64139
 O74 O 0.53101 0.52330 0.64040
 O75 O 0.52438 0.53072 0.37824
 O76 O 0.46965 0.47698 0.37906
 O77 O 0.47089 0.52988 0.43443
 O78 O 0.52309 0.47772 0.31965
 Cu79 Cu 0.50466 0.49575 0.66521
 Cu80 Cu 0.49615 0.50468 0.35260
 C81 C 0.53556 0.46505 0.43339
 C82 C 0.46512 0.53537 0.58236
 C83 C 0.46366 0.46432 0.51024
 C84 C 0.53705 0.53622 0.51041
 O85 O -0.02363 0.53011 0.14278
 O86 O 0.03095 0.47693 0.13964
 O87 O 0.02976 0.52974 0.08301
 O88 O -0.02245 0.47721 0.19599
 O89 O -0.02921 0.46987 -0.06662
 O90 O 0.02289 0.52212 -0.17926
 O91 O 0.02429 0.46916 -0.12268
 O92 O -0.03052 0.52273 -0.11975
 Cu93 Cu 0.00456 0.50439 0.16563
 Cu94 Cu -0.00398 0.49510 -0.14739
 C95 C -0.03651 0.53552 0.01183
 C96 C 0.03697 0.46386 0.00934
 C97 C 0.03533 0.53499 -0.06528
 C98 C -0.03491 0.46451 0.08122
 O99 O 0.52608 1.01923 0.26638
 O100 O 0.47244 0.96757 0.37012
 O101 O 0.47197 1.01943 0.28807
 O102 O 0.52662 0.96725 0.34493
 O103 O 0.52941 0.97786 0.60646
 O104 O 0.47459 1.03038 0.54917
 O105 O 0.47530 0.97849 0.63116
 O106 O 0.52882 1.02986 0.52787
 Cu107 Cu 0.49893 0.99212 0.29193
 Cu108 Cu 0.50235 1.00540 0.60413
 C109 C 0.53669 1.03344 0.38137
 C110 C 0.46466 0.96413 0.51706
 C111 C 0.46392 1.03391 0.40914
 C112 C 0.53741 0.96356 0.48432
 C113 C 1.15834 0.16069 0.39410
 C114 C 1.15111 0.14933 0.24015
 C115 C 1.16474 0.16014 0.10039
 C116 C 1.18511 0.18083 0.11568
 C117 C 1.19217 0.19180 0.26915
 C118 C 1.17839 0.18153 0.40779
 C119 C 1.15802 0.15036 -0.05476
 C120 C 1.13769 0.13030 -0.07565
 C121 C 1.12333 0.11885 0.05888
 C122 C 1.13070 0.12794 0.21977
 C123 C 1.11765 0.11512 0.35457
 C124 C 1.09772 0.09460 0.33345
 C125 C 1.08959 0.08623 0.17763
 C126 C 1.10204 0.09838 0.03790
 C127 C 1.09235 0.08972 -0.11726
 C128 C 1.07159 0.06970 -0.13221
 C129 C 1.05972 0.05745 0.00610
 C130 C 1.06889 0.06580 0.16095
 H131 H 1.14865 0.15426 0.50655
 H132 H 1.19527 0.18855 0.00646
 H133 H 1.18311 0.18952 0.52840
 H134 H 1.16849 0.15844 -0.16199
 H135 H 1.13409 0.12389 -0.19978
 H136 H 1.12269 0.12018 0.47913
 H137 H 1.08838 0.08531 0.44076
 H138 H 1.09996 0.09827 -0.23002
 H139 H 1.06485 0.06379 -0.25353
 H140 H 1.05966 0.05667 0.26903
 C141 C 0.66106 0.66012 0.87085
 C142 C 0.65186 0.65017 0.71776
 C143 C 0.66304 0.66269 0.57543
 C144 C 0.68334 0.68373 0.58802
 C145 C 0.69242 0.69295 0.74159
 C146 C 0.68089 0.68096 0.88185
 C147 C 0.65378 0.65424 0.42176
 C148 C 0.63343 0.63387 0.40587
 C149 C 0.62180 0.62066 0.54387
 C150 C 0.63174 0.62849 0.70209
 C151 C 0.62151 0.61419 0.83981
 C152 C 0.60166 0.59360 0.82500
 C153 C 0.59102 0.58636 0.67297
 C154 C 0.60074 0.59969 0.52972
 C155 C 0.58868 0.59153 0.37915
 C156 C 0.56809 0.57102 0.37253
 C157 C 0.55889 0.55789 0.51502
 C158 C 0.57058 0.56572 0.66453
 H159 H 0.65312 0.65268 0.98555
 H160 H 0.69190 0.69301 0.47854
 H161 H 0.68719 0.68767 1.00256
 H162 H 0.66219 0.66364 0.31224
 H163 H 0.62751 0.62867 0.28282
 H164 H 0.62871 0.61799 0.96206
 H165 H 0.59446 0.58327 0.93459
 H166 H 0.59442 0.60077 0.26451
 H167 H 0.55937 0.56544 0.25515
 H168 H 0.56357 0.55587 0.77603
 C169 C -0.17017 0.33824 -0.03723
 C170 C -0.15380 0.34927 0.09112
 C171 C -0.15894 0.33940 0.25103
 C172 C -0.17896 0.31874 0.27882
 C173 C -0.19475 0.30771 0.14972
 C174 C -0.19022 0.31794 -0.00805
 C175 C -0.14412 0.35018 0.38295
 C176 C -0.12425 0.37069 0.36045
 C177 C -0.11802 0.38105 0.20363
 C178 C -0.13272 0.36980 0.06637
 C179 C -0.12559 0.37917 -0.09135
 C180 C -0.10526 0.39909 -0.11468
 C181 C -0.09122 0.41067 0.01752
 C182 C -0.09736 0.40206 0.17884
 C183 C -0.08253 0.41499 0.30799
 C184 C -0.06238 0.43524 0.27695
 C185 C -0.05630 0.44328 0.11684
 C186 C -0.07093 0.43088 -0.01191
 H187 H -0.16835 0.34497 -0.16183
 H188 H -0.18229 0.31141 0.40231
 H189 H -0.20211 0.31017 -0.11072
 H190 H -0.14800 0.34274 0.50563
 H191 H -0.11383 0.37772 0.46915
 H192 H -0.13505 0.37122 -0.20090
 H193 H -0.10048 0.40554 -0.23829
 H194 H -0.08607 0.41014 0.43449
 H195 H -0.05149 0.44457 0.37888
 H196 H -0.06658 0.43700 -0.13662
 C197 C 0.33153 0.83456 0.42605
 C198 C 0.34676 0.84788 0.55197
 C199 C 0.34055 0.84042 0.71532
 C200 C 0.32040 0.82019 0.74935
 C201 C 0.30573 0.80710 0.62318
 C202 C 0.31141 0.81458 0.46160
 C203 C 0.35444 0.85312 0.84453
 C204 C 0.37437 0.87332 0.81623
 C205 C 0.38146 0.88158 0.65622
 C206 C 0.36774 0.86834 0.52172
 C207 C 0.37563 0.87580 0.36160
 C208 C 0.39598 0.89558 0.33322
 C209 C 0.40917 0.90899 0.46250
 C210 C 0.40204 0.90244 0.62599
 C211 C 0.41580 0.91722 0.75207
 C212 C 0.43592 0.93719 0.71648
 C213 C 0.44310 0.94318 0.55468
 C214 C 0.42954 0.92899 0.42836
 H215 H 0.33441 0.83916 0.29867
 H216 H 0.31605 0.81474 0.87516
 H217 H 0.30032 0.80490 0.36156
 H218 H 0.34980 0.84741 0.96956
 H219 H 0.38410 0.88183 0.92342
 H220 H 0.36672 0.86649 0.25426
 H221 H 0.40141 0.90051 0.20807
 H222 H 0.41143 0.91409 0.87965
 H223 H 0.44597 0.94792 0.81664
 H224 H 0.43475 0.93357 0.30238
 C225 C -0.16287 0.66050 -0.30140
 C226 C -0.15305 0.64939 -0.15306
 C227 C -0.16384 0.66065 -0.00538
 C228 C -0.18419 0.68162 -0.00806
 C229 C -0.19378 0.69213 -0.15667
 C230 C -0.18278 0.68139 -0.30255
 C231 C -0.15416 0.65106 0.14415
 C232 C -0.13369 0.63080 0.15113
 C233 C -0.12226 0.61889 0.00782
 C234 C -0.13268 0.62781 -0.14670
 C235 C -0.12262 0.61468 -0.28976
 C236 C -0.10257 0.59414 -0.28316
 C237 C -0.09146 0.58591 -0.13449
 C238 C -0.10095 0.59816 0.01344
 C239 C -0.08839 0.58927 0.16033
 C240 C -0.06760 0.56905 0.15931
 C241 C -0.05861 0.55689 0.01261
 C242 C -0.07075 0.56543 -0.13374
 H243 H -0.15535 0.65391 -0.41933
 H244 H -0.19234 0.68994 0.10570
 H245 H -0.18960 0.68915 -0.41954
 H246 H -0.16236 0.65948 0.25751
 H247 H -0.12753 0.62464 0.27174
 H248 H -0.13013 0.61945 -0.40992
 H249 H -0.09555 0.58468 -0.39640
 H250 H -0.09381 0.59773 0.27808
 H251 H -0.05854 0.56293 0.27447
 H252 H -0.06387 0.55632 -0.24822
 C253 C 0.33355 1.16440 0.58100
 C254 C 0.34680 1.15103 0.44704
 C255 C 0.33831 1.15864 0.28795
 C256 C 0.31790 1.17898 0.26541
 C257 C 0.30520 1.19215 0.39914
 C258 C 0.31313 1.18457 0.55689
 C259 C 0.35019 1.14599 0.15130
 C260 C 0.37030 1.12569 0.16789
 C261 C 0.37962 1.11722 0.32306
 C262 C 0.36799 1.13039 0.46504
 C263 C 0.37815 1.12269 0.61983
 C264 C 0.39872 1.10275 0.63604
 C265 C 0.40988 1.08940 0.49940
 C266 C 0.40038 1.09621 0.34089
 C267 C 0.41206 1.08152 0.20691
 C268 C 0.43244 1.06139 0.22992
 C269 C 0.44203 1.05511 0.38654
 C270 C 0.43057 1.06921 0.52091
 H271 H 0.33827 1.15971 0.70613
 H272 H 0.31185 1.18451 0.14244
 H273 H 0.30358 1.19430 0.66257
 H274 H 0.34381 1.15184 0.02945
 H275 H 0.37838 1.11728 0.05541
 H276 H 0.37086 1.13193 0.73194
 H277 H 0.40592 1.09766 0.75749
 H278 H 0.40583 1.08481 0.08245
 H279 H 0.44081 1.05077 0.12374
 H280 H 0.43764 1.06439 0.64307
 C281 C 1.17058 -0.16107 -0.00137
 C282 C 1.15453 -0.14985 -0.12965
 C283 C 1.15976 -0.15974 -0.29008
 C284 C 1.17947 -0.18069 -0.31845
 C285 C 1.19495 -0.19191 -0.18945
 C286 C 1.19038 -0.18160 -0.03113
 C287 C 1.14535 -0.14869 -0.42194
 C288 C 1.12586 -0.12784 -0.39889
 C289 C 1.11955 -0.11745 -0.24155
 C290 C 1.13369 -0.12909 -0.10434
 C291 C 1.12621 -0.11993 0.05386
 C292 C 1.10600 -0.09987 0.07774
 C293 C 1.09258 -0.08785 -0.05439
 C294 C 1.09924 -0.09613 -0.21621
 C295 C 1.08528 -0.08258 -0.34536
 C296 C 1.06525 -0.06222 -0.31394
 C297 C 1.05843 -0.05469 -0.15344
 C298 C 1.07234 -0.06756 -0.02454
 H299 H 1.16874 -0.15426 0.12354
 H300 H 1.18287 -0.18806 -0.44229
 H301 H 1.20204 -0.18949 0.07156
 H302 H 1.14929 -0.15615 -0.54498
 H303 H 1.11568 -0.12065 -0.50752
 H304 H 1.13518 -0.12825 0.16327
 H305 H 1.10085 -0.09367 0.20168
 H306 H 1.08944 -0.08699 -0.47212
 H307 H 1.05495 -0.05248 -0.41597
 H308 H 1.06748 -0.06173 0.10043
 C309 C 0.66876 0.33609 0.52666
 C310 C 0.65334 0.34882 0.40037
 C311 C 0.65913 0.34047 0.23751
 C312 C 0.67917 0.32005 0.20432
 C313 C 0.69408 0.30760 0.33092
 C314 C 0.68873 0.31590 0.49196
 C315 C 0.64495 0.35248 0.10797
 C316 C 0.62505 0.37278 0.13547
 C317 C 0.61832 0.38186 0.29498
 C318 C 0.63253 0.36950 0.42982
 C319 C 0.62534 0.37810 0.58955
 C320 C 0.60518 0.39809 0.61726
 C321 C 0.59139 0.41050 0.48765
 C322 C 0.59772 0.40276 0.32447
 C323 C 0.58312 0.41639 0.19808
 C324 C 0.56307 0.43654 0.23325
 C325 C 0.55685 0.44383 0.39491
 C326 C 0.57118 0.43068 0.52130
 H327 H 0.66611 0.34125 0.65375
 H328 H 0.68322 0.31394 0.07885
 H329 H 0.69999 0.30670 0.59227
 H330 H 0.64931 0.34614 -0.01673
 H331 H 0.61516 0.38079 0.02806
 H332 H 0.63476 0.36964 0.69720
 H333 H 0.60035 0.40394 0.74221
 H334 H 0.58667 0.41216 0.07056
 H335 H 0.55239 0.44641 0.13304
 H336 H 0.56667 0.43619 0.64720
 C337 C 0.83281 -0.16379 0.08167
 C338 C 0.84688 -0.15142 -0.05193
 C339 C 0.83919 -0.16008 -0.21107
 C340 C 0.81887 -0.18058 -0.23398
 C341 C 0.80523 -0.19283 -0.10050
 C342 C 0.81239 -0.18403 0.05743
 C343 C 0.85175 -0.14829 -0.34760
 C344 C 0.87171 -0.12777 -0.33081
 C345 C 0.88024 -0.11830 -0.17552
 C346 C 0.86808 -0.13074 -0.03358
 C347 C 0.87779 -0.12233 0.12151
 C348 C 0.89837 -0.10233 0.13794
 C349 C 0.90990 -0.08955 0.00122
 C350 C 0.90083 -0.09706 -0.15753
 C351 C 0.91269 -0.08279 -0.29163
 C352 C 0.93297 -0.06248 -0.26859
 C353 C 0.94225 -0.05559 -0.11177
 C354 C 0.93053 -0.06921 0.02276
 H355 H 0.83679 -0.15811 0.20667
 H356 H 0.81361 -0.18684 -0.35748
 H357 H 0.80224 -0.19283 0.16359
 H358 H 0.84601 -0.15494 -0.46955
 H359 H 0.88038 -0.12009 -0.44313
 H360 H 0.87021 -0.13115 0.23361
 H361 H 0.90527 -0.09672 0.25959
 H362 H 0.90663 -0.08650 -0.41618
 H363 H 0.94151 -0.05221 -0.37486
 H364 H 0.93733 -0.06388 0.14505
 C365 C 0.33651 0.33940 0.19431
 C366 C 0.34659 0.35054 0.34282
 C367 C 0.33587 0.33942 0.49034
 C368 C 0.31539 0.31855 0.48747
 C369 C 0.30558 0.30797 0.33880
 C370 C 0.31647 0.31858 0.19297
 C371 C 0.34572 0.34907 0.64000
 C372 C 0.36630 0.36926 0.64729
 C373 C 0.37767 0.38104 0.50422
 C374 C 0.36711 0.37202 0.34957
 C375 C 0.37721 0.38496 0.20681
 C376 C 0.39738 0.40543 0.21379
 C377 C 0.40858 0.41379 0.36261
 C378 C 0.39908 0.40172 0.51026
 C379 C 0.41170 0.41075 0.65733
 C380 C 0.43255 0.43093 0.65678
 C381 C 0.44155 0.44292 0.51039
 C382 C 0.42937 0.43423 0.36383
 H383 H 0.34390 0.34592 0.07641
 H384 H 0.30732 0.31034 0.60117
 H385 H 0.30945 0.31078 0.07594
 H386 H 0.33758 0.34075 0.75320
 H387 H 0.37259 0.37546 0.76801
 H388 H 0.36965 0.38007 0.08659
 H389 H 0.40442 0.41474 0.10074
 H390 H 0.40626 0.40245 0.77492
 H391 H 0.44163 0.43718 0.77209
 H392 H 0.43625 0.44322 0.24955
 C393 C 0.16786 0.66508 0.02757
 C394 C 0.15231 0.65216 -0.09853
 C395 C 0.15789 0.66038 -0.26135
 C396 C 0.17788 0.68080 -0.29471
 C397 C 0.19295 0.69340 -0.16836
 C398 C 0.18778 0.68527 -0.00731
 C399 C 0.14358 0.64818 -0.39072
 C400 C 0.12381 0.62779 -0.36312
 C401 C 0.11734 0.61879 -0.20370
 C402 C 0.13161 0.63140 -0.06901
 C403 C 0.12460 0.62295 0.09069
 C404 C 0.10461 0.60281 0.11854
 C405 C 0.09081 0.59010 -0.01096
 C406 C 0.09695 0.59771 -0.17415
 C407 C 0.08239 0.58375 -0.30050
 C408 C 0.06253 0.56347 -0.26527
 C409 C 0.05648 0.55632 -0.10359
 C410 C 0.07081 0.56975 0.02281
 H411 H 0.16538 0.66002 0.15463
 H412 H 0.18179 0.68678 -0.42018
 H413 H 0.19917 0.69459 0.09284
 H414 H 0.14776 0.65444 -0.51537
 H415 H 0.11380 0.61965 -0.47036
 H416 H 0.13403 0.63165 0.19821
 H417 H 0.09993 0.59708 0.24349
 H418 H 0.08584 0.58783 -0.42804
 H419 H 0.05186 0.55337 -0.36549
 H420 H 0.06644 0.56435 0.14873
 C421 C 0.66907 1.16276 0.50236
 C422 C 0.65418 1.15013 0.37275
 C423 C 0.66052 1.15871 0.21153
 C424 C 0.68041 1.17948 0.18327
 C425 C 0.69468 1.19192 0.31336
 C426 C 0.68892 1.18322 0.47261
 C427 C 0.64701 1.14658 0.07892
 C428 C 0.62729 1.12595 0.10185
 C429 C 0.61998 1.11673 0.25965
 C430 C 0.63338 1.12931 0.39750
 C431 C 0.62531 1.12089 0.55559
 C432 C 0.60511 1.10081 0.57894
 C433 C 0.59220 1.08810 0.44643
 C434 C 0.59947 1.09559 0.28466
 C435 C 0.58584 1.08149 0.15526
 C436 C 0.56569 1.06127 0.18631
 C437 C 0.55837 1.05442 0.34668
 C438 C 0.57187 1.06789 0.47588
 H439 H 0.66617 1.15724 0.62840
 H440 H 0.68486 1.18585 0.05911
 H441 H 0.69973 1.19235 0.57549
 H442 H 0.65179 1.15307 -0.04457
 H443 H 0.61789 1.11787 -0.00752
 H444 H 0.63391 1.12968 0.66528
 H445 H 0.59953 1.09517 0.70279
 H446 H 0.59030 1.08541 0.02857
 H447 H 0.55568 1.05108 0.08406
 H448 H 0.56659 1.06264 0.60080
 C449 C 0.15998 0.33982 0.36858
 C450 C 0.15110 0.34979 0.21562
 C451 C 0.16249 0.33726 0.07312
 C452 C 0.18275 0.31623 0.08549
 C453 C 0.19155 0.30703 0.23899
 C454 C 0.17976 0.31900 0.37936
 C455 C 0.15352 0.34574 -0.08048
 C456 C 0.13326 0.36612 -0.09610
 C457 C 0.12141 0.37934 0.04205
 C458 C 0.13110 0.37151 0.20023
 C459 C 0.12077 0.38592 0.33820
 C460 C 0.10106 0.40658 0.32365
 C461 C 0.09064 0.41378 0.17156
 C462 C 0.10045 0.40032 0.02813
 C463 C 0.08855 0.40838 -0.12242
 C464 C 0.06805 0.42892 -0.12895
 C465 C 0.05878 0.44221 0.01367
 C466 C 0.07032 0.43449 0.16321
 H467 H 0.15182 0.34724 0.48327
 H468 H 0.19150 0.30698 -0.02410
 H469 H 0.18583 0.31228 0.50002
 H470 H 0.16212 0.33636 -0.19016
 H471 H 0.12760 0.37141 -0.21904
 H472 H 0.12785 0.38216 0.46045
 H473 H 0.09379 0.41698 0.43348
 H474 H 0.09435 0.39899 -0.23707
 H475 H 0.05942 0.43441 -0.24629
 H476 H 0.06328 0.44448 0.27479
 C477 C 0.65948 0.84156 0.89301
 C478 C 0.65125 0.85157 0.73819
 C479 C 0.66398 0.83954 0.59819
 C480 C 0.68429 0.81887 0.61393
 C481 C 0.69225 0.80935 0.76799
 C482 C 0.67957 0.82084 0.90700
 C483 C 0.65642 0.84811 0.44255
 C484 C 0.63618 0.86818 0.42145
 C485 C 0.62269 0.88081 0.55614
 C486 C 0.63078 0.87281 0.71730
 C487 C 0.61830 0.88649 0.85183
 C488 C 0.59835 0.90690 0.83034
 C489 C 0.58969 0.91438 0.67451
 C490 C 0.60154 0.90135 0.53497
 C491 C 0.59144 0.90928 0.37991
 C492 C 0.57081 0.92936 0.36488
 C493 C 0.55945 0.94240 0.50299
 C494 C 0.56908 0.93481 0.65769
 H495 H 0.65065 0.84904 1.00596
 H496 H 0.69379 0.81004 0.50517
 H497 H 0.68522 0.81383 1.02776
 H498 H 0.66619 0.83908 0.33520
 H499 H 0.63189 0.87357 0.29683
 H500 H 0.62372 0.88215 0.97643
 H501 H 0.58945 0.91684 0.93747
 H502 H 0.59869 0.90019 0.26729
 H503 H 0.56374 0.93470 0.24364
 H504 H 0.56029 0.94459 0.76565
 C505 C 0.83217 0.16526 -0.07150
 C506 C 0.84729 0.15212 0.05457
 C507 C 0.84109 0.15994 0.21787
 C508 C 0.82107 0.18033 0.25172
 C509 C 0.80650 0.19323 0.12535
 C510 C 0.81218 0.18539 -0.03616
 C511 C 0.85486 0.14741 0.34721
 C512 C 0.87468 0.12707 0.31907
 C513 C 0.88178 0.11850 0.15912
 C514 C 0.86815 0.13153 0.02450
 C515 C 0.87604 0.12373 -0.13558
 C516 C 0.89630 0.10384 -0.16379
 C517 C 0.90941 0.09067 -0.03440
 C518 C 0.90227 0.09753 0.12905
 C519 C 0.91597 0.08298 0.25522
 C520 C 0.93606 0.06293 0.21975
 C521 C 0.94326 0.05664 0.05799
 C522 C 0.92973 0.07059 -0.06840
 H523 H 0.83504 0.16039 -0.19886
 H524 H 0.81673 0.18606 0.37750
 H525 H 0.80116 0.19492 -0.13632
 H526 H 0.85023 0.15337 0.47221
 H527 H 0.88431 0.11871 0.42636
 H528 H 0.86719 0.13285 -0.24301
 H529 H 0.90173 0.09867 -0.28892
 H530 H 0.91159 0.08635 0.38277
 H531 H 0.94607 0.05238 0.31993
 H532 H 0.93496 0.06577 -0.19435
 C533 C 0.33081 0.66215 0.46090
 C534 C 0.34612 0.65033 0.59063
 C535 C 0.34000 0.65958 0.75136
 C536 C 0.31987 0.68016 0.77895
 C537 C 0.30519 0.69181 0.64871
 C538 C 0.31076 0.68246 0.49001
 C539 C 0.35398 0.64832 0.88411
 C540 C 0.37406 0.62799 0.86174
 C541 C 0.38122 0.61818 0.70437
 C542 C 0.36716 0.62971 0.56641
 C543 C 0.37477 0.62045 0.40867
 C544 C 0.39519 0.60060 0.38575
 C545 C 0.40884 0.58899 0.51837
 C546 C 0.40211 0.59738 0.67983
 C547 C 0.41667 0.58448 0.80926
 C548 C 0.43704 0.56440 0.77836
 C549 C 0.44361 0.55650 0.61815
 C550 C 0.42932 0.56894 0.48918
 H551 H 0.33360 0.65617 0.33518
 H552 H 0.31560 0.68707 0.90271
 H553 H 0.29967 0.69100 0.38705
 H554 H 0.34934 0.65530 1.00727
 H555 H 0.38379 0.62056 0.97119
 H556 H 0.36555 0.62831 0.29883
 H557 H 0.40035 0.59424 0.26208
 H558 H 0.41281 0.58927 0.93583
 H559 H 0.44769 0.55506 0.88043
 H560 H 0.43408 0.56298 0.36436
   
