data_POSCAR
  _audit_creation_date              2014-09-24
  _audit_creation_method            'ToBaCCo'
  _symmetry_space_group_name_H-M    'P1'
  _symmetry_Int_Tables_number       1
  _symmetry_cell_setting            triclinic
  loop_
  _symmetry_equiv_pos_as_xyz
 x,y,z
_cell_length_a 40.7925
_cell_length_b 40.7633
_cell_length_c 37.4236
_cell_angle_alpha 90.109900
_cell_angle_beta 89.911900
_cell_angle_gamma 120.048100
loop_
  _atom_site_label
  _atom_site_type_symbol
  _atom_site_fract_x
  _atom_site_fract_y
  _atom_site_fract_z
O1 O 0.04671 0.49095 0.00942
 O2 O 0.00182 0.53204 -0.04602
 O3 O 0.04695 0.55471 0.00929
 O4 O 0.00163 0.46836 -0.04598
 O5 O -0.04786 0.44376 -0.01008
 O6 O -0.00256 0.53010 0.04524
 O7 O -0.04769 0.50747 -0.01006
 O8 O -0.00282 0.46636 0.04535
 Cu9 Cu 0.02923 0.51397 -0.02191
 Cu10 Cu -0.03019 0.48445 0.02121
 C11 C 0.02984 0.47202 0.03715
 C12 C -0.03083 0.52641 -0.03778
 C13 C 0.03016 0.55702 0.03698
 C14 C -0.03115 0.44140 -0.03785
 O15 O 0.55500 0.50778 -0.00985
 O16 O 0.46869 0.46646 0.04537
 O17 O 0.49144 0.44405 -0.01007
 O18 O 0.53223 0.53020 0.04552
 O19 O 0.50752 0.55492 0.00962
 O20 O 0.46675 0.46876 -0.04594
 O21 O 0.44395 0.49116 0.00947
 O22 O 0.53026 0.53248 -0.04576
 Cu23 Cu 0.51430 0.48464 0.02133
 Cu24 Cu 0.48464 0.51430 -0.02174
 C25 C 0.55724 0.52682 -0.03751
 C26 C 0.44173 0.47214 0.03714
 C27 C 0.47252 0.44178 -0.03787
 C28 C 0.52649 0.55714 0.03733
 O29 O 0.53390 1.00304 0.04538
 O30 O 0.49271 1.04799 -0.00981
 O31 O 0.47022 1.00281 0.04545
 O32 O 0.55636 1.04811 -0.01003
 O33 O 0.53167 0.99860 -0.04596
 O34 O 0.44551 0.95327 0.00945
 O35 O 0.46804 0.99845 -0.04581
 O36 O 0.50921 0.95348 0.00941
 Cu37 Cu 0.51578 1.03045 0.02134
 Cu38 Cu 0.48615 0.97099 -0.02182
 C39 C 0.52819 0.97034 0.03713
 C40 C 0.47370 1.03112 -0.03751
 C41 C 0.44328 0.97008 0.03719
 C42 C 0.55864 1.03139 -0.03784
 O43 O 1.04752 0.55502 0.48988
 O44 O 1.00258 0.46895 0.54537
 O45 O 1.04758 0.49142 0.48984
 O46 O 1.00241 0.53248 0.54526
 O47 O 0.95289 0.50753 0.50938
 O48 O 0.99807 0.46647 0.45403
 O49 O 0.95303 0.44396 0.50952
 O50 O 0.99799 0.53002 0.45400
 Cu51 Cu 1.02998 0.51446 0.52117
 Cu52 Cu 0.97053 0.48448 0.47816
 C53 C 1.03066 0.55709 0.46219
 C54 C 0.96989 0.44191 0.53722
 C55 C 1.03084 0.47233 0.46210
 C56 C 0.96971 0.52666 0.53704
 O57 O 0.44435 0.49209 0.49040
 O58 O 0.53056 0.53311 0.54567
 O59 O 0.50803 0.55574 0.49043
 O60 O 0.46688 0.46954 0.54571
 O61 O 0.49153 0.44470 0.50968
 O62 O 0.53265 0.53090 0.45438
 O63 O 0.55523 0.50832 0.50962
 O64 O 0.46903 0.46727 0.45438
 Cu65 Cu 0.48498 0.51511 0.52165
 Cu66 Cu 0.51458 0.48531 0.47841
 C67 C 0.44211 0.47304 0.46266
 C68 C 0.55747 0.52735 0.53736
 C69 C 0.52699 0.55790 0.46268
 C70 C 0.47256 0.44255 0.53743
 O71 O 0.46982 0.00223 0.45425
 O72 O 0.55596 0.04709 0.50962
 O73 O 0.53327 0.00203 0.45410
 O74 O 0.49250 0.04735 0.50967
 O75 O 0.46759 -0.00222 0.54550
 O76 O 0.50836 -0.04752 0.48987
 O77 O 0.53100 -0.00251 0.54542
 O78 O 0.44487 -0.04734 0.49008
 Cu79 Cu 0.51540 0.02964 0.47834
 Cu80 Cu 0.48547 -0.02986 0.52130
 C81 C 0.44277 -0.03044 0.46243
 C82 C 0.55805 0.03018 0.53727
 C83 C 0.52739 -0.03078 0.46211
 C84 C 0.47343 0.03053 0.53735
 C85 C 0.31804 0.43425 0.23166
 C86 C 0.31809 0.43438 0.26832
 C87 C 0.28185 0.42499 0.27900
 N88 N 0.25962 0.41868 0.25009
 C89 C 0.28176 0.42479 0.22110
 C90 C 0.26965 0.42116 0.31488
 C91 C 0.23370 0.41494 0.32541
 C92 C 0.21894 0.40514 0.35967
 C93 C 0.18516 0.40508 0.35972
 C94 C 0.18020 0.41485 0.32548
 N95 N 0.20994 0.42088 0.30483
 C96 C 0.15042 0.42100 0.31503
 C97 C 0.14207 0.42486 0.27918
 C98 C 0.11521 0.43422 0.26861
 C99 C 0.11518 0.43414 0.23194
 C100 C 0.14202 0.42474 0.22129
 N101 N 0.15804 0.41861 0.25021
 C102 C 0.15031 0.42073 0.18542
 C103 C 0.18004 0.41449 0.17490
 C104 C 0.18491 0.40451 0.14066
 C105 C 0.21865 0.40450 0.14062
 C106 C 0.23348 0.41448 0.17484
 N107 N 0.20980 0.42058 0.19547
 C108 C 0.26945 0.42072 0.18527
 H109 H 0.34198 0.44039 0.21473
 H110 H 0.34209 0.44064 0.28516
 H111 H 0.21606 0.43309 0.22052
 H112 H 0.23153 0.39932 0.38246
 H113 H 0.16672 0.39922 0.38254
 H114 H 0.09744 0.44043 0.28552
 H115 H 0.09738 0.44029 0.21508
 H116 H 0.23118 0.39853 0.11780
 H117 H 0.21613 0.43326 0.27974
 H118 H 0.16643 0.39855 0.11788
 C119 C 0.56509 0.68160 0.26844
 C120 C 0.56505 0.68152 0.23178
 C121 C 0.57452 0.71780 0.22115
 N122 N 0.58079 0.74007 0.25009
 C123 C 0.57458 0.71792 0.27904
 C124 C 0.57846 0.72999 0.18529
 C125 C 0.58481 0.76601 0.17482
 C126 C 0.59476 0.78077 0.14058
 C127 C 0.59492 0.81462 0.14060
 C128 C 0.58507 0.81963 0.17484
 N129 N 0.57889 0.78984 0.19543
 C130 C 0.57899 0.84949 0.18533
 C131 C 0.57500 0.85785 0.22119
 C132 C 0.56567 0.88478 0.23179
 C133 C 0.56557 0.88478 0.26846
 C134 C 0.57486 0.85787 0.27908
 N135 N 0.58107 0.84183 0.25014
 C136 C 0.57868 0.84954 0.31495
 C137 C 0.58485 0.81978 0.32542
 C138 C 0.59468 0.81488 0.35966
 C139 C 0.59466 0.78111 0.35964
 C140 C 0.58481 0.76627 0.32539
 N141 N 0.57882 0.78998 0.30480
 C142 C 0.57858 0.73026 0.31490
 H143 H 0.55887 0.65764 0.28533
 H144 H 0.55879 0.65748 0.21490
 H145 H 0.56640 0.78373 0.27973
 H146 H 0.60060 0.76812 0.11777
 H147 H 0.60091 0.83308 0.11780
 H148 H 0.55958 0.90259 0.21490
 H149 H 0.55940 0.90261 0.28534
 H150 H 0.60053 0.76856 0.38244
 H151 H 0.56643 0.78367 0.22051
 H152 H 0.60057 0.83338 0.38247
 C153 C 0.31897 0.88429 0.23139
 C154 C 0.31892 0.88428 0.26805
 C155 C 0.28263 0.85740 0.27863
 N156 N 0.26048 0.84140 0.24966
 C157 C 0.28271 0.85740 0.22074
 C158 C 0.27033 0.84906 0.31448
 C159 C 0.23436 0.81926 0.32494
 C160 C 0.21955 0.81429 0.35919
 C161 C 0.18579 0.78049 0.35915
 C162 C 0.18089 0.76571 0.32488
 N163 N 0.21065 0.78948 0.30429
 C164 C 0.15114 0.72971 0.31434
 C165 C 0.14284 0.71748 0.27846
 C166 C 0.11597 0.68120 0.26779
 C167 C 0.11599 0.68124 0.23113
 C168 C 0.14287 0.71754 0.22057
 N169 N 0.15885 0.73972 0.24956
 C170 C 0.15122 0.72983 0.18474
 C171 C 0.18102 0.76581 0.17429
 C172 C 0.18600 0.78062 0.14007
 C173 C 0.21979 0.81439 0.14010
 C174 C 0.23454 0.81931 0.17435
 N175 N 0.21077 0.78954 0.19492
 C176 C 0.27051 0.84908 0.18487
 H177 H 0.34297 0.90209 0.21453
 H178 H 0.34287 0.90208 0.28495
 H179 H 0.21694 0.78331 0.21998
 H180 H 0.23210 0.83276 0.38202
 H181 H 0.16732 0.76788 0.38195
 H182 H 0.09817 0.65719 0.28463
 H183 H 0.09820 0.65726 0.21420
 H184 H 0.23240 0.83287 0.11732
 H185 H 0.21688 0.78329 0.27919
 H186 H 0.16756 0.76806 0.11725
 C187 C 0.68141 0.56555 0.73155
 C188 C 0.68140 0.56554 0.76821
 C189 C 0.71763 0.57488 0.77879
 N190 N 0.73981 0.58105 0.74983
 C191 C 0.71764 0.57489 0.72090
 C192 C 0.72987 0.57878 0.81464
 C193 C 0.76579 0.58491 0.82510
 C194 C 0.78056 0.59473 0.85935
 C195 C 0.81426 0.59464 0.85931
 C196 C 0.81917 0.58478 0.82503
 N197 N 0.78947 0.57883 0.80445
 C198 C 0.84887 0.57850 0.81449
 C199 C 0.85719 0.57458 0.77861
 C200 C 0.88399 0.56512 0.76792
 C201 C 0.88401 0.56516 0.73126
 C202 C 0.85722 0.57463 0.72071
 N203 N 0.84125 0.58084 0.74970
 C204 C 0.84894 0.57862 0.68488
 C205 C 0.81924 0.58488 0.67444
 C206 C 0.81436 0.59477 0.64022
 C207 C 0.78064 0.59482 0.64027
 C208 C 0.76583 0.58497 0.67451
 N209 N 0.78950 0.57889 0.69507
 C210 C 0.72990 0.57881 0.68503
 H211 H 0.65745 0.55940 0.71469
 H212 H 0.65744 0.55938 0.78512
 H213 H 0.78326 0.56644 0.72013
 H214 H 0.76801 0.60064 0.88218
 H215 H 0.83269 0.60048 0.88210
 H216 H 0.90172 0.55887 0.78476
 H217 H 0.90176 0.55894 0.71433
 H218 H 0.76811 0.60075 0.61749
 H219 H 0.78323 0.56641 0.77935
 H220 H 0.83282 0.60065 0.61741
 C221 C 0.43453 0.31906 0.73194
 C222 C 0.43458 0.31914 0.76860
 C223 C 0.42528 0.28290 0.77922
 N224 N 0.41909 0.26066 0.75027
 C225 C 0.42521 0.28279 0.72132
 C226 C 0.42142 0.27072 0.81508
 C227 C 0.41528 0.23478 0.82555
 C228 C 0.40546 0.22002 0.85980
 C229 C 0.40552 0.18628 0.85977
 C230 C 0.41537 0.18133 0.82550
 N231 N 0.42134 0.21105 0.80491
 C232 C 0.42164 0.15160 0.81499
 C233 C 0.42560 0.14326 0.77912
 C234 C 0.43508 0.11644 0.76848
 C235 C 0.43509 0.11640 0.73182
 C236 C 0.42561 0.14318 0.72123
 N237 N 0.41936 0.15918 0.75019
 C238 C 0.42165 0.15143 0.68538
 C239 C 0.41534 0.18110 0.67492
 C240 C 0.40542 0.18593 0.64070
 C241 C 0.40530 0.21964 0.64072
 C242 C 0.41515 0.23450 0.67496
 N243 N 0.42128 0.21087 0.69554
 C244 C 0.42126 0.27046 0.68546
 H245 H 0.44065 0.34300 0.71505
 H246 H 0.44074 0.34314 0.78549
 H247 H 0.43373 0.21717 0.72060
 H248 H 0.39956 0.23260 0.88262
 H249 H 0.39967 0.16785 0.88257
 H250 H 0.44132 0.09872 0.78535
 H251 H 0.44133 0.09863 0.71492
 H252 H 0.39934 0.23213 0.61794
 H253 H 0.43375 0.21726 0.77982
 H254 H 0.39957 0.16744 0.61789
 C255 C 0.88438 0.31867 0.76886
 C256 C 0.88443 0.31862 0.73220
 C257 C 0.85755 0.28233 0.72157
 N258 N 0.84150 0.26017 0.75051
 C259 C 0.85747 0.28240 0.77947
 C260 C 0.84927 0.27002 0.68571
 C261 C 0.81951 0.23400 0.67523
 C262 C 0.81463 0.21913 0.64100
 C263 C 0.78086 0.18535 0.64100
 C264 C 0.76601 0.18049 0.67522
 N265 N 0.78971 0.21030 0.69582
 C266 C 0.73000 0.15074 0.68568
 C267 C 0.71766 0.14249 0.72152
 C268 C 0.68136 0.11565 0.73211
 C269 C 0.68128 0.11572 0.76877
 C270 C 0.71754 0.14260 0.77942
 N271 N 0.73980 0.15853 0.75049
 C272 C 0.72972 0.15099 0.81529
 C273 C 0.76570 0.18076 0.82579
 C274 C 0.78043 0.18573 0.86005
 C275 C 0.81424 0.21948 0.86005
 C276 C 0.81925 0.23423 0.82580
 N277 N 0.78951 0.21048 0.80518
 C278 C 0.84908 0.27019 0.81532
 H279 H 0.90217 0.34268 0.78575
 H280 H 0.90227 0.34259 0.71532
 H281 H 0.78335 0.21667 0.78009
 H282 H 0.83314 0.23166 0.61821
 H283 H 0.76832 0.16683 0.61820
 H284 H 0.65742 0.09784 0.71520
 H285 H 0.65726 0.09797 0.78563
 H286 H 0.83267 0.23208 0.88287
 H287 H 0.78346 0.21658 0.72088
 H288 H 0.76780 0.16730 0.88285
 C289 C 0.08801 0.43645 0.10889
 C290 C 0.05110 0.42822 0.11663
 C291 C 0.03163 0.43865 0.09272
 C292 C 0.04895 0.45764 0.06076
 C293 C 0.08567 0.46478 0.05274
 C294 C 0.10507 0.45428 0.07670
 C295 C 0.10936 0.42919 0.13510
 C296 C 0.12771 0.42456 0.15767
 H297 H 0.03772 0.41461 0.14158
 H298 H 0.00342 0.43277 0.09972
 H299 H 0.09982 0.47934 0.02840
 H300 H 0.13371 0.46095 0.07053
 C301 C 0.56229 0.65143 0.10886
 C302 C 0.57051 0.62275 0.11665
 C303 C 0.55997 0.59265 0.09282
 C304 C 0.54088 0.59078 0.06091
 C305 C 0.53372 0.62033 0.05285
 C306 C 0.54433 0.65042 0.07672
 C307 C 0.56970 0.68026 0.13499
 C308 C 0.57447 0.70340 0.15753
 H309 H 0.58422 0.62316 0.14156
 H310 H 0.56587 0.57037 0.09984
 H311 H 0.51908 0.61974 0.02854
 H312 H 0.53766 0.67238 0.07053
 C313 C 0.34900 0.91157 0.10856
 C314 C 0.37767 0.94850 0.11646
 C315 C 0.40777 0.96807 0.09268
 C316 C 0.40965 0.95084 0.06071
 C317 C 0.38009 0.91410 0.05253
 C318 C 0.35001 0.89460 0.07636
 C319 C 0.32018 0.89012 0.13464
 C320 C 0.29706 0.87171 0.15714
 H321 H 0.37727 0.96181 0.14142
 H322 H 0.43006 0.99629 0.09979
 H323 H 0.38067 0.90002 0.02817
 H324 H 0.32805 0.86594 0.07007
 C325 C 0.91134 0.56264 0.60842
 C326 C 0.94826 0.57095 0.61624
 C327 C 0.96779 0.56037 0.59244
 C328 C 0.95053 0.54115 0.56055
 C329 C 0.91381 0.53391 0.55245
 C330 C 0.89435 0.54456 0.57629
 C331 C 0.88992 0.57001 0.63454
 C332 C 0.87154 0.57472 0.65709
 H333 H 0.96158 0.58474 0.64115
 H334 H 0.99599 0.56634 0.59949
 H335 H 0.89971 0.51917 0.52815
 H336 H 0.86570 0.53781 0.57007
 C337 C 0.43689 0.34853 0.60897
 C338 C 0.42863 0.37719 0.61679
 C339 C 0.43909 0.40719 0.59293
 C340 C 0.45814 0.40896 0.56097
 C341 C 0.46531 0.37939 0.55287
 C342 C 0.45478 0.34941 0.57677
 C343 C 0.42965 0.31987 0.63515
 C344 C 0.42504 0.29688 0.65771
 H345 H 0.41498 0.37688 0.64175
 H346 H 0.43318 0.42949 0.59999
 H347 H 0.47992 0.37990 0.52852
 H348 H 0.46149 0.32746 0.57055
 C349 C 0.65195 0.08835 0.60902
 C350 C 0.62323 0.05139 0.61669
 C351 C 0.59328 0.03192 0.59276
 C352 C 0.59160 0.04928 0.56087
 C353 C 0.62122 0.08603 0.55292
 C354 C 0.65116 0.10543 0.57689
 C355 C 0.68057 0.10972 0.63528
 C356 C 0.70356 0.12809 0.65789
 H357 H 0.62347 0.03799 0.64159
 H358 H 0.57093 0.00369 0.59970
 H359 H 0.62079 0.10021 0.52863
 H360 H 0.67316 0.13412 0.57079
 C361 C 0.43767 0.08931 0.89128
 C362 C 0.42951 0.05242 0.88337
 C363 C 0.44011 0.03294 0.90711
 C364 C 0.45919 0.05024 0.93904
 C365 C 0.46627 0.08693 0.94723
 C366 C 0.45561 0.10634 0.92345
 C367 C 0.43028 0.11069 0.86521
 C368 C 0.42556 0.12904 0.84271
 H369 H 0.41583 0.03907 0.85843
 H370 H 0.43427 0.00476 0.89999
 H371 H 0.48090 0.10105 0.97156
 H372 H 0.46223 0.13497 0.92973
 C373 C 0.65155 0.56287 0.89112
 C374 C 0.62288 0.57107 0.88331
 C375 C 0.59278 0.56048 0.90711
 C376 C 0.59090 0.54136 0.93900
 C377 C 0.62047 0.53425 0.94709
 C378 C 0.65055 0.54490 0.92325
 C379 C 0.68031 0.57022 0.86498
 C380 C 0.70339 0.57491 0.84243
 H381 H 0.62328 0.58477 0.85840
 H382 H 0.57049 0.56635 0.90007
 H383 H 0.61988 0.51958 0.97139
 H384 H 0.67250 0.53824 0.92946
 C385 C 0.91139 0.34858 0.89184
 C386 C 0.94847 0.37698 0.88426
 C387 C 0.96800 0.40712 0.90805
 C388 C 0.95057 0.40945 0.93979
 C389 C 0.91361 0.37991 0.94765
 C390 C 0.89421 0.34981 0.92379
 C391 C 0.89002 0.31981 0.86567
 C392 C 0.87167 0.29672 0.84310
 H393 H 0.96197 0.37635 0.85951
 H394 H 0.99638 0.42908 0.90099
 H395 H 0.89919 0.38045 0.97178
 H396 H 0.86544 0.32801 0.92985
 C397 C 0.56258 0.91182 0.39154
 C398 C 0.57127 0.94892 0.38406
 C399 C 0.56071 0.96843 0.40793
 C400 C 0.54098 0.95095 0.43965
 C401 C 0.53353 0.91397 0.44740
 C402 C 0.54418 0.89460 0.42346
 C403 C 0.56998 0.89049 0.36532
 C404 C 0.57473 0.87215 0.34272
 H405 H 0.58539 0.96245 0.35934
 H406 H 0.56715 0.99682 0.40095
 H407 H 0.51859 0.89951 0.47151
 H408 H 0.53720 0.86581 0.42944
 C409 C 0.34799 0.43726 0.39123
 C410 C 0.37658 0.42891 0.38341
 C411 C 0.40662 0.43944 0.40722
 C412 C 0.40851 0.45863 0.43914
 C413 C 0.37903 0.46590 0.44724
 C414 C 0.34901 0.45532 0.42339
 C415 C 0.31925 0.42989 0.36512
 C416 C 0.29617 0.42514 0.34260
 H417 H 0.37617 0.41514 0.35849
 H418 H 0.42885 0.43344 0.40016
 H419 H 0.37963 0.48062 0.47156
 H420 H 0.32711 0.46208 0.42962
 C421 C 0.08883 0.65126 0.39070
 C422 C 0.05197 0.62243 0.38287
 C423 C 0.03250 0.59237 0.40669
 C424 C 0.04977 0.59068 0.43864
 C425 C 0.08643 0.62039 0.44674
 C426 C 0.10582 0.65043 0.42288
 C427 C 0.11019 0.68004 0.36458
 C428 C 0.12855 0.70315 0.34207
 H429 H 0.03864 0.62269 0.35793
 H430 H 0.00435 0.56996 0.39964
 H431 H 0.10053 0.61995 0.47108
 H432 H 0.13443 0.67251 0.42911
 C433 C 0.91107 0.56237 0.89080
 C434 C 0.89406 0.54451 0.92299
 C435 C 0.91342 0.53387 0.94683
 C436 C 0.95008 0.54088 0.93869
 C437 C 0.96736 0.55987 0.90673
 C438 C 0.94792 0.57045 0.88293
 C439 C 0.88974 0.56978 0.86470
 C440 C 0.87141 0.57454 0.84220
 H441 H 0.86546 0.53794 0.92925
 H442 H 0.89931 0.51931 0.97118
 H443 H 0.99551 0.56566 0.89964
 H444 H 0.96126 0.58407 0.85798
 C445 C 0.43738 0.34910 0.89164
 C446 C 0.45564 0.35026 0.92360
 C447 C 0.46626 0.38031 0.94752
 C448 C 0.45894 0.40989 0.93969
 C449 C 0.43934 0.40765 0.90791
 C450 C 0.42880 0.37755 0.88408
 C451 C 0.43002 0.32035 0.86544
 C452 C 0.42532 0.29726 0.84286
 H453 H 0.46253 0.32842 0.92965
 H454 H 0.48110 0.38078 0.97167
 H455 H 0.43299 0.42964 0.90088
 H456 H 0.41480 0.37699 0.85931
 C457 C 0.65130 0.08880 0.89177
 C458 C 0.62286 0.05171 0.88418
 C459 C 0.59276 0.03220 0.90798
 C460 C 0.59052 0.04967 0.93976
 C461 C 0.62009 0.08663 0.94762
 C462 C 0.65013 0.10601 0.92374
 C463 C 0.68006 0.11013 0.86560
 C464 C 0.70316 0.12845 0.84304
 H465 H 0.62343 0.03819 0.85941
 H466 H 0.57078 0.00381 0.90092
 H467 H 0.61961 0.10109 0.97177
 H468 H 0.67197 0.13479 0.92980
 C469 C 0.08818 0.43701 0.39165
 C470 C 0.05110 0.42829 0.38414
 C471 C 0.03161 0.43888 0.40798
 C472 C 0.04908 0.45866 0.43970
 C473 C 0.08602 0.46611 0.44749
 C474 C 0.10539 0.45544 0.42358
 C475 C 0.10951 0.42963 0.36543
 C476 C 0.12785 0.42491 0.34283
 H477 H 0.03759 0.41415 0.35941
 H478 H 0.00324 0.43243 0.40097
 H479 H 0.10047 0.48110 0.47160
 H480 H 0.13415 0.46244 0.42958
 C481 C 0.56279 0.65206 0.39129
 C482 C 0.54492 0.65115 0.42351
 C483 C 0.53435 0.62112 0.44736
 C484 C 0.54144 0.59152 0.43918
 C485 C 0.56046 0.59331 0.40719
 C486 C 0.57097 0.62335 0.38339
 C487 C 0.57008 0.68077 0.36517
 C488 C 0.57473 0.70381 0.34264
 H489 H 0.53827 0.67313 0.42979
 H490 H 0.51976 0.62060 0.47173
 H491 H 0.56632 0.57098 0.40008
 H492 H 0.58460 0.62368 0.35841
 C493 C 0.34859 0.91142 0.39097
 C494 C 0.37738 0.94831 0.38318
 C495 C 0.40744 0.96778 0.40701
 C496 C 0.40915 0.95047 0.43891
 C497 C 0.37948 0.91378 0.44698
 C498 C 0.34944 0.89439 0.42312
 C499 C 0.31986 0.89004 0.36482
 C500 C 0.29680 0.87167 0.34226
 H501 H 0.37711 0.96166 0.35826
 H502 H 0.42982 0.99596 0.39997
 H503 H 0.37994 0.89965 0.47129
 H504 H 0.32739 0.86576 0.42931
 C505 C 0.56363 0.91199 0.10876
 C506 C 0.54577 0.89495 0.07657
 C507 C 0.53533 0.91441 0.05263
 C508 C 0.54256 0.95119 0.06068
 C509 C 0.56159 0.96851 0.09263
 C510 C 0.57197 0.94897 0.11653
 C511 C 0.57077 0.89056 0.13498
 C512 C 0.57529 0.87215 0.15756
 H513 H 0.53901 0.86625 0.07039
 H514 H 0.52073 0.90027 0.02829
 H515 H 0.56755 0.99675 0.09965
 H516 H 0.58560 0.96234 0.14148
 C517 C 0.34759 0.43635 0.10868
 C518 C 0.34854 0.45427 0.07653
 C519 C 0.37856 0.46482 0.05262
 C520 C 0.40809 0.45766 0.06067
 C521 C 0.40625 0.43858 0.09258
 C522 C 0.37622 0.42809 0.11644
 C523 C 0.31890 0.42910 0.13488
 C524 C 0.29589 0.42450 0.15747
 H525 H 0.32661 0.46098 0.07036
 H526 H 0.37912 0.47946 0.02831
 H527 H 0.42852 0.43267 0.09959
 H528 H 0.37586 0.41442 0.14136
 C529 C 0.08870 0.65144 0.10831
 C530 C 0.10566 0.65036 0.07614
 C531 C 0.08615 0.62024 0.05232
 C532 C 0.04940 0.59072 0.06046
 C533 C 0.03217 0.59268 0.09238
 C534 C 0.05176 0.62282 0.11616
 C535 C 0.11017 0.68024 0.13441
 C536 C 0.12859 0.70334 0.15695
 H537 H 0.13433 0.67227 0.06989
 H538 H 0.10022 0.61958 0.02799
 H539 H 0.00395 0.57043 0.09947
 H540 H 0.03846 0.62328 0.14110
 C541 C 0.43770 0.08900 0.60892
 C542 C 0.42939 0.05206 0.61669
 C543 C 0.43991 0.03250 0.59285
 C544 C 0.45906 0.04976 0.56094
 C545 C 0.46630 0.08652 0.55289
 C546 C 0.45572 0.10600 0.57678
 C547 C 0.43033 0.11042 0.63506
 C548 C 0.42559 0.12882 0.65761
 H549 H 0.41564 0.03872 0.64160
 H550 H 0.43394 0.00427 0.59986
 H551 H 0.48099 0.10062 0.52858
 H552 H 0.46246 0.13467 0.57059
 C553 C 0.65164 0.56305 0.60871
 C554 C 0.62302 0.57133 0.61663
 C555 C 0.59297 0.56084 0.59284
 C556 C 0.59109 0.54176 0.56086
 C557 C 0.62061 0.53456 0.55266
 C558 C 0.65064 0.54511 0.57649
 C559 C 0.68038 0.57034 0.63480
 C560 C 0.70343 0.57498 0.65731
 H561 H 0.62342 0.58501 0.64160
 H562 H 0.57072 0.56678 0.59997
 H563 H 0.62002 0.51992 0.52829
 H564 H 0.67256 0.53839 0.57019
 C565 C 0.91164 0.34809 0.60908
 C566 C 0.89459 0.34885 0.57692
 C567 C 0.91401 0.37876 0.55292
 C568 C 0.95076 0.40839 0.56087
 C569 C 0.96808 0.40675 0.59280
 C570 C 0.94858 0.37683 0.61676
 C571 C 0.89028 0.31947 0.63533
 C572 C 0.87191 0.29648 0.65794
 H573 H 0.86593 0.32684 0.57080
 H574 H 0.89987 0.37917 0.52860
 H575 H 0.99630 0.42910 0.59975
 H576 H 0.96196 0.37662 0.64168
   
