data_POSCAR
  _audit_creation_date              2014-09-24
  _audit_creation_method            'ToBaCCo'
  _symmetry_space_group_name_H-M    'P1'
  _symmetry_Int_Tables_number       1
  _symmetry_cell_setting            triclinic
  loop_
  _symmetry_equiv_pos_as_xyz
 x,y,z
_cell_length_a 39.3914
_cell_length_b 21.8231
_cell_length_c 14.8593
_cell_angle_alpha 89.115900
_cell_angle_beta 88.151700
_cell_angle_gamma 88.298400
loop_
  _atom_site_label
  _atom_site_type_symbol
  _atom_site_fract_x
  _atom_site_fract_y
  _atom_site_fract_z
C1 C 0.73628 0.19928 0.53501
 C2 C 0.73214 0.20029 0.44453
 C3 C 0.76162 0.19737 0.38067
 C4 C 0.69893 0.21490 0.40430
 C5 C 0.70778 0.21297 0.59998
 C6 C 0.77056 0.19179 0.57231
 C7 C 0.78124 0.24912 0.36745
 C8 C 0.80694 0.24997 0.30132
 C9 C 0.81407 0.19857 0.24648
 C10 C 0.79378 0.14666 0.25968
 C11 C 0.76763 0.14638 0.32581
 C12 C 0.69569 0.26693 0.34838
 C13 C 0.66464 0.28331 0.31203
 C14 C 0.63603 0.24774 0.33007
 C15 C 0.63925 0.19522 0.38565
 C16 C 0.67056 0.17881 0.42237
 C17 C 0.70061 0.17205 0.67132
 C18 C 0.67465 0.18591 0.73478
 C19 C 0.65525 0.24069 0.72740
 C20 C 0.66228 0.28139 0.65553
 C21 C 0.68866 0.26811 0.59330
 C22 C 0.78426 0.13339 0.59262
 C23 C 0.81688 0.12709 0.62675
 C24 C 0.83648 0.17898 0.63813
 C25 C 0.82275 0.23727 0.61770
 C26 C 0.78973 0.24372 0.58677
 H27 H 0.77601 0.28978 0.40703
 H28 H 0.82097 0.29152 0.29523
 H29 H 0.79766 0.10626 0.21903
 H30 H 0.75191 0.10665 0.33389
 H31 H 0.71703 0.29610 0.33451
 H32 H 0.66309 0.32484 0.27151
 H33 H 0.67269 0.13831 0.46507
 H34 H 0.71510 0.12939 0.67790
 H35 H 0.66977 0.15376 0.78959
 H36 H 0.64827 0.32456 0.64914
 H37 H 0.69446 0.30128 0.54049
 H38 H 0.76973 0.09291 0.58209
 H39 H 0.82712 0.08172 0.64246
 H40 H 0.83739 0.27777 0.62729
 H41 H 0.77927 0.28918 0.57266
 H42 H 0.61774 0.16668 0.40052
 C43 C 0.25562 0.77843 0.45527
 C44 C 0.25982 0.76941 0.54582
 C45 C 0.23186 0.78382 0.61377
 C46 C 0.29274 0.74562 0.58212
 C47 C 0.28435 0.77049 0.38762
 C48 C 0.22143 0.79316 0.41879
 C49 C 0.21219 0.83876 0.60910
 C50 C 0.18659 0.85154 0.67408
 C51 C 0.18120 0.81124 0.74718
 C52 C 0.20122 0.75726 0.75355
 C53 C 0.22592 0.74323 0.68675
 C54 C 0.30689 0.77516 0.65485
 C55 C 0.33866 0.75623 0.68604
 C56 C 0.35719 0.70849 0.64356
 C57 C 0.34277 0.67740 0.57307
 C58 C 0.31034 0.69457 0.54440
 C59 C 0.27973 0.73536 0.31076
 C60 C 0.30671 0.72362 0.24974
 C61 C 0.33901 0.74582 0.26498
 C62 C 0.34378 0.78211 0.34017
 C63 C 0.31641 0.79582 0.39979
 C64 C 0.19367 0.75622 0.44010
 C65 C 0.16160 0.77141 0.40747
 C66 C 0.15645 0.82358 0.35216
 C67 C 0.18457 0.85943 0.32850
 C68 C 0.21671 0.84412 0.36134
 H69 H 0.21674 0.87226 0.55587
 H70 H 0.17189 0.89409 0.66915
 H71 H 0.19767 0.72575 0.81000
 H72 H 0.24067 0.70076 0.69263
 H73 H 0.29362 0.81380 0.68631
 H74 H 0.34922 0.78009 0.74152
 H75 H 0.29953 0.66931 0.49066
 H76 H 0.25533 0.71592 0.29875
 H77 H 0.30255 0.69604 0.19131
 H78 H 0.36847 0.80054 0.35169
 H79 H 0.32051 0.82485 0.45664
 H80 H 0.19685 0.71570 0.48228
 H81 H 0.14104 0.74143 0.42473
 H82 H 0.18185 0.89970 0.28549
 H83 H 0.23792 0.87269 0.34321
 H84 H 0.35650 0.63951 0.54093
 C85 C 0.25710 0.25389 -0.46182
 C86 C 0.24926 0.25303 -0.55090
 C87 C 0.26880 0.28879 -0.61980
 C88 C 0.21729 0.22811 -0.58201
 C89 C 0.23576 0.22442 -0.38825
 C90 C 0.28423 0.29433 -0.43217
 C91 C 0.25226 0.33518 -0.66987
 C92 C 0.27069 0.37348 -0.72811
 C93 C 0.30627 0.36644 -0.73772
 C94 C 0.32245 0.31793 -0.68962
 C95 C 0.30391 0.27954 -0.63185
 C96 C 0.18631 0.25267 -0.54907
 C97 C 0.15609 0.23500 -0.58490
 C98 C 0.15599 0.19338 -0.65674
 C99 C 0.18719 0.16666 -0.68705
 C100 C 0.21766 0.18469 -0.65079
 C101 C 0.21936 0.16867 -0.39960
 C102 C 0.19598 0.14732 -0.33413
 C103 C 0.19076 0.17812 -0.25203
 C104 C 0.20952 0.23062 -0.23752
 C105 C 0.23092 0.25416 -0.30520
 C106 C 0.31160 0.27019 -0.38363
 C107 C 0.33498 0.30935 -0.34751
 C108 C 0.33105 0.37332 -0.35856
 C109 C 0.30413 0.39701 -0.40958
 C110 C 0.28075 0.35801 -0.44498
 H111 H 0.22510 0.34333 -0.66142
 H112 H 0.25677 0.40952 -0.76288
 H113 H 0.34952 0.30897 -0.69539
 H114 H 0.31706 0.24345 -0.59474
 H115 H 0.18559 0.28664 -0.49658
 H116 H 0.13297 0.25464 -0.55517
 H117 H 0.24157 0.16578 -0.67751
 H118 H 0.22395 0.14211 -0.45985
 H119 H 0.18290 0.10554 -0.34679
 H120 H 0.20615 0.25639 -0.17612
 H121 H 0.24297 0.29700 -0.29271
 H122 H 0.31434 0.22120 -0.37201
 H123 H 0.35530 0.28954 -0.30823
 H124 H 0.30066 0.44580 -0.42113
 H125 H 0.25937 0.37761 -0.48061
 H126 H 0.18843 0.13430 -0.74157
 C127 C -0.23641 0.71811 -0.45621
 C128 C -0.24382 0.72004 -0.54519
 C129 C -0.22438 0.75758 -0.61238
 C130 C -0.27081 0.68183 -0.58011
 C131 C -0.25731 0.68186 -0.39156
 C132 C -0.21080 0.75852 -0.41839
 C133 C -0.24148 0.80019 -0.66740
 C134 C -0.22352 0.83796 -0.72744
 C135 C -0.18771 0.83433 -0.73444
 C136 C -0.17069 0.79037 -0.67997
 C137 C -0.18883 0.75221 -0.62043
 C138 C -0.30365 0.70610 -0.59343
 C139 C -0.32818 0.67059 -0.63235
 C140 C -0.32060 0.60934 -0.65658
 C141 C -0.28766 0.58505 -0.63964
 C142 C -0.26314 0.62101 -0.60251
 C143 C -0.24588 0.62435 -0.36022
 C144 C -0.26630 0.58998 -0.30080
 C145 C -0.29901 0.61186 -0.27281
 C146 C -0.31013 0.67004 -0.30519
 C147 C -0.28943 0.70459 -0.36337
 C148 C -0.18410 0.73445 -0.36680
 C149 C -0.15946 0.77301 -0.33451
 C150 C -0.16114 0.83650 -0.35299
 C151 C -0.18839 0.86010 -0.40358
 C152 C -0.21303 0.82184 -0.43450
 H153 H -0.26881 0.80590 -0.66228
 H154 H -0.23820 0.87094 -0.76593
 H155 H -0.14332 0.78485 -0.68263
 H156 H -0.17508 0.71907 -0.57938
 H157 H -0.31026 0.75267 -0.57412
 H158 H -0.35308 0.69130 -0.64229
 H159 H -0.23793 0.60152 -0.59205
 H160 H -0.22135 0.60560 -0.38272
 H161 H -0.25651 0.54553 -0.27965
 H162 H -0.33461 0.68996 -0.28508
 H163 H -0.29860 0.74906 -0.38723
 H164 H -0.18193 0.68577 -0.35259
 H165 H -0.13915 0.75291 -0.29546
 H166 H -0.19123 0.90819 -0.42022
 H167 H -0.23380 0.84174 -0.47224
 H168 H -0.27983 0.53890 -0.65734
 O169 O -0.06826 0.92542 0.14382
 O170 O -0.09402 0.98164 0.03196
 C171 C -0.09487 0.94481 0.10128
 O172 O 0.03268 1.13007 0.15914
 O173 O 0.07486 1.06099 0.11650
 C174 C 0.06357 1.10914 0.16031
 O175 O -0.05742 1.14247 0.10856
 O176 O -0.09031 1.08235 0.02364
 C177 C -0.08616 1.12831 0.07632
 O178 O 0.02436 0.90401 0.19028
 O179 O 0.07072 0.95240 0.12782
 C180 C 0.05673 0.91399 0.18428
 Zr181 Zr -0.01625 0.94335 0.11697
 O182 O -0.02650 0.94604 0.25745
 O183 O -0.02068 0.84716 0.11454
 Zr184 Zr -0.00998 1.09680 0.10023
 O185 O -0.02092 1.09506 0.24076
 O186 O -0.00864 1.19337 0.10564
 O187 O -0.04412 1.02622 0.10907
 O188 O 0.01398 1.01662 0.14263
 O189 O 0.05385 0.88948 -0.11873
 O190 O 0.08416 0.94398 -0.01894
 C191 C 0.08168 0.90168 -0.07842
 O192 O -0.02873 1.11994 -0.20062
 O193 O -0.07509 1.07621 -0.13089
 C194 C -0.06116 1.11089 -0.19222
 O195 O 0.06355 1.10780 -0.13931
 O196 O 0.08897 1.05039 -0.02788
 C197 C 0.08978 1.08967 -0.09399
 O198 O -0.03880 0.91025 -0.18127
 O199 O -0.07984 0.97679 -0.12264
 C200 C -0.06944 0.93478 -0.17821
 Zr201 Zr 0.00436 0.93100 -0.10372
 O202 O 0.01994 0.91709 -0.23953
 O203 O -0.00356 0.83588 -0.08702
 Zr204 Zr 0.01159 1.08487 -0.12106
 O205 O 0.02786 1.07524 -0.25751
 O206 O 0.01345 1.18142 -0.13385
 Zr207 Zr -0.05151 1.02294 -0.03044
 Zr208 Zr 0.04646 1.00662 0.02866
 O209 O 0.03802 1.00233 -0.11068
 O210 O -0.01965 1.01220 -0.14666
 O211 O 0.02316 0.92091 0.02571
 O212 O -0.02698 1.10722 -0.02906
 O213 O -0.03533 0.93126 -0.00951
 O214 O 0.03038 1.09837 0.00618
 H215 H 0.02417 1.01743 0.20266
 H216 H -0.03965 1.14592 -0.04297
 H217 H 0.05766 0.99745 -0.15366
 H218 H -0.05208 0.89871 -0.01560
 H219 H -0.00108 1.20765 0.04504
 H220 H 0.02872 1.19560 -0.08734
 H221 H 0.00961 1.05529 -0.28951
 H222 H 0.01035 0.95177 -0.27497
 H223 H 0.01256 0.82007 -0.04185
 H224 H -0.02823 0.83458 0.17617
 H225 H -0.04057 0.98353 0.26897
 H226 H -0.04584 1.09257 0.25006
 O227 O 0.42703 0.43408 0.14214
 O228 O 0.40774 0.50646 0.04138
 C229 C 0.40302 0.46646 0.10567
 O230 O 0.55557 0.57688 0.17619
 O231 O 0.58367 0.49490 0.11025
 C232 C 0.58177 0.53938 0.16650
 O233 O 0.46416 0.63401 0.14177
 O234 O 0.42656 0.60370 0.03733
 C235 C 0.43505 0.63807 0.10244
 O236 O 0.51350 0.36834 0.17360
 O237 O 0.56444 0.39687 0.10924
 C238 C 0.54620 0.36324 0.16355
 Zr239 Zr 0.47936 0.43023 0.11084
 O240 O 0.47232 0.43029 0.25268
 O241 O 0.46101 0.34056 0.10141
 Zr242 Zr 0.50764 0.57572 0.11125
 O243 O 0.50171 0.58015 0.25300
 O244 O 0.52234 0.66835 0.10464
 O245 O 0.46422 0.52268 0.11600
 O246 O 0.51953 0.48451 0.13972
 O247 O 0.53604 0.35943 -0.13593
 O248 O 0.57503 0.39199 -0.03650
 C249 C 0.56526 0.35539 -0.09759
 O250 O 0.48640 0.61655 -0.19197
 O251 O 0.43634 0.59679 -0.11500
 C252 C 0.45358 0.62243 -0.18015
 O253 O 0.57617 0.56730 -0.13791
 O254 O 0.59467 0.49053 -0.04244
 C255 C 0.59993 0.53266 -0.10332
 O256 O 0.44817 0.42480 -0.18251
 O257 O 0.41861 0.50452 -0.11413
 C258 C 0.42163 0.46123 -0.17259
 Zr259 Zr 0.49468 0.42290 -0.11318
 O260 O 0.50701 0.41574 -0.25257
 O261 O 0.47430 0.33426 -0.11169
 Zr262 Zr 0.52290 0.56826 -0.11306
 O263 O 0.53743 0.57044 -0.25108
 O264 O 0.53520 0.66190 -0.10685
 Zr265 Zr 0.45435 0.53129 -0.02221
 Zr266 Zr 0.54796 0.46674 0.02010
 O267 O 0.53714 0.47632 -0.11743
 O268 O 0.48230 0.51394 -0.14321
 O269 O 0.51298 0.39619 0.01181
 O270 O 0.48972 0.60132 -0.01393
 O271 O 0.45747 0.43506 -0.01342
 O272 O 0.54581 0.56338 0.01173
 H273 H 0.52977 0.47594 0.19882
 H274 H 0.48142 0.64429 -0.02229
 H275 H 0.55471 0.46478 -0.16378
 H276 H 0.43669 0.41118 -0.01986
 H277 H 0.54630 0.66881 0.08250
 H278 H 0.55668 0.66426 -0.07453
 H279 H 0.52695 0.53505 -0.27877
 H280 H 0.49508 0.45003 -0.28387
 H281 H 0.48443 0.31115 -0.06089
 H282 H 0.45373 0.32795 0.16327
 H283 H 0.46032 0.46917 0.26906
 H284 H 0.47845 0.56707 0.26909
 N285 N 0.33970 0.48105 0.10961
 N286 N 0.31249 0.45206 0.15333
 C287 C 0.32538 0.40713 0.20742
 C288 C 0.36059 0.40754 0.19959
 C289 C 0.36843 0.45365 0.13839
 H290 H 0.37886 0.37782 0.23289
 H291 H 0.33758 0.51621 0.06151
 H292 H 0.28706 0.46341 0.14192
 N293 N -0.15797 0.94511 0.10182
 N294 N -0.18390 0.91414 0.14753
 C295 C -0.16951 0.87403 0.20650
 C296 C -0.13425 0.87912 0.19903
 C297 C -0.12826 0.92366 0.13334
 H298 H -0.11501 0.85439 0.23653
 H299 H -0.16163 0.97921 0.05269
 H300 H -0.20956 0.92161 0.13470
 N301 N 0.63241 0.49406 0.23729
 N302 N 0.65974 0.51291 0.28559
 C303 C 0.65520 0.57343 0.30162
 C304 C 0.62421 0.59366 0.26539
 C305 C 0.61131 0.54278 0.22449
 H306 H 0.61340 0.63980 0.26341
 H307 H 0.62978 0.44967 0.21358
 H308 H 0.67955 0.48330 0.30477
 N309 N 0.07214 1.19476 0.26051
 N310 N 0.09708 1.21760 0.31298
 C311 C 0.12536 1.18188 0.30119
 C312 C 0.11887 1.13549 0.23995
 C313 C 0.08511 1.14516 0.21731
 H314 H 0.13593 1.09898 0.21643
 H315 H 0.04758 1.21390 0.25699
 H316 H 0.09377 1.25796 0.34924
 N317 N 0.60882 0.27437 -0.06752
 N318 N 0.63266 0.24368 -0.11400
 C319 C 0.62945 0.25734 -0.20220
 C320 C 0.60175 0.29740 -0.21225
 C321 C 0.58957 0.30700 -0.12529
 H322 H 0.59354 0.32081 -0.27283
 H323 H 0.60694 0.27529 0.00274
 H324 H 0.65208 0.21741 -0.08479
 N325 N 0.13863 0.85557 -0.04679
 N326 N 0.16476 0.83112 -0.09281
 C327 C 0.15659 0.82780 -0.17987
 C328 C 0.12359 0.85031 -0.18970
 C329 C 0.11311 0.86731 -0.10345
 H330 H 0.10996 0.85672 -0.25144
 H331 H 0.13878 0.86560 0.02173
 H332 H 0.18836 0.82009 -0.06576
 N333 N 0.44521 0.66637 -0.33375
 N334 N 0.41937 0.68700 -0.38137
 C335 C 0.39143 0.69089 -0.32679
 C336 C 0.39969 0.67177 -0.24095
 C337 C 0.43405 0.65630 -0.24828
 H338 H 0.38261 0.66595 -0.18308
 H339 H 0.46957 0.65644 -0.36060
 H340 H 0.42082 0.69709 -0.45030
 N341 N -0.07448 1.18304 -0.31946
 N342 N -0.10168 1.20162 -0.36343
 C343 C -0.12884 1.17236 -0.32846
 C344 C -0.11871 1.13430 -0.25867
 C345 C -0.08402 1.14215 -0.25539
 H346 H -0.13447 1.10520 -0.21621
 H347 H -0.04992 1.19805 -0.33355
 H348 H -0.10140 1.23266 -0.41767
 N349 N 0.66159 0.50280 -0.12144
 N350 N 0.68968 0.52463 -0.17055
 C351 C 0.67978 0.57641 -0.21495
 C352 C 0.64538 0.58800 -0.19501
 C353 C 0.63501 0.54122 -0.13740
 H354 H 0.62917 0.62451 -0.22100
 H355 H 0.66164 0.46262 -0.08220
 H356 H 0.71391 0.50404 -0.16949
 N357 N 0.14088 1.14412 -0.05306
 N358 N 0.16863 1.17053 -0.09733
 C359 C 0.16715 1.15788 -0.18579
 C360 C 0.13826 1.12419 -0.19968
 C361 C 0.12251 1.11743 -0.11533
 H362 H 0.12910 1.10867 -0.26304
 H363 H 0.13505 1.14725 0.01580
 H364 H 0.18754 1.19342 -0.06493
 N365 N 0.36770 0.49632 -0.24061
 N366 N 0.34400 0.47363 -0.29011
 C367 C 0.35324 0.41556 -0.31213
 C368 C 0.38459 0.40114 -0.27556
 C369 C 0.39261 0.45349 -0.23030
 H370 H 0.39885 0.35803 -0.27785
 H371 H 0.36630 0.53999 -0.21264
 H372 H 0.32128 0.49707 -0.30448
 N373 N -0.11242 0.96457 -0.28705
 N374 N -0.13698 0.94009 -0.33101
 C375 C -0.13536 0.87857 -0.31894
 C376 C -0.10770 0.86371 -0.26472
 C377 C -0.09411 0.92004 -0.24609
 H378 H -0.09997 0.81937 -0.23731
 H379 H -0.10910 1.01162 -0.28232
 H380 H -0.15500 0.96655 -0.36533
 N381 N 0.38958 0.71363 0.06777
 N382 N 0.36388 0.74180 0.11032
 C383 C 0.36693 0.73260 0.19939
 C384 C 0.39619 0.69712 0.21460
 C385 C 0.40961 0.68561 0.12863
 H386 H 0.40393 0.67644 0.27764
 H387 H 0.39219 0.71061 -0.00223
 H388 H 0.34359 0.76390 0.07840
 N389 N -0.10888 1.22566 0.12193
 N390 N -0.13724 1.24626 0.17163
 C391 C -0.15823 1.19869 0.18364
 C392 C -0.14461 1.14827 0.13572
 C393 C -0.11330 1.16675 0.10133
 H394 H -0.15331 1.10169 0.13753
 H395 H -0.08684 1.25059 0.11111
 H396 H -0.13909 1.28993 0.19904
 N397 N 0.54858 0.28116 0.28158
 N398 N 0.57235 0.25039 0.32570
 C399 C 0.60306 0.26687 0.29227
 C400 C 0.59847 0.30931 0.22308
 C401 C 0.56378 0.31752 0.21938
 H402 H 0.61750 0.33306 0.18292
 H403 H 0.52252 0.27876 0.29616
 H404 H 0.56734 0.22091 0.38016
 N405 N 0.06680 0.84262 0.31331
 N406 N 0.09275 0.81892 0.35744
 C407 C 0.12192 0.84002 0.31984
 C408 C 0.11385 0.87931 0.24837
 C409 C 0.07865 0.87950 0.24679
 H410 H 0.13097 0.90384 0.20321
 H411 H 0.04135 0.83408 0.32947
 H412 H 0.09001 0.78991 0.41359
   
