data_POSCAR
  _audit_creation_date              2014-09-24
  _audit_creation_method            'ToBaCCo'
  _symmetry_space_group_name_H-M    'P1'
  _symmetry_Int_Tables_number       1
  _symmetry_cell_setting            triclinic
  loop_
  _symmetry_equiv_pos_as_xyz
 x,y,z
_cell_length_a 63.3574
_cell_length_b 63.3400
_cell_length_c 50.6919
_cell_angle_alpha 89.971000
_cell_angle_beta 89.974900
_cell_angle_gamma 90.017300
loop_
  _atom_site_label
  _atom_site_type_symbol
  _atom_site_fract_x
  _atom_site_fract_y
  _atom_site_fract_z
O1 O -0.02042 0.30873 0.02541
 O2 O 0.02093 0.30866 -0.02591
 O3 O -0.02034 0.30866 -0.02597
 O4 O 0.02085 0.30879 0.02547
 O5 O 0.02078 0.27388 0.02550
 O6 O -0.02024 0.27375 -0.02574
 O7 O 0.02085 0.27375 -0.02568
 O8 O -0.02031 0.27382 0.02544
 Cu9 Cu 0.00025 0.31225 -0.00026
 Cu10 Cu 0.00027 0.27029 -0.00011
 C11 C -0.02741 0.29124 0.03397
 C12 C 0.02793 0.29115 -0.03435
 C13 C -0.02731 0.29114 -0.03442
 C14 C 0.02783 0.29132 0.03405
 O15 O 0.48009 0.80807 0.52620
 O16 O 0.52128 0.80803 0.47473
 O17 O 0.48002 0.80807 0.47481
 O18 O 0.52135 0.80797 0.52611
 O19 O 0.52119 0.77306 0.52600
 O20 O 0.48004 0.77316 0.47490
 O21 O 0.52113 0.77311 0.47481
 O22 O 0.48010 0.77316 0.52610
 Cu23 Cu 0.50069 0.81158 0.50046
 Cu24 Cu 0.50061 0.76961 0.50046
 C25 C 0.47308 0.79058 0.53473
 C26 C 0.52822 0.79053 0.46619
 C27 C 0.47300 0.79059 0.46631
 C28 C 0.52831 0.79046 0.53460
 O29 O 0.98000 0.69240 -0.02644
 O30 O 1.02124 0.69227 0.02497
 O31 O 0.97997 0.69230 0.02494
 O32 O 1.02127 0.69231 -0.02640
 O33 O 1.02126 0.72722 -0.02625
 O34 O 0.98011 0.72722 0.02490
 O35 O 1.02121 0.72718 0.02492
 O36 O 0.98015 0.72731 -0.02629
 Cu37 Cu 1.00061 0.68878 -0.00074
 Cu38 Cu 1.00069 0.73074 -0.00068
 C39 C 0.97305 0.70992 -0.03494
 C40 C 1.02825 0.70975 0.03350
 C41 C 0.97301 0.70980 0.03348
 C42 C 1.02831 0.70981 -0.03487
 O43 O 0.52041 0.19140 0.52625
 O44 O 0.47930 0.19141 0.47471
 O45 O 0.52056 0.19141 0.47487
 O46 O 0.47914 0.19143 0.52609
 O47 O 0.47925 0.22634 0.52597
 O48 O 0.52050 0.22633 0.47494
 O49 O 0.47940 0.22632 0.47478
 O50 O 0.52035 0.22631 0.52613
 Cu51 Cu 0.49985 0.18787 0.50048
 Cu52 Cu 0.49987 0.22983 0.50045
 C53 C 0.52738 0.20889 0.53477
 C54 C 0.47235 0.20891 0.46616
 C55 C 0.52759 0.20891 0.46638
 C56 C 0.47214 0.20893 0.53456
 O57 O 0.69149 0.02032 -0.02499
 O58 O 0.69160 -0.02110 0.02626
 O59 O 0.69150 0.02018 0.02639
 O60 O 0.69156 -0.02097 -0.02511
 O61 O 0.72646 -0.02080 -0.02507
 O62 O 0.72641 0.02018 0.02625
 O63 O 0.72650 -0.02093 0.02612
 O64 O 0.72639 0.02031 -0.02494
 Cu65 Cu 0.68800 -0.00040 0.00064
 Cu66 Cu 0.72995 -0.00030 0.00058
 C67 C 0.70897 0.02736 -0.03350
 C68 C 0.70911 -0.02807 0.03473
 C69 C 0.70899 0.02719 0.03489
 C70 C 0.70906 -0.02789 -0.03367
 O71 O 0.19143 0.47982 0.52589
 O72 O 0.19138 0.52106 0.47445
 O73 O 0.19145 0.47978 0.47451
 O74 O 0.19141 0.52111 0.52582
 O75 O 0.22631 0.52106 0.52571
 O76 O 0.22636 0.47991 0.47459
 O77 O 0.22629 0.52103 0.47452
 O78 O 0.22633 0.47995 0.52578
 Cu79 Cu 0.18788 0.50044 0.50017
 Cu80 Cu 0.22983 0.50049 0.50015
 C81 C 0.20893 0.47287 0.53440
 C82 C 0.20887 0.52808 0.46593
 C83 C 0.20896 0.47281 0.46601
 C84 C 0.20890 0.52813 0.53431
 O85 O 0.30788 1.02197 0.02569
 O86 O 0.30777 0.98058 -0.02554
 O87 O 0.30771 1.02186 -0.02568
 O88 O 0.30795 0.98068 0.02585
 O89 O 0.27305 0.98070 0.02596
 O90 O 0.27281 1.02171 -0.02538
 O91 O 0.27286 0.98060 -0.02524
 O92 O 0.27297 1.02182 0.02580
 Cu93 Cu 0.31136 1.00128 0.00006
 Cu94 Cu 0.26942 1.00120 0.00031
 C95 C 0.29040 1.02894 0.03428
 C96 C 0.29025 0.97355 -0.03393
 C97 C 0.29018 1.02880 -0.03412
 C98 C 0.29050 0.97369 0.03449
 O99 O 0.80936 0.47940 0.47419
 O100 O 0.80959 0.52061 0.52562
 O101 O 0.80943 0.47932 0.52557
 O102 O 0.80945 0.52067 0.47423
 O103 O 0.77455 0.52068 0.47446
 O104 O 0.77452 0.47951 0.52560
 O105 O 0.77468 0.52062 0.52565
 O106 O 0.77446 0.47957 0.47441
 Cu107 Cu 0.81300 0.49999 0.49989
 Cu108 Cu 0.77105 0.50011 0.50004
 C109 C 0.79183 0.47247 0.46574
 C110 C 0.79213 0.52763 0.53420
 C111 C 0.79193 0.47237 0.53413
 C112 C 0.79196 0.52771 0.46579
 C113 C 0.24433 0.21730 0.20597
 C114 C 0.22601 0.22615 0.19536
 C115 C 0.21715 0.24443 0.20604
 C116 C 0.22674 0.25430 0.22796
 C117 C 0.24535 0.24547 0.23893
 C118 C 0.25421 0.22688 0.22790
 C119 C 0.27266 0.21839 0.23907
 C120 C 0.28225 0.22798 0.26069
 C121 C 0.27375 0.24641 0.27192
 C122 C 0.25513 0.25524 0.26095
 C123 C 0.21823 0.27273 0.23919
 C124 C 0.22783 0.28232 0.26081
 C125 C 0.24628 0.27383 0.27198
 C126 C 0.25616 0.28341 0.29391
 C127 C 0.27447 0.27457 0.30453
 C128 C 0.28333 0.25628 0.29385
 H129 H 0.27985 0.20424 0.23117
 H130 H 0.29643 0.22081 0.26855
 H131 H 0.20406 0.27990 0.23134
 H132 H 0.22064 0.29648 0.26870
 H133 H 0.21853 0.21868 0.17850
 H134 H 0.28195 0.28203 0.32139
 C135 C 0.74373 0.71605 0.29229
 C136 C 0.72557 0.72498 0.30319
 C137 C 0.71648 0.74309 0.29234
 C138 C 0.72568 0.75270 0.26996
 C139 C 0.74414 0.74377 0.25870
 C140 C 0.75323 0.72536 0.26990
 C141 C 0.77152 0.71677 0.25843
 C142 C 0.78073 0.72609 0.23634
 C143 C 0.77197 0.74433 0.22492
 C144 C 0.75352 0.75326 0.23619
 C145 C 0.71694 0.77095 0.25855
 C146 C 0.72614 0.78026 0.23646
 C147 C 0.74443 0.77167 0.22498
 C148 C 0.75390 0.78096 0.20256
 C149 C 0.77205 0.77202 0.19165
 C150 C 0.78115 0.75391 0.20250
 H151 H 0.77889 0.70275 0.26645
 H152 H 0.79479 0.71885 0.22827
 H153 H 0.70287 0.77819 0.26662
 H154 H 0.71878 0.79429 0.22845
 H155 H 0.71838 0.71770 0.32038
 H156 H 0.77922 0.77926 0.17441
 C157 C 0.78326 0.24397 0.20628
 C158 C 0.77444 0.22562 0.19571
 C159 C 0.75616 0.21675 0.20641
 C160 C 0.74627 0.22636 0.22832
 C161 C 0.75508 0.24501 0.23924
 C162 C 0.77366 0.25387 0.22819
 C163 C 0.78213 0.27236 0.23932
 C164 C 0.77252 0.28197 0.26092
 C165 C 0.75410 0.27345 0.27217
 C166 C 0.74529 0.25480 0.26125
 C167 C 0.72785 0.21784 0.23957
 C168 C 0.71824 0.22746 0.26117
 C169 C 0.72670 0.24594 0.27230
 C170 C 0.71710 0.25584 0.29420
 C171 C 0.72593 0.27419 0.30478
 C172 C 0.74421 0.28305 0.29408
 H173 H 0.79628 0.27956 0.23140
 H174 H 0.77968 0.29617 0.26874
 H175 H 0.72069 0.20364 0.23175
 H176 H 0.70409 0.22026 0.26908
 H177 H 0.78192 0.21813 0.17887
 H178 H 0.71845 0.28168 0.32162
 C179 C 0.21688 0.75711 0.20671
 C180 C 0.22569 0.77548 0.19616
 C181 C 0.24381 0.78449 0.20707
 C182 C 0.25352 0.77503 0.22920
 C183 C 0.24473 0.75635 0.24009
 C184 C 0.22633 0.74732 0.22880
 C185 C 0.21789 0.72880 0.23989
 C186 C 0.22735 0.71930 0.26167
 C187 C 0.24558 0.72799 0.27318
 C188 C 0.25435 0.74669 0.26231
 C189 C 0.27175 0.78373 0.24071
 C190 C 0.28117 0.77426 0.26254
 C191 C 0.27273 0.75574 0.27364
 C192 C 0.28213 0.74599 0.29578
 C193 C 0.27336 0.72758 0.30628
 C194 C 0.25530 0.71851 0.29529
 H195 H 0.20388 0.72147 0.23179
 H196 H 0.22022 0.70506 0.26944
 H197 H 0.27888 0.79796 0.23293
 H198 H 0.29517 0.78159 0.27065
 H199 H 0.21833 0.78287 0.17917
 H200 H 0.28070 0.72020 0.32329
 C201 C 0.71691 0.25594 0.70637
 C202 C 0.72580 0.27421 0.69568
 C203 C 0.74417 0.28300 0.70625
 C204 C 0.75405 0.27337 0.72815
 C205 C 0.74515 0.25480 0.73920
 C206 C 0.72649 0.24602 0.72827
 C207 C 0.71795 0.22761 0.73952
 C208 C 0.72754 0.21797 0.76111
 C209 C 0.74604 0.22640 0.77224
 C210 C 0.75494 0.24498 0.76119
 C211 C 0.77255 0.28180 0.73928
 C212 C 0.78214 0.27217 0.76087
 C213 C 0.77360 0.25375 0.77212
 C214 C 0.78318 0.24383 0.79402
 C215 C 0.77428 0.22556 0.80471
 C216 C 0.75593 0.21678 0.79414
 H217 H 0.70373 0.22048 0.73170
 H218 H 0.72032 0.20383 0.76903
 H219 H 0.77977 0.29594 0.73136
 H220 H 0.79636 0.27929 0.76869
 H221 H 0.71833 0.28172 0.67884
 H222 H 0.78176 0.21806 0.82155
 C223 C 0.28388 0.74393 0.70732
 C224 C 0.27485 0.72580 0.69647
 C225 C 0.25647 0.71703 0.70703
 C226 C 0.24669 0.72654 0.72908
 C227 C 0.25573 0.74496 0.74031
 C228 C 0.27442 0.75371 0.72940
 C229 C 0.28312 0.77196 0.74085
 C230 C 0.27366 0.78145 0.76264
 C231 C 0.25513 0.77305 0.77375
 C232 C 0.24607 0.75465 0.76248
 C233 C 0.22815 0.71815 0.74018
 C234 C 0.21866 0.72767 0.76192
 C235 C 0.22736 0.74592 0.77336
 C236 C 0.21788 0.75571 0.79542
 C237 C 0.22696 0.77379 0.80636
 C238 C 0.24538 0.78252 0.79585
 H239 H 0.29737 0.77906 0.73305
 H240 H 0.28100 0.79546 0.77070
 H241 H 0.22082 0.70412 0.73212
 H242 H 0.20440 0.72058 0.76970
 H243 H 0.28225 0.71839 0.67951
 H244 H 0.21958 0.78118 0.82333
 C245 C 0.24243 0.21614 0.79307
 C246 C 0.22431 0.22519 0.80392
 C247 C 0.21536 0.24336 0.79305
 C248 C 0.22466 0.25289 0.77068
 C249 C 0.24308 0.24384 0.75946
 C250 C 0.25203 0.22537 0.77070
 C251 C 0.27028 0.21666 0.75928
 C252 C 0.27958 0.22590 0.73721
 C253 C 0.27097 0.24419 0.72575
 C254 C 0.25256 0.25326 0.73697
 C255 C 0.21605 0.27119 0.75923
 C256 C 0.22536 0.28043 0.73716
 C257 C 0.24360 0.27172 0.72573
 C258 C 0.25317 0.28093 0.70333
 C259 C 0.27128 0.27187 0.69246
 C260 C 0.28025 0.25371 0.70335
 H261 H 0.27754 0.20259 0.76733
 H262 H 0.29362 0.21857 0.72918
 H263 H 0.20202 0.27853 0.76726
 H264 H 0.21810 0.29451 0.72911
 H265 H 0.21705 0.21797 0.82111
 H266 H 0.27852 0.27906 0.67524
 C267 C 0.74571 0.71731 0.70578
 C268 C 0.72777 0.72649 0.69462
 C269 C 0.71895 0.74484 0.70516
 C270 C 0.72820 0.75444 0.72751
 C271 C 0.74644 0.74526 0.73902
 C272 C 0.75526 0.72661 0.72811
 C273 C 0.77334 0.71778 0.73982
 C274 C 0.78260 0.72710 0.76184
 C275 C 0.77413 0.74558 0.77297
 C276 C 0.75589 0.75475 0.76146
 C277 C 0.71973 0.77292 0.73863
 C278 C 0.72899 0.78223 0.76066
 C279 C 0.74707 0.77340 0.77237
 C280 C 0.75661 0.78270 0.79471
 C281 C 0.77456 0.77352 0.80586
 C282 C 0.78338 0.75517 0.79531
 H283 H 0.78048 0.70357 0.73203
 H284 H 0.79650 0.71967 0.77010
 H285 H 0.70583 0.78034 0.73038
 H286 H 0.72184 0.79644 0.76846
 H287 H 0.72055 0.71923 0.67745
 H288 H 0.78177 0.78078 0.82303
 C289 C 0.29022 0.04461 0.05253
 C290 C 0.28948 0.05880 0.06836
 C291 C 0.28786 0.07604 0.08672
 C292 C 0.28120 0.07239 0.11266
 C293 C 0.27802 0.08936 0.12985
 C294 C 0.28142 0.11023 0.12128
 C295 C 0.28859 0.11368 0.09535
 C296 C 0.29176 0.09670 0.07821
 C297 C 0.27648 0.12840 0.13875
 C298 C 0.28939 0.14649 0.13890
 C299 C 0.28382 0.16415 0.15392
 C300 C 0.26532 0.16395 0.16902
 C301 C 0.25264 0.14586 0.16947
 C302 C 0.25817 0.12820 0.15449
 C303 C 0.25862 0.18265 0.18277
 C304 C 0.25244 0.19839 0.19367
 H305 H 0.27810 0.05647 0.11944
 H306 H 0.27273 0.08618 0.14977
 H307 H 0.29106 0.12955 0.08801
 H308 H 0.29677 0.09972 0.05812
 H309 H 0.30370 0.14704 0.12724
 H310 H 0.29373 0.17809 0.15339
 H311 H 0.23820 0.14559 0.18094
 H312 H 0.24774 0.11466 0.15451
 C313 C 0.79197 0.54413 0.55355
 C314 C 0.79122 0.55831 0.56938
 C315 C 0.78957 0.57557 0.58772
 C316 C 0.79387 0.59616 0.57930
 C317 C 0.79064 0.61319 0.59636
 C318 C 0.78301 0.60983 0.62210
 C319 C 0.77921 0.58900 0.63059
 C320 C 0.78246 0.57199 0.61347
 C321 C 0.77798 0.62805 0.63943
 C322 C 0.75939 0.62807 0.65464
 C323 C 0.75379 0.64581 0.66944
 C324 C 0.76668 0.66374 0.66933
 C325 C 0.78545 0.66372 0.65476
 C326 C 0.79109 0.64599 0.63992
 C327 C 0.75997 0.68252 0.68288
 C328 C 0.75378 0.69833 0.69363
 H329 H 0.79923 0.59912 0.55934
 H330 H 0.79342 0.62902 0.58910
 H331 H 0.77357 0.58589 0.65037
 H332 H 0.77904 0.55611 0.62018
 H333 H 0.74880 0.61465 0.65438
 H334 H 0.73915 0.64571 0.68050
 H335 H 0.79554 0.67754 0.65451
 H336 H 0.80562 0.64636 0.62867
 C337 C 0.70938 0.95625 0.05298
 C338 C 0.71020 0.94205 0.06880
 C339 C 0.71192 0.92478 0.08713
 C340 C 0.72833 0.92451 0.10559
 C341 C 0.73112 0.90700 0.12202
 C342 C 0.71754 0.88948 0.12015
 C343 C 0.70078 0.89011 0.10195
 C344 C 0.69802 0.90765 0.08553
 C345 C 0.72158 0.87023 0.13614
 C346 C 0.71965 0.85008 0.12471
 C347 C 0.72491 0.83200 0.13908
 C348 C 0.73211 0.83377 0.16507
 C349 C 0.73363 0.85369 0.17685
 C350 C 0.72838 0.87182 0.16250
 C351 C 0.73910 0.81525 0.17901
 C352 C 0.74553 0.79968 0.19007
 H353 H 0.73927 0.93761 0.10686
 H354 H 0.74435 0.90689 0.13554
 H355 H 0.68993 0.87698 0.10026
 H356 H 0.68528 0.90768 0.07127
 H357 H 0.71477 0.84832 0.10436
 H358 H 0.72382 0.81666 0.12971
 H359 H 0.73922 0.85525 0.19695
 H360 H 0.72979 0.88708 0.17195
 C361 C 0.20919 0.45636 0.55377
 C362 C 0.21001 0.44218 0.56961
 C363 C 0.21172 0.42493 0.58796
 C364 C 0.22827 0.42453 0.60622
 C365 C 0.23103 0.40703 0.62265
 C366 C 0.21729 0.38962 0.62098
 C367 C 0.20040 0.39038 0.60297
 C368 C 0.19766 0.40792 0.58656
 C369 C 0.22127 0.37036 0.63696
 C370 C 0.21911 0.35022 0.62558
 C371 C 0.22431 0.33211 0.63993
 C372 C 0.23169 0.33386 0.66584
 C373 C 0.23346 0.35378 0.67757
 C374 C 0.22826 0.37193 0.66324
 C375 C 0.23860 0.31530 0.67975
 C376 C 0.24493 0.29969 0.69081
 H377 H 0.23934 0.43755 0.60734
 H378 H 0.24436 0.40681 0.63601
 H379 H 0.18942 0.37734 0.60144
 H380 H 0.18482 0.40804 0.57245
 H381 H 0.21408 0.34848 0.60529
 H382 H 0.22303 0.31677 0.63060
 H383 H 0.23919 0.35531 0.69761
 H384 H 0.22986 0.38719 0.67264
 C385 C 0.95605 0.29101 0.05329
 C386 C 0.94185 0.29017 0.06910
 C387 C 0.92459 0.28840 0.08744
 C388 C 0.92820 0.28143 0.11325
 C389 C 0.91121 0.27809 0.13038
 C390 C 0.89036 0.28164 0.12187
 C391 C 0.88696 0.28912 0.09608
 C392 C 0.90396 0.29245 0.07899
 C393 C 0.87217 0.27653 0.13926
 C394 C 0.85413 0.28949 0.13965
 C395 C 0.83646 0.28379 0.15460
 C396 C 0.83660 0.26512 0.16936
 C397 C 0.85464 0.25238 0.16956
 C398 C 0.87231 0.25804 0.15465
 C399 C 0.81790 0.25834 0.18307
 C400 C 0.80216 0.25211 0.19396
 H401 H 0.94410 0.27821 0.11998
 H402 H 0.91436 0.27256 0.15021
 H403 H 0.87111 0.29171 0.08879
 H404 H 0.90098 0.29770 0.05899
 H405 H 0.85363 0.30394 0.12825
 H406 H 0.82256 0.29376 0.15427
 H407 H 0.85486 0.23781 0.18077
 H408 H 0.88582 0.24756 0.15448
 C409 C 0.45661 0.79035 0.55414
 C410 C 0.44248 0.78955 0.57004
 C411 C 0.42529 0.78784 0.58848
 C412 C 0.42893 0.78059 0.61416
 C413 C 0.41198 0.77731 0.63137
 C414 C 0.39115 0.78121 0.62307
 C415 C 0.38771 0.78897 0.59741
 C416 C 0.40467 0.79223 0.58024
 C417 C 0.37298 0.77616 0.64050
 C418 C 0.35510 0.78934 0.64123
 C419 C 0.33742 0.78370 0.65618
 C420 C 0.33739 0.76486 0.67062
 C421 C 0.35526 0.75190 0.67051
 C422 C 0.37295 0.75750 0.65559
 C423 C 0.31864 0.75815 0.68429
 C424 C 0.30286 0.75198 0.69511
 H425 H 0.44483 0.77710 0.62072
 H426 H 0.41515 0.77157 0.65109
 H427 H 0.37186 0.79183 0.59028
 H428 H 0.40166 0.79770 0.56034
 H429 H 0.35474 0.80391 0.63007
 H430 H 0.32364 0.79383 0.65610
 H431 H 0.35535 0.73721 0.68147
 H432 H 0.38632 0.74687 0.65516
 C433 C 0.04477 0.70996 0.05285
 C434 C 0.05894 0.71077 0.06867
 C435 C 0.07618 0.71251 0.08703
 C436 C 0.07248 0.71900 0.11301
 C437 C 0.08943 0.72232 0.13019
 C438 C 0.11032 0.71921 0.12157
 C439 C 0.11382 0.71220 0.09559
 C440 C 0.09686 0.70891 0.07846
 C441 C 0.12844 0.72430 0.13905
 C442 C 0.14668 0.71160 0.13909
 C443 C 0.16427 0.71731 0.15415
 C444 C 0.16386 0.73574 0.16937
 C445 C 0.14564 0.74820 0.16992
 C446 C 0.12804 0.74253 0.15490
 C447 C 0.18247 0.74256 0.18321
 C448 C 0.19811 0.74886 0.19423
 H449 H 0.05653 0.72187 0.11984
 H450 H 0.08621 0.72747 0.15015
 H451 H 0.12971 0.70997 0.08822
 H452 H 0.09992 0.70403 0.05833
 H453 H 0.14738 0.69735 0.12734
 H454 H 0.17831 0.70757 0.15355
 H455 H 0.14520 0.76258 0.18148
 H456 H 0.11438 0.75280 0.15500
 C457 C 0.54386 0.20914 0.55416
 C458 C 0.55801 0.20997 0.57000
 C459 C 0.57523 0.21172 0.58837
 C460 C 0.57166 0.21917 0.61397
 C461 C 0.58865 0.22251 0.63107
 C462 C 0.60946 0.21847 0.62273
 C463 C 0.61282 0.21051 0.59716
 C464 C 0.59581 0.20719 0.58011
 C465 C 0.62768 0.22359 0.64003
 C466 C 0.64551 0.21036 0.64085
 C467 C 0.66324 0.21605 0.65568
 C468 C 0.66335 0.23499 0.66988
 C469 C 0.64553 0.24801 0.66965
 C470 C 0.62780 0.24236 0.65487
 C471 C 0.68213 0.24172 0.68343
 C472 C 0.69793 0.24790 0.69420
 H473 H 0.55579 0.22277 0.62055
 H474 H 0.58554 0.22841 0.65073
 H475 H 0.62864 0.20754 0.59001
 H476 H 0.59877 0.20157 0.56026
 H477 H 0.64581 0.19570 0.62989
 H478 H 0.67697 0.20586 0.65569
 H479 H 0.64551 0.26279 0.68043
 H480 H 0.61446 0.25305 0.65434
 C481 C 0.70918 0.04393 0.94720
 C482 C 0.70999 0.05814 0.93140
 C483 C 0.71171 0.07542 0.91308
 C484 C 0.70781 0.09606 0.92160
 C485 C 0.71108 0.11307 0.90451
 C486 C 0.71836 0.10966 0.87863
 C487 C 0.72176 0.08881 0.87005
 C488 C 0.71847 0.07181 0.88719
 C489 C 0.72341 0.12785 0.86122
 C490 C 0.74179 0.12766 0.84561
 C491 C 0.74742 0.14534 0.83068
 C492 C 0.73476 0.16343 0.83106
 C493 C 0.71620 0.16364 0.84603
 C494 C 0.71054 0.14596 0.86101
 C495 C 0.74153 0.18214 0.81734
 C496 C 0.74777 0.19788 0.80645
 H497 H 0.70272 0.09905 0.94167
 H498 H 0.70862 0.12893 0.91186
 H499 H 0.72713 0.08566 0.85015
 H500 H 0.72157 0.05589 0.88039
 H501 H 0.75220 0.11411 0.84564
 H502 H 0.76190 0.14507 0.81931
 H503 H 0.70630 0.17758 0.84650
 H504 H 0.69617 0.14651 0.87257
 C505 C 0.20909 0.54461 0.44660
 C506 C 0.20989 0.55883 0.43082
 C507 C 0.21158 0.57615 0.41255
 C508 C 0.20700 0.59668 0.42094
 C509 C 0.21025 0.61378 0.40397
 C510 C 0.21819 0.61056 0.37836
 C511 C 0.22228 0.58979 0.36989
 C512 C 0.21901 0.57271 0.38691
 C513 C 0.22324 0.62887 0.36116
 C514 C 0.24198 0.62911 0.34625
 C515 C 0.24756 0.64693 0.33156
 C516 C 0.23449 0.66473 0.33149
 C517 C 0.21558 0.66450 0.34575
 C518 C 0.20996 0.64668 0.36048
 C519 C 0.24115 0.68359 0.31804
 C520 C 0.24729 0.69946 0.30736
 H521 H 0.20140 0.59954 0.44082
 H522 H 0.20725 0.62957 0.41123
 H523 H 0.22817 0.58678 0.35019
 H524 H 0.22264 0.55688 0.38023
 H525 H 0.25270 0.61580 0.34666
 H526 H 0.26231 0.64700 0.32074
 H527 H 0.20536 0.67821 0.34586
 H528 H 0.19532 0.64688 0.37150
 C529 C 0.28996 0.95704 0.94672
 C530 C 0.28909 0.94289 0.93086
 C531 C 0.28732 0.92569 0.91244
 C532 C 0.30124 0.90857 0.91387
 C533 C 0.29846 0.89112 0.89733
 C534 C 0.28167 0.89057 0.87916
 C535 C 0.26807 0.90808 0.87748
 C536 C 0.27088 0.92549 0.89403
 C537 C 0.27765 0.87142 0.86300
 C538 C 0.27081 0.87318 0.83667
 C539 C 0.26558 0.85514 0.82216
 C540 C 0.26715 0.83514 0.83373
 C541 C 0.27439 0.83320 0.85969
 C542 C 0.27963 0.85119 0.87423
 C543 C 0.26018 0.81670 0.81964
 C544 C 0.25376 0.80118 0.80846
 H545 H 0.31400 0.90854 0.92809
 H546 H 0.30934 0.87800 0.89888
 H547 H 0.25482 0.90802 0.86399
 H548 H 0.25992 0.93859 0.89289
 H549 H 0.26935 0.88850 0.82737
 H550 H 0.25996 0.85682 0.80208
 H551 H 0.27552 0.81780 0.86891
 H552 H 0.28454 0.84931 0.89455
 C553 C 0.79150 0.45598 0.44638
 C554 C 0.79060 0.44181 0.43054
 C555 C 0.78879 0.42458 0.41219
 C556 C 0.79317 0.40398 0.42049
 C557 C 0.78981 0.38698 0.40343
 C558 C 0.78195 0.39037 0.37782
 C559 C 0.77806 0.41120 0.36945
 C560 C 0.78145 0.42819 0.38655
 C561 C 0.77679 0.37217 0.36051
 C562 C 0.75807 0.37215 0.34557
 C563 C 0.75238 0.35444 0.33077
 C564 C 0.76530 0.33654 0.33062
 C565 C 0.78419 0.33656 0.34492
 C566 C 0.78993 0.35426 0.35976
 C567 C 0.75852 0.31779 0.31705
 C568 C 0.75230 0.30201 0.30627
 H569 H 0.79872 0.40099 0.44036
 H570 H 0.79266 0.37113 0.41062
 H571 H 0.77224 0.41434 0.34975
 H572 H 0.77797 0.44408 0.37994
 H573 H 0.74746 0.38554 0.34603
 H574 H 0.73765 0.35453 0.31992
 H575 H 0.79430 0.32276 0.34497
 H576 H 0.80454 0.35389 0.37081
 C577 C 0.04357 0.29089 0.94735
 C578 C 0.05772 0.29007 0.93147
 C579 C 0.07492 0.28833 0.91304
 C580 C 0.07115 0.28184 0.88708
 C581 C 0.08806 0.27850 0.86982
 C582 C 0.10897 0.28157 0.87836
 C583 C 0.11254 0.28857 0.90432
 C584 C 0.09562 0.29190 0.92153
 C585 C 0.12705 0.27644 0.86081
 C586 C 0.14532 0.28910 0.86069
 C587 C 0.16287 0.28334 0.84558
 C588 C 0.16239 0.26491 0.83038
 C589 C 0.14413 0.25248 0.82990
 C590 C 0.12657 0.25820 0.84497
 C591 C 0.18097 0.25801 0.81652
 C592 C 0.19660 0.25166 0.80550
 H593 H 0.05518 0.27899 0.88032
 H594 H 0.08478 0.27335 0.84987
 H595 H 0.12844 0.29078 0.91163
 H596 H 0.09873 0.29677 0.94164
 H597 H 0.14608 0.30335 0.87243
 H598 H 0.17694 0.29305 0.84612
 H599 H 0.14364 0.23810 0.81836
 H600 H 0.11289 0.24796 0.84493
 C601 C 0.54468 0.79026 0.44677
 C602 C 0.55881 0.78942 0.43087
 C603 C 0.57597 0.78766 0.41240
 C604 C 0.57220 0.78090 0.38655
 C605 C 0.58909 0.77758 0.36927
 C606 C 0.60999 0.78093 0.37768
 C607 C 0.61356 0.78821 0.40352
 C608 C 0.59666 0.79152 0.42075
 C609 C 0.62807 0.77582 0.36013
 C610 C 0.64620 0.78867 0.35973
 C611 C 0.66377 0.78295 0.34464
 C612 C 0.66344 0.76436 0.32973
 C613 C 0.64531 0.75174 0.32953
 C614 C 0.62773 0.75742 0.34459
 C615 C 0.68204 0.75754 0.31586
 C616 C 0.69769 0.75127 0.30484
 H617 H 0.55624 0.77784 0.37990
 H618 H 0.58582 0.77221 0.34941
 H619 H 0.62946 0.79064 0.41073
 H620 H 0.59977 0.79660 0.44078
 H621 H 0.64685 0.80304 0.37125
 H622 H 0.67774 0.79282 0.34496
 H623 H 0.64494 0.73724 0.31820
 H624 H 0.61416 0.74704 0.34476
 C625 C 0.95745 0.71020 0.94673
 C626 C 0.94333 0.71103 0.93083
 C627 C 0.92616 0.71278 0.91238
 C628 C 0.92616 0.72900 0.89363
 C629 C 0.90876 0.73184 0.87706
 C630 C 0.89107 0.71849 0.87907
 C631 C 0.89143 0.70192 0.89757
 C632 C 0.90886 0.69911 0.91412
 C633 C 0.87195 0.72259 0.86289
 C634 C 0.85173 0.72102 0.87423
 C635 C 0.83378 0.72632 0.85966
 C636 C 0.83575 0.73322 0.83355
 C637 C 0.85574 0.73439 0.82187
 C638 C 0.87373 0.72909 0.83643
 C639 C 0.81739 0.74026 0.81937
 C640 C 0.80194 0.74673 0.80809
 H641 H 0.93940 0.73978 0.89224
 H642 H 0.90886 0.74493 0.86332
 H643 H 0.87816 0.69123 0.89937
 H644 H 0.90867 0.68652 0.92860
 H645 H 0.84982 0.71637 0.89466
 H646 H 0.81839 0.72551 0.86895
 H647 H 0.85745 0.73974 0.80168
 H648 H 0.88905 0.73022 0.82705
 C649 C 0.45590 0.20916 0.44674
 C650 C 0.44177 0.21000 0.43086
 C651 C 0.42458 0.21176 0.41244
 C652 C 0.42824 0.21905 0.38678
 C653 C 0.41129 0.22240 0.36961
 C654 C 0.39045 0.21854 0.37794
 C655 C 0.38700 0.21074 0.40358
 C656 C 0.40396 0.20740 0.42070
 C657 C 0.37229 0.22368 0.36056
 C658 C 0.35436 0.21056 0.35983
 C659 C 0.33669 0.21628 0.34492
 C660 C 0.33672 0.23515 0.33054
 C661 C 0.35464 0.24806 0.33067
 C662 C 0.37232 0.24237 0.34553
 C663 C 0.31800 0.24193 0.31691
 C664 C 0.30225 0.24816 0.30609
 H665 H 0.44414 0.22251 0.38020
 H666 H 0.41447 0.22818 0.34990
 H667 H 0.37114 0.20791 0.41073
 H668 H 0.40094 0.20191 0.44060
 H669 H 0.35395 0.19596 0.37094
 H670 H 0.32288 0.20619 0.34499
 H671 H 0.35478 0.26277 0.31975
 H672 H 0.38572 0.25297 0.34598
 C673 C 0.70933 0.95563 0.94695
 C674 C 0.71020 0.94148 0.93110
 C675 C 0.71198 0.92426 0.91273
 C676 C 0.71937 0.92786 0.88710
 C677 C 0.72275 0.91088 0.86999
 C678 C 0.71882 0.89005 0.87835
 C679 C 0.71092 0.88665 0.90396
 C680 C 0.70756 0.90365 0.92102
 C681 C 0.72399 0.87185 0.86105
 C682 C 0.71085 0.85394 0.86029
 C683 C 0.71659 0.83623 0.84546
 C684 C 0.73550 0.83620 0.83119
 C685 C 0.74844 0.85410 0.83134
 C686 C 0.74273 0.87182 0.84613
 C687 C 0.74229 0.81744 0.81763
 C688 C 0.74852 0.80166 0.80688
 H689 H 0.72288 0.94375 0.88050
 H690 H 0.72860 0.91401 0.85030
 H691 H 0.70804 0.87081 0.91113
 H692 H 0.70199 0.90067 0.94089
 H693 H 0.69621 0.85357 0.87131
 H694 H 0.70647 0.82244 0.84551
 H695 H 0.76319 0.85419 0.82051
 H696 H 0.75335 0.88521 0.84661
 C697 C 0.20923 0.45627 0.44670
 C698 C 0.21010 0.44207 0.43090
 C699 C 0.21188 0.42480 0.41258
 C700 C 0.20777 0.40417 0.42103
 C701 C 0.21109 0.38717 0.40397
 C702 C 0.21863 0.39057 0.37820
 C703 C 0.22225 0.41142 0.36969
 C704 C 0.21891 0.42841 0.38680
 C705 C 0.22372 0.37237 0.36083
 C706 C 0.24224 0.37248 0.34549
 C707 C 0.24787 0.35480 0.33059
 C708 C 0.23509 0.33678 0.33076
 C709 C 0.21639 0.33667 0.34548
 C710 C 0.21072 0.35435 0.36041
 C711 C 0.24183 0.31807 0.31707
 C712 C 0.24805 0.30232 0.30620
 H713 H 0.20247 0.40119 0.44101
 H714 H 0.20845 0.37131 0.41126
 H715 H 0.22783 0.41456 0.34988
 H716 H 0.22218 0.44432 0.38007
 H717 H 0.25275 0.38596 0.34569
 H718 H 0.26246 0.35500 0.31942
 H719 H 0.20639 0.32279 0.34578
 H720 H 0.19625 0.35387 0.37177
 C721 C 0.28987 0.04438 0.94751
 C722 C 0.28902 0.05849 0.93157
 C723 C 0.28724 0.07564 0.91309
 C724 C 0.29109 0.09635 0.92142
 C725 C 0.28776 0.11324 0.90418
 C726 C 0.28045 0.10966 0.87835
 C727 C 0.27710 0.08874 0.86997
 C728 C 0.28046 0.07185 0.88725
 C729 C 0.27531 0.12772 0.86080
 C730 C 0.25690 0.12737 0.84529
 C731 C 0.25118 0.14495 0.83023
 C732 C 0.26379 0.16309 0.83040
 C733 C 0.28239 0.16344 0.84528
 C734 C 0.28814 0.14587 0.86037
 C735 C 0.25694 0.18169 0.81655
 C736 C 0.25064 0.19734 0.80554
 H737 H 0.29620 0.09947 0.94144
 H738 H 0.29019 0.12915 0.91137
 H739 H 0.27172 0.08545 0.85012
 H740 H 0.27739 0.05589 0.88062
 H741 H 0.24653 0.11379 0.84549
 H742 H 0.23667 0.14456 0.81894
 H743 H 0.29224 0.17742 0.84558
 H744 H 0.30253 0.14653 0.87186
 C745 C 0.79171 0.54423 0.44643
 C746 C 0.79085 0.55840 0.43058
 C747 C 0.78905 0.57561 0.41217
 C748 C 0.79252 0.59633 0.42069
 C749 C 0.78916 0.61326 0.40351
 C750 C 0.78219 0.60968 0.37753
 C751 C 0.77921 0.58876 0.36896
 C752 C 0.78260 0.57185 0.38620
 C753 C 0.77702 0.62776 0.35999
 C754 C 0.75881 0.62723 0.34413
 C755 C 0.75304 0.64479 0.32907
 C756 C 0.76540 0.66310 0.32959
 C757 C 0.78381 0.66363 0.34482
 C758 C 0.78961 0.64608 0.35992
 C759 C 0.75846 0.68167 0.31574
 C760 C 0.75207 0.69729 0.30473
 H761 H 0.79736 0.59944 0.44082
 H762 H 0.79129 0.62917 0.41084
 H763 H 0.77410 0.58548 0.34900
 H764 H 0.77982 0.55587 0.37941
 H765 H 0.74861 0.61351 0.34405
 H766 H 0.73867 0.64426 0.31750
 H767 H 0.79347 0.67774 0.34540
 H768 H 0.80385 0.64688 0.37168
 C769 C 0.04398 0.71002 0.94688
 C770 C 0.05820 0.71077 0.93109
 C771 C 0.07551 0.71240 0.91282
 C772 C 0.07208 0.71975 0.88714
 C773 C 0.08916 0.72296 0.87011
 C774 C 0.10991 0.71889 0.87860
 C775 C 0.11313 0.71103 0.90426
 C776 C 0.09604 0.70784 0.92124
 C777 C 0.12822 0.72387 0.86138
 C778 C 0.14602 0.71058 0.86078
 C779 C 0.16384 0.71615 0.84603
 C780 C 0.16409 0.73503 0.83168
 C781 C 0.14630 0.74811 0.83167
 C782 C 0.12847 0.74258 0.84638
 C783 C 0.18295 0.74164 0.81820
 C784 C 0.19882 0.74774 0.80751
 H785 H 0.05625 0.72336 0.88043
 H786 H 0.08615 0.72878 0.85038
 H787 H 0.12891 0.70805 0.91154
 H788 H 0.09888 0.70230 0.94115
 H789 H 0.14622 0.69597 0.87187
 H790 H 0.17754 0.70592 0.84620
 H791 H 0.14638 0.76283 0.82078
 H792 H 0.11517 0.75330 0.84673
 C793 C 0.54416 0.20916 0.44710
 C794 C 0.55838 0.20999 0.43132
 C795 C 0.57567 0.21174 0.41302
 C796 C 0.57208 0.21856 0.38714
 C797 C 0.58909 0.22185 0.37003
 C798 C 0.60993 0.21840 0.37862
 C799 C 0.61331 0.21108 0.40449
 C800 C 0.59629 0.20780 0.42156
 C801 C 0.62814 0.22345 0.36124
 C802 C 0.64621 0.21053 0.36101
 C803 C 0.66390 0.21618 0.34605
 C804 C 0.66373 0.23476 0.33111
 C805 C 0.64567 0.24746 0.33075
 C806 C 0.62798 0.24185 0.34566
 C807 C 0.68245 0.24151 0.31740
 C808 C 0.69819 0.24772 0.30651
 H809 H 0.55618 0.22169 0.38034
 H810 H 0.58596 0.22725 0.35014
 H811 H 0.62916 0.20857 0.41184
 H812 H 0.59926 0.20267 0.44161
 H813 H 0.64673 0.19615 0.37254
 H814 H 0.67781 0.20625 0.34651
 H815 H 0.64543 0.26196 0.31940
 H816 H 0.61446 0.25229 0.34571
 C817 C 0.95621 0.29085 0.94621
 C818 C 0.94205 0.28997 0.93038
 C819 C 0.92482 0.28819 0.91203
 C820 C 0.90423 0.29269 0.92030
 C821 C 0.88723 0.28934 0.90325
 C822 C 0.89059 0.28138 0.87767
 C823 C 0.91140 0.27738 0.86933
 C824 C 0.92839 0.28074 0.88642
 C825 C 0.87238 0.27624 0.86039
 C826 C 0.87228 0.25748 0.84554
 C827 C 0.85456 0.25181 0.83075
 C828 C 0.83671 0.26482 0.83053
 C829 C 0.83681 0.28375 0.84474
 C830 C 0.85453 0.28946 0.85956
 C831 C 0.81795 0.25808 0.81697
 C832 C 0.80216 0.25189 0.80620
 H833 H 0.90127 0.29830 0.94014
 H834 H 0.87140 0.29228 0.91041
 H835 H 0.91452 0.27148 0.84967
 H836 H 0.94427 0.27717 0.87984
 H837 H 0.88563 0.24681 0.84606
 H838 H 0.85459 0.23704 0.81997
 H839 H 0.82306 0.29392 0.84473
 H840 H 0.85422 0.30411 0.87054
 C841 C 0.45650 0.79037 0.44694
 C842 C 0.44236 0.78955 0.43107
 C843 C 0.42518 0.78782 0.41263
 C844 C 0.40802 0.80168 0.41416
 C845 C 0.39059 0.79893 0.39759
 C846 C 0.39008 0.78222 0.37931
 C847 C 0.40763 0.76867 0.37752
 C848 C 0.42503 0.77146 0.39410
 C849 C 0.37094 0.77821 0.36312
 C850 C 0.37271 0.77149 0.33675
 C851 C 0.35469 0.76626 0.32221
 C852 C 0.33469 0.76773 0.33381
 C853 C 0.33274 0.77485 0.35982
 C854 C 0.35072 0.78008 0.37438
 C855 C 0.31628 0.76076 0.31967
 C856 C 0.30077 0.75436 0.30845
 H857 H 0.40796 0.81439 0.42846
 H858 H 0.37744 0.80976 0.39922
 H859 H 0.40761 0.75548 0.36395
 H860 H 0.43815 0.76054 0.39288
 H861 H 0.38803 0.77012 0.32744
 H862 H 0.35638 0.76074 0.30210
 H863 H 0.31735 0.77589 0.36905
 H864 H 0.34883 0.78489 0.39473
 C865 C 0.29034 0.95723 0.05392
 C866 C 0.28957 0.94309 0.06983
 C867 C 0.28789 0.92590 0.08828
 C868 C 0.29224 0.90528 0.08004
 C869 C 0.28899 0.88832 0.09721
 C870 C 0.28126 0.89176 0.12289
 C871 C 0.27741 0.91261 0.13120
 C872 C 0.28069 0.92956 0.11398
 C873 C 0.27620 0.87359 0.14032
 C874 C 0.25756 0.87360 0.15544
 C875 C 0.25193 0.85591 0.17035
 C876 C 0.26485 0.83800 0.17043
 C877 C 0.28366 0.83799 0.15596
 C878 C 0.28933 0.85568 0.14101
 C879 C 0.25810 0.81925 0.18407
 C880 C 0.25190 0.80347 0.19488
 H881 H 0.29768 0.90226 0.06013
 H882 H 0.29181 0.87246 0.09007
 H883 H 0.27170 0.91578 0.15093
 H884 H 0.27723 0.94546 0.12055
 H885 H 0.24695 0.88699 0.15503
 H886 H 0.23725 0.85602 0.18132
 H887 H 0.29376 0.82419 0.15585
 H888 H 0.30389 0.85529 0.12983
 C889 C 0.79165 0.45582 0.55345
 C890 C 0.79077 0.44162 0.56925
 C891 C 0.78896 0.42435 0.58757
 C892 C 0.79300 0.40371 0.57913
 C893 C 0.78962 0.38670 0.59619
 C894 C 0.78209 0.39010 0.62196
 C895 C 0.77854 0.41095 0.63047
 C896 C 0.78194 0.42795 0.61336
 C897 C 0.77692 0.37191 0.63931
 C898 C 0.75840 0.37206 0.65464
 C899 C 0.75269 0.35438 0.66953
 C900 C 0.76541 0.33633 0.66937
 C901 C 0.78411 0.33617 0.65467
 C902 C 0.78986 0.35384 0.63974
 C903 C 0.75860 0.31762 0.68306
 C904 C 0.75233 0.30189 0.69394
 H905 H 0.79828 0.40073 0.55914
 H906 H 0.79221 0.37085 0.58890
 H907 H 0.77298 0.41410 0.65028
 H908 H 0.77872 0.44386 0.62009
 H909 H 0.74794 0.38558 0.65444
 H910 H 0.73810 0.35462 0.68069
 H911 H 0.79406 0.32226 0.65437
 H912 H 0.80433 0.35333 0.62839
 C913 C 0.70922 0.04367 0.05427
 C914 C 0.71005 0.05783 0.07011
 C915 C 0.71179 0.07507 0.08846
 C916 C 0.71915 0.07150 0.11411
 C917 C 0.72249 0.08850 0.13120
 C918 C 0.71856 0.10932 0.12281
 C919 C 0.71068 0.11268 0.09720
 C920 C 0.70736 0.09567 0.08016
 C921 C 0.72369 0.12754 0.14010
 C922 C 0.71052 0.14542 0.14084
 C923 C 0.71623 0.16315 0.15565
 C924 C 0.73512 0.16322 0.16994
 C925 C 0.74808 0.14534 0.16981
 C926 C 0.74241 0.12760 0.15503
 C927 C 0.74188 0.18199 0.18349
 C928 C 0.74808 0.19778 0.19424
 H929 H 0.72267 0.05562 0.12073
 H930 H 0.72833 0.08538 0.15090
 H931 H 0.70779 0.12851 0.09001
 H932 H 0.70181 0.09863 0.06028
 H933 H 0.69590 0.14576 0.12980
 H934 H 0.70610 0.17693 0.15559
 H935 H 0.76282 0.14528 0.18065
 H936 H 0.75304 0.11423 0.15458
 C937 C 0.20914 0.54467 0.55362
 C938 C 0.20998 0.55887 0.56941
 C939 C 0.21174 0.57613 0.58773
 C940 C 0.20812 0.59681 0.57912
 C941 C 0.21144 0.61379 0.59622
 C942 C 0.21848 0.61032 0.62219
 C943 C 0.22161 0.58943 0.63084
 C944 C 0.21827 0.57246 0.61370
 C945 C 0.22359 0.62847 0.63962
 C946 C 0.24184 0.62809 0.65543
 C947 C 0.24753 0.64571 0.67040
 C948 C 0.23506 0.66393 0.66985
 C949 C 0.21662 0.66432 0.65467
 C950 C 0.21090 0.64671 0.63967
 C951 C 0.24191 0.68257 0.68364
 C952 C 0.24822 0.69823 0.69461
 H953 H 0.20321 0.59984 0.55900
 H954 H 0.20919 0.62967 0.58882
 H955 H 0.22679 0.58624 0.65080
 H956 H 0.22116 0.55652 0.62055
 H957 H 0.25212 0.61443 0.65554
 H958 H 0.26192 0.64529 0.68194
 H959 H 0.20687 0.67837 0.65408
 H960 H 0.19663 0.64739 0.62794
 C961 C 0.95649 0.71004 0.05282
 C962 C 0.94231 0.71085 0.06864
 C963 C 0.92505 0.71255 0.08699
 C964 C 0.92470 0.72904 0.10534
 C965 C 0.90720 0.73179 0.12177
 C966 C 0.88976 0.71809 0.12002
 C967 C 0.89049 0.70125 0.10193
 C968 C 0.90802 0.69853 0.08551
 C969 C 0.87052 0.72207 0.13601
 C970 C 0.85037 0.71998 0.12461
 C971 C 0.83228 0.72518 0.13898
 C972 C 0.83404 0.73247 0.16493
 C973 C 0.85396 0.73416 0.17667
 C974 C 0.87209 0.72897 0.16233
 C975 C 0.81550 0.73936 0.17887
 C976 C 0.79990 0.74569 0.18995
 H977 H 0.93773 0.74008 0.10651
 H978 H 0.90701 0.74508 0.13520
 H979 H 0.87743 0.69030 0.10034
 H980 H 0.90812 0.68573 0.07134
 H981 H 0.84863 0.71502 0.10429
 H982 H 0.81695 0.72396 0.12964
 H983 H 0.85550 0.73982 0.19674
 H984 H 0.88735 0.73051 0.17174
 C985 C 0.45558 0.20919 0.55385
 C986 C 0.44136 0.21003 0.56964
 C987 C 0.42408 0.21178 0.58794
 C988 C 0.42381 0.22819 0.60641
 C989 C 0.40630 0.23100 0.62281
 C990 C 0.38876 0.21744 0.62092
 C991 C 0.38939 0.20069 0.60270
 C992 C 0.40693 0.19790 0.58631
 C993 C 0.36952 0.22148 0.63689
 C994 C 0.34937 0.21958 0.62545
 C995 C 0.33129 0.22483 0.63982
 C996 C 0.33306 0.23200 0.66582
 C997 C 0.35298 0.23350 0.67761
 C998 C 0.37110 0.22826 0.66326
 C999 C 0.31455 0.23896 0.67976
 C1000 C 0.29897 0.24536 0.69084
 H1001 H 0.43692 0.23912 0.60771
 H1002 H 0.40619 0.24422 0.63634
 H1003 H 0.37625 0.18984 0.60098
 H1004 H 0.40696 0.18517 0.57204
 H1005 H 0.34762 0.21472 0.60509
 H1006 H 0.31597 0.22375 0.63044
 H1007 H 0.35453 0.23906 0.69772
 H1008 H 0.38636 0.22965 0.67272
 C1009 C 0.04432 0.29112 0.05342
 C1010 C 0.05849 0.29032 0.06926
 C1011 C 0.07572 0.28863 0.08762
 C1012 C 0.07210 0.28153 0.11338
 C1013 C 0.08908 0.27824 0.13051
 C1014 C 0.10992 0.28196 0.12205
 C1015 C 0.11332 0.28958 0.09631
 C1016 C 0.09633 0.29285 0.07923
 C1017 C 0.12811 0.27688 0.13941
 C1018 C 0.14608 0.28995 0.13992
 C1019 C 0.16377 0.28427 0.15481
 C1020 C 0.16372 0.26550 0.16940
 C1021 C 0.14575 0.25266 0.16949
 C1022 C 0.12805 0.25830 0.15464
 C1023 C 0.18245 0.25875 0.18301
 C1024 C 0.19822 0.25253 0.19382
 H1025 H 0.05621 0.27817 0.12006
 H1026 H 0.08594 0.27261 0.15030
 H1027 H 0.12917 0.29230 0.08907
 H1028 H 0.09932 0.29820 0.05926
 H1029 H 0.14651 0.30447 0.12865
 H1030 H 0.17762 0.29431 0.15457
 H1031 H 0.14560 0.23802 0.18056
 H1032 H 0.11461 0.24775 0.15437
 C1033 C 0.54482 0.79016 0.55395
 C1034 C 0.55898 0.78928 0.56979
 C1035 C 0.57618 0.78747 0.58819
 C1036 C 0.59354 0.80107 0.58637
 C1037 C 0.61098 0.79821 0.60289
 C1038 C 0.61129 0.78166 0.62143
 C1039 C 0.59355 0.76839 0.62351
 C1040 C 0.57614 0.77127 0.60697
 C1041 C 0.63042 0.77753 0.63759
 C1042 C 0.62863 0.77108 0.66408
 C1043 C 0.64662 0.76575 0.67862
 C1044 C 0.66660 0.76683 0.66691
 C1045 C 0.66857 0.77366 0.64078
 C1046 C 0.65063 0.77900 0.62621
 C1047 C 0.68496 0.75977 0.68110
 C1048 C 0.70040 0.75329 0.69238
 H1049 H 0.59375 0.81363 0.57186
 H1050 H 0.62429 0.80884 0.60103
 H1051 H 0.59341 0.75532 0.63729
 H1052 H 0.56285 0.76056 0.60842
 H1053 H 0.61332 0.77002 0.67348
 H1054 H 0.64491 0.76045 0.69884
 H1055 H 0.68395 0.77440 0.63146
 H1056 H 0.65253 0.78359 0.60577
   
