data_POSCAR
  _audit_creation_date              2014-09-24
  _audit_creation_method            'ToBaCCo'
  _symmetry_space_group_name_H-M    'P1'
  _symmetry_Int_Tables_number       1
  _symmetry_cell_setting            triclinic
  loop_
  _symmetry_equiv_pos_as_xyz
 x,y,z
_cell_length_a 58.7452
_cell_length_b 58.7116
_cell_length_c 21.5435
_cell_angle_alpha 89.966400
_cell_angle_beta 90.018400
_cell_angle_gamma 119.975400
loop_
  _atom_site_label
  _atom_site_type_symbol
  _atom_site_fract_x
  _atom_site_fract_y
  _atom_site_fract_z
O1 O 0.20768 0.45963 0.44081
 O2 O 0.25244 0.45970 0.56068
 O3 O 0.20799 0.45972 0.56135
 O4 O 0.25215 0.45970 0.44015
 O5 O 0.27377 0.50307 0.44004
 O6 O 0.22966 0.50309 0.56124
 O7 O 0.27407 0.50302 0.56055
 O8 O 0.22932 0.50300 0.44072
 Cu9 Cu 0.22790 0.45535 0.50078
 Cu10 Cu 0.25387 0.50738 0.50064
 C11 C 0.21070 0.48131 0.42058
 C12 C 0.27113 0.48137 0.58085
 C13 C 0.21112 0.48141 0.58166
 C14 C 0.27066 0.48139 0.41969
 O15 O 0.54034 -0.25282 0.43950
 O16 O 0.54034 -0.20819 0.55960
 O17 O 0.54025 -0.25271 0.56002
 O18 O 0.54031 -0.20837 0.43906
 O19 O 0.49697 -0.23004 0.43900
 O20 O 0.49696 -0.27433 0.55997
 O21 O 0.49700 -0.22984 0.55953
 O22 O 0.49704 -0.27447 0.43946
 Cu23 Cu 0.54464 -0.22836 0.49955
 Cu24 Cu 0.49266 -0.25433 0.49949
 C25 C 0.51869 -0.27148 0.41917
 C26 C 0.51867 -0.21123 0.57976
 C27 C 0.51859 -0.27132 0.58043
 C28 C 0.51864 -0.21147 0.41867
 O29 O 1.25193 0.79220 0.44111
 O30 O 1.20721 0.74750 0.56099
 O31 O 1.25171 0.79191 0.56165
 O32 O 1.20750 0.74778 0.44046
 O33 O 1.22914 0.72605 0.44046
 O34 O 1.27331 0.77014 0.56165
 O35 O 1.22880 0.72576 0.56098
 O36 O 1.27356 0.77047 0.44113
 Cu37 Cu 1.22742 0.77202 0.50107
 Cu38 Cu 1.25336 0.74593 0.50107
 C39 C 1.27054 0.78913 0.42093
 C40 C 1.21014 0.72877 0.58122
 C41 C 1.27024 0.78873 0.58201
 C42 C 1.21061 0.72922 0.42005
 O43 O 0.74737 0.54054 0.56041
 O44 O 0.79222 0.54060 0.44088
 O45 O 0.74777 0.54056 0.43988
 O46 O 0.79181 0.54052 0.56141
 O47 O 0.77014 0.49715 0.56138
 O48 O 0.72613 0.49719 0.43985
 O49 O 0.77057 0.49724 0.44086
 O50 O 0.72573 0.49721 0.56037
 Cu51 Cu 0.77196 0.54489 0.50066
 Cu52 Cu 0.74598 0.49286 0.50063
 C53 C 0.72866 0.51887 0.58057
 C54 C 0.78921 0.51893 0.42073
 C55 C 0.72926 0.51888 0.41941
 C56 C 0.78867 0.51882 0.58182
 O57 O 0.45980 0.20714 0.56074
 O58 O 0.45976 0.25196 0.44107
 O59 O 0.45981 0.20752 0.44021
 O60 O 0.45982 0.25163 0.56160
 O61 O 0.50316 0.27328 0.56157
 O62 O 0.50315 0.22921 0.44018
 O63 O 0.50310 0.27364 0.44105
 O64 O 0.50310 0.22879 0.56070
 Cu65 Cu 0.45546 0.22739 0.50092
 Cu66 Cu 0.50746 0.25340 0.50089
 C67 C 0.48146 0.21008 0.58092
 C68 C 0.48142 0.27061 0.42091
 C69 C 0.48149 0.21068 0.41976
 C70 C 0.48149 0.27016 0.58199
 O71 O 0.79287 0.25262 0.56088
 O72 O 0.74811 0.20774 0.44135
 O73 O 0.79248 0.25222 0.44035
 O74 O 0.74843 0.20816 0.56189
 O75 O 0.72675 0.22984 0.56174
 O76 O 0.77077 0.27387 0.44020
 O77 O 0.72640 0.22940 0.44122
 O78 O 0.77120 0.27428 0.56072
 Cu79 Cu 0.77264 0.22802 0.50115
 Cu80 Cu 0.74661 0.25402 0.50097
 C81 C 0.78991 0.27134 0.58097
 C82 C 0.72945 0.21075 0.42116
 C83 C 0.78930 0.27073 0.41981
 C84 C 0.72989 0.21131 0.58224
 N85 N 0.97226 0.46171 0.10933
 N86 N 0.95319 0.44867 0.14972
 N87 N 1.02752 0.47342 0.06646
 N88 N 1.04655 0.46808 0.07666
 N89 N 1.02750 0.48928 0.10939
 N90 N 1.04649 0.49519 0.14997
 N91 N 0.97222 0.44583 0.06636
 N92 N 0.95310 0.42150 0.07631
 C93 C 0.94139 0.42373 0.12817
 C94 C 1.05822 0.48196 0.12862
 N95 N 1.02751 0.48938 -0.11033
 N96 N 1.04660 0.49544 -0.15065
 N97 N 0.97220 0.44587 -0.06751
 N98 N 0.95316 0.42153 -0.07780
 N99 N 0.97225 0.46182 -0.11039
 N100 N 0.95328 0.44880 -0.15101
 N101 N 1.02751 0.47349 -0.06740
 N102 N 1.04663 0.46827 -0.07733
 Mn103 Mn 0.99986 0.45938 -0.00053
 C104 C 1.05837 0.48225 -0.12913
 C105 C 0.94150 0.42381 -0.12975
 N106 N 1.02756 0.53836 0.10947
 N107 N 1.04661 0.55137 0.14991
 N108 N 0.97230 0.52671 0.06663
 N109 N 0.95330 0.53207 0.07694
 N110 N 0.97231 0.51079 0.10950
 N111 N 0.95335 0.50487 0.15013
 N112 N 1.02761 0.55429 0.06656
 N113 N 1.04672 0.57861 0.07661
 Mn114 Mn 0.99991 0.50004 0.11006
 C115 C 1.05841 0.57633 0.12847
 C116 C 0.94163 0.51815 0.12888
 N117 N 0.97233 0.51091 -0.11022
 N118 N 0.95321 0.50487 -0.15049
 N119 N 1.02763 0.55438 -0.06731
 N120 N 1.04670 0.57872 -0.07748
 N121 N 1.02757 0.53847 -0.11026
 N122 N 1.04658 0.55152 -0.15081
 N123 N 0.97232 0.52677 -0.06723
 N124 N 0.95319 0.53196 -0.07706
 Mn125 Mn 0.99991 0.50015 -0.11095
 Mn126 Mn 0.99996 0.54080 -0.00034
 Cl127 Cl 0.99991 0.50009 -0.00044
 C128 C 0.94143 0.51802 -0.12887
 C129 C 1.05836 0.57648 -0.12943
 N130 N 0.47343 0.44593 0.06644
 N131 N 0.46813 0.42158 0.07683
 N132 N 0.46167 0.48950 0.10909
 N133 N 0.44864 0.49553 0.14950
 N134 N 0.44577 0.47360 0.06623
 N135 N 0.42144 0.46836 0.07629
 N136 N 0.48932 0.46187 0.10926
 N137 N 0.49528 0.44885 0.14994
 C138 C 0.48206 0.42385 0.12878
 C139 C 0.42369 0.48233 0.12810
 N140 N 0.52649 0.55443 0.06588
 N141 N 0.53182 0.57880 0.07606
 N142 N 0.53831 0.51092 0.10894
 N143 N 0.55138 0.50491 0.14934
 N144 N 0.55417 0.52676 0.06591
 N145 N 0.57850 0.53199 0.07585
 N146 N 0.51065 0.53854 0.10886
 N147 N 0.50475 0.55162 0.14945
 Mn148 Mn 0.49999 0.50021 0.10967
 C149 C 0.51794 0.57659 0.12805
 C150 C 0.57630 0.51806 0.12776
 N151 N 0.44568 0.47351 -0.06764
 N152 N 0.42134 0.46821 -0.07780
 N153 N 0.48920 0.46172 -0.11045
 N154 N 0.49527 0.44865 -0.15068
 N155 N 0.47337 0.44586 -0.06742
 N156 N 0.46822 0.42153 -0.07717
 N157 N 0.46155 0.48935 -0.11064
 N158 N 0.44849 0.49528 -0.15122
 Mn159 Mn 0.45930 0.45946 -0.00060
 C160 C 0.42354 0.48210 -0.12981
 C161 C 0.48216 0.42372 -0.12898
 N162 N 0.55412 0.52667 -0.06795
 N163 N 0.57847 0.53200 -0.07824
 N164 N 0.51056 0.53839 -0.11087
 N165 N 0.50452 0.55141 -0.15136
 N166 N 0.52643 0.55432 -0.06800
 N167 N 0.53164 0.57865 -0.07814
 N168 N 0.53821 0.51076 -0.11077
 N169 N 0.55125 0.50481 -0.15136
 Mn170 Mn 0.54057 0.54081 -0.00104
 Mn171 Mn 0.49988 0.50005 -0.11133
 Cl172 Cl 0.49993 0.50013 -0.00082
 C173 C 0.57622 0.51805 -0.13013
 C174 C 0.51768 0.57638 -0.12999
 N175 N 0.44587 -0.02777 0.06680
 N176 N 0.42152 -0.04680 0.07701
 N177 N 0.48939 0.02750 0.10976
 N178 N 0.49542 0.04658 0.15014
 N179 N 0.47356 0.02757 0.06677
 N180 N 0.46836 0.04670 0.07672
 N181 N 0.46175 -0.02777 0.10974
 N182 N 0.44869 -0.04677 0.15033
 C183 C 0.42373 -0.05849 0.12897
 C184 C 0.48229 0.05839 0.12859
 N185 N 0.55431 0.02751 0.06706
 N186 N 0.57865 0.04653 0.07737
 N187 N 0.51076 -0.02781 0.10982
 N188 N 0.50471 -0.04691 0.15018
 N189 N 0.52663 -0.02783 0.06691
 N190 N 0.53183 -0.04697 0.07688
 N191 N 0.53840 0.02747 0.10993
 N192 N 0.55143 0.04644 0.15057
 Mn193 Mn 0.50007 -0.00015 0.11045
 C194 C 0.57640 0.05819 0.12933
 C195 C 0.51786 -0.05871 0.12869
 N196 N 0.47360 0.02764 -0.06710
 N197 N 0.46829 0.04669 -0.07738
 N198 N 0.46183 -0.02768 -0.10997
 N199 N 0.44880 -0.04677 -0.15032
 N200 N 0.44594 -0.02770 -0.06706
 N201 N 0.42163 -0.04683 -0.07700
 N202 N 0.48948 0.02760 -0.10997
 N203 N 0.49542 0.04660 -0.15059
 Mn204 Mn 0.45948 -0.00007 -0.00015
 C205 C 0.48221 0.05837 -0.12932
 C206 C 0.42387 -0.05856 -0.12881
 N207 N 0.52668 -0.02779 -0.06695
 N208 N 0.53196 -0.04686 -0.07713
 N209 N 0.53848 0.02755 -0.10980
 N210 N 0.55153 0.04669 -0.15006
 N211 N 0.55434 0.02755 -0.06680
 N212 N 0.57865 0.04670 -0.07661
 N213 N 0.51084 -0.02773 -0.10990
 N214 N 0.50488 -0.04673 -0.15046
 Mn215 Mn 0.54076 -0.00014 0.00005
 Mn216 Mn 0.50016 -0.00006 -0.11056
 Cl217 Cl 0.50012 -0.00010 -0.00005
 C218 C 0.51807 -0.05852 -0.12909
 C219 C 0.57645 0.05847 -0.12843
 C220 C 1.15232 0.45744 0.31208
 C221 C 1.15478 0.48124 0.29191
 C222 C 1.17608 0.50505 0.31191
 C223 C 1.19461 0.50510 0.35276
 C224 C 1.19203 0.48128 0.37428
 C225 C 1.17082 0.45744 0.35293
 C226 C 1.13478 0.48123 0.25321
 C227 C 1.11770 0.48127 0.22227
 C228 C 1.09732 0.48140 0.18777
 C229 C 1.07963 0.48160 0.15987
 H230 H 1.13585 0.43889 0.29706
 H231 H 1.17813 0.52359 0.29677
 H232 H 1.21069 0.52379 0.36829
 H233 H 1.16825 0.43877 0.36859
 C234 C 0.49495 0.67124 0.31213
 C235 C 0.51873 0.67375 0.29198
 C236 C 0.54250 0.69501 0.31219
 C237 C 0.54254 0.71345 0.35329
 C238 C 0.51870 0.71086 0.37511
 C239 C 0.49488 0.68963 0.35323
 C240 C 0.51872 0.65381 0.25307
 C241 C 0.51867 0.63671 0.22197
 C242 C 0.51853 0.61623 0.18733
 C243 C 0.51832 0.59836 0.15935
 H244 H 0.47642 0.65480 0.29688
 H245 H 0.56103 0.69710 0.29698
 H246 H 0.56129 0.72947 0.36871
 H247 H 0.47612 0.68689 0.36861
 C248 C 0.30516 -0.15247 0.31238
 C249 C 0.32644 -0.15500 0.29228
 C250 C 0.32889 -0.17635 0.31235
 C251 C 0.31039 -0.19487 0.35320
 C252 C 0.28920 -0.19222 0.37464
 C253 C 0.28663 -0.17096 0.35322
 C254 C 0.34644 -0.13502 0.25359
 C255 C 0.36358 -0.11795 0.22265
 C256 C 0.38409 -0.09758 0.18815
 C257 C 0.40198 -0.07990 0.16024
 H258 H 0.30312 -0.13597 0.29731
 H259 H 0.34534 -0.17845 0.29726
 H260 H 0.31295 -0.21098 0.36878
 H261 H 0.27056 -0.16834 0.36882
 C262 C 0.82386 0.49516 0.31235
 C263 C 0.84518 0.51896 0.29235
 C264 C 0.84766 0.54276 0.31247
 C265 C 0.82915 0.54278 0.35323
 C266 C 0.80791 0.51894 0.37456
 C267 C 0.80532 0.49512 0.35312
 C268 C 0.86517 0.51895 0.25368
 C269 C 0.88224 0.51889 0.22273
 C270 C 0.90259 0.51874 0.18819
 C271 C 0.92025 0.51852 0.16023
 H272 H 0.82179 0.47661 0.29725
 H273 H 0.86414 0.56131 0.29745
 H274 H 0.83173 0.56145 0.36884
 H275 H 0.78922 0.47643 0.36863
 C276 C 0.50518 0.32906 0.31248
 C277 C 0.48138 0.32660 0.29245
 C278 C 0.45760 0.30528 0.31255
 C279 C 0.45758 0.28673 0.35334
 C280 C 0.48141 0.28930 0.37470
 C281 C 0.50522 0.31054 0.35327
 C282 C 0.48138 0.34661 0.25376
 C283 C 0.48143 0.36374 0.22278
 C284 C 0.48155 0.38424 0.18821
 C285 C 0.48173 0.40212 0.16020
 H286 H 0.52371 0.34553 0.29739
 H287 H 0.43906 0.30322 0.29751
 H288 H 0.43892 0.27063 0.36894
 H289 H 0.52389 0.31311 0.36881
 C290 C 0.69487 0.15226 0.31295
 C291 C 0.67356 0.15473 0.29279
 C292 C 0.67107 0.17606 0.31273
 C293 C 0.68955 0.19462 0.35349
 C294 C 0.71078 0.19204 0.37499
 C295 C 0.71339 0.17079 0.35371
 C296 C 0.65358 0.13473 0.25412
 C297 C 0.63647 0.11764 0.22317
 C298 C 0.61599 0.09727 0.18863
 C299 C 0.59813 0.07958 0.16068
 H300 H 0.69695 0.13577 0.29797
 H301 H 0.65460 0.17812 0.29759
 H302 H 0.68696 0.21072 0.36897
 H303 H 0.72948 0.16821 0.36936
 C304 C 0.45770 0.15254 -0.31268
 C305 C 0.48147 0.15500 -0.29265
 C306 C 0.50524 0.17631 -0.31272
 C307 C 0.50529 0.19486 -0.35355
 C308 C 0.48146 0.19232 -0.37524
 C309 C 0.45764 0.17103 -0.35351
 C310 C 0.48149 0.13499 -0.25398
 C311 C 0.48155 0.11789 -0.22306
 C312 C 0.48169 0.09750 -0.18856
 C313 C 0.48188 0.07980 -0.16064
 H314 H 0.43917 0.13607 -0.29754
 H315 H 0.52378 0.17837 -0.29760
 H316 H 0.52405 0.21092 -0.36886
 H317 H 0.43888 0.16833 -0.36880
 C318 C 0.67111 0.49505 -0.31326
 C319 C 0.67355 0.51883 -0.29323
 C320 C 0.69486 0.54262 -0.31322
 C321 C 0.71342 0.54269 -0.35398
 C322 C 0.71089 0.51886 -0.37567
 C323 C 0.68961 0.49501 -0.35401
 C324 C 0.65352 0.51880 -0.25464
 C325 C 0.63637 0.51873 -0.22377
 C326 C 0.61585 0.51859 -0.18932
 C327 C 0.59796 0.51839 -0.16143
 H328 H 0.65464 0.47650 -0.29817
 H329 H 0.69691 0.56115 -0.29811
 H330 H 0.72947 0.56146 -0.36924
 H331 H 0.68692 0.47625 -0.36930
 C332 C 0.84743 0.30516 -0.31278
 C333 C 0.84495 0.32649 -0.29286
 C334 C 0.82363 0.32894 -0.31294
 C335 C 0.80510 0.31043 -0.35369
 C336 C 0.80766 0.28913 -0.37527
 C337 C 0.82895 0.28659 -0.35352
 C338 C 0.86494 0.34653 -0.25427
 C339 C 0.88203 0.36368 -0.22340
 C340 C 0.90240 0.38420 -0.18896
 C341 C 0.92009 0.40208 -0.16106
 H342 H 0.86390 0.30311 -0.29762
 H343 H 0.82155 0.34542 -0.29791
 H344 H 0.78903 0.31312 -0.36902
 H345 H 0.83166 0.27053 -0.36873
 C346 C 0.54247 -0.15282 -0.31180
 C347 C 0.51868 -0.15527 -0.29180
 C348 C 0.49489 -0.17659 -0.31185
 C349 C 0.49486 -0.19514 -0.35259
 C350 C 0.51868 -0.19257 -0.37395
 C351 C 0.54250 -0.17135 -0.35254
 C352 C 0.51868 -0.13524 -0.25326
 C353 C 0.51864 -0.11812 -0.22245
 C354 C 0.51853 -0.09770 -0.18809
 C355 C 0.51837 -0.07997 -0.16028
 H356 H 0.56101 -0.13635 -0.29674
 H357 H 0.47636 -0.17863 -0.29683
 H358 H 0.47619 -0.21122 -0.36817
 H359 H 0.56116 -0.16878 -0.36808
 C360 C 0.32863 0.50518 -0.31280
 C361 C 0.32617 0.48139 -0.29270
 C362 C 0.30487 0.45760 -0.31267
 C363 C 0.28633 0.45754 -0.35349
 C364 C 0.28887 0.48138 -0.37528
 C365 C 0.31014 0.50522 -0.35363
 C366 C 0.34620 0.48141 -0.25410
 C367 C 0.36335 0.48147 -0.22324
 C368 C 0.38388 0.48159 -0.18885
 C369 C 0.40178 0.48177 -0.16102
 H370 H 0.34509 0.52372 -0.29773
 H371 H 0.30281 0.43907 -0.29750
 H372 H 0.27028 0.43877 -0.36875
 H373 H 0.31284 0.52399 -0.36898
 C374 C 1.15266 0.69513 -0.31235
 C375 C 1.15508 0.67378 -0.29231
 C376 C 1.17637 0.67126 -0.31235
 C377 C 1.19491 0.68973 -0.35318
 C378 C 1.19239 0.71104 -0.37490
 C379 C 1.17115 0.71365 -0.35318
 C380 C 1.13506 0.65377 -0.25370
 C381 C 1.11795 0.63663 -0.22284
 C382 C 1.09754 0.61612 -0.18845
 C383 C 1.07981 0.59823 -0.16063
 H384 H 1.13622 0.69724 -0.29723
 H385 H 1.17840 0.65476 -0.29723
 H386 H 1.21094 0.68698 -0.36849
 H387 H 1.16847 0.72974 -0.36849
 C388 C 0.84684 0.54252 -0.30925
 C389 C 0.84430 0.51869 -0.28920
 C390 C 0.82294 0.49491 -0.30911
 C391 C 0.80445 0.49493 -0.34992
 C392 C 0.80714 0.51879 -0.37148
 C393 C 0.82837 0.54260 -0.35006
 C394 C 0.86436 0.51862 -0.25102
 C395 C 0.88154 0.51852 -0.22064
 C396 C 0.90205 0.51838 -0.18689
 C397 C 0.91987 0.51823 -0.15958
 H398 H 0.86336 0.56104 -0.29428
 H399 H 0.82085 0.47634 -0.29404
 H400 H 0.78835 0.47626 -0.36551
 H401 H 0.83102 0.56129 -0.36577
 C402 C 0.45778 0.30465 -0.30916
 C403 C 0.48159 0.32593 -0.28913
 C404 C 0.50537 0.32833 -0.30903
 C405 C 0.50536 0.30982 -0.34981
 C406 C 0.48152 0.28867 -0.37135
 C407 C 0.45771 0.28611 -0.34994
 C408 C 0.48165 0.34606 -0.25098
 C409 C 0.48173 0.36333 -0.22063
 C410 C 0.48185 0.38398 -0.18692
 C411 C 0.48198 0.40195 -0.15964
 H412 H 0.43926 0.30267 -0.29420
 H413 H 0.52391 0.34479 -0.29398
 H414 H 0.52401 0.31237 -0.36540
 H415 H 0.43903 0.27007 -0.36563
 C416 C 0.67174 0.17703 -0.30875
 C417 C 0.67416 0.15565 -0.28876
 C418 C 0.69545 0.15312 -0.30875
 C419 C 0.71398 0.17159 -0.34956
 C420 C 0.71140 0.19283 -0.37105
 C421 C 0.69024 0.19553 -0.34956
 C422 C 0.65405 0.13558 -0.25058
 C423 C 0.63679 0.11840 -0.22020
 C424 C 0.61616 0.09788 -0.18645
 C425 C 0.59820 0.08004 -0.15914
 H426 H 0.65528 0.17912 -0.29373
 H427 H 0.69745 0.13659 -0.29372
 H428 H 0.73002 0.16894 -0.36522
 H429 H 0.68768 0.21163 -0.36521
 C430 C 1.15288 0.45772 -0.30963
 C431 C 1.15542 0.48155 -0.28964
 C432 C 1.17679 0.50533 -0.30955
 C433 C 1.19530 0.50531 -0.35028
 C434 C 1.19261 0.48145 -0.37176
 C435 C 1.17136 0.45764 -0.35036
 C436 C 1.13536 0.48163 -0.25149
 C437 C 1.11819 0.48173 -0.22110
 C438 C 1.09770 0.48188 -0.18730
 C439 C 1.07990 0.48204 -0.15994
 H440 H 1.13635 0.43920 -0.29467
 H441 H 1.17889 0.52389 -0.29453
 H442 H 1.21142 0.52397 -0.36585
 H443 H 1.16872 0.43894 -0.36601
 C444 C 0.54226 0.69514 -0.31230
 C445 C 0.51845 0.67389 -0.29222
 C446 C 0.49470 0.67145 -0.31235
 C447 C 0.49470 0.68988 -0.35343
 C448 C 0.51856 0.71107 -0.37529
 C449 C 0.54236 0.71363 -0.35338
 C450 C 0.51838 0.65384 -0.25365
 C451 C 0.51828 0.63663 -0.22292
 C452 C 0.51811 0.61604 -0.18874
 C453 C 0.51793 0.59812 -0.16108
 H454 H 0.56076 0.69716 -0.29709
 H455 H 0.47615 0.65502 -0.29718
 H456 H 0.47596 0.68719 -0.36886
 H457 H 0.56114 0.72963 -0.36878
 C458 C 0.30486 -0.15300 -0.30937
 C459 C 0.32612 -0.15559 -0.28934
 C460 C 0.32847 -0.17701 -0.30919
 C461 C 0.30992 -0.19551 -0.34991
 C462 C 0.28879 -0.19277 -0.37142
 C463 C 0.28628 -0.17148 -0.35008
 C464 C 0.34626 -0.13554 -0.25120
 C465 C 0.36353 -0.11838 -0.22081
 C466 C 0.38417 -0.09789 -0.18702
 C467 C 0.40213 -0.08009 -0.15964
 H468 H 0.30291 -0.13644 -0.29444
 H469 H 0.34491 -0.17915 -0.29414
 H470 H 0.31243 -0.21166 -0.36544
 H471 H 0.27026 -0.16879 -0.36576
 C472 C 0.54237 -0.15318 0.30994
 C473 C 0.51855 -0.15573 0.28979
 C474 C 0.49478 -0.17712 0.30966
 C475 C 0.49479 -0.19563 0.35048
 C476 C 0.51862 -0.19293 0.37209
 C477 C 0.54243 -0.17167 0.35076
 C478 C 0.51849 -0.13568 0.25150
 C479 C 0.51840 -0.11852 0.22098
 C480 C 0.51825 -0.09804 0.18705
 C481 C 0.51809 -0.08024 0.15958
 H482 H 0.56088 -0.13664 0.29501
 H483 H 0.47623 -0.17922 0.29452
 H484 H 0.47613 -0.21176 0.36600
 H485 H 0.56111 -0.16902 0.36651
 C486 C 0.32865 0.50528 0.31014
 C487 C 0.32624 0.48150 0.29019
 C488 C 0.30505 0.45767 0.31050
 C489 C 0.28658 0.45760 0.35154
 C490 C 0.28914 0.48141 0.37294
 C491 C 0.31022 0.50527 0.35118
 C492 C 0.34627 0.48157 0.25164
 C493 C 0.36346 0.48168 0.22092
 C494 C 0.38403 0.48186 0.18676
 C495 C 0.40195 0.48205 0.15913
 H496 H 0.34504 0.52384 0.29488
 H497 H 0.30306 0.43914 0.29551
 H498 H 0.27060 0.43890 0.36740
 H499 H 0.31276 0.52393 0.36675
 C500 C 1.17642 0.67121 0.31059
 C501 C 1.15510 0.67369 0.29056
 C502 C 1.15254 0.69494 0.31080
 C503 C 1.17094 0.71339 0.35184
 C504 C 1.19214 0.71075 0.37331
 C505 C 1.19485 0.68962 0.35163
 C506 C 1.13513 0.65368 0.25201
 C507 C 1.11803 0.63651 0.22128
 C508 C 1.09763 0.61596 0.18712
 C509 C 1.07988 0.59805 0.15949
 H510 H 1.17854 0.65477 0.29538
 H511 H 1.13604 0.69698 0.29575
 H512 H 1.16828 0.72941 0.36764
 H513 H 1.21094 0.68703 0.36725
 C514 C 0.45777 0.15262 0.31046
 C515 C 0.48158 0.15520 0.29024
 C516 C 0.50535 0.17654 0.31025
 C517 C 0.50534 0.19497 0.35128
 C518 C 0.48151 0.19223 0.37297
 C519 C 0.45770 0.17102 0.35150
 C520 C 0.48164 0.13522 0.25175
 C521 C 0.48173 0.11811 0.22110
 C522 C 0.48188 0.09767 0.18704
 C523 C 0.48205 0.07990 0.15951
 H524 H 0.43925 0.13611 0.29542
 H525 H 0.52390 0.17867 0.29505
 H526 H 0.52400 0.21106 0.36691
 H527 H 0.43902 0.16834 0.36730
 C528 C 0.67134 0.49503 0.30968
 C529 C 0.67378 0.51882 0.28964
 C530 C 0.69498 0.54264 0.30991
 C531 C 0.71342 0.54269 0.35104
 C532 C 0.71083 0.51887 0.37254
 C533 C 0.68975 0.49502 0.35080
 C534 C 0.65376 0.51876 0.25107
 C535 C 0.63657 0.51867 0.22036
 C536 C 0.61599 0.51851 0.18625
 C537 C 0.59805 0.51833 0.15869
 H538 H 0.65494 0.47647 0.29444
 H539 H 0.69698 0.56117 0.29486
 H540 H 0.72940 0.56138 0.36688
 H541 H 0.68719 0.47635 0.36644
 C542 C 0.84731 0.30503 0.31038
 C543 C 0.84470 0.32624 0.29005
 C544 C 0.82335 0.32868 0.31004
 C545 C 0.80495 0.31027 0.35115
 C546 C 0.80772 0.28918 0.37295
 C547 C 0.82894 0.28658 0.35150
 C548 C 0.86465 0.34627 0.25149
 C549 C 0.88174 0.36347 0.22079
 C550 C 0.90215 0.38405 0.18668
 C551 C 0.91991 0.40198 0.15911
 H552 H 0.86382 0.30302 0.29537
 H553 H 0.82120 0.34510 0.29475
 H554 H 0.78886 0.31284 0.36675
 H555 H 0.83164 0.27058 0.36739
   
