data_POSCAR
  _audit_creation_date              2014-09-24
  _audit_creation_method            'ToBaCCo'
  _symmetry_space_group_name_H-M    'P1'
  _symmetry_Int_Tables_number       1
  _symmetry_cell_setting            triclinic
  loop_
  _symmetry_equiv_pos_as_xyz
 x,y,z
_cell_length_a 38.3245
_cell_length_b 37.7534
_cell_length_c 8.7247
_cell_angle_alpha 89.225000
_cell_angle_beta 89.998400
_cell_angle_gamma 89.999300
loop_
  _atom_site_label
  _atom_site_type_symbol
  _atom_site_fract_x
  _atom_site_fract_y
  _atom_site_fract_z
O1 O 0.21167 0.21385 0.34336
 O2 O 0.27760 0.28259 0.40775
 O3 O 0.21130 0.28264 0.33712
 O4 O 0.27866 0.21391 0.39707
 O5 O 0.28957 0.21510 0.14917
 O6 O 0.22315 0.28394 0.08981
 O7 O 0.28943 0.28381 0.16042
 O8 O 0.22258 0.21517 0.09521
 Cu9 Cu 0.24359 0.24813 0.39567
 Cu10 Cu 0.25741 0.24966 0.09932
 C11 C 0.20549 0.20293 0.20917
 C12 C 0.29516 0.29471 0.29543
 C13 C 0.20549 0.29480 0.20287
 C14 C 0.29592 0.20287 0.28255
 O15 O 0.71179 0.28639 0.15576
 O16 O 0.77772 0.21764 0.09134
 O17 O 0.71142 0.21760 0.16200
 O18 O 0.77878 0.28633 0.10206
 O19 O 0.78968 0.28514 0.34997
 O20 O 0.72327 0.21629 0.40932
 O21 O 0.78955 0.21642 0.33867
 O22 O 0.72269 0.28505 0.40392
 Cu23 Cu 0.74371 0.25210 0.10345
 Cu24 Cu 0.75753 0.25057 0.39980
 C25 C 0.70560 0.29729 0.28996
 C26 C 0.79528 0.20552 0.20366
 C27 C 0.70561 0.20544 0.29626
 C28 C 0.79603 0.29737 0.21660
 O29 O 0.77746 0.78250 0.90921
 O30 O 0.71154 0.71375 0.84484
 O31 O 0.77856 0.71382 0.89841
 O32 O 0.71119 0.78254 0.83856
 O33 O 0.72302 0.78386 0.59123
 O34 O 0.78945 0.71501 0.65048
 O35 O 0.72242 0.71510 0.59667
 O36 O 0.78927 0.78373 0.66186
 Cu37 Cu 0.74347 0.74803 0.89709
 Cu38 Cu 0.75727 0.74957 0.60073
 C39 C 0.79500 0.79464 0.79686
 C40 C 0.70533 0.70287 0.71064
 C41 C 0.79582 0.70280 0.78386
 C42 C 0.70538 0.79472 0.70432
 O43 O 0.21062 0.78507 0.65610
 O44 O 0.27662 0.71636 0.59206
 O45 O 0.21028 0.71630 0.66278
 O46 O 0.27753 0.78507 0.60188
 O47 O 0.28854 0.78396 0.84996
 O48 O 0.22212 0.71511 0.90986
 O49 O 0.28845 0.71523 0.83938
 O50 O 0.22160 0.78387 0.90420
 Cu51 Cu 0.24254 0.75078 0.60385
 Cu52 Cu 0.25641 0.74938 0.90019
 C53 C 0.20449 0.79607 0.79021
 C54 C 0.29421 0.70432 0.70443
 C55 C 0.20435 0.70418 0.79712
 C56 C 0.29470 0.79614 0.71645
 C57 C 0.99979 0.09268 0.08730
 C58 C 1.03109 0.07397 0.08165
 C59 C 1.03094 0.03763 0.05181
 C60 C 0.99946 0.01956 0.01823
 C61 C 0.96812 0.03954 0.02099
 C62 C 0.96831 0.07546 0.05930
 C63 C 0.99938 -0.01950 -0.01866
 C64 C 0.96796 -0.03935 -0.02120
 C65 C 0.96799 -0.07527 -0.05947
 C66 C 0.99939 -0.09263 -0.08764
 C67 C 1.03077 -0.07404 -0.08221
 C68 C 1.03077 -0.03770 -0.05243
 H69 H 0.99992 0.12066 0.11419
 H70 H 1.05571 0.02412 0.05671
 H71 H 0.94323 0.02793 -0.00640
 H72 H 0.94311 -0.02764 0.00634
 H73 H 0.99940 -0.12061 -0.11449
 H74 H 1.05559 -0.02429 -0.05750
 C75 C 0.49942 0.59262 0.58858
 C76 C 0.53080 0.57403 0.58281
 C77 C 0.53079 0.53770 0.55268
 C78 C 0.49939 0.51952 0.51884
 C79 C 0.46797 0.53937 0.52171
 C80 C 0.46801 0.57527 0.56036
 C81 C 0.49946 0.48048 0.48155
 C82 C 0.46812 0.46052 0.47860
 C83 C 0.46830 0.42462 0.43997
 C84 C 0.49978 0.40739 0.41185
 C85 C 0.53108 0.42610 0.41766
 C86 C 0.53093 0.46242 0.44779
 H87 H 0.49944 0.62058 0.61572
 H88 H 0.55561 0.52429 0.55751
 H89 H 0.44312 0.52768 0.49415
 H90 H 0.44322 0.47211 0.50610
 H91 H 0.49990 0.37943 0.38475
 H92 H 0.55571 0.47593 0.44299
 C93 C 0.00012 0.40746 0.09525
 C94 C -0.03120 0.42619 0.08948
 C95 C -0.03112 0.46260 0.05687
 C96 C 0.00028 0.48069 0.02027
 C97 C 0.03161 0.46072 0.02296
 C98 C 0.03152 0.42474 0.06436
 C99 C 0.00029 0.51977 -0.01989
 C100 C 0.03165 0.53971 -0.02274
 C101 C 0.03159 0.57568 -0.06419
 C102 C 0.00019 0.59299 -0.09503
 C103 C -0.03114 0.57429 -0.08912
 C104 C -0.03109 0.53789 -0.05641
 H105 H 0.00005 0.37942 0.12419
 H106 H -0.05585 0.47616 0.06180
 H107 H 0.05641 0.47240 -0.00707
 H108 H 0.05645 0.52800 0.00718
 H109 H 0.00015 0.62103 -0.12404
 H110 H -0.05583 0.52436 -0.06123
 C111 C 0.50014 0.90752 0.59642
 C112 C 0.46882 0.92622 0.59033
 C113 C 0.46888 0.96261 0.55738
 C114 C 0.50027 0.98071 0.52078
 C115 C 0.53163 0.96077 0.52386
 C116 C 0.53155 0.92481 0.56555
 C117 C 0.50027 1.01977 0.48016
 C118 C 0.53161 1.03973 0.47721
 C119 C 0.53153 1.07568 0.43537
 C120 C 0.50013 1.09295 0.40425
 C121 C 0.46881 1.07423 0.41024
 C122 C 0.46888 1.03785 0.44331
 H123 H 0.50009 0.87948 0.62552
 H124 H 0.44414 0.97615 0.56200
 H125 H 0.55643 0.97245 0.49387
 H126 H 0.55641 1.02806 0.50738
 H127 H 0.50007 1.12098 0.37498
 H128 H 0.44414 1.02429 0.43855
 C129 C 1.12079 0.13026 0.14401
 C130 C 1.13938 0.14332 0.01711
 C131 C 1.16763 0.16625 0.03795
 C132 C 1.17750 0.17650 0.18622
 C133 C 1.15914 0.16251 0.31307
 C134 C 1.13099 0.13959 0.29194
 C135 C 1.08997 0.10914 0.12256
 C136 C 1.06346 0.09251 0.10473
 H137 H 1.13159 0.13638 -0.09803
 H138 H 1.18118 0.17659 -0.06197
 H139 H 1.16607 0.16980 0.42876
 H140 H 1.11671 0.12976 0.39090
 C141 C 0.62044 0.63042 0.64543
 C142 C 0.63905 0.64344 0.51854
 C143 C 0.66736 0.66630 0.53940
 C144 C 0.67727 0.67649 0.68768
 C145 C 0.65889 0.66253 0.81452
 C146 C 0.63067 0.63970 0.79337
 C147 C 0.58960 0.60932 0.62395
 C148 C 0.56311 0.59267 0.60604
 H149 H 0.63124 0.63653 0.40340
 H150 H 0.68093 0.67661 0.43948
 H151 H 0.66585 0.66979 0.93022
 H152 H 0.61638 0.62988 0.89234
 C153 C -0.12070 0.36945 0.15496
 C154 C -0.14038 0.35875 0.02863
 C155 C -0.16854 0.33557 0.04883
 C156 C -0.17729 0.32255 0.19617
 C157 C -0.15776 0.33435 0.32280
 C158 C -0.12970 0.35752 0.30204
 C159 C -0.08996 0.39079 0.13308
 C160 C -0.06351 0.40755 0.11430
 H161 H -0.13352 0.36775 -0.08591
 H162 H -0.18289 0.32728 -0.05148
 H163 H -0.16361 0.32517 0.43814
 H164 H -0.11456 0.36555 0.40055
 C165 C 0.37930 0.86944 0.65434
 C166 C 0.36044 0.85777 0.52715
 C167 C 0.33227 0.83460 0.54713
 C168 C 0.32273 0.82273 0.69483
 C169 C 0.34136 0.83531 0.82210
 C170 C 0.36946 0.85846 0.80181
 C171 C 0.41006 0.89078 0.63321
 C172 C 0.43651 0.90756 0.61486
 H173 H 0.36797 0.86598 0.41235
 H174 H 0.31849 0.82539 0.44691
 H175 H 0.33468 0.82673 0.93735
 H176 H 0.38396 0.86721 0.90096
 C177 C -0.12071 0.63096 -0.15451
 C178 C -0.12975 0.64284 -0.30158
 C179 C -0.15788 0.66593 -0.32235
 C180 C -0.17744 0.67768 -0.19571
 C181 C -0.16864 0.66470 -0.04837
 C182 C -0.14041 0.64160 -0.02816
 C183 C -0.08992 0.60968 -0.13267
 C184 C -0.06345 0.59295 -0.11393
 H185 H -0.11460 0.63484 -0.40011
 H186 H -0.16377 0.67507 -0.43769
 H187 H -0.18300 0.67296 0.05195
 H188 H -0.13352 0.63263 0.08638
 C189 C 0.37927 1.13090 0.34439
 C190 C 0.35956 1.14158 0.47067
 C191 C 0.33137 1.16472 0.45040
 C192 C 0.32262 1.17772 0.30304
 C193 C 0.34219 1.16595 0.17645
 C194 C 0.37027 1.14281 0.19729
 C195 C 0.41003 1.10960 0.36634
 C196 C 0.43650 1.09286 0.38523
 H197 H 0.36641 1.13259 0.58523
 H198 H 0.31700 1.17299 0.55067
 H199 H 0.33633 1.17511 0.06110
 H200 H 0.38543 1.13480 0.09881
 C201 C 1.12013 -0.13084 -0.14485
 C202 C 1.13875 -0.14386 -0.01796
 C203 C 1.16686 -0.16696 -0.03876
 C204 C 1.17657 -0.17741 -0.18696
 C205 C 1.15818 -0.16347 -0.31381
 C206 C 1.13016 -0.14040 -0.29272
 C207 C 1.08945 -0.10952 -0.12335
 C208 C 1.06304 -0.09274 -0.10542
 H209 H 1.13108 -0.13676 0.09713
 H210 H 1.18045 -0.17725 0.06116
 H211 H 1.16499 -0.17092 -0.42945
 H212 H 1.11585 -0.13059 -0.39168
 C213 C 0.62081 0.36986 0.35515
 C214 C 0.63941 0.35681 0.48205
 C215 C 0.66768 0.33392 0.46120
 C216 C 0.67758 0.32370 0.31292
 C217 C 0.65922 0.33768 0.18607
 C218 C 0.63104 0.36056 0.20721
 C219 C 0.58997 0.39095 0.37661
 C220 C 0.56345 0.40756 0.39450
 H221 H 0.63160 0.36373 0.59718
 H222 H 0.68124 0.32358 0.56112
 H223 H 0.66617 0.33041 0.07037
 H224 H 0.61676 0.37039 0.10824
 C225 C 0.87912 -0.13284 -0.12200
 C226 C 0.87086 -0.14271 -0.27175
 C227 C 0.84295 -0.16563 -0.29873
 C228 C 0.82292 -0.17906 -0.17594
 C229 C 0.83093 -0.16833 -0.02600
 C230 C 0.85890 -0.14542 0.00067
 C231 C 0.90951 -0.11146 -0.09451
 C232 C 0.93575 -0.09446 -0.07558
 H233 H 0.88643 -0.13323 -0.36752
 H234 H 0.83749 -0.17335 -0.41540
 H235 H 0.81606 -0.17821 0.07108
 H236 H 0.86515 -0.13807 0.11711
 C237 C 0.37947 0.36698 0.37680
 C238 C 0.35919 0.35448 0.49940
 C239 C 0.33116 0.33165 0.47264
 C240 C 0.32314 0.32094 0.32269
 C241 C 0.34324 0.33429 0.19996
 C242 C 0.37122 0.35712 0.22703
 C243 C 0.40989 0.38833 0.40440
 C244 C 0.43612 0.40534 0.42351
 H245 H 0.36543 0.36183 0.61585
 H246 H 0.31624 0.32183 0.56967
 H247 H 0.33779 0.32658 0.08328
 H248 H 0.38683 0.36656 0.13131
 C249 C 0.12075 0.63321 -0.12615
 C250 C 0.14155 0.64389 -0.00352
 C251 C 0.16978 0.66667 -0.02916
 C252 C 0.17754 0.67932 -0.17834
 C253 C 0.15686 0.66758 -0.30132
 C254 C 0.12869 0.64478 -0.27511
 C255 C 0.09016 0.61192 -0.09917
 C256 C 0.06383 0.59494 -0.08039
 H257 H 0.13557 0.63514 0.11232
 H258 H 0.18502 0.67492 0.06865
 H259 H 0.16193 0.67651 -0.41773
 H260 H 0.11269 0.63670 -0.37088
 C261 C 0.62065 1.13328 0.37378
 C262 C 0.64117 1.14430 0.49684
 C263 C 0.66942 1.16707 0.47122
 C264 C 0.67741 1.17921 0.32196
 C265 C 0.65706 1.16734 0.19867
 C266 C 0.62887 1.14455 0.22460
 C267 C 0.59007 1.11196 0.40051
 C268 C 0.56375 1.09497 0.41920
 H269 H 0.63497 1.13583 0.61283
 H270 H 0.68453 1.17574 0.56867
 H271 H 0.66250 1.17618 0.08250
 H272 H 0.61307 1.13626 0.12854
 C273 C 0.12060 0.36706 0.12549
 C274 C 0.14109 0.35600 0.00237
 C275 C 0.16931 0.33319 0.02794
 C276 C 0.17731 0.32105 0.17719
 C277 C 0.15700 0.33296 0.30053
 C278 C 0.12883 0.35578 0.27466
 C279 C 0.09004 0.38841 0.09886
 C280 C 0.06374 0.40543 0.08032
 H281 H 0.13488 0.36446 -0.11361
 H282 H 0.18440 0.32450 -0.06954
 H283 H 0.16244 0.32412 0.41670
 H284 H 0.11306 0.36411 0.37075
 C285 C 0.62059 0.86710 0.62702
 C286 C 0.64108 0.85604 0.50391
 C287 C 0.66927 0.83318 0.52946
 C288 C 0.67723 0.82100 0.67869
 C289 C 0.65692 0.83292 0.80203
 C290 C 0.62879 0.85578 0.77617
 C291 C 0.59006 0.88848 0.60035
 C292 C 0.56376 0.90551 0.58170
 H293 H 0.63489 0.86453 0.38795
 H294 H 0.68435 0.82449 0.43198
 H295 H 0.66234 0.82405 0.91817
 H296 H 0.61301 0.86410 0.87226
 C297 C 0.87953 0.13317 0.12231
 C298 C 0.85926 0.14569 -0.00029
 C299 C 0.83125 0.16855 0.02646
 C300 C 0.82325 0.17927 0.17640
 C301 C 0.84333 0.16590 0.29914
 C302 C 0.87128 0.14303 0.27208
 C303 C 0.90992 0.11179 0.09472
 C304 C 0.93614 0.09475 0.07565
 H305 H 0.86550 0.13834 -0.11674
 H306 H 0.81634 0.17839 -0.07058
 H307 H 0.83788 0.17362 0.41581
 H308 H 0.88688 0.13359 0.36781
 C309 C 0.37888 0.63245 0.62331
 C310 C 0.35854 0.64484 0.50067
 C311 C 0.33038 0.66750 0.52735
 C312 C 0.32229 0.67817 0.67727
 C313 C 0.34243 0.66492 0.80006
 C314 C 0.37053 0.64225 0.77307
 C315 C 0.40943 0.61128 0.59580
 C316 C 0.43575 0.59441 0.57675
 H317 H 0.36485 0.63753 0.38423
 H318 H 0.31543 0.67725 0.43027
 H319 H 0.33691 0.67261 0.91672
 H320 H 0.38618 0.63290 0.86884
   
