data_POSCAR
  _audit_creation_date              2014-09-24
  _audit_creation_method            'ToBaCCo'
  _symmetry_space_group_name_H-M    'P1'
  _symmetry_Int_Tables_number       1
  _symmetry_cell_setting            triclinic
  loop_
  _symmetry_equiv_pos_as_xyz
 x,y,z
_cell_length_a 25.1063
_cell_length_b 25.0832
_cell_length_c 25.1180
_cell_angle_alpha 89.915700
_cell_angle_beta 89.997600
_cell_angle_gamma 89.957200
loop_
  _atom_site_label
  _atom_site_type_symbol
  _atom_site_fract_x
  _atom_site_fract_y
  _atom_site_fract_z
N1 N 0.17349 0.17361 0.17423
 N2 N -0.17521 0.82505 0.17490
 N3 N -0.17080 0.17403 -0.17512
 N4 N 0.18115 0.82235 -0.17666
 N5 N 0.17520 1.17567 0.82356
 N6 N 0.81057 0.80799 0.80987
 N7 N 0.17980 0.82501 1.17744
 N8 N 0.80916 1.19196 1.19152
 N9 N 0.55717 1.09862 0.94096
 N10 N 0.60015 1.12869 0.93832
 N11 N 0.44639 1.05933 0.90268
 N12 N 0.40362 1.06145 0.87224
 N13 N 0.44485 1.09670 0.93916
 N14 N 0.40095 1.12537 0.93439
 N15 N 0.55868 1.06112 0.90460
 N16 N 0.60271 1.06483 0.87610
 C17 C 0.62801 1.10739 0.89745
 C18 C 0.37580 1.10304 0.89226
 N19 N 0.44731 0.90859 0.94155
 N20 N 0.40478 0.87802 0.93649
 N21 N 0.55989 0.94647 0.90593
 N22 N 0.60095 0.94059 0.87380
 N23 N 0.55983 0.90942 0.94290
 N24 N 0.60120 0.87731 0.93689
 N25 N 0.44814 0.94517 0.90410
 N26 N 0.40634 0.94055 0.87271
 Mn27 Mn 0.50337 1.00305 0.90371
 C28 C 0.37979 0.89835 0.89312
 C29 C 0.62645 0.89734 0.89350
 N30 N 0.44360 1.09812 1.05369
 N31 N 0.40010 1.12746 1.05660
 N32 N 0.55636 1.06345 1.09231
 N33 N 0.59799 1.06973 1.12381
 N34 N 0.55575 1.10015 1.05503
 N35 N 0.59698 1.13233 1.06006
 N36 N 0.44403 1.06188 1.09145
 N37 N 0.40072 1.06561 1.12107
 Mn38 Mn 0.50026 1.09908 0.99718
 C39 C 0.37386 1.10692 1.09898
 C40 C 0.62289 1.11297 1.10324
 N41 N 0.55826 0.91091 1.05768
 N42 N 0.60106 0.88078 1.06304
 N43 N 0.44598 0.94757 1.09324
 N44 N 0.40395 0.94341 1.12438
 N45 N 0.44585 0.91007 1.05682
 N46 N 0.40346 0.87929 1.06236
 N47 N 0.55778 0.94873 1.09380
 N48 N 0.60014 0.94532 1.12466
 Mn49 Mn 0.50274 0.90890 0.99977
 Mn50 Mn 0.50112 1.00540 1.09336
 Cl51 Cl 0.50187 1.00403 0.99852
 C52 C 0.62661 0.90258 1.10519
 C53 C 0.37788 0.90054 1.10493
 N54 N -0.09154 0.44292 0.05879
 N55 N -0.12233 0.40073 0.06526
 N56 N -0.05721 0.55752 0.09378
 N57 N -0.06282 0.60100 0.12279
 N58 N -0.09421 0.55524 0.05690
 N59 N -0.12574 0.59726 0.05960
 N60 N -0.05558 0.44530 0.09666
 N61 N -0.06069 0.40467 0.12967
 C62 C -0.10252 0.37725 0.10969
 C63 C -0.10592 0.62525 0.10110
 N64 N 0.09598 0.55674 0.05903
 N65 N 0.12741 0.59863 0.06256
 N66 N 0.05824 0.44618 0.09784
 N67 N 0.06050 0.40318 0.12804
 N68 N 0.09515 0.44460 0.06086
 N69 N 0.12374 0.40061 0.06516
 N70 N 0.05825 0.55871 0.09514
 N71 N 0.06326 0.60212 0.12450
 Mn72 Mn 0.00093 0.50222 0.09658
 C73 C 0.10679 0.62650 0.10368
 C74 C 0.10179 0.37535 0.10748
 N75 N -0.09291 0.55412 -0.05693
 N76 N -0.12571 0.59485 -0.06213
 N77 N -0.05310 0.44368 -0.09359
 N78 N -0.05567 0.40125 -0.12441
 N79 N -0.08997 0.44181 -0.05655
 N80 N -0.11885 0.39808 -0.06145
 N81 N -0.05515 0.55610 -0.09305
 N82 N -0.06155 0.59827 -0.12407
 Mn83 Mn -0.09285 0.49824 0.00053
 C84 C -0.10587 0.62202 -0.10420
 C85 C -0.09702 0.37331 -0.10415
 N86 N 0.09659 0.44383 -0.05391
 N87 N 0.12650 0.40074 -0.05721
 N88 N 0.06033 0.55701 -0.09153
 N89 N 0.06570 0.59995 -0.12156
 N90 N 0.09723 0.55578 -0.05451
 N91 N 0.12847 0.59782 -0.05813
 N92 N 0.06085 0.44455 -0.09206
 N93 N 0.06543 0.40173 -0.12225
 Mn94 Mn 0.09685 0.50001 0.00288
 Mn95 Mn 0.00323 0.50061 -0.09333
 Cl96 Cl 0.00199 0.50030 0.00166
 C97 C 0.10678 0.37498 -0.10017
 C98 C 0.10857 0.62486 -0.10024
 N99 N 0.90673 -0.06143 0.44390
 N100 N 0.87729 -0.06591 0.40060
 N101 N 0.94377 -0.09722 0.55614
 N102 N 0.93905 -0.12913 0.59757
 N103 N 0.90627 -0.06076 0.55632
 N104 N 0.87485 -0.06700 0.59811
 N105 N 0.94451 -0.09762 0.44429
 N106 N 0.94178 -0.12773 0.40140
 C107 C 0.89947 -0.10769 0.37469
 C108 C 0.89587 -0.10996 0.62338
 N109 N 1.09411 -0.05833 0.55796
 N110 N 1.12453 -0.06333 0.60059
 N111 N 1.05877 -0.09620 0.44552
 N112 N 1.06282 -0.12638 0.40285
 N113 N 1.09575 -0.05924 0.44563
 N114 N 1.12599 -0.06334 0.40276
 N115 N 1.05760 -0.09574 0.55714
 N116 N 1.06198 -0.12703 0.59908
 Mn117 Mn 1.00118 -0.09725 0.50071
 C118 C 1.10400 -0.10655 0.62570
 C119 C 1.10505 -0.10567 0.37666
 N120 N 0.90478 0.05415 0.55474
 N121 N 0.87528 0.05731 0.59806
 N122 N 0.94160 0.09031 0.44177
 N123 N 0.93480 0.12198 0.40025
 N124 N 0.90494 0.05301 0.44267
 N125 N 0.87233 0.05822 0.40179
 N126 N 0.94089 0.09201 0.55417
 N127 N 0.93684 0.12192 0.59724
 Mn128 Mn 0.90496 -0.00374 0.49949
 C129 C 0.89546 0.09999 0.62402
 C130 C 0.89138 0.10143 0.37568
 N131 N 1.09439 0.05519 0.44442
 N132 N 1.12516 0.05833 0.40199
 N133 N 1.05534 0.09367 0.55497
 N134 N 1.05845 0.12514 0.59691
 N135 N 1.09263 0.05695 0.55663
 N136 N 1.12220 0.06263 0.59975
 N137 N 1.05678 0.09158 0.44267
 N138 N 1.06118 0.12059 0.39894
 Mn139 Mn 1.09499 -0.00130 0.50131
 Mn140 Mn 0.99866 0.09265 0.49825
 Cl141 Cl 0.99996 -0.00234 0.49995
 C142 C 1.10425 0.09948 0.37412
 C143 C 1.10053 0.10555 0.62434
 C144 C 1.15834 0.15189 0.22819
 C145 C 1.16405 0.19260 0.27391
 C146 C 1.14569 0.17512 0.32174
 C147 C 1.12458 0.11787 0.32090
 C148 C 1.08203 0.11673 0.27724
 C149 C 1.09981 0.13345 0.22891
 C150 C 1.18822 0.10184 0.24969
 C151 C 1.17064 0.08464 0.29808
 H152 H 1.18260 0.23137 0.26948
 H153 H 1.14814 0.19918 0.35755
 H154 H 1.04201 0.10163 0.28323
 H155 H 1.07476 0.13272 0.19369
 H156 H 1.22085 0.08118 0.23086
 H157 H 1.18804 0.05034 0.31796
 C158 C 0.84675 -0.15997 0.22869
 C159 C 0.80610 -0.16600 0.27441
 C160 C 0.82372 -0.14831 0.32235
 C161 C 0.88096 -0.12729 0.32146
 C162 C 0.91407 -0.17313 0.29817
 C163 C 0.89682 -0.19010 0.24971
 C164 C 0.86532 -0.10143 0.22976
 C165 C 0.88202 -0.08412 0.27823
 H166 H 0.76717 -0.18412 0.26979
 H167 H 0.79969 -0.15093 0.35819
 H168 H 0.94846 -0.19069 0.31768
 H169 H 0.91781 -0.22217 0.23028
 H170 H 0.86588 -0.07598 0.19477
 H171 H 0.89665 -0.04391 0.28466
 C172 C 0.84418 0.15267 0.77074
 C173 C 0.81414 0.10264 0.74967
 C174 C 0.83092 0.08557 0.70113
 C175 C 0.87646 0.11879 0.67754
 C176 C 0.85532 0.17610 0.67698
 C177 C 0.83791 0.19359 0.72517
 C178 C 0.90279 0.13432 0.76914
 C179 C 0.91986 0.11772 0.72047
 H180 H 0.78182 0.08182 0.76880
 H181 H 0.81312 0.05136 0.68160
 H182 H 0.85257 0.20034 0.64125
 H183 H 0.81992 0.23259 0.73005
 H184 H 0.92851 0.13392 0.80388
 H185 H 0.96011 0.10338 0.71367
 C186 C 1.15880 -0.16198 0.76992
 C187 C 1.14019 -0.10348 0.77006
 C188 C 1.12275 -0.08534 0.72217
 C189 C 1.12355 -0.12742 0.67815
 C190 C 1.18085 -0.14836 0.67624
 C191 C 1.19898 -0.16719 0.72369
 C192 C 1.10867 -0.19185 0.74883
 C193 C 1.09085 -0.17384 0.70092
 H194 H 1.13963 -0.07883 0.80554
 H195 H 1.10700 -0.04553 0.71683
 H196 H 1.20444 -0.15031 0.64007
 H197 H 1.23788 -0.18561 0.72763
 H198 H 1.08833 -0.22481 0.76749
 H199 H 1.05651 -0.19129 0.68132
 C200 C 0.22748 1.15851 1.15244
 C201 C 0.22887 1.09985 1.13421
 C202 C 0.27742 1.08266 1.11728
 C203 C 0.32044 1.12601 1.11794
 C204 C 0.29672 1.17163 1.08483
 C205 C 0.24831 1.18854 1.10222
 C206 C 0.27333 1.16470 1.19291
 C207 C 0.32138 1.14717 1.17512
 H208 H 0.19406 1.07420 1.13410
 H209 H 0.28408 1.04238 1.10294
 H210 H 0.31608 1.18936 1.05046
 H211 H 0.22916 1.22096 1.08150
 H212 H 0.26873 1.18273 1.23186
 H213 H 0.35729 1.14987 1.19904
 C214 C 0.23481 0.84427 0.83875
 C215 C 0.25631 0.89395 0.80830
 C216 C 0.30449 0.91145 0.82586
 C217 C 0.32707 0.87900 0.87258
 C218 C 0.28304 0.88071 0.91469
 C219 C 0.23493 0.86349 0.89693
 C220 C 0.28067 0.80351 0.83405
 C221 C 0.32836 0.82140 0.85244
 H222 H 0.23740 0.91450 0.77561
 H223 H 0.32427 0.94559 0.80811
 H224 H 0.28855 0.89702 0.95417
 H225 H 0.19944 0.86477 0.92160
 H226 H 0.27632 0.76437 0.81630
 H227 H 0.36430 0.79737 0.85078
 C228 C 0.77126 0.84753 1.15954
 C229 C 0.72495 0.80748 1.16511
 C230 C 0.67739 0.82583 1.14677
 C231 C 0.67928 0.88317 1.12572
 C232 C 0.70245 0.91588 1.17178
 C233 C 0.75045 0.89782 1.18945
 C234 C 0.77103 0.86605 1.10105
 C235 C 0.72304 0.88368 1.08325
 H236 H 0.72887 0.76849 1.18342
 H237 H 0.64117 0.80233 1.14904
 H238 H 0.68290 0.95018 1.18943
 H239 H 0.76914 0.91783 1.22249
 H240 H 0.80631 0.86617 1.07606
 H241 H 0.71737 0.89899 1.04325
 C242 C 0.77501 1.15921 0.84632
 C243 C 0.72958 1.16578 0.80537
 C244 C 0.68138 1.14813 0.82246
 C245 C 0.68164 1.12672 0.87956
 C246 C 0.72466 1.08334 0.88081
 C247 C 0.77341 1.10055 0.86461
 C248 C 0.75366 1.18905 0.89636
 C249 C 0.70492 1.17221 0.91308
 H250 H 0.73450 1.18432 0.76667
 H251 H 0.64574 1.15119 0.79818
 H252 H 0.71788 1.04307 0.89519
 H253 H 0.80826 1.07491 0.86536
 H254 H 0.77306 1.22082 0.91776
 H255 H 0.68526 1.18951 0.94746
 C256 C 0.15219 0.22796 0.15950
 C257 C 0.19341 0.27319 0.16575
 C258 C 0.17652 0.32151 0.14809
 C259 C 0.11934 0.32159 0.12700
 C260 C 0.11769 0.27854 0.08380
 C261 C 0.13363 0.22965 0.10102
 C262 C 0.10236 0.24958 0.18953
 C263 C 0.08582 0.29850 0.17266
 H264 H 0.23215 0.26807 0.18413
 H265 H 0.20100 0.35705 0.15098
 H266 H 0.10320 0.28539 0.04362
 H267 H 0.13255 0.19475 0.07552
 H268 H 0.08099 0.23019 0.22137
 H269 H 0.05160 0.31841 0.19006
 C270 C -0.14904 0.22784 -0.15958
 C271 C -0.13053 0.22792 -0.10108
 C272 C -0.11395 0.27612 -0.08285
 C273 C -0.11518 0.32025 -0.12500
 C274 C -0.08194 0.29786 -0.17123
 C275 C -0.09909 0.24960 -0.18926
 C276 C -0.18976 0.27372 -0.16494
 C277 C -0.17237 0.32138 -0.14613
 H278 H -0.12971 0.19238 -0.07638
 H279 H -0.09891 0.28168 -0.04275
 H280 H -0.04773 0.31794 -0.18844
 H281 H -0.07850 0.23106 -0.22208
 H282 H -0.22847 0.26952 -0.18359
 H283 H -0.19644 0.35729 -0.14831
 C284 C 0.16504 0.76908 -0.15422
 C285 C 0.19455 0.74772 -0.10403
 C286 C 0.17618 0.69979 -0.08634
 C287 C 0.12976 0.67740 -0.11931
 C288 C 0.08788 0.72179 -0.11865
 C289 C 0.10650 0.76968 -0.13578
 C290 C 0.17009 0.72285 -0.19439
 C291 C 0.15091 0.67548 -0.17645
 H292 H 0.22726 0.76648 -0.08346
 H293 H 0.19324 0.67999 -0.05187
 H294 H 0.04768 0.71662 -0.10369
 H295 H 0.08206 0.80540 -0.13545
 H296 H 0.18864 0.72674 -0.23320
 H297 H 0.15271 0.63933 -0.20010
 C298 C -0.16034 0.77108 0.15311
 C299 C -0.19070 0.74947 0.10349
 C300 C -0.17324 0.70094 0.08634
 C301 C -0.12680 0.67832 0.11916
 C302 C -0.08445 0.72214 0.11729
 C303 C -0.10208 0.77048 0.13402
 C304 C -0.16561 0.72537 0.19400
 C305 C -0.14732 0.67750 0.17656
 H306 H -0.22323 0.76857 0.08284
 H307 H -0.19078 0.68097 0.05229
 H308 H -0.04490 0.71635 0.10109
 H309 H -0.07725 0.80586 0.13248
 H310 H -0.18387 0.72984 0.23286
 H311 H -0.14956 0.64164 0.20071
 C312 C 1.15346 0.16051 0.76967
 C313 C 1.19424 0.16547 0.72392
 C314 C 1.17658 0.14699 0.67622
 C315 C 1.11910 0.12654 0.67724
 C316 C 1.11736 0.08439 0.72131
 C317 C 1.13441 0.10219 0.76944
 C318 C 1.10380 0.19089 0.74789
 C319 C 1.08644 0.17318 0.69963
 H320 H 1.23318 0.18364 0.72824
 H321 H 1.20065 0.14898 0.64037
 H322 H 1.10078 0.04496 0.71590
 H323 H 1.13294 0.07750 0.80494
 H324 H 1.08351 0.22392 0.76643
 H325 H 1.05246 0.19089 0.67955
 C326 C 0.83513 -0.17363 0.76228
 C327 C 0.79703 -0.17540 0.71397
 C328 C 0.81698 -0.15341 0.66872
 C329 C 0.87430 -0.13340 0.67407
 C330 C 0.87403 -0.09430 0.72086
 C331 C 0.85508 -0.11552 0.76699
 C332 C 0.88574 -0.20295 0.74053
 C333 C 0.90559 -0.18176 0.69477
 H334 H 0.75783 -0.19360 0.71518
 H335 H 0.79472 -0.15264 0.63168
 H336 H 0.88976 -0.05405 0.71857
 H337 H 0.85496 -0.09328 0.80405
 H338 H 0.90548 -0.23735 0.75725
 H339 H 0.94051 -0.19827 0.67533
 C340 C 1.15812 -0.15913 0.23110
 C341 C 1.19859 -0.16549 0.27695
 C342 C 1.18109 -0.14718 0.32478
 C343 C 1.12412 -0.12534 0.32359
 C344 C 1.12379 -0.08239 0.28012
 C345 C 1.14044 -0.10025 0.23179
 C346 C 1.10765 -0.18836 0.25219
 C347 C 1.09052 -0.17083 0.30040
 H348 H 1.23733 -0.18412 0.27243
 H349 H 1.20502 -0.14981 0.36068
 H350 H 1.10987 -0.04187 0.28633
 H351 H 1.14050 -0.07495 0.19668
 H352 H 1.08636 -0.22041 0.23315
 H353 H 1.05590 -0.18792 0.31987
 C354 C 0.82729 0.16612 0.23855
 C355 C 0.79727 0.11554 0.25960
 C356 C 0.81846 0.09420 0.30479
 C357 C 0.86740 0.12417 0.32564
 C358 C 0.90605 0.12481 0.27846
 C359 C 0.88497 0.14539 0.23298
 C360 C 0.82647 0.20320 0.28762
 C361 C 0.84837 0.18180 0.33228
 H362 H 0.76220 0.09708 0.24295
 H363 H 0.80146 0.05927 0.32386
 H364 H 0.94575 0.10782 0.27989
 H365 H 0.90692 0.14588 0.19574
 H366 H 0.80886 0.24274 0.28739
 H367 H 0.84965 0.20322 0.36978
 C368 C 0.15973 0.22939 -0.15437
 C369 C 0.18933 0.25003 -0.10391
 C370 C 0.17195 0.29821 -0.08626
 C371 C 0.12642 0.32189 -0.11945
 C372 C 0.14797 0.32347 -0.17651
 C373 C 0.16597 0.27563 -0.19450
 C374 C 0.10101 0.23024 -0.13645
 C375 C 0.08340 0.27857 -0.11930
 H376 H 0.22199 0.23112 -0.08340
 H377 H 0.18949 0.31755 -0.05183
 H378 H 0.15061 0.35963 -0.20016
 H379 H 0.18432 0.27140 -0.23335
 H380 H 0.07559 0.19525 -0.13676
 H381 H 0.04300 0.28485 -0.10518
 C382 C -0.16530 0.23921 0.17356
 C383 C -0.20262 0.28821 0.17505
 C384 C -0.18183 0.33312 0.15315
 C385 C -0.12443 0.32686 0.13360
 C386 C -0.09383 0.30578 0.18216
 C387 C -0.11457 0.26019 0.20322
 C388 C -0.14496 0.23409 0.11574
 C389 C -0.12503 0.27989 0.09471
 H390 H -0.24191 0.28773 0.19310
 H391 H -0.20348 0.37060 0.15230
 H392 H -0.05863 0.32468 0.19864
 H393 H -0.09522 0.24280 0.23749
 H394 H -0.14531 0.19692 0.09363
 H395 H -0.10850 0.28171 0.05485
 C396 C -0.17082 0.76053 -0.16535
 C397 C -0.17245 0.71195 -0.20313
 C398 C -0.15007 0.66689 -0.18301
 C399 C -0.12991 0.67260 -0.12580
 C400 C -0.09122 0.71978 -0.12642
 C401 C -0.11274 0.76572 -0.14567
 C402 C -0.19979 0.73883 -0.11456
 C403 C -0.17828 0.69315 -0.09451
 H404 H -0.19089 0.71280 -0.24221
 H405 H -0.14920 0.62969 -0.20503
 H406 H -0.05111 0.71796 -0.11047
 H407 H -0.09078 0.80300 -0.14598
 H408 H -0.23393 0.75579 -0.09466
 H409 H -0.19433 0.67384 -0.05930
 C410 C 0.16364 0.77139 0.15576
 C411 C 0.16833 0.72559 0.19665
 C412 C 0.14900 0.67807 0.17938
 C413 C 0.12814 0.67928 0.12212
 C414 C 0.08656 0.72390 0.12051
 C415 C 0.10523 0.77194 0.13701
 C416 C 0.19324 0.74927 0.10600
 C417 C 0.17482 0.70111 0.08904
 H418 H 0.18687 0.72977 0.23540
 H419 H 0.15063 0.64220 0.20357
 H420 H 0.04672 0.71882 0.10482
 H421 H 0.08102 0.80780 0.13566
 H422 H 0.22572 0.76791 0.08490
 H423 H 0.19174 0.68098 0.05476
 C424 C 0.22920 1.15404 0.83879
 C425 C 0.27460 1.19510 0.83284
 C426 C 0.32264 1.17800 0.85093
 C427 C 0.32231 1.12077 0.87215
 C428 C 0.27885 1.11932 0.91498
 C429 C 0.23024 1.13545 0.89731
 C430 C 0.25083 1.10407 0.80903
 C431 C 0.29950 1.08731 0.82633
 H432 H 0.26976 1.23391 0.81439
 H433 H 0.35826 1.20238 0.84832
 H434 H 0.28523 1.10478 0.95523
 H435 H 0.19511 1.13447 0.92250
 H436 H 0.23139 1.08264 0.77730
 H437 H 0.31935 1.05289 0.80926
 C438 C 0.23342 0.84669 1.16136
 C439 C 0.25533 0.89646 1.19116
 C440 C 0.30324 0.91391 1.17278
 C441 C 0.32533 0.88117 1.12609
 C442 C 0.32684 0.82370 1.14683
 C443 C 0.27934 0.80596 1.16599
 C444 C 0.23294 0.86548 1.10297
 C445 C 0.28084 0.88259 1.08448
 H446 H 0.23735 0.91661 1.22455
 H447 H 0.32341 0.94789 1.19030
 H448 H 0.36280 0.79969 1.14836
 H449 H 0.27520 0.76698 1.18427
 H450 H 0.19719 0.86658 1.07868
 H451 H 0.28585 0.89872 1.04483
 C452 C 0.76168 1.17441 1.16620
 C453 C 0.76603 1.11646 1.14585
 C454 C 0.71994 1.09613 1.12595
 C455 C 0.67353 1.13586 1.12537
 C456 C 0.66765 1.15532 1.18283
 C457 C 0.71291 1.17638 1.20366
 C458 C 0.74086 1.20452 1.11554
 C459 C 0.69511 1.18418 1.09485
 H460 H 0.80282 1.09369 1.14635
 H461 H 0.71745 1.05608 1.10978
 H462 H 0.63028 1.15483 1.20457
 H463 H 0.71381 1.19405 1.24307
 H464 H 0.75825 1.23885 1.09629
 H465 H 0.67627 1.20123 1.05984
 C466 C 0.76350 0.83324 0.82872
 C467 C 0.74197 0.88395 0.79923
 C468 C 0.69692 0.90482 0.82083
 C469 C 0.67646 0.87439 0.86971
 C470 C 0.66991 0.81687 0.85041
 C471 C 0.71456 0.79587 0.82807
 C472 C 0.76938 0.85346 0.88650
 C473 C 0.72391 0.87365 0.90804
 H474 H 0.75812 0.90289 0.76416
 H475 H 0.67767 0.93979 0.80407
 H476 H 0.63250 0.79524 0.85195
 H477 H 0.71487 0.75645 0.81031
 H478 H 0.80677 0.85289 0.90820
 H479 H 0.72263 0.89019 0.94787
   
