data_POSCAR
  _audit_creation_date              2014-09-24
  _audit_creation_method            'ToBaCCo'
  _symmetry_space_group_name_H-M    'P1'
  _symmetry_Int_Tables_number       1
  _symmetry_cell_setting            triclinic
  loop_
  _symmetry_equiv_pos_as_xyz
 x,y,z
_cell_length_a 50.9854
_cell_length_b 50.9487
_cell_length_c 17.9335
_cell_angle_alpha 89.953500
_cell_angle_beta 90.021200
_cell_angle_gamma 119.970800
loop_
  _atom_site_label
  _atom_site_type_symbol
  _atom_site_fract_x
  _atom_site_fract_y
  _atom_site_fract_z
O1 O 0.25120 0.45229 0.56969
 O2 O 0.19958 0.45248 0.42579
 O3 O 0.25097 0.45244 0.42507
 O4 O 0.19991 0.45250 0.57043
 O5 O 0.22510 0.50261 0.57035
 O6 O 0.27599 0.50255 0.42524
 O7 O 0.22473 0.50258 0.42599
 O8 O 0.27626 0.50240 0.56959
 Cu9 Cu 0.22288 0.44736 0.49773
 Cu10 Cu 0.25304 0.50758 0.49778
 C11 C 0.27270 0.47734 0.59316
 C12 C 0.20320 0.47759 0.40238
 C13 C 0.27237 0.47753 0.40144
 C14 C 0.20367 0.47761 0.59415
 O15 O 0.54748 -0.25321 0.42780
 O16 O 0.54766 -0.20154 0.57202
 O17 O 0.54737 -0.25314 0.57246
 O18 O 0.54757 -0.20174 0.42740
 O19 O 0.49750 -0.22672 0.42752
 O20 O 0.49730 -0.27794 0.57232
 O21 O 0.49759 -0.22647 0.57186
 O22 O 0.49741 -0.27805 0.42794
 Cu23 Cu 0.55258 -0.22489 0.49994
 Cu24 Cu 0.49242 -0.25480 0.49992
 C25 C 0.52239 -0.27461 0.40426
 C26 C 0.52263 -0.20504 0.59547
 C27 C 0.52226 -0.27449 0.59608
 C28 C 0.52253 -0.20533 0.40376
 O29 O 1.20106 0.74868 0.57008
 O30 O 1.25294 0.80026 0.42622
 O31 O 1.20146 0.74892 0.42545
 O32 O 1.25261 0.79991 0.57085
 O33 O 1.27738 0.77456 0.57097
 O34 O 1.22640 0.72374 0.42582
 O35 O 1.27774 0.77495 0.42661
 O36 O 1.22595 0.72347 0.57018
 Cu37 Cu 1.22451 0.77700 0.49812
 Cu38 Cu 1.25437 0.74664 0.49841
 C39 C 1.20452 0.72711 0.59364
 C40 C 1.27437 0.79655 0.40291
 C41 C 1.20507 0.72745 0.40191
 C42 C 1.27389 0.79606 0.59467
 O43 O 0.79903 0.54793 0.42979
 O44 O 0.74706 0.54775 0.57316
 O45 O 0.79849 0.54779 0.57441
 O46 O 0.74753 0.54774 0.42852
 O47 O 0.72269 0.49763 0.42861
 O48 O 0.77347 0.49768 0.57424
 O49 O 0.72218 0.49765 0.57297
 O50 O 0.77405 0.49783 0.42990
 Cu51 Cu 0.77554 0.55287 0.50149
 Cu52 Cu 0.74559 0.49266 0.50144
 C53 C 0.79554 0.52288 0.40641
 C54 C 0.72558 0.52265 0.59649
 C55 C 0.79481 0.52270 0.59813
 C56 C 0.72625 0.52263 0.40472
 O57 O 0.45253 0.25146 0.43001
 O58 O 0.45281 0.19973 0.57366
 O59 O 0.45276 0.25116 0.57463
 O60 O 0.45275 0.20015 0.42903
 O61 O 0.50283 0.22537 0.42886
 O62 O 0.50283 0.27621 0.57421
 O63 O 0.50287 0.22490 0.57322
 O64 O 0.50260 0.27655 0.42987
 Cu65 Cu 0.44765 0.22308 0.50188
 Cu66 Cu 0.50782 0.25328 0.50153
 C67 C 0.47755 0.27299 0.40644
 C68 C 0.47791 0.20334 0.59690
 C69 C 0.47783 0.27257 0.59816
 C70 C 0.47783 0.20394 0.40514
 O71 O 0.74860 0.20087 0.43047
 O72 O 0.80031 0.25288 0.57387
 O73 O 0.74898 0.20140 0.57510
 O74 O 0.79984 0.25241 0.42924
 O75 O 0.77457 0.27726 0.42913
 O76 O 0.72387 0.22642 0.57473
 O77 O 0.77508 0.27776 0.57348
 O78 O 0.72346 0.22585 0.43038
 Cu79 Cu 0.77698 0.22437 0.50221
 Cu80 Cu 0.74672 0.25433 0.50192
 C81 C 0.72705 0.20436 0.40699
 C82 C 0.79666 0.27437 0.59710
 C83 C 0.72757 0.20507 0.59871
 C84 C 0.79601 0.27371 0.40535
 N85 N 0.96812 0.53124 0.08074
 N86 N 0.94594 0.53700 0.09315
 N87 N 1.03189 0.54463 0.13122
 N88 N 1.05423 0.55944 0.17882
 N89 N 1.03187 0.56306 0.08004
 N90 N 1.05422 0.59097 0.09159
 N91 N 0.96824 0.51284 0.13184
 N92 N 0.94619 0.50554 0.18022
 C93 C 0.93236 0.52067 0.15536
 C94 C 1.06806 0.58831 0.15337
 N95 N 1.03186 0.46977 0.08009
 N96 N 1.05405 0.46399 0.09217
 N97 N 0.96824 0.45640 0.13168
 N98 N 0.94604 0.44162 0.17968
 N99 N 0.96812 0.43795 0.08047
 N100 N 0.94581 0.41004 0.09239
 N101 N 1.03187 0.48820 0.13122
 N102 N 1.05403 0.49550 0.17926
 Mn103 Mn 1.00006 0.50052 0.13224
 C104 C 1.06779 0.48035 0.15418
 C105 C 0.93216 0.41274 0.15443
 N106 N 1.03168 0.56304 -0.08086
 N107 N 1.05392 0.59097 -0.09315
 N108 N 0.96789 0.51277 -0.13135
 N109 N 0.94552 0.50525 -0.17887
 N110 N 0.96794 0.53119 -0.08014
 N111 N 0.94558 0.53676 -0.09159
 N112 N 1.03153 0.54455 -0.13200
 N113 N 1.05362 0.55931 -0.18028
 Mn114 Mn 0.99990 0.54748 -0.00006
 C115 C 1.06751 0.58824 -0.15533
 C116 C 0.93172 0.52029 -0.15333
 N117 N 0.96785 0.43785 -0.08044
 N118 N 0.94569 0.40988 -0.09263
 N119 N 1.03148 0.48810 -0.13201
 N120 N 1.05364 0.49550 -0.18010
 N121 N 1.03159 0.46972 -0.08084
 N122 N 1.05386 0.46407 -0.09287
 N123 N 0.96784 0.45631 -0.13152
 N124 N 0.94571 0.44148 -0.17966
 Mn125 Mn 0.99986 0.45348 -0.00018
 Mn126 Mn 0.99968 0.50043 -0.13248
 Cl127 Cl 0.99988 0.50048 -0.00012
 C128 C 0.93197 0.41255 -0.15467
 C129 C 1.06750 0.48044 -0.15493
 N130 N 0.46889 0.43716 0.08017
 N131 N 0.46319 0.40922 0.09260
 N132 N 0.45534 0.48744 0.13074
 N133 N 0.44050 0.49494 0.17837
 N134 N 0.43696 0.46902 0.07957
 N135 N 0.40904 0.46344 0.09116
 N136 N 0.48725 0.45567 0.13125
 N137 N 0.49458 0.44090 0.17961
 C138 C 0.47952 0.41195 0.15478
 C139 C 0.41166 0.47989 0.15294
 N140 N 0.53005 0.56236 0.07959
 N141 N 0.53583 0.59033 0.09188
 N142 N 0.54356 0.51212 0.13104
 N143 N 0.55837 0.50470 0.17901
 N144 N 0.56198 0.53051 0.07983
 N145 N 0.58990 0.53614 0.09173
 N146 N 0.51165 0.54389 0.13070
 N147 N 0.50436 0.55870 0.17894
 Mn148 Mn 0.49945 0.49978 0.13168
 C149 C 0.51949 0.58764 0.15400
 C150 C 0.58724 0.51976 0.15375
 N151 N 0.43699 0.46895 -0.08131
 N152 N 0.40905 0.46321 -0.09359
 N153 N 0.48733 0.45554 -0.13194
 N154 N 0.49491 0.44073 -0.17947
 N155 N 0.46896 0.43713 -0.08070
 N156 N 0.46348 0.40923 -0.09213
 N157 N 0.45544 0.48734 -0.13247
 N158 N 0.44064 0.49465 -0.18075
 Mn159 Mn 0.45260 0.45272 -0.00057
 C160 C 0.41173 0.47955 -0.15578
 C161 C 0.47994 0.41187 -0.15390
 N162 N 0.56209 0.53044 -0.08109
 N163 N 0.59006 0.53625 -0.09330
 N164 N 0.51178 0.54378 -0.13253
 N165 N 0.50437 0.55856 -0.18065
 N166 N 0.53011 0.56225 -0.08137
 N167 N 0.53573 0.59017 -0.09344
 N168 N 0.54367 0.51199 -0.13216
 N169 N 0.55852 0.50471 -0.18030
 Mn170 Mn 0.54640 0.54674 -0.00076
 Mn171 Mn 0.49955 0.49966 -0.13303
 Cl172 Cl 0.49950 0.49973 -0.00067
 C173 C 0.58743 0.51989 -0.15533
 C174 C 0.51938 0.58747 -0.15552
 N175 N 0.43790 -0.03215 0.08055
 N176 N 0.40994 -0.05435 0.09262
 N177 N 0.48812 0.03151 0.13202
 N178 N 0.49554 0.05373 0.17995
 N179 N 0.46980 0.03163 0.08074
 N180 N 0.46421 0.05397 0.09255
 N181 N 0.45630 -0.03217 0.13175
 N182 N 0.44144 -0.05433 0.17985
 C183 C 0.41256 -0.06809 0.15472
 C184 C 0.48055 0.06763 0.15459
 N185 N 0.56300 0.03161 0.08138
 N186 N 0.59093 0.05381 0.09379
 N187 N 0.51268 -0.03219 0.13199
 N188 N 0.50518 -0.05451 0.17974
 N189 N 0.53111 -0.03218 0.08090
 N190 N 0.53670 -0.05452 0.09265
 N191 N 0.54450 0.03150 0.13241
 N192 N 0.55924 0.05358 0.18074
 Mn193 Mn 0.50040 -0.00034 0.13280
 C194 C 0.58818 0.06741 0.15592
 C195 C 0.52024 -0.06834 0.15446
 N196 N 0.46997 0.03187 -0.08018
 N197 N 0.46420 0.05407 -0.09248
 N198 N 0.45658 -0.03184 -0.13146
 N199 N 0.44181 -0.05402 -0.17950
 N200 N 0.43811 -0.03192 -0.08036
 N201 N 0.41021 -0.05419 -0.09241
 N202 N 0.48842 0.03185 -0.13121
 N203 N 0.49574 0.05400 -0.17940
 Mn204 Mn 0.45360 -0.00014 0.00018
 C205 C 0.48059 0.06779 -0.15451
 C206 C 0.41292 -0.06786 -0.15439
 N207 N 0.53128 -0.03203 -0.07999
 N208 N 0.53695 -0.05431 -0.09210
 N209 N 0.54477 0.03178 -0.13080
 N210 N 0.55961 0.05416 -0.17837
 N211 N 0.56313 0.03175 -0.07951
 N212 N 0.59103 0.05414 -0.09094
 N213 N 0.51294 -0.03190 -0.13121
 N214 N 0.50561 -0.05404 -0.17937
 Mn215 Mn 0.54748 -0.00021 0.00069
 Mn216 Mn 0.50068 -0.00003 -0.13193
 Cl217 Cl 0.50054 -0.00018 0.00043
 C218 C 0.52064 -0.06793 -0.15426
 C219 C 0.58843 0.06800 -0.15277
 C220 C 1.14111 0.47990 0.27054
 C221 C 1.13006 0.49872 0.29414
 C222 C 1.10655 0.49917 0.25538
 C223 C 1.18283 0.47783 0.35398
 C224 C 1.10525 0.46227 0.16795
 C225 C 1.12882 0.46181 0.20704
 C226 C 1.16413 0.47849 0.31405
 C227 C 1.09369 0.48074 0.19233
 H228 H 1.13935 0.51276 0.34327
 H229 H 1.09819 0.51369 0.27537
 H230 H 1.09576 0.44786 0.11954
 H231 H 1.13715 0.44708 0.18839
 C232 C 0.52004 0.66125 0.27144
 C233 C 0.50116 0.63133 0.29469
 C234 C 0.50068 0.60743 0.25555
 C235 C 0.52215 0.70487 0.35558
 C236 C 0.53764 0.64317 0.16844
 C237 C 0.53814 0.66715 0.20791
 C238 C 0.52147 0.68558 0.31535
 C239 C 0.51912 0.61310 0.19247
 H240 H 0.48711 0.62649 0.34384
 H241 H 0.48612 0.58451 0.27529
 H242 H 0.55206 0.64817 0.12002
 H243 H 0.55290 0.69023 0.18954
 C244 C 0.33880 -0.14141 0.27111
 C245 C 0.36864 -0.13036 0.29483
 C246 C 0.39260 -0.10684 0.25606
 C247 C 0.29500 -0.18310 0.35453
 C248 C 0.35707 -0.10554 0.16839
 C249 C 0.33303 -0.12912 0.20748
 C250 C 0.31438 -0.16441 0.31462
 C251 C 0.38706 -0.09399 0.19289
 H252 H 0.37337 -0.13964 0.34406
 H253 H 0.41545 -0.09848 0.27615
 H254 H 0.35217 -0.09606 0.11987
 H255 H 0.31001 -0.13744 0.18874
 C256 C 0.85905 0.52093 0.27220
 C257 C 0.87032 0.50232 0.29606
 C258 C 0.89386 0.50194 0.25720
 C259 C 0.81714 0.52277 0.35532
 C260 C 0.89473 0.53852 0.16922
 C261 C 0.87115 0.53890 0.20839
 C262 C 0.83595 0.52220 0.31562
 C263 C 0.90650 0.52024 0.19379
 H264 H 0.86119 0.48836 0.34543
 H265 H 0.90238 0.48757 0.27736
 H266 H 0.90405 0.55282 0.12053
 H267 H 0.86264 0.55346 0.18953
 C268 C 0.47940 0.33840 0.27184
 C269 C 0.46141 0.33252 0.20810
 C270 C 0.46175 0.35648 0.16883
 C271 C 0.47762 0.29468 0.35520
 C272 C 0.49832 0.39219 0.25659
 C273 C 0.49799 0.36829 0.29553
 C274 C 0.47816 0.31404 0.31538
 C275 C 0.48001 0.38653 0.19326
 H276 H 0.44686 0.30945 0.18937
 H277 H 0.44743 0.35149 0.12021
 H278 H 0.51268 0.41508 0.27663
 H279 H 0.51196 0.37311 0.34484
 C280 C 0.66167 0.14079 0.27274
 C281 C 0.63180 0.12952 0.29650
 C282 C 0.60792 0.10597 0.25764
 C283 C 0.70536 0.18273 0.35587
 C284 C 0.64361 0.10506 0.16986
 C285 C 0.66755 0.12867 0.20903
 C286 C 0.68602 0.16391 0.31617
 C287 C 0.61358 0.09330 0.19434
 H288 H 0.62698 0.13867 0.34578
 H289 H 0.58505 0.09745 0.27773
 H290 H 0.64860 0.09573 0.12125
 H291 H 0.69060 0.13717 0.19025
 C292 C 0.48020 0.14115 -0.27130
 C293 C 0.46215 0.12890 -0.20770
 C294 C 0.46259 0.10531 -0.16850
 C295 C 0.47817 0.18293 -0.35477
 C296 C 0.49938 0.10649 -0.25602
 C297 C 0.49896 0.13002 -0.29490
 C298 C 0.47883 0.16419 -0.31488
 C299 C 0.48100 0.09369 -0.19285
 H300 H 0.44748 0.13728 -0.18905
 H301 H 0.44821 0.09588 -0.12000
 H302 H 0.51386 0.09808 -0.27600
 H303 H 0.51297 0.13926 -0.34411
 C304 C 0.66116 0.52038 -0.27193
 C305 C 0.66695 0.53844 -0.20836
 C306 C 0.64293 0.53797 -0.16922
 C307 C 0.70494 0.52242 -0.35526
 C308 C 0.60736 0.50114 -0.25674
 C309 C 0.63131 0.50159 -0.29556
 C310 C 0.68557 0.52176 -0.31542
 C311 C 0.61292 0.51952 -0.19360
 H312 H 0.68998 0.55313 -0.18968
 H313 H 0.64785 0.55235 -0.12074
 H314 H 0.58450 0.48664 -0.27675
 H315 H 0.62655 0.48758 -0.34473
 C316 C 0.85875 0.33882 -0.27128
 C317 C 0.86982 0.36870 -0.29495
 C318 C 0.89330 0.39265 -0.25612
 C319 C 0.81704 0.29502 -0.35464
 C320 C 0.89454 0.35703 -0.16851
 C321 C 0.87099 0.33301 -0.20766
 C322 C 0.83575 0.31441 -0.31479
 C323 C 0.90611 0.38706 -0.19294
 H324 H 0.86057 0.37348 -0.34416
 H325 H 0.90167 0.41554 -0.27616
 H326 H 0.90398 0.35209 -0.12000
 H327 H 0.86265 0.30995 -0.18896
 C328 C 0.52071 -0.14151 -0.27030
 C329 C 0.53869 -0.12935 -0.20659
 C330 C 0.53837 -0.10568 -0.16766
 C331 C 0.52253 -0.18346 -0.35329
 C332 C 0.50181 -0.10661 -0.25566
 C333 C 0.50213 -0.13022 -0.29428
 C334 C 0.52197 -0.16466 -0.31359
 C335 C 0.52013 -0.09389 -0.19238
 H336 H 0.55323 -0.13786 -0.18766
 H337 H 0.55269 -0.09630 -0.11906
 H338 H 0.48747 -0.09807 -0.27593
 H339 H 0.48817 -0.13940 -0.34358
 C340 C 0.33812 0.47932 -0.27238
 C341 C 0.33230 0.46132 -0.20864
 C342 C 0.35628 0.46169 -0.16951
 C343 C 0.29438 0.47745 -0.35559
 C344 C 0.39189 0.49833 -0.25741
 C345 C 0.36797 0.49797 -0.29621
 C346 C 0.31374 0.47803 -0.31581
 C347 C 0.38629 0.48000 -0.19409
 H348 H 0.30926 0.44673 -0.18981
 H349 H 0.35134 0.44736 -0.12089
 H350 H 0.41475 0.51273 -0.27756
 H351 H 0.37274 0.51195 -0.34553
 C352 C 1.14099 0.66177 -0.27191
 C353 C 1.12969 0.63188 -0.29572
 C354 C 1.10610 0.60799 -0.25693
 C355 C 1.18292 0.70546 -0.35511
 C356 C 1.10522 0.64369 -0.16910
 C357 C 1.12886 0.66765 -0.20821
 C358 C 1.16411 0.68612 -0.31534
 C359 C 1.09343 0.61365 -0.19364
 H360 H 1.13883 0.62706 -0.34501
 H361 H 1.09756 0.58510 -0.27706
 H362 H 1.09588 0.64868 -0.12050
 H363 H 1.13739 0.69071 -0.18940
 C364 C 0.85786 0.52033 -0.26734
 C365 C 0.86883 0.50151 -0.29142
 C366 C 0.89253 0.50116 -0.25337
 C367 C 0.81615 0.52250 -0.35022
 C368 C 0.89408 0.53811 -0.16569
 C369 C 0.87034 0.53848 -0.20406
 C370 C 0.83483 0.52178 -0.31041
 C371 C 0.90560 0.51969 -0.19062
 H372 H 0.85939 0.48743 -0.34044
 H373 H 0.90087 0.48667 -0.27372
 H374 H 0.90375 0.55259 -0.11746
 H375 H 0.86206 0.55321 -0.18513
 C376 C 0.48014 0.33805 -0.26769
 C377 C 0.46204 0.33236 -0.20430
 C378 C 0.46233 0.35645 -0.16601
 C379 C 0.47805 0.29416 -0.35034
 C380 C 0.49911 0.39187 -0.25401
 C381 C 0.49884 0.36784 -0.29197
 C382 C 0.47874 0.31356 -0.31065
 C383 C 0.48063 0.38640 -0.19114
 H384 H 0.44740 0.30936 -0.18521
 H385 H 0.44789 0.35163 -0.11769
 H386 H 0.51351 0.41470 -0.27450
 H387 H 0.51287 0.37248 -0.34108
 C388 C 0.66222 0.14195 -0.26677
 C389 C 0.66790 0.12947 -0.20343
 C390 C 0.64382 0.10569 -0.16505
 C391 C 0.70604 0.18370 -0.34964
 C392 C 0.60843 0.10721 -0.25287
 C393 C 0.63245 0.13094 -0.29092
 C394 C 0.68668 0.16501 -0.30984
 C395 C 0.61390 0.09414 -0.19006
 H396 H 0.69089 0.13777 -0.18444
 H397 H 0.64864 0.09603 -0.11677
 H398 H 0.58562 0.09885 -0.27328
 H399 H 0.62781 0.14038 -0.33999
 C400 C 1.14084 0.48010 -0.27076
 C401 C 1.12976 0.49887 -0.29470
 C402 C 1.10623 0.49931 -0.25609
 C403 C 1.18237 0.47786 -0.35418
 C404 C 1.10505 0.46255 -0.16817
 C405 C 1.12862 0.46209 -0.20709
 C406 C 1.16376 0.47861 -0.31421
 C407 C 1.09343 0.48093 -0.19291
 H408 H 1.13901 0.51284 -0.34399
 H409 H 1.09781 0.51376 -0.27631
 H410 H 1.09559 0.44819 -0.11962
 H411 H 1.13699 0.44742 -0.18824
 C412 C 0.51972 0.66121 -0.27159
 C413 C 0.53770 0.66697 -0.20791
 C414 C 0.53724 0.64292 -0.16890
 C415 C 0.52197 0.70500 -0.35522
 C416 C 0.50054 0.60738 -0.25676
 C417 C 0.50099 0.63137 -0.29545
 C418 C 0.52122 0.68564 -0.31514
 C419 C 0.51889 0.61293 -0.19357
 H420 H 0.55236 0.69000 -0.18912
 H421 H 0.55158 0.64780 -0.12035
 H422 H 0.48612 0.58452 -0.27693
 H423 H 0.48704 0.62667 -0.34476
 C424 C 0.33924 -0.14117 -0.27022
 C425 C 0.33348 -0.12893 -0.20660
 C426 C 0.35752 -0.10536 -0.16767
 C427 C 0.29546 -0.18266 -0.35366
 C428 C 0.39303 -0.10661 -0.25549
 C429 C 0.36905 -0.13013 -0.29410
 C430 C 0.31482 -0.16407 -0.31368
 C431 C 0.38748 -0.09378 -0.19236
 H432 H 0.31046 -0.13727 -0.18780
 H433 H 0.35263 -0.09589 -0.11917
 H434 H 0.41587 -0.09822 -0.27567
 H435 H 0.37375 -0.13939 -0.34336
 C436 C 0.52030 -0.14210 0.26930
 C437 C 0.53841 -0.12971 0.20588
 C438 C 0.53804 -0.10599 0.16727
 C439 C 0.52238 -0.18389 0.35227
 C440 C 0.50119 -0.10739 0.25499
 C441 C 0.50154 -0.13106 0.29329
 C442 C 0.52171 -0.16516 0.31248
 C443 C 0.51966 -0.09441 0.19208
 H444 H 0.55309 -0.13804 0.18700
 H445 H 0.55247 -0.09640 0.11892
 H446 H 0.48673 -0.09900 0.27526
 H447 H 0.48750 -0.14044 0.34240
 C448 C 0.33782 0.47985 0.26720
 C449 C 0.33216 0.46174 0.20382
 C450 C 0.35624 0.46211 0.16539
 C451 C 0.29396 0.47772 0.34995
 C452 C 0.39162 0.49895 0.25323
 C453 C 0.36760 0.49861 0.29134
 C454 C 0.31335 0.47842 0.31024
 C455 C 0.38617 0.48048 0.19036
 H456 H 0.30917 0.44706 0.18482
 H457 H 0.35143 0.44767 0.11707
 H458 H 0.41443 0.51340 0.27361
 H459 H 0.37223 0.51265 0.34043
 C460 C 1.14190 0.66208 0.26761
 C461 C 1.12947 0.66780 0.20426
 C462 C 1.10573 0.64374 0.16583
 C463 C 1.18367 0.70590 0.35041
 C464 C 1.10717 0.60826 0.25361
 C465 C 1.13086 0.63226 0.29172
 C466 C 1.16496 0.68653 0.31067
 C467 C 1.09415 0.61377 0.19077
 H468 H 1.13779 0.69082 0.18529
 H469 H 1.09611 0.64860 0.11753
 H470 H 1.09879 0.58542 0.27397
 H471 H 1.14027 0.62758 0.34079
 C472 C 0.48030 0.14112 0.26996
 C473 C 0.49906 0.13005 0.29390
 C474 C 0.49948 0.10648 0.25542
 C475 C 0.47806 0.18265 0.35338
 C476 C 0.46271 0.10523 0.16758
 C477 C 0.46228 0.12886 0.20639
 C478 C 0.47881 0.16405 0.31337
 C479 C 0.48108 0.09362 0.19236
 H480 H 0.51304 0.13933 0.34313
 H481 H 0.51392 0.09806 0.27566
 H482 H 0.44833 0.09574 0.11912
 H483 H 0.44760 0.13721 0.18754
 C484 C 0.66097 0.52009 0.26933
 C485 C 0.66671 0.53815 0.20577
 C486 C 0.64266 0.53769 0.16689
 C487 C 0.70474 0.52238 0.35288
 C488 C 0.60718 0.50082 0.25466
 C489 C 0.63117 0.50127 0.29321
 C490 C 0.68540 0.52161 0.31281
 C491 C 0.61270 0.51926 0.19160
 H492 H 0.68972 0.55288 0.18698
 H493 H 0.64752 0.55210 0.11844
 H494 H 0.58434 0.48633 0.27484
 H495 H 0.62649 0.48726 0.34243
 C496 C 0.85874 0.33902 0.27001
 C497 C 0.86980 0.36885 0.29393
 C498 C 0.89336 0.39284 0.25538
 C499 C 0.81726 0.29525 0.35353
 C500 C 0.89458 0.35731 0.16754
 C501 C 0.87098 0.33326 0.20641
 C502 C 0.83583 0.31460 0.31348
 C503 C 0.90619 0.38729 0.19228
 H504 H 0.86054 0.37355 0.34318
 H505 H 0.90177 0.41569 0.27560
 H506 H 0.90407 0.35243 0.11906
 H507 H 0.86263 0.31023 0.18759
   
