data_POSCAR
  _audit_creation_date              2014-09-24
  _audit_creation_method            'ToBaCCo'
  _symmetry_space_group_name_H-M    'P1'
  _symmetry_Int_Tables_number       1
  _symmetry_cell_setting            triclinic
  loop_
  _symmetry_equiv_pos_as_xyz
 x,y,z
_cell_length_a 22.0610
_cell_length_b 29.2892
_cell_length_c 19.7584
_cell_angle_alpha 90.222200
_cell_angle_beta 89.979500
_cell_angle_gamma 90.117300
loop_
  _atom_site_label
  _atom_site_type_symbol
  _atom_site_fract_x
  _atom_site_fract_y
  _atom_site_fract_z
O1 O 0.25410 0.28834 0.16009
 O2 O 0.32582 0.20486 0.27356
 O3 O 0.25839 0.19605 0.17262
 O4 O 0.32521 0.29122 0.26934
 O5 O 0.24491 0.29149 0.33621
 O6 O 0.17114 0.20687 0.22477
 O7 O 0.24145 0.20313 0.33398
 O8 O 0.17647 0.29475 0.22999
 Cu9 Cu 0.29798 0.24606 0.21044
 Cu10 Cu 0.20015 0.24892 0.28772
 C11 C 0.20401 0.30663 0.17656
 C12 C 0.29527 0.18947 0.32292
 C13 C 0.20317 0.18547 0.18175
 C14 C 0.29750 0.30598 0.32135
 O15 O 0.82486 0.29121 0.22853
 O16 O 0.75995 0.19984 0.33428
 O17 O 0.82729 0.20356 0.23105
 O18 O 0.75768 0.29082 0.34038
 O19 O 0.67934 0.29520 0.27120
 O20 O 0.74213 0.19937 0.17235
 O21 O 0.67261 0.20777 0.28126
 O22 O 0.74462 0.28736 0.16190
 Cu23 Cu 0.80029 0.24732 0.29098
 Cu24 Cu 0.70131 0.24722 0.21535
 C25 C 0.79690 0.30309 0.17518
 C26 C 0.70469 0.18883 0.32643
 C27 C 0.79601 0.18602 0.18376
 C28 C 0.70715 0.30828 0.32404
 O29 O 0.75356 0.79835 0.67357
 O30 O 0.82168 0.70187 0.76503
 O31 O 0.75226 0.71027 0.65860
 O32 O 0.82221 0.79064 0.77928
 O33 O 0.74232 0.78520 0.84616
 O34 O 0.67147 0.70583 0.72434
 O35 O 0.74074 0.69776 0.83063
 O36 O 0.67300 0.79453 0.73978
 Cu37 Cu 0.79561 0.75060 0.71260
 Cu38 Cu 0.69858 0.74539 0.79157
 C39 C 0.70172 0.81287 0.69119
 C40 C 0.79302 0.68373 0.81383
 C41 C 0.69973 0.69460 0.67079
 C42 C 0.79451 0.80141 0.83343
 O43 O 0.17177 0.79347 0.76376
 O44 O 0.23639 0.70417 0.65392
 O45 O 0.16732 0.70523 0.76423
 O46 O 0.24027 0.79216 0.65680
 O47 O 0.32004 0.79142 0.72442
 O48 O 0.25468 0.69414 0.81586
 O49 O 0.32084 0.70523 0.71419
 O50 O 0.24956 0.78590 0.83305
 Cu51 Cu 0.19543 0.74880 0.70340
 Cu52 Cu 0.29349 0.74483 0.78023
 C53 C 0.19944 0.80443 0.81768
 C54 C 0.29039 0.69072 0.66400
 C55 C 0.19964 0.68335 0.80621
 C56 C 0.29263 0.80668 0.67276
 C57 C 0.94266 -0.09490 -0.05639
 C58 C 0.99793 -0.11309 -0.07827
 C59 C 1.05278 -0.08990 -0.06893
 C60 C 1.05252 -0.04623 -0.03818
 C61 C 0.99758 -0.02812 -0.01238
 C62 C 0.94219 -0.05206 -0.02253
 C63 C 0.88808 -0.03176 -0.00016
 C64 C 0.88860 0.00947 0.03494
 C65 C 0.94288 0.03355 0.04609
 C66 C 0.99803 0.01448 0.02265
 C67 C 1.10485 -0.01893 -0.03614
 C68 C 1.10478 0.02303 -0.00291
 C69 C 1.05355 0.03825 0.03293
 C70 C 1.05504 0.07737 0.07609
 C71 C 0.99943 0.09578 0.09770
 C72 C 0.94362 0.07608 0.08020
 H73 H 0.84440 -0.04707 -0.00972
 H74 H 0.84572 0.02180 0.05401
 H75 H 1.14594 -0.02915 -0.06192
 H76 H 1.14476 0.04399 -0.00808
 H77 H 0.99842 -0.14669 -0.10149
 H78 H 0.99889 0.12672 0.12753
 C79 C 0.44705 0.41437 0.42659
 C80 C 0.50303 0.39448 0.41157
 C81 C 0.55783 0.41607 0.42770
 C82 C 0.55691 0.45990 0.45835
 C83 C 0.50049 0.48111 0.47274
 C84 C 0.44540 0.45832 0.45674
 C85 C 0.39026 0.48048 0.47025
 C86 C 0.38891 0.52295 0.50171
 C87 C 0.44267 0.54645 0.51755
 C88 C 0.49914 0.52534 0.50295
 C89 C 0.61070 0.48348 0.47389
 C90 C 0.60938 0.52598 0.50545
 C91 C 0.55423 0.54799 0.51953
 C92 C 0.55243 0.59148 0.55118
 C93 C 0.49638 0.61131 0.56602
 C94 C 0.44166 0.58996 0.54907
 H95 H 0.34722 0.46550 0.45646
 H96 H 0.34487 0.53679 0.51374
 H97 H 0.65469 0.46956 0.46175
 H98 H 0.65242 0.54107 0.51895
 H99 H 0.50397 0.36056 0.38939
 H100 H 0.49534 0.64481 0.58959
 C101 C -0.05499 0.40703 0.05946
 C102 C 0.00070 0.38994 0.08169
 C103 C 0.05534 0.41259 0.06858
 C104 C 0.05421 0.45498 0.03459
 C105 C -0.00124 0.47179 0.00847
 C106 C -0.05623 0.44807 0.02153
 C107 C -0.11076 0.46674 -0.00237
 C108 C -0.11107 0.50632 -0.04098
 C109 C -0.05728 0.53051 -0.05423
 C110 C -0.00167 0.51281 -0.03002
 C111 C 0.10627 0.48235 0.02938
 C112 C 0.10535 0.52292 -0.00698
 C113 C 0.05341 0.53654 -0.04281
 C114 C 0.05380 0.57416 -0.08838
 C115 C -0.00220 0.59130 -0.11063
 C116 C -0.05752 0.57188 -0.09100
 H117 H -0.15411 0.45132 0.00860
 H118 H -0.15418 0.51735 -0.06102
 H119 H 0.14781 0.47337 0.05515
 H120 H 0.14531 0.54412 -0.00430
 H121 H 0.00161 0.35738 0.10757
 H122 H -0.00333 0.62123 -0.14231
 C123 C 0.44322 0.91760 0.57844
 C124 C 0.49824 0.90043 0.60269
 C125 C 0.55284 0.92424 0.59463
 C126 C 0.55208 0.96776 0.56377
 C127 C 0.49752 0.98459 0.53552
 C128 C 0.44258 0.95999 0.54410
 C129 C 0.38861 0.97907 0.51931
 C130 C 0.38913 1.01959 0.48296
 C131 C 0.44322 1.04403 0.47257
 C132 C 0.49802 1.02628 0.49875
 C133 C 0.60355 0.99604 0.56324
 C134 C 0.60363 1.03701 0.52779
 C135 C 0.55333 1.05028 0.48896
 C136 C 0.55543 1.08767 0.44306
 C137 C 0.50005 1.10512 0.41916
 C138 C 0.44414 1.08556 0.43640
 H139 H 0.34508 0.96320 0.52777
 H140 H 0.34653 1.03096 0.46203
 H141 H 0.64384 0.98723 0.59149
 H142 H 0.64288 1.05876 0.53325
 H143 H 0.49880 0.86687 0.62559
 H144 H 0.49969 1.13510 0.38760
 N145 N 1.16808 0.08006 0.10185
 N146 N 1.20953 0.11189 0.12701
 C147 C 1.17814 0.14903 0.14599
 C148 C 1.11738 0.14285 0.13070
 C149 C 1.11261 0.09968 0.10071
 H150 H 1.08179 0.16739 0.14007
 H151 H 1.17862 0.04572 0.09434
 H152 H 1.25534 0.10536 0.13608
 N153 N 0.65406 0.62710 0.52788
 N154 N 0.69269 0.65434 0.55956
 C155 C 0.67100 0.66343 0.62190
 C156 C 0.61642 0.64088 0.63046
 C157 C 0.60754 0.61775 0.56992
 H158 H 0.58666 0.64190 0.67401
 H159 H 0.65863 0.61660 0.47756
 H160 H 0.73224 0.66745 0.53793
 N161 N -0.15304 0.36717 0.03157
 N162 N -0.19215 0.34013 0.06257
 C163 C -0.17412 0.33447 0.12712
 C164 C -0.12153 0.35922 0.13788
 C165 C -0.11000 0.38004 0.07622
 H166 H -0.09440 0.36075 0.18347
 H167 H -0.15451 0.37472 -0.02002
 H168 H -0.22902 0.32433 0.03891
 N169 N 0.34776 0.87818 0.53985
 N170 N 0.30765 0.84938 0.56531
 C171 C 0.32269 0.84070 0.63002
 C172 C 0.37418 0.86519 0.64671
 C173 C 0.38830 0.88909 0.58842
 H174 H 0.39897 0.86468 0.69398
 H175 H 0.34864 0.88836 0.48925
 H176 H 0.27232 0.83448 0.53778
 N177 N -0.15960 0.60367 -0.06093
 N178 N -0.19891 0.63296 -0.08618
 C179 C -0.17880 0.64695 -0.14698
 C180 C -0.12466 0.62520 -0.16153
 C181 C -0.11411 0.59759 -0.10575
 H182 H -0.09574 0.63041 -0.20509
 H183 H -0.16239 0.59036 -0.01206
 H184 H -0.23715 0.64485 -0.06043
 N185 N 0.34035 1.11718 0.45936
 N186 N 0.30100 1.14437 0.42933
 C187 C 0.32320 1.15606 0.36836
 C188 C 0.37878 1.13517 0.35885
 C189 C 0.38792 1.11037 0.41756
 H190 H 0.40916 1.13877 0.31616
 H191 H 0.33572 1.10535 0.50890
 H192 H 0.26099 1.15612 0.45158
 N193 N 1.15902 -0.11750 -0.04977
 N194 N 1.19733 -0.14609 -0.07907
 C195 C 1.17247 -0.16123 -0.13722
 C196 C 1.11622 -0.14133 -0.14554
 C197 C 1.10929 -0.11371 -0.08905
 H198 H 1.08382 -0.14748 -0.18570
 H199 H 1.16587 -0.10259 -0.00227
 H200 H 1.23888 -0.15591 -0.05847
 N201 N 0.65955 0.38319 0.45739
 N202 N 0.69903 0.35474 0.42981
 C203 C 0.67939 0.34322 0.36751
 C204 C 0.62546 0.36550 0.35465
 C205 C 0.61452 0.39081 0.41270
 H206 H 0.59667 0.36209 0.31055
 H207 H 0.66206 0.39514 0.50719
 H208 H 0.73718 0.34195 0.45458
 N209 N 0.84274 -0.13133 -0.02590
 N210 N 0.80100 -0.16015 -0.05775
 C211 C 0.82203 -0.16903 -0.12045
 C212 C 0.87611 -0.14587 -0.13042
 C213 C 0.88722 -0.12216 -0.07070
 H214 H 0.90434 -0.14654 -0.17526
 H215 H 0.84099 -0.12172 0.02501
 H216 H 0.76227 -0.17371 -0.03491
 N217 N 0.34624 0.37964 0.45581
 N218 N 0.30685 0.35126 0.42780
 C219 C 0.32706 0.33959 0.36579
 C220 C 0.38148 0.36163 0.35359
 C221 C 0.39175 0.38722 0.41165
 H222 H 0.41026 0.35867 0.30942
 H223 H 0.34290 0.39209 0.50528
 H224 H 0.26794 0.33901 0.45184
 N225 N 0.16628 0.57725 -0.11606
 N226 N 0.20713 0.60934 -0.14135
 C227 C 0.17513 0.64629 -0.15951
 C228 C 0.11458 0.63970 -0.14377
 C229 C 0.11065 0.59655 -0.11420
 H230 H 0.07861 0.66409 -0.15195
 H231 H 0.17733 0.54308 -0.10809
 H232 H 0.25307 0.60328 -0.15042
 N233 N 0.66899 1.08919 0.41985
 N234 N 0.71070 1.11925 0.39103
 C235 C 0.67944 1.15480 0.36648
 C236 C 0.61852 1.14956 0.38165
 C237 C 0.61342 1.10862 0.41731
 H238 H 0.58303 1.17322 0.36813
 H239 H 0.67959 1.05553 0.43200
 H240 H 0.75665 1.11227 0.38367
 N241 N 0.16114 0.38489 0.04624
 N242 N 0.20006 0.35631 0.07419
 C243 C 0.17672 0.34159 0.13318
 C244 C 0.12093 0.36186 0.14353
 C245 C 0.11253 0.38917 0.08726
 H246 H 0.08954 0.35585 0.18468
 H247 H 0.16661 0.39920 -0.00171
 H248 H 0.24073 0.34596 0.05190
 N249 N 0.66027 0.90015 0.57386
 N250 N 0.69919 0.87047 0.59895
 C251 C 0.67430 0.85086 0.65386
 C252 C 0.61731 0.86914 0.66467
 C253 C 0.61001 0.90049 0.61281
 H254 H 0.58461 0.85930 0.70281
 H255 H 0.66695 0.91777 0.52860
 H256 H 0.74093 0.86251 0.57694
 N257 N 0.84074 0.10805 0.05324
 N258 N 0.80170 0.13687 0.08068
 C259 C 0.82328 0.15037 0.14123
 C260 C 0.87803 0.12892 0.15322
 C261 C 0.88744 0.10195 0.09641
 H262 H 0.90787 0.13364 0.19616
 H263 H 0.83668 0.09474 0.00433
 H264 H 0.76249 0.14857 0.05681
 N265 N 0.33853 0.62228 0.52348
 N266 N 0.29833 0.64862 0.55425
 C267 C 0.31897 0.65860 0.61672
 C268 C 0.37425 0.63755 0.62636
 C269 C 0.38491 0.61444 0.56635
 H270 H 0.40364 0.63995 0.67010
 H271 H 0.33525 0.61167 0.47308
 H272 H 0.25887 0.66098 0.53168
   
