data_POSCAR
  _audit_creation_date              2014-09-24
  _audit_creation_method            'ToBaCCo'
  _symmetry_space_group_name_H-M    'P1'
  _symmetry_Int_Tables_number       1
  _symmetry_cell_setting            triclinic
  loop_
  _symmetry_equiv_pos_as_xyz
 x,y,z
_cell_length_a 43.1111
_cell_length_b 43.8212
_cell_length_c 42.5123
_cell_angle_alpha 90.225700
_cell_angle_beta 90.470800
_cell_angle_gamma 90.319100
loop_
  _atom_site_label
  _atom_site_type_symbol
  _atom_site_fract_x
  _atom_site_fract_y
  _atom_site_fract_z
C1 C 0.71213 0.66742 0.97402
 H2 H 0.73243 0.68066 0.98061
 C3 C 0.68702 0.68149 0.95878
 H4 H 0.68849 0.70556 0.95350
 C5 C 0.68598 0.61970 0.97229
 H6 H 0.68585 0.59557 0.97753
 C7 C 0.66065 0.63267 0.95719
 H8 H 0.64101 0.61829 0.95094
 N9 N 0.71115 0.63697 0.98011
 C10 C 0.77771 0.64136 1.04940
 H11 H 0.76039 0.63148 1.06445
 C12 C 0.80415 0.65435 1.06306
 H13 H 0.80593 0.65514 1.08844
 C14 C 0.79648 0.65189 0.99836
 H15 H 0.79368 0.64999 0.97311
 C16 C 0.82363 0.66477 1.01111
 H17 H 0.84153 0.67301 0.99551
 Zn18 Zn 0.74300 0.61452 0.99984
 N19 N 0.77463 0.63967 1.01757
 C20 C 0.78693 0.57182 0.97750
 N21 N 0.76179 0.58882 0.96946
 C22 C 0.75158 0.59011 0.93913
 C23 C 0.76699 0.57437 0.91546
 C24 C 0.80321 0.55578 0.95441
 C25 C 0.70516 0.60876 1.05142
 C26 C 0.68973 0.59513 1.07637
 C27 C 0.71082 0.54658 1.06034
 C28 C 0.72614 0.56136 1.03573
 N29 N 0.72350 0.59204 1.03218
 H30 H 0.79488 0.57149 1.00170
 H31 H 0.73187 0.60397 0.93293
 H32 H 0.75789 0.57560 0.89173
 H33 H 0.82355 0.54284 0.96105
 H34 H 0.70272 0.63300 1.04742
 H35 H 0.67517 0.60968 1.09041
 H36 H 0.71361 0.52214 1.06291
 H37 H 0.74020 0.54836 1.01963
 C38 C 0.82827 0.66490 1.04383
 C39 C 0.66084 0.66386 0.95013
 C40 C 0.69280 0.56349 1.08173
 C41 C 0.79376 0.55758 0.92279
 C42 C 0.70334 0.32960 0.50006
 H43 H 0.70710 0.32817 0.47497
 C44 C 0.67883 0.31341 0.51364
 H45 H 0.66449 0.29920 0.49858
 C46 C 0.71760 0.35044 0.54959
 H47 H 0.73261 0.36493 0.56363
 C48 C 0.69352 0.33464 0.56412
 H49 H 0.69022 0.33743 0.58920
 N50 N 0.72119 0.34878 0.51788
 C51 C 0.77905 0.35802 0.44158
 H52 H 0.76228 0.37264 0.43030
 C53 C 0.80230 0.34474 0.42353
 H54 H 0.80251 0.34923 0.39856
 C55 C 0.79766 0.33337 0.48736
 H56 H 0.79573 0.32914 0.51232
 C57 C 0.82158 0.31986 0.47025
 H58 H 0.83806 0.30532 0.48227
 Zn59 Zn 0.74923 0.37587 0.49772
 N60 N 0.77791 0.35323 0.47315
 C61 C 0.80119 0.39713 0.53434
 N62 N 0.77024 0.39997 0.52858
 C63 C 0.75282 0.42015 0.54511
 C64 C 0.76610 0.43732 0.56952
 C65 C 0.81534 0.41364 0.55876
 C66 C 0.69560 0.40013 0.46737
 C67 C 0.67968 0.41923 0.44669
 C68 C 0.72787 0.44534 0.43587
 C69 C 0.74293 0.42559 0.45665
 N70 N 0.72681 0.40311 0.47140
 H71 H 0.81502 0.38196 0.52029
 H72 H 0.72838 0.42239 0.53971
 H73 H 0.75177 0.45288 0.58282
 H74 H 0.83997 0.41098 0.56293
 H75 H 0.68290 0.38281 0.47988
 H76 H 0.65493 0.41609 0.44324
 H77 H 0.74146 0.46221 0.42349
 H78 H 0.76770 0.42766 0.46047
 C79 C 0.82489 0.32643 0.43814
 C80 C 0.67293 0.31682 0.54602
 C81 C 0.69578 0.44208 0.43052
 C82 C 0.79752 0.43356 0.57713
 C83 C 0.21432 -0.17261 0.01437
 H84 H 0.23288 -0.18624 0.00483
 C85 C 0.18846 -0.18684 0.02788
 H86 H 0.18736 -0.21148 0.02834
 C87 C 0.19282 -0.12385 0.02417
 H88 H 0.19468 -0.09929 0.02246
 C89 C 0.16668 -0.13699 0.03755
 H90 H 0.14847 -0.12232 0.04623
 N91 N 0.21598 -0.14164 0.01297
 C92 C 0.27723 -0.14488 -0.05977
 H93 H 0.26016 -0.13224 -0.07292
 C94 C 0.30097 -0.15943 -0.07595
 H95 H 0.30077 -0.15847 -0.10135
 C96 C 0.29793 -0.16119 -0.01094
 H97 H 0.29695 -0.16110 0.01448
 C98 C 0.32247 -0.17567 -0.02621
 H99 H 0.34022 -0.18686 -0.01234
 Zn100 Zn 0.24857 -0.11969 -0.00596
 N101 N 0.27642 -0.14543 -0.02781
 C102 C 0.29701 -0.08203 0.01693
 N103 N 0.27159 -0.09842 0.02548
 C104 C 0.26338 -0.10089 0.05619
 C105 C 0.28066 -0.08608 0.07963
 C106 C 0.31502 -0.06684 0.03965
 C107 C 0.20884 -0.10453 -0.05521
 C108 C 0.19343 -0.08615 -0.07688
 C109 C 0.21977 -0.04219 -0.05461
 C110 C 0.23488 -0.06161 -0.03347
 N111 N 0.22950 -0.09219 -0.03443
 H112 H 0.30326 -0.08074 -0.00763
 H113 H 0.24354 -0.11454 0.06270
 H114 H 0.27364 -0.08822 0.10393
 H115 H 0.33458 -0.05339 0.03193
 H116 H 0.20447 -0.12887 -0.05503
 H117 H 0.17738 -0.09688 -0.09336
 H118 H 0.22540 -0.01819 -0.05333
 H119 H 0.25091 -0.05214 -0.01634
 C120 C 0.32489 -0.17390 -0.05907
 C121 C 0.16419 -0.16880 0.03968
 C122 C 0.19859 -0.05440 -0.07699
 C123 C 0.30694 -0.06890 0.07161
 C124 C 0.20865 0.16460 0.46799
 H125 H 0.22755 0.17887 0.47637
 C126 C 0.18270 0.17777 0.45335
 H127 H 0.18219 0.20223 0.45038
 C128 C 0.18669 0.11524 0.46161
 H129 H 0.18842 0.09085 0.46502
 C130 C 0.16057 0.12729 0.44706
 H131 H 0.14227 0.11190 0.43927
 N132 N 0.21010 0.13380 0.47161
 C133 C 0.27428 0.13977 0.54320
 H134 H 0.25715 0.12837 0.55735
 C135 C 0.29962 0.15371 0.55803
 H136 H 0.30073 0.15366 0.58345
 C137 C 0.29363 0.15321 0.49312
 H138 H 0.29155 0.15205 0.46776
 C139 C 0.31966 0.16711 0.50703
 H140 H 0.33742 0.17689 0.49221
 Zn141 Zn 0.24272 0.11271 0.49162
 N142 N 0.27210 0.13906 0.51127
 C143 C 0.28934 0.07267 0.47025
 N144 N 0.26416 0.08916 0.46127
 C145 C 0.25544 0.09086 0.43050
 C146 C 0.27216 0.07560 0.40739
 C147 C 0.30679 0.05701 0.44783
 C148 C 0.20326 0.10224 0.54145
 C149 C 0.18743 0.08613 0.56453
 C150 C 0.21312 0.04015 0.54752
 C151 C 0.22851 0.05725 0.52461
 N152 N 0.22365 0.08781 0.52234
 H153 H 0.29614 0.07210 0.49479
 H154 H 0.23575 0.10446 0.42361
 H155 H 0.26415 0.07694 0.38328
 H156 H 0.32688 0.04411 0.45532
 H157 H 0.19939 0.12647 0.53874
 H158 H 0.17151 0.09823 0.57965
 H159 H 0.21742 0.01593 0.54860
 H160 H 0.24419 0.04605 0.50865
 C161 C 0.32355 0.16629 0.53984
 C162 C 0.15814 0.15887 0.44276
 C163 C 0.19236 0.05474 0.56808
 C164 C 0.29859 0.05876 0.41587
 C165 C 0.16472 0.46142 0.23791
 H166 H 0.16589 0.45451 0.26228
 C167 C 0.18280 0.44650 0.21540
 H168 H 0.19804 0.42818 0.22256
 C169 C 0.14227 0.49255 0.19847
 H170 H 0.12594 0.50989 0.19160
 C171 C 0.15975 0.47828 0.17536
 H172 H 0.15721 0.48561 0.15119
 N173 N 0.14470 0.48377 0.22904
 C174 C 0.11668 0.53602 0.31134
 H175 H 0.09217 0.53651 0.30570
 C176 C 0.12771 0.55073 0.33826
 H177 H 0.11146 0.56311 0.35269
 C178 C 0.16740 0.52001 0.29824
 H179 H 0.18269 0.50803 0.28247
 C180 C 0.17951 0.53447 0.32517
 H181 H 0.20418 0.53348 0.33007
 Zn182 Zn 0.11642 0.50045 0.25833
 N183 N 0.13635 0.52058 0.29231
 C184 C 0.09391 0.46131 0.30552
 N185 N 0.09191 0.46802 0.27435
 C186 C 0.07381 0.45103 0.25452
 C187 C 0.05583 0.42696 0.26614
 C188 C 0.07672 0.43727 0.31801
 C189 C 0.10675 0.55585 0.22857
 C190 C 0.09083 0.57876 0.21265
 C191 C 0.04373 0.54907 0.21734
 C192 C 0.06059 0.52670 0.23331
 N193 N 0.09166 0.53019 0.23800
 H194 H 0.10918 0.47431 0.32081
 H195 H 0.07336 0.45619 0.22966
 H196 H 0.04177 0.41359 0.24994
 H197 H 0.07866 0.43227 0.34288
 H198 H 0.13137 0.55827 0.23310
 H199 H 0.10336 0.59885 0.20496
 H200 H 0.01901 0.54584 0.21424
 H201 H 0.04878 0.50666 0.24191
 C202 C 0.15942 0.54939 0.34596
 C203 C 0.17963 0.45428 0.18356
 C204 C 0.05905 0.57534 0.20631
 C205 C 0.05705 0.42005 0.29840
 C206 C -0.16793 0.01846 0.20476
 H207 H -0.18248 0.01631 0.22518
 C208 C -0.17893 0.03413 0.17824
 H209 H -0.20194 0.04394 0.17875
 C210 C -0.12032 0.00891 0.17940
 H211 H -0.09739 -0.00094 0.17985
 C212 C -0.13029 0.02410 0.15258
 H213 H -0.11475 0.02431 0.13282
 N214 N -0.13874 0.00683 0.20506
 C215 C -0.14360 -0.05823 0.27746
 H216 H -0.12687 -0.07211 0.26535
 C217 C -0.15967 -0.07072 0.30264
 H218 H -0.15531 -0.09418 0.30922
 C219 C -0.16799 -0.01053 0.28514
 H220 H -0.17022 0.01328 0.27899
 C221 C -0.18444 -0.02209 0.31076
 H222 H -0.20001 -0.00709 0.32314
 Zn223 Zn -0.11901 -0.01121 0.24040
 N224 N -0.14733 -0.02839 0.26964
 C225 C -0.09873 0.02579 0.29181
 N226 N -0.09475 0.01956 0.26071
 C227 C -0.07489 0.03642 0.24304
 C228 C -0.05921 0.06142 0.25619
 C229 C -0.08380 0.05081 0.30580
 C230 C -0.10729 -0.06331 0.20523
 C231 C -0.09003 -0.08642 0.19132
 C232 C -0.04423 -0.06662 0.21766
 C233 C -0.06247 -0.04379 0.23111
 N234 N -0.09337 -0.04258 0.22464
 H235 H -0.11376 0.01167 0.30585
 H236 H -0.07164 0.03088 0.21852
 H237 H -0.04392 0.07495 0.24164
 H238 H -0.08744 0.05542 0.33052
 H239 H -0.13189 -0.06163 0.20033
 H240 H -0.10158 -0.10259 0.17578
 H241 H -0.01965 -0.06655 0.22273
 H242 H -0.05190 -0.02688 0.24644
 C243 C -0.17948 -0.05238 0.32044
 C244 C -0.15965 0.03810 0.15197
 C245 C -0.05809 -0.08839 0.19740
 C246 C -0.06433 0.06941 0.28765
 C247 C 0.33588 0.51358 0.72514
 H248 H 0.32356 0.51108 0.74697
 C249 C 0.32111 0.52729 0.69934
 H250 H 0.29742 0.53486 0.70175
 C251 C 0.38141 0.50637 0.69528
 H252 H 0.40501 0.49835 0.69375
 C253 C 0.36754 0.51951 0.66904
 H254 H 0.38071 0.52152 0.64753
 N255 N 0.36572 0.50385 0.72277
 C256 C 0.36975 0.43979 0.79604
 H257 H 0.38657 0.42664 0.78322
 C258 C 0.35483 0.42639 0.82149
 H259 H 0.36015 0.40297 0.82746
 C260 C 0.34386 0.48643 0.80510
 H261 H 0.34051 0.51019 0.79931
 C262 C 0.32852 0.47394 0.83101
 H263 H 0.31314 0.48844 0.84420
 Zn264 Zn 0.38944 0.48731 0.75640
 N265 N 0.36438 0.46943 0.78842
 C266 C 0.41190 0.52667 0.80491
 N267 N 0.41408 0.51942 0.77384
 C268 C 0.43196 0.53639 0.75421
 C269 C 0.44737 0.56246 0.76532
 C270 C 0.42659 0.55277 0.81691
 C271 C 0.39901 0.43482 0.72153
 C272 C 0.41507 0.41147 0.70661
 C273 C 0.46310 0.43348 0.72599
 C274 C 0.44601 0.45642 0.74082
 N275 N 0.41452 0.45653 0.73843
 H276 H 0.39835 0.51257 0.82044
 H277 H 0.43374 0.53011 0.72971
 H278 H 0.46104 0.57603 0.74925
 H279 H 0.42434 0.55819 0.84164
 H280 H 0.37400 0.43582 0.71957
 H281 H 0.40213 0.39485 0.69284
 H282 H 0.48816 0.43356 0.72799
 H283 H 0.45786 0.47412 0.75411
 C284 C 0.33435 0.44352 0.83981
 C285 C 0.33727 0.53069 0.67091
 C286 C 0.44757 0.41040 0.70900
 C287 C 0.44397 0.57144 0.79677
 C288 C 0.64559 0.95344 0.72455
 H289 H 0.63316 0.93968 0.74132
 C290 C 0.66274 0.93911 0.70111
 H291 H 0.66304 0.91441 0.70000
 C292 C 0.65961 1.00204 0.70502
 H293 H 0.65805 1.02654 0.70623
 C294 C 0.67695 0.98866 0.68109
 H295 H 0.68798 1.00350 0.66427
 N296 N 0.64328 0.98438 0.72535
 C297 C 0.61260 1.04310 0.80152
 H298 H 0.58811 1.04314 0.79571
 C299 C 0.62375 1.06113 0.82619
 H300 H 0.60694 1.07411 0.83920
 C301 C 0.66296 1.02425 0.79155
 H302 H 0.67799 1.00974 0.77788
 C303 C 0.67519 1.04179 0.81637
 H304 H 0.69980 1.04057 0.82156
 Zn305 Zn 0.61327 1.00249 0.75205
 N306 N 0.63212 1.02522 0.78479
 C307 C 0.58968 0.96613 0.80131
 N308 N 0.58843 0.97095 0.76972
 C309 C 0.57169 0.95211 0.75042
 C310 C 0.55541 0.92730 0.76277
 C311 C 0.57410 0.94137 0.81456
 C312 C 0.60325 1.05697 0.72031
 C313 C 0.58788 1.07865 0.70216
 C314 C 0.54252 1.04610 0.70169
 C315 C 0.55890 1.02488 0.71979
 N316 N 0.58896 1.03037 0.72821
 H317 H 0.60342 0.98100 0.81627
 H318 H 0.57174 0.95581 0.72529
 H319 H 0.54246 0.91233 0.74708
 H320 H 0.57541 0.93799 0.83974
 H321 H 0.62663 1.06159 0.72843
 H322 H 0.59983 1.09955 0.69594
 H323 H 0.51897 1.04074 0.69455
 H324 H 0.54749 1.00409 0.72688
 C325 C 0.65564 1.06090 0.83399
 C326 C 0.67785 0.95666 0.67831
 C327 C 0.55714 1.07343 0.69260
 C328 C 0.55706 0.92134 0.79509
 C329 C 0.02609 0.21984 -0.17555
 H330 H 0.02328 0.24027 -0.18937
 C331 C 0.04030 0.19414 -0.18887
 H332 H 0.04799 0.19519 -0.21298
 C333 C 0.01899 0.19342 -0.12764
 H334 H 0.01068 0.19312 -0.10373
 C335 C 0.03260 0.16738 -0.13999
 H336 H 0.03472 0.14733 -0.12531
 N337 N 0.01613 0.21908 -0.14525
 C338 C -0.04999 0.29047 -0.14249
 H339 H -0.06316 0.27786 -0.12540
 C340 C -0.06278 0.31685 -0.15510
 H341 H -0.08590 0.32353 -0.14820
 C342 C -0.00344 0.29851 -0.17059
 H343 H 0.02031 0.29220 -0.17518
 C344 C -0.01549 0.32519 -0.18391
 H345 H -0.00117 0.33890 -0.19925
 Zn346 Zn -0.00200 0.25211 -0.12312
 N347 N -0.02042 0.28227 -0.14947
 C348 C 0.03352 0.30176 -0.09928
 N349 N 0.02907 0.27104 -0.09753
 C350 C 0.04720 0.25356 -0.07851
 C351 C 0.07118 0.26682 -0.06074
 C352 C 0.05740 0.31588 -0.08220
 C353 C -0.05544 0.21799 -0.11287
 C354 C -0.07931 0.20424 -0.09608
 C355 C -0.05718 0.22523 -0.04818
 C356 C -0.03387 0.23887 -0.06608
 N357 N -0.03341 0.23494 -0.09777
 H358 H 0.01865 0.31550 -0.11396
 H359 H 0.04332 0.22924 -0.07731
 H360 H 0.08573 0.25233 -0.04638
 H361 H 0.06077 0.34031 -0.08414
 H362 H -0.05443 0.21525 -0.13815
 H363 H -0.09652 0.19090 -0.10890
 H364 H -0.05673 0.22949 -0.02316
 H365 H -0.01620 0.25266 -0.05464
 C366 C -0.04494 0.33529 -0.17493
 C367 C 0.04387 0.16752 -0.17075
 C368 C -0.08044 0.20728 -0.06313
 C369 C 0.07651 0.29843 -0.06258
 C370 C 0.48898 0.21961 0.18809
 H371 H 0.49796 0.23857 0.20179
 C372 C 0.47767 0.19348 0.20324
 H373 H 0.47780 0.19251 0.22869
 C374 C 0.47862 0.19717 0.13826
 H375 H 0.47959 0.19863 0.11288
 C376 C 0.46723 0.17085 0.15230
 H377 H 0.46008 0.15205 0.13730
 N378 N 0.48893 0.22096 0.15611
 C379 C 0.55464 0.29111 0.15195
 H380 H 0.56784 0.27801 0.13529
 C381 C 0.56855 0.31630 0.16643
 H382 H 0.59244 0.32183 0.16099
 C383 C 0.50718 0.30116 0.17756
 H384 H 0.48303 0.29542 0.18115
 C385 C 0.52018 0.32682 0.19247
 H386 H 0.50579 0.34008 0.20801
 Zn387 Zn 0.50493 0.25367 0.13231
 N388 N 0.52437 0.28419 0.15737
 C389 C 0.47899 0.29687 0.09088
 N390 N 0.47236 0.27247 0.10936
 C391 C 0.44267 0.26251 0.11295
 C392 C 0.41827 0.27703 0.09741
 C393 C 0.45525 0.31211 0.07488
 C394 C 0.55709 0.21960 0.11985
 C395 C 0.58061 0.20613 0.10247
 C396 C 0.55689 0.22588 0.05510
 C397 C 0.53380 0.23916 0.07349
 N398 N 0.53467 0.23623 0.10532
 H399 H 0.50275 0.30463 0.08877
 H400 H 0.43769 0.24343 0.12812
 H401 H 0.39509 0.26799 0.10020
 H402 H 0.46092 0.33151 0.06027
 H403 H 0.55676 0.21708 0.14516
 H404 H 0.59799 0.19282 0.11465
 H405 H 0.55618 0.22859 0.02979
 H406 H 0.51533 0.25182 0.06234
 C407 C 0.55118 0.33507 0.18628
 C408 C 0.46621 0.16885 0.18526
 C409 C 0.58101 0.20967 0.06966
 C410 C 0.42436 0.30250 0.07834
 C411 C 0.97055 0.72236 0.67104
 H412 H 0.97417 0.74174 0.68649
 C413 C 0.95593 0.69586 0.68220
 H414 H 0.94830 0.69491 0.70639
 C415 C 0.97585 0.69983 0.62061
 H416 H 0.98371 0.70155 0.59658
 C417 C 0.96176 0.67309 0.63075
 H418 H 0.95990 0.65420 0.61438
 N419 N 0.97971 0.72387 0.64053
 C420 C 1.04199 0.78556 0.66318
 H421 H 1.05502 0.76484 0.66043
 C422 C 1.05629 0.81081 0.67732
 H423 H 1.07993 0.80881 0.68582
 C424 C 0.99600 0.81375 0.65467
 H425 H 0.97279 0.81508 0.64497
 C426 C 1.00941 0.83956 0.66877
 H427 H 0.99634 0.86057 0.66991
 Zn428 Zn 0.99848 0.75805 0.62145
 N429 N 1.01283 0.78781 0.65094
 C430 C 0.97677 0.80274 0.57859
 N431 N 0.96911 0.77669 0.59411
 C432 C 0.93996 0.76479 0.59212
 C433 C 0.91705 0.77938 0.57452
 C434 C 0.95444 0.81823 0.56083
 C435 C 1.05126 0.72294 0.61452
 C436 C 1.07657 0.70963 0.59982
 C437 C 1.06271 0.73615 0.55207
 C438 C 1.03769 0.74925 0.56785
 N439 N 1.03273 0.74277 0.59869
 H440 H 1.00003 0.81196 0.58077
 H441 H 0.93412 0.74421 0.60466
 H442 H 0.89428 0.76898 0.57310
 H443 H 0.96073 0.83928 0.54916
 H444 H 1.04596 0.71695 0.63854
 H445 H 1.09056 0.69351 0.61285
 H446 H 1.06644 0.74139 0.52751
 H447 H 1.02217 0.76428 0.55535
 C448 C 1.04046 0.83869 0.67872
 C449 C 0.95079 0.67106 0.66171
 C450 C 1.08274 0.71645 0.56826
 C451 C 0.92393 0.80698 0.55925
 C452 C 0.52106 0.71818 0.34019
 H453 H 0.51403 0.73730 0.32587
 C454 C 0.53406 0.69227 0.32609
 H455 H 0.53666 0.69164 0.30082
 C456 C 0.52532 0.69533 0.39049
 H457 H 0.52187 0.69674 0.41563
 C458 C 0.53790 0.66910 0.37747
 H459 H 0.54412 0.65035 0.39278
 N460 N 0.51724 0.71921 0.37193
 C461 C 0.45006 0.78791 0.37444
 H462 H 0.43688 0.77420 0.39060
 C463 C 0.43592 0.81309 0.36072
 H464 H 0.41169 0.81669 0.36568
 C465 C 0.49732 0.79913 0.34896
 H466 H 0.52156 0.79404 0.34530
 C467 C 0.48401 0.82471 0.33457
 H468 H 0.49822 0.83892 0.31958
 Zn469 Zn 0.49979 0.75190 0.39471
 N470 N 0.48040 0.78172 0.36901
 C471 C 0.52414 0.79694 0.43562
 N472 N 0.53133 0.77180 0.41835
 C473 C 0.56108 0.76192 0.41619
 C474 C 0.58503 0.77756 0.43159
 C475 C 0.54746 0.81338 0.45138
 C476 C 0.44799 0.71657 0.40615
 C477 C 0.42438 0.70258 0.42305
 C478 C 0.44675 0.72336 0.47091
 C479 C 0.46992 0.73725 0.45297
 N480 N 0.46974 0.73402 0.42112
 H481 H 0.50032 0.80450 0.43669
 H482 H 0.56647 0.74210 0.40214
 H483 H 0.60831 0.76870 0.42988
 H484 H 0.54144 0.83354 0.46477
 H485 H 0.44889 0.71383 0.38087
 H486 H 0.40742 0.68871 0.41057
 H487 H 0.44686 0.72626 0.49622
 H488 H 0.48789 0.75060 0.46445
 C489 C 0.45326 0.83288 0.34152
 C490 C 0.54269 0.66733 0.34500
 C491 C 0.42327 0.70635 0.45583
 C492 C 0.57845 0.80409 0.44897
 C493 C 0.37981 -0.01810 0.20570
 C494 C 0.39103 0.00086 0.23003
 C495 C 0.40043 0.03088 0.22311
 C496 C 0.39849 0.04195 0.19214
 C497 C 0.38687 0.02271 0.16828
 C498 C 0.37767 -0.00741 0.17473
 C499 C 0.39078 -0.01016 0.26295
 C500 C 0.40279 -0.03899 0.27055
 C501 C 0.40025 -0.05072 0.30118
 C502 C 0.38633 -0.03240 0.32449
 C503 C 0.37406 -0.00369 0.31727
 C504 C 0.37673 0.00745 0.28645
 H505 H 0.37183 -0.04099 0.21107
 H506 H 0.40848 0.04554 0.24204
 H507 H 0.41350 -0.05258 0.25228
 H508 H 0.36774 0.02969 0.28042
 H509 H 0.38422 0.03171 0.14474
 H510 H 0.38514 -0.03994 0.34863
 C511 C 0.13759 1.01233 0.70968
 C512 C 0.12448 0.99918 0.73648
 C513 C 0.11014 0.97043 0.73424
 C514 C 0.10908 0.95465 0.70551
 C515 C 0.12254 0.96802 0.67877
 C516 C 0.13730 0.99669 0.68083
 C517 C 0.12723 1.01481 0.76720
 C518 C 0.11573 1.04441 0.77127
 C519 C 0.11834 1.05914 0.80064
 C520 C 0.13338 1.04410 0.82561
 C521 C 0.14560 1.01454 0.82170
 C522 C 0.14175 1.00000 0.79241
 H523 H 0.14895 1.03441 0.71158
 H524 H 0.09995 0.96027 0.75498
 H525 H 0.10373 1.05512 0.75182
 H526 H 0.15071 0.97717 0.78881
 H527 H 0.12064 0.95657 0.65625
 H528 H 0.13448 1.05545 0.84821
 C529 C 0.62933 0.51698 0.21391
 C530 C 0.61743 0.50129 0.23986
 C531 C 0.60435 0.47220 0.23570
 C532 C 0.60325 0.45859 0.20575
 C533 C 0.61636 0.47404 0.18015
 C534 C 0.62903 0.50354 0.18367
 C535 C 0.62010 0.51489 0.27163
 C536 C 0.60861 0.54424 0.27761
 C537 C 0.61162 0.55742 0.30775
 C538 C 0.62682 0.54094 0.33159
 C539 C 0.63878 0.51170 0.32572
 C540 C 0.63477 0.49866 0.29583
 H541 H 0.64027 0.53886 0.21820
 H542 H 0.59554 0.46013 0.25596
 H543 H 0.59660 0.55603 0.25887
 H544 H 0.64382 0.47608 0.29110
 H545 H 0.61597 0.46323 0.15715
 H546 H 0.62864 0.55070 0.35498
 C547 C 0.86659 0.49289 0.70707
 C548 C 0.88002 0.51026 0.73147
 C549 C 0.89047 0.54008 0.72540
 C550 C 0.88746 0.55275 0.69525
 C551 C 0.87247 0.53546 0.67150
 C552 C 0.86268 0.50542 0.67696
 C553 C 0.88178 0.49757 0.76362
 C554 C 0.89498 0.46881 0.76888
 C555 C 0.89568 0.45615 0.79914
 C556 C 0.88157 0.47217 0.82401
 C557 C 0.86776 0.50068 0.81904
 C558 C 0.86879 0.51363 0.78884
 H559 H 0.85796 0.47019 0.71209
 H560 H 0.90128 0.55328 0.74416
 H561 H 0.90500 0.45640 0.74936
 H562 H 0.85904 0.53593 0.78449
 H563 H 0.86811 0.54501 0.64851
 H564 H 0.88005 0.46218 0.84716
 C565 C 0.21200 0.35914 -0.00237
 C566 C 0.23353 0.37577 0.01590
 C567 C 0.22408 0.38939 0.04421
 C568 C 0.19305 0.38694 0.05392
 C569 C 0.17201 0.36982 0.03563
 C570 C 0.18138 0.35540 0.00778
 C571 C 0.26593 0.37884 0.00526
 C572 C 0.27244 0.39178 -0.02412
 C573 C 0.30323 0.39427 -0.03457
 C574 C 0.32722 0.38240 -0.01578
 C575 C 0.32102 0.36872 0.01332
 C576 C 0.29024 0.36785 0.02409
 H577 H 0.21931 0.34853 -0.02414
 H578 H 0.24058 0.40295 0.05767
 H579 H 0.25341 0.39960 -0.03870
 H580 H 0.28480 0.35836 0.04685
 H581 H 0.14798 0.36835 0.04281
 H582 H 0.35092 0.38353 -0.02404
 C583 C 0.71081 0.14270 1.01091
 C584 C 0.73402 0.13041 0.99192
 C585 C 0.72667 0.12010 0.96147
 C586 C 0.69615 0.12196 0.94965
 C587 C 0.67309 0.13449 0.96923
 C588 C 0.68028 0.14535 0.99951
 C589 C 0.76623 0.12932 1.00381
 C590 C 0.77349 0.11248 1.03085
 C591 C 0.80404 0.11160 1.04257
 C592 C 0.82668 0.13023 1.02819
 C593 C 0.81957 0.14789 1.00145
 C594 C 0.78942 0.14623 0.98879
 H595 H 0.71687 0.15002 1.03451
 H596 H 0.74489 0.11062 0.94702
 H597 H 0.75539 0.09921 1.04205
 H598 H 0.78343 0.15935 0.96805
 H599 H 0.64913 0.13545 0.96171
 H600 H 0.84988 0.13098 1.03762
 C601 C 0.21186 0.63844 0.52488
 C602 C 0.23526 0.62307 0.50867
 C603 C 0.22864 0.60927 0.47954
 C604 C 0.19852 0.61000 0.46695
 C605 C 0.17546 0.62639 0.48295
 C606 C 0.18192 0.64098 0.51174
 C607 C 0.26698 0.62246 0.52181
 C608 C 0.27300 0.60825 0.55070
 C609 C 0.30330 0.60787 0.56322
 C610 C 0.32722 0.62249 0.54670
 C611 C 0.32134 0.63749 0.51819
 C612 C 0.29111 0.63669 0.50553
 H613 H 0.21753 0.64852 0.54746
 H614 H 0.24679 0.59732 0.46711
 H615 H 0.25418 0.59674 0.56254
 H616 H 0.28593 0.64691 0.48299
 H617 H 0.15249 0.62845 0.47271
 H618 H 0.35063 0.62237 0.55624
 C619 C 0.71123 0.87936 0.49282
 C620 C 0.73656 0.89268 0.50868
 C621 C 0.73257 0.90486 0.53893
 C622 C 0.70322 0.90437 0.55314
 C623 C 0.67829 0.89024 0.53724
 C624 C 0.68211 0.87720 0.50735
 C625 C 0.76750 0.89253 0.49401
 C626 C 0.77159 0.90418 0.46364
 C627 C 0.80077 0.90298 0.44919
 C628 C 0.82551 0.88883 0.46502
 C629 C 0.82163 0.87652 0.49517
 C630 C 0.79265 0.87930 0.50987
 H631 H 0.71462 0.87039 0.46936
 H632 H 0.75247 0.91448 0.55115
 H633 H 0.75188 0.91382 0.45135
 H634 H 0.78921 0.87085 0.53347
 H635 H 0.65575 0.88914 0.54833
 H636 H 0.84788 0.88716 0.45368
 C637 C -0.01517 0.20245 0.35181
 C638 C 0.00084 0.22815 0.36353
 C639 C 0.03138 0.22499 0.37491
 C640 C 0.04604 0.19644 0.37424
 C641 C 0.03005 0.17127 0.36151
 C642 C -0.00058 0.17384 0.35064
 C643 C -0.01367 0.25866 0.36217
 C644 C -0.04359 0.26346 0.37401
 C645 C -0.05740 0.29240 0.37240
 C646 C -0.04082 0.31659 0.35845
 C647 C -0.01110 0.31189 0.34603
 C648 C 0.00244 0.28304 0.34848
 H649 H -0.03834 0.20520 0.34227
 H650 H 0.04367 0.24491 0.38369
 H651 H -0.05595 0.24471 0.38490
 H652 H 0.02541 0.27935 0.33905
 H653 H 0.04138 0.14926 0.36055
 H654 H -0.05027 0.33939 0.35842
 C655 C 1.01212 0.69970 0.12895
 C656 C 0.99667 0.72503 0.11649
 C657 C 0.96698 0.72132 0.10317
 C658 C 0.95271 0.69248 0.10216
 C659 C 0.96869 0.66719 0.11451
 C660 C 0.99804 0.67080 0.12878
 C661 C 1.01096 0.75564 0.11916
 C662 C 1.04065 0.76124 0.10702
 C663 C 1.05453 0.79028 0.11021
 C664 C 1.03853 0.81323 0.12648
 C665 C 1.00908 0.80769 0.13926
 C666 C 0.99522 0.77900 0.13487
 H667 H 1.03475 0.70277 0.13989
 H668 H 0.95490 0.74097 0.09380
 H669 H 1.05218 0.74297 0.09471
 H670 H 0.97243 0.77451 0.14447
 H671 H 0.95858 0.64466 0.11236
 H672 H 1.04884 0.83575 0.12844
 C673 C 0.50680 0.20358 0.62474
 C674 C 0.49136 0.22868 0.61178
 C675 C 0.46143 0.22485 0.59907
 C676 C 0.44695 0.19609 0.59909
 C677 C 0.46294 0.17101 0.61192
 C678 C 0.49255 0.17477 0.62558
 C679 C 0.50610 0.25917 0.61313
 C680 C 0.53548 0.26395 0.60006
 C681 C 0.54997 0.29274 0.60217
 C682 C 0.53528 0.31624 0.61888
 C683 C 0.50617 0.31161 0.63270
 C684 C 0.49134 0.28312 0.62888
 H685 H 0.52964 0.20677 0.63515
 H686 H 0.44940 0.24432 0.58925
 H687 H 0.54693 0.24512 0.58849
 H688 H 0.46846 0.27911 0.63831
 H689 H 0.45267 0.14849 0.61052
 H690 H 0.54660 0.33831 0.62114
 C691 C 0.49121 0.70792 0.85607
 C692 C 0.50656 0.73383 0.86830
 C693 C 0.53735 0.73130 0.87917
 C694 C 0.55286 0.70322 0.87754
 C695 C 0.53752 0.67794 0.86426
 C696 C 0.50666 0.67981 0.85397
 C697 C 0.49082 0.76381 0.86869
 C698 C 0.46054 0.76659 0.88037
 C699 C 0.44529 0.79480 0.87979
 C700 C 0.46091 0.82046 0.86772
 C701 C 0.49119 0.81815 0.85632
 C702 C 0.50600 0.78968 0.85676
 H703 H 0.46776 0.71009 0.84709
 H704 H 0.54906 0.75128 0.88857
 H705 H 0.44885 0.74676 0.88992
 H706 H 0.52896 0.78732 0.84693
 H707 H 0.54945 0.65625 0.86275
 H708 H 0.45000 0.84265 0.86801
 C709 C 0.44131 -0.13926 0.33026
 C710 C 0.41477 -0.12542 0.34281
 C711 C 0.40288 -0.09707 0.33407
 C712 C 0.41163 -0.08020 0.30759
 H713 H 0.40336 -0.13564 0.36270
 H714 H 0.38424 -0.08886 0.34863
 H715 H 0.45494 -0.12675 0.31330
 H716 H 0.42602 -0.09102 0.29008
 C717 C 0.94411 0.36601 0.81608
 C718 C 0.93031 0.38394 0.83740
 C719 C 0.91921 0.41519 0.83165
 C720 C 0.90975 0.42554 0.80354
 H721 H 0.92822 0.37599 0.86140
 H722 H 0.91732 0.42941 0.85234
 H723 H 0.94959 0.37464 0.79295
 H724 H 0.91201 0.41109 0.78298
 C725 C 0.05887 1.13929 0.81778
 C726 C 0.07814 1.13761 0.79324
 C727 C 0.09437 1.10896 0.78510
 C728 C 0.10366 1.08903 0.80716
 H729 H 0.08205 1.15719 0.77837
 H730 H 0.09988 1.10525 0.76062
 H731 H 0.05461 1.11885 0.83137
 H732 H 0.10071 1.09501 0.83171
 C733 C 0.55602 0.63876 0.33246
 C734 C 0.57174 0.63652 0.30547
 C735 C 0.58672 0.60775 0.29546
 C736 C 0.59776 0.58728 0.31616
 H737 H 0.57361 0.65590 0.28993
 H738 H 0.58980 0.60446 0.27049
 H739 H 0.55367 0.61877 0.34717
 H740 H 0.59709 0.59275 0.34100
 C741 C 0.56610 0.36354 0.19810
 C742 C 0.55084 0.38716 0.21066
 C743 C 0.56611 0.41670 0.21783
 C744 C 0.58936 0.42800 0.20045
 H745 H 0.52641 0.38548 0.21578
 H746 H 0.55583 0.43057 0.23605
 H747 H 0.59086 0.36579 0.19447
 H748 H 0.59709 0.41537 0.18004
 C749 C 0.05636 0.86748 0.68788
 C750 C 0.08623 0.87267 0.68080
 C751 C 0.10196 0.90253 0.68416
 C752 C 0.09302 0.92470 0.70384
 H753 H 0.09930 0.85515 0.66884
 H754 H 0.12255 0.90579 0.67013
 H755 H 0.04226 0.88586 0.69687
 H756 H 0.07436 0.92053 0.72018
 C757 C 0.93481 0.64305 0.67289
 C758 C 0.91897 0.62477 0.65296
 C759 C 0.90563 0.59463 0.66049
 C760 C 0.90013 0.58393 0.68947
 H761 H 0.91654 0.63127 0.62855
 H762 H 0.90055 0.58072 0.64008
 H763 H 0.93661 0.63748 0.69760
 H764 H 0.90581 0.59790 0.70976
 C765 C 0.45478 0.14079 0.20093
 C766 C 0.43380 0.12231 0.18724
 C767 C 0.42518 0.09239 0.20038
 C768 C 0.40685 0.07367 0.18344
 H769 H 0.42321 0.12887 0.16510
 H770 H 0.43519 0.08528 0.22257
 H771 H 0.46407 0.13508 0.22392
 H772 H 0.39855 0.08157 0.16074
 C773 C 0.32162 0.42902 -0.13143
 C774 C 0.30314 0.44278 -0.11050
 C775 C 0.29362 0.42821 -0.08067
 C776 C 0.31134 0.40787 -0.06536
 H777 H 0.29400 0.46524 -0.11500
 H778 H 0.27260 0.43656 -0.07002
 H779 H 0.32859 0.40571 -0.12701
 H780 H 0.33387 0.40218 -0.07473
 C781 C 0.80775 0.93463 0.34982
 C782 C 0.79682 0.95139 0.37373
 C783 C 0.78954 0.93810 0.40471
 C784 C 0.80597 0.91511 0.41719
 H785 H 0.79353 0.97568 0.37132
 H786 H 0.77229 0.94968 0.41866
 H787 H 0.80978 0.91018 0.35288
 H788 H 0.82548 0.90606 0.40432
 C789 C 0.83007 0.05602 1.12644
 C790 C 0.84979 0.06615 1.10244
 C791 C 0.84132 0.08420 1.07681
 C792 C 0.81097 0.09231 1.06820
 H793 H 0.87431 0.06152 1.10386
 H794 H 0.86045 0.09075 1.06203
 H795 H 0.80631 0.06383 1.12666
 H796 H 0.79177 0.08178 1.08037
 C797 C 0.32421 0.54575 0.64266
 C798 C 0.30072 0.56569 0.64296
 C799 C 0.29114 0.58268 0.61449
 C800 C 0.31150 0.59119 0.59238
 H801 H 0.28798 0.56997 0.66430
 H802 H 0.26722 0.58984 0.61305
 H803 H 0.33583 0.54125 0.62064
 H804 H 0.33590 0.58652 0.59614
 C805 C 0.17181 0.56370 0.37517
 C806 C 0.15448 0.56619 0.40116
 C807 C 0.16382 0.58166 0.43071
 C808 C 0.19174 0.59406 0.43684
 H809 H 0.13131 0.55658 0.40118
 H810 H 0.14608 0.58251 0.44857
 H811 H 0.19560 0.57162 0.37509
 H812 H 0.21050 0.59164 0.42032
 C813 C 0.66830 0.07815 0.85914
 C814 C 0.65190 0.10083 0.87536
 C815 C 0.66153 0.11544 0.90311
 C816 C 0.68956 0.11042 0.91926
 H817 H 0.62952 0.10800 0.86667
 H818 H 0.64524 0.13181 0.91221
 H819 H 0.69206 0.07357 0.86583
 H820 H 0.70754 0.09745 0.90784
 C821 C 0.69102 0.94074 0.65061
 C822 C 0.70757 0.95445 0.62805
 C823 C 0.71558 0.93930 0.59808
 C824 C 0.69765 0.91760 0.58474
 H825 H 0.71575 0.97762 0.63103
 H826 H 0.73500 0.94878 0.58541
 H827 H 0.68560 0.91667 0.64815
 H828 H 0.67651 0.91065 0.59636
 C829 C 0.19598 0.43655 0.15908
 C830 C 0.18244 0.43056 0.13127
 C831 C 0.19757 0.41277 0.10631
 C832 C 0.18079 0.40389 0.08124
 H833 H 0.15900 0.43841 0.12690
 H834 H 0.22185 0.40691 0.10855
 H835 H 0.21845 0.42687 0.16457
 H836 H 0.15616 0.40890 0.08084
 C837 C -0.14745 0.31481 0.42120
 C838 C -0.13685 0.32747 0.39456
 C839 C -0.10733 0.31975 0.37888
 C840 C -0.08816 0.29706 0.38721
 H841 H -0.14909 0.34641 0.38417
 H842 H -0.10131 0.33423 0.35929
 H843 H -0.13430 0.29703 0.43260
 H844 H -0.09492 0.28107 0.40522
 C845 C 0.35335 0.81451 0.92546
 C846 C 0.36294 0.82475 0.89738
 C847 C 0.39341 0.81830 0.88315
 C848 C 0.41374 0.79737 0.89326
 H849 H 0.34926 0.84132 0.88476
 H850 H 0.39919 0.83224 0.86305
 H851 H 0.36811 0.79958 0.93907
 H852 H 0.40737 0.78147 0.91152
 C853 C 1.13551 0.81851 0.05361
 C854 C 1.13234 0.79011 0.06489
 C855 C 1.10336 0.77953 0.08001
 C856 C 1.08489 0.79852 0.09613
 H857 H 1.15086 0.77375 0.06260
 H858 H 1.09819 0.75545 0.07837
 H859 H 1.11609 0.83399 0.05517
 H860 H 1.09236 0.82197 0.09934
 C861 C 0.64504 0.30410 0.56172
 C862 C 0.62029 0.29239 0.54648
 C863 C 0.59111 0.28404 0.56246
 C864 C 0.58063 0.29891 0.58790
 H865 H 0.62064 0.28881 0.52136
 H866 H 0.57655 0.26721 0.55080
 H867 H 0.64418 0.30623 0.58710
 H868 H 0.59387 0.31800 0.59729
 C869 C 0.35337 0.17679 0.55407
 C870 C 0.36425 0.16537 0.58129
 C871 C 0.39537 0.17136 0.59491
 C872 C 0.41548 0.19266 0.58502
 H873 H 0.35076 0.14851 0.59374
 H874 H 0.40159 0.15715 0.61472
 H875 H 0.36773 0.19187 0.54026
 H876 H 0.40870 0.20871 0.56702
 C877 C 0.85887 0.67425 0.05711
 C878 C 0.86982 0.66256 0.08417
 C879 C 0.90121 0.66778 0.09738
 C880 C 0.92131 0.68926 0.08790
 H881 H 0.85599 0.64613 0.09687
 H882 H 0.90748 0.65312 0.11682
 H883 H 0.87352 0.68868 0.04287
 H884 H 0.91440 0.70578 0.07039
 C885 C 0.63353 0.67602 0.93302
 C886 C 0.62694 0.70564 0.92890
 C887 C 0.59788 0.71523 0.91301
 C888 C 0.58477 0.69869 0.88974
 H889 H 0.64129 0.72318 0.93960
 H890 H 0.58675 0.73554 0.92185
 H891 H 0.61697 0.65914 0.92456
 H892 H 0.59701 0.67899 0.88079
 C893 C 0.12968 0.17017 0.42691
 C894 C 0.12161 0.19954 0.42365
 C895 C 0.09178 0.20841 0.40877
 C896 C 0.07799 0.19151 0.38618
 H897 H 0.13559 0.21751 0.43407
 H898 H 0.08086 0.22887 0.41752
 H899 H 0.11370 0.15273 0.41856
 H900 H 0.08983 0.17163 0.37715
 C901 C 0.54171 0.09684 0.67296
 C902 C 0.51085 0.10054 0.67147
 C903 C 0.49503 0.12498 0.65355
 C904 C 0.50934 0.14936 0.64103
 H905 H 0.49585 0.08538 0.68447
 H906 H 0.47000 0.12334 0.65258
 H907 H 0.55686 0.11209 0.66031
 H908 H 0.53407 0.15236 0.64403
 C909 C 1.04294 0.59997 0.18894
 C910 C 1.01602 0.59604 0.17333
 C911 C 1.00001 0.62076 0.15619
 C912 C 1.01456 0.64517 0.14409
 H913 H 1.00426 0.57421 0.17369
 H914 H 0.97517 0.61822 0.15359
 H915 H 1.05423 0.62208 0.18880
 H916 H 1.03947 0.64740 0.14658
 C917 C 0.95949 0.88717 0.18125
 C918 C 0.98854 0.87891 0.18876
 C919 C 1.00559 0.85478 0.17183
 C920 C 0.99172 0.83164 0.15628
 H921 H 1.00121 0.89064 0.20723
 H922 H 1.03062 0.85557 0.17379
 H923 H 0.94763 0.87557 0.16208
 H924 H 0.96677 0.82906 0.15721
 C925 C 0.46551 0.38610 0.69316
 C926 C 0.45394 0.35789 0.68883
 C927 C 0.47016 0.33292 0.67248
 C928 C 0.49169 0.33716 0.65026
 H929 H 0.43172 0.35197 0.69888
 H930 H 0.46257 0.31012 0.67839
 H931 H 0.48903 0.39131 0.68615
 H932 H 0.49926 0.36009 0.64466
 C933 C 0.45903 0.60000 0.80790
 C934 C 0.44699 0.61749 0.83070
 C935 C 0.46131 0.64635 0.84192
 C936 C 0.49185 0.65202 0.84055
 H937 H 0.42483 0.61141 0.84076
 H938 H 0.44627 0.66225 0.85386
 H939 H 0.47946 0.60767 0.79551
 H940 H 0.50713 0.63463 0.83142
 C941 C -0.04880 0.09687 0.30086
 C942 C -0.06133 0.11394 0.32371
 C943 C -0.04656 0.14196 0.33646
 C944 C -0.01578 0.14641 0.33693
 H945 H -0.08421 0.10840 0.33237
 H946 H -0.06164 0.15835 0.34760
 H947 H -0.02748 0.10425 0.28988
 H948 H -0.00075 0.12844 0.32859
 C949 C 0.03931 0.39448 0.31226
 C950 C 0.01198 0.38459 0.30078
 C951 C -0.00615 0.35989 0.31566
 C952 C 0.00700 0.33691 0.33159
 H953 H 0.00128 0.39619 0.28110
 H954 H -0.03099 0.35992 0.31172
 H955 H 0.04826 0.38484 0.33391
 H956 H 0.03205 0.33524 0.33259
 C957 C 0.54090 0.89423 0.80778
 C958 C 0.55199 0.87837 0.83230
 C959 C 0.53697 0.85051 0.84450
 C960 C 0.50625 0.84570 0.84320
 H961 H 0.57411 0.88469 0.84275
 H962 H 0.55172 0.83448 0.85677
 H963 H 0.52057 0.88598 0.79517
 H964 H 0.49129 0.86332 0.83386
 C965 C 0.67918 0.54893 0.10615
 C966 C 0.66435 0.56379 0.13126
 C967 C 0.64960 0.54919 0.15627
 C968 C 0.64172 0.51810 0.15715
 H969 H 0.66575 0.58829 0.13357
 H970 H 0.64253 0.56402 0.17523
 H971 H 0.68130 0.52435 0.10720
 H972 H 0.64400 0.50470 0.13586
 C973 C 0.17525 1.03876 0.59341
 C974 C 0.18054 1.01000 0.60269
 C975 C 0.16401 0.99549 0.62916
 C976 C 0.15225 1.01127 0.65341
 H977 H 0.19712 0.99592 0.59059
 H978 H 0.16375 0.97081 0.62954
 H979 H 0.15754 1.05180 0.60525
 H980 H 0.15554 1.03575 0.65453
 C981 C 0.18346 0.96257 0.90126
 C982 C 0.18423 0.99460 0.89930
 C983 C 0.17049 1.01128 0.87483
 C984 C 0.16084 0.99854 0.84596
 H985 H 0.19432 1.00800 0.91817
 H986 H 0.16945 1.03568 0.87834
 H987 H 0.16881 0.95040 0.88457
 H988 H 0.16690 0.97509 0.84102
 C989 C 0.67869 0.46071 0.40718
 C990 C 0.68788 0.48855 0.39802
 C991 C 0.67092 0.50657 0.37417
 C992 C 0.65468 0.49377 0.35046
 H993 H 0.70761 0.49947 0.40931
 H994 H 0.67393 0.53109 0.37512
 H995 H 0.65712 0.45136 0.39801
 H996 H 0.65458 0.46918 0.34777
 C997 C 0.81107 0.45112 0.60376
 C998 C 0.83498 0.44092 0.62111
 C999 C 0.84849 0.45785 0.64813
 C1000 C 0.84752 0.48832 0.65085
 H1001 H 0.84428 0.41845 0.61660
 H1002 H 0.86156 0.44464 0.66508
 H1003 H 0.79969 0.47214 0.61033
 H1004 H 0.83713 0.50160 0.63214
 C1005 C 0.32428 -0.05289 0.09717
 C1006 C 0.35317 -0.04171 0.09427
 C1007 C 0.36921 -0.02409 0.11936
 C1008 C 0.36332 -0.02718 0.15016
 H1009 H 0.36534 -0.04380 0.07227
 H1010 H 0.38719 -0.00852 0.11179
 H1011 H 0.31233 -0.05007 0.11928
 H1012 H 0.34777 -0.04506 0.15793
 C1013 C 0.31755 0.04239 0.39226
 C1014 C 0.31866 0.05054 0.36183
 C1015 C 0.33603 0.03413 0.33714
 C1016 C 0.35852 0.01374 0.34264
 H1017 H 0.30549 0.06994 0.35373
 H1018 H 0.32927 0.03930 0.31321
 H1019 H 0.33099 0.02330 0.40064
 H1020 H 0.36509 0.00831 0.36655
 C1021 C 0.81206 0.54186 0.89815
 C1022 C 0.81212 0.55098 0.86799
 C1023 C 0.82902 0.53593 0.84212
 C1024 C 0.85218 0.51589 0.84588
 H1025 H 0.79849 0.57049 0.86101
 H1026 H 0.82148 0.54213 0.81871
 H1027 H 0.82611 0.52277 0.90549
 H1028 H 0.85944 0.50932 0.86928
 C1029 C 0.10880 0.70199 0.55153
 C1030 C 0.13515 0.69408 0.56630
 C1031 C 0.16093 0.67823 0.55072
 C1032 C 0.15658 0.65816 0.52715
 H1033 H 0.13882 0.70050 0.59067
 H1034 H 0.18376 0.68246 0.56044
 H1035 H 0.10648 0.69863 0.52636
 H1036 H 0.13323 0.65404 0.51848
 C1037 C 0.60572 0.19609 1.05019
 C1038 C 0.63460 0.19159 1.06120
 C1039 C 0.65984 0.17828 1.04242
 C1040 C 0.65499 0.15866 1.01856
 H1041 H 0.64093 0.19955 1.08452
 H1042 H 0.68315 0.18459 1.04944
 H1043 H 0.60027 0.19123 1.02577
 H1044 H 0.63145 0.15245 1.01205
 C1045 C 0.89640 0.19295 0.95240
 C1046 C 0.89390 0.19104 0.98526
 C1047 C 0.86990 0.17578 1.00076
 C1048 C 0.84177 0.16655 0.98663
 H1049 H 0.91237 0.19946 1.00030
 H1050 H 0.87331 0.17262 1.02574
 H1051 H 0.87930 0.18075 0.93834
 H1052 H 0.83580 0.17563 0.96374
 C1053 C 0.39824 0.69226 0.47452
 C1054 C 0.36938 0.68886 0.46298
 C1055 C 0.34360 0.67463 0.48027
 C1056 C 0.34749 0.65288 0.50205
 H1057 H 0.36360 0.69823 0.44016
 H1058 H 0.32062 0.68177 0.47333
 H1059 H 0.40338 0.68601 0.49862
 H1060 H 0.37075 0.64600 0.50856
 C1061 C 0.60314 0.82224 0.46498
 C1062 C 0.63278 0.82222 0.45545
 C1063 C 0.65855 0.83917 0.47078
 C1064 C 0.65527 0.86156 0.49212
 H1065 H 0.63931 0.80864 0.43531
 H1066 H 0.68150 0.83225 0.46373
 H1067 H 0.59623 0.83626 0.48465
 H1068 H 0.63242 0.86815 0.49978
 C1069 C 0.10201 0.31384 -0.04509
 C1070 C 0.11292 0.30384 -0.01741
 C1071 C 0.13642 0.32076 0.00122
 C1072 C 0.15908 0.33758 -0.01163
 H1073 H 0.10235 0.28420 -0.00637
 H1074 H 0.13549 0.31825 0.02652
 H1075 H 0.11048 0.33532 -0.05429
 H1076 H 0.16211 0.33749 -0.03690
 C1077 C 0.39942 0.31896 0.06119
 C1078 C 0.36953 0.31834 0.06994
 C1079 C 0.34380 0.33315 0.05264
 C1080 C 0.34729 0.35553 0.03145
 H1081 H 0.36275 0.30552 0.09045
 H1082 H 0.32088 0.32462 0.05797
 H1083 H 0.40630 0.33198 0.04083
 H1084 H 0.37026 0.36392 0.02602
 C1085 C 0.89998 0.82448 0.54178
 C1086 C 0.86960 0.82225 0.54827
 C1087 C 0.84439 0.83900 0.53219
 C1088 C 0.84820 0.86092 0.51055
 H1089 H 0.86200 0.80734 0.56692
 H1090 H 0.82123 0.83216 0.53883
 H1091 H 0.90803 0.84022 0.52410
 H1092 H 0.87117 0.86707 0.50273
   
