data_POSCAR
  _audit_creation_date              2014-09-24
  _audit_creation_method            'ToBaCCo'
  _symmetry_space_group_name_H-M    'P1'
  _symmetry_Int_Tables_number       1
  _symmetry_cell_setting            triclinic
  loop_
  _symmetry_equiv_pos_as_xyz
 x,y,z
_cell_length_a 69.0941
_cell_length_b 69.0117
_cell_length_c 23.4693
_cell_angle_alpha 89.927400
_cell_angle_beta 90.028300
_cell_angle_gamma 119.956100
loop_
  _atom_site_label
  _atom_site_type_symbol
  _atom_site_fract_x
  _atom_site_fract_y
  _atom_site_fract_z
O1 O 0.22173 0.48043 0.44564
 O2 O 0.26000 0.48086 0.55510
 O3 O 0.22205 0.48047 0.55591
 O4 O 0.25970 0.48085 0.44505
 O5 O 0.27794 0.51774 0.44464
 O6 O 0.24006 0.51735 0.55596
 O7 O 0.27812 0.51771 0.55544
 O8 O 0.23984 0.51731 0.44501
 Cu9 Cu 0.23905 0.47698 0.50044
 Cu10 Cu 0.26080 0.52124 0.50025
 C11 C 0.22407 0.49875 0.42690
 C12 C 0.27582 0.49930 0.57366
 C13 C 0.22441 0.49880 0.57454
 C14 C 0.27544 0.49930 0.42635
 O15 O 0.51890 -0.22183 0.55621
 O16 O 0.51856 -0.25998 0.44662
 O17 O 0.51890 -0.22203 0.44595
 O18 O 0.51850 -0.25986 0.55667
 O19 O 0.48169 -0.27809 0.55694
 O20 O 0.48206 -0.24014 0.44560
 O21 O 0.48172 -0.27822 0.44619
 O22 O 0.48210 -0.23995 0.55657
 Cu23 Cu 0.52238 -0.23910 0.50139
 Cu24 Cu 0.47819 -0.26090 0.50135
 C25 C 0.50060 -0.22412 0.57488
 C26 C 0.50014 -0.27580 0.42809
 C27 C 0.50059 -0.22443 0.42713
 C28 C 0.50008 -0.27570 0.57532
 O29 O 1.25844 0.77794 0.44522
 O30 O 1.22052 0.73994 0.55502
 O31 O 1.25823 0.77773 0.55543
 O32 O 1.22068 0.74020 0.44480
 O33 O 1.23898 0.72161 0.44450
 O34 O 1.27676 0.75937 0.55567
 O35 O 1.23888 0.72145 0.55548
 O36 O 1.27689 0.75950 0.44476
 Cu37 Cu 1.23763 0.76078 0.50012
 Cu38 Cu 1.25972 0.73862 0.50011
 C39 C 1.27429 0.77541 0.42655
 C40 C 1.22298 0.72401 0.57382
 C41 C 1.27408 0.77519 0.57409
 C42 C 1.22320 0.72434 0.42607
 O43 O 0.77810 0.51840 0.44560
 O44 O 0.74010 0.51864 0.55484
 O45 O 0.77775 0.51841 0.55565
 O46 O 0.74051 0.51872 0.44462
 O47 O 0.72181 0.48184 0.44438
 O48 O 0.75929 0.48152 0.55598
 O49 O 0.72152 0.48180 0.55536
 O50 O 0.75955 0.48151 0.44520
 Cu51 Cu 0.76095 0.52221 0.50019
 Cu52 Cu 0.73865 0.47796 0.50024
 C53 C 0.77554 0.49997 0.42714
 C54 C 0.72413 0.50031 0.57356
 C55 C 0.77515 0.49998 0.57431
 C56 C 0.72464 0.50039 0.42584
 O57 O 0.48019 0.25814 0.44721
 O58 O 0.48185 0.22125 0.55855
 O59 O 0.48114 0.25856 0.55737
 O60 O 0.48054 0.22042 0.44784
 O61 O 0.51733 0.23958 0.44325
 O62 O 0.51798 0.27701 0.55637
 O63 O 0.51860 0.23919 0.55323
 O64 O 0.51701 0.27720 0.44540
 Cu65 Cu 0.47726 0.23770 0.50293
 Cu66 Cu 0.52144 0.26017 0.49947
 C67 C 0.49831 0.27419 0.42787
 C68 C 0.50053 0.22356 0.57411
 C69 C 0.49960 0.27439 0.57547
 C70 C 0.49876 0.22331 0.42698
 O71 O 0.73969 0.22156 0.44611
 O72 O 0.77791 0.25990 0.55492
 O73 O 0.74012 0.22211 0.55628
 O74 O 0.77749 0.25934 0.44485
 O75 O 0.75921 0.27796 0.44434
 O76 O 0.72160 0.24047 0.55609
 O77 O 0.75951 0.27835 0.55514
 O78 O 0.72131 0.24007 0.44529
 Cu79 Cu 0.76063 0.23888 0.50057
 Cu80 Cu 0.73856 0.26107 0.50018
 C81 C 0.72380 0.22406 0.42749
 C82 C 0.77552 0.27590 0.57330
 C83 C 0.72428 0.22468 0.57477
 C84 C 0.77499 0.27522 0.42604
 O85 O 0.96885 0.51756 -0.10531
 O86 O 0.94415 0.48770 -0.05127
 C87 C 0.94873 0.50243 -0.09104
 O88 O 1.03138 0.48014 -0.10110
 O89 O 1.05595 0.51077 -0.04924
 C90 C 1.05148 0.49530 -0.08669
 O91 O 0.96897 0.45104 -0.10748
 O92 O 0.94418 0.45545 -0.05181
 C93 C 0.94880 0.44574 -0.09261
 O94 O 1.03140 0.55051 -0.09996
 O95 O 1.05603 0.54414 -0.04907
 C96 C 1.05153 0.55533 -0.08600
 Zr97 Zr 1.00008 0.52398 -0.07257
 O98 O 1.00228 0.52614 -0.16259
 O99 O 0.99908 0.55402 -0.06631
 Zr100 Zr 1.00005 0.47486 -0.07224
 O101 O 1.00203 0.47338 -0.16181
 O102 O 0.99741 0.44300 -0.06592
 O103 O 0.98025 0.48954 -0.08387
 O104 O 1.01936 0.50909 -0.08318
 O105 O 1.03134 0.55054 0.09745
 O106 O 1.05601 0.54412 0.04698
 C107 C 1.05148 0.55535 0.08363
 O108 O 0.96896 0.45108 0.10574
 O109 O 0.94418 0.45546 0.04983
 C110 C 0.94880 0.44577 0.09075
 O111 O 1.03135 0.48016 0.09955
 O112 O 1.05596 0.51076 0.04751
 C113 C 1.05147 0.49530 0.08513
 O114 O 0.96882 0.51770 0.10280
 O115 O 0.94412 0.48771 0.04928
 C116 C 0.94869 0.50251 0.08881
 Zr117 Zr 1.00002 0.52394 0.07051
 O118 O 1.00242 0.52536 0.16055
 O119 O 0.99798 0.55354 0.06905
 Zr120 Zr 1.00004 0.47486 0.07049
 O121 O 1.00198 0.47337 0.16008
 O122 O 0.99740 0.44300 0.06443
 Zr123 Zr 0.96654 0.48270 -0.00098
 Zr124 Zr 1.03340 0.51613 -0.00096
 O125 O 1.01934 0.50908 0.08127
 O126 O 0.98020 0.48951 0.08195
 O127 O 1.02011 0.53774 -0.00109
 O128 O 0.98028 0.46150 -0.00086
 O129 O 0.98042 0.51764 -0.00112
 O130 O 1.02023 0.48120 -0.00085
 H131 H 1.02924 0.51411 -0.11706
 H132 H 0.96986 0.44513 -0.00084
 H133 H 1.02925 0.51411 0.11508
 H134 H 0.97030 0.52395 -0.00116
 H135 H 1.01172 0.44516 -0.05070
 H136 H 1.01173 0.44516 0.04948
 H137 H 0.99726 0.48363 0.17572
 H138 H 0.98947 0.51166 0.17588
 H139 H 1.00926 0.56388 0.04148
 H140 H 0.99910 0.55898 -0.10597
 H141 H 0.99010 0.51193 -0.17809
 H142 H 0.99732 0.48366 -0.17755
 O143 O 0.51790 0.54868 -0.10626
 O144 O 0.48821 0.54371 -0.05186
 C145 C 0.50281 0.55374 -0.09191
 O146 O 0.48051 0.44864 -0.10001
 O147 O 0.51131 0.45482 -0.04860
 C148 C 0.49574 0.44373 -0.08574
 O149 O 0.45132 0.48191 -0.10637
 O150 O 0.45601 0.51145 -0.05162
 C151 C 0.44610 0.49689 -0.09185
 O152 O 0.55083 0.51907 -0.10104
 O153 O 0.54471 0.48826 -0.04946
 C154 C 0.55575 0.50382 -0.08682
 Zr155 Zr 0.52442 0.52394 -0.07315
 O156 O 0.52616 0.52374 -0.16321
 O157 O 0.55444 0.55493 -0.06722
 Zr158 Zr 0.47544 0.47490 -0.07171
 O159 O 0.47282 0.47138 -0.16130
 O160 O 0.44463 0.44496 -0.06147
 O161 O 0.49000 0.50933 -0.08392
 O162 O 0.50959 0.48970 -0.08310
 O163 O 0.55117 0.51933 0.09756
 O164 O 0.54486 0.48833 0.04679
 C165 C 0.55602 0.50402 0.08362
 O166 O 0.45099 0.48176 0.10357
 O167 O 0.45607 0.51159 0.04932
 C168 C 0.44598 0.49690 0.08921
 O169 O 0.48054 0.44881 0.09887
 O170 O 0.51138 0.45492 0.04777
 C171 C 0.49574 0.44384 0.08487
 O172 O 0.51785 0.54851 0.10418
 O173 O 0.48834 0.54381 0.04936
 C174 C 0.50286 0.55371 0.08967
 Zr175 Zr 0.52483 0.52436 0.06970
 O176 O 0.52813 0.52544 0.15934
 O177 O 0.55419 0.55606 0.06378
 Zr178 Zr 0.47585 0.47538 0.07122
 O179 O 0.47717 0.47427 0.16127
 O180 O 0.44420 0.44585 0.07075
 Zr181 Zr 0.48337 0.51643 -0.00112
 Zr182 Zr 0.51680 0.48290 -0.00090
 O183 O 0.51002 0.49019 0.08128
 O184 O 0.49043 0.50984 0.08185
 O185 O 0.53840 0.51778 -0.00180
 O186 O 0.46229 0.48150 -0.00041
 O187 O 0.51825 0.53752 -0.00183
 O188 O 0.48194 0.46131 -0.00015
 H189 H 0.51455 0.48469 -0.11678
 H190 H 0.44590 0.47534 -0.00046
 H191 H 0.51506 0.48527 0.11505
 H192 H 0.52438 0.55393 -0.00186
 H193 H 0.43898 0.43965 -0.10045
 H194 H 0.44522 0.43511 0.04477
 H195 H 0.47776 0.48794 0.17636
 H196 H 0.51284 0.51732 0.17511
 H197 H 0.56525 0.55417 0.04130
 H198 H 0.55933 0.55981 -0.10693
 H199 H 0.51155 0.52084 -0.17811
 H200 H 0.48681 0.48364 -0.17731
 O201 O 0.48088 0.03021 0.10288
 O202 O 0.51084 0.05508 0.04945
 C203 C 0.49601 0.05040 0.08894
 O204 O 0.51866 -0.03213 0.09895
 O205 O 0.48803 -0.05676 0.04714
 C206 C 0.50353 -0.05226 0.08455
 O207 O 0.54762 0.03026 0.10562
 O208 O 0.54311 0.05514 0.05032
 C209 C 0.55287 0.05047 0.09097
 O210 O 0.44820 -0.03227 0.09740
 O211 O 0.45475 -0.05684 0.04679
 C212 C 0.44348 -0.05239 0.08356
 Zr213 Zr 0.47462 -0.00093 0.06992
 O214 O 0.47235 -0.00300 0.15992
 O215 O 0.44458 -0.00005 0.06263
 Zr216 Zr 0.52372 -0.00082 0.07047
 O217 O 0.52592 -0.00193 0.16014
 O218 O 0.55464 0.00020 0.06119
 O219 O 0.50898 0.01892 0.08186
 O220 O 0.48953 -0.02022 0.08085
 O221 O 0.44873 -0.03206 -0.10110
 O222 O 0.45488 -0.05677 -0.04967
 C223 C 0.44384 -0.05222 -0.08692
 O224 O 0.54886 0.03072 -0.10449
 O225 O 0.54337 0.05531 -0.05087
 C226 C 0.55367 0.05082 -0.09033
 O227 O 0.51933 -0.03188 -0.09997
 O228 O 0.48823 -0.05662 -0.04971
 C229 C 0.50399 -0.05206 -0.08634
 O230 O 0.48269 0.03055 -0.10899
 O231 O 0.51102 0.05530 -0.05090
 C232 C 0.49720 0.05069 -0.09291
 Zr233 Zr 0.47495 -0.00067 -0.07296
 O234 O 0.47183 -0.00303 -0.16263
 O235 O 0.44570 0.00189 -0.06832
 Zr236 Zr 0.52400 -0.00060 -0.07238
 O237 O 0.52329 -0.00287 -0.16243
 O238 O 0.55567 0.00159 -0.07025
 Zr239 Zr 0.51598 0.03279 -0.00084
 Zr240 Zr 0.48272 -0.03414 -0.00138
 O241 O 0.48987 -0.01997 -0.08354
 O242 O 0.50941 0.01925 -0.08388
 O243 O 0.46104 -0.02094 -0.00167
 O244 O 0.53716 0.01904 -0.00061
 O245 O 0.48109 0.01893 -0.00146
 O246 O 0.51759 -0.02084 -0.00096
 H247 H 0.48447 -0.03021 0.11456
 H248 H 0.55354 0.02932 -0.00013
 H249 H 0.48499 -0.02986 -0.11738
 H250 H 0.47494 0.02919 -0.00191
 H251 H 0.56013 0.00046 0.10034
 H252 H 0.55441 -0.01045 -0.04487
 H253 H 0.52219 0.00991 -0.17773
 H254 H 0.48714 0.00426 -0.17823
 H255 H 0.43446 -0.01112 -0.04627
 H256 H 0.43944 -0.00018 0.10212
 H257 H 0.48689 0.00864 0.17530
 H258 H 0.51206 -0.00320 0.17569
 C259 C 1.17531 0.49753 0.31018
 C260 C 1.19465 0.51784 0.32350
 C261 C 1.21073 0.51826 0.36060
 C262 C 1.20787 0.49836 0.38484
 C263 C 1.18883 0.47801 0.37030
 C264 C 1.17273 0.47761 0.33358
 C265 C 1.15757 0.49705 0.27359
 N266 N 1.13752 0.47799 0.26840
 N267 N 1.12127 0.47758 0.23702
 C268 C 1.12435 0.49620 0.20930
 N269 N 1.14445 0.51525 0.21417
 N270 N 1.16070 0.51568 0.24575
 C271 C 1.10596 0.49576 0.17570
 C272 C 1.10976 0.51386 0.14063
 C273 C 1.09218 0.51355 0.11025
 C274 C 1.07037 0.49521 0.11471
 C275 C 1.06665 0.47703 0.14926
 C276 C 1.08423 0.47726 0.17920
 H277 H 1.19719 0.53349 0.30617
 H278 H 1.22524 0.53420 0.37083
 H279 H 1.18610 0.46237 0.38819
 H280 H 1.15812 0.46165 0.32402
 H281 H 1.12631 0.52834 0.13680
 H282 H 1.09562 0.52785 0.08405
 H283 H 1.05008 0.46260 0.15351
 H284 H 1.08067 0.46303 0.20582
 C285 C 0.50061 0.67573 0.31346
 C286 C 0.48047 0.67522 0.32621
 C287 C 0.48030 0.69121 0.36253
 C288 C 0.50028 0.70815 0.38647
 C289 C 0.52045 0.70901 0.37234
 C290 C 0.52061 0.69298 0.33647
 C291 C 0.50084 0.65807 0.27803
 N292 N 0.51957 0.65639 0.27469
 N293 N 0.51978 0.64022 0.24435
 C294 C 0.50128 0.62502 0.21585
 N295 N 0.48255 0.62674 0.21886
 N296 N 0.48232 0.64289 0.24944
 C297 C 0.50157 0.60683 0.18300
 C298 C 0.48410 0.59335 0.14549
 C299 C 0.48456 0.57622 0.11472
 C300 C 0.50240 0.57205 0.12128
 C301 C 0.51980 0.58550 0.15893
 C302 C 0.51944 0.60272 0.18919
 H303 H 0.46477 0.66218 0.30917
 H304 H 0.46448 0.69012 0.37249
 H305 H 0.53615 0.72182 0.39002
 H306 H 0.53645 0.69398 0.32729
 H307 H 0.47011 0.59610 0.13965
 H308 H 0.47087 0.56616 0.08612
 H309 H 0.53382 0.58280 0.16501
 H310 H 0.53314 0.61269 0.21788
 C311 C 0.32188 -0.17604 0.30940
 C312 C 0.30462 -0.17335 0.33258
 C313 C 0.28892 -0.18937 0.36947
 C314 C 0.29014 -0.20845 0.38443
 C315 C 0.30715 -0.21140 0.36049
 C316 C 0.32281 -0.19540 0.32322
 C317 C 0.33912 -0.15837 0.27251
 N318 N 0.35466 -0.16155 0.24521
 N319 N 0.37046 -0.14536 0.21338
 C320 C 0.37141 -0.12529 0.20769
 N321 N 0.35583 -0.12218 0.23486
 N322 N 0.34003 -0.13837 0.26648
 C323 C 0.38936 -0.10693 0.17391
 C324 C 0.39241 -0.08523 0.17648
 C325 C 0.40976 -0.06765 0.14654
 C326 C 0.42443 -0.07134 0.11288
 C327 C 0.42114 -0.09313 0.10932
 C328 C 0.40386 -0.11071 0.13972
 H329 H 0.30331 -0.15871 0.32270
 H330 H 0.27605 -0.18656 0.38714
 H331 H 0.30852 -0.22594 0.37108
 H332 H 0.33588 -0.19801 0.30612
 H333 H 0.38160 -0.08168 0.20242
 H334 H 0.41176 -0.05111 0.15014
 H335 H 0.43217 -0.09654 0.08387
 H336 H 0.40194 -0.12724 0.13663
 C337 C 0.82456 0.50050 0.31263
 C338 C 0.82730 0.52051 0.33568
 C339 C 0.81109 0.52033 0.37155
 C340 C 0.79179 0.50013 0.38563
 C341 C 0.78878 0.48014 0.36172
 C342 C 0.80496 0.48033 0.32541
 C343 C 0.84243 0.50075 0.27704
 N344 N 0.83910 0.48218 0.24862
 N345 N 0.85545 0.48242 0.21786
 C346 C 0.87584 0.50121 0.21447
 N347 N 0.87911 0.51976 0.24279
 N348 N 0.86277 0.51954 0.27332
 C349 C 0.89429 0.50150 0.18146
 C350 C 0.91621 0.51951 0.18703
 C351 C 0.93377 0.51981 0.15687
 C352 C 0.92986 0.50220 0.11994
 C353 C 0.90790 0.48426 0.11387
 C354 C 0.89033 0.48386 0.14453
 H355 H 0.84211 0.53637 0.32651
 H356 H 0.81395 0.53604 0.38922
 H357 H 0.77407 0.46429 0.37165
 H358 H 0.80231 0.46462 0.30837
 H359 H 0.91991 0.53334 0.21522
 H360 H 0.95045 0.53391 0.16255
 H361 H 0.90430 0.47042 0.08580
 H362 H 0.87364 0.46977 0.13914
 C363 C 0.49665 0.32144 0.31053
 C364 C 0.47684 0.30439 0.33500
 C365 C 0.47732 0.28875 0.37199
 C366 C 0.49765 0.28985 0.38571
 C367 C 0.51741 0.30662 0.36044
 C368 C 0.51691 0.32219 0.32313
 C369 C 0.49621 0.33867 0.27353
 N370 N 0.51483 0.35395 0.24542
 N371 N 0.51453 0.36981 0.21359
 C372 C 0.49561 0.37110 0.20865
 N373 N 0.47699 0.35577 0.23659
 N374 N 0.47727 0.33989 0.26826
 C375 C 0.49539 0.38918 0.17490
 C376 C 0.47695 0.39254 0.17770
 C377 C 0.47699 0.41009 0.14789
 C378 C 0.49539 0.42464 0.11416
 C379 C 0.51366 0.42103 0.11034
 C380 C 0.51370 0.40355 0.14058
 H381 H 0.46092 0.30323 0.32605
 H382 H 0.46180 0.27605 0.39072
 H383 H 0.53334 0.30790 0.36999
 H384 H 0.53248 0.33507 0.30504
 H385 H 0.46257 0.38183 0.20370
 H386 H 0.46260 0.41231 0.15164
 H387 H 0.52813 0.43195 0.08482
 H388 H 0.52814 0.40140 0.13729
 C389 C 0.67521 0.17482 0.31361
 C390 C 0.67476 0.19453 0.32591
 C391 C 0.69079 0.21078 0.36196
 C392 C 0.70771 0.20774 0.38613
 C393 C 0.70852 0.18833 0.37249
 C394 C 0.69244 0.17205 0.33685
 C395 C 0.65750 0.15688 0.27837
 N396 N 0.65580 0.13644 0.27518
 N397 N 0.63958 0.12005 0.24502
 C398 C 0.62437 0.12337 0.21654
 N399 N 0.62612 0.14386 0.21939
 N400 N 0.64232 0.16025 0.24979
 C401 C 0.60611 0.10487 0.18389
 C402 C 0.59250 0.10886 0.14675
 C403 C 0.57530 0.09126 0.11621
 C404 C 0.57119 0.06926 0.12263
 C405 C 0.58478 0.06530 0.15988
 C406 C 0.60207 0.08288 0.18991
 H407 H 0.66174 0.19722 0.30869
 H408 H 0.68973 0.22557 0.37153
 H409 H 0.72132 0.18544 0.39035
 H410 H 0.69340 0.15716 0.32804
 H411 H 0.59519 0.12560 0.14101
 H412 H 0.56514 0.09489 0.08787
 H413 H 0.58216 0.04859 0.16574
 H414 H 0.61216 0.07916 0.21827
 C415 C 0.50185 0.17596 -0.31448
 C416 C 0.48212 0.17678 -0.32166
 C417 C 0.48166 0.19260 -0.35813
 C418 C 0.50116 0.20843 -0.38675
 C419 C 0.52115 0.20812 -0.37719
 C420 C 0.52136 0.19178 -0.34232
 C421 C 0.50187 0.15808 -0.28012
 N422 N 0.51266 0.14743 -0.29908
 N423 N 0.51209 0.13072 -0.26923
 C424 C 0.50099 0.12426 -0.21886
 N425 N 0.49038 0.13506 -0.19956
 N426 N 0.49065 0.15154 -0.22988
 C427 C 0.50010 0.10553 -0.18642
 C428 C 0.50243 0.10671 -0.12690
 C429 C 0.50186 0.08899 -0.09642
 C430 C 0.49816 0.06953 -0.12486
 C431 C 0.49551 0.06825 -0.18428
 C432 C 0.49684 0.08626 -0.21492
 H433 H 0.46686 0.16467 -0.30065
 H434 H 0.46598 0.19234 -0.36397
 H435 H 0.53651 0.21995 -0.39831
 H436 H 0.53678 0.19148 -0.33710
 H437 H 0.50506 0.12148 -0.10416
 H438 H 0.50393 0.09030 -0.05057
 H439 H 0.49278 0.05346 -0.20708
 H440 H 0.49492 0.08499 -0.26080
 C441 C 0.67733 0.50141 -0.31150
 C442 C 0.69547 0.52141 -0.33180
 C443 C 0.71117 0.52104 -0.36855
 C444 C 0.70908 0.50061 -0.38653
 C445 C 0.69116 0.48058 -0.36511
 C446 C 0.67554 0.48099 -0.32794
 C447 C 0.66011 0.50194 -0.27486
 N448 N 0.64414 0.48313 -0.24874
 N449 N 0.62835 0.48360 -0.21714
 C450 C 0.62781 0.50289 -0.21053
 N451 N 0.64382 0.52169 -0.23652
 N452 N 0.65963 0.52123 -0.26790
 C453 C 0.60987 0.50337 -0.17698
 C454 C 0.60680 0.52202 -0.17987
 C455 C 0.58942 0.52225 -0.15010
 C456 C 0.57478 0.50392 -0.11624
 C457 C 0.57808 0.48544 -0.11238
 C458 C 0.59537 0.48512 -0.14265
 H459 H 0.69747 0.53745 -0.31970
 H460 H 0.72472 0.53686 -0.38368
 H461 H 0.68897 0.46449 -0.37759
 H462 H 0.66178 0.46527 -0.31304
 H463 H 0.61762 0.53635 -0.20596
 H464 H 0.58740 0.53678 -0.15392
 H465 H 0.56708 0.47102 -0.08677
 H466 H 0.59730 0.47053 -0.13929
 C467 C 0.82392 0.32369 -0.31456
 C468 C 0.80505 0.32514 -0.33023
 C469 C 0.78881 0.30915 -0.36636
 C470 C 0.79097 0.29120 -0.38740
 C471 C 0.80954 0.28942 -0.36994
 C472 C 0.82582 0.30550 -0.33430
 C473 C 0.84194 0.34136 -0.27945
 N474 N 0.86207 0.34247 -0.27485
 N475 N 0.87856 0.35867 -0.24485
 C476 C 0.87564 0.37443 -0.21795
 N477 N 0.85546 0.37326 -0.22219
 N478 N 0.83898 0.35710 -0.25246
 C479 C 0.89423 0.39264 -0.18545
 C480 C 0.89038 0.40633 -0.14826
 C481 C 0.90804 0.42345 -0.11773
 C482 C 0.92997 0.42745 -0.12426
 C483 C 0.93379 0.41381 -0.16164
 C484 C 0.91614 0.39657 -0.19161
 H485 H 0.80306 0.33893 -0.31569
 H486 H 0.77475 0.31112 -0.37844
 H487 H 0.81185 0.27586 -0.38478
 H488 H 0.84004 0.30375 -0.32268
 H489 H 0.87370 0.40372 -0.14242
 H490 H 0.90450 0.43364 -0.08929
 H491 H 0.95045 0.41637 -0.16763
 H492 H 0.91973 0.38642 -0.22007
 C493 C 0.50176 -0.17618 -0.31025
 C494 C 0.48136 -0.19475 -0.32672
 C495 C 0.48092 -0.21082 -0.36384
 C496 C 0.50093 -0.20878 -0.38517
 C497 C 0.52134 -0.19049 -0.36711
 C498 C 0.52173 -0.17439 -0.33041
 C499 C 0.50230 -0.15839 -0.27375
 N500 N 0.52157 -0.13864 -0.26679
 N501 N 0.52202 -0.12234 -0.23553
 C502 C 0.50323 -0.12507 -0.20967
 N503 N 0.48397 -0.14487 -0.21630
 N504 N 0.48350 -0.16117 -0.24778
 C505 C 0.50370 -0.10663 -0.17621
 C506 C 0.48542 -0.11035 -0.14215
 C507 C 0.48570 -0.09274 -0.11197
 C508 C 0.50418 -0.07097 -0.11564
 C509 C 0.52254 -0.06733 -0.14919
 C510 C 0.52234 -0.08495 -0.17891
 H511 H 0.46566 -0.19666 -0.31192
 H512 H 0.46485 -0.22466 -0.37638
 H513 H 0.53714 -0.18828 -0.38217
 H514 H 0.53776 -0.16039 -0.31825
 H515 H 0.47083 -0.12686 -0.13894
 H516 H 0.47126 -0.09614 -0.08658
 H517 H 0.53706 -0.05079 -0.15284
 H518 H 0.53669 -0.08147 -0.20479
 C519 C 0.32356 0.49896 -0.31344
 C520 C 0.32488 0.51924 -0.32924
 C521 C 0.30889 0.51940 -0.36560
 C522 C 0.29109 0.49925 -0.38675
 C523 C 0.28942 0.47895 -0.36911
 C524 C 0.30549 0.47883 -0.33322
 C525 C 0.34125 0.49870 -0.27822
 N526 N 0.34245 0.47972 -0.27337
 N527 N 0.35869 0.47950 -0.24331
 C528 C 0.37440 0.49824 -0.21660
 N529 N 0.37315 0.51722 -0.22111
 N530 N 0.35695 0.51746 -0.25143
 C531 C 0.39267 0.49796 -0.18411
 C532 C 0.40635 0.51559 -0.14721
 C533 C 0.42358 0.51518 -0.11680
 C534 C 0.42767 0.49728 -0.12319
 C535 C 0.41400 0.47970 -0.16018
 C536 C 0.39666 0.47998 -0.19003
 H537 H 0.33857 0.53505 -0.31465
 H538 H 0.31075 0.53539 -0.37781
 H539 H 0.27596 0.46304 -0.38398
 H540 H 0.30383 0.46289 -0.32147
 H541 H 0.40368 0.52964 -0.14153
 H542 H 0.43376 0.52897 -0.08859
 H543 H 0.41661 0.46561 -0.16600
 H544 H 0.38650 0.46617 -0.21824
 C545 C 1.17538 0.67728 -0.31045
 C546 C 1.19396 0.67548 -0.32708
 C547 C 1.20991 0.69108 -0.36453
 C548 C 1.20774 0.70898 -0.38602
 C549 C 1.18944 0.71108 -0.36781
 C550 C 1.17347 0.69540 -0.33078
 C551 C 1.15768 0.66003 -0.27369
 N552 N 1.13796 0.65959 -0.26646
 N553 N 1.12171 0.64373 -0.23509
 C554 C 1.12447 0.62764 -0.20938
 N555 N 1.14425 0.62814 -0.21625
 N556 N 1.16049 0.64398 -0.24784
 C557 C 1.10607 0.60964 -0.17587
 C558 C 1.10978 0.59502 -0.14186
 C559 C 1.09219 0.57769 -0.11162
 C560 C 1.07045 0.57444 -0.11523
 C561 C 1.06681 0.58922 -0.14872
 C562 C 1.08441 0.60665 -0.17847
 H563 H 1.19597 0.66174 -0.31213
 H564 H 1.22377 0.68888 -0.37717
 H565 H 1.18713 0.72462 -0.38297
 H566 H 1.15946 0.69742 -0.31852
 H567 H 1.12627 0.59690 -0.13874
 H568 H 1.09558 0.56660 -0.08625
 H569 H 1.05030 0.58726 -0.15231
 H570 H 1.08093 0.61756 -0.20432
 C571 C 0.82402 0.50057 -0.31089
 C572 C 0.82666 0.52059 -0.33364
 C573 C 0.81044 0.52039 -0.36948
 C574 C 0.79124 0.50015 -0.38378
 C575 C 0.78829 0.48015 -0.35998
 C576 C 0.80448 0.48036 -0.32371
 C577 C 0.84197 0.50082 -0.27582
 N578 N 0.83875 0.48223 -0.24761
 N579 N 0.85522 0.48245 -0.21749
 C580 C 0.87562 0.50123 -0.21460
 N581 N 0.87879 0.51980 -0.24269
 N582 N 0.86232 0.51961 -0.27257
 C583 C 0.89418 0.50148 -0.18237
 C584 C 0.91610 0.51940 -0.18875
 C585 C 0.93375 0.51967 -0.15913
 C586 C 0.92989 0.50211 -0.12199
 C587 C 0.90794 0.48424 -0.11521
 C588 C 0.89029 0.48387 -0.14533
 H589 H 0.84142 0.53647 -0.32440
 H590 H 0.81325 0.53610 -0.38707
 H591 H 0.77365 0.46429 -0.37011
 H592 H 0.80192 0.46464 -0.30684
 H593 H 0.91972 0.53319 -0.21711
 H594 H 0.95043 0.53371 -0.16529
 H595 H 0.90440 0.47045 -0.08692
 H596 H 0.87359 0.46984 -0.13937
 C597 C 0.49874 0.32203 -0.30786
 C598 C 0.47875 0.30417 -0.32898
 C599 C 0.47910 0.28844 -0.36555
 C600 C 0.49945 0.29021 -0.38222
 C601 C 0.51946 0.30775 -0.36014
 C602 C 0.51911 0.32348 -0.32316
 C603 C 0.49820 0.33935 -0.27173
 N604 N 0.51693 0.35533 -0.24548
 N605 N 0.51639 0.37118 -0.21432
 C606 C 0.49712 0.37176 -0.20832
 N607 N 0.47842 0.35575 -0.23446
 N608 N 0.47894 0.33988 -0.26541
 C609 C 0.49653 0.38971 -0.17516
 C610 C 0.47783 0.39263 -0.17822
 C611 C 0.47747 0.40999 -0.14865
 C612 C 0.49573 0.42473 -0.11493
 C613 C 0.51428 0.42157 -0.11093
 C614 C 0.51472 0.40431 -0.14096
 H615 H 0.46276 0.30244 -0.31783
 H616 H 0.46337 0.27512 -0.38170
 H617 H 0.53541 0.30955 -0.37212
 H618 H 0.53481 0.33703 -0.30759
 H619 H 0.46354 0.38172 -0.20424
 H620 H 0.46290 0.41191 -0.15252
 H621 H 0.52865 0.43266 -0.08538
 H622 H 0.52935 0.40248 -0.13752
 C623 C 0.67622 0.17593 -0.30979
 C624 C 0.69392 0.17356 -0.33122
 C625 C 0.70986 0.18974 -0.36729
 C626 C 0.70844 0.20864 -0.38308
 C627 C 0.69109 0.21134 -0.36054
 C628 C 0.67518 0.19518 -0.32411
 C629 C 0.65858 0.15797 -0.27455
 N630 N 0.64261 0.16083 -0.24860
 N631 N 0.62640 0.14433 -0.21846
 C632 C 0.62544 0.12425 -0.21327
 N633 N 0.64146 0.12145 -0.23905
 N634 N 0.65768 0.13795 -0.26898
 C635 C 0.60717 0.10562 -0.18111
 C636 C 0.60417 0.08396 -0.18457
 C637 C 0.58682 0.06623 -0.15512
 C638 C 0.57214 0.06975 -0.12106
 C639 C 0.57518 0.09143 -0.11725
 C640 C 0.59246 0.10916 -0.14718
 H641 H 0.69533 0.15903 -0.32081
 H642 H 0.72302 0.18715 -0.38387
 H643 H 0.68956 0.22573 -0.37184
 H644 H 0.66177 0.19753 -0.30829
 H645 H 0.61512 0.08060 -0.21050
 H646 H 0.58497 0.04975 -0.15892
 H647 H 0.56406 0.09466 -0.09162
 H648 H 0.59431 0.12565 -0.14360
 C649 C 1.17580 0.49753 -0.30857
 C650 C 1.19491 0.51790 -0.32286
 C651 C 1.21099 0.51834 -0.35988
 C652 C 1.20836 0.49840 -0.38308
 C653 C 1.18959 0.47800 -0.36743
 C654 C 1.17349 0.47757 -0.33077
 C655 C 1.15799 0.49703 -0.27237
 N656 N 1.13808 0.47786 -0.26649
 N657 N 1.12174 0.47744 -0.23556
 C658 C 1.12460 0.49616 -0.20900
 N659 N 1.14456 0.51533 -0.21457
 N660 N 1.16090 0.51576 -0.24570
 C661 C 1.10613 0.49572 -0.17594
 C662 C 1.10980 0.51397 -0.14176
 C663 C 1.09216 0.51367 -0.11185
 C664 C 1.07042 0.49522 -0.11593
 C665 C 1.06681 0.47690 -0.14964
 C666 C 1.08446 0.47711 -0.17909
 H667 H 1.19722 0.53358 -0.30645
 H668 H 1.22529 0.53432 -0.37099
 H669 H 1.18707 0.46233 -0.38446
 H670 H 1.15907 0.46157 -0.32040
 H671 H 1.12630 0.52853 -0.13824
 H672 H 1.09551 0.52807 -0.08628
 H673 H 1.05029 0.46238 -0.15353
 H674 H 1.08101 0.46278 -0.20506
 C675 C 0.50050 0.67662 -0.31164
 C676 C 0.48022 0.67519 -0.32760
 C677 C 0.48003 0.69119 -0.36393
 C678 C 0.50015 0.70909 -0.38490
 C679 C 0.52045 0.71088 -0.36705
 C680 C 0.52060 0.69481 -0.33117
 C681 C 0.50080 0.65889 -0.27662
 N682 N 0.51984 0.65787 -0.27150
 N683 N 0.52009 0.64157 -0.24173
 C684 C 0.50132 0.62561 -0.21562
 N685 N 0.48228 0.62669 -0.22037
 N686 N 0.48201 0.64296 -0.25039
 C687 C 0.50163 0.60728 -0.18348
 C688 C 0.48387 0.59327 -0.14732
 C689 C 0.48431 0.57600 -0.11715
 C690 C 0.50239 0.57220 -0.12306
 C691 C 0.52010 0.58617 -0.15942
 C692 C 0.51977 0.60356 -0.18903
 H693 H 0.46443 0.66140 -0.31320
 H694 H 0.46404 0.68923 -0.37634
 H695 H 0.53634 0.72442 -0.38183
 H696 H 0.53653 0.69654 -0.31930
 H697 H 0.46967 0.59572 -0.14202
 H698 H 0.47040 0.56555 -0.08952
 H699 H 0.53431 0.58375 -0.16490
 H700 H 0.53368 0.61396 -0.21674
 C701 C 0.32163 -0.17632 -0.30910
 C702 C 0.30406 -0.17389 -0.33124
 C703 C 0.28834 -0.18993 -0.36793
 C704 C 0.28985 -0.20877 -0.38367
 C705 C 0.30712 -0.21150 -0.36061
 C706 C 0.32281 -0.19547 -0.32357
 C707 C 0.33895 -0.15857 -0.27276
 N708 N 0.35475 -0.16156 -0.24620
 N709 N 0.37066 -0.14526 -0.21498
 C710 C 0.37149 -0.12527 -0.20921
 N711 N 0.35565 -0.12234 -0.23561
 N712 N 0.33972 -0.13864 -0.26663
 C713 C 0.38956 -0.10682 -0.17614
 C714 C 0.39260 -0.08512 -0.17905
 C715 C 0.41006 -0.06749 -0.14964
 C716 C 0.42481 -0.07114 -0.11618
 C717 C 0.42156 -0.09291 -0.11239
 C718 C 0.40418 -0.11054 -0.14227
 H719 H 0.30255 -0.15942 -0.32078
 H720 H 0.27524 -0.18731 -0.38488
 H721 H 0.30872 -0.22586 -0.37184
 H722 H 0.33613 -0.19788 -0.30725
 H723 H 0.38168 -0.08164 -0.20480
 H724 H 0.41205 -0.05094 -0.15335
 H725 H 0.43266 -0.09628 -0.08709
 H726 H 0.40228 -0.12705 -0.13897
 C727 C 0.50178 -0.17606 0.30905
 C728 C 0.48148 -0.19530 0.32303
 C729 C 0.48107 -0.21127 0.36055
 C730 C 0.50097 -0.20840 0.38458
 C731 C 0.52131 -0.18947 0.36937
 C732 C 0.52170 -0.17348 0.33221
 C733 C 0.50225 -0.15838 0.27216
 N734 N 0.52133 -0.13838 0.26634
 N735 N 0.52171 -0.12215 0.23484
 C736 C 0.50304 -0.12521 0.20764
 N737 N 0.48397 -0.14527 0.21311
 N738 N 0.48357 -0.16150 0.24480
 C739 C 0.50341 -0.10681 0.17415
 C740 C 0.48519 -0.11061 0.13973
 C741 C 0.48539 -0.09300 0.10965
 C742 C 0.50373 -0.07118 0.11381
 C743 C 0.52204 -0.06746 0.14769
 C744 C 0.52192 -0.08507 0.17731
 H745 H 0.46583 -0.19781 0.30592
 H746 H 0.46514 -0.22570 0.37133
 H747 H 0.53694 -0.18675 0.38709
 H748 H 0.53765 -0.15894 0.32216
 H749 H 0.47070 -0.12717 0.13620
 H750 H 0.47100 -0.09643 0.08396
 H751 H 0.53647 -0.05088 0.15165
 H752 H 0.53623 -0.08153 0.20344
 C753 C 0.32358 0.49881 0.31091
 C754 C 0.32421 0.51900 0.32397
 C755 C 0.30830 0.51918 0.36051
 C756 C 0.29135 0.49916 0.38436
 C757 C 0.29036 0.47894 0.36989
 C758 C 0.30631 0.47878 0.33377
 C759 C 0.34120 0.49858 0.27544
 N760 N 0.34276 0.47977 0.27182
 N761 N 0.35895 0.47958 0.24159
 C762 C 0.37427 0.49817 0.21351
 N763 N 0.37265 0.51697 0.21676
 N764 N 0.35648 0.51719 0.24722
 C765 C 0.39252 0.49792 0.18100
 C766 C 0.40618 0.51556 0.14402
 C767 C 0.42343 0.51517 0.11372
 C768 C 0.42750 0.49726 0.12024
 C769 C 0.41384 0.47968 0.15731
 C770 C 0.39652 0.47996 0.18712
 H771 H 0.33728 0.53473 0.30705
 H772 H 0.30948 0.53504 0.37077
 H773 H 0.27754 0.46322 0.38751
 H774 H 0.30523 0.46291 0.32437
 H775 H 0.40352 0.52962 0.13828
 H776 H 0.43365 0.52899 0.08554
 H777 H 0.41648 0.46561 0.16333
 H778 H 0.38640 0.46615 0.21543
 C779 C 1.17490 0.67709 0.30836
 C780 C 1.17231 0.69446 0.33131
 C781 C 1.18828 0.71007 0.36836
 C782 C 1.20719 0.70864 0.38367
 C783 C 1.21006 0.69155 0.35990
 C784 C 1.19411 0.67598 0.32247
 C785 C 1.15727 0.65991 0.27149
 N786 N 1.16038 0.64428 0.24441
 N787 N 1.14420 0.62848 0.21269
 C788 C 1.12421 0.62761 0.20689
 N789 N 1.12116 0.64329 0.23382
 N790 N 1.13734 0.65910 0.26535
 C791 C 1.10587 0.60965 0.17329
 C792 C 1.08420 0.60661 0.17587
 C793 C 1.06665 0.58919 0.14613
 C794 C 1.07036 0.57447 0.11273
 C795 C 1.09212 0.57777 0.10913
 C796 C 1.10967 0.59511 0.13930
 H797 H 1.15780 0.69591 0.32117
 H798 H 1.18555 0.72302 0.38589
 H799 H 1.22447 0.69002 0.37078
 H800 H 1.19663 0.66282 0.30553
 H801 H 1.08065 0.61746 0.20169
 H802 H 1.05011 0.58718 0.14969
 H803 H 1.09554 0.56671 0.08383
 H804 H 1.12617 0.59703 0.13623
 C805 C 0.49757 0.17449 0.31101
 C806 C 0.47776 0.17143 0.33607
 C807 C 0.47810 0.18759 0.37239
 C808 C 0.49828 0.20716 0.38481
 C809 C 0.51804 0.21052 0.35873
 C810 C 0.51767 0.19438 0.32204
 C811 C 0.49726 0.15664 0.27536
 N812 N 0.51565 0.16014 0.24588
 N813 N 0.51544 0.14376 0.21534
 C814 C 0.49686 0.12319 0.21325
 N815 N 0.47847 0.11975 0.24257
 N816 N 0.47866 0.13612 0.27290
 C817 C 0.49666 0.10472 0.18067
 C818 C 0.47891 0.08271 0.18719
 C819 C 0.47873 0.06514 0.15739
 C820 C 0.49622 0.06916 0.11997
 C821 C 0.51392 0.09121 0.11304
 C822 C 0.51419 0.10879 0.14329
 H823 H 0.46196 0.15638 0.32827
 H824 H 0.46259 0.18448 0.39177
 H825 H 0.53385 0.22546 0.36737
 H826 H 0.53323 0.19728 0.30340
 H827 H 0.46518 0.07895 0.21581
 H828 H 0.46482 0.04839 0.16372
 H829 H 0.52766 0.09488 0.08457
 H830 H 0.52810 0.12556 0.13723
 C831 C 0.67756 0.50170 0.30801
 C832 C 0.69496 0.52163 0.33088
 C833 C 0.71054 0.52118 0.36793
 C834 C 0.70903 0.50079 0.38330
 C835 C 0.69193 0.48087 0.35954
 C836 C 0.67639 0.48133 0.32212
 C837 C 0.66039 0.50224 0.27125
 N838 N 0.64477 0.48356 0.24405
 N839 N 0.62900 0.48403 0.21241
 C840 C 0.62814 0.50319 0.20683
 N841 N 0.64380 0.52186 0.23387
 N842 N 0.65959 0.52140 0.26532
 C843 C 0.61020 0.50366 0.17331
 C844 C 0.60712 0.52229 0.17622
 C845 C 0.58973 0.52251 0.14651
 C846 C 0.57508 0.50417 0.11281
 C847 C 0.57841 0.48571 0.10894
 C848 C 0.59572 0.48542 0.13908
 H849 H 0.69645 0.53762 0.32071
 H850 H 0.72350 0.53683 0.38544
 H851 H 0.69036 0.46490 0.37046
 H852 H 0.66321 0.46567 0.30522
 H853 H 0.61794 0.53662 0.20223
 H854 H 0.58768 0.53702 0.15031
 H855 H 0.56739 0.47128 0.08346
 H856 H 0.59768 0.47084 0.13575
 C857 C 0.82395 0.32335 0.31118
 C858 C 0.80437 0.32399 0.32364
 C859 C 0.78815 0.30804 0.35990
 C860 C 0.79111 0.29105 0.38403
 C861 C 0.81034 0.29001 0.37002
 C862 C 0.82658 0.30600 0.33420
 C863 C 0.84196 0.34106 0.27626
 N864 N 0.86238 0.34277 0.27373
 N865 N 0.87889 0.35907 0.24401
 C866 C 0.87569 0.37434 0.21538
 N867 N 0.85521 0.37258 0.21755
 N868 N 0.83870 0.35630 0.24752
 C869 C 0.89428 0.39264 0.18322
 C870 C 0.89036 0.40609 0.14529
 C871 C 0.90802 0.42328 0.11495
 C872 C 0.93000 0.42752 0.12238
 C873 C 0.93389 0.41413 0.16057
 C874 C 0.91624 0.39686 0.19043
 H875 H 0.80181 0.33712 0.30656
 H876 H 0.77349 0.30926 0.36979
 H877 H 0.81314 0.27713 0.38787
 H878 H 0.84138 0.30490 0.32519
 H879 H 0.87363 0.40326 0.13873
 H880 H 0.90446 0.43329 0.08590
 H881 H 0.95059 0.41691 0.16729
 H882 H 0.91987 0.38690 0.21953
   
