data_POSCAR
  _audit_creation_date              2014-09-24
  _audit_creation_method            'ToBaCCo'
  _symmetry_space_group_name_H-M    'P1'
  _symmetry_Int_Tables_number       1
  _symmetry_cell_setting            triclinic
  loop_
  _symmetry_equiv_pos_as_xyz
 x,y,z
_cell_length_a 54.1076
_cell_length_b 54.0401
_cell_length_c 54.1234
_cell_angle_alpha 89.973300
_cell_angle_beta 89.999000
_cell_angle_gamma 89.901600
loop_
  _atom_site_label
  _atom_site_type_symbol
  _atom_site_fract_x
  _atom_site_fract_y
  _atom_site_fract_z
C1 C 0.26861 0.24999 0.23158
 C2 C 0.25026 0.26832 0.23157
 C3 C 0.23193 0.26832 0.24986
 C4 C 0.23196 0.24998 0.26817
 C5 C 0.25030 0.23164 0.26820
 C6 C 0.26862 0.23166 0.24990
 H7 H 0.25024 0.28251 0.21740
 H8 H 0.21778 0.24997 0.28233
 H9 H 0.28283 0.21747 0.24992
 C10 C 0.73115 -0.25028 0.23115
 C11 C 0.73112 -0.23199 0.24952
 C12 C 0.74945 -0.23199 0.26780
 C13 C 0.76784 -0.25028 0.26773
 C14 C 0.76792 -0.26859 0.24938
 C15 C 0.74956 -0.26857 0.23109
 H16 H 0.71690 -0.21780 0.24963
 H17 H 0.78201 -0.25022 0.28192
 H18 H 0.74960 -0.28274 0.21688
 C19 C 0.73259 0.25075 0.76797
 C20 C 0.75086 0.26909 0.76795
 C21 C 0.76920 0.26912 0.74964
 C22 C 0.76922 0.25075 0.73135
 C23 C 0.75095 0.23240 0.73136
 C24 C 0.73265 0.23242 0.74967
 H25 H 0.75077 0.28326 0.78215
 H26 H 0.78337 0.25069 0.71714
 H27 H 0.71850 0.21822 0.74969
 C28 C 0.26767 -0.25091 0.76904
 C29 C 0.26771 -0.23263 0.75067
 C30 C 0.24941 -0.23259 0.73235
 C31 C 0.23105 -0.25085 0.73241
 C32 C 0.23097 -0.26916 0.75078
 C33 C 0.24931 -0.26916 0.76909
 H34 H 0.28192 -0.21850 0.75063
 H35 H 0.21690 -0.25077 0.71820
 H36 H 0.24933 -0.28330 0.78334
 C37 C 0.73153 -0.25032 0.76871
 C38 C 0.74989 -0.26863 0.76876
 C39 C 0.76825 -0.26863 0.75048
 C40 C 0.76820 -0.25028 0.73215
 C41 C 0.74984 -0.23197 0.73212
 C42 C 0.73151 -0.23200 0.75040
 H43 H 0.74986 -0.28279 0.78297
 H44 H 0.78238 -0.25021 0.71797
 H45 H 0.71730 -0.21782 0.75037
 C46 C 0.26833 0.24997 0.76816
 C47 C 0.25000 0.26831 0.76816
 C48 C 0.23163 0.26828 0.74991
 C49 C 0.23161 0.24991 0.73166
 C50 C 0.24994 0.23157 0.73165
 C51 C 0.26830 0.23161 0.74990
 H52 H 0.25002 0.28253 0.78229
 H53 H 0.21739 0.24988 0.71753
 H54 H 0.28249 0.21741 0.74990
 C55 C 0.26898 -0.25020 0.23113
 C56 C 0.26900 -0.23193 0.24951
 C57 C 0.25065 -0.23188 0.26777
 C58 C 0.23226 -0.25009 0.26766
 C59 C 0.23220 -0.26835 0.24931
 C60 C 0.25055 -0.26842 0.23105
 H61 H 0.28323 -0.21780 0.24965
 H62 H 0.21805 -0.25004 0.28180
 H63 H 0.25046 -0.28260 0.21686
 C64 C 0.73192 0.25015 0.23152
 C65 C 0.75019 0.26848 0.23153
 C66 C 0.76850 0.26848 0.24983
 C67 C 0.76853 0.25014 0.26813
 C68 C 0.75026 0.23180 0.26813
 C69 C 0.73196 0.23181 0.24982
 H70 H 0.75016 0.28269 0.21737
 H71 H 0.78270 0.25013 0.28230
 H72 H 0.71781 0.21761 0.24981
 O73 O 0.22977 0.02355 0.47605
 O74 O 0.22967 -0.02470 0.52416
 O75 O 0.22964 0.02349 0.52417
 O76 O 0.22980 -0.02464 0.47603
 O77 O 0.27067 -0.02469 0.47614
 O78 O 0.27052 0.02344 0.52427
 O79 O 0.27054 -0.02475 0.52426
 O80 O 0.27064 0.02350 0.47615
 Cu81 Cu 0.22560 -0.00057 0.50009
 Cu82 Cu 0.27472 -0.00063 0.50022
 C83 C 0.25022 0.03167 0.46797
 C84 C 0.25009 -0.03287 0.53233
 C85 C 0.25006 0.03159 0.53234
 C86 C 0.25026 -0.03278 0.46796
 O87 O 0.77072 0.02379 0.52400
 O88 O 0.77042 -0.02445 0.47592
 O89 O 0.77064 0.02374 0.47588
 O90 O 0.77050 -0.02441 0.52405
 O91 O 0.72963 -0.02416 0.52411
 O92 O 0.72976 0.02399 0.47595
 O93 O 0.72955 -0.02420 0.47599
 O94 O 0.72984 0.02404 0.52407
 Cu95 Cu 0.77470 -0.00036 0.49996
 Cu96 Cu 0.72557 -0.00006 0.50004
 C97 C 0.75033 0.03206 0.53215
 C98 C 0.74994 -0.03246 0.46783
 C99 C 0.75022 0.03199 0.46779
 C100 C 0.75004 -0.03241 0.53221
 O101 O 0.47638 0.22981 0.02362
 O102 O 0.52454 0.22993 -0.02451
 O103 O 0.52451 0.22987 0.02361
 O104 O 0.47640 0.22987 -0.02450
 O105 O 0.47628 0.27080 -0.02448
 O106 O 0.52439 0.27080 0.02365
 O107 O 0.52442 0.27086 -0.02448
 O108 O 0.47626 0.27074 0.02365
 Cu109 Cu 0.50047 0.22574 -0.00045
 Cu110 Cu 0.50032 0.27493 -0.00041
 C111 C 0.46819 0.25026 0.03176
 C112 C 0.53261 0.25041 -0.03261
 C113 C 0.53257 0.25034 0.03175
 C114 C 0.46822 0.25033 -0.03261
 O115 O 0.52396 0.76999 0.02458
 O116 O 0.47574 0.76985 -0.02349
 O117 O 0.47582 0.76993 0.02463
 O118 O 0.52388 0.76992 -0.02354
 O119 O 0.52400 0.72900 -0.02346
 O120 O 0.47595 0.72901 0.02471
 O121 O 0.47587 0.72893 -0.02340
 O122 O 0.52409 0.72907 0.02466
 Cu123 Cu 0.49984 0.77406 0.00054
 Cu124 Cu 0.49999 0.72487 0.00064
 C125 C 0.53216 0.74956 0.03274
 C126 C 0.46767 0.74937 -0.03156
 C127 C 0.46777 0.74947 0.03280
 C128 C 0.53205 0.74946 -0.03164
 O129 O 0.02382 0.47652 0.22906
 O130 O -0.02438 0.52476 0.22898
 O131 O 0.02377 0.52471 0.22895
 O132 O -0.02431 0.47657 0.22909
 O133 O -0.02429 0.47664 0.26995
 O134 O 0.02379 0.52479 0.26981
 O135 O -0.02436 0.52484 0.26984
 O136 O 0.02384 0.47659 0.26993
 Cu137 Cu -0.00028 0.50063 0.22490
 Cu138 Cu -0.00025 0.50073 0.27400
 C139 C 0.03197 0.46841 0.24951
 C140 C -0.03251 0.53294 0.24939
 C141 C 0.03190 0.53287 0.24935
 C142 C -0.03241 0.46848 0.24954
 O143 O 0.02363 0.52447 0.77091
 O144 O -0.02447 0.47629 0.77068
 O145 O 0.02366 0.47628 0.77072
 O146 O -0.02451 0.52449 0.77088
 O147 O -0.02448 0.52467 0.73001
 O148 O 0.02369 0.47646 0.72986
 O149 O -0.02444 0.47647 0.72982
 O150 O 0.02366 0.52465 0.73005
 Cu151 Cu -0.00043 0.50037 0.77492
 Cu152 Cu -0.00039 0.50059 0.72581
 C153 C 0.03177 0.53269 0.75052
 C154 C -0.03257 0.46825 0.75022
 C155 C 0.03181 0.46824 0.75026
 C156 C -0.03263 0.53272 0.75047
 C157 C 0.28743 0.24999 0.21277
 C158 C 0.30318 0.25000 0.19701
 C159 C 0.32197 0.25002 0.17819
 C160 C 0.31633 0.25806 0.15426
 C161 C 0.33457 0.25809 0.13595
 C162 C 0.35874 0.25007 0.14136
 C163 C 0.36422 0.24203 0.16549
 C164 C 0.34594 0.24200 0.18376
 C165 C 0.37814 0.25010 0.12193
 C166 C 0.40241 0.25758 0.12748
 C167 C 0.42065 0.25760 0.10918
 C168 C 0.41490 0.25015 0.08510
 C169 C 0.39082 0.24267 0.07938
 C170 C 0.37255 0.24265 0.09765
 C171 C 0.43370 0.25018 0.06627
 C172 C 0.44944 0.25021 0.05051
 H173 H 0.29786 0.26438 0.14976
 H174 H 0.32985 0.26469 0.11766
 H175 H 0.38254 0.23545 0.17015
 H176 H 0.35049 0.23567 0.20221
 H177 H 0.40722 0.26372 0.14590
 H178 H 0.43922 0.26350 0.11379
 H179 H 0.38619 0.23680 0.06081
 H180 H 0.35413 0.23648 0.09286
 C181 C 0.71331 0.74972 0.21337
 C182 C 0.69753 0.74973 0.19763
 C183 C 0.67871 0.74974 0.17884
 C184 C 0.67971 0.73257 0.15952
 C185 C 0.66143 0.73254 0.14126
 C186 C 0.64187 0.74973 0.14208
 C187 C 0.64105 0.76693 0.16158
 C188 C 0.65935 0.76691 0.17983
 C189 C 0.62243 0.74971 0.12270
 C190 C 0.61313 0.77212 0.11321
 C191 C 0.59483 0.77208 0.09496
 C192 C 0.58556 0.74967 0.08596
 C193 C 0.59467 0.72728 0.09528
 C194 C 0.61298 0.72727 0.11351
 C195 C 0.56672 0.74964 0.06718
 C196 C 0.55094 0.74961 0.05145
 H197 H 0.69466 0.71923 0.15853
 H198 H 0.66276 0.71928 0.12633
 H199 H 0.62608 0.78018 0.16292
 H200 H 0.65835 0.78025 0.19474
 H201 H 0.62024 0.78969 0.11966
 H202 H 0.58797 0.78952 0.08783
 H203 H 0.58758 0.70982 0.08849
 H204 H 0.61951 0.70972 0.12066
 C205 C 0.71377 0.25073 -0.21323
 C206 C 0.69800 0.25071 -0.19748
 C207 C 0.67916 0.25069 -0.17870
 C208 C 0.67039 0.27307 -0.16907
 C209 C 0.65208 0.27307 -0.15084
 C210 C 0.64231 0.25064 -0.14196
 C211 C 0.65127 0.22823 -0.15177
 C212 C 0.66957 0.22828 -0.17002
 C213 C 0.62286 0.25061 -0.12258
 C214 C 0.62344 0.23311 -0.10332
 C215 C 0.60513 0.23310 -0.08509
 C216 C 0.58600 0.25053 -0.08585
 C217 C 0.58524 0.26801 -0.10492
 C218 C 0.60354 0.26807 -0.12317
 C219 C 0.56715 0.25049 -0.06708
 C220 C 0.55137 0.25046 -0.05134
 H221 H 0.67774 0.29052 -0.17562
 H222 H 0.64580 0.29060 -0.14344
 H223 H 0.64391 0.21068 -0.14556
 H224 H 0.67618 0.21085 -0.17739
 H225 H 0.63824 0.21964 -0.10216
 H226 H 0.60594 0.21953 -0.07036
 H227 H 0.57048 0.28155 -0.10574
 H228 H 0.60240 0.28157 -0.13792
 C229 C 0.28649 0.74908 -0.21215
 C230 C 0.30225 0.74908 -0.19641
 C231 C 0.32108 0.74909 -0.17761
 C232 C 0.32107 0.76737 -0.15930
 C233 C 0.33935 0.76741 -0.14104
 C234 C 0.35793 0.74914 -0.14087
 C235 C 0.35777 0.73085 -0.15938
 C236 C 0.33946 0.73084 -0.17761
 C237 C 0.37738 0.74918 -0.12149
 C238 C 0.40210 0.74371 -0.12753
 C239 C 0.42039 0.74376 -0.10928
 C240 C 0.41425 0.74925 -0.08477
 C241 C 0.38973 0.75470 -0.07857
 C242 C 0.37141 0.75468 -0.09679
 C243 C 0.43310 0.74927 -0.06599
 C244 C 0.44889 0.74931 -0.05027
 H245 H 0.30697 0.78163 -0.15917
 H246 H 0.33915 0.78192 -0.12725
 H247 H 0.37162 0.71637 -0.15957
 H248 H 0.33960 0.71657 -0.19165
 H249 H 0.40735 0.73972 -0.14642
 H250 H 0.43933 0.73958 -0.11430
 H251 H 0.38476 0.75891 -0.05963
 H252 H 0.35252 0.75865 -0.09149
 C253 C 0.21308 0.28716 0.24984
 C254 C 0.19729 0.30294 0.24982
 C255 C 0.17846 0.32179 0.24981
 C256 C 0.18201 0.34372 0.23653
 C257 C 0.16374 0.36205 0.23650
 C258 C 0.14163 0.35866 0.24977
 C259 C 0.13824 0.33653 0.26306
 C260 C 0.15655 0.31824 0.26307
 C261 C 0.12218 0.37811 0.24974
 C262 C 0.09704 0.37167 0.24814
 C263 C 0.07876 0.39000 0.24808
 C264 C 0.08534 0.41498 0.24965
 C265 C 0.11029 0.42159 0.25126
 C266 C 0.12860 0.40330 0.25130
 C267 C 0.06650 0.43383 0.24958
 C268 C 0.05073 0.44962 0.24954
 H269 H 0.19888 0.34663 0.22614
 H270 H 0.16677 0.37872 0.22583
 H271 H 0.12158 0.33350 0.27370
 H272 H 0.15364 0.30136 0.27347
 H273 H 0.09152 0.35249 0.24659
 H274 H 0.05951 0.38468 0.24676
 H275 H 0.11558 0.44087 0.25255
 H276 H 0.14775 0.40884 0.25288
 C277 C 0.21312 0.71309 0.75083
 C278 C 0.19731 0.69738 0.75087
 C279 C 0.17843 0.67864 0.75090
 C280 C 0.15448 0.68438 0.74296
 C281 C 0.13614 0.66619 0.74296
 C282 C 0.14153 0.64196 0.75090
 C283 C 0.16567 0.63639 0.75884
 C284 C 0.18398 0.65462 0.75885
 C285 C 0.12206 0.62260 0.75086
 C286 C 0.12758 0.59829 0.74330
 C287 C 0.10924 0.58009 0.74325
 C288 C 0.08517 0.58591 0.75075
 C289 C 0.07949 0.61002 0.75830
 C290 C 0.09779 0.62826 0.75836
 C291 C 0.06631 0.56715 0.75068
 C292 C 0.05053 0.55142 0.75061
 H293 H 0.15001 0.70290 0.73671
 H294 H 0.11783 0.67098 0.73644
 H295 H 0.17032 0.61802 0.76536
 H296 H 0.20244 0.64999 0.76509
 H297 H 0.14599 0.59343 0.73712
 H298 H 0.11382 0.56150 0.73729
 H299 H 0.06094 0.61471 0.76421
 H300 H 0.09304 0.64670 0.76458
 C301 C -0.21418 0.71363 0.24933
 C302 C -0.19835 0.69790 0.24930
 C303 C -0.17945 0.67912 0.24927
 C304 C -0.15547 0.68485 0.25708
 C305 C -0.13710 0.66662 0.25707
 C306 C -0.14248 0.64238 0.24925
 C307 C -0.16665 0.63683 0.24144
 C308 C -0.18499 0.65509 0.24145
 C309 C -0.12297 0.62299 0.24927
 C310 C -0.12840 0.59871 0.25693
 C311 C -0.11003 0.58048 0.25695
 C312 C -0.08601 0.58624 0.24931
 C313 C -0.08042 0.61032 0.24164
 C314 C -0.09875 0.62859 0.24162
 C315 C -0.06712 0.56745 0.24933
 C316 C -0.05131 0.55170 0.24936
 H317 H -0.15100 0.70338 0.26324
 H318 H -0.11877 0.67140 0.26350
 H319 H -0.17129 0.61844 0.23501
 H320 H -0.20347 0.65047 0.23529
 H321 H -0.14677 0.59389 0.26322
 H322 H -0.11455 0.56191 0.26299
 H323 H -0.06190 0.61497 0.23562
 H324 H -0.09407 0.64701 0.23532
 C325 C -0.21302 0.28695 0.74964
 C326 C -0.19730 0.30274 0.74966
 C327 C -0.17854 0.32160 0.74971
 C328 C -0.16445 0.32593 0.72847
 C329 C -0.14622 0.34424 0.72849
 C330 C -0.14184 0.35848 0.74981
 C331 C -0.15611 0.35397 0.77108
 C332 C -0.17434 0.33565 0.77100
 C333 C -0.12247 0.37794 0.74987
 C334 C -0.10712 0.38123 0.77060
 C335 C -0.08890 0.39955 0.77064
 C336 C -0.08577 0.41482 0.75000
 C337 C -0.10093 0.41171 0.72929
 C338 C -0.11915 0.39339 0.72920
 C339 C -0.06700 0.43368 0.75006
 C340 C -0.05128 0.44947 0.75013
 H341 H -0.16750 0.31510 0.71190
 H342 H -0.13534 0.34704 0.71194
 H343 H -0.15341 0.36482 0.78767
 H344 H -0.18519 0.33251 0.78753
 H345 H -0.10899 0.36943 0.78667
 H346 H -0.07721 0.40175 0.78675
 H347 H -0.09871 0.42348 0.71323
 H348 H -0.13087 0.39154 0.71309
 C349 C 0.25032 0.21280 0.28701
 C350 C 0.25033 0.19702 0.30278
 C351 C 0.25034 0.17819 0.32160
 C352 C 0.22818 0.17126 0.33298
 C353 C 0.22815 0.15296 0.35125
 C354 C 0.25033 0.14135 0.35841
 C355 C 0.27252 0.14847 0.34686
 C356 C 0.27249 0.16676 0.32857
 C357 C 0.25033 0.12191 0.37783
 C358 C 0.26923 0.12101 0.39568
 C359 C 0.26919 0.10271 0.41396
 C360 C 0.25030 0.08506 0.41465
 C361 C 0.23143 0.08578 0.39698
 C362 C 0.23142 0.10407 0.37869
 C363 C 0.25028 0.06623 0.43347
 C364 C 0.25025 0.05046 0.44923
 H365 H 0.21093 0.18004 0.32777
 H366 H 0.21083 0.14813 0.36002
 H367 H 0.28984 0.13967 0.35172
 H368 H 0.28974 0.17194 0.31983
 H369 H 0.28386 0.13465 0.39571
 H370 H 0.28385 0.10237 0.42759
 H371 H 0.21676 0.07217 0.39729
 H372 H 0.21680 0.10406 0.36503
 C373 C 0.75097 0.21355 0.71258
 C374 C 0.75096 0.19775 0.69686
 C375 C 0.75092 0.17887 0.67810
 C376 C 0.73216 0.16108 0.67765
 C377 C 0.73208 0.14274 0.65944
 C378 C 0.75081 0.14194 0.64141
 C379 C 0.76960 0.15991 0.64203
 C380 C 0.76963 0.17824 0.66026
 C381 C 0.75074 0.12246 0.62204
 C382 C 0.77292 0.11099 0.61468
 C383 C 0.77283 0.09265 0.59646
 C384 C 0.75060 0.08554 0.58534
 C385 C 0.72844 0.09684 0.59251
 C386 C 0.72849 0.11517 0.61074
 C387 C 0.75052 0.06667 0.56657
 C388 C 0.75044 0.05086 0.55086
 H389 H 0.71762 0.16135 0.69142
 H390 H 0.71755 0.12899 0.65965
 H391 H 0.78409 0.15999 0.62824
 H392 H 0.78421 0.19196 0.66039
 H393 H 0.79030 0.11596 0.62324
 H394 H 0.79008 0.08398 0.59110
 H395 H 0.71113 0.09153 0.58397
 H396 H 0.71116 0.12387 0.61575
 C397 C 0.24947 -0.21380 0.71349
 C398 C 0.24954 -0.19806 0.69769
 C399 C 0.24962 -0.17926 0.67884
 C400 C 0.26297 -0.15739 0.68237
 C401 C 0.26305 -0.13910 0.66408
 C402 C 0.24978 -0.14247 0.64197
 C403 C 0.23643 -0.16455 0.63861
 C404 C 0.23636 -0.18280 0.65693
 C405 C 0.24984 -0.12305 0.62253
 C406 C 0.25142 -0.12954 0.59739
 C407 C 0.25148 -0.11124 0.57911
 C408 C 0.24996 -0.08624 0.58568
 C409 C 0.24838 -0.07959 0.61062
 C410 C 0.24833 -0.09785 0.62893
 C411 C 0.25001 -0.06742 0.56685
 C412 C 0.25005 -0.05165 0.55108
 H413 H 0.27336 -0.15449 0.69923
 H414 H 0.27376 -0.12247 0.66709
 H415 H 0.22577 -0.16756 0.62195
 H416 H 0.22591 -0.19963 0.65404
 H417 H 0.25293 -0.14874 0.59188
 H418 H 0.25278 -0.11660 0.55987
 H419 H 0.24712 -0.06030 0.61591
 H420 H 0.24677 -0.09228 0.64808
 C421 C 0.74940 -0.21320 0.28665
 C422 C 0.74938 -0.19747 0.30245
 C423 C 0.74936 -0.17869 0.32130
 C424 C 0.74152 -0.15464 0.31572
 C425 C 0.74154 -0.13638 0.33401
 C426 C 0.74941 -0.14194 0.35817
 C427 C 0.75725 -0.16619 0.36359
 C428 C 0.75723 -0.18442 0.34527
 C429 C 0.74948 -0.12254 0.37762
 C430 C 0.74190 -0.12811 0.40186
 C431 C 0.74198 -0.10984 0.42015
 C432 C 0.74964 -0.08578 0.41447
 C433 C 0.75722 -0.08004 0.39042
 C434 C 0.75713 -0.09828 0.37211
 C435 C 0.74974 -0.06698 0.43332
 C436 C 0.74983 -0.05122 0.44908
 H437 H 0.73532 -0.15002 0.29725
 H438 H 0.73510 -0.11798 0.32933
 H439 H 0.76372 -0.17098 0.38191
 H440 H 0.76341 -0.20296 0.34977
 H441 H 0.73560 -0.14651 0.40662
 H442 H 0.73601 -0.11446 0.43869
 H443 H 0.76325 -0.06149 0.38584
 H444 H 0.76338 -0.09348 0.35371
 C445 C 0.71271 0.74967 -0.21252
 C446 C 0.69694 0.74965 -0.19679
 C447 C 0.67813 0.74962 -0.17800
 C448 C 0.65878 0.76680 -0.17898
 C449 C 0.64051 0.76679 -0.16072
 C450 C 0.64136 0.74956 -0.14123
 C451 C 0.66090 0.73236 -0.14044
 C452 C 0.67916 0.73241 -0.15871
 C453 C 0.62196 0.74954 -0.12183
 C454 C 0.61247 0.72710 -0.11268
 C455 C 0.59422 0.72710 -0.09440
 C456 C 0.58523 0.74949 -0.08501
 C457 C 0.59454 0.77191 -0.09397
 C458 C 0.61278 0.77195 -0.11226
 C459 C 0.56646 0.74946 -0.06618
 C460 C 0.55075 0.74945 -0.05040
 H461 H 0.65778 0.78016 -0.19388
 H462 H 0.62554 0.78005 -0.16202
 H463 H 0.66224 0.71908 -0.12551
 H464 H 0.69411 0.71908 -0.15774
 H465 H 0.61893 0.70956 -0.11990
 H466 H 0.58709 0.70964 -0.08764
 H467 H 0.58775 0.78934 -0.08677
 H468 H 0.61994 0.78951 -0.11869
 C469 C 0.28719 0.25000 -0.21310
 C470 C 0.30298 0.25004 -0.19740
 C471 C 0.32182 0.25010 -0.17865
 C472 C 0.32073 0.26720 -0.15928
 C473 C 0.33903 0.26727 -0.14105
 C474 C 0.35867 0.25019 -0.14196
 C475 C 0.35959 0.23307 -0.16152
 C476 C 0.34128 0.23305 -0.17974
 C477 C 0.37810 0.25023 -0.12259
 C478 C 0.38743 0.22781 -0.11314
 C479 C 0.40571 0.22787 -0.09489
 C480 C 0.41492 0.25029 -0.08586
 C481 C 0.40578 0.27268 -0.09513
 C482 C 0.38748 0.27267 -0.11337
 C483 C 0.43373 0.25031 -0.06708
 C484 C 0.44949 0.25033 -0.05134
 H485 H 0.30570 0.28044 -0.15823
 H486 H 0.33763 0.28047 -0.12606
 H487 H 0.37463 0.21991 -0.16291
 H488 H 0.34233 0.21977 -0.19470
 H489 H 0.38036 0.21025 -0.11963
 H490 H 0.41262 0.21043 -0.08779
 H491 H 0.41283 0.29014 -0.08831
 H492 H 0.38091 0.29021 -0.12049
 C493 C 0.28681 0.74974 0.21338
 C494 C 0.30259 0.74969 0.19766
 C495 C 0.32142 0.74965 0.17890
 C496 C 0.34533 0.75771 0.18450
 C497 C 0.36364 0.75767 0.16628
 C498 C 0.35824 0.74957 0.14217
 C499 C 0.33413 0.74151 0.13673
 C500 C 0.31586 0.74154 0.15499
 C501 C 0.37766 0.74955 0.12279
 C502 C 0.37209 0.75703 0.09851
 C503 C 0.39039 0.75701 0.08028
 C504 C 0.41447 0.74950 0.08605
 C505 C 0.42021 0.74202 0.11014
 C506 C 0.40194 0.74204 0.12840
 C507 C 0.43329 0.74949 0.06727
 C508 C 0.44904 0.74948 0.05153
 H509 H 0.34980 0.76409 0.20294
 H510 H 0.38192 0.76429 0.17096
 H511 H 0.32949 0.73487 0.11844
 H512 H 0.29742 0.73520 0.15047
 H513 H 0.35366 0.76321 0.09369
 H514 H 0.38578 0.76290 0.06170
 H515 H 0.43878 0.73611 0.11479
 H516 H 0.40673 0.73588 0.14683
 C517 C 0.71313 0.25015 0.21272
 C518 C 0.69739 0.25017 0.19696
 C519 C 0.67861 0.25020 0.17815
 C520 C 0.66904 0.22782 0.16941
 C521 C 0.65081 0.22782 0.15111
 C522 C 0.64188 0.25025 0.14133
 C523 C 0.65162 0.27266 0.15027
 C524 C 0.66987 0.27261 0.16855
 C525 C 0.62251 0.25028 0.12190
 C526 C 0.60316 0.26770 0.12251
 C527 C 0.58492 0.26769 0.10421
 C528 C 0.58580 0.25032 0.08507
 C529 C 0.60497 0.23293 0.08428
 C530 C 0.62321 0.23289 0.10257
 C531 C 0.56702 0.25033 0.06625
 C532 C 0.55129 0.25033 0.05049
 H533 H 0.67563 0.21036 0.17677
 H534 H 0.64345 0.21029 0.14485
 H535 H 0.64536 0.29021 0.14288
 H536 H 0.67721 0.29004 0.17515
 H537 H 0.60193 0.28111 0.13732
 H538 H 0.57012 0.28119 0.10503
 H539 H 0.60586 0.21944 0.06950
 H540 H 0.63804 0.21946 0.10141
 C541 C -0.21390 0.71358 0.75051
 C542 C -0.19810 0.69782 0.75056
 C543 C -0.17924 0.67903 0.75060
 C544 C -0.18470 0.65515 0.75895
 C545 C -0.16639 0.63686 0.75897
 C546 C -0.14236 0.64225 0.75064
 C547 C -0.13706 0.66634 0.74230
 C548 C -0.15540 0.68459 0.74228
 C549 C -0.12290 0.62284 0.75064
 C550 C -0.09857 0.62851 0.75784
 C551 C -0.08027 0.61022 0.75782
 C552 C -0.08603 0.58605 0.75060
 C553 C -0.11016 0.58021 0.74340
 C554 C -0.12849 0.59847 0.74342
 C555 C -0.06718 0.56724 0.75057
 C556 C -0.05139 0.55148 0.75053
 H557 H -0.20308 0.65068 0.76550
 H558 H -0.17095 0.61860 0.76580
 H559 H -0.11884 0.67097 0.73548
 H560 H -0.15101 0.70300 0.73571
 H561 H -0.09377 0.64701 0.76380
 H562 H -0.06166 0.61491 0.76350
 H563 H -0.11479 0.56157 0.73771
 H564 H -0.14696 0.59360 0.73747
 C565 C -0.21275 0.28732 0.24984
 C566 C -0.19704 0.30310 0.24984
 C567 C -0.17830 0.32195 0.24983
 C568 C -0.16313 0.32512 0.27052
 C569 C -0.14490 0.34343 0.27053
 C570 C -0.14164 0.35883 0.24981
 C571 C -0.15701 0.35549 0.22911
 C572 C -0.17521 0.33716 0.22914
 C573 C -0.12229 0.37828 0.24979
 C574 C -0.12713 0.40176 0.23960
 C575 C -0.10890 0.42005 0.23958
 C576 C -0.08561 0.41513 0.24971
 C577 C -0.08060 0.39185 0.25989
 C578 C -0.09881 0.37353 0.25995
 C579 C -0.06685 0.43397 0.24965
 C580 C -0.05112 0.44973 0.24959
 H581 H -0.16542 0.31349 0.28666
 H582 H -0.13358 0.34575 0.28685
 H583 H -0.15474 0.36683 0.21277
 H584 H -0.18682 0.33481 0.21300
 H585 H -0.14512 0.40608 0.23195
 H586 H -0.11298 0.43804 0.23172
 H587 H -0.06261 0.38783 0.26771
 H588 H -0.09442 0.35555 0.26763
 C589 C 0.21281 0.28712 0.74992
 C590 C 0.19705 0.30290 0.74993
 C591 C 0.17823 0.32173 0.74997
 C592 C 0.17561 0.33753 0.72964
 C593 C 0.15734 0.35585 0.72966
 C594 C 0.14141 0.35858 0.75003
 C595 C 0.14419 0.34259 0.77038
 C596 C 0.16250 0.32430 0.77033
 C597 C 0.12198 0.37802 0.75007
 C598 C 0.09827 0.37297 0.75946
 C599 C 0.07999 0.39128 0.75947
 C600 C 0.08516 0.41486 0.75013
 C601 C 0.10868 0.42008 0.74076
 C602 C 0.12699 0.40179 0.74071
 C603 C 0.06634 0.43369 0.75016
 C604 C 0.05057 0.44947 0.75020
 H605 H 0.18765 0.33565 0.71375
 H606 H 0.15545 0.36765 0.71360
 H607 H 0.13244 0.34443 0.78646
 H608 H 0.16441 0.31220 0.78619
 H609 H 0.09375 0.35477 0.76649
 H610 H 0.06181 0.38703 0.76670
 H611 H 0.11290 0.43830 0.73355
 H612 H 0.14515 0.40634 0.73366
 C613 C 0.21331 0.71295 0.24923
 C614 C 0.19749 0.69728 0.24918
 C615 C 0.17860 0.67858 0.24913
 C616 C 0.18407 0.65463 0.24096
 C617 C 0.16575 0.63643 0.24095
 C618 C 0.14167 0.64197 0.24911
 C619 C 0.13636 0.66613 0.25727
 C620 C 0.15472 0.68429 0.25728
 C621 C 0.12220 0.62265 0.24913
 C622 C 0.09791 0.62838 0.24177
 C623 C 0.07960 0.61017 0.24180
 C624 C 0.08529 0.58601 0.24921
 C625 C 0.10938 0.58011 0.25658
 C626 C 0.12773 0.59829 0.25654
 C627 C 0.06643 0.56728 0.24926
 C628 C 0.05065 0.55157 0.24930
 H629 H 0.20249 0.65004 0.23454
 H630 H 0.17032 0.61810 0.23426
 H631 H 0.11810 0.67088 0.26396
 H632 H 0.15031 0.70276 0.26371
 H633 H 0.09316 0.64687 0.23566
 H634 H 0.06102 0.61491 0.23600
 H635 H 0.11396 0.56148 0.26242
 H636 H 0.14616 0.59338 0.26262
 C637 C 0.74981 -0.21316 0.71330
 C638 C 0.74979 -0.19740 0.69754
 C639 C 0.74978 -0.17861 0.67871
 C640 C 0.74779 -0.15364 0.68525
 C641 C 0.74781 -0.13536 0.66696
 C642 C 0.74982 -0.14184 0.64186
 C643 C 0.75180 -0.16701 0.63549
 C644 C 0.75179 -0.18526 0.65380
 C645 C 0.74985 -0.12244 0.62242
 C646 C 0.73685 -0.12600 0.60019
 C647 C 0.73689 -0.10773 0.58190
 C648 C 0.74992 -0.08568 0.58557
 C649 C 0.76291 -0.08197 0.60761
 C650 C 0.76288 -0.10021 0.62593
 C651 C 0.74995 -0.06689 0.56674
 C652 C 0.74999 -0.05115 0.55096
 H653 H 0.74615 -0.14830 0.70447
 H654 H 0.74593 -0.11618 0.67244
 H655 H 0.75370 -0.17257 0.61636
 H656 H 0.75342 -0.20453 0.64855
 H657 H 0.72639 -0.14277 0.59707
 H658 H 0.72672 -0.11076 0.56493
 H659 H 0.77311 -0.06499 0.61061
 H660 H 0.77332 -0.09706 0.64270
 C661 C 0.25068 -0.21313 0.28663
 C662 C 0.25069 -0.19743 0.30243
 C663 C 0.25069 -0.17869 0.32130
 C664 C 0.25889 -0.15476 0.31584
 C665 C 0.25885 -0.13653 0.33416
 C666 C 0.25063 -0.14202 0.35821
 C667 C 0.24244 -0.16615 0.36350
 C668 C 0.24247 -0.18434 0.34515
 C669 C 0.25057 -0.12266 0.37767
 C670 C 0.25788 -0.12838 0.40197
 C671 C 0.25781 -0.11014 0.42027
 C672 C 0.25044 -0.08598 0.41456
 C673 C 0.24312 -0.08010 0.39046
 C674 C 0.24319 -0.09830 0.37212
 C675 C 0.25037 -0.06722 0.43341
 C676 C 0.25032 -0.05150 0.44920
 H677 H 0.26535 -0.15021 0.29745
 H678 H 0.26557 -0.11822 0.32959
 H679 H 0.23570 -0.17086 0.38174
 H680 H 0.23602 -0.20280 0.34955
 H681 H 0.26396 -0.14688 0.40674
 H682 H 0.26358 -0.11487 0.43886
 H683 H 0.23731 -0.06146 0.38586
 H684 H 0.23716 -0.09340 0.35368
 C685 C 0.75029 0.21296 0.28692
 C686 C 0.75030 0.19719 0.30266
 C687 C 0.75031 0.17837 0.32147
 C688 C 0.72795 0.16884 0.33025
 C689 C 0.72793 0.15056 0.34854
 C690 C 0.75033 0.14155 0.35826
 C691 C 0.77272 0.15125 0.34929
 C692 C 0.77269 0.16955 0.33102
 C693 C 0.75033 0.12214 0.37768
 C694 C 0.76767 0.10271 0.37702
 C695 C 0.76764 0.08443 0.39530
 C696 C 0.75032 0.08533 0.41448
 C697 C 0.73301 0.10457 0.41532
 C698 C 0.73299 0.12286 0.39705
 C699 C 0.75030 0.06651 0.43329
 C700 C 0.75027 0.05074 0.44904
 H701 H 0.71052 0.17549 0.32293
 H702 H 0.71041 0.14324 0.35483
 H703 H 0.79024 0.14493 0.35663
 H704 H 0.79011 0.17685 0.32439
 H705 H 0.78104 0.10147 0.36219
 H706 H 0.78108 0.06957 0.39445
 H707 H 0.71956 0.10548 0.43013
 H708 H 0.71962 0.13775 0.39825
 C709 C 0.24991 0.21270 0.71291
 C710 C 0.24990 0.19690 0.69720
 C711 C 0.24990 0.17804 0.67845
 C712 C 0.22777 0.17123 0.66696
 C713 C 0.22775 0.15291 0.64873
 C714 C 0.24991 0.14118 0.64174
 C715 C 0.27206 0.14818 0.65341
 C716 C 0.27203 0.16649 0.67165
 C717 C 0.24992 0.12175 0.62235
 C718 C 0.26889 0.12082 0.60458
 C719 C 0.26888 0.10252 0.58633
 C720 C 0.24995 0.08493 0.58560
 C721 C 0.23101 0.08568 0.60319
 C722 C 0.23097 0.10397 0.62145
 C723 C 0.24997 0.06610 0.56681
 C724 C 0.25000 0.05034 0.55107
 H725 H 0.21054 0.18011 0.67205
 H726 H 0.21045 0.14816 0.63987
 H727 H 0.28936 0.13927 0.64866
 H728 H 0.28926 0.17158 0.68048
 H729 H 0.28355 0.13443 0.60459
 H730 H 0.28359 0.10214 0.57276
 H731 H 0.21631 0.07210 0.60283
 H732 H 0.21630 0.10401 0.63505
   
