data_POSCAR
  _audit_creation_date              2014-09-24
  _audit_creation_method            'ToBaCCo'
  _symmetry_space_group_name_H-M    'P1'
  _symmetry_Int_Tables_number       1
  _symmetry_cell_setting            triclinic
  loop_
  _symmetry_equiv_pos_as_xyz
 x,y,z
_cell_length_a 30.6935
_cell_length_b 30.9738
_cell_length_c 26.9119
_cell_angle_alpha 90.448900
_cell_angle_beta 89.599000
_cell_angle_gamma 91.038300
loop_
  _atom_site_label
  _atom_site_type_symbol
  _atom_site_fract_x
  _atom_site_fract_y
  _atom_site_fract_z
C1 C 1.25700 0.24594 0.24979
 C2 C 0.75354 -0.25196 0.26084
 C3 C 0.74856 0.25350 -0.24935
 C4 C 1.24548 -0.25041 -0.23843
 C5 C 0.25109 0.25197 0.74779
 C6 C 0.75372 0.75078 0.73716
 C7 C 0.74233 0.25473 0.24955
 C8 C 0.24505 0.75282 0.23929
 N9 N 1.07036 0.04712 0.06182
 N10 N 1.10051 0.07607 0.07429
 N11 N 1.03733 -0.04462 0.09021
 N12 N 1.04450 -0.07456 0.12376
 N13 N 1.06873 -0.04379 0.05684
 N14 N 1.09832 -0.07282 0.06713
 N15 N 1.03892 0.04609 0.09510
 N16 N 1.04717 0.07368 0.13159
 C17 C 1.08538 0.09259 0.11767
 C18 C 1.08245 -0.09223 0.10858
 N19 N 0.91424 -0.04359 0.05155
 N20 N 0.88560 -0.07556 0.05844
 N21 N 0.94487 0.04674 0.09092
 N22 N 0.93704 0.07661 0.12497
 N23 N 0.91510 0.04728 0.05607
 N24 N 0.88601 0.07721 0.06582
 N25 N 0.94429 -0.04422 0.08602
 N26 N 0.93768 -0.07676 0.11639
 Mn27 Mn 0.99122 0.00111 0.09093
 C28 C 0.90121 -0.09619 0.09882
 C29 C 0.90036 0.09553 0.10869
 N30 N 1.07242 -0.03972 -0.05081
 N31 N 1.10111 -0.06995 -0.06095
 N32 N 1.04632 0.05293 -0.08062
 N33 N 1.05861 0.08338 -0.11240
 N34 N 1.07432 0.05102 -0.04406
 N35 N 1.10555 0.08037 -0.04920
 N36 N 1.04324 -0.03799 -0.08617
 N37 N 1.05094 -0.06721 -0.12092
 Mn38 Mn 1.07178 0.00353 0.00590
 C39 C 1.08697 -0.08711 -0.10459
 C40 C 1.09531 0.10064 -0.09162
 N41 N 0.91878 0.05123 -0.05160
 N42 N 0.88906 0.08017 -0.06197
 N43 N 0.94951 -0.03779 -0.08963
 N44 N 0.94337 -0.06761 -0.12434
 N45 N 0.91783 -0.03945 -0.05654
 N46 N 0.88897 -0.06997 -0.06837
 N47 N 0.95112 0.05338 -0.08390
 N48 N 0.94432 0.08402 -0.11667
 Mn49 Mn 0.91595 0.00378 -0.00014
 Mn50 Mn 0.99751 0.00781 -0.08562
 Cl51 Cl 0.99409 0.00410 0.00268
 C52 C 0.90572 0.10080 -0.10228
 C53 C 0.90558 -0.08756 -0.11052
 N54 N 0.95211 0.53490 0.40965
 N55 N 0.92318 0.54212 0.37463
 N56 N 1.04297 0.57597 0.43969
 N57 N 1.06730 0.60967 0.42631
 N58 N 1.04262 0.54655 0.40417
 N59 N 1.06629 0.55953 0.36583
 N60 N 0.95196 0.56626 0.44286
 N61 N 0.92315 0.59545 0.43130
 C62 C 0.90491 0.57963 0.38932
 C63 C 1.08208 0.59850 0.38050
 N64 N 1.04445 0.54905 0.58443
 N65 N 1.06838 0.56337 0.62181
 N66 N 0.95284 0.56769 0.54936
 N67 N 0.92393 0.59696 0.56146
 N68 N 0.95369 0.53717 0.58304
 N69 N 0.92516 0.54506 0.61889
 N70 N 1.04366 0.57772 0.54867
 N71 N 1.06687 0.61245 0.56121
 Mn72 Mn 0.99823 0.57222 0.49512
 C73 C 1.08285 0.60244 0.60635
 C74 C 0.90638 0.58209 0.60430
 N75 N 1.05391 0.45479 0.40487
 N76 N 1.07882 0.44590 0.36607
 N77 N 0.97075 0.41228 0.44417
 N78 N 0.94643 0.37747 0.43642
 N79 N 0.96349 0.44157 0.41039
 N80 N 0.93405 0.42719 0.37835
 N81 N 1.06098 0.42765 0.44112
 N82 N 1.09113 0.39990 0.42794
 Mn83 Mn 1.00266 0.49441 0.40692
 C84 C 1.10245 0.41219 0.38146
 C85 C 0.92351 0.38725 0.39553
 N86 N 0.96527 0.44343 0.58354
 N87 N 0.93710 0.42911 0.61741
 N88 N 1.06187 0.42899 0.54903
 N89 N 1.09332 0.40259 0.56090
 N90 N 1.05602 0.45772 0.58450
 N91 N 1.08360 0.45188 0.62110
 N92 N 0.97179 0.41356 0.54956
 N93 N 0.94833 0.37857 0.55893
 Mn94 Mn 1.00445 0.49678 0.58430
 Mn95 Mn 1.01677 0.42050 0.49597
 Cl96 Cl 1.00554 0.49607 0.49560
 C97 C 0.92658 0.38864 0.60103
 C98 C 1.10708 0.41780 0.60549
 N99 N 0.57303 0.04627 0.55508
 N100 N 0.60460 0.07373 0.56753
 N101 N 0.54488 -0.04462 0.59092
 N102 N 0.55495 -0.07106 0.62707
 N103 N 0.57520 -0.04449 0.55627
 N104 N 0.60645 -0.07135 0.56759
 N105 N 0.54244 0.04539 0.58952
 N106 N 0.55286 0.07168 0.62655
 C107 C 0.59122 0.08976 0.61184
 C108 C 0.59307 -0.08793 0.61159
 N109 N 0.42074 -0.05172 0.55581
 N110 N 0.39101 -0.08131 0.56793
 N111 N 0.44800 0.04090 0.58851
 N112 N 0.43619 0.06747 0.62453
 N113 N 0.41786 0.03854 0.55403
 N114 N 0.38487 0.06346 0.56580
 N115 N 0.45136 -0.04951 0.58971
 N116 N 0.44371 -0.07781 0.62512
 Mn117 Mn 0.49659 -0.00188 0.58996
 C118 C 0.40630 -0.09773 0.61086
 C119 C 0.39732 0.08196 0.60918
 N120 N 0.57636 -0.04644 0.44940
 N121 N 0.60796 -0.07336 0.43839
 N122 N 0.54423 0.04195 0.41353
 N123 N 0.55439 0.06768 0.37631
 N124 N 0.57416 0.04434 0.44809
 N125 N 0.60526 0.07231 0.43548
 N126 N 0.54630 -0.04793 0.41497
 N127 N 0.55665 -0.07539 0.37949
 Mn128 Mn 0.57507 -0.00008 0.50223
 C129 C 0.59476 -0.09145 0.39493
 C130 C 0.59204 0.08695 0.39090
 N131 N 0.41929 0.03691 0.44645
 N132 N 0.38985 0.06608 0.43606
 N133 N 0.45329 -0.05264 0.41417
 N134 N 0.44549 -0.08076 0.37817
 N135 N 0.42172 -0.05354 0.44737
 N136 N 0.39114 -0.08191 0.43410
 N137 N 0.45097 0.03799 0.41345
 N138 N 0.44446 0.06809 0.38023
 Mn139 Mn 0.41940 -0.00754 0.50093
 Mn140 Mn 0.49862 -0.00514 0.41383
 Cl141 Cl 0.49740 -0.00361 0.50182
 C142 C 0.40643 0.08550 0.39487
 C143 C 0.40697 -0.09920 0.39133
 N144 N 0.58027 0.54961 0.05158
 N145 N 0.61005 0.58006 0.05773
 N146 N 0.54944 0.45880 0.08747
 N147 N 0.55680 0.42648 0.11819
 N148 N 0.57849 0.45922 0.05157
 N149 N 0.60573 0.42732 0.05597
 N150 N 0.55160 0.54991 0.08788
 N151 N 0.56174 0.58054 0.12064
 C152 C 0.59804 0.59933 0.10055
 C153 C 0.59193 0.40696 0.09733
 N154 N 0.42494 0.45993 0.05321
 N155 N 0.39268 0.43304 0.06483
 N156 N 0.45712 0.55054 0.08818
 N157 N 0.44790 0.57866 0.12372
 N158 N 0.42696 0.55060 0.05364
 N159 N 0.39639 0.57857 0.06520
 N160 N 0.45496 0.45996 0.08788
 N161 N 0.44378 0.43316 0.12386
 Mn162 Mn 0.50325 0.50479 0.08852
 C163 C 0.40548 0.41589 0.10827
 C164 C 0.41021 0.59630 0.10864
 N165 N 0.57928 0.45850 -0.05295
 N166 N 0.60646 0.42644 -0.05712
 N167 N 0.55309 0.54891 -0.08962
 N168 N 0.56417 0.57883 -0.12262
 N169 N 0.58125 0.54899 -0.05324
 N170 N 0.61156 0.57896 -0.05963
 N171 N 0.55077 0.45763 -0.08895
 N172 N 0.55847 0.42483 -0.11956
 Mn173 Mn 0.57988 0.50415 -0.00075
 C174 C 0.59320 0.40551 -0.09848
 C175 C 0.60053 0.59763 -0.10266
 N176 N 0.42781 0.54968 -0.05484
 N177 N 0.39793 0.57826 -0.06544
 N178 N 0.45631 0.45829 -0.08884
 N179 N 0.44842 0.42715 -0.12148
 N180 N 0.42548 0.45911 -0.05467
 N181 N 0.39552 0.42889 -0.06367
 N182 N 0.45830 0.54924 -0.08948
 N183 N 0.45004 0.57783 -0.12419
 Mn184 Mn 0.42586 0.50488 -0.00070
 Mn185 Mn 0.50453 0.50352 -0.08999
 Cl186 Cl 0.50312 0.50442 -0.00075
 C187 C 0.41251 0.59597 -0.10840
 C188 C 0.41055 0.40893 -0.10516
 C189 C 1.16311 0.17489 0.20715
 C190 C 1.16767 0.17503 0.15537
 N191 N 1.19845 0.20087 0.13407
 C192 C 1.22607 0.22543 0.16222
 C193 C 1.22428 0.22282 0.21479
 N194 N 1.19147 0.19836 0.23531
 N195 N 1.13132 0.15017 0.22857
 C196 C 1.10438 0.12485 0.20038
 C197 C 1.11031 0.12334 0.14856
 N198 N 1.14169 0.14885 0.12725
 H199 H 1.24892 0.24633 0.14305
 H200 H 1.07977 0.10488 0.21841
 C201 C 1.15188 0.68685 0.70224
 C202 C 1.17366 0.66390 0.66461
 N203 N 1.21749 0.66806 0.66001
 C204 C 1.24060 0.69449 0.69094
 C205 C 1.21901 0.71863 0.72814
 N206 N 1.17495 0.71357 0.73302
 N207 N 1.10801 0.68209 0.70727
 C208 C 1.08498 0.65542 0.67633
 C209 C 1.10673 0.63281 0.63845
 N210 N 1.15066 0.63747 0.63356
 H211 H 1.27558 0.69722 0.68619
 H212 H 1.05007 0.65178 0.68124
 C213 C 0.67115 0.16760 0.70410
 C214 C 0.67546 0.16970 0.65239
 N215 N 0.70453 0.19818 0.63222
 C216 C 0.72961 0.22465 0.66137
 C217 C 0.72632 0.22200 0.71380
 N218 N 0.69659 0.19331 0.73308
 N219 N 0.64044 0.14112 0.72465
 C220 C 0.61374 0.11642 0.69562
 C221 C 0.61841 0.11776 0.64369
 N222 N 0.64942 0.14435 0.62321
 H223 H 0.74994 0.24843 0.64310
 H224 H 0.58966 0.09539 0.71299
 C225 C 0.68617 0.68749 0.16583
 C226 C 0.65688 0.66371 0.19573
 N227 N 0.65984 0.66678 0.24589
 C228 C 0.69054 0.69283 0.26746
 C229 C 0.71973 0.71724 0.23753
 N230 N 0.71677 0.71327 0.18729
 N231 N 0.68385 0.68422 0.11574
 C232 C 0.65395 0.65760 0.09404
 C233 C 0.62514 0.63301 0.12376
 N234 N 0.62702 0.63683 0.17409
 H235 H 0.69215 0.69469 0.30757
 H236 H 0.65338 0.65490 0.05391
 C237 C 0.84030 -0.19276 0.18548
 C238 C 0.81554 -0.16749 0.15356
 N239 N 0.77151 -0.17137 0.15474
 C240 C 0.75104 -0.19862 0.18706
 C241 C 0.77558 -0.22330 0.22066
 N242 N 0.81990 -0.21983 0.21784
 N243 N 0.88429 -0.18829 0.18541
 C244 C 0.90465 -0.15894 0.15564
 C245 C 0.87994 -0.13264 0.12457
 N246 N 0.83581 -0.13793 0.12380
 H247 H 0.71587 -0.20079 0.18650
 H248 H 0.93977 -0.15535 0.15720
 C249 C 0.84011 0.29984 0.67082
 C250 C 0.84217 0.34317 0.68642
 N251 N 0.81537 0.35666 0.72329
 C252 C 0.78575 0.32922 0.74440
 C253 C 0.78169 0.28586 0.72728
 N254 N 0.81065 0.27226 0.69205
 N255 N 0.86675 0.28629 0.63371
 C256 C 0.89504 0.31424 0.61111
 C257 C 0.89700 0.35783 0.62638
 N258 N 0.87061 0.37118 0.66410
 H259 H 0.76580 0.34149 0.77439
 H260 H 0.91569 0.30248 0.58139
 C261 C 0.33783 -0.18492 0.70391
 C262 C 0.31657 -0.16416 0.66501
 N263 N 0.27318 -0.17071 0.65877
 C264 C 0.25013 -0.19751 0.68929
 C265 C 0.27143 -0.21964 0.72761
 N266 N 0.31489 -0.21195 0.73417
 N267 N 0.38106 -0.17759 0.71092
 C268 C 0.40399 -0.15026 0.68087
 C269 C 0.38282 -0.12949 0.64177
 N270 N 0.33948 -0.13705 0.63475
 H271 H 0.21547 -0.20192 0.68348
 H272 H 0.43838 -0.14470 0.68757
 C273 C 0.32076 0.34101 0.19731
 C274 C 0.34988 0.32103 0.16436
 N275 N 0.34974 0.27735 0.16050
 C276 C 0.32153 0.25269 0.18781
 C277 C 0.29140 0.27249 0.22043
 N278 N 0.29245 0.31646 0.22425
 N279 N 0.32057 0.38471 0.20111
 C280 C 0.34810 0.40942 0.17310
 C281 C 0.37687 0.38954 0.13972
 N282 N 0.37726 0.34571 0.13611
 H283 H 0.32157 0.21796 0.18303
 H284 H 0.34730 0.44426 0.17646
 C285 C 0.83942 0.19372 -0.18678
 C286 C 0.81709 0.16917 -0.15092
 N287 N 0.77335 0.17338 -0.14574
 C288 C 0.75083 0.20083 -0.17493
 C289 C 0.77295 0.22595 -0.21121
 N290 N 0.81701 0.22119 -0.21582
 N291 N 0.88289 0.18847 -0.19339
 C292 C 0.90505 0.15946 -0.16602
 C293 C 0.88283 0.13448 -0.13016
 N294 N 0.83921 0.14022 -0.12331
 H295 H 0.71584 0.20214 -0.17056
 H296 H 0.93963 0.15572 -0.17249
 C297 C 0.81658 0.65266 0.30709
 C298 C 0.84777 0.67274 0.33766
 N299 N 0.84984 0.71642 0.34092
 C300 C 0.82141 0.74107 0.31573
 C301 C 0.78812 0.72121 0.28716
 N302 N 0.78746 0.67719 0.28298
 N303 N 0.81557 0.60891 0.30255
 C304 C 0.84420 0.58430 0.32777
 C305 C 0.87439 0.60438 0.35979
 N306 N 0.87550 0.64821 0.36372
 H307 H 0.82370 0.77587 0.31926
 H308 H 0.84274 0.54951 0.32377
 C309 C 0.34413 0.17861 0.30862
 C310 C 0.32008 0.15294 0.34202
 N311 N 0.27625 0.15709 0.34490
 C312 C 0.25531 0.18555 0.31566
 C313 C 0.27923 0.21160 0.28168
 N314 N 0.32334 0.20729 0.27992
 N315 N 0.38790 0.17423 0.30503
 C316 C 0.40874 0.14497 0.33317
 C317 C 0.38478 0.11917 0.36674
 N318 N 0.34088 0.12392 0.37056
 H319 H 0.22056 0.18893 0.32041
 H320 H 0.44366 0.14180 0.32923
 C321 C 0.34036 0.68490 -0.19158
 C322 C 0.32157 0.66348 -0.15081
 N323 N 0.27916 0.67008 -0.13909
 C324 C 0.25470 0.69745 -0.16604
 C325 C 0.27356 0.72019 -0.20632
 N326 N 0.31603 0.71247 -0.21831
 N327 N 0.38248 0.67732 -0.20419
 C328 C 0.40666 0.64919 -0.17786
 C329 C 0.38797 0.62778 -0.13682
 N330 N 0.34574 0.63561 -0.12431
 H331 H 0.22074 0.70145 -0.15625
 H332 H 0.44007 0.64358 -0.18888
 C333 C 1.15371 -0.18181 -0.18832
 C334 C 1.17360 -0.16118 -0.14755
 N335 N 1.21546 -0.17015 -0.13645
 C336 C 1.23836 -0.19894 -0.16409
 C337 C 1.21844 -0.22073 -0.20457
 N338 N 1.17651 -0.21078 -0.21586
 N339 N 1.11227 -0.17175 -0.20042
 C340 C 1.08986 -0.14186 -0.17370
 C341 C 1.10970 -0.12108 -0.13281
 N342 N 1.15120 -0.13147 -0.12067
 H343 H 1.27205 -0.20449 -0.15491
 H344 H 1.05696 -0.13430 -0.18441
 C345 C 1.17774 0.33095 0.29042
 C346 C 1.18630 0.33520 0.34136
 N347 N 1.21849 0.31210 0.36185
 C348 C 1.24197 0.28405 0.33400
 C349 C 1.23168 0.27720 0.28331
 N350 N 1.20027 0.30198 0.26279
 N351 N 1.14680 0.35563 0.26952
 C352 C 1.12349 0.38385 0.29759
 C353 C 1.13072 0.38664 0.34904
 N354 N 1.16217 0.36230 0.36962
 H355 H 1.26836 0.26748 0.35159
 H356 H 1.09843 0.40259 0.28026
 C357 C 0.67185 -0.17174 0.30542
 C358 C 0.67742 -0.17084 0.35701
 N359 N 0.70719 -0.19684 0.37781
 C360 C 0.73222 -0.22317 0.34924
 C361 C 0.72834 -0.22264 0.29679
 N362 N 0.69729 -0.19722 0.27707
 N363 N 0.64080 -0.14753 0.28432
 C364 C 0.61504 -0.12206 0.31270
 C365 C 0.62115 -0.12020 0.36437
 N366 N 0.65229 -0.14469 0.38547
 H367 H 0.75375 -0.24473 0.36795
 H368 H 0.59061 -0.10282 0.29491
 C369 C 0.67596 0.31084 -0.15690
 C370 C 0.64812 0.33337 -0.18845
 N371 N 0.65196 0.32820 -0.23828
 C372 C 0.68254 0.30189 -0.25806
 C373 C 0.71110 0.27952 -0.22668
 N374 N 0.70686 0.28488 -0.17662
 N375 N 0.67300 0.31684 -0.10711
 C376 C 0.64427 0.34516 -0.08746
 C377 C 0.61750 0.36901 -0.11898
 N378 N 0.61966 0.36211 -0.16889
 H379 H 0.68546 0.29933 -0.29806
 H380 H 0.64342 0.35014 -0.04762
 C381 C 1.18433 0.19019 -0.15601
 C382 C 1.15455 0.16694 -0.18574
 N383 N 1.15667 0.17100 -0.23576
 C384 C 1.18688 0.19748 -0.25749
 C385 C 1.21654 0.22186 -0.22801
 N386 N 1.21444 0.21691 -0.17766
 N387 N 1.18314 0.18507 -0.10601
 C388 C 1.15383 0.15747 -0.08445
 C389 C 1.12403 0.13392 -0.11413
 N390 N 1.12504 0.13944 -0.16427
 H391 H 1.18788 0.19891 -0.29750
 H392 H 1.15409 0.15357 -0.04452
 C393 C 1.15610 0.67997 0.28594
 C394 C 1.17118 0.66965 0.33343
 N395 N 1.21076 0.68453 0.34820
 C396 C 1.23551 0.71037 0.31836
 C397 C 1.21925 0.72417 0.27186
 N398 N 1.18025 0.70683 0.25649
 N399 N 1.11755 0.66290 0.27006
 C400 C 1.09330 0.63626 0.29975
 C401 C 1.10772 0.62712 0.34792
 N402 N 1.14649 0.64399 0.36360
 H403 H 1.26743 0.72051 0.33129
 H404 H 1.06273 0.62289 0.28626
 C405 C 0.66819 0.16684 0.29741
 C406 C 0.67178 0.17054 0.34912
 N407 N 0.69865 0.20131 0.36879
 C408 C 0.72243 0.22838 0.33913
 C409 C 0.72017 0.22390 0.28678
 N410 N 0.69238 0.19320 0.26793
 N411 N 0.63961 0.13788 0.27734
 C412 C 0.61434 0.11225 0.30684
 C413 C 0.61833 0.11526 0.35874
 N414 N 0.64717 0.14433 0.37877
 H415 H 0.74110 0.25388 0.35685
 H416 H 0.59185 0.08931 0.28988
 C417 C 0.68826 0.68769 -0.16723
 C418 C 0.65885 0.66408 -0.19718
 N419 N 0.66110 0.66823 -0.24723
 C420 C 0.69110 0.69514 -0.26867
 C421 C 0.72039 0.71956 -0.23881
 N422 N 0.71824 0.71456 -0.18860
 N423 N 0.68664 0.68312 -0.11724
 C424 C 0.65733 0.65560 -0.09579
 C425 C 0.62817 0.63139 -0.12559
 N426 N 0.62947 0.63640 -0.17579
 H427 H 0.69216 0.69758 -0.30874
 H428 H 0.65728 0.65213 -0.05579
 C429 C 0.84272 -0.18409 -0.19782
 C430 C 0.81950 -0.16124 -0.16152
 N431 N 0.77594 -0.16842 -0.15667
 C432 C 0.75441 -0.19701 -0.18684
 C433 C 0.77736 -0.22010 -0.22400
 N434 N 0.82131 -0.21277 -0.22771
 N435 N 0.88600 -0.17591 -0.20411
 C436 C 0.90709 -0.14554 -0.17597
 C437 C 0.88394 -0.12231 -0.13962
 N438 N 0.84056 -0.13104 -0.13306
 H439 H 0.71955 -0.20104 -0.18232
 H440 H 0.94154 -0.13945 -0.18212
 C441 C 0.83410 0.30013 0.32837
 C442 C 0.83649 0.34347 0.31370
 N443 N 0.80933 0.35754 0.27815
 C444 C 0.77917 0.33056 0.25725
 C445 C 0.77522 0.28707 0.27306
 N446 N 0.80424 0.27302 0.30727
 N447 N 0.86106 0.28603 0.36423
 C448 C 0.89015 0.31346 0.38635
 C449 C 0.89263 0.35697 0.37173
 N450 N 0.86579 0.37087 0.33541
 H451 H 0.75892 0.34325 0.22833
 H452 H 0.91117 0.30135 0.41500
 C453 C 0.33734 -0.18381 0.29550
 C454 C 0.31569 -0.16043 0.33276
 N455 N 0.27179 -0.16396 0.33695
 C456 C 0.24854 -0.19054 0.30629
 C457 C 0.27011 -0.21615 0.27000
 N458 N 0.31423 -0.21087 0.26522
 N459 N 0.38123 -0.17950 0.29061
 C460 C 0.40445 -0.15286 0.32137
 C461 C 0.38290 -0.12981 0.35918
 N462 N 0.33887 -0.13416 0.36386
 H463 H 0.21353 -0.19275 0.31104
 H464 H 0.43940 -0.14979 0.31642
 C465 C 0.34289 0.31233 -0.18701
 C466 C 0.32075 0.33775 -0.15215
 N467 N 0.27679 0.33331 -0.14771
 C468 C 0.25388 0.30514 -0.17718
 C469 C 0.27579 0.27999 -0.21328
 N470 N 0.32009 0.28430 -0.21620
 N471 N 0.38655 0.31768 -0.19313
 C472 C 0.40915 0.34783 -0.16634
 C473 C 0.38714 0.37385 -0.13169
 N474 N 0.34332 0.36786 -0.12506
 H475 H 0.21878 0.30334 -0.17351
 H476 H 0.44389 0.35175 -0.17244
 C477 C 1.15198 -0.18414 0.19103
 C478 C 1.17171 -0.16219 0.15119
 N479 N 1.21425 -0.16891 0.14042
 C480 C 1.23809 -0.19668 0.16752
 C481 C 1.21853 -0.21986 0.20735
 N482 N 1.17570 -0.21210 0.21813
 N483 N 1.10970 -0.17634 0.20269
 C484 C 1.08631 -0.14745 0.17642
 C485 C 1.10603 -0.12530 0.13648
 N486 N 1.14838 -0.13346 0.12483
 H487 H 1.27224 -0.20041 0.15846
 H488 H 1.05277 -0.14168 0.18678
 C489 C 1.18796 0.34578 0.69808
 C490 C 1.18031 0.33304 0.64878
 N491 N 1.19653 0.29543 0.63153
 C492 C 1.21992 0.26965 0.66142
 C493 C 1.22751 0.28172 0.71156
 N494 N 1.21095 0.31983 0.72819
 N495 N 1.17121 0.38329 0.71545
 C496 C 1.14651 0.40831 0.68580
 C497 C 1.13783 0.39489 0.63677
 N498 N 1.15530 0.35764 0.61942
 H499 H 1.23160 0.23955 0.64621
 H500 H 1.13287 0.43768 0.70080
 C501 C 0.67144 -0.16798 0.69791
 C502 C 0.67475 -0.16856 0.64600
 N503 N 0.70293 -0.19574 0.62348
 C504 C 0.72864 -0.22187 0.65052
 C505 C 0.72734 -0.21988 0.70314
 N506 N 0.69773 -0.19325 0.72488
 N507 N 0.64166 -0.14254 0.72059
 C508 C 0.61517 -0.11727 0.69351
 C509 C 0.61929 -0.11682 0.64149
 N510 N 0.64906 -0.14259 0.61891
 H511 H 0.74863 -0.24452 0.63057
 H512 H 0.59189 -0.09699 0.71247
 C513 C 0.67294 0.31228 0.15635
 C514 C 0.64380 0.33450 0.18747
 N515 N 0.64562 0.32888 0.23726
 C516 C 0.67543 0.30240 0.25741
 C517 C 0.70526 0.28032 0.22646
 N518 N 0.70307 0.28621 0.17645
 N519 N 0.67203 0.31872 0.10666
 C520 C 0.64405 0.34714 0.08675
 C521 C 0.61592 0.37067 0.11790
 N522 N 0.61607 0.36337 0.16767
 H523 H 0.67679 0.29963 0.29740
 H524 H 0.64480 0.35238 0.04704
 C525 C 0.83357 0.19129 0.19075
 C526 C 0.81217 0.16735 0.15358
 N527 N 0.76895 0.17313 0.14632
 C528 C 0.74608 0.20164 0.17460
 C529 C 0.76737 0.22636 0.21195
 N530 N 0.81085 0.21987 0.21875
 N531 N 0.87633 0.18430 0.19971
 C532 C 0.89866 0.15415 0.17336
 C533 C 0.87739 0.12992 0.13607
 N534 N 0.83452 0.13737 0.12689
 H535 H 0.71137 0.20393 0.16888
 H536 H 0.93264 0.14905 0.18161
 C537 C 0.81763 0.65553 0.68866
 C538 C 0.84703 0.67534 0.65556
 N539 N 0.84746 0.71888 0.65081
 C540 C 0.81917 0.74360 0.67705
 C541 C 0.78770 0.72392 0.70853
 N542 N 0.78866 0.68009 0.71398
 N543 N 0.81835 0.61201 0.69468
 C544 C 0.84702 0.58737 0.66865
 C545 C 0.87555 0.60708 0.63432
 N546 N 0.87487 0.65071 0.62880
 H547 H 0.82029 0.77828 0.67235
 H548 H 0.84697 0.55277 0.67398
 C549 C 0.31238 0.15630 0.69654
 C550 C 0.34246 0.17626 0.66412
 N551 N 0.34339 0.21983 0.66012
 C552 C 0.31535 0.24445 0.68677
 C553 C 0.28447 0.22473 0.71902
 N554 N 0.28428 0.18085 0.72311
 N555 N 0.31123 0.11261 0.70024
 C556 C 0.33872 0.08797 0.67273
 C557 C 0.36855 0.10794 0.64012
 N558 N 0.36985 0.15168 0.63658
 H559 H 0.31656 0.27916 0.68239
 H560 H 0.33715 0.05316 0.67598
 C561 C 0.33706 0.68470 0.19493
 C562 C 0.31940 0.66541 0.15215
 N563 N 0.27796 0.67426 0.13911
 C564 C 0.25355 0.70215 0.16633
 C565 C 0.27152 0.72359 0.20852
 N566 N 0.31278 0.71275 0.22209
 N567 N 0.37823 0.67507 0.20865
 C568 C 0.40258 0.64705 0.18143
 C569 C 0.38508 0.62776 0.13827
 N570 N 0.34370 0.63751 0.12478
 H571 H 0.22034 0.70763 0.15505
 H572 H 0.43524 0.63991 0.19339
   
