data_POSCAR
  _audit_creation_date              2014-09-24
  _audit_creation_method            'ToBaCCo'
  _symmetry_space_group_name_H-M    'P1'
  _symmetry_Int_Tables_number       1
  _symmetry_cell_setting            triclinic
  loop_
  _symmetry_equiv_pos_as_xyz
 x,y,z
_cell_length_a 44.5785
_cell_length_b 44.0143
_cell_length_c 44.5697
_cell_angle_alpha 90.052100
_cell_angle_beta 90.000900
_cell_angle_gamma 89.983500
loop_
  _atom_site_label
  _atom_site_type_symbol
  _atom_site_fract_x
  _atom_site_fract_y
  _atom_site_fract_z
N1 N 0.62480 0.62487 0.62550
 N2 N 0.87562 0.37491 0.12531
 N3 N 0.37561 0.12499 -0.12517
 N4 N 0.12467 0.87498 0.37473
 N5 N 0.09011 0.17278 0.11115
 N6 N 0.07803 0.16003 0.13495
 C7 C 0.05368 0.17614 0.14324
 C8 C 0.05054 0.20005 0.12356
 C9 C 0.07389 0.19738 0.10348
 H10 H 0.03932 0.17096 0.16211
 H11 H 0.07869 0.21221 0.08475
 Cu12 Cu 0.09532 0.12368 0.15276
 Cu13 Cu 0.12593 0.15658 0.09193
 Cu14 Cu 0.15792 0.09251 0.12391
 N15 N 0.11392 0.08813 0.17083
 N16 N 0.13840 0.07605 0.15943
 C17 C 0.14651 0.05189 0.17608
 C18 C 0.12602 0.04883 0.19901
 C19 C 0.10563 0.07205 0.19518
 H20 H 0.16583 0.03764 0.17186
 H21 H 0.08631 0.07679 0.20909
 N22 N 0.17436 0.11245 0.08793
 N23 N 0.16217 0.13686 0.07575
 C24 C 0.17843 0.14500 0.05156
 C25 C 0.20179 0.12475 0.04857
 C26 C 0.19870 0.10442 0.07182
 H27 H 0.17370 0.16417 0.03716
 H28 H 0.21310 0.08525 0.07656
 H29 H 0.12007 0.11202 0.10530
 H30 H 0.14342 0.13670 0.13014
 N31 N 0.40990 0.82656 0.61137
 N32 N 0.42166 0.83902 0.63550
 C33 C 0.44602 0.82293 0.64378
 C34 C 0.44949 0.79932 0.62375
 C35 C 0.42634 0.80215 0.60347
 H36 H 0.46017 0.82792 0.66287
 H37 H 0.42182 0.78758 0.58445
 Cu38 Cu 0.40391 0.87500 0.65363
 Cu39 Cu 0.37421 0.84286 0.59199
 Cu40 Cu 0.34223 0.90704 0.62398
 N41 N 0.38579 0.91099 0.67138
 N42 N 0.36164 0.92341 0.65965
 C43 C 0.35374 0.94781 0.67610
 C44 C 0.37404 0.95069 0.69923
 C45 C 0.39408 0.92711 0.69574
 H46 H 0.33470 0.96235 0.67160
 H47 H 0.41317 0.92215 0.70988
 N48 N 0.32590 0.88714 0.58787
 N49 N 0.33808 0.86270 0.57568
 C50 C 0.32187 0.85458 0.55144
 C51 C 0.29857 0.87488 0.54840
 C52 C 0.30163 0.89521 0.57169
 H53 H 0.32660 0.83537 0.53704
 H54 H 0.28723 0.91439 0.57642
 H55 H 0.38019 0.88727 0.60585
 H56 H 0.35611 0.86265 0.62997
 N57 N 0.90926 0.67390 0.38827
 N58 N 0.92066 0.66186 0.36376
 C59 C 0.94499 0.67798 0.35549
 C60 C 0.94882 0.70119 0.37591
 C61 C 0.92590 0.69807 0.39641
 H62 H 0.95890 0.67327 0.33615
 H63 H 0.92168 0.71230 0.41576
 Cu64 Cu 0.90264 0.62629 0.34511
 Cu65 Cu 0.87379 0.65736 0.40779
 Cu66 Cu 0.84190 0.59323 0.37575
 N67 N 0.88488 0.58990 0.32781
 N68 N 0.86112 0.57708 0.33990
 C69 C 0.85349 0.55245 0.32366
 C70 C 0.87356 0.54984 0.30030
 C71 C 0.89319 0.57381 0.30344
 H72 H 0.83480 0.53757 0.32847
 H73 H 0.91204 0.57904 0.28907
 N74 N 0.82570 0.61290 0.41202
 N75 N 0.83785 0.63734 0.42423
 C76 C 0.82173 0.64533 0.44858
 C77 C 0.79852 0.62495 0.45166
 C78 C 0.80154 0.60470 0.42828
 H79 H 0.82644 0.66451 0.46300
 H80 H 0.78716 0.58551 0.42353
 H81 H 0.88009 0.61319 0.39322
 H82 H 0.85518 0.63782 0.36993
 N83 N 0.59003 0.32707 -0.11094
 N84 N 0.57794 0.33984 -0.13472
 C85 C 0.55359 0.32375 -0.14301
 C86 C 0.55045 0.29983 -0.12333
 C87 C 0.57381 0.30248 -0.10326
 H88 H 0.53922 0.32894 -0.16187
 H89 H 0.57861 0.28764 -0.08454
 Cu90 Cu 0.59524 0.37617 -0.15254
 Cu91 Cu 0.62587 0.34323 -0.09173
 Cu92 Cu 0.65788 0.40726 -0.12372
 N93 N 0.61385 0.41170 -0.17061
 N94 N 0.63835 0.42375 -0.15922
 C95 C 0.64647 0.44790 -0.17588
 C96 C 0.62596 0.45099 -0.19879
 C97 C 0.60556 0.42780 -0.19495
 H98 H 0.66580 0.46213 -0.17167
 H99 H 0.58623 0.42309 -0.20885
 N100 N 0.67434 0.38730 -0.08775
 N101 N 0.66213 0.36290 -0.07556
 C102 C 0.67840 0.35474 -0.05138
 C103 C 0.70176 0.37496 -0.04840
 C104 C 0.69868 0.39530 -0.07165
 H105 H 0.67365 0.33558 -0.03697
 H106 H 0.71309 0.41445 -0.07639
 H107 H 0.62004 0.38780 -0.10509
 H108 H 0.64335 0.36309 -0.12995
 C109 C -0.04896 0.33727 0.13094
 C110 C -0.05637 0.30699 0.12480
 C111 C -0.08621 0.29910 0.11884
 C112 C -0.10855 0.32139 0.11902
 C113 C -0.10130 0.35186 0.12515
 C114 C -0.07128 0.35958 0.13112
 C115 C -0.03338 0.28403 0.12458
 C116 C -0.01413 0.26479 0.12438
 C117 C 0.00839 0.24225 0.12412
 C118 C 0.02763 0.22300 0.12387
 H119 H -0.02594 0.34363 0.13553
 H120 H -0.09220 0.27573 0.11411
 H121 H -0.13155 0.31489 0.11459
 H122 H -0.06515 0.38293 0.13567
 C123 C 0.58654 0.70060 0.61885
 C124 C 0.55671 0.69270 0.62482
 C125 C 0.54934 0.66244 0.63101
 C126 C 0.57168 0.64015 0.63124
 C127 C 0.60170 0.64789 0.62528
 C128 C 0.60891 0.67834 0.61908
 C129 C 0.53369 0.71563 0.62456
 C130 C 0.51440 0.73483 0.62436
 C131 C 0.49181 0.75730 0.62414
 C132 C 0.47251 0.77648 0.62396
 H133 H 0.59250 0.72396 0.61407
 H134 H 0.52632 0.65606 0.63561
 H135 H 0.56558 0.61681 0.63585
 H136 H 0.63190 0.68486 0.61465
 C137 C 1.08617 0.79938 0.38133
 C138 C 1.05638 0.80739 0.37534
 C139 C 1.04909 0.83769 0.36917
 C140 C 1.07151 0.85990 0.36899
 C141 C 1.10149 0.85204 0.37496
 C142 C 1.10861 0.82156 0.38114
 C143 C 1.03329 0.78454 0.37550
 C144 C 1.01394 0.76542 0.37561
 C145 C 0.99127 0.74304 0.37573
 C146 C 0.97191 0.72394 0.37582
 H147 H 1.09206 0.77599 0.38608
 H148 H 1.02610 0.84415 0.36455
 H149 H 1.06547 0.88326 0.36440
 H150 H 1.13158 0.81495 0.38558
 C151 C 0.43008 0.18430 -0.15162
 C152 C 0.44360 0.19289 -0.12456
 C153 C 0.43472 0.17909 -0.09771
 C154 C 0.41240 0.15678 -0.09789
 C155 C 0.39869 0.14802 -0.12497
 C156 C 0.40775 0.16201 -0.15183
 C157 C 0.46657 0.21587 -0.12434
 C158 C 0.48580 0.23511 -0.12414
 C159 C 0.50831 0.25765 -0.12389
 C160 C 0.52754 0.27690 -0.12364
 H161 H 0.43675 0.19487 -0.17252
 H162 H 0.44507 0.18553 -0.07665
 H163 H 0.40594 0.14616 -0.07697
 H164 H 0.39735 0.15579 -0.17291
 C165 C 0.13136 -0.04940 0.33633
 C166 C 0.12532 -0.05738 0.30652
 C167 C 0.11910 -0.08767 0.29920
 C168 C 0.11890 -0.10989 0.32158
 C169 C 0.12492 -0.10207 0.35158
 C170 C 0.13116 -0.07160 0.35874
 C171 C 0.12550 -0.03451 0.28346
 C172 C 0.12563 -0.01538 0.26413
 C173 C 0.12578 0.00700 0.24147
 C174 C 0.12589 0.02610 0.22211
 H175 H 0.13616 -0.02602 0.34225
 H176 H 0.11444 -0.09410 0.27620
 H177 H 0.11426 -0.13325 0.31552
 H178 H 0.13563 -0.06502 0.38172
 C179 C 0.61915 0.58752 -0.29897
 C180 C 0.62532 0.55722 -0.30629
 C181 C 0.63132 0.54922 -0.33609
 C182 C 0.63116 0.57142 -0.35850
 C183 C 0.62499 0.60191 -0.35135
 C184 C 0.61899 0.60975 -0.32135
 C185 C 0.62547 0.53435 -0.28322
 C186 C 0.62559 0.51522 -0.26389
 C187 C 0.62572 0.49283 -0.24124
 C188 C 0.62583 0.47373 -0.22189
 H189 H 0.61452 0.59397 -0.27596
 H190 H 0.63608 0.52583 -0.34202
 H191 H 0.63562 0.56483 -0.38148
 H192 H 0.61440 0.63311 -0.31529
 C193 C 0.34813 1.07099 0.81561
 C194 C 0.37499 1.05725 0.80660
 C195 C 0.40205 1.06584 0.82008
 C196 C 0.40227 1.08809 0.84249
 C197 C 0.37540 1.10201 0.85167
 C198 C 0.34832 1.09324 0.83800
 C199 C 0.37477 1.03433 0.78354
 C200 C 0.37458 1.01516 0.76422
 C201 C 0.37439 0.99270 0.74159
 C202 C 0.37423 0.97353 0.72227
 H203 H 0.32706 1.06454 0.80529
 H204 H 0.42296 1.05532 0.81332
 H205 H 0.42336 1.09431 0.85286
 H206 H 0.32739 1.10382 0.84456
 C207 C 0.88120 0.41261 0.20074
 C208 C 0.87503 0.44288 0.19333
 C209 C 0.86908 0.45074 0.16349
 C210 C 0.86929 0.42844 0.14114
 C211 C 0.87545 0.39798 0.14839
 C212 C 0.88141 0.39029 0.17842
 C213 C 0.87476 0.46585 0.21633
 C214 C 0.87451 0.48509 0.23559
 C215 C 0.87420 0.50763 0.25813
 C216 C 0.87392 0.52689 0.27737
 H217 H 0.88579 0.40627 0.22377
 H218 H 0.86432 0.47410 0.15750
 H219 H 0.86486 0.43492 0.11814
 H220 H 0.88599 0.36695 0.18455
 C221 C 0.32138 0.09755 -0.06667
 C222 C 0.30814 0.12489 -0.05757
 C223 C 0.31715 0.15227 -0.07075
 C224 C 0.33931 0.15232 -0.09294
 C225 C 0.35272 0.12496 -0.10222
 C226 C 0.34354 0.09757 -0.08886
 C227 C 0.28531 0.12485 -0.03474
 C228 C 0.26618 0.12483 -0.01562
 C229 C 0.24377 0.12480 0.00674
 C230 C 0.22462 0.12478 0.02583
 H231 H 0.31460 0.07624 -0.05659
 H232 H 0.30702 0.17355 -0.06390
 H233 H 0.34586 0.17365 -0.10307
 H234 H 0.35372 0.07626 -0.09549
 C235 C 0.66242 0.63042 0.55030
 C236 C 0.69235 0.62477 0.55798
 C237 C 0.70001 0.61913 0.58793
 C238 C 0.67785 0.61915 0.61011
 C239 C 0.64772 0.62481 0.60259
 C240 C 0.64023 0.63044 0.57246
 C241 C 0.71519 0.62477 0.53516
 C242 C 0.73431 0.62480 0.51603
 C243 C 0.75668 0.62484 0.49363
 C244 C 0.77577 0.62488 0.47448
 H245 H 0.65623 0.63476 0.52719
 H246 H 0.72312 0.61478 0.59413
 H247 H 0.68417 0.61499 0.63319
 H248 H 0.61715 0.63463 0.56612
 C249 C 0.80043 0.38060 0.08770
 C250 C 0.80810 0.37486 0.05777
 C251 C 0.83802 0.36913 0.05010
 C252 C 0.86021 0.36914 0.07227
 C253 C 0.85271 0.37489 0.10239
 C254 C 0.82259 0.38062 0.10989
 C255 C 0.78527 0.37486 0.03493
 C256 C 0.76614 0.37487 0.01582
 C257 C 0.74373 0.37489 -0.00656
 C258 C 0.72459 0.37492 -0.02565
 H259 H 0.77733 0.38502 0.09388
 H260 H 0.84421 0.36470 0.02700
 H261 H 0.88328 0.36490 0.06594
 H262 H 0.81627 0.38487 0.13296
 C263 C 0.16231 0.86931 0.44992
 C264 C 0.19225 0.87488 0.44223
 C265 C 0.19991 0.88049 0.41228
 C266 C 0.17773 0.88052 0.39010
 C267 C 0.14760 0.87495 0.39764
 C268 C 0.14010 0.86934 0.42777
 C269 C 0.21510 0.87484 0.46504
 C270 C 0.23423 0.87483 0.48415
 C271 C 0.25663 0.87482 0.50653
 C272 C 0.27577 0.87484 0.52563
 H273 H 0.15612 0.86499 0.47304
 H274 H 0.22302 0.88478 0.40607
 H275 H 0.18406 0.88467 0.36702
 H276 H 0.11702 0.86522 0.43412
   
