data_POSCAR
  _audit_creation_date              2014-09-24
  _audit_creation_method            'ToBaCCo'
  _symmetry_space_group_name_H-M    'P1'
  _symmetry_Int_Tables_number       1
  _symmetry_cell_setting            triclinic
  loop_
  _symmetry_equiv_pos_as_xyz
 x,y,z
_cell_length_a 25.2035
_cell_length_b 26.9374
_cell_length_c 23.2103
_cell_angle_alpha 88.201400
_cell_angle_beta 92.964000
_cell_angle_gamma 118.211000
loop_
  _atom_site_label
  _atom_site_type_symbol
  _atom_site_fract_x
  _atom_site_fract_y
  _atom_site_fract_z
C1 C 0.50654 0.09202 0.07375
 H2 H 0.55126 0.09584 0.07398
 C3 C 0.49651 0.13028 0.10430
 H4 H 0.53368 0.16249 0.12917
 C5 C 0.40406 0.04467 0.04100
 H6 H 0.36854 0.01188 0.01530
 C7 C 0.39194 0.08211 0.07121
 H8 H 0.34685 0.07761 0.06897
 N9 N 0.46080 0.05057 0.04262
 C10 C 0.52241 -0.07354 0.01929
 H11 H 0.52223 -0.07442 -0.02729
 C12 C 0.53602 -0.11056 0.05242
 H13 H 0.54767 -0.13879 0.03069
 C14 C 0.50729 -0.03526 0.10362
 H15 H 0.49468 -0.00683 0.12343
 C16 C 0.52084 -0.07134 0.13838
 H17 H 0.51909 -0.06992 0.18480
 Zn18 Zn 0.48290 0.00670 -0.00257
 N19 N 0.50805 -0.03714 0.04519
 C20 C 0.60162 0.06154 -0.04652
 N21 N 0.54609 0.05841 -0.04803
 C22 C 0.53418 0.09556 -0.07962
 C23 C 0.57888 0.13791 -0.11157
 C24 C 0.64793 0.10349 -0.07793
 C25 C 0.36987 -0.08643 -0.02445
 C26 C 0.32288 -0.12802 -0.05756
 C27 C 0.37387 -0.07981 -0.14347
 C28 C 0.41997 -0.03957 -0.10862
 N29 N 0.41732 -0.04363 -0.05025
 H30 H 0.61042 0.03217 -0.02029
 H31 H 0.48988 0.09262 -0.07929
 H32 H 0.56841 0.16731 -0.13607
 H33 H 0.69148 0.10481 -0.07590
 H34 H 0.36926 -0.08894 0.02216
 H35 H 0.28670 -0.16125 -0.03467
 H36 H 0.37781 -0.07571 -0.18988
 H37 H 0.45855 -0.00595 -0.12845
 C38 C 0.53415 -0.11044 0.11289
 C39 C 0.43883 0.12639 0.10216
 C40 C 0.32473 -0.12574 -0.11842
 C41 C 0.63685 0.14283 -0.11067
 C42 C -0.07826 0.44485 0.60425
 H43 H -0.07122 0.40824 0.60816
 C44 C -0.12353 0.44411 0.56662
 H45 H -0.15093 0.40673 0.54131
 C46 C -0.05233 0.53705 0.63436
 H47 H -0.02538 0.57262 0.66194
 C48 C -0.09736 0.53810 0.59727
 H49 H -0.10367 0.57506 0.59699
 N50 N -0.04378 0.49080 0.63717
 C51 C 0.11612 0.47378 0.68713
 H52 H 0.11505 0.47442 0.73363
 C53 C 0.16418 0.47207 0.66155
 H54 H 0.19994 0.47105 0.68869
 C55 C 0.07203 0.47677 0.59531
 H56 H 0.03705 0.48039 0.56960
 C57 C 0.11914 0.47496 0.56793
 H58 H 0.11946 0.47754 0.52136
 Zn59 Zn 0.01096 0.48403 0.69157
 N60 N 0.07125 0.47598 0.65389
 C61 C -0.02379 0.37544 0.74298
 N62 N -0.03535 0.41988 0.73712
 C63 C -0.08410 0.41880 0.76076
 C64 C -0.12400 0.37154 0.79129
 C65 C -0.06251 0.32725 0.77360
 C66 C 0.08853 0.59806 0.71221
 C67 C 0.12235 0.64662 0.74481
 C68 C 0.07610 0.59332 0.83030
 C69 C 0.04346 0.54579 0.79603
 N70 N 0.05027 0.54896 0.73811
 H71 H 0.01469 0.37678 0.72310
 H72 H -0.09232 0.45464 0.75515
 H73 H -0.16205 0.37211 0.81021
 H74 H -0.05326 0.29187 0.77754
 H75 H 0.09347 0.59920 0.66608
 H76 H 0.15224 0.68440 0.72210
 H77 H 0.07034 0.58946 0.87647
 H78 H 0.01366 0.50617 0.81604
 C79 C 0.16613 0.47255 0.60125
 C80 C -0.13410 0.49081 0.56299
 C81 C 0.11704 0.64463 0.80519
 C82 C -0.11403 0.32447 0.79706
 C83 C 0.57358 0.48462 0.39489
 H84 H 0.53465 0.44330 0.39233
 C85 C 0.62348 0.49304 0.43028
 H86 H 0.62167 0.45807 0.45591
 C87 C 0.62214 0.58020 0.36460
 H88 H 0.62186 0.61373 0.33805
 C89 C 0.67307 0.59057 0.39973
 H90 H 0.71152 0.63232 0.40040
 N91 N 0.57379 0.52779 0.36282
 C92 C 0.38403 0.47658 0.32322
 H93 H 0.38351 0.47758 0.27656
 C94 C 0.33181 0.46458 0.35173
 H95 H 0.29101 0.45613 0.32663
 C96 C 0.43846 0.48803 0.41242
 H97 H 0.48034 0.49801 0.43596
 C98 C 0.38723 0.47608 0.44272
 H99 H 0.39070 0.47570 0.48929
 Zn100 Zn 0.50608 0.50913 0.31196
 N101 N 0.43600 0.48815 0.35375
 C102 C 0.44817 0.39769 0.26564
 N103 N 0.49851 0.44873 0.26685
 C104 C 0.54822 0.45773 0.23865
 C105 C 0.54863 0.41460 0.20744
 C106 C 0.44661 0.35311 0.23488
 C107 C 0.52044 0.61756 0.28966
 C108 C 0.52452 0.66314 0.25614
 C109 C 0.52068 0.61235 0.17076
 C110 C 0.51664 0.56779 0.20589
 N111 N 0.51683 0.57122 0.26423
 H112 H 0.40957 0.39108 0.28939
 H113 H 0.58799 0.49848 0.24115
 H114 H 0.58898 0.42269 0.18568
 H115 H 0.40615 0.31301 0.23529
 H116 H 0.51901 0.61860 0.33610
 H117 H 0.52561 0.69858 0.27774
 H118 H 0.51982 0.60860 0.12434
 H119 H 0.51204 0.53006 0.18629
 C120 C 0.33307 0.46506 0.41223
 C121 C 0.67461 0.54642 0.43217
 C122 C 0.52471 0.66087 0.19563
 C123 C 0.49769 0.36128 0.20548
 C124 C 0.21956 0.47446 0.57512
 C125 C 0.22027 0.46056 0.52039
 C126 C 0.27637 0.46756 0.49621
 C127 C 0.27748 0.45474 0.44114
 H128 H 0.17976 0.44448 0.49283
 H129 H 0.31713 0.48575 0.52332
 H130 H 0.26022 0.48797 0.60233
 H131 H 0.23592 0.43845 0.41492
 C132 C 0.54453 0.84928 0.15065
 C133 C 0.53472 0.79871 0.13299
 C134 C 0.53972 0.75799 0.17389
 C135 C 0.52522 0.70594 0.15680
 H136 H 0.51963 0.78567 0.08890
 H137 H 0.55445 0.77084 0.21804
 H138 H 0.55648 0.86001 0.19580
 H139 H 0.51259 0.69549 0.11167
 C140 C 0.28306 0.83410 0.84632
 C141 C 0.23394 0.78390 0.86413
 C142 C 0.19776 0.74288 0.82387
 C143 C 0.15179 0.69073 0.84167
 H144 H 0.22446 0.77470 0.90919
 H145 H 0.20785 0.75160 0.77889
 H146 H 0.28911 0.83990 0.80013
 H147 H 0.14411 0.68465 0.88756
 C148 C 0.81463 0.48652 0.52503
 C149 C 0.79980 0.52777 0.51525
 C150 C 0.74558 0.51689 0.47919
 C151 C 0.72956 0.55708 0.46756
 H152 H 0.82634 0.56904 0.53387
 H153 H 0.71863 0.47512 0.46152
 H154 H 0.78663 0.44624 0.50443
 H155 H 0.75872 0.59956 0.48264
 C156 C 0.42684 0.16794 0.13149
 C157 C 0.46917 0.22155 0.13868
 C158 C 0.45775 0.26276 0.16868
 C159 C 0.50156 0.31609 0.17385
 H160 H 0.51333 0.23582 0.12168
 H161 H 0.41431 0.24881 0.18689
 H162 H 0.38166 0.15474 0.14543
 H163 H 0.54406 0.32740 0.15436
 C164 C -0.31654 0.19015 0.85644
 C165 C -0.25762 0.20535 0.85879
 C166 C -0.21559 0.25600 0.82723
 C167 C -0.15647 0.27255 0.82731
 H168 H -0.23972 0.18230 0.88485
 H169 H -0.23373 0.28013 0.80323
 H170 H -0.33157 0.21546 0.83004
 H171 H -0.13904 0.24643 0.84837
   
