data_POSCAR
  _audit_creation_date              2014-09-24
  _audit_creation_method            'ToBaCCo'
  _symmetry_space_group_name_H-M    'P1'
  _symmetry_Int_Tables_number       1
  _symmetry_cell_setting            triclinic
  loop_
  _symmetry_equiv_pos_as_xyz
 x,y,z
_cell_length_a 12.9397
_cell_length_b 22.7243
_cell_length_c 16.1850
_cell_angle_alpha 92.905900
_cell_angle_beta 91.585300
_cell_angle_gamma 93.050700
loop_
  _atom_site_label
  _atom_site_type_symbol
  _atom_site_fract_x
  _atom_site_fract_y
  _atom_site_fract_z
N1 N 0.20436 0.05012 0.08335
 N2 N 0.26652 0.09827 0.08801
 N3 N 0.11275 -0.07324 0.12751
 N4 N 0.12796 -0.11787 0.17477
 N5 N 0.17622 -0.07379 0.06563
 N6 N 0.23619 -0.11889 0.06894
 N7 N 0.14062 0.05050 0.14517
 N8 N 0.15753 0.09896 0.19301
 C9 C 0.23711 0.12788 0.15724
 C10 C 0.20480 -0.14612 0.13708
 N11 N -0.18622 -0.05780 0.09130
 N12 N -0.25775 -0.10074 0.09808
 N13 N -0.07821 0.05956 0.16139
 N14 N -0.07051 0.10340 0.21831
 N15 N -0.15597 0.06578 0.10940
 N16 N -0.20515 0.11720 0.13146
 N17 N -0.10741 -0.06401 0.14241
 N18 N -0.12298 -0.11145 0.18515
 Mn19 Mn 0.01706 -0.00699 0.14503
 C20 C -0.21728 -0.13373 0.15684
 C21 C -0.14845 0.13831 0.19947
 N22 N 0.15244 -0.06640 -0.11107
 N23 N 0.20258 -0.11744 -0.13299
 N24 N 0.10289 0.06317 -0.14469
 N25 N 0.11855 0.11079 -0.18727
 N26 N 0.18150 0.05713 -0.09326
 N27 N 0.25280 0.10022 -0.09965
 N28 N 0.07456 -0.06061 -0.16311
 N29 N 0.06780 -0.10440 -0.22011
 Mn30 Mn 0.17986 -0.00838 -0.01390
 C31 C 0.14636 -0.13883 -0.20106
 C32 C 0.21268 0.13325 -0.15849
 N33 N -0.18024 0.07293 -0.06751
 N34 N -0.23918 0.11849 -0.07043
 N35 N -0.14483 -0.05269 -0.14629
 N36 N -0.15692 -0.10370 -0.18942
 N37 N -0.21018 -0.05061 -0.08553
 N38 N -0.27153 -0.10306 -0.08767
 N39 N -0.11748 0.07180 -0.12983
 N40 N -0.13194 0.11660 -0.17691
 Mn41 Mn -0.18422 0.00775 0.01201
 Mn42 Mn -0.02150 0.00558 -0.14700
 Cl43 Cl -0.00217 -0.00053 -0.00101
 C44 C -0.20779 0.14544 -0.13876
 C45 C -0.23510 -0.13390 -0.15325
 N46 N 0.71055 0.54951 0.58326
 N47 N 0.77260 0.59772 0.58695
 N48 N 0.61759 0.42628 0.62636
 N49 N 0.63247 0.38108 0.67255
 N50 N 0.67977 0.42571 0.56365
 N51 N 0.73865 0.38004 0.56539
 N52 N 0.64748 0.55024 0.64562
 N53 N 0.66471 0.59917 0.69267
 C54 C 0.74371 0.62798 0.65583
 C55 C 0.70784 0.35249 0.63343
 N56 N 0.31847 0.44319 0.59382
 N57 N 0.24654 0.40040 0.60011
 N58 N 0.42891 0.55947 0.66491
 N59 N 0.43697 0.60229 0.72324
 N60 N 0.35041 0.56667 0.61394
 N61 N 0.30298 0.61480 0.63612
 N62 N 0.39782 0.43603 0.64400
 N63 N 0.38205 0.38799 0.68564
 Mn64 Mn 0.52317 0.49282 0.64618
 C65 C 0.28707 0.36641 0.65761
 C66 C 0.35805 0.63636 0.70456
 N67 N 0.65253 0.43446 0.38717
 N68 N 0.69948 0.38613 0.36490
 N69 N 0.60526 0.56511 0.35724
 N70 N 0.62068 0.61296 0.31532
 N71 N 0.68483 0.55802 0.40717
 N72 N 0.75670 0.60079 0.40047
 N73 N 0.57400 0.44185 0.33629
 N74 N 0.56546 0.39900 0.27801
 Mn75 Mn 0.68321 0.49172 0.48525
 C76 C 0.64407 0.36466 0.29651
 C77 C 0.71567 0.63457 0.34292
 N78 N 0.32352 0.57583 0.43761
 N79 N 0.26388 0.62116 0.43543
 N80 N 0.35569 0.45185 0.35533
 N81 N 0.33758 0.40371 0.30705
 N82 N 0.29288 0.45211 0.41778
 N83 N 0.23021 0.40416 0.41311
 N84 N 0.38589 0.57540 0.37501
 N85 N 0.37030 0.62033 0.32843
 Mn86 Mn 0.32006 0.50962 0.51589
 Mn87 Mn 0.48006 0.50874 0.35509
 Cl88 Cl 0.50162 0.50071 0.50061
 C89 C 0.29442 0.64867 0.36727
 C90 C 0.25826 0.37485 0.34321
 C91 C 0.27672 0.18791 0.18293
 C92 C 0.22875 0.22084 0.23914
 C93 C 0.26558 0.28207 0.26080
 C94 C 0.21804 0.31495 0.31732
 H95 H 0.16065 0.20283 0.26862
 H96 H 0.33358 0.30008 0.23118
 H97 H 0.34354 0.20628 0.15224
 H98 H 0.15142 0.29659 0.34827
 C99 C 0.73088 0.81184 0.18386
 C100 C 0.77574 0.77801 0.23788
 C101 C 0.72262 0.72320 0.26273
 C102 C 0.76763 0.68910 0.31630
 H103 H 0.85245 0.79061 0.26366
 H104 H 0.64577 0.71074 0.23712
 H105 H 0.65450 0.79898 0.15770
 H106 H 0.84425 0.70171 0.34217
 C107 C 0.74607 0.19846 0.83136
 C108 C 0.77472 0.22244 0.76127
 C109 C 0.72588 0.27508 0.73246
 C110 C 0.75428 0.29928 0.66247
 H111 H 0.83439 0.20304 0.72470
 H112 H 0.66630 0.29441 0.76921
 H113 H 0.68613 0.21781 0.86764
 H114 H 0.81410 0.28011 0.62589
 C115 C 0.16392 0.81136 0.75536
 C116 C 0.24374 0.77540 0.77599
 C117 C 0.25905 0.72363 0.72927
 C118 C 0.33894 0.68794 0.75013
 H119 H 0.29477 0.78765 0.82912
 H120 H 0.20842 0.71118 0.67601
 H121 H 0.11334 0.79849 0.70220
 H122 H 0.38936 0.70067 0.80341
 C123 C 0.26538 0.18775 0.81503
 C124 C 0.22226 0.22224 0.76092
 C125 C 0.27727 0.27701 0.73717
 C126 C 0.23406 0.31184 0.68356
 H127 H 0.14574 0.21023 0.73431
 H128 H 0.35394 0.28884 0.76361
 H129 H 0.34157 0.20014 0.84192
 H130 H 0.15759 0.29978 0.65696
 C131 C 0.73163 0.81056 0.82499
 C132 C 0.77561 0.77692 0.76180
 C133 C 0.74076 0.71848 0.74342
 C134 C 0.78283 0.68484 0.67945
 H135 H 0.83796 0.79612 0.72669
 H136 H 0.67825 0.69937 0.77843
 H137 H 0.66973 0.79054 0.85974
 H138 H 0.84450 0.70422 0.64388
 C139 C 0.25224 0.80135 0.16747
 C140 C 0.22425 0.77746 0.23781
 C141 C 0.27448 0.72539 0.26724
 C142 C 0.24683 0.70139 0.33759
 H143 H 0.16411 0.79654 0.27421
 H144 H 0.33443 0.70630 0.23064
 H145 H 0.31272 0.78236 0.13141
 H146 H 0.18663 0.72033 0.37400
 C147 C 0.83504 0.18825 0.24334
 C148 C 0.75583 0.22488 0.22347
 C149 C 0.74177 0.27668 0.27078
 C150 C 0.66238 0.31298 0.25067
 H151 H 0.70428 0.21311 0.17051
 H152 H 0.79292 0.28867 0.32388
 H153 H 0.88610 0.20067 0.29638
 H154 H 0.61149 0.30062 0.19754
   
