data_POSCAR
  _audit_creation_date              2014-09-24
  _audit_creation_method            'ToBaCCo'
  _symmetry_space_group_name_H-M    'P1'
  _symmetry_Int_Tables_number       1
  _symmetry_cell_setting            triclinic
  loop_
  _symmetry_equiv_pos_as_xyz
 x,y,z
_cell_length_a 40.9449
_cell_length_b 39.2675
_cell_length_c 37.1150
_cell_angle_alpha 89.838100
_cell_angle_beta 91.498600
_cell_angle_gamma 90.177000
loop_
  _atom_site_label
  _atom_site_type_symbol
  _atom_site_fract_x
  _atom_site_fract_y
  _atom_site_fract_z
C1 C 0.16997 0.14059 0.17853
 N2 N 0.15474 0.16756 0.16219
 C3 C 0.16465 0.17942 0.12982
 N4 N 0.19020 0.16430 0.11396
 C5 C 0.20609 0.13768 0.12971
 N6 N 0.19577 0.12589 0.16207
 C7 C -0.13375 0.87036 0.16430
 N8 N -0.12443 0.84040 0.14961
 C9 C -0.14369 0.82439 0.12456
 N10 N -0.17288 0.83837 0.11463
 C11 C -0.18275 0.86828 0.12905
 N12 N -0.16289 0.88409 0.15368
 C13 C -0.15691 0.16472 -0.16905
 N14 N -0.18325 0.14442 -0.16353
 C15 C -0.20272 0.14952 -0.13479
 N16 N -0.19539 0.17550 -0.11144
 C17 C -0.16871 0.19553 -0.11650
 N18 N -0.14997 0.18995 -0.14541
 C19 C 0.15843 0.84493 -0.20962
 N20 N 0.13973 0.81799 -0.19927
 C21 C 0.15018 0.79679 -0.17227
 N22 N 0.17961 0.80280 -0.15565
 C23 C 0.19871 0.82944 -0.16553
 N24 N 0.18783 0.85027 -0.19255
 C25 C 0.16870 1.15783 0.82978
 N26 N 0.19555 1.14417 0.84666
 C27 C 0.20725 1.15670 0.87845
 N28 N 0.19181 1.18331 0.89348
 C29 C 0.16512 1.19787 0.87733
 N30 N 0.15363 1.18500 0.84524
 C31 C 0.84088 0.83935 0.78243
 N32 N 0.81506 0.85471 0.79761
 C33 C 0.79906 0.83982 0.82519
 N34 N 0.80907 0.80864 0.83761
 C35 C 0.83490 0.79292 0.82224
 N36 N 0.85047 0.80854 0.79500
 C37 C 0.17323 0.84614 1.22335
 N38 N 0.15411 0.81836 1.21581
 C39 C 0.16449 0.79351 1.19343
 N40 N 0.19408 0.79699 1.17829
 C41 C 0.21320 0.82450 1.18489
 N42 N 0.20281 0.84905 1.20759
 C43 C 0.84614 1.13708 1.14903
 N44 N 0.85757 1.16667 1.13509
 C45 C 0.84401 1.18046 1.10458
 N46 N 0.81835 1.16424 1.08806
 C47 C 0.80650 1.13460 1.10161
 N48 N 0.82055 1.12128 1.13203
 N49 N 0.53761 1.03302 0.97392
 N50 N 0.56154 1.05526 0.97553
 N51 N 0.47238 1.01375 0.93936
 N52 N 0.44745 1.01828 0.91671
 N53 N 0.46924 1.03291 0.96802
 N54 N 0.44216 1.05113 0.96542
 N55 N 0.54133 1.01178 0.94710
 N56 N 0.56827 1.01949 0.92951
 C57 C 0.58063 1.04685 0.94796
 C58 C 0.42892 1.04182 0.93303
 N59 N 0.46467 0.91662 0.95277
 N60 N 0.43680 0.90078 0.94511
 N61 N 0.53824 0.93730 0.93771
 N62 N 0.56592 0.93392 0.92037
 N63 N 0.53295 0.91035 0.95786
 N64 N 0.55671 0.88815 0.95481
 N65 N 0.46941 0.94175 0.93001
 N66 N 0.44470 0.94382 0.90658
 Mn67 Mn 0.50586 0.97615 0.93799
 C68 C 0.42464 0.91802 0.91605
 C69 C 0.57709 0.90291 0.93137
 N70 N 0.46657 1.02390 1.04572
 N71 N 0.43986 1.04215 1.04983
 N72 N 0.53650 0.99657 1.07027
 N73 N 0.56486 0.99448 1.08801
 N74 N 0.53562 1.02373 1.04954
 N75 N 0.56345 1.04056 1.05249
 N76 N 0.46781 0.99871 1.06898
 N77 N 0.44205 0.99911 1.08952
 Mn78 Mn 0.50183 1.02877 1.00936
 C79 C 0.42487 1.02635 1.07746
 C80 C 0.58131 1.02237 1.07681
 N81 N 0.53032 0.90161 1.03391
 N82 N 0.55647 0.88225 1.03242
 N83 N 0.46490 0.92721 1.05947
 N84 N 0.43797 0.92710 1.07791
 N85 N 0.46161 0.90780 1.03082
 N86 N 0.43215 0.89369 1.02936
 N87 N 0.53344 0.92339 1.06058
 N88 N 0.56187 0.91942 1.07771
 Mn89 Mn 0.49693 0.90866 0.99377
 Mn90 Mn 0.50104 0.96135 1.06525
 Cl91 Cl 0.50144 0.96874 1.00149
 C92 C 0.57577 0.89328 1.06006
 C93 C 0.41798 0.90593 1.05932
 N94 N -0.05732 0.46650 0.06188
 N95 N -0.07477 0.43820 0.06289
 N96 N -0.02828 0.53689 0.08713
 N97 N -0.02604 0.56505 0.10640
 N98 N -0.05352 0.53819 0.06463
 N99 N -0.06901 0.56734 0.06793
 N100 N -0.03314 0.46538 0.08578
 N101 N -0.03357 0.43630 0.10361
 C102 C -0.05984 0.41975 0.08935
 C103 C -0.05187 0.58367 0.09434
 N104 N 0.06234 0.52912 0.05494
 N105 N 0.08514 0.55271 0.05760
 N106 N 0.03598 0.46046 0.08011
 N107 N 0.03801 0.43309 0.10060
 N108 N 0.05525 0.45787 0.05256
 N109 N 0.07095 0.42848 0.05363
 N110 N 0.04175 0.53183 0.08127
 N111 N 0.05005 0.55754 0.10264
 Mn112 Mn 0.00408 0.49889 0.08404
 C113 C 0.07732 0.57023 0.08742
 C114 C 0.05994 0.41338 0.08395
 N115 N -0.06054 0.54145 -0.01184
 N116 N -0.07975 0.56826 -0.01219
 N117 N -0.04446 0.47118 -0.04312
 N118 N -0.04661 0.44293 -0.06204
 N119 N -0.06427 0.46982 -0.01580
 N120 N -0.08041 0.44055 -0.01582
 N121 N -0.04018 0.54273 -0.03857
 N122 N -0.04553 0.57040 -0.05831
 Mn123 Mn -0.05934 0.50382 0.02474
 C124 C -0.07027 0.58611 -0.04122
 C125 C -0.06935 0.42423 -0.04515
 N126 N 0.04868 0.46178 -0.02515
 N127 N 0.06456 0.43326 -0.03100
 N128 N 0.03084 0.53793 -0.04436
 N129 N 0.03547 0.56603 -0.06352
 N130 N 0.05557 0.53295 -0.02171
 N131 N 0.07738 0.55740 -0.02463
 N132 N 0.02500 0.46604 -0.04925
 N133 N 0.02419 0.44027 -0.07218
 Mn134 Mn 0.05579 0.49516 0.01509
 Mn135 Mn -0.00728 0.50483 -0.04438
 Cl136 Cl -0.00167 0.50072 0.01980
 C137 C 0.04912 0.42005 -0.06049
 C138 C 0.06482 0.57785 -0.05082
 N139 N 0.94140 -0.01322 0.52454
 N140 N 0.93423 -0.03410 0.55103
 N141 N 0.92740 0.01651 0.44818
 N142 N 0.91117 0.01780 0.41712
 N143 N 0.94751 -0.00941 0.44917
 N144 N 0.94564 -0.02639 0.41849
 N145 N 0.92089 0.01233 0.52298
 N146 N 0.89905 0.00949 0.54836
 C147 C 0.90769 -0.01967 0.56558
 C148 C 0.92269 -0.00913 0.39887
 N149 N 0.95891 0.10999 0.45737
 N150 N 0.96237 0.12827 0.42764
 N151 N 0.92772 0.08461 0.52756
 N152 N 0.90909 0.08257 0.55567
 N153 N 0.95271 0.10496 0.53399
 N154 N 0.95163 0.11683 0.56743
 N155 N 0.93434 0.08871 0.45327
 N156 N 0.92048 0.09197 0.42110
 Mn157 Mn 0.92737 0.05067 0.48792
 C158 C 0.93789 0.11688 0.40543
 C159 C 0.92382 0.10283 0.58029
 N160 N 1.01643 -0.01743 0.45827
 N161 N 1.01844 -0.03710 0.42996
 N162 N 1.03629 -0.00074 0.53722
 N163 N 1.05409 -0.00996 0.56589
 N164 N 1.01091 -0.02104 0.53304
 N165 N 1.01074 -0.04445 0.55852
 N166 N 1.04179 0.00299 0.46116
 N167 N 1.06199 -0.00262 0.43435
 Mn168 Mn 0.97904 -0.01559 0.49133
 C169 C 1.04677 -0.02787 0.41509
 C170 C 1.03771 -0.03730 0.57896
 N171 N 1.02271 0.09830 0.54101
 N172 N 1.02557 0.11719 0.57016
 N173 N 1.04886 0.07659 0.46619
 N174 N 1.06764 0.07780 0.43771
 N175 N 1.02863 0.10257 0.46593
 N176 N 1.03332 0.12202 0.43751
 N177 N 1.04347 0.07284 0.54236
 N178 N 1.06100 0.07388 0.57291
 Mn179 Mn 0.99077 0.10448 0.49969
 Mn180 Mn 1.04326 0.03793 0.50178
 Cl181 Cl 0.98527 0.04438 0.49525
 C182 C 1.04948 0.10187 0.58994
 C183 C 1.05789 0.10658 0.42025
 C184 C 1.13407 0.14512 0.23029
 C185 C 1.12420 0.13397 0.26434
 C186 C 1.13973 0.10575 0.28101
 C187 C 1.16500 0.08923 0.26328
 C188 C 1.17493 0.10063 0.22949
 C189 C 1.15968 0.12877 0.21243
 C190 C 1.12986 0.09462 0.31513
 C191 C 1.10475 0.11158 0.33291
 C192 C 1.08938 0.13993 0.31613
 C193 C 1.09910 0.15083 0.28201
 C194 C 1.06445 0.15700 0.33375
 C195 C 1.05472 0.14620 0.36766
 C196 C 1.06960 0.11802 0.38472
 C197 C 1.09469 0.10074 0.36714
 H198 H 1.12185 0.16686 0.21799
 H199 H 1.17722 0.06754 0.27561
 H200 H 1.19464 0.08724 0.21683
 H201 H 1.14176 0.07291 0.32787
 H202 H 1.08719 0.17256 0.26927
 H203 H 1.05239 0.17873 0.32126
 H204 H 1.03522 0.15986 0.38043
 H205 H 1.10626 0.07890 0.37996
 C206 C 0.87378 -0.08484 0.20919
 C207 C 0.88886 -0.07288 0.24097
 C208 C 0.91592 -0.09045 0.25629
 C209 C 0.92834 -0.11886 0.23854
 C210 C 0.91289 -0.13099 0.20707
 C211 C 0.88469 -0.11484 0.19269
 C212 C 0.92931 -0.08007 0.28968
 C213 C 0.91542 -0.05282 0.30819
 C214 C 0.88901 -0.03461 0.29214
 C215 C 0.87618 -0.04450 0.25848
 C216 C 0.87512 -0.00742 0.31054
 C217 C 0.88652 0.00101 0.34506
 C218 C 0.91203 -0.01754 0.36175
 C219 C 0.92683 -0.04407 0.34293
 H220 H 0.85252 -0.07150 0.19839
 H221 H 0.94930 -0.13244 0.24966
 H222 H 0.92240 -0.15383 0.19492
 H223 H 0.94971 -0.09390 0.30179
 H224 H 0.85552 -0.03090 0.24657
 H225 H 0.85499 0.00687 0.29854
 H226 H 0.87492 0.02177 0.35895
 H227 H 0.94675 -0.05827 0.35551
 C228 C 0.85883 0.13317 0.77546
 C229 C 0.87596 0.13129 0.74330
 C230 C 0.89764 0.15775 0.73374
 C231 C 0.90258 0.18521 0.75726
 C232 C 0.88546 0.18692 0.78927
 C233 C 0.86298 0.16124 0.79840
 C234 C 0.91337 0.15672 0.70055
 C235 C 0.90732 0.12970 0.67659
 C236 C 0.88627 0.10284 0.68689
 C237 C 0.87101 0.10368 0.72014
 C238 C 0.87997 0.07586 0.66335
 C239 C 0.89313 0.07607 0.62929
 C240 C 0.91316 0.10304 0.61797
 C241 C 0.92104 0.12946 0.64212
 H242 H 0.84182 0.11308 0.78225
 H243 H 0.91920 0.20567 0.75061
 H244 H 0.88932 0.20888 0.80646
 H245 H 0.92957 0.17729 0.69299
 H246 H 0.85455 0.08326 0.72756
 H247 H 0.86420 0.05494 0.67092
 H248 H 0.88723 0.05506 0.61149
 H249 H 0.93659 0.15023 0.63366
 C250 C 1.11731 -0.13783 0.74437
 C251 C 1.10713 -0.11606 0.71608
 C252 C 1.12761 -0.08906 0.70526
 C253 C 1.15776 -0.08407 0.72315
 C254 C 1.16773 -0.10571 0.75127
 C255 C 1.14782 -0.13306 0.76227
 C256 C 1.11774 -0.06761 0.67663
 C257 C 1.08761 -0.07286 0.65853
 C258 C 1.06700 -0.09969 0.66965
 C259 C 1.07683 -0.12103 0.69831
 C260 C 1.03693 -0.10498 0.65168
 C261 C 1.02751 -0.08432 0.62261
 C262 C 1.04789 -0.05783 0.61087
 C263 C 1.07787 -0.05199 0.62925
 H264 H 1.10138 -0.15851 0.75224
 H265 H 1.17376 -0.06346 0.71530
 H266 H 1.19131 -0.10093 0.76421
 H267 H 1.13360 -0.04703 0.66827
 H268 H 1.06101 -0.14167 0.70660
 H269 H 1.02077 -0.12531 0.65991
 H270 H 1.00421 -0.08928 0.60912
 H271 H 1.09376 -0.03163 0.62047
 C272 C 0.25278 1.09847 1.13037
 C273 C 0.28213 1.08755 1.11538
 C274 C 0.29267 1.10213 1.08277
 C275 C 0.27335 1.12663 1.06517
 C276 C 0.24440 1.13756 1.08026
 C277 C 0.23394 1.12422 1.11343
 C278 C 0.32264 1.09249 1.06855
 C279 C 0.34241 1.06857 1.08667
 C280 C 0.33156 1.05334 1.11884
 C281 C 0.30148 1.06286 1.13294
 C282 C 0.35118 1.02907 1.13660
 C283 C 0.38147 1.02036 1.12297
 C284 C 0.39279 1.03589 1.09147
 C285 C 0.37302 1.05985 1.07327
 H286 H 0.24525 1.08755 1.15571
 H287 H 0.28093 1.13787 1.04003
 H288 H 0.23058 1.15709 1.06600
 H289 H 0.33079 1.10398 1.04372
 H290 H 0.29340 1.05146 1.15785
 H291 H 0.34319 1.01695 1.16113
 H292 H 0.39618 1.00157 1.13728
 H293 H 0.38137 1.07161 1.04869
 C294 C 0.24956 0.86249 0.84123
 C295 C 0.28019 0.86806 0.85825
 C296 C 0.29101 0.84623 0.88641
 C297 C 0.27101 0.81921 0.89706
 C298 C 0.24061 0.81372 0.87998
 C299 C 0.22936 0.83521 0.85179
 C300 C 0.32166 0.85171 0.90340
 C301 C 0.34170 0.87874 0.89251
 C302 C 0.33081 0.90055 0.86430
 C303 C 0.30018 0.89511 0.84741
 C304 C 0.35078 0.92752 0.85339
 C305 C 0.38126 0.93288 0.87017
 C306 C 0.39244 0.91143 0.89824
 C307 C 0.37246 0.88435 0.90934
 H308 H 0.24166 0.87948 0.81965
 H309 H 0.27889 0.80220 0.91861
 H310 H 0.22597 0.79249 0.88904
 H311 H 0.32991 0.83492 0.92502
 H312 H 0.29193 0.91190 0.82579
 H313 H 0.34280 0.94452 0.83188
 H314 H 0.39606 0.95402 0.86121
 H315 H 0.38078 0.86772 0.93103
 C316 C 0.76359 0.86254 1.09915
 C317 C 0.73104 0.87304 1.09477
 C318 C 0.72043 0.90304 1.11180
 C319 C 0.74279 0.92243 1.13233
 C320 C 0.77505 0.91153 1.13713
 C321 C 0.78577 0.88107 1.12123
 C322 C 0.68756 0.91283 1.10858
 C323 C 0.66513 0.89276 1.08879
 C324 C 0.67591 0.86300 1.07133
 C325 C 0.70877 0.85340 1.07434
 C326 C 0.65359 0.84321 1.05117
 C327 C 0.62088 0.85284 1.04819
 C328 C 0.60986 0.88220 1.06559
 C329 C 0.63209 0.90203 1.08602
 H330 H 0.77114 0.83916 1.08636
 H331 H 0.73516 0.94565 1.14535
 H332 H 0.79137 0.92676 1.15399
 H333 H 0.67939 0.93577 1.12180
 H334 H 0.71693 0.83043 1.06117
 H335 H 0.66147 0.82043 1.03751
 H336 H 0.60420 0.83737 1.03204
 H337 H 0.62386 0.92502 1.09907
 C338 C 0.74770 1.13543 0.89788
 C339 C 0.71939 1.11566 0.90187
 C340 C 0.71262 1.08820 0.87827
 C341 C 0.73444 1.08114 0.85083
 C342 C 0.76238 1.10126 0.84659
 C343 C 0.76945 1.12879 0.86998
 C344 C 0.68407 1.06854 0.88235
 C345 C 0.66196 1.07642 0.90947
 C346 C 0.66892 1.10427 0.93266
 C347 C 0.69754 1.12339 0.92895
 C348 C 0.64705 1.11289 0.95927
 C349 C 0.61866 1.09404 0.96343
 C350 C 0.61119 1.06599 0.94107
 C351 C 0.63300 1.05726 0.91387
 H352 H 0.75234 1.15642 0.91626
 H353 H 0.72976 1.06023 0.83239
 H354 H 0.77843 1.09508 0.82482
 H355 H 0.67895 1.04740 0.86430
 H356 H 0.70265 1.14456 0.94698
 H357 H 0.65189 1.13432 0.97699
 H358 H 0.60248 1.10165 0.98454
 H359 H 0.62753 1.03579 0.89642
 C360 C 0.12812 0.23054 0.13211
 C361 C 0.11688 0.26150 0.11749
 C362 C 0.12690 0.27196 0.08297
 C363 C 0.14731 0.25085 0.06328
 C364 C 0.15867 0.22028 0.07814
 C365 C 0.14970 0.21007 0.11293
 C366 C 0.11699 0.30365 0.06904
 C367 C 0.09745 0.32521 0.08939
 C368 C 0.08688 0.31437 0.12359
 C369 C 0.09653 0.28258 0.13732
 C370 C 0.06714 0.33574 0.14379
 C371 C 0.05839 0.36779 0.13059
 C372 C 0.06929 0.37916 0.09702
 C373 C 0.08863 0.35761 0.07634
 H374 H 0.12095 0.22304 0.15890
 H375 H 0.15508 0.25831 0.03671
 H376 H 0.17504 0.20494 0.06254
 H377 H 0.12498 0.31178 0.04272
 H378 H 0.08871 0.27454 0.16374
 H379 H 0.05868 0.32778 0.16993
 H380 H 0.04324 0.38383 0.14693
 H381 H 0.09685 0.36605 0.05024
 C382 C -0.12932 0.23970 -0.09544
 C383 C -0.12221 0.27104 -0.07942
 C384 C -0.14589 0.28753 -0.05876
 C385 C -0.17615 0.27136 -0.05364
 C386 C -0.18345 0.24028 -0.07078
 C387 C -0.16038 0.22480 -0.09282
 C388 C -0.13933 0.32037 -0.04512
 C389 C -0.10998 0.33717 -0.05339
 C390 C -0.08640 0.32003 -0.07383
 C391 C -0.09234 0.28691 -0.08587
 C392 C -0.05764 0.33667 -0.08330
 C393 C -0.05256 0.37049 -0.07380
 C394 C -0.07576 0.38818 -0.05393
 C395 C -0.10416 0.37119 -0.04292
 H396 H -0.11099 0.22779 -0.11176
 H397 H -0.19463 0.28342 -0.03771
 H398 H -0.20753 0.22922 -0.06812
 H399 H -0.15756 0.33335 -0.02957
 H400 H -0.07432 0.27411 -0.10191
 H401 H -0.03938 0.32379 -0.09886
 H402 H -0.03025 0.38282 -0.08201
 H403 H -0.12207 0.38470 -0.02745
 C404 C 0.14065 0.74650 -0.13197
 C405 C 0.12258 0.71783 -0.12162
 C406 C 0.09333 0.70920 -0.14052
 C407 C 0.08259 0.72982 -0.16943
 C408 C 0.10080 0.75843 -0.17964
 C409 C 0.13013 0.76701 -0.16116
 C410 C 0.07553 0.68009 -0.13029
 C411 C 0.08677 0.65951 -0.10143
 C412 C 0.11601 0.66860 -0.08258
 C413 C 0.13359 0.69759 -0.09271
 C414 C 0.12749 0.64845 -0.05388
 C415 C 0.11049 0.61931 -0.04394
 C416 C 0.08152 0.60953 -0.06237
 C417 C 0.06957 0.62993 -0.09110
 H418 H 0.16309 0.75267 -0.11725
 H419 H 0.06021 0.72373 -0.18429
 H420 H 0.09199 0.77367 -0.20220
 H421 H 0.05314 0.67337 -0.14487
 H422 H 0.15604 0.70428 -0.07818
 H423 H 0.14979 0.65514 -0.03913
 H424 H 0.12024 0.60433 -0.02162
 H425 H 0.04724 0.62270 -0.10547
 C426 C -0.10822 0.77261 0.12711
 C427 C -0.10124 0.73923 0.11661
 C428 C -0.12041 0.72359 0.08903
 C429 C -0.14586 0.74181 0.07204
 C430 C -0.15292 0.77491 0.08299
 C431 C -0.13447 0.79049 0.11089
 C432 C -0.11421 0.68983 0.07932
 C433 C -0.08926 0.67143 0.09705
 C434 C -0.06978 0.68717 0.12430
 C435 C -0.07584 0.72103 0.13385
 C436 C -0.04469 0.66866 0.14169
 C437 C -0.03898 0.63483 0.13220
 C438 C -0.05839 0.61898 0.10535
 C439 C -0.08356 0.63743 0.08797
 H440 H -0.09378 0.78422 0.14871
 H441 H -0.16068 0.73025 0.05074
 H442 H -0.17316 0.78812 0.06988
 H443 H -0.12903 0.67775 0.05830
 H444 H -0.06109 0.73305 0.15495
 H445 H -0.02946 0.68036 0.16256
 H446 H -0.01931 0.62112 0.14580
 H447 H -0.09866 0.62540 0.06723
 C448 C 1.12958 0.15701 0.77800
 C449 C 1.11877 0.14278 0.74493
 C450 C 1.13574 0.11503 0.73012
 C451 C 1.16308 0.10185 0.74864
 C452 C 1.17370 0.11600 0.78137
 C453 C 1.15728 0.14385 0.79666
 C454 C 1.12525 0.10094 0.69699
 C455 C 1.09797 0.11431 0.67823
 C456 C 1.08090 0.14198 0.69316
 C457 C 1.09133 0.15596 0.72633
 C458 C 1.05371 0.15543 0.67454
 C459 C 1.04370 0.14198 0.64129
 C460 C 1.06053 0.11468 0.62584
 C461 C 1.08759 0.10070 0.64467
 H462 H 1.11640 0.17833 0.78902
 H463 H 1.17639 0.08057 0.73776
 H464 H 1.19504 0.10489 0.79458
 H465 H 1.13842 0.07972 0.68573
 H466 H 1.07819 0.17723 0.73756
 H467 H 1.04026 0.17654 0.68558
 H468 H 1.02265 0.15316 0.62758
 H469 H 1.10074 0.07965 0.63309
 C470 C 0.84516 -0.11520 0.73755
 C471 C 0.86026 -0.10128 0.70740
 C472 C 0.88804 -0.11736 0.69341
 C473 C 0.90025 -0.14701 0.70967
 C474 C 0.88477 -0.16110 0.73918
 C475 C 0.85693 -0.14556 0.75346
 C476 C 0.90297 -0.10387 0.66306
 C477 C 0.89011 -0.07484 0.64605
 C478 C 0.86225 -0.05872 0.65981
 C479 C 0.84763 -0.07190 0.69062
 C480 C 0.84935 -0.02990 0.64224
 C481 C 0.86387 -0.01729 0.61125
 C482 C 0.89166 -0.03313 0.59765
 C483 C 0.90464 -0.06189 0.61522
 H484 H 0.82377 -0.10275 0.74794
 H485 H 0.92153 -0.15960 0.69926
 H486 H 0.89476 -0.18433 0.75070
 H487 H 0.92431 -0.11623 0.65238
 H488 H 0.82623 -0.05960 0.70120
 H489 H 0.82797 -0.01724 0.65232
 H490 H 0.85335 0.00481 0.59793
 H491 H 0.92610 -0.07427 0.60493
 C492 C 1.13045 -0.12937 0.25978
 C493 C 1.12011 -0.10587 0.28539
 C494 C 1.14237 -0.08189 0.30033
 C495 C 1.17433 -0.08072 0.28768
 C496 C 1.18431 -0.10368 0.26133
 C497 C 1.16274 -0.12896 0.24774
 C498 C 1.13235 -0.05996 0.32792
 C499 C 1.10018 -0.06160 0.34030
 C500 C 1.07772 -0.08452 0.32360
 C501 C 1.08781 -0.10645 0.29651
 C502 C 1.04549 -0.08589 0.33477
 C503 C 1.03578 -0.06610 0.36344
 C504 C 1.05802 -0.04453 0.38191
 C505 C 1.09014 -0.04154 0.36957
 H506 H 1.11308 -0.14798 0.24926
 H507 H 1.19173 -0.06228 0.29841
 H508 H 1.20931 -0.10229 0.25261
 H509 H 1.14963 -0.04212 0.34006
 H510 H 1.07059 -0.12448 0.28452
 H511 H 1.02789 -0.10289 0.32185
 H512 H 1.01071 -0.06849 0.37176
 H513 H 1.10739 -0.02478 0.38336
 C514 C 0.88239 0.14321 0.20234
 C515 C 0.89179 0.13294 0.23737
 C516 C 0.87802 0.10313 0.25214
 C517 C 0.85594 0.08358 0.23147
 C518 C 0.84624 0.09425 0.19698
 C519 C 0.85866 0.12461 0.18219
 C520 C 0.88574 0.09380 0.28774
 C521 C 0.90663 0.11418 0.30902
 C522 C 0.92120 0.14353 0.29423
 C523 C 0.91385 0.15264 0.25830
 C524 C 0.94235 0.16351 0.31594
 C525 C 0.94831 0.15488 0.35219
 C526 C 0.93301 0.12632 0.36717
 C527 C 0.91258 0.10588 0.34521
 H528 H 0.89259 0.16650 0.19157
 H529 H 0.84545 0.06049 0.24236
 H530 H 0.82836 0.07893 0.18229
 H531 H 0.87476 0.07119 0.29919
 H532 H 0.92458 0.17544 0.24698
 H533 H 0.95395 0.18598 0.30501
 H534 H 0.96442 0.17075 0.36859
 H535 H 0.90104 0.08345 0.35633
 C536 C 0.12510 0.24514 -0.12311
 C537 C 0.11300 0.27494 -0.10691
 C538 C 0.12639 0.28577 -0.07331
 C539 C 0.15101 0.26674 -0.05618
 C540 C 0.16308 0.23766 -0.07239
 C541 C 0.15080 0.22647 -0.10629
 C542 C 0.11549 0.31582 -0.05744
 C543 C 0.09151 0.33570 -0.07478
 C544 C 0.07748 0.32494 -0.10805
 C545 C 0.08823 0.29451 -0.12390
 C546 C 0.05327 0.34513 -0.12497
 C547 C 0.04362 0.37590 -0.10942
 C548 C 0.05808 0.38705 -0.07675
 C549 C 0.08175 0.36651 -0.05944
 H550 H 0.11509 0.23715 -0.14907
 H551 H 0.16139 0.27467 -0.03038
 H552 H 0.18247 0.22413 -0.05809
 H553 H 0.12610 0.32405 -0.03180
 H554 H 0.07773 0.28639 -0.14960
 H555 H 0.04203 0.33730 -0.15038
 H556 H 0.02515 0.39118 -0.12316
 H557 H 0.09288 0.37462 -0.03404
 C558 C -0.12077 0.23043 0.11162
 C559 C -0.11225 0.26369 0.10189
 C560 C -0.12764 0.27925 0.07160
 C561 C -0.15088 0.26088 0.05112
 C562 C -0.15971 0.22787 0.06135
 C563 C -0.14524 0.21241 0.09217
 C564 C -0.12003 0.31310 0.06281
 C565 C -0.09757 0.33162 0.08432
 C566 C -0.08187 0.31573 0.11430
 C567 C -0.08916 0.28185 0.12274
 C568 C -0.05930 0.33408 0.13564
 C569 C -0.05244 0.36801 0.12759
 C570 C -0.06814 0.38421 0.09818
 C571 C -0.09065 0.36585 0.07652
 H572 H -0.10898 0.21918 0.13527
 H573 H -0.16278 0.27233 0.02767
 H574 H -0.17836 0.21480 0.04539
 H575 H -0.13197 0.32519 0.03970
 H576 H -0.07731 0.26983 0.14595
 H577 H -0.04698 0.32222 0.15860
 H578 H -0.03480 0.38160 0.14443
 H579 H -0.10256 0.37805 0.05348
 C580 C -0.15359 0.74837 -0.13016
 C581 C -0.13766 0.71805 -0.11953
 C582 C -0.12214 0.69788 -0.14561
 C583 C -0.12339 0.70778 -0.18181
 C584 C -0.13872 0.73800 -0.19201
 C585 C -0.15342 0.75890 -0.16635
 C586 C -0.10513 0.66841 -0.13515
 C587 C -0.10337 0.65859 -0.09889
 C588 C -0.11928 0.67835 -0.07278
 C589 C -0.13623 0.70798 -0.08323
 C590 C -0.11806 0.66801 -0.03663
 C591 C -0.10170 0.63820 -0.02657
 C592 C -0.08570 0.61851 -0.05227
 C593 C -0.08626 0.62907 -0.08838
 H594 H -0.16465 0.76444 -0.11018
 H595 H -0.11184 0.69255 -0.20216
 H596 H -0.13850 0.74544 -0.22013
 H597 H -0.09312 0.65320 -0.15523
 H598 H -0.14814 0.72324 -0.06313
 H599 H -0.13008 0.68274 -0.01621
 H600 H -0.10155 0.63047 0.00145
 H601 H -0.07428 0.61377 -0.10839
 C602 C 0.15737 0.73936 0.16239
 C603 C 0.13904 0.71033 0.15379
 C604 C 0.10792 0.70557 0.16851
 C605 C 0.09580 0.73030 0.19190
 C606 C 0.11431 0.75947 0.20039
 C607 C 0.14537 0.76442 0.18564
 C608 C 0.08955 0.67633 0.15935
 C609 C 0.10204 0.65213 0.13544
 C610 C 0.13331 0.65733 0.12092
 C611 C 0.15157 0.68618 0.13032
 C612 C 0.14586 0.63379 0.09678
 C613 C 0.12751 0.60545 0.08653
 C614 C 0.09639 0.59983 0.10047
 C615 C 0.08379 0.62308 0.12528
 H616 H 0.18118 0.74226 0.15059
 H617 H 0.07198 0.72716 0.20353
 H618 H 0.10421 0.77809 0.21842
 H619 H 0.06558 0.67257 0.17050
 H620 H 0.17550 0.69001 0.11903
 H621 H 0.16975 0.63749 0.08548
 H622 H 0.13777 0.58788 0.06746
 H623 H 0.05968 0.61902 0.13593
 C624 C 0.25667 1.11904 0.87756
 C625 C 0.28632 1.10748 0.89294
 C626 C 0.29680 1.11929 0.92731
 C627 C 0.27722 1.14222 0.94585
 C628 C 0.24790 1.15387 0.93022
 C629 C 0.23742 1.14268 0.89580
 C630 C 0.32684 1.10838 0.94234
 C631 C 0.34670 1.08605 0.92321
 C632 C 0.33600 1.07408 0.88895
 C633 C 0.30588 1.08473 0.87414
 C634 C 0.35572 1.05178 0.86984
 C635 C 0.38590 1.04157 0.88432
 C636 C 0.39700 1.05344 0.91818
 C637 C 0.37719 1.07563 0.93763
 H638 H 0.24903 1.11018 0.85101
 H639 H 0.28481 1.15154 0.97222
 H640 H 0.23357 1.17195 0.94504
 H641 H 0.33491 1.11754 0.96865
 H642 H 0.29785 1.07564 0.84778
 H643 H 0.34785 1.04228 0.84363
 H644 H 0.40059 1.02430 0.86888
 H645 H 0.38543 1.08473 0.96389
 C646 C 0.25613 0.85965 1.15574
 C647 C 0.28415 0.86217 1.13490
 C648 C 0.30109 0.83234 1.12517
 C649 C 0.28947 0.80047 1.13608
 C650 C 0.26121 0.79814 1.15614
 C651 C 0.24435 0.82763 1.16616
 C652 C 0.32941 0.83481 1.10486
 C653 C 0.34119 0.86678 1.09437
 C654 C 0.32387 0.89657 1.10359
 C655 C 0.29540 0.89405 1.12356
 C656 C 0.33597 0.92857 1.09384
 C657 C 0.36587 0.93115 1.07699
 C658 C 0.38372 0.90183 1.06882
 C659 C 0.37087 0.86960 1.07638
 H660 H 0.24294 0.88246 1.16288
 H661 H 0.30206 0.77734 1.12886
 H662 H 0.25245 0.77316 1.16382
 H663 H 0.34259 0.81195 1.09784
 H664 H 0.28238 0.91694 1.13088
 H665 H 0.32307 0.95165 1.10064
 H666 H 0.37577 0.95622 1.07154
 H667 H 0.38505 0.84705 1.07074
 C668 C 0.76112 1.09166 1.10369
 C669 C 0.72986 1.08049 1.09273
 C670 C 0.71354 1.09672 1.06339
 C671 C 0.72923 1.12284 1.04465
 C672 C 0.76016 1.13412 1.05606
 C673 C 0.77607 1.11931 1.08625
 C674 C 0.68141 1.08739 1.05402
 C675 C 0.66524 1.06233 1.07380
 C676 C 0.68183 1.04522 1.10237
 C677 C 0.71416 1.05429 1.11155
 C678 C 0.66549 1.01985 1.12171
 C679 C 0.63277 1.01213 1.11337
 C680 C 0.61591 1.02981 1.08574
 C681 C 0.63248 1.05458 1.06580
 H682 H 0.77309 1.07978 1.12686
 H683 H 0.71715 1.13527 1.02187
 H684 H 0.77114 1.15522 1.04188
 H685 H 0.66867 1.10034 1.03204
 H686 H 0.72674 1.04166 1.13390
 H687 H 0.67789 1.00625 1.14349
 H688 H 0.62055 0.99263 1.12877
 H689 H 0.61984 1.06798 1.04403
 C690 C 0.74806 0.84038 0.86201
 C691 C 0.71935 0.85671 0.87279
 C692 C 0.71289 0.89057 0.86161
 C693 C 0.73548 0.90778 0.84054
 C694 C 0.76374 0.89140 0.82975
 C695 C 0.77020 0.85740 0.83982
 C696 C 0.68375 0.90657 0.87115
 C697 C 0.66078 0.88912 0.89167
 C698 C 0.66749 0.85547 0.90341
 C699 C 0.69668 0.83952 0.89396
 C700 C 0.64475 0.83817 0.92424
 C701 C 0.61551 0.85383 0.93307
 C702 C 0.60827 0.88708 0.92117
 C703 C 0.63113 0.90471 0.90052
 H704 H 0.75264 0.81422 0.87000
 H705 H 0.73107 0.93379 0.83191
 H706 H 0.78039 0.90541 0.81297
 H707 H 0.67881 0.93243 0.86226
 H708 H 0.70157 0.81361 0.90274
 H709 H 0.64951 0.81246 0.93365
 H710 H 0.59846 0.83972 0.94925
 H711 H 0.62593 0.93045 0.89150
   
