data_POSCAR
  _audit_creation_date              2014-09-24
  _audit_creation_method            'ToBaCCo'
  _symmetry_space_group_name_H-M    'P1'
  _symmetry_Int_Tables_number       1
  _symmetry_cell_setting            triclinic
  loop_
  _symmetry_equiv_pos_as_xyz
 x,y,z
_cell_length_a 41.3680
_cell_length_b 40.7604
_cell_length_c 81.0019
_cell_angle_alpha 89.078400
_cell_angle_beta 90.194400
_cell_angle_gamma 120.422200
loop_
  _atom_site_label
  _atom_site_type_symbol
  _atom_site_fract_x
  _atom_site_fract_y
  _atom_site_fract_z
C1 C 0.01492 0.05789 0.52280
 H2 H 0.04133 0.05849 0.52222
 C3 C 0.01121 0.08318 0.53291
 H4 H 0.03509 0.10338 0.54002
 C5 C -0.04770 0.03179 0.51361
 H6 H -0.07037 0.01211 0.50586
 C7 C -0.05261 0.05669 0.52354
 H8 H -0.07939 0.05542 0.52356
 N9 N -0.01436 0.03272 0.51350
 C10 C 0.01055 -0.05710 0.50392
 H11 H 0.01074 -0.05662 0.49056
 C12 C 0.01512 -0.08439 0.51255
 H13 H 0.01949 -0.10446 0.50573
 C14 C 0.00389 -0.03186 0.52899
 H15 H -0.00157 -0.01207 0.53535
 C16 C 0.00834 -0.05866 0.53811
 H17 H 0.00631 -0.05907 0.55144
 Zn18 Zn -0.00530 0.00144 0.49956
 N19 N 0.00505 -0.03157 0.51220
 C20 C 0.06824 0.03324 0.48583
 N21 N 0.03592 0.03435 0.48593
 C22 C 0.03254 0.06080 0.47686
 C23 C 0.06220 0.08726 0.46701
 C24 C 0.09870 0.05928 0.47616
 C25 C -0.07929 -0.05629 0.49458
 C26 C -0.11057 -0.08247 0.48573
 C27 C -0.07653 -0.05353 0.46046
 C28 C -0.04595 -0.02798 0.46987
 N29 N -0.04781 -0.02982 0.48660
 H30 H 0.07065 0.01252 0.49339
 H31 H 0.00676 0.06147 0.47743
 H32 H 0.05908 0.10843 0.46009
 H33 H 0.12413 0.05786 0.47613
 H34 H -0.07996 -0.05725 0.50794
 H35 H -0.13514 -0.10165 0.49288
 H36 H -0.07223 -0.05175 0.44727
 H37 H -0.02025 -0.00753 0.46372
 C38 C 0.01369 -0.08565 0.52989
 C39 C -0.02287 0.08286 0.53335
 C40 C -0.10991 -0.08224 0.46821
 C41 C 0.09589 0.08679 0.46658
 C42 C 1.06787 0.03004 0.14184
 H43 H 1.06728 0.05624 0.14239
 C44 C 1.09478 0.02835 0.13217
 H45 H 1.11503 0.05354 0.12537
 C46 C 1.04303 -0.03404 0.15067
 H47 H 1.02315 -0.05808 0.15811
 C48 C 1.06958 -0.03697 0.14117
 H49 H 1.06942 -0.06361 0.14115
 N50 N 1.04256 -0.00092 0.15075
 C51 C 0.94992 0.01913 0.15868
 H52 H 0.94871 0.01838 0.17203
 C53 C 0.92297 0.02242 0.14956
 H54 H 0.90101 0.02413 0.15602
 C55 C 0.97873 0.01530 0.13412
 H56 H 0.99990 0.01154 0.12815
 C57 C 0.95235 0.01852 0.12453
 H58 H 0.95410 0.01812 0.11121
 Zn59 Zn 1.00897 0.00566 0.16412
 N60 N 0.97698 0.01552 0.15088
 C61 C 1.03658 0.07907 0.17805
 N62 N 1.03865 0.04681 0.17811
 C63 C 1.06408 0.04353 0.18758
 C64 C 1.08857 0.07327 0.19765
 C65 C 1.06069 0.10966 0.18792
 C66 C 0.95330 -0.07059 0.16839
 C67 C 0.92671 -0.10315 0.17695
 C68 C 0.95071 -0.06984 0.20254
 C69 C 0.97685 -0.03791 0.19349
 N70 N 0.97759 -0.03880 0.17672
 H71 H 1.01667 0.08139 0.17017
 H72 H 1.06557 0.01781 0.18714
 H73 H 1.10904 0.07028 0.20486
 H74 H 1.05865 0.13511 0.18777
 H75 H 0.95408 -0.07030 0.15504
 H76 H 0.90752 -0.12812 0.17008
 H77 H 0.94979 -0.06813 0.21584
 H78 H 0.99562 -0.01207 0.19987
 C79 C 0.92368 0.02165 0.13224
 C80 C 1.09594 -0.00546 0.13176
 C81 C 0.92485 -0.10288 0.19426
 C82 C 1.08718 0.10697 0.19787
 C83 C 0.03435 0.96798 0.85817
 H84 H 0.00728 0.94216 0.85766
 C85 C 0.06301 0.96875 0.86757
 H86 H 0.05756 0.94351 0.87451
 C87 C 0.07411 1.03213 0.84961
 H88 H 0.07852 1.05647 0.84230
 C89 C 0.10364 1.03417 0.85888
 H90 H 0.13060 1.06022 0.85862
 N91 N 0.04028 0.99936 0.84947
 C92 C -0.07185 0.98098 0.84161
 H93 H -0.07226 0.98217 0.82826
 C94 C -0.10196 0.97778 0.85069
 H95 H -0.12467 0.97733 0.84386
 C96 C -0.03940 0.98387 0.86612
 H97 H -0.01469 0.98690 0.87211
 C98 C -0.06881 0.98080 0.87572
 H99 H -0.06632 0.97978 0.88898
 Zn100 Zn 0.00022 0.99370 0.83616
 N101 N -0.04134 0.98409 0.84939
 C102 C -0.04620 0.92072 0.82193
 N103 N -0.01176 0.95276 0.82197
 C104 C 0.01673 0.95592 0.81247
 C105 C 0.01116 0.92629 0.80228
 C106 C -0.05299 0.89024 0.81193
 C107 C 0.02168 1.07035 0.83221
 C108 C 0.02781 1.10318 0.82378
 C109 C 0.01767 1.07017 0.79807
 C110 C 0.01172 1.03797 0.80699
 N111 N 0.01366 1.03857 0.82375
 H112 H -0.06825 0.91848 0.82982
 H113 H 0.04402 0.98145 0.81300
 H114 H 0.03446 0.92916 0.79505
 H115 H -0.08055 0.86495 0.81200
 H116 H 0.02241 1.06983 0.84556
 H117 H 0.03396 1.12813 0.83074
 H118 H 0.01477 1.06869 0.78477
 H119 H 0.00424 1.01215 0.80051
 C120 C -0.10081 0.97826 0.86813
 C121 C 0.09832 1.00208 0.86793
 C122 C 0.02535 1.10321 0.80648
 C123 C -0.02403 0.89281 0.80195
 C124 C 0.50633 0.00177 0.00849
 C125 C 0.50555 0.00048 -0.00833
 C126 C 0.47422 -0.00100 -0.01793
 C127 C 0.53592 0.00037 -0.01800
 C128 C 0.53698 0.00192 0.01814
 C129 C 0.47647 0.00294 0.01812
 C130 C 0.43700 -0.03009 -0.01518
 C131 C 0.40775 -0.03014 -0.02390
 C132 C 0.41526 -0.00127 -0.03563
 C133 C 0.45268 0.02720 -0.03864
 C134 C 0.48186 0.02724 -0.02992
 C135 C 0.52708 -0.02953 -0.02880
 C136 C 0.55535 -0.03095 -0.03755
 C137 C 0.59305 -0.00230 -0.03576
 C138 C 0.60175 0.02821 -0.02525
 C139 C 0.57341 0.02961 -0.01650
 C140 C 0.55807 0.03179 0.02896
 C141 C 0.58780 0.03314 0.03775
 C142 C 0.59685 0.00445 0.03598
 C143 C 0.57503 -0.02600 0.02543
 C144 C 0.54525 -0.02733 0.01664
 C145 C 0.46787 0.03177 0.01539
 C146 C 0.43861 0.03146 0.02412
 C147 C 0.41765 0.00248 0.03583
 C148 C 0.42710 -0.02570 0.03884
 C149 C 0.45631 -0.02537 0.03011
 H150 H 0.43061 -0.05248 -0.00616
 H151 H 0.37922 -0.05235 -0.02125
 H152 H 0.45941 0.04940 -0.04781
 H153 H 0.51043 0.04971 -0.03232
 H154 H 0.49827 -0.05216 -0.03024
 H155 H 0.54768 -0.05442 -0.04579
 H156 H 0.58072 0.05326 -0.00842
 H157 H 0.55187 0.05441 0.03040
 H158 H 0.60362 0.05657 0.04601
 H159 H 0.58142 -0.04841 0.02375
 H160 H 0.52887 -0.05096 0.00855
 H161 H 0.48353 0.05422 0.00636
 H162 H 0.43189 0.05345 0.02146
 H163 H 0.41196 -0.04797 0.04800
 H164 H 0.46278 -0.04765 0.03250
 H165 H 0.63053 0.05060 -0.02356
 C166 C -0.00780 0.49486 0.67723
 C167 C -0.00796 0.49476 0.66040
 C168 C -0.01117 0.46212 0.65107
 C169 C -0.00478 0.52738 0.65054
 C170 C -0.01212 0.52354 0.68657
 C171 C -0.00308 0.46644 0.68705
 C172 C 0.01450 0.46842 0.63841
 C173 C 0.01161 0.43790 0.62957
 C174 C -0.01721 0.40048 0.63314
 C175 C -0.04321 0.39431 0.64568
 C176 C -0.04030 0.42484 0.65451
 C177 C 0.02460 0.56460 0.65335
 C178 C 0.02755 0.59512 0.64401
 C179 C 0.00136 0.58899 0.63158
 C180 C -0.02773 0.55162 0.62865
 C181 C -0.03066 0.52111 0.63800
 C182 C -0.04223 0.52939 0.68339
 C183 C -0.04602 0.55653 0.69214
 C184 C -0.01992 0.57813 0.70435
 C185 C 0.00984 0.57173 0.70769
 C186 C 0.01360 0.54459 0.69893
 C187 C -0.02834 0.44563 0.69985
 C188 C -0.02400 0.41897 0.70916
 C189 C 0.00590 0.41283 0.70594
 C190 C 0.03147 0.43413 0.69325
 C191 C 0.02711 0.46078 0.68395
 H192 H 0.03697 0.49698 0.63546
 H193 H 0.03170 0.44363 0.61981
 H194 H -0.06555 0.36581 0.64880
 H195 H -0.06080 0.41942 0.66404
 H196 H 0.04528 0.56999 0.66277
 H197 H 0.05009 0.62358 0.64665
 H198 H -0.05332 0.49257 0.63553
 H199 H -0.06279 0.51297 0.67409
 H200 H -0.06908 0.56097 0.68920
 H201 H 0.03004 0.58747 0.71721
 H202 H 0.03683 0.54026 0.70168
 H203 H -0.05161 0.44984 0.70254
 H204 H -0.04380 0.40345 0.71902
 H205 H 0.05462 0.42987 0.69039
 H206 H 0.04733 0.47704 0.67433
 H207 H -0.04798 0.54592 0.61899
 C208 C 0.50089 0.50550 0.33972
 C209 C 0.50134 0.50554 0.32289
 C210 C 0.53465 0.53397 0.31325
 C211 C 0.46859 0.47697 0.31336
 C212 C 0.47123 0.47283 0.34940
 C213 C 0.52998 0.53808 0.34922
 C214 C 0.53042 0.55459 0.30024
 C215 C 0.56155 0.58109 0.29103
 C216 C 0.59750 0.58730 0.29460
 C217 C 0.60158 0.56628 0.30754
 C218 C 0.57044 0.53973 0.31671
 C219 C 0.43262 0.47126 0.31624
 C220 C 0.40190 0.44416 0.30735
 C221 C 0.40659 0.42243 0.29531
 C222 C 0.44276 0.42870 0.29225
 C223 C 0.47347 0.45582 0.30115
 C224 C 0.46349 0.43561 0.34663
 C225 C 0.43550 0.40500 0.35570
 C226 C 0.41490 0.41102 0.36783
 C227 C 0.42315 0.44839 0.37076
 C228 C 0.45115 0.47901 0.36168
 C229 C 0.54892 0.53169 0.36213
 C230 C 0.57612 0.56214 0.37117
 C231 C 0.58470 0.59958 0.36756
 C232 C 0.56533 0.60584 0.35475
 C233 C 0.53814 0.57538 0.34571
 H234 H 0.50304 0.55046 0.29733
 H235 H 0.55755 0.59711 0.28126
 H236 H 0.62879 0.56992 0.31039
 H237 H 0.57420 0.52346 0.32645
 H238 H 0.42834 0.48776 0.32541
 H239 H 0.37438 0.43981 0.31007
 H240 H 0.50103 0.46003 0.29864
 H241 H 0.47912 0.43029 0.33741
 H242 H 0.42963 0.37654 0.35307
 H243 H 0.40819 0.45401 0.38020
 H244 H 0.45694 0.50753 0.36411
 H245 H 0.54280 0.50311 0.36513
 H246 H 0.59012 0.55634 0.38114
 H247 H 0.57149 0.63436 0.35159
 H248 H 0.52338 0.58087 0.33599
 H249 H 0.44737 0.41287 0.28287
 C250 C -0.04759 0.15620 0.54703
 C251 C -0.03105 0.16541 0.56265
 C252 C -0.01294 0.14677 0.56891
 C253 C -0.01085 0.11944 0.55951
 C254 C -0.02685 0.11040 0.54368
 C255 C -0.04557 0.12882 0.53760
 C256 C -0.03146 0.19489 0.57203
 C257 C -0.03105 0.22000 0.57985
 C258 C -0.02979 0.24983 0.58898
 C259 C -0.02814 0.27562 0.59673
 C260 C -0.02555 0.30675 0.60596
 C261 C 0.00953 0.33632 0.61089
 C262 C 0.01225 0.36677 0.61974
 C263 C -0.02015 0.36804 0.62379
 C264 C -0.05531 0.33811 0.61881
 C265 C -0.05796 0.30769 0.60994
 H266 H -0.06153 0.17058 0.54203
 H267 H -0.00007 0.15365 0.58100
 H268 H 0.00330 0.10539 0.56462
 H269 H -0.05776 0.12284 0.52539
 H270 H 0.03479 0.33583 0.60790
 H271 H 0.03965 0.38909 0.62358
 H272 H -0.08070 0.33851 0.62156
 H273 H -0.08525 0.28500 0.60614
 C274 C 0.82942 0.81428 0.20655
 C275 C 0.83707 0.80369 0.22193
 C276 C 0.87367 0.82279 0.22806
 C277 C 0.90243 0.85274 0.21895
 C278 C 0.89491 0.86397 0.20357
 C279 C 0.85811 0.84418 0.19742
 C280 C 0.80703 0.77408 0.23160
 C281 C 0.78145 0.74966 0.23966
 C282 C 0.75107 0.72146 0.24902
 C283 C 0.72481 0.69765 0.25697
 C284 C 0.69312 0.66951 0.26639
 C285 C 0.69590 0.66643 0.28350
 C286 C 0.66487 0.63960 0.29268
 C287 C 0.63059 0.61553 0.28485
 C288 C 0.62814 0.61877 0.26763
 C289 C 0.65921 0.64558 0.25847
 H290 H 0.80115 0.79981 0.20172
 H291 H 0.87990 0.81481 0.23996
 H292 H 0.93054 0.86715 0.22393
 H293 H 0.85125 0.85248 0.18576
 H294 H 0.72197 0.68493 0.28976
 H295 H 0.66750 0.63812 0.30594
 H296 H 0.60231 0.60031 0.26122
 H297 H 0.65676 0.64770 0.24523
 C298 C 0.18348 0.03556 -0.10448
 C299 C 0.18820 0.00389 -0.10448
 C300 C 0.16378 -0.02816 -0.11355
 C301 C 0.13467 -0.02867 -0.12255
 C302 C 0.12953 0.00293 -0.12259
 C303 C 0.15435 0.03513 -0.11350
 C304 C 0.21798 0.00406 -0.09517
 C305 C 0.24275 0.00370 -0.08744
 C306 C 0.27165 0.00289 -0.07847
 C307 C 0.29634 0.00205 -0.07087
 C308 C 0.32591 0.00108 -0.06187
 C309 C 0.32463 -0.03353 -0.05905
 C310 C 0.35358 -0.03440 -0.05046
 C311 C 0.38425 -0.00058 -0.04461
 C312 C 0.38517 0.03404 -0.04746
 C313 C 0.35620 0.03483 -0.05603
 H314 H 0.20220 0.06051 -0.09748
 H315 H 0.16727 -0.05277 -0.11368
 H316 H 0.11643 -0.05364 -0.12963
 H317 H 0.15089 0.05973 -0.11316
 H318 H 0.30135 -0.05982 -0.06356
 H319 H 0.35227 -0.06142 -0.04862
 H320 H 0.40811 0.06046 -0.04290
 H321 H 0.35742 0.06177 -0.05811
 C322 C 0.03659 0.86336 0.56352
 C323 C 0.01784 0.82598 0.55783
 C324 C -0.00141 0.81767 0.54284
 C325 C -0.00229 0.84650 0.53364
 C326 C 0.01609 0.88412 0.53933
 C327 C 0.03574 0.89227 0.55433
 C328 C 0.01746 0.79591 0.56755
 C329 C 0.01651 0.77039 0.57567
 C330 C 0.01477 0.74019 0.58517
 C331 C 0.01283 0.71417 0.59326
 C332 C 0.01005 0.68287 0.60291
 C333 C -0.02505 0.65353 0.60830
 C334 C -0.02790 0.62301 0.61762
 C335 C 0.00439 0.62144 0.62169
 C336 C 0.03957 0.65111 0.61623
 C337 C 0.04235 0.68161 0.60689
 H338 H 0.05161 0.87012 0.57510
 H339 H -0.01617 0.78879 0.53836
 H340 H -0.01814 0.83916 0.52228
 H341 H 0.05050 0.92100 0.55895
 H342 H -0.05023 0.65428 0.60532
 H343 H -0.05531 0.60088 0.62182
 H344 H 0.06488 0.65048 0.61898
 H345 H 0.06965 0.70411 0.60274
 C346 C 0.15887 0.20707 0.21086
 C347 C 0.16886 0.20020 0.22652
 C348 C 0.15101 0.16315 0.23309
 C349 C 0.12382 0.13295 0.22393
 C350 C 0.11413 0.13940 0.20804
 C351 C 0.13162 0.17688 0.20168
 C352 C 0.19854 0.23078 0.23557
 C353 C 0.22390 0.25591 0.24313
 C354 C 0.25411 0.28480 0.25197
 C355 C 0.28026 0.30907 0.25951
 C356 C 0.31184 0.33758 0.26851
 C357 C 0.31489 0.37266 0.27175
 C358 C 0.34569 0.40031 0.28046
 C359 C 0.37388 0.39319 0.28603
 C360 C 0.37052 0.35782 0.28270
 C361 C 0.33971 0.33024 0.27401
 H362 H 0.17264 0.23563 0.20562
 H363 H 0.15850 0.15751 0.24520
 H364 H 0.11050 0.10449 0.22925
 H365 H 0.12510 0.18270 0.18941
 H366 H 0.29354 0.37869 0.26751
 H367 H 0.34771 0.42741 0.28266
 H368 H 0.39146 0.35129 0.28702
 H369 H 0.33758 0.30314 0.27160
 C370 C 0.80498 -0.03689 -0.11966
 C371 C 0.81253 -0.02092 -0.10400
 C372 C 0.84830 -0.00625 -0.09732
 C373 C 0.87664 -0.00705 -0.10633
 C374 C 0.86989 -0.02248 -0.12237
 C375 C 0.83321 -0.03773 -0.12875
 C376 C 0.78380 -0.01885 -0.09489
 C377 C 0.75992 -0.01676 -0.08730
 C378 C 0.73203 -0.01408 -0.07845
 C379 C 0.70819 -0.01178 -0.07093
 C380 C 0.67957 -0.00921 -0.06197
 C381 C 0.68134 0.02585 -0.06057
 C382 C 0.65332 0.02821 -0.05200
 C383 C 0.62310 -0.00453 -0.04474
 C384 C 0.62171 -0.03960 -0.04615
 C385 C 0.64975 -0.04189 -0.05472
 H386 H 0.77721 -0.04869 -0.12489
 H387 H 0.85453 0.00646 -0.08523
 H388 H 0.90419 0.00635 -0.10087
 H389 H 0.82555 -0.05144 -0.14059
 H390 H 0.70427 0.05131 -0.06618
 H391 H 0.65496 0.05552 -0.05127
 H392 H 0.59913 -0.06520 -0.04049
 H393 H 0.64817 -0.06915 -0.05567
 C394 C 0.17221 -0.02603 0.11921
 C395 C 0.18274 -0.00788 0.10372
 C396 C 0.16422 0.01009 0.09719
 C397 C 0.13560 0.01037 0.10619
 C398 C 0.12512 -0.00733 0.12188
 C399 C 0.14355 -0.02581 0.12824
 C400 C 0.21307 -0.00696 0.09467
 C401 C 0.23869 -0.00581 0.08711
 C402 C 0.26885 -0.00422 0.07831
 C403 C 0.29465 -0.00283 0.07082
 C404 C 0.32543 -0.00133 0.06191
 C405 C 0.35843 0.03353 0.05916
 C406 C 0.38843 0.03488 0.05062
 C407 C 0.38580 0.00130 0.04477
 C408 C 0.35243 -0.03357 0.04755
 C409 C 0.32249 -0.03484 0.05606
 H410 H 0.18644 -0.03993 0.12440
 H411 H 0.17208 0.02414 0.08519
 H412 H 0.12161 0.02439 0.10087
 H413 H 0.13647 -0.03927 0.14035
 H414 H 0.36103 0.05964 0.06367
 H415 H 0.41387 0.06208 0.04883
 H416 H 0.34933 -0.05983 0.04298
 H417 H 0.29704 -0.06197 0.05808
 C418 C 0.82722 0.86850 0.43285
 C419 C 0.80081 0.83418 0.44029
 C420 C 0.80334 0.82816 0.45712
 C421 C 0.83249 0.85603 0.46647
 C422 C 0.86038 0.89101 0.45921
 C423 C 0.85650 0.89654 0.44210
 C424 C 0.77173 0.80463 0.43059
 C425 C 0.74768 0.77951 0.42250
 C426 C 0.71984 0.74973 0.41307
 C427 C 0.69628 0.72400 0.40505
 C428 C 0.66836 0.69300 0.39554
 C429 C 0.63515 0.69199 0.39110
 C430 C 0.60796 0.66168 0.38196
 C431 C 0.61364 0.63193 0.37717
 C432 C 0.64716 0.63327 0.38167
 C433 C 0.67432 0.66361 0.39079
 H434 H 0.82524 0.87365 0.41982
 H435 H 0.78315 0.80145 0.46299
 H436 H 0.83372 0.84834 0.47917
 H437 H 0.87492 0.92293 0.43565
 H438 H 0.63021 0.71454 0.39476
 H439 H 0.58225 0.66123 0.37887
 H440 H 0.65258 0.61107 0.37797
 H441 H 0.69997 0.66415 0.39412
 C442 C 0.01297 0.18658 0.79455
 C443 C 0.03073 0.19714 0.77911
 C444 C 0.04796 0.17793 0.77285
 C445 C 0.04694 0.14787 0.78188
 C446 C 0.02861 0.13662 0.79730
 C447 C 0.01192 0.15657 0.80360
 C448 C 0.02993 0.22670 0.76948
 C449 C 0.02840 0.25099 0.76141
 C450 C 0.02575 0.27895 0.75199
 C451 C 0.02285 0.30248 0.74396
 C452 C 0.01874 0.33020 0.73439
 C453 C 0.05023 0.36523 0.73013
 C454 C 0.04611 0.39213 0.72087
 C455 C 0.01038 0.38432 0.71576
 C456 C -0.02109 0.34900 0.72011
 C457 C -0.01690 0.32215 0.72936
 H458 H -0.00064 0.20111 0.79947
 H459 H 0.06180 0.18588 0.76091
 H460 H 0.06038 0.13335 0.77679
 H461 H -0.00293 0.14825 0.81529
 H462 H 0.07795 0.37180 0.73401
 H463 H 0.07081 0.41923 0.71790
 H464 H -0.04889 0.34194 0.71618
 H465 H -0.04146 0.29508 0.73255
 C466 C 0.84922 -0.00215 0.09965
 C467 C 0.83485 0.02094 0.10423
 C468 C 0.85003 0.04496 0.11775
 C469 C 0.87927 0.04562 0.12676
 C470 C 0.89369 0.02225 0.12233
 C471 C 0.87843 -0.00152 0.10862
 C472 C 0.80406 0.01939 0.09522
 C473 C 0.77809 0.01766 0.08768
 C474 C 0.74754 0.01534 0.07886
 C475 C 0.72140 0.01328 0.07134
 C476 C 0.69021 0.01092 0.06237
 C477 C 0.69307 0.04369 0.05514
 C478 C 0.66275 0.04155 0.04652
 C479 C 0.62910 0.00655 0.04503
 C480 C 0.62656 -0.02629 0.05228
 C481 C 0.65692 -0.02408 0.06091
 H482 H 0.83757 -0.02096 0.08924
 H483 H 0.83915 0.06300 0.12139
 H484 H 0.89067 0.06450 0.13714
 H485 H 0.88847 -0.02031 0.10506
 H486 H 0.71874 0.07089 0.05615
 H487 H 0.66578 0.06722 0.04087
 H488 H 0.60091 -0.05355 0.05150
 H489 H 0.65439 -0.04961 0.06650
 C490 C 0.19483 0.16119 0.45355
 C491 C 0.18858 0.17235 0.43800
 C492 C 0.15225 0.15478 0.43159
 C493 C 0.12220 0.12652 0.44076
 C494 C 0.12808 0.11547 0.45651
 C495 C 0.16480 0.13289 0.46275
 C496 C 0.21916 0.20261 0.42882
 C497 C 0.24445 0.22832 0.42114
 C498 C 0.27372 0.25876 0.41215
 C499 C 0.29847 0.28500 0.40447
 C500 C 0.32775 0.31658 0.39530
 C501 C 0.36143 0.31770 0.39187
 C502 C 0.38981 0.34840 0.38295
 C503 C 0.38487 0.37844 0.37736
 C504 C 0.35090 0.37703 0.38088
 C505 C 0.32256 0.34630 0.38979
 H506 H 0.22282 0.17472 0.45866
 H507 H 0.14710 0.16316 0.41955
 H508 H 0.09435 0.11329 0.43553
 H509 H 0.17017 0.12535 0.47491
 H510 H 0.36578 0.29489 0.39612
 H511 H 0.41581 0.34889 0.38061
 H512 H 0.34604 0.39944 0.37655
 H513 H 0.29655 0.34566 0.39233
 C514 C -0.01701 0.83689 0.76655
 C515 C -0.03627 0.79975 0.77302
 C516 C -0.05302 0.79275 0.78865
 C517 C -0.04990 0.82288 0.79792
 C518 C -0.02982 0.86044 0.79167
 C519 C -0.01382 0.86704 0.77579
 C520 C -0.03723 0.76924 0.76391
 C521 C -0.03699 0.74418 0.75631
 C522 C -0.03562 0.71538 0.74745
 C523 C -0.03364 0.69120 0.73990
 C524 C -0.03041 0.66279 0.73092
 C525 C -0.06234 0.62781 0.72747
 C526 C -0.05899 0.60024 0.71881
 C527 C -0.02361 0.60733 0.71352
 C528 C 0.00828 0.64262 0.71704
 C529 C 0.00487 0.67013 0.72567
 H530 H -0.00396 0.84264 0.75445
 H531 H -0.06784 0.76412 0.79381
 H532 H -0.06215 0.81695 0.81018
 H533 H 0.00138 0.89557 0.77055
 H534 H -0.08977 0.62179 0.73152
 H535 H -0.08400 0.57319 0.71647
 H536 H 0.03582 0.64914 0.71293
 H537 H 0.02975 0.69716 0.72824
   
