data_POSCAR
  _audit_creation_date              2014-09-24
  _audit_creation_method            'ToBaCCo'
  _symmetry_space_group_name_H-M    'P1'
  _symmetry_Int_Tables_number       1
  _symmetry_cell_setting            triclinic
  loop_
  _symmetry_equiv_pos_as_xyz
 x,y,z
_cell_length_a 20.3121
_cell_length_b 20.3651
_cell_length_c 20.5513
_cell_angle_alpha 90.120900
_cell_angle_beta 90.133900
_cell_angle_gamma 90.037900
loop_
  _atom_site_label
  _atom_site_type_symbol
  _atom_site_fract_x
  _atom_site_fract_y
  _atom_site_fract_z
N1 N 0.54117 0.14799 0.01627
 N2 N 0.59446 0.18375 0.02796
 N3 N 0.39816 0.10896 -0.02736
 N4 N 0.34438 0.13876 -0.04737
 N5 N 0.40695 0.11792 0.03537
 N6 N 0.35979 0.15576 0.05933
 N7 N 0.53125 0.14219 -0.04665
 N8 N 0.57698 0.17401 -0.07911
 C9 C 0.61541 0.20037 -0.03234
 C10 C 0.32049 0.16696 0.00710
 N11 N 0.42624 -0.05761 -0.11686
 N12 N 0.38556 -0.09388 -0.15169
 N13 N 0.54294 0.03769 -0.13883
 N14 N 0.58340 0.07158 -0.17563
 N15 N 0.55957 -0.02451 -0.13729
 N16 N 0.61520 -0.03432 -0.17651
 N17 N 0.41036 0.00468 -0.12089
 N18 N 0.35893 0.01262 -0.15958
 Mn19 Mn 0.47032 0.07367 -0.08359
 C20 C 0.34355 -0.04954 -0.17736
 C21 C 0.62721 0.02751 -0.19862
 N22 N 0.44361 0.02730 0.13855
 N23 N 0.38836 0.03700 0.17139
 N24 N 0.59365 -0.00189 0.12455
 N25 N 0.64125 -0.00870 0.16834
 N26 N 0.57750 0.06033 0.11838
 N27 N 0.61749 0.09869 0.15803
 N28 N 0.46125 -0.03474 0.14180
 N29 N 0.41877 -0.06859 0.17634
 Mn30 Mn 0.49205 0.08883 0.07784
 C31 C 0.37418 -0.02352 0.19510
 C32 C 0.65573 0.05357 0.18763
 N33 N 0.59629 -0.11301 -0.03368
 N34 N 0.64295 -0.14800 -0.06127
 N35 N 0.47234 -0.13999 0.04955
 N36 N 0.42737 -0.17286 0.08208
 N37 N 0.46190 -0.14518 -0.01343
 N38 N 0.40886 -0.18158 -0.02489
 N39 N 0.60534 -0.10979 0.02965
 N40 N 0.65759 -0.14474 0.04677
 Mn41 Mn 0.51121 -0.08572 -0.07566
 Mn42 Mn 0.53378 -0.07190 0.08675
 Cl43 Cl 0.50195 0.00118 0.00135
 C44 C 0.68108 -0.16687 -0.01095
 C45 C 0.38863 -0.19919 0.03548
 N46 N 0.13851 0.45282 0.04789
 N47 N 0.16405 0.39664 0.06830
 N48 N 0.12306 0.59500 -0.00900
 N49 N 0.16781 0.64073 -0.02152
 N50 N 0.11434 0.58943 0.05431
 N51 N 0.15143 0.63206 0.08585
 N52 N 0.14752 0.45954 -0.01525
 N53 N 0.17886 0.40817 -0.03878
 C54 C 0.19054 0.37044 0.01376
 C55 C 0.18349 0.66434 0.03823
 N56 N -0.02844 0.56641 -0.12808
 N57 N -0.05995 0.60678 -0.16642
 N58 N 0.06313 0.44708 -0.12609
 N59 N 0.10024 0.40580 -0.15917
 N60 N 0.00066 0.43201 -0.13275
 N61 N -0.00653 0.38039 -0.17128
 N62 N 0.03398 0.58223 -0.12285
 N63 N 0.04679 0.63626 -0.16366
 Mn64 Mn 0.09250 0.52183 -0.06868
 C65 C -0.01450 0.64928 -0.18794
 C66 C 0.05624 0.36461 -0.18702
 N67 N 0.00336 0.56608 0.13886
 N68 N 0.01154 0.61767 0.17734
 N69 N -0.03537 0.41857 0.12403
 N70 N -0.05282 0.36196 0.14973
 N71 N 0.02759 0.42988 0.13391
 N72 N 0.05429 0.38180 0.16816
 N73 N -0.05957 0.55454 0.12945
 N74 N -0.09583 0.59775 0.16088
 Mn75 Mn 0.07151 0.50955 0.09434
 C76 C -0.05104 0.63668 0.19050
 C77 C 0.00339 0.33989 0.17737
 N78 N -0.10972 0.40798 -0.04848
 N79 N -0.14434 0.36320 -0.07963
 N80 N -0.14457 0.54400 0.01799
 N81 N -0.17557 0.59813 0.03681
 N82 N -0.13677 0.54366 -0.04546
 N83 N -0.16231 0.59700 -0.07121
 N84 N -0.12270 0.40685 0.01405
 N85 N -0.16744 0.36129 0.02691
 Mn86 Mn -0.06857 0.48693 -0.08882
 Mn87 Mn -0.09101 0.48097 0.07198
 Cl88 Cl 0.00128 0.49998 0.00229
 C89 C -0.17894 0.33369 -0.03210
 C90 C -0.18733 0.62973 -0.02000
 N91 N 0.05783 0.12738 0.43550
 N92 N 0.07977 0.15114 0.37959
 N93 N 0.00651 0.13290 0.57890
 N94 N -0.00237 0.17484 0.62725
 N95 N 0.06928 0.11885 0.57223
 N96 N 0.10487 0.15043 0.61602
 N97 N -0.00481 0.14174 0.44305
 N98 N -0.02708 0.17522 0.39297
 C99 C 0.02625 0.18212 0.35479
 C100 C 0.05942 0.18441 0.65020
 N101 N -0.13073 -0.00436 0.57856
 N102 N -0.17631 -0.01894 0.62222
 N103 N -0.12475 0.06761 0.44656
 N104 N -0.15522 0.10170 0.40118
 N105 N -0.13945 0.00498 0.44163
 N106 N -0.18019 -0.00550 0.39233
 N107 N -0.11448 0.05800 0.58249
 N108 N -0.14871 0.08756 0.62838
 Mn109 Mn -0.05959 0.10054 0.51308
 C110 C -0.18585 0.03880 0.65358
 C111 C -0.18927 0.05555 0.36789
 N112 N 0.14264 -0.00156 0.55981
 N113 N 0.18156 0.00891 0.61059
 N114 N 0.11687 -0.05535 0.42011
 N115 N 0.14760 -0.08471 0.37178
 N116 N 0.13292 0.00713 0.42297
 N117 N 0.17552 0.02195 0.37666
 N118 N 0.12689 -0.06404 0.55575
 N119 N 0.15444 -0.09786 0.60294
 Mn120 Mn 0.10146 0.06350 0.49752
 C121 C 0.18835 -0.05200 0.63638
 C122 C 0.18313 -0.03580 0.34480
 N123 N -0.06567 -0.11501 0.42891
 N124 N -0.10067 -0.14646 0.38455
 N125 N 0.00714 -0.13780 0.56066
 N126 N 0.02516 -0.17718 0.60872
 N127 N -0.05561 -0.12298 0.56506
 N128 N -0.08222 -0.15158 0.61589
 N129 N -0.00307 -0.13020 0.42393
 N130 N 0.00642 -0.17253 0.37604
 Mn131 Mn -0.09843 -0.05981 0.50342
 Mn132 Mn 0.06236 -0.09737 0.48998
 Cl133 Cl 0.00144 0.00180 0.50097
 C134 C -0.05488 -0.18137 0.35170
 C135 C -0.03139 -0.18473 0.64262
 N136 N -0.24192 0.26678 -0.10618
 N137 N -0.29708 0.23251 -0.10845
 C138 C -0.32217 0.23271 -0.04786
 C139 C -0.28017 0.26791 -0.00770
 N140 N -0.23077 0.28840 -0.04642
 H141 H -0.28621 0.27967 0.04333
 N142 N 0.25017 0.72802 0.11214
 N143 N 0.30488 0.76308 0.11339
 C144 C 0.32718 0.76631 0.05181
 C145 C 0.28362 0.73215 0.01206
 N146 N 0.23632 0.70898 0.05209
 H147 H 0.28717 0.72312 -0.03973
 N148 N 0.18731 0.26636 -0.04169
 N149 N 0.22048 0.21067 -0.04435
 C150 C 0.26437 0.21195 0.00486
 C151 C 0.25702 0.27062 0.03828
 N152 N 0.20842 0.30299 0.00730
 H153 H 0.28854 0.29078 0.07588
 N154 N -0.19551 0.73221 -0.07739
 N155 N -0.22830 0.78814 -0.07564
 C156 C -0.26362 0.78814 -0.02029
 C157 C -0.25171 0.72967 0.01216
 N158 N -0.20912 0.69622 -0.02564
 H159 H -0.27660 0.71058 0.05463
 N160 N -0.13174 -0.23815 0.28082
 N161 N -0.13256 -0.28671 0.23793
 C162 C -0.06988 -0.30742 0.23143
 C163 C -0.03028 -0.26992 0.27158
 N164 N -0.07098 -0.22742 0.30156
 H165 H 0.02218 -0.27447 0.27983
 N166 N 0.13743 0.24292 0.71853
 N167 N 0.13855 0.29118 0.76177
 C168 C 0.07558 0.30985 0.77087
 C169 C 0.03554 0.27146 0.73202
 N170 N 0.07622 0.23047 0.70011
 H171 H -0.01733 0.27445 0.72591
 N172 N -0.02625 0.18549 0.25012
 N173 N -0.03539 0.22790 0.20233
 C174 C 0.00723 0.27752 0.21245
 C175 C 0.04333 0.26405 0.26795
 N176 N 0.02101 0.20586 0.28976
 H177 H 0.07618 0.29676 0.29402
 N178 N -0.10024 -0.24776 0.71250
 N179 N -0.09697 -0.29338 0.75759
 C180 C -0.03268 -0.30379 0.77050
 C181 C 0.00424 -0.26227 0.73144
 N182 N -0.04056 -0.22884 0.69558
 H183 H 0.05723 -0.25912 0.72691
 N184 N 0.23247 -0.12832 0.71487
 N185 N 0.27320 -0.12973 0.76510
 C186 C 0.29280 -0.06740 0.77543
 C187 C 0.26311 -0.02738 0.72983
 N188 N 0.22609 -0.06763 0.69289
 H189 H 0.26993 0.02480 0.72242
 N190 N -0.24616 0.13242 0.29864
 N191 N -0.28850 0.13341 0.24976
 C192 C -0.30085 0.07037 0.23363
 C193 C -0.26444 0.03016 0.27437
 N194 N -0.23142 0.07124 0.31439
 H195 H -0.26350 -0.02297 0.27618
 N196 N 0.24094 -0.10624 0.26981
 N197 N 0.29198 -0.10483 0.23013
 C198 C 0.31414 -0.04246 0.22948
 C199 C 0.27494 -0.00517 0.27008
 N200 N 0.23004 -0.04721 0.29441
 H201 H 0.28068 0.04597 0.28342
 N202 N -0.26000 0.11134 0.70992
 N203 N -0.31163 0.10965 0.74879
 C204 C -0.32312 0.04603 0.76290
 C205 C -0.27640 0.00815 0.73103
 N206 N -0.23820 0.05129 0.69841
 H207 H -0.27152 -0.04478 0.73030
   
