data_POSCAR
  _audit_creation_date              2014-09-24
  _audit_creation_method            'ToBaCCo'
  _symmetry_space_group_name_H-M    'P1'
  _symmetry_Int_Tables_number       1
  _symmetry_cell_setting            triclinic
  loop_
  _symmetry_equiv_pos_as_xyz
 x,y,z
_cell_length_a 45.0818
_cell_length_b 35.9674
_cell_length_c 23.2859
_cell_angle_alpha 90.000000
_cell_angle_beta 89.854200
_cell_angle_gamma 89.899000
loop_
  _atom_site_label
  _atom_site_type_symbol
  _atom_site_fract_x
  _atom_site_fract_y
  _atom_site_fract_z
C1 C 0.68652 0.30977 0.50240
 C2 C 0.70130 0.30225 0.55368
 C3 C 0.72664 0.27964 0.55342
 C4 C 0.73662 0.26245 0.50212
 C5 C 0.72074 0.26981 0.45096
 C6 C 0.69640 0.29405 0.45105
 C7 C 0.76321 0.23706 0.50207
 C8 C 0.77923 0.22965 0.45089
 C9 C 0.80355 0.20530 0.45099
 C10 C 0.81321 0.18958 0.50248
 C11 C 0.79825 0.19719 0.55363
 C12 C 0.77299 0.21985 0.55333
 H13 H 0.66722 0.32788 0.50234
 H14 H 0.73837 0.27591 0.59345
 H15 H 0.72682 0.25680 0.41079
 H16 H 0.77324 0.24275 0.41077
 H17 H 0.83246 0.17139 0.50287
 H18 H 0.76123 0.22357 0.59340
 C19 C 0.18661 0.81017 0.50467
 C20 C 0.20146 0.80274 0.55591
 C21 C 0.22679 0.78012 0.55567
 C22 C 0.23669 0.76282 0.50446
 C23 C 0.22075 0.77008 0.45330
 C24 C 0.19641 0.79434 0.45334
 C25 C 0.26333 0.73752 0.50450
 C26 C 0.27930 0.73014 0.45330
 C27 C 0.30368 0.70597 0.45334
 C28 C 0.31351 0.69033 0.50469
 C29 C 0.29864 0.69787 0.55602
 C30 C 0.27326 0.72042 0.55581
 H31 H 0.16732 0.82829 0.50464
 H32 H 0.23856 0.77648 0.59567
 H33 H 0.22679 0.75698 0.41317
 H34 H 0.27326 0.74308 0.41311
 H35 H 0.33283 0.67226 0.50459
 H36 H 0.26147 0.72417 0.59587
 C37 C 0.31274 0.30961 -0.50204
 C38 C 0.29792 0.30200 -0.55316
 C39 C 0.27269 0.27937 -0.55274
 C40 C 0.26282 0.26225 -0.50135
 C41 C 0.27872 0.26972 -0.45028
 C42 C 0.30299 0.29397 -0.45057
 C43 C 0.23633 0.23681 -0.50116
 C44 C 0.22040 0.22937 -0.44990
 C45 C 0.19616 0.20499 -0.44990
 C46 C 0.18650 0.18926 -0.50134
 C47 C 0.20138 0.19688 -0.55255
 C48 C 0.22655 0.21958 -0.55237
 H49 H 0.33196 0.32774 -0.50232
 H50 H 0.26102 0.27561 -0.59278
 H51 H 0.27274 0.25677 -0.41002
 H52 H 0.22639 0.24247 -0.40980
 H53 H 0.16731 0.17106 -0.50165
 H54 H 0.23824 0.22332 -0.59250
 C55 C -0.18629 0.81048 -0.50354
 C56 C -0.20106 0.80304 -0.55485
 C57 C -0.22630 0.78039 -0.55472
 C58 C -0.23620 0.76308 -0.50355
 C59 C -0.22036 0.77036 -0.45231
 C60 C -0.19609 0.79464 -0.45225
 C61 C -0.26274 0.73773 -0.50374
 C62 C -0.27873 0.73024 -0.45262
 C63 C -0.30304 0.70604 -0.45288
 C64 C -0.31274 0.69048 -0.50434
 C65 C -0.29783 0.69812 -0.55551
 C66 C -0.27256 0.72069 -0.55514
 H67 H -0.16706 0.82862 -0.50343
 H68 H -0.23800 0.77673 -0.59476
 H69 H -0.22639 0.75726 -0.41221
 H70 H -0.27278 0.74311 -0.41235
 H71 H -0.33198 0.67240 -0.50458
 H72 H -0.26082 0.72447 -0.59521
 N73 N 0.03106 1.03987 0.10183
 N74 N 0.05216 1.04566 0.13988
 N75 N -0.03123 1.06632 0.06254
 N76 N -0.05086 1.09244 0.07504
 N77 N -0.03126 1.04029 0.10212
 N78 N -0.05092 1.04797 0.14252
 N79 N 0.03118 1.06601 0.06241
 N80 N 0.05242 1.09040 0.07267
 C81 C 0.06540 1.07696 0.12077
 C82 C -0.06323 1.08018 0.12448
 N83 N -0.03111 1.03994 -0.10090
 N84 N -0.05223 1.04576 -0.13892
 N85 N 0.03114 1.06626 -0.06160
 N86 N 0.05074 1.09233 -0.07408
 N87 N 0.03122 1.04023 -0.10118
 N88 N 0.05088 1.04786 -0.14157
 N89 N -0.03127 1.06607 -0.06147
 N90 N -0.05256 1.09049 -0.07171
 Mn91 Mn -0.00004 1.06658 0.00047
 C92 C -0.06552 1.07708 -0.11980
 C93 C 0.06315 1.08004 -0.12351
 N94 N -0.03137 0.96025 0.10178
 N95 N -0.05254 0.95441 0.13985
 N96 N 0.03105 0.93381 0.06260
 N97 N 0.05066 0.90770 0.07511
 N98 N 0.03096 0.95983 0.10217
 N99 N 0.05050 0.95216 0.14260
 N100 N -0.03135 0.93411 0.06236
 N101 N -0.05258 0.90967 0.07265
 Mn102 Mn -0.00015 1.00006 0.10246
 C103 C -0.06570 0.92309 0.12075
 C104 C 0.06288 0.91996 0.12457
 N105 N 0.03144 0.96018 -0.10084
 N106 N 0.05264 0.95432 -0.13889
 N107 N -0.03093 0.93387 -0.06166
 N108 N -0.05051 0.90781 -0.07415
 N109 N -0.03088 0.95989 -0.10124
 N110 N -0.05043 0.95227 -0.14164
 N111 N 0.03147 0.93405 -0.06142
 N112 N 0.05275 0.90958 -0.07169
 Mn113 Mn 0.00017 1.00006 -0.10153
 Mn114 Mn 0.00006 0.93355 0.00047
 Cl115 Cl 0.00001 1.00006 0.00047
 C116 C 0.06586 0.92297 -0.11978
 C117 C -0.06276 0.92010 -0.12360
 N118 N 0.46890 0.46019 0.10090
 N119 N 0.44786 0.45428 0.13924
 N120 N 0.53123 0.43384 0.06105
 N121 N 0.55092 0.40778 0.07327
 N122 N 0.53122 0.45985 0.10065
 N123 N 0.55091 0.45222 0.14082
 N124 N 0.46883 0.43406 0.06148
 N125 N 0.44768 0.40955 0.07205
 C126 C 0.43470 0.42291 0.12033
 C127 C 0.56328 0.42006 0.12258
 N128 N 0.53122 0.46018 -0.10238
 N129 N 0.55224 0.45423 -0.14079
 N130 N 0.46895 0.43386 -0.06251
 N131 N 0.44927 0.40786 -0.07463
 N132 N 0.46889 0.45986 -0.10213
 N133 N 0.44916 0.45228 -0.14220
 N134 N 0.53136 0.43404 -0.06296
 N135 N 0.55254 0.40949 -0.07360
 Mn136 Mn 0.50010 0.43354 -0.00074
 C137 C 0.56547 0.42283 -0.12190
 C138 C 0.43685 0.42016 -0.12389
 N139 N 0.53129 0.53990 0.10039
 N140 N 0.55237 0.54583 0.13843
 N141 N 0.46889 0.56625 0.06155
 N142 N 0.44921 0.59229 0.07407
 N143 N 0.46896 0.54024 0.10115
 N144 N 0.44933 0.54786 0.14162
 N145 N 0.53129 0.56604 0.06097
 N146 N 0.55244 0.59056 0.07124
 Mn147 Mn 0.50009 0.50005 0.10126
 C148 C 0.56550 0.57721 0.11932
 C149 C 0.43692 0.58001 0.12357
 N150 N 0.46862 0.53991 -0.10188
 N151 N 0.44756 0.54588 -0.13997
 N152 N 0.53096 0.56623 -0.06301
 N153 N 0.55063 0.59222 -0.07542
 N154 N 0.53095 0.54023 -0.10263
 N155 N 0.55063 0.54780 -0.14300
 N156 N 0.46855 0.56605 -0.06246
 N157 N 0.44738 0.59062 -0.07279
 Mn158 Mn 0.49992 0.50005 -0.10275
 Mn159 Mn 0.49992 0.56655 -0.00074
 Cl160 Cl 0.50001 0.50005 -0.00074
 C161 C 0.43437 0.57729 -0.12089
 C162 C 0.56298 0.57991 -0.12488
 C163 C 0.33700 0.34349 0.30260
 N164 N 0.33518 0.38018 0.28963
 N165 N 0.35242 0.39472 0.24887
 C166 C 0.37202 0.37304 0.21984
 N167 N 0.37372 0.33631 0.23258
 N168 N 0.35647 0.32177 0.27333
 C169 C 0.32126 0.32879 0.35117
 C170 C 0.30967 0.31659 0.39389
 C171 C 0.39306 0.38961 0.18126
 C172 C 0.41166 0.40431 0.15176
 C173 C -0.16311 0.84388 0.30337
 N174 N -0.16481 0.88062 0.29069
 N175 N -0.14773 0.89512 0.24966
 C176 C -0.12843 0.87335 0.22006
 N177 N -0.12686 0.83657 0.23250
 N178 N -0.14395 0.82207 0.27353
 C179 C -0.17858 0.82921 0.35223
 C180 C -0.18996 0.81697 0.39513
 C181 C -0.10743 0.88986 0.18140
 C182 C -0.08881 0.90453 0.15196
 C183 C 0.66322 0.65674 0.30044
 N184 N 0.66510 0.62007 0.28735
 N185 N 0.64786 0.60552 0.24676
 C186 C 0.62820 0.62717 0.21802
 N187 N 0.62644 0.66388 0.23088
 N188 N 0.64368 0.67843 0.27146
 C189 C 0.67893 0.67142 0.34890
 C190 C 0.69049 0.68359 0.39156
 C191 C 0.60715 0.61057 0.17970
 C192 C 0.58854 0.59584 0.15043
 C193 C 0.16282 1.15562 0.30300
 N194 N 0.16452 1.11893 0.29002
 N195 N 0.14743 1.10455 0.24907
 C196 C 0.12811 1.12641 0.21985
 N197 N 0.12654 1.16315 0.23259
 N198 N 0.14364 1.17753 0.27353
 C199 C 0.17834 1.17015 0.35175
 C200 C 0.18976 1.18228 0.39455
 C201 C 0.10711 1.11002 0.18129
 C202 C 0.08849 1.09544 0.15191
 C203 C 0.66295 0.34311 -0.30474
 N204 N 0.64359 0.32144 -0.27526
 N205 N 0.62640 0.33604 -0.23440
 C206 C 0.62806 0.37278 -0.22174
 N207 N 0.64755 0.39441 -0.25098
 N208 N 0.66473 0.37981 -0.29186
 C209 C 0.67860 0.32836 -0.35343
 C210 C 0.69011 0.31611 -0.39625
 C211 C 0.60706 0.38941 -0.18304
 C212 C 0.58849 0.40417 -0.15344
 C213 C 0.16349 0.84361 -0.30224
 N214 N 0.14436 0.82183 -0.27240
 N215 N 0.12724 0.83636 -0.23140
 C216 C 0.12872 0.87314 -0.21898
 N217 N 0.14799 0.89489 -0.24857
 N218 N 0.16511 0.88035 -0.28958
 C219 C 0.17899 0.82892 -0.35110
 C220 C 0.19038 0.81667 -0.39402
 C221 C 0.10767 0.88969 -0.18037
 C222 C 0.08901 0.90439 -0.15096
 C223 C 0.33686 0.65711 -0.30259
 N224 N 0.33502 0.62043 -0.28958
 N225 N 0.35220 0.60583 -0.24888
 C226 C 0.37175 0.62743 -0.21993
 N227 N 0.37347 0.66415 -0.23270
 N228 N 0.35629 0.67876 -0.27340
 C229 C 0.32124 0.67185 -0.35117
 C230 C 0.30977 0.68407 -0.39394
 C231 C 0.39276 0.61077 -0.18148
 C232 C 0.41134 0.59599 -0.15211
 C233 C -0.16317 1.15589 -0.30186
 N234 N -0.14403 1.17777 -0.27240
 N235 N -0.12688 1.16336 -0.23149
 C236 C -0.12837 1.12662 -0.21878
 N237 N -0.14765 1.10478 -0.24799
 N238 N -0.16479 1.11920 -0.28891
 C239 C -0.17871 1.17045 -0.35062
 C240 C -0.19014 1.18259 -0.39344
 C241 C -0.10732 1.11019 -0.18025
 C242 C -0.08866 1.09558 -0.15090
 C243 C 0.65281 0.67081 -0.31021
 N244 N 0.66322 0.64076 -0.28133
 N245 N 0.64674 0.62452 -0.24093
 C246 C 0.61933 0.63780 -0.22823
 N247 N 0.60898 0.66796 -0.25690
 N248 N 0.62546 0.68420 -0.29731
 C249 C 0.66906 0.68545 -0.35815
 C250 C 0.68210 0.69594 -0.40038
 C251 C 0.60037 0.61809 -0.18918
 C252 C 0.58372 0.60087 -0.15862
 C253 C 0.15287 1.17069 -0.30956
 N254 N 0.16335 1.14084 -0.28027
 N255 N 0.14688 1.12471 -0.23974
 C256 C 0.11940 1.13790 -0.22730
 N257 N 0.10899 1.16786 -0.25638
 N258 N 0.12546 1.18399 -0.29692
 C259 C 0.16912 1.18517 -0.35768
 C260 C 0.18213 1.19549 -0.40009
 C261 C 0.10046 1.11826 -0.18806
 C262 C 0.08383 1.10107 -0.15735
 C263 C 0.34698 0.32916 -0.30814
 N264 N 0.33661 0.35928 -0.27930
 N265 N 0.35308 0.37554 -0.23907
 C266 C 0.38045 0.36220 -0.22649
 N267 N 0.39077 0.33196 -0.25511
 N268 N 0.37430 0.31570 -0.29535
 C269 C 0.33077 0.31452 -0.35597
 C270 C 0.31778 0.30404 -0.39813
 C271 C 0.39942 0.38194 -0.18768
 C272 C 0.41609 0.39917 -0.15733
 C273 C -0.15217 0.82946 -0.30939
 N274 N -0.16270 0.85929 -0.28002
 N275 N -0.14628 0.87544 -0.23958
 C276 C -0.11881 0.86228 -0.22731
 N277 N -0.10834 0.83234 -0.25647
 N278 N -0.12475 0.81620 -0.29692
 C279 C -0.16837 0.81493 -0.35736
 C280 C -0.18135 0.80455 -0.39963
 C281 C -0.09994 0.88192 -0.18812
 C282 C -0.08338 0.89909 -0.15743
 C283 C 0.34756 0.67095 0.31011
 N284 N 0.33703 0.64111 0.28099
 N285 N 0.35340 0.62490 0.24032
 C286 C 0.38082 0.63802 0.22757
 N287 N 0.39129 0.66798 0.25648
 N288 N 0.37492 0.68418 0.29716
 C289 C 0.33142 0.68552 0.35830
 C290 C 0.31847 0.69595 0.40070
 C291 C 0.39967 0.61830 0.18825
 C292 C 0.41625 0.60105 0.15748
 C293 C -0.15302 1.17098 0.31071
 N294 N -0.12557 1.18412 0.29825
 N295 N -0.10908 1.16798 0.25769
 C296 C -0.11951 1.13816 0.22839
 N297 N -0.14702 1.12512 0.24065
 N298 N -0.16351 1.14127 0.28121
 C299 C -0.16930 1.18546 0.35883
 C300 C -0.18235 1.19579 0.40123
 C301 C -0.10056 1.11849 0.18910
 C302 C -0.08393 1.10126 0.15836
 C303 C 0.65268 0.32902 0.30805
 N304 N 0.62536 0.31573 0.29521
 N305 N 0.60900 0.33194 0.25470
 C306 C 0.61943 0.36197 0.22584
 N307 N 0.64681 0.37516 0.23847
 N308 N 0.66317 0.35894 0.27898
 C309 C 0.66878 0.31445 0.35612
 C310 C 0.68169 0.30404 0.39845
 C311 C 0.60057 0.38172 0.18675
 C312 C 0.58397 0.39899 0.15620
 C313 C 0.15234 0.82918 0.31054
 N314 N 0.12489 0.81607 0.29825
 N315 N 0.10847 0.83223 0.25777
 C316 C 0.11895 0.86203 0.22839
 N317 N 0.14646 0.87503 0.24049
 N318 N 0.16289 0.85886 0.28096
 C319 C 0.16858 0.81464 0.35852
 C320 C 0.18160 0.80425 0.40077
 C321 C 0.10007 0.88169 0.18916
 C322 C 0.08350 0.89890 0.15844
   
