data_POSCAR
  _audit_creation_date              2014-09-24
  _audit_creation_method            'ToBaCCo'
  _symmetry_space_group_name_H-M    'P1'
  _symmetry_Int_Tables_number       1
  _symmetry_cell_setting            triclinic
  loop_
  _symmetry_equiv_pos_as_xyz
 x,y,z
_cell_length_a 18.1543
_cell_length_b 17.8231
_cell_length_c 32.6849
_cell_angle_alpha 96.864900
_cell_angle_beta 87.480600
_cell_angle_gamma 120.944700
loop_
  _atom_site_label
  _atom_site_type_symbol
  _atom_site_fract_x
  _atom_site_fract_y
  _atom_site_fract_z
C1 C 0.03561 0.12383 0.54374
 H2 H 0.08951 0.12157 0.55469
 C3 C 0.02393 0.19305 0.55938
 H4 H 0.06968 0.24371 0.58195
 C5 C -0.08972 0.06049 0.50165
 H6 H -0.13490 0.00803 0.47970
 C7 C -0.10293 0.12980 0.51594
 H8 H -0.15807 0.12990 0.50470
 N9 N -0.02013 0.05964 0.51500
 C10 C 0.03332 -0.14990 0.52637
 H11 H 0.05094 -0.16154 0.49523
 C12 C 0.03597 -0.19671 0.55708
 H13 H 0.05567 -0.24462 0.54959
 C14 C -0.01330 -0.07292 0.57438
 H15 H -0.03396 -0.02583 0.58098
 C16 C -0.00821 -0.11569 0.60630
 H17 H -0.02415 -0.10070 0.63734
 Zn18 Zn 0.00715 -0.02689 0.49269
 N19 N 0.00823 -0.08989 0.53537
 C20 C 0.18644 0.07925 0.49907
 N21 N 0.11975 0.03506 0.47136
 C22 C 0.13236 0.04541 0.43059
 C23 C 0.21215 0.10875 0.41710
 C24 C 0.26722 0.14359 0.48697
 C25 C -0.11792 -0.19369 0.45239
 C26 C -0.17774 -0.25155 0.42162
 C27 C -0.14853 -0.12669 0.38723
 C28 C -0.08843 -0.07152 0.41839
 N29 N -0.07418 -0.10536 0.45025
 H30 H 0.17592 0.06777 0.53110
 H31 H 0.07987 0.00825 0.40861
 H32 H 0.21935 0.11941 0.38487
 H33 H 0.31785 0.18087 0.51006
 H34 H -0.10736 -0.21987 0.47814
 H35 H -0.21147 -0.32145 0.42451
 H36 H -0.15751 -0.09634 0.36272
 H37 H -0.05382 -0.00103 0.41742
 C38 C 0.01623 -0.17858 0.59758
 C39 C -0.04498 0.19755 0.54491
 C40 C -0.19506 -0.21869 0.38849
 C41 C 0.27953 0.16189 0.44580
 C42 C 1.09242 0.02322 0.10628
 H43 H 1.09863 0.08043 0.12514
 C44 C 1.15733 0.03247 0.07903
 H45 H 1.21306 0.09713 0.07663
 C46 C 1.01466 -0.13137 0.08816
 H47 H 0.96077 -0.19545 0.09287
 C48 C 1.07681 -0.12473 0.05961
 H49 H 1.06962 -0.18398 0.04237
 N50 N 1.02367 -0.05793 0.11094
 C51 C 0.81180 -0.03926 0.16909
 H52 H 0.80979 -0.06614 0.19738
 C53 C 0.74915 -0.01979 0.16084
 H54 H 0.69960 -0.03175 0.18317
 C55 C 0.87692 0.00403 0.10498
 H56 H 0.92611 0.01169 0.08310
 C57 C 0.81469 0.02361 0.09524
 H58 H 0.81703 0.04728 0.06592
 Zn59 Zn 0.94938 -0.06482 0.15492
 N60 N 0.87439 -0.02655 0.14152
 C61 C 1.00540 0.06672 0.22405
 N62 N 1.02009 0.00682 0.20126
 C63 C 1.09035 0.00148 0.20870
 C64 C 1.15082 0.05995 0.23913
 C65 C 1.06285 0.12460 0.25557
 C66 C 0.87631 -0.20364 0.20575
 C67 C 0.80927 -0.28352 0.21726
 C68 C 0.74771 -0.31861 0.14864
 C69 C 0.81542 -0.23801 0.13856
 N70 N 0.87686 -0.18167 0.16725
 H71 H 0.95045 0.07150 0.21728
 H72 H 1.10099 -0.04615 0.18986
 H73 H 1.20786 0.05690 0.24387
 H74 H 1.05106 0.17311 0.27274
 H75 H 0.92479 -0.15703 0.22834
 H76 H 0.80748 -0.29791 0.24868
 H77 H 0.69838 -0.36051 0.12552
 H78 H 0.81624 -0.21793 0.10851
 C79 C 0.74980 0.01183 0.12342
 C80 C 1.15005 -0.04216 0.05552
 C81 C 0.74220 -0.34078 0.18896
 C82 C 1.13735 0.12253 0.26284
 C83 C 0.13985 1.06461 0.90139
 H84 H 0.08233 1.02801 0.91853
 C85 C 0.21737 1.07753 0.91532
 H86 H 0.21837 1.04981 0.94287
 C87 C 0.20820 1.14460 0.84477
 H88 H 0.20483 1.17085 0.81734
 C89 C 0.28709 1.15792 0.85728
 H90 H 0.34334 1.19455 0.83922
 N91 N 0.13588 1.09569 0.86600
 C92 C -0.12743 1.02815 0.88424
 H93 H -0.15834 0.98009 0.85773
 C94 C -0.17669 1.04494 0.91370
 H95 H -0.24590 1.00843 0.90956
 C96 C 0.00067 1.13584 0.92060
 H97 H 0.07006 1.17301 0.92242
 C98 C -0.04601 1.15406 0.95107
 H99 H -0.01098 1.20448 0.97619
 Zn100 Zn 0.02438 1.05728 0.84507
 N101 N -0.04046 1.07386 0.88807
 C102 C -0.03641 0.88145 0.85517
 N103 N -0.02546 0.93538 0.82643
 C104 C -0.03578 0.90575 0.78552
 C105 C -0.04637 0.82323 0.77211
 C106 C -0.04688 0.79871 0.84318
 C107 C -0.00969 1.16987 0.80680
 C108 C -0.00602 1.22041 0.77647
 C109 C 0.07888 1.17211 0.73537
 C110 C 0.07325 1.12207 0.76647
 N111 N 0.03000 1.12225 0.80155
 H112 H -0.03175 0.90463 0.88754
 H113 H -0.03013 0.94786 0.76300
 H114 H -0.04800 0.80344 0.73937
 H115 H -0.05033 0.75926 0.86672
 H116 H -0.04359 1.16978 0.83479
 H117 H -0.03718 1.25863 0.78161
 H118 H 0.11379 1.17089 0.70787
 H119 H 0.10408 1.08352 0.76269
 C120 C -0.13620 1.10925 0.94761
 C121 C 0.29153 1.12178 0.89232
 C122 C 0.03952 1.22286 0.74041
 C123 C -0.04661 0.77109 0.80113
 C124 C 0.48996 0.08820 -0.02635
 C125 C 0.44005 0.05021 0.00812
 C126 C 0.47970 0.04439 0.04257
 C127 C 0.56700 0.06968 0.04259
 C128 C 0.61531 0.10275 0.00720
 C129 C 0.57690 0.11281 -0.02628
 H130 H 0.61650 0.14157 -0.05223
 H131 H 0.44056 0.01449 0.06853
 C132 C -0.01291 0.45047 0.63646
 C133 C 0.00567 0.43551 0.67529
 C134 C 0.00512 0.48778 0.71072
 C135 C -0.00120 0.56257 0.70835
 C136 C -0.00129 0.58789 0.66875
 C137 C -0.01283 0.52858 0.63369
 H138 H -0.01841 0.54520 0.60363
 H139 H 0.01111 0.47004 0.74038
 C140 C 0.53482 0.46788 0.28454
 C141 C 0.57535 0.51181 0.32337
 C142 C 0.54387 0.46747 0.35863
 C143 C 0.46575 0.38664 0.35758
 C144 C 0.41751 0.35160 0.32009
 C145 C 0.45541 0.38844 0.28377
 H146 H 0.42012 0.35659 0.25498
 H147 H 0.57884 0.49892 0.38750
 C148 C -0.05458 0.27316 0.56066
 C149 C -0.09677 0.30477 0.54081
 C150 C -0.08531 0.37706 0.56596
 C151 C -0.03701 0.38423 0.59942
 O152 O -0.01913 0.32081 0.59603
 H153 H -0.13079 0.27917 0.51141
 H154 H -0.11092 0.41819 0.56075
 C155 C 0.66345 0.58296 0.20322
 C156 C 0.58678 0.53337 0.18116
 C157 C 0.52848 0.48190 0.20814
 C158 C 0.57331 0.50336 0.24494
 O159 O 0.65536 0.56363 0.24162
 H160 H 0.57289 0.53712 0.14990
 H161 H 0.46057 0.43748 0.20185
 C162 C 0.37066 0.12478 -0.09587
 C163 C 0.43699 0.13742 -0.12190
 C164 C 0.49100 0.12520 -0.09970
 C165 C 0.45392 0.10612 -0.06154
 O166 O 0.38112 0.10624 -0.05938
 H167 H 0.44372 0.15028 -0.15378
 H168 H 0.54914 0.12777 -0.11081
 C169 C 0.02346 0.77638 0.63066
 C170 C 0.07132 0.81905 0.66637
 C171 C 0.06829 0.75435 0.68606
 C172 C 0.01563 0.67632 0.66173
 O173 O -0.00939 0.69035 0.62744
 H174 H 0.10781 0.88924 0.67571
 H175 H 0.10326 0.76376 0.71401
 C176 C 0.20346 0.18903 0.29296
 C177 C 0.18688 0.22828 0.32823
 C178 C 0.26543 0.29133 0.34442
 C179 C 0.32436 0.28533 0.31815
 O180 O 0.28675 0.22391 0.28661
 H181 H 0.12502 0.21445 0.34004
 H182 H 0.27836 0.33874 0.37118
 C183 C 0.81390 0.12849 -0.02383
 C184 C 0.84362 0.18795 0.01155
 C185 C 0.77272 0.18586 0.02868
 C186 C 0.70526 0.12519 0.00279
 O187 O 0.72995 0.09112 -0.02903
 H188 H 0.90860 0.22848 0.02373
 H189 H 0.77038 0.22422 0.05645
 C190 C 0.22081 -0.03403 0.02867
 C191 C 0.21041 -0.08613 -0.00795
 C192 C 0.29153 -0.05888 -0.02146
 C193 C 0.34539 0.00779 0.00790
 O194 O 0.30271 0.02256 0.03852
 H195 H 0.15090 -0.13806 -0.02284
 H196 H 0.30961 -0.08573 -0.04885
 C197 C 0.74373 0.72517 0.35984
 C198 C 0.71423 0.74868 0.32806
 C199 C 0.64859 0.67183 0.30943
 C200 C 0.64430 0.60612 0.32974
 O201 O 0.70072 0.63861 0.36072
 H202 H 0.73400 0.81357 0.32023
 H203 H 0.60658 0.66514 0.28500
 C204 C 0.04715 0.28051 0.70941
 C205 C 0.10570 0.30582 0.67800
 C206 C 0.09570 0.36511 0.65992
 C207 C 0.03013 0.36984 0.68069
 O208 O 0.00218 0.32030 0.71133
 H209 H 0.15311 0.28718 0.67034
 H210 H 0.13374 0.40292 0.63546
 C211 C 0.68243 0.03047 0.11319
 C212 C 0.62862 0.04180 0.14114
 C213 C 0.57785 0.05782 0.11854
 C214 C 0.60424 0.05535 0.07841
 O215 O 0.66741 0.03848 0.07520
 H216 H 0.62711 0.04021 0.17415
 H217 H 0.52858 0.07128 0.13015
 C218 C 0.35750 0.24064 0.43292
 C219 C 0.41913 0.30931 0.45908
 C220 C 0.46967 0.37340 0.43465
 C221 C 0.43529 0.33958 0.39518
 O222 O 0.36824 0.25875 0.39433
 H223 H 0.42452 0.31463 0.49225
 H224 H 0.52298 0.43796 0.44515
 C225 C -0.03520 0.69546 0.78744
 C226 C -0.00239 0.66134 0.81209
 C227 C 0.01397 0.60635 0.78610
 C228 C -0.01002 0.61032 0.74721
 O229 O -0.04080 0.66366 0.74823
 H230 H 0.01342 0.67857 0.84469
 H231 H 0.04371 0.57113 0.79471
   
