data_POSCAR
  _audit_creation_date              2014-09-24
  _audit_creation_method            'ToBaCCo'
  _symmetry_space_group_name_H-M    'P1'
  _symmetry_Int_Tables_number       1
  _symmetry_cell_setting            triclinic
  loop_
  _symmetry_equiv_pos_as_xyz
 x,y,z
_cell_length_a 27.3610
_cell_length_b 27.0269
_cell_length_c 27.2513
_cell_angle_alpha 91.565200
_cell_angle_beta 85.213500
_cell_angle_gamma 90.919800
loop_
  _atom_site_label
  _atom_site_type_symbol
  _atom_site_fract_x
  _atom_site_fract_y
  _atom_site_fract_z
C1 C 0.15451 0.54288 1.03267
 H2 H 0.15766 0.56002 0.99711
 C3 C 0.11465 0.55365 1.06650
 H4 H 0.08708 0.57929 1.05706
 C5 C 0.18518 0.48669 1.08756
 H6 H 0.21177 0.45957 1.09531
 C7 C 0.14675 0.49749 1.12293
 H8 H 0.14538 0.47971 1.15806
 N9 N 0.18840 0.50935 1.04340
 C10 C 0.32682 0.52818 0.95641
 H11 H 0.32910 0.49161 0.93931
 C12 C 0.36734 0.56002 0.95224
 H13 H 0.40098 0.54814 0.93189
 C14 C 0.28100 0.58746 1.00607
 H15 H 0.24768 0.59727 1.02805
 C16 C 0.32054 0.62098 1.00196
 H17 H 0.31751 0.65669 1.02084
 Zn18 Zn 0.23688 0.49178 0.99259
 N19 N 0.28508 0.54197 0.98361
 C20 C 0.21782 0.51128 0.89530
 N21 N 0.20483 0.48222 0.93435
 C22 C 0.16421 0.45242 0.93539
 C23 C 0.13305 0.45350 0.89728
 C24 C 0.18792 0.51324 0.85648
 C25 C 0.29923 0.44086 1.04709
 C26 C 0.33394 0.40566 1.05548
 C27 C 0.31103 0.35940 0.98357
 C28 C 0.27581 0.39509 0.97708
 N29 N 0.27143 0.43533 1.00815
 H30 H 0.24971 0.53531 0.89553
 H31 H 0.15435 0.43036 0.96734
 H32 H 0.09937 0.43182 0.89981
 H33 H 0.19710 0.53848 0.82680
 H34 H 0.29647 0.47422 1.06994
 H35 H 0.35730 0.41142 1.08537
 H36 H 0.31602 0.32876 0.95730
 H37 H 0.25432 0.39230 0.94555
 C38 C 0.36452 0.60666 0.97539
 C39 C 0.11039 0.53026 1.11184
 C40 C 0.34125 0.36549 1.02261
 C41 C 0.14434 0.48553 0.85810
 C42 C 0.81323 0.55690 -0.02016
 H43 H 0.80882 0.58693 0.00677
 C44 C 0.84856 0.56078 -0.05983
 H45 H 0.87136 0.59381 -0.06346
 C46 C 0.78845 0.47765 -0.04910
 H47 H 0.76462 0.44555 -0.04509
 C48 C 0.82450 0.47946 -0.08874
 H49 H 0.82810 0.44880 -0.11514
 N50 N 0.78368 0.51604 -0.01563
 C51 C 0.67534 0.58920 0.08618
 H52 H 0.67890 0.56817 0.11887
 C53 C 0.64001 0.62610 0.08682
 H54 H 0.61663 0.63366 0.12014
 C55 C 0.69745 0.60138 0.00135
 H56 H 0.71793 0.58986 -0.03255
 C57 C 0.66305 0.63900 0.00061
 H58 H 0.65789 0.65640 -0.03386
 Zn59 Zn 0.73729 0.51580 0.04038
 N60 N 0.70208 0.57647 0.04343
 C61 C 0.79352 0.55621 0.11271
 N62 N 0.77344 0.51280 0.09700
 C63 C 0.78450 0.46906 0.11684
 C64 C 0.81858 0.46778 0.15241
 C65 C 0.82748 0.55659 0.14821
 C66 C 0.64284 0.47737 0.03408
 C67 C 0.60518 0.44310 0.02914
 C68 C 0.66390 0.37739 0.02697
 C69 C 0.70110 0.41337 0.03221
 N70 N 0.68999 0.46255 0.03576
 H71 H 0.78477 0.59049 0.09611
 H72 H 0.76868 0.43489 0.10374
 H73 H 0.82860 0.43252 0.16629
 H74 H 0.84473 0.59114 0.15886
 H75 H 0.63385 0.51600 0.03564
 H76 H 0.56800 0.45582 0.02757
 H77 H 0.67296 0.33854 0.02371
 H78 H 0.73876 0.40193 0.03238
 C79 C 0.63266 0.65038 0.04341
 C80 C 0.85478 0.52169 -0.09423
 C81 C 0.61532 0.39281 0.02536
 C82 C 0.84127 0.51202 0.16746
 C83 C -0.01377 0.28694 0.39266
 H84 H -0.04126 0.25788 0.39633
 C85 C -0.00942 0.31513 0.35009
 H86 H -0.03348 0.30755 0.32109
 C87 C 0.05311 0.33086 0.42407
 H88 H 0.07761 0.33642 0.45297
 C89 C 0.05855 0.35989 0.38238
 H90 H 0.08771 0.38750 0.37884
 N91 N 0.01726 0.29538 0.42866
 C92 C -0.01827 0.16167 0.49768
 H93 H 0.01909 0.15534 0.50534
 C94 C -0.05039 0.12157 0.49684
 H95 H -0.03737 0.08477 0.50288
 C96 C -0.08145 0.21652 0.48160
 H97 H -0.09314 0.25381 0.47585
 C98 C -0.11515 0.17688 0.48027
 H99 H -0.15278 0.18352 0.47314
 Zn100 Zn 0.01516 0.25858 0.48745
 N101 N -0.03362 0.20794 0.48876
 C102 C 0.00396 0.28909 0.59017
 N103 N 0.00123 0.30227 0.54249
 C104 C -0.01374 0.34814 0.53167
 C105 C -0.02311 0.38375 0.56872
 C106 C -0.00456 0.32425 0.62875
 C107 C 0.08932 0.20210 0.44341
 C108 C 0.12495 0.16569 0.44056
 C109 C 0.13735 0.18257 0.52613
 C110 C 0.10138 0.21911 0.52738
 N111 N 0.07678 0.22659 0.48681
 H112 H 0.01337 0.25167 0.59829
 H113 H -0.01837 0.35750 0.49414
 H114 H -0.03340 0.42064 0.55935
 H115 H -0.00028 0.31435 0.66635
 H116 H 0.06875 0.20804 0.41192
 H117 H 0.13242 0.14435 0.40662
 H118 H 0.15464 0.17476 0.55932
 H119 H 0.09116 0.23886 0.56152
 C120 C -0.09889 0.12879 0.48731
 C121 C 0.02715 0.35191 0.34498
 C122 C 0.14786 0.15426 0.48260
 C123 C -0.01745 0.37240 0.61745
 C124 C 0.94981 0.67356 0.57210
 H125 H 0.92569 0.67336 0.54259
 C126 C 0.94025 0.64195 0.61128
 H127 H 0.90896 0.61685 0.61182
 C128 C 1.02171 0.70453 0.60597
 H129 H 1.05387 0.72838 0.60301
 C130 C 1.01400 0.67253 0.64551
 H131 H 1.04048 0.67164 0.67285
 N132 N 0.99004 0.70380 0.57000
 C133 C 0.94181 0.80436 0.46319
 H134 H 0.96940 0.79922 0.43274
 C135 C 0.90418 0.83807 0.45972
 H136 H 0.90279 0.85881 0.42644
 C137 C 0.91233 0.78694 0.54532
 H138 H 0.91671 0.76857 0.57934
 C139 C 0.87506 0.82126 0.54383
 H140 H 0.85058 0.82877 0.57640
 Zn141 Zn 1.00076 0.74033 0.51216
 N142 N 0.94499 0.77933 0.50544
 C143 C 0.97653 0.68653 0.42607
 N144 N 1.01048 0.69283 0.45960
 C145 C 1.04805 0.66062 0.46096
 C146 C 1.05213 0.61985 0.42815
 C147 C 0.97959 0.64666 0.39229
 C148 C 1.04428 0.82223 0.55159
 C149 C 1.07620 0.86256 0.55506
 C150 C 1.12929 0.82627 0.48890
 C151 C 1.09562 0.78665 0.48600
 N152 N 1.05381 0.78580 0.51689
 H153 H 0.94570 0.71098 0.42674
 H154 H 1.07375 0.66555 0.48885
 H155 H 1.08154 0.59383 0.43017
 H156 H 0.95175 0.64183 0.36651
 H157 H 1.01063 0.82089 0.57537
 H158 H 1.06719 0.89226 0.58159
 H159 H 1.16172 0.82760 0.46333
 H160 H 1.10205 0.75772 0.45813
 C161 C 0.87096 0.84726 0.50087
 C162 C 0.97305 0.64037 0.64774
 C163 C 1.11882 0.86520 0.52328
 C164 C 1.01741 0.61235 0.39369
 C165 C 0.45321 -0.02663 0.32562
 H166 H 0.47693 -0.05831 0.32521
 C167 C 0.41353 -0.02236 0.36121
 H168 H 0.40697 -0.05070 0.38838
 C169 C 0.43302 0.04902 0.29075
 H170 H 0.44095 0.07713 0.26374
 C171 C 0.39321 0.05488 0.32585
 H172 H 0.37048 0.08728 0.32551
 N173 N 0.46145 0.00814 0.29052
 C174 C 0.53265 -0.07126 0.16318
 H175 H 0.56534 -0.04879 0.15558
 C176 C 0.52094 -0.10908 0.12993
 H177 H 0.54459 -0.11576 0.09657
 C178 C 0.45942 -0.08722 0.21351
 H179 H 0.43431 -0.07739 0.24472
 C180 C 0.44657 -0.12542 0.18150
 H181 H 0.41182 -0.14484 0.18853
 Zn182 Zn 0.51377 -0.00234 0.24102
 N183 N 0.50154 -0.06056 0.20358
 C184 C 0.59993 -0.04827 0.26741
 N185 N 0.57193 -0.00706 0.27281
 C186 C 0.58304 0.03103 0.30379
 C187 C 0.62340 0.02820 0.33165
 C188 C 0.64078 -0.05247 0.29437
 C189 C 0.47899 0.05764 0.17083
 C190 C 0.47991 0.09460 0.13612
 C191 C 0.56401 0.11338 0.15146
 C192 C 0.56118 0.07657 0.18681
 N193 N 0.51884 0.05000 0.19610
 H194 H 0.58997 -0.07842 0.24321
 H195 H 0.55975 0.06311 0.30763
 H196 H 0.63117 0.05827 0.35703
 H197 H 0.66236 -0.08581 0.29081
 H198 H 0.44633 0.03499 0.17790
 H199 H 0.44761 0.10048 0.11675
 H200 H 0.59767 0.13451 0.14423
 H201 H 0.59291 0.06888 0.20629
 C202 C 0.47700 -0.13572 0.13884
 C203 C 0.38278 0.01868 0.36101
 C204 C 0.52283 0.12308 0.12629
 C205 C 0.65234 -0.01434 0.32732
 C206 C 0.56469 -0.04785 0.66430
 H207 H 0.53752 -0.07671 0.67207
 C208 C 0.60180 -0.05510 0.62695
 H209 H 0.60374 -0.08980 0.60609
 C210 C 0.59497 0.03297 0.68171
 H211 H 0.59157 0.06725 0.70306
 C212 C 0.63199 0.02781 0.64318
 H213 H 0.65777 0.05791 0.63526
 N214 N 0.56242 -0.00484 0.69138
 C215 C 0.46740 -0.06843 0.80980
 H216 H 0.43449 -0.04687 0.80924
 C217 C 0.46927 -0.10644 0.84347
 H218 H 0.43750 -0.11432 0.86858
 C219 C 0.54994 -0.08275 0.77979
 H220 H 0.58208 -0.07218 0.75655
 C221 C 0.55330 -0.12089 0.81263
 H222 H 0.58759 -0.14012 0.81380
 Zn223 Zn 0.50761 -0.00179 0.73786
 N224 N 0.50739 -0.05752 0.77865
 C225 C 0.41832 -0.03649 0.69631
 N226 N 0.45342 -0.00041 0.69901
 C227 C 0.45362 0.04029 0.67073
 C228 C 0.41617 0.04756 0.64036
 C229 C 0.38078 -0.03142 0.66475
 C230 C 0.54431 0.06481 0.80956
 C231 C 0.54075 0.10405 0.84452
 C232 C 0.46236 0.12411 0.81615
 C233 C 0.46685 0.08436 0.78277
 N234 N 0.50743 0.05566 0.77970
 H235 H 0.41965 -0.06921 0.71808
 H236 H 0.48264 0.06776 0.67270
 H237 H 0.41610 0.08073 0.61894
 H238 H 0.35282 -0.06001 0.66266
 H239 H 0.57570 0.04077 0.80726
 H240 H 0.56954 0.11044 0.86897
 H241 H 0.42947 0.14613 0.81873
 H242 H 0.43673 0.07550 0.76084
 C243 C 0.51299 -0.13275 0.84512
 C244 C 0.63539 -0.01696 0.61571
 C245 C 0.49894 0.13378 0.84788
 C246 C 0.37955 0.01152 0.63694
 C247 C 0.22617 0.04994 0.51301
 C248 C 0.25695 0.04159 0.55626
 C249 C 0.28154 -0.00212 0.55238
 C250 C 0.27282 -0.03339 0.50587
 C251 C 0.26243 0.04562 0.46726
 C252 C 0.28709 0.00207 0.46369
 C253 C 0.19240 0.00444 0.51084
 C254 C 0.21679 -0.03923 0.50706
 H255 H 0.26135 0.06901 0.58533
 H256 H 0.29293 -0.06886 0.50289
 H257 H 0.27017 0.07566 0.44216
 H258 H 0.15283 0.00677 0.51255
 C259 C 0.79308 -0.05087 0.46612
 C260 C 0.75550 -0.04643 0.51087
 C261 C 0.73093 -0.00280 0.51336
 C262 C 0.74547 0.03185 0.47067
 C263 C 0.76389 -0.04369 0.42168
 C264 C 0.73835 -0.00055 0.42435
 C265 C 0.82592 -0.00514 0.46894
 C266 C 0.80119 0.03827 0.47142
 H267 H 0.74888 -0.07513 0.53767
 H268 H 0.72502 0.06710 0.47260
 H269 H 0.76030 -0.07204 0.39331
 H270 H 0.86537 -0.00736 0.46940
 C271 C 0.44358 0.27775 0.99719
 C272 C 0.45817 0.24533 0.95211
 C273 C 0.50044 0.21985 0.95552
 C274 C 0.52466 0.23018 1.00406
 C275 C 0.44098 0.24300 1.04048
 C276 C 0.48320 0.21824 1.04426
 C277 C 0.48777 0.31155 1.00351
 C278 C 0.53042 0.28704 1.00734
 H279 H 0.43522 0.24065 0.92176
 H280 H 0.55912 0.20971 1.00691
 H281 H 0.40809 0.23690 1.06465
 H282 H 0.48507 0.35151 1.00497
 C283 C 0.53590 0.72953 -0.00001
 C284 C 0.53652 0.76238 -0.04489
 C285 C 0.49208 0.78269 -0.05064
 C286 C 0.45139 0.76793 -0.01152
 C287 C 0.51658 0.76274 0.04395
 C288 C 0.47189 0.78229 0.03745
 C289 C 0.49514 0.69109 -0.00706
 C290 C 0.45092 0.71146 -0.01278
 H291 H 0.56943 0.77043 -0.06834
 H292 H 0.41522 0.78439 -0.01639
 H293 H 0.53519 0.76843 0.07721
 H294 H 0.50042 0.65160 -0.00501
 C295 C 1.01913 0.44016 0.26014
 C296 C 0.96552 0.43213 0.24908
 C297 C 0.94266 0.47466 0.23937
 C298 C 0.97504 0.52161 0.24329
 C299 C 1.04260 0.46803 0.21578
 C300 C 1.01995 0.51111 0.20748
 C301 C 1.01849 0.47814 0.30330
 C302 C 0.99506 0.52068 0.29416
 H303 H 0.94952 0.39585 0.24272
 H304 H 0.95657 0.55668 0.23619
 H305 H 1.07391 0.45422 0.19324
 H306 H 1.03622 0.47256 0.33674
 C307 C -0.00589 0.54486 0.73799
 C308 C -0.04987 0.54275 0.77627
 C309 C -0.05433 0.49873 0.79981
 C310 C -0.01447 0.46086 0.78260
 C311 C 0.03842 0.53321 0.76583
 C312 C 0.03389 0.48920 0.78942
 C313 C -0.01184 0.50037 0.70355
 C314 C -0.01624 0.45625 0.72638
 H315 H -0.07380 0.57379 0.78524
 H316 H -0.01801 0.42511 0.80182
 H317 H 0.06901 0.55871 0.76884
 H318 H -0.00971 0.50372 0.66391
 N319 N 0.17742 0.11088 0.48083
 N320 N 0.19952 0.09647 0.51705
 N321 N 0.58982 0.68000 0.04163
 N322 N 0.58301 0.70629 0.00480
 N323 N 0.83754 -0.11266 0.50210
 N324 N 0.82152 -0.09608 0.46337
 N325 N 0.38286 0.33507 1.02680
 N326 N 0.39865 0.30484 0.99279
 N327 N 0.87084 0.08571 0.48339
 N328 N 0.82557 0.08527 0.47598
 N329 N 0.40780 0.63702 -0.02560
 N330 N 0.40662 0.68304 -0.01479
 N331 N 0.14782 -0.09025 0.52435
 N332 N 0.19205 -0.08643 0.50610
 N333 N 0.57478 0.35995 1.01878
 N334 N 0.57580 0.31293 1.01431
 N335 N 0.52464 0.16179 1.09123
 N336 N 0.48505 0.18084 1.07994
 N337 N -0.03269 0.60104 0.68176
 N338 N -0.00054 0.59059 0.71083
 N339 N 0.51869 0.83050 -0.11904
 N340 N 0.48432 0.81802 -0.08728
 N341 N 1.03510 0.37425 0.30528
 N342 N 1.04529 0.39478 0.26635
 N343 N 0.46137 0.83653 0.10590
 N344 N 0.44344 0.81128 0.07354
 N345 N -0.02103 0.41245 0.65267
 N346 N -0.01629 0.41029 0.69864
 N347 N 0.49008 0.17215 0.88450
 N348 N 0.51625 0.18184 0.92014
 N349 N 1.02038 0.56927 0.36162
 N350 N 0.99278 0.56342 0.32647
 N351 N 1.07339 0.53747 0.14147
 N352 N 1.03660 0.54495 0.16986
 N353 N 0.67270 -0.02548 0.57675
 N354 N 0.69343 0.00894 0.55144
 N355 N -0.10891 0.52685 0.86521
 N356 N -0.08998 0.49032 0.84041
 N357 N 0.34154 0.02524 0.39641
 N358 N 0.32763 -0.00705 0.42797
 N359 N 0.10992 0.49557 0.82309
 N360 N 0.06853 0.47359 0.82218
 N361 N 0.69124 -0.02144 0.35824
 N362 N 0.70144 0.00962 0.39195
 N363 N 0.88191 0.51242 0.19748
 N364 N 0.89870 0.47325 0.21428
 N365 N 0.34176 0.02022 0.60519
 N366 N 0.31829 -0.01425 0.58432
   
