data_POSCAR
  _audit_creation_date              2014-09-24
  _audit_creation_method            'ToBaCCo'
  _symmetry_space_group_name_H-M    'P1'
  _symmetry_Int_Tables_number       1
  _symmetry_cell_setting            triclinic
  loop_
  _symmetry_equiv_pos_as_xyz
 x,y,z
_cell_length_a 55.5097
_cell_length_b 55.9500
_cell_length_c 55.9484
_cell_angle_alpha 90.016000
_cell_angle_beta 89.998300
_cell_angle_gamma 90.033600
loop_
  _atom_site_label
  _atom_site_type_symbol
  _atom_site_fract_x
  _atom_site_fract_y
  _atom_site_fract_z
C1 C 0.27013 0.23904 0.24031
 C2 C 0.25992 0.22892 0.26089
 C3 C 0.23969 0.23913 0.27111
 C4 C 0.22948 0.25969 0.26098
 C5 C 0.23956 0.26968 0.24068
 C6 C 0.26005 0.25933 0.23032
 C7 C 0.28967 0.23287 0.22648
 N8 N 0.29174 0.24901 0.20847
 C9 C 0.27373 0.26527 0.21068
 C10 C 0.22588 0.28931 0.23474
 N11 N 0.20789 0.29152 0.25102
 C12 C 0.20995 0.27352 0.26716
 C13 C 0.23365 0.22550 0.29069
 N14 N 0.24982 0.20740 0.29265
 C15 C 0.26597 0.20935 0.27453
 H16 H 0.30158 0.21783 0.22936
 H17 H 0.27075 0.28027 0.19882
 H18 H 0.22887 0.30117 0.21974
 H19 H 0.19805 0.27065 0.28222
 H20 H 0.21868 0.22858 0.30271
 H21 H 0.28095 0.19735 0.27144
 C22 C 0.72952 -0.23941 0.23998
 C23 C 0.73968 -0.22933 0.26060
 C24 C 0.75981 -0.23963 0.27091
 C25 C 0.76997 -0.26024 0.26082
 C26 C 0.75995 -0.27018 0.24047
 C27 C 0.73953 -0.25975 0.23004
 C28 C 0.71006 -0.23316 0.22609
 N29 N 0.70792 -0.24933 0.20806
 C30 C 0.72588 -0.26568 0.21038
 C31 C 0.77361 -0.28983 0.23454
 N32 N 0.79158 -0.29214 0.25090
 C33 C 0.78943 -0.27412 0.26708
 C34 C 0.76583 -0.22603 0.29052
 N35 N 0.74975 -0.20784 0.29241
 C36 C 0.73367 -0.20972 0.27422
 H37 H 0.69825 -0.21803 0.22900
 H38 H 0.72887 -0.28075 0.19859
 H39 H 0.77062 -0.30161 0.21946
 H40 H 0.80124 -0.27121 0.28222
 H41 H 0.78074 -0.22918 0.30260
 H42 H 0.71876 -0.19765 0.27108
 C43 C 0.72981 0.24000 0.76013
 C44 C 0.73999 0.22989 0.73953
 C45 C 0.76011 0.24022 0.72921
 C46 C 0.77024 0.26088 0.73926
 C47 C 0.76020 0.27083 0.75959
 C48 C 0.73979 0.26038 0.77003
 C49 C 0.71035 0.23372 0.77403
 N50 N 0.70818 0.24991 0.79202
 C51 C 0.72612 0.26631 0.78968
 C52 C 0.77382 0.29053 0.76549
 N53 N 0.79180 0.29285 0.74914
 C54 C 0.78969 0.27480 0.73299
 C55 C 0.76616 0.22658 0.70963
 N56 N 0.75010 0.20835 0.70779
 C57 C 0.73400 0.21025 0.72597
 H58 H 0.69857 0.21855 0.77114
 H59 H 0.72909 0.28141 0.80144
 H60 H 0.77080 0.30232 0.78056
 H61 H 0.80152 0.27190 0.71787
 H62 H 0.78106 0.22972 0.69755
 H63 H 0.71911 0.19815 0.72915
 C64 C 0.27020 -0.23938 0.76117
 C65 C 0.26005 -0.22931 0.74055
 C66 C 0.23989 -0.23961 0.73026
 C67 C 0.22969 -0.26019 0.74037
 C68 C 0.23969 -0.27012 0.76072
 C69 C 0.26014 -0.25970 0.77114
 C70 C 0.28969 -0.23314 0.77505
 N71 N 0.29181 -0.24930 0.79308
 C72 C 0.27380 -0.26563 0.79079
 C73 C 0.22599 -0.28975 0.76667
 N74 N 0.20801 -0.29205 0.75032
 C75 C 0.21019 -0.27405 0.73413
 C76 C 0.23389 -0.22602 0.71064
 N77 N 0.25001 -0.20786 0.70873
 C78 C 0.26611 -0.20974 0.72691
 H79 H 0.30153 -0.21803 0.77211
 H80 H 0.27078 -0.28068 0.80258
 H81 H 0.22896 -0.30151 0.78175
 H82 H 0.19839 -0.27114 0.71899
 H83 H 0.21897 -0.22917 0.69858
 H84 H 0.28104 -0.19768 0.73003
 C85 C 0.72950 -0.23932 0.76094
 C86 C 0.73966 -0.22924 0.74032
 C87 C 0.75979 -0.23954 0.73000
 C88 C 0.76995 -0.26014 0.74009
 C89 C 0.75994 -0.27008 0.76044
 C90 C 0.73952 -0.25965 0.77087
 C91 C 0.71004 -0.23307 0.77484
 N92 N 0.70790 -0.24923 0.79286
 C93 C 0.72587 -0.26558 0.79054
 C94 C 0.77361 -0.28972 0.76636
 N95 N 0.79157 -0.29203 0.75000
 C96 C 0.78942 -0.27402 0.73382
 C97 C 0.76581 -0.22594 0.71040
 N98 N 0.74973 -0.20776 0.70851
 C99 C 0.73364 -0.20964 0.72670
 H100 H 0.69823 -0.21794 0.77193
 H101 H 0.72887 -0.28065 0.80231
 H102 H 0.77062 -0.30150 0.78144
 H103 H 0.80123 -0.27111 0.71869
 H104 H 0.78072 -0.22909 0.69832
 H105 H 0.71873 -0.19757 0.72985
 C106 C 0.27055 0.23958 0.76030
 C107 C 0.26024 0.22935 0.73982
 C108 C 0.24003 0.23958 0.72958
 C109 C 0.22995 0.26027 0.73960
 C110 C 0.24014 0.27037 0.75979
 C111 C 0.26063 0.26000 0.77015
 C112 C 0.29009 0.23339 0.77412
 N113 N 0.29235 0.24967 0.79203
 C114 C 0.27441 0.26604 0.78970
 C115 C 0.22655 0.29008 0.76566
 N116 N 0.20848 0.29222 0.74944
 C117 C 0.21043 0.27411 0.73341
 C118 C 0.23389 0.22584 0.71010
 N119 N 0.24997 0.20766 0.70822
 C120 C 0.26617 0.20966 0.72629
 H121 H 0.30183 0.21821 0.77126
 H122 H 0.27149 0.28118 0.80141
 H123 H 0.22961 0.30202 0.78059
 H124 H 0.19844 0.27114 0.71843
 H125 H 0.21892 0.22892 0.69809
 H126 H 0.28112 0.19764 0.72941
 C127 C 0.27020 -0.23947 0.23979
 C128 C 0.26005 -0.22940 0.26042
 C129 C 0.23988 -0.23969 0.27070
 C130 C 0.22969 -0.26028 0.26058
 C131 C 0.23969 -0.27021 0.24023
 C132 C 0.26015 -0.25979 0.22982
 C133 C 0.28969 -0.23323 0.22592
 N134 N 0.29181 -0.24938 0.20788
 C135 C 0.27381 -0.26572 0.21017
 C136 C 0.22600 -0.28985 0.23427
 N137 N 0.20802 -0.29215 0.25062
 C138 C 0.21019 -0.27415 0.26682
 C139 C 0.23388 -0.22610 0.29032
 N140 N 0.25000 -0.20794 0.29224
 C141 C 0.26609 -0.20982 0.27406
 H142 H 0.30153 -0.21811 0.22886
 H143 H 0.27080 -0.28078 0.19837
 H144 H 0.22897 -0.30161 0.21919
 H145 H 0.19839 -0.27124 0.28195
 H146 H 0.21896 -0.22925 0.30238
 H147 H 0.28103 -0.19776 0.27094
 C148 C 0.73026 0.23945 0.24042
 C149 C 0.74032 0.22946 0.26112
 C150 C 0.76046 0.23978 0.27144
 C151 C 0.77072 0.26032 0.26128
 C152 C 0.76080 0.27015 0.24084
 C153 C 0.74039 0.25970 0.23039
 C154 C 0.71080 0.23319 0.22651
 N155 N 0.70883 0.24924 0.20842
 C156 C 0.72682 0.26554 0.21065
 C157 C 0.77449 0.28977 0.23487
 N158 N 0.79239 0.29218 0.25129
 C159 C 0.79018 0.27424 0.26754
 C160 C 0.76640 0.22624 0.29111
 N161 N 0.75027 0.20809 0.29302
 C162 C 0.73423 0.20993 0.27480
 H163 H 0.69886 0.21816 0.22942
 H164 H 0.72985 0.28050 0.19875
 H165 H 0.77155 0.30148 0.21973
 H166 H 0.80191 0.27143 0.28275
 H167 H 0.78130 0.22940 0.30319
 H168 H 0.71931 0.19786 0.27164
 O169 O 0.26986 0.02284 0.47719
 O170 O 0.26991 -0.02359 0.52383
 O171 O 0.26991 -0.02360 0.47717
 O172 O 0.26985 0.02284 0.52384
 O173 O 0.23005 0.02288 0.52373
 O174 O 0.23010 -0.02377 0.47728
 O175 O 0.23011 -0.02377 0.52373
 O176 O 0.23006 0.02288 0.47729
 Cu177 Cu 0.27388 -0.00037 0.50051
 Cu178 Cu 0.22608 -0.00045 0.50051
 C179 C 0.24995 0.03077 0.46933
 C180 C 0.25002 -0.03159 0.53170
 C181 C 0.25001 -0.03160 0.46931
 C182 C 0.24994 0.03078 0.53170
 O183 O 0.73013 0.02313 0.52381
 O184 O 0.73005 -0.02332 0.47715
 O185 O 0.73005 -0.02331 0.52381
 O186 O 0.73013 0.02312 0.47716
 O187 O 0.76993 0.02319 0.47727
 O188 O 0.76985 -0.02346 0.52370
 O189 O 0.76986 -0.02347 0.47725
 O190 O 0.76994 0.02320 0.52370
 Cu191 Cu 0.72609 -0.00009 0.50048
 Cu192 Cu 0.77389 -0.00014 0.50048
 C193 C 0.75005 0.03109 0.53166
 C194 C 0.74994 -0.03130 0.46928
 C195 C 0.74994 -0.03129 0.53167
 C196 C 0.75004 0.03108 0.46931
 O197 O 0.47677 0.26851 0.02294
 O198 O 0.52380 0.26868 -0.02349
 O199 O 0.47675 0.26867 -0.02349
 O200 O 0.52377 0.26852 0.02293
 O201 O 0.52367 0.22903 0.02289
 O202 O 0.47687 0.22918 -0.02378
 O203 O 0.52365 0.22919 -0.02378
 O204 O 0.47685 0.22902 0.02289
 Cu205 Cu 0.50027 0.27256 -0.00027
 Cu206 Cu 0.50025 0.22514 -0.00045
 C207 C 0.46884 0.24874 0.03084
 C208 C 0.53170 0.24896 -0.03155
 C209 C 0.46884 0.24895 -0.03155
 C210 C 0.53169 0.24875 0.03083
 O211 O 0.52348 0.73148 0.02367
 O212 O 0.47643 0.73148 -0.02274
 O213 O 0.52347 0.73149 -0.02275
 O214 O 0.47643 0.73146 0.02367
 O215 O 0.47657 0.77096 0.02382
 O216 O 0.52336 0.77098 -0.02286
 O217 O 0.47657 0.77097 -0.02285
 O218 O 0.52336 0.77097 0.02382
 Cu219 Cu 0.49995 0.72751 0.00046
 Cu220 Cu 0.49997 0.77494 0.00049
 C221 C 0.53140 0.75122 0.03166
 C222 C 0.46852 0.75122 -0.03071
 C223 C 0.53139 0.75124 -0.03072
 C224 C 0.46852 0.75120 0.03166
 O225 O 0.02312 0.47728 0.27133
 O226 O -0.02371 0.52390 0.27130
 O227 O -0.02367 0.47721 0.27141
 O228 O 0.02309 0.52395 0.27122
 O229 O 0.02319 0.52367 0.23173
 O230 O -0.02390 0.47728 0.23192
 O231 O -0.02386 0.52369 0.23181
 O232 O 0.02311 0.47724 0.23184
 Cu233 Cu -0.00029 0.50060 0.27528
 Cu234 Cu -0.00037 0.50047 0.22786
 C235 C 0.03108 0.46934 0.25159
 C236 C -0.03176 0.53170 0.25154
 C237 C -0.03175 0.46932 0.25169
 C238 C 0.03112 0.53172 0.25144
 O239 O 0.02308 0.52406 0.72956
 O240 O -0.02368 0.47733 0.72932
 O241 O -0.02371 0.52402 0.72948
 O242 O 0.02312 0.47740 0.72940
 O243 O 0.02310 0.47734 0.76889
 O244 O -0.02387 0.52379 0.76897
 O245 O -0.02392 0.47738 0.76881
 O246 O 0.02318 0.52377 0.76905
 Cu247 Cu -0.00029 0.50071 0.72547
 Cu248 Cu -0.00039 0.50056 0.77290
 C249 C 0.03111 0.53183 0.74935
 C250 C -0.03178 0.46944 0.74902
 C251 C -0.03177 0.53181 0.74924
 C252 C 0.03108 0.46945 0.74913
 C253 C 0.34420 0.24877 0.15566
 N254 N 0.32924 0.26778 0.15828
 N255 N 0.31235 0.26783 0.17519
 C256 C 0.30987 0.24892 0.19021
 N257 N 0.32488 0.22993 0.18762
 N258 N 0.34169 0.22983 0.17062
 C259 C 0.36278 0.24872 0.13698
 N260 N 0.37577 0.22868 0.13240
 N261 N 0.39260 0.22864 0.11542
 C262 C 0.39713 0.24867 0.10248
 N263 N 0.38418 0.26872 0.10709
 N264 N 0.36727 0.26873 0.12399
 C265 C 0.41575 0.24866 0.08383
 N266 N 0.42235 0.26935 0.07296
 N267 N 0.43931 0.26937 0.05611
 C268 C 0.45018 0.24870 0.04942
 N269 N 0.44353 0.22800 0.06023
 N270 N 0.42666 0.22799 0.07718
 C271 C 0.65634 0.75098 0.15618
 N272 N 0.65752 0.76892 0.17247
 N273 N 0.67433 0.76879 0.18947
 C274 C 0.69073 0.75079 0.19073
 N275 N 0.68956 0.73290 0.17432
 N276 N 0.67264 0.73296 0.15743
 C277 C 0.63772 0.75105 0.13753
 N278 N 0.63418 0.73152 0.12356
 N279 N 0.61721 0.73154 0.10672
 C280 C 0.60327 0.75114 0.10313
 N281 N 0.60688 0.77071 0.11704
 N282 N 0.62374 0.77064 0.13399
 C283 C 0.58461 0.75118 0.08453
 N284 N 0.57316 0.77174 0.07848
 N285 N 0.55626 0.77177 0.06156
 C286 C 0.55008 0.75121 0.05021
 N287 N 0.56148 0.73064 0.05632
 N288 N 0.57849 0.73063 0.07312
 C289 C 0.65661 0.24953 -0.15609
 N290 N 0.67288 0.26760 -0.15736
 N291 N 0.68980 0.26768 -0.17426
 C292 C 0.69099 0.24977 -0.19064
 N293 N 0.67462 0.23173 -0.18936
 N294 N 0.65781 0.23158 -0.17237
 C295 C 0.63800 0.24942 -0.13744
 N296 N 0.62403 0.22981 -0.13390
 N297 N 0.60717 0.22970 -0.11695
 C298 C 0.60356 0.24925 -0.10303
 N299 N 0.61747 0.26889 -0.10662
 N300 N 0.63444 0.26894 -0.12346
 C301 C 0.58490 0.24917 -0.08443
 N302 N 0.57878 0.26968 -0.07298
 N303 N 0.56177 0.26963 -0.05617
 C304 C 0.55038 0.24903 -0.05010
 N305 N 0.55655 0.22850 -0.06149
 N306 N 0.57345 0.22858 -0.07841
 C307 C 0.34344 0.75100 -0.15510
 N308 N 0.32710 0.73299 -0.15632
 N309 N 0.31017 0.73294 -0.17320
 C310 C 0.30902 0.75082 -0.18961
 N311 N 0.32546 0.76880 -0.18837
 N312 N 0.34229 0.76893 -0.17140
 C313 C 0.36208 0.75107 -0.13647
 N314 N 0.37611 0.77064 -0.13294
 N315 N 0.39299 0.77071 -0.11602
 C316 C 0.39658 0.75115 -0.10211
 N317 N 0.38261 0.73155 -0.10569
 N318 N 0.36561 0.73154 -0.12251
 C319 C 0.41527 0.75118 -0.08354
 N320 N 0.42138 0.73063 -0.07215
 N321 N 0.43840 0.73064 -0.05536
 C322 C 0.44982 0.75121 -0.04925
 N323 N 0.44366 0.77177 -0.06058
 N324 N 0.42675 0.77174 -0.07748
 C325 C 0.15549 0.34437 0.25131
 N326 N 0.15799 0.32942 0.27026
 N327 N 0.17478 0.31240 0.27014
 C328 C 0.18977 0.30979 0.25113
 N329 N 0.18729 0.32480 0.23221
 N330 N 0.17042 0.34173 0.23228
 C331 C 0.13694 0.36307 0.25139
 N332 N 0.13245 0.37606 0.23139
 N333 N 0.11557 0.39298 0.23143
 C334 C 0.10266 0.39762 0.25151
 N335 N 0.10720 0.38468 0.27153
 N336 N 0.12399 0.36767 0.27146
 C337 C 0.08408 0.41629 0.25155
 N338 N 0.07322 0.42296 0.27224
 N339 N 0.05638 0.43993 0.27227
 C340 C 0.04971 0.45075 0.25159
 N341 N 0.06053 0.44404 0.23089
 N342 N 0.07746 0.42717 0.23088
 C343 C 0.15630 0.65617 0.74998
 N344 N 0.15752 0.67245 0.73205
 N345 N 0.17438 0.68941 0.73219
 C346 C 0.19078 0.69065 0.75019
 N347 N 0.18956 0.67426 0.76809
 N348 N 0.17260 0.65740 0.76802
 C349 C 0.13764 0.63756 0.74988
 N350 N 0.12366 0.63405 0.73028
 N351 N 0.10675 0.61714 0.73017
 C352 C 0.10311 0.60322 0.74971
 N353 N 0.11704 0.60677 0.76933
 N354 N 0.13405 0.62358 0.76939
 C355 C 0.08440 0.58465 0.74961
 N356 N 0.07825 0.57320 0.77012
 N357 N 0.06121 0.55641 0.77005
 C358 C 0.04982 0.55037 0.74944
 N359 N 0.05602 0.56176 0.72892
 N360 N 0.07295 0.57865 0.72902
 C361 C -0.15682 0.65604 0.25123
 N362 N -0.15800 0.67233 0.26917
 N363 N -0.17483 0.68930 0.26903
 C364 C -0.19122 0.69055 0.25103
 N365 N -0.19005 0.67415 0.23313
 N366 N -0.17312 0.65727 0.23319
 C367 C -0.13819 0.63742 0.25131
 N368 N -0.12419 0.63390 0.27089
 N369 N -0.10731 0.61698 0.27098
 C370 C -0.10370 0.60307 0.25142
 N371 N -0.11764 0.60663 0.23180
 N372 N -0.13463 0.62345 0.23178
 C373 C -0.08501 0.58451 0.25146
 N374 N -0.07890 0.57308 0.23093
 N375 N -0.06187 0.55631 0.23094
 C376 C -0.05046 0.55024 0.25152
 N377 N -0.05663 0.56160 0.27207
 N378 N -0.07354 0.57848 0.27203
 C379 C -0.15668 0.34482 0.74886
 N380 N -0.17301 0.34354 0.76687
 N381 N -0.18991 0.32662 0.76691
 C382 C -0.19103 0.31021 0.74902
 N383 N -0.17461 0.31149 0.73104
 N384 N -0.15781 0.32851 0.73093
 C385 C -0.13808 0.36348 0.74882
 N386 N -0.12405 0.36706 0.72926
 N387 N -0.10720 0.38402 0.72923
 C388 C -0.10365 0.39792 0.74882
 N389 N -0.11762 0.39430 0.76840
 N390 N -0.13458 0.37744 0.76837
 C391 C -0.08498 0.41653 0.74885
 N392 N -0.07893 0.42792 0.76942
 N393 N -0.06192 0.44473 0.76949
 C394 C -0.05047 0.45088 0.74895
 N395 N -0.05658 0.43956 0.72835
 N396 N -0.07348 0.42264 0.72832
 C397 C 0.24985 0.15499 0.34509
 N398 N 0.23082 0.17003 0.34270
 N399 N 0.23083 0.18690 0.32590
 C400 C 0.24983 0.18928 0.31078
 N401 N 0.26883 0.17418 0.31314
 N402 N 0.26887 0.15740 0.33003
 C403 C 0.24986 0.13644 0.36365
 N404 N 0.27000 0.12340 0.36803
 N405 N 0.27003 0.10661 0.38492
 C406 C 0.24989 0.10216 0.39794
 N407 N 0.22973 0.11515 0.39352
 N408 N 0.22974 0.13203 0.37672
 C409 C 0.24990 0.08360 0.41650
 N410 N 0.22909 0.07706 0.42744
 N411 N 0.22909 0.06017 0.44423
 C412 C 0.24993 0.04932 0.45078
 N413 N 0.27076 0.05590 0.43989
 N414 N 0.27074 0.07269 0.42301
 C415 C 0.75014 0.15574 0.65552
 N416 N 0.76911 0.17089 0.65780
 N417 N 0.76907 0.18784 0.67454
 C418 C 0.75011 0.19017 0.68971
 N419 N 0.73117 0.17496 0.68745
 N420 N 0.73115 0.15811 0.67063
 C421 C 0.75014 0.13712 0.63703
 N422 N 0.73003 0.12398 0.63273
 N423 N 0.73001 0.10712 0.61591
 C424 C 0.75013 0.10269 0.60286
 N425 N 0.77027 0.11578 0.60720
 N426 N 0.77025 0.13273 0.62393
 C427 C 0.75012 0.08406 0.58437
 N428 N 0.77093 0.07752 0.57342
 N429 N 0.77092 0.06059 0.55668
 C430 C 0.75008 0.04966 0.55018
 N431 N 0.72926 0.05624 0.56107
 N432 N 0.72929 0.07309 0.57791
 C433 C 0.25006 -0.15555 0.65619
 N434 N 0.26905 -0.15785 0.67131
 N435 N 0.26901 -0.17461 0.68823
 C436 C 0.25003 -0.18977 0.69057
 N437 N 0.23107 -0.18749 0.67539
 N438 N 0.23106 -0.17065 0.65856
 C439 C 0.25007 -0.13704 0.63759
 N440 N 0.22995 -0.13274 0.62447
 N441 N 0.22993 -0.11590 0.60764
 C442 C 0.25007 -0.10284 0.60321
 N443 N 0.27020 -0.10719 0.61629
 N444 N 0.27018 -0.12393 0.63321
 C445 C 0.25006 -0.08433 0.58461
 N446 N 0.27087 -0.07336 0.57810
 N447 N 0.27087 -0.05660 0.56118
 C448 C 0.25004 -0.05011 0.55026
 N449 N 0.22921 -0.06103 0.55682
 N450 N 0.22924 -0.07788 0.57364
 C451 C 0.74979 -0.15544 0.34489
 N452 N 0.76876 -0.17056 0.34254
 N453 N 0.76872 -0.18743 0.32573
 C454 C 0.74976 -0.18972 0.31055
 N455 N 0.73082 -0.17454 0.31287
 N456 N 0.73080 -0.15776 0.32977
 C457 C 0.74980 -0.13690 0.36347
 N458 N 0.72971 -0.12378 0.36783
 N459 N 0.72971 -0.10700 0.38473
 C460 C 0.74984 -0.10264 0.39781
 N461 N 0.76996 -0.11571 0.39340
 N462 N 0.76992 -0.13258 0.37659
 C463 C 0.74986 -0.08410 0.41639
 N464 N 0.77069 -0.07763 0.42736
 N465 N 0.77073 -0.06076 0.44417
 C466 C 0.74991 -0.04984 0.45072
 N467 N 0.72907 -0.05635 0.43980
 N468 N 0.72906 -0.07313 0.42289
 C469 C 0.65633 0.75106 -0.15525
 N470 N 0.65750 0.76900 -0.17154
 N471 N 0.67431 0.76888 -0.18854
 C472 C 0.69071 0.75088 -0.18981
 N473 N 0.68955 0.73299 -0.17341
 N474 N 0.67264 0.73304 -0.15652
 C475 C 0.63771 0.75113 -0.13660
 N476 N 0.63417 0.73159 -0.12265
 N477 N 0.61720 0.73160 -0.10581
 C478 C 0.60327 0.75120 -0.10220
 N479 N 0.60686 0.77077 -0.11609
 N480 N 0.62373 0.77071 -0.13304
 C481 C 0.58460 0.75122 -0.08360
 N482 N 0.57315 0.77178 -0.07752
 N483 N 0.55625 0.77181 -0.06061
 C484 C 0.55008 0.75124 -0.04927
 N485 N 0.56147 0.73067 -0.05540
 N486 N 0.57848 0.73068 -0.07221
 C487 C 0.34403 0.24944 -0.15619
 N488 N 0.34278 0.23144 -0.17242
 N489 N 0.32594 0.23155 -0.18939
 C490 C 0.30959 0.24959 -0.19069
 N491 N 0.31085 0.26755 -0.17436
 N492 N 0.32779 0.26751 -0.15750
 C493 C 0.36265 0.24935 -0.13755
 N494 N 0.36623 0.26890 -0.12360
 N495 N 0.38319 0.26885 -0.10674
 C496 C 0.39706 0.24921 -0.10312
 N497 N 0.39342 0.22964 -0.11701
 N498 N 0.37658 0.22974 -0.13397
 C499 C 0.41570 0.24914 -0.08450
 N500 N 0.42711 0.22856 -0.07845
 N501 N 0.44399 0.22848 -0.06151
 C502 C 0.45017 0.24902 -0.05012
 N503 N 0.43882 0.26961 -0.05622
 N504 N 0.42183 0.26966 -0.07305
 C505 C 0.34345 0.75092 0.15606
 N506 N 0.32711 0.73291 0.15728
 N507 N 0.31018 0.73285 0.17415
 C508 C 0.30903 0.75074 0.19057
 N509 N 0.32546 0.76872 0.18934
 N510 N 0.34229 0.76885 0.17237
 C511 C 0.36209 0.75100 0.13744
 N512 N 0.37611 0.77058 0.13392
 N513 N 0.39300 0.77065 0.11699
 C514 C 0.39659 0.75109 0.10308
 N515 N 0.38262 0.73149 0.10664
 N516 N 0.36563 0.73147 0.12346
 C517 C 0.41528 0.75113 0.08450
 N518 N 0.42139 0.73059 0.07309
 N519 N 0.43841 0.73060 0.05630
 C520 C 0.44983 0.75118 0.05020
 N521 N 0.44367 0.77174 0.06156
 N522 N 0.42675 0.77170 0.07846
 C523 C 0.65646 0.24887 0.15552
 N524 N 0.67144 0.26788 0.15811
 N525 N 0.68831 0.26796 0.17504
 C526 C 0.69074 0.24909 0.19011
 N527 N 0.67571 0.23009 0.18755
 N528 N 0.65893 0.22996 0.17052
 C529 C 0.63788 0.24879 0.13684
 N530 N 0.62485 0.22875 0.13230
 N531 N 0.60801 0.22869 0.11533
 C532 C 0.60349 0.24871 0.10238
 N533 N 0.61648 0.26876 0.10695
 N534 N 0.63341 0.26878 0.12383
 C535 C 0.58485 0.24869 0.08375
 N536 N 0.57826 0.26937 0.07288
 N537 N 0.56128 0.26939 0.05605
 C538 C 0.55037 0.24872 0.04939
 N539 N 0.55701 0.22802 0.06020
 N540 N 0.57390 0.22802 0.07713
 C541 C -0.15681 0.65616 0.74965
 N542 N -0.15800 0.67244 0.73171
 N543 N -0.17483 0.68941 0.73186
 C544 C -0.19122 0.69066 0.74986
 N545 N -0.19004 0.67426 0.76775
 N546 N -0.17311 0.65739 0.76769
 C547 C -0.13818 0.63754 0.74956
 N548 N -0.13462 0.62357 0.76908
 N549 N -0.11763 0.60675 0.76904
 C550 C -0.10369 0.60319 0.74942
 N551 N -0.10730 0.61710 0.72987
 N552 N -0.12419 0.63402 0.72997
 C553 C -0.08501 0.58463 0.74937
 N554 N -0.07354 0.57861 0.72880
 N555 N -0.05663 0.56172 0.72874
 C556 C -0.05046 0.55035 0.74928
 N557 N -0.06187 0.55642 0.76986
 N558 N -0.07889 0.57320 0.76989
 C559 C -0.15617 0.34423 0.25162
 N560 N -0.15737 0.32800 0.26961
 N561 N -0.17412 0.31094 0.26948
 C562 C -0.19045 0.30955 0.25141
 N563 N -0.18925 0.32587 0.23346
 N564 N -0.17240 0.34283 0.23352
 C565 C -0.13763 0.36296 0.25169
 N566 N -0.13412 0.37688 0.23213
 N567 N -0.11723 0.39381 0.23214
 C568 C -0.10336 0.39755 0.25177
 N569 N -0.10693 0.38368 0.27137
 N570 N -0.12371 0.36664 0.27130
 C571 C -0.08478 0.41624 0.25178
 N572 N -0.07335 0.42240 0.27233
 N573 N -0.05651 0.43940 0.27233
 C574 C -0.05040 0.45072 0.25175
 N575 N -0.06178 0.44450 0.23118
 N576 N -0.07872 0.42763 0.23122
 C577 C 0.15599 0.34497 0.74920
 N578 N 0.17102 0.34244 0.76817
 N579 N 0.18793 0.32556 0.76822
 C580 C 0.19035 0.31048 0.74934
 N581 N 0.17528 0.31298 0.73038
 N582 N 0.15845 0.32996 0.73029
 C583 C 0.13737 0.36361 0.74915
 N584 N 0.12433 0.36810 0.72913
 N585 N 0.10746 0.38504 0.72909
 C586 C 0.10293 0.39799 0.74911
 N587 N 0.11593 0.39345 0.76915
 N588 N 0.13289 0.37661 0.76915
 C589 C 0.08427 0.41658 0.74910
 N590 N 0.07763 0.42744 0.76978
 N591 N 0.06064 0.44425 0.76980
 C592 C 0.04976 0.45090 0.74912
 N593 N 0.05644 0.44010 0.72842
 N594 N 0.07334 0.42320 0.72843
 C595 C 0.15632 0.65606 0.25093
 N596 N 0.15753 0.67235 0.26887
 N597 N 0.17438 0.68931 0.26874
 C598 C 0.19079 0.69055 0.25074
 N599 N 0.18958 0.67416 0.23284
 N600 N 0.17262 0.65729 0.23289
 C601 C 0.13766 0.63745 0.25101
 N602 N 0.13408 0.62347 0.23149
 N603 N 0.11706 0.60666 0.23154
 C604 C 0.10313 0.60311 0.25116
 N605 N 0.10677 0.61703 0.27071
 N606 N 0.12367 0.63394 0.27061
 C607 C 0.08442 0.58454 0.25123
 N608 N 0.07296 0.57854 0.27182
 N609 N 0.05603 0.56165 0.27190
 C610 C 0.04983 0.55026 0.25137
 N611 N 0.06123 0.55631 0.23077
 N612 N 0.07827 0.57309 0.23072
 C613 C 0.74976 -0.15537 0.65605
 N614 N 0.76874 -0.17049 0.65839
 N615 N 0.76870 -0.18736 0.67520
 C616 C 0.74974 -0.18964 0.69038
 N617 N 0.73079 -0.17447 0.68806
 N618 N 0.73078 -0.15769 0.67117
 C619 C 0.74978 -0.13684 0.63747
 N620 N 0.72969 -0.12372 0.63311
 N621 N 0.72969 -0.10695 0.61621
 C622 C 0.74983 -0.10260 0.60314
 N623 N 0.76994 -0.11567 0.60754
 N624 N 0.76990 -0.13253 0.62436
 C625 C 0.74985 -0.08406 0.58456
 N626 N 0.77068 -0.07761 0.57359
 N627 N 0.77072 -0.06074 0.55678
 C628 C 0.74991 -0.04982 0.55023
 N629 N 0.72907 -0.05633 0.56115
 N630 N 0.72905 -0.07310 0.57805
 C631 C 0.25004 -0.15561 0.34479
 N632 N 0.26903 -0.15792 0.32967
 N633 N 0.26899 -0.17468 0.31275
 C634 C 0.25002 -0.18984 0.31041
 N635 N 0.23106 -0.18756 0.32559
 N636 N 0.23104 -0.17072 0.34242
 C637 C 0.25005 -0.13709 0.36340
 N638 N 0.22994 -0.13279 0.37652
 N639 N 0.22992 -0.11594 0.39336
 C640 C 0.25006 -0.10288 0.39778
 N641 N 0.27019 -0.10723 0.38471
 N642 N 0.27017 -0.12399 0.36778
 C643 C 0.25005 -0.08436 0.41638
 N644 N 0.27086 -0.07339 0.42290
 N645 N 0.27087 -0.05663 0.43982
 C646 C 0.25003 -0.05013 0.45074
 N647 N 0.22921 -0.06105 0.44418
 N648 N 0.22923 -0.07791 0.42735
 C649 C 0.75017 0.15566 0.34544
 N650 N 0.73119 0.15801 0.33032
 N651 N 0.73125 0.17482 0.31345
 C652 C 0.75022 0.18999 0.31117
 N653 N 0.76917 0.18767 0.32635
 N654 N 0.76917 0.17077 0.34313
 C655 C 0.75015 0.13706 0.36395
 N656 N 0.77026 0.13268 0.37705
 N657 N 0.77026 0.11574 0.39379
 C658 C 0.75012 0.10266 0.39813
 N659 N 0.72999 0.10710 0.38508
 N660 N 0.73003 0.12394 0.36825
 C661 C 0.75010 0.08405 0.41662
 N662 N 0.72927 0.07308 0.42308
 N663 N 0.72924 0.05624 0.43991
 C664 C 0.75007 0.04966 0.45080
 N665 N 0.77091 0.06057 0.44430
 N666 N 0.77092 0.07751 0.42756
 C667 C 0.24986 0.15508 0.65592
 N668 N 0.26889 0.15749 0.67097
 N669 N 0.26889 0.17432 0.68782
 C670 C 0.24992 0.18946 0.69015
 N671 N 0.23091 0.18708 0.67504
 N672 N 0.23086 0.17016 0.65828
 C673 C 0.24986 0.13649 0.63738
 N674 N 0.22973 0.13209 0.62431
 N675 N 0.22972 0.11520 0.60752
 C676 C 0.24987 0.10218 0.60310
 N677 N 0.27001 0.10662 0.61614
 N678 N 0.26999 0.12343 0.63301
 C679 C 0.24988 0.08361 0.58454
 N680 N 0.27071 0.07270 0.57804
 N681 N 0.27074 0.05591 0.56115
 C682 C 0.24992 0.04932 0.55025
 N683 N 0.22907 0.06019 0.55680
 N684 N 0.22907 0.07708 0.57360
   
