data_POSCAR
  _audit_creation_date              2014-09-24
  _audit_creation_method            'ToBaCCo'
  _symmetry_space_group_name_H-M    'P1'
  _symmetry_Int_Tables_number       1
  _symmetry_cell_setting            triclinic
  loop_
  _symmetry_equiv_pos_as_xyz
 x,y,z
_cell_length_a 28.3925
_cell_length_b 30.2005
_cell_length_c 31.2469
_cell_angle_alpha 89.793800
_cell_angle_beta 90.050200
_cell_angle_gamma 90.843800
loop_
  _atom_site_label
  _atom_site_type_symbol
  _atom_site_fract_x
  _atom_site_fract_y
  _atom_site_fract_z
C1 C 1.26183 0.24461 0.25014
 C2 C 0.76442 -0.25100 0.25630
 C3 C 0.73836 0.25804 -0.25334
 C4 C 1.24131 -0.24884 -0.23913
 C5 C 0.27228 0.25040 0.74873
 C6 C 0.75880 0.74339 0.74414
 C7 C 0.74743 0.25199 0.25548
 C8 C 0.23613 0.75514 0.24033
 N9 N 1.07225 0.06864 0.04058
 N10 N 1.10367 0.09957 0.05087
 N11 N 1.04919 -0.02779 0.07179
 N12 N 1.06225 -0.05582 0.10206
 N13 N 1.08230 -0.02362 0.04261
 N14 N 1.11890 -0.04816 0.05265
 N15 N 1.03971 0.06526 0.07041
 N16 N 1.04773 0.09431 0.10115
 C17 C 1.08706 0.11616 0.08806
 C18 C 1.10566 -0.06862 0.08947
 N19 N 0.91476 -0.04054 0.04225
 N20 N 0.88441 -0.07265 0.05084
 N21 N 0.93872 0.05512 0.07090
 N22 N 0.92530 0.08232 0.10140
 N23 N 0.90601 0.05165 0.04131
 N24 N 0.86926 0.07583 0.05128
 N25 N 0.94713 -0.03763 0.07217
 N26 N 0.93917 -0.06770 0.10231
 Mn27 Mn 0.99374 0.01361 0.07170
 C28 C 0.90018 -0.08970 0.08811
 C29 C 0.88213 0.09540 0.08846
 N30 N 1.08096 -0.02585 -0.04993
 N31 N 1.11650 -0.05222 -0.05773
 N32 N 1.03857 0.06164 -0.08239
 N33 N 1.04696 0.08798 -0.11539
 N34 N 1.07165 0.06635 -0.05320
 N35 N 1.10369 0.09568 -0.06620
 N36 N 1.04778 -0.03106 -0.07894
 N37 N 1.05985 -0.06149 -0.10703
 Mn38 Mn 1.07713 0.02160 -0.00502
 C39 C 1.10267 -0.07465 -0.09309
 C40 C 1.08729 0.10957 -0.10473
 N41 N 0.90542 0.05002 -0.05127
 N42 N 0.86892 0.07444 -0.06142
 N43 N 0.94588 -0.04082 -0.07887
 N44 N 0.93472 -0.06836 -0.11026
 N45 N 0.91314 -0.04200 -0.04919
 N46 N 0.87892 -0.06984 -0.05981
 N47 N 0.93755 0.05215 -0.08145
 N48 N 0.92399 0.07880 -0.11263
 Mn49 Mn 0.90971 0.00492 -0.00416
 Mn50 Mn 0.99253 0.01034 -0.08072
 Cl51 Cl 0.99337 0.01269 -0.00455
 C52 C 0.88129 0.09281 -0.09940
 C53 C 0.89328 -0.08681 -0.09740
 N54 N 1.05086 0.54522 0.57679
 N55 N 1.07611 0.55995 0.60957
 N56 N 0.95261 0.56892 0.54341
 N57 N 0.91956 0.59796 0.55195
 N58 N 0.95196 0.53706 0.57205
 N59 N 0.91824 0.54301 0.60029
 N60 N 1.05088 0.57500 0.54595
 N61 N 1.07534 0.61047 0.55699
 C62 C 1.09167 0.60043 0.59625
 C63 C 0.89787 0.58077 0.58709
 N64 N 0.96048 0.53865 0.42142
 N65 N 0.92877 0.54597 0.39129
 N66 N 1.05564 0.57473 0.45328
 N67 N 1.08458 0.60789 0.44289
 N68 N 1.05941 0.54248 0.42544
 N69 N 1.09129 0.55222 0.39620
 N70 N 0.95680 0.56799 0.45199
 N71 N 0.92228 0.59542 0.44426
 Mn72 Mn 1.00407 0.57200 0.49861
 C73 C 0.90479 0.58107 0.40659
 C74 C 1.10723 0.59279 0.40763
 N75 N 0.95726 0.44226 0.57305
 N76 N 0.92464 0.43019 0.60113
 N77 N 1.05945 0.41785 0.54928
 N78 N 1.08683 0.38601 0.56385
 N79 N 1.05568 0.44919 0.57822
 N80 N 1.07981 0.43927 0.61288
 N81 N 0.96122 0.41193 0.54338
 N82 N 0.93205 0.37848 0.55045
 Mn83 Mn 1.00398 0.49349 0.57536
 C84 C 0.90898 0.39047 0.58614
 C85 C 1.09983 0.40035 0.60331
 N86 N 1.06317 0.44723 0.42560
 N87 N 1.08873 0.43418 0.39276
 N88 N 0.96500 0.41223 0.45173
 N89 N 0.93019 0.38357 0.44473
 N90 N 0.96450 0.44388 0.42285
 N91 N 0.92938 0.43818 0.39588
 N92 N 1.06361 0.41706 0.45609
 N93 N 1.08898 0.38295 0.44442
 Mn94 Mn 1.01197 0.49307 0.42352
 Mn95 Mn 1.01252 0.41450 0.50012
 Cl96 Cl 1.00859 0.49323 0.49949
 C97 C 1.10559 0.39467 0.40558
 C98 C 0.90824 0.40053 0.40984
 N99 N 0.58244 0.03887 0.54420
 N100 N 0.61595 0.06774 0.55462
 N101 N 0.55620 -0.05683 0.57242
 N102 N 0.57146 -0.08257 0.60352
 N103 N 0.58789 -0.05334 0.54194
 N104 N 0.62581 -0.07591 0.55193
 N105 N 0.55058 0.03628 0.57467
 N106 N 0.56124 0.06391 0.60606
 C107 C 0.60151 0.08407 0.59268
 C108 C 0.61442 -0.09480 0.58979
 N109 N 0.42003 -0.06514 0.54848
 N110 N 0.38870 -0.09597 0.55925
 N111 N 0.44948 0.02885 0.57866
 N112 N 0.43877 0.05480 0.61096
 N113 N 0.41471 0.02701 0.55094
 N114 N 0.37901 0.05085 0.56414
 N115 N 0.45501 -0.06426 0.57609
 N116 N 0.44876 -0.09501 0.60580
 Mn117 Mn 0.50279 -0.01402 0.57573
 C118 C 0.40774 -0.11506 0.59442
 C119 C 0.39502 0.06857 0.60111
 N120 N 0.58238 -0.05216 0.44956
 N121 N 0.61477 -0.08143 0.43986
 N122 N 0.54346 0.03889 0.42316
 N123 N 0.55360 0.06475 0.39016
 N124 N 0.57780 0.04031 0.45139
 N125 N 0.61218 0.06674 0.43799
 N126 N 0.54739 -0.05419 0.42205
 N127 N 0.55461 -0.08532 0.39338
 Mn128 Mn 0.58288 -0.00652 0.49671
 C129 C 0.59665 -0.10216 0.40499
 C130 C 0.59592 0.08271 0.40048
 N131 N 0.41037 0.03050 0.45831
 N132 N 0.37557 0.05802 0.45070
 N133 N 0.44597 -0.05954 0.42517
 N134 N 0.43163 -0.08240 0.39151
 N135 N 0.41415 -0.06175 0.45571
 N136 N 0.37724 -0.08542 0.44304
 N137 N 0.44224 0.03350 0.42791
 N138 N 0.43037 0.06355 0.39929
 Mn139 Mn 0.41456 -0.01735 0.50342
 Mn140 Mn 0.49480 -0.01035 0.42435
 Cl141 Cl 0.49875 -0.01206 0.50005
 C142 C 0.38898 0.07893 0.41412
 C143 C 0.38931 -0.09917 0.40354
 N144 N 0.46505 0.59142 -0.04122
 N145 N 0.45942 0.62494 -0.06791
 N146 N 0.42435 0.56459 0.04791
 N147 N 0.38989 0.57992 0.07179
 N148 N 0.46090 0.59189 0.04855
 N149 N 0.45191 0.62638 0.07303
 N150 N 0.42778 0.56506 -0.04156
 N151 N 0.39587 0.58018 -0.06834
 C152 C 0.41635 0.61713 -0.08505
 C153 C 0.40774 0.61815 0.08789
 N154 N 0.44073 0.43579 0.04849
 N155 N 0.42579 0.40422 0.07434
 N156 N 0.41466 0.47002 -0.04214
 N157 N 0.38379 0.46516 -0.07359
 N158 N 0.44332 0.43640 -0.04088
 N159 N 0.43309 0.40793 -0.07134
 N160 N 0.41130 0.46891 0.04785
 N161 N 0.37524 0.46041 0.07363
 Mn162 Mn 0.41909 0.51716 0.00306
 C163 C 0.38531 0.42000 0.09026
 C164 C 0.39616 0.42629 -0.09174
 N165 N 0.56221 0.57973 0.05150
 N166 N 0.57390 0.60872 0.08126
 N167 N 0.59414 0.54539 -0.03718
 N168 N 0.62956 0.55096 -0.06412
 N169 N 0.56610 0.57962 -0.03825
 N170 N 0.58174 0.60924 -0.06619
 N171 N 0.59050 0.54568 0.05253
 N172 N 0.62196 0.55051 0.08334
 Mn173 Mn 0.51372 0.58603 0.00515
 C174 C 0.61091 0.58986 0.10118
 C175 C 0.62111 0.59072 -0.08240
 N176 N 0.54253 0.42463 -0.03822
 N177 N 0.54658 0.39288 -0.06661
 N178 N 0.57772 0.45067 0.05235
 N179 N 0.60908 0.43614 0.08010
 N180 N 0.54058 0.42433 0.05154
 N181 N 0.54555 0.39136 0.07890
 N182 N 0.58035 0.45007 -0.03752
 N183 N 0.61164 0.43575 -0.06548
 Mn184 Mn 0.49173 0.43017 0.00529
 Mn185 Mn 0.58618 0.49799 0.00754
 Cl186 Cl 0.50266 0.50798 0.00535
 C187 C 0.58956 0.40025 -0.08373
 C188 C 0.58819 0.39943 0.09691
 C189 C 1.24215 0.16822 0.21711
 C190 C 1.22923 0.21270 0.22437
 C191 C 1.19054 0.22918 0.20087
 C192 C 1.16450 0.20167 0.17291
 C193 C 1.17813 0.15734 0.16686
 C194 C 1.21678 0.14100 0.18922
 C195 C 1.15325 0.13008 0.13815
 C196 C 1.11416 0.14622 0.11599
 C197 C 1.09999 0.18995 0.12254
 C198 C 1.12532 0.21771 0.15045
 H199 H 1.18125 0.26370 0.20382
 H200 H 1.22809 0.10725 0.18449
 H201 H 1.16376 0.09605 0.13347
 H202 H 1.11410 0.25154 0.15472
 H203 H 1.27324 0.15431 0.23153
 H204 H 1.06948 0.20260 0.10593
 C205 C 1.23280 0.67119 0.73068
 C206 C 1.21837 0.71600 0.73094
 C207 C 1.18486 0.72877 0.70007
 C208 C 1.16248 0.69721 0.67387
 C209 C 1.17419 0.65201 0.67755
 C210 C 1.21010 0.63958 0.70536
 C211 C 1.15042 0.62010 0.65277
 C212 C 1.11624 0.63316 0.62323
 C213 C 1.10579 0.67829 0.61872
 C214 C 1.12833 0.71003 0.64415
 H215 H 1.17529 0.76327 0.69732
 H216 H 1.22102 0.60540 0.70729
 H217 H 1.15911 0.58538 0.65577
 H218 H 1.11906 0.74453 0.64058
 H219 H 1.26180 0.65977 0.74997
 H220 H 1.07946 0.68897 0.59595
 C221 C 0.66343 0.24725 0.70082
 C222 C 0.70402 0.22882 0.71958
 C223 C 0.71646 0.18564 0.70642
 C224 C 0.68819 0.16112 0.67792
 C225 C 0.64591 0.17905 0.66221
 C226 C 0.63397 0.22229 0.67379
 C227 C 0.61714 0.15379 0.63436
 C228 C 0.63147 0.11172 0.62079
 C229 C 0.67432 0.09492 0.63548
 C230 C 0.70219 0.11913 0.66419
 H231 H 0.74928 0.17131 0.71675
 H232 H 0.60247 0.23727 0.66102
 H233 H 0.58419 0.16699 0.62274
 H234 H 0.73480 0.10503 0.67555
 H235 H 0.65448 0.28134 0.70708
 H236 H 0.68570 0.06248 0.62545
 C237 C 0.69074 0.74597 0.20734
 C238 C 0.72736 0.72306 0.22840
 C239 C 0.72836 0.67642 0.22296
 C240 C 0.69738 0.65459 0.19499
 C241 C 0.66275 0.67868 0.17300
 C242 C 0.65906 0.72421 0.18010
 C243 C 0.63317 0.65697 0.14356
 C244 C 0.63873 0.61163 0.13513
 C245 C 0.67268 0.58777 0.15783
 C246 C 0.70149 0.60897 0.18782
 H247 H 0.75348 0.65613 0.23952
 H248 H 0.63237 0.74324 0.16380
 H249 H 0.60705 0.67569 0.12614
 H250 H 0.72784 0.58991 0.20456
 H251 H 0.68765 0.78145 0.21111
 H252 H 0.67734 0.55277 0.15203
 C253 C 0.84171 -0.20589 0.24323
 C254 C 0.79758 -0.22142 0.22735
 C255 C 0.78749 -0.21126 0.18401
 C256 C 0.81701 -0.18338 0.15971
 C257 C 0.85871 -0.16571 0.17775
 C258 C 0.87121 -0.17796 0.21928
 C259 C 0.88712 -0.13621 0.15390
 C260 C 0.87388 -0.12409 0.11220
 C261 C 0.83311 -0.14317 0.09405
 C262 C 0.80500 -0.17257 0.11751
 H263 H 0.75731 -0.22481 0.16775
 H264 H 0.90396 -0.16613 0.23328
 H265 H 0.91869 -0.12193 0.16809
 H266 H 0.77332 -0.18613 0.10291
 H267 H 0.85440 -0.21609 0.27432
 H268 H 0.82228 -0.13466 0.06185
 C269 C 0.75207 0.33599 0.71273
 C270 C 0.76157 0.29005 0.71372
 C271 C 0.79175 0.27337 0.68199
 C272 C 0.81793 0.30219 0.65567
 C273 C 0.81247 0.34846 0.65946
 C274 C 0.77809 0.36486 0.68679
 C275 C 0.84181 0.37749 0.63624
 C276 C 0.87592 0.36067 0.60864
 C277 C 0.87940 0.31464 0.60322
 C278 C 0.85083 0.28559 0.62677
 H279 H 0.79718 0.23800 0.67982
 H280 H 0.77177 0.40011 0.68862
 H281 H 0.83847 0.41301 0.63988
 H282 H 0.85524 0.25022 0.62312
 H283 H 0.72524 0.35037 0.73261
 H284 H 0.90540 0.30103 0.58182
 C285 C 0.25130 -0.17577 0.71822
 C286 C 0.26958 -0.21743 0.73041
 C287 C 0.31025 -0.23195 0.70866
 C288 C 0.33445 -0.20392 0.67964
 C289 C 0.31574 -0.16217 0.66922
 C290 C 0.27401 -0.14871 0.68834
 C291 C 0.33907 -0.13429 0.63991
 C292 C 0.38217 -0.14662 0.62222
 C293 C 0.40146 -0.18762 0.63323
 C294 C 0.37729 -0.21653 0.66110
 H295 H 0.32334 -0.26491 0.71470
 H296 H 0.25876 -0.11709 0.68015
 H297 H 0.32455 -0.10227 0.63193
 H298 H 0.39253 -0.24825 0.66883
 H299 H 0.21829 -0.16394 0.73063
 H300 H 0.43500 -0.19734 0.62002
 C301 C 0.32125 0.25234 0.18859
 C302 C 0.28749 0.27224 0.21511
 C303 C 0.27476 0.31645 0.20556
 C304 C 0.30007 0.34180 0.17562
 C305 C 0.33705 0.32231 0.15273
 C306 C 0.34646 0.27727 0.15844
 C307 C 0.36408 0.34819 0.12456
 C308 C 0.35464 0.39343 0.11876
 C309 C 0.31673 0.41229 0.14045
 C310 C 0.28958 0.38661 0.16876
 H311 H 0.24546 0.33176 0.22159
 H312 H 0.37375 0.26145 0.14000
 H313 H 0.39279 0.33304 0.10738
 H314 H 0.26099 0.40198 0.18589
 H315 H 0.32937 0.21763 0.19238
 H316 H 0.30871 0.44698 0.13616
 C317 C 0.82378 0.23611 -0.23101
 C318 C 0.77444 0.22904 -0.22906
 C319 C 0.75714 0.19664 -0.20013
 C320 C 0.78776 0.17120 -0.17525
 C321 C 0.83694 0.17717 -0.17950
 C322 C 0.85453 0.20978 -0.20739
 C323 C 0.86762 0.15112 -0.15504
 C324 C 0.84953 0.12033 -0.12531
 C325 C 0.80055 0.11546 -0.12057
 C326 C 0.76990 0.14029 -0.14568
 H327 H 0.71941 0.19176 -0.19670
 H328 H 0.89214 0.21573 -0.21014
 H329 H 0.90542 0.15537 -0.15848
 H330 H 0.73224 0.13550 -0.14177
 H331 H 0.83929 0.26260 -0.24975
 H332 H 0.78590 0.09179 -0.09791
 C333 C 0.83200 0.69352 0.25774
 C334 C 0.79541 0.71501 0.28000
 C335 C 0.78537 0.70103 0.32222
 C336 C 0.81228 0.66832 0.34208
 C337 C 0.84902 0.64786 0.31933
 C338 C 0.85836 0.66051 0.27713
 C339 C 0.87676 0.61603 0.33959
 C340 C 0.86949 0.60604 0.38287
 C341 C 0.83260 0.62594 0.40519
 C342 C 0.80363 0.65632 0.38474
 H343 H 0.75656 0.71520 0.33990
 H344 H 0.88614 0.64496 0.25909
 H345 H 0.90592 0.60133 0.32264
 H346 H 0.77565 0.67164 0.40272
 H347 H 0.83939 0.70151 0.22459
 H348 H 0.82701 0.61876 0.43881
 C349 C 0.34458 0.22452 0.28085
 C350 C 0.29514 0.21840 0.28004
 C351 C 0.27481 0.18907 0.31046
 C352 C 0.30283 0.16395 0.33805
 C353 C 0.35233 0.16778 0.33563
 C354 C 0.37280 0.19873 0.30752
 C355 C 0.38044 0.14055 0.36132
 C356 C 0.35956 0.11030 0.39012
 C357 C 0.31032 0.10829 0.39382
 C358 C 0.28213 0.13463 0.36770
 H359 H 0.23681 0.18533 0.31199
 H360 H 0.41071 0.20324 0.30635
 H361 H 0.41849 0.14263 0.35871
 H362 H 0.24415 0.13161 0.37026
 H363 H 0.36201 0.24936 0.26137
 H364 H 0.29358 0.08514 0.41578
 C365 C 0.24602 0.69761 -0.17675
 C366 C 0.27043 0.72767 -0.20396
 C367 C 0.31928 0.73408 -0.19711
 C368 C 0.34366 0.70664 -0.16835
 C369 C 0.31866 0.67409 -0.14458
 C370 C 0.26978 0.67087 -0.14797
 C371 C 0.34282 0.64500 -0.11780
 C372 C 0.39188 0.64809 -0.11376
 C373 C 0.41666 0.68137 -0.13628
 C374 C 0.39274 0.71038 -0.16351
 H375 H 0.33876 0.75958 -0.21410
 H376 H 0.24995 0.64683 -0.12917
 H377 H 0.32326 0.61998 -0.09993
 H378 H 0.41264 0.73526 -0.18117
 H379 H 0.20824 0.69306 -0.17969
 H380 H 0.45456 0.68455 -0.13326
 C381 C 1.15625 -0.22961 -0.21285
 C382 C 1.20545 -0.22171 -0.21284
 C383 C 1.22340 -0.18797 -0.18592
 C384 C 1.19349 -0.16122 -0.16206
 C385 C 1.14423 -0.16749 -0.16486
 C386 C 1.12603 -0.20221 -0.18987
 C387 C 1.11425 -0.13910 -0.14235
 C388 C 1.13329 -0.10553 -0.11617
 C389 C 1.18238 -0.10076 -0.11252
 C390 C 1.21223 -0.12803 -0.13560
 H391 H 1.26115 -0.18219 -0.18422
 H392 H 1.08838 -0.20841 -0.19141
 H393 H 1.07636 -0.14329 -0.14487
 H394 H 1.24999 -0.12305 -0.13287
 H395 H 1.14054 -0.25692 -0.23017
 H396 H 1.19777 -0.07511 -0.09256
 C397 C 1.26377 0.30918 0.30184
 C398 C 1.23655 0.27564 0.28162
 C399 C 1.18879 0.27083 0.29336
 C400 C 1.16812 0.30116 0.32146
 C401 C 1.19553 0.33635 0.33874
 C402 C 1.24343 0.33959 0.32923
 C403 C 1.17475 0.36742 0.36575
 C404 C 1.12721 0.36305 0.37655
 C405 C 1.10025 0.32761 0.36033
 C406 C 1.12045 0.29699 0.33269
 H407 H 1.16764 0.24355 0.28127
 H408 H 1.26522 0.36568 0.34293
 H409 H 1.19557 0.39455 0.37888
 H410 H 1.09887 0.27016 0.32012
 H411 H 1.30108 0.31264 0.29515
 H412 H 1.06340 0.32393 0.36883
 C413 C 0.76425 -0.18859 0.31368
 C414 C 0.73899 -0.22089 0.28974
 C415 C 0.69049 -0.22661 0.29998
 C416 C 0.66739 -0.19740 0.32756
 C417 C 0.69339 -0.16409 0.34896
 C418 C 0.74191 -0.16074 0.34258
 C419 C 0.67038 -0.13437 0.37602
 C420 C 0.62122 -0.13627 0.38030
 C421 C 0.59543 -0.16941 0.35884
 C422 C 0.61842 -0.20031 0.33333
 H423 H 0.66996 -0.25364 0.28667
 H424 H 0.76270 -0.13605 0.35953
 H425 H 0.69042 -0.10856 0.39221
 H426 H 0.59774 -0.22559 0.31709
 H427 H 0.80161 -0.18424 0.31120
 H428 H 0.55745 -0.17137 0.36183
 C429 C 0.74449 0.31437 -0.19312
 C430 C 0.71534 0.28492 -0.21686
 C431 C 0.66744 0.28140 -0.20521
 C432 C 0.64836 0.31042 -0.17491
 C433 C 0.67772 0.34191 -0.15413
 C434 C 0.72593 0.34276 -0.16270
 C435 C 0.65848 0.37186 -0.12488
 C436 C 0.61017 0.37041 -0.11578
 C437 C 0.58129 0.33862 -0.13618
 C438 C 0.60017 0.30892 -0.16546
 H439 H 0.64462 0.25662 -0.21951
 H440 H 0.74925 0.36594 -0.14644
 H441 H 0.68112 0.39584 -0.10890
 H442 H 0.57701 0.28502 -0.18090
 H443 H 0.78187 0.31680 -0.19975
 H444 H 0.54388 0.33670 -0.12955
 C445 C 1.26195 0.20474 -0.18146
 C446 C 1.24130 0.22317 -0.21869
 C447 C 1.19297 0.21281 -0.22589
 C448 C 1.16614 0.18873 -0.19549
 C449 C 1.18764 0.17339 -0.15761
 C450 C 1.23557 0.18122 -0.15123
 C451 C 1.16136 0.14905 -0.12732
 C452 C 1.11371 0.13882 -0.13472
 C453 C 1.09235 0.15423 -0.17250
 C454 C 1.11825 0.17910 -0.20251
 H455 H 1.17604 0.22218 -0.25548
 H456 H 1.25306 0.16850 -0.12299
 H457 H 1.17844 0.13689 -0.09864
 H458 H 1.10092 0.19038 -0.23138
 H459 H 1.29892 0.20752 -0.17491
 H460 H 1.05565 0.14667 -0.17905
 C461 C 1.17568 0.75234 0.29914
 C462 C 1.20879 0.72995 0.27313
 C463 C 1.21941 0.68581 0.28522
 C464 C 1.19417 0.66378 0.31787
 C465 C 1.15960 0.68643 0.34136
 C466 C 1.15125 0.73089 0.33213
 C467 C 1.13338 0.66402 0.37317
 C468 C 1.14018 0.61871 0.38054
 C469 C 1.17515 0.59661 0.35751
 C470 C 1.20244 0.61908 0.32697
 H471 H 1.24753 0.66824 0.26965
 H472 H 1.12553 0.74915 0.35029
 H473 H 1.10600 0.68113 0.39040
 H474 H 1.22886 0.60106 0.30942
 H475 H 1.16833 0.78697 0.29373
 H476 H 1.18077 0.56158 0.36263
 C477 C 0.67559 0.24494 0.30382
 C478 C 0.71100 0.22331 0.28030
 C479 C 0.71558 0.17715 0.28589
 C480 C 0.68504 0.15346 0.31319
 C481 C 0.64885 0.17576 0.33508
 C482 C 0.64430 0.22143 0.32994
 C483 C 0.61885 0.15223 0.36293
 C484 C 0.62562 0.10705 0.37003
 C485 C 0.66169 0.08502 0.34861
 C486 C 0.69100 0.10797 0.32005
 H487 H 0.74412 0.15968 0.27090
 H488 H 0.61737 0.23921 0.34706
 H489 H 0.59113 0.16915 0.37991
 H490 H 0.71868 0.09031 0.30382
 H491 H 0.67242 0.28060 0.30203
 H492 H 0.66708 0.05000 0.35404
 C493 C 0.68362 0.73530 -0.21058
 C494 C 0.72727 0.71743 -0.22351
 C495 C 0.74300 0.67933 -0.20164
 C496 C 0.71339 0.65691 -0.17218
 C497 C 0.66882 0.67436 -0.16221
 C498 C 0.65472 0.71385 -0.18104
 C499 C 0.63906 0.65249 -0.13306
 C500 C 0.65277 0.61284 -0.11368
 C501 C 0.69704 0.59530 -0.12372
 C502 C 0.72724 0.61730 -0.15254
 H503 H 0.77789 0.66687 -0.20788
 H504 H 0.62123 0.72836 -0.17285
 H505 H 0.60507 0.66639 -0.12555
 H506 H 0.76121 0.60321 -0.15963
 H507 H 0.67131 0.76647 -0.22316
 H508 H 0.70852 0.56479 -0.10900
 C509 C 0.83973 -0.23908 -0.22082
 C510 C 0.79196 -0.22799 -0.22739
 C511 C 0.77396 -0.19234 -0.20364
 C512 C 0.80330 -0.16674 -0.17695
 C513 C 0.85176 -0.17630 -0.17381
 C514 C 0.86943 -0.21285 -0.19550
 C515 C 0.88149 -0.14968 -0.14834
 C516 C 0.86280 -0.11484 -0.12453
 C517 C 0.81433 -0.10650 -0.12664
 C518 C 0.78490 -0.13182 -0.15309
 H519 H 0.73702 -0.18430 -0.20616
 H520 H 0.90613 -0.22167 -0.19233
 H521 H 0.91880 -0.15656 -0.14626
 H522 H 0.74777 -0.12419 -0.15475
 H523 H 0.85469 -0.26819 -0.23518
 H524 H 0.79936 -0.07967 -0.10847
 C525 C 0.80204 0.24880 0.32023
 C526 C 0.77522 0.27517 0.29198
 C527 C 0.77337 0.32104 0.30011
 C528 C 0.80277 0.34054 0.33105
 C529 C 0.83198 0.31375 0.35672
 C530 C 0.83013 0.26780 0.35200
 C531 C 0.86400 0.33345 0.38534
 C532 C 0.86853 0.37965 0.38707
 C533 C 0.83823 0.40606 0.36267
 C534 C 0.80503 0.38666 0.33538
 H535 H 0.75007 0.34210 0.28213
 H536 H 0.85165 0.24663 0.37182
 H537 H 0.88757 0.31299 0.40393
 H538 H 0.78278 0.40777 0.31616
 H539 H 0.80268 0.21320 0.31643
 H540 H 0.84114 0.44185 0.36386
 C541 C 0.31038 -0.24370 0.28387
 C542 C 0.27103 -0.22069 0.26707
 C543 C 0.26277 -0.17781 0.28371
 C544 C 0.29381 -0.15827 0.31354
 C545 C 0.33448 -0.18104 0.32678
 C546 C 0.34232 -0.22368 0.31177
 C547 C 0.36595 -0.16138 0.35595
 C548 C 0.35610 -0.12007 0.37356
 C549 C 0.31502 -0.09800 0.36146
 C550 C 0.28435 -0.11669 0.33122
 H551 H 0.23132 -0.16010 0.27489
 H552 H 0.37247 -0.24222 0.32267
 H553 H 0.39754 -0.17852 0.36565
 H554 H 0.25315 -0.09879 0.32191
 H555 H 0.31663 -0.27780 0.27528
 H556 H 0.30723 -0.06586 0.37478
 C557 C 0.34673 0.26836 -0.20628
 C558 C 0.30396 0.28340 -0.22459
 C559 C 0.29103 0.32752 -0.21487
 C560 C 0.31817 0.35391 -0.18680
 C561 C 0.35984 0.33700 -0.16905
 C562 C 0.37424 0.29466 -0.17963
 C563 C 0.38592 0.36197 -0.13972
 C564 C 0.37044 0.40358 -0.12651
 C565 C 0.32953 0.42111 -0.14485
 C566 C 0.30372 0.39655 -0.17508
 H567 H 0.25993 0.34214 -0.22782
 H568 H 0.40623 0.28118 -0.16620
 H569 H 0.41758 0.34810 -0.12600
 H570 H 0.27185 0.41036 -0.18835
 H571 H 0.35916 0.23516 -0.21168
 H572 H 0.31704 0.45328 -0.13520
 C573 C 1.15734 -0.22670 0.20677
 C574 C 1.20553 -0.21577 0.21427
 C575 C 1.22442 -0.17916 0.19088
 C576 C 1.19551 -0.15239 0.16503
 C577 C 1.14677 -0.16185 0.16197
 C578 C 1.12831 -0.19944 0.18245
 C579 C 1.11744 -0.13416 0.13767
 C580 C 1.13653 -0.09803 0.11480
 C581 C 1.18534 -0.08985 0.11659
 C582 C 1.21448 -0.11638 0.14192
 H583 H 1.26172 -0.17137 0.19290
 H584 H 1.09137 -0.20830 0.17905
 H585 H 1.07992 -0.14115 0.13590
 H586 H 1.25185 -0.10873 0.14339
 H587 H 1.14143 -0.25653 0.21993
 H588 H 1.20082 -0.06220 0.09917
 C589 C 1.25066 0.27203 0.66973
 C590 C 1.24185 0.27542 0.71448
 C591 C 1.20341 0.30191 0.72673
 C592 C 1.17724 0.32574 0.69636
 C593 C 1.18729 0.32150 0.65234
 C594 C 1.22370 0.29424 0.63949
 C595 C 1.16116 0.34497 0.62181
 C596 C 1.12623 0.37415 0.63493
 C597 C 1.11674 0.37878 0.67885
 C598 C 1.14153 0.35430 0.70927
 H599 H 1.19392 0.30421 0.76023
 H600 H 1.23190 0.29048 0.60583
 H601 H 1.16887 0.34152 0.58801
 H602 H 1.13328 0.35824 0.74288
 H603 H 1.27824 0.25208 0.65665
 H604 H 1.08967 0.40103 0.68965
 C605 C 0.68917 -0.25180 0.69328
 C606 C 0.72725 -0.22966 0.71363
 C607 C 0.73731 -0.18541 0.70168
 C608 C 0.70808 -0.16324 0.67266
 C609 C 0.66796 -0.18522 0.65558
 C610 C 0.65919 -0.22959 0.66567
 C611 C 0.63748 -0.16260 0.62827
 C612 C 0.64762 -0.11887 0.61649
 C613 C 0.68838 -0.09755 0.63189
 C614 C 0.71826 -0.11946 0.66023
 H615 H 0.76819 -0.16837 0.71405
 H616 H 0.62936 -0.24727 0.65193
 H617 H 0.60606 -0.17897 0.61592
 H618 H 0.74906 -0.10215 0.67258
 H619 H 0.68199 -0.28651 0.69970
 H620 H 0.69629 -0.06356 0.62293
 C621 C 0.74986 0.31817 0.20360
 C622 C 0.72315 0.28447 0.22413
 C623 C 0.67558 0.27881 0.21146
 C624 C 0.65415 0.30874 0.18351
 C625 C 0.68071 0.34413 0.16580
 C626 C 0.72877 0.34812 0.17551
 C627 C 0.65891 0.37431 0.13805
 C628 C 0.61095 0.36911 0.12753
 C629 C 0.58502 0.33357 0.14519
 C630 C 0.60640 0.30367 0.17293
 H631 H 0.65477 0.25087 0.22276
 H632 H 0.75010 0.37436 0.16135
 H633 H 0.67938 0.40135 0.12422
 H634 H 0.58554 0.27659 0.18617
 H635 H 0.78716 0.32186 0.21016
 H636 H 0.54811 0.32879 0.13747
 C637 C 0.83024 0.23108 0.22732
 C638 C 0.78069 0.22481 0.22662
 C639 C 0.76158 0.19622 0.19514
 C640 C 0.79099 0.17235 0.16765
 C641 C 0.84040 0.17688 0.17138
 C642 C 0.85956 0.20666 0.20093
 C643 C 0.86996 0.15192 0.14518
 C644 C 0.85082 0.12317 0.11440
 C645 C 0.80165 0.11993 0.10974
 C646 C 0.77194 0.14403 0.13641
 H647 H 0.72368 0.19252 0.19228
 H648 H 0.89736 0.21164 0.20322
 H649 H 0.90788 0.15500 0.14860
 H650 H 0.73413 0.14034 0.13276
 H651 H 0.84708 0.25532 0.24778
 H652 H 0.78615 0.09786 0.08621
 C653 C 0.82001 0.73880 0.68540
 C654 C 0.78749 0.71573 0.71199
 C655 C 0.77937 0.67026 0.70382
 C656 C 0.80611 0.64810 0.67281
 C657 C 0.83917 0.67205 0.64763
 C658 C 0.84535 0.71741 0.65384
 C659 C 0.86653 0.65015 0.61728
 C660 C 0.86306 0.60413 0.61312
 C661 C 0.83010 0.58029 0.63794
 C662 C 0.80113 0.60222 0.66698
 H663 H 0.75221 0.65197 0.72078
 H664 H 0.87028 0.73636 0.63464
 H665 H 0.89251 0.66858 0.59871
 H666 H 0.77612 0.58312 0.68593
 H667 H 0.82594 0.77406 0.68923
 H668 H 0.82727 0.54460 0.63527
 C669 C 0.34736 0.23300 0.70602
 C670 C 0.30421 0.21782 0.72413
 C671 C 0.28756 0.17524 0.71230
 C672 C 0.31396 0.14840 0.68502
 C673 C 0.35852 0.16334 0.67029
 C674 C 0.37489 0.20558 0.68105
 C675 C 0.38522 0.13652 0.64352
 C676 C 0.36684 0.09601 0.62937
 C677 C 0.32201 0.08168 0.64274
 C678 C 0.29599 0.10740 0.67104
 H679 H 0.25317 0.16360 0.72262
 H680 H 0.40813 0.21818 0.66865
 H681 H 0.41967 0.14768 0.63258
 H682 H 0.26168 0.09554 0.68152
 H683 H 0.35954 0.26681 0.71032
 H684 H 0.30765 0.05021 0.63197
 C685 C 0.23681 0.68944 0.19001
 C686 C 0.25969 0.72697 0.20811
 C687 C 0.30463 0.73864 0.19096
 C688 C 0.32924 0.70971 0.16437
 C689 C 0.30761 0.66988 0.15079
 C690 C 0.26076 0.66086 0.16255
 C691 C 0.33324 0.63999 0.12567
 C692 C 0.38041 0.64946 0.11428
 C693 C 0.40113 0.68964 0.12751
 C694 C 0.37575 0.71957 0.15210
 H695 H 0.32175 0.76957 0.19978
 H696 H 0.24284 0.63125 0.15115
 H697 H 0.31660 0.60933 0.11530
 H698 H 0.39283 0.75012 0.16219
 H699 H 0.20080 0.68110 0.19857
 H700 H 0.43714 0.69797 0.11893
   
