data_POSCAR
  _audit_creation_date              2014-09-24
  _audit_creation_method            'ToBaCCo'
  _symmetry_space_group_name_H-M    'P1'
  _symmetry_Int_Tables_number       1
  _symmetry_cell_setting            triclinic
  loop_
  _symmetry_equiv_pos_as_xyz
 x,y,z
_cell_length_a 26.5660
_cell_length_b 26.6668
_cell_length_c 42.7808
_cell_angle_alpha 84.865100
_cell_angle_beta 92.790700
_cell_angle_gamma 93.130400
loop_
  _atom_site_label
  _atom_site_type_symbol
  _atom_site_fract_x
  _atom_site_fract_y
  _atom_site_fract_z
C1 C -0.00601 0.39387 1.02981
 C2 C -0.00971 0.37209 1.00098
 C3 C -0.01066 0.40149 0.97222
 C4 C -0.00671 0.45466 0.97182
 C5 C -0.00690 0.47764 1.00041
 C6 C -0.00795 0.44728 1.02942
 C7 C -0.01371 0.47101 1.05701
 C8 C -0.01550 0.52304 1.05642
 C9 C -0.01367 0.55401 1.02804
 C10 C -0.00678 0.53117 0.99994
 C11 C -0.00279 0.48541 0.94355
 C12 C 0.00037 0.53763 0.94328
 C13 C -0.00014 0.56155 0.97130
 C14 C 0.00286 0.61498 0.97122
 C15 C -0.00665 0.63658 0.99897
 C16 C -0.01641 0.60727 1.02717
 H17 H -0.01829 0.44963 1.07945
 H18 H -0.01744 0.53859 1.07877
 H19 H -0.00157 0.46946 0.92124
 H20 H 0.00163 0.55899 0.92061
 H21 H -0.00983 0.33148 1.00064
 H22 H -0.00652 0.67729 0.99860
 C23 C 0.39742 0.01269 0.52605
 C24 C 0.36955 0.00113 0.49879
 C25 C 0.39300 -0.01319 0.47262
 C26 C 0.44630 -0.01360 0.47300
 C27 C 0.47508 -0.00339 0.50073
 C28 C 0.45042 0.00834 0.52761
 C29 C 0.47914 0.01342 0.55566
 C30 C 0.53130 0.01055 0.55675
 C31 C 0.55739 0.00423 0.52958
 C32 C 0.52858 -0.00545 0.50168
 C33 C 0.47160 -0.02321 0.44625
 C34 C 0.52383 -0.02521 0.44714
 C35 C 0.55295 -0.01786 0.47485
 C36 C 0.60584 -0.02199 0.47629
 C37 C 0.63390 -0.01106 0.50357
 C38 C 0.61111 0.00367 0.53008
 H39 H 0.46145 0.01846 0.57734
 H40 H 0.55071 0.01223 0.57945
 H41 H 0.45127 -0.02880 0.42420
 H42 H 0.54113 -0.03228 0.42570
 H43 H 0.32881 0.00287 0.49802
 H44 H 0.67462 -0.01218 0.50343
 C45 C 0.07734 -0.00396 0.27589
 H46 H 0.07281 0.03005 0.26062
 C47 C 0.12128 -0.00869 0.29499
 H48 H 0.14982 0.02193 0.29426
 C49 C 0.04719 -0.08578 0.29463
 H50 H 0.01878 -0.11617 0.29408
 C51 C 0.09066 -0.09222 0.31393
 H52 H 0.09445 -0.12712 0.32866
 N53 N 0.04077 -0.04184 0.27646
 C54 C -0.07491 -0.09945 0.21281
 H55 H -0.10675 -0.07939 0.21906
 C56 C -0.08237 -0.13841 0.19310
 H57 H -0.12012 -0.14798 0.18405
 C58 C 0.01316 -0.11070 0.21668
 H59 H 0.05028 -0.09958 0.22596
 C60 C 0.00747 -0.14964 0.19682
 H61 H 0.04036 -0.16877 0.19121
 Zn62 Zn -0.02025 -0.03443 0.25141
 N63 N -0.02780 -0.08670 0.22431
 C64 C -0.01898 0.02947 0.19508
 N65 N -0.01768 0.02877 0.22695
 C66 C -0.01241 0.07230 0.24140
 C67 C -0.00731 0.11876 0.22372
 C68 C -0.01402 0.07510 0.17650
 C69 C -0.08755 -0.08601 0.29313
 C70 C -0.12813 -0.09292 0.31283
 C71 C -0.14693 -0.00584 0.29970
 C72 C -0.10594 -0.00059 0.28018
 N73 N -0.07656 -0.04019 0.27766
 H74 H -0.02279 -0.00545 0.18398
 H75 H -0.01113 0.07083 0.26678
 H76 H -0.00303 0.15293 0.23570
 H77 H -0.01373 0.07466 0.15123
 H78 H -0.06534 -0.11763 0.28982
 H79 H -0.13540 -0.12952 0.32534
 H80 H -0.16991 0.02607 0.30130
 H81 H -0.09805 0.03509 0.26697
 C82 C -0.04085 -0.16408 0.18492
 C83 C 0.12817 -0.05314 0.31452
 C84 C -0.15831 -0.05245 0.31648
 C85 C -0.00757 0.12053 0.19081
 C86 C 0.00714 0.14099 0.75992
 H87 H -0.00138 0.14439 0.73487
 C88 C -0.00034 0.18146 0.77744
 H89 H -0.01312 0.21628 0.76548
 C90 C 0.03177 0.09071 0.80601
 H91 H 0.04301 0.05493 0.81722
 C92 C 0.02475 0.13024 0.82444
 H93 H 0.03063 0.12420 0.84969
 N94 N 0.02276 0.09663 0.77434
 C95 C 0.10579 0.00684 0.71848
 H96 H 0.09369 -0.02960 0.72946
 C97 C 0.14637 0.01057 0.69873
 H98 H 0.16591 -0.02303 0.69547
 C99 C 0.09460 0.09448 0.70911
 H100 H 0.07405 0.12702 0.71290
 C101 C 0.13482 0.09987 0.68902
 H102 H 0.14435 0.13666 0.67739
 Zn103 Zn 0.02483 0.04110 0.74970
 N104 N 0.08104 0.04853 0.72353
 C105 C -0.03318 0.03212 0.69318
 N106 N -0.03518 0.03923 0.72416
 C107 C -0.07944 0.04752 0.73706
 C108 C -0.12404 0.04973 0.71844
 C109 C -0.07697 0.03356 0.67376
 C110 C 0.07350 -0.02881 0.79235
 C111 C 0.07886 -0.07360 0.81146
 C112 C -0.00798 -0.09787 0.79814
 C113 C -0.01139 -0.05305 0.77875
 N114 N 0.02902 -0.01954 0.77629
 H115 H 0.00248 0.02582 0.68342
 H116 H -0.07988 0.05320 0.76177
 H117 H -0.15894 0.05660 0.72903
 H118 H -0.07460 0.02868 0.64903
 H119 H 0.10503 -0.00151 0.79000
 H120 H 0.11454 -0.08062 0.82398
 H121 H -0.04037 -0.12430 0.79990
 H122 H -0.04632 -0.04512 0.76572
 C123 C 0.16137 0.05755 0.68361
 C124 C 0.00781 0.17616 0.81022
 C125 C 0.03771 -0.10862 0.81454
 C126 C -0.12305 0.04297 0.68631
 C127 C -0.01702 -0.29849 0.08629
 C128 C -0.05801 -0.31659 0.10303
 C129 C -0.08669 -0.35963 0.09598
 C130 C -0.07233 -0.38516 0.07077
 C131 C -0.02962 -0.36772 0.05322
 C132 C -0.00228 -0.32299 0.06106
 O133 O 0.00528 -0.25713 0.09677
 C134 C -0.02232 -0.24884 0.12063
 C135 C -0.06164 -0.28400 0.12541
 C136 C -0.09549 -0.28210 0.14903
 C137 C -0.08845 -0.24234 0.16849
 C138 C -0.04796 -0.20572 0.16413
 C139 C -0.01444 -0.20927 0.13979
 H140 H -0.11918 -0.37288 0.10927
 H141 H -0.09531 -0.41782 0.06441
 H142 H 0.03051 -0.30834 0.04846
 H143 H -0.12617 -0.31019 0.15236
 H144 H -0.11412 -0.24044 0.18720
 H145 H 0.01645 -0.18166 0.13561
 C146 C -0.01625 0.28332 0.08944
 C147 C 0.01894 0.29785 0.11191
 C148 C 0.04714 0.34327 0.10867
 C149 C 0.03847 0.37520 0.08125
 C150 C 0.00143 0.36186 0.05779
 C151 C -0.02555 0.31442 0.06203
 O152 O -0.03854 0.23836 0.09683
 C153 C -0.01687 0.22415 0.12458
 C154 C 0.01854 0.25920 0.13489
 C155 C 0.04601 0.25175 0.16328
 C156 C 0.03674 0.20621 0.18171
 C157 C 0.00052 0.16921 0.17154
 C158 C -0.02672 0.17869 0.14250
 H159 H 0.07531 0.35352 0.12644
 H160 H 0.06168 0.40977 0.07796
 H161 H -0.05408 0.30247 0.04493
 H162 H 0.07388 0.27978 0.17085
 H163 H 0.05855 0.19937 0.20357
 H164 H -0.05486 0.15158 0.13411
 C165 C 0.30209 0.01950 0.58806
 C166 C 0.31630 0.06537 0.59901
 C167 C 0.35666 0.09562 0.58733
 C168 C 0.38342 0.07779 0.56341
 C169 C 0.36987 0.03026 0.55206
 C170 C 0.32838 0.00092 0.56451
 O171 O 0.26211 -0.00291 0.60181
 C172 C 0.25086 0.02944 0.62193
 C173 C 0.28284 0.07180 0.62120
 C174 C 0.27757 0.11059 0.64028
 C175 C 0.23769 0.10550 0.66091
 C176 C 0.20387 0.06224 0.66199
 C177 C 0.21089 0.02371 0.64209
 H178 H 0.36686 0.13182 0.59607
 H179 H 0.41447 0.10098 0.55354
 H180 H 0.31689 -0.03520 0.55601
 H181 H 0.30330 0.14354 0.63938
 H182 H 0.23354 0.13504 0.67624
 H183 H 0.18551 -0.00942 0.64183
 C184 C -0.28205 0.00922 0.58973
 C185 C -0.29303 0.05105 0.60416
 C186 C -0.33468 0.07910 0.59514
 C187 C -0.36653 0.06313 0.57039
 C188 C -0.35709 0.01904 0.55550
 C189 C -0.31330 -0.00755 0.56528
 O190 O -0.24020 -0.01167 0.60142
 C191 C -0.22437 0.01764 0.62376
 C192 C -0.25541 0.05649 0.62650
 C193 C -0.24585 0.09158 0.64850
 C194 C -0.20244 0.08646 0.66839
 C195 C -0.16953 0.04695 0.66581
 C196 C -0.18092 0.01205 0.64311
 H197 H -0.34202 0.11253 0.60643
 H198 H -0.39780 0.08603 0.56230
 H199 H -0.30435 -0.04128 0.55480
 H200 H -0.27078 0.12189 0.65022
 H201 H -0.19395 0.11380 0.68540
 H202 H -0.15682 -0.01872 0.64070
 C203 C 0.00530 -0.27550 0.91084
 C204 C 0.04697 -0.28490 0.89489
 C205 C 0.07490 -0.32723 0.90250
 C206 C 0.05925 -0.36119 0.92760
 C207 C 0.01634 -0.35236 0.94467
 C208 C -0.01051 -0.30827 0.93607
 O209 O -0.01604 -0.23320 0.89998
 C210 C 0.01297 -0.21530 0.87675
 C211 C 0.05230 -0.24529 0.87277
 C212 C 0.08814 -0.23269 0.85034
 C213 C 0.08317 -0.18735 0.83128
 C214 C 0.04251 -0.15620 0.83473
 C215 C 0.00685 -0.17059 0.85775
 H216 H 0.10787 -0.33365 0.88980
 H217 H 0.08166 -0.39343 0.93444
 H218 H -0.04349 -0.30009 0.94828
 H219 H 0.11899 -0.25667 0.84776
 H220 H 0.11059 -0.17667 0.81366
 H221 H -0.02415 -0.14718 0.86113
 C222 C 0.00930 0.31368 0.90982
 C223 C -0.03203 0.32294 0.88990
 C224 C -0.06728 0.35754 0.89532
 C225 C -0.05960 0.38362 0.92237
 C226 C -0.01698 0.37509 0.94309
 C227 C 0.01780 0.33940 0.93674
 O228 O 0.03744 0.27837 0.90086
 C229 C 0.01334 0.26500 0.87474
 C230 C -0.02932 0.29120 0.86697
 C231 C -0.06067 0.28250 0.84085
 C232 C -0.04767 0.24509 0.82204
 C233 C -0.00395 0.21719 0.82960
 C234 C 0.02702 0.22769 0.85637
 H235 H -0.09982 0.36378 0.87950
 H236 H -0.08690 0.41018 0.92742
 H237 H 0.05022 0.33171 0.95243
 H238 H -0.09429 0.30331 0.83535
 H239 H -0.07240 0.23703 0.80206
 H240 H 0.06070 0.20736 0.86279
 C241 C -0.30120 -0.02206 0.41231
 C242 C -0.31236 -0.06889 0.40187
 C243 C -0.34989 -0.10197 0.41454
 C244 C -0.37698 -0.08607 0.43894
 C245 C -0.36649 -0.03771 0.44981
 C246 C -0.32784 -0.00543 0.43636
 O247 O -0.26334 0.00305 0.39776
 C248 C -0.25030 -0.02856 0.37765
 C249 C -0.27913 -0.07308 0.37918
 C250 C -0.27126 -0.11176 0.36051
 C251 C -0.23187 -0.10437 0.33958
 C252 C -0.20116 -0.05893 0.33777
 C253 C -0.21100 -0.02041 0.35706
 H254 H -0.35764 -0.13886 0.40619
 H255 H -0.40590 -0.11134 0.44954
 H256 H -0.31870 0.03139 0.44455
 H257 H -0.29444 -0.14648 0.36209
 H258 H -0.22546 -0.13398 0.32473
 H259 H -0.18793 0.01436 0.35668
 C260 C 0.29176 -0.01595 0.40758
 C261 C 0.29481 -0.06431 0.39924
 C262 C 0.32968 -0.09727 0.41337
 C263 C 0.36258 -0.07968 0.43713
 C264 C 0.36026 -0.02989 0.44604
 C265 C 0.32420 0.00234 0.43104
 O266 O 0.25495 0.00871 0.39202
 C267 C 0.23427 -0.02479 0.37346
 C268 C 0.25719 -0.07009 0.37696
 C269 C 0.24051 -0.11091 0.36045
 C270 C 0.19834 -0.10484 0.33961
 C271 C 0.17383 -0.05851 0.33568
 C272 C 0.19251 -0.01787 0.35280
 H273 H 0.33098 -0.13536 0.40670
 H274 H 0.38936 -0.10493 0.44898
 H275 H 0.32114 0.04020 0.43778
 H276 H 0.25902 -0.14628 0.36368
 H277 H 0.18487 -0.13615 0.32648
 H278 H 0.17421 0.01765 0.35080
   
