data_POSCAR
  _audit_creation_date              2014-09-24
  _audit_creation_method            'ToBaCCo'
  _symmetry_space_group_name_H-M    'P1'
  _symmetry_Int_Tables_number       1
  _symmetry_cell_setting            triclinic
  loop_
  _symmetry_equiv_pos_as_xyz
 x,y,z
_cell_length_a 29.8785
_cell_length_b 30.7649
_cell_length_c 37.9517
_cell_angle_alpha 89.980700
_cell_angle_beta 90.150500
_cell_angle_gamma 90.010300
loop_
  _atom_site_label
  _atom_site_type_symbol
  _atom_site_fract_x
  _atom_site_fract_y
  _atom_site_fract_z
Zr1 Zr 0.24357 0.25140 0.30878
 O2 O 0.27830 0.28664 0.34823
 O3 O 0.19934 0.21368 0.33889
 O4 O 0.20047 0.29401 0.33588
 O5 O 0.32494 0.17217 0.29886
 O6 O 0.16535 0.33254 0.29236
 O7 O 0.28527 0.21086 0.33959
 O8 O 0.15757 0.17845 0.29728
 O9 O 0.18518 0.25391 0.27818
 O10 O 0.24179 0.19351 0.28000
 O11 O 0.24956 0.30769 0.27759
 O12 O 0.30405 0.24975 0.28013
 Zr13 Zr 0.24863 0.24958 0.18590
 Zr14 Zr 0.19266 0.30809 0.24516
 Zr15 Zr 0.29972 0.19302 0.24956
 Zr16 Zr 0.18508 0.19710 0.24828
 O17 O 0.37051 0.19503 0.24929
 O18 O 0.11573 0.21152 0.24642
 O19 O 0.24282 0.19274 0.21682
 O20 O 0.18875 0.25126 0.21489
 O21 O 0.25061 0.30788 0.21430
 O22 O 0.30658 0.24719 0.21693
 C23 C 0.16792 0.18769 0.32935
 C24 C 0.31507 0.18267 0.33077
 C25 C 0.17277 0.32304 0.32488
 O26 O 0.12210 0.30593 0.24074
 O27 O 0.17366 0.33469 0.19597
 O28 O 0.21125 0.29422 0.15518
 C29 C 0.18427 0.32501 0.16405
 O30 O 0.33744 0.32778 0.29335
 Zr31 Zr 0.30715 0.30400 0.24643
 O32 O 0.29273 0.28710 0.15575
 O33 O 0.20189 0.37624 0.24715
 O34 O 0.29975 0.37255 0.24609
 O35 O 0.37713 0.29258 0.24507
 O36 O 0.33043 0.32668 0.19721
 C37 C 0.32118 0.31610 0.16521
 O38 O 0.21124 0.21687 0.14656
 O39 O 0.29043 0.12491 0.25224
 O40 O 0.28839 0.20391 0.15866
 O41 O 0.32176 0.16407 0.20231
 O42 O 0.18953 0.12843 0.25173
 O43 O 0.15969 0.16802 0.20153
 C44 C 0.31415 0.17320 0.16975
 H45 H 0.24076 0.16728 0.29509
 H46 H 0.16241 0.25175 0.19901
 H47 H 0.33434 0.24498 0.20287
 H48 H 0.25105 0.33409 0.29246
 H49 H 0.09938 0.18474 0.25308
 H50 H 0.11152 0.33646 0.24106
 H51 H 0.17181 0.38956 0.24502
 H52 H 0.32916 0.38521 0.23980
 H53 H 0.15921 0.11728 0.25724
 H54 H 0.32064 0.11180 0.25405
 H55 H 0.38100 0.16447 0.24948
 H56 H 0.39179 0.32041 0.23879
 H57 H 0.13282 0.15057 0.20724
 H58 H 0.22346 0.22601 0.12343
 H59 H 0.26628 0.27719 0.37135
 H60 H 0.35898 0.35111 0.28740
 Zr61 Zr 0.75207 0.74830 0.31200
 O62 O 0.71766 0.71238 0.35108
 O63 O 0.79639 0.78567 0.34246
 O64 O 0.79576 0.70570 0.33871
 O65 O 0.67047 0.82739 0.30270
 O66 O 0.83099 0.66823 0.29481
 O67 O 0.71074 0.78855 0.34316
 O68 O 0.83761 0.82176 0.30114
 O69 O 0.81028 0.74675 0.28141
 O70 O 0.75325 0.80659 0.28372
 O71 O 0.74636 0.69241 0.28033
 O72 O 0.69139 0.74982 0.28335
 Zr73 Zr 0.74634 0.75183 0.18927
 Zr74 Zr 0.80308 0.69301 0.24795
 Zr75 Zr 0.69512 0.80701 0.25329
 Zr76 Zr 0.80977 0.80396 0.25201
 O77 O 0.62435 0.80427 0.25314
 O78 O 0.87925 0.79022 0.24983
 O79 O 0.75181 0.80829 0.22061
 O80 O 0.80640 0.75027 0.21821
 O81 O 0.74500 0.69308 0.21705
 O82 O 0.68849 0.75326 0.22017
 C83 C 0.82763 0.81189 0.33310
 C84 C 0.68090 0.81685 0.33451
 C85 C 0.82377 0.67722 0.32737
 O86 O 0.87362 0.69569 0.24371
 O87 O 0.82234 0.66762 0.19861
 O88 O 0.78422 0.70846 0.15820
 C89 C 0.81163 0.67796 0.16683
 O90 O 0.65861 0.67142 0.29579
 Zr91 Zr 0.68857 0.69602 0.24913
 O92 O 0.70270 0.71421 0.15862
 O93 O 0.79437 0.62477 0.24924
 O94 O 0.69652 0.62753 0.24839
 O95 O 0.61849 0.70687 0.24759
 O96 O 0.66553 0.67363 0.19959
 C97 C 0.67467 0.68468 0.16769
 O98 O 0.78308 0.78558 0.15024
 O99 O 0.70366 0.87518 0.25639
 O100 O 0.70619 0.79740 0.16244
 O101 O 0.67265 0.83641 0.20631
 O102 O 0.80483 0.87253 0.25630
 O103 O 0.83437 0.83407 0.20551
 C104 C 0.68033 0.82774 0.17373
 H105 H 0.75428 0.83264 0.29900
 H106 H 0.83267 0.75029 0.20237
 H107 H 0.66067 0.75540 0.20606
 H108 H 0.74522 0.66579 0.29498
 H109 H 0.89540 0.81706 0.25671
 H110 H 0.88444 0.66525 0.24368
 H111 H 0.82454 0.61171 0.24699
 H112 H 0.66720 0.61472 0.24190
 H113 H 0.83511 0.88377 0.26190
 H114 H 0.67333 0.88799 0.25824
 H115 H 0.61356 0.83472 0.25349
 H116 H 0.60409 0.67901 0.24098
 H117 H 0.86111 0.85169 0.21134
 H118 H 0.77089 0.77666 0.12700
 H119 H 0.72982 0.72151 0.37428
 H120 H 0.63711 0.64813 0.28960
 Zr121 Zr 0.75707 0.25130 -0.30849
 O122 O 0.72232 0.28621 -0.34813
 O123 O 0.80130 0.21337 -0.33843
 O124 O 0.80012 0.29377 -0.33582
 O125 O 0.67571 0.17209 -0.29801
 O126 O 0.83523 0.33265 -0.29252
 O127 O 0.71520 0.21053 -0.33902
 O128 O 0.84323 0.17860 -0.29665
 O129 O 0.81549 0.25418 -0.27793
 O130 O 0.75901 0.19363 -0.27940
 O131 O 0.75104 0.30781 -0.27758
 O132 O 0.69666 0.24978 -0.27974
 Zr133 Zr 0.75227 0.25046 -0.18554
 Zr134 Zr 0.80798 0.30859 -0.24518
 Zr135 Zr 0.70116 0.19329 -0.24888
 Zr136 Zr 0.81577 0.19759 -0.24773
 O137 O 0.63036 0.19513 -0.24846
 O138 O 0.88510 0.21219 -0.24605
 O139 O 0.75810 0.19340 -0.21618
 O140 O 0.81208 0.25200 -0.21461
 O141 O 0.75010 0.30853 -0.21426
 O142 O 0.69428 0.24768 -0.21652
 C143 C 0.83280 0.18754 -0.32877
 C144 C 0.68540 0.18240 -0.33000
 C145 C 0.82781 0.32290 -0.32496
 O146 O 0.87855 0.30658 -0.24076
 O147 O 0.82700 0.33577 -0.19622
 O148 O 0.78957 0.29559 -0.15513
 C149 C 0.81644 0.32641 -0.16422
 O150 O 0.66316 0.32779 -0.29332
 Zr151 Zr 0.69352 0.30426 -0.24632
 O152 O 0.70802 0.28797 -0.15556
 O153 O 0.79862 0.37670 -0.24765
 O154 O 0.70085 0.37282 -0.24624
 O155 O 0.62357 0.29266 -0.24495
 O156 O 0.67011 0.32710 -0.19719
 C157 C 0.67939 0.31673 -0.16515
 O158 O 0.78984 0.21822 -0.14603
 O159 O 0.71060 0.12519 -0.25124
 O160 O 0.71268 0.20484 -0.15803
 O161 O 0.67932 0.16464 -0.20146
 O162 O 0.81141 0.12889 -0.25077
 O163 O 0.84131 0.16892 -0.20085
 C164 C 0.68696 0.17400 -0.16896
 H165 H 0.76003 0.16730 -0.29435
 H166 H 0.83845 0.25269 -0.19876
 H167 H 0.66654 0.24549 -0.20244
 H168 H 0.74948 0.33409 -0.29259
 H169 H 0.90149 0.18538 -0.25256
 H170 H 0.88909 0.33712 -0.24131
 H171 H 0.82868 0.39011 -0.24563
 H172 H 0.67143 0.38548 -0.23997
 H173 H 0.84172 0.11775 -0.25627
 H174 H 0.68041 0.11199 -0.25293
 H175 H 0.61994 0.16455 -0.24846
 H176 H 0.60882 0.32047 -0.23877
 H177 H 0.86821 0.15149 -0.20650
 H178 H 0.77761 0.22753 -0.12295
 H179 H 0.73433 0.27656 -0.37120
 H180 H 0.64160 0.35111 -0.28743
 Zr181 Zr 0.24777 0.75075 -0.31286
 O182 O 0.28195 0.71503 -0.35217
 O183 O 0.20366 0.78869 -0.34313
 O184 O 0.20390 0.70847 -0.33978
 O185 O 0.33001 0.82914 -0.30309
 O186 O 0.16842 0.67088 -0.29605
 O187 O 0.28945 0.79106 -0.34377
 O188 O 0.16282 0.82476 -0.30165
 O189 O 0.18953 0.74933 -0.28230
 O190 O 0.24706 0.80878 -0.28427
 O191 O 0.25302 0.69456 -0.28142
 O192 O 0.30843 0.75150 -0.28415
 Zr193 Zr 0.25346 0.75310 -0.19004
 Zr194 Zr 0.19628 0.69527 -0.24906
 Zr195 Zr 0.30517 0.80845 -0.25380
 Zr196 Zr 0.19051 0.80629 -0.25261
 O197 O 0.37591 0.80514 -0.25366
 O198 O 0.12092 0.79304 -0.25053
 O199 O 0.24847 0.80985 -0.22114
 O200 O 0.19342 0.75230 -0.21905
 O201 O 0.25432 0.69458 -0.21811
 O202 O 0.31134 0.75438 -0.22091
 C203 C 0.17261 0.81511 -0.33370
 C204 C 0.31953 0.81908 -0.33501
 C205 C 0.17579 0.67999 -0.32857
 O206 O 0.12574 0.69848 -0.24502
 O207 O 0.17654 0.66977 -0.19986
 O208 O 0.21500 0.70985 -0.15923
 C209 C 0.18721 0.67971 -0.16799
 O210 O 0.34061 0.67294 -0.29692
 Zr211 Zr 0.31081 0.69740 -0.25015
 O212 O 0.29673 0.71476 -0.15955
 O213 O 0.20445 0.62698 -0.25052
 O214 O 0.30228 0.62897 -0.24982
 O215 O 0.38096 0.70779 -0.24853
 O216 O 0.33365 0.67432 -0.20073
 C217 C 0.32456 0.68510 -0.16875
 O218 O 0.21707 0.78681 -0.15081
 O219 O 0.29722 0.87672 -0.25652
 O220 O 0.29397 0.79817 -0.16298
 O221 O 0.32782 0.83731 -0.20666
 O222 O 0.19609 0.87485 -0.25651
 O223 O 0.16609 0.83619 -0.20598
 C224 C 0.32005 0.82845 -0.17413
 H225 H 0.24625 0.83496 -0.29942
 H226 H 0.16712 0.75240 -0.20324
 H227 H 0.33916 0.75619 -0.20677
 H228 H 0.25399 0.66805 -0.29618
 H229 H 0.10499 0.82004 -0.25728
 H230 H 0.11466 0.66812 -0.24512
 H231 H 0.17417 0.61412 -0.24836
 H232 H 0.33147 0.61587 -0.24338
 H233 H 0.16593 0.88640 -0.26210
 H234 H 0.32766 0.88931 -0.25832
 H235 H 0.38697 0.83551 -0.25382
 H236 H 0.39516 0.67979 -0.24203
 H237 H 0.13952 0.85408 -0.21176
 H238 H 0.22917 0.77756 -0.12762
 H239 H 0.26985 0.72448 -0.37531
 H240 H 0.36199 0.64951 -0.29081
 Zr241 Zr 1.25090 1.24681 0.81184
 O242 O 1.21747 1.20971 0.85076
 O243 O 1.29381 1.28523 0.84285
 O244 O 1.29512 1.20509 0.83884
 O245 O 1.16608 1.32239 0.80170
 O246 O 1.33185 1.16864 0.79519
 O247 O 1.20680 1.28445 0.84244
 O248 O 1.33528 1.32180 0.80198
 O249 O 1.30954 1.24674 0.78185
 O250 O 1.25109 1.30541 0.78393
 O251 O 1.24670 1.19102 0.78001
 O252 O 1.19074 1.24736 0.78250
 Zr253 Zr 1.24690 1.25116 0.68920
 Zr254 Zr 1.30387 1.19305 0.74825
 Zr255 Zr 1.19355 1.30482 0.75270
 Zr256 Zr 1.30816 1.30413 0.75266
 O257 O 1.12283 1.30137 0.75081
 O258 O 1.37800 1.29214 0.75072
 O259 O 1.25070 1.30757 0.72067
 O260 O 1.30652 1.25049 0.71869
 O261 O 1.24631 1.19225 0.71677
 O262 O 1.18852 1.25119 0.71944
 C263 C 1.32502 1.31170 0.83382
 C264 C 1.17564 1.31108 0.83345
 C265 C 1.32389 1.17727 0.82770
 O266 O 1.37434 1.19727 0.74417
 O267 O 1.32332 1.16765 0.69916
 O268 O 1.28508 1.20791 0.65844
 C269 C 1.31243 1.17755 0.66738
 O270 O 1.15927 1.16813 0.79446
 Zr271 Zr 1.18936 1.19377 0.74821
 O272 O 1.20411 1.21351 0.65797
 O273 O 1.29689 1.12461 0.74969
 O274 O 1.19886 1.12549 0.74690
 O275 O 1.11910 1.20331 0.74639
 O276 O 1.16731 1.17174 0.69838
 C277 C 1.17648 1.18350 0.66667
 O278 O 1.28416 1.28534 0.65073
 O279 O 1.20075 1.37301 0.75730
 O280 O 1.20665 1.29627 0.66198
 O281 O 1.17178 1.33455 0.70561
 O282 O 1.30148 1.37249 0.75755
 O283 O 1.33262 1.33507 0.70648
 C284 C 1.18017 1.32621 0.67308
 H285 H 1.25107 1.33120 0.79952
 H286 H 1.33298 1.25099 0.70304
 H287 H 1.16090 1.25305 0.70507
 H288 H 1.24591 1.16431 0.79455
 H289 H 1.39341 1.31932 0.75778
 H290 H 1.38584 1.16706 0.74413
 H291 H 1.32737 1.11221 0.74749
 H292 H 1.16991 1.11217 0.74009
 H293 H 1.33143 1.38437 0.76340
 H294 H 1.17012 1.38520 0.75874
 H295 H 1.11159 1.33166 0.75145
 H296 H 1.10533 1.17528 0.73942
 H297 H 1.35843 1.35379 0.71268
 H298 H 1.27248 1.27643 0.62732
 H299 H 1.22901 1.21921 0.87407
 H300 H 1.13867 1.14422 0.78794
 Zr301 Zr 0.74809 0.74746 0.81002
 O302 O 0.78483 0.77988 0.84991
 O303 O 0.70381 0.70976 0.84000
 O304 O 0.70682 0.78991 0.83929
 O305 O 0.82699 0.66676 0.79511
 O306 O 0.67124 0.83079 0.79746
 O307 O 0.79044 0.70454 0.83817
 O308 O 0.65923 0.67794 0.79837
 O309 O 0.68881 0.75264 0.78077
 O310 O 0.74361 0.69089 0.77966
 O311 O 0.75459 0.80489 0.78035
 O312 O 0.80731 0.74547 0.77982
 Zr313 Zr 0.74892 0.75062 0.68707
 Zr314 Zr 0.69668 0.80793 0.74919
 Zr315 Zr 0.80021 0.69031 0.74767
 Zr316 Zr 0.68598 0.69719 0.74931
 O317 O 0.87102 0.69028 0.74580
 O318 O 0.61699 0.71335 0.74892
 O319 O 0.74231 0.69263 0.71631
 O320 O 0.69014 0.75260 0.71743
 O321 O 0.75343 0.80764 0.71700
 O322 O 0.80776 0.74565 0.71666
 C323 C 0.67095 0.68558 0.83042
 C324 C 0.81906 0.67616 0.82743
 C325 C 0.67925 0.81982 0.82955
 O326 O 0.62596 0.80784 0.74615
 O327 O 0.67677 0.83682 0.70130
 O328 O 0.71169 0.79707 0.65859
 C329 C 0.68590 0.82795 0.66899
 O330 O 0.84340 0.82207 0.79464
 Zr331 Zr 0.81089 0.80110 0.74775
 O332 O 0.79292 0.78837 0.65703
 O333 O 0.70785 0.87570 0.75293
 O334 O 0.80519 0.86977 0.74928
 O335 O 0.88047 0.78804 0.74477
 O336 O 0.83330 0.82506 0.69869
 C337 C 0.82265 0.81606 0.66664
 O338 O 0.70939 0.72048 0.64765
 O339 O 0.78879 0.62244 0.74872
 O340 O 0.78668 0.70557 0.65755
 O341 O 0.81994 0.66290 0.69936
 O342 O 0.68873 0.62835 0.75129
 O343 O 0.65822 0.67053 0.70244
 C344 C 0.81189 0.67379 0.66728
 H345 H 0.74237 0.66409 0.79407
 H346 H 0.66327 0.75440 0.70217
 H347 H 0.83500 0.74331 0.70199
 H348 H 0.75724 0.83058 0.79592
 H349 H 0.60011 0.68676 0.75528
 H350 H 0.61626 0.83860 0.74745
 H351 H 0.67809 0.88985 0.75174
 H352 H 0.83472 0.88199 0.74273
 H353 H 0.65836 0.61778 0.75729
 H354 H 0.81859 0.60832 0.74924
 H355 H 0.88061 0.65947 0.74465
 H356 H 0.89568 0.81575 0.73894
 H357 H 0.63149 0.65298 0.70836
 H358 H 0.72103 0.73029 0.62452
 H359 H 0.77337 0.76934 0.87289
 H360 H 0.86501 0.84542 0.78891
 Zr361 Zr 1.25162 0.74816 0.18959
 O362 O 1.21501 0.78100 0.14984
 O363 O 1.29574 0.71047 0.15949
 O364 O 1.29314 0.79055 0.16049
 O365 O 1.17238 0.66762 0.20411
 O366 O 1.32894 0.83103 0.20244
 O367 O 1.20921 0.70548 0.16123
 O368 O 1.34013 0.67821 0.20104
 O369 O 1.31090 0.75295 0.21888
 O370 O 1.25582 0.69142 0.21976
 O371 O 1.24539 0.80546 0.21946
 O372 O 1.19234 0.74628 0.21974
 Zr373 Zr 1.25079 0.75066 0.31253
 Zr374 Zr 1.30330 0.80811 0.25065
 Zr375 Zr 1.19917 0.69089 0.25169
 Zr376 Zr 1.31347 0.69732 0.25015
 O377 O 1.12837 0.69121 0.25352
 O378 O 1.38253 0.71321 0.25058
 O379 O 1.25708 0.69281 0.28308
 O380 O 1.30959 0.75257 0.28222
 O381 O 1.24653 0.80787 0.28280
 O382 O 1.19191 0.74608 0.28292
 C383 C 1.32847 0.68607 0.16901
 C384 C 1.18048 0.67709 0.17180
 C385 C 1.32090 0.82024 0.17032
 O386 O 1.37402 0.80774 0.25377
 O387 O 1.32328 0.83674 0.29865
 O388 O 1.28816 0.79685 0.34119
 C389 C 1.31406 0.82775 0.33093
 O390 O 1.15664 0.82313 0.20521
 Zr391 Zr 1.18905 0.80172 0.25202
 O392 O 1.20695 0.78837 0.34271
 O393 O 1.29245 0.87593 0.24704
 O394 O 1.19505 0.87038 0.25068
 O395 O 1.11941 0.78893 0.25500
 O396 O 1.16680 0.82554 0.30118
 C397 C 1.17740 0.81629 0.33320
 O398 O 1.29020 0.72016 0.35185
 O399 O 1.21021 0.62297 0.25044
 O400 O 1.21289 0.70553 0.34187
 O401 O 1.17936 0.66327 0.29991
 O402 O 1.31044 0.62850 0.24798
 O403 O 1.34103 0.67027 0.29696
 C404 C 1.18755 0.67391 0.33202
 H405 H 1.25696 0.66469 0.20528
 H406 H 1.33646 0.75418 0.29749
 H407 H 1.16467 0.74377 0.29758
 H408 H 1.24288 0.83124 0.20396
 H409 H 1.39929 0.68659 0.24416
 H410 H 1.38386 0.83846 0.25254
 H411 H 1.32228 0.88996 0.24828
 H412 H 1.16559 0.88268 0.25729
 H413 H 1.34079 0.61786 0.24197
 H414 H 1.18033 0.60900 0.24987
 H415 H 1.11861 0.66044 0.25458
 H416 H 1.10434 0.81666 0.26094
 H417 H 1.36776 0.65276 0.29101
 H418 H 1.27859 0.72987 0.37501
 H419 H 1.22642 0.77058 0.12681
 H420 H 1.13506 0.84645 0.21103
 Zr421 Zr 0.74832 1.24715 0.18899
 O422 O 0.78150 1.21024 0.14984
 O423 O 0.70562 1.28604 0.15809
 O424 O 0.70404 1.20568 0.16180
 O425 O 0.83379 1.32207 0.19964
 O426 O 0.66711 1.16905 0.20527
 O427 O 0.79294 1.28464 0.15867
 O428 O 0.66428 1.32252 0.19907
 O429 O 0.68962 1.24710 0.21892
 O430 O 0.74841 1.30555 0.21713
 O431 O 0.75220 1.19112 0.22064
 O432 O 0.80840 1.24716 0.21844
 Zr433 Zr 0.75219 1.25055 0.31172
 Zr434 Zr 0.69499 1.19315 0.25235
 Zr435 Zr 0.80586 1.30443 0.24845
 Zr436 Zr 0.69128 1.30429 0.24834
 O437 O 0.87656 1.30070 0.25051
 O438 O 0.62138 1.29258 0.25015
 O439 O 0.74868 1.30719 0.28044
 O440 O 0.69262 1.25041 0.28213
 O441 O 0.75248 1.19184 0.28390
 O442 O 0.81058 1.25055 0.28151
 C443 C 0.67451 1.31261 0.16719
 C444 C 0.82436 1.31093 0.16783
 C445 C 0.67521 1.17780 0.17281
 O446 O 0.62452 1.19772 0.25629
 O447 O 0.67523 1.16752 0.30133
 O448 O 0.71371 1.20725 0.34224
 C449 C 0.68616 1.17711 0.33317
 O450 O 0.83946 1.16777 0.20621
 Zr451 Zr 0.80949 1.19333 0.25251
 O452 O 0.79482 1.21248 0.34282
 O453 O 0.70160 1.12469 0.25071
 O454 O 0.79957 1.12510 0.25362
 O455 O 0.87979 1.20262 0.25432
 O456 O 0.83153 1.17091 0.30227
 C457 C 0.82241 1.18248 0.33403
 O458 O 0.71505 1.28459 0.35031
 O459 O 0.79898 1.37266 0.24403
 O460 O 0.79262 1.29532 0.33913
 O461 O 0.82763 1.33379 0.29565
 O462 O 0.69841 1.37265 0.24380
 O463 O 0.66684 1.33501 0.29461
 C464 C 0.81921 1.32526 0.32815
 H465 H 0.74863 1.33143 0.20162
 H466 H 0.66613 1.25092 0.29775
 H467 H 0.83821 1.25220 0.29591
 H468 H 0.75290 1.16450 0.20600
 H469 H 0.60610 1.31988 0.24321
 H470 H 0.61286 1.16757 0.25619
 H471 H 0.67105 1.11242 0.25283
 H472 H 0.82843 1.11158 0.26040
 H473 H 0.66856 1.38475 0.23793
 H474 H 0.82967 1.38474 0.24268
 H475 H 0.88795 1.33095 0.25004
 H476 H 0.89346 1.17451 0.26120
 H477 H 0.64118 1.35392 0.28844
 H478 H 0.72668 1.27547 0.37369
 H479 H 0.77005 1.22005 0.12658
 H480 H 0.85992 1.14372 0.21267
 O481 O 0.44839 1.08223 0.02451
 O482 O 0.55146 0.91715 0.02532
 O483 O 0.41421 0.94891 0.02293
 O484 O 0.58538 1.05038 0.02452
 O485 O 0.47556 0.92476 0.04329
 O486 O 0.52335 1.07361 0.04393
 O487 O 0.57672 0.97742 0.04439
 O488 O 0.42318 1.02198 0.04343
 C489 C 0.42745 1.06151 0.04742
 C490 C 0.57167 0.93805 0.04858
 C491 C 0.43477 0.92884 0.04642
 C492 C 0.56398 1.06957 0.04790
 O493 O 0.55189 1.08249 -0.02431
 O494 O 0.44928 0.91711 -0.02554
 O495 O 0.41499 1.05024 -0.02437
 O496 O 0.58648 0.94925 -0.02309
 O497 O 0.52517 0.92500 -0.04347
 O498 O 0.47692 1.07371 -0.04379
 O499 O 0.57731 1.02241 -0.04336
 O500 O 0.42388 0.97741 -0.04444
 Co501 Co 0.50015 1.07030 0.00007
 Co502 Co 0.50035 0.92866 -0.00009
 Co503 Co 0.42714 0.99965 -0.00052
 Co504 Co 0.57339 0.99986 0.00053
 O505 O 0.50026 0.99958 -0.00001
 C506 C 0.57300 1.06196 -0.04721
 C507 C 0.42900 0.93807 -0.04872
 C508 C 0.43630 1.06953 -0.04775
 C509 C 0.56597 0.92910 -0.04656
 O510 O 0.94752 0.58309 0.52274
 O511 O 1.05292 0.41633 0.52343
 O512 O 0.91568 0.44982 0.52535
 O513 O 1.08479 0.54930 0.52561
 O514 O 0.97789 0.42513 0.54413
 O515 O 1.02259 0.57443 0.54389
 O516 O 1.07656 0.47617 0.54376
 O517 O 0.92351 0.52330 0.54307
 C518 C 0.92672 0.56298 0.54597
 C519 C 1.07253 0.43666 0.54721
 C520 C 0.93738 0.43015 0.54853
 C521 C 1.06314 0.56957 0.54837
 O522 O 1.05260 0.58315 0.47680
 O523 O 0.94801 0.41591 0.47687
 O524 O 0.91554 0.54874 0.47410
 O525 O 1.08509 0.45003 0.47479
 O526 O 1.02299 0.42499 0.45611
 O527 O 0.97759 0.57403 0.45567
 O528 O 1.07691 0.52334 0.45677
 O529 O 0.92406 0.47553 0.45632
 Co530 Co 1.00009 0.57071 0.49979
 Co531 Co 1.00044 0.42845 0.50012
 Co532 Co 0.92749 0.49933 0.49973
 Co533 Co 1.07304 0.49965 0.50022
 O534 O 1.00027 0.49954 0.49997
 C535 C 1.07344 0.56298 0.45365
 C536 C 0.92815 0.43601 0.45309
 C537 C 0.93709 0.56881 0.45117
 C538 C 1.06347 0.43020 0.45165
 O539 O 1.03327 0.46434 0.06653
 O540 O 1.06952 0.52976 -0.05217
 O541 O 1.01597 0.40503 -0.03511
 O542 O 1.04981 0.58148 0.02754
 O543 O 1.05960 0.45600 -0.04652
 O544 O 1.01961 0.54272 0.06998
 O545 O 1.03837 0.58918 -0.03810
 O546 O 1.05434 0.43359 0.01901
 C547 C 1.06067 0.44078 0.05077
 C548 C 1.06923 0.56970 -0.05299
 C549 C 1.04965 0.41744 -0.05097
 C550 C 1.04861 0.56974 0.05908
 O551 O 0.93289 0.52677 0.04854
 O552 O 0.97042 0.46266 -0.06673
 O553 O 0.98072 0.39274 0.02759
 O554 O 0.95362 0.58284 -0.03015
 O555 O 0.98162 0.54188 -0.07247
 O556 O 0.94684 0.45079 0.04641
 O557 O 0.96399 0.58703 0.03593
 O558 O 0.94154 0.43861 -0.01791
 Co559 Co 0.98493 0.49693 0.05283
 Co560 Co 1.01870 0.49794 -0.05509
 Co561 Co 0.99771 0.43921 0.00175
 Co562 Co 1.00160 0.57718 -0.00114
 O563 O 1.00224 0.50526 -0.00191
 C564 C 0.93252 0.56681 0.04962
 C565 C 0.93898 0.44356 -0.05068
 C566 C 0.95423 0.41051 0.05038
 C567 C 0.95381 0.57013 -0.06154
 O568 O 0.55504 0.98293 0.56199
 O569 O 0.55693 1.02290 0.44065
 O570 O 0.55366 0.92833 0.48009
 O571 O 0.55380 1.07701 0.52264
 O572 O 0.52606 0.95063 0.43226
 O573 O 0.52439 1.05523 0.56980
 O574 O 0.53554 1.08370 0.46235
 O575 O 0.53406 0.92211 0.53995
 C576 C 0.56152 0.94359 0.55782
 C577 C 0.56336 1.06224 0.44498
 C578 C 0.55589 0.93016 0.44776
 C579 C 0.55524 1.07496 0.55503
 O580 O 0.44171 1.02325 0.56057
 O581 O 0.44343 0.98283 0.43930
 O582 O 0.44429 0.92887 0.52169
 O583 O 0.44537 1.07742 0.47874
 O584 O 0.47444 1.05510 0.43159
 O585 O 0.47226 0.95099 0.56942
 O586 O 0.46357 1.08395 0.53895
 O587 O 0.46394 0.92206 0.46176
 Co588 Co 0.49842 1.00310 0.55857
 Co589 Co 0.50013 1.00289 0.44281
 Co590 Co 0.49900 0.93264 0.50087
 Co591 Co 0.49955 1.07325 0.50068
 O592 O 0.49927 1.00297 0.50072
 C593 C 0.43546 1.06260 0.55613
 C594 C 0.43684 0.94349 0.44349
 C595 C 0.44227 0.93060 0.55404
 C596 C 0.44381 1.07511 0.44636
 O597 O 1.08347 1.03384 0.46029
 O598 O 0.91782 1.03367 0.54041
 O599 O 0.94582 1.02512 0.43297
 O600 O 1.05551 1.02517 0.56766
 O601 O 0.92391 1.05273 0.48065
 O602 O 1.07751 1.05274 0.51997
 O603 O 0.98098 1.05437 0.56122
 O604 O 1.02020 1.05455 0.43970
 C605 C 1.06077 1.06085 0.44320
 C606 C 0.94041 1.06061 0.55765
 C607 C 0.92678 1.05521 0.44846
 C608 C 1.07431 1.05536 0.55212
 O609 O 1.08530 0.96554 0.53839
 O610 O 0.91626 0.96548 0.46232
 O611 O 1.05264 0.97408 0.43167
 O612 O 0.94880 0.97381 0.56905
 O613 O 0.92472 0.94658 0.52176
 O614 O 1.07661 0.94661 0.47889
 O615 O 1.02308 0.94464 0.56060
 O616 O 0.97858 0.94470 0.44027
 Co617 Co 1.07321 0.99968 0.49947
 Co618 Co 0.92819 0.99964 0.50119
 Co619 Co 0.99946 0.99962 0.44270
 Co620 Co 1.00195 0.99951 0.55811
 O621 O 1.00070 0.99962 0.50038
 C622 C 1.06350 0.93849 0.55608
 C623 C 0.93823 0.93834 0.44489
 C624 C 1.07252 0.94412 0.44678
 C625 C 0.92884 0.94396 0.55386
 O626 O 0.58300 0.53397 -0.03925
 O627 O 0.41611 0.53434 0.03867
 O628 O 0.44592 0.52542 -0.06851
 O629 O 0.55321 0.52568 0.06790
 O630 O 0.42325 0.55343 -0.02120
 O631 O 0.57600 0.55330 0.02045
 O632 O 0.47889 0.55484 0.06033
 O633 O 0.52021 0.55458 -0.06079
 C634 C 0.56067 0.56090 -0.05666
 C635 C 0.43845 0.56121 0.05612
 C636 C 0.42664 0.55571 -0.05342
 C637 C 0.57246 0.55585 0.05262
 O638 O 0.58345 0.46614 0.03892
 O639 O 0.41567 0.46613 -0.03922
 O640 O 0.55264 0.47407 -0.06819
 O641 O 0.44641 0.47442 0.06785
 O642 O 0.42293 0.44731 0.02032
 O643 O 0.57585 0.44699 -0.02057
 O644 O 0.52092 0.44502 0.06038
 O645 O 0.47824 0.44479 -0.06045
 Co646 Co 0.57205 0.50012 -0.00013
 Co647 Co 0.42701 0.50032 -0.00034
 Co648 Co 0.49929 0.49973 -0.05791
 Co649 Co 0.49982 0.49997 0.05756
 O650 O 0.49954 0.50004 -0.00020
 C651 C 0.56143 0.43888 0.05618
 C652 C 0.43777 0.43863 -0.05613
 C653 C 0.57229 0.44426 -0.05271
 C654 C 0.42674 0.44457 0.05245
 C655 C 0.33758 1.14793 0.14381
 C656 C 0.35814 1.12719 0.12225
 C657 C 0.38269 1.10351 0.09686
 C658 C 0.40348 1.08393 0.07472
 C659 C 0.83453 0.64944 0.64052
 C660 C 0.85514 0.62911 0.61882
 C661 C 0.88026 0.60560 0.59383
 C662 C 0.90180 0.58588 0.57231
 C663 C 0.65709 0.85309 0.14789
 C664 C 0.63709 0.87363 0.12592
 C665 C 0.61364 0.89682 0.09974
 C666 C 0.59402 0.91599 0.07677
 C667 C 1.15715 0.35147 0.64700
 C668 C 1.13742 0.37188 0.62478
 C669 C 1.11429 0.39500 0.59833
 C670 C 1.09486 0.41423 0.57528
 C671 C 0.66356 1.14884 -0.14294
 C672 C 0.64289 1.12809 -0.12144
 C673 C 0.61814 1.10431 -0.09623
 C674 C 0.59717 1.08458 -0.07428
 C675 C 1.16495 0.64944 0.35872
 C676 C 1.14445 0.62904 0.38045
 C677 C 1.11951 0.60550 0.40552
 C678 C 1.09815 0.58580 0.42715
 C679 C 0.34340 0.85352 -0.14817
 C680 C 0.36346 0.87389 -0.12615
 C681 C 0.38697 0.89697 -0.09993
 C682 C 0.40662 0.91607 -0.07694
 C683 C 0.84237 0.35031 0.35425
 C684 C 0.86232 0.37070 0.37635
 C685 C 0.88579 0.39391 0.40254
 C686 C 0.90552 0.41331 0.42534
 C687 C 1.16368 0.35052 0.13636
 C688 C 1.14459 0.37223 0.11427
 C689 C 1.11944 0.39752 0.08982
 C690 C 1.09483 0.41821 0.07068
 C691 C 0.66468 0.85422 0.64259
 C692 C 0.64494 0.87611 0.62130
 C693 C 0.61917 0.90108 0.59758
 C694 C 0.59446 0.92135 0.57858
 C695 C 1.16772 0.65784 -0.14279
 C696 C 1.14833 0.63739 -0.12029
 C697 C 1.12349 0.61338 -0.09515
 C698 C 1.10013 0.59315 -0.07501
 C699 C 0.66549 1.15205 0.36046
 C700 C 0.64625 1.13042 0.38211
 C701 C 0.62096 1.10524 0.40585
 C702 C 0.59642 1.08465 0.42465
 C703 C 0.83273 0.65378 0.13896
 C704 C 0.85210 0.63331 0.11651
 C705 C 0.87712 0.60943 0.09145
 C706 C 0.90086 0.58951 0.07142
 C707 C 0.33296 1.15259 0.64000
 C708 C 0.35219 1.13097 0.61838
 C709 C 0.37758 1.10575 0.59477
 C710 C 0.40224 1.08510 0.57617
 C711 C 0.83694 0.35243 -0.13673
 C712 C 0.85590 0.37458 -0.11483
 C713 C 0.88083 0.40032 -0.09048
 C714 C 0.90517 0.42118 -0.07119
 C715 C 0.33518 0.85395 0.35747
 C716 C 0.35467 0.87581 0.37896
 C717 C 0.38003 0.90081 0.40299
 C718 C 0.40433 0.92114 0.42232
 C719 C 1.14361 1.16563 0.35650
 C720 C 1.12379 1.14508 0.37852
 C721 C 1.10125 1.11849 0.40300
 C722 C 1.08249 1.09347 0.42240
 C723 C 0.64619 0.66400 -0.14254
 C724 C 0.62574 0.64398 -0.12063
 C725 C 0.60233 0.61799 -0.09636
 C726 C 0.58290 0.59331 -0.07717
 C727 C 0.85716 1.16534 0.64417
 C728 C 0.87703 1.14472 0.62223
 C729 C 0.89969 1.11811 0.59783
 C730 C 0.91856 1.09314 0.57846
 C731 C 0.35313 0.66449 0.14192
 C732 C 0.37350 0.64444 0.12000
 C733 C 0.39685 0.61840 0.09573
 C734 C 0.41624 0.59368 0.07657
 C735 C 1.15021 0.83494 0.64163
 C736 C 1.12970 0.85508 0.61966
 C737 C 1.10609 0.88128 0.59545
 C738 C 1.08633 0.90606 0.57639
 C739 C 0.64983 0.33424 0.13989
 C740 C 0.62884 0.35458 0.11832
 C741 C 0.60444 0.38105 0.09475
 C742 C 0.58421 0.40609 0.07619
 C743 C 0.85233 0.83343 0.36032
 C744 C 0.87273 0.85377 0.38216
 C745 C 0.89613 0.88034 0.40614
 C746 C 0.91567 0.90550 0.42495
 C747 C 0.34971 0.33312 -0.13887
 C748 C 0.37067 0.35346 -0.11734
 C749 C 0.39498 0.38014 -0.09398
 C750 C 0.41511 0.40547 -0.07569
 C751 C 1.14930 0.33005 -0.13913
 C752 C 1.12638 0.34711 -0.11709
 C753 C 1.09918 0.36894 -0.09256
 C754 C 1.07615 0.38973 -0.07282
 C755 C 0.65770 0.83928 0.36235
 C756 C 0.63715 0.85919 0.38451
 C757 C 0.61136 0.88346 0.40887
 C758 C 0.58738 0.90467 0.42787
 C759 C 0.84479 0.65275 -0.14693
 C760 C 0.86829 0.63244 -0.12704
 C761 C 0.89735 0.60896 -0.10474
 C762 C 0.92298 0.59010 -0.08554
 C763 C 0.33921 1.16076 0.35859
 C764 C 0.36052 1.14183 0.38101
 C765 C 0.38716 1.11903 0.40596
 C766 C 0.41174 1.09918 0.42561
 C767 C 1.15501 0.65365 0.14596
 C768 C 1.13198 0.63324 0.12575
 C769 C 1.10364 0.60951 0.10298
 C770 C 1.07870 0.59031 0.08341
 C771 C 0.66096 1.16040 0.64234
 C772 C 0.63935 1.14144 0.62008
 C773 C 0.61235 1.11867 0.59530
 C774 C 0.58753 1.09889 0.57575
 C775 C 0.85141 0.32939 0.14059
 C776 C 0.87506 0.34563 0.11860
 C777 C 0.90318 0.36604 0.09387
 C778 C 0.92695 0.38519 0.07356
 C779 C 0.34072 0.83956 0.63983
 C780 C 0.36122 0.85949 0.61759
 C781 C 0.38694 0.88382 0.59315
 C782 C 0.41083 0.90507 0.57406
 C783 C 0.34892 1.15371 -0.14640
 C784 C 0.36970 1.13382 -0.12451
 C785 C 0.39357 1.11075 -0.09850
 C786 C 0.41344 1.09152 -0.07571
 C787 C 0.84891 0.65339 0.35308
 C788 C 0.86993 0.63331 0.37475
 C789 C 0.89413 0.61008 0.40051
 C790 C 0.91422 0.59077 0.42316
 C791 C 0.65040 1.15423 0.14679
 C792 C 0.62989 1.13425 0.12480
 C793 C 0.60635 1.11102 0.09871
 C794 C 0.58670 1.09166 0.07588
 C795 C 1.15081 0.65610 0.64564
 C796 C 1.12994 0.63574 0.62406
 C797 C 1.10589 0.61199 0.59851
 C798 C 1.08593 0.59216 0.57609
 C799 C 0.65533 0.84301 -0.14353
 C800 C 0.63477 0.86294 -0.12146
 C801 C 0.61046 0.88644 -0.09580
 C802 C 0.58989 0.90624 -0.07366
 C803 C 1.14843 0.34695 0.35105
 C804 C 1.12838 0.36688 0.37335
 C805 C 1.10534 0.38980 0.39996
 C806 C 1.08602 0.40873 0.42321
 C807 C 0.34504 0.84333 0.14348
 C808 C 0.36578 0.86312 0.12143
 C809 C 0.39024 0.88642 0.09576
 C810 C 0.41088 0.90608 0.07358
 C811 C 0.85215 0.34665 0.64880
 C812 C 0.87229 0.36656 0.62655
 C813 C 0.89547 0.38954 0.60006
 C814 C 0.91486 0.40856 0.57691
 C815 C 1.15440 1.16088 0.63883
 C816 C 1.13611 1.14026 0.61614
 C817 C 1.11479 1.11368 0.59118
 C818 C 1.09641 1.08843 0.57188
 C819 C 0.65227 0.66165 0.14005
 C820 C 0.63395 0.64075 0.11743
 C821 C 0.61274 0.61402 0.09233
 C822 C 0.59450 0.58882 0.07278
 C823 C 1.15464 0.83938 0.36043
 C824 C 1.13574 0.86020 0.38266
 C825 C 1.11377 0.88672 0.40730
 C826 C 1.09495 0.91164 0.42659
 C827 C 0.65615 0.33954 -0.13800
 C828 C 0.63684 0.36024 -0.11592
 C829 C 0.61436 0.38672 -0.09153
 C830 C 0.59515 0.41169 -0.07251
 C831 C 0.84470 1.15977 0.36180
 C832 C 0.86332 1.13921 0.38442
 C833 C 0.88517 1.11286 0.40932
 C834 C 0.90407 1.08791 0.42863
 C835 C 0.34683 0.66164 -0.14118
 C836 C 0.36507 0.64052 -0.11860
 C837 C 0.38627 0.61369 -0.09346
 C838 C 0.40453 0.58855 -0.07380
 C839 C 0.84564 0.83914 0.63954
 C840 C 0.86481 0.86000 0.61747
 C841 C 0.88714 0.88656 0.59306
 C842 C 0.90621 0.91151 0.57393
 C843 C 0.34416 0.33903 0.13797
 C844 C 0.36318 0.35992 0.11583
 C845 C 0.38529 0.38668 0.09140
 C846 C 0.40420 0.41184 0.07233
   
