data_POSCAR
  _audit_creation_date              2014-09-24
  _audit_creation_method            'ToBaCCo'
  _symmetry_space_group_name_H-M    'P1'
  _symmetry_Int_Tables_number       1
  _symmetry_cell_setting            triclinic
  loop_
  _symmetry_equiv_pos_as_xyz
 x,y,z
_cell_length_a 31.0179
_cell_length_b 30.9774
_cell_length_c 30.9900
_cell_angle_alpha 77.702300
_cell_angle_beta 101.605000
_cell_angle_gamma 77.758000
loop_
  _atom_site_label
  _atom_site_type_symbol
  _atom_site_fract_x
  _atom_site_fract_y
  _atom_site_fract_z
O1 O 0.58429 0.46987 0.05123
 O2 O 0.46288 0.48082 0.04734
 O3 O 0.53135 0.41453 0.04968
 O4 O 0.51570 0.53646 0.04757
 O5 O 0.49837 0.55525 -0.02799
 O6 O 0.51418 0.43375 -0.02588
 O7 O 0.44557 0.49972 -0.02820
 O8 O 0.56710 0.48895 -0.02433
 Cu9 Cu 0.52524 0.47351 0.05658
 Cu10 Cu 0.50455 0.49630 -0.03420
 C11 C 0.59613 0.47800 0.01410
 C12 C 0.43378 0.49172 0.00900
 C13 C 0.52507 0.40367 0.01211
 C14 C 0.50486 0.56635 0.00940
 O15 O -0.04094 0.57556 0.49031
 O16 O -0.03674 0.45373 0.50323
 O17 O -0.03583 0.50736 0.55789
 O18 O -0.04098 0.52184 0.43569
 O19 O 0.03445 0.50437 0.45225
 O20 O 0.03960 0.48973 0.57421
 O21 O 0.03868 0.43607 0.51958
 O22 O 0.03448 0.55810 0.50682
 Cu23 Cu -0.04624 0.51636 0.49512
 Cu24 Cu 0.04442 0.49530 0.51483
 C25 C -0.00393 0.58735 0.49689
 C26 C 0.00158 0.42439 0.51317
 C27 C 0.00274 0.49658 0.58658
 C28 C -0.00402 0.51512 0.42344
 O29 O 0.48184 0.04571 0.53815
 O30 O 0.46949 0.05073 0.41607
 O31 O 0.41472 0.05114 0.47015
 O32 O 0.53633 0.04651 0.48379
 O33 O 0.55371 -0.02920 0.50088
 O34 O 0.43198 -0.02457 0.48739
 O35 O 0.48672 -0.02498 0.43339
 O36 O 0.49922 -0.02998 0.55517
 Cu37 Cu 0.47386 0.05616 0.47532
 Cu38 Cu 0.49463 -0.03481 0.49591
 C39 C 0.49224 0.00701 0.56722
 C40 C 0.47648 0.01359 0.40423
 C41 C 0.40288 0.01404 0.47694
 C42 C 0.56548 0.00797 0.49418
 C43 C 0.49663 -0.02290 0.00897
 C44 C 0.50224 0.00991 -0.02484
 C45 C 0.50266 0.00347 -0.07098
 C46 C 0.50779 0.05458 -0.01774
 C47 C 0.49268 -0.01473 0.05377
 C48 C 0.49551 -0.06926 0.00379
 C49 C 0.53855 0.01165 -0.08998
 C50 C 0.53803 0.00905 -0.13450
 C51 C 0.50139 -0.00148 -0.16119
 C52 C 0.46562 -0.01010 -0.14195
 C53 C 0.46619 -0.00752 -0.09731
 C54 C 0.54273 0.05668 0.01782
 C55 C 0.54800 0.09908 0.02332
 C56 C 0.51882 0.14006 -0.00703
 C57 C 0.48409 0.13773 -0.04271
 C58 C 0.47873 0.09543 -0.04806
 C59 C 0.45841 0.02157 0.05655
 C60 C 0.45494 0.02829 0.09911
 C61 C 0.48559 -0.00128 0.13961
 C62 C 0.51952 -0.03782 0.13660
 C63 C 0.52289 -0.04455 0.09415
 C64 C 0.45959 -0.08727 0.01343
 C65 C 0.45955 -0.13197 0.01188
 C66 C 0.49567 -0.15974 0.00100
 C67 C 0.53148 -0.14149 -0.00902
 C68 C 0.53148 -0.09671 -0.00747
 H69 H 0.56680 0.02060 -0.07040
 H70 H 0.56572 0.01658 -0.14849
 H71 H 0.43709 -0.01864 -0.16151
 H72 H 0.43775 -0.01318 -0.08364
 H73 H 0.56615 0.02552 0.04099
 H74 H 0.57542 0.09984 0.05075
 H75 H 0.45166 0.09452 -0.07577
 H76 H 0.43431 0.04455 0.02579
 H77 H 0.42858 0.05684 0.10034
 H78 H 0.54311 -0.06166 0.16717
 H79 H 0.54930 -0.07298 0.09275
 H80 H 0.43177 -0.06678 0.02265
 H81 H 0.43186 -0.14523 0.02044
 H82 H 0.55959 -0.16192 -0.01787
 H83 H 0.55996 -0.08378 -0.01419
 H84 H 0.46070 0.16870 -0.06625
 C85 C -0.00335 0.49356 0.99409
 C86 C 0.03037 0.49736 1.02759
 C87 C 0.07674 0.49721 1.02149
 C88 C 0.02281 0.50155 1.07246
 C89 C -0.04892 0.49127 1.00107
 C90 C 0.00292 0.49222 0.94814
 C91 C 0.10287 0.46096 1.00944
 C92 C 0.14699 0.46074 1.00528
 C93 C 0.16594 0.49662 1.01343
 C94 C 0.13966 0.53274 1.02563
 C95 C 0.09562 0.53291 1.02977
 C96 C 0.05135 0.46981 1.11259
 C97 C 0.04495 0.47318 1.15515
 C98 C 0.01007 0.50864 1.15845
 C99 C -0.01810 0.54088 1.11820
 C100 C -0.01172 0.53741 1.07554
 C101 C -0.08821 0.52303 0.97098
 C102 C -0.13147 0.52048 0.97564
 C103 C -0.13643 0.48585 1.01034
 C104 C -0.09700 0.45389 1.04044
 C105 C -0.05360 0.45654 1.03580
 C106 C 0.01503 0.52786 0.92112
 C107 C 0.01813 0.52733 0.87685
 C108 C 0.00885 0.49132 0.85877
 C109 C -0.00297 0.45558 0.88610
 C110 C -0.00606 0.45615 0.93027
 H111 H 0.08925 0.43264 1.00367
 H112 H 0.16624 0.43258 0.99555
 H113 H 0.15351 0.56045 1.03291
 H114 H 0.07619 0.56098 1.03952
 H115 H 0.07845 0.44218 1.11089
 H116 H 0.06771 0.44834 1.18559
 H117 H -0.03362 0.56268 1.04493
 H118 H -0.08531 0.54979 0.94370
 H119 H -0.16115 0.54511 0.95144
 H120 H -0.09974 0.42699 1.06764
 H121 H -0.02370 0.43124 1.05891
 H122 H 0.02135 0.55640 0.93404
 H123 H 0.02762 0.55516 0.85670
 H124 H -0.01103 0.42778 0.87288
 H125 H -0.01587 0.42858 0.95049
 H126 H -0.04534 0.56845 1.11972
 C127 C 0.00390 -0.00733 0.49415
 C128 C -0.02988 0.02658 0.49802
 C129 C -0.07609 0.02068 0.49830
 C130 C -0.02271 0.07177 0.50150
 C131 C 0.04919 -0.00045 0.49106
 C132 C -0.00212 -0.05345 0.49319
 C133 C -0.10198 0.00867 0.46231
 C134 C -0.14591 0.00446 0.46255
 C135 C -0.16488 0.01256 0.49862
 C136 C -0.13887 0.02475 0.53447
 C137 C -0.09499 0.02894 0.53419
 C138 C -0.05184 0.11188 0.46999
 C139 C -0.04601 0.15473 0.47283
 C140 C -0.01111 0.15841 0.50752
 C141 C 0.01771 0.11818 0.53949
 C142 C 0.01190 0.07522 0.53655
 C143 C 0.08864 -0.03020 0.52275
 C144 C 0.13167 -0.02531 0.51971
 C145 C 0.13614 0.00926 0.48464
 C146 C 0.09655 0.03891 0.45266
 C147 C 0.05339 0.03405 0.45581
 C148 C -0.01436 -0.08027 0.52891
 C149 C -0.01741 -0.12461 0.52857
 C150 C -0.00798 -0.14301 0.49265
 C151 C 0.00405 -0.11592 0.45689
 C152 C 0.00710 -0.07169 0.45727
 H153 H -0.08830 0.00292 0.43388
 H154 H -0.16501 -0.00527 0.43461
 H155 H -0.15280 0.03198 0.56231
 H156 H -0.07569 0.03866 0.56205
 H157 H -0.07901 0.10995 0.44298
 H158 H -0.06928 0.18509 0.44822
 H159 H 0.03426 0.04468 0.56167
 H160 H 0.08605 -0.05729 0.54990
 H161 H 0.16156 -0.04916 0.54435
 H162 H 0.09898 0.06598 0.42541
 H163 H 0.02331 0.05687 0.43058
 H164 H -0.02087 -0.06712 0.55735
 H165 H -0.02708 -0.14453 0.55644
 H166 H 0.01226 -0.12934 0.42914
 H167 H 0.01702 -0.05168 0.42961
 H168 H 0.04501 0.11992 0.56645
 C169 C -0.27185 0.47806 1.01683
 C170 C -0.26162 0.52048 1.00909
 C171 C -0.21742 0.52290 1.00783
 C172 C -0.35697 0.47622 1.01554
 C173 C -0.19308 0.44024 1.02282
 C174 C -0.23742 0.43790 1.02401
 C175 C -0.31793 0.47625 1.01643
 C176 C -0.18271 0.48285 1.01426
 H177 H -0.28795 0.55177 1.00366
 H178 H -0.21036 0.55613 1.00180
 H179 H -0.16722 0.40887 1.02741
 H180 H -0.24497 0.40488 1.02996
 C181 C 0.30368 0.49527 1.00765
 C182 C 0.26889 0.53620 0.98996
 C183 C 0.22400 0.53658 0.99129
 C184 C 0.38935 0.49391 1.00788
 C185 C 0.24845 0.45490 1.02761
 C186 C 0.29330 0.45461 1.02626
 C187 C 0.35015 0.49493 1.00744
 C188 C 0.21329 0.49596 1.01038
 H189 H 0.27649 0.56785 0.97535
 H190 H 0.19762 0.56862 0.97722
 H191 H 0.24147 0.42320 1.04307
 H192 H 0.31998 0.42274 1.04018
 C193 C -0.00800 -0.28192 0.49322
 C194 C 0.00937 -0.27144 0.53387
 C195 C 0.00878 -0.22619 0.53384
 C196 C -0.00543 -0.36808 0.49447
 C197 C -0.02697 -0.20160 0.45241
 C198 C -0.02638 -0.24689 0.45253
 C199 C -0.00672 -0.32868 0.49342
 C200 C -0.00918 -0.19077 0.49304
 H201 H 0.02372 -0.29831 0.56556
 H202 H 0.02331 -0.21908 0.56553
 H203 H -0.04152 -0.17501 0.42057
 H204 H -0.04010 -0.25460 0.42090
 C205 C 0.00148 0.29246 0.51461
 C206 C 0.00692 0.25863 0.55477
 C207 C 0.00366 0.21470 0.55267
 C208 C 0.00271 0.37735 0.51568
 C209 C -0.00998 0.23826 0.47025
 C210 C -0.00662 0.28204 0.47244
 C211 C 0.00271 0.33834 0.51608
 C212 C -0.00531 0.20420 0.51029
 H213 H 0.01305 0.26638 0.58759
 H214 H 0.00695 0.18934 0.58402
 H215 H -0.01622 0.23103 0.43721
 H216 H -0.01080 0.30793 0.44115
 C217 C 0.49772 0.00117 -0.30134
 C218 C 0.53870 -0.01862 -0.26730
 C219 C 0.53982 -0.02010 -0.22164
 C220 C 0.49496 0.00511 -0.38808
 C221 C 0.45877 0.01758 -0.24382
 C222 C 0.45774 0.01905 -0.28945
 C223 C 0.49656 0.00327 -0.34847
 C224 C 0.49989 -0.00180 -0.20938
 H225 H 0.56981 -0.03277 -0.27606
 H226 H 0.57188 -0.03573 -0.19589
 H227 H 0.42760 0.03254 -0.23564
 H228 H 0.42583 0.03448 -0.31551
 C229 C 0.47659 0.01334 0.27269
 C230 C 0.43672 0.02031 0.23849
 C231 C 0.43947 0.01647 0.19485
 C232 C 0.47437 0.01493 0.35725
 C233 C 0.52195 -0.00074 0.21941
 C234 C 0.51912 0.00319 0.26289
 C235 C 0.47444 0.01487 0.31835
 C236 C 0.48219 0.00538 0.18500
 H237 H 0.40361 0.02801 0.24574
 H238 H 0.40830 0.02093 0.16921
 H239 H 0.55528 -0.00864 0.21270
 H240 H 0.55020 -0.00220 0.28906
 C241 C 0.49820 -0.29993 0.00535
 C242 C 0.45727 -0.26543 -0.01390
 C243 C 0.45645 -0.21975 -0.01572
 C244 C 0.50121 -0.38649 0.00838
 C245 C 0.53764 -0.24295 0.02070
 C246 C 0.53837 -0.28857 0.02252
 C247 C 0.49931 -0.34696 0.00709
 C248 C 0.49664 -0.20801 0.00165
 H249 H 0.42603 -0.27381 -0.02753
 H250 H 0.42448 -0.19356 -0.03105
 H251 H 0.56899 -0.23513 0.03497
 H252 H 0.57025 -0.31502 0.03749
 C253 C 0.53066 0.27235 0.00699
 C254 C 0.52300 0.26402 -0.03616
 C255 C 0.51994 0.22078 -0.04059
 C256 C 0.52900 0.35672 0.01218
 C257 C 0.53307 0.19359 0.04154
 C258 C 0.53603 0.23699 0.04589
 C259 C 0.53062 0.31787 0.01067
 C260 C 0.52443 0.18522 -0.00185
 H261 H 0.51877 0.29115 -0.06649
 H262 H 0.51395 0.21516 -0.07435
 H263 H 0.53625 0.16698 0.07191
 H264 H 0.54171 0.24317 0.07944
 C265 C -0.30206 0.00652 0.49835
 C266 C -0.26730 -0.01148 0.53896
 C267 C -0.22254 -0.01003 0.53901
 C268 C -0.38752 0.00660 0.49711
 C269 C -0.24717 0.02707 0.45767
 C270 C -0.29187 0.02560 0.45771
 C271 C -0.34837 0.00616 0.49824
 C272 C -0.21203 0.00948 0.49838
 H273 H -0.27482 -0.02643 0.57058
 H274 H -0.19612 -0.02434 0.57076
 H275 H -0.24030 0.04287 0.42599
 H276 H -0.31857 0.03975 0.42610
 C277 C 0.27088 0.01688 0.47611
 C278 C 0.23706 0.02287 0.43625
 C279 C 0.19286 0.02134 0.43879
 C280 C 0.35593 0.01566 0.47447
 C281 C 0.21620 0.00843 0.52102
 C282 C 0.26025 0.01005 0.51839
 C283 C 0.31687 0.01659 0.47425
 C284 C 0.18213 0.01361 0.48132
 H285 H 0.24499 0.02810 0.40335
 H286 H 0.16743 0.02497 0.40772
 H287 H 0.20877 0.00308 0.55414
 H288 H 0.28615 0.00553 0.54943
 C289 C -0.00421 0.51690 1.29165
 C290 C -0.00855 0.55689 1.25806
 C291 C -0.00480 0.55444 1.21434
 C292 C -0.00545 0.51805 1.37639
 C293 C 0.00706 0.47207 1.23768
 C294 C 0.00322 0.47460 1.28124
 C295 C -0.00553 0.51855 1.33739
 C296 C 0.00358 0.51189 1.20388
 H297 H -0.01412 0.58979 1.26585
 H298 H -0.00720 0.58560 1.18912
 H299 H 0.01283 0.43893 1.23043
 H300 H 0.00657 0.44345 1.30698
 C301 C 0.00794 0.49192 0.71989
 C302 C 0.02692 0.45112 0.75473
 C303 C 0.02784 0.45097 0.80005
 C304 C 0.00471 0.49349 0.63374
 C305 C -0.00878 0.53261 0.77578
 C306 C -0.00968 0.53267 0.73052
 C307 C 0.00633 0.49221 0.67316
 C308 C 0.00978 0.49170 0.81103
 H309 H 0.04084 0.41944 0.74686
 H310 H 0.04281 0.41907 0.82653
 H311 H -0.02352 0.56436 0.78306
 H312 H -0.02448 0.56443 0.70376
   
