data_POSCAR
  _audit_creation_date              2014-09-24
  _audit_creation_method            'ToBaCCo'
  _symmetry_space_group_name_H-M    'P1'
  _symmetry_Int_Tables_number       1
  _symmetry_cell_setting            triclinic
  loop_
  _symmetry_equiv_pos_as_xyz
 x,y,z
_cell_length_a 48.2839
_cell_length_b 48.7231
_cell_length_c 48.7713
_cell_angle_alpha 89.903200
_cell_angle_beta 89.965200
_cell_angle_gamma 90.110800
loop_
  _atom_site_label
  _atom_site_type_symbol
  _atom_site_fract_x
  _atom_site_fract_y
  _atom_site_fract_z
N1 N 0.30880 0.25770 0.23367
 N2 N 0.29703 0.27997 0.22383
 C3 C 0.31030 0.28772 0.20081
 C4 C 0.33168 0.26952 0.19614
 C5 C 0.33023 0.25076 0.21740
 H6 H 0.30443 0.30483 0.18792
 H7 H 0.34300 0.23274 0.22010
 Cu8 Cu 0.26442 0.29519 0.24135
 Cu9 Cu 0.29358 0.23781 0.26517
 Cu10 Cu 0.23339 0.26423 0.29422
 N11 N 0.23000 0.30941 0.25608
 N12 N 0.21793 0.29695 0.27685
 C13 C 0.19358 0.30925 0.28206
 C14 C 0.19026 0.33054 0.26361
 C15 C 0.21375 0.33016 0.24743
 H16 H 0.17895 0.30266 0.29755
 H17 H 0.21807 0.34326 0.23002
 N18 N 0.25230 0.23129 0.30852
 N19 N 0.27481 0.22093 0.29711
 C20 C 0.28122 0.19727 0.30991
 C21 C 0.26197 0.19263 0.33037
 C22 C 0.24402 0.21461 0.32904
 H23 H 0.29816 0.18392 0.30433
 H24 H 0.22562 0.21750 0.34134
 H25 H 0.25305 0.25002 0.25943
 H26 H 0.27432 0.27058 0.28376
 N27 N 0.68781 -0.25834 0.23211
 N28 N 0.70028 -0.28022 0.22236
 C29 C 0.68811 -0.28766 0.19868
 C30 C 0.66670 -0.26957 0.19345
 C31 C 0.66698 -0.25129 0.21515
 H32 H 0.69461 -0.30468 0.18601
 H33 H 0.65379 -0.23357 0.21779
 Cu34 Cu 0.73159 -0.29651 0.24120
 Cu35 Cu 0.70129 -0.23914 0.26456
 Cu36 Cu 0.76225 -0.26344 0.29327
 N37 N 0.76758 -0.30781 0.25474
 N38 N 0.77959 -0.29459 0.27500
 C39 C 0.80471 -0.30558 0.27958
 C40 C 0.80856 -0.32692 0.26128
 C41 C 0.78454 -0.32786 0.24584
 H42 H 0.81927 -0.29835 0.29481
 H43 H 0.78004 -0.34159 0.22901
 N44 N 0.74147 -0.23218 0.30861
 N45 N 0.71850 -0.22267 0.29738
 C46 C 0.71047 -0.20007 0.31109
 C47 C 0.72912 -0.19526 0.33200
 C48 C 0.74844 -0.21603 0.32995
 H49 H 0.69279 -0.18753 0.30586
 H50 H 0.76682 -0.21843 0.34237
 H51 H 0.74185 -0.25074 0.25828
 H52 H 0.72140 -0.27141 0.28338
 N53 N 0.68763 0.25916 0.76504
 N54 N 0.69928 0.28191 0.77384
 C55 C 0.68689 0.28978 0.79727
 C56 C 0.66620 0.27109 0.80328
 C57 C 0.66714 0.25197 0.78239
 H58 H 0.69287 0.30744 0.80933
 H59 H 0.65464 0.23362 0.78061
 Cu60 Cu 0.73024 0.29854 0.75460
 Cu61 Cu 0.70166 0.23930 0.73324
 Cu62 Cu 0.76277 0.26355 0.70483
 N63 N 0.76680 0.30922 0.74199
 N64 N 0.77961 0.29521 0.72278
 C65 C 0.80504 0.30588 0.71898
 C66 C 0.80828 0.32780 0.73672
 C67 C 0.78355 0.32944 0.75096
 H68 H 0.82021 0.29804 0.70468
 H69 H 0.77844 0.34372 0.76716
 N70 N 0.74239 0.23179 0.68984
 N71 N 0.71937 0.22226 0.70102
 C72 C 0.71156 0.19939 0.68759
 C73 C 0.73042 0.19444 0.66689
 C74 C 0.74964 0.21539 0.66879
 H75 H 0.69383 0.18684 0.69282
 H76 H 0.76809 0.21781 0.65644
 H77 H 0.74182 0.25233 0.74004
 H78 H 0.72158 0.27136 0.71347
 N79 N 0.30843 -0.25811 0.76584
 N80 N 0.29670 -0.28057 0.77537
 C81 C 0.30976 -0.28842 0.79845
 C82 C 0.33102 -0.27008 0.80345
 C83 C 0.32967 -0.25113 0.78235
 H84 H 0.30390 -0.30580 0.81101
 H85 H 0.34242 -0.23301 0.77987
 Cu86 Cu 0.26499 -0.29672 0.75705
 Cu87 Cu 0.29333 -0.23808 0.73447
 Cu88 Cu 0.23254 -0.26387 0.70614
 N89 N 0.22931 -0.30938 0.74383
 N90 N 0.21681 -0.29641 0.72369
 C91 C 0.19210 -0.30829 0.71906
 C92 C 0.18895 -0.32988 0.73729
 C93 C 0.21302 -0.33008 0.75270
 H94 H 0.17726 -0.30140 0.70395
 H95 H 0.21791 -0.34370 0.76953
 N96 N 0.25173 -0.23112 0.69161
 N97 N 0.27451 -0.22100 0.70274
 C98 C 0.28110 -0.19738 0.68988
 C99 C 0.26167 -0.19254 0.66968
 C100 C 0.24344 -0.21434 0.67121
 H101 H 0.29829 -0.18421 0.69528
 H102 H 0.22486 -0.21704 0.65915
 H103 H 0.25314 -0.25099 0.74096
 H104 H 0.27381 -0.27042 0.71524
 N105 N 0.69325 -0.25423 0.76866
 N106 N 0.70499 -0.27638 0.77879
 C107 C 0.69263 -0.28286 0.80272
 C108 C 0.67197 -0.26388 0.80763
 C109 C 0.67284 -0.24608 0.78559
 H110 H 0.69861 -0.29965 0.81597
 H111 H 0.66041 -0.22785 0.78276
 Cu112 Cu 0.73633 -0.29322 0.76023
 Cu113 Cu 0.70728 -0.23573 0.73598
 Cu114 Cu 0.76408 -0.26517 0.70381
 N115 N 0.76812 -0.30994 0.74229
 N116 N 0.77896 -0.29848 0.72031
 C117 C 0.80176 -0.31243 0.71292
 C118 C 0.80543 -0.33381 0.73121
 C119 C 0.78361 -0.33179 0.74953
 H120 H 0.81516 -0.30694 0.69599
 H121 H 0.78003 -0.34456 0.76735
 N122 N 0.74602 -0.23149 0.69032
 N123 N 0.72461 -0.22016 0.70278
 C124 C 0.71869 -0.19619 0.69034
 C125 C 0.73713 -0.19235 0.66905
 C126 C 0.75409 -0.21511 0.66947
 H127 H 0.70283 -0.18200 0.69688
 H128 H 0.77182 -0.21870 0.65642
 H129 H 0.72407 -0.26999 0.71773
 H130 H 0.74774 -0.24908 0.73957
 N131 N 0.31056 0.25462 0.76928
 N132 N 0.29762 0.27585 0.77984
 C133 C 0.30923 0.28205 0.80417
 C134 C 0.33063 0.26383 0.80889
 C135 C 0.33099 0.24678 0.78633
 H136 H 0.30227 0.29810 0.81780
 H137 H 0.34432 0.22925 0.78317
 Cu138 Cu 0.26596 0.29210 0.76124
 Cu139 Cu 0.29817 0.23682 0.73576
 Cu140 Cu 0.24127 0.26514 0.70286
 N141 N 0.23443 0.30839 0.74246
 N142 N 0.22466 0.29735 0.71984
 C143 C 0.20170 0.31093 0.71214
 C144 C 0.19692 0.33166 0.73081
 C145 C 0.21810 0.32958 0.74976
 H146 H 0.18894 0.30563 0.69470
 H147 H 0.22063 0.34180 0.76807
 N148 N 0.26102 0.23260 0.68896
 N149 N 0.28251 0.22174 0.70170
 C150 C 0.28997 0.19857 0.68866
 C151 C 0.27246 0.19477 0.66665
 C152 C 0.25443 0.21672 0.66731
 H153 H 0.30628 0.18488 0.69520
 H154 H 0.23702 0.22006 0.65379
 H155 H 0.28046 0.27120 0.71828
 H156 H 0.25702 0.24841 0.73856
 N157 N 0.31111 -0.25400 0.23144
 N158 N 0.29885 -0.27596 0.22154
 C159 C 0.31027 -0.28214 0.19711
 C160 C 0.33087 -0.26316 0.19165
 C161 C 0.33094 -0.24567 0.21387
 H162 H 0.30374 -0.29879 0.18398
 H163 H 0.34374 -0.22762 0.21650
 Cu164 Cu 0.26835 -0.29387 0.24069
 Cu165 Cu 0.29873 -0.23633 0.26488
 Cu166 Cu 0.24209 -0.26465 0.29786
 N167 N 0.23574 -0.30858 0.25914
 N168 N 0.22540 -0.29682 0.28111
 C169 C 0.20199 -0.30991 0.28845
 C170 C 0.19747 -0.33106 0.27019
 C171 C 0.21928 -0.32973 0.25186
 H172 H 0.18882 -0.30409 0.30540
 H173 H 0.22226 -0.34250 0.23398
 N174 N 0.26182 -0.23214 0.31172
 N175 N 0.28327 -0.22122 0.29892
 C176 C 0.29079 -0.19804 0.31193
 C177 C 0.27333 -0.19429 0.33400
 C178 C 0.25527 -0.21629 0.33340
 H179 H 0.30710 -0.18430 0.30534
 H180 H 0.23787 -0.21970 0.34696
 H181 H 0.28154 -0.27077 0.28312
 H182 H 0.25792 -0.24952 0.26136
 N183 N 0.69250 0.25319 0.23172
 N184 N 0.70424 0.27544 0.22173
 C185 C 0.69207 0.28188 0.19773
 C186 C 0.67150 0.26279 0.19265
 C187 C 0.67224 0.24494 0.21465
 H188 H 0.69810 0.29872 0.18453
 H189 H 0.65982 0.22665 0.21738
 Cu190 Cu 0.73538 0.29262 0.24038
 Cu191 Cu 0.70634 0.23475 0.26439
 Cu192 Cu 0.76218 0.26494 0.29749
 N193 N 0.76638 0.30983 0.25923
 N194 N 0.77681 0.29862 0.28149
 C195 C 0.79928 0.31295 0.28930
 C196 C 0.80314 0.33428 0.27103
 C197 C 0.78188 0.33182 0.25221
 H198 H 0.81249 0.30763 0.30640
 H199 H 0.77883 0.34429 0.23410
 N200 N 0.74447 0.23085 0.31048
 N201 N 0.72341 0.21924 0.29767
 C202 C 0.71767 0.19505 0.30981
 C203 C 0.73589 0.19135 0.33127
 C204 C 0.75250 0.21443 0.33127
 H205 H 0.70211 0.18063 0.30295
 H206 H 0.77001 0.21822 0.34456
 H207 H 0.72240 0.26935 0.28272
 H208 H 0.74671 0.24865 0.26139
 C209 C 0.25150 -0.00133 0.42731
 C210 C 0.24602 0.02364 0.44038
 C211 C 0.24132 0.02383 0.46882
 C212 C 0.24446 -0.00032 0.48476
 C213 C 0.25004 -0.02513 0.47080
 C214 C 0.25297 -0.02581 0.44221
 C215 C 0.24434 0.00066 0.51568
 C216 C 0.24124 -0.02353 0.53158
 C217 C 0.24579 -0.02334 0.56004
 C218 C 0.25107 0.00167 0.57316
 C219 C 0.25245 0.02619 0.55829
 C220 C 0.24965 0.02552 0.52969
 H221 H 0.25442 -0.00176 0.40528
 H222 H 0.23608 0.04312 0.47833
 H223 H 0.25343 -0.04401 0.48187
 H224 H 0.23617 -0.04286 0.52203
 H225 H 0.25388 0.00209 0.59520
 H226 H 0.25296 0.04445 0.51865
 C227 C 0.75004 0.00189 0.57273
 C228 C 0.74831 0.02619 0.55754
 C229 C 0.75077 0.02512 0.52890
 C230 C 0.75606 0.00006 0.51519
 C231 C 0.75946 -0.02383 0.53138
 C232 C 0.75531 -0.02324 0.55988
 C233 C 0.75583 -0.00147 0.48430
 C234 C 0.75021 -0.02651 0.47065
 C235 C 0.74736 -0.02755 0.44205
 C236 C 0.74899 -0.00323 0.42686
 C237 C 0.75457 0.02188 0.43965
 C238 C 0.75914 0.02243 0.46809
 H239 H 0.74748 0.00262 0.59479
 H240 H 0.74723 0.04387 0.51763
 H241 H 0.76450 -0.04324 0.52200
 H242 H 0.74675 -0.04526 0.48196
 H243 H 0.74615 -0.00393 0.40484
 H244 H 0.76445 0.04181 0.47740
 C245 C 0.42705 0.25282 0.00341
 C246 C 0.44228 0.25425 0.02774
 C247 C 0.47122 0.25186 0.02673
 C248 C 0.48517 0.24685 0.00169
 C249 C 0.46890 0.24367 -0.02224
 C250 C 0.44012 0.24784 -0.02170
 C251 C 0.51639 0.24708 0.00021
 C252 C 0.53024 0.25252 -0.02481
 C253 C 0.55915 0.25512 -0.02596
 C254 C 0.57450 0.25357 -0.00171
 C255 C 0.56153 0.24821 0.02343
 C256 C 0.53275 0.24383 0.02407
 H257 H 0.40476 0.25530 0.00410
 H258 H 0.48252 0.25518 0.04552
 H259 H 0.47840 0.23876 -0.04165
 H260 H 0.51885 0.25597 -0.04353
 H261 H 0.59678 0.25619 -0.00246
 H262 H 0.52333 0.23866 0.04348
 C263 C 0.57362 0.74651 0.00126
 C264 C 0.55827 0.74527 0.02553
 C265 C 0.52938 0.74798 0.02443
 C266 C 0.51554 0.75307 -0.00067
 C267 C 0.53193 0.75600 -0.02459
 C268 C 0.56069 0.75161 -0.02392
 C269 C 0.48430 0.75317 -0.00214
 C270 C 0.47036 0.74787 -0.02712
 C271 C 0.44142 0.74531 -0.02811
 C272 C 0.42617 0.74684 -0.00378
 C273 C 0.43924 0.75218 0.02128
 C274 C 0.46801 0.75652 0.02175
 H275 H 0.59588 0.74384 0.00205
 H276 H 0.51802 0.74484 0.04323
 H277 H 0.52255 0.76091 -0.04406
 H278 H 0.48167 0.74449 -0.04590
 H279 H 0.40389 0.74421 -0.00440
 H280 H 0.47748 0.76168 0.04110
 C281 C -0.00362 0.42988 0.25060
 C282 C 0.02185 0.44260 0.24535
 C283 C 0.02263 0.47110 0.24094
 C284 C -0.00145 0.48739 0.24401
 C285 C -0.02683 0.47376 0.24931
 C286 C -0.02804 0.44514 0.25210
 C287 C 0.00018 0.51833 0.24398
 C288 C -0.02390 0.53460 0.24089
 C289 C -0.02319 0.56307 0.24534
 C290 C 0.00224 0.57584 0.25066
 C291 C 0.02672 0.56062 0.25201
 C292 C 0.02553 0.53199 0.24923
 H293 H -0.00453 0.40782 0.25334
 H294 H 0.04232 0.48035 0.23594
 H295 H -0.04573 0.48506 0.25262
 H296 H -0.04358 0.52534 0.23588
 H297 H 0.00303 0.59788 0.25345
 H298 H 0.04445 0.52069 0.25246
 C299 C -0.00359 0.57067 0.75025
 C300 C 0.02187 0.55807 0.75561
 C301 C 0.02262 0.52962 0.76034
 C302 C -0.00147 0.51321 0.75745
 C303 C -0.02685 0.52674 0.75215
 C304 C -0.02803 0.55532 0.74908
 C305 C 0.00018 0.48227 0.75758
 C306 C -0.02390 0.46589 0.76067
 C307 C -0.02315 0.43740 0.75624
 C308 C 0.00231 0.42476 0.75099
 C309 C 0.02676 0.44011 0.74956
 C310 C 0.02555 0.46872 0.75233
 H311 H -0.00448 0.59270 0.74725
 H312 H 0.04231 0.52048 0.76541
 H313 H -0.04579 0.51538 0.74902
 H314 H -0.04357 0.47507 0.76568
 H315 H 0.00318 0.40271 0.74821
 H316 H 0.04446 0.48009 0.74903
 C317 C 0.38249 0.26657 0.12675
 N318 N 0.36044 0.28376 0.12777
 N319 N 0.34460 0.28499 0.15008
 C320 C 0.35007 0.26890 0.17214
 N321 N 0.37218 0.25173 0.17121
 N322 N 0.38818 0.25065 0.14893
 C323 C 0.39892 0.26440 0.10151
 N324 N 0.42350 0.25089 0.10117
 N325 N 0.43769 0.24820 0.07786
 C326 C 0.42769 0.25872 0.05401
 N327 N 0.40316 0.27230 0.05448
 N328 N 0.38913 0.27520 0.07778
 C329 C 0.61735 0.73294 0.12491
 N330 N 0.61281 0.75042 0.14608
 N331 N 0.62869 0.74951 0.16842
 C332 C 0.64954 0.73094 0.17049
 N333 N 0.65382 0.71325 0.14943
 N334 N 0.63813 0.71434 0.12701
 C335 C 0.60106 0.73496 0.09958
 N336 N 0.61046 0.72325 0.07615
 N337 N 0.59661 0.72622 0.05274
 C338 C 0.57266 0.74076 0.05189
 N339 N 0.56303 0.75216 0.07544
 N340 N 0.57706 0.74943 0.09884
 C341 C 0.61747 0.26795 -0.12587
 N342 N 0.61118 0.25204 -0.14784
 N343 N 0.62656 0.25318 -0.17053
 C344 C 0.64861 0.27044 -0.17213
 N345 N 0.65472 0.28654 -0.15027
 N346 N 0.63951 0.28522 -0.12751
 C347 C 0.60154 0.26573 -0.10030
 N348 N 0.61189 0.27614 -0.07665
 N349 N 0.59822 0.27307 -0.05312
 C350 C 0.57351 0.25971 -0.05237
 N351 N 0.56298 0.24959 -0.07613
 N352 N 0.57680 0.25244 -0.09965
 C353 C 0.38187 0.73245 -0.12719
 N354 N 0.35978 0.71522 -0.12829
 N355 N 0.34393 0.71411 -0.15059
 C356 C 0.34941 0.73037 -0.17255
 N357 N 0.37156 0.74757 -0.17153
 N358 N 0.38757 0.74852 -0.14928
 C359 C 0.39828 0.73461 -0.10194
 N360 N 0.42291 0.74812 -0.10161
 N361 N 0.43702 0.75097 -0.07828
 C362 C 0.42689 0.74063 -0.05438
 N363 N 0.40231 0.72703 -0.05483
 N364 N 0.38836 0.72396 -0.07816
 C365 C 0.11979 0.37938 0.25427
 N366 N 0.14338 0.38554 0.24036
 N367 N 0.16595 0.37007 0.24335
 C368 C 0.16576 0.34808 0.26052
 N369 N 0.14223 0.34207 0.27450
 N370 N 0.11966 0.35738 0.27137
 C371 C 0.09458 0.39586 0.25104
 N372 N 0.07036 0.38657 0.26163
 N373 N 0.04735 0.40132 0.25933
 C374 C 0.04755 0.42604 0.24644
 N375 N 0.07186 0.43541 0.23583
 N376 N 0.09494 0.42052 0.23797
 C377 C 0.12000 0.62134 0.74604
 N378 N 0.14292 0.61656 0.76145
 N379 N 0.16540 0.63228 0.75860
 C380 C 0.16582 0.65319 0.74010
 N381 N 0.14297 0.65772 0.72456
 N382 N 0.12049 0.64217 0.72755
 C383 C 0.09475 0.60481 0.74932
 N384 N 0.07079 0.61348 0.73776
 N385 N 0.04771 0.59875 0.74024
 C386 C 0.04761 0.57465 0.75425
 N387 N 0.07166 0.56589 0.76581
 N388 N 0.09478 0.58078 0.76352
 C389 C -0.12160 0.62573 0.25322
 N390 N -0.14433 0.62048 0.23768
 N391 N -0.16704 0.63581 0.24024
 C392 C -0.16791 0.65678 0.25858
 N393 N -0.14521 0.66184 0.27418
 N394 N -0.12248 0.64669 0.27148
 C395 C -0.09622 0.60940 0.25042
 N396 N -0.07252 0.61809 0.26253
 N397 N -0.04938 0.60349 0.26047
 C398 C -0.04895 0.57951 0.24634
 N399 N -0.07274 0.57073 0.23423
 N400 N -0.09592 0.58549 0.23612
 C401 C -0.12164 0.37466 0.74677
 N402 N -0.14506 0.38066 0.76096
 N403 N -0.16786 0.36550 0.75773
 C404 C -0.16811 0.34396 0.74004
 N405 N -0.14472 0.33816 0.72577
 N406 N -0.12191 0.35315 0.72914
 C407 C -0.09621 0.39089 0.75024
 N408 N -0.07208 0.38166 0.73949
 N409 N -0.04893 0.39629 0.74193
 C410 C -0.04893 0.42083 0.75510
 N411 N -0.07314 0.43010 0.76589
 N412 N -0.09634 0.41533 0.76362
 C413 C 0.25451 0.12207 0.37882
 N414 N 0.27273 0.12308 0.35763
 N415 N 0.27533 0.14570 0.34250
 C416 C 0.25968 0.16815 0.34788
 N417 N 0.24143 0.16720 0.36909
 N418 N 0.23897 0.14460 0.38438
 C419 C 0.25160 0.09672 0.39492
 N420 N 0.23737 0.09620 0.41897
 N421 N 0.23531 0.07301 0.43346
 C422 C 0.24715 0.04945 0.42426
 N423 N 0.26121 0.05011 0.40014
 N424 N 0.26345 0.07325 0.38581
 C425 C 0.73412 0.12519 0.61641
 N426 N 0.75035 0.14738 0.61113
 N427 N 0.74899 0.16961 0.62700
 C428 C 0.73121 0.17050 0.64858
 N429 N 0.71478 0.14844 0.65363
 N430 N 0.71630 0.12617 0.63792
 C431 C 0.73669 0.09995 0.60016
 N432 N 0.72584 0.07610 0.60975
 N433 N 0.72922 0.05280 0.59595
 C434 C 0.74333 0.05245 0.57186
 N435 N 0.75387 0.07642 0.56205
 N436 N 0.75072 0.09973 0.57601
 C437 C 0.25430 -0.12185 0.62144
 N438 N 0.23865 -0.14436 0.61591
 N439 N 0.24109 -0.16700 0.63114
 C440 C 0.25943 -0.16800 0.65224
 N441 N 0.27520 -0.14557 0.65757
 N442 N 0.27261 -0.12291 0.64252
 C443 C 0.25141 -0.09647 0.60538
 N444 N 0.26320 -0.07295 0.61454
 N445 N 0.26096 -0.04980 0.60025
 C446 C 0.24695 -0.04917 0.57612
 N447 N 0.23518 -0.07278 0.56686
 N448 N 0.23723 -0.09598 0.58131
 C449 C 0.73262 -0.12640 0.38299
 N450 N 0.71483 -0.12731 0.36147
 N451 N 0.71335 -0.14948 0.34561
 C452 C 0.72979 -0.17150 0.35051
 N453 N 0.74753 -0.17068 0.37211
 N454 N 0.74885 -0.14856 0.38813
 C455 C 0.73525 -0.10123 0.39934
 N456 N 0.74941 -0.10106 0.42341
 N457 N 0.75269 -0.07779 0.43742
 C458 C 0.74216 -0.05380 0.42774
 N459 N 0.72791 -0.05411 0.40374
 N460 N 0.72441 -0.07737 0.38990
 C461 C 0.62362 0.74349 -0.12162
 N462 N 0.64519 0.72568 -0.12253
 N463 N 0.66034 0.72310 -0.14519
 C464 C 0.65459 0.73836 -0.16776
 N465 N 0.63302 0.75620 -0.16689
 N466 N 0.61771 0.75864 -0.14426
 C467 C 0.60729 0.74632 -0.09639
 N468 N 0.58285 0.76009 -0.09620
 N469 N 0.56803 0.76206 -0.07319
 C470 C 0.57726 0.75058 -0.04947
 N471 N 0.60180 0.73700 -0.04978
 N472 N 0.61648 0.73485 -0.07275
 C473 C 0.37812 0.25623 -0.11989
 N474 N 0.38492 0.24194 -0.14279
 N475 N 0.36988 0.24446 -0.16556
 C476 C 0.34768 0.26153 -0.16631
 N477 N 0.34105 0.27597 -0.14348
 N478 N 0.35595 0.27330 -0.12068
 C479 C 0.39416 0.25326 -0.09451
 N480 N 0.38436 0.26395 -0.07078
 N481 N 0.39882 0.26173 -0.04769
 C482 C 0.42372 0.24882 -0.04735
 N483 N 0.43355 0.23809 -0.07116
 N484 N 0.41896 0.24014 -0.09429
 C485 C 0.37762 0.74442 0.11986
 N486 N 0.35586 0.72678 0.12115
 N487 N 0.34118 0.72415 0.14413
 C488 C 0.34763 0.73919 0.16662
 N489 N 0.36940 0.75685 0.16537
 N490 N 0.38422 0.75934 0.14242
 C491 C 0.39350 0.74725 0.09434
 N492 N 0.41806 0.76090 0.09375
 N493 N 0.43255 0.76281 0.07052
 C494 C 0.42287 0.75139 0.04698
 N495 N 0.39821 0.73794 0.04766
 N496 N 0.38385 0.73586 0.07086
 C497 C 0.62387 0.25548 0.12148
 N498 N 0.64543 0.27336 0.12264
 N499 N 0.66034 0.27590 0.14544
 C500 C 0.65436 0.26053 0.16790
 N501 N 0.63280 0.24260 0.16677
 N502 N 0.61773 0.24021 0.14400
 C503 C 0.60778 0.25276 0.09611
 N504 N 0.58329 0.23899 0.09568
 N505 N 0.56862 0.23722 0.07257
 C506 C 0.57805 0.24890 0.04901
 N507 N 0.60265 0.26245 0.04953
 N508 N 0.61718 0.26440 0.07261
 C509 C -0.12760 0.61445 0.73470
 N510 N -0.12903 0.63455 0.71547
 N511 N -0.15103 0.65089 0.71404
 C512 C -0.17235 0.64799 0.73198
 N513 N -0.17103 0.62774 0.75113
 N514 N -0.14908 0.61121 0.75242
 C515 C -0.10238 0.59787 0.73723
 N516 N -0.10186 0.57477 0.75286
 N517 N -0.07839 0.56071 0.75605
 C518 C -0.05457 0.56944 0.74396
 N519 N -0.05523 0.59244 0.72824
 N520 N -0.07869 0.60629 0.72482
 C521 C -0.12787 0.38609 0.26698
 N522 N -0.15028 0.39090 0.25086
 N523 N -0.17250 0.37465 0.25234
 C524 C -0.17313 0.35317 0.27011
 N525 N -0.15086 0.34860 0.28641
 N526 N -0.12861 0.36468 0.28479
 C527 C -0.10250 0.40250 0.26422
 N528 N -0.07849 0.39321 0.27522
 N529 N -0.05498 0.40705 0.27169
 C530 C -0.05457 0.43088 0.25725
 N531 N -0.07870 0.44043 0.24654
 N532 N -0.10223 0.42641 0.24985
 C533 C 0.12699 0.38197 0.73494
 N534 N 0.12801 0.36058 0.71719
 N535 N 0.15052 0.34493 0.71554
 C536 C 0.17277 0.34993 0.73178
 N537 N 0.17183 0.37139 0.74949
 N538 N 0.14936 0.38721 0.75098
 C539 C 0.10146 0.39806 0.73766
 N540 N 0.10106 0.42204 0.75182
 N541 N 0.07745 0.43583 0.75508
 C542 C 0.05335 0.42600 0.74452
 N543 N 0.05388 0.40209 0.73028
 N544 N 0.07747 0.38846 0.72680
 C545 C 0.12715 0.61892 0.26608
 N546 N 0.12812 0.64066 0.28341
 N547 N 0.15074 0.65622 0.28502
 C548 C 0.17317 0.65079 0.26918
 N549 N 0.17229 0.62897 0.25189
 N550 N 0.14970 0.61325 0.25044
 C551 C 0.10153 0.60287 0.26344
 N552 N 0.10112 0.57859 0.24980
 N553 N 0.07746 0.56477 0.24667
 C554 C 0.05333 0.57486 0.25686
 N555 N 0.05387 0.59908 0.27057
 N556 N 0.07751 0.61275 0.27390
 C557 C 0.74625 -0.12143 0.62152
 N558 N 0.72873 -0.12196 0.64329
 N559 N 0.72558 -0.14470 0.65812
 C560 C 0.73995 -0.16774 0.65184
 N561 N 0.75748 -0.16728 0.63004
 N562 N 0.76049 -0.14454 0.61505
 C563 C 0.74964 -0.09606 0.60561
 N564 N 0.76297 -0.09590 0.58107
 N565 N 0.76520 -0.07275 0.56658
 C566 C 0.75442 -0.04887 0.57624
 N567 N 0.74134 -0.04915 0.60089
 N568 N 0.73894 -0.07226 0.61525
 C569 C 0.26857 -0.12467 0.38366
 N570 N 0.25377 -0.14754 0.39004
 N571 N 0.25551 -0.16993 0.37445
 C572 C 0.27226 -0.17026 0.35207
 N573 N 0.28726 -0.14750 0.34591
 N574 N 0.28536 -0.12509 0.36135
 C575 C 0.26554 -0.09940 0.39967
 N576 N 0.27535 -0.07530 0.38960
 N577 N 0.27161 -0.05202 0.40332
 C578 C 0.25813 -0.05193 0.42775
 N579 N 0.24859 -0.07613 0.43800
 N580 N 0.25212 -0.09943 0.42414
 C581 C 0.74543 0.12017 0.37823
 N582 N 0.75938 0.14343 0.38498
 N583 N 0.75624 0.16624 0.37016
 C584 C 0.73887 0.16664 0.34826
 N585 N 0.72482 0.14344 0.34168
 N586 N 0.72810 0.12063 0.35635
 C587 C 0.74885 0.09478 0.39406
 N588 N 0.73819 0.07094 0.38437
 N589 N 0.74058 0.04782 0.39869
 C590 C 0.75364 0.04755 0.42334
 N591 N 0.76437 0.07146 0.43305
 N592 N 0.76214 0.09463 0.41860
 C593 C 0.26762 0.12510 0.61702
 N594 N 0.28447 0.12560 0.63927
 N595 N 0.28638 0.14802 0.65471
 C596 C 0.27135 0.17071 0.64860
 N597 N 0.25454 0.17030 0.62628
 N598 N 0.25279 0.14790 0.61070
 C599 C 0.26465 0.09982 0.60098
 N600 N 0.25122 0.09978 0.57652
 N601 N 0.24779 0.07648 0.56263
 C602 C 0.25745 0.05234 0.57281
 N603 N 0.27093 0.05249 0.59723
 N604 N 0.27456 0.07578 0.61099
   
