data_POSCAR
  _audit_creation_date              2014-09-24
  _audit_creation_method            'ToBaCCo'
  _symmetry_space_group_name_H-M    'P1'
  _symmetry_Int_Tables_number       1
  _symmetry_cell_setting            triclinic
  loop_
  _symmetry_equiv_pos_as_xyz
 x,y,z
_cell_length_a 25.6343
_cell_length_b 24.5727
_cell_length_c 24.7877
_cell_angle_alpha 90.014400
_cell_angle_beta 89.937400
_cell_angle_gamma 89.987600
loop_
  _atom_site_label
  _atom_site_type_symbol
  _atom_site_fract_x
  _atom_site_fract_y
  _atom_site_fract_z
C1 C 0.43900 1.00644 -0.52479
 C2 C 0.43855 0.98949 -0.47011
 C3 C 0.48612 0.97935 -0.44395
 C4 C 0.53526 0.98824 -0.46847
 C5 C 0.53607 1.00971 -0.52212
 C6 C 0.48775 1.01802 -0.54863
 H7 H 0.48859 1.02796 -0.59117
 H8 H 0.48458 0.96888 -0.40150
 C9 C -0.56162 1.47419 -0.01311
 C10 C -0.56313 1.52851 -0.03290
 C11 C -0.51527 1.55439 -0.04444
 C12 C -0.46699 1.52873 -0.03690
 C13 C -0.46583 1.47395 -0.01991
 C14 C -0.51316 1.44776 -0.00825
 H15 H -0.51248 1.40517 0.00319
 H16 H -0.51509 1.59715 -0.05522
 C17 C 0.08593 0.52752 0.55518
 C18 C 0.06735 0.47272 0.55353
 C19 C 0.06235 0.44729 0.50289
 C20 C 0.07032 0.47505 0.45448
 C21 C 0.08758 0.52932 0.45597
 C22 C 0.09809 0.55356 0.50594
 H23 H 0.10860 0.59630 0.50600
 H24 H 0.05250 0.40444 0.50066
 O25 O -0.14872 0.99948 -0.06908
 O26 O 0.12038 0.99447 -0.06956
 O27 O -0.01541 1.06990 -0.13552
 O28 O -0.01095 0.92177 -0.13225
 O29 O -0.01230 0.85771 -0.06428
 O30 O -0.01669 1.13663 -0.07029
 O31 O 0.05632 0.99432 -0.13492
 O32 O -0.08412 0.99937 -0.13420
 Zr33 Zr -0.01405 0.99680 -0.09037
 O34 O 0.03362 0.94882 -0.04350
 O35 O -0.06211 1.04635 -0.04509
 C36 C -0.13250 1.00111 -0.11897
 C37 C 0.10467 0.99257 -0.11935
 C38 C -0.01609 1.12040 -0.11996
 C39 C -0.01025 0.87205 -0.11447
 H40 H 0.05492 1.06928 -0.06930
 O41 O 0.03292 1.04671 -0.04540
 H42 H -0.08335 0.92499 -0.06589
 O43 O -0.06135 0.94872 -0.04309
 O44 O 0.12130 1.00425 0.07659
 O45 O -0.14787 0.99631 0.08001
 O46 O 0.05464 1.13885 0.00085
 O47 O 0.05587 0.85929 0.00689
 O48 O -0.08338 0.85904 0.01004
 O49 O -0.08548 1.13766 0.00054
 O50 O -0.01157 1.07547 0.14155
 O51 O -0.01148 0.92817 0.14505
 O52 O -0.01107 1.13967 0.07380
 O53 O -0.01534 0.86123 0.08000
 O54 O 0.12009 1.07428 0.00280
 O55 O -0.14924 1.07151 0.00394
 O56 O -0.14850 0.92370 0.00665
 O57 O 0.12064 0.92449 0.00358
 O58 O 0.05796 1.00445 0.14282
 O59 O -0.08255 0.99686 0.14420
 Zr60 Zr 0.07866 0.99926 0.00385
 Zr61 Zr -0.10667 0.99801 0.00520
 Zr62 Zr -0.01482 1.09349 0.00262
 Zr63 Zr -0.01379 0.90412 0.00673
 Zr64 Zr -0.01294 1.00074 0.09945
 O65 O -0.06107 0.95050 0.05510
 O66 O 0.03374 1.04925 0.05199
 C67 C 0.10614 1.00621 0.12660
 C68 C -0.13108 0.99486 0.12966
 C69 C 0.10322 1.12425 0.00096
 C70 C 0.10426 0.87433 0.00529
 C71 C -0.13189 0.87378 0.00913
 C72 C -0.13377 1.12178 0.00168
 C73 C -0.00966 1.12520 0.12400
 C74 C -0.01316 0.87778 0.12953
 H75 H -0.08335 1.07166 0.07597
 O76 O -0.06140 1.04813 0.05286
 H77 H 0.05675 0.92888 0.07726
 O78 O 0.03413 0.95131 0.05387
 C79 C 0.35256 0.96992 0.44916
 C80 C 0.30995 0.96884 0.41388
 C81 C 0.30721 1.00500 0.37045
 C82 C 0.34659 1.04408 0.36400
 C83 C 0.38875 1.04591 0.39965
 C84 C 0.39322 1.00823 0.44253
 N85 N 0.26521 1.00019 0.33251
 N86 N 0.26701 1.02323 0.28652
 C87 C 0.22586 1.01885 0.24764
 C88 C 0.23504 1.03685 0.19493
 C89 C 0.19633 1.03232 0.15551
 C90 C 0.14718 1.01050 0.16844
 C91 C 0.13773 0.99313 0.22166
 C92 C 0.17688 0.99684 0.26087
 H93 H 0.35478 0.93851 0.47962
 H94 H 0.27998 0.93824 0.41916
 H95 H 0.34492 1.07317 0.33125
 H96 H 0.41756 1.07755 0.39372
 H97 H 0.27258 1.05398 0.18425
 H98 H 0.20469 1.04645 0.11503
 H99 H 0.10031 0.97601 0.23281
 H100 H 0.16882 0.98282 0.30143
 C101 C -0.41558 1.06051 0.40897
 C102 C -0.37728 1.06239 0.36906
 C103 C -0.34009 1.02119 0.36487
 C104 C -0.33958 0.97941 0.40377
 C105 C -0.37812 0.97744 0.44424
 C106 C -0.41816 1.01690 0.44604
 N107 N -0.30575 1.02168 0.31902
 N108 N -0.26928 0.98722 0.31201
 C109 C -0.23670 0.98813 0.26475
 C110 C -0.18986 0.95899 0.26520
 C111 C -0.15624 0.96062 0.22079
 C112 C -0.16938 0.99049 0.17429
 C113 C -0.21731 1.01815 0.17289
 C114 C -0.25053 1.01747 0.21802
 H115 H -0.44447 1.09271 0.40984
 H116 H -0.37773 1.09525 0.33994
 H117 H -0.31095 0.94710 0.40148
 H118 H -0.37885 0.94267 0.47103
 H119 H -0.17882 0.93591 0.30061
 H120 H -0.11968 0.93859 0.22285
 H121 H -0.22823 1.04166 0.13771
 H122 H -0.28684 1.03991 0.21645
 C123 C -0.41862 0.93823 -0.39734
 C124 C -0.38096 0.93625 -0.35683
 C125 C -0.34321 0.97687 -0.35263
 C126 C -0.34169 1.01831 -0.39186
 C127 C -0.37960 1.02041 -0.43287
 C128 C -0.42000 0.98138 -0.43504
 N129 N -0.30901 0.97597 -0.30672
 N130 N -0.27206 1.00988 -0.29991
 C131 C -0.23926 1.00865 -0.25288
 C132 C -0.19250 1.03788 -0.25354
 C133 C -0.15857 1.03596 -0.20949
 C134 C -0.17124 1.00563 -0.16313
 C135 C -0.21911 0.97785 -0.16146
 C136 C -0.25269 0.97887 -0.20626
 H137 H -0.44768 0.90624 -0.39841
 H138 H -0.38219 0.90364 -0.32747
 H139 H -0.31266 1.05019 -0.38954
 H140 H -0.37943 1.05493 -0.45998
 H141 H -0.18175 1.06129 -0.28886
 H142 H -0.12210 1.05812 -0.21174
 H143 H -0.22969 0.95402 -0.12637
 H144 H -0.28892 0.95632 -0.20454
 C145 C 0.35544 1.03371 -0.43761
 C146 C 0.31283 1.03591 -0.40232
 C147 C 0.30516 0.99496 -0.36389
 C148 C 0.33931 0.95023 -0.36280
 C149 C 0.38119 0.94734 -0.39888
 C150 C 0.39033 0.98950 -0.43611
 N151 N 0.26374 1.00048 -0.32531
 N152 N 0.26381 0.97395 -0.28119
 C153 C 0.22311 0.97888 -0.24179
 C154 C 0.23209 0.95941 -0.18959
 C155 C 0.19385 0.96451 -0.14968
 C156 C 0.14527 0.98810 -0.16167
 C157 C 0.13593 1.00684 -0.21443
 C158 C 0.17473 1.00278 -0.25407
 H159 H 0.36190 1.06725 -0.46514
 H160 H 0.28685 1.07064 -0.40356
 H161 H 0.33382 0.91776 -0.33385
 H162 H 0.40709 0.91256 -0.39706
 H163 H 0.26916 0.94081 -0.17965
 H164 H 0.20210 0.94939 -0.10957
 H165 H 0.09890 1.02530 -0.22481
 H166 H 0.16684 1.01789 -0.29427
 C167 C 0.38833 1.41044 0.04579
 C168 C 0.35039 1.37025 0.05238
 C169 C 0.31461 1.35952 0.01125
 C170 C 0.31566 1.39140 -0.03596
 C171 C 0.35400 1.43147 -0.04279
 C172 C 0.39142 1.44042 -0.00242
 N173 N 0.27984 1.31423 0.01724
 N174 N 0.24366 1.30445 -0.01646
 C175 C 0.20999 1.25818 -0.01159
 C176 C 0.16364 1.25757 -0.04111
 C177 C 0.12937 1.21372 -0.03690
 C178 C 0.14142 1.16889 -0.00397
 C179 C 0.18869 1.16857 0.02457
 C180 C 0.22259 1.21330 0.02128
 H181 H 0.41685 1.41658 0.07743
 H182 H 0.34990 1.34618 0.08897
 H183 H 0.28835 1.38384 -0.06837
 H184 H 0.35607 1.45348 -0.08058
 H185 H 0.15370 1.29161 -0.06687
 H186 H 0.09341 1.21467 -0.05975
 H187 H 0.19872 1.13450 0.05026
 H188 H 0.25860 1.21272 0.04405
 C189 C 0.38621 0.59797 -0.08034
 C190 C 0.34719 0.63739 -0.08017
 C191 C 0.31151 0.64013 -0.03781
 C192 C 0.31295 0.60028 0.00292
 C193 C 0.35209 0.56031 0.00277
 C194 C 0.39076 0.56003 -0.03779
 N195 N 0.27691 0.68585 -0.03567
 N196 N 0.24287 0.69196 0.00118
 C197 C 0.21022 0.73927 0.00330
 C198 C 0.16559 0.73813 0.03564
 C199 C 0.13185 0.78270 0.03697
 C200 C 0.14285 0.82982 0.00680
 C201 C 0.18873 0.83192 -0.02402
 C202 C 0.22200 0.78671 -0.02623
 H203 H 0.41391 0.59811 -0.11339
 H204 H 0.34602 0.66736 -0.11218
 H205 H 0.28551 0.60158 0.03611
 H206 H 0.35450 0.53308 0.03697
 H207 H 0.15631 0.70211 0.05891
 H208 H 0.09686 0.78024 0.06140
 H209 H 0.19787 0.86767 -0.04773
 H210 H 0.25671 0.78872 -0.05106
 C211 C -0.41312 0.59821 -0.08542
 C212 C -0.37466 0.63841 -0.08468
 C213 C -0.34165 0.64375 -0.04014
 C214 C -0.34586 0.60664 0.00284
 C215 C -0.38472 0.56674 0.00239
 C216 C -0.41950 0.56301 -0.04120
 N217 N -0.30668 0.68909 -0.03797
 N218 N -0.27265 0.69387 -0.00098
 C219 C -0.23918 0.74028 0.00250
 C220 C -0.19326 0.73619 0.03248
 C221 C -0.15885 0.78004 0.03526
 C222 C -0.17061 0.82942 0.00938
 C223 C -0.21768 0.83424 -0.01915
 C224 C -0.25155 0.78973 -0.02309
 H225 H -0.43947 0.59608 -0.11949
 H226 H -0.37165 0.66663 -0.11809
 H227 H -0.32078 0.61004 0.03778
 H228 H -0.38939 0.54077 0.03736
 H229 H -0.18351 0.69842 0.05260
 H230 H -0.12277 0.77520 0.05732
 H231 H -0.22739 0.87172 -0.03985
 H232 H -0.28725 0.79388 -0.04601
 C233 C -0.38034 1.44259 -0.05930
 C234 C -0.33743 1.40737 -0.05900
 C235 C -0.33097 1.36982 -0.01708
 C236 C -0.36629 1.36996 0.02627
 C237 C -0.40851 1.40585 0.02658
 C238 C -0.41676 1.44167 -0.01682
 N239 N -0.28993 1.33038 -0.02039
 N240 N -0.29147 1.28674 0.00721
 C241 C -0.25138 1.24625 0.00483
 C242 C -0.26111 1.19514 0.02752
 C243 C -0.22322 1.15434 0.02564
 C244 C -0.17439 1.16445 0.00186
 C245 C -0.16446 1.21603 -0.02052
 C246 C -0.20284 1.25652 -0.01949
 H247 H -0.38611 1.46903 -0.09372
 H248 H -0.31046 1.40766 -0.09265
 H249 H -0.36168 1.34181 0.05952
 H250 H -0.43554 1.40469 0.06017
 H251 H -0.29837 1.18683 0.04644
 H252 H -0.23179 1.11519 0.04368
 H253 H -0.12719 1.22488 -0.03919
 H254 H -0.19444 1.29585 -0.03713
 C255 C 0.09618 1.44358 0.36165
 C256 C 0.08810 1.40924 0.31737
 C257 C 0.04377 1.37600 0.31520
 C258 C 0.00567 1.38022 0.35565
 C259 C 0.01326 1.41495 0.39924
 C260 C 0.05937 1.44549 0.40363
 N261 N 0.03950 1.33575 0.27384
 N262 N 0.00984 1.29471 0.28005
 C263 C 0.00465 1.25321 0.24014
 C264 C -0.01963 1.20426 0.25433
 C265 C -0.02412 1.16220 0.21675
 C266 C -0.00524 1.16919 0.16403
 C267 C 0.01845 1.21873 0.14966
 C268 C 0.02372 1.26032 0.18755
 H269 H 0.13204 1.46671 0.36428
 H270 H 0.11760 1.40645 0.28620
 H271 H -0.02935 1.35564 0.35425
 H272 H -0.01613 1.41659 0.43064
 H273 H -0.03448 1.19851 0.29485
 H274 H -0.04275 1.12452 0.22871
 H275 H 0.03367 1.22500 0.10935
 H276 H 0.04250 1.29795 0.17576
 C277 C 0.08625 1.44352 -0.35295
 C278 C 0.07671 1.40775 -0.31007
 C279 C 0.03729 1.36854 -0.31399
 C280 C 0.00547 1.36729 -0.35979
 C281 C 0.01432 1.40315 -0.40208
 C282 C 0.05577 1.44095 -0.40026
 N283 N 0.03102 1.32902 -0.27222
 N284 N 0.00637 1.28492 -0.28095
 C285 C -0.00113 1.24477 -0.24009
 C286 C -0.01679 1.19233 -0.25507
 C287 C -0.02239 1.15161 -0.21613
 C288 C -0.01341 1.16337 -0.16146
 C289 C 0.00063 1.21668 -0.14656
 C290 C 0.00719 1.25689 -0.18555
 H291 H 0.11913 1.47098 -0.35006
 H292 H 0.10145 1.40908 -0.27471
 H293 H -0.02611 1.33823 -0.36312
 H294 H -0.01177 1.40130 -0.43639
 H295 H -0.02355 1.18277 -0.29713
 H296 H -0.03341 1.11104 -0.22881
 H297 H 0.00770 1.22724 -0.10480
 H298 H 0.01878 1.29735 -0.17310
 C299 C 0.12180 0.60138 -0.38974
 C300 C 0.11465 0.64156 -0.35073
 C301 C 0.06944 0.64236 -0.31940
 C302 C 0.03244 0.60065 -0.32526
 C303 C 0.03934 0.56044 -0.36447
 C304 C 0.08356 0.56100 -0.39840
 N305 N 0.06038 0.68797 -0.28487
 N306 N 0.02089 0.69078 -0.25394
 C307 C 0.01122 0.73773 -0.22144
 C308 C -0.02302 0.73338 -0.17777
 C309 C -0.03117 0.77776 -0.14371
 C310 C -0.00613 0.82759 -0.15382
 C311 C 0.02640 0.83273 -0.19906
 C312 C 0.03546 0.78788 -0.23243
 H313 H 0.15684 0.60267 -0.41419
 H314 H 0.14361 0.67331 -0.34621
 H315 H -0.00302 0.60065 -0.30150
 H316 H 0.00795 0.53171 -0.37079
 H317 H -0.04220 0.69506 -0.16926
 H318 H -0.05656 0.77303 -0.10905
 H319 H 0.04642 0.87067 -0.20726
 H320 H 0.06161 0.79222 -0.26648
 C321 C 0.12543 0.60205 0.39690
 C322 C 0.11817 0.64351 0.35909
 C323 C 0.07055 0.64854 0.33203
 C324 C 0.03098 0.61010 0.34118
 C325 C 0.03797 0.56911 0.37924
 C326 C 0.08488 0.56529 0.40818
 N327 N 0.06182 0.69476 0.29826
 N328 N 0.01990 0.69984 0.27138
 C329 C 0.00952 0.74659 0.23904
 C330 C -0.02882 0.74306 0.19921
 C331 C -0.03774 0.78682 0.16470
 C332 C -0.00935 0.83523 0.17070
 C333 C 0.02722 0.83987 0.21251
 C334 C 0.03704 0.79552 0.24624
 H335 H 0.16175 0.60007 0.41911
 H336 H 0.14894 0.67290 0.35226
 H337 H -0.00626 0.61323 0.32085
 H338 H 0.00556 0.54235 0.38827
 H339 H -0.05052 0.70565 0.19375
 H340 H -0.06605 0.78257 0.13267
 H341 H 0.04992 0.87673 0.21733
 H342 H 0.06641 0.79916 0.27738
   
