data_POSCAR
  _audit_creation_date              2014-09-24
  _audit_creation_method            'ToBaCCo'
  _symmetry_space_group_name_H-M    'P1'
  _symmetry_Int_Tables_number       1
  _symmetry_cell_setting            triclinic
  loop_
  _symmetry_equiv_pos_as_xyz
 x,y,z
_cell_length_a 46.6246
_cell_length_b 45.7223
_cell_length_c 45.4907
_cell_angle_alpha 88.528400
_cell_angle_beta 90.447500
_cell_angle_gamma 90.146600
loop_
  _atom_site_label
  _atom_site_type_symbol
  _atom_site_fract_x
  _atom_site_fract_y
  _atom_site_fract_z
N1 N 0.59258 0.67438 0.60974
 N2 N 0.57684 0.65829 0.62777
 C3 C 0.55322 0.67336 0.63483
 C4 C 0.55433 0.70046 0.62064
 C5 C 0.57965 0.70038 0.60495
 H6 H 0.53670 0.66537 0.64956
 H7 H 0.58771 0.71767 0.59059
 Cu8 Cu 0.58873 0.61951 0.64125
 Cu9 Cu 0.62758 0.65959 0.59241
 Cu10 Cu 0.65432 0.59545 0.62318
 N11 N 0.60732 0.58759 0.66296
 N12 N 0.63317 0.57874 0.65628
 C13 C 0.64113 0.55715 0.67521
 C14 C 0.61899 0.55194 0.69501
 C15 C 0.59782 0.57181 0.68632
 H16 H 0.66149 0.54602 0.67425
 H17 H 0.57721 0.57511 0.69639
 N18 N 0.67238 0.61582 0.58949
 N19 N 0.66247 0.64058 0.57796
 C20 C 0.67888 0.64862 0.55487
 C21 C 0.70007 0.62778 0.55160
 C22 C 0.69526 0.60735 0.57402
 H23 H 0.67507 0.66767 0.54083
 H24 H 0.70738 0.58762 0.57860
 H25 H 0.62080 0.61531 0.59966
 H26 H 0.63695 0.63629 0.63070
 N27 N 0.91176 0.32998 0.11441
 N28 N 0.92195 0.34118 0.13866
 C29 C 0.94517 0.32582 0.14760
 C30 C 0.95006 0.30382 0.12770
 C31 C 0.92827 0.30734 0.10689
 H32 H 0.95783 0.33074 0.16683
 H33 H 0.92421 0.29417 0.08791
 Cu34 Cu 0.90422 0.37538 0.15536
 Cu35 Cu 0.87727 0.34495 0.09484
 Cu36 Cu 0.84491 0.40536 0.12525
 N37 N 0.88640 0.40951 0.17207
 N38 N 0.86305 0.42102 0.16031
 C39 C 0.85536 0.44441 0.17579
 C40 C 0.87506 0.44791 0.19840
 C41 C 0.89445 0.42531 0.19531
 H42 H 0.83715 0.45823 0.17055
 H43 H 0.91301 0.42071 0.20902
 N44 N 0.82993 0.38626 0.08984
 N45 N 0.84219 0.36322 0.07840
 C46 C 0.82672 0.35495 0.05490
 C47 C 0.80366 0.37372 0.05123
 C48 C 0.80644 0.39333 0.07378
 H49 H 0.83192 0.33668 0.04134
 H50 H 0.79207 0.41109 0.07847
 H51 H 0.88158 0.38754 0.10820
 H52 H 0.85895 0.36276 0.13159
 N53 N 0.40887 0.17007 -0.11319
 N54 N 0.42385 0.15354 -0.13058
 C55 C 0.44840 0.16746 -0.13775
 C56 C 0.44870 0.19427 -0.12429
 C57 C 0.42322 0.19520 -0.10893
 H58 H 0.46470 0.15883 -0.15190
 H59 H 0.41608 0.21251 -0.09500
 Cu60 Cu 0.40995 0.11553 -0.14258
 Cu61 Cu 0.37301 0.15685 -0.09563
 Cu62 Cu 0.34374 0.09336 -0.12251
 N63 N 0.39019 0.08393 -0.16221
 N64 N 0.36441 0.07538 -0.15428
 C65 C 0.35568 0.05373 -0.17170
 C66 C 0.37711 0.04834 -0.19180
 C67 C 0.39876 0.06799 -0.18502
 H68 H 0.33518 0.04280 -0.16982
 H69 H 0.41899 0.07096 -0.19615
 N70 N 0.32622 0.11502 -0.09045
 N71 N 0.33708 0.13958 -0.08056
 C72 C 0.32049 0.14903 -0.05867
 C73 C 0.29812 0.12940 -0.05447
 C74 C 0.30249 0.10812 -0.07507
 H75 H 0.32482 0.16833 -0.04614
 H76 H 0.28937 0.08901 -0.07863
 H77 H 0.37797 0.11228 -0.10049
 H78 H 0.36224 0.13355 -0.13250
 N79 N 0.09317 0.82320 0.38872
 N80 N 0.08606 0.83146 0.36180
 C81 C 0.06332 0.81565 0.35296
 C82 C 0.05551 0.79639 0.37572
 C83 C 0.07513 0.80200 0.39807
 H84 H 0.05306 0.81854 0.33171
 H85 H 0.07654 0.79143 0.41953
 Cu86 Cu 0.10645 0.86274 0.34100
 Cu87 Cu 0.12554 0.84014 0.40950
 Cu88 Cu 0.15431 0.90319 0.37854
 N89 N 0.11917 0.90095 0.32655
 N90 N 0.13683 0.91720 0.34184
 C91 C 0.14129 0.94269 0.32711
 C92 C 0.12579 0.94229 0.30106
 C93 C 0.11204 0.91542 0.30140
 H94 H 0.15536 0.95992 0.33442
 H95 H 0.09765 0.90716 0.28479
 N96 N 0.16911 0.88510 0.41536
 N97 N 0.15840 0.86072 0.42690
 C98 C 0.17399 0.85280 0.45081
 C99 C 0.19560 0.87322 0.45458
 C100 C 0.19175 0.89345 0.43171
 H101 H 0.17004 0.83345 0.46433
 H102 H 0.20509 0.91226 0.42672
 H103 H 0.11737 0.88049 0.38954
 H104 H 0.14758 0.85872 0.37410
 C105 C 0.10364 0.14975 0.12647
 C106 C 0.10466 0.12707 0.14782
 C107 C 0.12473 0.10442 0.14574
 C108 C 0.14438 0.10498 0.12251
 C109 C 0.14421 0.12804 0.10148
 C110 C 0.12348 0.15013 0.10343
 H111 H 0.08919 0.12650 0.16549
 H112 H 0.16036 0.08788 0.12138
 H113 H 0.12278 0.16772 0.08702
 C114 C 0.40157 0.85671 0.62576
 C115 C 0.37905 0.85517 0.60522
 C116 C 0.35689 0.87589 0.60489
 C117 C 0.35717 0.89795 0.62580
 C118 C 0.37923 0.89943 0.64695
 C119 C 0.40164 0.87896 0.64645
 H120 H 0.37916 0.83818 0.58904
 H121 H 0.33993 0.91379 0.62583
 H122 H 0.41859 0.87957 0.66286
 C123 C 0.89433 0.64964 0.37238
 C124 C 0.87235 0.64890 0.39330
 C125 C 0.85090 0.62732 0.39259
 C126 C 0.85158 0.60634 0.37057
 C127 C 0.87346 0.60675 0.34950
 C128 C 0.89465 0.62859 0.35048
 H129 H 0.87215 0.66498 0.41039
 H130 H 0.83526 0.58945 0.37005
 H131 H 0.91168 0.62898 0.33439
 C132 C 0.60126 0.35181 -0.12252
 C133 C 0.59921 0.37548 -0.14266
 C134 C 0.62016 0.39760 -0.14317
 C135 C 0.64280 0.39632 -0.12263
 C136 C 0.64487 0.37302 -0.10200
 C137 C 0.62418 0.35064 -0.10235
 H138 H 0.58189 0.37608 -0.15869
 H139 H 0.65895 0.41341 -0.12284
 H140 H 0.62547 0.33265 -0.08642
 C141 C 0.01616 0.23973 0.13029
 C142 C -0.00153 0.24338 0.10508
 C143 C -0.02354 0.26430 0.10453
 C144 C -0.02789 0.28267 0.12847
 C145 C -0.00958 0.27948 0.15309
 C146 C 0.01194 0.25827 0.15410
 C147 C 0.03890 0.21656 0.13026
 C148 C 0.05616 0.20956 0.15506
 C149 C 0.07703 0.18777 0.15383
 C150 C 0.08145 0.17271 0.12783
 C151 C 0.06430 0.17931 0.10312
 C152 C 0.04284 0.20070 0.10428
 C153 C 0.00308 0.22646 0.08032
 C154 C 0.02506 0.20591 0.07977
 H155 H -0.01031 0.22939 0.06089
 H156 H 0.02795 0.19362 0.05995
 H157 H -0.03674 0.26652 0.08493
 H158 H -0.01195 0.29298 0.17207
 H159 H 0.09002 0.18285 0.17317
 H160 H 0.06731 0.16728 0.08314
 H161 H 0.02515 0.25694 0.17364
 H162 H 0.05372 0.22042 0.17565
 C163 C 0.49172 0.76947 0.62343
 C164 C 0.48320 0.73980 0.62641
 C165 C 0.50380 0.71748 0.62603
 C166 C 0.53285 0.72413 0.62161
 C167 C 0.54118 0.75344 0.61773
 C168 C 0.52097 0.77588 0.61881
 C169 C 0.46909 0.79266 0.62462
 C170 C 0.47549 0.82283 0.62435
 C171 C 0.45355 0.84355 0.62512
 C172 C 0.42477 0.83473 0.62583
 C173 C 0.41815 0.80480 0.62660
 C174 C 0.44002 0.78378 0.62651
 C175 C 0.45413 0.73253 0.62915
 C176 C 0.43297 0.75402 0.62870
 H177 H 0.44757 0.70981 0.63120
 H178 H 0.41075 0.74723 0.63043
 H179 H 0.49710 0.69483 0.62840
 H180 H 0.56349 0.75909 0.61423
 H181 H 0.45904 0.86659 0.62469
 H182 H 0.39589 0.79793 0.62776
 H183 H 0.52863 0.79800 0.61565
 H184 H 0.49724 0.83088 0.62376
 C185 C 0.98712 0.73449 0.37752
 C186 C 0.99373 0.75020 0.35125
 C187 C 1.01609 0.77088 0.35084
 C188 C 1.03279 0.77587 0.37620
 C189 C 1.02634 0.75967 0.40205
 C190 C 1.00388 0.73944 0.40276
 C191 C 0.96286 0.71287 0.37712
 C192 C 0.95361 0.69729 0.40247
 C193 C 0.93120 0.67709 0.40086
 C194 C 0.91751 0.67178 0.37399
 C195 C 0.92625 0.68742 0.34867
 C196 C 0.94854 0.70808 0.35010
 C197 C 0.97826 0.74490 0.32538
 C198 C 0.95639 0.72407 0.32474
 H199 H 0.98336 0.75682 0.30518
 H200 H 0.94532 0.72056 0.30409
 H201 H 1.02063 0.78258 0.33043
 H202 H 1.03836 0.76257 0.42217
 H203 H 0.92486 0.66517 0.42066
 H204 H 0.91542 0.68374 0.32790
 H205 H 1.00023 0.72777 0.42329
 H206 H 0.96329 0.70036 0.42377
 C207 C 0.51585 0.25922 -0.12504
 C208 C 0.48684 0.26757 -0.12188
 C209 C 0.46509 0.24626 -0.12147
 C210 C 0.47165 0.21666 -0.12513
 C211 C 0.50025 0.20855 -0.12941
 C212 C 0.52212 0.22948 -0.12922
 C213 C 0.53852 0.28253 -0.12421
 C214 C 0.56811 0.27627 -0.12452
 C215 C 0.58837 0.29879 -0.12369
 C216 C 0.57967 0.32806 -0.12287
 C217 C 0.55032 0.33457 -0.12229
 C218 C 0.52976 0.31207 -0.12244
 C219 C 0.47966 0.29714 -0.11953
 C220 C 0.50061 0.31895 -0.12029
 H221 H 0.45743 0.30358 -0.11739
 H222 H 0.49391 0.34153 -0.11872
 H223 H 0.44295 0.25281 -0.11880
 H224 H 0.50585 0.18585 -0.13235
 H225 H 0.61096 0.29335 -0.12409
 H226 H 0.54355 0.35718 -0.12110
 H227 H 0.54372 0.22192 -0.13255
 H228 H 0.57608 0.25418 -0.12509
 C229 C 0.12431 0.00921 0.23264
 C230 C 0.12803 0.01675 0.26242
 C231 C 0.12873 -0.00521 0.28457
 C232 C 0.12482 -0.03467 0.27766
 C233 C 0.12005 -0.04201 0.24831
 C234 C 0.11995 -0.02043 0.22602
 C235 C 0.12471 0.03323 0.20956
 C236 C 0.12376 0.02786 0.17918
 C237 C 0.12407 0.05102 0.15857
 C238 C 0.12500 0.08003 0.16770
 C239 C 0.12628 0.08567 0.19782
 C240 C 0.12666 0.06254 0.21873
 C241 C 0.13062 0.04616 0.26997
 C242 C 0.12947 0.06858 0.24865
 H243 H 0.13321 0.05196 0.29279
 H244 H 0.13123 0.09099 0.25566
 H245 H 0.13178 0.00073 0.30730
 H246 H 0.11691 -0.06461 0.24244
 H247 H 0.12318 0.04628 0.13537
 H248 H 0.12754 0.10811 0.20490
 H249 H 0.11621 -0.02740 0.20385
 H250 H 0.12305 0.00600 0.17086
 C251 C 0.61657 0.48869 -0.23467
 C252 C 0.64205 0.49353 -0.25077
 C253 C 0.64265 0.51433 -0.27399
 C254 C 0.61827 0.53116 -0.28147
 C255 C 0.59322 0.52669 -0.26484
 C256 C 0.59232 0.50578 -0.24193
 C257 C 0.61668 0.46565 -0.21055
 C258 C 0.59206 0.45795 -0.19425
 C259 C 0.59325 0.43601 -0.17232
 C260 C 0.61902 0.42138 -0.16590
 C261 C 0.64366 0.42892 -0.18190
 C262 C 0.64262 0.45061 -0.20426
 C263 C 0.66692 0.47770 -0.24355
 C264 C 0.66727 0.45690 -0.22064
 H265 H 0.68651 0.48153 -0.25575
 H266 H 0.68709 0.44532 -0.21590
 H267 H 0.66247 0.51744 -0.28586
 H268 H 0.57390 0.53902 -0.26957
 H269 H 0.57399 0.43055 -0.16018
 H270 H 0.66353 0.41730 -0.17743
 H271 H 0.57244 0.50343 -0.23015
 H272 H 0.57162 0.46835 -0.19825
 C273 C 0.37509 0.98508 0.73923
 C274 C 0.40117 0.99893 0.74696
 C275 C 0.40172 1.01955 0.76936
 C276 C 0.37658 1.02670 0.78439
 C277 C 0.35078 1.01298 0.77652
 C278 C 0.34999 0.99252 0.75432
 C279 C 0.37542 0.96305 0.71535
 C280 C 0.35064 0.94797 0.70621
 C281 C 0.35205 0.92755 0.68403
 C282 C 0.37811 0.92157 0.67025
 C283 C 0.40295 0.93644 0.67917
 C284 C 0.40179 0.95706 0.70153
 C285 C 0.42654 0.99208 0.73236
 C286 C 0.42684 0.97162 0.71013
 H287 H 0.44652 1.00268 0.73823
 H288 H 0.44704 0.96708 0.69957
 H289 H 0.42188 1.02976 0.77522
 H290 H 0.33092 1.01815 0.78732
 H291 H 0.33266 0.91601 0.67796
 H292 H 0.42317 0.93216 0.66850
 H293 H 0.32945 0.98287 0.74937
 H294 H 0.32997 0.95142 0.71595
 C295 C 0.87746 0.51551 0.26291
 C296 C 0.85155 0.50891 0.24804
 C297 C 0.85093 0.48699 0.22694
 C298 C 0.87575 0.47110 0.22058
 C299 C 0.90130 0.47748 0.23561
 C300 C 0.90222 0.49937 0.25642
 C301 C 0.87727 0.53923 0.28511
 C302 C 0.90210 0.54807 0.30041
 C303 C 0.90076 0.57007 0.32105
 C304 C 0.87470 0.58382 0.32707
 C305 C 0.84988 0.57538 0.31181
 C306 C 0.85100 0.55340 0.29083
 C307 C 0.82636 0.52403 0.25446
 C308 C 0.82605 0.54566 0.27551
 H309 H 0.80649 0.51893 0.24315
 H310 H 0.80596 0.55658 0.27978
 H311 H 0.83093 0.48204 0.21582
 H312 H 0.92085 0.46579 0.23107
 H313 H 0.92016 0.57603 0.33272
 H314 H 0.82972 0.58621 0.31605
 H315 H 0.92252 0.50317 0.26718
 H316 H 0.92277 0.53833 0.29684
 C317 C 0.23178 0.13243 0.01109
 C318 C 0.23800 0.10595 -0.00297
 C319 C 0.25940 0.10520 -0.02449
 C320 C 0.27511 0.13046 -0.03218
 C321 C 0.26892 0.15665 -0.01818
 C322 C 0.24755 0.15770 0.00309
 C323 C 0.20889 0.13222 0.03411
 C324 C 0.20082 0.15745 0.04916
 C325 C 0.17971 0.15600 0.07073
 C326 C 0.16606 0.12944 0.07793
 C327 C 0.17370 0.10424 0.06290
 C328 C 0.19486 0.10544 0.04109
 C329 C 0.22307 0.08029 0.00470
 C330 C 0.20204 0.08002 0.02631
 H331 H 0.22783 0.06001 -0.00605
 H332 H 0.19125 0.05954 0.03157
 H333 H 0.26413 0.08470 -0.03481
 H334 H 0.28045 0.17656 -0.02379
 H335 H 0.17441 0.17570 0.08223
 H336 H 0.16299 0.08368 0.06804
 H337 H 0.24386 0.17850 0.01302
 H338 H 0.21059 0.17848 0.04476
 C339 C 0.76421 0.62434 0.48384
 C340 C 0.75096 0.65120 0.49043
 C341 C 0.73002 0.65217 0.51243
 C342 C 0.72220 0.62676 0.52842
 C343 C 0.73563 0.60026 0.52207
 C344 C 0.75627 0.59899 0.50010
 C345 C 0.78630 0.62419 0.46003
 C346 C 0.80011 0.59849 0.45120
 C347 C 0.82078 0.59958 0.42916
 C348 C 0.82830 0.62624 0.41537
 C349 C 0.81448 0.65192 0.42375
 C350 C 0.79353 0.65107 0.44578
 C351 C 0.75884 0.67696 0.47521
 C352 C 0.77977 0.67693 0.45350
 H353 H 0.74878 0.69755 0.48030
 H354 H 0.78522 0.69750 0.44252
 H355 H 0.72012 0.67287 0.51735
 H356 H 0.72994 0.58023 0.53381
 H357 H 0.83132 0.57951 0.42324
 H358 H 0.81987 0.67257 0.41289
 H359 H 0.76574 0.57795 0.49630
 H360 H 0.79536 0.57734 0.46100
 C361 C 0.73697 0.37038 -0.01502
 C362 C 0.74245 0.39658 0.00001
 C363 C 0.76409 0.39749 0.02163
 C364 C 0.78080 0.37270 0.02842
 C365 C 0.77557 0.34689 0.01322
 C366 C 0.75397 0.34566 -0.00814
 C367 C 0.71341 0.37023 -0.03768
 C368 C 0.70558 0.34505 -0.05313
 C369 C 0.68341 0.34604 -0.07394
 C370 C 0.66854 0.37213 -0.08002
 C371 C 0.67612 0.39733 -0.06476
 C372 C 0.69820 0.39653 -0.04359
 C373 C 0.72642 0.42178 -0.00672
 C374 C 0.70490 0.42180 -0.02816
 H375 H 0.73066 0.44187 0.00470
 H376 H 0.69319 0.44190 -0.03260
 H377 H 0.76816 0.41772 0.03285
 H378 H 0.78795 0.32734 0.01805
 H379 H 0.67806 0.32635 -0.08557
 H380 H 0.66442 0.41748 -0.06900
 H381 H 0.75102 0.32517 -0.01897
 H382 H 0.71617 0.32433 -0.04944
 C383 C 0.26356 0.87121 0.51957
 C384 C 0.25608 0.89775 0.50477
 C385 C 0.23395 0.89825 0.48363
 C386 C 0.21869 0.87268 0.47717
 C387 C 0.22579 0.84653 0.49227
 C388 C 0.24791 0.84572 0.51313
 C389 C 0.28770 0.87152 0.54158
 C390 C 0.29761 0.84609 0.55660
 C391 C 0.32012 0.84757 0.57693
 C392 C 0.33328 0.87439 0.58294
 C393 C 0.32373 0.89980 0.56798
 C394 C 0.30128 0.89854 0.54729
 C395 C 0.27060 0.92369 0.51123
 C396 C 0.29255 0.92411 0.53219
 H397 H 0.26480 0.94404 0.50000
 H398 H 0.30300 0.94479 0.53649
 H399 H 0.22843 0.91871 0.47247
 H400 H 0.21454 0.82640 0.48768
 H401 H 0.32702 0.82770 0.58833
 H402 H 0.33411 0.92055 0.57214
 H403 H 0.25233 0.82494 0.52392
 H404 H 0.28837 0.82484 0.55297
   
