data_POSCAR
  _audit_creation_date              2014-09-24
  _audit_creation_method            'ToBaCCo'
  _symmetry_space_group_name_H-M    'P1'
  _symmetry_Int_Tables_number       1
  _symmetry_cell_setting            triclinic
  loop_
  _symmetry_equiv_pos_as_xyz
 x,y,z
_cell_length_a 56.4897
_cell_length_b 53.6002
_cell_length_c 57.1334
_cell_angle_alpha 90.309600
_cell_angle_beta 89.181500
_cell_angle_gamma 88.764400
loop_
  _atom_site_label
  _atom_site_type_symbol
  _atom_site_fract_x
  _atom_site_fract_y
  _atom_site_fract_z
N1 N 0.59148 0.66185 0.60771
 N2 N 0.58166 0.65205 0.62640
 C3 C 0.56132 0.66461 0.63149
 C4 C 0.55816 0.68328 0.61508
 C5 C 0.57768 0.68088 0.60021
 H6 H 0.54973 0.66055 0.64612
 H7 H 0.58192 0.69257 0.58544
 Cu8 Cu 0.59658 0.62423 0.64272
 Cu9 Cu 0.62203 0.65013 0.59529
 Cu10 Cu 0.65059 0.60279 0.62572
 N11 N 0.61288 0.59755 0.65942
 N12 N 0.63412 0.58955 0.65294
 C13 C 0.64120 0.57116 0.66734
 C14 C 0.62339 0.56721 0.68386
 C15 C 0.60569 0.58447 0.67817
 H16 H 0.65798 0.56124 0.66553
 H17 H 0.58879 0.58739 0.68693
 N18 N 0.66432 0.61841 0.59766
 N19 N 0.65311 0.63585 0.58563
 C20 C 0.66655 0.64189 0.56692
 C21 C 0.68729 0.62770 0.56729
 C22 C 0.68527 0.61307 0.58705
 H23 H 0.66176 0.65579 0.55409
 H24 H 0.69793 0.59914 0.59292
 H25 H 0.62063 0.61412 0.60799
 H26 H 0.63453 0.63789 0.62716
 N27 N 0.89939 0.33414 0.11311
 N28 N 0.90941 0.34538 0.13076
 C29 C 0.92865 0.33193 0.13716
 C30 C 0.93070 0.31087 0.12291
 C31 C 0.91165 0.31300 0.10789
 H32 H 0.93999 0.33694 0.15143
 H33 H 0.90722 0.30050 0.09380
 Cu34 Cu 0.89587 0.37610 0.14402
 Cu35 Cu 0.87171 0.34817 0.09759
 Cu36 Cu 0.84781 0.40345 0.12035
 N37 N 0.88198 0.40683 0.15694
 N38 N 0.86355 0.41774 0.14723
 C39 C 0.85772 0.43868 0.15928
 C40 C 0.87316 0.44089 0.17771
 C41 C 0.88830 0.42031 0.17572
 H42 H 0.84297 0.45105 0.15529
 H43 H 0.90290 0.41567 0.18704
 N44 N 0.83443 0.38608 0.09325
 N45 N 0.84379 0.36529 0.08432
 C46 C 0.83106 0.35841 0.06569
 C47 C 0.81268 0.37554 0.06292
 C48 C 0.81533 0.39278 0.08072
 H49 H 0.83465 0.34196 0.05509
 H50 H 0.80432 0.40920 0.08405
 H51 H 0.87736 0.38494 0.10659
 H52 H 0.85787 0.36683 0.12662
 N53 N 0.40225 0.17316 -0.11189
 N54 N 0.41458 0.15942 -0.12700
 C55 C 0.43430 0.17155 -0.13322
 C56 C 0.43427 0.19420 -0.12145
 C57 C 0.41361 0.19459 -0.10810
 H58 H 0.44754 0.16450 -0.14557
 H59 H 0.40759 0.20912 -0.09608
 Cu60 Cu 0.40381 0.12710 -0.13740
 Cu61 Cu 0.37318 0.16153 -0.09731
 Cu62 Cu 0.34974 0.10798 -0.12063
 N63 N 0.38797 0.10048 -0.15373
 N64 N 0.36682 0.09317 -0.14728
 C65 C 0.36004 0.07487 -0.16177
 C66 C 0.37792 0.07041 -0.17824
 C67 C 0.39539 0.08708 -0.17253
 H68 H 0.34337 0.06545 -0.16031
 H69 H 0.41210 0.08963 -0.18156
 N70 N 0.33530 0.12589 -0.09364
 N71 N 0.34407 0.14651 -0.08493
 C72 C 0.33068 0.15401 -0.06641
 C73 C 0.31261 0.13725 -0.06321
 C74 C 0.31613 0.11967 -0.08085
 H75 H 0.33427 0.17007 -0.05561
 H76 H 0.30560 0.10345 -0.08409
 H77 H 0.37787 0.12356 -0.10322
 H78 H 0.36424 0.14236 -0.12733
 N79 N 0.10138 0.82786 0.38314
 N80 N 0.09670 0.83531 0.36182
 C81 C 0.07825 0.82257 0.35367
 C82 C 0.07078 0.80612 0.37088
 C83 C 0.08605 0.81012 0.38935
 H84 H 0.07073 0.82551 0.33661
 H85 H 0.08613 0.80098 0.40615
 Cu86 Cu 0.11452 0.86150 0.34680
 Cu87 Cu 0.12694 0.84183 0.40123
 Cu88 Cu 0.15235 0.89486 0.37884
 N89 N 0.12558 0.89374 0.33651
 N90 N 0.13982 0.90704 0.34933
 C91 C 0.14404 0.92869 0.33836
 C92 C 0.13187 0.92893 0.31748
 C93 C 0.12036 0.90638 0.31690
 H94 H 0.15539 0.94304 0.34495
 H95 H 0.10869 0.89985 0.30345
 N96 N 0.16257 0.87931 0.40831
 N97 N 0.15305 0.85889 0.41670
 C98 C 0.16435 0.85225 0.43636
 C99 C 0.18185 0.86933 0.44064
 C100 C 0.18014 0.88626 0.42247
 H101 H 0.16019 0.83610 0.44676
 H102 H 0.19130 0.90207 0.41942
 H103 H 0.12136 0.87645 0.38618
 H104 H 0.14688 0.85708 0.37427
 C105 C 0.10928 0.12004 0.14451
 C106 C 0.09213 0.13934 0.14567
 C107 C 0.09270 0.15907 0.12962
 C108 C 0.11056 0.15945 0.11229
 C109 C 0.12753 0.14003 0.11059
 C110 C 0.12690 0.12020 0.12673
 C111 C 0.10911 0.10057 0.16081
 C112 C 0.12612 0.08108 0.15941
 C113 C 0.14329 0.08105 0.14136
 C114 C 0.14384 0.10052 0.12507
 C115 C 0.16113 0.10069 0.10720
 C116 C 0.16181 0.12033 0.09099
 C117 C 0.14498 0.13998 0.09289
 H118 H 0.07843 0.13920 0.15916
 H119 H 0.11088 0.17464 0.09983
 H120 H 0.09563 0.10046 0.17451
 H121 H 0.15650 0.06610 0.14030
 H122 H 0.17425 0.08565 0.10605
 H123 H 0.14520 0.15503 0.08030
 C124 C 0.38182 0.87900 0.64638
 C125 C 0.39908 0.85980 0.64622
 C126 C 0.39971 0.84161 0.62839
 C127 C 0.38277 0.84277 0.61061
 C128 C 0.36530 0.86178 0.61061
 C129 C 0.36484 0.88001 0.62853
 C130 C 0.38126 0.89717 0.66414
 C131 C 0.36389 0.91637 0.66439
 C132 C 0.34699 0.91724 0.64655
 C133 C 0.34737 0.89923 0.62863
 C134 C 0.33052 0.90010 0.61083
 C135 C 0.33079 0.88191 0.59299
 C136 C 0.34826 0.86282 0.59301
 H137 H 0.41226 0.85918 0.65983
 H138 H 0.38299 0.82864 0.59695
 H139 H 0.39415 0.89617 0.67799
 H140 H 0.33370 0.93214 0.64648
 H141 H 0.31694 0.91470 0.61106
 H142 H 0.34874 0.84892 0.57915
 C143 C 0.89166 0.62362 0.35984
 C144 C 0.90993 0.64087 0.36090
 C145 C 0.91056 0.65849 0.37920
 C146 C 0.89256 0.65880 0.39647
 C147 C 0.87408 0.64177 0.39556
 C148 C 0.87365 0.62404 0.37722
 C149 C 0.89123 0.60579 0.34179
 C150 C 0.87322 0.58816 0.34109
 C151 C 0.85525 0.58874 0.35834
 C152 C 0.85523 0.60671 0.37628
 C153 C 0.83710 0.60761 0.39329
 C154 C 0.83728 0.62539 0.41145
 C155 C 0.85595 0.64224 0.41262
 H156 H 0.92391 0.64033 0.34770
 H157 H 0.89279 0.67253 0.41046
 H158 H 0.90516 0.60526 0.32853
 H159 H 0.84120 0.57531 0.35765
 H160 H 0.82290 0.59435 0.39255
 H161 H 0.85609 0.65603 0.42657
 C162 C 0.61788 0.37265 -0.14704
 C163 C 0.59955 0.35544 -0.14570
 C164 C 0.59941 0.33714 -0.12818
 C165 C 0.61752 0.33649 -0.11158
 C166 C 0.63581 0.35375 -0.11252
 C167 C 0.63619 0.37171 -0.13049
 C168 C 0.61831 0.39066 -0.16475
 C169 C 0.63691 0.40763 -0.16629
 C170 C 0.65515 0.40647 -0.14983
 C171 C 0.65488 0.38871 -0.13191
 C172 C 0.67291 0.38777 -0.11529
 C173 C 0.67232 0.37028 -0.09708
 C174 C 0.65375 0.35331 -0.09581
 H175 H 0.58565 0.35591 -0.15860
 H176 H 0.61726 0.32261 -0.09785
 H177 H 0.60436 0.39125 -0.17758
 H178 H 0.66939 0.41970 -0.15075
 H179 H 0.68718 0.40095 -0.11621
 H180 H 0.65345 0.33962 -0.08191
 C181 C -0.05408 0.26972 0.11008
 C182 C -0.03676 0.25073 0.11069
 C183 C -0.01651 0.25345 0.12413
 C184 C -0.01393 0.27524 0.13747
 C185 C -0.03147 0.29405 0.13734
 C186 C -0.05178 0.29172 0.12346
 N187 N 0.00107 0.23381 0.12400
 N188 N 0.02204 0.23718 0.13103
 C189 C 0.03942 0.21735 0.13116
 C190 C 0.06340 0.22318 0.13250
 C191 C 0.08080 0.20423 0.13194
 C192 C 0.07436 0.17912 0.13064
 C193 C 0.05029 0.17323 0.12986
 C194 C 0.03293 0.19221 0.12988
 H195 H -0.06939 0.26675 0.09936
 H196 H -0.03899 0.23393 0.10041
 H197 H 0.00156 0.27766 0.14814
 H198 H -0.02868 0.31055 0.14783
 H199 H 0.06860 0.24248 0.13356
 H200 H 0.09928 0.20912 0.13267
 H201 H 0.04498 0.15396 0.12876
 H202 H 0.01448 0.18727 0.12901
 C203 C 0.53469 0.71609 0.59373
 C204 C 0.51656 0.73426 0.59308
 C205 C 0.50225 0.73907 0.61284
 C206 C 0.50611 0.72526 0.63332
 C207 C 0.52412 0.70701 0.63397
 C208 C 0.53871 0.70228 0.61421
 N209 N 0.48414 0.75814 0.61175
 N210 N 0.47148 0.76432 0.62955
 C211 C 0.45341 0.78344 0.62869
 C212 C 0.44128 0.79019 0.64936
 C213 C 0.42380 0.80904 0.64927
 C214 C 0.41807 0.82139 0.62839
 C215 C 0.43012 0.81441 0.60759
 C216 C 0.44770 0.79563 0.60773
 H217 H 0.54540 0.71281 0.57813
 H218 H 0.51374 0.74473 0.57717
 H219 H 0.49528 0.72862 0.64885
 H220 H 0.52680 0.69692 0.65010
 H221 H 0.44547 0.78087 0.66560
 H222 H 0.41461 0.81381 0.66550
 H223 H 0.42622 0.82377 0.59130
 H224 H 0.45685 0.79074 0.59151
 C225 C 1.03838 0.78694 0.34943
 C226 C 1.01959 0.77043 0.34855
 C227 C 1.01363 0.75612 0.36804
 C228 C 1.02682 0.75835 0.38854
 C229 C 1.04572 0.77472 0.38946
 C230 C 1.05182 0.78940 0.36993
 N231 N 0.99422 0.73945 0.36650
 N232 N 0.98699 0.72697 0.38399
 C233 C 0.96771 0.71015 0.38240
 C234 C 0.95989 0.69807 0.40264
 C235 C 0.94122 0.68141 0.40167
 C236 C 0.93013 0.67646 0.38032
 C237 C 0.93801 0.68863 0.36000
 C238 C 0.95660 0.70538 0.36102
 H239 H 1.04225 0.79757 0.33387
 H240 H 1.00957 0.76883 0.33261
 H241 H 1.02258 0.74741 0.40385
 H242 H 1.05531 0.77580 0.40565
 H243 H 0.96835 0.70153 0.41920
 H244 H 0.93570 0.67210 0.41755
 H245 H 0.92963 0.68537 0.34337
 H246 H 0.96231 0.71451 0.34512
 C247 C 0.44693 0.23845 -0.11669
 C248 C 0.46434 0.25659 -0.11747
 C249 C 0.48774 0.25006 -0.12357
 C250 C 0.49353 0.22512 -0.12931
 C251 C 0.47608 0.20702 -0.12888
 C252 C 0.45263 0.21347 -0.12242
 N253 N 0.50525 0.26899 -0.12382
 N254 N 0.52726 0.26366 -0.12570
 C255 C 0.54491 0.28244 -0.12625
 C256 C 0.56874 0.27512 -0.12465
 C257 C 0.58645 0.29292 -0.12506
 C258 C 0.58055 0.31838 -0.12744
 C259 C 0.55662 0.32570 -0.12927
 C260 C 0.53889 0.30789 -0.12853
 H261 H 0.42898 0.24404 -0.11186
 H262 H 0.45964 0.27577 -0.11309
 H263 H 0.51149 0.21962 -0.13419
 H264 H 0.48106 0.18792 -0.13321
 H265 H 0.57359 0.25556 -0.12298
 H266 H 0.60478 0.28679 -0.12387
 H267 H 0.55165 0.34523 -0.13100
 H268 H 0.52057 0.31397 -0.12989
 C269 C 0.13635 -0.02637 0.30589
 C270 C 0.13562 -0.00749 0.28912
 C271 C 0.13012 -0.01297 0.26588
 C272 C 0.12507 -0.03764 0.25957
 C273 C 0.12550 -0.05650 0.27639
 C274 C 0.13124 -0.05108 0.29971
 N275 N 0.12967 0.00682 0.24914
 N276 N 0.12777 0.00274 0.22728
 C277 C 0.12708 0.02260 0.21061
 C278 C 0.12865 0.01679 0.18672
 C279 C 0.12838 0.03577 0.17003
 C280 C 0.12617 0.06090 0.17703
 C281 C 0.12428 0.06668 0.20101
 C282 C 0.12486 0.04771 0.21769
 H283 H 0.14061 -0.02154 0.32373
 H284 H 0.13946 0.01148 0.29421
 H285 H 0.12070 -0.04233 0.24172
 H286 H 0.12165 -0.07537 0.27103
 H287 H 0.13029 -0.00248 0.18105
 H288 H 0.12967 0.03084 0.15164
 H289 H 0.12275 0.08591 0.20684
 H290 H 0.12353 0.05266 0.23606
 C291 C 0.60308 0.54692 -0.28326
 C292 C 0.60279 0.52907 -0.26552
 C293 C 0.62247 0.51343 -0.26189
 C294 C 0.64263 0.51580 -0.27628
 C295 C 0.64297 0.53354 -0.29412
 C296 C 0.62317 0.54943 -0.29798
 N297 N 0.62148 0.49525 -0.24364
 N298 N 0.63917 0.48125 -0.23869
 C299 C 0.63814 0.46293 -0.22057
 C300 C 0.65873 0.44938 -0.21508
 C301 C 0.65838 0.43142 -0.19744
 C302 C 0.63728 0.42661 -0.18508
 C303 C 0.61656 0.44015 -0.19073
 C304 C 0.61698 0.45822 -0.20828
 H305 H 0.58737 0.55850 -0.28535
 H306 H 0.58713 0.52741 -0.25453
 H307 H 0.65811 0.50389 -0.27382
 H308 H 0.65890 0.53462 -0.30473
 H309 H 0.67512 0.45278 -0.22448
 H310 H 0.67453 0.42107 -0.19363
 H311 H 0.60012 0.43701 -0.18133
 H312 H 0.60081 0.46846 -0.21222
 C313 C 0.39951 1.04568 0.79034
 C314 C 0.39978 1.02835 0.77196
 C315 C 0.37887 1.01712 0.76504
 C316 C 0.35753 1.02338 0.77679
 C317 C 0.35723 1.04065 0.79523
 C318 C 0.37822 1.05204 0.80222
 N319 N 0.37984 0.99939 0.74619
 N320 N 0.36140 0.98898 0.73858
 C321 C 0.36244 0.97111 0.71984
 C322 C 0.34139 0.96082 0.71204
 C323 C 0.34180 0.94315 0.69393
 C324 C 0.36338 0.93542 0.68336
 C325 C 0.38450 0.94585 0.69118
 C326 C 0.38405 0.96356 0.70924
 H327 H 0.41605 1.05386 0.79533
 H328 H 0.41635 1.02362 0.76308
 H329 H 0.34111 1.01495 0.77176
 H330 H 0.34048 1.04521 0.80380
 H331 H 0.32463 0.96643 0.72010
 H332 H 0.32528 0.93524 0.68847
 H333 H 0.40135 0.94048 0.68318
 H334 H 0.40057 0.97129 0.71493
 C335 C 0.86410 0.48466 0.19108
 C336 C 0.86395 0.50326 0.20834
 C337 C 0.87226 0.49801 0.23077
 C338 C 0.88122 0.47397 0.23569
 C339 C 0.88181 0.45549 0.21832
 C340 C 0.87308 0.46060 0.19590
 N341 N 0.87149 0.51733 0.24818
 N342 N 0.87412 0.51263 0.26981
 C343 C 0.87379 0.53188 0.28728
 C344 C 0.87166 0.52524 0.31085
 C345 C 0.87119 0.54357 0.32835
 C346 C 0.87334 0.56884 0.32250
 C347 C 0.87577 0.57550 0.29886
 C348 C 0.87580 0.55717 0.28133
 H349 H 0.85747 0.48918 0.17390
 H350 H 0.85709 0.52174 0.20432
 H351 H 0.88788 0.46952 0.25288
 H352 H 0.88868 0.43708 0.22258
 H353 H 0.87019 0.50581 0.31565
 H354 H 0.86950 0.53800 0.34648
 H355 H 0.87738 0.59489 0.29396
 H356 H 0.87761 0.56273 0.26322
 C357 C 0.28954 0.15924 -0.03105
 C358 C 0.27247 0.15937 -0.01309
 C359 C 0.25983 0.13786 -0.00808
 C360 C 0.26429 0.11612 -0.02142
 C361 C 0.28128 0.11599 -0.03945
 C362 C 0.29420 0.13752 -0.04442
 N363 N 0.24268 0.13856 0.01065
 N364 N 0.23121 0.11939 0.01668
 C365 C 0.21405 0.12008 0.03539
 C366 C 0.20253 0.09813 0.04139
 C367 C 0.18565 0.09814 0.05951
 C368 C 0.17996 0.12023 0.07194
 C369 C 0.19159 0.14227 0.06590
 C370 C 0.20852 0.14221 0.04780
 H371 H 0.29894 0.17624 -0.03451
 H372 H 0.26914 0.17626 -0.00298
 H373 H 0.25472 0.09924 -0.01788
 H374 H 0.28449 0.09887 -0.04921
 H375 H 0.20660 0.08097 0.03192
 H376 H 0.17677 0.08095 0.06358
 H377 H 0.18778 0.15950 0.07533
 H378 H 0.21723 0.15942 0.04353
 C379 C 0.72999 0.61985 0.55658
 C380 C 0.74867 0.61969 0.54027
 C381 C 0.74479 0.62701 0.51715
 C382 C 0.72199 0.63496 0.51055
 C383 C 0.70336 0.63547 0.52693
 C384 C 0.70713 0.62775 0.55008
 N385 N 0.76421 0.62613 0.50075
 N386 N 0.76120 0.62885 0.47887
 C387 C 0.78055 0.62816 0.46239
 C388 C 0.77566 0.62719 0.43848
 C389 C 0.79410 0.62615 0.42192
 C390 C 0.81779 0.62646 0.42906
 C391 C 0.82269 0.62777 0.45307
 C392 C 0.80422 0.62845 0.46964
 H393 H 0.73351 0.61403 0.57433
 H394 H 0.76618 0.61361 0.54558
 H395 H 0.71857 0.64080 0.49279
 H396 H 0.68593 0.64149 0.52135
 H397 H 0.75749 0.62704 0.43268
 H398 H 0.78987 0.62540 0.40350
 H399 H 0.84082 0.62789 0.45900
 H400 H 0.80843 0.62929 0.48805
 C401 C 0.77190 0.38672 0.04932
 C402 C 0.75438 0.38647 0.03229
 C403 C 0.75899 0.37544 0.01041
 C404 C 0.78131 0.36425 0.00579
 C405 C 0.79870 0.36409 0.02295
 C406 C 0.79420 0.37545 0.04484
 N407 N 0.74071 0.37568 -0.00670
 N408 N 0.74487 0.37024 -0.02810
 C409 C 0.72645 0.37009 -0.04506
 C410 C 0.73259 0.36936 -0.06888
 C411 C 0.71501 0.36955 -0.08585
 C412 C 0.69098 0.36997 -0.07918
 C413 C 0.68483 0.37030 -0.05527
 C414 C 0.70242 0.37056 -0.03832
 H415 H 0.76785 0.39539 0.06610
 H416 H 0.73722 0.39506 0.03608
 H417 H 0.78523 0.35549 -0.01098
 H418 H 0.81577 0.35540 0.01896
 H419 H 0.75105 0.36890 -0.07427
 H420 H 0.72014 0.36912 -0.10419
 H421 H 0.66640 0.37076 -0.04974
 H422 H 0.69725 0.37098 -0.02000
 C423 C 0.20329 0.84719 0.47293
 C424 C 0.21991 0.84679 0.49081
 C425 C 0.23264 0.86812 0.49613
 C426 C 0.22854 0.89005 0.48331
 C427 C 0.21200 0.89047 0.46533
 C428 C 0.19919 0.86902 0.45991
 N429 N 0.24971 0.86691 0.51441
 N430 N 0.26123 0.88584 0.52085
 C431 C 0.27846 0.88443 0.53898
 C432 C 0.28952 0.90626 0.54609
 C433 C 0.30647 0.90550 0.56369
 C434 C 0.31274 0.88278 0.57437
 C435 C 0.30164 0.86087 0.56715
 C436 C 0.28461 0.86167 0.54965
 H437 H 0.19395 0.83027 0.46914
 H438 H 0.22295 0.82975 0.50053
 H439 H 0.23816 0.90681 0.48711
 H440 H 0.20917 0.90766 0.45584
 H441 H 0.28500 0.92389 0.53795
 H442 H 0.31491 0.92263 0.56873
 H443 H 0.30593 0.84315 0.57525
 H444 H 0.27631 0.84453 0.54446
   
