data_POSCAR
  _audit_creation_date              2014-09-24
  _audit_creation_method            'ToBaCCo'
  _symmetry_space_group_name_H-M    'P1'
  _symmetry_Int_Tables_number       1
  _symmetry_cell_setting            triclinic
  loop_
  _symmetry_equiv_pos_as_xyz
 x,y,z
_cell_length_a 59.3775
_cell_length_b 54.0916
_cell_length_c 60.7409
_cell_angle_alpha 91.052700
_cell_angle_beta 90.148500
_cell_angle_gamma 91.357800
loop_
  _atom_site_label
  _atom_site_type_symbol
  _atom_site_fract_x
  _atom_site_fract_y
  _atom_site_fract_z
C1 C 0.61026 0.63780 0.62180
 C2 C 0.61185 0.62208 0.63985
 C3 C 0.62969 0.60540 0.64175
 C4 C 0.64611 0.60517 0.62494
 C5 C 0.64477 0.62078 0.60675
 C6 C 0.62670 0.63693 0.60531
 H7 H 0.59864 0.62258 0.65205
 H8 H 0.66078 0.59385 0.62646
 H9 H 0.62512 0.64853 0.59108
 C10 C 0.89234 0.35707 0.12009
 C11 C 0.87651 0.35810 0.10275
 C12 C 0.85919 0.37537 0.10303
 C13 C 0.85787 0.39221 0.12080
 C14 C 0.87341 0.39186 0.13822
 C15 C 0.89039 0.37419 0.13779
 H16 H 0.87817 0.34633 0.08829
 H17 H 0.84465 0.40565 0.12109
 H18 H 0.90130 0.37313 0.15200
 C19 C 0.38601 0.14266 -0.12117
 C20 C 0.36937 0.14199 -0.10476
 C21 C 0.35221 0.12364 -0.10510
 C22 C 0.35186 0.10575 -0.12218
 C23 C 0.36828 0.10606 -0.13882
 C24 C 0.38525 0.12463 -0.13814
 H25 H 0.36979 0.15581 -0.09165
 H26 H 0.33873 0.09152 -0.12252
 H27 H 0.39797 0.12504 -0.15086
 C28 C 0.11291 0.85949 0.37740
 C29 C 0.11467 0.87669 0.36022
 C30 C 0.13321 0.89317 0.35874
 C31 C 0.15035 0.89253 0.37460
 C32 C 0.14907 0.87588 0.39202
 C33 C 0.13036 0.85954 0.39328
 H34 H 0.10199 0.87703 0.34744
 H35 H 0.16497 0.90474 0.37308
 H36 H 0.12895 0.84782 0.40746
 N37 N 0.09880 0.15795 0.11107
 N38 N 0.09156 0.14994 0.13013
 C39 C 0.07298 0.16230 0.13586
 C40 C 0.06835 0.17905 0.11955
 C41 C 0.08515 0.17570 0.10406
 H42 H 0.06376 0.15962 0.15097
 H43 H 0.08737 0.18544 0.08881
 Cu44 Cu 0.10733 0.12445 0.14579
 Cu45 Cu 0.12574 0.14531 0.09704
 Cu46 Cu 0.15423 0.09986 0.12451
 N47 N 0.12290 0.09806 0.16042
 N48 N 0.14127 0.08864 0.15210
 C49 C 0.14837 0.07063 0.16525
 C50 C 0.13364 0.06855 0.18283
 C51 C 0.11768 0.08633 0.17916
 H52 H 0.16298 0.05962 0.16198
 H53 H 0.10328 0.09042 0.18931
 N54 N 0.16458 0.11355 0.09634
 N55 N 0.15336 0.13032 0.08558
 C56 C 0.16430 0.13539 0.06674
 C57 C 0.18340 0.12129 0.06565
 C58 C 0.18306 0.10770 0.08472
 H59 H 0.15902 0.14873 0.05485
 H60 H 0.19525 0.09430 0.08960
 H61 H 0.12407 0.11079 0.11118
 H62 H 0.14162 0.13517 0.12570
 N63 N 0.39952 0.83274 0.61103
 N64 N 0.40639 0.84082 0.63049
 C65 C 0.42434 0.82784 0.63667
 C66 C 0.42903 0.81062 0.62021
 C67 C 0.41282 0.81434 0.60419
 H68 H 0.43340 0.83090 0.65195
 H69 H 0.41083 0.80452 0.58863
 Cu70 Cu 0.39162 0.86799 0.64556
 Cu71 Cu 0.37389 0.84676 0.59597
 Cu72 Cu 0.34737 0.89531 0.62257
 N73 N 0.37659 0.89520 0.66033
 N74 N 0.35975 0.90631 0.65090
 C75 C 0.35326 0.92523 0.66393
 C76 C 0.36663 0.92589 0.68262
 C77 C 0.38122 0.90651 0.67981
 H78 H 0.33973 0.93751 0.66015
 H79 H 0.39458 0.90153 0.69088
 N80 N 0.33733 0.88152 0.59384
 N81 N 0.34764 0.86334 0.58352
 C82 C 0.33681 0.85815 0.56441
 C83 C 0.31870 0.87365 0.56271
 C84 C 0.31957 0.88820 0.58168
 H85 H 0.34138 0.84374 0.55282
 H86 H 0.30812 0.90265 0.58622
 H87 H 0.37711 0.88157 0.61030
 H88 H 0.35764 0.85907 0.62399
 N89 N 0.89464 0.66504 0.38782
 N90 N 0.89950 0.65919 0.36732
 C91 C 0.91791 0.67224 0.36114
 C92 C 0.92499 0.68723 0.37870
 C93 C 0.90973 0.68214 0.39536
 H94 H 0.92544 0.67099 0.34499
 H95 H 0.90972 0.69005 0.41183
 Cu96 Cu 0.88150 0.63508 0.35051
 Cu97 Cu 0.86907 0.65004 0.40307
 Cu98 Cu 0.84180 0.60091 0.37623
 N99 N 0.86919 0.60462 0.33751
 N100 N 0.85407 0.59099 0.34778
 C101 C 0.84919 0.57062 0.33545
 C102 C 0.86186 0.57162 0.31635
 C103 C 0.87434 0.59351 0.31823
 H104 H 0.83722 0.55624 0.33998
 H105 H 0.88667 0.60054 0.30671
 N106 N 0.83209 0.61395 0.40509
 N107 N 0.84275 0.63241 0.41551
 C108 C 0.83211 0.63713 0.43463
 C109 C 0.81377 0.62100 0.43626
 C110 C 0.81429 0.60659 0.41721
 H111 H 0.83695 0.65170 0.44623
 H112 H 0.80254 0.59185 0.41253
 H113 H 0.87230 0.61707 0.38571
 H114 H 0.85006 0.63837 0.37600
 N115 N 0.59816 0.34692 -0.10724
 N116 N 0.58768 0.35986 -0.12205
 C117 C 0.56800 0.34836 -0.12733
 C118 C 0.56612 0.32693 -0.11529
 C119 C 0.58560 0.32661 -0.10273
 H120 H 0.55620 0.35481 -0.13941
 H121 H 0.59019 0.31276 -0.09102
 Cu122 Cu 0.60104 0.38998 -0.13371
 Cu123 Cu 0.62704 0.35764 -0.09470
 Cu124 Cu 0.65468 0.40598 -0.12051
 N125 N 0.61842 0.41355 -0.15085
 N126 N 0.63932 0.41981 -0.14569
 C127 C 0.64716 0.43637 -0.16023
 C128 C 0.63030 0.44066 -0.17543
 C129 C 0.61229 0.42579 -0.16891
 H130 H 0.66399 0.44444 -0.15989
 H131 H 0.59587 0.42406 -0.17658
 N132 N 0.66714 0.38948 -0.09465
 N133 N 0.65635 0.37134 -0.08457
 C134 C 0.66852 0.36470 -0.06700
 C135 C 0.68799 0.37923 -0.06603
 C136 C 0.68659 0.39468 -0.08387
 H137 H 0.66360 0.35031 -0.05574
 H138 H 0.69857 0.40909 -0.08830
 H139 H 0.62679 0.39484 -0.10256
 H140 H 0.63707 0.37280 -0.12427
 C141 C -0.05567 0.30390 0.11915
 C142 C -0.05273 0.32641 0.13074
 C143 C -0.06974 0.34382 0.13109
 C144 C -0.09031 0.33934 0.11976
 C145 C -0.09301 0.31658 0.10809
 C146 C -0.07600 0.29917 0.10786
 C147 C -0.03760 0.28539 0.11887
 C148 C -0.04286 0.26008 0.12104
 C149 C -0.02582 0.24269 0.12094
 C150 C -0.00314 0.25022 0.11859
 C151 C 0.00210 0.27551 0.11633
 C152 C -0.01493 0.29291 0.11650
 C153 C 0.01499 0.23178 0.11861
 C154 C 0.03312 0.23374 0.10388
 C155 C 0.05033 0.21656 0.10408
 C156 C 0.04986 0.19705 0.11907
 C157 C 0.03165 0.19505 0.13373
 C158 C 0.01440 0.21219 0.13348
 H159 H -0.03726 0.33054 0.13969
 H160 H -0.06615 0.36118 0.13966
 H161 H -0.10859 0.31150 0.09974
 H162 H -0.07873 0.28200 0.09870
 H163 H -0.06015 0.25375 0.12310
 H164 H -0.03040 0.22331 0.12250
 H165 H 0.01943 0.28191 0.11472
 H166 H -0.01037 0.31225 0.11457
 H167 H 0.03391 0.24847 0.09206
 H168 H 0.06409 0.21882 0.09261
 H169 H 0.03058 0.18021 0.14541
 H170 H 0.00077 0.21033 0.14519
 C171 C 0.55583 0.68895 0.61838
 C172 C 0.55170 0.66434 0.62452
 C173 C 0.56930 0.64768 0.62545
 C174 C 0.59142 0.65526 0.62023
 C175 C 0.59550 0.67978 0.61381
 C176 C 0.57791 0.69645 0.61292
 C177 C 0.53725 0.70686 0.61806
 C178 C 0.54075 0.73115 0.62618
 C179 C 0.52319 0.74789 0.62631
 C180 C 0.50174 0.74075 0.61831
 C181 C 0.49827 0.71652 0.61003
 C182 C 0.51583 0.69974 0.60994
 C183 C 0.48301 0.75848 0.61879
 C184 C 0.46796 0.75978 0.60100
 C185 C 0.45045 0.77661 0.60145
 C186 C 0.44752 0.79254 0.61975
 C187 C 0.46256 0.79108 0.63759
 C188 C 0.48008 0.77429 0.63711
 H189 H 0.53491 0.65806 0.62902
 H190 H 0.56558 0.62882 0.63020
 H191 H 0.61240 0.68620 0.60983
 H192 H 0.58159 0.71521 0.60787
 H193 H 0.55699 0.73711 0.63277
 H194 H 0.52646 0.76651 0.63257
 H195 H 0.48188 0.71040 0.60393
 H196 H 0.51268 0.68123 0.60339
 H197 H 0.46994 0.74802 0.58654
 H198 H 0.43933 0.77711 0.58735
 H199 H 0.46092 0.80283 0.65205
 H200 H 0.49119 0.77348 0.65123
 C201 C 1.05705 0.80857 0.38050
 C202 C 1.05480 0.83152 0.37046
 C203 C 1.07304 0.84827 0.36950
 C204 C 1.09418 0.84265 0.37867
 C205 C 1.09613 0.81956 0.38898
 C206 C 1.07788 0.80281 0.38979
 C207 C 1.03779 0.79058 0.38100
 C208 C 1.04110 0.76535 0.37653
 C209 C 1.02291 0.74848 0.37650
 C210 C 1.00102 0.75645 0.38103
 C211 C 0.99774 0.78165 0.38572
 C212 C 1.01592 0.79854 0.38565
 C213 C 0.98164 0.73859 0.38060
 C214 C 0.96477 0.73979 0.39672
 C215 C 0.94645 0.72307 0.39619
 C216 C 0.94453 0.70484 0.37944
 C217 C 0.96145 0.70366 0.36332
 C218 C 0.97981 0.72031 0.36393
 H219 H 1.03894 0.83647 0.36310
 H220 H 1.07005 0.86596 0.36217
 H221 H 1.11198 0.81368 0.39567
 H222 H 1.08009 0.78526 0.39774
 H223 H 1.05773 0.75870 0.37269
 H224 H 1.02599 0.72914 0.37305
 H225 H 0.98104 0.78837 0.38908
 H226 H 1.01289 0.81783 0.38936
 H227 H 0.96584 0.75354 0.40990
 H228 H 0.93371 0.72464 0.40880
 H229 H 0.96066 0.68980 0.35027
 H230 H 0.99243 0.71909 0.35114
 C231 C 0.43921 0.19863 -0.11926
 C232 C 0.43087 0.18835 -0.09971
 C233 C 0.41373 0.17020 -0.10034
 C234 C 0.40424 0.16206 -0.12051
 C235 C 0.41240 0.17253 -0.14005
 C236 C 0.42975 0.19044 -0.13944
 C237 C 0.45776 0.21767 -0.11861
 C238 C 0.45839 0.23700 -0.13379
 C239 C 0.47595 0.25467 -0.13333
 C240 C 0.49322 0.25369 -0.11750
 C241 C 0.49248 0.23449 -0.10220
 C242 C 0.47509 0.21663 -0.10284
 C243 C 0.51195 0.27253 -0.11698
 C244 C 0.53391 0.26594 -0.11109
 C245 C 0.55144 0.28364 -0.11039
 C246 C 0.54751 0.30826 -0.11590
 C247 C 0.52568 0.31488 -0.12198
 C248 C 0.50806 0.29727 -0.12235
 H249 H 0.43745 0.19444 -0.08384
 H250 H 0.40812 0.16233 -0.08498
 H251 H 0.40528 0.16702 -0.15586
 H252 H 0.43592 0.19763 -0.15486
 H253 H 0.44519 0.23866 -0.14596
 H254 H 0.47609 0.26895 -0.14559
 H255 H 0.50525 0.23331 -0.08954
 H256 H 0.47540 0.20184 -0.09109
 H257 H 0.53770 0.24701 -0.10732
 H258 H 0.56816 0.27792 -0.10593
 H259 H 0.52210 0.33379 -0.12606
 H260 H 0.49132 0.30317 -0.12654
 C261 C 0.13630 -0.05422 0.30631
 C262 C 0.14216 -0.04701 0.32797
 C263 C 0.14137 -0.06414 0.34491
 C264 C 0.13463 -0.08884 0.34059
 C265 C 0.12897 -0.09611 0.31890
 C266 C 0.12982 -0.07900 0.30195
 C267 C 0.13661 -0.03590 0.28840
 C268 C 0.14478 -0.04224 0.26739
 C269 C 0.14468 -0.02511 0.25045
 C270 C 0.13635 -0.00128 0.25411
 C271 C 0.12831 0.00510 0.27515
 C272 C 0.12846 -0.01201 0.29211
 C273 C 0.13580 0.01677 0.23599
 C274 C 0.11706 0.03177 0.23320
 C275 C 0.11639 0.04859 0.21603
 C276 C 0.13446 0.05084 0.20122
 C277 C 0.15326 0.03586 0.20411
 C278 C 0.15390 0.01902 0.22127
 H279 H 0.14746 -0.02813 0.33179
 H280 H 0.14567 -0.05797 0.36149
 H281 H 0.12397 -0.11508 0.31503
 H282 H 0.12501 -0.08506 0.28548
 H283 H 0.15137 -0.06043 0.26409
 H284 H 0.15080 -0.03064 0.23436
 H285 H 0.12201 0.02340 0.27855
 H286 H 0.12185 -0.00665 0.30804
 H287 H 0.10270 0.03022 0.24408
 H288 H 0.10153 0.05956 0.21433
 H289 H 0.16761 0.03716 0.19323
 H290 H 0.16871 0.00794 0.22317
 C291 C 0.63299 0.55673 -0.30389
 C292 C 0.62240 0.57953 -0.30172
 C293 C 0.62138 0.59555 -0.31946
 C294 C 0.63105 0.58932 -0.34002
 C295 C 0.64195 0.56641 -0.34188
 C296 C 0.64281 0.55038 -0.32413
 C297 C 0.63351 0.53949 -0.28518
 C298 C 0.62923 0.51405 -0.28865
 C299 C 0.62912 0.49788 -0.27096
 C300 C 0.63339 0.50678 -0.24943
 C301 C 0.63791 0.53218 -0.24600
 C302 C 0.63791 0.54837 -0.26367
 C303 C 0.63280 0.48969 -0.23059
 C304 C 0.64904 0.49180 -0.21376
 C305 C 0.64832 0.47582 -0.19593
 C306 C 0.63126 0.45746 -0.19447
 C307 C 0.61503 0.45535 -0.21134
 C308 C 0.61583 0.47125 -0.22921
 H309 H 0.61462 0.58492 -0.28631
 H310 H 0.61361 0.61318 -0.31656
 H311 H 0.64905 0.56008 -0.35731
 H312 H 0.65119 0.53294 -0.32626
 H313 H 0.62558 0.50670 -0.30500
 H314 H 0.62580 0.47837 -0.27414
 H315 H 0.64106 0.53961 -0.22957
 H316 H 0.64147 0.56784 -0.26053
 H317 H 0.66244 0.50569 -0.21448
 H318 H 0.66102 0.47810 -0.18321
 H319 H 0.60175 0.44135 -0.21089
 H320 H 0.60294 0.46934 -0.24182
 C321 C 0.36672 1.05101 0.80861
 C322 C 0.38733 1.06007 0.81735
 C323 C 0.38782 1.07767 0.83448
 C324 C 0.36773 1.08702 0.84313
 C325 C 0.34711 1.07806 0.83432
 C326 C 0.34661 1.06017 0.81742
 C327 C 0.36622 1.03221 0.79035
 C328 C 0.34942 1.03247 0.77399
 C329 C 0.34902 1.01491 0.75681
 C330 C 0.36562 0.99683 0.75530
 C331 C 0.38245 0.99661 0.77164
 C332 C 0.38263 1.01392 0.78901
 C333 C 0.36552 0.97846 0.73671
 C334 C 0.37284 0.95421 0.73985
 C335 C 0.37326 0.93718 0.72228
 C336 C 0.36599 0.94384 0.70125
 C337 C 0.35834 0.96787 0.69809
 C338 C 0.35830 0.98505 0.71556
 H339 H 0.40319 1.05381 0.81080
 H340 H 0.40402 1.08379 0.84105
 H341 H 0.33129 1.08505 0.84030
 H342 H 0.33039 1.05339 0.81140
 H343 H 0.33668 1.04645 0.77423
 H344 H 0.33558 1.01547 0.74478
 H345 H 0.39572 0.98325 0.77092
 H346 H 0.39562 1.01281 0.80146
 H347 H 0.37805 0.94823 0.75595
 H348 H 0.37897 0.91867 0.72524
 H349 H 0.35290 0.97361 0.68199
 H350 H 0.35299 1.00365 0.71234
 C351 C 0.86929 0.44486 0.19210
 C352 C 0.89030 0.43737 0.18407
 C353 C 0.89160 0.42026 0.16664
 C354 C 0.87194 0.40993 0.15694
 C355 C 0.85092 0.41717 0.16514
 C356 C 0.84962 0.43451 0.18241
 C357 C 0.86793 0.46349 0.21039
 C358 C 0.85088 0.46172 0.22635
 C359 C 0.84955 0.47932 0.24341
 C360 C 0.86539 0.49903 0.24509
 C361 C 0.88251 0.50070 0.22920
 C362 C 0.88368 0.48327 0.21201
 C363 C 0.86412 0.51772 0.26334
 C364 C 0.86996 0.54268 0.25975
 C365 C 0.86924 0.56013 0.27697
 C366 C 0.86237 0.55314 0.29810
 C367 C 0.85622 0.52831 0.30168
 C368 C 0.85722 0.51077 0.28453
 H369 H 0.90582 0.44462 0.19134
 H370 H 0.90807 0.41535 0.16060
 H371 H 0.83542 0.40934 0.15830
 H372 H 0.83314 0.44004 0.18795
 H373 H 0.83863 0.44657 0.22582
 H374 H 0.83596 0.47759 0.25515
 H375 H 0.89521 0.51538 0.23012
 H376 H 0.89685 0.48547 0.19987
 H377 H 0.87488 0.54884 0.24357
 H378 H 0.87379 0.57919 0.27362
 H379 H 0.85110 0.52230 0.31785
 H380 H 0.85298 0.49167 0.28803
 C381 C 0.30141 0.12230 -0.05427
 C382 C 0.30994 0.10016 -0.06299
 C383 C 0.32646 0.10059 -0.07934
 C384 C 0.33469 0.12316 -0.08760
 C385 C 0.32605 0.14530 -0.07900
 C386 C 0.30974 0.14488 -0.06246
 C387 C 0.28393 0.12188 -0.03673
 C388 C 0.26691 0.13952 -0.03620
 C389 C 0.25065 0.13930 -0.01961
 C390 C 0.25079 0.12124 -0.00325
 C391 C 0.26771 0.10348 -0.00387
 C392 C 0.28413 0.10388 -0.02031
 C393 C 0.23343 0.12101 0.01441
 C394 C 0.23898 0.11420 0.03597
 C395 C 0.22269 0.11405 0.05254
 C396 C 0.20056 0.12103 0.04803
 C397 C 0.19497 0.12790 0.02656
 C398 C 0.21116 0.12773 0.00991
 H399 H 0.30372 0.08241 -0.05734
 H400 H 0.33293 0.08319 -0.08534
 H401 H 0.33174 0.16302 -0.08517
 H402 H 0.30385 0.16232 -0.05594
 H403 H 0.26598 0.15343 -0.04873
 H404 H 0.23811 0.15350 -0.01951
 H405 H 0.26819 0.08908 0.00824
 H406 H 0.29714 0.09021 -0.01998
 H407 H 0.25603 0.10939 0.04018
 H408 H 0.22758 0.10896 0.06900
 H409 H 0.17797 0.13305 0.02250
 H410 H 0.20612 0.13257 -0.00657
 C411 C 0.69601 0.61973 0.55637
 C412 C 0.68873 0.59772 0.56639
 C413 C 0.67207 0.59803 0.58260
 C414 C 0.66240 0.62040 0.58937
 C415 C 0.66975 0.64241 0.57942
 C416 C 0.68624 0.64207 0.56306
 C417 C 0.71365 0.61942 0.53899
 C418 C 0.72968 0.63887 0.53758
 C419 C 0.74602 0.63878 0.52107
 C420 C 0.74692 0.61912 0.50566
 C421 C 0.73102 0.59954 0.50720
 C422 C 0.71454 0.59974 0.52358
 C423 C 0.76422 0.61916 0.48795
 C424 C 0.75896 0.60985 0.46673
 C425 C 0.77511 0.61016 0.45004
 C426 C 0.79684 0.62006 0.45409
 C427 C 0.80217 0.62933 0.47526
 C428 C 0.78610 0.62876 0.49203
 H429 H 0.69607 0.58022 0.56187
 H430 H 0.66663 0.58069 0.58970
 H431 H 0.66292 0.66002 0.58442
 H432 H 0.69117 0.65933 0.55551
 H433 H 0.72974 0.65415 0.54935
 H434 H 0.75778 0.65434 0.52024
 H435 H 0.73138 0.58392 0.49582
 H436 H 0.70231 0.58460 0.52397
 H437 H 0.74219 0.60275 0.46286
 H438 H 0.77039 0.60316 0.43384
 H439 H 0.81886 0.63677 0.47898
 H440 H 0.79091 0.63562 0.50826
 C441 C 0.80990 0.37627 0.05058
 C442 C 0.81797 0.39848 0.06047
 C443 C 0.83414 0.39824 0.07722
 C444 C 0.84247 0.37576 0.08472
 C445 C 0.83446 0.35356 0.07477
 C446 C 0.81851 0.35383 0.05784
 C447 C 0.79235 0.37649 0.03301
 C448 C 0.77555 0.35776 0.03170
 C449 C 0.75894 0.35803 0.01539
 C450 C 0.75848 0.37723 0.00010
 C451 C 0.77529 0.39596 0.00139
 C452 C 0.79208 0.39552 0.01755
 C453 C 0.74042 0.37780 -0.01694
 C454 C 0.74502 0.38657 -0.03817
 C455 C 0.72797 0.38720 -0.05407
 C456 C 0.70603 0.37876 -0.04920
 C457 C 0.70142 0.36991 -0.02807
 C458 C 0.71836 0.36959 -0.01208
 H459 H 0.81156 0.41611 0.05552
 H460 H 0.84017 0.41571 0.08424
 H461 H 0.84028 0.33589 0.08029
 H462 H 0.81299 0.33638 0.05039
 H463 H 0.77499 0.34299 0.04349
 H464 H 0.74651 0.34307 0.01472
 H465 H 0.77534 0.41121 -0.00991
 H466 H 0.80492 0.41007 0.01783
 H467 H 0.76187 0.39263 -0.04264
 H468 H 0.73209 0.39388 -0.07029
 H469 H 0.68460 0.36363 -0.02370
 H470 H 0.71404 0.36324 0.00420
 C471 C 0.20111 0.87556 0.44188
 C472 C 0.19059 0.85334 0.43452
 C473 C 0.17391 0.85342 0.41825
 C474 C 0.16713 0.87574 0.40908
 C475 C 0.17764 0.89796 0.41644
 C476 C 0.19449 0.89786 0.43254
 C477 C 0.21874 0.87550 0.45936
 C478 C 0.22024 0.89471 0.47526
 C479 C 0.23668 0.89461 0.49175
 C480 C 0.25192 0.87517 0.49296
 C481 C 0.25042 0.85595 0.47707
 C482 C 0.23413 0.85618 0.46043
 C483 C 0.26914 0.87484 0.51081
 C484 C 0.29075 0.86568 0.50676
 C485 C 0.30681 0.86519 0.52362
 C486 C 0.30172 0.87413 0.54484
 C487 C 0.28021 0.88342 0.54889
 C488 C 0.26407 0.88363 0.53213
 H489 H 0.19501 0.83584 0.44152
 H490 H 0.16641 0.83592 0.41276
 H491 H 0.17266 0.91554 0.40998
 H492 H 0.20243 0.91529 0.43754
 H493 H 0.20851 0.90972 0.47517
 H494 H 0.23752 0.90992 0.50348
 H495 H 0.26166 0.84051 0.47762
 H496 H 0.23370 0.84126 0.44830
 H497 H 0.29540 0.85918 0.49048
 H498 H 0.32332 0.85818 0.51992
 H499 H 0.27566 0.89010 0.56515
 H500 H 0.24749 0.89034 0.53600
   
