data_POSCAR
  _audit_creation_date              2014-09-24
  _audit_creation_method            'ToBaCCo'
  _symmetry_space_group_name_H-M    'P1'
  _symmetry_Int_Tables_number       1
  _symmetry_cell_setting            triclinic
  loop_
  _symmetry_equiv_pos_as_xyz
 x,y,z
_cell_length_a 47.5695
_cell_length_b 30.6863
_cell_length_c 19.7274
_cell_angle_alpha 89.869500
_cell_angle_beta 89.955000
_cell_angle_gamma 90.056400
loop_
  _atom_site_label
  _atom_site_type_symbol
  _atom_site_fract_x
  _atom_site_fract_y
  _atom_site_fract_z
O1 O 0.73954 0.30439 0.56295
 O2 O 0.78651 0.26050 0.43161
 O3 O 0.73942 0.30407 0.43273
 O4 O 0.78665 0.26027 0.56396
 O5 O 0.76269 0.19863 0.56411
 O6 O 0.71604 0.24192 0.43149
 O7 O 0.76340 0.19824 0.43396
 O8 O 0.71566 0.24267 0.56368
 Cu9 Cu 0.76551 0.28841 0.49783
 Cu10 Cu 0.73698 0.21425 0.49831
 C11 C 0.71923 0.28140 0.58473
 C12 C 0.78342 0.22152 0.41114
 C13 C 0.71941 0.28074 0.41044
 C14 C 0.78297 0.22166 0.58571
 O15 O 0.21415 0.73931 0.43727
 O16 O 0.26211 0.69511 0.56708
 O17 O 0.21474 0.73897 0.56950
 O18 O 0.26108 0.69477 0.43691
 O19 O 0.28513 0.75632 0.43571
 O20 O 0.23825 0.80100 0.56672
 O21 O 0.28527 0.75732 0.56805
 O22 O 0.23822 0.80084 0.43664
 Cu23 Cu 0.23554 0.71092 0.50284
 Cu24 Cu 0.26422 0.78494 0.50163
 C25 C 0.21778 0.77795 0.41559
 C26 C 0.28219 0.71845 0.58924
 C27 C 0.21822 0.77789 0.58971
 C28 C 0.28134 0.71765 0.41464
 O29 O 0.23764 0.19649 -0.56674
 O30 O 0.28584 0.24091 -0.43814
 O31 O 0.23855 0.19732 -0.43676
 O32 O 0.28508 0.23967 -0.57056
 O33 O 0.26256 0.30236 -0.56849
 O34 O 0.21474 0.25901 -0.43760
 O35 O 0.26208 0.30265 -0.43838
 O36 O 0.21513 0.25919 -0.57000
 Cu37 Cu 0.26424 0.21249 -0.50299
 Cu38 Cu 0.23618 0.28693 -0.50365
 C39 C 0.21786 0.22003 -0.58991
 C40 C 0.28237 0.27961 -0.41690
 C41 C 0.21829 0.22046 -0.41549
 C42 C 0.28226 0.27864 -0.59150
 O43 O -0.26282 0.69784 -0.56259
 O44 O -0.21561 0.74169 -0.43164
 O45 O -0.26299 0.69799 -0.43247
 O46 O -0.21567 0.74197 -0.56386
 O47 O -0.23951 0.80365 -0.56364
 O48 O -0.28607 0.76020 -0.43075
 O49 O -0.23895 0.80382 -0.43351
 O50 O -0.28668 0.75950 -0.56312
 Cu51 Cu -0.23681 0.71375 -0.49764
 Cu52 Cu -0.26528 0.78789 -0.49784
 C53 C -0.28315 0.72077 -0.58416
 C54 C -0.21889 0.78059 -0.41118
 C55 C -0.28292 0.72133 -0.40966
 C56 C -0.21926 0.78064 -0.58535
 N57 N 0.02996 1.07752 -0.07247
 N58 N 0.05088 1.10505 -0.08330
 N59 N -0.02922 1.04677 -0.11835
 N60 N -0.05033 1.05202 -0.16080
 N61 N -0.02906 1.07781 -0.07266
 N62 N -0.04990 1.10542 -0.08337
 N63 N 0.03004 1.04645 -0.11811
 N64 N 0.05117 1.05161 -0.16065
 C65 C 0.06400 1.08824 -0.13836
 C66 C -0.06305 1.08869 -0.13842
 N67 N -0.02955 0.92233 -0.07165
 N68 N -0.05062 0.89502 -0.08206
 N69 N 0.02975 0.95292 -0.11746
 N70 N 0.05097 0.94764 -0.15963
 N71 N 0.02952 0.92198 -0.07138
 N72 N 0.05045 0.89445 -0.08151
 N73 N -0.02947 0.95325 -0.11775
 N74 N -0.05058 0.94819 -0.16022
 Mn75 Mn 0.00028 0.99984 -0.11864
 C76 C -0.06361 0.91179 -0.13743
 C77 C 0.06371 0.91109 -0.13667
 N78 N -0.02917 1.07805 0.07375
 N79 N -0.04998 1.10575 0.08383
 N80 N 0.02988 1.04678 0.11997
 N81 N 0.05116 1.05189 0.16205
 N82 N 0.02977 1.07774 0.07393
 N83 N 0.05072 1.10524 0.08411
 N84 N -0.02951 1.04709 0.11979
 N85 N -0.05084 1.05239 0.16172
 Mn86 Mn 0.00038 1.07834 0.00064
 C87 C -0.06339 1.08909 0.13869
 C88 C 0.06394 1.08847 0.13906
 N89 N 0.02938 0.92219 0.07514
 N90 N 0.05024 0.89463 0.08592
 N91 N -0.02971 0.95360 0.12059
 N92 N -0.05097 0.94872 0.16280
 N93 N -0.02969 0.92257 0.07489
 N94 N -0.05082 0.89535 0.08534
 N95 N 0.02952 0.95326 0.12079
 N96 N 0.05062 0.94804 0.16329
 Mn97 Mn -0.00009 0.92167 0.00176
 Mn98 Mn 0.00005 1.00019 0.12105
 Cl99 Cl 0.00016 0.99999 0.00120
 C100 C 0.06338 0.91139 0.14099
 C101 C -0.06396 0.91230 0.14028
 N102 N 0.46998 0.45113 0.11677
 N103 N 0.44843 0.44565 0.15801
 N104 N 0.52954 0.42122 0.07166
 N105 N 0.55076 0.39420 0.08164
 N106 N 0.52929 0.45178 0.11811
 N107 N 0.55049 0.44681 0.16037
 N108 N 0.47053 0.42040 0.07059
 N109 N 0.44960 0.39267 0.07989
 C110 C 0.43594 0.40909 0.13445
 C111 C 0.56369 0.41078 0.13711
 N112 N 0.53015 0.45379 -0.12023
 N113 N 0.55141 0.44918 -0.16246
 N114 N 0.47101 0.42169 -0.07586
 N115 N 0.45010 0.39422 -0.08689
 N116 N 0.47092 0.45305 -0.12123
 N117 N 0.44983 0.44814 -0.16382
 N118 N 0.53007 0.42246 -0.07482
 N119 N 0.55116 0.39530 -0.08549
 Mn120 Mn 0.50030 0.42085 -0.00211
 C121 C 0.56436 0.41262 -0.14023
 C122 C 0.43702 0.41135 -0.14186
 N123 N 0.52886 0.54530 0.11978
 N124 N 0.54974 0.55051 0.16290
 N125 N 0.46979 0.57595 0.07312
 N126 N 0.44872 0.60314 0.08368
 N127 N 0.46964 0.54458 0.11848
 N128 N 0.44833 0.54922 0.16059
 N129 N 0.52884 0.57662 0.07432
 N130 N 0.54958 0.60432 0.08582
 Mn131 Mn 0.49943 0.49818 0.11903
 C132 C 0.56250 0.58740 0.14115
 C133 C 0.43545 0.58582 0.13831
 N134 N 0.47040 0.54654 -0.11953
 N135 N 0.44913 0.55164 -0.16164
 N136 N 0.52933 0.57787 -0.07217
 N137 N 0.55025 0.60559 -0.08150
 N138 N 0.52979 0.54722 -0.11848
 N139 N 0.55129 0.55274 -0.15985
 N140 N 0.47037 0.57722 -0.07326
 N141 N 0.44932 0.60453 -0.08332
 Mn142 Mn 0.50031 0.50017 -0.12063
 Mn143 Mn 0.49959 0.57749 0.00050
 Cl144 Cl 0.49991 0.49917 -0.00080
 C145 C 0.43620 0.58793 -0.13845
 C146 C 0.56383 0.58925 -0.13621
 C147 C 0.34325 0.33255 0.27794
 C148 C 0.34268 0.28730 0.28837
 C149 C 0.32199 0.26927 0.33076
 C150 C 0.30154 0.29609 0.36164
 C151 C 0.30178 0.34130 0.34778
 C152 C 0.32292 0.35975 0.30730
 C153 C 0.36611 0.35199 0.23732
 C154 C 0.36770 0.39751 0.23068
 C155 C 0.39048 0.41598 0.19584
 C156 C 0.41107 0.38919 0.16631
 C157 C 0.40863 0.34361 0.17093
 C158 C 0.38643 0.32480 0.20772
 C159 C 0.32466 0.40504 0.29740
 C160 C 0.34680 0.42363 0.26016
 C161 C 0.36322 0.26110 0.25741
 C162 C 0.38459 0.27950 0.21733
 H163 H 0.30910 0.42639 0.31982
 H164 H 0.34766 0.45873 0.25482
 H165 H 0.36292 0.22610 0.26471
 H166 H 0.40013 0.25816 0.19485
 H167 H 0.32205 0.23444 0.34010
 H168 H 0.28637 0.36257 0.37105
 H169 H 0.39231 0.45113 0.19193
 H170 H 0.42466 0.32301 0.14868
 C171 C -0.15701 0.83724 0.28508
 C172 C -0.16117 0.79193 0.28370
 C173 C -0.18206 0.77336 0.32507
 C174 C -0.19893 0.79999 0.36656
 C175 C -0.19502 0.84548 0.36557
 C176 C -0.17382 0.86422 0.32574
 C177 C -0.13404 0.85670 0.24484
 C178 C -0.12897 0.90170 0.24921
 C179 C -0.10624 0.91971 0.21373
 C180 C -0.08890 0.89319 0.17339
 C181 C -0.09474 0.84837 0.16774
 C182 C -0.11709 0.82978 0.20433
 C183 C -0.16856 0.90927 0.32731
 C184 C -0.14640 0.92765 0.29000
 C185 C -0.14397 0.76609 0.24206
 C186 C -0.12242 0.78473 0.20274
 H187 H -0.18137 0.93038 0.35861
 H188 H -0.14270 0.96239 0.29366
 H189 H -0.14704 0.73113 0.24026
 H190 H -0.10950 0.76359 0.17175
 H191 H -0.18501 0.73833 0.32554
 H192 H -0.20769 0.86613 0.39799
 H193 H -0.10191 0.95431 0.21784
 H194 H -0.08129 0.82781 0.13705
 C195 C 0.65454 0.66365 0.28761
 C196 C 0.65885 0.70891 0.28498
 C197 C 0.67970 0.72768 0.32608
 C198 C 0.69640 0.70128 0.36844
 C199 C 0.69230 0.65584 0.36881
 C200 C 0.67113 0.63692 0.32933
 C201 C 0.63171 0.64396 0.24740
 C202 C 0.62655 0.59904 0.25287
 C203 C 0.60406 0.58075 0.21705
 C204 C 0.58704 0.60692 0.17525
 C205 C 0.59292 0.65172 0.16874
 C206 C 0.61505 0.67058 0.20562
 C207 C 0.66572 0.59196 0.33218
 C208 C 0.64367 0.57340 0.29495
 C209 C 0.64189 0.73446 0.24224
 C210 C 0.62048 0.71559 0.20293
 H211 H 0.67833 0.57104 0.36437
 H212 H 0.63984 0.53876 0.29960
 H213 H 0.64506 0.76939 0.23948
 H214 H 0.60778 0.73651 0.17099
 H215 H 0.68279 0.76269 0.32554
 H216 H 0.70483 0.63537 0.40192
 H217 H 0.59972 0.54618 0.22190
 H218 H 0.57973 0.67202 0.13694
 C219 C 0.15643 1.16527 0.28227
 C220 C 0.15723 1.21063 0.29110
 C221 C 0.17803 1.22890 0.33267
 C222 C 0.19841 1.20222 0.36422
 C223 C 0.19793 1.15686 0.35201
 C224 C 0.17664 1.13818 0.31244
 C225 C 0.13350 1.14565 0.24234
 C226 C 0.13169 1.10009 0.23717
 C227 C 0.10892 1.08151 0.20260
 C228 C 0.08859 1.10826 0.17180
 C229 C 0.09122 1.15385 0.17519
 C230 C 0.11338 1.17277 0.21170
 C231 C 0.17466 1.09280 0.30415
 C232 C 0.15244 1.07406 0.26760
 C233 C 0.13685 1.23672 0.25927
 C234 C 0.11543 1.21814 0.21978
 H235 H 0.19011 1.07152 0.32725
 H236 H 0.15141 1.03891 0.26345
 H237 H 0.13732 1.27180 0.26534
 H238 H 0.10003 1.23941 0.19649
 H239 H 0.17817 1.26384 0.34074
 H240 H 0.21326 1.13569 0.37588
 H241 H 0.10696 1.04636 0.19960
 H242 H 0.07540 1.17442 0.15193
 C243 C 0.65706 0.33786 -0.28586
 C244 C 0.67385 0.36490 -0.32675
 C245 C 0.69499 0.34622 -0.36665
 C246 C 0.69887 0.30073 -0.36743
 C247 C 0.68200 0.27405 -0.32574
 C248 C 0.66118 0.29254 -0.28434
 C249 C 0.63418 0.35724 -0.24547
 C250 C 0.61727 0.33026 -0.20471
 C251 C 0.59500 0.34877 -0.16793
 C252 C 0.58921 0.39360 -0.17360
 C253 C 0.60652 0.42021 -0.21419
 C254 C 0.62917 0.40225 -0.24988
 C255 C 0.64401 0.26664 -0.24246
 C256 C 0.62254 0.28520 -0.20303
 C257 C 0.66865 0.40995 -0.32839
 C258 C 0.64657 0.42828 -0.29091
 H259 H 0.64704 0.23167 -0.24057
 H260 H 0.60965 0.26401 -0.17186
 H261 H 0.68143 0.43112 -0.35985
 H262 H 0.64292 0.46303 -0.29461
 H263 H 0.70766 0.36691 -0.39920
 H264 H 0.68493 0.23902 -0.32602
 H265 H 0.58158 0.32815 -0.13707
 H266 H 0.60224 0.45481 -0.21832
 C267 C 0.15633 0.83500 -0.28085
 C268 C 0.17325 0.86182 -0.32178
 C269 C 0.19432 0.84290 -0.36156
 C270 C 0.19802 0.79738 -0.36222
 C271 C 0.18106 0.77091 -0.32040
 C272 C 0.16028 0.78966 -0.27912
 C273 C 0.13348 0.85467 -0.24072
 C274 C 0.11640 0.82794 -0.19997
 C275 C 0.09413 0.84676 -0.16350
 C276 C 0.08853 0.89164 -0.16954
 C277 C 0.10602 0.91796 -0.21010
 C278 C 0.12864 0.89971 -0.24544
 C279 C 0.14296 0.76400 -0.23722
 C280 C 0.12150 0.78284 -0.19802
 C281 C 0.16823 0.90690 -0.32369
 C282 C 0.14618 0.92547 -0.28646
 H283 H 0.14585 0.72900 -0.23515
 H284 H 0.10849 0.76182 -0.16686
 H285 H 0.18112 0.92790 -0.35519
 H286 H 0.14266 0.96022 -0.29034
 H287 H 0.20705 0.86346 -0.39418
 H288 H 0.18384 0.73586 -0.32060
 H289 H 0.08057 0.82636 -0.13265
 H290 H 0.10188 0.95260 -0.21451
 C291 C 0.34358 0.66417 -0.28211
 C292 C 0.32320 0.63699 -0.31136
 C293 C 0.30190 0.65551 -0.35118
 C294 C 0.30161 0.70077 -0.36458
 C295 C 0.32216 0.72753 -0.33393
 C296 C 0.34295 0.70945 -0.29209
 C297 C 0.36652 0.64471 -0.24196
 C298 C 0.38681 0.67193 -0.21224
 C299 C 0.40899 0.65316 -0.17556
 C300 C 0.41149 0.60759 -0.17116
 C301 C 0.39100 0.58073 -0.20104
 C302 C 0.36819 0.59918 -0.23571
 C303 C 0.36350 0.73566 -0.26116
 C304 C 0.38491 0.71724 -0.22143
 C305 C 0.32502 0.59166 -0.30193
 C306 C 0.34726 0.57306 -0.26520
 H307 H 0.36314 0.77068 -0.26812
 H308 H 0.40044 0.73859 -0.19886
 H309 H 0.30944 0.57031 -0.32428
 H310 H 0.34817 0.53794 -0.26016
 H311 H 0.28642 0.63429 -0.37435
 H312 H 0.32217 0.76241 -0.34289
 H313 H 0.42494 0.67381 -0.15302
 H314 H 0.39286 0.54559 -0.19726
 C315 C -0.15526 1.16496 -0.28393
 C316 C -0.17268 1.13796 -0.32304
 C317 C -0.19369 1.15682 -0.36315
 C318 C -0.19683 1.20241 -0.36595
 C319 C -0.17936 1.22908 -0.32592
 C320 C -0.15864 1.21043 -0.28431
 C321 C -0.13249 1.14531 -0.24346
 C322 C -0.11493 1.17221 -0.20447
 C323 C -0.09278 1.15336 -0.16766
 C324 C -0.08774 1.10824 -0.17169
 C325 C -0.10568 1.08176 -0.21053
 C326 C -0.12824 1.10007 -0.24609
 C327 C -0.14084 1.23628 -0.24415
 C328 C -0.11947 1.21747 -0.20459
 C329 C -0.16825 1.09272 -0.32280
 C330 C -0.14629 1.07413 -0.28526
 H331 H -0.14330 1.27137 -0.24371
 H332 H -0.10608 1.23862 -0.17479
 H333 H -0.18156 1.07158 -0.35284
 H334 H -0.14327 1.03923 -0.28739
 H335 H -0.20682 1.13609 -0.39436
 H336 H -0.18172 1.26420 -0.32774
 H337 H -0.07886 1.17386 -0.13811
 H338 H -0.10196 1.04694 -0.21336
 C339 C 0.65628 0.66662 -0.27949
 C340 C 0.67669 0.63964 -0.30899
 C341 C 0.69780 0.65835 -0.34929
 C342 C 0.69788 0.70359 -0.36289
 C343 C 0.67734 0.73017 -0.33190
 C344 C 0.65671 0.71190 -0.28963
 C345 C 0.63346 0.64693 -0.23903
 C346 C 0.61308 0.67392 -0.20923
 C347 C 0.59095 0.65489 -0.17253
 C348 C 0.58861 0.60929 -0.16820
 C349 C 0.60924 0.58269 -0.19798
 C350 C 0.63197 0.60138 -0.23272
 C351 C 0.63611 0.73789 -0.25850
 C352 C 0.61480 0.71925 -0.21852
 C353 C 0.67506 0.59431 -0.29942
 C354 C 0.65295 0.57548 -0.26238
 H355 H 0.63632 0.77291 -0.26557
 H356 H 0.59921 0.74043 -0.19589
 H357 H 0.69067 0.57312 -0.32197
 H358 H 0.65216 0.54035 -0.25731
 H359 H 0.71328 0.63726 -0.37268
 H360 H 0.67718 0.76503 -0.34103
 H361 H 0.57488 0.67534 -0.15008
 H362 H 0.60748 0.54752 -0.19429
 C363 C 0.15629 1.16415 -0.28483
 C364 C 0.15978 1.20961 -0.28538
 C365 C 0.18055 1.22815 -0.32715
 C366 C 0.19796 1.20138 -0.36712
 C367 C 0.19469 1.15580 -0.36419
 C368 C 0.17364 1.13705 -0.32395
 C369 C 0.13350 1.14460 -0.24414
 C370 C 0.12914 1.09936 -0.24659
 C371 C 0.10657 1.08115 -0.21077
 C372 C 0.08872 1.10771 -0.17185
 C373 C 0.09385 1.15283 -0.16802
 C374 C 0.11603 1.17159 -0.20509
 C375 C 0.16909 1.09182 -0.32356
 C376 C 0.14711 1.07333 -0.28583
 C377 C 0.14206 1.23555 -0.24518
 C378 C 0.12067 1.21684 -0.20541
 H379 H 0.18233 1.07061 -0.35363
 H380 H 0.14399 1.03843 -0.28786
 H381 H 0.14460 1.27064 -0.24487
 H382 H 0.10734 1.23806 -0.17558
 H383 H 0.18300 1.26326 -0.32907
 H384 H 0.20777 1.13498 -0.39536
 H385 H 0.10277 1.04634 -0.21346
 H386 H 0.08000 1.17340 -0.13843
 C387 C 0.34459 0.33610 -0.28778
 C388 C 0.32774 0.36312 -0.32839
 C389 C 0.30660 0.34440 -0.36822
 C390 C 0.30279 0.29889 -0.36923
 C391 C 0.31973 0.27221 -0.32785
 C392 C 0.34055 0.29075 -0.28649
 C393 C 0.36743 0.35557 -0.24739
 C394 C 0.38440 0.32862 -0.20685
 C395 C 0.40661 0.34723 -0.17001
 C396 C 0.41228 0.39213 -0.17542
 C397 C 0.39494 0.41868 -0.21584
 C398 C 0.37235 0.40062 -0.25157
 C399 C 0.35778 0.26488 -0.24486
 C400 C 0.37922 0.28352 -0.20541
 C401 C 0.33285 0.40821 -0.32983
 C402 C 0.35490 0.42661 -0.29238
 H403 H 0.35481 0.22988 -0.24314
 H404 H 0.39215 0.26235 -0.17441
 H405 H 0.32001 0.42936 -0.36110
 H406 H 0.35849 0.46140 -0.29592
 H407 H 0.29387 0.36509 -0.40052
 H408 H 0.31684 0.23717 -0.32831
 H409 H 0.42006 0.32667 -0.13926
 H410 H 0.39913 0.45334 -0.21976
 C411 C -0.15648 0.83692 -0.28238
 C412 C -0.16095 0.79169 -0.28003
 C413 C -0.18186 0.77321 -0.32123
 C414 C -0.19846 0.79986 -0.36350
 C415 C -0.19422 0.84527 -0.36353
 C416 C -0.17299 0.86390 -0.32388
 C417 C -0.13353 0.85628 -0.24219
 C418 C -0.12819 0.90116 -0.24746
 C419 C -0.10552 0.91911 -0.21192
 C420 C -0.08847 0.89265 -0.17063
 C421 C -0.09456 0.84792 -0.16415
 C422 C -0.11689 0.82940 -0.20078
 C423 C -0.16744 0.90883 -0.32641
 C424 C -0.14529 0.92709 -0.28916
 C425 C -0.14404 0.76587 -0.23755
 C426 C -0.12250 0.78443 -0.19830
 H427 H -0.18000 0.92995 -0.35839
 H428 H -0.14135 0.96171 -0.29356
 H429 H -0.14734 0.73097 -0.23501
 H430 H -0.10982 0.76330 -0.16664
 H431 H -0.18507 0.73823 -0.32092
 H432 H -0.20666 0.86593 -0.39653
 H433 H -0.10101 0.95363 -0.21671
 H434 H -0.08134 0.82740 -0.13275
 C435 C 0.34296 0.66092 0.28411
 C436 C 0.33900 0.70627 0.28283
 C437 C 0.31831 0.72486 0.32452
 C438 C 0.30144 0.69824 0.36628
 C439 C 0.30512 0.65272 0.36517
 C440 C 0.32613 0.63394 0.32498
 C441 C 0.36574 0.64144 0.24354
 C442 C 0.37063 0.59639 0.24779
 C443 C 0.39322 0.57835 0.21204
 C444 C 0.41061 0.60491 0.17159
 C445 C 0.40494 0.64978 0.16604
 C446 C 0.38272 0.66838 0.20287
 C447 C 0.33118 0.58885 0.32640
 C448 C 0.35317 0.57042 0.28876
 C449 C 0.35621 0.73213 0.24099
 C450 C 0.37759 0.71347 0.20138
 H451 H 0.31836 0.56772 0.35785
 H452 H 0.35673 0.53564 0.29233
 H453 H 0.35329 0.76712 0.23928
 H454 H 0.39053 0.73462 0.17027
 H455 H 0.31553 0.75991 0.32505
 H456 H 0.29244 0.63206 0.39776
 H457 H 0.39742 0.54371 0.21607
 H458 H 0.41842 0.67036 0.13527
 C459 C -0.15551 1.16652 0.28247
 C460 C -0.15595 1.21182 0.29199
 C461 C -0.17663 1.23017 0.33384
 C462 C -0.19724 1.20364 0.36500
 C463 C -0.19713 1.15836 0.35209
 C464 C -0.17596 1.13958 0.31222
 C465 C -0.13270 1.14678 0.24227
 C466 C -0.13125 1.10123 0.23642
 C467 C -0.10858 1.08250 0.20168
 C468 C -0.08799 1.10909 0.17136
 C469 C -0.09027 1.15470 0.17537
 C470 C -0.11233 1.17375 0.21208
 C471 C -0.17435 1.09422 0.30322
 C472 C -0.15224 1.07535 0.26642
 C473 C -0.13532 1.23778 0.26058
 C474 C -0.11402 1.21910 0.22084
 H475 H -0.18999 1.07306 0.32597
 H476 H -0.15149 1.04022 0.26172
 H477 H -0.13552 1.27282 0.26719
 H478 H -0.09843 1.24026 0.19791
 H479 H -0.17647 1.26506 0.34244
 H480 H -0.21266 1.13730 0.37564
 H481 H -0.10688 1.04733 0.19822
 H482 H -0.07425 1.17515 0.15250
 C483 C 0.65712 0.33651 0.28057
 C484 C 0.66107 0.29116 0.28024
 C485 C 0.68201 0.27287 0.32158
 C486 C 0.69912 0.29978 0.36211
 C487 C 0.69544 0.34529 0.35997
 C488 C 0.67421 0.36378 0.32009
 C489 C 0.63407 0.35572 0.24051
 C490 C 0.62923 0.40079 0.24389
 C491 C 0.60637 0.41861 0.20882
 C492 C 0.58872 0.39182 0.16973
 C493 C 0.59435 0.34691 0.16488
 C494 C 0.61681 0.32852 0.20120
 C495 C 0.66922 0.40887 0.32053
 C496 C 0.64700 0.42702 0.28333
 C497 C 0.64358 0.26503 0.23973
 C498 C 0.62194 0.28342 0.20057
 H499 H 0.68227 0.43023 0.35085
 H500 H 0.64354 0.46181 0.28597
 H501 H 0.64648 0.23002 0.23875
 H502 H 0.60879 0.26206 0.17051
 H503 H 0.68478 0.23782 0.32289
 H504 H 0.70830 0.36619 0.39156
 H505 H 0.60220 0.45328 0.21226
 H506 H 0.58066 0.32617 0.13513
 C507 C 0.15561 0.83510 0.28668
 C508 C 0.15941 0.78971 0.28561
 C509 C 0.18021 0.77093 0.32690
 C510 C 0.19736 0.79742 0.36798
 C511 C 0.19376 0.84296 0.36677
 C512 C 0.17266 0.86192 0.32702
 C513 C 0.13282 0.85482 0.24634
 C514 C 0.12814 0.89992 0.25031
 C515 C 0.10561 0.91823 0.21463
 C516 C 0.08807 0.89190 0.17444
 C517 C 0.09351 0.84694 0.16921
 C518 C 0.11566 0.82807 0.20603
 C519 C 0.16778 0.90706 0.32825
 C520 C 0.14578 0.92570 0.29085
 C521 C 0.14199 0.76404 0.24423
 C522 C 0.12060 0.78292 0.20481
 H523 H 0.18077 0.92806 0.35930
 H524 H 0.14239 0.96053 0.29419
 H525 H 0.14477 0.72902 0.24267
 H526 H 0.10753 0.76191 0.17400
 H527 H 0.18291 0.73586 0.32753
 H528 H 0.20664 0.86353 0.39885
 H529 H 0.10159 0.95292 0.21842
 H530 H 0.07992 0.82654 0.13865
   
