data_POSCAR
  _audit_creation_date              2014-09-24
  _audit_creation_method            'ToBaCCo'
  _symmetry_space_group_name_H-M    'P1'
  _symmetry_Int_Tables_number       1
  _symmetry_cell_setting            triclinic
  loop_
  _symmetry_equiv_pos_as_xyz
 x,y,z
_cell_length_a 43.3307
_cell_length_b 43.3347
_cell_length_c 46.1070
_cell_angle_alpha 89.932100
_cell_angle_beta 89.999600
_cell_angle_gamma 89.860400
loop_
  _atom_site_label
  _atom_site_type_symbol
  _atom_site_fract_x
  _atom_site_fract_y
  _atom_site_fract_z
C1 C -0.08371 0.31479 0.00063
 C2 C -0.06754 0.31941 0.02645
 C3 C -0.03529 0.32169 0.02610
 C4 C -0.01846 0.31730 0.00013
 C5 C -0.03537 0.31184 -0.02564
 C6 C -0.06772 0.31141 -0.02547
 C7 C 0.01632 0.31736 0.00010
 C8 C 0.03313 0.32177 -0.02587
 C9 C 0.06537 0.31961 -0.02619
 C10 C 0.08156 0.31505 -0.00038
 C11 C 0.06560 0.31164 0.02570
 C12 C 0.03327 0.31198 0.02589
 H13 H -0.10872 0.31324 0.00092
 H14 H -0.02369 0.32653 0.04633
 H15 H -0.02378 0.30723 -0.04594
 H16 H 0.02159 0.32652 -0.04617
 H17 H 0.10655 0.31355 -0.00067
 H18 H 0.02182 0.30734 0.04624
 C19 C 0.41677 0.81572 0.50028
 C20 C 0.43294 0.82031 0.52608
 C21 C 0.46517 0.82253 0.52575
 C22 C 0.48199 0.81817 0.49977
 C23 C 0.46506 0.81277 0.47399
 C24 C 0.43273 0.81234 0.47420
 C25 C 0.51677 0.81820 0.49972
 C26 C 0.53356 0.82256 0.47373
 C27 C 0.56580 0.82039 0.47340
 C28 C 0.58201 0.81583 0.49921
 C29 C 0.56607 0.81245 0.52530
 C30 C 0.53374 0.81283 0.52551
 H31 H 0.39178 0.81416 0.50059
 H32 H 0.47669 0.82728 0.54602
 H33 H 0.47654 0.80818 0.45365
 H34 H 0.52201 0.82729 0.45344
 H35 H 0.60700 0.81431 0.49890
 H36 H 0.52229 0.80824 0.54587
 C37 C 1.08368 0.68523 0.00039
 C38 C 1.06750 0.68063 0.02623
 C39 C 1.03525 0.67836 0.02587
 C40 C 1.01844 0.68273 -0.00012
 C41 C 1.03535 0.68817 -0.02590
 C42 C 1.06770 0.68860 -0.02572
 C43 C 0.98366 0.68268 -0.00016
 C44 C 0.96686 0.67822 -0.02613
 C45 C 0.93462 0.68038 -0.02646
 C46 C 0.91842 0.68498 -0.00067
 C47 C 0.93436 0.68845 0.02540
 C48 C 0.96669 0.68811 0.02561
 H49 H 1.10870 0.68678 0.00069
 H50 H 1.02364 0.67353 0.04611
 H51 H 1.02378 0.69278 -0.04622
 H52 H 0.97841 0.67343 -0.04639
 H53 H 0.89342 0.68649 -0.00098
 H54 H 0.97814 0.69278 0.04594
 C55 C 0.58321 0.18428 0.50082
 C56 C 0.56704 0.17969 0.52662
 C57 C 0.53481 0.17748 0.52629
 C58 C 0.51799 0.18183 0.50030
 C59 C 0.53492 0.18723 0.47452
 C60 C 0.56725 0.18766 0.47473
 C61 C 0.48321 0.18180 0.50026
 C62 C 0.46641 0.17747 0.47427
 C63 C 0.43417 0.17964 0.47394
 C64 C 0.41797 0.18416 0.49974
 C65 C 0.43391 0.18751 0.52583
 C66 C 0.46624 0.18713 0.52604
 H67 H 0.60820 0.18584 0.50112
 H68 H 0.52329 0.17272 0.54658
 H69 H 0.52345 0.19181 0.45416
 H70 H 0.47796 0.17276 0.45398
 H71 H 0.39297 0.18568 0.49943
 H72 H 0.47768 0.19169 0.54639
 C73 C 0.68512 -0.08240 0.00076
 C74 C 0.68064 -0.06617 0.02657
 C75 C 0.67840 -0.03391 0.02614
 C76 C 0.68270 -0.01715 0.00008
 C77 C 0.68803 -0.03416 -0.02565
 C78 C 0.68841 -0.06648 -0.02537
 C79 C 0.68273 0.01763 -0.00007
 C80 C 0.67846 0.03441 -0.02613
 C81 C 0.68075 0.06667 -0.02656
 C82 C 0.68525 0.08287 -0.00075
 C83 C 0.68851 0.06692 0.02538
 C84 C 0.68807 0.03461 0.02566
 H85 H 0.68666 -0.10741 0.00103
 H86 H 0.67365 -0.02225 0.04636
 H87 H 0.69259 -0.02277 -0.04604
 H88 H 0.67370 0.02279 -0.04636
 H89 H 0.68683 0.10786 -0.00101
 H90 H 0.69261 0.02319 0.04606
 C91 C 0.18428 0.41746 0.50046
 C92 C 0.17966 0.43354 0.52630
 C93 C 0.17747 0.46578 0.52606
 C94 C 0.18187 0.48269 0.50014
 C95 C 0.18730 0.46585 0.47431
 C96 C 0.18771 0.43352 0.47442
 C97 C 0.18185 0.51746 0.50022
 C98 C 0.17740 0.53438 0.47429
 C99 C 0.17954 0.56661 0.47405
 C100 C 0.18416 0.58268 0.49989
 C101 C 0.18763 0.56661 0.52593
 C102 C 0.18727 0.53428 0.52604
 H103 H 0.18582 0.39247 0.50069
 H104 H 0.17270 0.47724 0.54637
 H105 H 0.19192 0.47741 0.45400
 H106 H 0.17262 0.52294 0.45399
 H107 H 0.18567 0.60767 0.49965
 H108 H 0.19191 0.52271 0.54634
 C109 C 0.31497 1.08242 -0.00004
 C110 C 0.31952 1.06607 0.02570
 C111 C 0.32169 1.03384 0.02526
 C112 C 0.31729 1.01716 -0.00078
 C113 C 0.31190 1.03425 -0.02650
 C114 C 0.31156 1.06660 -0.02621
 C115 C 0.31722 0.98238 -0.00092
 C116 C 0.32146 0.96564 -0.02696
 C117 C 0.31915 0.93339 -0.02736
 C118 C 0.31465 0.91715 -0.00153
 C119 C 0.31142 0.93306 0.02459
 C120 C 0.31188 0.96537 0.02484
 H121 H 0.31348 1.10742 0.00042
 H122 H 0.32644 1.02220 0.04551
 H123 H 0.30726 1.02282 -0.04685
 H124 H 0.32621 0.97729 -0.04720
 H125 H 0.31306 0.89216 -0.00177
 H126 H 0.30738 0.97677 0.04522
 C127 C 0.81576 0.58252 0.50014
 C128 C 0.82041 0.56642 0.52601
 C129 C 0.82259 0.53419 0.52583
 C130 C 0.81816 0.51729 0.49994
 C131 C 0.81270 0.53414 0.47409
 C132 C 0.81230 0.56647 0.47414
 C133 C 0.81818 0.48252 0.50008
 C134 C 0.82260 0.46561 0.47418
 C135 C 0.82045 0.43338 0.47400
 C136 C 0.81584 0.41730 0.49987
 C137 C 0.81240 0.43336 0.52588
 C138 C 0.81277 0.46569 0.52594
 H139 H 0.81422 0.60751 0.50034
 H140 H 0.82738 0.52271 0.54616
 H141 H 0.80806 0.52260 0.45380
 H142 H 0.82736 0.47706 0.45386
 H143 H 0.81433 0.39231 0.49968
 H144 H 0.80814 0.47725 0.54622
 O145 O 0.29671 0.25004 0.26904
 O146 O 0.24017 0.27830 0.21527
 O147 O 0.25505 0.29324 0.26860
 O148 O 0.28351 0.23689 0.21544
 O149 O 0.24945 0.20290 0.23093
 O150 O 0.22135 0.25929 0.28482
 O151 O 0.20627 0.24457 0.23150
 O152 O 0.26276 0.21595 0.28453
 Cu153 Cu 0.27217 0.26810 0.24052
 Cu154 Cu 0.23148 0.22737 0.25952
 C155 C 0.28932 0.22812 0.28602
 C156 C 0.21365 0.26588 0.21392
 C157 C 0.23378 0.28581 0.28619
 C158 C 0.27132 0.21033 0.21392
 O159 O 0.70323 0.75023 0.26857
 O160 O 0.75974 0.72200 0.21483
 O161 O 0.74487 0.70701 0.26818
 O162 O 0.71645 0.76346 0.21496
 O163 O 0.75053 0.79740 0.23042
 O164 O 0.77860 0.74090 0.28436
 O165 O 0.79368 0.75569 0.23101
 O166 O 0.73721 0.78427 0.28403
 Cu167 Cu 0.72776 0.73220 0.24007
 Cu168 Cu 0.76849 0.77288 0.25902
 C169 C 0.71064 0.77212 0.28554
 C170 C 0.78627 0.73441 0.21346
 C171 C 0.76615 0.71439 0.28575
 C172 C 0.72865 0.79001 0.21342
 O173 O 0.79721 0.24960 0.23064
 O174 O 0.74109 0.22139 0.28469
 O175 O 0.75563 0.20655 0.23125
 O176 O 0.78435 0.26266 0.28434
 O177 O 0.75013 0.29679 0.26912
 O178 O 0.72177 0.24064 0.21529
 O179 O 0.70701 0.25527 0.26873
 O180 O 0.76309 0.28384 0.21542
 Cu181 Cu 0.77290 0.23156 0.25927
 Cu182 Cu 0.73200 0.27247 0.24060
 C183 C 0.78966 0.27158 0.21373
 C184 C 0.71455 0.23389 0.28621
 C185 C 0.73424 0.21409 0.21380
 C186 C 0.77213 0.28925 0.28598
 O187 O 0.24981 0.70320 0.26887
 O188 O 0.27819 0.75933 0.21490
 O189 O 0.29294 0.74471 0.26838
 O190 O 0.23685 0.71615 0.21513
 O191 O 0.20275 0.75041 0.23027
 O192 O 0.25889 0.77860 0.28425
 O193 O 0.24435 0.79344 0.23078
 O194 O 0.21560 0.73735 0.28401
 Cu195 Cu 0.26794 0.72751 0.24029
 Cu196 Cu 0.22707 0.76844 0.25886
 C197 C 0.22782 0.71075 0.28571
 C198 C 0.26573 0.78589 0.21334
 C199 C 0.28542 0.76609 0.28581
 C200 C 0.21028 0.72843 0.21342
 O201 O 0.77919 0.25943 0.71604
 O202 O 0.75109 0.20302 0.76991
 O203 O 0.73797 0.21611 0.71625
 O204 O 0.79406 0.24470 0.76949
 O205 O 0.75990 0.27843 0.78549
 O206 O 0.70377 0.25019 0.73154
 O207 O 0.71680 0.23700 0.78520
 O208 O 0.74524 0.29337 0.73204
 Cu209 Cu 0.76908 0.22751 0.74137
 Cu210 Cu 0.72810 0.26823 0.76011
 C211 C 0.76662 0.28594 0.71455
 C212 C 0.72910 0.21044 0.78681
 C213 C 0.71135 0.22827 0.71463
 C214 C 0.78647 0.26600 0.78699
 O215 O 0.29623 0.74984 0.73117
 O216 O 0.24011 0.72157 0.78518
 O217 O 0.25479 0.70663 0.73177
 O218 O 0.28318 0.76304 0.78479
 O219 O 0.24887 0.79699 0.76941
 O220 O 0.22082 0.74054 0.71568
 O221 O 0.20593 0.75527 0.76909
 O222 O 0.26201 0.78389 0.71579
 Cu223 Cu 0.27191 0.73179 0.75978
 Cu224 Cu 0.23090 0.77248 0.74094
 C225 C 0.28864 0.77174 0.71420
 C226 C 0.21353 0.73399 0.78665
 C227 C 0.23340 0.71404 0.71426
 C228 C 0.27086 0.78959 0.78633
 O229 O 0.20312 0.24888 0.76937
 O230 O 0.25959 0.22069 0.71558
 O231 O 0.24486 0.20577 0.76899
 O232 O 0.21620 0.26203 0.71575
 O233 O 0.25023 0.29609 0.73110
 O234 O 0.27854 0.23978 0.78506
 O235 O 0.29348 0.25449 0.73165
 O236 O 0.23705 0.28303 0.78472
 Cu237 Cu 0.22764 0.23085 0.74087
 Cu238 Cu 0.26831 0.27166 0.75969
 C239 C 0.21050 0.27083 0.78628
 C240 C 0.28609 0.23316 0.71415
 C241 C 0.26615 0.21325 0.78652
 C242 C 0.22832 0.28862 0.71416
 O243 O 0.74987 0.70362 0.73064
 O244 O 0.72151 0.75983 0.78454
 O245 O 0.70658 0.74518 0.73115
 O246 O 0.76304 0.71663 0.78425
 O247 O 0.79693 0.75083 0.76886
 O248 O 0.74043 0.77903 0.71504
 O249 O 0.75515 0.79389 0.76843
 O250 O 0.78386 0.73772 0.71525
 Cu251 Cu 0.73177 0.72799 0.75920
 Cu252 Cu 0.77239 0.76887 0.74033
 C253 C 0.77176 0.71113 0.71369
 C254 C 0.73387 0.78637 0.78598
 C255 C 0.71394 0.76654 0.71362
 C256 C 0.78958 0.72886 0.78580
 C257 C 0.27703 0.13947 0.16602
 C258 C 0.30046 0.14819 0.14680
 C259 C 0.31530 0.17655 0.15037
 C260 C 0.30633 0.19645 0.17267
 C261 C 0.31909 0.08239 0.05287
 C262 C 0.26802 0.15933 0.18838
 C263 C 0.30765 0.12913 0.12216
 C264 C 0.31261 0.11382 0.10086
 C265 C 0.31693 0.09658 0.07524
 C266 C 0.28228 0.18825 0.19168
 H267 H 0.26526 0.11763 0.16333
 H268 H 0.33333 0.18361 0.13550
 H269 H 0.31781 0.21852 0.17463
 H270 H 0.24944 0.15234 0.20264
 C271 C 0.77793 0.64022 0.66595
 C272 C 0.80132 0.64903 0.64673
 C273 C 0.81600 0.67749 0.65025
 C274 C 0.80689 0.69738 0.67250
 C275 C 0.82005 0.58296 0.55304
 C276 C 0.76877 0.66008 0.68825
 C277 C 0.80861 0.62997 0.62214
 C278 C 0.81361 0.61462 0.60088
 C279 C 0.81793 0.59728 0.57534
 C280 C 0.78286 0.68908 0.69150
 H281 H 0.76628 0.61831 0.66329
 H282 H 0.83400 0.68461 0.63539
 H283 H 0.81824 0.71952 0.67443
 H284 H 0.75022 0.65301 0.70250
 C285 C 0.68471 0.82394 0.14983
 C286 C 0.69956 0.85231 0.14627
 C287 C 0.72297 0.86098 0.16551
 C288 C 0.73197 0.84107 0.18787
 C289 C 0.68113 0.91829 0.05227
 C290 C 0.69367 0.80399 0.17214
 C291 C 0.69240 0.87141 0.12161
 C292 C 0.68748 0.88677 0.10030
 C293 C 0.68322 0.90407 0.07467
 C294 C 0.71771 0.81214 0.19117
 H295 H 0.66670 0.81691 0.13496
 H296 H 0.73475 0.88282 0.16282
 H297 H 0.75054 0.84803 0.20214
 H298 H 0.68219 0.78192 0.17410
 C299 C 0.18409 0.32238 0.65070
 C300 C 0.19880 0.35082 0.64713
 C301 C 0.22223 0.35958 0.66632
 C302 C 0.23137 0.33969 0.68864
 C303 C 0.18005 0.41698 0.55336
 C304 C 0.19319 0.30246 0.67297
 C305 C 0.19151 0.36991 0.62252
 C306 C 0.18651 0.38529 0.60124
 C307 C 0.18218 0.40265 0.57567
 C308 C 0.21724 0.31070 0.69195
 H309 H 0.16606 0.31530 0.63586
 H310 H 0.23390 0.38148 0.66362
 H311 H 0.24994 0.34672 0.70287
 H312 H 0.18181 0.28033 0.67494
 C313 C 0.82306 0.31564 0.15007
 C314 C 0.85144 0.30073 0.14634
 C315 C 0.86031 0.27726 0.16551
 C316 C 0.84057 0.26824 0.18796
 C317 C 0.91692 0.31899 0.05213
 C318 C 0.80329 0.30667 0.17247
 C319 C 0.87035 0.30788 0.12160
 C320 C 0.88557 0.31278 0.10022
 C321 C 0.90274 0.31697 0.07454
 C322 C 0.81163 0.28256 0.19142
 H323 H 0.81589 0.33371 0.13525
 H324 H 0.88216 0.26543 0.16270
 H325 H 0.84768 0.24962 0.20217
 H326 H 0.78119 0.31819 0.17455
 C327 C 0.35949 0.77772 0.66628
 C328 C 0.35061 0.80113 0.64705
 C329 C 0.32211 0.81588 0.65062
 C330 C 0.30227 0.80682 0.67293
 C331 C 0.41649 0.81988 0.55319
 C332 C 0.33968 0.76862 0.68864
 C333 C 0.36963 0.80839 0.62241
 C334 C 0.38495 0.81339 0.60112
 C335 C 0.40224 0.81773 0.57553
 C336 C 0.31064 0.78278 0.69194
 H337 H 0.38143 0.76602 0.66359
 H338 H 0.31493 0.83389 0.63575
 H339 H 0.28010 0.81823 0.67489
 H340 H 0.34681 0.75006 0.70290
 C341 C 0.17687 0.68437 0.14986
 C342 C 0.14849 0.69930 0.14609
 C343 C 0.13964 0.72279 0.16520
 C344 C 0.15938 0.73179 0.18763
 C345 C 0.08304 0.68105 0.05191
 C346 C 0.19664 0.69333 0.17224
 C347 C 0.12959 0.69216 0.12136
 C348 C 0.11437 0.68727 0.09999
 C349 C 0.09720 0.68307 0.07432
 C350 C 0.18831 0.71746 0.19113
 H351 H 0.18403 0.66630 0.13509
 H352 H 0.11780 0.73463 0.16236
 H353 H 0.15229 0.75043 0.20179
 H354 H 0.21872 0.68179 0.17436
 C355 C 0.64050 0.22232 0.66671
 C356 C 0.64938 0.19889 0.64755
 C357 C 0.67786 0.18413 0.65116
 C358 C 0.69771 0.19318 0.67345
 C359 C 0.58349 0.18013 0.55373
 C360 C 0.66032 0.23142 0.68905
 C361 C 0.63035 0.19163 0.62293
 C362 C 0.61503 0.18663 0.60165
 C363 C 0.59774 0.18229 0.57607
 C364 C 0.68934 0.21724 0.69240
 H365 H 0.61857 0.23404 0.66399
 H366 H 0.68503 0.16610 0.63634
 H367 H 0.71986 0.18176 0.67544
 H368 H 0.65319 0.24999 0.70326
 C369 C 0.72343 0.13948 0.83470
 C370 C 0.69989 0.14818 0.85384
 C371 C 0.68497 0.17658 0.85022
 C372 C 0.69397 0.19652 0.82794
 C373 C 0.68128 0.08220 0.94774
 C374 C 0.73247 0.15938 0.81238
 C375 C 0.69268 0.12908 0.87846
 C376 C 0.68771 0.11372 0.89974
 C377 C 0.68340 0.09643 0.92536
 C378 C 0.71813 0.18833 0.80902
 H379 H 0.73527 0.11762 0.83743
 H380 H 0.66686 0.18363 0.86501
 H381 H 0.68242 0.21861 0.82594
 H382 H 0.75113 0.15239 0.79819
 C383 C 0.22190 0.64002 0.33385
 C384 C 0.19842 0.64890 0.35296
 C385 C 0.18358 0.67733 0.34923
 C386 C 0.19263 0.69713 0.32687
 C387 C 0.17988 0.58315 0.44698
 C388 C 0.23100 0.65979 0.31144
 C389 C 0.19119 0.62996 0.37767
 C390 C 0.18623 0.61468 0.39901
 C391 C 0.18197 0.59743 0.42463
 C392 C 0.21676 0.68877 0.30798
 H393 H 0.23367 0.61814 0.33666
 H394 H 0.16551 0.68451 0.36402
 H395 H 0.18116 0.71925 0.32479
 H396 H 0.24963 0.65267 0.29727
 C397 C 0.31496 0.82351 0.84965
 C398 C 0.30002 0.85190 0.85320
 C399 C 0.27648 0.86058 0.83404
 C400 C 0.26745 0.84066 0.81177
 C401 C 0.31861 0.91788 0.94696
 C402 C 0.30598 0.80355 0.82743
 C403 C 0.30722 0.87101 0.87777
 C404 C 0.31218 0.88638 0.89903
 C405 C 0.31648 0.90367 0.92460
 C406 C 0.28181 0.81172 0.80849
 H407 H 0.33308 0.81648 0.86447
 H408 H 0.26462 0.88243 0.83672
 H409 H 0.24879 0.84763 0.79756
 H410 H 0.31754 0.78147 0.82549
 C411 C 0.77801 0.35998 0.33397
 C412 C 0.80151 0.35112 0.35309
 C413 C 0.81637 0.32271 0.34941
 C414 C 0.80733 0.30290 0.32709
 C415 C 0.82009 0.41685 0.44696
 C416 C 0.76891 0.34021 0.31161
 C417 C 0.80875 0.37006 0.37775
 C418 C 0.81371 0.38534 0.39905
 C419 C 0.81799 0.40259 0.42464
 C420 C 0.78318 0.31124 0.30820
 H421 H 0.76622 0.38185 0.33675
 H422 H 0.83447 0.31554 0.36419
 H423 H 0.81882 0.28079 0.32505
 H424 H 0.75027 0.34731 0.29744
 C425 C 0.17649 0.31508 0.84955
 C426 C 0.14809 0.30028 0.85310
 C427 C 0.13944 0.27678 0.83396
 C428 C 0.15940 0.26765 0.81171
 C429 C 0.08184 0.31917 0.94671
 C430 C 0.19649 0.30599 0.82735
 C431 C 0.12894 0.30758 0.87764
 C432 C 0.11352 0.31262 0.89887
 C433 C 0.09615 0.31699 0.92440
 C434 C 0.18835 0.28187 0.80843
 H435 H 0.18350 0.33316 0.86434
 H436 H 0.11758 0.26504 0.83664
 H437 H 0.15245 0.24903 0.79752
 H438 H 0.21857 0.31744 0.82539
 C439 C 0.67672 0.81619 0.34895
 C440 C 0.64833 0.80138 0.35250
 C441 C 0.63963 0.77796 0.33330
 C442 C 0.65955 0.76891 0.31099
 C443 C 0.58225 0.81998 0.44629
 C444 C 0.69668 0.80718 0.32669
 C445 C 0.62922 0.80859 0.37710
 C446 C 0.61385 0.81355 0.39837
 C447 C 0.59653 0.81785 0.42395
 C448 C 0.68850 0.78312 0.30771
 H449 H 0.68376 0.83421 0.36380
 H450 H 0.61777 0.76622 0.33597
 H451 H 0.65258 0.75033 0.29675
 H452 H 0.71877 0.81863 0.32475
 C453 C 0.82359 0.68464 0.84917
 C454 C 0.85197 0.69947 0.85271
 C455 C 0.86061 0.72298 0.83353
 C456 C 0.84066 0.73209 0.81124
 C457 C 0.91817 0.68076 0.94644
 C458 C 0.80361 0.69370 0.82693
 C459 C 0.87111 0.69221 0.87729
 C460 C 0.88651 0.68722 0.89854
 C461 C 0.90387 0.68289 0.92411
 C462 C 0.81173 0.71783 0.80797
 H463 H 0.81660 0.66655 0.86400
 H464 H 0.88245 0.73475 0.83620
 H465 H 0.84759 0.75072 0.79702
 H466 H 0.78154 0.68222 0.82499
 C467 C 0.32327 0.18397 0.34947
 C468 C 0.35166 0.19880 0.35301
 C469 C 0.36033 0.22226 0.33379
 C470 C 0.34041 0.23134 0.31148
 C471 C 0.41772 0.18009 0.44683
 C472 C 0.30332 0.19300 0.32720
 C473 C 0.37076 0.19157 0.37762
 C474 C 0.38613 0.18658 0.39890
 C475 C 0.40345 0.18225 0.42449
 C476 C 0.31147 0.21710 0.30821
 H477 H 0.31625 0.16592 0.36433
 H478 H 0.38218 0.23403 0.33647
 H479 H 0.34736 0.24994 0.29723
 H480 H 0.28124 0.18154 0.32527
 C481 C 0.69549 0.81960 0.85300
 C482 C 0.71019 0.84824 0.85522
 C483 C 0.73134 0.85730 0.83395
 C484 C 0.73834 0.83754 0.81092
 C485 C 0.69288 0.91645 0.94816
 C486 C 0.70245 0.79978 0.82996
 C487 C 0.70477 0.86764 0.88004
 C488 C 0.70078 0.88351 0.90119
 C489 C 0.69648 0.90156 0.92634
 C490 C 0.72430 0.80836 0.80888
 H491 H 0.67913 0.81232 0.86939
 H492 H 0.74290 0.87938 0.83548
 H493 H 0.75527 0.84486 0.79508
 H494 H 0.69128 0.77748 0.82906
 C495 C 0.23135 0.35693 0.33396
 C496 C 0.21010 0.34803 0.35521
 C497 C 0.19536 0.31941 0.35306
 C498 C 0.20233 0.29946 0.33012
 C499 C 0.19234 0.41656 0.44790
 C500 C 0.23837 0.33705 0.31102
 C501 C 0.20460 0.36758 0.37992
 C502 C 0.20051 0.38355 0.40099
 C503 C 0.19607 0.40168 0.42609
 C504 C 0.22425 0.30789 0.30904
 H505 H 0.24295 0.37899 0.33543
 H506 H 0.17892 0.31224 0.36943
 H507 H 0.19110 0.27719 0.32927
 H508 H 0.25535 0.34426 0.29519
 C509 C 0.30455 0.17987 0.85355
 C510 C 0.28983 0.15124 0.85580
 C511 C 0.26865 0.14224 0.83455
 C512 C 0.26164 0.16205 0.81151
 C513 C 0.30728 0.08284 0.94876
 C514 C 0.29759 0.19974 0.83050
 C515 C 0.29527 0.13178 0.88062
 C516 C 0.29929 0.11587 0.90177
 C517 C 0.30363 0.09777 0.92693
 C518 C 0.27571 0.19122 0.80944
 H519 H 0.32094 0.18710 0.86992
 H520 H 0.25707 0.12016 0.83610
 H521 H 0.24469 0.15477 0.79569
 H522 H 0.30878 0.22203 0.82958
 C523 C 0.80460 0.68068 0.35263
 C524 C 0.78982 0.65207 0.35482
 C525 C 0.76854 0.64322 0.33361
 C526 C 0.76152 0.66314 0.31065
 C527 C 0.80764 0.58344 0.44760
 C528 C 0.79762 0.70065 0.32967
 C529 C 0.79533 0.63248 0.37956
 C530 C 0.79943 0.61649 0.40064
 C531 C 0.80389 0.59835 0.42577
 C532 C 0.77567 0.69228 0.30862
 H533 H 0.82107 0.68780 0.36897
 H534 H 0.75691 0.62117 0.33511
 H535 H 0.74451 0.65597 0.29484
 H536 H 0.80889 0.72292 0.32878
 C537 C 0.14266 0.73160 0.83480
 C538 C 0.15178 0.71039 0.85604
 C539 C 0.18045 0.69562 0.85375
 C540 C 0.20023 0.70255 0.83067
 C541 C 0.08379 0.69291 0.94918
 C542 C 0.16238 0.73857 0.81172
 C543 C 0.13241 0.70496 0.88091
 C544 C 0.11658 0.70094 0.90209
 C545 C 0.09860 0.69658 0.92730
 C546 C 0.19159 0.72445 0.80961
 H547 H 0.12055 0.74321 0.83638
 H548 H 0.18778 0.67920 0.87012
 H549 H 0.22255 0.69131 0.82972
 H550 H 0.15501 0.75554 0.79590
 C551 C 0.64359 0.23141 0.33425
 C552 C 0.65264 0.21007 0.35541
 C553 C 0.68129 0.19528 0.35312
 C554 C 0.70114 0.20230 0.33011
 C555 C 0.58428 0.19226 0.44824
 C556 C 0.66338 0.23847 0.31124
 C557 C 0.63318 0.20453 0.38019
 C558 C 0.61727 0.20042 0.40130
 C559 C 0.59918 0.19598 0.42643
 C560 C 0.69257 0.22431 0.30912
 H561 H 0.62150 0.24304 0.33583
 H562 H 0.68856 0.17877 0.36943
 H563 H 0.72345 0.19103 0.32915
 H564 H 0.65606 0.25553 0.29548
 C565 C 0.85734 0.26836 0.83515
 C566 C 0.84823 0.28959 0.85633
 C567 C 0.81957 0.30438 0.85400
 C568 C 0.79979 0.29745 0.83093
 C569 C 0.91620 0.30709 0.94943
 C570 C 0.83761 0.26138 0.81209
 C571 C 0.86760 0.29502 0.88118
 C572 C 0.88342 0.29904 0.90236
 C573 C 0.90140 0.30341 0.92756
 C574 C 0.80842 0.27553 0.80993
 H575 H 0.87943 0.25672 0.83676
 H576 H 0.81225 0.32081 0.87032
 H577 H 0.77747 0.30871 0.82994
 H578 H 0.84497 0.24440 0.79631
 C579 C 0.35637 0.76855 0.33384
 C580 C 0.34734 0.78991 0.35494
 C581 C 0.31870 0.80472 0.35261
 C582 C 0.29885 0.79770 0.32962
 C583 C 0.41570 0.80773 0.44773
 C584 C 0.33658 0.76148 0.31085
 C585 C 0.36680 0.79545 0.37971
 C586 C 0.38271 0.79956 0.40081
 C587 C 0.40081 0.80400 0.42592
 C588 C 0.30740 0.77567 0.30869
 H589 H 0.37846 0.75690 0.33545
 H590 H 0.31144 0.82124 0.36887
 H591 H 0.27655 0.80898 0.32862
 H592 H 0.34389 0.74442 0.29513
 C593 C 0.30429 0.81906 0.14639
 C594 C 0.28953 0.84773 0.14407
 C595 C 0.26827 0.85683 0.16525
 C596 C 0.26123 0.83707 0.18829
 C597 C 0.30694 0.91599 0.05108
 C598 C 0.29730 0.79924 0.16944
 C599 C 0.29499 0.86714 0.11923
 C600 C 0.29901 0.88302 0.09808
 C601 C 0.30333 0.90108 0.07291
 C602 C 0.27534 0.80786 0.19043
 H603 H 0.32074 0.81176 0.13007
 H604 H 0.25665 0.87893 0.16364
 H605 H 0.24422 0.84442 0.20406
 H606 H 0.30853 0.77692 0.17042
 C607 C 0.80510 0.31946 0.64769
 C608 C 0.79019 0.34806 0.64538
 C609 C 0.76882 0.35698 0.66653
 C610 C 0.76184 0.33714 0.68953
 C611 C 0.80780 0.41641 0.55244
 C612 C 0.79817 0.29956 0.67069
 C613 C 0.79564 0.36756 0.62059
 C614 C 0.79970 0.38348 0.59946
 C615 C 0.80410 0.40155 0.57429
 C616 C 0.77612 0.30801 0.69167
 H617 H 0.82164 0.31228 0.63140
 H618 H 0.75708 0.37903 0.66493
 H619 H 0.74475 0.34436 0.70527
 H620 H 0.80953 0.27730 0.67167
 C621 C 0.69566 0.18087 0.14695
 C622 C 0.71045 0.15221 0.14469
 C623 C 0.73173 0.14314 0.16587
 C624 C 0.73877 0.16290 0.18886
 C625 C 0.69300 0.08397 0.05185
 C626 C 0.70266 0.20070 0.16994
 C627 C 0.70498 0.13279 0.11990
 C628 C 0.70095 0.11692 0.09878
 C629 C 0.69662 0.09885 0.07365
 C630 C 0.72463 0.19211 0.19094
 H631 H 0.67920 0.18816 0.13062
 H632 H 0.74336 0.12104 0.16431
 H633 H 0.75579 0.15557 0.20464
 H634 H 0.69141 0.22302 0.17088
 C635 C 0.19492 0.68048 0.64749
 C636 C 0.20987 0.65190 0.64523
 C637 C 0.23127 0.64300 0.66639
 C638 C 0.23824 0.66285 0.68934
 C639 C 0.19225 0.58354 0.55245
 C640 C 0.20185 0.70039 0.67045
 C641 C 0.20442 0.63239 0.62049
 C642 C 0.20036 0.61647 0.59940
 C643 C 0.19596 0.59840 0.57427
 C644 C 0.22392 0.69197 0.69142
 H645 H 0.17837 0.68764 0.63119
 H646 H 0.24302 0.62097 0.66484
 H647 H 0.25534 0.65565 0.70510
 H648 H 0.19046 0.72263 0.67138
 C649 C 0.81996 0.69596 0.14667
 C650 C 0.84859 0.71069 0.14452
 C651 C 0.85748 0.73191 0.16576
 C652 C 0.83757 0.73894 0.18868
 C653 C 0.91729 0.69305 0.05187
 C654 C 0.79998 0.70294 0.16960
 C655 C 0.86817 0.70521 0.11981
 C656 C 0.88417 0.70115 0.09874
 C657 C 0.90234 0.69675 0.07366
 C658 C 0.80840 0.72485 0.19065
 H659 H 0.81281 0.67954 0.13030
 H660 H 0.87956 0.74350 0.16429
 H661 H 0.84477 0.75591 0.20450
 H662 H 0.77770 0.69173 0.17044
 C663 C 0.35719 0.23079 0.66628
 C664 C 0.34829 0.20952 0.64509
 C665 C 0.31970 0.19472 0.64731
 C666 C 0.29977 0.20168 0.67029
 C667 C 0.41684 0.19204 0.55231
 C668 C 0.33731 0.23779 0.68925
 C669 C 0.36782 0.20407 0.62033
 C670 C 0.38378 0.20004 0.59923
 C671 C 0.40191 0.19569 0.57412
 C672 C 0.30818 0.22363 0.69130
 H673 H 0.37923 0.24243 0.66475
 H674 H 0.31255 0.17827 0.63098
 H675 H 0.27751 0.19041 0.67120
 H676 H 0.34451 0.25480 0.70504
 C677 C 0.14244 0.26835 0.16621
 C678 C 0.15133 0.28958 0.14493
 C679 C 0.17995 0.30433 0.14705
 C680 C 0.19992 0.29736 0.17000
 C681 C 0.08266 0.30709 0.05220
 C682 C 0.16236 0.26134 0.18916
 C683 C 0.13175 0.29503 0.12019
 C684 C 0.11577 0.29907 0.09911
 C685 C 0.09760 0.30343 0.07400
 C686 C 0.19152 0.27544 0.19110
 H687 H 0.12037 0.25675 0.16476
 H688 H 0.18710 0.32075 0.13065
 H689 H 0.22221 0.30858 0.17082
 H690 H 0.15517 0.24436 0.20501
 C691 C 0.64284 0.76893 0.66576
 C692 C 0.65170 0.79025 0.64456
 C693 C 0.68028 0.80508 0.64678
 C694 C 0.70022 0.79810 0.66975
 C695 C 0.58313 0.80788 0.55178
 C696 C 0.66272 0.76190 0.68873
 C697 C 0.63217 0.79574 0.61980
 C698 C 0.61620 0.79980 0.59871
 C699 C 0.59806 0.80420 0.57359
 C700 C 0.69184 0.77609 0.69077
 H701 H 0.62081 0.75726 0.66424
 H702 H 0.68741 0.82158 0.63044
 H703 H 0.72247 0.80939 0.67065
 H704 H 0.65555 0.74485 0.70452
   
