data_POSCAR
  _audit_creation_date              2014-09-24
  _audit_creation_method            'ToBaCCo'
  _symmetry_space_group_name_H-M    'P1'
  _symmetry_Int_Tables_number       1
  _symmetry_cell_setting            triclinic
  loop_
  _symmetry_equiv_pos_as_xyz
 x,y,z
_cell_length_a 36.9060
_cell_length_b 39.2851
_cell_length_c 30.8248
_cell_angle_alpha 89.226700
_cell_angle_beta 90.130500
_cell_angle_gamma 89.939100
loop_
  _atom_site_label
  _atom_site_type_symbol
  _atom_site_fract_x
  _atom_site_fract_y
  _atom_site_fract_z
C1 C 0.39723 0.24365 -0.04582
 C2 C 0.39404 0.23589 -0.00247
 C3 C 0.38120 0.26494 0.01743
 N4 N 0.37717 0.29029 -0.01206
 C5 C 0.38696 0.27750 -0.05084
 C6 C 0.37604 0.26879 0.06238
 C7 C 0.35897 0.29758 0.08008
 C8 C 0.36250 0.30815 0.12251
 C9 C 0.33912 0.33523 0.12738
 C10 C 0.32097 0.33967 0.08816
 N11 N 0.33386 0.31695 0.05930
 C12 C 0.29125 0.36201 0.08030
 C13 C 0.27928 0.36969 0.03770
 C14 C 0.24547 0.38246 0.02630
 C15 C 0.24590 0.38784 -0.01787
 C16 C 0.28019 0.37859 -0.03186
 N17 N 0.30032 0.36736 0.00218
 C18 C 0.29395 0.38096 -0.07455
 C19 C 0.32833 0.36725 -0.08301
 C20 C 0.35394 0.38127 -0.11075
 C21 C 0.38084 0.35736 -0.11473
 C22 C 0.37043 0.32949 -0.08961
 N23 N 0.33917 0.33630 -0.06888
 C24 C 0.38689 0.29715 -0.08964
 H25 H 0.40564 0.22584 -0.07018
 H26 H 0.40052 0.21157 0.01245
 H27 H 0.32345 0.31897 -0.05114
 H28 H 0.38011 0.29750 0.14732
 H29 H 0.33590 0.34965 0.15673
 H30 H 0.22253 0.38670 0.04734
 H31 H 0.22320 0.39696 -0.03692
 H32 H 0.40469 0.35970 -0.13490
 H33 H 0.32312 0.31207 0.02871
 H34 H 0.35276 0.40575 -0.12725
 C35 C 0.72757 0.58280 0.00636
 C36 C 0.72398 0.57861 0.05038
 C37 C 0.70534 0.60685 0.06517
 N38 N 0.69735 0.62785 0.03156
 C39 C 0.71073 0.61336 -0.00453
 C40 C 0.70208 0.61624 0.10902
 C41 C 0.68202 0.64532 0.12185
 C42 C 0.68601 0.66185 0.16100
 C43 C 0.66151 0.68836 0.16085
 C44 C 0.64239 0.68692 0.12209
 N45 N 0.65521 0.66061 0.09847
 C46 C 0.61251 0.70813 0.11026
 C47 C 0.59975 0.71061 0.06707
 C48 C 0.56590 0.72259 0.05419
 C49 C 0.56544 0.72241 0.00958
 C50 C 0.59905 0.71061 -0.00313
 N51 N 0.61995 0.70350 0.03194
 C52 C 0.61094 0.70755 -0.04625
 C53 C 0.64503 0.69374 -0.05627
 C54 C 0.66352 0.69966 -0.09457
 C55 C 0.69270 0.67800 -0.09422
 C56 C 0.69130 0.65934 -0.05550
 N57 N 0.66195 0.66931 -0.03270
 C58 C 0.71313 0.63057 -0.04503
 H59 H 0.74238 0.56587 -0.01451
 H60 H 0.73564 0.55796 0.06930
 H61 H 0.65061 0.65683 -0.00607
 H62 H 0.70481 0.65579 0.18694
 H63 H 0.65847 0.70664 0.18650
 H64 H 0.54361 0.73014 0.07468
 H65 H 0.54305 0.73020 -0.01103
 H66 H 0.71116 0.67508 -0.12107
 H67 H 0.64398 0.65161 0.06981
 H68 H 0.65596 0.71689 -0.12078
 C69 C 0.71610 0.41031 1.01815
 C70 C 0.71809 0.41528 0.97400
 C71 C 0.71067 0.38419 0.95534
 N72 N 0.70454 0.36031 0.98655
 C73 C 0.70762 0.37623 1.02511
 C74 C 0.70926 0.37807 0.91031
 C75 C 0.69631 0.34722 0.89327
 C76 C 0.70411 0.33541 0.85214
 C77 C 0.68074 0.30887 0.84440
 C78 C 0.65890 0.30562 0.88076
 N79 N 0.66915 0.32866 0.91075
 C80 C 0.62832 0.28404 0.88466
 C81 C 0.61463 0.27511 0.92608
 C82 C 0.58216 0.25852 0.93465
 C83 C 0.58144 0.25216 0.97852
 C84 C 0.61301 0.26575 0.99531
 N85 N 0.63323 0.27965 0.96337
 C86 C 0.62457 0.26224 1.03862
 C87 C 0.65151 0.28324 1.05674
 C88 C 0.66916 0.27667 1.09562
 C89 C 0.69131 0.30413 1.10310
 C90 C 0.68621 0.32704 1.06887
 N91 N 0.66227 0.31380 1.04035
 C92 C 0.70157 0.36023 1.06604
 H93 H 0.71918 0.43006 1.04193
 H94 H 0.72348 0.43927 0.95765
 H95 H 0.65090 0.32660 1.01381
 H96 H 0.72376 0.34573 0.82952
 H97 H 0.67951 0.29425 0.81495
 H98 H 0.56092 0.25175 0.91220
 H99 H 0.56011 0.23913 0.99614
 H100 H 0.70900 0.30703 1.13086
 H101 H 0.65485 0.33510 0.93856
 H102 H 0.66620 0.25452 1.11657
 C103 C 0.41951 0.74572 1.02844
 C104 C 0.41626 0.74674 0.98402
 C105 C 0.38691 0.72649 0.97380
 N106 N 0.37269 0.71264 1.01052
 C107 C 0.39231 0.72440 1.04417
 C108 C 0.37228 0.72146 0.93189
 C109 C 0.34160 0.70071 0.92659
 C110 C 0.31672 0.70396 0.89301
 C111 C 0.29649 0.67468 0.89332
 C112 C 0.30942 0.65476 0.92741
 N113 N 0.33619 0.67115 0.94839
 C114 C 0.29953 0.62079 0.93552
 C115 C 0.30144 0.60635 0.97750
 C116 C 0.29284 0.57307 0.98847
 C117 C 0.29543 0.57058 1.03274
 C118 C 0.30578 0.60244 1.04740
 N119 N 0.30993 0.62404 1.01340
 C120 C 0.31291 0.61100 1.09106
 C121 C 0.33935 0.63604 1.10055
 C122 C 0.36448 0.63292 1.13378
 C123 C 0.38506 0.66187 1.13286
 C124 C 0.37218 0.68211 1.09898
 N125 N 0.34515 0.66558 1.07811
 C126 C 0.38653 0.71469 1.08827
 H127 H 0.44119 0.75777 1.04605
 H128 H 0.43394 0.76070 0.96236
 H129 H 0.32929 0.67546 1.05290
 H130 H 0.31472 0.72452 0.86939
 H131 H 0.27549 0.66828 0.87026
 H132 H 0.28589 0.55247 0.96707
 H133 H 0.29215 0.54721 1.05121
 H134 H 0.40784 0.66699 1.15395
 H135 H 0.35359 0.66036 0.97152
 H136 H 0.36863 0.61132 1.15539
 C137 C -0.04490 0.39869 0.26045
 C138 C -0.01031 0.40478 0.24652
 C139 C 0.00986 0.37622 0.25728
 N140 N -0.01143 0.35242 0.27655
 C141 C -0.04528 0.36593 0.27821
 C142 C 0.04725 0.37271 0.24851
 C143 C 0.07076 0.35094 0.27241
 C144 C 0.10726 0.34610 0.26372
 C145 C 0.12123 0.32641 0.29707
 C146 C 0.09265 0.31856 0.32459
 N147 N 0.06229 0.33446 0.30969
 C148 C 0.09444 0.29936 0.36397
 C149 C 0.06215 0.29138 0.38632
 C150 C 0.05867 0.28489 0.43057
 C151 C 0.02452 0.27229 0.43681
 C152 C 0.00825 0.27198 0.39637
 N153 N 0.03094 0.28389 0.36563
 C154 C -0.02617 0.25871 0.38743
 C155 C -0.04918 0.27583 0.35738
 C156 C -0.08183 0.26385 0.34121
 C157 C -0.09605 0.28946 0.31529
 C158 C -0.07162 0.31626 0.31605
 N159 N -0.04302 0.30760 0.34132
 C160 C -0.07612 0.34822 0.29469
 H161 H -0.06646 0.41720 0.25833
 H162 H -0.00076 0.42820 0.23159
 H163 H -0.02204 0.32386 0.35021
 H164 H 0.12277 0.35668 0.23703
 H165 H 0.14959 0.32052 0.30098
 H166 H 0.07807 0.28932 0.45618
 H167 H 0.01276 0.26456 0.46754
 H168 H -0.12119 0.28823 0.29725
 H169 H 0.03788 0.33672 0.32616
 H170 H -0.09418 0.23926 0.34689
 C171 C -0.01494 0.76275 0.60134
 C172 C 0.02152 0.75613 0.59561
 C173 C 0.03417 0.74221 0.63434
 N174 N 0.00697 0.74066 0.66344
 C175 C -0.02325 0.75275 0.64355
 C176 C 0.06981 0.73077 0.64320
 C177 C 0.07815 0.71196 0.68155
 C178 C 0.11208 0.71004 0.70088
 C179 C 0.10987 0.68588 0.73362
 C180 C 0.07474 0.67343 0.73310
 N181 N 0.05550 0.68972 0.70150
 C182 C 0.06221 0.64561 0.75861
 C183 C 0.02574 0.63581 0.76021
 C184 C 0.01224 0.60479 0.77492
 C185 C -0.02508 0.60748 0.77388
 C186 C -0.03253 0.64045 0.76003
 N187 N -0.00150 0.65739 0.75194
 C188 C -0.06630 0.65675 0.75711
 C189 C -0.06642 0.69144 0.74598
 C190 C -0.08847 0.71606 0.76364
 C191 C -0.08381 0.74492 0.73829
 C192 C -0.06030 0.73617 0.70501
 N193 N -0.04864 0.70404 0.71125
 C194 C -0.05760 0.75268 0.66423
 H195 H -0.03283 0.77285 0.57657
 H196 H 0.03654 0.76024 0.56592
 H197 H -0.03452 0.68956 0.68865
 H198 H 0.13613 0.72411 0.69169
 H199 H 0.13195 0.67754 0.75436
 H200 H 0.02765 0.58268 0.78534
 H201 H -0.04391 0.58790 0.78392
 H202 H -0.09893 0.76841 0.74107
 H203 H 0.02976 0.68328 0.69044
 H204 H -0.10707 0.71297 0.79049
 C205 C 0.97106 0.74274 0.38696
 C206 C 1.00577 0.75040 0.37387
 C207 C 1.02123 0.72021 0.36030
 N208 N 0.99753 0.69439 0.36548
 C209 C 0.96676 0.70794 0.38170
 C210 C 1.05626 0.71659 0.34265
 C211 C 1.06639 0.68696 0.31933
 C212 C 1.10186 0.67621 0.31334
 C213 C 1.10065 0.64850 0.28691
 C214 C 1.06445 0.64236 0.27787
 N215 N 1.04353 0.66554 0.29840
 C216 C 1.05216 0.61621 0.25007
 C217 C 1.01757 0.60113 0.25424
 C218 C 1.00122 0.57972 0.22454
 C219 C 0.96730 0.57197 0.24066
 C220 C 0.96450 0.58848 0.27991
 N221 N 0.99528 0.60603 0.28809
 C222 C 0.93483 0.58772 0.30872
 C223 C 0.93660 0.60698 0.34688
 C224 C 0.91880 0.59916 0.38530
 C225 C 0.91873 0.62838 0.40941
 C226 C 0.93659 0.65292 0.38489
 N227 N 0.94849 0.63942 0.34758
 C228 C 0.93600 0.68811 0.39251
 H229 H 0.95179 0.76110 0.39869
 H230 H 1.01778 0.77552 0.37310
 H231 H 0.95797 0.65334 0.32087
 H232 H 1.12629 0.68693 0.32697
 H233 H 1.12387 0.63407 0.27612
 H234 H 1.01222 0.57127 0.19400
 H235 H 0.94734 0.55611 0.22512
 H236 H 0.90512 0.63186 0.44010
 H237 H 1.01564 0.66854 0.29462
 H238 H 0.90501 0.57564 0.39351
 C239 C 0.98932 0.44992 0.72127
 C240 C 0.95443 0.44947 0.70612
 C241 C 0.94726 0.41612 0.69494
 N242 N 0.97673 0.39626 0.70210
 C243 C 1.00237 0.41688 0.71845
 C244 C 0.91310 0.40361 0.68242
 C245 C 0.90856 0.36977 0.66924
 C246 C 0.87677 0.35126 0.67288
 C247 C 0.88448 0.31904 0.65866
 C248 C 0.92061 0.31910 0.64621
 N249 N 0.93493 0.35024 0.65218
 C250 C 0.93884 0.29132 0.62796
 C251 C 0.97606 0.29130 0.61808
 C252 C 0.99222 0.27019 0.58829
 C253 C 1.02880 0.27637 0.59049
 C254 C 1.03394 0.30007 0.62306
 N255 N 1.00143 0.30938 0.63941
 C256 C 1.06773 0.31047 0.64061
 C257 C 1.06916 0.33504 0.67396
 C258 C 1.09551 0.33641 0.70597
 C259 C 1.08657 0.36306 0.73244
 C260 C 1.05510 0.37762 0.71571
 N261 N 1.04473 0.36034 0.67999
 C262 C 1.03667 0.40595 0.73355
 H263 H 1.00358 0.47205 0.73298
 H264 H 0.93636 0.47114 0.70416
 H265 H 1.02359 0.36685 0.65901
 H266 H 0.85107 0.35971 0.68573
 H267 H 0.86556 0.29803 0.65743
 H268 H 0.97890 0.25252 0.56684
 H269 H 1.04879 0.26428 0.57034
 H270 H 1.10127 0.37022 0.76130
 H271 H 0.96045 0.35852 0.64236
 H272 H 1.11805 0.31914 0.71094
 C273 C 0.39077 0.03234 0.21923
 C274 C 0.38833 0.06482 0.23463
 C275 C 0.36869 0.06295 0.27283
 N276 N 0.35853 0.03037 0.28067
 C277 C 0.37160 0.01144 0.24774
 C278 C 0.36284 0.09022 0.30170
 C279 C 0.33597 0.08848 0.33446
 C280 C 0.33286 0.11045 0.36914
 C281 C 0.30053 0.10313 0.38934
 C282 C 0.28538 0.07605 0.36746
 N283 N 0.30722 0.06713 0.33431
 C284 C 0.25095 0.06176 0.37551
 C285 C 0.24372 0.02710 0.36695
 C286 C 0.21141 0.01031 0.37550
 C287 C 0.21683 -0.02324 0.36555
 C288 C 0.25239 -0.02600 0.35174
 N289 N 0.26884 0.00469 0.35299
 C290 C 0.26977 -0.05661 0.34026
 C291 C 0.30455 -0.05710 0.32076
 C292 C 0.32693 -0.08537 0.31867
 C293 C 0.35553 -0.07670 0.29223
 C294 C 0.35039 -0.04298 0.27940
 N295 N 0.31935 -0.03124 0.29741
 C296 C 0.37059 -0.02481 0.24745
 H297 H 0.40655 0.02543 0.19127
 H298 H 0.40017 0.08706 0.21927
 H299 H 0.30636 -0.00851 0.28906
 H300 H 0.35167 0.12999 0.37896
 H301 H 0.29002 0.11605 0.41737
 H302 H 0.18672 0.02056 0.38887
 H303 H 0.19681 -0.04322 0.36851
 H304 H 0.37718 -0.09380 0.28367
 H305 H 0.30036 0.05032 0.30975
 H306 H 0.32283 -0.11003 0.33390
 C307 C 0.73723 0.03593 0.57058
 C308 C 0.74508 0.00214 0.56622
 C309 C 0.73425 -0.01401 0.60439
 N310 N 0.71928 0.00869 0.63156
 C311 C 0.72133 0.03925 0.61095
 C312 C 0.74039 -0.04875 0.61473
 C313 C 0.71896 -0.06648 0.64578
 C314 C 0.72792 -0.09733 0.66554
 C315 C 0.70061 -0.10487 0.69458
 C316 C 0.67569 -0.07848 0.69180
 N317 N 0.68686 -0.05548 0.66155
 C318 C 0.64270 -0.07700 0.71514
 C319 C 0.62020 -0.04794 0.71553
 C320 C 0.58448 -0.04724 0.72960
 C321 C 0.57381 -0.01379 0.72868
 C322 C 0.60354 0.00487 0.71492
 N323 N 0.63188 -0.01599 0.70724
 C324 C 0.60532 0.04070 0.71326
 C325 C 0.63689 0.05815 0.70056
 C326 C 0.64519 0.09166 0.71006
 C327 C 0.67562 0.09994 0.68645
 C328 C 0.68437 0.07150 0.66246
 N329 N 0.66100 0.04607 0.67182
 C330 C 0.71024 0.07030 0.62900
 H331 H 0.74202 0.05562 0.54639
 H332 H 0.75725 -0.00930 0.53800
 H333 H 0.65811 0.02369 0.65445
 H334 H 0.75197 -0.11250 0.66037
 H335 H 0.69928 -0.12727 0.71533
 H336 H 0.56771 -0.06837 0.73989
 H337 H 0.54764 -0.00426 0.73866
 H338 H 0.68896 0.12445 0.68598
 H339 H 0.67226 -0.03460 0.64990
 H340 H 0.63077 0.10865 0.73127
 C341 C 0.23929 0.96476 0.58052
 C342 C 0.22959 0.99834 0.58403
 C343 C 0.24512 1.01021 0.62202
 N344 N 0.26404 0.98483 0.64177
 C345 C 0.26047 0.95700 0.61643
 C346 C 0.24201 1.04410 0.63743
 C347 C 0.26715 1.05823 0.66721
 C348 C 0.26159 1.08792 0.69029
 C349 C 0.29225 1.09330 0.71465
 C350 C 0.31576 1.06667 0.70629
 N351 N 0.30035 1.04551 0.67710
 C352 C 0.35120 1.06361 0.72376
 C353 C 0.37210 1.03363 0.72134
 C354 C 0.40851 1.03080 0.73230
 C355 C 0.41738 0.99695 0.72922
 C356 C 0.38597 0.98029 0.71717
 N357 N 0.35836 1.00267 0.71268
 C358 C 0.38240 0.94483 0.71287
 C359 C 0.35010 0.92951 0.69847
 C360 C 0.34207 0.89521 0.70296
 C361 C 0.31128 0.88959 0.67884
 C362 C 0.30182 0.92051 0.65962
 N363 N 0.32517 0.94482 0.67255
 C364 C 0.27620 0.92481 0.62575
 H365 H 0.23220 0.94843 0.55387
 H366 H 0.21397 1.01267 0.56030
 H367 H 0.32762 0.96888 0.65834
 H368 H 0.23776 1.10399 0.69005
 H369 H 0.29668 1.11452 0.73604
 H370 H 0.42677 1.05087 0.74194
 H371 H 0.44365 0.98580 0.73606
 H372 H 0.29836 0.86518 0.67424
 H373 H 0.31295 1.02529 0.66178
 H374 H 0.35752 0.87607 0.72055
 C375 C 0.75817 0.95586 0.40375
 C376 C 0.76506 0.98927 0.41287
 C377 C 0.75270 1.00829 0.37763
 N378 N 0.73845 0.98782 0.34734
 C379 C 0.74214 0.95564 0.36301
 C380 C 0.75684 1.04378 0.37239
 C381 C 0.73074 1.06369 0.34991
 C382 C 0.73545 1.09717 0.33622
 C383 C 0.70360 1.10716 0.31668
 C384 C 0.68014 1.07961 0.31905
 N385 N 0.69707 1.05308 0.33896
 C386 C 0.64429 1.07900 0.30232
 C387 C 0.62893 1.04807 0.28749
 C388 C 0.59286 1.04297 0.27604
 C389 C 0.59056 1.01092 0.25928
 C390 C 0.62487 0.99698 0.26236
 N391 N 0.64833 1.01958 0.27953
 C392 C 0.63445 0.96455 0.24723
 C393 C 0.66572 0.94703 0.26113
 C394 C 0.67910 0.91746 0.24297
 C395 C 0.70716 0.90647 0.26920
 C396 C 0.70989 0.92963 0.30257
 N397 N 0.68479 0.95438 0.29715
 C398 C 0.73255 0.92649 0.33932
 H399 H 0.76391 0.93459 0.42528
 H400 H 0.77739 0.99863 0.44229
 H401 H 0.67795 0.97266 0.31991
 H402 H 0.75957 1.11263 0.33886
 H403 H 0.69892 1.13157 0.30099
 H404 H 0.57015 1.06007 0.27966
 H405 H 0.56627 0.99895 0.24701
 H406 H 0.72329 0.88379 0.26459
 H407 H 0.68532 1.02979 0.34742
 H408 H 0.66910 0.90468 0.21445
 O409 O 0.87002 0.79556 0.45493
 O410 O 0.84033 0.86924 0.51576
 O411 O 0.87494 0.81557 0.53144
 O412 O 0.82552 0.84945 0.43442
 O413 O 0.77703 0.82022 0.45374
 O414 O 0.82390 0.78995 0.55012
 O415 O 0.78824 0.84434 0.53158
 O416 O 0.81920 0.76878 0.47177
 Cu417 Cu 0.85666 0.83568 0.48019
 Cu418 Cu 0.79700 0.80317 0.50336
 C419 C 0.85046 0.76912 0.45443
 C420 C 0.80991 0.86935 0.53478
 C421 C 0.85682 0.79694 0.55757
 C422 C 0.79279 0.84053 0.42792
 O423 O 0.14752 0.14457 0.55540
 O424 O 0.13686 0.21334 0.47436
 O425 O 0.15111 0.14925 0.47217
 O426 O 0.12565 0.20910 0.55747
 O427 O 0.18258 0.22577 0.56118
 O428 O 0.20932 0.16014 0.48194
 O429 O 0.19599 0.22232 0.47512
 O430 O 0.20518 0.15828 0.56307
 Cu431 Cu 0.13446 0.17791 0.51483
 Cu432 Cu 0.20344 0.19415 0.52324
 C433 C 0.17870 0.13867 0.57144
 C434 C 0.16477 0.22836 0.45947
 C435 C 0.18414 0.14413 0.46274
 C436 C 0.14948 0.22912 0.57195
 O437 O 0.17838 0.86318 0.43679
 O438 O 0.13529 0.80888 0.52204
 O439 O 0.18605 0.85663 0.52050
 O440 O 0.12595 0.81747 0.43773
 O441 O 0.16750 0.77804 0.42644
 O442 O 0.22695 0.81717 0.50691
 O443 O 0.17685 0.76978 0.50971
 O444 O 0.21786 0.82214 0.42412
 Cu445 Cu 0.15215 0.84045 0.48062
 Cu446 Cu 0.20124 0.79264 0.46627
 C447 C 0.20527 0.85153 0.41583
 C448 C 0.14902 0.77975 0.53000
 C449 C 0.21735 0.84390 0.52660
 C450 C 0.13707 0.79145 0.41753
 O451 O 0.87870 0.16582 0.57123
 O452 O 0.85360 0.10935 0.48494
 O453 O 0.90235 0.15591 0.49358
 O454 O 0.82280 0.12781 0.55661
 O455 O 0.79186 0.17112 0.52894
 O456 O 0.86828 0.19433 0.45981
 O457 O 0.81751 0.14817 0.45541
 O458 O 0.85086 0.20876 0.53818
 Cu459 Cu 0.86743 0.13565 0.52955
 Cu460 Cu 0.82854 0.18458 0.49278
 C461 C 0.87093 0.19709 0.56866
 C462 C 0.83119 0.11835 0.45597
 C463 C 0.89866 0.18014 0.46602
 C464 C 0.79377 0.14520 0.55365
 O465 O 0.47655 0.86509 0.80646
 O466 O 0.52982 0.79994 0.86823
 O467 O 0.54786 0.85276 0.82654
 O468 O 0.46368 0.80927 0.85811
 O469 O 0.46512 0.78150 0.79624
 O470 O 0.54948 0.82484 0.76479
 O471 O 0.53239 0.76986 0.80818
 O472 O 0.48185 0.83448 0.74734
 Cu473 Cu 0.50318 0.83626 0.84434
 Cu474 Cu 0.50732 0.79986 0.77306
 C475 C 0.47078 0.86093 0.76614
 C476 C 0.53926 0.77324 0.84825
 C477 C 0.56335 0.84580 0.79099
 C478 C 0.45125 0.78654 0.83337
 O479 O 0.53790 0.16605 0.14077
 O480 O 0.47286 0.13969 0.22402
 O481 O 0.46721 0.16934 0.15017
 O482 O 0.54265 0.13852 0.21752
 O483 O 0.54597 0.18868 0.24880
 O484 O 0.47344 0.22111 0.17644
 O485 O 0.47401 0.19145 0.25126
 O486 O 0.54360 0.21664 0.17038
 Cu487 Cu 0.50507 0.14841 0.17996
 Cu488 Cu 0.51014 0.20952 0.21507
 C489 C 0.55207 0.19545 0.14130
 C490 C 0.46101 0.16146 0.25042
 C491 C 0.45706 0.20018 0.15232
 C492 C 0.55685 0.15817 0.24503
 O493 O 0.52134 0.13438 0.79526
 O494 O 0.46902 0.20640 0.83876
 O495 O 0.45379 0.14566 0.81448
 O496 O 0.53763 0.19479 0.82744
 O497 O 0.52986 0.21675 0.76184
 O498 O 0.44682 0.16511 0.74729
 O499 O 0.45861 0.22464 0.77167
 O500 O 0.51109 0.15449 0.72901
 Cu501 Cu 0.49672 0.16819 0.82563
 Cu502 Cu 0.48779 0.19306 0.74616
 C503 C 0.52329 0.13155 0.75430
 C504 C 0.45423 0.22726 0.81224
 C505 C 0.43607 0.14686 0.77913
 C506 C 0.54702 0.21544 0.79769
 O507 O 0.46234 0.81930 0.13044
 O508 O 0.53346 0.88257 0.14533
 O509 O 0.53165 0.81592 0.13878
 O510 O 0.46298 0.88456 0.14629
 O511 O 0.46108 0.87694 0.21736
 O512 O 0.52786 0.80785 0.20970
 O513 O 0.53195 0.87430 0.21632
 O514 O 0.45842 0.81152 0.20144
 Cu515 Cu 0.49797 0.85157 0.13325
 Cu516 Cu 0.49455 0.84205 0.21831
 C517 C 0.44880 0.80411 0.16302
 C518 C 0.54485 0.88938 0.18299
 C519 C 0.54043 0.79947 0.17310
 C520 C 0.45055 0.89249 0.18333
 O521 O 0.85323 0.54858 0.80601
 O522 O 0.79415 0.47871 0.84777
 O523 O 0.84358 0.48437 0.78611
 O524 O 0.80655 0.54294 0.86657
 O525 O 0.76328 0.55775 0.82016
 O526 O 0.80072 0.49941 0.73950
 O527 O 0.75225 0.49445 0.80035
 O528 O 0.80970 0.56297 0.75992
 Cu529 Cu 0.82867 0.51154 0.83128
 Cu530 Cu 0.77713 0.52977 0.77526
 C531 C 0.84043 0.56848 0.77689
 C532 C 0.76293 0.47500 0.83089
 C533 C 0.82877 0.48214 0.74908
 C534 C 0.77955 0.56127 0.85613
 O535 O 0.14198 0.53226 0.14147
 O536 O 0.20364 0.45986 0.12470
 O537 O 0.13445 0.46614 0.14033
 O538 O 0.21092 0.52560 0.12753
 O539 O 0.22016 0.52347 0.19836
 O540 O 0.14597 0.46189 0.21062
 O541 O 0.21402 0.45636 0.19525
 O542 O 0.15012 0.52710 0.21234
 Cu543 Cu 0.17173 0.49624 0.12638
 Cu544 Cu 0.18398 0.49209 0.21122
 C545 C 0.13534 0.54171 0.17984
 C546 C 0.21897 0.44559 0.15705
 C547 C 0.12743 0.45378 0.17770
 C548 C 0.22815 0.53505 0.16093
 O549 O 0.83976 0.43562 0.21280
 O550 O 0.79666 0.51226 0.16479
 O551 O 0.84979 0.50061 0.21604
 O552 O 0.78684 0.44477 0.15434
 O553 O 0.74849 0.44546 0.20910
 O554 O 0.80850 0.50281 0.26777
 O555 O 0.75483 0.51155 0.21598
 O556 O 0.79981 0.43677 0.26599
 Cu557 Cu 0.82164 0.47260 0.18088
 Cu558 Cu 0.77397 0.47394 0.24492
 C559 C 0.82753 0.42373 0.24840
 C560 C 0.76947 0.52569 0.18324
 C561 C 0.83874 0.51218 0.25196
 C562 C 0.75729 0.43515 0.17177
 O563 O 0.12670 0.47905 0.85615
 O564 O 0.20424 0.53311 0.88292
 O565 O 0.13884 0.54422 0.86181
 O566 O 0.19458 0.46828 0.88016
 O567 O 0.21088 0.46956 0.81120
 O568 O 0.15287 0.54428 0.79210
 O569 O 0.21980 0.53475 0.81365
 O570 O 0.14379 0.47840 0.78749
 Cu571 Cu 0.16415 0.50554 0.87728
 Cu572 Cu 0.18329 0.50659 0.79403
 C573 C 0.12190 0.46976 0.81726
 C574 C 0.22474 0.54366 0.85265
 C575 C 0.13702 0.55761 0.82420
 C576 C 0.21313 0.45672 0.84910
 C577 C 0.27225 0.37907 0.11679
 C578 C 0.26593 0.36526 0.15760
 C579 C 0.24669 0.38935 0.17930
 C580 C 0.24188 0.41566 0.14987
 O581 O 0.25719 0.40951 0.11211
 H582 H 0.27317 0.34018 0.16968
 H583 H 0.23580 0.38724 0.21180
 C584 C 0.72702 0.59912 0.14030
 C585 C 0.75894 0.61387 0.15382
 C586 C 0.77852 0.58818 0.17249
 C587 C 0.75721 0.55962 0.16899
 O588 O 0.72596 0.56597 0.14930
 H589 H 0.76776 0.63981 0.14816
 H590 H 0.80558 0.58976 0.18594
 C591 C 0.71563 0.40638 0.87889
 C592 C 0.69077 0.41505 0.84713
 C593 C 0.70542 0.44190 0.82551
 C594 C 0.73823 0.44783 0.84553
 O595 O 0.74461 0.42637 0.87826
 H596 H 0.66488 0.40317 0.84078
 H597 H 0.69363 0.45555 0.79819
 C598 C 0.28580 0.60041 0.89897
 C599 C 0.30089 0.60024 0.85798
 C600 C 0.28000 0.57852 0.83462
 C601 C 0.25401 0.56704 0.86328
 O602 O 0.25740 0.58023 0.90220
 H603 H 0.32430 0.61431 0.84662
 H604 H 0.28323 0.57190 0.80088
 C605 C 0.12861 0.28279 0.38039
 C606 C 0.15540 0.26806 0.35529
 C607 C 0.17608 0.24884 0.38325
 C608 C 0.15986 0.25223 0.42304
 O609 O 0.13149 0.27248 0.42124
 H610 H 0.15723 0.26733 0.32036
 H611 H 0.19726 0.23110 0.37466
 C612 C 0.09914 0.73560 0.61055
 C613 C 0.12400 0.71050 0.60110
 C614 C 0.14592 0.72410 0.57019
 C615 C 0.13286 0.75651 0.56251
 O616 O 0.10425 0.76366 0.58679
 H617 H 0.12571 0.68508 0.61496
 H618 H 0.16858 0.71172 0.55470
 C619 C 0.90161 0.70359 0.40856
 C620 C 0.86751 0.68949 0.40284
 C621 C 0.84366 0.71190 0.42020
 C622 C 0.86468 0.73840 0.43431
 O623 O 0.89966 0.73354 0.42741
 H624 H 0.86056 0.66604 0.38681
 H625 H 0.81445 0.70968 0.42131
 C626 C 0.91908 0.25904 0.62429
 C627 C 0.92070 0.23390 0.65572
 C628 C 0.90040 0.20806 0.63997
 C629 C 0.88773 0.21957 0.60024
 O630 O 0.89903 0.25066 0.59050
 H631 H 0.93575 0.23418 0.68589
 H632 H 0.89661 0.18314 0.65468
 C633 C 0.38612 0.12124 0.29715
 C634 C 0.37503 0.15451 0.30316
 C635 C 0.40365 0.17439 0.29081
 C636 C 0.42982 0.15191 0.27730
 O637 O 0.41936 0.11989 0.28133
 H638 H 0.34847 0.16343 0.31255
 H639 H 0.40405 0.20187 0.28801
 C640 C 0.57185 0.06067 0.71899
 C641 C 0.54288 0.05831 0.69087
 C642 C 0.52055 0.08441 0.70131
 C643 C 0.53747 0.10052 0.73518
 O644 O 0.56868 0.08632 0.74611
 H645 H 0.53951 0.04069 0.66447
 H646 H 0.49531 0.09141 0.68558
 C647 C 0.41497 0.92310 0.71689
 C648 C 0.43630 0.91582 0.68166
 C649 C 0.46048 0.89225 0.69626
 C650 C 0.45231 0.88699 0.73947
 O651 O 0.42445 0.90565 0.75231
 H652 H 0.43356 0.92570 0.64887
 H653 H 0.48122 0.87975 0.67746
 C654 C 0.61060 0.94827 0.21525
 C655 C 0.60795 0.95873 0.17257
 C656 C 0.58335 0.93735 0.15448
 C657 C 0.57269 0.91570 0.18771
 O658 O 0.58925 0.92221 0.22474
 H659 H 0.62226 0.97945 0.15674
 H660 H 0.57382 0.93782 0.12125
 C661 C 0.40199 0.28476 0.87146
 C662 C 0.39292 0.29626 0.83002
 C663 C 0.41211 0.27668 0.80231
 C664 C 0.43124 0.25448 0.82850
 O665 O 0.42525 0.25917 0.87018
 H666 H 0.37321 0.31538 0.82058
 H667 H 0.41133 0.27771 0.76722
 C668 C 0.58687 0.71675 0.91695
 C669 C 0.57976 0.69464 0.88363
 C670 C 0.56077 0.71308 0.85386
 C671 C 0.55749 0.74509 0.87121
 O672 O 0.57316 0.74751 0.90978
 H673 H 0.58848 0.66844 0.88096
 H674 H 0.55081 0.70438 0.82288
 C675 C 0.39796 0.73624 0.12251
 C676 C 0.38772 0.73311 0.16581
 C677 C 0.40471 0.75878 0.18707
 C678 C 0.42334 0.77629 0.15539
 O679 O 0.41884 0.76320 0.11651
 H680 H 0.36949 0.71477 0.18048
 H681 H 0.40385 0.76393 0.22145
 C682 C 0.61005 0.23308 0.06407
 C683 C 0.61345 0.19981 0.05103
 C684 C 0.59289 0.18129 0.07919
 C685 C 0.57843 0.20461 0.10740
 O686 O 0.58886 0.23620 0.09844
 H687 H 0.62815 0.19047 0.02327
 H688 H 0.58817 0.15411 0.07858
 C689 C 0.21308 0.06479 0.62225
 C690 C 0.17811 0.05352 0.61503
 C691 C 0.15980 0.08086 0.59847
 C692 C 0.18481 0.10687 0.59630
 O693 O 0.21704 0.09735 0.61118
 H694 H 0.16732 0.02826 0.62082
 H695 H 0.13209 0.08121 0.58693
 C696 C 0.78793 0.05918 0.39004
 C697 C 0.82121 0.04313 0.39393
 C698 C 0.84246 0.06487 0.41619
 C699 C 0.82090 0.09271 0.42428
 O700 O 0.78790 0.08969 0.40797
 H701 H 0.82886 0.01816 0.38266
 H702 H 0.86989 0.06024 0.42732
 C703 C 0.76984 0.93480 0.59473
 C704 C 0.80249 0.95056 0.58525
 C705 C 0.82199 0.92751 0.56286
 C706 C 0.80008 0.89927 0.56014
 O707 O 0.76861 0.90324 0.58008
 H708 H 0.81097 0.97606 0.59343
 H709 H 0.84869 0.93115 0.54909
 C710 C 0.25088 0.91050 0.34902
 C711 C 0.25008 0.88364 0.32057
 C712 C 0.23208 0.85823 0.34179
 C713 C 0.22235 0.87167 0.38112
 O714 O 0.23365 0.90337 0.38576
 H715 H 0.26189 0.88253 0.28852
 H716 H 0.22693 0.83278 0.33026
 C717 C 0.05224 0.42373 0.76832
 C718 C 0.03301 0.43545 0.80365
 C719 C 0.05748 0.45231 0.82836
 C720 C 0.08962 0.45026 0.80597
 O721 O 0.08675 0.43270 0.76980
 H722 H 0.00446 0.43213 0.81046
 H723 H 0.05217 0.46600 0.85792
 C724 C 0.07632 0.60390 0.21872
 C725 C 0.09661 0.62444 0.19130
 C726 C 0.11922 0.60296 0.17004
 C727 C 0.11183 0.57112 0.18693
 O728 O 0.08571 0.57145 0.21630
 H729 H 0.09557 0.65190 0.18808
 H730 H 0.14040 0.60992 0.14738
 C731 C 0.88846 0.36220 0.28990
 C732 C 0.85930 0.35483 0.31678
 C733 C 0.83212 0.37629 0.30402
 C734 C 0.84621 0.39504 0.27005
 O735 O 0.88005 0.38650 0.26131
 H736 H 0.85848 0.33758 0.34442
 H737 H 0.80565 0.37878 0.31868
 C738 C 0.89861 0.63813 0.75758
 C739 C 0.86866 0.64952 0.73455
 C740 C 0.84358 0.62459 0.73845
 C741 C 0.85974 0.59957 0.76353
 O742 O 0.89321 0.60757 0.77530
 H743 H 0.86581 0.67283 0.71573
 H744 H 0.81659 0.62463 0.72463
 C745 C 0.73942 0.61990 0.92528
 C746 C 0.76611 0.64077 0.90821
 C747 C 0.78548 0.62073 0.88114
 C748 C 0.76923 0.58929 0.88384
 O749 O 0.74142 0.58845 0.91064
 H750 H 0.77095 0.66735 0.91498
 H751 H 0.80820 0.62822 0.86103
 C752 C 0.27460 0.39697 0.89120
 C753 C 0.28064 0.39139 0.84741
 C754 C 0.25747 0.41242 0.82570
 C755 C 0.23870 0.42905 0.85752
 O756 O 0.24870 0.41968 0.89711
 H757 H 0.29943 0.37380 0.83276
 H758 H 0.25489 0.41560 0.79089
 C759 C 0.29471 0.59301 0.12512
 C760 C 0.29642 0.59996 0.16922
 C761 C 0.27272 0.57813 0.18897
 C762 C 0.25736 0.56010 0.15580
 O763 O 0.27012 0.56927 0.11746
 H764 H 0.31137 0.61965 0.18556
 H765 H 0.26621 0.57666 0.22315
 C766 C 0.70945 0.37769 0.10503
 C767 C 0.68974 0.37359 0.14293
 C768 C 0.70484 0.39498 0.17195
 C769 C 0.73289 0.41078 0.15029
 O770 O 0.73571 0.40063 0.10951
 H771 H 0.66622 0.35769 0.14850
 H772 H 0.69648 0.39854 0.20522
 C773 C 0.90981 0.76312 0.64317
 C774 C 0.87556 0.75236 0.65624
 C775 C 0.85202 0.76513 0.62692
 C776 C 0.87288 0.78240 0.59717
 O777 O 0.90799 0.78131 0.60654
 H778 H 0.86804 0.73504 0.68218
 H779 H 0.82304 0.76087 0.62616
 C780 C 0.96280 0.22889 0.40989
 C781 C 0.98623 0.20464 0.42737
 C782 C 0.96497 0.18183 0.44888
 C783 C 0.93019 0.19363 0.44302
 O784 O 0.92866 0.22183 0.41912
 H785 H 1.01548 0.20378 0.42508
 H786 H 0.97382 0.16002 0.46796
 C787 C 0.10221 0.29349 0.62658
 C788 C 0.13589 0.30894 0.62560
 C789 C 0.15895 0.28577 0.60790
 C790 C 0.13778 0.25791 0.59880
 O791 O 0.10356 0.26247 0.61023
 H792 H 0.14259 0.33466 0.63485
 H793 H 0.18724 0.28957 0.60003
 C794 C 0.08221 0.74257 0.34942
 C795 C 0.10845 0.75211 0.31966
 C796 C 0.13051 0.77405 0.34081
 C797 C 0.11609 0.77695 0.38171
 O798 O 0.08657 0.75814 0.38712
 H799 H 0.11183 0.74322 0.28683
 H800 H 0.15541 0.78517 0.32873
 C801 C 0.63273 0.89476 0.74500
 C802 C 0.64748 0.89136 0.78599
 C803 C 0.62418 0.87084 0.80848
 C804 C 0.59719 0.86301 0.77936
 O805 O 0.60221 0.87748 0.74091
 H806 H 0.67060 0.90481 0.79895
 H807 H 0.62556 0.86395 0.84256
 C808 C 0.39028 0.95694 0.21581
 C809 C 0.39020 0.96428 0.17173
 C810 C 0.41236 0.94073 0.15336
 C811 C 0.42426 0.92051 0.18732
 O812 O 0.41063 0.92997 0.22501
 H813 H 0.37487 0.98380 0.15468
 H814 H 0.41909 0.93858 0.11935
 C815 C 0.62456 0.10981 0.29692
 C816 C 0.62875 0.13917 0.32097
 C817 C 0.60390 0.16185 0.30474
 C818 C 0.58636 0.14474 0.27219
 O819 O 0.59874 0.11353 0.26745
 H820 H 0.64675 0.14332 0.34813
 H821 H 0.59883 0.18747 0.31570
 C822 C 0.36582 0.09142 0.75058
 C823 C 0.35611 0.09585 0.79328
 C824 C 0.38053 0.11844 0.80931
 C825 C 0.40315 0.12625 0.77509
 O826 O 0.39448 0.10975 0.73940
 H827 H 0.33511 0.08257 0.81115
 H828 H 0.38251 0.12723 0.84236
 C829 C 0.59407 0.72938 0.14342
 C830 C 0.58732 0.71950 0.18582
 C831 C 0.56807 0.74553 0.20337
 C832 C 0.56384 0.76919 0.17029
 O833 O 0.57947 0.75947 0.13395
 H834 H 0.59428 0.69561 0.20162
 H835 H 0.55681 0.74637 0.23573
 C836 C 0.38918 0.24140 0.09163
 C837 C 0.37304 0.20982 0.09450
 C838 C 0.39660 0.19010 0.11775
 C839 C 0.42512 0.21127 0.12765
 O840 O 0.42077 0.24250 0.11192
 H841 H 0.34798 0.20182 0.07947
 H842 H 0.39362 0.16341 0.12616
 C843 C 0.61033 0.27024 0.84499
 C844 C 0.60619 0.28770 0.80601
 C845 C 0.58421 0.26788 0.78115
 C846 C 0.57618 0.23991 0.80678
 O847 O 0.59212 0.24121 0.84520
 H848 H 0.61596 0.31290 0.79767
 H849 H 0.57313 0.27431 0.74955
 C850 C 0.39003 0.73510 0.89158
 C851 C 0.38953 0.71807 0.85251
 C852 C 0.41014 0.73677 0.82481
 C853 C 0.42250 0.76365 0.84880
 O854 O 0.41050 0.76278 0.88936
 H855 H 0.37696 0.69389 0.84545
 H856 H 0.41721 0.73038 0.79185
 C857 C 0.74460 0.89208 0.35449
 C858 C 0.72339 0.86321 0.35185
 C859 C 0.74084 0.83904 0.37594
 C860 C 0.77145 0.85472 0.39170
 O861 O 0.77396 0.88679 0.37857
 H862 H 0.69690 0.86078 0.33712
 H863 H 0.73097 0.81379 0.38395
 C864 C 0.26912 0.89517 0.59689
 C865 C 0.29599 0.87294 0.58412
 C866 C 0.27959 0.85035 0.55765
 C867 C 0.24389 0.86048 0.55529
 O868 O 0.23733 0.88784 0.57890
 H869 H 0.32448 0.87357 0.59246
 H870 H 0.29241 0.82953 0.54087
 C871 C 0.22151 0.08395 0.39217
 C872 C 0.18768 0.08662 0.37316
 C873 C 0.16901 0.10922 0.39761
 C874 C 0.19304 0.11937 0.42913
 O875 O 0.22499 0.10430 0.42584
 H876 H 0.17788 0.07365 0.34469
 H877 H 0.14139 0.11774 0.39268
 C878 C 0.72545 0.10221 0.61049
 C879 C 0.70546 0.13071 0.59915
 C880 C 0.72906 0.15169 0.57787
 C881 C 0.76155 0.13432 0.57769
 O882 O 0.75946 0.10440 0.59740
 H883 H 0.67675 0.13487 0.60375
 H884 H 0.72294 0.17599 0.56258
 C885 C 0.89925 0.57146 0.29799
 C886 C 0.86662 0.58468 0.31215
 C887 C 0.84067 0.56342 0.29774
 C888 C 0.85872 0.53904 0.27461
 O889 O 0.89441 0.54386 0.27407
 H890 H 0.86210 0.60753 0.33061
 H891 H 0.81172 0.56593 0.30238
 C892 C 0.88070 0.42527 0.68864
 C893 C 0.85320 0.42970 0.65868
 C894 C 0.82962 0.45194 0.67728
 C895 C 0.84454 0.45916 0.71717
 O896 O 0.87543 0.44304 0.72414
 H897 H 0.85090 0.41833 0.62702
 H898 H 0.80463 0.46171 0.66350
 C899 C 0.08684 0.62832 0.78920
 C900 C 0.08823 0.63621 0.83258
 C901 C 0.10782 0.61072 0.85153
 C902 C 0.11675 0.58927 0.81817
 O903 O 0.10397 0.59977 0.78022
 H904 H 0.07499 0.65716 0.84860
 H905 H 0.11421 0.60769 0.88565
 C906 C 0.06317 0.39489 0.21435
 C907 C 0.05048 0.39773 0.17229
 C908 C 0.07315 0.42037 0.15218
 C909 C 0.09768 0.42963 0.18368
 O910 O 0.09170 0.41426 0.22131
 H911 H 0.02763 0.38467 0.15810
 H912 H 0.07191 0.42914 0.11878
   
