data_POSCAR
  _audit_creation_date              2014-09-24
  _audit_creation_method            'ToBaCCo'
  _symmetry_space_group_name_H-M    'P1'
  _symmetry_Int_Tables_number       1
  _symmetry_cell_setting            triclinic
  loop_
  _symmetry_equiv_pos_as_xyz
 x,y,z
_cell_length_a 33.5939
_cell_length_b 33.4581
_cell_length_c 33.4934
_cell_angle_alpha 89.879800
_cell_angle_beta 89.287500
_cell_angle_gamma 88.597700
loop_
  _atom_site_label
  _atom_site_type_symbol
  _atom_site_fract_x
  _atom_site_fract_y
  _atom_site_fract_z
C1 C 0.75687 0.62039 1.00822
 C2 C 0.74464 0.37314 0.51046
 C3 C 0.24542 -0.12256 0.00229
 C4 C 0.25326 0.12290 0.49958
 C5 C 0.12548 0.50242 0.25314
 C6 C -0.12557 0.01395 0.24974
 C7 C 0.37344 0.50583 0.75010
 C8 C 0.62467 0.99383 0.75357
 C9 C 0.00473 0.24891 -0.12923
 C10 C 0.49772 0.24816 0.11530
 C11 C 0.99600 0.74801 0.61506
 C12 C 0.50395 0.74896 0.37000
 C13 C 0.44489 -0.04491 0.27377
 H14 H 0.45459 -0.01574 0.28265
 C15 C 0.46612 -0.07899 0.28633
 H16 H 0.49167 -0.07544 0.30527
 C17 C 0.39955 -0.08479 0.23911
 H18 H 0.37340 -0.08724 0.22107
 C19 C 0.41975 -0.11967 0.25117
 H20 H 0.40858 -0.14836 0.24230
 N21 N 0.41136 -0.04835 0.25182
 C22 C 0.39060 0.07877 0.23512
 H23 H 0.36188 0.08078 0.25003
 C24 C 0.40859 0.11345 0.22172
 H25 H 0.39341 0.14196 0.22667
 C26 C 0.44396 0.03870 0.20910
 H27 H 0.45704 0.00934 0.20358
 C28 C 0.46294 0.07275 0.19482
 H29 H 0.49083 0.06925 0.17852
 Zn30 Zn 0.37804 -0.00212 0.24360
 N31 N 0.40822 0.04238 0.22841
 C32 C 0.37687 0.02201 0.32287
 N33 N 0.35233 0.01162 0.29282
 C34 C 0.31204 0.01393 0.29765
 C35 C 0.29515 0.02727 0.33382
 C36 C 0.36134 0.03575 0.35922
 C37 C 0.34755 0.00576 0.16602
 C38 C 0.32574 -0.00527 0.13275
 C39 C 0.28927 -0.05071 0.17473
 C40 C 0.31200 -0.03903 0.20715
 N41 N 0.34124 -0.01200 0.20209
 H42 H 0.40869 0.02111 0.31818
 H43 H 0.29287 0.00672 0.27321
 H44 H 0.26306 0.02980 0.33678
 H45 H 0.38164 0.04462 0.38226
 H46 H 0.37094 0.02709 0.16238
 H47 H 0.33259 0.00793 0.10401
 H48 H 0.26744 -0.07362 0.17918
 H49 H 0.30772 -0.05316 0.23590
 C50 C 0.44487 0.11073 0.20056
 C51 C 0.45270 -0.11711 0.27631
 C52 C 0.29695 -0.03475 0.13659
 C53 C 0.31998 0.03898 0.36497
 C54 C 0.06595 1.03406 0.79045
 H55 H 0.06026 1.00525 0.80379
 C56 C 0.04705 1.06857 0.80574
 H57 H 0.02663 1.06591 0.83080
 C58 C 0.10121 1.07264 0.74301
 H59 H 0.12324 1.07444 0.71939
 C60 C 0.08322 1.10779 0.75745
 H61 H 0.09130 1.13605 0.74419
 N62 N 0.09265 1.03673 0.75978
 C63 C 0.11250 0.91674 0.71241
 H64 H 0.14468 0.91751 0.71210
 C65 C 0.09365 0.88276 0.69945
 H66 H 0.11154 0.85752 0.68877
 C67 C 0.05036 0.94935 0.72611
 H68 H 0.03382 0.97555 0.73637
 C69 C 0.03009 0.91612 0.71205
 H70 H -0.00214 0.91677 0.71157
 Zn71 Zn 0.12287 0.99102 0.74341
 N72 N 0.09090 0.94873 0.72636
 C73 C 0.14674 0.93597 0.80195
 N74 N 0.15397 0.97314 0.78750
 C75 C 0.17966 0.99755 0.80632
 C76 C 0.19934 0.98446 0.84095
 C77 C 0.16633 0.92149 0.83541
 C78 C 0.13023 1.01237 0.66556
 C79 C 0.14713 1.02541 0.62995
 C80 C 0.21191 1.02061 0.66046
 C81 C 0.19356 1.00758 0.69588
 N82 N 0.15326 1.00470 0.69786
 H83 H 0.12481 0.91755 0.78844
 H84 H 0.18418 1.02742 0.79499
 H85 H 0.21937 1.00416 0.85598
 H86 H 0.15961 0.89184 0.84622
 H87 H 0.09829 1.00946 0.66796
 H88 H 0.12783 1.03241 0.60510
 H89 H 0.24383 1.02429 0.65961
 H90 H 0.21127 1.00088 0.72190
 C91 C 0.05200 0.88216 0.69913
 C92 C 0.05624 1.10617 0.78966
 C93 C 0.18835 1.03058 0.62723
 C94 C 0.19282 0.94575 0.85559
 C95 C 0.56987 0.53110 0.30026
 H96 H 0.56803 0.50300 0.31615
 C97 C 0.55072 0.56542 0.31562
 H98 H 0.53385 0.56335 0.34327
 C99 C 0.59590 0.56831 0.24607
 H100 H 0.61460 0.56983 0.21972
 C101 C 0.57684 0.60316 0.26003
 H102 H 0.58097 0.63088 0.24394
 N103 N 0.59248 0.53327 0.26643
 C104 C 0.61463 0.41381 0.21876
 H105 H 0.64681 0.41463 0.21894
 C106 C 0.59601 0.38012 0.20469
 H107 H 0.61410 0.35516 0.19371
 C108 C 0.55227 0.44609 0.23217
 H109 H 0.53559 0.47207 0.24281
 C110 C 0.53225 0.41319 0.21704
 H111 H 0.50004 0.41387 0.21606
 Zn112 Zn 0.62396 0.48810 0.25075
 N113 N 0.59278 0.44554 0.23293
 C114 C 0.64714 0.43291 0.30934
 N115 N 0.65415 0.47038 0.29557
 C116 C 0.67904 0.49489 0.31534
 C117 C 0.69820 0.48156 0.35018
 C118 C 0.66618 0.41823 0.34303
 C119 C 0.63397 0.50703 0.17232
 C120 C 0.65186 0.52015 0.13725
 C121 C 0.71485 0.52100 0.17131
 C122 C 0.69553 0.50773 0.20611
 N123 N 0.65556 0.50210 0.20608
 H124 H 0.62585 0.41434 0.29504
 H125 H 0.68338 0.52499 0.30454
 H126 H 0.71764 0.50132 0.36589
 H127 H 0.65966 0.38832 0.35323
 H128 H 0.60229 0.50200 0.17310
 H129 H 0.63359 0.52499 0.11119
 H130 H 0.74636 0.52699 0.17203
 H131 H 0.71215 0.50315 0.23324
 C132 C 0.55437 0.37957 0.20356
 C133 C 0.55468 0.60222 0.29576
 C134 C 0.69260 0.52830 0.13659
 C135 C 0.69194 0.44254 0.36411
 C136 C 0.94419 0.45715 0.78062
 H137 H 0.95239 0.48609 0.79153
 C138 C 0.96563 0.42314 0.79289
 H139 H 0.98974 0.42652 0.81368
 C140 C 0.90261 0.41772 0.74098
 H141 H 0.87797 0.41543 0.72090
 C142 C 0.92303 0.38286 0.75275
 H143 H 0.91346 0.35430 0.74172
 N144 N 0.91225 0.45381 0.75641
 C145 C 0.88752 0.58009 0.73571
 H146 H 0.85800 0.58167 0.74899
 C147 C 0.90503 0.61477 0.72163
 H148 H 0.88862 0.64292 0.72422
 C149 C 0.94375 0.54086 0.71504
 H150 H 0.95827 0.51181 0.71202
 C151 C 0.96229 0.57488 0.70013
 H152 H 0.99126 0.57168 0.68581
 Zn153 Zn 0.87789 0.49936 0.74875
 N154 N 0.90681 0.54410 0.73192
 C155 C 0.87887 0.52810 0.82634
 N156 N 0.85380 0.51326 0.79877
 C157 C 0.81411 0.51069 0.80675
 C158 C 0.79847 0.52300 0.84382
 C159 C 0.86456 0.54093 0.86348
 C160 C 0.84444 0.50614 0.67239
 C161 C 0.82254 0.49386 0.63964
 C162 C 0.78972 0.44636 0.68237
 C163 C 0.81247 0.45936 0.71428
 N164 N 0.84000 0.48805 0.70858
 H165 H 0.90998 0.53137 0.81904
 H166 H 0.79431 0.49993 0.78427
 H167 H 0.76673 0.52137 0.84935
 H168 H 0.88518 0.55325 0.88449
 H169 H 0.86660 0.52865 0.66815
 H170 H 0.82799 0.50742 0.61077
 H171 H 0.76944 0.42213 0.68725
 H172 H 0.80994 0.44470 0.74297
 C173 C 0.94260 0.61240 0.70287
 C174 C 0.95405 0.38518 0.78025
 C175 C 0.79563 0.46271 0.64409
 C176 C 0.82382 0.53876 0.87261
 C177 C 0.28406 0.44554 -0.04271
 H178 H 0.29739 0.45042 -0.01396
 C179 C 0.29662 0.46766 -0.07578
 H180 H 0.31935 0.48965 -0.07184
 C181 C 0.24065 0.40890 -0.08313
 H182 H 0.21953 0.38531 -0.08622
 C183 C 0.25254 0.43011 -0.11701
 H184 H 0.24020 0.42258 -0.14566
 N185 N 0.25748 0.41587 -0.04713
 C186 C 0.22339 0.37982 0.07456
 H187 H 0.22459 0.34789 0.07020
 C188 C 0.21021 0.39512 0.11115
 H189 H 0.20196 0.37456 0.13468
 C190 C 0.23055 0.44511 0.04844
 H191 H 0.23736 0.46451 0.02363
 C192 C 0.21776 0.46179 0.08486
 H193 H 0.21510 0.49398 0.08762
 Zn194 Zn 0.24758 0.37900 -0.00487
 N195 N 0.23313 0.40469 0.04399
 C196 C 0.29049 0.31241 0.02590
 N197 N 0.29394 0.34647 0.00401
 C198 C 0.33030 0.35909 -0.00837
 C199 C 0.36500 0.33904 0.00382
 C200 C 0.32441 0.29134 0.03863
 C201 C 0.16735 0.36140 -0.01001
 C202 C 0.13390 0.34138 -0.02265
 C203 C 0.17744 0.29185 -0.05405
 C204 C 0.21018 0.31277 -0.04055
 N205 N 0.20450 0.34709 -0.01934
 H206 H 0.26138 0.30210 0.03447
 H207 H 0.33278 0.38563 -0.02637
 H208 H 0.39359 0.35071 -0.00497
 H209 H 0.32085 0.26525 0.05740
 H210 H 0.16366 0.38907 0.00639
 H211 H 0.10465 0.35395 -0.01561
 H212 H 0.18250 0.26517 -0.07183
 H213 H 0.24007 0.30235 -0.04802
 C214 C 0.20690 0.43660 0.11663
 C215 C 0.28194 0.45899 -0.11385
 C216 C 0.13863 0.30651 -0.04565
 C217 C 0.36234 0.30544 0.02877
 C218 C 0.79594 0.06596 1.03451
 H219 H 0.81065 0.05986 1.00619
 C220 C 0.80956 0.04678 1.06908
 H221 H 0.83432 0.02556 1.06674
 C222 C 0.74814 0.10338 1.07231
 H223 H 0.72503 0.12636 1.07382
 C224 C 0.76085 0.08505 1.10753
 H225 H 0.74688 0.09393 1.13555
 N226 N 0.76655 0.09462 1.03687
 C227 C 0.73143 0.12353 0.91417
 H228 H 0.72992 0.15558 0.91711
 C229 C 0.71801 0.10624 0.87925
 H230 H 0.70725 0.12554 0.85553
 C231 C 0.74413 0.05980 0.94279
 H232 H 0.75297 0.04180 0.96811
 C233 C 0.73089 0.04111 0.90814
 H234 H 0.73003 0.00880 0.90719
 Zn235 Zn 0.75489 0.12889 0.99276
 N236 N 0.74382 0.10042 0.94527
 C237 C 0.79490 0.19399 0.95712
 N238 N 0.79880 0.16286 0.98311
 C239 C 0.83465 0.15359 0.99972
 C240 C 0.86885 0.17333 0.98754
 C241 C 0.82833 0.21463 0.94417
 C242 C 0.67350 0.13905 1.00136
 C243 C 0.63737 0.15715 1.01274
 C244 C 0.67299 0.21593 1.03175
 C245 C 0.70855 0.19677 1.01953
 N246 N 0.70811 0.15879 1.00528
 H247 H 0.76604 0.20225 0.94550
 H248 H 0.83737 0.12974 1.02122
 H249 H 0.89729 0.16398 0.99974
 H250 H 0.82469 0.23802 0.92203
 H251 H 0.67412 0.10870 0.99028
 H252 H 0.61037 0.14034 1.01035
 H253 H 0.67395 0.24570 1.04424
 H254 H 0.73655 0.21164 1.02274
 C255 C 0.71679 0.06452 0.87612
 C256 C 0.79287 0.05733 1.10643
 C257 C 0.63684 0.19576 1.02902
 C258 C 0.86618 0.20324 0.95822
 C259 C 0.30120 0.56905 0.53465
 H260 H 0.31690 0.56600 0.50638
 C261 C 0.31576 0.54908 0.56836
 H262 H 0.34228 0.53021 0.56547
 C263 C 0.24940 0.59957 0.57330
 H264 H 0.22436 0.62034 0.57557
 C265 C 0.26261 0.57980 0.60760
 H266 H 0.24725 0.58546 0.63571
 N267 N 0.26947 0.59493 0.53798
 C268 C 0.22969 0.62705 0.41805
 H269 H 0.22533 0.65865 0.42309
 C270 C 0.21658 0.61078 0.38259
 H271 H 0.20341 0.63061 0.36056
 C272 C 0.24864 0.56295 0.44229
 H273 H 0.26012 0.54435 0.46611
 C274 C 0.23550 0.54519 0.40705
 H275 H 0.23718 0.51297 0.40413
 Zn276 Zn 0.25631 0.63054 0.49538
 N277 N 0.24522 0.60330 0.44719
 C278 C 0.29486 0.69599 0.45874
 N279 N 0.29920 0.66603 0.48601
 C280 C 0.33491 0.65880 0.50375
 C281 C 0.36876 0.67884 0.49103
 C282 C 0.32789 0.71687 0.44521
 C283 C 0.17498 0.63799 0.50656
 C284 C 0.13848 0.65545 0.51771
 C285 C 0.17260 0.71592 0.53420
 C286 C 0.20854 0.69735 0.52226
 N287 N 0.20903 0.65887 0.50933
 H288 H 0.26606 0.70298 0.44637
 H289 H 0.33788 0.63623 0.52657
 H290 H 0.39723 0.67088 0.50401
 H291 H 0.32397 0.73906 0.42191
 H292 H 0.17636 0.60735 0.49628
 H293 H 0.11193 0.63785 0.51611
 H294 H 0.17281 0.74622 0.54546
 H295 H 0.23609 0.71324 0.52433
 C296 C 0.21853 0.56926 0.37693
 C297 C 0.29710 0.55535 0.60571
 C298 C 0.13701 0.69469 0.53244
 C299 C 0.36579 0.70704 0.46007
 C300 C 0.78888 0.94543 0.45686
 H301 H 0.80285 0.94801 0.48563
 C302 C 0.80250 0.96822 0.42470
 H303 H 0.82655 0.98858 0.42940
 C304 C 0.74291 0.91350 0.41526
 H305 H 0.72047 0.89133 0.41130
 C306 C 0.75564 0.93562 0.38232
 H307 H 0.74250 0.93027 0.35353
 N308 N 0.76048 0.91774 0.45136
 C309 C 0.71843 0.87824 0.56883
 H310 H 0.71610 0.84693 0.56191
 C311 C 0.70436 0.89224 0.60556
 H312 H 0.69218 0.87112 0.62669
 C313 C 0.73472 0.94374 0.54859
 H314 H 0.74564 0.96387 0.52598
 C315 C 0.72107 0.95912 0.58531
 H316 H 0.72182 0.99101 0.59055
 Zn317 Zn 0.74880 0.87961 0.49186
 N318 N 0.73330 0.90380 0.54114
 C319 C 0.79026 0.81318 0.52476
 N320 N 0.79429 0.84573 0.50079
 C321 C 0.83070 0.85595 0.48628
 C322 C 0.86506 0.83539 0.49870
 C323 C 0.82375 0.79158 0.53766
 C324 C 0.66867 0.86689 0.48013
 C325 C 0.63484 0.84745 0.46764
 C326 C 0.67706 0.79231 0.44490
 C327 C 0.71017 0.81271 0.45831
 N328 N 0.70534 0.84943 0.47524
 H329 H 0.76110 0.80446 0.53484
 H330 H 0.83359 0.88104 0.46634
 H331 H 0.89383 0.84530 0.48830
 H332 H 0.81978 0.76688 0.55815
 H333 H 0.66579 0.89628 0.49340
 H334 H 0.60603 0.86228 0.47131
 H335 H 0.68144 0.76343 0.43078
 H336 H 0.73973 0.79966 0.45442
 C337 C 0.70526 0.93319 0.61419
 C338 C 0.78681 0.96240 0.38647
 C339 C 0.63879 0.80986 0.44928
 C340 C 0.86190 0.80362 0.52588
 C341 C -0.04188 0.29517 0.44910
 H342 H -0.01443 0.31065 0.45292
 C343 C -0.07567 0.30758 0.47096
 H344 H -0.07358 0.33277 0.49101
 C345 C -0.07823 0.24462 0.41777
 H346 H -0.07939 0.22001 0.39711
 C347 C -0.11280 0.25624 0.43876
 H348 H -0.14007 0.24060 0.43348
 N349 N -0.04407 0.26528 0.42177
 C350 C 0.07849 0.23415 0.38553
 H351 H 0.07557 0.24088 0.35408
 C352 C 0.11489 0.22026 0.40019
 H353 H 0.13987 0.21627 0.37972
 C354 C 0.04887 0.23069 0.45002
 H355 H 0.02285 0.23454 0.46909
 C356 C 0.08506 0.21711 0.46613
 H357 H 0.08653 0.21017 0.49767
 Zn358 Zn -0.00104 0.25554 0.38468
 N359 N 0.04623 0.23826 0.41022
 C360 C 0.03113 0.33063 0.38171
 N361 N 0.01188 0.30415 0.35856
 C362 C 0.00593 0.31155 0.31906
 C363 C 0.01958 0.34688 0.30161
 C364 C 0.04511 0.36608 0.36565
 C365 C 0.00302 0.17879 0.34935
 C366 C -0.01081 0.14666 0.32739
 C367 C -0.06305 0.18995 0.30170
 C368 C -0.04798 0.22141 0.32390
 N369 N -0.01602 0.21516 0.34789
 H370 H 0.03732 0.32343 0.41248
 H371 H -0.00836 0.28977 0.30073
 H372 H 0.01534 0.35189 0.26999
 H373 H 0.06100 0.38608 0.38481
 H374 H 0.02781 0.17390 0.36911
 H375 H 0.00398 0.11770 0.33033
 H376 H -0.08949 0.19524 0.28412
 H377 H -0.06322 0.25026 0.32377
 C378 C 0.11844 0.21107 0.44087
 C379 C -0.11219 0.28910 0.46468
 C380 C -0.04498 0.15168 0.30406
 C381 C 0.03993 0.37448 0.32497
 C382 C 1.03468 0.80039 0.07019
 H383 H 1.00591 0.81520 0.06706
 C384 C 1.06764 0.81481 0.04926
 H385 H 1.06359 0.84022 0.02952
 C386 C 1.07544 0.75155 0.10212
 H387 H 1.07893 0.72800 0.12396
 C388 C 1.10906 0.76475 0.08154
 H389 H 1.13773 0.75067 0.08755
 N390 N 1.03926 0.76998 0.09690
 C391 C 0.92159 0.72708 0.13087
 H392 H 0.92753 0.72295 0.16218
 C393 C 0.88664 0.71245 0.11538
 H394 H 0.86578 0.69833 0.13553
 C395 C 0.94340 0.74711 0.06657
 H396 H 0.96612 0.75953 0.04749
 C397 C 0.90859 0.73259 0.04964
 H398 H 0.90489 0.73427 0.01761
 Zn399 Zn 0.99706 0.75699 0.13307
 N400 N 0.94925 0.74399 0.10664
 C401 C 0.95784 0.79946 0.19675
 N402 N 0.98677 0.80143 0.16804
 C403 C 1.00582 0.83628 0.16100
 C404 C 0.99329 0.87156 0.18010
 C405 C 0.94460 0.83397 0.21683
 C406 C 1.01622 0.67724 0.13675
 C407 C 1.02905 0.64062 0.15228
 C408 C 1.03182 0.67112 0.21752
 C409 C 1.01919 0.70753 0.20054
 N410 N 1.01236 0.70990 0.16066
 H411 H 0.94386 0.77150 0.20322
 H412 H 1.02970 0.83742 0.13928
 H413 H 1.00756 0.89925 0.17240
 H414 H 0.92019 0.83189 0.23808
 H415 H 1.01020 0.68001 0.10520
 H416 H 1.03291 0.61533 0.13236
 H417 H 1.03836 0.66982 0.24907
 H418 H 1.01567 0.73392 0.21896
 C419 C 0.87994 0.71437 0.07418
 C420 C 1.10568 0.79764 0.05569
 C421 C 1.03764 0.63730 0.19302
 C422 C 0.96124 0.87098 0.20731
 C423 C 0.53394 0.29343 0.57472
 H424 H 0.50524 0.30849 0.57207
 C425 C 0.56710 0.30883 0.55496
 H426 H 0.56324 0.33521 0.53649
 C427 C 0.57430 0.24291 0.60458
 H428 H 0.57748 0.21823 0.62520
 C429 C 0.60815 0.25710 0.58510
 H430 H 0.63677 0.24271 0.59069
 N431 N 0.53821 0.26168 0.59988
 C432 C 0.42041 0.21690 0.62912
 H433 H 0.42595 0.21081 0.66023
 C434 C 0.38552 0.20368 0.61228
 H435 H 0.36432 0.18854 0.63125
 C436 C 0.44310 0.24084 0.56650
 H437 H 0.46606 0.25439 0.54857
 C438 C 0.40840 0.22776 0.54821
 H439 H 0.40502 0.23165 0.51633
 Zn440 Zn 0.49530 0.24754 0.63458
 N441 N 0.44837 0.23525 0.60640
 C442 C 0.45249 0.28944 0.69619
 N443 N 0.48381 0.29114 0.67013
 C444 C 0.50450 0.32543 0.66578
 C445 C 0.49140 0.36061 0.68466
 C446 C 0.43856 0.32386 0.71595
 C447 C 0.51440 0.16764 0.63761
 C448 C 0.52673 0.13085 0.65310
 C449 C 0.52786 0.16070 0.71874
 C450 C 0.51564 0.19727 0.70180
 N451 N 0.50995 0.20006 0.66175
 H452 H 0.43706 0.26188 0.70051
 H453 H 0.53026 0.32623 0.64630
 H454 H 0.50714 0.38795 0.67902
 H455 H 0.41230 0.32213 0.73489
 H456 H 0.50920 0.17074 0.60592
 H457 H 0.53111 0.10577 0.63301
 H458 H 0.53360 0.15912 0.75044
 H459 H 0.51157 0.22347 0.72040
 C460 C 0.37923 0.20850 0.57122
 C461 C 0.60503 0.29130 0.56094
 C462 C 0.53432 0.12712 0.69404
 C463 C 0.45704 0.36046 0.70887
 C464 C 0.45892 0.79105 0.94700
 H465 H 0.48721 0.80537 0.95041
 C466 C 0.42496 0.80639 0.96684
 H467 H 0.42760 0.83240 0.98571
 C468 C 0.42074 0.74152 0.91607
 H469 H 0.41881 0.71693 0.89542
 C470 C 0.38614 0.75590 0.93516
 H471 H 0.35819 0.74179 0.92910
 N472 N 0.45606 0.75968 0.92156
 C473 C 0.57210 0.70657 0.89112
 H474 H 0.56646 0.70470 0.85946
 C475 C 0.60839 0.69285 0.90586
 H476 H 0.63006 0.67979 0.88522
 C477 C 0.55053 0.72709 0.95571
 H478 H 0.52798 0.74101 0.97474
 C479 C 0.58682 0.71363 0.97189
 H480 H 0.59167 0.71671 1.00361
 Zn481 Zn 0.49976 0.74492 0.88785
 N482 N 0.54419 0.72362 0.91584
 C483 C 0.55472 0.80305 0.86932
 N484 N 0.51733 0.79149 0.86040
 C485 C 0.49390 0.81400 0.83563
 C486 C 0.50867 0.84886 0.81783
 C487 C 0.57052 0.83701 0.85224
 C488 C 0.48359 0.66683 0.87118
 C489 C 0.47109 0.63348 0.85050
 C490 C 0.45841 0.67572 0.79324
 C491 C 0.47209 0.70839 0.81492
 N492 N 0.48377 0.70339 0.85341
 H493 H 0.57262 0.78647 0.89036
 H494 H 0.46376 0.80513 0.82990
 H495 H 0.49000 0.86628 0.79784
 H496 H 0.60046 0.84502 0.86011
 H497 H 0.49261 0.66370 0.90193
 H498 H 0.47058 0.60494 0.86576
 H499 H 0.44819 0.68021 0.76299
 H500 H 0.47246 0.73769 0.80132
 C501 C 0.61642 0.69649 0.94667
 C502 C 0.38769 0.78946 0.96009
 C503 C 0.45764 0.63770 0.81123
 C504 C 0.54775 0.86039 0.82588
 N505 N 0.46504 -0.22086 0.31323
 C506 C 0.49468 -0.21732 0.34021
 N507 N 0.51280 -0.18153 0.34296
 N508 N 0.50079 -0.15032 0.32117
 C509 C 0.47015 -0.15342 0.29545
 N510 N 0.45300 -0.18956 0.29140
 N511 N 0.96659 0.28054 0.81440
 C512 C 0.99529 0.28367 0.84244
 N513 N 1.01272 0.31960 0.84700
 N514 N 1.00093 0.35131 0.82583
 C515 C 0.97127 0.34856 0.79894
 N516 N 0.95479 0.31234 0.79318
 N517 N -0.00024 1.17556 0.85601
 C518 C 0.01541 1.21153 0.84650
 N519 N 0.04322 1.21282 0.81673
 N520 N 0.05526 1.17955 0.79790
 C521 C 0.04016 1.14354 0.80805
 N522 N 0.01189 1.14232 0.83727
 N523 N 0.51671 0.67518 0.37014
 C524 C 0.51430 0.70973 0.34876
 N525 N 0.52443 0.70854 0.30934
 N526 N 0.53636 0.67427 0.29222
 C527 C 0.53858 0.63977 0.31372
 N528 N 0.52836 0.64096 0.35300
 N529 N 0.48964 0.31865 0.14151
 C530 C 0.50830 0.28211 0.14328
 N531 N 0.53946 0.27718 0.16842
 N532 N 0.55283 0.30789 0.18906
 C533 C 0.53523 0.34469 0.18598
 N534 N 0.50282 0.34935 0.16248
 N535 N 0.03668 0.77860 0.66808
 C536 C 0.00596 0.78275 0.64229
 N537 N -0.01245 0.81929 0.63889
 N538 N 0.00061 0.85069 0.65888
 C539 C 0.03264 0.84675 0.68298
 N540 N 0.04992 0.81000 0.68774
 N541 N 0.95366 0.71626 0.66765
 C542 C 0.98485 0.71269 0.64156
 N543 N 1.00395 0.67651 0.63821
 N544 N 0.99148 0.64499 0.65876
 C545 C 0.95942 0.64829 0.68369
 N546 N 0.94114 0.68471 0.68813
 N547 N 0.50530 0.17588 0.13601
 C548 C 0.48687 0.21221 0.14104
 N549 N 0.45648 0.21540 0.16810
 N550 N 0.44412 0.18343 0.18800
 C551 C 0.46171 0.14691 0.18195
 N552 N 0.49296 0.14392 0.15596
 N553 N 0.31471 0.47196 -0.21871
 C554 C 0.34416 0.49887 -0.21523
 N555 N 0.35017 0.51528 -0.17872
 N556 N 0.32895 0.50419 -0.14695
 C557 C 0.30061 0.47622 -0.15017
 N558 N 0.29342 0.46090 -0.18688
 N559 N 0.81453 0.98289 0.28133
 C560 C 0.84703 1.00591 0.28533
 N561 N 0.85813 1.01623 0.32276
 N562 N 0.83788 1.00399 0.35472
 C563 C 0.80575 0.98058 0.35078
 N564 N 0.79426 0.97063 0.31337
 N565 N 0.81891 0.04882 1.21311
 C566 C 0.85019 0.02226 1.21221
 N567 N 0.86094 0.00565 1.17651
 N568 N 0.84191 0.01570 1.14318
 C569 C 0.81113 0.04273 1.14403
 N570 N 0.79981 0.05880 1.17977
 N571 N 0.37192 0.51590 0.67622
 C572 C 0.35171 0.51643 0.71164
 N573 N 0.31291 0.52901 0.71188
 N574 N 0.29521 0.54043 0.67816
 C575 C 0.31549 0.53962 0.64276
 N576 N 0.35419 0.52705 0.64254
 N577 N 0.15538 0.56042 0.28848
 C578 C 0.15415 0.52027 0.28302
 N579 N 0.17770 0.49631 0.30623
 N580 N 0.19944 0.51172 0.33524
 C581 C 0.19903 0.55181 0.34176
 N582 N 0.17721 0.57578 0.31719
 N583 N 0.65352 0.05316 0.78793
 C584 C 0.65274 0.01284 0.78339
 N585 N 0.67636 -0.01023 0.80735
 N586 N 0.69784 0.00607 0.83600
 C587 C 0.69712 0.04627 0.84150
 N588 N 0.67512 0.06947 0.81635
 N589 N 0.67380 1.00046 0.69701
 C590 C 0.64954 0.97664 0.71894
 N591 N 0.64511 0.93828 0.70686
 N592 N 0.66369 0.92446 0.67427
 C593 C 0.68729 0.94838 0.65197
 N594 N 0.69223 0.98664 0.66415
 N595 N 0.14963 0.44421 0.21110
 C596 C 0.15064 0.48391 0.21936
 N597 N 0.17284 0.50754 0.19511
 N598 N 0.19161 0.49247 0.16302
 C599 C 0.18939 0.45302 0.15412
 N600 N 0.16859 0.42912 0.17922
 N601 N -0.21914 0.31453 0.47883
 C602 C -0.21826 0.34640 0.50393
 N603 N -0.18240 0.35707 0.51844
 N604 N -0.14896 0.33765 0.50754
 C605 C -0.14978 0.30658 0.48160
 N606 N -0.18566 0.29503 0.46799
 N607 N 0.28113 0.81780 0.97213
 C608 C 0.28238 0.85039 0.99623
 N609 N 0.31838 0.86109 1.01041
 N610 N 0.35160 0.84083 1.00030
 C611 C 0.35038 0.80886 0.97552
 N612 N 0.31435 0.79746 0.96211
 N613 N 1.21108 0.81655 0.02938
 C614 C 1.20854 0.85387 0.01334
 N615 N 1.17196 0.87188 0.01037
 N616 N 1.13934 0.85343 0.02257
 C617 C 1.14179 0.81625 0.03868
 N618 N 1.17835 0.79816 0.04180
 N619 N 0.71041 0.31116 0.53524
 C620 C 0.70791 0.34941 0.52151
 N621 N 0.67142 0.36779 0.52003
 N622 N 0.63883 0.34886 0.53143
 C623 C 0.64121 0.31074 0.54519
 N624 N 0.67771 0.29226 0.54689
 N625 N 0.30796 0.17293 0.49638
 C626 C 0.28423 0.14915 0.51897
 N627 N 0.28991 0.14813 0.55903
 N628 N 0.31916 0.16815 0.57550
 C629 C 0.34406 0.19033 0.55279
 N630 N 0.33745 0.19289 0.51290
 N631 N 0.80845 0.67342 0.00248
 C632 C 0.78672 0.64885 0.02625
 N633 N 0.79364 0.64899 0.06610
 N634 N 0.82222 0.67097 0.08124
 C635 C 0.84518 0.69401 0.05732
 N636 N 0.83728 0.69532 0.01763
 N637 N 0.69781 0.66741 1.01531
 C638 C 0.72278 0.64577 0.99084
 N639 N 0.71396 0.64387 0.95144
 N640 N 0.68089 0.66110 0.93749
 C641 C 0.65498 0.68101 0.96220
 N642 N 0.66452 0.68456 1.00131
 N643 N 0.19580 0.17140 0.50886
 C644 C 0.22042 0.15065 0.48334
 N645 N 0.21299 0.15291 0.44360
 N646 N 0.18143 0.17339 0.43016
 C647 C 0.15581 0.19244 0.45583
 N648 N 0.16398 0.19160 0.49543
 N649 N 0.57456 0.05020 0.76306
 C650 C 0.59526 0.02551 0.73758
 N651 N 0.59232 0.03248 0.69773
 N652 N 0.57139 0.06374 0.68407
 C653 C 0.55254 0.08958 0.70957
 N654 N 0.55388 0.08178 0.74936
 N655 N 1.07690 0.56001 0.26212
 C656 C 1.09754 0.53513 0.23678
 N657 N 1.09508 0.54224 0.19692
 N658 N 1.07467 0.57381 0.18316
 C659 C 1.05584 0.59978 0.20858
 N660 N 1.05676 0.59188 0.24835
 N661 N 0.89247 0.94129 0.25981
 C662 C 0.90150 0.97703 0.24297
 N663 N 0.93236 0.97800 0.21634
 N664 N 0.95257 0.94461 0.20641
 C665 C 0.94276 0.90879 0.22255
 N666 N 0.91259 0.90796 0.24983
 N667 N 0.43106 0.46806 0.71849
 C668 C 0.39834 0.46764 0.74279
 N669 N 0.38680 0.43191 0.75787
 N670 N 0.40634 0.39811 0.74835
 C671 C 0.43849 0.39846 0.72343
 N672 N 0.45069 0.43421 0.70903
 N673 N 0.39422 0.57748 0.74655
 C674 C 0.40057 0.53989 0.76116
 N675 N 0.42795 0.53448 0.79032
 N676 N 0.44731 0.56537 0.80489
 C677 C 0.44025 0.60301 0.79097
 N678 N 0.41377 0.60836 0.76102
 N679 N -0.11996 0.08764 0.25869
 C680 C -0.10171 0.05092 0.25903
 N681 N -0.06388 0.04781 0.27290
 N682 N -0.04530 0.07999 0.28585
 C683 C -0.06374 0.11663 0.28563
 N684 N -0.10136 0.11977 0.27147
 N685 N 0.07442 0.44894 0.25109
 C686 C 0.09962 0.47099 0.27313
 N687 N 0.10246 0.46293 0.31276
 N688 N 0.08247 0.43317 0.32926
 C689 C 0.05857 0.41013 0.30698
 N690 N 0.05449 0.41900 0.26762
 N691 N 0.56217 0.95682 0.77298
 C692 C 0.60252 0.96005 0.77427
 N693 N 0.62399 0.93016 0.79186
 N694 N 0.60627 0.89897 0.80807
 C695 C 0.56616 0.89571 0.80713
 N696 N 0.54432 0.92527 0.78917
 N697 N 0.76488 0.57213 0.06563
 C698 C 0.74030 0.59214 0.03999
 N699 N 0.70042 0.58773 0.04443
 N700 N 0.68567 0.56618 0.07424
 C701 C 0.71004 0.54794 0.10104
 N702 N 0.75005 0.55080 0.09581
 N703 N 0.26016 1.07154 0.55416
 C704 C 0.23586 1.09405 0.53031
 N705 N 0.19591 1.09214 0.53637
 N706 N 0.18104 1.07060 0.56616
 C707 C 0.20536 1.04992 0.59129
 N708 N 0.24526 1.05021 0.58428
 N709 N 0.22930 0.87410 0.93052
 C710 C 0.23675 0.89759 0.96243
 N711 N 0.23219 0.93795 0.95822
 N712 N 0.22002 0.95383 0.92366
 C713 C 0.21175 0.92992 0.89217
 N714 N 0.21708 0.88986 0.89628
 N715 N 0.72778 0.37025 0.43881
 C716 C 0.73556 0.39354 0.47078
 N717 N 0.73120 0.43394 0.46677
 N718 N 0.71900 0.45007 0.43233
 C719 C 0.71048 0.42637 0.40076
 N720 N 0.71554 0.38625 0.40469
 N721 N 0.73851 0.39433 0.58191
 C722 C 0.75221 0.40236 0.54441
 N723 N 0.77834 0.43247 0.53969
 N724 N 0.79054 0.45309 0.57111
 C725 C 0.77744 0.44431 0.60863
 N726 N 0.75073 0.41486 0.61324
 N727 N 0.28013 -0.06400 0.03183
 C728 C 0.25294 -0.09321 0.03614
 N729 N 0.23814 -0.10054 0.07336
 N730 N 0.25051 -0.08041 0.10488
 C731 C 0.27847 -0.05210 0.10076
 N732 N 0.29251 -0.04381 0.06346
 N733 N 0.24851 0.07509 0.44247
 C734 C 0.27189 0.09755 0.46605
 N735 N 0.31156 0.09812 0.45772
 N736 N 0.32688 0.07848 0.42637
 C737 C 0.30326 0.05736 0.40194
 N738 N 0.26381 0.05563 0.41093
 N739 N 0.75418 0.56910 0.95401
 C740 C 0.77647 0.59455 0.97554
 N741 N 0.81529 0.59873 0.96482
 N742 N 0.83060 0.57980 0.93304
 C743 C 0.80781 0.55585 0.91050
 N744 N 0.76945 0.55032 0.92206
 N745 N 0.03151 0.70514 0.56389
 C746 C 0.03221 0.73709 0.58885
 N747 N 0.06675 0.75721 0.59183
 N748 N 0.09958 0.74480 0.57249
 C749 C 0.09932 0.71175 0.54914
 N750 N 0.06443 0.69261 0.54465
 N751 N 0.53187 0.20676 1.06212
 C752 C 0.53339 0.23777 1.08817
 N753 N 0.56827 0.25728 1.09134
 N754 N 0.60065 0.24511 1.07110
 C755 C 0.59959 0.21294 1.04661
 N756 N 0.56434 0.19448 1.04197
 N757 N 0.97143 0.21421 0.92798
 C758 C 0.96861 0.24097 0.89749
 N759 N 0.93226 0.25762 0.88943
 N760 N 0.90000 0.24699 0.90992
 C761 C 0.90265 0.21935 0.93954
 N762 N 0.93914 0.20360 0.94851
 N763 N 0.43125 0.75767 0.38779
 C764 C 0.46781 0.74224 0.39704
 N765 N 0.47089 0.71778 0.42938
 N766 N 0.43872 0.70813 0.45059
 C767 C 0.40206 0.72260 0.44051
 N768 N 0.39910 0.74800 0.40897
 N769 N 0.53472 0.79103 0.42226
 C770 C 0.53907 0.76087 0.39534
 N771 N 0.57628 0.74545 0.38798
 N772 N 0.60778 0.75994 0.40628
 C773 C 0.60348 0.79068 0.43247
 N774 N 0.56625 0.80559 0.44043
 N775 N 0.03499 0.28930 -0.07534
 C776 C 0.03961 0.25984 -0.10300
 N777 N 0.07675 0.24392 -0.10959
 N778 N 0.10799 0.25759 -0.09021
 C779 C 0.10348 0.28782 -0.06344
 N780 N 0.06624 0.30296 -0.05600
 N781 N 0.46587 0.29167 0.06319
 C782 C 0.46271 0.26055 0.08910
 N783 N 0.42703 0.24244 0.09255
 N784 N 0.39559 0.25572 0.07222
 C785 C 0.39845 0.28758 0.04730
 N786 N 0.43439 0.30495 0.04282
 N787 N 0.92564 0.74179 0.59157
 C788 C 0.96146 0.75957 0.58792
 N789 N 0.96510 0.78986 0.56109
 N790 N 0.93390 0.80274 0.54006
 C791 C 0.89779 0.78579 0.54481
 N792 N 0.89449 0.75469 0.57061
   
