data_POSCAR
  _audit_creation_date              2014-09-24
  _audit_creation_method            'ToBaCCo'
  _symmetry_space_group_name_H-M    'P1'
  _symmetry_Int_Tables_number       1
  _symmetry_cell_setting            triclinic
  loop_
  _symmetry_equiv_pos_as_xyz
 x,y,z
_cell_length_a 48.8320
_cell_length_b 48.9606
_cell_length_c 44.5882
_cell_angle_alpha 90.000100
_cell_angle_beta 90.000400
_cell_angle_gamma 90.019200
loop_
  _atom_site_label
  _atom_site_type_symbol
  _atom_site_fract_x
  _atom_site_fract_y
  _atom_site_fract_z
C1 C -0.08475 0.30394 -0.01622
 C2 C -0.08498 0.30394 0.01455
 C3 C -0.05843 0.29821 0.02370
 N4 N -0.04211 0.29462 -0.00046
 C5 C -0.05809 0.29822 -0.02488
 C6 C -0.05019 0.29418 0.05377
 C7 C -0.02261 0.29045 0.06267
 C8 C -0.01435 0.28159 0.09084
 C9 C 0.01380 0.28168 0.09088
 C10 C 0.02205 0.29058 0.06275
 N11 N -0.00026 0.29615 0.04582
 C12 C 0.04959 0.29447 0.05402
 C13 C 0.05815 0.29837 0.02410
 C14 C 0.08482 0.30403 0.01539
 C15 C 0.08505 0.30385 -0.01537
 C16 C 0.05849 0.29807 -0.02449
 N17 N 0.04216 0.29462 -0.00030
 C18 C 0.05025 0.29385 -0.05452
 C19 C 0.02267 0.29004 -0.06339
 C20 C 0.01440 0.28096 -0.09147
 C21 C -0.01375 0.28105 -0.09152
 C22 C -0.02199 0.29016 -0.06347
 N23 N 0.00032 0.29586 -0.04659
 C24 C -0.04953 0.29413 -0.05478
 H25 H -0.10232 0.30728 -0.03056
 H26 H -0.10276 0.30728 0.02858
 H27 H 0.00026 0.30581 -0.02604
 H28 H -0.02726 0.27575 0.10950
 H29 H 0.02671 0.27593 0.10958
 H30 H 0.10239 0.30745 0.02970
 H31 H 0.10282 0.30711 -0.02943
 H32 H -0.02666 0.27514 -0.11015
 H33 H -0.00019 0.30594 0.02517
 H34 H 0.02731 0.27497 -0.11008
 C35 C 0.58507 0.80437 0.51540
 C36 C 0.58490 0.80456 0.48463
 C37 C 0.55819 0.79917 0.47586
 N38 N 0.54213 0.79559 0.50023
 C39 C 0.55846 0.79890 0.52443
 C40 C 0.54960 0.79541 0.44592
 C41 C 0.52203 0.79161 0.43719
 C42 C 0.51372 0.78282 0.40903
 C43 C 0.48556 0.78270 0.40916
 C44 C 0.47739 0.79142 0.43737
 N45 N 0.49976 0.79710 0.45419
 C46 C 0.44986 0.79501 0.44633
 C47 C 0.44156 0.79896 0.47634
 C48 C 0.41495 0.80442 0.48538
 C49 C 0.41512 0.80453 0.51615
 C50 C 0.44183 0.79912 0.52491
 N51 N 0.45789 0.79560 0.50054
 C52 C 0.45040 0.79529 0.55485
 C53 C 0.47797 0.79151 0.56358
 C54 C 0.48628 0.78268 0.59172
 C55 C 0.51444 0.78255 0.59159
 C56 C 0.52262 0.79133 0.56339
 N57 N 0.50026 0.79704 0.54659
 C58 C 0.55016 0.79489 0.55443
 H59 H 0.60284 0.80747 0.52951
 H60 H 0.60252 0.80782 0.47035
 H61 H 0.50019 0.80677 0.52591
 H62 H 0.52659 0.77713 0.39029
 H63 H 0.47260 0.77690 0.39052
 H64 H 0.39718 0.80755 0.47128
 H65 H 0.39749 0.80775 0.53044
 H66 H 0.52740 0.77670 0.61021
 H67 H 0.49983 0.80682 0.47487
 H68 H 0.47340 0.77693 0.61044
 C69 C 0.91519 0.69601 0.01625
 C70 C 0.91496 0.69608 -0.01451
 C71 C 0.94151 0.70188 -0.02365
 N72 N 0.95783 0.70545 0.00052
 C73 C 0.94185 0.70176 0.02493
 C74 C 0.94974 0.70601 -0.05370
 C75 C 0.97732 0.70982 -0.06257
 C76 C 0.98559 0.71881 -0.09069
 C77 C 1.01374 0.71872 -0.09073
 C78 C 1.02198 0.70970 -0.06265
 N79 N 0.99967 0.70406 -0.04575
 C80 C 1.04953 0.70574 -0.05395
 C81 C 1.05808 0.70174 -0.02404
 C82 C 1.08474 0.69601 -0.01535
 C83 C 1.08496 0.69613 0.01542
 C84 C 1.05842 0.70193 0.02454
 N85 N 1.04210 0.70546 0.00036
 C86 C 1.05018 0.70610 0.05459
 C87 C 1.02260 0.70991 0.06345
 C88 C 1.01434 0.71894 0.09156
 C89 C 0.98619 0.71884 0.09160
 C90 C 0.97795 0.70978 0.06353
 N91 N 1.00025 0.70412 0.04664
 C92 C 0.95040 0.70581 0.05483
 H93 H 0.89763 0.69260 0.03059
 H94 H 0.89719 0.69275 -0.02856
 H95 H 1.00019 0.69421 0.02606
 H96 H 0.97268 0.72473 -0.10932
 H97 H 1.02666 0.72457 -0.10939
 H98 H 1.10230 0.69259 -0.02968
 H99 H 1.10273 0.69281 0.02947
 H100 H 0.97328 0.72470 0.11025
 H101 H 0.99974 0.69417 -0.02516
 H102 H 1.02726 0.72488 0.11018
 C103 C 0.41508 0.19561 0.48380
 C104 C 0.41491 0.19569 0.51458
 C105 C 0.44153 0.20110 0.52363
 N106 N 0.45786 0.20446 0.49943
 C107 C 0.44180 0.20100 0.47506
 C108 C 0.44983 0.20499 0.55364
 C109 C 0.47738 0.20851 0.56262
 C110 C 0.48556 0.21714 0.59087
 C111 C 0.51372 0.21701 0.59099
 C112 C 0.52202 0.20832 0.56280
 N113 N 0.49974 0.20289 0.54578
 C114 C 0.54959 0.20459 0.55405
 C115 C 0.55818 0.20089 0.52410
 C116 C 0.58490 0.19555 0.51532
 C117 C 0.58507 0.19577 0.48455
 C118 C 0.55845 0.20121 0.47553
 N119 N 0.54212 0.20445 0.49974
 C120 C 0.55015 0.20524 0.44554
 C121 C 0.52261 0.20882 0.43659
 C122 C 0.51443 0.21761 0.40839
 C123 C 0.48628 0.21748 0.40827
 C124 C 0.47796 0.20864 0.43641
 N125 N 0.50024 0.20312 0.45340
 C126 C 0.45039 0.20484 0.44513
 H127 H 0.39744 0.19243 0.46951
 H128 H 0.39713 0.19257 0.52867
 H129 H 0.50017 0.19338 0.47407
 H130 H 0.47260 0.22288 0.60953
 H131 H 0.52659 0.22265 0.60975
 H132 H 0.60254 0.19233 0.52960
 H133 H 0.60285 0.19272 0.47044
 H134 H 0.47340 0.22322 0.38954
 H135 H 0.49980 0.19326 0.52505
 H136 H 0.52739 0.22344 0.38977
 C137 C 0.72134 0.08398 0.01515
 C138 C 0.72145 0.08407 -0.01561
 C139 C 0.71468 0.05778 -0.02465
 N140 N 0.71023 0.04180 -0.00042
 C141 C 0.71454 0.05767 0.02394
 C142 C 0.71128 0.04937 -0.05476
 C143 C 0.70666 0.02195 -0.06347
 C144 C 0.69842 0.01374 -0.09188
 C145 C 0.69835 -0.01435 -0.09188
 C146 C 0.70654 -0.02261 -0.06347
 N147 N 0.71163 -0.00035 -0.04638
 C148 C 0.71108 -0.05005 -0.05480
 C149 C 0.71459 -0.05854 -0.02472
 C150 C 0.72142 -0.08484 -0.01582
 C151 C 0.72143 -0.08488 0.01493
 C152 C 0.71461 -0.05860 0.02390
 N153 N 0.71020 -0.04266 -0.00039
 C154 C 0.71116 -0.05017 0.05401
 C155 C 0.70660 -0.02275 0.06271
 C156 C 0.69850 -0.01448 0.09116
 C157 C 0.69848 0.01362 0.09111
 C158 C 0.70653 0.02179 0.06266
 N159 N 0.71152 -0.00049 0.04556
 C160 C 0.71103 0.04917 0.05394
 H161 H 0.72560 0.10137 0.02941
 H162 H 0.72580 0.10154 -0.02971
 H163 H 0.72104 -0.00048 0.02477
 H164 H 0.69339 0.02665 -0.11079
 H165 H 0.69326 -0.02724 -0.11080
 H166 H 0.72575 -0.10225 -0.03002
 H167 H 0.72575 -0.10232 0.02907
 H168 H 0.69350 0.02655 0.11003
 H169 H 0.72125 -0.00038 -0.02564
 H170 H 0.69355 -0.02736 0.11013
 C171 C 0.22029 0.41532 0.48513
 C172 C 0.22023 0.41544 0.51590
 C173 C 0.21382 0.44185 0.52468
 N174 N 0.20970 0.45774 0.50031
 C175 C 0.21391 0.44167 0.47610
 C176 C 0.21057 0.45046 0.55470
 C177 C 0.20636 0.47790 0.56339
 C178 C 0.19861 0.48621 0.59190
 C179 C 0.19869 0.51431 0.59182
 C180 C 0.20649 0.52243 0.56325
 N181 N 0.21125 0.50010 0.54616
 C182 C 0.21080 0.54980 0.55436
 C183 C 0.21391 0.55820 0.52425
 C184 C 0.22027 0.58455 0.51522
 C185 C 0.22016 0.58444 0.48444
 C186 C 0.21376 0.55802 0.47567
 N187 N 0.20968 0.54212 0.50005
 C188 C 0.21049 0.54941 0.44565
 C189 C 0.20631 0.52196 0.43695
 C190 C 0.19863 0.51364 0.40842
 C191 C 0.19873 0.48554 0.40851
 C192 C 0.20646 0.47743 0.43710
 N193 N 0.21116 0.49976 0.45420
 C194 C 0.21076 0.45006 0.44600
 H195 H 0.22440 0.39780 0.47104
 H196 H 0.22430 0.39801 0.53017
 H197 H 0.22042 0.49985 0.47512
 H198 H 0.19373 0.47336 0.61092
 H199 H 0.19389 0.52729 0.61075
 H200 H 0.22439 0.60208 0.52930
 H201 H 0.22419 0.60187 0.47018
 H202 H 0.19400 0.47256 0.38955
 H203 H 0.22058 0.50002 0.52527
 H204 H 0.19382 0.52648 0.38937
 C205 C 0.27866 0.91612 0.01556
 C206 C 0.27855 0.91592 -0.01520
 C207 C 0.28529 0.94218 -0.02437
 N208 N 0.28973 0.95826 -0.00021
 C209 C 0.28544 0.94247 0.02422
 C210 C 0.28868 0.95048 -0.05452
 C211 C 0.29330 0.97786 -0.06336
 C212 C 0.30154 0.98596 -0.09181
 C213 C 0.30164 1.01404 -0.09194
 C214 C 0.29345 1.02242 -0.06357
 N215 N 0.28834 1.00023 -0.04638
 C216 C 0.28893 1.04990 -0.05502
 C217 C 0.28543 1.05850 -0.02498
 C218 C 0.27857 1.08482 -0.01621
 C219 C 0.27853 1.08497 0.01454
 C220 C 0.28538 1.05874 0.02364
 N221 N 0.28983 1.04271 -0.00058
 C222 C 0.28882 1.05043 0.05379
 C223 C 0.29339 1.02304 0.06262
 C224 C 0.30148 1.01488 0.09110
 C225 C 0.30152 0.98679 0.09118
 C226 C 0.29345 0.97850 0.06277
 N227 N 0.28846 1.00071 0.04558
 C228 C 0.28897 0.95109 0.05419
 H229 H 0.27442 0.89879 0.02989
 H230 H 0.27422 0.89840 -0.02922
 H231 H 0.27893 1.00062 0.02479
 H232 H 0.30656 0.97297 -0.11067
 H233 H 0.30675 1.02686 -0.11092
 H234 H 0.27423 1.10217 -0.03048
 H235 H 0.27415 1.10246 0.02861
 H236 H 0.30651 0.97393 0.11016
 H237 H 0.27872 1.00035 -0.02563
 H238 H 0.30644 1.02784 0.11001
 C239 C 0.77966 0.41544 0.51480
 C240 C 0.77976 0.41567 0.48403
 C241 C 0.78618 0.44212 0.47538
 N242 N 0.79027 0.45792 0.49983
 C243 C 0.78603 0.44176 0.52396
 C244 C 0.78945 0.45085 0.44540
 C245 C 0.79363 0.47833 0.43684
 C246 C 0.80131 0.48676 0.40834
 C247 C 0.80124 0.51486 0.40857
 C248 C 0.79352 0.52286 0.43720
 N249 N 0.78879 0.50046 0.45419
 C250 C 0.78923 0.55019 0.44624
 C251 C 0.78609 0.55847 0.47638
 C252 C 0.77972 0.58478 0.48553
 C253 C 0.77977 0.58455 0.51631
 C254 C 0.78616 0.55811 0.52496
 N255 N 0.79028 0.54231 0.50052
 C256 C 0.78941 0.54938 0.55494
 C257 C 0.79360 0.52190 0.56350
 C258 C 0.80136 0.51347 0.59197
 C259 C 0.80127 0.48537 0.59174
 C260 C 0.79347 0.47737 0.56314
 N261 N 0.78870 0.49977 0.54616
 C262 C 0.78916 0.45004 0.55411
 H263 H 0.77554 0.39786 0.52881
 H264 H 0.77572 0.39830 0.46968
 H265 H 0.77938 0.49993 0.52527
 H266 H 0.80612 0.47400 0.38923
 H267 H 0.80598 0.52792 0.38968
 H268 H 0.77563 0.60237 0.47152
 H269 H 0.77571 0.60192 0.53065
 H270 H 0.80608 0.47231 0.61061
 H271 H 0.77954 0.50029 0.47511
 H272 H 0.80623 0.52624 0.61106
 O273 O 0.23538 0.27247 0.21157
 O274 O 0.29252 0.25373 0.26134
 O275 O 0.27245 0.23438 0.21144
 O276 O 0.25540 0.29178 0.26149
 O277 O 0.22774 0.26487 0.28738
 O278 O 0.24479 0.20748 0.23734
 O279 O 0.26486 0.22682 0.28723
 O280 O 0.20772 0.24556 0.23746
 Cu281 Cu 0.26674 0.26581 0.23385
 Cu282 Cu 0.23349 0.23347 0.26497
 C283 C 0.21194 0.26207 0.21603
 C284 C 0.28830 0.23722 0.28278
 C285 C 0.26139 0.21128 0.21585
 C286 C 0.23879 0.28798 0.28297
 O287 O 0.75521 0.79318 0.23800
 O288 O 0.77224 0.73581 0.28809
 O289 O 0.79227 0.75508 0.23816
 O290 O 0.73514 0.77388 0.28792
 O291 O 0.70746 0.74697 0.26205
 O292 O 0.76459 0.72817 0.21229
 O293 O 0.74456 0.70891 0.26222
 O294 O 0.72754 0.76627 0.21213
 Cu295 Cu 0.76651 0.76721 0.26566
 Cu296 Cu 0.73324 0.73487 0.23457
 C297 C 0.73861 0.78937 0.21652
 C298 C 0.76117 0.71271 0.28370
 C299 C 0.78804 0.73855 0.21675
 C300 C 0.71170 0.76348 0.28348
 O301 O 0.79287 0.24603 0.23686
 O302 O 0.73602 0.22799 0.28751
 O303 O 0.75563 0.20806 0.23766
 O304 O 0.77327 0.26595 0.28674
 O305 O 0.74548 0.29264 0.26076
 O306 O 0.72784 0.23474 0.21168
 O307 O 0.70823 0.25468 0.26153
 O308 O 0.76508 0.27271 0.21088
 Cu309 Cu 0.76725 0.23432 0.26481
 Cu310 Cu 0.73386 0.26639 0.23360
 C311 C 0.78853 0.26230 0.21523
 C312 C 0.71256 0.23839 0.28315
 C313 C 0.73887 0.21166 0.21630
 C314 C 0.76223 0.28903 0.28214
 O315 O 0.27212 0.76590 0.21240
 O316 O 0.25452 0.70803 0.26152
 O317 O 0.23493 0.72790 0.21161
 O318 O 0.29176 0.74599 0.26225
 O319 O 0.26396 0.77267 0.28821
 O320 O 0.20713 0.75458 0.23756
 O321 O 0.22671 0.73471 0.28747
 O322 O 0.24432 0.79259 0.23835
 Cu323 Cu 0.26614 0.73426 0.23433
 Cu324 Cu 0.23273 0.76633 0.26552
 C325 C 0.26108 0.78897 0.21698
 C326 C 0.23776 0.71164 0.28289
 C327 C 0.21147 0.73830 0.21594
 C328 C 0.28742 0.76228 0.28387
 O329 O 0.70759 0.25281 0.73789
 O330 O 0.76471 0.27155 0.78770
 O331 O 0.74462 0.29095 0.73786
 O332 O 0.72766 0.23341 0.78776
 O333 O 0.75536 0.20662 0.76180
 O334 O 0.77232 0.26416 0.71189
 O335 O 0.79241 0.24476 0.76174
 O336 O 0.73529 0.22602 0.71192
 Cu337 Cu 0.73335 0.26488 0.76542
 Cu338 Cu 0.76664 0.23268 0.73422
 C339 C 0.71184 0.23637 0.71640
 C340 C 0.78817 0.26121 0.78321
 C341 C 0.76123 0.28723 0.71636
 C342 C 0.73876 0.21034 0.78330
 O343 O 0.29239 0.74667 0.73861
 O344 O 0.23528 0.72787 0.78841
 O345 O 0.25537 0.70851 0.73854
 O346 O 0.27230 0.76604 0.78847
 O347 O 0.24459 0.79283 0.76252
 O348 O 0.22766 0.73530 0.71258
 O349 O 0.20757 0.75465 0.76246
 O350 O 0.26469 0.77345 0.71265
 Cu351 Cu 0.26664 0.73457 0.76613
 Cu352 Cu 0.23333 0.76676 0.73493
 C353 C 0.28815 0.76312 0.71713
 C354 C 0.21182 0.73820 0.78393
 C355 C 0.23876 0.71223 0.71705
 C356 C 0.26120 0.78911 0.78401
 O357 O 0.25464 0.29169 0.73865
 O358 O 0.27225 0.23384 0.78778
 O359 O 0.29183 0.25372 0.73787
 O360 O 0.23503 0.27180 0.78854
 O361 O 0.20720 0.24511 0.76260
 O362 O 0.26400 0.22703 0.71193
 O363 O 0.24442 0.20714 0.76185
 O364 O 0.22681 0.26500 0.71271
 Cu365 Cu 0.26624 0.26545 0.76583
 Cu366 Cu 0.23280 0.23338 0.73466
 C367 C 0.23788 0.28807 0.71728
 C368 C 0.26119 0.21077 0.78321
 C369 C 0.28747 0.23744 0.71625
 C370 C 0.21156 0.26139 0.78422
 O371 O 0.74534 0.70777 0.73934
 O372 O 0.72778 0.76563 0.78849
 O373 O 0.70818 0.74577 0.73858
 O374 O 0.76497 0.72763 0.78924
 O375 O 0.79281 0.75431 0.76331
 O376 O 0.73602 0.77246 0.71265
 O377 O 0.75562 0.79231 0.76256
 O378 O 0.77318 0.73445 0.71341
 Cu379 Cu 0.73376 0.73401 0.76653
 Cu380 Cu 0.76722 0.76607 0.73537
 C381 C 0.76210 0.71138 0.71797
 C382 C 0.73885 0.78870 0.78392
 C383 C 0.71254 0.76206 0.71697
 C384 C 0.78844 0.73803 0.78492
 C385 C 0.28355 0.10867 0.11680
 N386 N 0.27201 0.10329 0.14383
 N387 N 0.26861 0.12319 0.16388
 C388 C 0.27663 0.14907 0.15750
 N389 N 0.28821 0.15444 0.13048
 N390 N 0.29161 0.13454 0.11044
 C391 C 0.28604 0.08755 0.09466
 C392 C 0.28760 0.07006 0.07569
 C393 C 0.27184 0.17076 0.17850
 C394 C 0.26733 0.18917 0.19577
 C395 C 0.78446 0.60831 0.61966
 N396 N 0.77080 0.60352 0.64561
 N397 N 0.76742 0.62345 0.66563
 C398 C 0.77760 0.64876 0.66029
 N399 N 0.79131 0.65353 0.63437
 N400 N 0.79469 0.63360 0.61435
 C401 C 0.78686 0.58728 0.59741
 C402 C 0.78832 0.56991 0.57832
 C403 C 0.77277 0.67058 0.68111
 C404 C 0.76818 0.68911 0.69818
 C405 C 0.71644 0.89181 0.11726
 N406 N 0.72839 0.89716 0.14409
 N407 N 0.73181 0.87731 0.16419
 C408 C 0.72338 0.85150 0.15807
 N409 N 0.71139 0.84617 0.13127
 N410 N 0.70798 0.86602 0.11116
 C411 C 0.71395 0.91285 0.09504
 C412 C 0.71238 0.93028 0.07600
 C413 C 0.72818 0.82985 0.17912
 C414 C 0.73269 0.81147 0.19641
 C415 C 0.21554 0.39130 0.61915
 N416 N 0.20568 0.36591 0.61356
 N417 N 0.20904 0.34594 0.63351
 C418 C 0.22239 0.35074 0.65966
 N419 N 0.23221 0.37615 0.66528
 N420 N 0.22884 0.39613 0.64532
 C421 C 0.21315 0.41240 0.59700
 C422 C 0.21168 0.42984 0.57798
 C423 C 0.22721 0.32890 0.68044
 C424 C 0.23179 0.31035 0.69749
 C425 C 0.89082 0.28667 0.11592
 N426 N 0.89651 0.27573 0.14316
 N427 N 0.87659 0.27181 0.16316
 C428 C 0.85038 0.27870 0.15651
 N429 N 0.84470 0.28967 0.12928
 N430 N 0.86461 0.29360 0.10929
 C431 C 0.91206 0.28991 0.09395
 C432 C 0.92978 0.29215 0.07526
 C433 C 0.82876 0.27347 0.17756
 C434 C 0.81046 0.26862 0.19494
 C435 C 0.39067 0.78802 0.61855
 N436 N 0.39609 0.77575 0.64517
 N437 N 0.37616 0.77183 0.66513
 C438 C 0.35023 0.78005 0.65907
 N439 N 0.34482 0.79235 0.63247
 N440 N 0.36474 0.79628 0.61251
 C441 C 0.41183 0.79116 0.59654
 C442 C 0.42944 0.79331 0.57775
 C443 C 0.32854 0.77471 0.67995
 C444 C 0.31017 0.76970 0.69714
 C445 C 0.10918 0.71373 0.11670
 N446 N 0.13541 0.70694 0.11002
 N447 N 0.15532 0.71092 0.12999
 C448 C 0.14963 0.72181 0.15725
 N449 N 0.12340 0.72857 0.16396
 N450 N 0.10348 0.72459 0.14398
 C451 C 0.08793 0.71045 0.09476
 C452 C 0.07020 0.70817 0.07607
 C453 C 0.17126 0.72708 0.17829
 C454 C 0.18955 0.73195 0.19566
 C455 C 0.60932 0.21161 0.61779
 N456 N 0.63526 0.20346 0.61167
 N457 N 0.65519 0.20735 0.63164
 C458 C 0.64977 0.21951 0.65831
 N459 N 0.62381 0.22762 0.66445
 N460 N 0.60388 0.22373 0.64448
 C461 C 0.58816 0.20854 0.59576
 C462 C 0.57055 0.20647 0.57697
 C463 C 0.67145 0.22483 0.67919
 C464 C 0.68982 0.22982 0.69639
 C465 C 0.71659 0.10752 0.88212
 N466 N 0.72907 0.10239 0.85553
 N467 N 0.73249 0.12232 0.83551
 C468 C 0.72355 0.14798 0.84148
 N469 N 0.71103 0.15309 0.86805
 N470 N 0.70761 0.13316 0.88806
 C471 C 0.71408 0.08641 0.90427
 C472 C 0.71251 0.06895 0.92327
 C473 C 0.72834 0.16973 0.82054
 C474 C 0.73284 0.18818 0.80333
 C475 C 0.21543 0.60853 0.38116
 N476 N 0.20575 0.63397 0.38681
 N477 N 0.20910 0.65392 0.36681
 C478 C 0.22224 0.64902 0.34056
 N479 N 0.23187 0.62356 0.33488
 N480 N 0.22852 0.60361 0.35488
 C481 C 0.21304 0.58745 0.40334
 C482 C 0.21159 0.57003 0.42237
 C483 C 0.22707 0.67084 0.31974
 C484 C 0.23166 0.68937 0.30267
 C485 C 0.28342 0.89210 0.88261
 N486 N 0.29185 0.86634 0.88890
 N487 N 0.28843 0.84637 0.86895
 C488 C 0.27645 0.85154 0.84210
 N489 N 0.26806 0.87731 0.83578
 N490 N 0.27149 0.89729 0.85573
 C491 C 0.28591 0.91328 0.90468
 C492 C 0.28747 0.93081 0.92360
 C493 C 0.27164 0.82976 0.82120
 C494 C 0.26713 0.81129 0.80402
 C495 C 0.78459 0.39199 0.38061
 N496 N 0.77104 0.39684 0.35460
 N497 N 0.76769 0.37695 0.33452
 C498 C 0.77779 0.35161 0.33986
 N499 N 0.79140 0.34678 0.36584
 N500 N 0.79475 0.36667 0.38591
 C501 C 0.78695 0.41297 0.40290
 C502 C 0.78838 0.43032 0.42202
 C503 C 0.77295 0.32982 0.31901
 C504 C 0.76834 0.31130 0.30192
 C505 C 0.10927 0.28609 0.88341
 N506 N 0.10358 0.27514 0.85617
 N507 N 0.12350 0.27113 0.83622
 C508 C 0.14973 0.27793 0.84290
 N509 N 0.15542 0.28891 0.87013
 N510 N 0.13549 0.29292 0.89008
 C511 C 0.08801 0.28942 0.90533
 C512 C 0.07027 0.29173 0.92400
 C513 C 0.17136 0.27264 0.82187
 C514 C 0.18965 0.26775 0.80450
 C515 C 0.60925 0.78844 0.38209
 N516 N 0.60376 0.77633 0.35540
 N517 N 0.62367 0.77241 0.33541
 C518 C 0.64964 0.78049 0.34152
 N519 N 0.65511 0.79264 0.36819
 N520 N 0.63521 0.79656 0.38818
 C521 C 0.58812 0.79150 0.40416
 C522 C 0.57054 0.79355 0.42299
 C523 C 0.67131 0.77511 0.32064
 C524 C 0.68967 0.77007 0.30346
 C525 C 0.89073 0.71354 0.88417
 N526 N 0.86454 0.70659 0.89081
 N527 N 0.84461 0.71053 0.87084
 C528 C 0.85028 0.72155 0.84362
 N529 N 0.87649 0.72847 0.83697
 N530 N 0.89641 0.72453 0.85694
 C531 C 0.91199 0.71030 0.90612
 C532 C 0.92972 0.70805 0.92481
 C533 C 0.82865 0.72680 0.82258
 C534 C 0.81036 0.73167 0.80521
 C535 C 0.39073 0.21210 0.38136
 N536 N 0.36477 0.20396 0.38740
 N537 N 0.34487 0.20793 0.36743
 C538 C 0.35035 0.22017 0.34081
 N539 N 0.37632 0.22827 0.33473
 N540 N 0.39622 0.22429 0.35471
 C541 C 0.41186 0.20894 0.40340
 C542 C 0.42945 0.20681 0.42221
 C543 C 0.32869 0.22558 0.31992
 C544 C 0.31033 0.23063 0.30275
 C545 C 0.71615 0.89189 0.88201
 N546 N 0.70639 0.86646 0.88760
 N547 N 0.70984 0.84649 0.86765
 C548 C 0.72317 0.85135 0.84151
 N549 N 0.73289 0.87680 0.83588
 N550 N 0.72943 0.89677 0.85584
 C551 C 0.71370 0.91298 0.90417
 C552 C 0.71220 0.93041 0.92320
 C553 C 0.72809 0.82952 0.82073
 C554 C 0.73273 0.81098 0.80369
 C555 C 0.21628 0.39066 0.38183
 N556 N 0.22810 0.39597 0.35493
 N557 N 0.23159 0.37605 0.33492
 C558 C 0.22336 0.35021 0.34121
 N559 N 0.21150 0.34492 0.36809
 N560 N 0.20801 0.36484 0.38810
 C561 C 0.21370 0.41179 0.40393
 C562 C 0.21207 0.42931 0.42286
 C563 C 0.22823 0.32851 0.32025
 C564 C 0.23280 0.31009 0.30302
 C565 C 0.28383 0.10773 0.88153
 N566 N 0.27024 0.10288 0.85554
 N567 N 0.26679 0.12280 0.83552
 C568 C 0.27682 0.14817 0.84090
 N569 N 0.29045 0.15300 0.86686
 N570 N 0.29390 0.13309 0.88688
 C571 C 0.28630 0.08672 0.90377
 C572 C 0.28780 0.06935 0.92288
 C573 C 0.27192 0.16997 0.82007
 C574 C 0.26730 0.18849 0.80300
 C575 C 0.78366 0.60984 0.38235
 N576 N 0.79148 0.63574 0.38891
 N577 N 0.78798 0.65572 0.36898
 C578 C 0.77655 0.65041 0.34188
 N579 N 0.76877 0.62449 0.33529
 N580 N 0.77227 0.60451 0.35522
 C581 C 0.78626 0.58862 0.40435
 C582 C 0.78790 0.57104 0.42319
 C583 C 0.77169 0.67215 0.32097
 C584 C 0.76714 0.69059 0.30375
 C585 C 0.10927 0.71302 0.88237
 N586 N 0.13518 0.70471 0.88838
 N587 N 0.15512 0.70870 0.86844
 C588 C 0.14973 0.72111 0.84190
 N589 N 0.12380 0.72937 0.83586
 N590 N 0.10386 0.72538 0.85580
 C591 C 0.08811 0.70984 0.90437
 C592 C 0.07049 0.70770 0.92316
 C593 C 0.17142 0.72652 0.82105
 C594 C 0.18979 0.73158 0.80389
 C595 C 0.61029 0.21340 0.38228
 N596 N 0.63653 0.20666 0.38895
 N597 N 0.65644 0.21075 0.36900
 C598 C 0.65072 0.22171 0.34177
 N599 N 0.62447 0.22841 0.33508
 N600 N 0.60455 0.22432 0.35503
 C601 C 0.58903 0.20997 0.40419
 C602 C 0.57131 0.20756 0.42284
 C603 C 0.67233 0.22707 0.32075
 C604 C 0.69063 0.23201 0.30340
 C605 C 0.89072 0.28663 0.88158
 N606 N 0.89616 0.27431 0.85499
 N607 N 0.87622 0.27025 0.83508
 C608 C 0.85026 0.27839 0.84115
 N609 N 0.84484 0.29075 0.86772
 N610 N 0.86478 0.29481 0.88763
 C611 C 0.91189 0.28987 0.90356
 C612 C 0.92950 0.29208 0.92234
 C613 C 0.82857 0.27292 0.82032
 C614 C 0.81020 0.26783 0.80317
 C615 C 0.38972 0.78716 0.38301
 N616 N 0.39544 0.77632 0.35573
 N617 N 0.37552 0.77228 0.33577
 C618 C 0.34927 0.77895 0.34249
 N619 N 0.34356 0.78984 0.36976
 N620 N 0.36348 0.79388 0.38972
 C621 C 0.41097 0.79049 0.40495
 C622 C 0.42869 0.79281 0.42362
 C623 C 0.32765 0.77360 0.32147
 C624 C 0.30935 0.76867 0.30413
 C625 C 0.28383 0.89209 0.11880
 N626 N 0.27020 0.89690 0.14478
 N627 N 0.26673 0.87696 0.16477
 C628 C 0.27677 0.85161 0.15938
 N629 N 0.29044 0.84681 0.13343
 N630 N 0.29391 0.86675 0.11344
 C631 C 0.28631 0.91312 0.09659
 C632 C 0.28782 0.93052 0.07753
 C633 C 0.27185 0.82979 0.18017
 C634 C 0.26720 0.81126 0.19721
 C635 C 0.78361 0.39033 0.61795
 N636 N 0.79179 0.36453 0.61149
 N637 N 0.78830 0.34451 0.63137
 C638 C 0.77652 0.34969 0.65832
 N639 N 0.76838 0.37551 0.66481
 N640 N 0.77187 0.39553 0.64492
 C641 C 0.78620 0.41158 0.59597
 C642 C 0.78785 0.42919 0.57715
 C643 C 0.77168 0.32789 0.67918
 C644 C 0.76716 0.30941 0.69636
 C645 C 0.71619 0.10839 0.11831
 N646 N 0.72939 0.10352 0.14453
 N647 N 0.73284 0.12351 0.16447
 C648 C 0.72318 0.14896 0.15879
 N649 N 0.70993 0.15381 0.13260
 N650 N 0.70649 0.13382 0.11266
 C651 C 0.71371 0.08728 0.09618
 C652 C 0.71219 0.06982 0.07719
 C653 C 0.72808 0.17080 0.17955
 C654 C 0.73273 0.18936 0.19656
 C655 C 0.21637 0.60925 0.61847
 N656 N 0.22865 0.60412 0.64517
 N657 N 0.23215 0.62409 0.66512
 C658 C 0.22347 0.64981 0.65897
 N659 N 0.21115 0.65493 0.63229
 N660 N 0.20766 0.63495 0.61235
 C661 C 0.21377 0.58808 0.59641
 C662 C 0.21212 0.57055 0.57750
 C663 C 0.22831 0.67158 0.67985
 C664 C 0.23284 0.69005 0.69704
 C665 C 0.89065 0.71318 0.11847
 N666 N 0.86470 0.70501 0.11237
 N667 N 0.84475 0.70903 0.13228
 C668 C 0.85016 0.72134 0.15888
 N669 N 0.87612 0.72946 0.16500
 N670 N 0.89607 0.72544 0.14509
 C671 C 0.91182 0.70998 0.09649
 C672 C 0.92944 0.70780 0.07772
 C673 C 0.82846 0.72680 0.17969
 C674 C 0.81008 0.73190 0.19682
 C675 C 0.38967 0.21288 0.61693
 N676 N 0.36343 0.20615 0.61023
 N677 N 0.34353 0.21013 0.63020
 C678 C 0.34925 0.22098 0.65749
 N679 N 0.37550 0.22769 0.66420
 N680 N 0.39541 0.22370 0.64422
 C681 C 0.41093 0.20955 0.59500
 C682 C 0.42867 0.20721 0.57634
 C683 C 0.32764 0.22624 0.67855
 C684 C 0.30937 0.23111 0.69594
 C685 C 0.10934 0.28725 0.11769
 N686 N 0.10391 0.27503 0.14433
 N687 N 0.12385 0.27104 0.16426
 C688 C 0.14981 0.27916 0.15813
 N689 N 0.15522 0.29143 0.13152
 N690 N 0.13528 0.29542 0.11159
 C691 C 0.08817 0.29041 0.09570
 C692 C 0.07056 0.29253 0.07691
 C693 C 0.17151 0.27374 0.17896
 C694 C 0.18990 0.26868 0.19609
 C695 C 0.61033 0.78676 0.61768
 N696 N 0.60460 0.77587 0.64494
 N697 N 0.62451 0.77184 0.66491
 C698 C 0.65076 0.77858 0.65823
 N699 N 0.65648 0.78950 0.63098
 N700 N 0.63657 0.79353 0.61101
 C701 C 0.58907 0.79016 0.59576
 C702 C 0.57133 0.79257 0.57712
 C703 C 0.67236 0.77330 0.67929
 C704 C 0.69064 0.76842 0.69667
   
