data_POSCAR
  _audit_creation_date              2014-09-24
  _audit_creation_method            'ToBaCCo'
  _symmetry_space_group_name_H-M    'P1'
  _symmetry_Int_Tables_number       1
  _symmetry_cell_setting            triclinic
  loop_
  _symmetry_equiv_pos_as_xyz
 x,y,z
_cell_length_a 46.1699
_cell_length_b 45.7008
_cell_length_c 21.6437
_cell_angle_alpha 89.382400
_cell_angle_beta 89.408500
_cell_angle_gamma 122.504800
loop_
  _atom_site_label
  _atom_site_type_symbol
  _atom_site_fract_x
  _atom_site_fract_y
  _atom_site_fract_z
C1 C 0.18289 0.46425 0.49076
 C2 C 0.20089 0.47323 0.43364
 C3 C 0.23480 0.48099 0.43269
 C4 C 0.24957 0.47659 0.48590
 C5 C 0.23192 0.47023 0.54291
 C6 C 0.19899 0.46501 0.54625
 C7 C 0.28184 0.47610 0.48073
 C8 C 0.30279 0.48201 0.53223
 C9 C 0.33119 0.47843 0.52796
 C10 C 0.33999 0.47102 0.47059
 C11 C 0.32034 0.46622 0.41839
 C12 C 0.29094 0.46767 0.42423
 H13 H 0.15757 0.46032 0.49266
 H14 H 0.24882 0.48823 0.38919
 H15 H 0.24251 0.46708 0.58487
 H16 H 0.29701 0.48886 0.57619
 H17 H 0.36287 0.47007 0.46610
 H18 H 0.27502 0.46138 0.38414
 C19 C 0.56375 -0.28923 0.52510
 C20 C 0.54919 -0.28671 0.46976
 C21 C 0.53367 -0.26719 0.47051
 C22 C 0.53403 -0.24927 0.52336
 C23 C 0.55026 -0.25120 0.57645
 C24 C 0.56365 -0.27246 0.57942
 C25 C 0.51643 -0.22958 0.52424
 C26 C 0.50357 -0.22497 0.58025
 C27 C 0.48739 -0.20635 0.58210
 C28 C 0.48157 -0.19435 0.52663
 C29 C 0.49372 -0.19891 0.47019
 C30 C 0.51193 -0.21554 0.46951
 H31 H 0.57178 -0.30746 0.52774
 H32 H 0.52174 -0.26530 0.42949
 H33 H 0.55303 -0.23557 0.61575
 H34 H 0.50579 -0.23587 0.62318
 H35 H 0.46904 -0.17997 0.52759
 H36 H 0.52236 -0.21744 0.42588
 C37 C 1.23780 0.86984 0.52740
 C38 C 1.22775 0.86107 0.46586
 C39 C 1.19697 0.82854 0.45651
 C40 C 1.18140 0.80312 0.50473
 C41 C 1.19729 0.81114 0.56281
 C42 C 1.22540 0.84441 0.57390
 C43 C 1.15122 0.76722 0.49259
 C44 C 1.12908 0.74546 0.54138
 C45 C 1.10292 0.71025 0.53150
 C46 C 1.09587 0.69970 0.46964
 C47 C 1.11844 0.71988 0.42166
 C48 C 1.14628 0.75319 0.43314
 H49 H 1.25813 0.89574 0.53943
 H50 H 1.18603 0.82187 0.41133
 H51 H 1.18942 0.79134 0.59840
 H52 H 1.13396 0.75568 0.58724
 H53 H 1.07413 0.67452 0.45777
 H54 H 1.16479 0.76709 0.39606
 C55 C 0.90614 0.58651 0.47783
 C56 C 0.89655 0.59688 0.42503
 C57 C 0.86756 0.59948 0.42871
 C58 C 0.84657 0.58901 0.48306
 C59 C 0.85657 0.57747 0.53465
 C60 C 0.88638 0.57655 0.53218
 C61 C 0.81341 0.58800 0.48471
 C62 C 0.79781 0.58815 0.54139
 C63 C 0.76649 0.58668 0.54303
 C64 C 0.75137 0.58599 0.48647
 C65 C 0.76604 0.58561 0.42982
 C66 C 0.79654 0.58593 0.42938
 H67 H 0.92819 0.58408 0.47597
 H68 H 0.86139 0.60907 0.38841
 H69 H 0.84064 0.56751 0.57602
 H70 H 0.81061 0.59094 0.58444
 H71 H 0.72650 0.58309 0.48617
 H72 H 0.80666 0.58422 0.38535
 C73 C 0.46990 0.30447 0.51608
 C74 C 0.45638 0.28676 0.46143
 C75 C 0.43820 0.25057 0.46216
 C76 C 0.43495 0.23138 0.51663
 C77 C 0.44788 0.25003 0.57209
 C78 C 0.46549 0.28660 0.57227
 C79 C 0.41985 0.19269 0.51369
 C80 C 0.41126 0.17100 0.56727
 C81 C 0.40036 0.13551 0.56246
 C82 C 0.39265 0.12109 0.50317
 C83 C 0.40342 0.14217 0.45044
 C84 C 0.41742 0.17763 0.45587
 H85 H 0.48278 0.33248 0.51469
 H86 H 0.42651 0.23798 0.41946
 H87 H 0.44645 0.23688 0.61473
 H88 H 0.41541 0.18213 0.61225
 H89 H 0.38116 0.09354 0.49706
 H90 H 0.42799 0.19320 0.41416
 C91 C 0.65913 0.14701 0.50482
 C92 C 0.67632 0.16221 0.44871
 C93 C 0.70846 0.19350 0.44893
 C94 C 0.72318 0.21106 0.50463
 C95 C 0.70378 0.19640 0.55984
 C96 C 0.67276 0.16401 0.56048
 C97 C 0.75928 0.24277 0.50563
 C98 C 0.77798 0.25416 0.56115
 C99 C 0.81305 0.28090 0.56122
 C100 C 0.82982 0.29554 0.50419
 C101 C 0.81162 0.28589 0.44908
 C102 C 0.77643 0.26064 0.45034
 H103 H 0.63473 0.12233 0.50509
 H104 H 0.72187 0.20287 0.40506
 H105 H 0.71274 0.20916 0.60345
 H106 H 0.76645 0.24108 0.60460
 H107 H 0.85671 0.31626 0.50250
 H108 H 0.76314 0.25472 0.40714
 O109 O 0.98888 0.48127 -0.14022
 O110 O 1.05868 0.52230 0.10841
 O111 O 0.96840 0.50530 0.04452
 O112 O 1.06281 0.55130 -0.07402
 O113 O 0.99640 0.49671 0.11687
 O114 O 1.05076 0.51277 -0.14018
 O115 O 1.06682 0.55582 0.03358
 O116 O 0.97336 0.50558 -0.07366
 C117 C 0.97789 0.50057 -0.12825
 C118 C 1.06648 0.55142 0.08967
 C119 C 0.97872 0.50876 0.09883
 C120 C 1.05690 0.54220 -0.12824
 O121 O 1.04712 0.45821 -0.07910
 O122 O 0.98569 0.43475 0.09441
 O123 O 0.94685 0.43743 -0.06718
 O124 O 1.09130 0.51197 0.03844
 O125 O 1.04836 0.46236 0.06910
 O126 O 0.98539 0.42613 -0.08693
 O127 O 1.08928 0.51018 -0.07432
 O128 O 0.94672 0.43990 0.04876
 Co129 Co 1.01843 0.47129 -0.10335
 Co130 Co 1.02223 0.47988 0.08677
 Co131 Co 0.96482 0.47376 -0.01242
 Co132 Co 1.07281 0.52844 -0.01839
 O133 O 1.01898 0.48810 -0.01147
 C134 C 1.07807 0.47940 -0.08835
 C135 C 0.95495 0.42436 0.08620
 C136 C 0.95490 0.41718 -0.08847
 C137 C 1.07992 0.48303 0.06569
 O138 O 0.53941 0.48153 -0.11671
 O139 O 0.48872 0.50351 0.10153
 O140 O 0.55177 0.46536 0.07430
 O141 O 0.49534 0.53909 -0.08415
 O142 O 0.50847 0.46727 0.09474
 O143 O 0.49949 0.49807 -0.11380
 O144 O 0.46984 0.50558 0.01225
 O145 O 0.53188 0.45157 -0.03404
 C146 C 0.52947 0.45281 -0.09099
 C147 C 0.46392 0.49446 0.06647
 C148 C 0.52363 0.45236 0.10202
 C149 C 0.48446 0.51348 -0.11738
 O150 O 0.55384 0.56744 -0.10939
 O151 O 0.57522 0.52203 0.11563
 O152 O 0.59362 0.50587 -0.07145
 O153 O 0.51487 0.56180 0.07304
 O154 O 0.55648 0.56047 0.10634
 O155 O 0.59155 0.54919 -0.09672
 O156 O 0.54924 0.58688 -0.02232
 O157 O 0.60457 0.52657 0.03421
 Co158 Co 0.54533 0.52353 -0.09974
 Co159 Co 0.53292 0.51385 0.09523
 Co160 Co 0.56688 0.49062 0.00047
 Co161 Co 0.51088 0.54498 -0.00496
 O162 O 0.53908 0.51825 -0.00219
 C163 C 0.56077 0.59268 -0.07616
 C164 C 0.60370 0.53270 0.08957
 C165 C 0.60681 0.53404 -0.10036
 C166 C 0.53950 0.57391 0.10832
 O167 O 0.52043 0.00542 -0.06574
 O168 O 0.48310 -0.05653 0.09893
 O169 O 0.51476 0.04831 0.06871
 O170 O 0.43207 -0.09783 -0.02870
 O171 O 0.51980 0.00542 0.08603
 O172 O 0.48086 -0.06069 -0.07666
 O173 O 0.43013 -0.09419 0.08724
 O174 O 0.51489 0.04803 -0.04381
 C175 C 0.53256 0.03715 -0.06658
 C176 C 0.45879 -0.08674 0.10609
 C177 C 0.53252 0.03707 0.08835
 C178 C 0.45723 -0.09121 -0.06348
 O179 O 0.43131 -0.05260 -0.11080
 O180 O 0.47090 0.01276 0.13996
 O181 O 0.44736 0.02541 -0.04200
 O182 O 0.39406 -0.06469 0.07618
 O183 O 0.43230 -0.04920 0.14674
 O184 O 0.46977 0.01081 -0.11225
 O185 O 0.39073 -0.07542 -0.03924
 O186 O 0.44557 0.02216 0.06844
 Co187 Co 0.47470 -0.02374 -0.08085
 Co188 Co 0.47525 -0.02200 0.10965
 Co189 Co 0.47918 0.03105 0.01343
 Co190 Co 0.41653 -0.07718 0.02386
 O191 O 0.46102 -0.02321 0.01611
 C192 C 0.39994 -0.06905 -0.09485
 C193 C 0.45168 0.02268 0.12381
 C194 C 0.45097 0.02171 -0.09748
 C195 C 0.40258 -0.05759 0.13096
 C196 C 1.15328 0.47293 0.26721
 C197 C 1.13428 0.44748 0.31314
 C198 C 1.14995 0.44843 0.36885
 C199 C 1.18503 0.47361 0.37815
 C200 C 1.20391 0.49845 0.33037
 C201 C 1.18790 0.49873 0.27564
 C202 C 1.13624 0.47311 0.20996
 C203 C 1.15423 0.50026 0.16621
 C204 C 1.13666 0.50223 0.11502
 C205 C 1.10156 0.47685 0.10733
 C206 C 1.08498 0.44831 0.14920
 C207 C 1.10175 0.44694 0.20149
 C208 C 1.20558 0.52470 0.22967
 C209 C 1.18893 0.52570 0.17633
 C210 C 1.09988 0.42150 0.30251
 C211 C 1.08400 0.42102 0.24733
 H212 H 1.23232 0.54489 0.23564
 H213 H 1.20325 0.54676 0.14305
 H214 H 1.08503 0.40150 0.33731
 H215 H 1.05728 0.40077 0.24133
 H216 H 1.13512 0.42844 0.40372
 H217 H 1.23057 0.51872 0.33688
 H218 H 1.14968 0.52435 0.08343
 H219 H 1.05799 0.42855 0.14419
 C220 C 0.54848 0.65896 0.31069
 C221 C 0.57420 0.66915 0.35445
 C222 C 0.57459 0.68751 0.40631
 C223 C 0.54912 0.69548 0.41583
 C224 C 0.52355 0.68489 0.37039
 C225 C 0.52321 0.66682 0.31807
 C226 C 0.54761 0.63907 0.25663
 C227 C 0.52151 0.62838 0.21336
 C228 C 0.52007 0.60846 0.16328
 C229 C 0.54417 0.59867 0.15680
 C230 C 0.57057 0.61019 0.20005
 C231 C 0.57239 0.63039 0.25011
 C232 C 0.49763 0.65590 0.27344
 C233 C 0.49683 0.63707 0.22194
 C234 C 0.59896 0.66055 0.34575
 C235 C 0.59799 0.64140 0.29463
 H236 H 0.47792 0.66177 0.27852
 H237 H 0.47649 0.62891 0.18895
 H238 H 0.61903 0.66830 0.37917
 H239 H 0.61724 0.63490 0.29029
 H240 H 0.59554 0.69633 0.43807
 H241 H 0.50265 0.68889 0.37644
 H242 H 0.49949 0.59958 0.13054
 H243 H 0.58905 0.60268 0.19578
 C244 C 0.30073 -0.08947 0.31905
 C245 C 0.26581 -0.11052 0.30501
 C246 C 0.24108 -0.12438 0.35330
 C247 C 0.25101 -0.11854 0.41609
 C248 C 0.28657 -0.09498 0.42777
 C249 C 0.31120 -0.08087 0.38004
 C250 C 0.32700 -0.07816 0.26951
 C251 C 0.36196 -0.05910 0.28455
 C252 C 0.38672 -0.05138 0.23852
 C253 C 0.37672 -0.06266 0.17782
 C254 C 0.34165 -0.08024 0.16279
 C255 C 0.31663 -0.08843 0.20871
 C256 C 0.34643 -0.06015 0.39289
 C257 C 0.37140 -0.04944 0.34590
 C258 C 0.25642 -0.11882 0.24302
 C259 C 0.28140 -0.10797 0.19569
 H260 H 0.35482 -0.05314 0.44000
 H261 H 0.39827 -0.03444 0.35801
 H262 H 0.22956 -0.13482 0.23123
 H263 H 0.27305 -0.11584 0.14882
 H264 H 0.21440 -0.14046 0.34101
 H265 H 0.29656 -0.08976 0.47388
 H266 H 0.41366 -0.03740 0.25023
 H267 H 0.33369 -0.08886 0.11604
 C268 C 0.93874 0.57744 0.26828
 C269 C 0.90543 0.57102 0.26499
 C270 C 0.89286 0.58157 0.31344
 C271 C 0.91339 0.59833 0.36492
 C272 C 0.94821 0.60842 0.36326
 C273 C 0.96055 0.59671 0.31650
 C274 C 0.94998 0.56140 0.22314
 C275 C 0.98175 0.56455 0.23044
 C276 C 0.99087 0.54656 0.19070
 C277 C 0.96919 0.52703 0.14224
 C278 C 0.93794 0.52508 0.13453
 C279 C 0.92784 0.54153 0.17569
 C280 C 0.99315 0.60129 0.31987
 C281 C 1.00338 0.58507 0.27806
 C282 C 0.88439 0.55176 0.21582
 C283 C 0.89558 0.53759 0.17149
 H284 H 1.01027 0.61620 0.35681
 H285 H 1.02813 0.58810 0.28377
 H286 H 0.85873 0.54681 0.21249
 H287 H 0.87833 0.52238 0.13492
 H288 H 0.86611 0.57359 0.31381
 H289 H 0.96464 0.62231 0.40163
 H290 H 1.01474 0.54786 0.19723
 H291 H 0.92094 0.50974 0.09772
 C292 C 0.47913 0.35114 0.30043
 C293 C 0.49084 0.32846 0.30298
 C294 C 0.48173 0.30588 0.35445
 C295 C 0.46188 0.30675 0.40348
 C296 C 0.45008 0.32935 0.39976
 C297 C 0.45848 0.35149 0.34824
 C298 C 0.48959 0.37582 0.24772
 C299 C 0.47809 0.39863 0.24588
 C300 C 0.48850 0.42245 0.19666
 C301 C 0.51118 0.42456 0.15007
 C302 C 0.52273 0.40162 0.15257
 C303 C 0.51167 0.37687 0.20124
 C304 C 0.44745 0.37469 0.34446
 C305 C 0.45708 0.39785 0.29413
 C306 C 0.51225 0.32966 0.25495
 C307 C 0.52261 0.35353 0.20517
 H308 H 0.43158 0.37525 0.38108
 H309 H 0.44857 0.41579 0.29364
 H310 H 0.52154 0.31237 0.25632
 H311 H 0.53954 0.35390 0.16970
 H312 H 0.49123 0.28880 0.35780
 H313 H 0.43497 0.33012 0.43767
 H314 H 0.47986 0.44028 0.19599
 H315 H 0.54027 0.40314 0.11711
 C316 C 0.62626 0.11296 0.28102
 C317 C 0.63367 0.09477 0.32418
 C318 C 0.65056 0.11115 0.37872
 C319 C 0.66047 0.14560 0.38957
 C320 C 0.65383 0.16384 0.34498
 C321 C 0.63621 0.14744 0.29100
 C322 C 0.60634 0.09503 0.22574
 C323 C 0.59674 0.11236 0.18493
 C324 C 0.57485 0.09408 0.13597
 C325 C 0.56254 0.05869 0.12792
 C326 C 0.57441 0.04250 0.16689
 C327 C 0.59567 0.06030 0.21665
 C328 C 0.62734 0.16439 0.24776
 C329 C 0.60776 0.14709 0.19589
 C330 C 0.62329 0.06030 0.31258
 C331 C 0.60477 0.04342 0.25959
 H332 H 0.63487 0.19099 0.25491
 H333 H 0.60062 0.16081 0.16473
 H334 H 0.62903 0.04605 0.34526
 H335 H 0.59665 0.01659 0.25310
 H336 H 0.65577 0.09715 0.41297
 H337 H 0.66122 0.19030 0.35360
 H338 H 0.56581 0.10677 0.10651
 H339 H 0.56500 0.01525 0.16154
 C340 C 0.41148 0.08046 -0.28954
 C341 C 0.41225 0.07127 -0.35064
 C342 C 0.40740 0.08884 -0.39846
 C343 C 0.40154 0.11585 -0.38683
 C344 C 0.40014 0.12407 -0.32428
 C345 C 0.40523 0.10655 -0.27572
 C346 C 0.41885 0.06339 -0.23935
 C347 C 0.41927 0.07329 -0.17808
 C348 C 0.42821 0.05832 -0.13095
 C349 C 0.43734 0.03421 -0.14531
 C350 C 0.43581 0.02392 -0.20677
 C351 C 0.42666 0.03845 -0.25394
 C352 C 0.40499 0.11513 -0.21356
 C353 C 0.41187 0.09878 -0.16562
 C354 C 0.41924 0.04552 -0.36330
 C355 C 0.42629 0.02935 -0.31573
 H356 H 0.40004 0.13507 -0.20193
 H357 H 0.41201 0.10662 -0.11851
 H358 H 0.41981 0.03818 -0.41052
 H359 H 0.43213 0.01006 -0.32754
 H360 H 0.41100 0.08275 -0.44491
 H361 H 0.39488 0.14375 -0.31269
 H362 H 0.42948 0.06650 -0.08370
 H363 H 0.44256 0.00522 -0.21806
 C364 C 0.70755 0.57266 -0.29547
 C365 C 0.72818 0.55869 -0.29686
 C366 C 0.74975 0.56540 -0.34877
 C367 C 0.74940 0.58451 -0.40050
 C368 C 0.72921 0.59922 -0.39650
 C369 C 0.70842 0.59343 -0.34453
 C370 C 0.68360 0.56439 -0.24272
 C371 C 0.66285 0.57821 -0.24216
 C372 C 0.63923 0.56935 -0.19357
 C373 C 0.63526 0.54597 -0.14627
 C374 C 0.65641 0.53238 -0.14710
 C375 C 0.68093 0.54182 -0.19520
 C376 C 0.68760 0.60718 -0.34170
 C377 C 0.66525 0.59974 -0.29132
 C378 C 0.72563 0.53707 -0.24747
 C379 C 0.70228 0.52860 -0.19780
 H380 H 0.68812 0.62332 -0.37928
 H381 H 0.64909 0.61023 -0.29162
 H382 H 0.74128 0.52597 -0.24783
 H383 H 0.70069 0.51128 -0.16147
 H384 H 0.76454 0.55336 -0.35063
 H385 H 0.72966 0.61541 -0.43394
 H386 H 0.62273 0.57946 -0.19429
 H387 H 0.65343 0.51422 -0.11112
 C388 C 0.86889 0.32519 -0.27613
 C389 C 0.83408 0.31409 -0.27757
 C390 C 0.81494 0.29713 -0.33010
 C391 C 0.83101 0.29335 -0.38280
 C392 C 0.86601 0.30435 -0.37963
 C393 C 0.88481 0.31968 -0.32626
 C394 C 0.88958 0.34456 -0.22247
 C395 C 0.92441 0.35569 -0.22142
 C396 C 0.94462 0.37625 -0.17285
 C397 C 0.93090 0.38770 -0.12755
 C398 C 0.89557 0.37525 -0.12790
 C399 C 0.87467 0.35330 -0.17509
 C400 C 0.91955 0.33052 -0.32276
 C401 C 0.93893 0.34790 -0.27091
 C402 C 0.81954 0.32166 -0.22765
 C403 C 0.83958 0.34128 -0.17769
 H404 H 0.93204 0.32607 -0.36088
 H405 H 0.96583 0.35643 -0.27060
 H406 H 0.79271 0.31333 -0.22816
 H407 H 0.82762 0.34758 -0.14133
 H408 H 0.78833 0.28956 -0.33167
 H409 H 0.87863 0.30057 -0.41843
 H410 H 0.97175 0.38565 -0.17335
 H411 H 0.88477 0.38390 -0.09330
 C412 C 0.46810 -0.17189 -0.24813
 C413 C 0.44170 -0.18817 -0.29129
 C414 C 0.44759 -0.20046 -0.34624
 C415 C 0.47948 -0.19679 -0.35763
 C416 C 0.50518 -0.18151 -0.31280
 C417 C 0.49984 -0.16853 -0.25844
 C418 C 0.46321 -0.15615 -0.19301
 C419 C 0.49078 -0.13706 -0.15301
 C420 C 0.48754 -0.11837 -0.10538
 C421 C 0.45691 -0.11906 -0.09739
 C422 C 0.42867 -0.14030 -0.13495
 C423 C 0.43197 -0.15825 -0.18395
 C424 C 0.52614 -0.15089 -0.21553
 C425 C 0.52178 -0.13519 -0.16395
 C426 C 0.41043 -0.19067 -0.27959
 C427 C 0.40560 -0.17609 -0.22671
 H428 H 0.55071 -0.14820 -0.22296
 H429 H 0.54316 -0.12070 -0.13328
 H430 H 0.38979 -0.20331 -0.31229
 H431 H 0.38143 -0.17777 -0.22037
 H432 H 0.42772 -0.21228 -0.38056
 H433 H 0.52996 -0.17814 -0.32178
 H434 H 0.50946 -0.10148 -0.07720
 H435 H 0.40544 -0.13996 -0.13003
 C436 C 0.39206 0.48990 -0.31457
 C437 C 0.38109 0.51295 -0.32343
 C438 C 0.36087 0.50895 -0.37455
 C439 C 0.35173 0.48218 -0.41676
 C440 C 0.36266 0.45906 -0.40658
 C441 C 0.38292 0.46287 -0.35572
 C442 C 0.41412 0.49458 -0.26187
 C443 C 0.42577 0.47203 -0.25383
 C444 C 0.44789 0.47748 -0.20508
 C445 C 0.45839 0.50532 -0.16476
 C446 C 0.44572 0.52712 -0.17270
 C447 C 0.42378 0.52201 -0.22139
 C448 C 0.39455 0.44044 -0.34557
 C449 C 0.41564 0.44497 -0.29555
 C450 C 0.39098 0.53984 -0.28144
 C451 C 0.41194 0.54428 -0.23127
 H452 H 0.38757 0.41941 -0.37693
 H453 H 0.42436 0.42734 -0.28985
 H454 H 0.38269 0.55779 -0.28767
 H455 H 0.41925 0.56556 -0.20034
 H456 H 0.35294 0.52710 -0.38227
 H457 H 0.35535 0.43806 -0.43824
 H458 H 0.45756 0.46063 -0.19944
 H459 H 0.45373 0.54869 -0.14208
 C460 C 1.06986 0.63614 -0.32139
 C461 C 1.06465 0.62504 -0.38247
 C462 C 1.07341 0.64925 -0.43050
 C463 C 1.08777 0.68508 -0.41886
 C464 C 1.09014 0.69486 -0.35614
 C465 C 1.08193 0.67073 -0.30761
 C466 C 1.06438 0.61147 -0.27121
 C467 C 1.07120 0.62295 -0.21013
 C468 C 1.06817 0.60000 -0.16316
 C469 C 1.05894 0.56601 -0.17730
 C470 C 1.05136 0.55472 -0.23859
 C471 C 1.05399 0.57731 -0.28568
 C472 C 1.08702 0.68087 -0.24552
 C473 C 1.08178 0.65740 -0.19763
 C474 C 1.05268 0.59019 -0.39488
 C475 C 1.04737 0.56671 -0.34725
 H476 H 1.09608 0.70744 -0.23398
 H477 H 1.08683 0.66653 -0.15060
 H478 H 1.04825 0.58121 -0.44201
 H479 H 1.03887 0.54029 -0.35889
 H480 H 1.07166 0.63976 -0.47659
 H481 H 1.09895 0.72120 -0.34403
 H482 H 1.07370 0.60881 -0.11596
 H483 H 1.04380 0.52850 -0.24976
 C484 C 0.92432 0.54385 -0.32153
 C485 C 0.91343 0.56658 -0.30844
 C486 C 0.89940 0.57614 -0.35581
 C487 C 0.89649 0.56312 -0.41553
 C488 C 0.90639 0.53940 -0.42707
 C489 C 0.92073 0.53003 -0.38054
 C490 C 0.93982 0.53434 -0.27259
 C491 C 0.95069 0.51166 -0.28595
 C492 C 0.96438 0.50178 -0.23888
 C493 C 0.96686 0.51409 -0.17867
 C494 C 0.95667 0.53752 -0.16631
 C495 C 0.94303 0.54770 -0.21324
 C496 C 0.93212 0.50763 -0.39229
 C497 C 0.94696 0.49864 -0.34573
 C498 C 0.91745 0.57976 -0.24866
 C499 C 0.93192 0.57039 -0.20176
 H500 H 0.92961 0.49701 -0.43786
 H501 H 0.95532 0.48117 -0.35649
 H502 H 0.90928 0.59739 -0.23800
 H503 H 0.93431 0.58090 -0.15613
 H504 H 0.89198 0.59457 -0.34698
 H505 H 0.90368 0.52891 -0.47287
 H506 H 0.97216 0.48374 -0.24878
 H507 H 0.95868 0.54724 -0.12006
 C508 C 0.49943 0.34983 -0.27116
 C509 C 0.46967 0.31644 -0.26569
 C510 C 0.45973 0.29399 -0.31623
 C511 C 0.47849 0.30568 -0.37291
 C512 C 0.50937 0.33864 -0.37552
 C513 C 0.51981 0.36073 -0.32530
 C514 C 0.50852 0.37461 -0.22072
 C515 C 0.53758 0.40831 -0.22800
 C516 C 0.54462 0.43266 -0.18294
 C517 C 0.52275 0.42403 -0.13101
 C518 C 0.49453 0.38974 -0.12225
 C519 C 0.48710 0.36482 -0.16779
 C520 C 0.54951 0.39419 -0.32951
 C521 C 0.55830 0.41761 -0.28154
 C522 C 0.44956 0.30702 -0.21103
 C523 C 0.45806 0.33080 -0.16306
 H524 H 0.56556 0.40269 -0.37096
 H525 H 0.58091 0.44355 -0.28721
 H526 H 0.42652 0.28134 -0.20599
 H527 H 0.44133 0.32271 -0.12256
 H528 H 0.43586 0.26886 -0.31306
 H529 H 0.52523 0.34747 -0.41726
 H530 H 0.56668 0.45894 -0.18931
 H531 H 0.47767 0.38306 -0.08224
 C532 C 0.62353 0.11484 -0.26721
 C533 C 0.63104 0.14841 -0.28054
 C534 C 0.64751 0.16467 -0.33685
 C535 C 0.65556 0.14714 -0.38003
 C536 C 0.64801 0.11362 -0.36583
 C537 C 0.63218 0.09741 -0.30929
 C538 C 0.60500 0.09703 -0.20929
 C539 C 0.59666 0.06311 -0.19698
 C540 C 0.57621 0.04503 -0.14503
 C541 C 0.56274 0.06000 -0.10706
 C542 C 0.57320 0.09486 -0.11775
 C543 C 0.59422 0.11346 -0.16914
 C544 C 0.62436 0.06391 -0.29438
 C545 C 0.60700 0.04708 -0.23903
 C546 C 0.62123 0.16464 -0.23788
 C547 C 0.60294 0.14738 -0.18330
 H548 H 0.63117 0.05033 -0.32625
 H549 H 0.60069 0.02090 -0.22997
 H550 H 0.62701 0.19059 -0.24749
 H551 H 0.59493 0.16042 -0.15262
 H552 H 0.65340 0.19055 -0.34781
 H553 H 0.65471 0.10036 -0.39873
 H554 H 0.56839 0.01825 -0.13737
 H555 H 0.56301 0.10664 -0.08887
 C556 C 1.15035 0.46115 -0.28466
 C557 C 1.13085 0.43802 -0.33142
 C558 C 1.14706 0.43907 -0.38735
 C559 C 1.18293 0.46186 -0.39583
 C560 C 1.20233 0.48327 -0.34637
 C561 C 1.18599 0.48395 -0.29177
 C562 C 1.13281 0.46272 -0.22852
 C563 C 1.15161 0.48854 -0.18496
 C564 C 1.13401 0.49270 -0.13576
 C565 C 1.09807 0.47046 -0.12921
 C566 C 1.08027 0.44266 -0.17013
 C567 C 1.09721 0.43960 -0.22128
 C568 C 1.20431 0.50809 -0.24537
 C569 C 1.18735 0.51071 -0.19338
 C570 C 1.09534 0.41487 -0.32192
 C571 C 1.07889 0.41531 -0.26737
 H572 H 1.23184 0.52594 -0.25032
 H573 H 1.20228 0.53056 -0.15997
 H574 H 1.08006 0.39658 -0.35729
 H575 H 1.05136 0.39741 -0.26236
 H576 H 1.13180 0.42165 -0.42381
 H577 H 1.22977 0.50153 -0.35221
 H578 H 1.14794 0.51402 -0.10433
 H579 H 1.05268 0.42513 -0.16538
 C580 C 0.58332 0.69343 -0.25321
 C581 C 0.60221 0.69635 -0.30668
 C582 C 0.59760 0.71013 -0.36112
 C583 C 0.57364 0.72039 -0.36322
 C584 C 0.55707 0.71980 -0.30719
 C585 C 0.56127 0.70570 -0.25267
 C586 C 0.58419 0.67426 -0.19869
 C587 C 0.56250 0.66810 -0.14752
 C588 C 0.55889 0.64482 -0.10061
 C589 C 0.57583 0.62695 -0.10638
 C590 C 0.60003 0.63607 -0.15459
 C591 C 0.60394 0.65932 -0.20150
 C592 C 0.54187 0.70129 -0.19886
 C593 C 0.54240 0.68271 -0.14723
 C594 C 0.62379 0.68343 -0.30579
 C595 C 0.62467 0.66525 -0.25397
 H596 H 0.52491 0.71087 -0.19767
 H597 H 0.52575 0.67842 -0.10792
 H598 H 0.63891 0.68598 -0.34647
 H599 H 0.64045 0.65436 -0.25612
 H600 H 0.61219 0.71203 -0.40215
 H601 H 0.53809 0.72681 -0.30671
 H602 H 0.53988 0.63749 -0.06397
 H603 H 0.61305 0.62231 -0.15891
 C604 C 0.29680 -0.12477 -0.28078
 C605 C 0.26323 -0.13353 -0.26619
 C606 C 0.23867 -0.14569 -0.31301
 C607 C 0.24799 -0.14874 -0.37346
 C608 C 0.28128 -0.14114 -0.38652
 C609 C 0.30589 -0.12881 -0.34065
 C610 C 0.32321 -0.11021 -0.23302
 C611 C 0.35691 -0.10055 -0.24843
 C612 C 0.38204 -0.08631 -0.20322
 C613 C 0.37360 -0.08217 -0.14272
 C614 C 0.33967 -0.09206 -0.12785
 C615 C 0.31436 -0.10589 -0.17310
 C616 C 0.33970 -0.11938 -0.35409
 C617 C 0.36483 -0.10541 -0.30870
 C618 C 0.25535 -0.12891 -0.20561
 C619 C 0.28046 -0.11546 -0.15978
 H620 H 0.34688 -0.12241 -0.40028
 H621 H 0.39070 -0.09821 -0.32095
 H622 H 0.22965 -0.13551 -0.19363
 H623 H 0.27334 -0.11223 -0.11368
 H624 H 0.21307 -0.15131 -0.30330
 H625 H 0.28832 -0.14350 -0.43335
 H626 H 0.40800 -0.07914 -0.21479
 H627 H 0.33304 -0.08887 -0.08128
 C628 C 0.47729 -0.15912 0.30323
 C629 C 0.51065 -0.15030 0.31743
 C630 C 0.51581 -0.16396 0.37157
 C631 C 0.48802 -0.18560 0.41193
 C632 C 0.45474 -0.19425 0.39694
 C633 C 0.44919 -0.18123 0.34239
 C634 C 0.47187 -0.14389 0.24748
 C635 C 0.43864 -0.15204 0.23408
 C636 C 0.43399 -0.13557 0.18354
 C637 C 0.46245 -0.11026 0.14797
 C638 C 0.49540 -0.10343 0.16060
 C639 C 0.50026 -0.12016 0.21036
 C640 C 0.41622 -0.18940 0.32670
 C641 C 0.41102 -0.17514 0.27337
 C642 C 0.53824 -0.12739 0.27794
 C643 C 0.53316 -0.11244 0.22548
 H644 H 0.39432 -0.20658 0.35637
 H645 H 0.38527 -0.18162 0.26360
 H646 H 0.56408 -0.12040 0.28835
 H647 H 0.55525 -0.09423 0.19711
 H648 H 0.54150 -0.15704 0.38327
 H649 H 0.43328 -0.21114 0.42774
 H650 H 0.40865 -0.14056 0.17478
 H651 H 0.51744 -0.08384 0.13361
 C652 C 0.36181 0.46045 0.24482
 C653 C 0.35806 0.43804 0.29360
 C654 C 0.34289 0.43871 0.34960
 C655 C 0.33167 0.46168 0.35692
 C656 C 0.33398 0.48264 0.30650
 C657 C 0.34950 0.48251 0.25057
 C658 C 0.38162 0.46306 0.18884
 C659 C 0.38835 0.48797 0.14272
 C660 C 0.41191 0.49441 0.09480
 C661 C 0.42942 0.47701 0.09468
 C662 C 0.41994 0.44987 0.13760
 C663 C 0.39636 0.44308 0.18545
 C664 C 0.35475 0.50543 0.20164
 C665 C 0.37396 0.50820 0.14868
 C666 C 0.37113 0.41670 0.28646
 C667 C 0.38983 0.41906 0.23308
 H668 H 0.34516 0.52240 0.20542
 H669 H 0.37879 0.52736 0.11334
 H670 H 0.36797 0.39894 0.32336
 H671 H 0.40049 0.40301 0.23020
 H672 H 0.34084 0.42231 0.38814
 H673 H 0.32565 0.50059 0.31212
 H674 H 0.41972 0.51578 0.06244
 H675 H 0.43362 0.43666 0.13747
 C676 C 1.10542 0.65701 0.26862
 C677 C 1.12508 0.65845 0.31892
 C678 C 1.13134 0.68144 0.36642
 C679 C 1.11732 0.70211 0.36481
 C680 C 1.09811 0.70100 0.31394
 C681 C 1.09221 0.67846 0.26519
 C682 C 1.09716 0.63140 0.22023
 C683 C 1.07718 0.62953 0.17009
 C684 C 1.06857 0.60431 0.12517
 C685 C 1.07840 0.58021 0.13239
 C686 C 1.09839 0.58245 0.18271
 C687 C 1.10824 0.60829 0.22640
 C688 C 1.07240 0.67591 0.21425
 C689 C 1.06525 0.65206 0.16723
 C690 C 1.13677 0.63578 0.32222
 C691 C 1.12828 0.61092 0.27689
 H692 H 1.06202 0.69223 0.21102
 H693 H 1.04959 0.65069 0.12907
 H694 H 1.15191 0.63671 0.36096
 H695 H 1.13712 0.59335 0.28179
 H696 H 1.14552 0.68196 0.40651
 H697 H 1.08681 0.71654 0.31364
 H698 H 1.05274 0.60216 0.08666
 H699 H 1.10611 0.56395 0.18787
 C700 C 0.42125 0.09573 0.29821
 C701 C 0.38720 0.08193 0.31840
 C702 C 0.38078 0.09831 0.36629
 C703 C 0.40818 0.12842 0.39266
 C704 C 0.44187 0.14264 0.37000
 C705 C 0.44866 0.12611 0.32354
 C706 C 0.42858 0.07725 0.25167
 C707 C 0.46288 0.08990 0.23486
 C708 C 0.46989 0.07140 0.19305
 C709 C 0.44294 0.04116 0.16686
 C710 C 0.40864 0.02917 0.18221
 C711 C 0.40129 0.04676 0.22615
 C712 C 0.48251 0.13852 0.30409
 C713 C 0.48954 0.12054 0.26072
 C714 C 0.36054 0.05142 0.29183
 C715 C 0.36745 0.03427 0.24608
 H716 H 0.50379 0.16188 0.32360
 H717 H 0.51604 0.13052 0.24773
 H718 H 0.33417 0.04055 0.30690
 H719 H 0.34622 0.01068 0.22707
 H720 H 0.35488 0.08717 0.38449
 H721 H 0.46304 0.16529 0.39151
 H722 H 0.49629 0.08059 0.18036
 H723 H 0.38799 0.00584 0.16143
 C724 C 0.70795 0.57378 0.26841
 C725 C 0.71189 0.59729 0.31382
 C726 C 0.73246 0.60236 0.36470
 C727 C 0.74825 0.58336 0.37150
 C728 C 0.74489 0.56065 0.32449
 C729 C 0.72471 0.55574 0.27279
 C730 C 0.68437 0.56653 0.21709
 C731 C 0.67935 0.54205 0.17279
 C732 C 0.65479 0.53324 0.12696
 C733 C 0.63464 0.54785 0.12711
 C734 C 0.64078 0.57312 0.17040
 C735 C 0.66576 0.58275 0.21538
 C736 C 0.71983 0.53218 0.22660
 C737 C 0.69764 0.52555 0.17732
 C738 C 0.69413 0.61429 0.30876
 C739 C 0.67133 0.60701 0.26046
 H740 H 0.73273 0.51821 0.22925
 H741 H 0.69402 0.50661 0.14348
 H742 H 0.69711 0.63261 0.34340
 H743 H 0.65742 0.61995 0.25909
 H744 H 0.73537 0.62034 0.40003
 H745 H 0.75662 0.54563 0.32944
 H746 H 0.64958 0.51327 0.09417
 H747 H 0.62518 0.58423 0.17034
 C748 C 0.86600 0.33416 0.27976
 C749 C 0.83543 0.33271 0.29323
 C750 C 0.81716 0.31616 0.34813
 C751 C 0.82977 0.30185 0.38970
 C752 C 0.86015 0.30309 0.37501
 C753 C 0.87837 0.31917 0.32006
 C754 C 0.88631 0.35311 0.22390
 C755 C 0.91755 0.35571 0.21202
 C756 C 0.93837 0.37645 0.16239
 C757 C 0.92871 0.39543 0.12580
 C758 C 0.89633 0.39091 0.13593
 C759 C 0.87512 0.36997 0.18547
 C760 C 0.90913 0.32129 0.30537
 C761 C 0.92839 0.33923 0.25216
 C762 C 0.82433 0.34870 0.25239
 C763 C 0.84390 0.36712 0.19953
 H764 H 0.91878 0.30962 0.33594
 H765 H 0.95246 0.34104 0.24331
 H766 H 0.80073 0.34767 0.26214
 H767 H 0.83492 0.37991 0.17023
 H768 H 0.79382 0.31536 0.35955
 H769 H 0.86966 0.29171 0.40665
 H770 H 0.96319 0.37966 0.15488
 H771 H 0.88879 0.40560 0.10833
   
