data_POSCAR
  _audit_creation_date              2014-09-24
  _audit_creation_method            'ToBaCCo'
  _symmetry_space_group_name_H-M    'P1'
  _symmetry_Int_Tables_number       1
  _symmetry_cell_setting            triclinic
  loop_
  _symmetry_equiv_pos_as_xyz
 x,y,z
_cell_length_a 23.8998
_cell_length_b 23.8831
_cell_length_c 23.8953
_cell_angle_alpha 90.121600
_cell_angle_beta 90.165500
_cell_angle_gamma 89.877400
loop_
  _atom_site_label
  _atom_site_type_symbol
  _atom_site_fract_x
  _atom_site_fract_y
  _atom_site_fract_z
N1 N 0.19003 0.19209 0.18992
 N2 N -0.18760 0.81105 0.19035
 N3 N -0.19330 0.18849 -0.19117
 N4 N 0.19097 0.80792 -0.19012
 N5 N 0.18621 1.18514 0.81641
 N6 N 0.80960 0.81201 0.80813
 N7 N 0.18851 0.80884 1.18910
 N8 N 0.81022 1.19056 1.19060
 O9 O 0.42108 1.10083 1.10001
 O10 O 0.35959 1.04816 1.04798
 C11 C 0.37090 1.08642 1.08487
 O12 O 0.57707 1.09380 0.89701
 O13 O 0.63884 1.04644 0.95357
 C14 C 0.62732 1.08099 0.91341
 O15 O 0.41993 1.09871 0.90213
 O16 O 0.35901 1.04788 0.95609
 C17 C 0.36998 1.08509 0.91832
 O18 O 0.57829 1.09606 1.10468
 O19 O 0.63942 1.04744 1.04869
 C20 C 0.62840 1.08281 1.08836
 Zr21 Zr 0.49965 1.07051 1.07207
 O22 O 0.50534 1.15892 1.06894
 O23 O 0.49424 1.07352 1.16039
 Zr24 Zr 0.49886 1.06901 0.93032
 O25 O 0.50459 1.15747 0.93208
 O26 O 0.49266 1.07034 0.84199
 O27 O 0.44937 1.08077 1.00121
 O28 O 0.54770 1.08015 1.00101
 O29 O 0.57896 0.90127 1.10331
 O30 O 0.63989 0.95368 1.05087
 C31 C 0.62899 0.91666 1.08888
 O32 O 0.42098 0.89406 0.90707
 O33 O 0.35968 0.95090 0.95459
 C34 C 0.37085 0.91063 0.91993
 O35 O 0.57820 0.89915 0.90190
 O36 O 0.63957 0.95296 0.95288
 C37 C 0.62834 0.91522 0.91545
 O38 O 0.42122 0.89888 1.10128
 O39 O 0.35965 0.95016 1.04789
 C40 C 0.37099 0.91265 1.08542
 Zr41 Zr 0.49992 0.92894 1.07331
 O42 O 0.50521 0.84042 1.07393
 O43 O 0.49513 0.93076 1.16178
 Zr44 Zr 0.49945 0.92738 0.93173
 O45 O 0.50569 0.83900 0.93019
 O46 O 0.49288 0.92880 0.84332
 Zr47 Zr 0.41639 0.99902 1.00188
 Zr48 Zr 0.58260 0.99917 1.00171
 O49 O 0.54827 0.91807 1.00253
 O50 O 0.44981 0.91721 1.00268
 O51 O 0.54979 0.99982 1.08355
 O52 O 0.45059 0.99797 0.92082
 O53 O 0.45125 0.99980 1.08286
 O54 O 0.54902 0.99809 0.92000
 H55 H 0.57295 1.11299 1.00071
 H56 H 0.42516 0.99745 0.88800
 H57 H 0.57357 0.88515 1.00269
 H58 H 0.42614 1.00003 1.11577
 H59 H 0.51922 1.04208 0.82746
 H60 H 0.52723 0.94641 0.82857
 H61 H 0.47885 0.82445 0.95796
 H62 H 0.47254 0.82578 1.05307
 H63 H 0.52856 0.95071 1.17588
 H64 H 0.52152 1.04613 1.17526
 H65 H 0.47182 1.17291 1.04896
 H66 H 0.47109 1.17188 0.95165
 O67 O 0.10085 0.42061 -0.09902
 O68 O 0.04491 0.35933 -0.05090
 C69 C 0.08465 0.37048 -0.08584
 O70 O 0.09783 0.57803 0.09724
 O71 O 0.04400 0.63965 0.04656
 C72 C 0.08197 0.62825 0.08372
 O73 O 0.10164 0.42088 0.09310
 O74 O 0.04601 0.35938 0.04438
 C75 C 0.08561 0.37071 0.07976
 O76 O 0.09312 0.57770 -0.10641
 O77 O 0.04477 0.63921 -0.05040
 C78 C 0.07996 0.62791 -0.09004
 Zr79 Zr 0.06732 0.49929 -0.07424
 O80 O 0.15543 0.50528 -0.07969
 O81 O 0.05925 0.49554 -0.16226
 Zr82 Zr 0.06932 0.49940 0.06737
 O83 O 0.15772 0.50526 0.06773
 O84 O 0.06852 0.49367 0.15580
 O85 O 0.07940 0.44943 -0.00357
 O86 O 0.07859 0.54784 -0.00347
 O87 O -0.09926 0.57843 -0.10536
 O88 O -0.05061 0.63958 -0.04919
 C89 C -0.08596 0.62859 -0.08891
 O90 O -0.10402 0.42092 0.09466
 O91 O -0.04902 0.35940 0.04528
 C92 C -0.08809 0.37070 0.08106
 O93 O -0.09731 0.57822 0.10173
 O94 O -0.04908 0.63954 0.04597
 C95 C -0.08403 0.62839 0.08571
 O96 O -0.10632 0.42096 -0.09865
 O97 O -0.05086 0.35951 -0.04957
 C98 C -0.09042 0.37074 -0.08501
 Zr99 Zr -0.07387 0.49964 -0.07284
 O100 O -0.16219 0.50683 -0.07174
 O101 O -0.07479 0.49371 -0.16122
 Zr102 Zr -0.07232 0.49955 0.06859
 O103 O -0.16065 0.50662 0.06843
 O104 O -0.07216 0.49273 0.15690
 Zr105 Zr -0.00223 0.41612 -0.00281
 Zr106 Zr -0.00232 0.58273 -0.00229
 O107 O -0.08334 0.54822 -0.00188
 O108 O -0.08400 0.44958 -0.00213
 O109 O -0.00332 0.54960 -0.08408
 O110 O -0.00134 0.45101 0.07818
 O111 O -0.00330 0.45059 -0.08380
 O112 O -0.00135 0.54933 0.07926
 H113 H 0.11162 0.57281 -0.00391
 H114 H -0.00098 0.42593 0.11115
 H115 H -0.11621 0.57357 -0.00155
 H116 H -0.00358 0.42514 -0.11662
 H117 H 0.04967 0.52758 0.17041
 H118 H -0.04633 0.52158 0.17156
 H119 H -0.17566 0.47487 0.04644
 H120 H -0.17682 0.47547 -0.04917
 H121 H -0.04603 0.51984 -0.17532
 H122 H 0.09788 0.49485 -0.17718
 H123 H 0.17107 0.48202 -0.04930
 H124 H 0.17252 0.47382 0.04515
 O125 O 0.90753 0.10593 0.42157
 O126 O 0.95594 0.04981 0.36031
 C127 C 0.92074 0.08961 0.37142
 O128 O 1.10399 0.09971 0.58012
 O129 O 1.05101 0.04778 0.64103
 C130 C 1.08925 0.08450 0.63011
 O131 O 1.09957 0.10430 0.42241
 O132 O 1.05040 0.04916 0.36074
 C133 C 1.08595 0.08846 0.37212
 O134 O 0.90214 0.10178 0.57830
 O135 O 0.95307 0.04816 0.63972
 C136 C 0.91557 0.08577 0.62840
 Zr137 Zr 0.93300 0.07341 0.50028
 O138 O 0.93360 0.16184 0.50684
 O139 O 0.84464 0.07349 0.49354
 Zr140 Zr 1.07435 0.07153 0.50099
 O141 O 1.07819 0.15983 0.50719
 O142 O 1.16269 0.06721 0.49532
 O143 O 1.00384 0.08346 0.45070
 O144 O 1.00363 0.08233 0.54933
 O145 O 0.89801 -0.09320 0.57823
 O146 O 0.95463 -0.04607 0.64012
 C147 C 0.91444 -0.08057 0.62854
 O148 O 1.09805 -0.10322 0.42199
 O149 O 1.04974 -0.04707 0.36074
 C150 C 1.08475 -0.08700 0.37185
 O151 O 1.10484 -0.09620 0.57903
 O152 O 1.05009 -0.04658 0.64057
 C153 C 1.08911 -0.08254 0.62924
 O154 O 0.90296 -0.09756 0.42105
 O155 O 0.95680 -0.04689 0.35986
 C156 C 0.91892 -0.08399 0.37099
 Zr157 Zr 0.93104 -0.06798 0.49994
 O158 O 0.93157 -0.15645 0.50568
 O159 O 0.84269 -0.06814 0.49365
 Zr160 Zr 1.07277 -0.07001 0.50039
 O161 O 1.07229 -0.15839 0.50693
 O162 O 1.16108 -0.07062 0.49375
 Zr163 Zr 1.00292 0.00166 0.41720
 Zr164 Zr 1.00272 0.00120 0.58382
 O165 O 1.00177 -0.07961 0.54857
 O166 O 1.00177 -0.08005 0.45032
 O167 O 0.92106 0.00279 0.55010
 O168 O 1.08388 0.00070 0.45208
 O169 O 0.92189 0.00291 0.45150
 O170 O 1.08449 0.00053 0.55079
 H171 H 1.00364 0.11540 0.57444
 H172 H 1.11661 0.00032 0.42673
 H173 H 1.00143 -0.11257 0.57368
 H174 H 0.88898 0.00348 0.42619
 H175 H 1.17681 0.05009 0.53031
 H176 H 1.17596 -0.04664 0.52410
 H177 H 1.04667 -0.17280 0.47772
 H178 H 0.95072 -0.17120 0.47207
 H179 H 0.82826 -0.04203 0.52237
 H180 H 0.82974 0.05314 0.52626
 H181 H 0.95657 0.17645 0.47579
 H182 H 1.05118 0.17526 0.47983
 N183 N 1.14437 0.11254 0.23216
 C184 C 1.16375 0.16571 0.23653
 N185 N 1.15741 0.19363 0.28564
 N186 N 1.13296 0.16896 0.32916
 C187 C 1.11319 0.11590 0.32468
 N188 N 1.11918 0.08823 0.27537
 N189 N 0.81278 -0.15580 0.28587
 C190 C 0.83994 -0.16292 0.23661
 N191 N 0.89323 -0.14410 0.23159
 N192 N 0.91843 -0.11864 0.27440
 C193 C 0.89145 -0.11194 0.32387
 N194 N 0.83829 -0.13115 0.32894
 N195 N 0.84126 0.19009 0.71390
 C196 C 0.83378 0.16199 0.76258
 N197 N 0.85334 0.10878 0.76708
 N198 N 0.87977 0.08458 0.72437
 C199 C 0.88679 0.11246 0.67546
 N200 N 0.86689 0.16555 0.67089
 N201 N 1.19346 -0.15665 0.71518
 C202 C 1.16512 -0.16420 0.76370
 N203 N 1.11206 -0.14441 0.76801
 N204 N 1.08818 -0.11775 0.72526
 C205 C 1.11625 -0.11062 0.67650
 N206 N 1.16923 -0.13074 0.67209
 N207 N 0.28672 1.16248 1.18889
 C208 C 0.23617 1.16526 1.16311
 N209 N 0.23003 1.14231 1.11146
 N210 N 0.27301 1.11700 1.08655
 C211 C 0.32376 1.11457 1.11209
 N212 N 0.32991 1.13787 1.16362
 N213 N 0.28479 0.80501 0.84801
 C214 C 0.23684 0.83394 0.83817
 N215 N 0.23285 0.88779 0.85598
 N216 N 0.27537 0.91185 0.88287
 C217 C 0.32357 0.88317 0.89222
 N218 N 0.32767 0.82940 0.87411
 N219 N 0.71579 0.81119 1.16012
 C220 C 0.76546 0.83818 1.16499
 N221 N 0.77000 0.89124 1.14533
 N222 N 0.72642 0.91628 1.12106
 C223 C 0.67657 0.88949 1.11652
 N224 N 0.67196 0.83658 1.13664
 N225 N 0.76507 1.14427 0.88947
 C226 C 0.76084 1.16120 0.83546
 N227 N 0.71276 1.15114 0.80684
 N228 N 0.66999 1.12566 0.83170
 C229 C 0.67433 1.10841 0.88563
 N230 N 0.72266 1.11799 0.91401
 N231 N 0.19134 0.28610 0.15298
 C232 C 0.16305 0.23790 0.16260
 N233 N 0.10949 0.23317 0.14419
 N234 N 0.08507 0.27530 0.11698
 C235 C 0.11317 0.32374 0.10780
 N236 N 0.16660 0.32854 0.12656
 N237 N -0.11340 0.23149 -0.14629
 C238 C -0.16714 0.23518 -0.16435
 N239 N -0.19590 0.28354 -0.15596
 N240 N -0.17146 0.32705 -0.13092
 C241 C -0.11779 0.32323 -0.11251
 N242 N -0.08929 0.27465 -0.12047
 N243 N 0.14463 0.76562 -0.11104
 C244 C 0.16299 0.76182 -0.16459
 N245 N 0.15326 0.71411 -0.19397
 N246 N 0.12680 0.67125 -0.17027
 C247 C 0.10815 0.67514 -0.11679
 N248 N 0.11739 0.72312 -0.08767
 N249 N -0.15259 0.71600 0.19223
 C250 C -0.16208 0.76407 0.16347
 N251 N -0.14564 0.76741 0.10929
 N252 N -0.12029 0.72418 0.08478
 C253 C -0.11120 0.67590 0.11332
 N254 N -0.12807 0.67242 0.16739
 N255 N 1.13214 0.19097 0.73255
 C256 C 1.16347 0.16063 0.76937
 N257 N 1.17084 0.10502 0.75885
 N258 N 1.14746 0.08083 0.71430
 C259 C 1.11667 0.11146 0.67776
 N260 N 1.10953 0.16696 0.68748
 N261 N 0.80766 -0.15037 0.71420
 C262 C 0.83641 -0.16100 0.76211
 N263 N 0.89062 -0.14466 0.76611
 N264 N 0.91520 -0.11837 0.72370
 C265 C 0.88667 -0.10818 0.67556
 N266 N 0.83255 -0.12489 0.67142
 N267 N 1.14740 -0.10985 0.23342
 C268 C 1.16287 -0.16447 0.23611
 N269 N 1.15240 -0.19376 0.28356
 N270 N 1.12788 -0.16904 0.32716
 C271 C 1.11199 -0.11451 0.32432
 N272 N 1.12205 -0.08543 0.27664
 N273 N 0.84704 0.19387 0.28497
 C274 C 0.83813 0.16482 0.23689
 N275 N 0.85717 0.11140 0.23292
 N276 N 0.88425 0.08784 0.27563
 C277 C 0.89265 0.11661 0.32399
 N278 N 0.87334 0.16997 0.32803
 N279 N 0.19154 0.26808 -0.12807
 C280 C 0.16154 0.23188 -0.16049
 N281 N 0.10615 0.24272 -0.16854
 N282 N 0.08184 0.28699 -0.14482
 C283 C 0.11210 0.32294 -0.11296
 N284 N 0.16741 0.31294 -0.10513
 N285 N -0.11069 0.23211 0.14350
 C286 C -0.16387 0.23659 0.16277
 N287 N -0.19237 0.28511 0.15459
 N288 N -0.16820 0.32803 0.12865
 C289 C -0.11511 0.32347 0.10906
 N290 N -0.08685 0.27470 0.11679
 N291 N -0.14730 0.76801 -0.11143
 C292 C -0.16415 0.76498 -0.16563
 N293 N -0.15521 0.71690 -0.19470
 N294 N -0.13071 0.67310 -0.17020
 C295 C -0.11341 0.67630 -0.11611
 N296 N -0.12199 0.72458 -0.08725
 N297 N 0.10784 0.76783 0.14359
 C298 C 0.16110 0.76262 0.16277
 N299 N 0.18819 0.71311 0.15605
 N300 N 0.16267 0.67005 0.13138
 C301 C 0.10954 0.67533 0.11178
 N302 N 0.08265 0.72504 0.11812
 N303 N 0.24202 1.16781 0.89734
 C304 C 0.23253 1.16166 0.84142
 N305 N 0.26959 1.13059 0.81119
 N306 N 0.31395 1.10706 0.83555
 C307 C 0.32260 1.11285 0.89134
 N308 N 0.28584 1.14343 0.92189
 N309 N 0.23130 0.85283 1.10878
 C310 C 0.23537 0.83445 1.16235
 N311 N 0.28428 0.84147 1.19047
 N312 N 0.32785 0.86566 1.16566
 C313 C 0.32367 0.88450 1.11223
 N314 N 0.27456 0.87783 1.08431
 N315 N 0.76721 1.14498 1.11094
 C316 C 0.76378 1.16299 1.16472
 N317 N 0.71577 1.15426 1.19361
 N318 N 0.67238 1.12891 1.16928
 C319 C 0.67593 1.11054 1.11558
 N320 N 0.72418 1.11884 1.08695
 N321 N 0.71434 0.81059 0.84196
 C322 C 0.76309 0.83864 0.83475
 N323 N 0.76743 0.89194 0.85408
 N324 N 0.72451 0.91626 0.88009
 C325 C 0.67555 0.88842 0.88690
 N326 N 0.67113 0.83525 0.86717
   
