data_POSCAR
  _audit_creation_date              2014-09-24
  _audit_creation_method            'ToBaCCo'
  _symmetry_space_group_name_H-M    'P1'
  _symmetry_Int_Tables_number       1
  _symmetry_cell_setting            triclinic
  loop_
  _symmetry_equiv_pos_as_xyz
 x,y,z
_cell_length_a 10.8880
_cell_length_b 21.7830
_cell_length_c 33.4439
_cell_angle_alpha 90.596600
_cell_angle_beta 88.931000
_cell_angle_gamma 90.259900
loop_
  _atom_site_label
  _atom_site_type_symbol
  _atom_site_fract_x
  _atom_site_fract_y
  _atom_site_fract_z
C1 C 0.07475 0.41409 1.16630
 C2 C 0.04107 0.46709 1.14551
 C3 C 0.00044 0.52037 1.16517
 C4 C -0.00733 0.52153 1.20741
 C5 C 0.04090 0.47171 1.22900
 C6 C 0.08870 0.41944 1.20830
 C7 C 0.15537 0.37669 1.23011
 C8 C 0.15523 0.37887 1.27152
 C9 C 0.08821 0.42372 1.29285
 C10 C 0.04259 0.47426 1.27151
 C11 C -0.06033 0.57075 1.22880
 C12 C -0.06319 0.57159 1.27043
 C13 C -0.00238 0.52675 1.29247
 C14 C 0.01217 0.53095 1.33476
 C15 C 0.03963 0.47639 1.35511
 C16 C 0.06875 0.42119 1.33481
 H17 H 0.21118 0.34197 1.21562
 H18 H 0.21018 0.34544 1.28650
 H19 H -0.10241 0.60867 1.21386
 H20 H -0.11787 0.60666 1.28495
 H21 H 0.03983 0.46649 1.11307
 H22 H 0.03725 0.47669 1.38752
 C23 C 0.56515 0.57484 1.33399
 C24 C 0.54848 0.51971 1.35457
 C25 C 0.52580 0.46365 1.33480
 C26 C 0.52163 0.46256 1.29217
 C27 C 0.54585 0.51760 1.27094
 C28 C 0.57740 0.57225 1.29187
 C29 C 0.62706 0.62131 1.26999
 C30 C 0.62077 0.62214 1.22863
 C31 C 0.56630 0.57340 1.20770
 C32 C 0.54165 0.51810 1.22846
 C33 C 0.50672 0.40790 1.26978
 C34 C 0.50382 0.40833 1.22807
 C35 C 0.51627 0.46338 1.20680
 C36 C 0.51147 0.46544 1.16443
 C37 C 0.52156 0.52191 1.14523
 C38 C 0.54326 0.57659 1.16629
 H39 H 0.67490 0.65865 1.28459
 H40 H 0.66326 0.66027 1.21317
 H41 H 0.50153 0.36363 1.28382
 H42 H 0.49384 0.36469 1.21286
 H43 H 0.54440 0.52107 1.38701
 H44 H 0.50981 0.52308 1.11311
 C45 C 0.32348 0.97546 1.33613
 C46 C 0.41167 1.01051 1.35606
 C47 C 0.50670 1.04097 1.33561
 C48 C 0.50471 1.04264 1.29315
 C49 C 0.41527 1.00784 1.27215
 C50 C 0.32669 0.97250 1.29366
 C51 C 0.24710 0.93416 1.27202
 C52 C 0.24661 0.93465 1.23033
 C53 C 0.32566 0.97354 1.20842
 C54 C 0.41462 1.00840 1.22949
 C55 C 0.58193 1.08233 1.27128
 C56 C 0.58064 1.08317 1.22980
 C57 C 0.50326 1.04379 1.20805
 C58 C 0.50541 1.04249 1.16549
 C59 C 0.41010 1.01248 1.14560
 C60 C 0.32162 0.97738 1.16604
 H61 H 0.18512 0.90263 1.28690
 H62 H 0.18436 0.90342 1.21564
 H63 H 0.64073 1.11531 1.28598
 H64 H 0.63803 1.11702 1.21511
 H65 H 0.41044 1.01075 1.38854
 H66 H 0.40907 1.01293 1.11315
 C67 C 1.03538 0.52528 0.83714
 C68 C 1.04158 0.46839 0.85626
 C69 C 1.05250 0.41300 0.83480
 C70 C 1.06845 0.41473 0.79261
 C71 C 1.06111 0.47149 0.77244
 C72 C 1.04941 0.52709 0.79471
 C73 C 1.06538 0.58258 0.77406
 C74 C 1.07020 0.58389 0.73256
 C75 C 1.06135 0.52970 0.70966
 C76 C 1.06886 0.47278 0.72981
 C77 C 1.09543 0.36171 0.76997
 C78 C 1.09555 0.36222 0.72854
 C79 C 1.08353 0.41719 0.70758
 C80 C 1.08682 0.41880 0.66523
 C81 C 1.07682 0.47543 0.64611
 C82 C 1.05752 0.53055 0.66720
 H83 H 1.07959 0.62567 0.78955
 H84 H 1.08694 0.62785 0.71879
 H85 H 1.11925 0.31897 0.78377
 H86 H 1.10660 0.31857 0.71376
 H87 H 1.02836 0.46678 0.88846
 H88 H 1.07586 0.47574 0.61366
 C89 C 0.54481 0.47199 0.66432
 C90 C 0.55795 0.52798 0.64520
 C91 C 0.56987 0.58320 0.66646
 C92 C 0.57505 0.58221 0.70876
 C93 C 0.57064 0.52485 0.72866
 C94 C 0.55397 0.46966 0.70635
 C95 C 0.54565 0.41387 0.72671
 C96 C 0.54869 0.41217 0.76797
 C97 C 0.57351 0.46512 0.79075
 C98 C 0.57904 0.52266 0.77105
 C99 C 0.57796 0.63632 0.73184
 C100 C 0.58210 0.63427 0.77344
 C101 C 0.58685 0.57800 0.79370
 C102 C 0.59189 0.57496 0.83600
 C103 C 0.59495 0.51751 0.85451
 C104 C 0.58841 0.46248 0.83273
 H105 H 0.53640 0.37043 0.71130
 H106 H 0.52799 0.36854 0.78148
 H107 H 0.57417 0.68094 0.71815
 H108 H 0.57987 0.67761 0.78926
 H109 H 0.55220 0.52888 0.61283
 H110 H 0.60235 0.51578 0.88679
 C111 C 0.33911 -0.03006 0.83711
 C112 C 0.43762 -0.00152 0.85645
 C113 C 0.52773 0.03166 0.83581
 C114 C 0.52070 0.03737 0.79383
 C115 C 0.42510 0.00682 0.77297
 C116 C 0.33483 -0.02777 0.79454
 C117 C 0.25243 -0.06409 0.77259
 C118 C 0.25109 -0.06269 0.73104
 C119 C 0.33174 -0.02469 0.70907
 C120 C 0.42320 0.00863 0.73031
 C121 C 0.60609 0.07301 0.77220
 C122 C 0.60320 0.07550 0.73066
 C123 C 0.51634 0.04148 0.70899
 C124 C 0.51966 0.03934 0.66660
 C125 C 0.42877 0.00700 0.64640
 C126 C 0.33326 -0.02408 0.66641
 H127 H 0.19248 -0.09710 0.78687
 H128 H 0.19011 -0.09473 0.71661
 H129 H 0.67629 0.09936 0.78724
 H130 H 0.67045 0.10434 0.71577
 H131 H 0.44401 -0.00423 0.88875
 H132 H 0.43273 0.00633 0.61393
 O133 O 0.46269 0.74467 0.96817
 O134 O 0.30652 0.83201 0.95586
 C135 C 0.19947 0.84881 0.94694
 O136 O 0.10297 0.83341 0.96673
 O137 O 0.03161 0.72075 0.95620
 C138 C 0.05862 0.66537 0.94841
 O139 O 0.12627 0.63357 0.97059
 O140 O 0.35468 0.65935 0.95596
 C141 C 0.44101 0.69625 0.94769
 O142 O 0.42211 0.76259 1.04858
 O143 O 0.27791 0.85263 1.03499
 C144 C 0.17942 0.85071 1.05593
 O145 O 0.08942 0.81604 1.04762
 O146 O 0.00816 0.70414 1.03703
 C147 C 0.06276 0.66348 1.05736
 O148 O 0.17024 0.64484 1.04924
 O149 O 0.40268 0.66321 1.03440
 C150 C 0.43723 0.70683 1.05699
 Cr151 Cr 0.36290 0.79590 1.00183
 Cr152 Cr 0.06359 0.76761 1.00194
 Cr153 Cr 0.26218 0.65339 1.00258
 O154 O 0.22919 0.73919 1.00200
 O155 O 0.56535 0.28657 0.96296
 O156 O 0.63621 0.17471 0.95443
 C157 C 0.72326 0.13868 0.94589
 O158 O 0.81919 0.13486 0.96679
 O159 O 0.96878 0.22427 0.95633
 C160 C 0.98223 0.28043 0.94828
 O161 O 0.95822 0.32253 0.97357
 O162 O 0.73231 0.34651 0.95644
 C163 C 0.63192 0.32530 0.94392
 O164 O 0.56131 0.26999 1.04424
 O165 O 0.62974 0.15708 1.03518
 C166 C 0.72064 0.13970 1.05583
 O167 O 0.83182 0.15236 1.04713
 O168 O 0.99713 0.23786 1.03786
 C169 C 0.97552 0.28600 1.05886
 O170 O 0.89346 0.32445 1.05084
 O171 O 0.67110 0.35524 1.03483
 C172 C 0.59000 0.32438 1.05367
 Cr173 Cr 0.60399 0.22303 0.99938
 Cr174 Cr 0.90048 0.18950 1.00218
 Cr175 Cr 0.81182 0.33427 1.00382
 O176 O 0.77123 0.24869 1.00232
 O177 O 0.64735 0.36026 0.53084
 O178 O 0.87347 0.33477 0.54419
 C179 C 0.95659 0.29715 0.55281
 O180 O 0.98049 0.24880 0.53232
 O181 O 0.82559 0.15961 0.54349
 C182 C 0.71737 0.14544 0.55465
 O183 O 0.62193 0.16175 0.53614
 O184 O 0.55014 0.27344 0.54577
 C185 C 0.57728 0.32874 0.55314
 O186 O 0.69384 0.34993 0.45230
 O187 O 0.92615 0.33316 0.46589
 C188 C 0.96617 0.29041 0.44346
 O189 O 0.95082 0.23427 0.45139
 O190 O 0.80444 0.14304 0.46292
 C191 C 0.70262 0.14343 0.44484
 O192 O 0.61212 0.17615 0.45569
 O193 O 0.53318 0.28772 0.46467
 C194 C 0.58836 0.32906 0.44419
 Cr195 Cr 0.78400 0.34115 0.49826
 Cr196 Cr 0.88564 0.19844 0.49762
 Cr197 Cr 0.58529 0.22586 0.50045
 O198 O 0.75137 0.25478 0.49867
 O199 O 0.35695 0.66399 0.54707
 O200 O 0.13038 0.63631 0.53324
 C201 C 0.06445 0.66874 0.55667
 O202 O 0.03560 0.72348 0.54901
 O203 O 0.10432 0.83569 0.53832
 C204 C 0.20013 0.85326 0.55658
 O205 O 0.30791 0.83775 0.54612
 O206 O 0.46442 0.74974 0.53492
 C207 C 0.43969 0.70253 0.55584
 O208 O 0.41100 0.66344 0.46831
 O209 O 0.17881 0.64436 0.45467
 C210 C 0.07457 0.66558 0.44615
 O211 O 0.01738 0.70561 0.46749
 O212 O 0.09478 0.81728 0.45757
 C213 C 0.18558 0.85070 0.44755
 O214 O 0.28560 0.85243 0.46655
 O215 O 0.43239 0.76228 0.45414
 C216 C 0.44820 0.70623 0.44570
 Cr217 Cr 0.26816 0.65520 0.50084
 Cr218 Cr 0.06854 0.76934 0.50302
 Cr219 Cr 0.36810 0.79843 0.50051
 O220 O 0.23468 0.74136 0.50130
 C221 C 0.55105 0.63339 0.35757
 C222 C 0.52505 0.69079 0.34224
 C223 C 0.49871 0.72754 0.37428
 C224 C 0.50448 0.68993 0.40691
 O225 O 0.53559 0.63313 0.39701
 H226 H 0.51269 0.70408 0.31158
 H227 H 0.46471 0.77414 0.37350
 C228 C 0.23815 0.93963 0.36206
 C229 C 0.11232 0.93436 0.35834
 C230 C 0.07361 0.89997 0.39026
 C231 C 0.17829 0.88835 0.41148
 O232 O 0.27736 0.91255 0.39459
 H233 H 0.05550 0.95394 0.33558
 H234 H -0.01945 0.88558 0.39736
 C235 C 0.00675 0.58644 0.35779
 C236 C 0.00610 0.64630 0.34366
 C237 C 0.01274 0.68364 0.37645
 C238 C 0.02266 0.64490 0.40827
 O239 O 0.02082 0.58647 0.39718
 H240 H 0.01552 0.66264 0.31342
 H241 H 0.02566 0.73296 0.37658
 C242 C 0.50863 0.41215 0.35951
 C243 C 0.42165 0.36607 0.35556
 C244 C 0.43557 0.32891 0.38789
 C245 C 0.52987 0.35510 0.40910
 O246 O 0.57241 0.40573 0.39242
 H247 H 0.35260 0.36148 0.33308
 H248 H 0.38446 0.28752 0.39482
 C249 C 0.60097 0.06661 0.35895
 C250 C 0.72532 0.06638 0.34940
 C251 C 0.78189 0.09188 0.38174
 C252 C 0.68825 0.10596 0.40851
 O253 O 0.57921 0.09002 0.39507
 H254 H 0.77009 0.04811 0.32270
 H255 H 0.87904 0.10110 0.38485
 C256 C 1.06513 0.36575 0.35692
 C257 C 1.05968 0.30621 0.34149
 C258 C 1.03686 0.26899 0.37321
 C259 C 1.02569 0.30786 0.40563
 O260 O 1.04291 0.36599 0.39601
 H261 H 1.05710 0.29077 0.31075
 H262 H 1.01611 0.22036 0.37204
 C263 C 0.49919 0.41099 1.13802
 C264 C 0.40843 0.36690 1.14070
 C265 C 0.42860 0.32833 1.10888
 C266 C 0.52886 0.35268 1.08869
 O267 O 0.57101 0.40300 1.10608
 H268 H 0.33568 0.36384 1.16281
 H269 H 0.37656 0.28753 1.10129
 C270 C 1.07968 0.35813 1.14409
 C271 C 1.07562 0.29852 1.15867
 C272 C 1.05547 0.26117 1.12629
 C273 C 1.04563 0.30022 1.09455
 O274 O 1.06116 0.35808 1.10518
 H275 H 1.07001 0.28335 1.18927
 H276 H 1.03217 0.21282 1.12691
 C277 C 0.60213 0.06689 1.14180
 C278 C 0.72504 0.06660 1.15167
 C279 C 0.78597 0.09166 1.11991
 C280 C 0.69664 0.10505 1.09270
 O281 O 0.58541 0.08914 1.10551
 H282 H 0.76638 0.04851 1.17824
 H283 H 0.88379 0.10015 1.11720
 C284 C 0.53117 0.63504 1.14385
 C285 C 0.50579 0.69250 1.16014
 C286 C 0.48226 0.72931 1.12858
 C287 C 0.49001 0.69146 1.09546
 O288 O 0.51926 0.63470 1.10455
 H289 H 0.49319 0.70553 1.19119
 H290 H 0.44935 0.77612 1.13002
 C291 C -0.02393 0.57383 1.13952
 C292 C -0.13301 0.60543 1.13695
 C293 C -0.11652 0.64534 1.10588
 C294 C 0.00104 0.63423 1.09164
 O295 O 0.05633 0.59083 1.11175
 H296 H -0.21546 0.59865 1.15466
 H297 H -0.18279 0.67729 1.09446
 C298 C 0.23511 0.94209 1.14071
 C299 C 0.10939 0.93715 1.14632
 C300 C 0.06943 0.90211 1.11488
 C301 C 0.17333 0.88975 1.09203
 O302 O 0.27314 0.91422 1.10747
 H303 H 0.05355 0.95706 1.17017
 H304 H -0.02388 0.88756 1.10923
 C305 C 0.51921 0.41809 0.63855
 C306 C 0.42831 0.37493 0.64523
 C307 C 0.43724 0.33478 0.61373
 C308 C 0.52918 0.35811 0.58955
 O309 O 0.57858 0.40868 0.60431
 H310 H 0.36418 0.37316 0.67027
 H311 H 0.38452 0.29330 0.60887
 C312 C 0.61748 0.06768 0.64127
 C313 C 0.74203 0.05964 0.64602
 C314 C 0.79675 0.08744 0.61389
 C315 C 0.70155 0.10938 0.59147
 O316 O 0.59287 0.09705 0.60785
 H317 H 0.78728 0.03509 0.66950
 H318 H 0.89429 0.09095 0.60741
 C319 C 1.07956 0.36391 0.63853
 C320 C 1.14746 0.31030 0.63931
 C321 C 1.11245 0.27679 0.60655
 C322 C 1.02660 0.31260 0.58835
 O323 O 1.00690 0.36478 0.60752
 H324 H 1.21674 0.29714 0.66020
 H325 H 1.14551 0.23205 0.59714
 C326 C 0.55961 0.63898 0.64197
 C327 C 0.63659 0.68959 0.64140
 C328 C 0.60250 0.72269 0.60865
 C329 C 0.50836 0.68912 0.59193
 O330 O 0.48283 0.63908 0.61208
 H331 H 0.71138 0.69978 0.66125
 H332 H 0.64306 0.76496 0.59785
 C333 C 0.25024 0.94371 0.64187
 C334 C 0.12474 0.93618 0.64778
 C335 C 0.08555 0.90292 0.61536
 C336 C 0.18968 0.89299 0.59217
 O337 O 0.28809 0.91832 0.60781
 H338 H 0.06765 0.95420 0.67196
 H339 H -0.00679 0.88681 0.60978
 C340 C 0.03019 0.58296 0.64437
 C341 C -0.04230 0.63233 0.65621
 C342 C -0.04364 0.67069 0.62417
 C343 C 0.02528 0.64152 0.59483
 O344 O 0.06851 0.58833 0.60674
 H345 H -0.09177 0.63916 0.68425
 H346 H -0.08772 0.71500 0.62256
 C347 C 0.57974 0.62879 0.86320
 C348 C 0.64700 0.68277 0.86230
 C349 C 0.60645 0.71633 0.89476
 C350 C 0.51798 0.68008 0.91284
 O351 O 0.50248 0.62729 0.89396
 H352 H 0.71712 0.69620 0.84080
 H353 H 0.63649 0.76173 0.90380
 C354 C 0.01132 0.57740 0.86152
 C355 C -0.05654 0.62815 0.85107
 C356 C -0.05291 0.66709 0.88320
 C357 C 0.01445 0.63699 0.91129
 O358 O 0.05163 0.58232 0.89857
 H359 H -0.10461 0.63573 0.82355
 H360 H -0.09170 0.71267 0.88549
 C361 C 0.25458 0.93813 0.86197
 C362 C 0.12862 0.93247 0.85757
 C363 C 0.08757 0.89962 0.88998
 C364 C 0.19117 0.88798 0.91166
 O365 O 0.29099 0.91190 0.89512
 H366 H 0.07237 0.95172 0.83453
 H367 H -0.00576 0.88516 0.89661
 C368 C 0.59983 0.40392 0.85520
 C369 C 0.65644 0.35124 0.84079
 C370 C 0.65370 0.31116 0.87157
 C371 C 0.60144 0.34268 0.90335
 O372 O 0.57152 0.39946 0.89383
 H373 H 0.70293 0.34407 0.81226
 H374 H 0.69894 0.26703 0.87228
 C375 C 1.03523 0.35514 0.85779
 C376 C 0.98203 0.30161 0.84344
 C377 C 0.97288 0.26344 0.87515
 C378 C 1.01409 0.29726 0.90720
 O379 O 1.05056 0.35297 0.89698
 H380 H 0.94385 0.29270 0.81433
 H381 H 0.92711 0.21921 0.87580
 C382 C 0.62680 0.05874 0.86024
 C383 C 0.74979 0.04410 0.85667
 C384 C 0.80407 0.07126 0.88900
 C385 C 0.70986 0.10013 0.90983
 O386 O 0.60259 0.09230 0.89257
 H387 H 0.79357 0.01543 0.83401
 H388 H 0.90038 0.07032 0.89640
   
