data_POSCAR
  _audit_creation_date              2014-09-24
  _audit_creation_method            'ToBaCCo'
  _symmetry_space_group_name_H-M    'P1'
  _symmetry_Int_Tables_number       1
  _symmetry_cell_setting            triclinic
  loop_
  _symmetry_equiv_pos_as_xyz
 x,y,z
_cell_length_a 35.7549
_cell_length_b 39.4738
_cell_length_c 35.2862
_cell_angle_alpha 90.058800
_cell_angle_beta 89.917600
_cell_angle_gamma 89.911900
loop_
  _atom_site_label
  _atom_site_type_symbol
  _atom_site_fract_x
  _atom_site_fract_y
  _atom_site_fract_z
C1 C 1.25083 0.24937 0.24898
 C2 C 0.75087 -0.25022 0.25015
 C3 C 0.75047 0.25000 -0.25000
 C4 C 1.24959 -0.25027 -0.25153
 C5 C 0.24975 0.25024 0.75160
 C6 C 0.75076 0.74998 0.74984
 C7 C 0.74903 0.25031 0.25004
 C8 C 0.24922 0.75046 0.25078
 N9 N 1.06611 0.03379 0.04207
 N10 N 1.09191 0.05655 0.04998
 N11 N 1.03953 -0.03737 0.06743
 N12 N 1.04583 -0.06116 0.09293
 N13 N 1.06591 -0.03739 0.04149
 N14 N 1.09093 -0.06119 0.04866
 N15 N 1.03976 0.03384 0.06805
 N16 N 1.04697 0.05664 0.09444
 C17 C 1.07926 0.07082 0.08235
 C18 C 1.07770 -0.07598 0.08053
 N19 N 0.93349 -0.03698 0.03946
 N20 N 0.90849 -0.06095 0.04570
 N21 N 0.95901 0.03405 0.06686
 N22 N 0.95093 0.05655 0.09336
 N23 N 0.93337 0.03422 0.04021
 N24 N 0.90719 0.05685 0.04785
 N25 N 0.95911 -0.03708 0.06611
 N26 N 0.95233 -0.06110 0.09115
 Mn27 Mn 0.99934 -0.00160 0.06747
 C28 C 0.92098 -0.07590 0.07777
 C29 C 0.91891 0.07081 0.08073
 N30 N 1.06710 -0.03663 -0.04011
 N31 N 1.09205 -0.06064 -0.04635
 N32 N 1.04188 0.03500 -0.06617
 N33 N 1.04899 0.05918 -0.09100
 N34 N 1.06741 0.03457 -0.03944
 N35 N 1.09257 0.05846 -0.04531
 N36 N 1.04173 -0.03628 -0.06698
 N37 N 1.04873 -0.06012 -0.09232
 Mn38 Mn 1.06699 -0.00142 0.00099
 C39 C 1.07992 -0.07521 -0.07870
 C40 C 1.08043 0.07372 -0.07730
 N41 N 0.93468 0.03500 -0.04160
 N42 N 0.90960 0.05878 -0.04863
 N43 N 0.96115 -0.03607 -0.06829
 N44 N 0.95519 -0.05997 -0.09377
 N45 N 0.93480 -0.03630 -0.04232
 N46 N 0.91016 -0.06035 -0.04940
 N47 N 0.96112 0.03521 -0.06750
 N48 N 0.95474 0.05913 -0.09285
 Mn49 Mn 0.93369 -0.00102 -0.00109
 Mn50 Mn 1.00148 -0.00051 -0.06765
 Cl51 Cl 1.00035 -0.00110 -0.00007
 C52 C 0.92278 0.07378 -0.08040
 C53 C 0.92354 -0.07501 -0.08131
 N54 N 1.06760 0.53563 0.53966
 N55 N 1.09218 0.55993 0.54566
 N56 N 1.04269 0.46390 0.56544
 N57 N 1.05023 0.43992 0.59038
 N58 N 1.06817 0.46444 0.53858
 N59 N 1.09370 0.44083 0.54448
 N60 N 1.04226 0.53518 0.56664
 N61 N 1.04890 0.55921 0.59179
 C62 C 1.07987 0.57451 0.57800
 C63 C 1.08182 0.42557 0.57659
 N64 N 0.93542 0.46405 0.54138
 N65 N 0.91034 0.44033 0.54847
 N66 N 0.96170 0.53498 0.56835
 N67 N 0.95576 0.55883 0.59392
 N68 N 0.93532 0.53534 0.54248
 N69 N 0.91067 0.55943 0.54974
 N70 N 0.96191 0.46369 0.56715
 N71 N 0.95557 0.43975 0.59247
 Mn72 Mn 1.00215 0.49941 0.56731
 C73 C 0.92359 0.42521 0.58013
 C74 C 0.92407 0.57397 0.58164
 N75 N 1.06670 0.46562 0.45703
 N76 N 1.09264 0.44300 0.44870
 N77 N 1.03985 0.53693 0.43228
 N78 N 1.04597 0.56093 0.40699
 N79 N 1.06627 0.53680 0.45809
 N80 N 1.09114 0.56070 0.45105
 N81 N 1.04028 0.46572 0.43120
 N82 N 1.04757 0.44318 0.40451
 Mn83 Mn 1.06754 0.50063 0.49836
 C84 C 1.07998 0.42900 0.41625
 C85 C 1.07778 0.57571 0.41938
 N86 N 0.93385 0.53640 0.46074
 N87 N 0.90869 0.56033 0.45467
 N88 N 0.95952 0.46550 0.43279
 N89 N 0.95142 0.44312 0.40621
 N90 N 0.93396 0.46521 0.45960
 N91 N 0.90783 0.44263 0.45199
 N92 N 0.95942 0.53663 0.43397
 N93 N 0.95246 0.56069 0.40903
 Mn94 Mn 0.93425 0.50025 0.50107
 Mn95 Mn 0.99975 0.50115 0.43220
 Cl96 Cl 1.00090 0.50032 0.49973
 C97 C 0.92104 0.57539 0.42260
 C98 C 0.91948 0.42881 0.41896
 N99 N 0.56460 0.03534 0.54248
 N100 N 0.58966 0.05902 0.54981
 N101 N 0.53832 -0.03570 0.56903
 N102 N 0.54435 -0.05942 0.59467
 N103 N 0.56481 -0.03598 0.54319
 N104 N 0.58962 -0.05990 0.55055
 N105 N 0.53801 0.03558 0.56822
 N106 N 0.54426 0.05940 0.59375
 C107 C 0.57628 0.07400 0.58157
 C108 C 0.57618 -0.07443 0.58246
 N109 N 0.43251 -0.03644 0.54032
 N110 N 0.40796 -0.06079 0.54618
 N111 N 0.45724 0.03528 0.56649
 N112 N 0.44971 0.05931 0.59145
 N113 N 0.43184 0.03476 0.53963
 N114 N 0.40636 0.05844 0.54556
 N115 N 0.45778 -0.03602 0.56729
 N116 N 0.45111 -0.06012 0.59232
 Mn117 Mn 0.49783 -0.00019 0.56817
 C118 C 0.42020 -0.07542 0.57844
 C119 C 0.41818 0.07370 0.57768
 N120 N 0.56651 -0.03682 0.46135
 N121 N 0.59185 -0.06056 0.45495
 N122 N 0.54075 0.03414 0.43388
 N123 N 0.54871 0.05669 0.40748
 N124 N 0.56628 0.03440 0.46063
 N125 N 0.59229 0.05716 0.45315
 N126 N 0.54097 -0.03699 0.43462
 N127 N 0.54813 -0.06081 0.40939
 Mn128 Mn 0.56595 -0.00077 0.50194
 C129 C 0.57962 -0.07547 0.42272
 C130 C 0.58057 0.07109 0.42026
 N131 N 0.43354 0.03382 0.45812
 N132 N 0.40771 0.05658 0.45006
 N133 N 0.46055 -0.03739 0.43292
 N134 N 0.45436 -0.06113 0.40730
 N135 N 0.43406 -0.03737 0.45873
 N136 N 0.40907 -0.06109 0.45135
 N137 N 0.46003 0.03383 0.43230
 N138 N 0.45291 0.05659 0.40587
 Mn139 Mn 0.43263 -0.00132 0.49922
 Mn140 Mn 0.50060 -0.00157 0.43308
 Cl141 Cl 0.49928 -0.00092 0.50060
 C142 C 0.42051 0.07079 0.41777
 C143 C 0.42245 -0.07589 0.41950
 N144 N 0.56626 0.53761 0.03878
 N145 N 0.59156 0.56130 0.04519
 N146 N 0.54091 0.46654 0.06618
 N147 N 0.54905 0.44394 0.09247
 N148 N 0.56639 0.46639 0.03930
 N149 N 0.59254 0.44366 0.04658
 N150 N 0.54079 0.53767 0.06565
 N151 N 0.54795 0.56138 0.09098
 C152 C 0.57936 0.57608 0.07755
 C153 C 0.58096 0.42964 0.07949
 N154 N 0.43363 0.46678 0.04249
 N155 N 0.40791 0.44399 0.05062
 N156 N 0.46038 0.53796 0.06774
 N157 N 0.45424 0.56172 0.09339
 N158 N 0.43382 0.53797 0.04208
 N159 N 0.40882 0.56174 0.04959
 N160 N 0.46018 0.46674 0.06818
 N161 N 0.45320 0.44392 0.09458
 Mn162 Mn 0.50058 0.50219 0.06729
 C163 C 0.42084 0.42973 0.08281
 C164 C 0.42227 0.57652 0.08137
 N165 N 0.56454 0.46564 -0.04253
 N166 N 0.58964 0.44195 -0.04998
 N167 N 0.53784 0.53672 -0.06875
 N168 N 0.54376 0.56043 -0.09441
 N169 N 0.56439 0.53697 -0.04305
 N170 N 0.58912 0.56086 -0.05053
 N171 N 0.53790 0.46543 -0.06815
 N172 N 0.54416 0.44161 -0.09371
 Mn173 Mn 0.56579 0.50166 -0.00190
 C174 C 0.57625 0.42699 -0.08168
 C175 C 0.57557 0.57542 -0.08236
 N176 N 0.43207 0.53723 -0.03952
 N177 N 0.40702 0.56118 -0.04553
 N178 N 0.45716 0.46562 -0.06600
 N179 N 0.44987 0.44149 -0.09087
 N180 N 0.43179 0.46603 -0.03904
 N181 N 0.40657 0.44217 -0.04479
 N182 N 0.45728 0.53690 -0.06663
 N183 N 0.45006 0.56068 -0.09189
 Mn184 Mn 0.43247 0.50201 0.00149
 Mn185 Mn 0.49753 0.50115 -0.06779
 Cl186 Cl 0.49912 0.50172 -0.00023
 C187 C 0.41892 0.57573 -0.07799
 C188 C 0.41851 0.42695 -0.07695
 C189 C 1.21285 0.19663 0.16452
 C190 C 1.18361 0.17909 0.18196
 C191 C 1.17718 0.18308 0.22073
 C192 C 1.19917 0.20534 0.24179
 C193 C 1.22733 0.22501 0.22430
 C194 C 1.23492 0.21897 0.18553
 C195 C 1.16049 0.15659 0.16027
 C196 C 1.14107 0.13760 0.14231
 C197 C 1.11867 0.11501 0.12143
 C198 C 1.10015 0.09519 0.10361
 H199 H 1.21875 0.19290 0.13468
 H200 H 1.15513 0.16902 0.23471
 H201 H 1.19372 0.20780 0.27186
 H202 H 1.25812 0.23095 0.17123
 C203 C 1.16441 0.71670 0.69128
 C204 C 1.18038 0.68925 0.67218
 C205 C 1.21868 0.68292 0.67547
 C206 C 1.24061 0.70301 0.69919
 C207 C 1.22444 0.72908 0.72131
 C208 C 1.18630 0.73686 0.71504
 C209 C 1.15736 0.66668 0.65046
 C210 C 1.13847 0.64681 0.63310
 C211 C 1.11706 0.62253 0.61353
 C212 C 1.09956 0.60099 0.59721
 H213 H 1.13492 0.72237 0.68807
 H214 H 1.23150 0.66209 0.66020
 H215 H 1.27020 0.69746 0.70137
 H216 H 1.17302 0.75845 0.72826
 C217 C 0.69375 0.17219 0.71485
 C218 C 0.67438 0.18584 0.68408
 C219 C 0.67778 0.22037 0.67595
 C220 C 0.70159 0.24080 0.69762
 C221 C 0.72370 0.22688 0.72697
 C222 C 0.71755 0.19249 0.73646
 C223 C 0.65155 0.16401 0.66086
 C224 C 0.63331 0.14468 0.64187
 C225 C 0.61279 0.12095 0.62019
 C226 C 0.59587 0.09992 0.60224
 H227 H 0.69050 0.14570 0.72216
 H228 H 0.66228 0.23148 0.65270
 H229 H 0.70357 0.26748 0.69084
 H230 H 0.73077 0.18092 0.76074
 C231 C 0.67895 0.72089 0.17541
 C232 C 0.67595 0.68623 0.18276
 C233 C 0.69490 0.67219 0.21358
 C234 C 0.71819 0.69232 0.23593
 C235 C 0.72414 0.72683 0.22705
 C236 C 0.70220 0.74111 0.19780
 C237 C 0.65402 0.66470 0.15854
 C238 C 0.63642 0.64572 0.13864
 C239 C 0.61640 0.62244 0.11611
 C240 C 0.59951 0.60172 0.09783
 H241 H 0.66369 0.73223 0.15214
 H242 H 0.69185 0.64555 0.22026
 H243 H 0.73125 0.68052 0.26016
 H244 H 0.70410 0.76790 0.19149
 C245 C 0.80704 -0.21699 0.16349
 C246 C 0.82617 -0.18976 0.17967
 C247 C 0.82324 -0.18373 0.21858
 C248 C 0.79989 -0.20384 0.24090
 C249 C 0.77777 -0.22964 0.22455
 C250 C 0.78364 -0.23716 0.18576
 C251 C 0.84773 -0.16723 0.15627
 C252 C 0.86506 -0.14749 0.13707
 C253 C 0.88476 -0.12343 0.11532
 C254 C 0.90132 -0.10212 0.09759
 H255 H 0.80996 -0.22248 0.13354
 H256 H 0.83854 -0.16311 0.23160
 H257 H 0.79799 -0.19848 0.27095
 H258 H 0.77040 -0.25857 0.17226
 C259 C 0.82347 0.31648 0.71959
 C260 C 0.82638 0.31120 0.68054
 C261 C 0.80673 0.28454 0.66373
 C262 C 0.78303 0.26414 0.68556
 C263 C 0.77746 0.27080 0.72458
 C264 C 0.79984 0.29618 0.74144
 C265 C 0.84865 0.33386 0.65778
 C266 C 0.86665 0.35369 0.63920
 C267 C 0.88707 0.37782 0.61801
 C268 C 0.90399 0.39909 0.60043
 H269 H 0.83906 0.33665 0.73313
 H270 H 0.80953 0.27961 0.63365
 H271 H 0.76942 0.24319 0.67155
 H272 H 0.79801 0.30101 0.77160
 C273 C 0.28098 -0.18387 0.67528
 C274 C 0.31930 -0.19017 0.67222
 C275 C 0.33517 -0.21751 0.69150
 C276 C 0.31312 -0.23756 0.71525
 C277 C 0.27492 -0.22977 0.72131
 C278 C 0.25889 -0.20384 0.69898
 C279 C 0.34247 -0.16765 0.65055
 C280 C 0.36145 -0.14780 0.63325
 C281 C 0.38293 -0.12352 0.61378
 C282 C 0.40048 -0.10196 0.59754
 H283 H 0.26825 -0.16312 0.65986
 H284 H 0.36469 -0.22315 0.68848
 H285 H 0.32632 -0.25906 0.72864
 H286 H 0.22928 -0.19831 0.70100
 C287 C 0.28118 0.31578 0.17512
 C288 C 0.31910 0.31996 0.18333
 C289 C 0.33516 0.30220 0.21338
 C290 C 0.31370 0.27962 0.23460
 C291 C 0.27580 0.27342 0.22538
 C292 C 0.25960 0.29320 0.19632
 C293 C 0.34147 0.34298 0.16147
 C294 C 0.36030 0.36232 0.14331
 C295 C 0.38212 0.38522 0.12219
 C296 C 0.40024 0.40522 0.10420
 H297 H 0.26823 0.33005 0.15244
 H298 H 0.36428 0.30606 0.22068
 H299 H 0.32696 0.26765 0.25861
 H300 H 0.23015 0.29081 0.18976
 C301 C 0.82309 0.18305 -0.21961
 C302 C 0.82592 0.18829 -0.18057
 C303 C 0.80632 0.21507 -0.16373
 C304 C 0.78277 0.23563 -0.18555
 C305 C 0.77729 0.22902 -0.22458
 C306 C 0.79961 0.20350 -0.24145
 C307 C 0.84807 0.16551 -0.15782
 C308 C 0.86598 0.14557 -0.13929
 C309 C 0.88633 0.12133 -0.11816
 C310 C 0.90321 0.09998 -0.10063
 H311 H 0.83864 0.16280 -0.23317
 H312 H 0.80906 0.21997 -0.13365
 H313 H 0.76920 0.25665 -0.17153
 H314 H 0.79785 0.19870 -0.27161
 C315 C 0.80668 0.71641 0.33690
 C316 C 0.82582 0.68908 0.32077
 C317 C 0.82299 0.68299 0.28188
 C318 C 0.79973 0.70315 0.25951
 C319 C 0.77760 0.72908 0.27580
 C320 C 0.78337 0.73663 0.31458
 C321 C 0.84737 0.66657 0.34421
 C322 C 0.86472 0.64686 0.36343
 C323 C 0.88450 0.62284 0.38519
 C324 C 0.90118 0.60157 0.40288
 H325 H 0.80953 0.72195 0.36684
 H326 H 0.83831 0.66230 0.26890
 H327 H 0.79791 0.69777 0.22947
 H328 H 0.77013 0.75812 0.32805
 C329 C 0.32404 0.18282 0.27809
 C330 C 0.31739 0.17918 0.31686
 C331 C 0.28819 0.19710 0.33402
 C332 C 0.26637 0.21944 0.31273
 C333 C 0.27418 0.22511 0.27395
 C334 C 0.30230 0.20509 0.25675
 C335 C 0.34020 0.15663 0.33886
 C336 C 0.35933 0.13761 0.35712
 C337 C 0.38142 0.11499 0.37833
 C338 C 0.39973 0.09516 0.39637
 H339 H 0.34606 0.16846 0.26433
 H340 H 0.28212 0.19364 0.36386
 H341 H 0.24317 0.23169 0.32684
 H342 H 0.30787 0.20725 0.22668
 C343 C 0.32277 0.72091 -0.17814
 C344 C 0.31504 0.68638 -0.17464
 C345 C 0.28462 0.67241 -0.19384
 C346 C 0.26297 0.69247 -0.21787
 C347 C 0.27219 0.72682 -0.22430
 C348 C 0.30110 0.74107 -0.20212
 C349 C 0.33861 0.66487 -0.15214
 C350 C 0.35807 0.64584 -0.13423
 C351 C 0.38024 0.62244 -0.11415
 C352 C 0.39842 0.60157 -0.09748
 H353 H 0.34580 0.73217 -0.16270
 H354 H 0.27771 0.64587 -0.19042
 H355 H 0.23900 0.68078 -0.23110
 H356 H 0.30762 0.76778 -0.20435
 C357 C 1.17590 -0.22099 -0.17860
 C358 C 1.18363 -0.18645 -0.17525
 C359 C 1.21418 -0.17260 -0.19440
 C360 C 1.23599 -0.19281 -0.21823
 C361 C 1.22681 -0.22719 -0.22452
 C362 C 1.19774 -0.24130 -0.20238
 C363 C 1.15996 -0.16481 -0.15290
 C364 C 1.14046 -0.14566 -0.13508
 C365 C 1.11832 -0.12214 -0.11503
 C366 C 1.10023 -0.10116 -0.09833
 H367 H 1.15278 -0.23216 -0.16319
 H368 H 1.22107 -0.14603 -0.19108
 H369 H 1.26005 -0.18120 -0.23142
 H370 H 1.19123 -0.26802 -0.20450
 C371 C 1.16662 0.30278 0.28435
 C372 C 1.18271 0.32056 0.31437
 C373 C 1.22067 0.31639 0.32247
 C374 C 1.24223 0.29371 0.30126
 C375 C 1.22597 0.27381 0.27234
 C376 C 1.18808 0.28010 0.26311
 C377 C 1.16026 0.34343 0.33646
 C378 C 1.14130 0.36255 0.35487
 C379 C 1.11926 0.38513 0.37630
 C380 C 1.10090 0.40484 0.39456
 H381 H 1.13748 0.30663 0.27712
 H382 H 1.23363 0.33068 0.34514
 H383 H 1.27169 0.29125 0.30779
 H384 H 1.17478 0.26806 0.23917
 C385 C 0.69503 -0.17234 0.28669
 C386 C 0.67597 -0.18626 0.31752
 C387 C 0.67880 -0.22094 0.32486
 C388 C 0.70202 -0.24130 0.30246
 C389 C 0.72411 -0.22714 0.27321
 C390 C 0.71829 -0.19259 0.26433
 C391 C 0.65409 -0.16460 0.34178
 C392 C 0.63655 -0.14549 0.36169
 C393 C 0.61660 -0.12208 0.38422
 C394 C 0.59976 -0.10123 0.40249
 H395 H 0.69210 -0.14567 0.28002
 H396 H 0.66345 -0.23219 0.34814
 H397 H 0.70382 -0.26809 0.30877
 H398 H 0.73146 -0.18087 0.24010
 C399 C 0.69396 0.32817 -0.21490
 C400 C 0.67442 0.31465 -0.18415
 C401 C 0.67766 0.28011 -0.17599
 C402 C 0.70147 0.25953 -0.19763
 C403 C 0.72374 0.27330 -0.22697
 C404 C 0.71777 0.30773 -0.23648
 C405 C 0.65156 0.33662 -0.16097
 C406 C 0.63330 0.35606 -0.14202
 C407 C 0.61276 0.37990 -0.12036
 C408 C 0.59583 0.40100 -0.10240
 H409 H 0.69084 0.35468 -0.22223
 H410 H 0.66202 0.26910 -0.15276
 H411 H 0.70331 0.23283 -0.19084
 H412 H 0.73111 0.31920 -0.26075
 C413 C 1.16432 0.21590 -0.19191
 C414 C 1.18068 0.18899 -0.17222
 C415 C 1.21921 0.18357 -0.17494
 C416 C 1.24099 0.20394 -0.19857
 C417 C 1.22455 0.22949 -0.22118
 C418 C 1.18607 0.23636 -0.21560
 C419 C 1.15794 0.16613 -0.15030
 C420 C 1.13933 0.14608 -0.13271
 C421 C 1.11813 0.12168 -0.11286
 C422 C 1.10058 0.10014 -0.09641
 H423 H 1.13463 0.22092 -0.18921
 H424 H 1.23237 0.16320 -0.15928
 H425 H 1.27074 0.19899 -0.20033
 H426 H 1.17243 0.25748 -0.22929
 C427 C 1.17993 0.68230 0.28012
 C428 C 1.17370 0.68991 0.31824
 C429 C 1.18983 0.71888 0.33400
 C430 C 1.21361 0.73925 0.31227
 C431 C 1.22338 0.73020 0.27453
 C432 C 1.20367 0.70253 0.25834
 C433 C 1.15157 0.66735 0.34123
 C434 C 1.13381 0.64752 0.36000
 C435 C 1.11373 0.62333 0.38140
 C436 C 1.09710 0.60196 0.39908
 H437 H 1.16681 0.66041 0.26725
 H438 H 1.18419 0.72568 0.36321
 H439 H 1.22429 0.76202 0.32541
 H440 H 1.20765 0.69583 0.22884
 C441 C 0.66502 0.19785 0.28764
 C442 C 0.68168 0.18005 0.31737
 C443 C 0.71983 0.18402 0.32454
 C444 C 0.74103 0.20641 0.30271
 C445 C 0.72431 0.22624 0.27398
 C446 C 0.68615 0.22028 0.26576
 C447 C 0.65973 0.15722 0.34005
 C448 C 0.64134 0.13802 0.35894
 C449 C 0.61989 0.11527 0.38079
 C450 C 0.60178 0.09542 0.39908
 H451 H 0.63570 0.19419 0.28112
 H452 H 0.73325 0.16977 0.34696
 H453 H 0.77063 0.20871 0.30860
 H454 H 0.67240 0.23234 0.24209
 C455 C 0.69303 0.67284 -0.21543
 C456 C 0.67377 0.68670 -0.18465
 C457 C 0.67768 0.72112 -0.17624
 C458 C 0.70190 0.74127 -0.19772
 C459 C 0.72386 0.72711 -0.22712
 C460 C 0.71726 0.69285 -0.23686
 C461 C 0.65061 0.66516 -0.16160
 C462 C 0.63218 0.64599 -0.14269
 C463 C 0.61161 0.62239 -0.12107
 C464 C 0.59480 0.60137 -0.10311
 H465 H 0.68940 0.64641 -0.22289
 H466 H 0.66226 0.73235 -0.15294
 H467 H 0.70425 0.76791 -0.19079
 H468 H 0.73042 0.68121 -0.26119
 C469 C 0.80749 -0.21594 -0.16430
 C470 C 0.82698 -0.18921 -0.18113
 C471 C 0.82366 -0.18358 -0.22004
 C472 C 0.79979 -0.20366 -0.24176
 C473 C 0.77762 -0.22916 -0.22486
 C474 C 0.78356 -0.23613 -0.18600
 C475 C 0.84940 -0.16674 -0.15849
 C476 C 0.86744 -0.14694 -0.14003
 C477 C 0.88774 -0.12275 -0.11902
 C478 C 0.90442 -0.10133 -0.10155
 H479 H 0.81061 -0.22107 -0.13431
 H480 H 0.83912 -0.16332 -0.23356
 H481 H 0.79769 -0.19865 -0.27185
 H482 H 0.77007 -0.25719 -0.17207
 C483 C 0.82234 0.31699 0.27883
 C484 C 0.81551 0.32106 0.31755
 C485 C 0.78620 0.30338 0.33469
 C486 C 0.76448 0.28090 0.31349
 C487 C 0.77245 0.27476 0.27479
 C488 C 0.80067 0.29455 0.25757
 C489 C 0.83827 0.34370 0.33960
 C490 C 0.85733 0.36268 0.35805
 C491 C 0.87946 0.38515 0.37952
 C492 C 0.89801 0.40476 0.39768
 H493 H 0.84444 0.33114 0.26504
 H494 H 0.77996 0.30713 0.36446
 H495 H 0.74121 0.26887 0.32763
 H496 H 0.80638 0.29209 0.22754
 C497 C 0.30882 -0.17459 0.28321
 C498 C 0.32490 -0.18739 0.31624
 C499 C 0.31838 -0.22103 0.32654
 C500 C 0.29446 -0.24127 0.30483
 C501 C 0.27482 -0.22788 0.27321
 C502 C 0.28490 -0.19467 0.26150
 C503 C 0.34757 -0.16559 0.33960
 C504 C 0.36569 -0.14632 0.35875
 C505 C 0.38609 -0.12269 0.38061
 C506 C 0.40293 -0.10173 0.39872
 H507 H 0.31469 -0.14890 0.27419
 H508 H 0.33156 -0.23160 0.35151
 H509 H 0.29047 -0.26734 0.31343
 H510 H 0.27432 -0.18381 0.23550
 C511 C 0.27981 0.31726 -0.17506
 C512 C 0.31830 0.31178 -0.17210
 C513 C 0.33479 0.28478 -0.19163
 C514 C 0.31319 0.26425 -0.21539
 C515 C 0.27477 0.27113 -0.22118
 C516 C 0.25819 0.29681 -0.19875
 C517 C 0.34091 0.33467 -0.15008
 C518 C 0.35945 0.35471 -0.13241
 C519 C 0.38064 0.37908 -0.11248
 C520 C 0.39823 0.40058 -0.09602
 H521 H 0.26655 0.33770 -0.15952
 H522 H 0.36444 0.27972 -0.18874
 H523 H 0.32692 0.24305 -0.22892
 H524 H 0.22846 0.30178 -0.20068
 C525 C 1.19023 -0.21823 0.16725
 C526 C 1.17386 -0.18924 0.18284
 C527 C 1.17979 -0.18152 0.22097
 C528 C 1.20348 -0.20166 0.24291
 C529 C 1.22345 -0.22934 0.22688
 C530 C 1.21397 -0.23851 0.18913
 C531 C 1.15176 -0.16681 0.15966
 C532 C 1.13400 -0.14714 0.14066
 C533 C 1.11390 -0.12318 0.11898
 C534 C 1.09719 -0.10201 0.10105
 H535 H 1.18483 -0.22512 0.13803
 H536 H 1.16646 -0.15962 0.23370
 H537 H 1.20722 -0.19490 0.27241
 H538 H 1.22484 -0.26129 0.17610
 C539 C 1.17679 0.27957 0.67782
 C540 C 1.18465 0.31412 0.67440
 C541 C 1.21495 0.32789 0.69398
 C542 C 1.23636 0.30768 0.71813
 C543 C 1.22709 0.27328 0.72438
 C544 C 1.19825 0.25923 0.70194
 C545 C 1.16150 0.33584 0.65147
 C546 C 1.14246 0.35508 0.63322
 C547 C 1.12068 0.37870 0.61278
 C548 C 1.10261 0.39968 0.59598
 H549 H 1.15388 0.26840 0.66213
 H550 H 1.22203 0.35441 0.69070
 H551 H 1.26026 0.31931 0.73154
 H552 H 1.19165 0.23253 0.70398
 C553 C 0.67825 -0.22065 0.67570
 C554 C 0.67437 -0.18623 0.68418
 C555 C 0.69355 -0.17250 0.71501
 C556 C 0.71761 -0.19267 0.73645
 C557 C 0.72415 -0.22696 0.72669
 C558 C 0.70231 -0.24095 0.69719
 C559 C 0.65129 -0.16455 0.66120
 C560 C 0.63288 -0.14527 0.64238
 C561 C 0.61231 -0.12156 0.62091
 C562 C 0.59547 -0.10046 0.60307
 H563 H 0.66290 -0.23177 0.65236
 H564 H 0.68993 -0.14607 0.72252
 H565 H 0.73067 -0.18113 0.76084
 H566 H 0.70461 -0.26760 0.69023
 C567 C 0.71246 0.30257 0.16453
 C568 C 0.68323 0.32072 0.18130
 C569 C 0.67608 0.31705 0.22001
 C570 C 0.69743 0.29462 0.24165
 C571 C 0.72565 0.27445 0.22482
 C572 C 0.73386 0.28010 0.18609
 C573 C 0.66098 0.34354 0.15891
 C574 C 0.64235 0.36273 0.14024
 C575 C 0.62066 0.38546 0.11861
 C576 C 0.60236 0.40531 0.10049
 H577 H 0.71895 0.30599 0.13477
 H578 H 0.65403 0.33157 0.23351
 H579 H 0.69156 0.29255 0.27167
 H580 H 0.75715 0.26776 0.17223
 C581 C 0.83316 0.19728 0.21328
 C582 C 0.81662 0.17923 0.18367
 C583 C 0.77845 0.18309 0.17644
 C584 C 0.75713 0.20567 0.19803
 C585 C 0.77377 0.22581 0.22654
 C586 C 0.81192 0.21989 0.23492
 C587 C 0.83876 0.15640 0.16108
 C588 C 0.85740 0.13728 0.14224
 C589 C 0.87914 0.11468 0.12040
 C590 C 0.89750 0.09497 0.10206
 H591 H 0.86249 0.19370 0.21986
 H592 H 0.76513 0.16864 0.15411
 H593 H 0.72753 0.20793 0.19207
 H594 H 0.82560 0.23218 0.25848
 C595 C 0.80799 0.71547 0.66427
 C596 C 0.82725 0.68865 0.68123
 C597 C 0.82360 0.68306 0.72013
 C598 C 0.79964 0.70330 0.74171
 C599 C 0.77771 0.72892 0.72468
 C600 C 0.78396 0.73583 0.68584
 C601 C 0.84979 0.66604 0.65872
 C602 C 0.86791 0.64614 0.64037
 C603 C 0.88828 0.62184 0.61943
 C604 C 0.90499 0.60035 0.60197
 H605 H 0.81136 0.72057 0.63430
 H606 H 0.83889 0.66272 0.73373
 H607 H 0.79729 0.69832 0.77179
 H608 H 0.77065 0.75695 0.67182
 C609 C 0.32319 0.22043 0.67826
 C610 C 0.31529 0.18587 0.67496
 C611 C 0.28484 0.17224 0.69448
 C612 C 0.26330 0.19261 0.71845
 C613 C 0.27257 0.22702 0.72459
 C614 C 0.30159 0.24092 0.70220
 C615 C 0.33854 0.16399 0.65219
 C616 C 0.35761 0.14461 0.63407
 C617 C 0.37941 0.12083 0.61375
 C618 C 0.39745 0.09972 0.59703
 H619 H 0.34621 0.23149 0.66261
 H620 H 0.27775 0.14571 0.69128
 H621 H 0.23929 0.18107 0.73180
 H622 H 0.30820 0.26762 0.70415
 C623 C 0.30921 0.67554 0.21839
 C624 C 0.32531 0.68834 0.18534
 C625 C 0.31882 0.72202 0.17512
 C626 C 0.29484 0.74228 0.19689
 C627 C 0.27511 0.72886 0.22846
 C628 C 0.28522 0.69564 0.24015
 C629 C 0.34787 0.66648 0.16182
 C630 C 0.36586 0.64715 0.14252
 C631 C 0.38610 0.62345 0.12047
 C632 C 0.40283 0.60243 0.10224
 H633 H 0.31507 0.64982 0.22735
 H634 H 0.33202 0.73258 0.15015
 H635 H 0.29082 0.76836 0.18831
 H636 H 0.27458 0.68477 0.26613
   
