data_POSCAR
  _audit_creation_date              2014-09-24
  _audit_creation_method            'ToBaCCo'
  _symmetry_space_group_name_H-M    'P1'
  _symmetry_Int_Tables_number       1
  _symmetry_cell_setting            triclinic
  loop_
  _symmetry_equiv_pos_as_xyz
 x,y,z
_cell_length_a 23.3930
_cell_length_b 23.4158
_cell_length_c 23.3576
_cell_angle_alpha 89.819400
_cell_angle_beta 90.156000
_cell_angle_gamma 89.852600
loop_
  _atom_site_label
  _atom_site_type_symbol
  _atom_site_fract_x
  _atom_site_fract_y
  _atom_site_fract_z
C1 C 0.16336 0.16348 0.23258
 N2 N 0.13920 0.20981 0.20713
 C3 C 0.16268 0.23219 0.15901
 N4 N 0.21011 0.20804 0.13608
 C5 C 0.23432 0.16169 0.16145
 N6 N 0.21080 0.13924 0.20958
 C7 C -0.15812 0.83930 0.23496
 N8 N -0.20615 0.86316 0.21241
 C9 C -0.23151 0.83932 0.16596
 N10 N -0.20855 0.79189 0.14183
 C11 C -0.16056 0.76804 0.16438
 N12 N -0.13524 0.79186 0.21082
 C13 C -0.16638 0.16047 -0.23358
 N14 N -0.21278 0.13544 -0.20958
 C15 C -0.23718 0.15872 -0.16242
 N16 N -0.21490 0.20679 -0.13903
 C17 C -0.16851 0.23183 -0.16307
 N18 N -0.14411 0.20851 -0.21019
 C19 C 0.16469 0.84134 -0.23271
 N20 N 0.13950 0.79394 -0.21088
 C21 C 0.16162 0.76821 -0.16363
 N22 N 0.20876 0.79015 -0.13789
 C23 C 0.23402 0.83757 -0.15969
 N24 N 0.21184 0.86328 -0.20700
 C25 C 0.16302 1.16322 0.76721
 N26 N 0.13860 1.21057 0.79014
 C27 C 0.16104 1.23425 0.83819
 N28 N 0.20759 1.21029 0.86352
 C29 C 0.23193 1.16295 0.84063
 N30 N 0.20954 1.13934 0.79261
 C31 C 0.83922 0.84136 0.76426
 N32 N 0.79191 0.86455 0.78845
 C33 C 0.76798 0.83948 0.83499
 N34 N 0.79162 0.79143 0.85761
 C35 C 0.83892 0.76817 0.83342
 N36 N 0.86285 0.79328 0.78687
 C37 C 0.16078 0.83554 1.23540
 N38 N 0.13564 0.78920 1.21144
 C39 C 0.15882 0.76487 1.16421
 N40 N 0.20686 0.78711 1.14068
 C41 C 0.23202 0.83341 1.16462
 N42 N 0.20882 0.85779 1.21183
 C43 C 0.84182 1.16431 1.23262
 N44 N 0.79445 1.13911 1.21070
 C45 C 0.76855 1.16146 1.16366
 N46 N 0.79027 1.20884 1.13823
 C47 C 0.83764 1.23411 1.16013
 N48 N 0.86355 1.21170 1.20722
 O49 O 0.41984 1.10111 1.10325
 O50 O 0.35705 1.04642 1.05131
 C51 C 0.36866 1.08578 1.08834
 O52 O 0.57921 1.09730 0.89834
 O53 O 0.64252 1.04526 0.95299
 C54 C 0.63051 1.08237 0.91351
 O55 O 0.41883 1.10180 0.90354
 O56 O 0.35663 1.04603 0.95501
 C57 C 0.36785 1.08599 0.91830
 O58 O 0.58054 1.09702 1.10706
 O59 O 0.64307 1.04514 1.05203
 C60 C 0.63163 1.08226 1.09135
 Zr61 Zr 0.50014 1.06919 1.07564
 O62 O 0.50577 1.15941 1.07584
 O63 O 0.49466 1.06791 1.16611
 Zr64 Zr 0.49926 1.06972 0.93076
 O65 O 0.50511 1.15994 0.93112
 O66 O 0.49249 1.06967 0.84035
 O67 O 0.44864 1.08060 1.00338
 O68 O 0.54920 1.07997 1.00299
 O69 O 0.58160 0.89779 1.10760
 O70 O 0.64364 0.94996 1.05223
 C71 C 0.63259 0.91300 1.09201
 O72 O 0.41939 0.89352 0.90321
 O73 O 0.35683 0.94779 0.95590
 C74 C 0.36827 0.90879 0.91841
 O75 O 0.58009 0.89846 0.89800
 O76 O 0.64293 0.95017 0.95291
 C77 C 0.63128 0.91348 0.91321
 O78 O 0.42072 0.89254 1.10329
 O79 O 0.35749 0.94753 1.05146
 C80 C 0.36941 0.90798 1.08850
 Zr81 Zr 0.50084 0.92459 1.07542
 O82 O 0.50751 0.83441 1.07423
 O83 O 0.49529 0.92374 1.16586
 Zr84 Zr 0.49984 0.92515 0.93076
 O85 O 0.50640 0.83495 0.93200
 O86 O 0.49319 0.92486 0.84036
 Zr87 Zr 0.41502 0.99714 1.00349
 Zr88 Zr 0.58496 0.99740 1.00279
 O89 O 0.55009 0.91463 1.00289
 O90 O 0.44928 0.91372 1.00328
 O91 O 0.55153 0.99698 1.08654
 O92 O 0.44998 0.99741 0.92053
 O93 O 0.45099 0.99678 1.08619
 O94 O 0.55041 0.99758 0.91932
 H95 H 0.57480 1.11361 1.00281
 H96 H 0.42412 0.99748 0.88687
 H97 H 0.57622 0.88126 1.00280
 H98 H 0.42539 0.99666 1.11991
 H99 H 0.52476 1.04690 0.82532
 H100 H 0.52404 0.94944 0.82530
 H101 H 0.47344 0.82010 0.95387
 H102 H 0.47461 0.81968 1.05211
 H103 H 0.52622 0.94836 1.18068
 H104 H 0.52786 1.04601 1.18076
 H105 H 0.47394 1.17429 1.05212
 H106 H 0.47304 1.17466 0.95435
 O107 O -0.10734 0.41959 0.09669
 O108 O -0.05233 0.35704 0.04485
 C109 C -0.09166 0.36851 0.08201
 O110 O -0.10270 0.58133 -0.10823
 O111 O -0.05050 0.64332 -0.05288
 C112 C -0.08748 0.63227 -0.09266
 O113 O -0.10823 0.42050 -0.10331
 O114 O -0.05341 0.35738 -0.05116
 C115 C -0.09300 0.36926 -0.08819
 O116 O -0.10242 0.58006 0.10134
 O117 O -0.05049 0.64273 0.04642
 C118 C -0.08726 0.63116 0.08611
 Zr119 Zr -0.07585 0.49985 0.06862
 O120 O -0.16614 0.50644 0.06647
 O121 O -0.07706 0.49346 0.15901
 Zr122 Zr -0.07581 0.50063 -0.07607
 O123 O -0.16607 0.50741 -0.07594
 O124 O -0.07566 0.49481 -0.16650
 O125 O -0.08705 0.44924 -0.00382
 O126 O -0.08605 0.54995 -0.00362
 O127 O 0.09625 0.57900 0.10168
 O128 O 0.04450 0.64226 0.04668
 C129 C 0.08136 0.63025 0.08642
 O130 O 0.10077 0.41969 -0.10342
 O131 O 0.04509 0.35711 -0.05230
 C132 C 0.08493 0.36860 -0.08891
 O133 O 0.09693 0.58019 -0.10721
 O134 O 0.04481 0.64272 -0.05243
 C135 C 0.08213 0.63126 -0.09162
 O136 O 0.10086 0.41862 0.09628
 O137 O 0.04598 0.35643 0.04385
 C138 C 0.08547 0.36768 0.08107
 Zr139 Zr 0.06899 0.49912 0.06907
 O140 O 0.15929 0.50501 0.06870
 O141 O 0.06910 0.49234 0.15948
 Zr142 Zr 0.06893 0.49991 -0.07572
 O143 O 0.15925 0.50542 -0.07532
 O144 O 0.06816 0.49445 -0.16618
 Zr145 Zr -0.00357 0.41499 -0.00364
 Zr146 Zr -0.00317 0.58472 -0.00325
 O147 O 0.07948 0.54900 -0.00314
 O148 O 0.08002 0.44847 -0.00342
 O149 O -0.00329 0.55023 0.08024
 O150 O -0.00359 0.45081 -0.08642
 O151 O -0.00348 0.45004 0.07924
 O152 O -0.00329 0.55126 -0.08697
 H153 H -0.11944 0.57607 -0.00362
 H154 H -0.00382 0.42522 -0.12011
 H155 H 0.11313 0.57461 -0.00286
 H156 H -0.00331 0.42428 0.11296
 H157 H -0.05203 0.52654 -0.18127
 H158 H 0.04584 0.52731 -0.18092
 H159 H 0.17398 0.47324 -0.05200
 H160 H 0.17409 0.47271 0.04588
 H161 H 0.04569 0.52415 0.17448
 H162 H -0.05168 0.52359 0.17415
 H163 H -0.18091 0.47270 0.04586
 H164 H -0.18097 0.47563 -0.05237
 O165 O 1.10774 -0.09671 0.58143
 O166 O 1.05245 -0.04465 0.64360
 C167 C 1.09210 -0.08165 0.63248
 O168 O 1.10330 0.10661 0.41938
 O169 O 1.05150 0.05172 0.35663
 C170 C 1.08854 0.09105 0.36815
 O171 O 1.10683 0.10281 0.58043
 O172 O 1.05202 0.05067 0.64302
 C173 C 1.09120 0.08793 0.63161
 O174 O 1.10313 -0.10215 0.42042
 O175 O 1.05140 -0.04725 0.35700
 C176 C 1.08819 -0.08695 0.36902
 Zr177 Zr 1.07594 -0.06958 0.50059
 O178 O 1.16624 -0.06875 0.49478
 O179 O 1.07645 -0.15975 0.50737
 Zr180 Zr 1.07547 0.07490 0.49986
 O181 O 1.16581 0.07432 0.49453
 O182 O 1.07485 0.16513 0.50533
 O183 O 1.08665 0.00277 0.55141
 O184 O 1.08627 0.00253 0.45059
 O185 O 0.90391 -0.10162 0.41928
 O186 O 0.95611 -0.04708 0.35651
 C187 C 0.91894 -0.08632 0.36807
 O188 O 0.89795 0.10171 0.57904
 O189 O 0.95297 0.05014 0.64249
 C190 C 0.91310 0.08674 0.63044
 O191 O 0.90379 0.10674 0.41810
 O192 O 0.95616 0.05181 0.35589
 C193 C 0.91901 0.09130 0.36705
 O194 O 0.89908 -0.09709 0.57991
 O195 O 0.95345 -0.04496 0.64285
 C196 C 0.91422 -0.08209 0.63116
 Zr197 Zr 0.93127 -0.06967 0.49963
 O198 O 0.84099 -0.06946 0.49303
 O199 O 0.93212 -0.15988 0.50612
 Zr200 Zr 0.93085 0.07487 0.49891
 O201 O 0.84060 0.07511 0.49194
 O202 O 0.93133 0.16507 0.50491
 Zr203 Zr 1.00300 0.00275 0.58484
 Zr204 Zr 1.00365 0.00243 0.41466
 O205 O 0.92081 0.00252 0.44958
 O206 O 0.91966 0.00266 0.55022
 O207 O 1.00380 -0.08091 0.44912
 O208 O 1.00288 0.08535 0.54903
 O209 O 1.00345 -0.07995 0.54980
 O210 O 1.00333 0.08593 0.44824
 H211 H 1.11989 0.00236 0.42488
 H212 H 1.00251 0.11890 0.57476
 H213 H 0.88730 0.00255 0.42355
 H214 H 1.00350 -0.11346 0.57581
 H215 H 1.05185 0.17980 0.47285
 H216 H 0.95402 0.17987 0.47245
 H217 H 0.82558 0.05098 0.52327
 H218 H 0.82597 -0.04648 0.52513
 H219 H 0.95473 -0.17471 0.47366
 H220 H 1.05238 -0.17475 0.47600
 H221 H 1.18088 -0.04606 0.52728
 H222 H 1.18047 0.05176 0.52731
 C223 C 1.13858 0.13993 0.27955
 C224 C 1.11596 0.11829 0.32052
 C225 C 0.86805 -0.13612 0.28057
 C226 C 0.89142 -0.11382 0.32072
 C227 C 0.86066 0.13484 0.71779
 C228 C 0.88417 0.11302 0.67755
 C229 C 1.14142 -0.13219 0.72094
 C230 C 1.11961 -0.10892 0.68024
 C231 C 0.28070 1.13651 1.13734
 C232 C 0.32127 1.11375 1.11525
 C233 C 0.28023 0.86051 0.86695
 C234 C 0.32076 0.88182 0.89059
 C235 C 0.72152 0.86415 1.14214
 C236 C 0.68046 0.88635 1.11995
 C237 C 0.71739 1.13282 0.86255
 C238 C 0.67748 1.10971 0.88537
 C239 C 0.13626 0.28025 0.13141
 C240 C 0.11343 0.32031 0.10825
 C241 C -0.14346 0.28129 -0.13711
 C242 C -0.12117 0.32200 -0.11497
 C243 C 0.13381 0.71921 -0.13954
 C244 C 0.11017 0.67867 -0.11838
 C245 C -0.13527 0.71904 0.13773
 C246 C -0.11355 0.67851 0.11462
 C247 C 1.13957 0.13830 0.72028
 C248 C 1.11813 0.11551 0.67931
 C249 C 0.86397 -0.13270 0.71860
 C250 C 0.88648 -0.10951 0.67845
 C251 C 1.13658 -0.13894 0.28151
 C252 C 1.11469 -0.11563 0.32186
 C253 C 0.86843 0.14084 0.27878
 C254 C 0.89175 0.11888 0.31935
 C255 C 0.13572 0.28059 -0.13780
 C256 C 0.11289 0.32117 -0.11579
 C257 C -0.13960 0.28048 0.13369
 C258 C -0.11845 0.32107 0.11005
 C259 C -0.13638 0.72117 -0.14272
 C260 C -0.11419 0.68011 -0.12056
 C261 C 0.13141 0.71695 0.13782
 C262 C 0.10844 0.67714 0.11481
 C263 C 0.28019 1.13672 0.86815
 C264 C 0.32039 1.11394 0.89118
 C265 C 0.28145 0.85831 1.13838
 C266 C 0.32215 0.88027 1.11581
 C267 C 0.71960 1.13369 1.13945
 C268 C 0.67907 1.11014 1.11819
 C269 C 0.71908 0.86508 0.86166
 C270 C 0.67862 0.88703 0.88473
   
