data_POSCAR
  _audit_creation_date              2014-09-24
  _audit_creation_method            'ToBaCCo'
  _symmetry_space_group_name_H-M    'P1'
  _symmetry_Int_Tables_number       1
  _symmetry_cell_setting            triclinic
  loop_
  _symmetry_equiv_pos_as_xyz
 x,y,z
_cell_length_a 41.9308
_cell_length_b 41.9493
_cell_length_c 46.1240
_cell_angle_alpha 89.898300
_cell_angle_beta 90.077300
_cell_angle_gamma 118.630100
loop_
  _atom_site_label
  _atom_site_type_symbol
  _atom_site_fract_x
  _atom_site_fract_y
  _atom_site_fract_z
C1 C 0.03468 0.52699 1.31194
 C2 C 0.00153 0.50741 1.32665
 C3 C -0.03150 0.48642 1.31211
 C4 C -0.03109 0.48395 1.28137
 C5 C 0.00163 0.50523 1.26587
 C6 C 0.03442 0.52726 1.28110
 C7 C 0.06552 0.55049 1.26502
 C8 C 0.06561 0.54923 1.23493
 C9 C 0.03431 0.52541 1.21954
 C10 C 0.00164 0.50418 1.23498
 C11 C -0.06170 0.45877 1.26580
 C12 C -0.06157 0.45755 1.23571
 C13 C -0.03087 0.48154 1.21965
 C14 C -0.03094 0.48146 1.18874
 C15 C 0.00233 0.50127 1.17418
 C16 C 0.03468 0.52286 1.18902
 H17 H 0.09012 0.57040 1.27546
 H18 H 0.09047 0.56754 1.22384
 H19 H -0.08591 0.43888 1.27672
 H20 H -0.08565 0.43678 1.22523
 H21 H 0.00148 0.50831 1.35013
 H22 H 0.00314 0.50133 1.15068
 C23 C 0.50372 0.46923 1.18801
 C24 C 0.48838 0.48754 1.17299
 C25 C 0.47236 0.50544 1.18758
 C26 C 0.47148 0.50511 1.21827
 C27 C 0.48689 0.48660 1.23388
 C28 C 0.50249 0.46810 1.21869
 C29 C 0.51492 0.44758 1.23448
 C30 C 0.51364 0.44657 1.26460
 C31 C 0.50087 0.46689 1.28040
 C32 C 0.48592 0.48588 1.26474
 C33 C 0.45452 0.52169 1.23369
 C34 C 0.45333 0.52079 1.26382
 C35 C 0.46914 0.50337 1.27977
 C36 C 0.46742 0.50187 1.31036
 C37 C 0.48216 0.48312 1.32550
 C38 C 0.49992 0.46643 1.31131
 H39 H 0.52496 0.43128 1.22368
 H40 H 0.52185 0.42869 1.27522
 H41 H 0.44141 0.53505 1.22264
 H42 H 0.43928 0.53345 1.27444
 H43 H 0.48939 0.48835 1.14948
 H44 H 0.48170 0.48369 1.34901
 C45 C 0.48731 0.96768 1.31246
 C46 C 0.50770 1.00073 1.32710
 C47 C 0.52926 1.03360 1.31250
 C48 C 0.53156 1.03305 1.28174
 C49 C 0.50961 1.00048 1.26630
 C50 C 0.48700 0.96790 1.28160
 C51 C 0.46314 0.93706 1.26556
 C52 C 0.46422 0.93692 1.23546
 C53 C 0.48848 0.96795 1.21998
 C54 C 0.51045 1.00044 1.23538
 C55 C 0.55714 1.06335 1.26607
 C56 C 0.55813 1.06320 1.23597
 C57 C 0.53352 1.03277 1.21998
 C58 C 0.53333 1.03287 1.18906
 C59 C 0.51276 0.99972 1.17455
 C60 C 0.49069 0.96753 1.18944
 H61 H 0.44280 0.91272 1.27603
 H62 H 0.44540 0.91225 1.22443
 H63 H 0.57747 1.08734 1.27694
 H64 H 0.57916 1.08703 1.22540
 H65 H 0.50685 1.00084 1.35058
 H66 H 0.51241 0.99894 1.15105
 C67 C 1.03372 0.53694 0.81147
 C68 C 1.00025 0.51826 0.82597
 C69 C 0.96769 0.49753 0.81112
 C70 C 0.96782 0.49541 0.78056
 C71 C 1.00090 0.51521 0.76518
 C72 C 1.03374 0.53668 0.78054
 C73 C 1.06489 0.55975 0.76449
 C74 C 1.06493 0.55885 0.73437
 C75 C 1.03382 0.53481 0.71870
 C76 C 1.00092 0.51433 0.73428
 C77 C 0.93555 0.47486 0.76496
 C78 C 0.93563 0.47371 0.73486
 C79 C 0.96786 0.49370 0.71907
 C80 C 0.96782 0.49367 0.68845
 C81 C 1.00050 0.51300 0.67342
 C82 C 1.03387 0.53304 0.68782
 H83 H 1.08938 0.57978 0.77500
 H84 H 1.08946 0.57825 0.72353
 H85 H 0.90971 0.45967 0.77583
 H86 H 0.90999 0.45709 0.72409
 H87 H 0.99945 0.51781 0.84948
 H88 H 0.99979 0.51114 0.64996
 C89 C 0.47346 0.50621 0.81234
 C90 C 0.49036 0.48934 0.82727
 C91 C 0.50787 0.47297 0.81260
 C92 C 0.50813 0.47284 0.78190
 C93 C 0.49100 0.48975 0.76641
 C94 C 0.47343 0.50632 0.78165
 C95 C 0.45536 0.52156 0.76583
 C96 C 0.45531 0.52140 0.73568
 C97 C 0.47332 0.50599 0.72009
 C98 C 0.49095 0.48958 0.73558
 C99 C 0.52406 0.45533 0.76632
 C100 C 0.52400 0.45516 0.73615
 C101 C 0.50801 0.47250 0.72033
 C102 C 0.50763 0.47229 0.68964
 C103 C 0.49008 0.48852 0.67472
 C104 C 0.47325 0.50556 0.68941
 H105 H 0.44058 0.53334 0.77660
 H106 H 0.44050 0.53307 0.72473
 H107 H 0.53632 0.44107 0.77728
 H108 H 0.53623 0.44080 0.72539
 H109 H 0.49050 0.48958 0.85080
 H110 H 0.49015 0.48852 0.65119
 C111 C 0.48400 -0.03179 0.81111
 C112 C 0.50230 0.00173 0.82554
 C113 C 0.52233 0.03436 0.81061
 C114 C 0.52446 0.03420 0.78007
 C115 C 0.50509 0.00104 0.76479
 C116 C 0.48437 -0.03199 0.78019
 C117 C 0.46264 -0.06367 0.76414
 C118 C 0.46392 -0.06376 0.73402
 C119 C 0.48614 -0.03192 0.71850
 C120 C 0.50605 0.00102 0.73395
 C121 C 0.54578 0.06630 0.76445
 C122 C 0.54686 0.06621 0.73434
 C123 C 0.52658 0.03402 0.71861
 C124 C 0.52666 0.03388 0.68793
 C125 C 0.50788 0.00097 0.67308
 C126 C 0.48794 -0.03187 0.68786
 H127 H 0.44361 -0.08870 0.77458
 H128 H 0.44661 -0.08899 0.72300
 H129 H 0.56203 0.09189 0.77537
 H130 H 0.56398 0.09168 0.72352
 H131 H 0.50240 0.00256 0.84904
 H132 H 0.50852 0.00095 0.64957
 O133 O 0.38582 0.65928 0.97506
 O134 O 0.38621 0.72102 0.96635
 C135 C 0.36988 0.73915 0.96126
 O136 O 0.34223 0.73532 0.97530
 O137 O 0.28130 0.67584 0.96628
 C138 C 0.26378 0.64217 0.96101
 O139 O 0.26832 0.61845 0.97486
 O140 O 0.32889 0.61650 0.96591
 C141 C 0.36268 0.63198 0.96094
 O142 O 0.38454 0.66921 1.03270
 O143 O 0.38799 0.73236 1.02402
 C144 C 0.36583 0.73899 1.03810
 O145 O 0.33209 0.72382 1.03292
 O146 O 0.26980 0.66591 1.02391
 C147 C 0.26379 0.63741 1.03780
 O148 O 0.27963 0.61889 1.03249
 O149 O 0.33857 0.61392 1.02350
 C150 C 0.36674 0.63546 1.03763
 Cr151 Cr 0.38409 0.69454 0.99952
 Cr152 Cr 0.30734 0.69912 0.99960
 Cr153 Cr 0.30492 0.61899 0.99920
 O154 O 0.33211 0.67088 0.99943
 O155 O 0.61426 0.33757 0.97725
 O156 O 0.61916 0.27879 0.96759
 C157 C 0.63768 0.26306 0.96190
 O158 O 0.66629 0.26895 0.97555
 O159 O 0.72420 0.33146 0.96694
 C160 C 0.73942 0.36530 0.96227
 O161 O 0.73276 0.38712 0.97680
 O162 O 0.66958 0.38378 0.96842
 C163 C 0.63583 0.36595 0.96335
 O164 O 0.61676 0.32701 1.03474
 O165 O 0.61884 0.26672 1.02510
 C166 C 0.64263 0.26202 1.03869
 O167 O 0.67628 0.27946 1.03325
 O168 O 0.73575 0.34055 1.02462
 C169 C 0.73949 0.36782 1.03914
 O170 O 0.72128 0.38419 1.03450
 O171 O 0.65954 0.38405 1.02611
 C172 C 0.63216 0.36069 1.04003
 Cr173 Cr 0.61930 0.30359 1.00116
 Cr174 Cr 0.69952 0.30608 1.00012
 Cr175 Cr 0.69487 0.38274 1.00145
 O176 O 0.67122 0.33079 1.00091
 O177 O 0.66865 0.38479 0.53259
 O178 O 0.73186 0.38870 0.52331
 C179 C 0.73889 0.36666 0.53723
 O180 O 0.72392 0.33296 0.53202
 O181 O 0.66613 0.27044 0.52323
 C182 C 0.63773 0.26411 0.53736
 O183 O 0.61897 0.27981 0.53241
 O184 O 0.61338 0.33849 0.52387
 C185 C 0.63500 0.36669 0.53788
 O186 O 0.65786 0.38608 0.47503
 O187 O 0.71972 0.38698 0.46573
 C188 C 0.73799 0.37088 0.46040
 O189 O 0.73454 0.34329 0.47435
 O190 O 0.67514 0.28217 0.46558
 C191 C 0.64137 0.26454 0.46056
 O192 O 0.61776 0.26882 0.47473
 O193 O 0.61515 0.32907 0.46618
 C194 C 0.63043 0.36283 0.46111
 Cr195 Cr 0.69360 0.38459 0.49916
 Cr196 Cr 0.69881 0.30819 0.49881
 Cr197 Cr 0.61836 0.30513 0.49929
 O198 O 0.67026 0.33263 0.49909
 O199 O 0.32914 0.61478 0.53369
 O200 O 0.26857 0.61673 0.52480
 C201 C 0.26406 0.64040 0.53865
 O202 O 0.28150 0.67408 0.53331
 O203 O 0.34242 0.73358 0.52421
 C204 C 0.37017 0.73747 0.53818
 O205 O 0.38651 0.71936 0.53309
 O206 O 0.38604 0.65757 0.52448
 C207 C 0.36294 0.63029 0.53867
 O208 O 0.33855 0.61225 0.47608
 O209 O 0.27962 0.61722 0.46718
 C210 C 0.26382 0.63579 0.46183
 O211 O 0.26990 0.66429 0.47567
 O212 O 0.33216 0.72224 0.46661
 C213 C 0.36589 0.73742 0.46141
 O214 O 0.38807 0.73067 0.47542
 O215 O 0.38453 0.66751 0.46679
 C216 C 0.36657 0.63379 0.46183
 Cr217 Cr 0.30505 0.61729 0.50043
 Cr218 Cr 0.30747 0.69743 0.49996
 Cr219 Cr 0.38424 0.69284 0.49995
 O220 O 0.33225 0.66920 0.50013
 C221 C 0.40825 0.51818 0.36360
 C222 C 0.42484 0.55617 0.36377
 C223 C 0.45464 0.57640 0.34568
 C224 C 0.46806 0.55871 0.32774
 C225 C 0.45163 0.52062 0.32764
 C226 C 0.42164 0.50048 0.34568
 C227 C 0.41221 0.57426 0.38348
 C228 C 0.40174 0.58888 0.40059
 C229 C 0.38953 0.60532 0.42128
 C230 C 0.37909 0.61872 0.43951
 H231 H 0.38533 0.50228 0.37765
 H232 H 0.46784 0.60581 0.34581
 H233 H 0.49159 0.57465 0.31429
 H234 H 0.40892 0.47111 0.34609
 C235 C 0.45488 0.87321 0.34033
 C236 C 0.43599 0.87347 0.36523
 C237 C 0.43345 0.90457 0.37225
 C238 C 0.44985 0.93537 0.35463
 C239 C 0.46885 0.93558 0.32932
 C240 C 0.47130 0.90400 0.32258
 C241 C 0.42025 0.84246 0.38426
 C242 C 0.40730 0.81721 0.40093
 C243 C 0.39246 0.78851 0.42124
 C244 C 0.38012 0.76475 0.43923
 H245 H 0.45749 0.84944 0.33491
 H246 H 0.41897 0.90512 0.39153
 H247 H 0.44700 0.95886 0.36056
 H248 H 0.48707 0.90353 0.30416
 C249 C 0.12842 0.55549 0.33968
 C250 C 0.12891 0.57438 0.36477
 C251 C 0.09871 0.57851 0.37187
 C252 C 0.06794 0.56353 0.35416
 C253 C 0.06692 0.54440 0.32872
 C254 C 0.09767 0.54050 0.32184
 C255 C 0.15966 0.58830 0.38403
 C256 C 0.18467 0.59964 0.40089
 C257 C 0.21308 0.61257 0.42142
 C258 C 0.23663 0.62332 0.43956
 H259 H 0.15149 0.55168 0.33422
 H260 H 0.09877 0.59302 0.39131
 H261 H 0.04511 0.56748 0.36017
 H262 H 0.09744 0.52458 0.30330
 C263 C 0.51740 0.41726 0.37164
 C264 C 0.55271 0.42413 0.36530
 C265 C 0.57055 0.44473 0.34086
 C266 C 0.55309 0.45837 0.32278
 C267 C 0.51725 0.45128 0.32867
 C268 C 0.49991 0.43088 0.35367
 C269 C 0.57079 0.41081 0.38445
 C270 C 0.58534 0.39965 0.40111
 C271 C 0.60170 0.38666 0.42131
 C272 C 0.61511 0.37568 0.43916
 H273 H 0.50339 0.40148 0.39059
 H274 H 0.59814 0.45072 0.33601
 H275 H 0.56814 0.47553 0.30473
 H276 H 0.47239 0.42472 0.35903
 C277 C 0.57925 0.09702 0.37323
 C278 C 0.57795 0.12836 0.36471
 C279 C 0.56130 0.12871 0.33849
 C280 C 0.54582 0.09774 0.32094
 C281 C 0.54692 0.06586 0.32923
 C282 C 0.56377 0.06604 0.35581
 C283 C 0.59254 0.15950 0.38356
 C284 C 0.60441 0.18480 0.40013
 C285 C 0.61785 0.21352 0.42040
 C286 C 0.62887 0.23725 0.43838
 H287 H 0.59201 0.09640 0.39352
 H288 H 0.55968 0.15269 0.33187
 H289 H 0.53172 0.09833 0.30141
 H290 H 0.56566 0.04239 0.36294
 C291 C 0.87369 0.45582 0.33830
 C292 C 0.87377 0.43876 0.36436
 C293 C 0.90483 0.43685 0.37277
 C294 C 0.93582 0.45208 0.35536
 C295 C 0.93626 0.46926 0.32890
 C296 C 0.90469 0.47106 0.32074
 C297 C 0.84254 0.42403 0.38311
 C298 C 0.81725 0.41175 0.39968
 C299 C 0.78863 0.39743 0.42000
 C300 C 0.76504 0.38527 0.43809
 H301 H 0.84991 0.45786 0.33177
 H302 H 0.90519 0.42373 0.39294
 H303 H 0.95924 0.44966 0.36237
 H304 H 0.90437 0.48541 0.30129
 C305 C 0.51800 0.41055 1.13288
 C306 C 0.55534 0.42277 1.13563
 C307 C 0.57567 0.44957 1.15606
 C308 C 0.55876 0.46431 1.17351
 C309 C 0.52133 0.45222 1.17076
 C310 C 0.50108 0.42527 1.15031
 C311 C 0.57291 0.40881 1.11662
 C312 C 0.58726 0.39738 1.10009
 C313 C 0.60354 0.38429 1.07997
 C314 C 0.61694 0.37336 1.06212
 H315 H 0.50206 0.39000 1.11702
 H316 H 0.60462 0.45941 1.15821
 H317 H 0.57488 0.48547 1.18888
 H318 H 0.47225 0.41585 1.14774
 C319 C 0.90576 0.43011 1.12833
 C320 C 0.87496 0.43305 1.13574
 C321 C 0.87487 0.45114 1.16114
 C322 C 0.90560 0.46649 1.17900
 C323 C 0.93694 0.46376 1.17184
 C324 C 0.93650 0.44546 1.14606
 C325 C 0.84411 0.41860 1.11657
 C326 C 0.81898 0.40672 1.09981
 C327 C 0.79042 0.39303 1.07941
 C328 C 0.76675 0.38147 1.06135
 H329 H 0.90614 0.41622 1.10866
 H330 H 0.85133 0.45403 1.16686
 H331 H 0.90530 0.48181 1.19778
 H332 H 0.95976 0.44237 1.13980
 C333 C 0.56461 0.12726 1.16147
 C334 C 0.58188 0.12674 1.13569
 C335 C 0.58416 0.09565 1.12812
 C336 C 0.56889 0.06502 1.14601
 C337 C 0.55130 0.06497 1.17211
 C338 C 0.54935 0.09666 1.17948
 C339 C 0.59590 0.15739 1.11627
 C340 C 0.60720 0.18238 1.09935
 C341 C 0.61997 0.21087 1.07885
 C342 C 0.63050 0.23457 1.06080
 H343 H 0.56221 0.15102 1.16733
 H344 H 0.59740 0.09491 1.10817
 H345 H 0.57140 0.04150 1.13957
 H346 H 0.53458 0.09731 1.19852
 C347 C 0.41360 0.52111 1.13334
 C348 C 0.42896 0.55899 1.13387
 C349 C 0.45816 0.57942 1.15246
 C350 C 0.47208 0.56201 1.17032
 C351 C 0.45674 0.52401 1.16981
 C352 C 0.42748 0.50370 1.15116
 C353 C 0.41544 0.57678 1.11458
 C354 C 0.40412 0.59110 1.09784
 C355 C 0.39092 0.60719 1.07756
 C356 C 0.37977 0.62040 1.05966
 H357 H 0.39115 0.50507 1.11892
 H358 H 0.47040 0.60876 1.15290
 H359 H 0.49499 0.57808 1.18431
 H360 H 0.41556 0.47440 1.15033
 C361 C 0.12737 0.54952 1.15731
 C362 C 0.12983 0.57405 1.13567
 C363 C 0.10180 0.58290 1.13226
 C364 C 0.07118 0.56688 1.15012
 C365 C 0.06839 0.54197 1.17166
 C366 C 0.09675 0.53348 1.17520
 C367 C 0.16016 0.58879 1.11601
 C368 C 0.18493 0.60062 1.09894
 C369 C 0.21317 0.61392 1.07827
 C370 C 0.23664 0.62486 1.06008
 H371 H 0.14878 0.54228 1.16000
 H372 H 0.10334 0.60168 1.11548
 H373 H 0.04944 0.57353 1.14695
 H374 H 0.09478 0.51392 1.19143
 C375 C 0.42845 0.90163 1.13295
 C376 C 0.43616 0.87279 1.13600
 C377 C 0.46070 0.87435 1.15731
 C378 C 0.47785 0.90485 1.17522
 C379 C 0.47048 0.93400 1.17204
 C380 C 0.44558 0.93211 1.15084
 C381 C 0.42012 0.84249 1.11635
 C382 C 0.40711 0.81775 1.09927
 C383 C 0.39232 0.78953 1.07860
 C384 C 0.38004 0.76608 1.06040
 H385 H 0.40967 0.90081 1.11644
 H386 H 0.46705 0.85231 1.15972
 H387 H 0.49737 0.90608 1.19119
 H388 H 0.43977 0.95445 1.14794
 C389 C 0.52183 0.41268 0.63547
 C390 C 0.55969 0.42750 0.63597
 C391 C 0.58049 0.45631 0.65474
 C392 C 0.56352 0.47049 0.67271
 C393 C 0.52557 0.45583 0.67215
 C394 C 0.50485 0.42683 0.65341
 C395 C 0.57711 0.41408 0.61630
 C396 C 0.59120 0.40299 0.59921
 C397 C 0.60710 0.39016 0.57852
 C398 C 0.62014 0.37936 0.56027
 H399 H 0.50550 0.39055 0.62091
 H400 H 0.60982 0.46815 0.65514
 H401 H 0.57993 0.49323 0.68673
 H402 H 0.47559 0.41544 0.65251
 C403 C 0.54868 0.12445 0.65421
 C404 C 0.57584 0.12906 0.63441
 C405 C 0.58774 0.10310 0.63278
 C406 C 0.57225 0.07243 0.65066
 C407 C 0.54486 0.06757 0.67044
 C408 C 0.53317 0.09379 0.67210
 C409 C 0.59031 0.15950 0.61482
 C410 C 0.60190 0.18445 0.59790
 C411 C 0.61489 0.21298 0.57746
 C412 C 0.62555 0.23671 0.55946
 H413 H 0.53907 0.14422 0.65548
 H414 H 0.60856 0.10628 0.61739
 H415 H 0.58133 0.05229 0.64891
 H416 H 0.51164 0.09016 0.68690
 C417 C 0.87691 0.46730 0.65316
 C418 C 0.87306 0.43897 0.63496
 C419 C 0.89963 0.42779 0.63503
 C420 C 0.93012 0.44513 0.65293
 C421 C 0.93424 0.47370 0.67106
 C422 C 0.90742 0.48467 0.67109
 C423 C 0.84278 0.42242 0.61527
 C424 C 0.81802 0.40895 0.59820
 C425 C 0.78973 0.39365 0.57758
 C426 C 0.76617 0.38105 0.55944
 H427 H 0.85666 0.47635 0.65313
 H428 H 0.89705 0.40606 0.62091
 H429 H 0.95073 0.43657 0.65246
 H430 H 0.91046 0.50702 0.68465
 C431 C 0.45545 0.57727 0.65436
 C432 C 0.42670 0.55608 0.63564
 C433 C 0.41265 0.51833 0.63508
 C434 C 0.42745 0.50185 0.65298
 C435 C 0.45632 0.52295 0.67173
 C436 C 0.47028 0.56079 0.67228
 C437 C 0.41250 0.57304 0.61615
 C438 C 0.40079 0.58685 0.59927
 C439 C 0.38732 0.60252 0.57883
 C440 C 0.37604 0.61546 0.56081
 H441 H 0.46671 0.60652 0.65481
 H442 H 0.39057 0.50171 0.62055
 H443 H 0.41660 0.47267 0.65209
 H444 H 0.49291 0.57750 0.68632
 C445 C 0.42792 0.89995 0.63178
 C446 C 0.43815 0.87285 0.63464
 C447 C 0.46394 0.87641 0.65550
 C448 C 0.47972 0.90715 0.67326
 C449 C 0.46967 0.93450 0.67036
 C450 C 0.44367 0.93068 0.64950
 C451 C 0.42315 0.84218 0.61534
 C452 C 0.41078 0.81711 0.59857
 C453 C 0.39650 0.78853 0.57824
 C454 C 0.38442 0.76481 0.56027
 H455 H 0.40814 0.89756 0.61560
 H456 H 0.47222 0.85571 0.65776
 H457 H 0.50012 0.90993 0.68896
 H458 H 0.43582 0.95164 0.64683
 C459 C 0.12791 0.56130 0.66072
 C460 C 0.12806 0.57871 0.63478
 C461 C 0.09737 0.58154 0.62673
 C462 C 0.06657 0.56693 0.64440
 C463 C 0.06597 0.54951 0.67078
 C464 C 0.09712 0.54668 0.67851
 C465 C 0.15908 0.59268 0.61578
 C466 C 0.18432 0.60415 0.59913
 C467 C 0.21300 0.61725 0.57882
 C468 C 0.23674 0.62806 0.56083
 H469 H 0.15134 0.55846 0.66695
 H470 H 0.09713 0.59486 0.60664
 H471 H 0.04344 0.57000 0.63764
 H472 H 0.09724 0.53197 0.69780
 C473 C 0.41277 0.51940 0.86612
 C474 C 0.42674 0.55713 0.86520
 C475 C 0.45552 0.57818 0.84646
 C476 C 0.47044 0.56157 0.82886
 C477 C 0.45653 0.52374 0.82976
 C478 C 0.42765 0.50279 0.84854
 C479 C 0.41243 0.57424 0.88434
 C480 C 0.40063 0.58817 0.90096
 C481 C 0.38707 0.60398 0.92111
 C482 C 0.37576 0.61703 0.93894
 H483 H 0.39067 0.50290 0.88067
 H484 H 0.46672 0.60741 0.84574
 H485 H 0.49307 0.57817 0.81479
 H486 H 0.41684 0.47362 0.84969
 C487 C 0.12718 0.56383 0.83932
 C488 C 0.12783 0.58232 0.86470
 C489 C 0.09776 0.58659 0.87202
 C490 C 0.06704 0.57222 0.85423
 C491 C 0.06589 0.55358 0.82846
 C492 C 0.09648 0.54945 0.82141
 C493 C 0.15867 0.59581 0.88390
 C494 C 0.18384 0.60683 0.90063
 C495 C 0.21252 0.61944 0.92095
 C496 C 0.23633 0.62996 0.93891
 H497 H 0.15012 0.55988 0.83365
 H498 H 0.09792 0.60078 0.89167
 H499 H 0.04437 0.57633 0.86044
 H500 H 0.09617 0.53378 0.80266
 C501 C 0.43220 0.90447 0.87110
 C502 C 0.43710 0.87457 0.86464
 C503 C 0.45706 0.87533 0.84014
 C504 C 0.47213 0.90595 0.82215
 C505 C 0.46716 0.93625 0.82824
 C506 C 0.44724 0.93509 0.85323
 C507 C 0.42249 0.84374 0.88382
 C508 C 0.41028 0.81863 0.90060
 C509 C 0.39607 0.79008 0.92101
 C510 C 0.38403 0.76642 0.93907
 H511 H 0.41689 0.90422 0.89009
 H512 H 0.46150 0.85252 0.83520
 H513 H 0.48880 0.90640 0.80407
 H514 H 0.44261 0.95765 0.85870
 C515 C 0.52224 0.41363 0.86717
 C516 C 0.56008 0.42833 0.86654
 C517 C 0.58082 0.45707 0.84767
 C518 C 0.56381 0.47127 0.82967
 C519 C 0.52587 0.45667 0.83030
 C520 C 0.50521 0.42779 0.84920
 C521 C 0.57755 0.41471 0.88607
 C522 C 0.59170 0.40339 0.90298
 C523 C 0.60769 0.39024 0.92340
 C524 C 0.62084 0.37909 0.94136
 H525 H 0.50595 0.39153 0.88181
 H526 H 0.61014 0.46881 0.84715
 H527 H 0.58017 0.49391 0.81552
 H528 H 0.47596 0.41645 0.85015
 C529 C 0.89096 0.48005 0.86267
 C530 C 0.87329 0.44211 0.86480
 C531 C 0.88594 0.42214 0.84872
 C532 C 0.91635 0.44009 0.83076
 C533 C 0.93419 0.47814 0.82866
 C534 C 0.92133 0.49799 0.84475
 C535 C 0.84311 0.42399 0.88439
 C536 C 0.81838 0.40949 0.90137
 C537 C 0.79011 0.39330 0.92191
 C538 C 0.76659 0.38014 0.94002
 H539 H 0.88155 0.49579 0.87515
 H540 H 0.87264 0.39280 0.85036
 H541 H 0.92628 0.42443 0.81880
 H542 H 0.93502 0.52737 0.84359
 C543 C 0.58396 0.10300 0.86567
 C544 C 0.57279 0.12951 0.86385
 C545 C 0.54590 0.12547 0.84390
 C546 C 0.52992 0.09481 0.82607
 C547 C 0.54085 0.06804 0.82799
 C548 C 0.56801 0.07237 0.84787
 C549 C 0.58776 0.15986 0.88345
 C550 C 0.59991 0.18460 0.90052
 C551 C 0.61364 0.21277 0.92122
 C552 C 0.62489 0.23612 0.93949
 H553 H 0.60457 0.10575 0.88116
 H554 H 0.53688 0.14569 0.84248
 H555 H 0.50865 0.09162 0.81111
 H556 H 0.57652 0.05181 0.84977
   
