data_POSCAR
  _audit_creation_date              2014-09-24
  _audit_creation_method            'ToBaCCo'
  _symmetry_space_group_name_H-M    'P1'
  _symmetry_Int_Tables_number       1
  _symmetry_cell_setting            triclinic
  loop_
  _symmetry_equiv_pos_as_xyz
 x,y,z
_cell_length_a 38.3631
_cell_length_b 37.9444
_cell_length_c 38.3115
_cell_angle_alpha 90.159700
_cell_angle_beta 89.566400
_cell_angle_gamma 90.195200
loop_
  _atom_site_label
  _atom_site_type_symbol
  _atom_site_fract_x
  _atom_site_fract_y
  _atom_site_fract_z
C1 C 0.17174 1.22124 0.21400
 C2 C 0.15737 1.25105 0.19801
 C3 C 0.17215 1.26542 0.16721
 C4 C 0.20253 1.24936 0.15345
 C5 C 0.21713 1.21961 0.16922
 C6 C 0.20168 1.20547 0.19959
 C7 C 0.15597 1.20657 0.24380
 C8 C 0.16947 1.17593 0.25970
 C9 C 0.19995 1.16086 0.24504
 C10 C 0.21593 1.17527 0.21525
 C11 C 0.24539 1.15923 0.20026
 C12 C 0.26081 1.17298 0.16977
 C13 C 0.24670 1.20344 0.15466
 H14 H 0.13339 1.26154 0.20879
 H15 H 0.21571 1.26031 0.13086
 H16 H 0.13364 1.21995 0.25497
 H17 H 0.21052 1.13668 0.25539
 H18 H 0.25576 1.13545 0.21178
 H19 H 0.25865 1.21445 0.13138
 C20 C 0.82922 0.78404 0.21938
 C21 C 0.84497 0.75464 0.20362
 C22 C 0.83103 0.73904 0.17314
 C23 C 0.80011 0.75352 0.15938
 C24 C 0.78413 0.78292 0.17491
 C25 C 0.79883 0.79832 0.20492
 C26 C 0.84403 0.79977 0.24900
 C27 C 0.82926 0.83021 0.26450
 C28 C 0.79844 0.84385 0.24973
 C29 C 0.78338 0.82832 0.22018
 C30 C 0.75335 0.84276 0.20531
 C31 C 0.73876 0.82790 0.17507
 C32 C 0.75420 0.79779 0.16020
 H33 H 0.86765 0.74352 0.21601
 H34 H 0.78916 0.74341 0.13540
 H35 H 0.86832 0.78915 0.25848
 H36 H 0.78530 0.86613 0.26154
 H37 H 0.74140 0.86575 0.21718
 H38 H 0.74348 0.78649 0.13656
 C39 C 0.82658 1.21358 -0.21407
 C40 C 0.84144 1.24343 -0.19828
 C41 C 0.82685 1.25784 -0.16764
 C42 C 0.79673 1.24232 -0.15315
 C43 C 0.78163 1.21246 -0.16858
 C44 C 0.79668 1.19795 -0.19909
 C45 C 0.84186 1.19857 -0.24398
 C46 C 0.82795 1.16769 -0.25942
 C47 C 0.79756 1.15282 -0.24424
 C48 C 0.78213 1.16751 -0.21429
 C49 C 0.75261 1.15179 -0.19899
 C50 C 0.73768 1.16582 -0.16835
 C51 C 0.75221 1.19639 -0.15349
 H52 H 0.86497 1.25489 -0.20930
 H53 H 0.78507 1.25346 -0.12975
 H54 H 0.86577 1.21018 -0.25381
 H55 H 0.78502 1.13018 -0.25601
 H56 H 0.74135 1.12844 -0.21081
 H57 H 0.74124 1.20708 -0.12957
 C58 C 0.17282 0.78492 -0.22201
 C59 C 0.15679 0.75511 -0.20733
 C60 C 0.16999 0.73919 -0.17681
 C61 C 0.20046 0.75380 -0.16190
 C62 C 0.21673 0.78361 -0.17635
 C63 C 0.20283 0.79929 -0.20646
 C64 C 0.15877 0.80103 -0.25168
 C65 C 0.17412 0.83159 -0.26579
 C66 C 0.20429 0.84554 -0.25029
 C67 C 0.21862 0.82972 -0.22067
 C68 C 0.24802 0.84436 -0.20457
 C69 C 0.26174 0.82924 -0.17417
 C70 C 0.24610 0.79866 -0.16043
 H71 H 0.13447 0.74399 -0.22055
 H72 H 0.21077 0.74346 -0.13781
 H73 H 0.13517 0.79044 -0.26310
 H74 H 0.21652 0.86888 -0.26118
 H75 H 0.26013 0.86770 -0.21559
 H76 H 0.25617 0.78715 -0.13670
 C77 C 0.55302 1.04229 -0.00597
 H78 H 0.55352 1.04229 0.02226
 C79 C 0.57736 1.06223 -0.02473
 H80 H 0.59663 1.07777 -0.01096
 C81 C 0.52808 1.02112 -0.05852
 H82 H 0.50936 1.00446 -0.07158
 C83 C 0.55198 1.04067 -0.07828
 H84 H 0.55140 1.03926 -0.10652
 N85 N 0.52895 1.02237 -0.02301
 C86 C 0.44551 1.00559 0.05310
 H87 H 0.44452 0.97710 0.05325
 C88 C 0.42144 1.02492 0.07276
 H89 H 0.40187 1.01131 0.08823
 C90 C 0.47130 1.05824 0.03163
 H91 H 0.49019 1.07111 0.01491
 C92 C 0.44767 1.07857 0.05090
 H93 H 0.44864 1.10705 0.04919
 Zn94 Zn 0.49892 0.99406 0.00461
 N95 N 0.46981 1.02242 0.03310
 C96 C 0.52678 0.96664 0.06760
 N97 N 0.52769 0.96500 0.03210
 C98 C 0.55133 0.94451 0.01494
 C99 C 0.57538 0.92461 0.03358
 C100 C 0.55041 0.94714 0.08725
 C101 C 0.44584 0.98467 -0.04361
 C102 C 0.42175 0.96649 -0.06405
 C103 C 0.44587 0.91162 -0.04351
 C104 C 0.46959 0.93086 -0.02342
 N105 N 0.46921 0.96674 -0.02396
 H106 H 0.50841 0.98373 0.08073
 H107 H 0.55190 0.94425 -0.01329
 H108 H 0.59448 0.90882 0.01970
 H109 H 0.54996 0.94904 0.11547
 H110 H 0.44575 1.01318 -0.04306
 H111 H 0.40309 0.98101 -0.07942
 H112 H 0.44607 0.88309 -0.04276
 H113 H 0.48781 0.91711 -0.00702
 C114 C 0.42241 1.06173 0.07147
 C115 C 0.57690 1.06130 -0.06121
 C116 C 0.42170 0.92966 -0.06392
 C117 C 0.57506 0.92614 0.07005
 C118 C -0.00996 0.55582 1.04514
 H119 H 0.01822 0.55662 1.04424
 C120 C -0.02826 0.58011 1.06558
 H121 H -0.01416 0.59965 1.08062
 C122 C -0.06288 0.53008 1.02579
 H123 H -0.07627 0.51104 1.00968
 C124 C -0.08220 0.55395 1.04588
 H125 H -0.11042 0.55302 1.04545
 N126 N -0.02740 0.53136 1.02590
 C127 C 0.04833 0.44797 1.00698
 H128 H 0.04776 0.44693 0.97876
 C129 C 0.06873 0.42410 1.02542
 H130 H 0.08406 0.40467 1.01141
 C131 C 0.02812 0.47376 1.05983
 H132 H 0.01167 0.49260 1.07315
 C133 C 0.04815 0.45033 1.07929
 H134 H 0.04732 0.45141 1.10755
 Zn135 Zn -0.00030 0.50137 0.99708
 N136 N 0.02866 0.47222 1.02431
 C137 C 0.06220 0.53000 0.96803
 N138 N 0.02672 0.53078 0.96758
 C139 C 0.00929 0.55446 0.94768
 C140 C 0.02762 0.57854 0.92698
 C141 C 0.08154 0.55366 0.94770
 C142 C -0.04864 0.44710 0.98861
 C143 C -0.06886 0.42234 0.97084
 C144 C -0.04850 0.44706 0.91626
 C145 C -0.02864 0.47142 0.93507
 N146 N -0.02915 0.47104 0.97061
 H147 H 0.07557 0.51161 0.98466
 H148 H -0.01890 0.55491 0.94832
 H149 H 0.01354 0.59755 0.91150
 H150 H 0.10975 0.55320 0.94850
 H151 H -0.04805 0.44700 1.01684
 H152 H -0.08403 0.40315 0.98538
 H153 H -0.04768 0.44720 0.88799
 H154 H -0.01233 0.49005 0.92125
 C155 C 0.06852 0.42522 1.06190
 C156 C -0.06469 0.57923 1.06586
 C157 C -0.06866 0.42222 0.93435
 C158 C 0.06406 0.57822 0.92712
 C159 C 1.05072 -0.00689 0.55132
 H160 H 1.05031 0.02161 0.55207
 C161 C 1.07115 -0.02547 0.57493
 H162 H 1.08667 -0.01128 0.59388
 C163 C 1.02998 -0.06031 0.52658
 H164 H 1.01329 -0.07377 0.50826
 C165 C 1.05004 -0.07993 0.54978
 H166 H 1.04898 -0.10845 0.54906
 N167 N 1.03074 -0.02444 0.52774
 C168 C 1.01072 0.05259 0.44613
 H169 H 0.98252 0.05219 0.44618
 C170 C 1.02882 0.07316 0.42183
 H171 H 1.01456 0.08881 0.40316
 C172 C 1.06384 0.03170 0.46955
 H173 H 1.07737 0.01490 0.48763
 C174 C 1.08296 0.05190 0.44565
 H175 H 1.11118 0.05084 0.44561
 Zn176 Zn 1.00157 0.00312 0.49915
 N177 N 1.02836 0.03248 0.46940
 C178 C 0.97362 0.06613 0.52885
 N179 N 0.97319 0.03025 0.52949
 C180 C 0.95395 0.01229 0.55358
 C181 C 0.93384 0.03045 0.57818
 C182 C 0.95385 0.08534 0.55305
 C183 C 0.99079 -0.04575 0.44570
 C184 C 0.97192 -0.06605 0.42193
 C185 C 0.91858 -0.04495 0.44854
 C186 C 0.93845 -0.02504 0.47186
 N187 N 0.97390 -0.02587 0.47008
 H188 H 0.98972 0.07992 0.51007
 H189 H 0.95460 -0.01621 0.55387
 H190 H 0.91881 0.01593 0.59743
 H191 H 0.95454 0.11388 0.55265
 H192 H 1.01897 -0.04540 0.44448
 H193 H 0.98556 -0.08152 0.40237
 H194 H 0.89038 -0.04384 0.44980
 H195 H 0.92550 -0.00841 0.49080
 C196 C 1.06526 0.07268 0.42150
 C197 C 1.07067 -0.06231 0.57426
 C198 C 0.93549 -0.06551 0.42328
 C199 C 0.93389 0.06729 0.57798
 C200 C 0.12255 0.35037 1.11517
 C201 C 0.14375 0.32705 1.09651
 C202 C 0.16051 0.29950 1.11362
 C203 C 0.15634 0.29446 1.15003
 C204 C 0.13518 0.31882 1.16849
 C205 C 0.11851 0.34637 1.15119
 C206 C 0.10397 0.37754 1.09702
 C207 C 0.08801 0.39964 1.08128
 H208 H 0.14678 0.32971 1.06849
 H209 H 0.17514 0.28123 1.09758
 H210 H 0.13204 0.31753 1.19652
 H211 H 0.10231 0.36449 1.16597
 C212 C -0.11741 0.65456 1.12102
 C213 C -0.15339 0.65866 1.11774
 C214 C -0.17051 0.68612 1.13516
 C215 C -0.15192 0.71025 1.15635
 C216 C -0.11553 0.70518 1.15964
 C217 C -0.09860 0.67773 1.14213
 C218 C -0.09948 0.62730 1.10192
 C219 C -0.08391 0.60506 1.08564
 H220 H -0.16828 0.64067 1.10162
 H221 H -0.19852 0.68745 1.13263
 H222 H -0.09940 0.72332 1.17420
 H223 H -0.07061 0.67499 1.14457
 C224 C -0.12221 0.34471 0.88342
 C225 C -0.12556 0.34454 0.84707
 C226 C -0.14245 0.31650 0.83040
 C227 C -0.15621 0.28827 0.84994
 C228 C -0.15295 0.28889 0.88650
 C229 C -0.13606 0.31691 0.90308
 C230 C -0.10376 0.37280 0.90066
 C231 C -0.08795 0.39569 0.91570
 H232 H -0.11492 0.36594 0.83160
 H233 H -0.14488 0.31695 0.80226
 H234 H -0.16276 0.26731 0.90223
 H235 H -0.13344 0.31667 0.93122
 C236 C 0.11740 0.65374 0.87275
 C237 C 0.15329 0.65808 0.87688
 C238 C 0.17076 0.68580 0.86022
 C239 C 0.15263 0.70999 0.83898
 C240 C 0.11636 0.70461 0.83470
 C241 C 0.09906 0.67688 0.85146
 C242 C 0.09908 0.62639 0.89137
 C243 C 0.08333 0.60409 0.90742
 H244 H 0.16782 0.64010 0.89314
 H245 H 0.19870 0.68734 0.86343
 H246 H 0.10055 0.72273 0.81999
 H247 H 0.07114 0.67396 0.84837
 C248 C 1.11779 0.12665 0.34542
 C249 C 1.09914 0.14784 0.32247
 C250 C 1.11614 0.16450 0.29463
 C251 C 1.15240 0.16021 0.28894
 C252 C 1.17084 0.13905 0.31291
 C253 C 1.15367 0.12250 0.34074
 C254 C 1.09979 0.10816 0.37294
 C255 C 1.08427 0.09223 0.39541
 H256 H 1.07123 0.15094 0.32565
 H257 H 1.10011 0.17912 0.27671
 H258 H 1.19879 0.13585 0.31110
 H259 H 1.16843 0.10631 0.35855
 C260 C 1.12429 -0.11537 0.64912
 C261 C 1.13851 -0.09596 0.67667
 C262 C 1.15512 -0.11318 0.70406
 C263 C 1.15775 -0.15016 0.70428
 C264 C 1.14370 -0.16947 0.67625
 C265 C 1.12707 -0.15215 0.64885
 C266 C 1.10588 -0.09745 0.62186
 C267 C 1.09004 -0.08177 0.59975
 H268 H 1.13631 -0.06750 0.67725
 H269 H 1.16515 -0.09761 0.72550
 H270 H 1.14562 -0.19792 0.67551
 H271 H 1.11613 -0.16744 0.62764
 C272 C 0.88027 -0.11833 0.34885
 C273 C 0.85840 -0.09935 0.32689
 C274 C 0.84116 -0.11629 0.29955
 C275 C 0.84551 -0.15284 0.29337
 C276 C 0.86733 -0.17164 0.31640
 C277 C 0.88448 -0.15452 0.34373
 C278 C 0.89932 -0.10033 0.37581
 C279 C 0.91563 -0.08473 0.39778
 H280 H 0.85522 -0.07120 0.33043
 H281 H 0.82600 -0.09996 0.28233
 H282 H 0.87064 -0.19984 0.31422
 H283 H 0.90117 -0.16955 0.36080
 C284 C 0.87948 0.11866 0.65454
 C285 C 0.88294 0.15491 0.65995
 C286 C 0.86571 0.17122 0.68793
 C287 C 0.84455 0.15152 0.71127
 C288 C 0.84109 0.11490 0.70489
 C289 C 0.85840 0.09878 0.67693
 C290 C 0.89840 0.10147 0.62678
 C291 C 0.91446 0.08629 0.60417
 H292 H 0.89906 0.17063 0.64258
 H293 H 0.86838 0.19949 0.69031
 H294 H 0.82655 0.09790 0.72235
 H295 H 0.85583 0.07058 0.67318
 C296 C 0.34626 1.11835 0.12084
 C297 C 0.34538 1.12250 0.15715
 C298 C 0.31781 1.14059 0.17314
 C299 C 0.29078 1.15476 0.15294
 C300 C 0.29210 1.15067 0.11644
 C301 C 0.31965 1.13259 0.10055
 C302 C 0.37387 1.09874 0.10426
 C303 C 0.39636 1.08202 0.08968
 H304 H 0.36586 1.11157 0.17311
 H305 H 0.31769 1.14363 0.20125
 H306 H 0.27143 1.16076 0.10022
 H307 H 0.31998 1.12936 0.07243
 C308 C 0.65266 1.11331 -0.11615
 C309 C 0.65276 1.15008 -0.11905
 C310 C 0.68016 1.16722 -0.13641
 C311 C 0.70781 1.14774 -0.15109
 C312 C 0.70724 1.11077 -0.14831
 C313 C 0.67986 1.09372 -0.13095
 C314 C 0.62527 1.09560 -0.09717
 C315 C 0.60290 1.08024 -0.08094
 H316 H 0.63183 1.16550 -0.10768
 H317 H 0.67970 1.19567 -0.13844
 H318 H 0.72838 1.09508 -0.15884
 H319 H 0.68013 1.06526 -0.12869
 C320 C 0.34643 0.87881 -0.11968
 C321 C 0.31999 0.89925 -0.13420
 C322 C 0.29270 0.88314 -0.15222
 C323 C 0.29145 0.84626 -0.15598
 C324 C 0.31829 0.82590 -0.14149
 C325 C 0.34562 0.84211 -0.12345
 C326 C 0.37379 0.89568 -0.10024
 C327 C 0.39602 0.91070 -0.08377
 H328 H 0.32026 0.92767 -0.13127
 H329 H 0.27216 0.89951 -0.16255
 H330 H 0.31822 0.79749 -0.14425
 H331 H 0.36597 0.82603 -0.11230
 C332 C 0.65193 0.87671 0.12416
 C333 C 0.65322 0.83999 0.12725
 C334 C 0.68121 0.82404 0.14419
 C335 C 0.70828 0.84467 0.15823
 C336 C 0.70652 0.88158 0.15526
 C337 C 0.67855 0.89744 0.13833
 C338 C 0.62400 0.89328 0.10553
 C339 C 0.60129 0.90787 0.08956
 H340 H 0.63274 0.82369 0.11635
 H341 H 0.68166 0.79560 0.14638
 H342 H 0.72720 0.89816 0.16529
 H343 H 0.67792 0.92588 0.13591
   
