data_POSCAR
  _audit_creation_date              2014-09-24
  _audit_creation_method            'ToBaCCo'
  _symmetry_space_group_name_H-M    'P1'
  _symmetry_Int_Tables_number       1
  _symmetry_cell_setting            triclinic
  loop_
  _symmetry_equiv_pos_as_xyz
 x,y,z
_cell_length_a 28.6387
_cell_length_b 26.0983
_cell_length_c 29.2407
_cell_angle_alpha 90.756100
_cell_angle_beta 90.688500
_cell_angle_gamma 90.637600
loop_
  _atom_site_label
  _atom_site_type_symbol
  _atom_site_fract_x
  _atom_site_fract_y
  _atom_site_fract_z
N1 N 0.26826 0.40689 1.38142
 N2 N 0.27326 0.37215 1.41322
 C3 C 0.23986 0.37821 1.44474
 C4 C 0.21235 0.41863 1.43177
 C5 C 0.23164 0.43661 1.39188
 H6 H 0.23900 0.35879 1.47718
 H7 H 0.22305 0.47181 1.37470
 Cu8 Cu 0.32843 0.32978 1.41598
 Cu9 Cu 0.31541 0.41651 1.33449
 Cu10 Cu 0.38108 0.30731 1.31583
 N11 N 0.37185 0.27406 1.40833
 N12 N 0.39057 0.26335 1.36852
 C13 C 0.40945 0.21629 1.37015
 C14 C 0.40289 0.19745 1.41359
 C15 C 0.37877 0.23478 1.43676
 H16 H 0.42194 0.19523 1.34071
 H17 H 0.36160 0.23042 1.46926
 N18 N 0.37883 0.36480 1.27249
 N19 N 0.35397 0.40648 1.27984
 C20 C 0.36092 0.43948 1.24550
 C21 C 0.39174 0.41746 1.21559
 C22 C 0.40265 0.37026 1.23332
 H23 H 0.34542 0.47694 1.24290
 H24 H 0.42669 0.34263 1.21939
 H25 H 0.31767 0.33992 1.33397
 H26 H 0.37239 0.37181 1.35574
 N27 N 1.23891 0.61325 0.86875
 N28 N 1.23026 0.63461 0.90877
 C29 C 1.26486 0.62274 0.93847
 C30 C 1.29639 0.59280 0.91486
 C31 C 1.27935 0.58785 0.87100
 H32 H 1.26652 0.63431 0.97411
 H33 H 1.29419 0.56582 0.84327
 Cu34 Cu 1.17360 0.67460 0.91679
 Cu35 Cu 1.19502 0.61512 0.81775
 Cu36 Cu 1.08204 0.63352 0.85264
 N37 N 1.11557 0.71313 0.91462
 N38 N 1.07861 0.69398 0.89292
 C39 C 1.04412 0.72843 0.89412
 C40 C 1.06051 0.77158 0.91692
 C41 C 1.10625 0.76132 0.92904
 H42 H 1.01183 0.72500 0.87465
 H43 H 1.13178 0.78789 0.94363
 N44 N 1.09722 0.59622 0.79567
 N45 N 1.14060 0.59353 0.78101
 C46 C 1.14061 0.57352 0.73850
 C47 C 1.09518 0.56259 0.72614
 C48 C 1.06807 0.57734 0.76275
 H49 H 1.17126 0.56865 0.71771
 H50 H 1.03036 0.57820 0.76400
 H51 H 1.14395 0.66628 0.83837
 H52 H 1.14821 0.60319 0.86719
 N53 N 0.73352 -0.08565 0.13853
 N54 N 0.72956 -0.11513 0.10173
 C55 C 0.76619 -0.10635 0.07432
 C56 C 0.79427 -0.06982 0.09586
 C57 C 0.77310 -0.05766 0.13642
 H58 H 0.77210 -0.12537 0.04185
 H59 H 0.78504 -0.03013 0.16208
 Cu60 Cu 0.67748 -0.16311 0.09441
 Cu61 Cu 0.68609 -0.08430 0.18561
 Cu62 Cu 0.57869 -0.12347 0.14221
 N63 N 0.62011 -0.20353 0.08878
 N64 N 0.58048 -0.18490 0.10359
 C65 C 0.54684 -0.22089 0.09891
 C66 C 0.56661 -0.26479 0.08162
 C67 C 0.61335 -0.25293 0.07593
 H68 H 0.51261 -0.21808 0.11398
 H69 H 0.64101 -0.27936 0.06790
 N70 N 0.58605 -0.08094 0.19801
 N71 N 0.62718 -0.06768 0.21569
 C72 C 0.62122 -0.04716 0.25770
 C73 C 0.57403 -0.04835 0.26663
 C74 C 0.55272 -0.06997 0.22852
 H75 H 0.64918 -0.03671 0.28133
 H76 H 0.51642 -0.08142 0.22504
 H77 H 0.64139 -0.14589 0.16778
 H78 H 0.64335 -0.08786 0.13118
 N79 N -0.24515 1.10267 -0.36310
 N80 N -0.24817 1.14179 -0.39092
 C81 C -0.28392 1.13340 -0.42077
 C82 C -0.30348 1.08627 -0.41067
 C83 C -0.27834 1.06780 -0.37430
 H84 H -0.29455 1.15924 -0.44747
 H85 H -0.28460 1.03233 -0.35657
 Cu86 Cu -0.20369 1.19853 -0.38564
 Cu87 Cu -0.20153 1.10105 -0.31166
 Cu88 Cu -0.12667 1.20526 -0.29800
 N89 N -0.14720 1.24072 -0.38839
 N90 N -0.11751 1.24374 -0.35369
 C91 C -0.08008 1.27203 -0.36559
 C92 C -0.08716 1.28746 -0.40989
 C93 C -0.12951 1.26667 -0.42390
 H94 H -0.04884 1.27750 -0.34483
 H95 H -0.14478 1.26737 -0.45791
 N96 N -0.12819 1.14805 -0.25506
 N97 N -0.15550 1.10733 -0.26127
 C98 C -0.14702 1.07372 -0.22769
 C99 C -0.11281 1.09447 -0.19956
 C100 C -0.10134 1.14153 -0.21746
 H101 H -0.16428 1.03699 -0.22394
 H102 H -0.07512 1.16842 -0.20473
 H103 H -0.19600 1.17843 -0.30381
 H104 H -0.15089 1.14747 -0.34005
 N105 N 0.73621 0.58584 0.65160
 N106 N 0.72343 0.60187 0.61084
 C107 C 0.75579 0.58794 0.58000
 C108 C 0.79003 0.56148 0.60313
 C109 C 0.77685 0.56079 0.64823
 H110 H 0.75508 0.59750 0.54413
 H111 H 0.79612 0.54497 0.67667
 Cu112 Cu 0.66733 0.64229 0.60270
 Cu113 Cu 0.70163 0.60243 0.70684
 Cu114 Cu 0.59069 0.64889 0.68829
 N115 N 0.61723 0.69221 0.60250
 N116 N 0.58821 0.69578 0.63695
 C117 C 0.55981 0.73585 0.63038
 C118 C 0.57132 0.75767 0.58934
 C119 C 0.60791 0.72948 0.57231
 H120 H 0.53380 0.74891 0.65425
 H121 H 0.62793 0.73730 0.54200
 N122 N 0.61024 0.61877 0.74658
 N123 N 0.65351 0.60408 0.75478
 C124 C 0.65662 0.58698 0.79808
 C125 C 0.61306 0.59077 0.81734
 C126 C 0.58429 0.61078 0.78398
 H127 H 0.68750 0.57075 0.81353
 H128 H 0.54743 0.61873 0.78661
 H129 H 0.64181 0.59485 0.66989
 H130 H 0.65996 0.66211 0.68423
 N131 N 0.79936 0.45745 0.11767
 N132 N 0.79749 0.41817 0.08896
 C133 C 0.75634 0.41821 0.06612
 C134 C 0.73199 0.46051 0.08098
 C135 C 0.76006 0.48493 0.11325
 H136 H 0.74521 0.38992 0.04079
 H137 H 0.75175 0.51856 0.13346
 Cu138 Cu 0.84995 0.37201 0.08331
 Cu139 Cu 0.85093 0.46643 0.16145
 Cu140 Cu 0.90898 0.35212 0.18063
 N141 N 0.89656 0.31886 0.08734
 N142 N 0.91800 0.30919 0.12631
 C143 C 0.94376 0.26656 0.12128
 C144 C 0.93875 0.25006 0.07637
 C145 C 0.90883 0.28380 0.05569
 H146 H 0.96382 0.24879 0.14821
 H147 H 0.89495 0.28123 0.02117
 N148 N 0.91065 0.41074 0.22418
 N149 N 0.88951 0.45463 0.21637
 C150 C 0.89664 0.48657 0.25246
 C151 C 0.92389 0.46148 0.28392
 C152 C 0.93236 0.41365 0.26527
 H153 H 0.88217 0.52450 0.25594
 H154 H 0.95205 0.38313 0.28071
 H155 H 0.90208 0.41385 0.13962
 H156 H 0.84695 0.38958 0.16526
 N157 N 0.28239 0.06624 0.86480
 N158 N 0.28722 0.10196 0.89675
 C159 C 0.25419 0.09479 0.92862
 C160 C 0.22861 0.05151 0.91606
 C161 C 0.24720 0.03429 0.87564
 H162 H 0.24772 0.12030 0.95724
 H163 H 0.23337 0.00398 0.85365
 Cu164 Cu 0.33335 0.15693 0.89052
 Cu165 Cu 0.31420 0.07067 0.80675
 Cu166 Cu 0.41415 0.14671 0.80863
 N167 N 0.38047 0.21024 0.88165
 N168 N 0.41037 0.20747 0.84784
 C169 C 0.43787 0.24976 0.84848
 C170 C 0.42468 0.27973 0.88510
 C171 C 0.38851 0.25387 0.90571
 H172 H 0.46615 0.25709 0.82517
 H173 H 0.36943 0.26612 0.93553
 N174 N 0.40115 0.09409 0.76107
 N175 N 0.36172 0.06731 0.75914
 C176 C 0.36094 0.03794 0.72096
 C177 C 0.40211 0.04628 0.69853
 C178 C 0.42707 0.08197 0.72440
 H179 H 0.33269 0.01247 0.71035
 H180 H 0.46039 0.09927 0.71625
 H181 H 0.37192 0.09332 0.84240
 H182 H 0.34371 0.14471 0.80835
 N183 N 0.25040 0.84395 0.33519
 N184 N 0.23594 0.83810 0.37740
 C185 C 0.27187 0.84638 0.40674
 C186 C 0.31084 0.85742 0.38122
 C187 C 0.29636 0.85565 0.33608
 H188 H 0.26944 0.84613 0.44362
 H189 H 0.31687 0.86496 0.30643
 Cu190 Cu 0.17143 0.82155 0.39030
 Cu191 Cu 0.20745 0.84006 0.28274
 Cu192 Cu 0.08980 0.83541 0.30929
 N193 N 0.11029 0.78926 0.39506
 N194 N 0.07815 0.79381 0.36290
 C195 C 0.04153 0.76288 0.37224
 C196 C 0.05163 0.73805 0.41246
 C197 C 0.09542 0.75550 0.42611
 H198 H 0.01171 0.75619 0.34982
 H199 H 0.11646 0.74153 0.45417
 N200 N 0.11258 0.85558 0.24923
 N201 N 0.15716 0.85517 0.23801
 C202 C 0.16131 0.87179 0.19467
 C203 C 0.11719 0.88326 0.17871
 C204 C 0.08709 0.87268 0.21388
 H205 H 0.19395 0.87779 0.17721
 H206 H 0.04971 0.87811 0.21414
 H207 H 0.15599 0.87047 0.32151
 H208 H 0.15190 0.79979 0.31099
 Zn209 Zn 0.01847 1.07340 -0.02145
 Zn210 Zn -0.03983 0.98084 -0.04230
 Zn211 Zn 0.05585 0.96794 -0.00222
 Zn212 Zn -0.02066 1.01267 0.05414
 O213 O 0.00366 1.00862 -0.00299
 O214 O -0.01054 1.09055 -0.07365
 O215 O -0.01884 0.92576 -0.07125
 O216 O 0.10649 1.00263 -0.02117
 O217 O -0.05686 1.02343 -0.08663
 O218 O 0.07968 1.08128 -0.03123
 O219 O 0.05049 0.91199 -0.03969
 O220 O 0.01305 0.97905 0.09495
 O221 O -0.09228 0.96050 -0.01469
 O222 O 0.06990 0.94482 0.05428
 O223 O -0.07757 0.98476 0.05685
 O224 O -0.02664 1.07701 0.07552
 O225 O 0.00126 1.12220 0.01833
 C226 C -0.04196 1.06761 -0.09721
 C227 C 0.01796 0.89964 -0.06784
 C228 C 0.11273 1.04930 -0.03180
 C229 C 0.04931 0.95197 0.09209
 C230 C -0.10411 0.96385 0.02683
 C231 C -0.01787 1.11969 0.05716
 Zn232 Zn 0.49797 -0.07266 0.44978
 Zn233 Zn 0.53435 -0.02967 0.53678
 Zn234 Zn 0.51743 0.03900 0.46222
 Zn235 Zn 0.43892 -0.01456 0.50750
 O236 O 0.49761 -0.01926 0.48866
 O237 O 0.52281 -0.12856 0.47655
 O238 O 0.58818 0.00456 0.53166
 O239 O 0.54661 0.02470 0.40927
 O240 O 0.54637 -0.09611 0.54379
 O241 O 0.52997 -0.05824 0.39961
 O242 O 0.55948 0.07342 0.49849
 O243 O 0.41020 0.03412 0.47637
 O244 O 0.50882 -0.00618 0.58861
 O245 O 0.46871 0.07983 0.44762
 O246 O 0.43495 0.00204 0.56682
 O247 O 0.40565 -0.07219 0.49658
 O248 O 0.43946 -0.08885 0.43078
 C249 C 0.54044 -0.13398 0.51640
 C250 C 0.59125 0.05186 0.52200
 C251 C 0.54871 -0.01679 0.38609
 C252 C 0.42517 0.07160 0.45333
 C253 C 0.46702 0.00598 0.59710
 C254 C 0.40435 -0.09210 0.45679
 Zn255 Zn 1.02999 0.44712 0.47738
 Zn256 Zn 1.05191 0.53964 0.53324
 Zn257 Zn 0.96793 0.53899 0.47233
 Zn258 Zn 0.97052 0.47577 0.55749
 O259 O 1.00487 0.50021 0.50994
 O260 O 1.09334 0.44911 0.47456
 O261 O 1.05212 0.60265 0.51166
 O262 O 0.95906 0.50931 0.41683
 O263 O 1.10779 0.51670 0.51901
 O264 O 1.00811 0.44425 0.41991
 O265 O 0.99348 0.60126 0.46155
 O266 O 0.91327 0.50179 0.55794
 O267 O 1.05259 0.54394 0.59369
 O268 O 0.91087 0.55024 0.49624
 O269 O 0.99410 0.49315 0.61317
 O270 O 0.96494 0.40702 0.55586
 O271 O 1.01354 0.38637 0.50017
 C272 C 1.12186 0.48025 0.49415
 C273 C 1.02859 0.62358 0.48033
 C274 C 0.97805 0.47038 0.39857
 C275 C 0.89230 0.53333 0.53240
 C276 C 1.02813 0.52254 0.62394
 C277 C 0.98519 0.37370 0.53116
 Zn278 Zn 0.47083 0.48963 0.95742
 Zn279 Zn 0.46004 0.52631 1.05331
 Zn280 Zn 0.51502 0.43309 1.03415
 Zn281 Zn 0.55267 0.53642 1.00734
 O282 O 0.49984 0.49638 1.01299
 O283 O 0.41593 0.52141 0.95587
 O284 O 0.44312 0.48535 1.09901
 O285 O 0.49409 0.38249 0.99741
 O286 O 0.40739 0.54924 1.02706
 O287 O 0.45983 0.42385 0.94072
 O288 O 0.48857 0.41853 1.08783
 O289 O 0.60384 0.50341 1.02631
 O290 O 0.48605 0.58056 1.08063
 O291 O 0.57688 0.42569 1.04220
 O292 O 0.55125 0.59428 1.04230
 O293 O 0.56400 0.55426 0.94870
 O294 O 0.50343 0.51806 0.91259
 C295 C 0.39307 0.54571 0.98596
 C296 C 0.45808 0.44189 1.11093
 C297 C 0.47063 0.38244 0.96040
 C298 C 0.61034 0.45780 1.03949
 C299 C 0.52267 0.60663 1.07343
 C300 C 0.54113 0.54387 0.91209
 N301 N 1.18950 0.44711 0.46067
 N302 N 1.17110 0.47549 0.48896
 N303 N 0.33770 0.56885 0.93127
 N304 N 0.35073 0.57032 0.97296
 N305 N -0.16261 0.95109 0.08056
 N306 N -0.14814 0.94333 0.04017
 N307 N 0.65709 0.06081 0.56875
 N308 N 0.63023 0.08114 0.53934
 N309 N 0.39890 0.14897 0.42323
 N310 N 0.39121 0.10402 0.43309
 N311 N 0.94517 0.30511 0.56324
 N312 N 0.97591 0.32044 0.53754
 N313 N 0.04243 0.81682 -0.08893
 N314 N 0.02247 0.85695 -0.09836
 N315 N 0.54996 0.68979 1.09071
 N316 N 0.53187 0.64937 1.10303
 N317 N 0.40984 0.44060 1.17542
 N318 N 0.44031 0.41842 1.15109
 N319 N 0.55284 -0.04362 0.31027
 N320 N 0.57061 -0.01652 0.34260
 N321 N -0.09310 1.07065 -0.16029
 N322 N -0.06101 1.09231 -0.13637
 N323 N 1.08030 0.54912 0.68088
 N324 N 1.03970 0.53189 0.67094
 N325 N 0.83332 0.54293 0.58614
 N326 N 0.84760 0.55171 0.54591
 N327 N 0.68583 0.47507 1.06805
 N328 N 0.65620 0.44236 1.05256
 N329 N 0.18485 1.03490 -0.06631
 N330 N 0.15740 1.06614 -0.04699
 N331 N 0.35489 -0.12361 0.39789
 N332 N 0.36170 -0.11471 0.44034
 N333 N 0.55445 -0.19465 0.57288
 N334 N 0.55463 -0.18363 0.53063
 N335 N 1.02857 0.69331 0.42906
 N336 N 1.04507 0.67169 0.46431
 N337 N -0.04454 1.20392 0.05591
 N338 N -0.03245 1.16562 0.07957
 N339 N 0.44546 0.32710 0.90006
 N340 N 0.45394 0.33451 0.94240
 N341 N 0.59962 0.57277 0.86137
 N342 N 0.55706 0.56178 0.86896
 N343 N 0.41399 0.02529 0.65503
 N344 N 0.45604 0.02452 0.64171
 N345 N 0.10525 0.90705 0.13649
 N346 N 0.06569 0.92830 0.13277
 N347 N 0.93741 0.48005 0.32839
 N348 N 0.96507 0.45438 0.35327
   
