data_POSCAR
  _audit_creation_date              2014-09-24
  _audit_creation_method            'ToBaCCo'
  _symmetry_space_group_name_H-M    'P1'
  _symmetry_Int_Tables_number       1
  _symmetry_cell_setting            triclinic
  loop_
  _symmetry_equiv_pos_as_xyz
 x,y,z
_cell_length_a 18.0047
_cell_length_b 18.0438
_cell_length_c 28.8936
_cell_angle_alpha 89.849400
_cell_angle_beta 94.166900
_cell_angle_gamma 89.995700
loop_
  _atom_site_label
  _atom_site_type_symbol
  _atom_site_fract_x
  _atom_site_fract_y
  _atom_site_fract_z
C1 C -0.00612 0.34213 1.04219
 C2 C -0.00078 0.30462 1.00038
 C3 C 0.00463 0.34271 0.95873
 C4 C 0.00504 0.42090 0.95830
 C5 C -0.00064 0.46000 1.00053
 C6 C -0.00640 0.42048 1.04275
 C7 C -0.01226 0.46032 1.08408
 C8 C -0.01256 0.53750 1.08403
 C9 C -0.00674 0.57780 1.04266
 C10 C -0.00055 0.53867 1.00051
 C11 C 0.01099 0.46088 0.91697
 C12 C 0.01146 0.53804 0.91698
 C13 C 0.00572 0.57806 0.95833
 C14 C 0.00605 0.65644 0.95879
 C15 C -0.00038 0.69427 1.00044
 C16 C -0.00689 0.65621 1.04213
 H17 H -0.01679 0.43196 1.11684
 H18 H -0.01729 0.56547 1.11680
 H19 H 0.01545 0.43269 0.88425
 H20 H 0.01625 0.56620 0.88419
 H21 H -0.00081 0.24437 1.00015
 H22 H -0.00031 0.75454 1.00041
 C23 C 0.64995 0.00972 0.45414
 C24 C 0.69568 0.01022 0.49525
 C25 C 0.66579 0.01108 0.53853
 C26 C 0.58765 0.01125 0.54117
 C27 C 0.54055 0.01129 0.49953
 C28 C 0.57180 0.01074 0.45578
 C29 C 0.52420 0.01095 0.41500
 C30 C 0.44714 0.01158 0.41705
 C31 C 0.41500 0.01162 0.45995
 C32 C 0.46206 0.01137 0.50160
 C33 C 0.55532 0.01108 0.58408
 C34 C 0.47823 0.01060 0.58610
 C35 C 0.43069 0.01067 0.54530
 C36 C 0.35249 0.00981 0.54685
 C37 C 0.30692 0.01059 0.50567
 C38 C 0.33700 0.01158 0.46250
 H39 H 0.54624 0.01072 0.38112
 H40 H 0.41286 0.01177 0.38467
 H41 H 0.58951 0.01105 0.61650
 H42 H 0.45611 0.01025 0.61996
 H43 H 0.75576 0.00941 0.49343
 H44 H 0.24684 0.00987 0.50723
 C45 C 0.12471 0.00550 0.27629
 H46 H 0.13232 0.00533 0.23949
 C47 C 0.18675 0.00872 0.30842
 H48 H 0.24236 0.01063 0.29645
 C49 C 0.04327 0.00400 0.33721
 H50 H -0.01246 0.00332 0.34858
 C51 C 0.10342 0.00730 0.37028
 H52 H 0.09355 0.00823 0.40683
 N53 N 0.05470 0.00182 0.29117
 C54 C -0.08945 -0.10781 0.18395
 H55 H -0.13750 -0.07180 0.18389
 C56 C -0.08878 -0.16625 0.15241
 H57 H -0.13645 -0.17532 0.12799
 C58 C 0.03312 -0.13740 0.21394
 H59 H 0.08080 -0.12563 0.23758
 C60 C 0.03611 -0.19646 0.18291
 H61 H 0.08634 -0.22943 0.18248
 Zn62 Zn -0.02927 -0.00384 0.24755
 N63 N -0.02808 -0.09289 0.21273
 C64 C -0.02447 0.06511 0.16034
 N65 N -0.02621 0.07849 0.20658
 C66 C -0.02258 0.14899 0.22345
 C67 C -0.01918 0.20944 0.19310
 C68 C -0.02114 0.12354 0.12904
 C69 C -0.13015 -0.06527 0.30517
 C70 C -0.18643 -0.06560 0.33589
 C71 C -0.21849 0.05948 0.31189
 C72 C -0.16159 0.05743 0.28143
 N73 N -0.11712 -0.00345 0.27994
 H74 H -0.02485 0.00910 0.14744
 H75 H -0.02214 0.15820 0.26045
 H76 H -0.01659 0.26539 0.20661
 H77 H -0.01996 0.11200 0.09231
 H78 H -0.09398 -0.11288 0.30327
 H79 H -0.19368 -0.11362 0.35770
 H80 H -0.25107 0.10950 0.31482
 H81 H -0.15102 0.10564 0.26074
 C82 C -0.02475 -0.20982 0.15114
 C83 C 0.17575 0.00911 0.35586
 C84 C -0.22968 -0.00198 0.34018
 C85 C -0.01875 0.19629 0.14541
 C86 C 0.02207 0.14820 0.77560
 H87 H 0.02212 0.15762 0.73861
 C88 C 0.01850 0.20848 0.80586
 H89 H 0.01626 0.26451 0.79230
 C90 C 0.02298 0.06395 0.83876
 H91 H 0.02302 0.00787 0.85171
 C92 C 0.01944 0.12221 0.86998
 H93 H 0.01780 0.11045 0.90670
 N94 N 0.02534 0.07760 0.79254
 C95 C 0.13022 -0.06556 0.69445
 H96 H 0.09388 -0.11309 0.69612
 C97 C 0.18707 -0.06581 0.66412
 H98 H 0.19453 -0.11366 0.64236
 C99 C 0.16172 0.05679 0.71844
 H100 H 0.15102 0.10482 0.73912
 C101 C 0.21919 0.05893 0.68838
 H102 H 0.25203 0.10885 0.68570
 Zn103 Zn 0.02883 -0.00456 0.75175
 N104 N 0.11698 -0.00394 0.71961
 C105 C -0.04347 0.00318 0.66196
 N106 N -0.05501 0.00103 0.70799
 C107 C -0.12507 0.00470 0.72279
 C108 C -0.18705 0.00791 0.69060
 C109 C -0.10356 0.00647 0.62883
 C110 C 0.08900 -0.10836 0.81575
 C111 C 0.08824 -0.16649 0.84768
 C112 C -0.03664 -0.19678 0.81730
 C113 C -0.03355 -0.13801 0.78587
 N114 N 0.02768 -0.09359 0.78684
 H115 H 0.01230 0.00251 0.65065
 H116 H -0.13276 0.00454 0.75958
 H117 H -0.24269 0.00982 0.70251
 H118 H -0.09361 0.00740 0.59228
 H119 H 0.13705 -0.07237 0.81563
 H120 H 0.13586 -0.17542 0.87219
 H121 H -0.08690 -0.22966 0.81792
 H122 H -0.08121 -0.12633 0.76215
 C123 C 0.23068 -0.00232 0.66018
 C124 C 0.01748 0.19504 0.85353
 C125 C 0.02415 -0.20991 0.84921
 C126 C -0.17594 0.00829 0.64317
 C127 C -0.01331 -0.30225 0.08118
 C128 C -0.01876 -0.26214 0.11409
 C129 C -0.01084 0.29935 0.08099
 C130 C -0.01461 0.25555 0.11231
 C131 C 0.31570 0.00643 0.58961
 C132 C 0.27968 0.00278 0.62312
 C133 C -0.28494 0.01071 0.57684
 C134 C -0.23745 0.00994 0.60849
 C135 C 0.01254 -0.30188 0.91968
 C136 C 0.01806 -0.26191 0.88659
 C137 C 0.00958 0.29794 0.91771
 C138 C 0.01334 0.25414 0.88654
 C139 C -0.31353 0.00649 0.41129
 C140 C -0.27798 0.00297 0.37758
 C141 C 0.28499 0.01138 0.42200
 C142 C 0.23733 0.01070 0.39047
   
