data_POSCAR
  _audit_creation_date              2014-09-24
  _audit_creation_method            'ToBaCCo'
  _symmetry_space_group_name_H-M    'P1'
  _symmetry_Int_Tables_number       1
  _symmetry_cell_setting            triclinic
  loop_
  _symmetry_equiv_pos_as_xyz
 x,y,z
_cell_length_a 58.8640
_cell_length_b 34.6565
_cell_length_c 20.1201
_cell_angle_alpha 89.993500
_cell_angle_beta 89.949900
_cell_angle_gamma 90.038600
loop_
  _atom_site_label
  _atom_site_type_symbol
  _atom_site_fract_x
  _atom_site_fract_y
  _atom_site_fract_z
C1 C 0.74906 0.24594 0.46765
 C2 C 0.74918 0.24655 0.53546
 C3 C 0.72996 0.26283 0.57434
 C4 C 0.76862 0.23095 0.57400
 C5 C 0.76705 0.22566 0.42929
 C6 C 0.73113 0.26585 0.42874
 C7 C 0.73407 0.29097 0.62260
 C8 C 0.71617 0.30716 0.65863
 C9 C 0.69330 0.29560 0.64786
 C10 C 0.68965 0.26630 0.59964
 C11 C 0.70767 0.25016 0.56397
 C12 C 0.79083 0.24418 0.56246
 C13 C 0.80911 0.22807 0.59684
 C14 C 0.80550 0.19876 0.64400
 C15 C 0.78316 0.18640 0.65684
 C16 C 0.76489 0.20245 0.62229
 C17 C 0.77194 0.18663 0.44125
 C18 C 0.78973 0.16844 0.40756
 C19 C 0.80278 0.18882 0.36065
 C20 C 0.79734 0.22756 0.34727
 C21 C 0.77960 0.24575 0.38114
 C22 C 0.71868 0.24537 0.38093
 C23 C 0.70125 0.26347 0.34562
 C24 C 0.69606 0.30250 0.35718
 C25 C 0.70896 0.32320 0.40394
 C26 C 0.72642 0.30510 0.43910
 H27 H 0.75120 0.30124 0.63125
 H28 H 0.72064 0.33036 0.69194
 H29 H 0.67310 0.25391 0.59070
 H30 H 0.70421 0.22748 0.52835
 H31 H 0.79399 0.26677 0.52641
 H32 H 0.82607 0.23869 0.58680
 H33 H 0.74787 0.19199 0.63204
 H34 H 0.76214 0.17038 0.47722
 H35 H 0.79323 0.13838 0.41801
 H36 H 0.80719 0.24413 0.31185
 H37 H 0.77603 0.27585 0.37108
 H38 H 0.72213 0.21511 0.37205
 H39 H 0.69150 0.24667 0.31036
 H40 H 0.70566 0.35348 0.41300
 H41 H 0.73619 0.32164 0.47471
 H42 H 0.77986 0.16365 0.69246
 C43 C 0.24927 0.74600 0.46510
 C44 C 0.24917 0.74557 0.53291
 C45 C 0.23123 0.76555 0.57176
 C46 C 0.26717 0.72539 0.57130
 C47 C 0.26870 0.73032 0.42650
 C48 C 0.23003 0.76216 0.42627
 C49 C 0.22648 0.80475 0.56106
 C50 C 0.20895 0.82287 0.59594
 C51 C 0.19601 0.80224 0.64278
 C52 C 0.20126 0.76327 0.65475
 C53 C 0.21875 0.74515 0.61970
 C54 C 0.27973 0.74560 0.61920
 C55 C 0.29750 0.72750 0.65302
 C56 C 0.30296 0.68875 0.63984
 C57 C 0.28989 0.66825 0.59321
 C58 C 0.27207 0.68633 0.55957
 C59 C 0.26496 0.70175 0.37840
 C60 C 0.28322 0.68565 0.34378
 C61 C 0.30555 0.69803 0.35637
 C62 C 0.30918 0.72742 0.40335
 C63 C 0.29091 0.74358 0.43780
 C64 C 0.20769 0.74933 0.43691
 C65 C 0.18969 0.76549 0.40130
 C66 C 0.19371 0.79448 0.35379
 C67 C 0.21617 0.80658 0.34216
 C68 C 0.23415 0.79048 0.37792
 H69 H 0.23626 0.82123 0.52534
 H70 H 0.20560 0.85310 0.58657
 H71 H 0.19148 0.74653 0.69009
 H72 H 0.22223 0.71493 0.62886
 H73 H 0.27616 0.77571 0.62908
 H74 H 0.30737 0.74416 0.68822
 H75 H 0.26225 0.67000 0.52380
 H76 H 0.24793 0.69127 0.36884
 H77 H 0.27990 0.66284 0.30830
 H78 H 0.32615 0.73806 0.41319
 H79 H 0.29409 0.76623 0.47370
 H80 H 0.20421 0.72686 0.47294
 H81 H 0.17262 0.75508 0.41051
 H82 H 0.21979 0.82911 0.30640
 H83 H 0.25127 0.80067 0.36880
 H84 H 0.29339 0.63817 0.58292
 C85 C 0.24925 0.25389 -0.46658
 C86 C 0.24926 0.25396 -0.53439
 C87 C 0.26739 0.27380 -0.57293
 C88 C 0.23131 0.23393 -0.57314
 C89 C 0.23002 0.23766 -0.42761
 C90 C 0.26854 0.27003 -0.42803
 C91 C 0.27224 0.31291 -0.56244
 C92 C 0.29010 0.33078 -0.59635
 C93 C 0.30361 0.31005 -0.64233
 C94 C 0.29793 0.27093 -0.65392
 C95 C 0.28006 0.25322 -0.61988
 C96 C 0.21900 0.25415 -0.62132
 C97 C 0.20152 0.23608 -0.65645
 C98 C 0.19587 0.19697 -0.64458
 C99 C 0.20894 0.17669 -0.59703
 C100 C 0.22645 0.19487 -0.56222
 C101 C 0.23418 0.20970 -0.37895
 C102 C 0.21627 0.19357 -0.34278
 C103 C 0.19354 0.20511 -0.35403
 C104 C 0.18970 0.23403 -0.40241
 C105 C 0.20770 0.25016 -0.43827
 C106 C 0.29079 0.25672 -0.43827
 C107 C 0.30891 0.27316 -0.40353
 C108 C 0.30508 0.30297 -0.35748
 C109 C 0.28269 0.31548 -0.34608
 C110 C 0.26459 0.29904 -0.38085
 H111 H 0.26244 0.32946 -0.52690
 H112 H 0.29379 0.36039 -0.58347
 H113 H 0.30675 0.25382 -0.69069
 H114 H 0.27632 0.22312 -0.62948
 H115 H 0.22252 0.28438 -0.63046
 H116 H 0.19185 0.25376 -0.69040
 H117 H 0.23624 0.17842 -0.52655
 H118 H 0.25132 0.19962 -0.37002
 H119 H 0.22046 0.17072 -0.30837
 H120 H 0.17294 0.24557 -0.41147
 H121 H 0.20419 0.27259 -0.47433
 H122 H 0.29413 0.23390 -0.47372
 H123 H 0.32597 0.26307 -0.41370
 H124 H 0.27917 0.33792 -0.31007
 H125 H 0.24751 0.30941 -0.37184
 H126 H 0.20635 0.14628 -0.58773
 C127 C -0.25088 0.75446 -0.46777
 C128 C -0.25077 0.75396 -0.53558
 C129 C -0.23136 0.76974 -0.57422
 C130 C -0.26998 0.73761 -0.57437
 C131 C -0.26882 0.73447 -0.42883
 C132 C -0.23290 0.77473 -0.42941
 C133 C -0.23513 0.79807 -0.62249
 C134 C -0.21694 0.81424 -0.65735
 C135 C -0.19433 0.80237 -0.64507
 C136 C -0.19091 0.77290 -0.59744
 C137 C -0.20917 0.75672 -0.56293
 C138 C -0.29229 0.75026 -0.56390
 C139 C -0.31029 0.73401 -0.59949
 C140 C -0.30647 0.70482 -0.64740
 C141 C -0.28375 0.69315 -0.65851
 C142 C -0.26584 0.70939 -0.62261
 C143 C -0.27355 0.69532 -0.43923
 C144 C -0.29099 0.67710 -0.40411
 C145 C -0.30413 0.69745 -0.35675
 C146 C -0.29864 0.73667 -0.34545
 C147 C -0.28122 0.75478 -0.38089
 C148 C -0.22035 0.75461 -0.38140
 C149 C -0.20266 0.77282 -0.34738
 C150 C -0.19726 0.81163 -0.36047
 C151 C -0.21030 0.83203 -0.40728
 C152 C -0.22803 0.81382 -0.44113
 H153 H -0.25217 0.80850 -0.63187
 H154 H -0.22081 0.83745 -0.69139
 H155 H -0.17425 0.76105 -0.58785
 H156 H -0.20599 0.73401 -0.52716
 H157 H -0.29579 0.77288 -0.52819
 H158 H -0.32704 0.74567 -0.59060
 H159 H -0.24870 0.69920 -0.63140
 H160 H -0.26369 0.67880 -0.47469
 H161 H -0.29346 0.64663 -0.41298
 H162 H -0.30838 0.75440 -0.31169
 H163 H -0.27781 0.78507 -0.37215
 H164 H -0.22389 0.72447 -0.37152
 H165 H -0.19281 0.75623 -0.31206
 H166 H -0.20683 0.86214 -0.41752
 H167 H -0.23784 0.83009 -0.47699
 H168 H -0.27957 0.67011 -0.69258
 O169 O -0.03130 0.93142 0.11798
 O170 O -0.05640 0.96715 0.05576
 C171 C -0.05168 0.94171 0.10086
 O172 O 0.03242 1.06889 0.11952
 O173 O 0.05746 1.03305 0.05746
 C174 C 0.05277 1.05900 0.10166
 O175 O -0.03106 1.06528 0.12569
 O176 O -0.05602 1.03166 0.05996
 C177 C -0.05139 1.05551 0.10756
 O178 O 0.03236 0.92737 0.11165
 O179 O 0.05744 0.96562 0.05395
 C180 C 0.05272 0.93802 0.09517
 Zr181 Zr 0.00068 0.94997 0.08086
 O182 O 0.00294 0.94627 0.18566
 O183 O -0.00046 0.88931 0.07068
 Zr184 Zr 0.00065 1.04747 0.08638
 O185 O 0.00323 1.04529 0.19128
 O186 O -0.00193 1.10840 0.08877
 O187 O -0.01959 0.99844 0.09678
 O188 O 0.02043 0.99852 0.09571
 O189 O 0.03231 0.93117 -0.11904
 O190 O 0.05739 0.96755 -0.05802
 C191 C 0.05267 0.94128 -0.10166
 O192 O -0.03098 1.06956 -0.11878
 O193 O -0.05601 1.03371 -0.05660
 C194 C -0.05132 1.05920 -0.10166
 O195 O 0.03263 1.07271 -0.11211
 O196 O 0.05774 1.03474 -0.05404
 C197 C 0.05301 1.06219 -0.09551
 O198 O -0.03138 0.93537 -0.12469
 O199 O -0.05640 0.96925 -0.05914
 C200 C -0.05174 0.94524 -0.10656
 Zr201 Zr 0.00061 0.95312 -0.08656
 O202 O 0.00314 0.95557 -0.19147
 O203 O -0.00153 0.89219 -0.08971
 Zr204 Zr 0.00069 1.05054 -0.08139
 O205 O 0.00326 1.05270 -0.18628
 O206 O -0.00187 1.11143 -0.07675
 Zr207 Zr -0.03324 1.00021 -0.00002
 Zr208 Zr 0.03463 1.00039 -0.00027
 O209 O 0.02043 1.00203 -0.09622
 O210 O -0.01963 1.00204 -0.09697
 O211 O 0.02099 0.94420 -0.00326
 O212 O -0.01912 1.05599 0.00290
 O213 O -0.01919 0.94445 -0.00307
 O214 O 0.02098 1.05663 0.00285
 H215 H 0.03061 0.99776 0.13487
 H216 H -0.02940 1.07860 0.00411
 H217 H 0.03067 1.00265 -0.13530
 H218 H -0.02948 0.92183 -0.00422
 H219 H 0.01087 1.11895 0.06255
 H220 H 0.01128 1.12104 -0.05105
 H221 H -0.00897 1.03628 -0.20458
 H222 H -0.00998 0.97056 -0.20803
 H223 H 0.00883 0.88213 -0.05510
 H224 H -0.00070 0.87875 0.11645
 H225 H -0.00868 0.96380 0.20431
 H226 H -0.00948 1.02929 0.20788
 O227 O 0.46909 0.43450 0.12432
 O228 O 0.44406 0.46820 0.05885
 C229 C 0.44873 0.44424 0.10628
 O230 O 0.53245 0.57219 0.11246
 O231 O 0.55755 0.53449 0.05400
 C232 C 0.55282 0.56179 0.09573
 O233 O 0.46903 0.56875 0.11846
 O234 O 0.44404 0.53313 0.05598
 C235 C 0.44870 0.55846 0.10125
 O236 O 0.53278 0.43090 0.11719
 O237 O 0.55783 0.46741 0.05599
 C238 C 0.55315 0.44112 0.09967
 Zr239 Zr 0.50087 0.45218 0.08484
 O240 O 0.50316 0.45165 0.18981
 O241 O 0.49978 0.39129 0.08009
 Zr242 Zr 0.50075 0.54970 0.08122
 O243 O 0.50326 0.55069 0.18619
 O244 O 0.49818 0.61061 0.07817
 O245 O 0.48052 0.50106 0.09605
 O246 O 0.52054 0.50115 0.09526
 O247 O 0.53246 0.42716 -0.11303
 O248 O 0.55754 0.46531 -0.05530
 C249 C 0.55282 0.43775 -0.09658
 O250 O 0.46917 0.56530 -0.12576
 O251 O 0.44410 0.53144 -0.06044
 C252 C 0.44881 0.55548 -0.10777
 O253 O 0.53287 0.56878 -0.11915
 O254 O 0.55785 0.53266 -0.05736
 C255 C 0.55321 0.55878 -0.10131
 O256 O 0.46884 0.43116 -0.11908
 O257 O 0.44374 0.46698 -0.05696
 C258 C 0.44847 0.44153 -0.10202
 Zr259 Zr 0.50078 0.45009 -0.08262
 O260 O 0.50334 0.44926 -0.18761
 O261 O 0.49862 0.38915 -0.08012
 Zr262 Zr 0.50092 0.54753 -0.08660
 O263 O 0.50356 0.54629 -0.19152
 O264 O 0.49836 0.60847 -0.08785
 Zr265 Zr 0.46686 0.49984 -0.00081
 Zr266 Zr 0.53474 0.49997 -0.00073
 O267 O 0.52063 0.49861 -0.09677
 O268 O 0.48057 0.49862 -0.09771
 O269 O 0.52115 0.44374 0.00142
 O270 O 0.48104 0.55560 -0.00305
 O271 O 0.48096 0.44408 0.00150
 O272 O 0.52113 0.55624 -0.00292
 H273 H 0.53073 0.50162 0.13441
 H274 H 0.47078 0.57825 -0.00402
 H275 H 0.53091 0.49801 -0.13578
 H276 H 0.47069 0.42143 0.00247
 H277 H 0.51090 0.62034 0.05074
 H278 H 0.51143 0.61889 -0.06276
 H279 H 0.49124 0.52951 -0.20831
 H280 H 0.49024 0.46374 -0.20557
 H281 H 0.50903 0.38017 -0.04475
 H282 H 0.49992 0.38211 0.12674
 H283 H 0.49182 0.47023 0.20681
 H284 H 0.49037 0.53562 0.20420
 C285 C 0.35935 0.32285 0.26931
 C286 C 0.36005 0.36283 0.26101
 C287 C 0.34208 0.38544 0.28414
 C288 C 0.32348 0.36822 0.31569
 C289 C 0.32238 0.32773 0.32482
 C290 C 0.34079 0.30545 0.30070
 C291 C 0.37922 0.38058 0.22864
 C292 C 0.39528 0.39528 0.20131
 C293 C 0.41404 0.41236 0.16889
 C294 C 0.42996 0.42690 0.14067
 H295 H 0.37328 0.30506 0.25201
 H296 H 0.34235 0.41645 0.27740
 H297 H 0.30968 0.38694 0.33039
 H298 H 0.34161 0.27461 0.30822
 C299 C -0.13549 0.83790 0.31674
 C300 C -0.13874 0.85540 0.25498
 C301 C -0.16024 0.85507 0.22578
 C302 C -0.17851 0.83751 0.25828
 C303 C -0.17569 0.81972 0.32110
 C304 C -0.15368 0.82022 0.34946
 C305 C -0.12003 0.87392 0.22176
 C306 C -0.10436 0.88949 0.19402
 C307 C -0.08602 0.90775 0.16160
 C308 C -0.07034 0.92330 0.13390
 H309 H -0.11891 0.83827 0.34007
 H310 H -0.16290 0.86827 0.17758
 H311 H -0.19459 0.83687 0.23237
 H312 H -0.15042 0.80857 0.39837
 C313 C 0.66060 0.65247 0.22053
 C314 C 0.63886 0.65189 0.24826
 C315 C 0.63506 0.66923 0.30992
 C316 C 0.65293 0.68691 0.34405
 C317 C 0.67518 0.68757 0.31726
 C318 C 0.67856 0.67004 0.25443
 C319 C 0.62050 0.63301 0.21396
 C320 C 0.60509 0.61697 0.18577
 C321 C 0.58699 0.59794 0.15349
 C322 C 0.57144 0.58152 0.12666
 H323 H 0.66370 0.63939 0.17245
 H324 H 0.61829 0.66865 0.33217
 H325 H 0.64922 0.69838 0.39281
 H326 H 0.69484 0.67084 0.22960
 C327 C 0.14779 1.12951 0.31616
 C328 C 0.14065 1.14350 0.25456
 C329 C 0.15186 1.17485 0.22580
 C330 C 0.17008 1.19236 0.25860
 C331 C 0.17757 1.17883 0.32128
 C332 C 0.16601 1.14683 0.34918
 C333 C 0.12174 1.12576 0.22106
 C334 C 0.10588 1.11080 0.19330
 C335 C 0.08731 1.09309 0.16112
 C336 C 0.07150 1.07771 0.13386
 H337 H 0.13909 1.10538 0.33916
 H338 H 0.14659 1.18571 0.17772
 H339 H 0.17865 1.21561 0.23300
 H340 H 0.17018 1.13586 0.39795
 C341 C 0.63496 0.32762 -0.30734
 C342 C 0.63903 0.34771 -0.24850
 C343 C 0.66108 0.35001 -0.22357
 C344 C 0.67908 0.33258 -0.25747
 C345 C 0.67558 0.31217 -0.31790
 C346 C 0.65285 0.31005 -0.34157
 C347 C 0.62061 0.36649 -0.21427
 C348 C 0.60517 0.38249 -0.18616
 C349 C 0.58703 0.40150 -0.15400
 C350 C 0.57146 0.41794 -0.12730
 H351 H 0.61792 0.32601 -0.32753
 H352 H 0.66439 0.36519 -0.17749
 H353 H 0.69546 0.33403 -0.23350
 H354 H 0.64856 0.29685 -0.38851
 C355 C 0.15488 0.83142 -0.22073
 C356 C 0.14025 0.85617 -0.25514
 C357 C 0.14393 0.86353 -0.32269
 C358 C 0.16212 0.84614 -0.35580
 C359 C 0.17689 0.82112 -0.32172
 C360 C 0.17308 0.81397 -0.25377
 C361 C 0.12143 0.87399 -0.22131
 C362 C 0.10564 0.88904 -0.19335
 C363 C 0.08714 0.90690 -0.16103
 C364 C 0.07137 0.92241 -0.13375
 H365 H 0.15222 0.82562 -0.16838
 H366 H 0.13267 0.88256 -0.34984
 H367 H 0.16441 0.85178 -0.40832
 H368 H 0.18431 0.79520 -0.22603
 C369 C 0.35585 0.62859 -0.33017
 C370 C 0.35994 0.63564 -0.26274
 C371 C 0.34528 0.65970 -0.22692
 C372 C 0.32666 0.67680 -0.25841
 C373 C 0.32245 0.67001 -0.32624
 C374 C 0.33723 0.64563 -0.36175
 C375 C 0.37921 0.61835 -0.23034
 C376 C 0.39533 0.60396 -0.20296
 C377 C 0.41412 0.58714 -0.17046
 C378 C 0.43005 0.57274 -0.14220
 H379 H 0.36712 0.61010 -0.35842
 H380 H 0.34825 0.66526 -0.17465
 H381 H 0.31545 0.69505 -0.22957
 H382 H 0.33463 0.64029 -0.41422
 C383 C -0.15819 1.15414 -0.22053
 C384 C -0.13834 1.14524 -0.25565
 C385 C -0.13675 1.15413 -0.32333
 C386 C -0.15496 1.17176 -0.35589
 C387 C -0.17503 1.18069 -0.32110
 C388 C -0.17643 1.17174 -0.25300
 C389 C -0.11966 1.12677 -0.22237
 C390 C -0.10401 1.11124 -0.19462
 C391 C -0.08568 1.09305 -0.16222
 C392 C -0.07000 1.07755 -0.13457
 H393 H -0.15957 1.14746 -0.16807
 H394 H -0.12149 1.14724 -0.35102
 H395 H -0.15350 1.17779 -0.40854
 H396 H -0.19155 1.17867 -0.22475
 C397 C 0.65201 0.67535 -0.22647
 C398 C 0.64093 0.64373 -0.25471
 C399 C 0.64810 0.62956 -0.31619
 C400 C 0.66623 0.64698 -0.34960
 C401 C 0.67765 0.67925 -0.32223
 C402 C 0.67013 0.69296 -0.25966
 C403 C 0.62210 0.62590 -0.22085
 C404 C 0.60630 0.61086 -0.19288
 C405 C 0.58777 0.59304 -0.16057
 C406 C 0.57196 0.57758 -0.13333
 H407 H 0.64671 0.68635 -0.17848
 H408 H 0.63950 0.60523 -0.33879
 H409 H 0.67042 0.63586 -0.39827
 H410 H 0.67861 0.71643 -0.23446
 C411 C 0.13512 1.16944 -0.31068
 C412 C 0.13893 1.15243 -0.24877
 C413 C 0.16066 1.15329 -0.22107
 C414 C 0.17860 1.17080 -0.25527
 C415 C 0.17521 1.18797 -0.31837
 C416 C 0.15297 1.18706 -0.34510
 C417 C 0.12061 1.13355 -0.21420
 C418 C 0.10524 1.11749 -0.18580
 C419 C 0.08717 1.09842 -0.15334
 C420 C 0.07164 1.08196 -0.12642
 H421 H 0.11836 1.16864 -0.33288
 H422 H 0.16377 1.14046 -0.17281
 H423 H 0.19487 1.17182 -0.23048
 H424 H 0.14926 1.19827 -0.39403
 C425 C 0.34318 0.37899 -0.28013
 C426 C 0.36112 0.35647 -0.25631
 C427 C 0.36075 0.31643 -0.26519
 C428 C 0.34250 0.29894 -0.29793
 C429 C 0.32438 0.32135 -0.32212
 C430 C 0.32491 0.36158 -0.31281
 C431 C 0.37995 0.37452 -0.22300
 C432 C 0.39569 0.38980 -0.19521
 C433 C 0.41409 0.40779 -0.16276
 C434 C 0.42980 0.42319 -0.13505
 H435 H 0.34334 0.41003 -0.27370
 H436 H 0.37454 0.29872 -0.24679
 H437 H 0.34244 0.26788 -0.30367
 H438 H 0.31138 0.37965 -0.33172
 C439 C -0.14454 0.87218 -0.32961
 C440 C -0.14054 0.86509 -0.26215
 C441 C -0.15522 0.84091 -0.22658
 C442 C -0.17376 0.82370 -0.25835
 C443 C -0.17787 0.83051 -0.32623
 C444 C -0.16308 0.85503 -0.36148
 C445 C -0.12132 0.88243 -0.22949
 C446 C -0.10524 0.89684 -0.20192
 C447 C -0.08646 0.91366 -0.16928
 C448 C -0.07053 0.92803 -0.14095
 H449 H -0.13325 0.89077 -0.35767
 H450 H -0.15232 0.83531 -0.17428
 H451 H -0.18498 0.80534 -0.22971
 H452 H -0.16561 0.86040 -0.41398
 C453 C 0.34181 0.65326 0.22075
 C454 C 0.36168 0.64442 0.25573
 C455 C 0.36330 0.65340 0.32336
 C456 C 0.34510 0.67105 0.35602
 C457 C 0.32502 0.67993 0.32137
 C458 C 0.32358 0.67089 0.25332
 C459 C 0.38035 0.62595 0.22235
 C460 C 0.39600 0.61042 0.19450
 C461 C 0.41433 0.59224 0.16200
 C462 C 0.43002 0.57676 0.13427
 H463 H 0.34041 0.64652 0.16834
 H464 H 0.37858 0.64656 0.35094
 H465 H 0.34659 0.67716 0.40862
 H466 H 0.30845 0.67778 0.22518
 C467 C -0.14437 1.12856 0.33043
 C468 C -0.14033 1.13548 0.26292
 C469 C -0.15501 1.15946 0.22711
 C470 C -0.17360 1.17663 0.25870
 C471 C -0.17777 1.16999 0.32662
 C472 C -0.16296 1.14567 0.36212
 C473 C -0.12106 1.11816 0.23043
 C474 C -0.10494 1.10378 0.20297
 C475 C -0.08614 1.08700 0.17037
 C476 C -0.07019 1.07266 0.14204
 H477 H -0.13308 1.11013 0.35868
 H478 H -0.15208 1.16493 0.17478
 H479 H -0.18483 1.19483 0.22987
 H480 H -0.16553 1.14043 0.41465
 C481 C 0.64417 0.36399 0.32149
 C482 C 0.64059 0.35641 0.25400
 C483 C 0.65522 0.33145 0.21999
 C484 C 0.67334 0.31402 0.25338
 C485 C 0.67705 0.32138 0.32130
 C486 C 0.66228 0.34662 0.35496
 C487 C 0.62184 0.37417 0.21984
 C488 C 0.60610 0.38916 0.19165
 C489 C 0.58763 0.40693 0.15913
 C490 C 0.57186 0.42236 0.13177
 H491 H 0.63290 0.38318 0.34834
 H492 H 0.65264 0.32547 0.16769
 H493 H 0.68457 0.29509 0.22595
 H494 H 0.66449 0.35243 0.40744
 C495 C 0.13632 0.83925 0.31601
 C496 C 0.13855 0.84795 0.24839
 C497 C 0.15868 0.83872 0.21493
 C498 C 0.17657 0.82108 0.24901
 C499 C 0.17455 0.81241 0.31711
 C500 C 0.15418 0.82159 0.35018
 C501 C 0.12028 0.86680 0.21369
 C502 C 0.10494 0.88283 0.18525
 C503 C 0.08688 0.90184 0.15279
 C504 C 0.07136 0.91827 0.12594
 H505 H 0.12085 0.84640 0.34246
 H506 H 0.16057 0.84526 0.16255
 H507 H 0.19192 0.81395 0.22201
 H508 H 0.15222 0.81577 0.40276
   
