data_POSCAR
  _audit_creation_date              2014-09-24
  _audit_creation_method            'ToBaCCo'
  _symmetry_space_group_name_H-M    'P1'
  _symmetry_Int_Tables_number       1
  _symmetry_cell_setting            triclinic
  loop_
  _symmetry_equiv_pos_as_xyz
 x,y,z
_cell_length_a 27.8420
_cell_length_b 27.7976
_cell_length_c 27.5253
_cell_angle_alpha 89.805900
_cell_angle_beta 90.028700
_cell_angle_gamma 89.838000
loop_
  _atom_site_label
  _atom_site_type_symbol
  _atom_site_fract_x
  _atom_site_fract_y
  _atom_site_fract_z
C1 C 0.16378 0.16436 0.22335
 C2 C 0.14635 0.20813 0.20440
 C3 C 0.16804 0.22988 0.16406
 C4 C 0.20931 0.20925 0.14362
 C5 C 0.22718 0.16480 0.16082
 C6 C 0.20352 0.14261 0.20034
 H7 H 0.11415 0.22440 0.21922
 H8 H 0.22485 0.22609 0.11178
 H9 H 0.21869 0.11017 0.21592
 C10 C -0.16078 0.83576 0.22871
 C11 C -0.14142 0.79421 0.20660
 C12 C -0.16436 0.77229 0.16708
 C13 C -0.20728 0.79165 0.14899
 C14 C -0.22642 0.83367 0.16914
 C15 C -0.20359 0.85509 0.20892
 H16 H -0.10739 0.77937 0.21841
 H17 H -0.22443 0.77544 0.11772
 H18 H -0.22099 0.88597 0.22503
 C19 C -0.16362 0.16107 -0.22504
 C20 C -0.20336 0.13915 -0.20220
 C21 C -0.22629 0.16093 -0.16256
 C22 C -0.20877 0.20447 -0.14432
 C23 C -0.16807 0.22570 -0.16496
 C24 C -0.14625 0.20462 -0.20559
 H25 H -0.21850 0.10627 -0.21652
 H26 H -0.22547 0.22066 -0.11276
 H27 H -0.11414 0.22118 -0.22018
 C28 C 0.16651 0.83814 -0.22569
 C29 C 0.14292 0.79911 -0.20328
 C30 C 0.16465 0.77371 -0.16499
 C31 C 0.20900 0.78910 -0.14670
 C32 C 0.23137 0.82980 -0.16644
 C33 C 0.21115 0.85285 -0.20701
 H34 H 0.10867 0.78668 -0.21708
 H35 H 0.22468 0.77106 -0.11550
 H36 H 0.22877 0.88443 -0.22173
 C37 C 0.16618 1.16424 0.77460
 C38 C 0.20955 1.14610 0.79399
 C39 C 0.23109 1.16758 0.83453
 C40 C 0.21059 1.20879 0.85502
 C41 C 0.16720 1.22707 0.83689
 C42 C 0.14495 1.20448 0.79733
 H43 H 0.22554 1.11360 0.77951
 H44 H 0.22703 1.22509 0.88664
 H45 H 0.11212 1.22010 0.78313
 C46 C 0.83564 0.83895 0.77234
 C47 C 0.79371 0.85760 0.79399
 C48 C 0.77181 0.83397 0.83301
 C49 C 0.79126 0.79111 0.85117
 C50 C 0.83402 0.77206 0.83169
 C51 C 0.85523 0.79609 0.79191
 H52 H 0.77875 0.89174 0.78241
 H53 H 0.77462 0.77490 0.88276
 H54 H 0.88529 0.77908 0.77398
 C55 C 0.16148 0.83489 1.22613
 C56 C 0.13872 0.79621 1.20233
 C57 C 0.15896 0.77541 1.16087
 C58 C 0.20133 0.79407 1.14135
 C59 C 0.22456 0.83264 1.16396
 C60 C 0.20537 0.85198 1.20692
 H61 H 0.10613 0.78060 1.21688
 H62 H 0.21625 0.77854 1.10856
 H63 H 0.22300 0.88278 1.22291
 C64 C 0.83566 1.16629 1.22728
 C65 C 0.79593 1.14338 1.20557
 C66 C 0.77317 1.16349 1.16476
 C67 C 0.79123 1.20595 1.14421
 C68 C 0.83091 1.22884 1.16500
 C69 C 0.85213 1.20982 1.20708
 H70 H 0.78198 1.11023 1.22078
 H71 H 0.77490 1.22075 1.11164
 H72 H 0.88364 1.22734 1.22184
 O73 O 0.43186 1.08677 1.08403
 O74 O 0.37963 1.03825 1.04226
 C75 C 0.38889 1.07283 1.07224
 O76 O 0.56825 1.08118 0.91438
 O77 O 0.62045 1.03605 0.96034
 C78 C 0.61125 1.06803 0.92722
 O79 O 0.43379 1.08596 0.91715
 O80 O 0.38094 1.03923 0.96006
 C81 C 0.39061 1.07310 0.92908
 O82 O 0.56747 1.08094 1.09065
 O83 O 0.62003 1.03767 1.04361
 C84 C 0.61062 1.06890 1.07712
 Zr85 Zr 0.49972 1.05831 1.06321
 O86 O 0.50553 1.13422 1.06361
 O87 O 0.49340 1.05779 1.13986
 Zr88 Zr 0.50054 1.05731 0.94017
 O89 O 0.50569 1.13321 0.93720
 O90 O 0.49583 1.05403 0.86345
 O91 O 0.45734 1.06729 1.00128
 O92 O 0.54163 1.06653 1.00189
 O93 O 0.56719 0.91291 1.09162
 O94 O 0.61993 0.95744 1.04590
 C95 C 0.61033 0.92582 1.07921
 O96 O 0.43333 0.90750 0.91948
 O97 O 0.38032 0.95540 0.96114
 C98 C 0.39010 0.92103 0.93089
 O99 O 0.56800 0.91192 0.91543
 O100 O 0.62029 0.95616 0.96148
 C101 C 0.61107 0.92449 0.92827
 O102 O 0.43182 0.91073 1.08801
 O103 O 0.37952 0.95549 1.04163
 C104 C 0.38878 0.92288 1.07414
 Zr105 Zr 0.49976 0.93668 1.06452
 O106 O 0.50444 0.86065 1.06548
 O107 O 0.49470 0.93794 1.14125
 Zr108 Zr 0.50046 0.93571 0.94162
 O109 O 0.50586 0.85976 0.94115
 O110 O 0.49539 0.93674 0.86487
 Zr111 Zr 0.42870 0.99710 1.00184
 Zr112 Zr 0.57138 0.99682 1.00278
 O113 O 0.54173 0.92729 1.00342
 O114 O 0.45735 0.92682 1.00292
 O115 O 0.54260 0.99746 1.07362
 O116 O 0.45872 0.99656 0.93173
 O117 O 0.45796 0.99768 1.07239
 O118 O 0.54345 0.99632 0.93162
 H119 H 0.56312 1.09488 1.00179
 H120 H 0.43693 0.99641 0.90325
 H121 H 0.56336 0.89893 1.00383
 H122 H 0.43599 0.99803 1.10070
 H123 H 0.52531 1.03808 0.85145
 H124 H 0.52340 0.95472 0.85234
 H125 H 0.48150 0.84727 0.96403
 H126 H 0.47687 0.84810 1.04676
 H127 H 0.52225 0.95671 1.15356
 H128 H 0.52108 1.03952 1.15297
 H129 H 0.47994 1.14711 1.04226
 H130 H 0.48177 1.14632 0.96018
 O131 O -0.09094 0.43248 0.08148
 O132 O -0.04358 0.37976 0.03890
 C133 C -0.07756 0.38923 0.06968
 O134 O -0.08830 0.56627 -0.09125
 O135 O -0.04350 0.61961 -0.04666
 C136 C -0.07537 0.60952 -0.07940
 O137 O -0.09037 0.43105 -0.08585
 O138 O -0.04321 0.37905 -0.04174
 C139 C -0.07700 0.38799 -0.07300
 O140 O -0.08791 0.56783 0.08436
 O141 O -0.04357 0.62040 0.03822
 C142 C -0.07510 0.61096 0.07156
 Zr143 Zr -0.06398 0.50011 0.05843
 O144 O -0.13988 0.50501 0.05859
 O145 O -0.06346 0.49543 0.13521
 Zr146 Zr -0.06340 0.49908 -0.06436
 O147 O -0.13927 0.50345 -0.06644
 O148 O -0.06097 0.49354 -0.14103
 O149 O -0.07264 0.45669 -0.00249
 O150 O -0.07282 0.54128 -0.00346
 O151 O 0.08016 0.56921 0.08497
 O152 O 0.03643 0.62093 0.03721
 C153 C 0.06759 0.61222 0.07112
 O154 O 0.08671 0.43219 -0.08495
 O155 O 0.03923 0.37972 -0.04215
 C156 C 0.07342 0.38904 -0.07267
 O157 O 0.08174 0.56760 -0.09058
 O158 O 0.03609 0.62011 -0.04594
 C159 C 0.06849 0.61081 -0.07839
 O160 O 0.08629 0.43387 0.08215
 O161 O 0.03903 0.38058 0.04047
 C162 C 0.07316 0.39051 0.07090
 Zr163 Zr 0.05755 0.50095 0.05919
 O164 O 0.13330 0.50692 0.06124
 O165 O 0.05536 0.49611 0.13595
 Zr166 Zr 0.05810 0.49986 -0.06389
 O167 O 0.13388 0.50535 -0.06561
 O168 O 0.05617 0.49411 -0.14056
 Zr169 Zr -0.00221 0.42858 -0.00176
 Zr170 Zr -0.00356 0.57137 -0.00349
 O171 O 0.06622 0.54199 -0.00280
 O172 O 0.06768 0.45762 -0.00178
 O173 O -0.00364 0.54354 0.06784
 O174 O -0.00224 0.45761 -0.07248
 O175 O -0.00286 0.45884 0.06821
 O176 O -0.00300 0.54238 -0.07415
 H177 H -0.10126 0.56279 -0.00367
 H178 H -0.00200 0.43542 -0.10058
 H179 H 0.09445 0.56361 -0.00288
 H180 H -0.00284 0.43716 0.09686
 H181 H -0.04416 0.52233 -0.15355
 H182 H 0.03939 0.52293 -0.15329
 H183 H 0.14682 0.48095 -0.04286
 H184 H 0.14651 0.48204 0.03937
 H185 H 0.03807 0.52481 0.14804
 H186 H -0.04484 0.52310 0.14751
 H187 H -0.15227 0.47835 0.03850
 H188 H -0.15182 0.47870 -0.04394
 O189 O 0.92132 0.09200 0.43048
 O190 O 0.96224 0.04259 0.37811
 C191 C 0.93264 0.07752 0.38714
 O192 O 1.09078 0.08560 0.56812
 O193 O 1.04257 0.04424 0.62141
 C194 C 1.07667 0.07434 0.61168
 O195 O 1.08568 0.09015 0.43094
 O196 O 1.04382 0.04196 0.37828
 C197 C 1.07415 0.07593 0.38755
 O198 O 0.91591 0.08825 0.56732
 O199 O 0.95973 0.04243 0.62108
 C200 C 0.92744 0.07454 0.61100
 Zr201 Zr 0.94200 0.06379 0.49912
 O202 O 0.93988 0.13973 0.50366
 O203 O 0.86620 0.06183 0.49305
 Zr204 Zr 1.06344 0.06331 0.49972
 O205 O 1.06324 0.13929 0.50497
 O206 O 1.13928 0.06331 0.49399
 O207 O 1.00295 0.07250 0.45594
 O208 O 1.00253 0.07262 0.54148
 O209 O 0.91296 -0.07899 0.56846
 O210 O 0.96062 -0.03710 0.62161
 C211 C 0.92644 -0.06716 0.61188
 O212 O 1.08793 -0.08471 0.43323
 O213 O 1.04227 -0.04089 0.37931
 C214 C 1.07434 -0.07324 0.38951
 O215 O 1.09203 -0.07837 0.57016
 O216 O 1.04356 -0.03625 0.62246
 C217 C 1.07807 -0.06628 0.61351
 O218 O 0.92035 -0.08691 0.43301
 O219 O 0.96256 -0.03989 0.37924
 C220 C 0.93224 -0.07376 0.38943
 Zr221 Zr 0.94198 -0.05807 0.50060
 O222 O 0.94252 -0.13390 0.50792
 O223 O 0.86625 -0.05829 0.49389
 Zr224 Zr 1.06340 -0.05852 0.50135
 O225 O 1.06033 -0.13438 0.50801
 O226 O 1.13915 -0.06210 0.49657
 Zr227 Zr 1.00298 0.00190 0.42803
 Zr228 Zr 1.00223 0.00316 0.57228
 O229 O 1.00249 -0.06678 0.54336
 O230 O 1.00294 -0.06810 0.45776
 O231 O 0.93227 0.00329 0.54299
 O232 O 1.07239 0.00200 0.45850
 O233 O 0.93333 0.00252 0.45767
 O234 O 1.07257 0.00280 0.54379
 H235 H 1.00250 0.10104 0.56311
 H236 H 1.10076 0.00183 0.43678
 H237 H 1.00248 -0.09454 0.56605
 H238 H 0.90534 0.00241 0.43542
 H239 H 1.15213 0.04454 0.52170
 H240 H 1.15205 -0.03679 0.51802
 H241 H 1.04643 -0.14711 0.47758
 H242 H 0.96357 -0.14685 0.48212
 H243 H 0.85342 -0.03562 0.51829
 H244 H 0.85350 0.04697 0.52311
 H245 H 0.96354 0.15233 0.48010
 H246 H 1.04498 0.15205 0.47690
 C247 C 1.12078 0.17074 0.30132
 C248 C 1.14167 0.14255 0.26421
 C249 C 1.13995 0.09199 0.26907
 C250 C 1.11745 0.07058 0.30894
 C251 C 1.09769 0.09897 0.34584
 C252 C 1.09988 0.14913 0.34208
 H253 H 1.12224 0.20963 0.30011
 H254 H 1.15399 0.06862 0.24106
 H255 H 1.11583 0.03168 0.31121
 H256 H 1.08472 0.17157 0.37032
 C257 C 0.85517 -0.09285 0.27937
 C258 C 0.86237 -0.14216 0.26899
 C259 C 0.89318 -0.16861 0.30028
 C260 C 0.91578 -0.14656 0.33974
 C261 C 0.90844 -0.09767 0.34877
 C262 C 0.87759 -0.07127 0.31891
 H263 H 0.83363 -0.06978 0.25635
 H264 H 0.89879 -0.20684 0.29587
 H265 H 0.93907 -0.16762 0.36317
 H266 H 0.87022 -0.03396 0.32672
 C267 C 0.85976 0.08917 0.72845
 C268 C 0.85850 0.13968 0.73396
 C269 C 0.87985 0.16824 0.69733
 C270 C 0.90090 0.14708 0.65651
 C271 C 0.90268 0.09698 0.65217
 C272 C 0.88237 0.06817 0.68849
 H273 H 0.84540 0.06544 0.75607
 H274 H 0.87876 0.20712 0.69900
 H275 H 0.91666 0.16980 0.62876
 H276 H 0.88385 0.02930 0.68581
 C277 C 1.17321 -0.12056 0.69553
 C278 C 1.14527 -0.13714 0.73494
 C279 C 1.09550 -0.12813 0.73432
 C280 C 1.07454 -0.10286 0.69592
 C281 C 1.10188 -0.08913 0.65550
 C282 C 1.15144 -0.09813 0.65553
 H283 H 1.21155 -0.12714 0.69438
 H284 H 1.07296 -0.13858 0.76462
 H285 H 1.03672 -0.09452 0.69756
 H286 H 1.17335 -0.08734 0.62488
 C287 C 0.30494 1.16976 1.11804
 C288 C 0.26737 1.14236 1.13864
 C289 C 0.27094 1.09169 1.13651
 C290 C 0.31014 1.06942 1.11430
 C291 C 0.34767 1.09696 1.09511
 C292 C 0.34507 1.14723 1.09742
 H293 H 0.30459 1.20866 1.11963
 H294 H 0.24247 1.06887 1.15009
 H295 H 0.31142 1.03049 1.11255
 H296 H 0.37376 1.16906 1.08263
 C297 C 0.26717 0.89852 0.87779
 C298 C 0.27234 0.85207 0.85873
 C299 C 0.31605 0.82755 0.86451
 C300 C 0.35460 0.84990 0.88800
 C301 C 0.34944 0.89655 0.90706
 C302 C 0.30514 0.92032 0.90220
 H303 H 0.23346 0.91776 0.87404
 H304 H 0.32049 0.79156 0.85021
 H305 H 0.38829 0.83063 0.89154
 H306 H 0.30008 0.95615 0.91653
 C307 C 0.73405 0.90518 1.13163
 C308 C 0.73117 0.85711 1.14710
 C309 C 0.68801 0.83189 1.14106
 C310 C 0.64813 0.85463 1.12009
 C311 C 0.65132 0.90248 1.10378
 C312 C 0.69465 0.92752 1.10967
 H313 H 0.76715 0.92514 1.13583
 H314 H 0.68515 0.79481 1.15289
 H315 H 0.61518 0.83451 1.11561
 H316 H 0.69795 0.96448 1.09753
 C317 C 0.73593 1.08995 0.87759
 C318 C 0.73201 1.13735 0.86036
 C319 C 0.68809 1.16181 0.86475
 C320 C 0.64842 1.13893 0.88562
 C321 C 0.65246 1.09166 0.90345
 C322 C 0.69666 1.06751 0.89948
 H323 H 0.76960 1.07057 0.87463
 H324 H 0.68441 1.19837 0.85150
 H325 H 0.61485 1.15848 0.88861
 H326 H 0.70072 1.03111 0.91292
 C327 C 0.16894 0.31496 0.13323
 C328 C 0.14443 0.27149 0.14042
 C329 C 0.09677 0.26733 0.12440
 C330 C 0.07396 0.30589 0.10134
 C331 C 0.09802 0.34974 0.09472
 C332 C 0.14569 0.35406 0.11108
 H333 H 0.20577 0.31876 0.14528
 H334 H 0.07738 0.23393 0.12928
 H335 H 0.03724 0.30159 0.08926
 H336 H 0.16512 0.38742 0.10615
 C337 C -0.16664 0.31317 -0.14412
 C338 C -0.14554 0.26742 -0.14139
 C339 C -0.10260 0.26117 -0.11557
 C340 C -0.08089 0.30019 -0.09263
 C341 C -0.10122 0.34646 -0.09597
 C342 C -0.14441 0.35254 -0.12196
 H343 H -0.19994 0.31843 -0.16382
 H344 H -0.08609 0.22592 -0.11290
 H345 H -0.04793 0.29414 -0.07267
 H346 H -0.16114 0.38764 -0.12496
 C347 C 0.09543 0.73787 -0.12049
 C348 C 0.14010 0.73196 -0.14318
 C349 C 0.16102 0.68605 -0.14515
 C350 C 0.13727 0.64638 -0.12511
 C351 C 0.09270 0.65222 -0.10177
 C352 C 0.07227 0.69851 -0.09934
 H353 H 0.07890 0.77313 -0.11849
 H354 H 0.19550 0.68092 -0.16261
 H355 H 0.15420 0.61132 -0.12710
 H356 H 0.03837 0.70439 -0.08105
 C357 C -0.16679 0.68741 0.13748
 C358 C -0.14172 0.73077 0.14285
 C359 C -0.09478 0.73455 0.12475
 C360 C -0.07330 0.69566 0.10120
 C361 C -0.09805 0.65200 0.09626
 C362 C -0.14489 0.64808 0.11486
 H363 H -0.20304 0.68389 0.15128
 H364 H -0.07500 0.76785 0.12835
 H365 H -0.03712 0.69953 0.08736
 H366 H -0.16480 0.61486 0.11125
 C367 C 1.09363 0.14150 0.72902
 C368 C 1.14412 0.14213 0.73400
 C369 C 1.17197 0.12005 0.69733
 C370 C 1.15011 0.09905 0.65688
 C371 C 1.10001 0.09796 0.65302
 C372 C 1.07194 0.11891 0.68948
 H373 H 1.07044 0.15642 0.75672
 H374 H 1.21081 0.12062 0.69862
 H375 H 1.17230 0.08294 0.62896
 H376 H 1.03309 0.11814 0.68713
 C377 C 0.83122 -0.10744 0.70038
 C378 C 0.85785 -0.13730 0.73242
 C379 C 0.90750 -0.14303 0.72320
 C380 C 0.92925 -0.12027 0.68383
 C381 C 0.90257 -0.09073 0.65286
 C382 C 0.85336 -0.08471 0.66091
 H383 H 0.79283 -0.10288 0.70418
 H384 H 0.93055 -0.16374 0.74704
 H385 H 0.96691 -0.12649 0.67695
 H386 H 0.83214 -0.06236 0.63670
 C387 C 1.08962 -0.14096 0.27218
 C388 C 1.14012 -0.14332 0.26736
 C389 C 1.16846 -0.12273 0.30443
 C390 C 1.14706 -0.10126 0.34494
 C391 C 1.09698 -0.09822 0.34850
 C392 C 1.06844 -0.11791 0.31179
 H393 H 1.06607 -0.15467 0.24420
 H394 H 1.20727 -0.12465 0.30329
 H395 H 1.16962 -0.08611 0.37306
 H396 H 1.02963 -0.11559 0.31388
 C397 C 0.87814 0.17295 0.30532
 C398 C 0.85994 0.14491 0.26687
 C399 C 0.86775 0.09485 0.26808
 C400 C 0.89366 0.07374 0.30597
 C401 C 0.90921 0.10129 0.34542
 C402 C 0.90118 0.15111 0.34494
 H403 H 0.87257 0.21152 0.30600
 H404 H 0.85605 0.07215 0.23846
 H405 H 0.90116 0.03569 0.30466
 H406 H 0.91329 0.17317 0.37489
 C407 C 0.16842 0.31223 -0.13368
 C408 C 0.14380 0.26863 -0.13955
 C409 C 0.09635 0.26475 -0.12298
 C410 C 0.07387 0.30376 -0.10065
 C411 C 0.09803 0.34775 -0.09543
 C412 C 0.14550 0.35172 -0.11230
 H413 H 0.20507 0.31586 -0.14634
 H414 H 0.07686 0.23132 -0.12695
 H415 H 0.03729 0.29973 -0.08811
 H416 H 0.16500 0.38515 -0.10848
 C417 C -0.16751 0.31585 0.14214
 C418 C -0.14671 0.26997 0.14016
 C419 C -0.10392 0.26309 0.11435
 C420 C -0.08197 0.30171 0.09075
 C421 C -0.10200 0.34813 0.09332
 C422 C -0.14511 0.35480 0.11920
 H423 H -0.20066 0.32155 0.16189
 H424 H -0.08762 0.22771 0.11238
 H425 H -0.04900 0.29524 0.07097
 H426 H -0.16161 0.39003 0.12160
 C427 C -0.09339 0.72530 -0.14831
 C428 C -0.14391 0.73069 -0.14774
 C429 C -0.17136 0.69423 -0.12517
 C430 C -0.14909 0.65401 -0.10429
 C431 C -0.09896 0.65000 -0.10408
 C432 C -0.07132 0.68578 -0.12617
 H433 H -0.07035 0.75273 -0.16361
 H434 H -0.21020 0.69573 -0.12488
 H435 H -0.17095 0.62648 -0.08734
 H436 H -0.03254 0.68304 -0.12643
 C437 C 0.09909 0.74080 0.10383
 C438 C 0.13569 0.73383 0.13801
 C439 C 0.14981 0.68703 0.15065
 C440 C 0.12748 0.64739 0.12925
 C441 C 0.09078 0.65404 0.09467
 C442 C 0.07691 0.70127 0.08217
 H443 H 0.08786 0.77685 0.09383
 H444 H 0.17807 0.68125 0.17712
 H445 H 0.13916 0.61161 0.13961
 H446 H 0.04897 0.70780 0.05556
 C447 C 0.31736 1.16613 0.85990
 C448 C 0.27224 1.14397 0.85844
 C449 C 0.26592 1.09908 0.88081
 C450 C 0.30419 1.07656 0.90453
 C451 C 0.34983 1.09802 0.90532
 C452 C 0.35607 1.14306 0.88271
 H453 H 0.32266 1.20093 0.84295
 H454 H 0.23112 1.08174 0.88035
 H455 H 0.29815 1.04210 0.92179
 H456 H 0.39074 1.16063 0.88300
 C457 C 0.31004 0.86065 1.16726
 C458 C 0.26726 0.85459 1.14099
 C459 C 0.26497 0.87040 1.09256
 C460 C 0.30452 0.89262 1.07092
 C461 C 0.34747 0.89851 1.09701
 C462 C 0.35007 0.88189 1.14523
 H463 H 0.31249 0.84865 1.20465
 H464 H 0.23220 0.86633 1.07176
 H465 H 0.30164 0.90492 1.03364
 H466 H 0.38270 0.88628 1.16617
 C467 C 0.73338 1.12413 1.09415
 C468 C 0.73144 1.13925 1.14265
 C469 C 0.68953 1.13112 1.16981
 C470 C 0.64980 1.10875 1.14847
 C471 C 0.65194 1.09307 1.10007
 C472 C 0.69420 1.10074 1.07321
 H473 H 0.76546 1.12998 1.07270
 H474 H 0.68743 1.14266 1.20729
 H475 H 0.61770 1.10309 1.16993
 H476 H 0.69668 1.08928 1.03571
 C477 C 0.68402 0.83943 0.84976
 C478 C 0.73065 0.85648 0.85750
 C479 C 0.73813 0.89548 0.88863
 C480 C 0.69932 0.91725 0.91201
 C481 C 0.65222 0.90088 0.90393
 C482 C 0.64500 0.86166 0.87255
 H483 H 0.67786 0.80925 0.82577
 H484 H 0.77409 0.90884 0.89500
 H485 H 0.70626 0.94697 0.93629
 H486 H 0.60925 0.84797 0.86575
   
