data_POSCAR
  _audit_creation_date              2014-09-24
  _audit_creation_method            'ToBaCCo'
  _symmetry_space_group_name_H-M    'P1'
  _symmetry_Int_Tables_number       1
  _symmetry_cell_setting            triclinic
  loop_
  _symmetry_equiv_pos_as_xyz
 x,y,z
_cell_length_a 23.8504
_cell_length_b 23.9730
_cell_length_c 27.2803
_cell_angle_alpha 89.992700
_cell_angle_beta 89.874100
_cell_angle_gamma 90.387800
loop_
  _atom_site_label
  _atom_site_type_symbol
  _atom_site_fract_x
  _atom_site_fract_y
  _atom_site_fract_z
B1 B 0.27639 0.20881 0.20883
 B2 B 0.30252 0.27286 0.22060
 B3 B 0.23559 0.26989 0.20369
 B4 B 0.20824 0.20914 0.22621
 B5 B 0.25776 0.17822 0.26044
 B6 B 0.31710 0.21891 0.25795
 B7 B 0.23479 0.27874 0.30307
 B8 B 0.20778 0.21675 0.28795
 B9 B 0.27475 0.21918 0.30730
 B10 B 0.30349 0.28041 0.28400
 B11 B 0.25314 0.31187 0.25077
 B12 B 0.19452 0.27220 0.25275
 B13 B 0.74083 0.78840 0.19884
 B14 B 0.71491 0.72352 0.20928
 B15 B 0.78494 0.73264 0.19758
 B16 B 0.80496 0.79294 0.22545
 B17 B 0.74906 0.81989 0.25360
 B18 B 0.69308 0.77727 0.24435
 B19 B 0.77085 0.71744 0.29580
 B20 B 0.79567 0.78193 0.28720
 B21 B 0.72772 0.77625 0.29771
 B22 B 0.70599 0.71477 0.27059
 B23 B 0.76293 0.68719 0.24130
 B24 B 0.81780 0.73010 0.25139
 B25 B 0.73057 0.23028 -0.19459
 B26 B 0.71200 0.29228 -0.21690
 B27 B 0.78049 0.28081 -0.21115
 B28 B 0.79046 0.21139 -0.22313
 B29 B 0.72697 0.18369 -0.23969
 B30 B 0.67840 0.23501 -0.23665
 B31 B 0.75621 0.26334 -0.30681
 B32 B 0.77295 0.20106 -0.28287
 B33 B 0.70481 0.21604 -0.29099
 B34 B 0.69550 0.28462 -0.27798
 B35 B 0.75858 0.31095 -0.26221
 B36 B 0.80753 0.25991 -0.26490
 B37 B 0.26856 0.76173 -0.29600
 B38 B 0.20770 0.78961 -0.27916
 B39 B 0.20751 0.72209 -0.29128
 B40 B 0.27052 0.69616 -0.27377
 B41 B 0.30732 0.74824 -0.24720
 B42 B 0.26776 0.80700 -0.24907
 B43 B 0.21206 0.72946 -0.19218
 B44 B 0.27295 0.70096 -0.21185
 B45 B 0.27252 0.76955 -0.19726
 B46 B 0.20885 0.79632 -0.21560
 B47 B 0.17318 0.74377 -0.24181
 B48 B 0.21293 0.68479 -0.24011
 B49 B 1.21698 1.27985 0.79911
 B50 B 1.28621 1.28065 0.78426
 B51 B 1.25697 1.22008 0.80506
 B52 B 1.19087 1.21641 0.78358
 B53 B 1.17864 1.27274 0.74819
 B54 B 1.23778 1.31286 0.74781
 B55 B 1.26429 1.21378 0.70588
 B56 B 1.19580 1.21168 0.72171
 B57 B 1.22260 1.27174 0.70008
 B58 B 1.29040 1.27710 0.72175
 B59 B 1.30227 1.21997 0.75741
 B60 B 1.24328 1.18139 0.75629
 B61 B 0.77999 0.72338 0.80357
 B62 B 0.71102 0.71177 0.78950
 B63 B 0.73115 0.77550 0.81135
 B64 B 0.79533 0.79010 0.78772
 B65 B 0.81429 0.73641 0.75105
 B66 B 0.76147 0.68803 0.75322
 B67 B 0.71979 0.78228 0.71154
 B68 B 0.78805 0.79498 0.72687
 B69 B 0.76858 0.73093 0.70442
 B70 B 0.70434 0.71687 0.72789
 B71 B 0.68531 0.76970 0.76497
 B72 B 0.73621 0.81826 0.76301
 B73 B 1.22161 0.73575 0.20388
 B74 B 1.28533 0.71122 0.21895
 B75 B 1.27690 0.78199 0.21164
 B76 B 1.21165 0.79729 0.23414
 B77 B 1.18252 0.73780 0.25599
 B78 B 1.22773 0.68535 0.24650
 B79 B 1.27922 0.75958 0.30863
 B80 B 1.21349 0.78199 0.29583
 B81 B 1.22403 0.71311 0.30222
 B82 B 1.28717 0.69840 0.27902
 B83 B 1.31598 0.75696 0.25632
 B84 B 1.26943 0.81025 0.26741
 B85 B 0.76674 1.27177 0.20681
 B86 B 0.69949 1.28403 0.21768
 B87 B 0.71555 1.21829 0.20622
 B88 B 0.77935 1.20674 0.22969
 B89 B 0.80134 1.26398 0.25885
 B90 B 0.75108 1.31365 0.25272
 B91 B 0.70601 1.22921 0.30559
 B92 B 0.77334 1.21112 0.29082
 B93 B 0.75687 1.27911 0.30495
 B94 B 0.69204 1.29243 0.28002
 B95 B 0.67044 1.23330 0.25183
 B96 B 0.71930 1.18413 0.25963
 O97 O 0.44155 1.10824 0.03245
 O98 O 0.56185 0.92058 0.05465
 O99 O 0.38716 0.93107 0.02499
 O100 O 0.58185 1.02166 0.06285
 O101 O 0.46109 0.91845 0.06441
 O102 O 0.54889 1.10208 0.04165
 O103 O 0.63701 0.95154 0.01687
 O104 O 0.39017 1.03288 0.05031
 C105 C 0.40231 1.08365 0.05682
 C106 C 0.61481 0.91613 0.04761
 C107 C 0.40935 0.91426 0.06273
 C108 C 0.57867 1.07319 0.07045
 O109 O 0.55593 1.08780 -0.05778
 O110 O 0.44876 0.89103 -0.03522
 O111 O 0.38414 1.05942 -0.03851
 O112 O 0.58577 0.97362 -0.06400
 O113 O 0.55120 0.89658 -0.04117
 O114 O 0.45826 1.09749 -0.06659
 O115 O 0.62298 1.05593 -0.01744
 O116 O 0.40203 0.96157 -0.06453
 Co117 Co 0.50080 1.09085 -0.01134
 Co118 Co 0.50405 0.91477 0.00917
 Co119 Co 0.40157 0.99641 -0.00671
 Co120 Co 0.57885 0.99555 -0.00064
 O121 O 0.49359 1.00244 -0.00438
 C122 C 0.60700 1.09021 -0.04843
 C123 C 0.41513 0.91154 -0.06665
 C124 C 0.40682 1.09162 -0.06767
 C125 C 0.58347 0.92233 -0.06952
 O126 O 0.92117 0.61206 0.52468
 O127 O 1.04108 0.38802 0.54215
 O128 O 0.90854 0.45204 0.57321
 O129 O 1.09495 0.55903 0.54254
 O130 O 0.93519 0.38171 0.53302
 O131 O 1.01888 0.60410 0.55458
 O132 O 1.07977 0.46231 0.57283
 O133 O 0.91386 0.54597 0.57137
 C134 C 0.90462 0.59506 0.56490
 C135 C 1.07303 0.41137 0.57447
 C136 C 0.90567 0.40102 0.56718
 C137 C 1.06809 0.59370 0.56652
 O138 O 1.05298 0.59912 0.46199
 O139 O 0.94357 0.41587 0.43928
 O140 O 0.88178 0.54501 0.46999
 O141 O 1.10712 0.42693 0.48612
 O142 O 1.04104 0.41600 0.43912
 O143 O 0.95295 0.58532 0.43598
 O144 O 1.09908 0.52249 0.45302
 O145 O 0.87471 0.44522 0.48055
 Co146 Co 0.98719 0.58886 0.49533
 Co147 Co 0.99076 0.40853 0.49053
 Co148 Co 0.90322 0.49807 0.52094
 Co149 Co 1.08319 0.49298 0.51297
 O150 O 0.99062 0.49626 0.50466
 C151 C 1.09149 0.57225 0.44198
 C152 C 0.89209 0.41791 0.44541
 C153 C 0.90202 0.57282 0.43473
 C154 C 1.09189 0.41047 0.44577
 O155 O 1.08006 0.45345 0.08650
 O156 O 1.04312 0.55050 -0.07902
 O157 O 1.06680 0.39816 -0.02671
 O158 O 1.01914 0.61772 0.06216
 O159 O 1.03293 0.44885 -0.08599
 O160 O 1.07058 0.55150 0.08355
 O161 O 1.06736 0.58643 -0.01190
 O162 O 1.04046 0.38031 0.06083
 C163 C 1.08177 0.40244 0.07980
 C164 C 1.07617 0.58179 -0.05621
 C165 C 1.06837 0.41356 -0.07033
 C166 C 1.06148 0.60297 0.08469
 O167 O 0.95734 0.54297 0.10350
 O168 O 0.92157 0.46216 -0.05876
 O169 O 0.93771 0.38847 0.04067
 O170 O 0.97296 0.63730 -0.02489
 O171 O 0.93301 0.56212 -0.05528
 O172 O 0.96664 0.43705 0.10554
 O173 O 0.92473 0.57671 0.03580
 O174 O 0.96251 0.38657 -0.05048
 Co175 Co 1.01683 0.49592 0.08836
 Co176 Co 0.98447 0.50438 -0.06304
 Co177 Co 1.00183 0.39910 0.00639
 Co178 Co 0.99564 0.57675 0.00944
 O179 O 1.00199 0.49163 0.01255
 C180 C 0.92189 0.57332 0.08165
 C181 C 0.92483 0.41299 -0.07102
 C182 C 0.93443 0.39998 0.08568
 C183 C 0.93925 0.61523 -0.05715
 O184 O 0.54909 0.95253 0.59161
 O185 O 0.55963 1.04901 0.43426
 O186 O 0.56873 0.88861 0.47738
 O187 O 0.56356 1.07177 0.52875
 O188 O 0.55361 0.94343 0.41476
 O189 O 0.52740 1.04810 0.59584
 O190 O 0.51545 1.12310 0.46502
 O191 O 0.52558 0.87507 0.55943
 C192 C 0.55690 0.90229 0.58640
 C193 C 0.55381 1.10229 0.43595
 C194 C 0.58023 0.90362 0.43491
 C195 C 0.56730 1.07111 0.57410
 O196 O 0.41823 1.02495 0.57763
 O197 O 0.43936 0.95599 0.40904
 O198 O 0.42693 0.87701 0.52120
 O199 O 0.41830 1.07003 0.48391
 O200 O 0.45130 1.05664 0.41459
 O201 O 0.43948 0.92475 0.58824
 O202 O 0.45763 1.10186 0.55764
 O203 O 0.47264 0.88091 0.43837
 Co204 Co 0.48385 0.98706 0.58123
 Co205 Co 0.50051 0.99924 0.42634
 Co206 Co 0.49764 0.89064 0.49946
 Co207 Co 0.49118 1.06634 0.50412
 O208 O 0.49142 0.98271 0.50463
 C209 C 0.41904 1.07704 0.58141
 C210 C 0.43763 0.90424 0.41268
 C211 C 0.41532 0.88589 0.56518
 C212 C 0.41330 1.07694 0.43968
 O213 O 1.07909 1.07894 0.46638
 O214 O 0.88643 1.05480 0.53270
 O215 O 0.96606 1.06265 0.41459
 O216 O 1.01050 1.07668 0.58160
 O217 O 0.88776 1.03327 0.44408
 O218 O 1.09092 1.06272 0.55121
 O219 O 0.92825 1.02558 0.59532
 O220 O 1.06181 1.03292 0.40369
 C221 C 1.07666 1.07788 0.42102
 C222 C 0.89179 1.05482 0.57833
 C223 C 0.91443 1.06624 0.41638
 C224 C 1.05923 1.09166 0.57755
 O225 O 1.09668 0.94820 0.53450
 O226 O 0.90770 0.92113 0.46996
 O227 O 1.02927 0.92805 0.42402
 O228 O 0.97561 0.93040 0.59055
 O229 O 0.89764 0.94408 0.55224
 O230 O 1.10472 0.96552 0.44965
 O231 O 1.06663 0.98447 0.59844
 O232 O 0.93569 0.95926 0.40704
 Co233 Co 1.08406 1.01288 0.50035
 Co234 Co 0.90418 0.98964 0.49904
 Co235 Co 0.99869 0.99554 0.42210
 Co236 Co 0.99621 1.00363 0.58125
 O237 O 0.99512 1.00071 0.50107
 C238 C 1.09606 0.94861 0.57992
 C239 C 0.91813 0.91673 0.42624
 C240 C 1.08030 0.92693 0.42699
 C241 C 0.92411 0.91965 0.58540
 O242 O 0.58962 0.56235 -0.05315
 O243 O 0.39613 0.53306 0.06110
 O244 O 0.42258 0.51926 -0.09122
 O245 O 0.57204 0.53504 0.09364
 O246 O 0.38905 0.55110 -0.02592
 O247 O 0.58367 0.57910 0.02915
 O248 O 0.47466 0.56612 0.08873
 O249 O 0.50804 0.57731 -0.08263
 C250 C 0.55789 0.59193 -0.07857
 C251 C 0.42256 0.56792 0.08742
 C252 C 0.38868 0.55018 -0.07136
 C253 C 0.58862 0.57780 0.07368
 O254 O 0.61084 0.46502 0.04699
 O255 O 0.40239 0.43755 -0.04508
 O256 O 0.56377 0.48610 -0.10094
 O257 O 0.44540 0.46172 0.10151
 O258 O 0.41706 0.42074 0.03960
 O259 O 0.59934 0.44908 -0.03873
 O260 O 0.53675 0.43153 0.07847
 O261 O 0.47935 0.42864 -0.08647
 Co262 Co 0.58728 0.51280 -0.00311
 Co263 Co 0.40982 0.48700 0.00708
 Co264 Co 0.49426 0.50284 -0.08004
 Co265 Co 0.50694 0.49894 0.08026
 O266 O 0.49907 0.50057 0.00070
 C267 C 0.58755 0.42910 0.07394
 C268 C 0.43112 0.41129 -0.07679
 C269 C 0.59487 0.45058 -0.08417
 C270 C 0.42655 0.41854 0.08398
 C271 C 0.36053 1.13562 0.18264
 C272 C 0.30703 1.16185 0.17243
 C273 C 0.28186 1.14614 0.12796
 C274 C 0.31397 1.12291 0.09001
 C275 C 0.37160 1.11303 0.09596
 C276 C 0.39491 1.11775 0.14303
 C277 C 0.37878 1.12010 0.23031
 C278 C 0.43299 1.10113 0.23890
 C279 C 0.46945 1.09306 0.19997
 C280 C 0.45015 1.09945 0.15231
 H281 H 0.35105 1.11884 0.26143
 H282 H 0.44622 1.09134 0.27584
 H283 H 0.51155 1.07822 0.20653
 H284 H 0.47804 1.08766 0.12296
 H285 H 0.23845 1.15634 0.12085
 H286 H 0.29398 1.11390 0.05525
 C287 C 0.78933 0.63701 0.65363
 C288 C 0.79415 0.69654 0.65598
 C289 C 0.83755 0.71955 0.62636
 C290 C 0.87151 0.68691 0.59608
 C291 C 0.87135 0.62905 0.60038
 C292 C 0.83506 0.60519 0.63588
 C293 C 0.74303 0.60714 0.67234
 C294 C 0.74963 0.55298 0.68964
 C295 C 0.80157 0.52731 0.68539
 C296 C 0.84328 0.55193 0.65635
 H297 H 0.70261 0.62623 0.67524
 H298 H 0.71483 0.53149 0.70695
 H299 H 0.80801 0.48637 0.70103
 H300 H 0.88197 0.52949 0.65143
 H301 H 0.84800 0.76260 0.62590
 H302 H 0.90150 0.70722 0.57198
 C303 C 0.73376 0.82851 0.10449
 C304 C 0.71766 0.82963 0.15484
 C305 C 0.67376 0.86655 0.16741
 C306 C 0.64081 0.89242 0.13229
 C307 C 0.65111 0.88511 0.08245
 C308 C 0.69860 0.85364 0.06801
 C309 C 0.78536 0.80645 0.08939
 C310 C 0.79872 0.80135 0.03979
 C311 C 0.76163 0.82016 0.00422
 C312 C 0.71234 0.84688 0.01805
 H313 H 0.81723 0.79680 0.11570
 H314 H 0.83843 0.78349 0.02894
 H315 H 0.77199 0.81576 -0.03422
 H316 H 0.68543 0.86242 -0.01060
 H317 H 0.66196 0.87382 0.20516
 H318 H 0.60661 0.91862 0.14444
 C319 C 1.20843 0.35825 0.63779
 C320 C 1.19021 0.30509 0.65483
 C321 C 1.13281 0.29191 0.64531
 C322 C 1.09738 0.32508 0.61806
 C323 C 1.11264 0.37898 0.60618
 C324 C 1.16799 0.39781 0.62031
 C325 C 1.26520 0.37476 0.64084
 C326 C 1.28096 0.43032 0.63493
 C327 C 1.24046 0.47044 0.62649
 C328 C 1.18467 0.45465 0.61957
 H329 H 1.29792 0.34495 0.64737
 H330 H 1.32454 0.44250 0.63853
 H331 H 1.25235 0.51408 0.62488
 H332 H 1.15544 0.48830 0.61597
 H333 H 1.11066 0.25882 0.66271
 H334 H 1.05528 0.31014 0.61032
 C335 C 0.73541 1.16485 -0.11089
 C336 C 0.70596 1.20190 -0.14289
 C337 C 0.64813 1.20810 -0.13345
 C338 C 0.61856 1.17264 -0.10237
 C339 C 0.64509 1.13092 -0.07525
 C340 C 0.70509 1.13051 -0.07598
 C341 C 0.79444 1.16274 -0.11096
 C342 C 0.82343 1.12904 -0.07828
 C343 C 0.79448 1.09734 -0.04391
 C344 C 0.73616 1.09812 -0.04248
 H345 H 0.81922 1.18893 -0.13430
 H346 H 0.86882 1.12869 -0.07880
 H347 H 0.81739 1.07233 -0.01777
 H348 H 0.71686 1.07460 -0.01348
 H349 H 0.62356 1.23817 -0.15315
 H350 H 0.57347 1.17743 -0.10070
 C351 C 1.22020 0.64024 0.38019
 C352 C 1.19326 0.66985 0.34100
 C353 C 1.13466 0.66195 0.33572
 C354 C 1.10358 0.62840 0.36729
 C355 C 1.12869 0.60164 0.40669
 C356 C 1.18701 0.60884 0.41435
 C357 C 1.27826 0.64497 0.38962
 C358 C 1.30261 0.62202 0.43125
 C359 C 1.26942 0.59534 0.46582
 C360 C 1.21219 0.58969 0.45780
 H361 H 1.30548 0.66852 0.36693
 H362 H 1.34712 0.62718 0.43769
 H363 H 1.28779 0.58008 0.49946
 H364 H 1.18737 0.57338 0.48714
 H365 H 1.11102 0.68238 0.30728
 H366 H 1.05874 0.62455 0.36158
 C367 C 0.37572 0.79538 -0.15664
 C368 C 0.31494 0.80105 -0.15798
 C369 C 0.29217 0.84663 -0.13237
 C370 C 0.32488 0.88086 -0.10258
 C371 C 0.38317 0.87532 -0.10080
 C372 C 0.40897 0.83606 -0.13130
 C373 C 0.40596 0.75287 -0.18125
 C374 C 0.46328 0.75768 -0.19011
 C375 C 0.49355 0.80167 -0.17072
 C376 C 0.46729 0.83926 -0.13970
 H377 H 0.38719 0.71559 -0.19510
 H378 H 0.48423 0.72775 -0.21309
 H379 H 0.53759 0.80607 -0.17941
 H380 H 0.49231 0.87276 -0.12453
 H381 H 0.24809 0.85656 -0.13520
 H382 H 0.30429 0.91300 -0.08140
 C383 C 0.76309 0.33788 0.39139
 C384 C 0.78707 0.31977 0.34630
 C385 C 0.84160 0.34067 0.33505
 C386 C 0.87276 0.37246 0.36713
 C387 C 0.85258 0.38601 0.41324
 C388 C 0.79690 0.36816 0.42630
 C389 C 0.70637 0.32709 0.40287
 C390 C 0.68440 0.34013 0.44862
 C391 C 0.71821 0.36463 0.48389
 C392 C 0.77366 0.37854 0.47317
 H393 H 0.67789 0.30935 0.37677
 H394 H 0.64093 0.33073 0.45687
 H395 H 0.70105 0.37355 0.51965
 H396 H 0.79728 0.39655 0.50265
 H397 H 0.86261 0.33301 0.30071
 H398 H 0.91409 0.38621 0.35544
 C399 C 1.21752 0.36285 0.14406
 C400 C 1.20461 0.30599 0.15941
 C401 C 1.15603 0.28122 0.13922
 C402 C 1.11791 0.31185 0.11155
 C403 C 1.12837 0.36770 0.09936
 C404 C 1.18135 0.39064 0.11022
 C405 C 1.26371 0.39477 0.16130
 C406 C 1.27860 0.44590 0.14064
 C407 C 1.24687 0.46871 0.10353
 C408 C 1.19837 0.44167 0.08854
 H409 H 1.28923 0.38300 0.19122
 H410 H 1.31536 0.46778 0.15336
 H411 H 1.25915 0.50808 0.08711
 H412 H 1.17489 0.46073 0.05918
 H413 H 1.14451 0.23865 0.14804
 H414 H 1.07854 0.29218 0.10155
 C415 C 0.69352 0.83616 0.62499
 C416 C 0.67775 0.81199 0.67102
 C417 C 0.62000 0.81577 0.68377
 C418 C 0.58224 0.84612 0.65651
 C419 C 0.59951 0.87400 0.61471
 C420 C 0.65488 0.86911 0.59793
 C421 C 0.74591 0.82741 0.60414
 C422 C 0.76205 0.85173 0.55987
 C423 C 0.72538 0.88609 0.53492
 C424 C 0.67220 0.89532 0.55395
 H425 H 0.77469 0.80316 0.62314
 H426 H 0.80430 0.84667 0.54655
 H427 H 0.73844 0.90611 0.50122
 H428 H 0.64501 0.92316 0.53412
 H429 H 0.60185 0.79537 0.71533
 H430 H 0.53879 0.84775 0.66825
 C431 C 1.18006 0.70097 -0.09589
 C432 C 1.17331 0.69849 -0.14795
 C433 C 1.13280 0.65914 -0.16443
 C434 C 1.10915 0.61903 -0.13469
 C435 C 1.11698 0.61842 -0.08421
 C436 C 1.15403 0.65962 -0.06420
 C437 C 1.20942 0.74508 -0.07404
 C438 C 1.21938 0.74640 -0.02376
 C439 C 1.19917 0.70376 0.00609
 C440 C 1.16651 0.66091 -0.01370
 H441 H 1.22404 0.77894 -0.09590
 H442 H 1.24325 0.78047 -0.00794
 H443 H 1.20837 0.70428 0.04490
 H444 H 1.15264 0.62838 0.01080
 H445 H 1.11955 0.65642 -0.20222
 H446 H 1.08218 0.58882 -0.15241
 C447 C 0.68706 1.17870 0.39412
 C448 C 0.66694 1.20582 0.35119
 C449 C 0.60804 1.20623 0.34467
 C450 C 0.57222 1.17410 0.37365
 C451 C 0.59350 1.13910 0.40973
 C452 C 0.65135 1.14144 0.42080
 C453 C 0.73993 1.19072 0.41375
 C454 C 0.76088 1.16117 0.45373
 C455 C 0.72880 1.11922 0.47530
 C456 C 0.67411 1.10982 0.45953
 H457 H 0.76358 1.22543 0.40019
 H458 H 0.80195 1.17110 0.46820
 H459 H 0.74539 1.09529 0.50553
 H460 H 0.64983 1.07856 0.47863
 H461 H 0.58868 1.23008 0.31572
 H462 H 0.52762 1.17446 0.36608
 C463 C 0.88453 0.69842 0.16223
 C464 C 0.82540 0.70401 0.15475
 C465 C 0.80251 0.67192 0.11645
 C466 C 0.83379 0.62977 0.09313
 C467 C 0.88739 0.61465 0.11010
 C468 C 0.91228 0.64885 0.14718
 C469 C 0.91725 0.74087 0.18447
 C470 C 0.97035 0.72981 0.20282
 C471 C 0.99300 0.67715 0.19710
 C472 C 0.96524 0.63754 0.16851
 H473 H 0.90236 0.78298 0.18771
 H474 H 0.99382 0.76207 0.22169
 H475 H 1.03372 0.66792 0.21248
 H476 H 0.98641 0.59860 0.16448
 H477 H 0.76043 0.67979 0.10394
 H478 H 0.81508 0.60731 0.06277
 C479 C 0.29741 1.11190 0.67113
 C480 C 0.29512 1.17189 0.66597
 C481 C 0.33025 1.19650 0.63056
 C482 C 0.36839 1.16492 0.60317
 C483 C 0.37559 1.10746 0.61137
 C484 C 0.34095 1.08102 0.64771
 C485 C 0.25912 1.08101 0.70065
 C486 C 0.27544 1.03161 0.72455
 C487 C 0.31793 1.00135 0.70122
 C488 C 0.34871 1.02491 0.66291
 H489 H 0.21798 1.09547 0.70942
 H490 H 0.24510 1.00821 0.75912
 H491 H 0.32705 0.95936 0.71325
 H492 H 0.37951 0.99805 0.64794
 H493 H 0.32947 1.24119 0.62482
 H494 H 0.39397 1.18631 0.57613
 C495 C 0.81662 0.38547 -0.17587
 C496 C 0.82223 0.32471 -0.18027
 C497 C 0.86701 0.30029 -0.15514
 C498 C 0.89962 0.33013 -0.12170
 C499 C 0.89087 0.38703 -0.11192
 C500 C 0.85115 0.41602 -0.14145
 C501 C 0.77640 0.41767 -0.20224
 C502 C 0.76924 0.47443 -0.19500
 C503 C 0.80261 0.50286 -0.16255
 C504 C 0.84294 0.47455 -0.13636
 H505 H 0.74707 0.40216 -0.22801
 H506 H 0.73682 0.49653 -0.21452
 H507 H 0.79681 0.54721 -0.15716
 H508 H 0.86587 0.50096 -0.11216
 H509 H 0.87636 0.25663 -0.16007
 H510 H 0.93144 0.30732 -0.10193
 C511 C 0.38083 0.77442 0.34993
 C512 C 0.32123 0.78370 0.35203
 C513 C 0.30397 0.83242 0.37721
 C514 C 0.34159 0.87238 0.39451
 C515 C 0.39860 0.86747 0.38565
 C516 C 0.41856 0.81879 0.36212
 C517 C 0.40452 0.72396 0.33267
 C518 C 0.46141 0.71995 0.32180
 C519 C 0.49652 0.76560 0.32838
 C520 C 0.47572 0.81430 0.34904
 H521 H 0.38008 0.68701 0.32635
 H522 H 0.47807 0.68148 0.30714
 H523 H 0.54018 0.76298 0.31792
 H524 H 0.50444 0.84902 0.35361
 H525 H 0.26107 0.84341 0.38118
 H526 H 0.32587 0.90781 0.41478
 C527 C 1.10797 1.16873 0.30718
 C528 C 1.15935 1.19199 0.32372
 C529 C 1.17000 1.19136 0.37465
 C530 C 1.13927 1.15790 0.40631
 C531 C 1.09618 1.12415 0.38857
 C532 C 1.07731 1.13263 0.33914
 C533 C 1.08491 1.18178 0.26070
 C534 C 1.03585 1.15672 0.24422
 C535 C 1.00757 1.11946 0.27407
 C536 C 1.02762 1.10838 0.32084
 H537 H 1.10167 1.21370 0.23733
 H538 H 1.01902 1.16732 0.20861
 H539 H 0.96875 1.10055 0.26167
 H540 H 1.00180 1.08282 0.34235
 H541 H 1.20514 1.21372 0.39027
 H542 H 1.15272 1.15484 0.44413
 C543 C 0.61415 0.65176 -0.19665
 C544 C 0.66818 0.67129 -0.17988
 C545 C 0.67963 0.66665 -0.12974
 C546 C 0.63934 0.64950 -0.09648
 C547 C 0.58577 0.63266 -0.11151
 C548 C 0.57157 0.63722 -0.16170
 C549 C 0.60133 0.64281 -0.24667
 C550 C 0.54772 0.62755 -0.26205
 C551 C 0.50515 0.62000 -0.22807
 C552 C 0.51670 0.62503 -0.17836
 H553 H 0.63247 0.64280 -0.27461
 H554 H 0.53928 0.62132 -0.30066
 H555 H 0.46308 0.60984 -0.24016
 H556 H 0.48160 0.62074 -0.15366
 H557 H 0.71885 0.68002 -0.11476
 H558 H 0.65146 0.64642 -0.05828
 C559 C 0.82673 1.10446 0.70106
 C560 C 0.79805 1.15196 0.68300
 C561 C 0.79019 1.15619 0.63181
 C562 C 0.81922 1.12366 0.59875
 C563 C 0.85518 1.08276 0.61515
 C564 C 0.85670 1.07023 0.66731
 C565 C 0.82494 1.08835 0.75130
 C566 C 0.85489 1.04344 0.76898
 C567 C 0.88518 1.01113 0.73705
 C568 C 0.88484 1.02325 0.68735
 H569 H 0.79862 1.10695 0.77822
 H570 H 0.85284 1.03251 0.80745
 H571 H 0.90675 0.97456 0.75044
 H572 H 0.90375 0.99152 0.66614
 H573 H 0.76471 1.18813 0.61591
 H574 H 0.81555 1.13262 0.56001
 C575 C 0.33664 0.61269 0.19917
 C576 C 0.32230 0.66896 0.18527
 C577 C 0.34129 0.68831 0.13941
 C578 C 0.37394 0.65566 0.10840
 C579 C 0.39182 0.60314 0.12305
 C580 C 0.37578 0.58282 0.17001
 C581 C 0.31292 0.58330 0.23994
 C582 C 0.33405 0.53279 0.25624
 C583 C 0.37783 0.50842 0.23154
 C584 C 0.39727 0.53254 0.18851
 H585 H 0.27649 0.59553 0.25964
 H586 H 0.31595 0.51232 0.28801
 H587 H 0.39499 0.46940 0.24440
 H588 H 0.42897 0.51106 0.17015
 H589 H 0.32952 0.72840 0.12600
 H590 H 0.38550 0.67171 0.07261
 C591 C 1.18536 0.82699 0.62458
 C592 C 1.17730 0.82970 0.67803
 C593 C 1.14368 0.87327 0.69540
 C594 C 1.11766 0.91062 0.66336
 C595 C 1.12858 0.91041 0.61252
 C596 C 1.16789 0.87240 0.59440
 C597 C 1.21264 0.78320 0.59896
 C598 C 1.23338 0.78954 0.55153
 C599 C 1.22518 0.83879 0.52650
 C600 C 1.19168 0.87946 0.54712
 H601 H 1.22497 0.74540 0.61523
 H602 H 1.25792 0.75669 0.53495
 H603 H 1.24330 0.84478 0.49043
 H604 H 1.18696 0.91723 0.52620
 H605 H 1.13559 0.87749 0.73431
 H606 H 1.08905 0.94069 0.67897
 C607 C 0.68472 0.31882 0.12355
 C608 C 0.66503 0.31391 0.17358
 C609 C 0.61695 0.34340 0.18653
 C610 C 0.59169 0.37883 0.15297
 C611 C 0.61768 0.39195 0.10783
 C612 C 0.66819 0.36582 0.09581
 C613 C 0.72334 0.28253 0.10031
 C614 C 0.75769 0.30158 0.06280
 C615 C 0.75280 0.35607 0.04757
 C616 C 0.70505 0.38626 0.05940
 H617 H 0.73466 0.24263 0.11359
 H618 H 0.79236 0.27642 0.05009
 H619 H 0.78728 0.37466 0.02828
 H620 H 0.70066 0.42705 0.04338
 H621 H 0.59869 0.33922 0.22276
 H622 H 0.55279 0.39831 0.16371
 C623 C 0.83130 0.79760 0.38249
 C624 C 0.83656 0.80643 0.32982
 C625 C 0.88107 0.83996 0.31297
 C626 C 0.91224 0.87186 0.34530
 C627 C 0.90299 0.86821 0.39586
 C628 C 0.87005 0.82450 0.41428
 C629 C 0.78968 0.76412 0.40590
 C630 C 0.79294 0.74977 0.45523
 C631 C 0.83657 0.76978 0.48354
 C632 C 0.87410 0.80813 0.46384
 H633 H 0.75456 0.74619 0.38774
 H634 H 0.76183 0.72217 0.47131
 H635 H 0.83971 0.75762 0.52147
 H636 H 0.90710 0.82374 0.48738
 H637 H 0.88878 0.84614 0.27423
 H638 H 0.94100 0.90246 0.33021
 C639 C 0.39220 0.31352 -0.18529
 C640 C 0.33222 0.31383 -0.18025
 C641 C 0.31163 0.33826 -0.13687
 C642 C 0.34462 0.36508 -0.10294
 C643 C 0.40228 0.36878 -0.10848
 C644 C 0.42703 0.33829 -0.14763
 C645 C 0.41933 0.28790 -0.22541
 C646 C 0.47704 0.28013 -0.22573
 C647 C 0.50932 0.29855 -0.18673
 C648 C 0.48516 0.32869 -0.14864
 H649 H 0.39738 0.27292 -0.25701
 H650 H 0.49673 0.25854 -0.25602
 H651 H 0.55339 0.28935 -0.18626
 H652 H 0.51198 0.34156 -0.11879
 H653 H 0.26968 0.33446 -0.12500
 H654 H 0.32360 0.38412 -0.07196
 C655 C 1.18091 0.38136 -0.16694
 C656 C 1.18391 0.32102 -0.16248
 C657 C 1.15141 0.29556 -0.12588
 C658 C 1.11536 0.32662 -0.09644
 C659 C 1.10743 0.38409 -0.10395
 C660 C 1.13877 0.41140 -0.14089
 C661 C 1.21944 0.41399 -0.19480
 C662 C 1.20909 0.46943 -0.20620
 C663 C 1.16418 0.49640 -0.18537
 C664 C 1.13085 0.46862 -0.15138
 H665 H 1.25937 0.39894 -0.20679
 H666 H 1.23649 0.49201 -0.23077
 H667 H 1.15680 0.53965 -0.19423
 H668 H 1.09897 0.49281 -0.13418
 H669 H 1.15332 0.25090 -0.12014
 H670 H 1.09171 0.30482 -0.06832
 C671 C 0.70883 0.86947 0.35817
 C672 C 0.69558 0.81260 0.34173
 C673 C 0.64781 0.78726 0.36265
 C674 C 0.61224 0.81625 0.39446
 C675 C 0.62276 0.87190 0.40717
 C676 C 0.67289 0.89697 0.39263
 C677 C 0.75587 0.90144 0.34260
 C678 C 0.77144 0.95091 0.36563
 C679 C 0.73769 0.97511 0.40048
 C680 C 0.68780 0.94940 0.41289
 H681 H 0.78264 0.89088 0.31306
 H682 H 0.81027 0.97054 0.35654
 H683 H 0.74995 1.01411 0.41748
 H684 H 0.66212 0.97004 0.44008
 H685 H 0.63633 0.74495 0.35292
 H686 H 0.57490 0.79545 0.40807
 C687 C 0.86618 0.65294 -0.17391
 C688 C 0.82153 0.68991 -0.15800
 C689 C 0.82223 0.70622 -0.10812
 C690 C 0.86023 0.68277 -0.07450
 C691 C 0.90449 0.64942 -0.09102
 C692 C 0.91110 0.64188 -0.14151
 C693 C 0.86997 0.62629 -0.22050
 C694 C 0.92024 0.60413 -0.23773
 C695 C 0.96748 0.60542 -0.20844
 C696 C 0.96247 0.62299 -0.16021
 H697 H 0.83502 0.61887 -0.24390
 H698 H 0.92261 0.58610 -0.27399
 H699 H 1.00706 0.58992 -0.22213
 H700 H 0.99842 0.62151 -0.13676
 H701 H 0.79212 0.73612 -0.09458
 H702 H 0.85550 0.69128 -0.03572
 C703 C 0.28604 1.12199 0.36468
 C704 C 0.30068 1.18017 0.35303
 C705 C 0.34862 1.20198 0.37663
 C706 C 0.38289 1.16918 0.40669
 C707 C 0.36973 1.11340 0.41716
 C708 C 0.31954 1.09085 0.39884
 C709 C 0.24081 1.09164 0.34309
 C710 C 0.22602 1.03782 0.35763
 C711 C 0.25659 1.01052 0.39307
 C712 C 0.30354 1.03618 0.41293
 H713 H 0.21457 1.10695 0.31491
 H714 H 0.19030 1.01717 0.34105
 H715 H 0.24441 0.96891 0.40450
 H716 H 0.32715 1.01287 0.43978
 H717 H 0.36274 1.24403 0.36888
 H718 H 0.42162 1.18711 0.42036
 C719 C 1.13828 0.73670 0.13586
 C720 C 1.18694 0.71126 0.15587
 C721 C 1.19529 0.65460 0.14357
 C722 C 1.15488 0.62236 0.12020
 C723 C 1.10302 0.64411 0.10657
 C724 C 1.09511 0.70313 0.11285
 C725 C 1.13163 0.79504 0.13786
 C726 C 1.08277 0.82013 0.12139
 C727 C 1.03955 0.78780 0.10238
 C728 C 1.04544 0.73025 0.09801
 H729 H 1.16486 0.82215 0.15035
 H730 H 1.07838 0.86497 0.12351
 H731 H 1.00110 0.80749 0.09069
 H732 H 1.00952 0.70833 0.08421
 H733 H 1.23098 0.63178 0.15627
 H734 H 1.16401 0.57861 0.11452
 C735 C 0.63793 1.12602 0.68876
 C736 C 0.66340 1.17779 0.67317
 C737 C 0.65719 1.19175 0.62307
 C738 C 0.62938 1.15602 0.58963
 C739 C 0.61036 1.10281 0.60397
 C740 C 0.62064 1.08627 0.65300
 C741 C 0.62679 1.11188 0.73849
 C742 C 0.61202 1.05777 0.75233
 C743 C 0.60714 1.01649 0.71708
 C744 C 0.61190 1.03065 0.66785
 H745 H 0.62637 1.14197 0.76750
 H746 H 0.60530 1.04778 0.79062
 H747 H 0.59891 0.97369 0.72771
 H748 H 0.61058 0.99786 0.64133
 H749 H 0.67395 1.23072 0.60938
 H750 H 0.62194 1.17049 0.55262
 C751 C 0.80206 0.37147 0.16150
 C752 C 0.80645 0.31082 0.16955
 C753 C 0.85309 0.28398 0.14861
 C754 C 0.89404 0.31327 0.12209
 C755 C 0.89060 0.37096 0.11494
 C756 C 0.84375 0.39980 0.13269
 C757 C 0.75802 0.40616 0.17972
 C758 C 0.75398 0.46260 0.16866
 C759 C 0.79301 0.48773 0.13860
 C760 C 0.83727 0.45686 0.12063
 H761 H 0.72385 0.39278 0.20179
 H762 H 0.71937 0.48678 0.18291
 H763 H 0.78882 0.53125 0.12911
 H764 H 0.86588 0.47807 0.09630
 H765 H 0.85887 0.23960 0.15366
 H766 H 0.92936 0.29057 0.10727
 C767 C 0.34707 0.75971 0.63060
 C768 C 0.30686 0.78867 0.65971
 C769 C 0.30387 0.84749 0.65348
 C770 C 0.33506 0.87592 0.61903
 C771 C 0.37664 0.84924 0.59289
 C772 C 0.38506 0.79113 0.60049
 C773 C 0.35252 0.70105 0.63134
 C774 C 0.39743 0.67484 0.60843
 C775 C 0.43829 0.70645 0.58491
 C776 C 0.43229 0.76400 0.58137
 H777 H 0.32255 0.67419 0.64857
 H778 H 0.40126 0.62991 0.61008
 H779 H 0.47473 0.68639 0.56932
 H780 H 0.46607 0.78732 0.56592
 H781 H 0.27621 0.87328 0.67495
 H782 H 0.32854 0.92028 0.61469
 C783 C 0.29050 1.11957 -0.15782
 C784 C 0.28077 1.17892 -0.15056
 C785 C 0.31013 1.20399 -0.11178
 C786 C 0.35399 1.17664 -0.08785
 C787 C 0.37004 1.12283 -0.10123
 C788 C 0.33860 1.09416 -0.13696
 C789 C 0.25485 1.08433 -0.18598
 C790 C 0.27539 1.03502 -0.20833
 C791 C 0.32280 1.01056 -0.18629
 C792 C 0.35389 1.03984 -0.15162
 H793 H 0.21245 1.09651 -0.19458
 H794 H 0.33625 0.96947 -0.19754
 H795 H 0.39160 1.02061 -0.13806
 H796 H 0.29957 1.24513 -0.09976
 H797 H 0.37559 1.19715 -0.05807
 C798 C 0.77313 0.63066 0.36331
 C799 C 0.80030 0.67420 0.33606
 C800 C 0.85955 0.67748 0.34044
 C801 C 0.89032 0.64231 0.36961
 C802 C 0.86512 0.60009 0.39709
 C803 C 0.80592 0.59204 0.39204
 C804 C 0.71428 0.62453 0.36363
 C805 C 0.68837 0.57992 0.38754
 C806 C 0.72029 0.54026 0.41168
 C807 C 0.77833 0.54609 0.41402
 H808 H 0.68722 0.65432 0.34658
 H809 H 0.64315 0.57580 0.38691
 H810 H 0.69993 0.50484 0.42897
 H811 H 0.80090 0.51304 0.43180
 H812 H 0.88443 0.70857 0.32160
 H813 H 0.93509 0.65002 0.37149
 C814 C 0.70749 1.13155 0.14086
 C815 C 0.68361 1.17928 0.16406
 C816 C 0.62573 1.18822 0.15586
 C817 C 0.59288 1.15243 0.12759
 C818 C 0.61411 1.10284 0.10833
 C819 C 0.67190 1.09085 0.11732
 C820 C 0.76607 1.12363 0.13884
 C821 C 0.78880 1.07428 0.12105
 C822 C 0.75380 1.03183 0.10462
 C823 C 0.69615 1.04007 0.10254
 H824 H 0.79522 1.15600 0.14885
 H825 H 0.83380 1.06872 0.12058
 H826 H 0.77142 0.99264 0.09255
 H827 H 0.67124 1.00541 0.09087
 H828 H 0.60424 1.22328 0.17187
 H829 H 0.54971 1.16387 0.12089
 C830 C 1.10415 0.69801 0.66790
 C831 C 1.16480 0.69225 0.66937
 C832 C 1.18878 0.65093 0.63976
 C833 C 1.15691 0.62021 0.60703
 C834 C 1.09827 0.62448 0.60576
 C835 C 1.07147 0.65923 0.64010
 C836 C 1.07366 0.73977 0.69324
 C837 C 1.01585 0.73675 0.69915
 C838 C 0.98572 0.69348 0.67823
 C839 C 1.01300 0.65533 0.64845
 H840 H 1.09224 0.77598 0.70898
 H841 H 0.99485 0.76785 0.72106
 H842 H 0.94104 0.68989 0.68454
 H843 H 0.98811 0.62148 0.63402
 H844 H 1.23333 0.64332 0.64033
 H845 H 1.17898 0.59229 0.58259
 C846 C 0.71994 0.86564 -0.12935
 C847 C 0.70243 0.81027 -0.14252
 C848 C 0.64729 0.79551 -0.12893
 C849 C 0.61114 0.83234 -0.10590
 C850 C 0.62410 0.88899 -0.10018
 C851 C 0.67946 0.90644 -0.11354
 C852 C 0.77673 0.88203 -0.13221
 C853 C 0.79246 0.93782 -0.12812
 C854 C 0.75219 0.97827 -0.11977
 C855 C 0.69655 0.96293 -0.11128
 H856 H 0.80966 0.85181 -0.13627
 H857 H 0.83609 0.94976 -0.13195
 H858 H 0.76440 1.02175 -0.11894
 H859 H 0.66756 0.99625 -0.10452
 H860 H 0.62842 0.75683 -0.13959
 H861 H 0.57093 0.81605 -0.09405
 C862 C 1.22588 0.35355 0.37968
 C863 C 1.20104 0.31579 0.34562
 C864 C 1.14120 0.31525 0.34429
 C865 C 1.10785 0.34582 0.37614
 C866 C 1.13117 0.38295 0.40952
 C867 C 1.19089 0.38991 0.40859
 C868 C 1.28456 0.35787 0.38505
 C869 C 1.30863 0.39988 0.41349
 C870 C 1.27489 0.43915 0.43624
 C871 C 1.21678 0.43452 0.43328
 H872 H 1.31267 0.32910 0.36793
 H873 H 1.35378 0.40297 0.41663
 H874 H 1.29382 0.47358 0.45598
 H875 H 1.19239 0.46809 0.44736
 H876 H 1.11796 0.29036 0.31834
 H877 H 1.06276 0.34027 0.37429
 C878 C 0.36033 0.86129 0.18889
 C879 C 0.31323 0.82463 0.17478
 C880 C 0.29641 0.82663 0.12544
 C881 C 0.32749 0.85578 0.08997
 C882 C 0.37500 0.88764 0.10238
 C883 C 0.38862 0.89414 0.15218
 C884 C 0.38096 0.86847 0.23772
 C885 C 0.42287 0.90679 0.24971
 C886 C 0.44633 0.94037 0.21416
 C887 C 0.42927 0.93463 0.16605
 H888 H 0.36686 0.84674 0.26916
 H889 H 0.43653 0.91123 0.28734
 H890 H 0.47782 0.97111 0.22392
 H891 H 0.44749 0.96372 0.14022
 H892 H 0.26062 0.80232 0.11329
 H893 H 0.31479 0.85234 0.05197
 C894 C 0.76651 0.33966 0.62325
 C895 C 0.78500 0.28849 0.64246
 C896 C 0.84120 0.27339 0.63043
 C897 C 0.87796 0.30900 0.60496
 C898 C 0.86358 0.36426 0.59507
 C899 C 0.80696 0.37986 0.60680
 C900 C 0.70918 0.35404 0.62432
 C901 C 0.69249 0.40858 0.61559
 C902 C 0.73282 0.44948 0.60752
 C903 C 0.78929 0.43495 0.60511
 H904 H 0.67701 0.32338 0.63189
 H905 H 0.64855 0.41945 0.61710
 H906 H 0.72054 0.49267 0.60415
 H907 H 0.81984 0.46690 0.60672
 H908 H 0.85979 0.23596 0.64486
 H909 H 0.91989 0.29456 0.59674
 C910 C 1.09854 1.15748 0.69865
 C911 C 1.15432 1.17532 0.68658
 C912 C 1.17069 1.17253 0.63669
 C913 C 1.13696 1.15044 0.60102
 C914 C 1.08325 1.13240 0.61204
 C915 C 1.06132 1.14148 0.65997
 C916 C 1.07755 1.15619 0.74717
 C917 C 1.02081 1.14734 0.75672
 C918 C 0.98363 1.13921 0.71840
 C919 C 1.00345 1.13574 0.67051
 H920 H 1.10379 1.15993 0.77869
 H921 H 1.00550 1.14761 0.79411
 H922 H 0.93931 1.13494 0.72593
 H923 H 0.97242 1.13101 0.64212
 H924 H 1.20849 1.19132 0.62281
 H925 H 1.15363 1.14673 0.56414
 C926 C 0.62378 0.70748 0.14858
 C927 C 0.67419 0.68843 0.17216
 C928 C 0.69092 0.63304 0.16277
 C929 C 0.66473 0.60018 0.12824
 C930 C 0.61910 0.61970 0.10213
 C931 C 0.59761 0.67316 0.11204
 C932 C 0.59588 0.75715 0.16176
 C933 C 0.54703 0.77413 0.13819
 C934 C 0.52360 0.74160 0.10144
 C935 C 0.54843 0.69147 0.08841
 H936 H 0.60852 0.78258 0.19176
 H937 H 0.52664 0.81238 0.14922
 H938 H 0.48521 0.75453 0.08381
 H939 H 0.52813 0.66673 0.06033
 H940 H 0.72639 0.61413 0.18068
 H941 H 0.67990 0.55815 0.12235
 C942 C 1.16295 0.80251 0.38493
 C943 C 1.17629 0.81812 0.33498
 C944 C 1.15668 0.87010 0.31848
 C945 C 1.12633 0.90514 0.34909
 C946 C 1.11073 0.88797 0.39607
 C947 C 1.12455 0.83474 0.41266
 C948 C 1.19065 0.76035 0.41097
 C949 C 1.17042 0.74034 0.45574
 C950 C 1.12494 0.76575 0.47803
 C951 C 1.10376 0.81449 0.45794
 H952 H 1.22999 0.74478 0.39863
 H953 H 1.19151 0.70656 0.47419
 H954 H 1.10943 0.75057 0.51293
 H955 H 1.07206 0.83671 0.47846
 H956 H 1.16639 0.88532 0.28208
 H957 H 1.11416 0.94583 0.33569
 C958 C 0.70093 0.34770 -0.12918
 C959 C 0.68113 0.33423 -0.17803
 C960 C 0.63395 0.36347 -0.19500
 C961 C 0.60532 0.40074 -0.16451
 C962 C 0.62689 0.41506 -0.11837
 C963 C 0.67942 0.39549 -0.10577
 C964 C 0.74356 0.31985 -0.10278
 C965 C 0.77436 0.34766 -0.06684
 C966 C 0.76292 0.40323 -0.05675
 C967 C 0.71358 0.42577 -0.07349
 H968 H 0.75935 0.27993 -0.11199
 H969 H 0.81025 0.32773 -0.05030
 H970 H 0.79120 0.42852 -0.03501
 H971 H 0.70419 0.46822 -0.06432
 H972 H 0.61730 0.35577 -0.23129
 H973 H 0.56641 0.41864 -0.17721
 C974 C 0.82614 1.11139 0.30638
 C975 C 0.81564 1.16888 0.31969
 C976 C 0.84948 1.19183 0.35713
 C977 C 0.88067 1.15848 0.38855
 C978 C 0.88509 1.10160 0.38007
 C979 C 0.86438 1.07990 0.33526
 C980 C 0.80292 1.08370 0.26460
 C981 C 0.82096 1.03149 0.24931
 C982 C 0.86243 1.00453 0.27482
 C983 C 0.88322 1.02824 0.31741
 H984 H 0.77165 1.09979 0.24113
 H985 H 0.80308 1.01222 0.21696
 H986 H 0.87719 0.96421 0.26264
 H987 H 0.91323 1.00488 0.33650
 H988 H 0.84924 1.23566 0.36511
 H989 H 0.90106 1.17726 0.41999
 C990 C 0.32190 0.60029 -0.18991
 C991 C 0.30341 0.65489 -0.17596
 C992 C 0.30977 0.66973 -0.12602
 C993 C 0.33318 0.63451 -0.09119
 C994 C 0.34940 0.58100 -0.10389
 C995 C 0.33903 0.56203 -0.15266
 C996 C 0.32669 0.58221 -0.23925
 C997 C 0.34139 0.52765 -0.25101
 C998 C 0.34983 0.48885 -0.21418
 C999 C 0.34744 0.50553 -0.16550
 H1000 H 0.32275 0.60916 -0.27002
 H1001 H 0.34484 0.51511 -0.28901
 H1002 H 0.35849 0.44580 -0.22331
 H1003 H 0.35262 0.47382 -0.13790
 H1004 H 0.29899 0.71038 -0.11319
 H1005 H 0.34091 0.65025 -0.05457
 C1006 C 0.81220 0.89122 0.68371
 C1007 C 0.83027 0.83903 0.70110
 C1008 C 0.88534 0.82302 0.68967
 C1009 C 0.91550 0.84988 0.65250
 C1010 C 0.89035 0.89175 0.62449
 C1011 C 0.83645 0.91261 0.64013
 C1012 C 0.77168 0.92344 0.70857
 C1013 C 0.74615 0.96823 0.68589
 C1014 C 0.76066 0.98184 0.63833
 C1015 C 0.80616 0.95568 0.61620
 H1016 H 0.76213 0.91729 0.74672
 H1017 H 0.71573 0.99269 0.70555
 H1018 H 0.73941 1.01558 0.61979
 H1019 H 0.81582 0.97113 0.58083
 H1020 H 0.90310 0.78618 0.70596
 H1021 H 0.95715 0.83532 0.64343
 C1022 C 0.34533 0.29333 0.12663
 C1023 C 0.34757 0.29937 0.17997
 C1024 C 0.38782 0.33722 0.19835
 C1025 C 0.41702 0.37368 0.16702
 C1026 C 0.41181 0.36976 0.11582
 C1027 C 0.38387 0.32335 0.09643
 C1028 C 0.30416 0.26281 0.10055
 C1029 C 0.30562 0.25550 0.04987
 C1030 C 0.34932 0.27769 0.02288
 C1031 C 0.38927 0.31009 0.04614
 H1032 H 0.26855 0.24530 0.11721
 H1033 H 0.27286 0.23191 0.03166
 H1034 H 0.35098 0.27221 -0.01632
 H1035 H 0.42352 0.32598 0.02405
 H1036 H 0.39209 0.34349 0.23747
 H1037 H 0.44159 0.40702 0.18313
   
