data_POSCAR
  _audit_creation_date              2014-09-24
  _audit_creation_method            'ToBaCCo'
  _symmetry_space_group_name_H-M    'P1'
  _symmetry_Int_Tables_number       1
  _symmetry_cell_setting            triclinic
  loop_
  _symmetry_equiv_pos_as_xyz
 x,y,z
_cell_length_a 26.2034
_cell_length_b 24.6794
_cell_length_c 25.9825
_cell_angle_alpha 92.384400
_cell_angle_beta 92.013500
_cell_angle_gamma 91.011400
loop_
  _atom_site_label
  _atom_site_type_symbol
  _atom_site_fract_x
  _atom_site_fract_y
  _atom_site_fract_z
N1 N 0.18041 1.30492 0.16744
 N2 N 0.13988 1.29340 0.19379
 C3 C 0.09993 1.32089 0.17505
 C4 C 0.11481 1.34836 0.13214
 C5 C 0.16689 1.33851 0.13004
 H6 H 0.06282 1.32049 0.19178
 H7 H 0.19247 1.35091 0.10079
 Cu8 Cu 0.13858 1.23414 0.24221
 Cu9 Cu 0.24627 1.26859 0.17668
 Cu10 Cu 0.24478 1.16043 0.25070
 N11 N 0.14857 1.18171 0.29537
 N12 N 0.18962 1.15205 0.29830
 C13 C 0.18329 1.11484 0.33412
 C14 C 0.13481 1.12017 0.35366
 C15 C 0.11474 1.16437 0.32904
 H16 H 0.21216 1.08640 0.34519
 H17 H 0.07666 1.18005 0.33240
 N18 N 0.29347 1.16736 0.19612
 N19 N 0.29676 1.21222 0.17089
 C20 C 0.33493 1.20827 0.13786
 C21 C 0.35484 1.15671 0.13989
 C22 C 0.32830 1.13233 0.17836
 H23 H 0.34622 1.24043 0.11339
 H24 H 0.33325 1.09173 0.19163
 H25 H 0.19308 1.20953 0.19006
 H26 H 0.21322 1.25347 0.24780
 N27 N 0.81778 0.71263 0.13176
 N28 N 0.84496 0.70028 0.17295
 C29 C 0.87872 0.66214 0.16008
 C30 C 0.87326 0.65071 0.10764
 C31 C 0.83362 0.68275 0.09094
 H32 H 0.90682 0.64581 0.18639
 H33 H 0.81894 0.68567 0.05174
 Cu34 Cu 0.83869 0.74034 0.23767
 Cu35 Cu 0.76605 0.76879 0.13470
 Cu36 Cu 0.74602 0.82935 0.25615
 N37 N 0.84356 0.79499 0.29330
 N38 N 0.80473 0.82580 0.30436
 C39 C 0.81725 0.85739 0.34667
 C40 C 0.86735 0.84690 0.36155
 C41 C 0.88307 0.80789 0.32611
 H42 H 0.79366 0.88924 0.36219
 H43 H 0.92052 0.79025 0.32432
 N44 N 0.70644 0.84729 0.19320
 N45 N 0.71523 0.82566 0.14703
 C46 C 0.68575 0.85003 0.11176
 C47 C 0.65781 0.88942 0.13666
 C48 C 0.67126 0.88615 0.18837
 H49 H 0.68551 0.84103 0.07067
 H50 H 0.65760 0.91125 0.21991
 H51 H 0.79578 0.81446 0.19826
 H52 H 0.74992 0.75806 0.20959
 N53 N 0.77446 1.32646 -0.20550
 N54 N 0.80849 1.32424 -0.24156
 C55 C 0.84745 1.35880 -0.22806
 C56 C 0.83765 1.38372 -0.18087
 C57 C 0.79076 1.36265 -0.16799
 H58 H 0.88342 1.35986 -0.24722
 H59 H 0.77366 1.36743 -0.13081
 Cu60 Cu 0.80670 1.26590 -0.29469
 Cu61 Cu 0.72063 1.27048 -0.20257
 Cu62 Cu 0.77111 1.14901 -0.24442
 N63 N 0.81923 1.19679 -0.33009
 N64 N 0.80908 1.15138 -0.30744
 C65 C 0.83106 1.11017 -0.33304
 C66 C 0.85465 1.13026 -0.37537
 C67 C 0.84634 1.18569 -0.37230
 H68 H 0.83079 1.06867 -0.32115
 H69 H 0.86352 1.21612 -0.39539
 N70 N 0.71366 1.15398 -0.19708
 N71 N 0.69195 1.20024 -0.18413
 C72 C 0.65208 1.19022 -0.15444
 C73 C 0.64888 1.13495 -0.14824
 C74 C 0.68857 1.11319 -0.17535
 H75 H 0.62846 1.22097 -0.13708
 H76 H 0.69815 1.07080 -0.17921
 H77 H 0.78327 1.22583 -0.21404
 H78 H 0.73316 1.21515 -0.26637
 N79 N 0.19716 0.69565 -0.15494
 N80 N 0.16943 0.68949 -0.19803
 C81 C 0.13654 0.64743 -0.19432
 C82 C 0.14457 0.62596 -0.14654
 C83 C 0.18294 0.65768 -0.12238
 H84 H 0.10623 0.63629 -0.22229
 H85 H 0.19640 0.65600 -0.08266
 Cu86 Cu 0.17224 0.74280 -0.25064
 Cu87 Cu 0.24248 0.75822 -0.14082
 Cu88 Cu 0.26108 0.84230 -0.24236
 N89 N 0.16492 0.80764 -0.28987
 N90 N 0.20045 0.84591 -0.28765
 C91 C 0.18555 0.88631 -0.31755
 C92 C 0.13687 0.87388 -0.33824
 C93 C 0.12585 0.82263 -0.32073
 H94 H 0.20912 0.92159 -0.32407
 H95 H 0.09100 0.79894 -0.32782
 N96 N 0.30309 0.84745 -0.17795
 N97 N 0.29573 0.81573 -0.13910
 C98 C 0.32704 0.83232 -0.09918
 C99 C 0.35412 0.87774 -0.11296
 C100 C 0.33881 0.88552 -0.16353
 H101 H 0.32892 0.81384 -0.06217
 H102 H 0.35074 0.91824 -0.18709
 H103 H 0.21200 0.81197 -0.19248
 H104 H 0.25956 0.76243 -0.21617
 Si105 Si 0.50977 1.03010 0.01020
 Si106 Si -0.00229 0.48684 0.97697
 Si107 Si 1.00651 -0.00642 0.50360
 C108 C 0.08332 0.44722 1.03217
 C109 C 0.10991 0.41559 1.06663
 C110 C 0.08475 0.37784 1.09660
 C111 C 0.03046 0.37190 1.08943
 C112 C 0.00303 0.40870 1.05844
 C113 C 0.03006 0.44479 1.02746
 C114 C -0.05070 0.40477 1.05615
 N115 N -0.07496 0.36366 1.07874
 N116 N -0.04912 0.32569 1.10271
 C117 C 0.00251 0.32770 1.10774
 H118 H 0.10512 0.47454 1.00960
 H119 H 0.15085 0.42194 1.07006
 H120 H -0.07381 0.43258 1.03520
 H121 H 0.02080 0.29283 1.12297
 C122 C -0.09098 0.53846 1.01395
 C123 C -0.11905 0.57571 1.04247
 C124 C -0.09467 0.61464 1.07586
 C125 C -0.04054 0.61714 1.07939
 C126 C -0.01180 0.57838 1.05128
 C127 C -0.03743 0.53879 1.01761
 C128 C 0.04185 0.58184 1.05707
 N129 N 0.06474 0.62187 1.08732
 N130 N 0.03779 0.65913 1.11216
 C131 C -0.01389 0.65843 1.10892
 H132 H -0.11186 0.50846 0.98974
 H133 H -0.16038 0.57329 1.03929
 H134 H 0.06622 0.55417 1.03718
 H135 H -0.03332 0.69095 1.12862
 C136 C -0.07689 0.48220 0.89735
 C137 C -0.11416 0.46070 0.86239
 C138 C -0.12257 0.40481 0.85671
 C139 C -0.09169 0.36959 0.88551
 C140 C -0.05255 0.39128 0.92019
 C141 C -0.04694 0.44875 0.92823
 C142 C -0.02009 0.35406 0.94382
 N143 N -0.02838 0.29993 0.93620
 N144 N -0.06656 0.27992 0.90572
 C145 C -0.09834 0.31281 0.87999
 H146 H -0.07225 0.52592 0.90103
 H147 H -0.13691 0.48798 0.83986
 H148 H 0.01280 0.36646 0.96691
 H149 H -0.12817 0.29407 0.85519
 C150 C 0.03593 0.58059 0.93186
 C151 C 0.06891 0.61248 0.90474
 C152 C 0.10960 0.58940 0.87909
 C153 C 0.11620 0.53278 0.87907
 C154 C 0.08250 0.49997 0.90674
 C155 C 0.04314 0.52461 0.93543
 C156 C 0.08979 0.44370 0.90445
 N157 N 0.12841 0.42221 0.87736
 N158 N 0.16031 0.45318 0.85208
 C159 C 0.15555 0.50776 0.85203
 H160 H 0.00463 0.60054 0.95028
 H161 H 0.06283 0.65578 0.90405
 H162 H 0.06541 0.41655 0.92384
 H163 H 0.18230 0.53105 0.83063
 C164 C 1.04643 0.08528 0.45593
 C165 C 1.07374 0.11362 0.42058
 C166 C 1.10924 0.08789 0.38893
 C167 C 1.11678 0.03106 0.39391
 C168 C 1.09011 0.00271 0.43183
 C169 C 1.05232 0.02959 0.46091
 C170 C 1.10042 -0.05264 0.43733
 N171 N 1.13199 -0.07868 0.40489
 N172 N 1.15348 -0.05345 0.36676
 C173 C 1.14621 -0.00007 0.35955
 H174 H 1.02015 0.10767 0.47942
 H175 H 1.06750 0.15680 0.41898
 H176 H 1.08261 -0.07621 0.46580
 H177 H 1.16159 0.01613 0.32548
 C178 C 1.04218 -0.09548 0.55814
 C179 C 1.07067 -0.12274 0.59464
 C180 C 1.10554 -0.09502 0.62921
 C181 C 1.10830 -0.03719 0.62860
 C182 C 1.08111 -0.00972 0.58943
 C183 C 1.04730 -0.03937 0.55424
 C184 C 1.08692 0.04713 0.58856
 N185 N 1.11482 0.07471 0.62621
 N186 N 1.13681 0.04952 0.66515
 C187 C 1.13375 -0.00509 0.66812
 H188 H 1.01674 -0.11909 0.53192
 H189 H 1.06672 -0.16650 0.59390
 H190 H 1.06845 0.07044 0.55945
 H191 H 1.14910 -0.02212 0.70276
 C192 C 0.97485 -0.06635 0.41231
 C193 C 0.94420 -0.10060 0.38019
 C194 C 0.89867 -0.12283 0.39736
 C195 C 0.88626 -0.11385 0.44972
 C196 C 0.92048 -0.08321 0.48390
 C197 C 0.96431 -0.05719 0.46440
 C198 C 0.90959 -0.08043 0.53657
 N199 N 0.86663 -0.10434 0.55329
 N200 N 0.83403 -0.13174 0.52111
 C201 C 0.84251 -0.13768 0.47007
 H202 H 1.00646 -0.04636 0.39518
 H203 H 0.95440 -0.10653 0.34029
 H204 H 0.93545 -0.06126 0.56501
 H205 H 0.81554 -0.16204 0.44628
 C206 C 0.95938 0.03965 0.59042
 C207 C 0.92351 0.06805 0.61792
 C208 C 0.88911 0.10224 0.59347
 C209 C 0.88992 0.10564 0.53896
 C210 C 0.92473 0.07354 0.51033
 C211 C 0.96072 0.04110 0.53665
 C212 C 0.92121 0.07414 0.45618
 N213 N 0.88624 0.10537 0.43254
 N214 N 0.85391 0.13545 0.45921
 C215 C 0.85427 0.13638 0.51141
 H216 H 0.98454 0.01418 0.61204
 H217 H 0.92396 0.06443 0.65938
 H218 H 0.94574 0.05015 0.43218
 H219 H 0.82579 0.16011 0.53055
 C220 C 0.46819 1.07242 0.10351
 C221 C 0.42951 1.09679 0.13134
 C222 C 0.39542 1.13234 0.10801
 C223 C 0.40367 1.14635 0.05642
 C224 C 0.44717 1.12670 0.03122
 C225 C 0.47471 1.08305 0.05147
 C226 C 0.46315 1.15448 -0.01128
 N227 N 0.43168 1.19000 -0.03421
 N228 N 0.38584 1.20043 -0.01609
 C229 C 0.37052 1.17944 0.02837
 H230 H 0.49118 1.04261 0.12237
 H231 H 0.42553 1.08662 0.17117
 H232 H 0.50129 1.15051 -0.02450
 H233 H 0.33267 1.18850 0.04077
 C234 C 0.60221 1.05920 -0.03643
 C235 C 0.63393 1.08232 -0.07164
 C236 C 0.61357 1.10614 -0.11534
 C237 C 0.56028 1.10349 -0.12570
 C238 C 0.52760 1.07960 -0.09002
 C239 C 0.54880 1.05941 -0.04317
 C240 C 0.47473 1.07816 -0.10238
 N241 N 0.45655 1.09838 -0.14700
 N242 N 0.48743 1.12014 -0.18041
 C243 C 0.53860 1.12350 -0.17124
 H244 H 0.62042 1.04165 -0.00347
 H245 H 0.67486 1.08291 -0.06391
 H246 H 0.44727 1.06281 -0.07647
 H247 H 0.56190 1.14127 -0.19992
 C248 C 0.47288 0.95832 -0.07177
 C249 C 0.43691 0.92672 -0.10074
 C250 C 0.39017 0.91227 -0.08025
 C251 C 0.38047 0.92865 -0.02857
 C252 C 0.41880 0.95759 0.00187
 C253 C 0.46319 0.97746 -0.02149
 C254 C 0.41172 0.96374 0.05496
 N255 N 0.36655 0.94949 0.07489
 N256 N 0.32820 0.92846 0.04515
 C257 C 0.33356 0.91761 -0.00592
 H258 H 0.50825 0.96859 -0.08955
 H259 H 0.44573 0.91341 -0.13963
 H260 H 0.44258 0.97639 0.08103
 H261 H 0.30098 0.90088 -0.02808
 C262 C 0.55111 0.93469 0.04971
 C263 C 0.58427 0.90292 0.07772
 C264 C 0.62160 0.92644 0.11171
 C265 C 0.62532 0.98381 0.11780
 C266 C 0.59134 1.01652 0.08908
 C267 C 0.55406 0.99150 0.05414
 C268 C 0.59725 1.07329 0.09522
 N269 N 0.63434 1.09541 0.12759
 N270 N 0.66635 1.06479 0.15398
 C271 C 0.66337 1.00990 0.14994
 H272 H 0.52385 0.91378 0.02348
 H273 H 0.58108 0.85919 0.07231
 H274 H 0.57359 1.10052 0.07399
 H275 H 0.69132 0.98752 0.17140
   
