data_POSCAR
  _audit_creation_date              2014-09-24
  _audit_creation_method            'ToBaCCo'
  _symmetry_space_group_name_H-M    'P1'
  _symmetry_Int_Tables_number       1
  _symmetry_cell_setting            triclinic
  loop_
  _symmetry_equiv_pos_as_xyz
 x,y,z
_cell_length_a 56.4327
_cell_length_b 56.4588
_cell_length_c 15.6574
_cell_angle_alpha 89.983500
_cell_angle_beta 89.919800
_cell_angle_gamma 119.948100
loop_
  _atom_site_label
  _atom_site_type_symbol
  _atom_site_fract_x
  _atom_site_fract_y
  _atom_site_fract_z
C1 C 0.22576 0.49812 0.45648
 C2 C 0.22585 0.49737 0.54798
 C3 C 0.24709 0.49577 0.58979
 C4 C 0.26941 0.49727 0.54501
 C5 C 0.27002 0.49979 0.45462
 C6 C 0.24862 0.50057 0.41209
 H7 H 0.24869 0.50032 0.34285
 H8 H 0.24756 0.49578 0.65901
 C9 C 0.50206 -0.27150 0.45856
 C10 C 0.50039 -0.27103 0.54943
 C11 C 0.50071 -0.24871 0.58989
 C12 C 0.50230 -0.22662 0.54338
 C13 C 0.50094 -0.22856 0.45249
 C14 C 0.50102 -0.25069 0.41195
 H15 H 0.50151 -0.25083 0.34280
 H16 H 0.50098 -0.24820 0.65906
 C17 C 1.27366 0.77002 0.45630
 C18 C 1.27462 0.76850 0.54704
 C19 C 1.25372 0.74618 0.59078
 C20 C 1.23149 0.72538 0.54698
 C21 C 1.23014 0.72675 0.45716
 C22 C 1.25097 0.74908 0.41307
 H23 H 1.24978 0.74951 0.34403
 H24 H 1.25405 0.74569 0.66002
 C25 C 0.77154 0.50230 0.45400
 C26 C 0.77449 0.50732 0.54394
 C27 C 0.75274 0.50741 0.58855
 C28 C 0.72906 0.50378 0.54660
 C29 C 0.72761 0.50080 0.45637
 C30 C 0.74833 0.49940 0.41208
 H31 H 0.74667 0.49668 0.34333
 H32 H 0.75433 0.51067 0.65691
 C33 C 0.50909 0.27570 0.45496
 C34 C 0.50489 0.27378 0.54493
 C35 C 0.50233 0.25064 0.58772
 C36 C 0.50507 0.23023 0.54443
 C37 C 0.50928 0.23266 0.45447
 C38 C 0.51165 0.25546 0.41152
 H39 H 0.51332 0.25636 0.34240
 H40 H 0.50016 0.24949 0.65662
 C41 C 0.72629 0.22948 0.45744
 C42 C 0.72763 0.22950 0.54742
 C43 C 0.75049 0.25040 0.58906
 C44 C 0.77247 0.27148 0.54301
 C45 C 0.77012 0.27195 0.45208
 C46 C 0.74728 0.25077 0.41114
 H47 H 0.74580 0.25081 0.34207
 H48 H 0.75171 0.24905 0.65779
 N49 N 1.02801 0.47228 0.08821
 N50 N 1.04871 0.46780 0.09728
 N51 N 0.97075 0.46048 0.15041
 N52 N 0.94912 0.44783 0.20037
 N53 N 0.97028 0.44400 0.09051
 N54 N 0.94830 0.41959 0.09840
 N55 N 1.02823 0.48847 0.14875
 N56 N 1.04889 0.49523 0.20135
 C57 C 1.06147 0.48227 0.16805
 C58 C 0.93534 0.42230 0.16751
 N59 N 0.97106 0.52806 0.09509
 N60 N 0.94934 0.53087 0.10440
 N61 N 1.02891 0.53977 0.15084
 N62 N 1.05031 0.55252 0.20141
 N63 N 1.02861 0.55667 0.09376
 N64 N 1.04966 0.58151 0.10470
 N65 N 0.97129 0.51145 0.15331
 N66 N 0.94973 0.50246 0.20361
 Mn67 Mn 0.99984 0.50008 0.15183
 C68 C 0.93627 0.51483 0.17265
 C69 C 1.06301 0.57855 0.17210
 N70 N 0.96982 0.44466 -0.09326
 N71 N 0.94897 0.41975 -0.10448
 N72 N 1.02762 0.48971 -0.15309
 N73 N 1.04939 0.49879 -0.20253
 N74 N 1.02753 0.47288 -0.09508
 N75 N 1.04927 0.47006 -0.10357
 N76 N 0.97015 0.46128 -0.15260
 N77 N 0.94978 0.44803 -0.20670
 Mn78 Mn 0.99888 0.45813 -0.00245
 C79 C 0.93673 0.42223 -0.17538
 C80 C 1.06267 0.48627 -0.17119
 N81 N 1.02820 0.55728 -0.09081
 N82 N 1.04973 0.58196 -0.09980
 N83 N 0.97069 0.51277 -0.14986
 N84 N 0.95063 0.50675 -0.20435
 N85 N 0.97054 0.52861 -0.08865
 N86 N 0.95010 0.53341 -0.09893
 N87 N 1.02816 0.54075 -0.14987
 N88 N 1.04977 0.55354 -0.19977
 Mn89 Mn 0.99959 0.54298 0.00237
 Mn90 Mn 0.99913 0.50112 -0.15238
 Cl91 Cl 0.99935 0.50057 -0.00019
 C92 C 1.06294 0.57924 -0.16815
 C93 C 0.93794 0.51965 -0.17130
 N94 N 0.47076 0.44152 0.09319
 N95 N 0.46741 0.41680 0.10290
 N96 N 0.45806 0.48658 0.15243
 N97 N 0.44494 0.49492 0.20302
 N98 N 0.44143 0.46954 0.09465
 N99 N 0.41642 0.46537 0.10540
 N100 N 0.48773 0.45832 0.15073
 N101 N 0.49682 0.44565 0.20014
 C102 C 0.48383 0.41979 0.16980
 C103 C 0.41900 0.48136 0.17314
 N104 N 0.52444 0.55437 0.09234
 N105 N 0.52823 0.57919 0.10354
 N106 N 0.53807 0.50951 0.15004
 N107 N 0.55158 0.50160 0.20028
 N108 N 0.55439 0.52675 0.09197
 N109 N 0.57959 0.53141 0.10194
 N110 N 0.50877 0.53782 0.15281
 N111 N 0.50176 0.55101 0.20765
 Mn112 Mn 0.49813 0.49802 0.15261
 C113 C 0.51394 0.57670 0.17563
 C114 C 0.57742 0.51551 0.16957
 N115 N 0.44112 0.46978 -0.08996
 N116 N 0.41622 0.46610 -0.09966
 N117 N 0.48716 0.45848 -0.14966
 N118 N 0.49592 0.44594 -0.20081
 N119 N 0.47070 0.44162 -0.09109
 N120 N 0.46779 0.41706 -0.10112
 N121 N 0.45761 0.48639 -0.14888
 N122 N 0.44453 0.49452 -0.19990
 Mn123 Mn 0.45566 0.45528 0.00168
 C124 C 0.41873 0.48169 -0.16879
 C125 C 0.48364 0.42009 -0.17009
 N126 N 0.55402 0.52659 -0.09199
 N127 N 0.57897 0.53048 -0.10196
 N128 N 0.50774 0.53770 -0.14959
 N129 N 0.49862 0.55033 -0.19917
 N130 N 0.52424 0.55439 -0.09107
 N131 N 0.52691 0.57886 -0.09945
 N132 N 0.53753 0.50983 -0.15042
 N133 N 0.55074 0.50179 -0.20152
 Mn134 Mn 0.53957 0.54083 0.00027
 Mn135 Mn 0.49752 0.49809 -0.15062
 Cl136 Cl 0.49771 0.49805 0.00105
 C137 C 0.57660 0.51489 -0.17076
 C138 C 0.51085 0.57604 -0.16732
 N139 N 0.44262 -0.02875 0.09211
 N140 N 0.41797 -0.05031 0.10180
 N141 N 0.48825 0.02928 0.14914
 N142 N 0.49719 0.05117 0.19771
 N143 N 0.47129 0.02882 0.09095
 N144 N 0.46784 0.05019 0.09934
 N145 N 0.45923 -0.02832 0.15152
 N146 N 0.44643 -0.04950 0.20289
 C147 C 0.42070 -0.06302 0.17150
 C148 C 0.48414 0.06387 0.16621
 N149 N 0.55561 0.02865 0.09407
 N150 N 0.58046 0.04976 0.10445
 N151 N 0.50989 -0.02869 0.15352
 N152 N 0.50082 -0.05034 0.20353
 N153 N 0.52661 -0.02884 0.09547
 N154 N 0.52947 -0.05052 0.10462
 N155 N 0.53881 0.02897 0.15149
 N156 N 0.55160 0.05043 0.20177
 Mn157 Mn 0.49904 0.00032 0.15243
 C158 C 0.57756 0.06314 0.17193
 C159 C 0.51333 -0.06371 0.17251
 N160 N 0.47186 0.02847 -0.09330
 N161 N 0.46873 0.04998 -0.10381
 N162 N 0.45991 -0.02948 -0.14947
 N163 N 0.44707 -0.05110 -0.19929
 N164 N 0.44307 -0.02898 -0.09242
 N165 N 0.41818 -0.04997 -0.10290
 N166 N 0.48854 0.02818 -0.15129
 N167 N 0.49727 0.04946 -0.20248
 Mn168 Mn 0.45686 -0.00012 -0.00068
 C169 C 0.48470 0.06285 -0.17245
 C170 C 0.42108 -0.06352 -0.16968
 N171 N 0.52699 -0.02937 -0.08800
 N172 N 0.53131 -0.05013 -0.09824
 N173 N 0.53952 0.02840 -0.14895
 N174 N 0.55258 0.04982 -0.19951
 N175 N 0.55605 0.02820 -0.09032
 N176 N 0.58093 0.04931 -0.10022
 N177 N 0.51107 -0.02910 -0.14858
 N178 N 0.50439 -0.04943 -0.20247
 Mn179 Mn 0.54163 -0.00034 0.00284
 Mn180 Mn 0.49973 -0.00051 -0.15060
 Cl181 Cl 0.49931 -0.00017 0.00095
 C182 C 0.51706 -0.06237 -0.16986
 C183 C 0.57841 0.06259 -0.16863
 C184 C 1.15588 0.48771 0.32376
 C185 C 1.15261 0.47233 0.39763
 C186 C 1.17575 0.47457 0.43781
 C187 C 1.20239 0.49353 0.40876
 C188 C 1.20512 0.50794 0.33202
 C189 C 1.18193 0.50511 0.28949
 C190 C 1.13156 0.48582 0.28228
 C191 C 1.13473 0.50098 0.20767
 C192 C 1.11150 0.49928 0.16902
 C193 C 1.08557 0.48313 0.20604
 C194 C 1.08267 0.46819 0.28075
 C195 C 1.10562 0.46921 0.31881
 C196 C 1.18429 0.51991 0.21464
 C197 C 1.16108 0.51775 0.17413
 C198 C 1.12630 0.45549 0.43124
 C199 C 1.10320 0.45412 0.39285
 H200 H 1.20426 0.53340 0.18737
 H201 H 1.16382 0.52956 0.11670
 H202 H 1.12358 0.44365 0.48861
 H203 H 1.08331 0.44119 0.42145
 H204 H 1.17297 0.46185 0.49300
 H205 H 1.22522 0.52252 0.30783
 H206 H 1.11356 0.51087 0.11151
 H207 H 1.06256 0.45575 0.30879
 C208 C 0.50932 0.66596 0.33277
 C209 C 0.49421 0.67661 0.29414
 C210 C 0.49217 0.69765 0.33513
 C211 C 0.50545 0.70839 0.41407
 C212 C 0.52225 0.69862 0.44766
 C213 C 0.52332 0.67677 0.40953
 C214 C 0.51049 0.64301 0.29219
 C215 C 0.52476 0.63170 0.33282
 C216 C 0.52534 0.60952 0.29483
 C217 C 0.51256 0.59939 0.21578
 C218 C 0.49874 0.61113 0.17493
 C219 C 0.49724 0.63275 0.21373
 C220 C 0.53780 0.66527 0.44751
 C221 C 0.53827 0.64291 0.41024
 C222 C 0.48099 0.66563 0.21604
 C223 C 0.48269 0.64424 0.17612
 H224 H 0.54850 0.67334 0.50726
 H225 H 0.54940 0.63442 0.44205
 H226 H 0.46928 0.67368 0.18540
 H227 H 0.47232 0.63646 0.11576
 H228 H 0.47914 0.70460 0.30731
 H229 H 0.53455 0.70793 0.50391
 H230 H 0.53611 0.60045 0.32561
 H231 H 0.48885 0.60312 0.11400
 C232 C 0.33606 -0.16190 0.32477
 C233 C 0.30884 -0.17287 0.29815
 C234 C 0.28819 -0.19606 0.33997
 C235 C 0.29459 -0.20805 0.40903
 C236 C 0.32235 -0.19751 0.43066
 C237 C 0.34299 -0.17418 0.39051
 C238 C 0.35772 -0.13693 0.28359
 C239 C 0.38483 -0.12578 0.31165
 C240 C 0.40525 -0.10171 0.27400
 C241 C 0.39880 -0.08878 0.20852
 C242 C 0.37158 -0.10041 0.18007
 C243 C 0.35088 -0.12449 0.21786
 C244 C 0.37042 -0.16268 0.41585
 C245 C 0.39098 -0.13878 0.37735
 C246 C 0.30278 -0.16000 0.23167
 C247 C 0.32344 -0.13626 0.19210
 H248 H 0.37597 -0.17198 0.46680
 H249 H 0.41181 -0.13030 0.39963
 H250 H 0.28186 -0.16822 0.21043
 H251 H 0.31785 -0.12691 0.14145
 H252 H 0.26707 -0.20376 0.32172
 H253 H 0.32804 -0.20775 0.47781
 H254 H 0.42618 -0.09302 0.29592
 H255 H 0.36648 -0.09056 0.12966
 C256 C 0.83672 0.50154 0.31770
 C257 C 0.82404 0.48293 0.38503
 C258 C 0.80117 0.48156 0.42526
 C259 C 0.79198 0.49965 0.40122
 C260 C 0.80414 0.51730 0.33118
 C261 C 0.82660 0.51840 0.28931
 C262 C 0.86168 0.50421 0.27836
 C263 C 0.87461 0.52317 0.21205
 C264 C 0.89881 0.52623 0.17661
 C265 C 0.91024 0.51079 0.20795
 C266 C 0.89689 0.49168 0.27395
 C267 C 0.87256 0.48831 0.30943
 C268 C 0.83983 0.53680 0.22191
 C269 C 0.86338 0.53906 0.18365
 C270 C 0.83522 0.46696 0.41318
 C271 C 0.85914 0.46968 0.37620
 H272 H 0.83215 0.54984 0.19935
 H273 H 0.87313 0.55371 0.13244
 H274 H 0.82572 0.45264 0.46536
 H275 H 0.86738 0.45736 0.40084
 H276 H 0.79163 0.46780 0.47873
 H277 H 0.79705 0.53121 0.31256
 H278 H 0.90897 0.54096 0.12582
 H279 H 0.90549 0.47960 0.29811
 C280 C 0.49799 0.33492 0.31863
 C281 C 0.52435 0.33828 0.32453
 C282 C 0.52775 0.31791 0.36439
 C283 C 0.50526 0.29537 0.40276
 C284 C 0.47897 0.29211 0.39549
 C285 C 0.47514 0.31168 0.35243
 C286 C 0.49430 0.35640 0.27803
 C287 C 0.46785 0.35270 0.27023
 C288 C 0.46447 0.37324 0.23175
 C289 C 0.48740 0.39771 0.20503
 C290 C 0.51379 0.40135 0.21414
 C291 C 0.51733 0.38046 0.24921
 C292 C 0.44904 0.30875 0.34383
 C293 C 0.44541 0.32878 0.30255
 C294 C 0.54681 0.36231 0.29280
 C295 C 0.54338 0.38316 0.25657
 H296 H 0.43126 0.29084 0.36934
 H297 H 0.42494 0.32574 0.29720
 H298 H 0.56725 0.36523 0.29740
 H299 H 0.56125 0.40153 0.23406
 H300 H 0.54797 0.32030 0.37028
 H301 H 0.46167 0.27451 0.42448
 H302 H 0.44419 0.37068 0.22525
 H303 H 0.53141 0.42026 0.19305
 C304 C 0.66336 0.16043 0.32623
 C305 C 0.65695 0.17870 0.36701
 C306 C 0.67787 0.20203 0.40662
 C307 C 0.70457 0.20618 0.40981
 C308 C 0.71077 0.18794 0.36783
 C309 C 0.69024 0.16509 0.32514
 C310 C 0.64147 0.13585 0.28448
 C311 C 0.64797 0.11790 0.24203
 C312 C 0.62703 0.09444 0.20287
 C313 C 0.59975 0.08855 0.20858
 C314 C 0.59354 0.10668 0.25155
 C315 C 0.61440 0.13058 0.28880
 C316 C 0.69596 0.14666 0.28224
 C317 C 0.67521 0.12356 0.24082
 C318 C 0.62971 0.17302 0.36847
 C319 C 0.60874 0.14922 0.33073
 H320 H 0.71664 0.15010 0.28075
 H321 H 0.68047 0.10984 0.20848
 H322 H 0.62450 0.18687 0.40020
 H323 H 0.58794 0.14535 0.33449
 H324 H 0.67339 0.21673 0.43583
 H325 H 0.73150 0.19147 0.36933
 H326 H 0.63179 0.08038 0.17028
 H327 H 0.57253 0.10226 0.25543
 C328 C 0.49890 0.16176 -0.32521
 C329 C 0.48185 0.17208 -0.30078
 C330 C 0.48446 0.19533 -0.34228
 C331 C 0.50372 0.20804 -0.40890
 C332 C 0.52161 0.19809 -0.42842
 C333 C 0.51891 0.17472 -0.38851
 C334 C 0.49563 0.13678 -0.28423
 C335 C 0.51241 0.12628 -0.31001
 C336 C 0.50877 0.10217 -0.27257
 C337 C 0.48860 0.08861 -0.20953
 C338 C 0.47222 0.09962 -0.18328
 C339 C 0.47556 0.12369 -0.22091
 C340 C 0.53566 0.16388 -0.41155
 C341 C 0.53237 0.13997 -0.37323
 C342 C 0.46214 0.15855 -0.23666
 C343 C 0.45908 0.13480 -0.19730
 H344 H 0.55116 0.17373 -0.46053
 H345 H 0.54542 0.13205 -0.39366
 H346 H 0.44884 0.16627 -0.21712
 H347 H 0.44354 0.12493 -0.14849
 H348 H 0.47050 0.20257 -0.32570
 H349 H 0.53812 0.20887 -0.47349
 H350 H 0.52162 0.09394 -0.29269
 H351 H 0.45667 0.08928 -0.13472
 C352 C 0.66445 0.50545 -0.32179
 C353 C 0.65851 0.48610 -0.38636
 C354 C 0.67997 0.48479 -0.42635
 C355 C 0.70751 0.50344 -0.40560
 C356 C 0.71296 0.52196 -0.33763
 C357 C 0.69150 0.52317 -0.29608
 C358 C 0.64191 0.50742 -0.28118
 C359 C 0.64779 0.52691 -0.21685
 C360 C 0.62629 0.52906 -0.17973
 C361 C 0.59919 0.51210 -0.20746
 C362 C 0.59367 0.49252 -0.27148
 C363 C 0.61494 0.49005 -0.30845
 C364 C 0.69657 0.54223 -0.23087
 C365 C 0.67509 0.54403 -0.19181
 C366 C 0.63123 0.46872 -0.41084
 C367 C 0.60980 0.47074 -0.37275
 H368 H 0.71734 0.55604 -0.21033
 H369 H 0.67992 0.55913 -0.14219
 H370 H 0.62644 0.45372 -0.46081
 H371 H 0.58908 0.45722 -0.39425
 H372 H 0.67516 0.46896 -0.47327
 H373 H 0.73386 0.53656 -0.32030
 H374 H 0.63067 0.54417 -0.13042
 H375 H 0.57284 0.47925 -0.29274
 C376 C 0.84276 0.33271 -0.33052
 C377 C 0.84568 0.32241 -0.40880
 C378 C 0.82266 0.30074 -0.44694
 C379 C 0.79622 0.29082 -0.41197
 C380 C 0.79399 0.30087 -0.33126
 C381 C 0.81719 0.32165 -0.29023
 C382 C 0.86694 0.35564 -0.29029
 C383 C 0.86423 0.36540 -0.21046
 C384 C 0.88737 0.38710 -0.17223
 C385 C 0.91265 0.39943 -0.21498
 C386 C 0.91504 0.38975 -0.29528
 C387 C 0.89227 0.36748 -0.33275
 C388 C 0.81524 0.33208 -0.21062
 C389 C 0.83841 0.35341 -0.17102
 C390 C 0.87146 0.33436 -0.44847
 C391 C 0.89432 0.35673 -0.41153
 H392 H 0.79564 0.32371 -0.17866
 H393 H 0.83603 0.36079 -0.10955
 H394 H 0.87388 0.32670 -0.50939
 H395 H 0.91375 0.36562 -0.44475
 H396 H 0.82545 0.29181 -0.50454
 H397 H 0.77412 0.29368 -0.30214
 H398 H 0.88570 0.39473 -0.11029
 H399 H 0.93468 0.39925 -0.32751
 C400 C 0.51113 -0.15656 -0.32859
 C401 C 0.49520 -0.18240 -0.29118
 C402 C 0.49256 -0.20557 -0.33311
 C403 C 0.50601 -0.20308 -0.41183
 C404 C 0.52343 -0.17654 -0.44459
 C405 C 0.52522 -0.15346 -0.40529
 C406 C 0.51300 -0.13229 -0.28687
 C407 C 0.52810 -0.10659 -0.32627
 C408 C 0.52919 -0.08370 -0.28754
 C409 C 0.51601 -0.08638 -0.20910
 C410 C 0.50141 -0.11205 -0.16934
 C411 C 0.49947 -0.13526 -0.20879
 C412 C 0.54055 -0.12736 -0.44197
 C413 C 0.54175 -0.10435 -0.40354
 C414 C 0.48180 -0.18460 -0.21330
 C415 C 0.48409 -0.16140 -0.17246
 H416 H 0.55135 -0.12478 -0.50161
 H417 H 0.55351 -0.08464 -0.43441
 H418 H 0.46946 -0.20442 -0.18364
 H419 H 0.47348 -0.16398 -0.11242
 H420 H 0.47898 -0.22554 -0.30612
 H421 H 0.53575 -0.17369 -0.50083
 H422 H 0.54046 -0.06378 -0.31765
 H423 H 0.49113 -0.11395 -0.10903
 C424 C 0.33271 0.49312 -0.32406
 C425 C 0.33929 0.51228 -0.38985
 C426 C 0.31833 0.51430 -0.43044
 C427 C 0.29066 0.49661 -0.40872
 C428 C 0.28458 0.47823 -0.33978
 C429 C 0.30552 0.47627 -0.29782
 C430 C 0.35472 0.49057 -0.28226
 C431 C 0.34821 0.47132 -0.21656
 C432 C 0.36925 0.46864 -0.17822
 C433 C 0.39648 0.48490 -0.20602
 C434 C 0.40260 0.50429 -0.27131
 C435 C 0.38183 0.50723 -0.30959
 C436 C 0.29979 0.45741 -0.23133
 C437 C 0.32078 0.45499 -0.19134
 C438 C 0.36672 0.52890 -0.41449
 C439 C 0.38764 0.52635 -0.37519
 H440 H 0.27890 0.44426 -0.21042
 H441 H 0.31545 0.44008 -0.14071
 H442 H 0.37201 0.54374 -0.46533
 H443 H 0.40850 0.53931 -0.39671
 H444 H 0.32370 0.53019 -0.47755
 H445 H 0.26352 0.46449 -0.32151
 H446 H 0.36441 0.45370 -0.12792
 H447 H 0.42353 0.51705 -0.29270
 C448 C 1.16198 0.66396 -0.31878
 C449 C 1.18084 0.65735 -0.35419
 C450 C 1.20445 0.67792 -0.39401
 C451 C 1.20829 0.70438 -0.40294
 C452 C 1.18947 0.71082 -0.36621
 C453 C 1.16635 0.69070 -0.32315
 C454 C 1.13699 0.64240 -0.27747
 C455 C 1.11840 0.64912 -0.24044
 C456 C 1.09453 0.62846 -0.20187
 C457 C 1.08883 0.60121 -0.20328
 C458 C 1.10758 0.59478 -0.24088
 C459 C 1.13193 0.61539 -0.27703
 C460 C 1.14729 0.69664 -0.28553
 C461 C 1.12384 0.67625 -0.24422
 C462 C 1.17540 0.63022 -0.35059
 C463 C 1.15123 0.60954 -0.31333
 H464 H 1.15051 0.71722 -0.28821
 H465 H 1.10964 0.68168 -0.21612
 H466 H 1.18972 0.62484 -0.37807
 H467 H 1.14761 0.58880 -0.31294
 H468 H 1.21946 0.67326 -0.41993
 H469 H 1.19273 0.73137 -0.37235
 H470 H 1.07997 0.63336 -0.17347
 H471 H 1.10327 0.57378 -0.24140
 C472 C 0.84484 0.51712 -0.32741
 C473 C 0.81944 0.50385 -0.28568
 C474 C 0.79627 0.50128 -0.32746
 C475 C 0.79835 0.51227 -0.41031
 C476 C 0.82471 0.52778 -0.44683
 C477 C 0.84766 0.52909 -0.40792
 C478 C 0.86888 0.51820 -0.28654
 C479 C 0.89393 0.53012 -0.33065
 C480 C 0.91646 0.53016 -0.29283
 C481 C 0.91420 0.51931 -0.21054
 C482 C 0.88925 0.50807 -0.16607
 C483 C 0.86628 0.50695 -0.20465
 C484 C 0.87322 0.54153 -0.44910
 C485 C 0.89589 0.54173 -0.41157
 C486 C 0.81760 0.49272 -0.20394
 C487 C 0.84068 0.49451 -0.16372
 H488 H 0.87556 0.55063 -0.51173
 H489 H 0.91511 0.55109 -0.44608
 H490 H 0.79813 0.48249 -0.17082
 H491 H 0.83837 0.48570 -0.10065
 H492 H 0.77649 0.48932 -0.29710
 H493 H 0.82745 0.53855 -0.50646
 H494 H 0.93583 0.53898 -0.32650
 H495 H 0.88764 0.49963 -0.10271
 C496 C 0.49834 0.33573 -0.32362
 C497 C 0.51834 0.34290 -0.38701
 C498 C 0.52117 0.32234 -0.42723
 C499 C 0.50342 0.29448 -0.40795
 C500 C 0.48416 0.28780 -0.34118
 C501 C 0.48142 0.30835 -0.29938
 C502 C 0.49493 0.35732 -0.28234
 C503 C 0.47486 0.35024 -0.21891
 C504 C 0.47141 0.37088 -0.18100
 C505 C 0.48767 0.39829 -0.20714
 C506 C 0.50783 0.40498 -0.27029
 C507 C 0.51160 0.38461 -0.30794
 C508 C 0.46171 0.30206 -0.23514
 C509 C 0.45852 0.32264 -0.19550
 C510 C 0.53497 0.37048 -0.40985
 C511 C 0.53157 0.39099 -0.37121
 H512 H 0.44850 0.28102 -0.21573
 H513 H 0.44298 0.31687 -0.14663
 H514 H 0.55047 0.37622 -0.45889
 H515 H 0.54455 0.41198 -0.39138
 H516 H 0.53768 0.32818 -0.47241
 H517 H 0.47031 0.26661 -0.32473
 H518 H 0.45586 0.36559 -0.13239
 H519 H 0.52059 0.42605 -0.29034
 C520 C 0.66512 0.16067 -0.31825
 C521 C 0.69164 0.16440 -0.32211
 C522 C 0.71226 0.18738 -0.36461
 C523 C 0.70647 0.20663 -0.40148
 C524 C 0.68024 0.20344 -0.39263
 C525 C 0.65922 0.18004 -0.35338
 C526 C 0.64302 0.13584 -0.27775
 C527 C 0.61624 0.13149 -0.27771
 C528 C 0.59511 0.10734 -0.24210
 C529 C 0.60083 0.08809 -0.20453
 C530 C 0.62786 0.09308 -0.20290
 C531 C 0.64901 0.11674 -0.24095
 C532 C 0.63231 0.17530 -0.35019
 C533 C 0.61113 0.15132 -0.31362
 C534 C 0.69685 0.14482 -0.28474
 C535 C 0.67594 0.12151 -0.24421
 H536 H 0.62749 0.19004 -0.37746
 H537 H 0.59060 0.14829 -0.31339
 H538 H 0.71723 0.14749 -0.28702
 H539 H 0.68082 0.10691 -0.21625
 H540 H 0.73261 0.19008 -0.37064
 H541 H 0.67612 0.21884 -0.41817
 H542 H 0.57431 0.10361 -0.24275
 H543 H 0.63223 0.07816 -0.17445
 C544 C 1.16197 0.49883 -0.31608
 C545 C 1.17240 0.48242 -0.28622
 C546 C 1.19474 0.48321 -0.32835
 C547 C 1.20623 0.49977 -0.40154
 C548 C 1.19661 0.51758 -0.42624
 C549 C 1.17415 0.51672 -0.38517
 C550 C 1.13722 0.49654 -0.27618
 C551 C 1.12624 0.51225 -0.30815
 C552 C 1.10203 0.50909 -0.27253
 C553 C 1.08879 0.49031 -0.20570
 C554 C 1.10040 0.47514 -0.17314
 C555 C 1.12457 0.47808 -0.20851
 C556 C 1.16299 0.53265 -0.41394
 C557 C 1.13939 0.53042 -0.37616
 C558 C 1.15954 0.46464 -0.21711
 C559 C 1.13605 0.46254 -0.17882
 H560 H 1.17223 0.54654 -0.46728
 H561 H 1.13116 0.54271 -0.40122
 H562 H 1.16741 0.45189 -0.19334
 H563 H 1.12654 0.44830 -0.12646
 H564 H 1.20167 0.46931 -0.30809
 H565 H 1.20603 0.53145 -0.47957
 H566 H 1.09333 0.52099 -0.29756
 H567 H 1.09038 0.46072 -0.12150
 C568 C 0.49903 0.66325 -0.31111
 C569 C 0.51756 0.69033 -0.28752
 C570 C 0.51677 0.71178 -0.32991
 C571 C 0.49772 0.70625 -0.39568
 C572 C 0.47808 0.67896 -0.41455
 C573 C 0.47909 0.65735 -0.37391
 C574 C 0.50126 0.64073 -0.27172
 C575 C 0.48365 0.61375 -0.29837
 C576 C 0.48668 0.59253 -0.26338
 C577 C 0.50705 0.59823 -0.20194
 C578 C 0.52413 0.62532 -0.17464
 C579 C 0.52150 0.64670 -0.20995
 C580 C 0.46138 0.63003 -0.39737
 C581 C 0.46368 0.60860 -0.36043
 C582 C 0.53724 0.69546 -0.22453
 C583 C 0.53909 0.67399 -0.18607
 H584 H 0.44598 0.62523 -0.44596
 H585 H 0.44992 0.58788 -0.38135
 H586 H 0.55159 0.71626 -0.20566
 H587 H 0.55476 0.67884 -0.13839
 H588 H 0.53193 0.73275 -0.31531
 H589 H 0.46323 0.67468 -0.46464
 H590 H 0.47333 0.57169 -0.28426
 H591 H 0.53986 0.62984 -0.12744
 C592 C 0.33480 -0.16147 -0.31841
 C593 C 0.33695 -0.18522 -0.32063
 C594 C 0.31619 -0.20881 -0.35991
 C595 C 0.29448 -0.20803 -0.40122
 C596 C 0.29241 -0.18425 -0.39765
 C597 C 0.31238 -0.16096 -0.35529
 C598 C 0.35671 -0.13650 -0.27834
 C599 C 0.35418 -0.11299 -0.27416
 C600 C 0.37507 -0.08929 -0.23588
 C601 C 0.39873 -0.08880 -0.20563
 C602 C 0.40123 -0.11230 -0.21128
 C603 C 0.37996 -0.13646 -0.24623
 C604 C 0.31066 -0.13702 -0.35037
 C605 C 0.33107 -0.11352 -0.30963
 C606 C 0.36020 -0.18459 -0.28587
 C607 C 0.38148 -0.16054 -0.25010
 H608 H 0.29341 -0.13643 -0.37830
 H609 H 0.32895 -0.09549 -0.30710
 H610 H 0.36219 -0.20270 -0.28769
 H611 H 0.39925 -0.16081 -0.22519
 H612 H 0.31768 -0.22720 -0.36311
 H613 H 0.27548 -0.18388 -0.42900
 H614 H 0.37339 -0.07101 -0.23197
 H615 H 0.41951 -0.11180 -0.18745
 C616 C 0.50067 -0.16332 0.31485
 C617 C 0.48058 -0.17737 0.37739
 C618 C 0.47921 -0.20026 0.41725
 C619 C 0.49865 -0.20820 0.39795
 C620 C 0.51787 -0.19465 0.33242
 C621 C 0.51902 -0.17212 0.29078
 C622 C 0.50324 -0.13832 0.27619
 C623 C 0.52360 -0.12406 0.21459
 C624 C 0.52646 -0.09988 0.17976
 C625 C 0.50947 -0.08972 0.20730
 C626 C 0.48903 -0.10437 0.26874
 C627 C 0.48577 -0.12876 0.30328
 C628 C 0.53887 -0.15752 0.22804
 C629 C 0.54103 -0.13397 0.19027
 C630 C 0.46306 -0.16753 0.40140
 C631 C 0.46568 -0.14358 0.36519
 H632 H 0.55309 -0.16414 0.20879
 H633 H 0.55679 -0.12316 0.14272
 H634 H 0.44756 -0.17812 0.44985
 H635 H 0.45209 -0.13644 0.38656
 H636 H 0.46422 -0.21084 0.46713
 H637 H 0.53289 -0.20067 0.31748
 H638 H 0.54226 -0.08871 0.13256
 H639 H 0.47575 -0.09677 0.28985
 C640 C 0.33115 0.49119 0.32003
 C641 C 0.30886 0.46805 0.35652
 C642 C 0.28848 0.47092 0.39840
 C643 C 0.29004 0.49654 0.40201
 C644 C 0.31160 0.51922 0.36084
 C645 C 0.33276 0.51684 0.32200
 C646 C 0.35353 0.48863 0.28078
 C647 C 0.37665 0.51207 0.24910
 C648 C 0.39833 0.50964 0.21480
 C649 C 0.39638 0.48388 0.20940
 C650 C 0.37287 0.46050 0.23935
 C651 C 0.35156 0.46284 0.27694
 C652 C 0.35590 0.53970 0.28767
 C653 C 0.37760 0.53741 0.25262
 C654 C 0.30769 0.44264 0.35192
 C655 C 0.32855 0.44002 0.31193
 H656 H 0.35748 0.55962 0.28930
 H657 H 0.39526 0.55562 0.22802
 H658 H 0.29054 0.42464 0.37957
 H659 H 0.32685 0.42005 0.30964
 H660 H 0.27168 0.45346 0.42970
 H661 H 0.31273 0.53894 0.36410
 H662 H 0.41649 0.52759 0.19111
 H663 H 0.37159 0.44071 0.23553
 C664 C 1.16071 0.66436 0.32528
 C665 C 1.17900 0.65788 0.36539
 C666 C 1.20242 0.67872 0.40470
 C667 C 1.20676 0.70546 0.40836
 C668 C 1.18856 0.71181 0.36670
 C669 C 1.16552 0.69130 0.32437
 C670 C 1.13596 0.64248 0.28410
 C671 C 1.11794 0.64901 0.24233
 C672 C 1.09435 0.62806 0.20357
 C673 C 1.08842 0.60076 0.20897
 C674 C 1.10663 0.59456 0.25135
 C675 C 1.13064 0.61540 0.28814
 C676 C 1.14700 0.69703 0.28214
 C677 C 1.12371 0.67628 0.24128
 C678 C 1.17327 0.63064 0.36657
 C679 C 1.14937 0.60971 0.32919
 H680 H 1.15051 0.71773 0.28074
 H681 H 1.10995 0.68158 0.20946
 H682 H 1.18717 0.62540 0.39775
 H683 H 1.14553 0.58891 0.33242
 H684 H 1.21710 0.67412 0.43343
 H685 H 1.19218 0.73256 0.36854
 H686 H 1.08025 0.63284 0.17138
 H687 H 1.10221 0.57356 0.25496
 C688 C 0.49829 0.16275 0.31587
 C689 C 0.47542 0.16317 0.34949
 C690 C 0.47923 0.18641 0.39344
 C691 C 0.50554 0.20928 0.40176
 C692 C 0.52809 0.20923 0.36358
 C693 C 0.52469 0.18559 0.32287
 C694 C 0.49459 0.13770 0.27434
 C695 C 0.51764 0.13661 0.24580
 C696 C 0.51408 0.11224 0.21022
 C697 C 0.48766 0.08962 0.20035
 C698 C 0.46472 0.09125 0.22659
 C699 C 0.46811 0.11511 0.26557
 C700 C 0.54717 0.18397 0.29129
 C701 C 0.54373 0.15981 0.25415
 C702 C 0.44929 0.14016 0.33980
 C703 C 0.44566 0.11664 0.29770
 H704 H 0.56764 0.20137 0.29671
 H705 H 0.56163 0.15929 0.23172
 H706 H 0.43149 0.14032 0.36515
 H707 H 0.42516 0.09932 0.29163
 H708 H 0.46189 0.18670 0.42222
 H709 H 0.54832 0.22695 0.37020
 H710 H 0.53171 0.11086 0.18966
 H711 H 0.44443 0.07363 0.21967
 C712 C 0.66566 0.50786 0.32169
 C713 C 0.66521 0.48274 0.32106
 C714 C 0.68640 0.48083 0.36127
 C715 C 0.70698 0.50344 0.40535
 C716 C 0.70732 0.52850 0.40467
 C717 C 0.68682 0.53092 0.36212
 C718 C 0.64329 0.50995 0.28059
 C719 C 0.64407 0.53523 0.27961
 C720 C 0.62273 0.53708 0.24050
 C721 C 0.60035 0.51368 0.20591
 C722 C 0.59959 0.48843 0.20809
 C723 C 0.62134 0.48654 0.24413
 C724 C 0.68683 0.55580 0.36025
 C725 C 0.66595 0.55798 0.31896
 C726 C 0.64325 0.45996 0.28210
 C727 C 0.62158 0.46178 0.24484
 H728 H 0.70312 0.57373 0.39101
 H729 H 0.66672 0.57755 0.31889
 H730 H 0.64260 0.44045 0.28143
 H731 H 0.60493 0.44368 0.21614
 H732 H 0.68622 0.46154 0.36226
 H733 H 0.72338 0.54592 0.43823
 H734 H 0.62304 0.55644 0.23919
 H735 H 0.58226 0.47046 0.18102
 C736 C 0.83543 0.33675 0.31264
 C737 C 0.82223 0.34315 0.37720
 C738 C 0.79934 0.32194 0.41810
 C739 C 0.79060 0.29450 0.39768
 C740 C 0.80327 0.28849 0.33022
 C741 C 0.82579 0.30957 0.28761
 C742 C 0.86043 0.35881 0.27282
 C743 C 0.87389 0.35236 0.20925
 C744 C 0.89815 0.37332 0.17350
 C745 C 0.90915 0.40043 0.20214
 C746 C 0.89524 0.40657 0.26536
 C747 C 0.87083 0.38582 0.30083
 C748 C 0.83955 0.30395 0.22287
 C749 C 0.86312 0.32501 0.18406
 C750 C 0.83290 0.37051 0.40208
 C751 C 0.85686 0.39148 0.36474
 H752 H 0.83226 0.28307 0.20288
 H753 H 0.87328 0.31977 0.13502
 H754 H 0.82298 0.37570 0.45205
 H755 H 0.86469 0.41224 0.38682
 H756 H 0.78941 0.32657 0.46948
 H757 H 0.79655 0.26737 0.31433
 H758 H 0.90876 0.36847 0.12493
 H759 H 0.90348 0.42743 0.28733
   
