data_POSCAR
  _audit_creation_date              2014-09-24
  _audit_creation_method            'ToBaCCo'
  _symmetry_space_group_name_H-M    'P1'
  _symmetry_Int_Tables_number       1
  _symmetry_cell_setting            triclinic
  loop_
  _symmetry_equiv_pos_as_xyz
 x,y,z
_cell_length_a 36.5198
_cell_length_b 37.8906
_cell_length_c 30.1800
_cell_angle_alpha 92.490100
_cell_angle_beta 90.277200
_cell_angle_gamma 90.079700
loop_
  _atom_site_label
  _atom_site_type_symbol
  _atom_site_fract_x
  _atom_site_fract_y
  _atom_site_fract_z
C1 C 0.32057 0.27071 0.22683
 H2 H 0.33400 0.25078 0.24554
 C3 C 0.34164 0.29394 0.20285
 H4 H 0.37114 0.29113 0.20271
 C5 C 0.26603 0.29908 0.20492
 H6 H 0.23653 0.30124 0.20665
 C7 C 0.28603 0.32286 0.18051
 H8 H 0.27168 0.34342 0.16367
 N9 N 0.28346 0.27364 0.22739
 C10 C 0.19040 0.27431 0.30334
 H11 H 0.17543 0.25489 0.28316
 C12 C 0.17138 0.29891 0.33038
 H13 H 0.14177 0.29785 0.33127
 C14 C 0.24709 0.29975 0.32622
 H15 H 0.27663 0.30024 0.32372
 C16 C 0.22924 0.32466 0.35379
 H17 H 0.24529 0.34438 0.37228
 Zn18 Zn 0.25466 0.24460 0.26298
 N19 N 0.22761 0.27518 0.30181
 C20 C 0.28720 0.21738 0.34055
 N21 N 0.28506 0.21454 0.29553
 C22 C 0.30326 0.18868 0.27209
 C23 C 0.32488 0.16448 0.29387
 C24 C 0.30872 0.19383 0.36369
 C25 C 0.22288 0.21706 0.18224
 C26 C 0.20356 0.19206 0.15591
 C27 C 0.18622 0.16298 0.22232
 C28 C 0.20544 0.18880 0.24743
 N29 N 0.22364 0.21490 0.22714
 H30 H 0.27203 0.23767 0.35870
 H31 H 0.30054 0.18665 0.23636
 H32 H 0.33847 0.14367 0.27455
 H33 H 0.31043 0.19683 0.39948
 H34 H 0.23818 0.23745 0.16659
 H35 H 0.20398 0.19365 0.12017
 H36 H 0.17242 0.14202 0.23895
 H37 H 0.20696 0.18736 0.28312
 C38 C 0.19086 0.32463 0.35595
 C39 C 0.32441 0.32064 0.17954
 C40 C 0.18550 0.16421 0.17590
 C41 C 0.32783 0.16680 0.34035
 C42 C 0.81940 0.78862 0.20415
 H43 H 0.83278 0.77037 0.22545
 C44 C 0.84042 0.81284 0.18173
 H45 H 0.86985 0.81138 0.18517
 C46 C 0.76491 0.81138 0.17391
 H47 H 0.73532 0.81121 0.17207
 C48 C 0.78484 0.83587 0.15047
 H49 H 0.76963 0.85458 0.13160
 N50 N 0.78236 0.78830 0.19991
 C51 C 0.68528 0.78214 0.26520
 H52 H 0.67399 0.76275 0.24168
 C53 C 0.66161 0.80354 0.29053
 H54 H 0.63232 0.79989 0.28682
 C55 C 0.73691 0.81102 0.29805
 H56 H 0.76634 0.81405 0.30019
 C57 C 0.71421 0.83289 0.32424
 H58 H 0.72636 0.85288 0.34647
 Zn59 Zn 0.75386 0.75773 0.23375
 N60 N 0.72218 0.78597 0.26965
 C61 C 0.78440 0.73231 0.31373
 N62 N 0.78444 0.72957 0.26864
 C63 C 0.80498 0.70477 0.24643
 C64 C 0.82662 0.68142 0.26957
 C65 C 0.80594 0.70967 0.33823
 C66 C 0.72267 0.72878 0.15261
 C67 C 0.70046 0.70505 0.12792
 C68 C 0.68572 0.67631 0.19556
 C69 C 0.70791 0.70063 0.21889
 N70 N 0.72557 0.72635 0.19734
 H71 H 0.76741 0.75173 0.33086
 H72 H 0.80398 0.70278 0.21057
 H73 H 0.84193 0.66130 0.25110
 H74 H 0.80584 0.71258 0.37407
 H75 H 0.73742 0.74905 0.13602
 H76 H 0.69839 0.70713 0.09232
 H77 H 0.67147 0.65632 0.21343
 H78 H 0.71085 0.69930 0.25446
 C79 C 0.67602 0.82926 0.32056
 C80 C 0.82340 0.83737 0.15436
 C81 C 0.68171 0.67840 0.14951
 C82 C 0.82727 0.68358 0.31617
 C83 C 0.81842 0.28760 0.70459
 H84 H 0.83228 0.26882 0.72464
 C85 C 0.83900 0.31198 0.68185
 H86 H 0.86858 0.31104 0.68392
 C87 C 0.76322 0.31205 0.67815
 H88 H 0.73359 0.31222 0.67758
 C89 C 0.78274 0.33701 0.65498
 H90 H 0.76786 0.35645 0.63680
 N91 N 0.78122 0.28794 0.70222
 C92 C 0.68448 0.28081 0.76754
 H93 H 0.67316 0.26182 0.74351
 C94 C 0.66086 0.30205 0.79313
 H95 H 0.63157 0.29867 0.78912
 C96 C 0.73618 0.30885 0.80138
 H97 H 0.76562 0.31160 0.80380
 C98 C 0.71353 0.33059 0.82780
 H99 H 0.72574 0.35023 0.85046
 Zn100 Zn 0.75302 0.25674 0.73561
 N101 N 0.72139 0.28437 0.77225
 C102 C 0.78139 0.22841 0.81472
 N103 N 0.78359 0.22803 0.76983
 C104 C 0.80604 0.20514 0.74743
 C105 C 0.82792 0.18172 0.77012
 C106 C 0.80253 0.20524 0.83891
 C107 C 0.72150 0.22903 0.65406
 C108 C 0.69932 0.20552 0.62897
 C109 C 0.68511 0.17564 0.69595
 C110 C 0.70726 0.19973 0.71968
 N111 N 0.72470 0.22587 0.69865
 H112 H 0.76296 0.24646 0.83198
 H113 H 0.80644 0.20467 0.71156
 H114 H 0.84372 0.16311 0.75001
 H115 H 0.80066 0.20796 0.87459
 H116 H 0.73600 0.24972 0.63793
 H117 H 0.69706 0.20815 0.59347
 H118 H 0.67106 0.15529 0.71343
 H119 H 0.71039 0.19787 0.75517
 C120 C 0.67532 0.32737 0.82370
 C121 C 0.82119 0.33731 0.65686
 C122 C 0.68089 0.17839 0.65001
 C123 C 0.82655 0.18085 0.81703
 C124 C 0.32138 0.77042 0.72625
 H125 H 0.33484 0.75052 0.74501
 C126 C 0.34241 0.79358 0.70212
 H127 H 0.37191 0.79076 0.70192
 C128 C 0.26680 0.79875 0.70438
 H129 H 0.23731 0.80093 0.70619
 C130 C 0.28677 0.82246 0.67982
 H131 H 0.27240 0.84298 0.66295
 N132 N 0.28427 0.77336 0.72691
 C133 C 0.19125 0.77403 0.80301
 H134 H 0.17634 0.75448 0.78296
 C135 C 0.17215 0.79860 0.83000
 H136 H 0.14254 0.79741 0.83095
 C137 C 0.24785 0.79978 0.82568
 H138 H 0.27739 0.80039 0.82313
 C139 C 0.22992 0.82468 0.85318
 H140 H 0.24590 0.84452 0.87156
 Zn141 Zn 0.25553 0.74441 0.76270
 N142 N 0.22845 0.77506 0.80141
 C143 C 0.28814 0.71751 0.84041
 N144 N 0.28599 0.71449 0.79540
 C145 C 0.30418 0.68854 0.77212
 C146 C 0.32578 0.66440 0.79406
 C147 C 0.30964 0.69405 0.86371
 C148 C 0.22333 0.71678 0.68222
 C149 C 0.20378 0.69181 0.65610
 C150 C 0.18703 0.66267 0.72270
 C151 C 0.20645 0.68847 0.74759
 N152 N 0.22445 0.71459 0.72710
 H153 H 0.27299 0.73788 0.85843
 H154 H 0.30145 0.68636 0.73639
 H155 H 0.33935 0.64351 0.77487
 H156 H 0.31134 0.69718 0.89948
 H157 H 0.23846 0.73720 0.66640
 H158 H 0.20387 0.69343 0.62036
 H159 H 0.17338 0.64170 0.73947
 H160 H 0.20824 0.68703 0.78326
 C161 C 0.19154 0.82447 0.85542
 C162 C 0.32514 0.82022 0.67876
 C163 C 0.18590 0.66395 0.67629
 C164 C 0.32871 0.66691 0.84054
 C165 C -0.04804 -0.01692 0.00759
 C166 C -0.02791 0.01024 -0.01093
 C167 C -0.04630 0.03867 -0.02913
 C168 C -0.08472 0.04005 -0.02919
 C169 C -0.10457 0.01307 -0.00956
 C170 C -0.08648 -0.01554 0.00906
 C171 C 0.01246 0.00895 -0.01108
 C172 C 0.03065 -0.01959 -0.03215
 C173 C 0.06912 -0.02115 -0.03248
 C174 C 0.08922 0.00567 -0.00947
 C175 C 0.07115 0.03442 0.01178
 C176 C 0.03280 0.03611 0.01020
 H177 H -0.03359 -0.03902 0.02108
 H178 H -0.03062 0.05957 -0.04352
 H179 H 0.01471 -0.04046 -0.04868
 H180 H 0.01868 0.05805 0.02679
 H181 H -0.13419 0.01432 -0.00899
 H182 H 0.11888 0.00491 -0.00931
 C183 C -0.04846 0.48207 0.50817
 C184 C -0.02858 0.50955 0.49005
 C185 C -0.04723 0.53762 0.47134
 C186 C -0.08572 0.53796 0.46945
 C187 C -0.10529 0.51018 0.48792
 C188 C -0.08689 0.48242 0.50787
 C189 C 0.01180 0.50861 0.49020
 C190 C 0.03019 0.48028 0.46893
 C191 C 0.06865 0.47895 0.46859
 C192 C 0.08858 0.50578 0.49179
 C193 C 0.07032 0.53434 0.51323
 C194 C 0.03195 0.53582 0.51165
 H195 H -0.03390 0.46045 0.52265
 H196 H -0.03161 0.55898 0.45792
 H197 H 0.01439 0.45939 0.45222
 H198 H 0.01767 0.55762 0.52834
 H199 H -0.13493 0.51012 0.48687
 H200 H 0.11824 0.50517 0.49192
 C201 C 0.45488 -0.03638 0.52691
 C202 C 0.47460 -0.00877 0.50884
 C203 C 0.45581 0.01940 0.49059
 C204 C 0.41731 0.01983 0.48945
 C205 C 0.39789 -0.00795 0.50810
 C206 C 0.41645 -0.03595 0.52737
 C207 C 0.51497 -0.00945 0.50949
 C208 C 0.53378 -0.03769 0.48835
 C209 C 0.57215 -0.03936 0.49038
 C210 C 0.59142 -0.01292 0.51464
 C211 C 0.57295 0.01536 0.53594
 C212 C 0.53470 0.01738 0.53262
 H213 H 0.46960 -0.05809 0.54098
 H214 H 0.47127 0.04085 0.47714
 H215 H 0.51852 -0.05832 0.47039
 H216 H 0.52021 0.03899 0.54942
 H217 H 0.36824 -0.00775 0.50778
 H218 H 0.62106 -0.01378 0.51610
 C219 C 0.45469 0.46383 0.02827
 C220 C 0.47460 0.49132 0.01020
 C221 C 0.45599 0.51955 -0.00819
 C222 C 0.41749 0.52015 -0.00946
 C223 C 0.39789 0.49249 0.00919
 C224 C 0.41626 0.46444 0.02860
 C225 C 0.51496 0.49042 0.01101
 C226 C 0.53365 0.46194 -0.00977
 C227 C 0.57199 0.46001 -0.00751
 C228 C 0.59137 0.48644 0.01663
 C229 C 0.57303 0.51499 0.03752
 C230 C 0.53480 0.51725 0.03397
 H231 H 0.46926 0.44208 0.04244
 H232 H 0.47159 0.54090 -0.02166
 H233 H 0.51830 0.44131 -0.02762
 H234 H 0.52042 0.53906 0.05047
 H235 H 0.36824 0.49282 0.00876
 H236 H 0.62100 0.48538 0.01826
 C237 C 0.18531 -0.13735 -0.07478
 C238 C 0.17198 -0.14812 -0.11705
 C239 C 0.14050 -0.13175 -0.13353
 C240 C 0.12285 -0.10478 -0.10848
 C241 C 0.13663 -0.09399 -0.06616
 C242 C 0.16778 -0.11061 -0.04954
 C243 C 0.11911 -0.06672 -0.04133
 C244 C 0.08792 -0.05008 -0.05828
 C245 C 0.07461 -0.06109 -0.10049
 C246 C 0.09185 -0.08815 -0.12530
 H247 H 0.13022 -0.13941 -0.16632
 H248 H 0.17869 -0.10282 -0.01712
 H249 H 0.12949 -0.05870 -0.00871
 H250 H 0.08103 -0.09594 -0.15776
 H251 H 0.20929 -0.14977 -0.06112
 H252 H 0.05104 -0.04836 -0.11469
 C253 C 0.18471 0.36268 0.42587
 C254 C 0.17140 0.35207 0.38353
 C255 C 0.14004 0.36864 0.36704
 C256 C 0.12248 0.39563 0.39216
 C257 C 0.13621 0.40623 0.43456
 C258 C 0.16725 0.38943 0.45118
 C259 C 0.11872 0.43348 0.45950
 C260 C 0.08758 0.45021 0.44258
 C261 C 0.07436 0.43942 0.40026
 C262 C 0.09158 0.41242 0.37534
 H263 H 0.12979 0.36111 0.33420
 H264 H 0.17813 0.39708 0.48366
 H265 H 0.12905 0.44134 0.49219
 H266 H 0.08079 0.40477 0.34281
 H267 H 0.20860 0.35012 0.43954
 H268 H 0.05083 0.45224 0.38609
 C269 C 0.62033 -0.13242 0.32776
 C270 C 0.65133 -0.14740 0.34731
 C271 C 0.65891 -0.13963 0.39237
 C272 C 0.63625 -0.11664 0.41740
 C273 C 0.60550 -0.10123 0.39721
 C274 C 0.59761 -0.10953 0.35248
 C275 C 0.58371 -0.07710 0.42177
 C276 C 0.59255 -0.06782 0.46612
 C277 C 0.62260 -0.08403 0.48619
 C278 C 0.64421 -0.10831 0.46209
 H279 H 0.68247 -0.15144 0.40789
 H280 H 0.57419 -0.09793 0.33646
 H281 H 0.56082 -0.06446 0.40588
 H282 H 0.66752 -0.12006 0.47817
 H283 H 0.61412 -0.13782 0.29300
 H284 H 0.62962 -0.07757 0.52050
 C285 C 0.61991 0.36608 -0.16943
 C286 C 0.65068 0.35085 -0.14966
 C287 C 0.65814 0.35864 -0.10457
 C288 C 0.63562 0.38192 -0.07975
 C289 C 0.60510 0.39756 -0.10017
 C290 C 0.59731 0.38921 -0.14491
 C291 C 0.58347 0.42196 -0.07584
 C292 C 0.59224 0.43131 -0.03150
 C293 C 0.62206 0.41491 -0.01119
 C294 C 0.64351 0.39034 -0.03506
 H295 H 0.68152 0.34666 -0.08887
 H296 H 0.57407 0.40099 -0.16111
 H297 H 0.56076 0.43475 -0.09191
 H298 H 0.66665 0.37844 -0.01881
 H299 H 0.61380 0.36073 -0.20423
 H300 H 0.62904 0.42145 0.02311
 C301 C -0.12170 0.14054 -0.17925
 C302 C -0.15308 0.15709 -0.16013
 C303 C -0.16280 0.14749 -0.11672
 C304 C -0.14292 0.12195 -0.09435
 C305 C -0.11224 0.10572 -0.11469
 C306 C -0.10171 0.11544 -0.15687
 C307 C -0.09289 0.07960 -0.09284
 C308 C -0.10414 0.06904 -0.05095
 C309 C -0.13464 0.08548 -0.03079
 C310 C -0.15379 0.11177 -0.05221
 H311 H -0.18721 0.15775 -0.10073
 H312 H -0.07788 0.10357 -0.17272
 H313 H -0.06973 0.06674 -0.10900
 H314 H -0.17729 0.12392 -0.03598
 H315 H -0.11099 0.14772 -0.21092
 H316 H -0.14361 0.07804 0.00166
 C317 C -0.11674 0.64602 0.32537
 C318 C -0.15084 0.65804 0.34139
 C319 C -0.16438 0.64470 0.38095
 C320 C -0.14454 0.61937 0.40365
 C321 C -0.11075 0.60696 0.38659
 C322 C -0.09697 0.62065 0.34764
 C323 C -0.09154 0.58073 0.40842
 C324 C -0.10545 0.56679 0.44743
 C325 C -0.13874 0.57996 0.46458
 C326 C -0.15815 0.60588 0.44283
 H327 H -0.19081 0.65326 0.39350
 H328 H -0.07096 0.61164 0.33427
 H329 H -0.06621 0.57057 0.39436
 H330 H -0.18389 0.61529 0.45658
 H331 H -0.10524 0.65627 0.29552
 H332 H -0.14980 0.57029 0.49499
 C333 C 0.38308 0.12780 0.34633
 C334 C 0.34993 0.14063 0.36423
 C335 C 0.33758 0.12768 0.40455
 C336 C 0.35770 0.10200 0.42627
 C337 C 0.39062 0.08891 0.40751
 C338 C 0.40319 0.10216 0.36770
 C339 C 0.41019 0.06249 0.42856
 C340 C 0.39735 0.04890 0.46828
 C341 C 0.36487 0.06262 0.48702
 C342 C 0.34520 0.08885 0.46618
 H343 H 0.31184 0.13689 0.41851
 H344 H 0.42850 0.09258 0.35297
 H345 H 0.43491 0.05189 0.41338
 H346 H 0.32013 0.09873 0.48119
 H347 H 0.39361 0.13771 0.31577
 H348 H 0.35469 0.05313 0.51796
 C349 C 0.38386 0.62780 -0.15318
 C350 C 0.35073 0.64078 -0.13539
 C351 C 0.33830 0.62802 -0.09501
 C352 C 0.35832 0.60236 -0.07311
 C353 C 0.39122 0.58911 -0.09175
 C354 C 0.40387 0.60218 -0.13163
 C355 C 0.41067 0.56269 -0.07053
 C356 C 0.39772 0.54926 -0.03077
 C357 C 0.36528 0.56315 -0.01215
 C358 C 0.34573 0.58938 -0.03315
 H359 H 0.31258 0.63734 -0.08113
 H360 H 0.42916 0.59248 -0.14627
 H361 H 0.43537 0.55196 -0.08562
 H362 H 0.32068 0.59940 -0.01822
 H363 H 0.39444 0.63755 -0.18379
 H364 H 0.35501 0.55379 0.01883
 C365 C -0.12167 -0.12496 0.14969
 C366 C -0.15578 -0.13691 0.13241
 C367 C -0.16868 -0.12211 0.09301
 C368 C -0.14837 -0.09626 0.07191
 C369 C -0.11466 -0.08450 0.09023
 C370 C -0.10155 -0.09907 0.12900
 C371 C -0.09464 -0.05825 0.06961
 C372 C -0.10762 -0.04371 0.03041
 C373 C -0.14101 -0.05600 0.01209
 C374 C -0.16122 -0.08196 0.03268
 H375 H -0.19390 -0.13138 0.07749
 H376 H -0.07581 -0.09020 0.14365
 H377 H -0.06922 -0.04875 0.08453
 H378 H -0.18690 -0.09084 0.01789
 H379 H -0.11088 -0.13420 0.18053
 H380 H -0.15140 -0.04577 -0.01845
 C381 C -0.12637 0.38003 0.65474
 C382 C -0.15740 0.36449 0.63406
 C383 C -0.16799 0.37536 0.59187
 C384 C -0.14796 0.40141 0.57076
 C385 C -0.11681 0.41671 0.59193
 C386 C -0.10625 0.40582 0.63386
 C387 C -0.09689 0.44285 0.57102
 C388 C -0.10771 0.45416 0.52919
 C389 C -0.13872 0.43878 0.50837
 C390 C -0.15861 0.41256 0.52890
 H391 H -0.19159 0.36336 0.57531
 H392 H -0.08255 0.41741 0.65066
 H393 H -0.07332 0.45489 0.58766
 H394 H -0.18237 0.40108 0.51211
 H395 H -0.11795 0.37265 0.68751
 H396 H -0.14737 0.44684 0.47597
 C397 C 0.37944 -0.13960 0.67391
 C398 C 0.34707 -0.15366 0.65484
 C399 C 0.33540 -0.14203 0.61344
 C400 C 0.35558 -0.11647 0.59163
 C401 C 0.38792 -0.10240 0.61134
 C402 C 0.39968 -0.11424 0.65238
 C403 C 0.40778 -0.07645 0.58997
 C404 C 0.39580 -0.06422 0.54903
 C405 C 0.36374 -0.07859 0.52953
 C406 C 0.34384 -0.10451 0.55060
 H407 H 0.31072 -0.15293 0.59813
 H408 H 0.42435 -0.10365 0.66802
 H409 H 0.43215 -0.06524 0.60569
 H410 H 0.31918 -0.11509 0.53489
 H411 H 0.38876 -0.14768 0.70604
 H412 H 0.35419 -0.06992 0.49778
 C413 C 0.37871 0.36084 0.17497
 C414 C 0.34637 0.34680 0.15577
 C415 C 0.33478 0.35851 0.11437
 C416 C 0.35502 0.38408 0.09267
 C417 C 0.38734 0.39810 0.11250
 C418 C 0.39900 0.38621 0.15354
 C419 C 0.40729 0.42402 0.09121
 C420 C 0.39544 0.43628 0.05023
 C421 C 0.36339 0.42199 0.03063
 C422 C 0.34338 0.39609 0.05162
 H423 H 0.31013 0.34763 0.09897
 H424 H 0.42365 0.39677 0.16928
 H425 H 0.43165 0.43519 0.10701
 H426 H 0.31875 0.38556 0.03583
 H427 H 0.38796 0.35271 0.20710
 H428 H 0.35392 0.43068 -0.00115
 C429 C 0.17336 0.10015 0.15740
 C430 C 0.16738 0.13579 0.14839
 C431 C 0.14447 0.14404 0.11274
 C432 C 0.12735 0.11706 0.08677
 C433 C 0.13378 0.08129 0.09595
 C434 C 0.15691 0.07315 0.13126
 C435 C 0.11644 0.05431 0.07020
 C436 C 0.09194 0.06267 0.03622
 C437 C 0.08567 0.09826 0.02741
 C438 C 0.10348 0.12523 0.05217
 H439 H 0.13945 0.17145 0.10579
 H440 H 0.16211 0.04591 0.13885
 H441 H 0.12097 0.02688 0.07749
 H442 H 0.09815 0.15246 0.04471
 H443 H 0.19125 0.09318 0.18436
 H444 H 0.06684 0.10515 0.00133
 C445 C 0.17372 0.59994 0.65771
 C446 C 0.16750 0.63558 0.64900
 C447 C 0.14408 0.64390 0.61386
 C448 C 0.12672 0.61696 0.58809
 C449 C 0.13342 0.58117 0.59693
 C450 C 0.15703 0.57297 0.63175
 C451 C 0.11591 0.55422 0.57130
 C452 C 0.09100 0.56262 0.53777
 C453 C 0.08442 0.59823 0.52934
 C454 C 0.10237 0.62517 0.55399
 H455 H 0.13889 0.67133 0.60715
 H456 H 0.16244 0.54572 0.63908
 H457 H 0.12070 0.52678 0.57831
 H458 H 0.09683 0.65242 0.54679
 H459 H 0.19198 0.59293 0.68430
 H460 H 0.06529 0.60515 0.50359
 C461 C 0.63284 0.16368 0.59233
 C462 C 0.65777 0.15255 0.62446
 C463 C 0.66020 0.11648 0.63287
 C464 C 0.63798 0.09176 0.60975
 C465 C 0.61263 0.10314 0.57782
 C466 C 0.61031 0.13918 0.56932
 C467 C 0.59047 0.07821 0.55461
 C468 C 0.59408 0.04209 0.56234
 C469 C 0.61932 0.03114 0.59416
 C470 C 0.64095 0.05577 0.61787
 H471 H 0.67976 0.10759 0.65712
 H472 H 0.59113 0.14840 0.54490
 H473 H 0.57126 0.08668 0.52973
 H474 H 0.66024 0.04664 0.64223
 H475 H 0.63035 0.19142 0.58559
 H476 H 0.62229 0.00338 0.60059
 C477 C 0.63370 0.66338 0.09193
 C478 C 0.65844 0.65244 0.12438
 C479 C 0.66057 0.61647 0.13345
 C480 C 0.63828 0.59166 0.11059
 C481 C 0.61313 0.60286 0.07832
 C482 C 0.61108 0.63880 0.06922
 C483 C 0.59090 0.57785 0.05536
 C484 C 0.59425 0.54181 0.06366
 C485 C 0.61929 0.53103 0.09579
 C486 C 0.64098 0.55575 0.11928
 H487 H 0.67998 0.60774 0.15797
 H488 H 0.59206 0.64788 0.04453
 H489 H 0.57185 0.58619 0.03023
 H490 H 0.66011 0.54675 0.14390
 H491 H 0.63144 0.69104 0.08470
 H492 H 0.62207 0.50333 0.10266
   
