data_POSCAR
  _audit_creation_date              2014-09-24
  _audit_creation_method            'ToBaCCo'
  _symmetry_space_group_name_H-M    'P1'
  _symmetry_Int_Tables_number       1
  _symmetry_cell_setting            triclinic
  loop_
  _symmetry_equiv_pos_as_xyz
 x,y,z
_cell_length_a 24.5779
_cell_length_b 29.3391
_cell_length_c 18.6399
_cell_angle_alpha 89.683300
_cell_angle_beta 89.006200
_cell_angle_gamma 90.326200
loop_
  _atom_site_label
  _atom_site_type_symbol
  _atom_site_fract_x
  _atom_site_fract_y
  _atom_site_fract_z
O1 O 0.19187 0.20662 0.20713
 O2 O 0.25201 0.28642 0.33489
 O3 O 0.19506 0.29551 0.21924
 O4 O 0.25462 0.20039 0.31967
 O5 O 0.32616 0.20089 0.24630
 O6 O 0.27139 0.30223 0.15545
 O7 O 0.32759 0.28933 0.26880
 O8 O 0.26428 0.21365 0.13598
 Cu9 Cu 0.21555 0.24653 0.27636
 Cu10 Cu 0.30473 0.25177 0.19444
 C11 C 0.21755 0.19671 0.14978
 C12 C 0.30023 0.30082 0.32429
 C13 C 0.22415 0.31614 0.17223
 C14 C 0.30057 0.18455 0.30041
 O15 O 0.82165 0.29538 0.23480
 O16 O 0.76821 0.20460 0.35473
 O17 O 0.82055 0.20733 0.23404
 O18 O 0.77201 0.29583 0.35883
 O19 O 0.69414 0.29855 0.30148
 O20 O 0.74036 0.20672 0.18205
 O21 O 0.68777 0.21031 0.30460
 O22 O 0.74431 0.29423 0.17600
 Cu23 Cu 0.80323 0.25081 0.30227
 Cu24 Cu 0.70855 0.25284 0.23600
 C25 C 0.79259 0.30882 0.18323
 C26 C 0.71909 0.19149 0.34917
 C27 C 0.78869 0.19202 0.18687
 C28 C 0.72532 0.31297 0.35001
 O29 O 0.73422 0.78740 0.88421
 O30 O 0.66942 0.70682 0.75793
 O31 O 0.72929 0.70022 0.87033
 O32 O 0.66194 0.79514 0.78402
 O33 O 0.72865 0.80246 0.70379
 O34 O 0.80158 0.70938 0.79956
 O35 O 0.74120 0.71448 0.68583
 O36 O 0.80056 0.79874 0.80444
 Cu37 Cu 0.69149 0.74682 0.83102
 Cu38 Cu 0.77473 0.75702 0.74081
 C39 C 0.77856 0.80689 0.86483
 C40 C 0.69570 0.69619 0.70094
 C41 C 0.77705 0.68901 0.85163
 C42 C 0.68310 0.81525 0.73016
 O43 O 0.31109 0.79050 0.68651
 O44 O 0.25476 0.71891 0.83212
 O45 O 0.30511 0.70413 0.70981
 O46 O 0.25910 0.80761 0.80300
 O47 O 0.17717 0.79769 0.75883
 O48 O 0.22811 0.70195 0.65036
 O49 O 0.17859 0.71011 0.77231
 O50 O 0.23133 0.78948 0.63348
 Cu51 Cu 0.29012 0.75551 0.76438
 Cu52 Cu 0.19568 0.75000 0.69815
 C53 C 0.28086 0.80218 0.63523
 C54 C 0.20785 0.70120 0.82596
 C55 C 0.27508 0.68634 0.66259
 C56 C 0.20984 0.81972 0.79788
 C57 C 0.96910 0.14092 0.04859
 C58 C 1.02493 0.14253 0.04251
 C59 C 1.04216 0.09782 0.03756
 N60 N 0.99918 0.06901 0.04083
 C61 C 0.95447 0.09525 0.04752
 C62 C 1.09671 0.08358 0.03415
 C63 C 1.11087 0.03845 0.01714
 C64 C 1.15996 0.01849 0.03355
 C65 C 1.15995 -0.02382 0.00212
 C66 C 1.11120 -0.02807 -0.03389
 N67 N 1.08099 0.00978 -0.02308
 C68 C 1.09740 -0.06370 -0.08144
 C69 C 1.04181 -0.07348 -0.09435
 C70 C 1.02131 -0.10056 -0.14830
 C71 C 0.96653 -0.10566 -0.13437
 C72 C 0.95456 -0.07922 -0.07493
 N73 N 1.00065 -0.05988 -0.05040
 C74 C 0.90301 -0.07515 -0.04072
 C75 C 0.88945 -0.03734 0.00261
 C76 C 0.84146 -0.03305 0.04225
 C77 C 0.84073 0.01054 0.06906
 C78 C 0.88810 0.03172 0.04488
 N79 N 0.91757 0.00242 0.00437
 C80 C 0.90109 0.07799 0.05644
 H81 H 0.94251 0.17006 0.05297
 H82 H 1.04982 0.17307 0.04141
 H83 H 0.95142 0.01087 -0.02734
 H84 H 1.19241 0.03296 0.06483
 H85 H 1.19239 -0.04842 0.00577
 H86 H 1.04248 -0.11433 -0.19447
 H87 H 0.93922 -0.12559 -0.16640
 H88 H 0.80855 0.02513 0.10179
 H89 H 1.04534 0.01804 -0.04958
 H90 H 0.80914 -0.05788 0.04934
 C91 C 0.51583 0.63284 0.57128
 C92 C 0.46039 0.63053 0.56411
 C93 C 0.44690 0.58466 0.56071
 N94 N 0.49205 0.55891 0.56515
 C95 C 0.53412 0.58834 0.57141
 C96 C 0.39354 0.56692 0.55750
 C97 C 0.38287 0.52112 0.53922
 C98 C 0.33346 0.49910 0.55018
 C99 C 0.33834 0.45660 0.52000
 C100 C 0.39086 0.45364 0.49192
 N101 N 0.41758 0.49333 0.50351
 C102 C 0.41104 0.41690 0.45056
 C103 C 0.46660 0.41316 0.43106
 C104 C 0.48767 0.38573 0.37727
 C105 C 0.54316 0.39054 0.37891
 C106 C 0.55447 0.41887 0.43603
 N107 N 0.50751 0.43305 0.46723
 C108 C 0.60686 0.42914 0.46231
 C109 C 0.61483 0.46504 0.51134
 C110 C 0.66064 0.47098 0.55276
 C111 C 0.65546 0.51266 0.58569
 C112 C 0.60645 0.53067 0.56400
 N113 N 0.58171 0.50139 0.51916
 C114 C 0.58859 0.57515 0.57941
 H115 H 0.53987 0.66373 0.57481
 H116 H 0.43339 0.65943 0.56083
 H117 H 0.54820 0.50874 0.48782
 H118 H 0.29731 0.51239 0.57638
 H119 H 0.30604 0.43154 0.51753
 H120 H 0.46616 0.36485 0.33956
 H121 H 0.57137 0.37510 0.34131
 H122 H 0.68481 0.52830 0.62068
 H123 H 0.45495 0.50292 0.48100
 H124 H 0.69469 0.44807 0.55804
 C125 C 0.03514 0.39275 0.13964
 C126 C -0.02018 0.38799 0.13445
 C127 C -0.03661 0.41838 0.08199
 N128 N 0.00731 0.44009 0.05314
 C129 C 0.05128 0.42429 0.08794
 C130 C -0.09041 0.42346 0.05728
 C131 C -0.10600 0.46040 0.01294
 C132 C -0.15549 0.46375 -0.02141
 C133 C -0.15721 0.50638 -0.05223
 C134 C -0.10913 0.52825 -0.03531
 N135 N -0.07803 0.50003 0.00425
 C136 C -0.09779 0.57469 -0.05027
 C137 C -0.04491 0.59318 -0.04637
 C138 C -0.03203 0.63921 -0.04799
 C139 C 0.02371 0.64221 -0.04551
 C140 C 0.04265 0.59793 -0.04200
 N141 N 0.00078 0.56801 -0.04280
 C142 C 0.09781 0.58539 -0.04202
 C143 C 0.11457 0.54083 -0.02533
 C144 C 0.16523 0.52321 -0.04250
 C145 C 0.16729 0.48065 -0.01141
 C146 C 0.11794 0.47373 0.02430
 N147 N 0.08573 0.51041 0.01487
 C148 C 0.10568 0.43627 0.06981
 H149 H 0.05999 0.37493 0.17780
 H150 H -0.04457 0.36461 0.16639
 H151 H 0.04929 0.51688 0.04215
 H152 H -0.18812 0.43897 -0.02275
 H153 H -0.19074 0.52007 -0.08226
 H154 H -0.05964 0.66774 -0.04979
 H155 H 0.04743 0.67339 -0.04546
 H156 H 0.20149 0.45764 -0.01440
 H157 H -0.04338 0.50949 0.03178
 H158 H 0.19748 0.53943 -0.07378
 C159 C 0.52662 0.85680 0.55664
 C160 C 0.47426 0.85124 0.53350
 C161 C 0.45697 0.89377 0.51095
 N162 N 0.49727 0.92479 0.51799
 C163 C 0.53981 0.90225 0.54581
 C164 C 0.40285 0.90465 0.49372
 C165 C 0.38805 0.94776 0.46628
 C166 C 0.33527 0.96392 0.46554
 C167 C 0.33763 1.00692 0.43638
 C168 C 0.39202 1.01643 0.42112
 N169 N 0.42235 0.97956 0.43765
 C170 C 0.41182 1.05748 0.38947
 C171 C 0.46808 1.06540 0.37888
 C172 C 0.49195 1.09101 0.32422
 C173 C 0.54684 1.09184 0.33689
 C174 C 0.55448 1.06867 0.40084
 N175 N 0.50632 1.05173 0.42554
 C176 C 0.60357 1.06599 0.43959
 C177 C 0.60922 1.03272 0.49408
 C178 C 0.64505 1.03500 0.55065
 C179 C 0.64039 0.99433 0.58758
 C180 C 0.60175 0.96856 0.55268
 N181 N 0.58298 0.99208 0.49571
 C182 C 0.58673 0.92367 0.57195
 H183 H 0.55151 0.83067 0.58049
 H184 H 0.45100 0.81983 0.53557
 H185 H 0.55778 0.97957 0.45589
 H186 H 0.29861 0.94701 0.48483
 H187 H 0.30257 1.02797 0.42661
 H188 H 0.47311 1.10570 0.27783
 H189 H 0.57733 1.10687 0.30147
 H190 H 0.66303 0.98476 0.63457
 H191 H 0.46355 0.97536 0.42591
 H192 H 0.67139 1.06311 0.56469
 N193 N 1.18380 0.12119 0.00820
 N194 N 1.21719 0.15120 0.03735
 C195 C 1.19316 0.16484 0.09908
 C196 C 1.14400 0.14232 0.10700
 N197 N 1.13961 0.11554 0.04905
 H198 H 1.11494 0.14430 0.15120
 N199 N 0.67373 0.61644 0.56143
 N200 N 0.70289 0.64874 0.59198
 C201 C 0.67501 0.66190 0.65120
 C202 C 0.62760 0.63653 0.65627
 N203 N 0.62846 0.60863 0.59903
 H204 H 0.59611 0.63772 0.69753
 N205 N -0.15651 0.36452 0.02630
 N206 N -0.18955 0.33448 0.05804
 C207 C -0.18387 0.33986 0.12924
 C208 C -0.14669 0.37429 0.14032
 N209 N -0.13032 0.38874 0.07469
 H210 H -0.13266 0.38723 0.19108
 N211 N 0.31837 0.86153 0.47422
 N212 N 0.28375 0.83515 0.51111
 C213 C 0.30442 0.83029 0.57723
 C214 C 0.35255 0.85427 0.57980
 N215 N 0.36010 0.87315 0.51451
 H216 H 0.37903 0.85834 0.62518
 N217 N -0.18850 0.60403 -0.02663
 N218 N -0.22304 0.63416 -0.05212
 C219 C -0.19849 0.65437 -0.10932
 C220 C -0.14743 0.63545 -0.11842
 N221 N -0.14288 0.60419 -0.06537
 H222 H -0.11685 0.64343 -0.15914
 N223 N 0.33824 1.10636 0.43082
 N224 N 0.30647 1.13950 0.40822
 C225 C 0.32324 1.14989 0.34099
 C226 C 0.36625 1.12178 0.32275
 N227 N 0.37405 1.09461 0.38032
 H228 H 0.38679 1.11973 0.27124
 N229 N 1.19223 -0.07519 -0.12013
 N230 N 1.22422 -0.10627 -0.14972
 C231 C 1.19199 -0.14175 -0.16601
 C232 C 1.13955 -0.13189 -0.14402
 N233 N 1.14101 -0.08966 -0.11542
 H234 H 1.10535 -0.15515 -0.14407
 N235 N 0.70254 0.42154 0.42560
 N236 N 0.73625 0.39086 0.39820
 C237 C 0.70779 0.35169 0.39347
 C238 C 0.65585 0.35917 0.41924
 N239 N 0.65372 0.40341 0.43809
 H240 H 0.62261 0.33485 0.42179
 N241 N 0.84333 -0.13535 0.00723
 N242 N 0.80825 -0.16640 -0.01537
 C243 C 0.80616 -0.16156 -0.08716
 C244 C 0.84072 -0.12659 -0.10788
 N245 N 0.86348 -0.11126 -0.04753
 H246 H 0.84831 -0.11363 -0.16162
 N247 N 0.34692 0.35583 0.48116
 N248 N 0.31620 0.32493 0.44950
 C249 C 0.32489 0.32999 0.37835
 C250 C 0.36139 0.36523 0.36710
 N251 N 0.37431 0.38042 0.43274
 H252 H 0.37608 0.37899 0.31633
 N253 N 0.18347 0.62658 -0.02566
 N254 N 0.21411 0.65754 -0.05941
 C255 C 0.18733 0.66939 -0.11914
 C256 C 0.13953 0.64484 -0.12124
 N257 N 0.13854 0.61866 -0.06191
 H258 H 0.10914 0.64504 -0.16261
 N259 N 0.70000 1.08838 0.43886
 N260 N 0.73234 1.12239 0.41779
 C261 C 0.70008 1.15424 0.38883
 C262 C 0.64697 1.13918 0.39448
 N263 N 0.64837 1.09741 0.42501
 H264 H 0.61116 1.15756 0.37838
 N265 N 0.19717 0.42952 0.11795
 N266 N 0.23061 0.39834 0.14329
 C267 C 0.20412 0.35817 0.14002
 C268 C 0.15357 0.36550 0.11162
 N269 N 0.15050 0.41070 0.09877
 H270 H 0.12245 0.34028 0.10115
 N271 N 0.59603 0.90895 0.69863
 N272 N 0.62036 0.88013 0.74215
 C273 C 0.65395 0.85456 0.70126
 C274 C 0.64953 0.86862 0.63067
 N275 N 0.61293 0.90271 0.63170
 H276 H 0.66777 0.85360 0.58318
 N277 N 0.81030 0.11089 0.04805
 N278 N 0.77888 0.14072 0.08184
 C279 C 0.80804 0.15719 0.13663
 C280 C 0.85831 0.13659 0.13554
 N281 N 0.85819 0.10809 0.07925
 H282 H 0.89154 0.14160 0.17211
 N283 N 0.30384 0.59941 0.53534
 N284 N 0.27081 0.63077 0.56227
 C285 C 0.29546 0.64794 0.62033
 C286 C 0.34431 0.62605 0.62856
 N287 N 0.34831 0.59625 0.57416
 H288 H 0.37454 0.63192 0.66911
   
