data_POSCAR
  _audit_creation_date              2014-09-24
  _audit_creation_method            'ToBaCCo'
  _symmetry_space_group_name_H-M    'P1'
  _symmetry_Int_Tables_number       1
  _symmetry_cell_setting            triclinic
  loop_
  _symmetry_equiv_pos_as_xyz
 x,y,z
_cell_length_a 57.4491
_cell_length_b 55.0424
_cell_length_c 53.6559
_cell_angle_alpha 90.085100
_cell_angle_beta 89.848000
_cell_angle_gamma 90.040200
loop_
  _atom_site_label
  _atom_site_type_symbol
  _atom_site_fract_x
  _atom_site_fract_y
  _atom_site_fract_z
C1 C 0.29487 0.38908 0.00647
 C2 C 0.30681 0.38301 0.02823
 C3 C 0.32334 0.36439 0.02761
 C4 C 0.32731 0.35084 0.00563
 C5 C 0.31429 0.35674 -0.01587
 C6 C 0.29880 0.37665 -0.01610
 C7 C 0.34560 0.33132 0.00491
 C8 C 0.35677 0.32489 -0.01770
 C9 C 0.37465 0.30732 -0.01849
 C10 C 0.38199 0.29712 0.00421
 C11 C 0.37160 0.30357 0.02687
 C12 C 0.35287 0.31979 0.02701
 H13 H 0.28155 0.40293 0.00767
 H14 H 0.33332 0.36112 0.04431
 H15 H 0.31700 0.34649 -0.03274
 H16 H 0.35263 0.33458 -0.03458
 H17 H 0.39520 0.28313 0.00454
 H18 H 0.34452 0.32371 0.04462
 C19 C 0.71572 0.62216 -0.00265
 C20 C 0.70496 0.62782 0.02006
 C21 C 0.68664 0.64472 0.02042
 C22 C 0.68011 0.65744 -0.00141
 C23 C 0.69184 0.65174 -0.02388
 C24 C 0.70908 0.63371 -0.02473
 C25 C 0.66161 0.67685 -0.00065
 C26 C 0.64960 0.68397 -0.02249
 C27 C 0.63350 0.70340 -0.02235
 C28 C 0.62810 0.71419 0.00077
 C29 C 0.63899 0.70689 0.02281
 C30 C 0.65611 0.68884 0.02188
 H31 H 0.72897 0.60817 -0.00321
 H32 H 0.67789 0.64796 0.03794
 H33 H 0.68818 0.66145 -0.04088
 H34 H 0.65339 0.67494 -0.03984
 H35 H 0.61427 0.72746 0.00213
 H36 H 0.66523 0.68466 0.03892
 C37 C 0.71223 0.36944 1.00192
 C38 C 0.69927 0.36651 0.98006
 C39 C 0.67932 0.35176 0.98046
 C40 C 0.67260 0.33921 1.00231
 C41 C 0.68641 0.34206 1.02385
 C42 C 0.70575 0.35764 1.02399
 C43 C 0.65094 0.32388 1.00288
 C44 C 0.63889 0.31970 1.02549
 C45 C 0.61843 0.30549 1.02643
 C46 C 0.60943 0.29667 1.00374
 C47 C 0.62073 0.30098 0.98102
 C48 C 0.64179 0.31382 0.98080
 H49 H 0.72724 0.38137 1.00187
 H50 H 0.66880 0.35090 0.96382
 H51 H 0.68237 0.33222 1.04074
 H52 H 0.64474 0.32854 1.04232
 H53 H 0.59422 0.28508 1.00353
 H54 H 0.65071 0.31611 0.96320
 C55 C 0.28175 0.63593 0.99754
 C56 C 0.29384 0.63805 0.97494
 C57 C 0.31509 0.65068 0.97440
 C58 C 0.32371 0.66251 0.99590
 C59 C 0.31065 0.66070 1.01817
 C60 C 0.29024 0.64675 1.01934
 C61 C 0.34631 0.67629 0.99531
 C62 C 0.35932 0.67997 1.01733
 C63 C 0.38032 0.69331 1.01735
 C64 C 0.38906 0.70137 0.99424
 C65 C 0.37687 0.69738 0.97203
 C66 C 0.35524 0.68566 0.97278
 H67 H 0.26618 0.62485 0.99834
 H68 H 0.32473 0.65106 0.95709
 H69 H 0.31613 0.67006 1.03488
 H70 H 0.35368 0.67153 1.03445
 H71 H 0.40473 0.71223 0.99329
 H72 H 0.34565 0.68379 0.95559
 C73 C 0.00889 0.28493 0.37212
 C74 C 0.02929 0.29784 0.36669
 C75 C 0.02858 0.31668 0.34913
 C76 C 0.00786 0.32222 0.33619
 C77 C -0.01230 0.30849 0.34167
 C78 C -0.01203 0.29029 0.35997
 C79 C 0.00721 0.34237 0.31735
 C80 C -0.01380 0.35458 0.31195
 C81 C -0.01481 0.37349 0.29421
 C82 C 0.00619 0.38081 0.28278
 C83 C 0.02735 0.36935 0.28821
 C84 C 0.02763 0.34986 0.30494
 H85 H 0.00927 0.27073 0.38607
 H86 H 0.04419 0.32729 0.34622
 H87 H -0.02833 0.31157 0.33164
 H88 H -0.02923 0.35024 0.32257
 H89 H 0.00630 0.39512 0.26902
 H90 H 0.04392 0.34049 0.30789
 C91 C -0.00141 0.71515 0.62770
 C92 C 0.01896 0.70196 0.63224
 C93 C 0.01826 0.68227 0.64877
 C94 C -0.00243 0.67608 0.66155
 C95 C -0.02259 0.69003 0.65698
 C96 C -0.02232 0.70912 0.63966
 C97 C -0.00310 0.65474 0.67892
 C98 C -0.02405 0.64197 0.68326
 C99 C -0.02490 0.62151 0.69908
 C100 C -0.00386 0.61330 0.70954
 C101 C 0.01721 0.62535 0.70513
 C102 C 0.01735 0.64645 0.69061
 H103 H -0.00106 0.72998 0.61445
 H104 H 0.03383 0.67145 0.65084
 H105 H -0.03863 0.68634 0.66686
 H106 H -0.03955 0.64712 0.67325
 H107 H -0.00371 0.59816 0.72237
 H108 H 0.03364 0.65601 0.68820
 C109 C 0.99146 0.72253 0.37122
 C110 C 0.97057 0.71654 0.35929
 C111 C 0.97043 0.69811 0.34132
 C112 C 0.99062 0.68448 0.33612
 C113 C 1.01137 0.69052 0.34880
 C114 C 1.01227 0.70987 0.36610
 C115 C 0.98975 0.66345 0.31827
 C116 C 1.00995 0.65554 0.30556
 C117 C 1.00970 0.63470 0.29013
 C118 C 0.98814 0.62315 0.28604
 C119 C 0.96776 0.63105 0.29783
 C120 C 0.96876 0.65073 0.31431
 H121 H 0.99127 0.73748 0.38429
 H122 H 0.95438 0.69458 0.33148
 H123 H 1.02653 0.67919 0.34640
 H124 H 1.02608 0.66512 0.30853
 H125 H 0.98674 0.60854 0.27261
 H126 H 0.95309 0.65559 0.32432
 C127 C 1.00230 0.27358 0.63017
 C128 C 0.98063 0.28024 0.64005
 C129 C 0.97953 0.29898 0.65777
 C130 C 0.99955 0.31236 0.66446
 C131 C 1.02105 0.30574 0.65348
 C132 C 1.02263 0.28592 0.63705
 C133 C 0.99792 0.33316 0.68261
 C134 C 1.01759 0.34089 0.69624
 C135 C 1.01654 0.36078 0.71287
 C136 C 0.99474 0.37192 0.71682
 C137 C 0.97484 0.36426 0.70398
 C138 C 0.97667 0.34542 0.68653
 H139 H 1.00329 0.25927 0.61632
 H140 H 0.96288 0.30278 0.66631
 H141 H 1.03674 0.31578 0.65761
 H142 H 1.03357 0.33070 0.69483
 H143 H 0.99307 0.38724 0.72931
 H144 H 0.96138 0.34085 0.67581
 C145 C 0.37791 -0.00451 0.28633
 C146 C 0.36810 0.01752 0.29395
 C147 C 0.34888 0.01735 0.30999
 C148 C 0.34064 -0.00450 0.32056
 C149 C 0.35156 -0.02651 0.31332
 C150 C 0.36955 -0.02695 0.29526
 C151 C 0.32090 -0.00418 0.33914
 C152 C 0.30735 -0.02516 0.34375
 C153 C 0.28941 -0.02503 0.36158
 C154 C 0.28397 -0.00335 0.37397
 C155 C 0.29666 0.01791 0.36943
 C156 C 0.31541 0.01720 0.35263
 H157 H 0.39283 -0.00385 0.27399
 H158 H 0.34088 0.03455 0.31445
 H159 H 0.34559 -0.04341 0.32111
 H160 H 0.31026 -0.04175 0.33345
 H161 H 0.26987 -0.00306 0.38741
 H162 H 0.32584 0.03342 0.35077
 C163 C 0.62183 0.00430 0.71391
 C164 C 0.63364 0.02629 0.71016
 C165 C 0.65381 0.02667 0.69543
 C166 C 0.66193 0.00540 0.68369
 C167 C 0.64927 -0.01636 0.68716
 C168 C 0.62957 -0.01748 0.70286
 C169 C 0.68362 0.00563 0.66805
 C170 C 0.69675 -0.01583 0.66489
 C171 C 0.71634 -0.01640 0.64931
 C172 C 0.72404 0.00517 0.63824
 C173 C 0.71192 0.02699 0.64172
 C174 C 0.69136 0.02700 0.65600
 H175 H 0.60693 0.00437 0.72626
 H176 H 0.66329 0.04358 0.69375
 H177 H 0.65415 -0.03235 0.67670
 H178 H 0.69193 -0.03236 0.67445
 H179 H 0.73900 0.00483 0.62589
 H180 H 0.68159 0.04372 0.65754
 C181 C 0.38387 0.99484 0.70197
 C182 C 0.37611 0.97288 0.69173
 C183 C 0.35632 0.97285 0.67647
 C184 C 0.34340 0.99432 0.67234
 C185 C 0.35123 1.01604 0.68371
 C186 C 0.37184 1.01656 0.69773
 C187 C 0.32223 0.99412 0.65589
 C188 C 0.31473 1.01551 0.64378
 C189 C 0.29506 1.01569 0.62806
 C190 C 0.28348 0.99349 0.62383
 C191 C 0.29086 0.97190 0.63506
 C192 C 0.30976 0.97243 0.65150
 H193 H 0.39909 0.99498 0.71385
 H194 H 0.35152 0.95599 0.66751
 H195 H 0.34166 1.03278 0.68152
 H196 H 0.32505 1.03182 0.64535
 H197 H 0.26827 0.99274 0.61203
 H198 H 0.31441 0.95576 0.66084
 C199 C 0.61249 1.00189 0.29729
 C200 C 0.62446 0.98001 0.30088
 C201 C 0.64606 0.98027 0.31292
 C202 C 0.65518 1.00195 0.32294
 C203 C 0.64241 1.02364 0.31969
 C204 C 0.62142 1.02415 0.30610
 C205 C 0.67777 1.00202 0.33695
 C206 C 0.69124 1.02343 0.33878
 C207 C 0.71173 1.02404 0.35290
 C208 C 0.71981 1.00261 0.36389
 C209 C 0.70722 0.98091 0.36183
 C210 C 0.68595 0.98087 0.34901
 H211 H 0.59684 1.00139 0.28615
 H212 H 0.65551 0.96338 0.31454
 H213 H 0.64825 1.04008 0.32870
 H214 H 0.68600 1.03987 0.32933
 H215 H 0.73543 1.00302 0.37516
 H216 H 0.67593 0.96426 0.34866
 O217 O 0.84556 0.82179 0.47952
 O218 O 0.81586 0.85283 0.53102
 O219 O 0.84850 0.82055 0.52779
 O220 O 0.81233 0.85373 0.48290
 O221 O 0.78601 0.82441 0.48410
 O222 O 0.82232 0.79110 0.52926
 O223 O 0.78946 0.82359 0.53254
 O224 O 0.81947 0.79225 0.48068
 Cu225 Cu 0.83321 0.84016 0.50512
 Cu226 Cu 0.80166 0.80483 0.50673
 C227 C 0.83769 0.80178 0.47145
 C228 C 0.79769 0.84356 0.54047
 C229 C 0.84152 0.80028 0.53618
 C230 C 0.79302 0.84480 0.47603
 O231 O 0.16196 0.19203 0.47586
 O232 O 0.19309 0.15752 0.52387
 O233 O 0.16055 0.19056 0.52396
 O234 O 0.19413 0.15841 0.47591
 O235 O 0.22137 0.18679 0.47730
 O236 O 0.18739 0.21934 0.52564
 O237 O 0.22020 0.18602 0.52555
 O238 O 0.18890 0.22071 0.47722
 Cu239 Cu 0.17471 0.17181 0.49972
 Cu240 Cu 0.20718 0.20615 0.50154
 C241 C 0.16990 0.21237 0.46873
 C242 C 0.21210 0.16566 0.53249
 C243 C 0.16805 0.21047 0.53271
 C244 C 0.21364 0.16677 0.46890
 O245 O 0.18259 0.84151 0.47384
 O246 O 0.15184 0.80699 0.52228
 O247 O 0.18386 0.84051 0.52228
 O248 O 0.15043 0.80813 0.47438
 O249 O 0.17739 0.77951 0.47260
 O250 O 0.21111 0.81219 0.52081
 O251 O 0.17886 0.77841 0.52077
 O252 O 0.20980 0.81317 0.47203
 Cu253 Cu 0.16454 0.82721 0.49836
 Cu254 Cu 0.19715 0.79303 0.49638
 C255 C 0.20138 0.83326 0.46477
 C256 C 0.15985 0.78669 0.52936
 C257 C 0.20311 0.83192 0.52965
 C258 C 0.15795 0.78816 0.46575
 O259 O 0.81947 0.14947 0.46684
 O260 O 0.85211 0.17806 0.51772
 O261 O 0.81687 0.14844 0.51513
 O262 O 0.85423 0.17953 0.46946
 O263 O 0.82990 0.21065 0.46894
 O264 O 0.79241 0.17944 0.51487
 O265 O 0.82787 0.20926 0.51747
 O266 O 0.79493 0.18040 0.46628
 Cu267 Cu 0.83809 0.16074 0.49234
 Cu268 Cu 0.80879 0.19808 0.49187
 C269 C 0.80172 0.15998 0.45798
 C270 C 0.84567 0.19852 0.52609
 C271 C 0.79832 0.15859 0.52267
 C272 C 0.84844 0.20036 0.46153
 O273 O 0.48292 0.83686 0.79816
 O274 O 0.52691 0.80393 0.83440
 O275 O 0.52772 0.83761 0.80010
 O276 O 0.48189 0.80361 0.83257
 O277 O 0.48320 0.77500 0.80362
 O278 O 0.52929 0.80938 0.77077
 O279 O 0.52854 0.77540 0.80539
 O280 O 0.48422 0.80852 0.76893
 Cu281 Cu 0.50477 0.82331 0.81926
 Cu282 Cu 0.50651 0.78914 0.78426
 C283 C 0.47637 0.82849 0.77729
 C284 C 0.53494 0.78398 0.82626
 C285 C 0.53588 0.82961 0.77971
 C286 C 0.47490 0.78352 0.82378
 O287 O 0.52033 0.19961 0.16855
 O288 O 0.47580 0.16263 0.19959
 O289 O 0.47541 0.19730 0.16712
 O290 O 0.52064 0.16494 0.20198
 O291 O 0.51834 0.19211 0.23227
 O292 O 0.47280 0.22466 0.19724
 O293 O 0.47317 0.18971 0.22997
 O294 O 0.51799 0.22712 0.19853
 Cu295 Cu 0.49843 0.17841 0.18128
 Cu296 Cu 0.49547 0.21119 0.21759
 C297 C 0.52633 0.21982 0.17788
 C298 C 0.46698 0.16980 0.21998
 C299 C 0.46648 0.21643 0.17621
 C300 C 0.52675 0.17269 0.22323
 O301 O 0.46923 0.19463 0.84148
 O302 O 0.51492 0.15878 0.81069
 O303 O 0.51408 0.19353 0.84323
 O304 O 0.46973 0.15878 0.80935
 O305 O 0.47091 0.18535 0.77851
 O306 O 0.51554 0.22049 0.81272
 O307 O 0.51636 0.18548 0.77996
 O308 O 0.47040 0.22148 0.81089
 Cu309 Cu 0.49173 0.17370 0.82920
 Cu310 Cu 0.49331 0.20587 0.79234
 C311 C 0.46250 0.21439 0.83175
 C312 C 0.52347 0.16612 0.79023
 C313 C 0.52222 0.21290 0.83387
 C314 C 0.46303 0.16592 0.78811
 O315 O 0.52151 0.83879 0.19302
 O316 O 0.47951 0.80116 0.15885
 O317 O 0.47663 0.83526 0.19281
 O318 O 0.52440 0.80502 0.15945
 O319 O 0.52632 0.77706 0.18893
 O320 O 0.47822 0.80759 0.22259
 O321 O 0.48112 0.77319 0.18833
 O322 O 0.52340 0.81107 0.22275
 Cu323 Cu 0.50022 0.82282 0.17306
 Cu324 Cu 0.50233 0.78938 0.20865
 C325 C 0.52951 0.83138 0.21365
 C326 C 0.47352 0.78067 0.16752
 C327 C 0.46964 0.82690 0.21353
 C328 C 0.53343 0.78596 0.16846
 O329 O 0.83840 0.51692 0.80231
 O330 O 0.80435 0.47240 0.83804
 O331 O 0.83694 0.47018 0.80389
 O332 O 0.80664 0.51938 0.83677
 O333 O 0.77938 0.51987 0.80774
 O334 O 0.81009 0.47038 0.77444
 O335 O 0.77719 0.47254 0.80892
 O336 O 0.81138 0.51739 0.77301
 Cu337 Cu 0.82424 0.49461 0.82322
 Cu338 Cu 0.79170 0.49497 0.78813
 C339 C 0.83084 0.52445 0.78152
 C340 C 0.78487 0.46522 0.82976
 C341 C 0.82907 0.46241 0.78333
 C342 C 0.78791 0.52791 0.82796
 O343 O 0.19358 0.49022 0.15545
 O344 O 0.15272 0.53322 0.18442
 O345 O 0.18780 0.53682 0.15407
 O346 O 0.15763 0.48643 0.18499
 O347 O 0.18095 0.48988 0.21753
 O348 O 0.21152 0.54062 0.18624
 O349 O 0.17620 0.53696 0.21680
 O350 O 0.21716 0.49370 0.18777
 Cu351 Cu 0.17058 0.51126 0.16649
 Cu352 Cu 0.19884 0.51561 0.20538
 C353 C 0.21237 0.48490 0.16653
 C354 C 0.15751 0.54230 0.20553
 C355 C 0.20478 0.54716 0.16474
 C356 C 0.16393 0.47979 0.20653
 O357 O 0.84275 0.47292 0.19301
 O358 O 0.80607 0.51590 0.15863
 O359 O 0.83811 0.51945 0.19291
 O360 O 0.81058 0.46899 0.15916
 O361 O 0.78359 0.46624 0.18848
 O362 O 0.81127 0.51698 0.22243
 O363 O 0.77898 0.51346 0.18787
 O364 O 0.81601 0.47019 0.22261
 Cu365 Cu 0.82700 0.49461 0.17292
 Cu366 Cu 0.79466 0.49147 0.20826
 C367 C 0.83583 0.46460 0.21376
 C368 C 0.78630 0.52183 0.16724
 C369 C 0.82970 0.52638 0.21361
 C370 C 0.79241 0.45915 0.16802
 O371 O 0.18685 0.51989 0.84705
 O372 O 0.15078 0.47349 0.81667
 O373 O 0.18562 0.47291 0.84737
 O374 O 0.15214 0.52052 0.81585
 O375 O 0.17673 0.51948 0.78408
 O376 O 0.21045 0.47164 0.81581
 O377 O 0.17535 0.47215 0.78489
 O378 O 0.21170 0.51890 0.81552
 Cu379 Cu 0.16637 0.49686 0.83491
 Cu380 Cu 0.19605 0.49547 0.79684
 C381 C 0.20546 0.52705 0.83666
 C382 C 0.15686 0.46503 0.79566
 C383 C 0.20374 0.46436 0.83708
 C384 C 0.15859 0.52785 0.79454
 C385 C 0.28956 0.43340 0.07235
 C386 C 0.28245 0.42020 0.09329
 C387 C 0.28582 0.39500 0.09401
 C388 C 0.29526 0.38293 0.07333
 C389 C 0.30112 0.39597 0.05168
 C390 C 0.29884 0.42139 0.05168
 C391 C 0.26929 0.43234 0.11245
 C392 C 0.25722 0.44329 0.12704
 C393 C 0.24217 0.45695 0.14242
 C394 C 0.22876 0.46933 0.15417
 H395 H 0.28696 0.45288 0.07154
 H396 H 0.28021 0.38458 0.11005
 H397 H 0.29669 0.36331 0.07368
 H398 H 0.30338 0.43183 0.03528
 C399 C 0.74598 0.60216 0.06843
 C400 C 0.73053 0.59178 0.08557
 C401 C 0.70648 0.59408 0.08194
 C402 C 0.69796 0.60634 0.06095
 C403 C 0.71346 0.61620 0.04330
 C404 C 0.73754 0.61427 0.04750
 C405 C 0.73979 0.57768 0.10588
 C406 C 0.74884 0.56549 0.12183
 C407 C 0.76077 0.55077 0.13917
 C408 C 0.77194 0.53780 0.15274
 H409 H 0.76461 0.60051 0.07101
 H410 H 0.69435 0.58601 0.09502
 H411 H 0.67934 0.60745 0.05810
 H412 H 0.74989 0.62200 0.03443
 C413 C 0.72317 0.41492 0.93690
 C414 C 0.72501 0.40219 0.91439
 C415 C 0.71699 0.37819 0.91290
 C416 C 0.70775 0.36678 0.93406
 C417 C 0.70665 0.37922 0.95696
 C418 C 0.71406 0.40356 0.95802
 C419 C 0.73641 0.41359 0.89351
 C420 C 0.74673 0.42400 0.87708
 C421 C 0.75953 0.43723 0.85913
 C422 C 0.77092 0.44946 0.84501
 H423 H 0.72928 0.43350 0.93828
 H424 H 0.71840 0.36814 0.89559
 H425 H 0.70231 0.34798 0.93278
 H426 H 0.71310 0.41369 0.97531
 C427 C 0.25069 0.61588 0.92677
 C428 C 0.26472 0.60123 0.91162
 C429 C 0.28866 0.59967 0.91627
 C430 C 0.29841 0.61228 0.93641
 C431 C 0.28424 0.62639 0.95221
 C432 C 0.26036 0.62838 0.94690
 C433 C 0.25399 0.58643 0.89269
 C434 C 0.24403 0.57358 0.87793
 C435 C 0.23139 0.55799 0.86201
 C436 C 0.21988 0.54416 0.84967
 H437 H 0.23215 0.61717 0.92341
 H438 H 0.29965 0.58822 0.90478
 H439 H 0.31681 0.61025 0.94020
 H440 H 0.24910 0.63935 0.95858
 C441 C 0.09209 0.27927 0.37718
 C442 C 0.09172 0.27355 0.40260
 C443 C 0.07146 0.27748 0.41656
 C444 C 0.05140 0.28628 0.40505
 C445 C 0.05132 0.29126 0.37936
 C446 C 0.07201 0.28819 0.36562
 C447 C 0.11133 0.26200 0.41429
 C448 C 0.12669 0.25147 0.42508
 C449 C 0.14331 0.23835 0.43894
 C450 C 0.15623 0.22666 0.45189
 H451 H 0.10765 0.27618 0.36617
 H452 H 0.07096 0.27312 0.43624
 H453 H 0.03581 0.28877 0.41615
 H454 H 0.07236 0.29172 0.34577
 C455 C 0.06087 0.72345 0.58241
 C456 C 0.08141 0.72629 0.59606
 C457 C 0.08196 0.71971 0.62125
 C458 C 0.06181 0.71092 0.63289
 C459 C 0.04090 0.70885 0.61947
 C460 C 0.04075 0.71478 0.59400
 C461 C 0.10119 0.73754 0.58432
 C462 C 0.11666 0.74786 0.57344
 C463 C 0.13336 0.76080 0.55944
 C464 C 0.14627 0.77241 0.54634
 H465 H 0.06025 0.72849 0.56290
 H466 H 0.09775 0.72196 0.63201
 H467 H 0.06233 0.70662 0.65257
 H468 H 0.02497 0.71304 0.58314
 C469 C 0.90940 0.72512 0.38405
 C470 C 0.90942 0.74997 0.38957
 C471 C 0.92850 0.76434 0.38274
 C472 C 0.94798 0.75372 0.37154
 C473 C 0.94862 0.72854 0.36711
 C474 C 0.92886 0.71445 0.37278
 C475 C 0.89126 0.76027 0.40476
 C476 C 0.87714 0.76913 0.41871
 C477 C 0.86197 0.77991 0.43621
 C478 C 0.85020 0.78958 0.45197
 H479 H 0.89481 0.71379 0.38945
 H480 H 0.92873 0.78358 0.38701
 H481 H 0.96285 0.76502 0.36711
 H482 H 0.92898 0.69499 0.36980
 C483 C 0.92044 0.27257 0.61243
 C484 C 0.92037 0.24778 0.60661
 C485 C 0.93920 0.23321 0.61362
 C486 C 0.95842 0.24353 0.62555
 C487 C 0.95907 0.26861 0.63056
 C488 C 0.93963 0.28293 0.62440
 C489 C 0.90213 0.23772 0.59143
 C490 C 0.88771 0.22919 0.57769
 C491 C 0.87188 0.21895 0.56056
 C492 C 0.85933 0.20987 0.54518
 H493 H 0.90604 0.28406 0.60692
 H494 H 0.93936 0.21401 0.60914
 H495 H 0.97301 0.23201 0.63033
 H496 H 0.93974 0.30234 0.62774
 C497 C 0.37602 0.08166 0.26907
 C498 C 0.40029 0.08401 0.27012
 C499 C 0.41378 0.06497 0.27945
 C500 C 0.40319 0.04352 0.28735
 C501 C 0.37890 0.04074 0.28601
 C502 C 0.36534 0.06013 0.27709
 C503 C 0.41184 0.10523 0.26054
 C504 C 0.42286 0.12196 0.25210
 C505 C 0.43712 0.14017 0.24165
 C506 C 0.45030 0.15445 0.23213
 H507 H 0.36543 0.09626 0.26174
 H508 H 0.43256 0.06658 0.28032
 H509 H 0.41402 0.02905 0.29456
 H510 H 0.34660 0.05841 0.27580
 C511 C 0.60910 0.08979 0.71679
 C512 C 0.60075 0.08920 0.74133
 C513 C 0.60511 0.06893 0.75630
 C514 C 0.61687 0.04888 0.74650
 C515 C 0.62439 0.04884 0.72155
 C516 C 0.62098 0.06974 0.70696
 C517 C 0.58586 0.10817 0.75064
 C518 C 0.57247 0.12297 0.75891
 C519 C 0.55594 0.13909 0.76918
 C520 C 0.54131 0.15191 0.77848
 H521 H 0.60570 0.10535 0.70501
 H522 H 0.59870 0.06826 0.77530
 H523 H 0.61952 0.03311 0.75820
 H524 H 0.62647 0.07007 0.68764
 C525 C 0.42448 0.92861 0.70694
 C526 C 0.41182 0.90835 0.71500
 C527 C 0.38748 0.90848 0.71358
 C528 C 0.37584 0.92913 0.70491
 C529 C 0.38843 0.94994 0.69777
 C530 C 0.41289 0.94926 0.69836
 C531 C 0.42387 0.88848 0.72667
 C532 C 0.43469 0.87288 0.73732
 C533 C 0.44823 0.85592 0.75063
 C534 C 0.46061 0.84266 0.76256
 H535 H 0.44331 0.92873 0.70799
 H536 H 0.37750 0.89297 0.71992
 H537 H 0.35699 0.92924 0.70486
 H538 H 0.42304 0.96490 0.69269
 C539 C 0.61715 0.91903 0.26854
 C540 C 0.59333 0.91484 0.27214
 C541 C 0.58005 0.93136 0.28598
 C542 C 0.59036 0.95226 0.29572
 C543 C 0.61414 0.95697 0.29173
 C544 C 0.62756 0.93996 0.27837
 C545 C 0.58190 0.89458 0.26042
 C546 C 0.57125 0.87852 0.25028
 C547 C 0.55765 0.86086 0.23800
 C548 C 0.54519 0.84680 0.22711
 H549 H 0.62755 0.90643 0.25770
 H550 H 0.56160 0.92833 0.28883
 H551 H 0.57970 0.96489 0.30621
 H552 H 0.64586 0.94324 0.27487
 C553 C 0.38160 0.28997 0.91421
 C554 C 0.40402 0.28012 0.91435
 C555 C 0.41726 0.28099 0.93609
 C556 C 0.40792 0.29070 0.95792
 C557 C 0.38491 0.29977 0.95863
 C558 C 0.37216 0.29993 0.93608
 C559 C 0.41342 0.26772 0.89295
 C560 C 0.42263 0.25633 0.87645
 C561 C 0.43497 0.24213 0.85894
 C562 C 0.44682 0.22956 0.84559
 H563 H 0.37115 0.28932 0.89744
 H564 H 0.43479 0.27371 0.93632
 H565 H 0.41910 0.29135 0.97410
 H566 H 0.35434 0.30622 0.93547
 C567 C 0.60460 0.74535 0.93231
 C568 C 0.60089 0.73009 0.91193
 C569 C 0.60849 0.70597 0.91286
 C570 C 0.61954 0.69708 0.93427
 C571 C 0.62295 0.71215 0.95538
 C572 C 0.61548 0.73660 0.95369
 C573 C 0.58839 0.73937 0.89072
 C574 C 0.57725 0.74832 0.87406
 C575 C 0.56341 0.75994 0.85590
 C576 C 0.55085 0.77060 0.84163
 H577 H 0.59898 0.76413 0.93175
 H578 H 0.60553 0.69391 0.89722
 H579 H 0.62423 0.67807 0.93447
 H580 H 0.61861 0.74950 0.96854
 C581 C 0.42690 0.71296 0.06183
 C582 C 0.41400 0.71684 0.08356
 C583 C 0.39034 0.71098 0.08405
 C584 C 0.37939 0.70214 0.06258
 C585 C 0.39190 0.69935 0.03996
 C586 C 0.41607 0.70428 0.04032
 C587 C 0.42491 0.72860 0.10450
 C588 C 0.43478 0.73943 0.12093
 C589 C 0.44726 0.75307 0.13877
 C590 C 0.45875 0.76539 0.15269
 H591 H 0.44532 0.71719 0.06130
 H592 H 0.38013 0.71405 0.10077
 H593 H 0.36079 0.69921 0.06350
 H594 H 0.42692 0.70127 0.02411
 C595 C 0.61007 0.28913 0.09379
 C596 C 0.58653 0.28269 0.09406
 C597 C 0.57320 0.28566 0.07256
 C598 C 0.58345 0.29402 0.05058
 C599 C 0.60748 0.29956 0.04947
 C600 C 0.62044 0.29768 0.07181
 C601 C 0.57611 0.27130 0.11553
 C602 C 0.56634 0.26072 0.13223
 C603 C 0.55368 0.24729 0.15013
 C604 C 0.54179 0.23508 0.16381
 H605 H 0.62062 0.28677 0.11032
 H606 H 0.55487 0.28099 0.07261
 H607 H 0.57225 0.29635 0.03460
 H608 H 0.63897 0.30116 0.07216
 C609 C 0.28139 0.08164 0.61764
 C610 C 0.26857 0.08042 0.59558
 C611 C 0.26548 0.05808 0.58370
 C612 C 0.27461 0.03692 0.59403
 C613 C 0.28708 0.03750 0.61673
 C614 C 0.29068 0.06045 0.62808
 C615 C 0.25791 0.10170 0.58503
 C616 C 0.24816 0.11840 0.57499
 C617 C 0.23601 0.13652 0.56177
 C618 C 0.22521 0.15064 0.54915
 H619 H 0.28383 0.09888 0.62705
 H620 H 0.25586 0.05697 0.56638
 H621 H 0.27230 0.02027 0.58361
 H622 H 0.29957 0.06212 0.64575
 C623 C 0.75923 0.06904 0.36875
 C624 C 0.74610 0.08856 0.37784
 C625 C 0.72182 0.08813 0.37585
 C626 C 0.71064 0.06768 0.36604
 C627 C 0.72366 0.04735 0.35834
 C628 C 0.74810 0.04857 0.35901
 C629 C 0.75733 0.10717 0.39232
 C630 C 0.76697 0.12142 0.40586
 C631 C 0.77861 0.13651 0.42306
 C632 C 0.78892 0.14800 0.43864
 H633 H 0.77803 0.06912 0.37034
 H634 H 0.71148 0.10303 0.38307
 H635 H 0.69180 0.06714 0.36601
 H636 H 0.75854 0.03326 0.35298
 C637 C 0.76208 0.93792 0.62969
 C638 C 0.74812 0.91848 0.62198
 C639 C 0.72404 0.91932 0.62581
 C640 C 0.71382 0.94003 0.63619
 C641 C 0.72758 0.96022 0.64267
 C642 C 0.75190 0.95867 0.64002
 C643 C 0.75813 0.89935 0.60720
 C644 C 0.76666 0.88452 0.59343
 C645 C 0.77693 0.86867 0.57595
 C646 C 0.78612 0.85646 0.56011
 H647 H 0.78074 0.93751 0.62666
 H648 H 0.71306 0.90447 0.61967
 H649 H 0.69503 0.94082 0.63773
 H650 H 0.76293 0.97385 0.64510
 C651 C 0.27857 0.91060 0.38356
 C652 C 0.25470 0.91135 0.38881
 C653 C 0.24180 0.93208 0.38282
 C654 C 0.25288 0.95240 0.37267
 C655 C 0.27705 0.95226 0.36845
 C656 C 0.28969 0.93091 0.37333
 C657 C 0.24385 0.89208 0.40275
 C658 C 0.23455 0.87695 0.41559
 C659 C 0.22337 0.86046 0.43180
 C660 C 0.21352 0.84743 0.44647
 H661 H 0.28876 0.89472 0.38831
 H662 H 0.22333 0.93288 0.38687
 H663 H 0.24268 0.96850 0.36883
 H664 H 0.30836 0.93039 0.37050
 C665 C 0.05515 0.39360 0.75799
 C666 C 0.07667 0.39210 0.74594
 C667 C 0.07870 0.37875 0.72387
 C668 C 0.05910 0.36758 0.71344
 C669 C 0.03690 0.36985 0.72476
 C670 C 0.03553 0.38260 0.74763
 C671 C 0.09611 0.40564 0.75559
 C672 C 0.11152 0.41801 0.76402
 C673 C 0.12850 0.43354 0.77439
 C674 C 0.14203 0.44756 0.78378
 H675 H 0.05343 0.40367 0.77526
 H676 H 0.09529 0.37759 0.71429
 H677 H 0.06132 0.35861 0.69565
 H678 H 0.01941 0.38391 0.75799
 C679 C 0.07029 0.63006 0.26369
 C680 C 0.07142 0.60527 0.25818
 C681 C 0.05236 0.59037 0.26325
 C682 C 0.03217 0.60007 0.27368
 C683 C 0.03043 0.62514 0.27933
 C684 C 0.05005 0.63994 0.27424
 C685 C 0.09188 0.59465 0.24716
 C686 C 0.10820 0.58434 0.23780
 C687 C 0.12634 0.57083 0.22672
 C688 C 0.14101 0.55827 0.21712
 H689 H 0.08496 0.64181 0.25966
 H690 H 0.05314 0.57107 0.25929
 H691 H 0.01837 0.58745 0.27821
 H692 H 0.04971 0.65935 0.27734
 C693 C 0.92152 0.38224 0.28111
 C694 C 0.92146 0.40572 0.27124
 C695 C 0.94215 0.41900 0.27030
 C696 C 0.96297 0.40871 0.27847
 C697 C 0.96368 0.38467 0.28775
 C698 C 0.94235 0.37184 0.28944
 C699 C 0.90061 0.41607 0.26085
 C700 C 0.88405 0.42564 0.25121
 C701 C 0.86582 0.43798 0.23895
 C702 C 0.85141 0.44953 0.22778
 H703 H 0.90559 0.37171 0.28180
 H704 H 0.94227 0.43733 0.26296
 H705 H 0.97833 0.42005 0.27791
 H706 H 0.94170 0.35320 0.29576
 C707 C 0.91183 0.61149 0.71332
 C708 C 0.91206 0.58727 0.72109
 C709 C 0.93268 0.57393 0.71978
 C710 C 0.95323 0.58492 0.71171
 C711 C 0.95372 0.60971 0.70481
 C712 C 0.93239 0.62259 0.70505
 C713 C 0.89180 0.57621 0.73207
 C714 C 0.87593 0.56591 0.74232
 C715 C 0.85872 0.55267 0.75530
 C716 C 0.84527 0.54035 0.76703
 H717 H 0.89594 0.62203 0.71439
 H718 H 0.93300 0.55506 0.72548
 H719 H 0.96861 0.57364 0.71062
 H720 H 0.93163 0.64171 0.70049
 C721 C 0.75309 0.61074 0.92820
 C722 C 0.73871 0.60483 0.90806
 C723 C 0.71497 0.61050 0.90903
 C724 C 0.70549 0.62115 0.93048
 C725 C 0.71964 0.62603 0.95126
 C726 C 0.74365 0.62129 0.94964
 C727 C 0.74802 0.59067 0.88778
 C728 C 0.75630 0.57767 0.87198
 C729 C 0.76661 0.56128 0.85498
 C730 C 0.77600 0.54644 0.84183
 H731 H 0.77147 0.60637 0.92769
 H732 H 0.70364 0.60582 0.89364
 H733 H 0.68691 0.62441 0.93131
 H734 H 0.75499 0.62510 0.96526
 C735 C 0.27142 0.37678 0.92026
 C736 C 0.26510 0.40123 0.91821
 C737 C 0.27032 0.41737 0.93743
 C738 C 0.28147 0.40925 0.95883
 C739 C 0.28771 0.38456 0.96169
 C740 C 0.28277 0.36850 0.94174
 C741 C 0.25261 0.41033 0.89704
 C742 C 0.24175 0.42013 0.88075
 C743 C 0.22872 0.43382 0.86357
 C744 C 0.21739 0.44707 0.85056
 H745 H 0.26729 0.36408 0.90548
 H746 H 0.26573 0.43641 0.93591
 H747 H 0.28586 0.42279 0.97268
 H748 H 0.28655 0.34930 0.94296
 C749 C 0.28169 0.62564 0.08581
 C750 C 0.25745 0.62342 0.08698
 C751 C 0.24382 0.63145 0.06704
 C752 C 0.25442 0.64049 0.04549
 C753 C 0.27883 0.64151 0.04359
 C754 C 0.29234 0.63472 0.06429
 C755 C 0.24675 0.60998 0.10694
 C756 C 0.23760 0.59730 0.12242
 C757 C 0.22659 0.58100 0.13895
 C758 C 0.21685 0.56603 0.15160
 H759 H 0.29242 0.61924 0.10102
 H760 H 0.22504 0.62968 0.06768
 H761 H 0.24359 0.64582 0.02995
 H762 H 0.31116 0.63502 0.06327
 C763 C 0.71677 0.37855 0.09011
 C764 C 0.74087 0.38233 0.08962
 C765 C 0.75378 0.37543 0.06863
 C766 C 0.74252 0.36595 0.04770
 C767 C 0.71816 0.36335 0.04750
 C768 C 0.70548 0.36902 0.06921
 C769 C 0.75190 0.39605 0.10915
 C770 C 0.76114 0.40889 0.12442
 C771 C 0.77196 0.42528 0.14099
 C772 C 0.78125 0.44028 0.15398
 H773 H 0.70658 0.38405 0.10617
 H774 H 0.77242 0.37838 0.06800
 H775 H 0.75275 0.36149 0.03134
 H776 H 0.68669 0.36748 0.06949
 C777 C 0.93659 0.75845 0.61807
 C778 C 0.91708 0.74476 0.61125
 C779 C 0.91649 0.71980 0.61615
 C780 C 0.93578 0.70837 0.62682
 C781 C 0.95593 0.72179 0.63252
 C782 C 0.95589 0.74706 0.62867
 C783 C 0.89885 0.75598 0.59699
 C784 C 0.88447 0.76561 0.58402
 C785 C 0.86862 0.77723 0.56793
 C786 C 0.85586 0.78752 0.55363
 H787 H 0.93725 0.77778 0.61432
 H788 H 0.90154 0.70901 0.61079
 H789 H 0.93543 0.68885 0.62934
 H790 H 0.97108 0.75787 0.63312
 C791 C 0.94701 0.24114 0.38287
 C792 C 0.92706 0.25468 0.38849
 C793 C 0.92632 0.27946 0.38267
 C794 C 0.94578 0.29084 0.37215
 C795 C 0.96628 0.27758 0.36752
 C796 C 0.96648 0.25249 0.37243
 C797 C 0.90834 0.24354 0.40223
 C798 C 0.89345 0.23402 0.41472
 C799 C 0.87690 0.22260 0.43030
 C800 C 0.86351 0.21261 0.44427
 H801 H 0.94780 0.22197 0.38733
 H802 H 0.91102 0.29015 0.38708
 H803 H 0.94521 0.31023 0.36879
 H804 H 0.98193 0.24177 0.36879
 C805 C 0.07133 0.24504 0.61448
 C806 C 0.08704 0.26182 0.60443
 C807 C 0.08225 0.28674 0.60605
 C808 C 0.06157 0.29477 0.61726
 C809 C 0.04540 0.27792 0.62675
 C810 C 0.05069 0.25300 0.62556
 C811 C 0.10705 0.25307 0.59089
 C812 C 0.12286 0.24466 0.57883
 C813 C 0.14013 0.23367 0.56379
 C814 C 0.15365 0.22347 0.55010
 H815 H 0.07480 0.22573 0.61327
 H816 H 0.09420 0.29989 0.59816
 H817 H 0.05786 0.31405 0.61775
 H818 H 0.03871 0.23963 0.63301
 C819 C 0.05380 0.73592 0.41281
 C820 C 0.07512 0.73275 0.40072
 C821 C 0.07590 0.72083 0.37771
 C822 C 0.05531 0.71262 0.36656
 C823 C 0.03342 0.71648 0.37812
 C824 C 0.03324 0.72789 0.40177
 C825 C 0.09580 0.74270 0.41191
 C826 C 0.11204 0.75203 0.42243
 C827 C 0.12966 0.76391 0.43611
 C828 C 0.14339 0.77472 0.44898
 H829 H 0.05301 0.74484 0.43082
 H830 H 0.09235 0.71835 0.36812
 H831 H 0.05664 0.70451 0.34823
 H832 H 0.01733 0.73020 0.41232
 C833 C 0.58411 0.93762 0.72269
 C834 C 0.59692 0.91609 0.72319
 C835 C 0.62011 0.91613 0.71529
 C836 C 0.63068 0.93782 0.70764
 C837 C 0.61828 0.96006 0.70810
 C838 C 0.59456 0.95931 0.71521
 C839 C 0.58637 0.89452 0.73335
 C840 C 0.57656 0.87752 0.74286
 C841 C 0.56381 0.85905 0.75499
 C842 C 0.55174 0.84470 0.76601
 H843 H 0.56603 0.93774 0.72851
 H844 H 0.63026 0.89955 0.71574
 H845 H 0.64900 0.93716 0.70299
 H846 H 0.58371 0.97535 0.71470
 C847 C 0.39944 0.92857 0.25311
 C848 C 0.40051 0.90789 0.26805
 C849 C 0.39050 0.90829 0.29185
 C850 C 0.37981 0.92950 0.30082
 C851 C 0.37927 0.95091 0.28621
 C852 C 0.38897 0.94973 0.26196
 C853 C 0.41305 0.88701 0.25893
 C854 C 0.42457 0.87087 0.24997
 C855 C 0.43918 0.85365 0.23820
 C856 C 0.45258 0.84051 0.22730
 H857 H 0.40693 0.92843 0.23455
 H858 H 0.39139 0.89239 0.30369
 H859 H 0.37322 0.92926 0.31970
 H860 H 0.38802 0.96494 0.24925
 C861 C 0.61186 0.08968 0.28991
 C862 C 0.58816 0.08960 0.28416
 C863 C 0.57512 0.06845 0.28758
 C864 C 0.58583 0.04715 0.29571
 C865 C 0.61001 0.04643 0.30055
 C866 C 0.62269 0.06840 0.29821
 C867 C 0.57730 0.11045 0.27296
 C868 C 0.56730 0.12679 0.26259
 C869 C 0.55445 0.14449 0.24952
 C870 C 0.54242 0.15822 0.23774
 H871 H 0.62217 0.10596 0.28718
 H872 H 0.55667 0.06825 0.28342
 H873 H 0.57487 0.03138 0.29843
 H874 H 0.64131 0.06903 0.30106
 C875 C 0.37658 0.07796 0.73004
 C876 C 0.40058 0.08228 0.72829
 C877 C 0.41483 0.06563 0.71581
 C878 C 0.40532 0.04455 0.70555
 C879 C 0.38135 0.03972 0.70764
 C880 C 0.36698 0.05683 0.71966
 C881 C 0.41115 0.10288 0.74040
 C882 C 0.42133 0.11916 0.75080
 C883 C 0.43464 0.13695 0.76333
 C884 C 0.44707 0.15093 0.77441
 H885 H 0.36539 0.09067 0.73979
 H886 H 0.43341 0.06874 0.71435
 H887 H 0.41676 0.03190 0.69606
 H888 H 0.34849 0.05350 0.72166
 C889 C 0.61636 0.75207 0.07023
 C890 C 0.60988 0.73668 0.08980
 C891 C 0.61512 0.71187 0.08849
 C892 C 0.62591 0.70232 0.06720
 C893 C 0.63133 0.71749 0.04691
 C894 C 0.62704 0.74256 0.04894
 C895 C 0.59560 0.74605 0.10969
 C896 C 0.58257 0.75439 0.12513
 C897 C 0.56626 0.76474 0.14174
 C898 C 0.55160 0.77412 0.15466
 H899 H 0.61231 0.77128 0.07099
 H900 H 0.61001 0.69976 0.10344
 H901 H 0.62883 0.68291 0.06602
 H902 H 0.63124 0.75467 0.03368
 C903 C 0.41524 0.28419 0.07539
 C904 C 0.40091 0.27403 0.09371
 C905 C 0.37669 0.27425 0.09072
 C906 C 0.36689 0.28431 0.06918
 C907 C 0.38132 0.29396 0.05042
 C908 C 0.40555 0.29409 0.05393
 C909 C 0.41164 0.26223 0.11460
 C910 C 0.42228 0.25209 0.13084
 C911 C 0.43639 0.23995 0.14826
 C912 C 0.44961 0.22934 0.16178
 H913 H 0.43400 0.28409 0.07751
 H914 H 0.36546 0.26630 0.10476
 H915 H 0.34818 0.28394 0.06684
 H916 H 0.41703 0.30176 0.03995
 C917 C 0.57553 0.28536 0.93242
 C918 C 0.58872 0.27247 0.91491
 C919 C 0.61276 0.26983 0.91834
 C920 C 0.62345 0.27966 0.93953
 C921 C 0.61012 0.29200 0.95757
 C922 C 0.58613 0.29506 0.95357
 C923 C 0.57698 0.26061 0.89458
 C924 C 0.56593 0.25032 0.87869
 C925 C 0.55174 0.23781 0.86149
 C926 C 0.53870 0.22669 0.84811
 H927 H 0.55692 0.28746 0.93000
 H928 H 0.62310 0.25973 0.90498
 H929 H 0.64194 0.27691 0.94224
 H930 H 0.57551 0.30477 0.96700
 C931 C 0.38411 0.72841 0.90927
 C932 C 0.40786 0.72460 0.90475
 C933 C 0.42101 0.71087 0.92150
 C934 C 0.41070 0.70153 0.94300
 C935 C 0.38704 0.70581 0.94812
 C936 C 0.37369 0.71894 0.93081
 C937 C 0.41949 0.73629 0.88423
 C938 C 0.43054 0.74647 0.86823
 C939 C 0.44483 0.75887 0.85101
 C940 C 0.45807 0.76988 0.83773
 H941 H 0.37382 0.73919 0.89652
 H942 H 0.43941 0.70789 0.91824
 H943 H 0.42129 0.69122 0.95587
 H944 H 0.35547 0.72263 0.93441
 C945 C 0.74930 0.93318 0.38487
 C946 C 0.73502 0.91920 0.40039
 C947 C 0.71120 0.92440 0.40210
 C948 C 0.70184 0.94398 0.38883
 C949 C 0.71629 0.95864 0.37391
 C950 C 0.74002 0.95275 0.37171
 C951 C 0.74542 0.90087 0.41588
 C952 C 0.75513 0.88650 0.42920
 C953 C 0.76753 0.87082 0.44516
 C954 C 0.77884 0.85841 0.45909
 H955 H 0.76776 0.92937 0.38344
 H956 H 0.70003 0.91379 0.41420
 H957 H 0.68355 0.94825 0.39102
 H958 H 0.75148 0.96358 0.36013
 C959 C 0.24458 0.92675 0.61564
 C960 C 0.25824 0.90750 0.60683
 C961 C 0.28244 0.90823 0.60984
 C962 C 0.29301 0.92864 0.62056
 C963 C 0.27948 0.94863 0.62815
 C964 C 0.25511 0.94716 0.62626
 C965 C 0.24755 0.88850 0.59232
 C966 C 0.23813 0.87373 0.57911
 C967 C 0.22656 0.85777 0.56263
 C968 C 0.21616 0.84531 0.54787
 H969 H 0.22585 0.92643 0.61335
 H970 H 0.29320 0.89352 0.60294
 H971 H 0.31182 0.92939 0.62158
 H972 H 0.24426 0.96220 0.63218
 C973 C 0.27507 0.06200 0.41867
 C974 C 0.27262 0.08337 0.40482
 C975 C 0.27951 0.08378 0.37977
 C976 C 0.28821 0.06269 0.36846
 C977 C 0.28993 0.04091 0.38205
 C978 C 0.28367 0.04093 0.40741
 C979 C 0.26161 0.10417 0.41615
 C980 C 0.25157 0.12057 0.42653
 C981 C 0.23898 0.13842 0.43987
 C982 C 0.22765 0.15227 0.45242
 H983 H 0.26981 0.06145 0.43807
 H984 H 0.27759 0.10018 0.36883
 H985 H 0.29271 0.06315 0.34885
 H986 H 0.28509 0.02453 0.41842
 C987 C 0.71541 0.08342 0.60129
 C988 C 0.73938 0.08816 0.60188
 C989 C 0.75385 0.07414 0.61705
 C990 C 0.74465 0.05490 0.63081
 C991 C 0.72078 0.04936 0.62961
 C992 C 0.70610 0.06416 0.61521
 C993 C 0.74974 0.10585 0.58549
 C994 C 0.75957 0.11954 0.57143
 C995 C 0.77222 0.13432 0.55469
 C996 C 0.78379 0.14593 0.54018
 H997 H 0.70406 0.09407 0.58948
 H998 H 0.77242 0.07759 0.61763
 H999 H 0.75628 0.04391 0.64195
 H1000 H 0.68770 0.06015 0.61382
 C1001 C 0.92408 0.58186 0.28246
 C1002 C 0.90476 0.59560 0.27527
 C1003 C 0.90534 0.62095 0.27748
 C1004 C 0.92551 0.63254 0.28603
 C1005 C 0.94536 0.61885 0.29218
 C1006 C 0.94424 0.59338 0.29086
 C1007 C 0.88543 0.58353 0.26356
 C1008 C 0.87046 0.57226 0.25288
 C1009 C 0.85450 0.55770 0.23962
 C1010 C 0.84231 0.54406 0.22786
 H1011 H 0.92385 0.56224 0.28078
 H1012 H 0.89053 0.63178 0.27181
 H1013 H 0.92600 0.65220 0.28670
 H1014 H 0.95919 0.58241 0.29574
 C1015 C 0.92952 0.41198 0.71946
 C1016 C 0.91008 0.39757 0.72488
 C1017 C 0.91131 0.37235 0.72167
 C1018 C 0.93215 0.36155 0.71381
 C1019 C 0.95203 0.37587 0.70931
 C1020 C 0.95034 0.40124 0.71171
 C1021 C 0.88972 0.40875 0.73562
 C1022 C 0.87370 0.41916 0.74553
 C1023 C 0.85635 0.43270 0.75803
 C1024 C 0.84296 0.44552 0.76933
 H1025 H 0.92879 0.43152 0.72190
 H1026 H 0.89643 0.36099 0.72596
 H1027 H 0.93303 0.34195 0.71229
 H1028 H 0.96527 0.41273 0.70805
 C1029 C 0.06332 0.58006 0.72403
 C1030 C 0.07940 0.59487 0.73634
 C1031 C 0.07563 0.61998 0.73779
 C1032 C 0.05559 0.63015 0.72725
 C1033 C 0.03910 0.61522 0.71536
 C1034 C 0.04334 0.59013 0.71361
 C1035 C 0.09894 0.58369 0.74848
 C1036 C 0.11433 0.57282 0.75879
 C1037 C 0.13112 0.55851 0.77104
 C1038 C 0.14433 0.54509 0.78167
 H1039 H 0.06606 0.56061 0.72281
 H1040 H 0.08792 0.63158 0.74741
 H1041 H 0.05267 0.64951 0.72896
 H1042 H 0.03111 0.57827 0.70423
 C1043 C 0.08859 0.39437 0.28199
 C1044 C 0.08887 0.40161 0.25699
 C1045 C 0.06977 0.39648 0.24172
 C1046 C 0.05011 0.38500 0.25159
 C1047 C 0.04928 0.37854 0.27693
 C1048 C 0.06894 0.38280 0.29190
 C1049 C 0.10766 0.41625 0.24742
 C1050 C 0.12239 0.42953 0.23896
 C1051 C 0.13835 0.44614 0.22844
 C1052 C 0.15077 0.46112 0.21882
 H1053 H 0.10321 0.39841 0.29403
 H1054 H 0.06977 0.40204 0.22236
 H1055 H 0.03534 0.38166 0.23956
 H1056 H 0.06868 0.37822 0.31152
   
