data_POSCAR
  _audit_creation_date              2014-09-24
  _audit_creation_method            'ToBaCCo'
  _symmetry_space_group_name_H-M    'P1'
  _symmetry_Int_Tables_number       1
  _symmetry_cell_setting            triclinic
  loop_
  _symmetry_equiv_pos_as_xyz
 x,y,z
_cell_length_a 26.6068
_cell_length_b 26.1422
_cell_length_c 32.4992
_cell_angle_alpha 91.200500
_cell_angle_beta 90.677100
_cell_angle_gamma 90.294000
loop_
  _atom_site_label
  _atom_site_type_symbol
  _atom_site_fract_x
  _atom_site_fract_y
  _atom_site_fract_z
Zr1 Zr 0.22890 0.22529 0.31639
 O2 O 0.25037 0.24765 0.37715
 O3 O 0.17517 0.16855 0.32832
 O4 O 0.16999 0.26154 0.34842
 O5 O 0.33169 0.14530 0.30242
 O6 O 0.14593 0.32708 0.30730
 O7 O 0.26955 0.16857 0.34689
 O8 O 0.14723 0.14352 0.26439
 O9 O 0.17391 0.23906 0.27158
 O10 O 0.24226 0.17214 0.26888
 O11 O 0.23970 0.30195 0.30037
 O12 O 0.30408 0.23728 0.29855
 Zr13 Zr 0.27246 0.27638 0.18551
 Zr14 Zr 0.18708 0.31443 0.25313
 Zr15 Zr 0.31499 0.18650 0.24844
 Zr16 Zr 0.18949 0.18773 0.22331
 O17 O 0.39293 0.19142 0.26174
 O18 O 0.11253 0.20180 0.21045
 O19 O 0.26254 0.19883 0.20084
 O20 O 0.19808 0.26305 0.20376
 O21 O 0.25989 0.32973 0.23295
 O22 O 0.32691 0.26187 0.23060
 C23 C 0.14729 0.14103 0.30391
 C24 C 0.30926 0.14328 0.33737
 C25 C 0.14412 0.30182 0.34075
 O26 O 0.10979 0.30932 0.23755
 O27 O 0.17318 0.35927 0.20096
 O28 O 0.23571 0.33749 0.15648
 C29 C 0.19667 0.36345 0.16677
 O30 O 0.32895 0.31807 0.34299
 Zr31 Zr 0.31247 0.31279 0.27888
 O32 O 0.32514 0.33429 0.17428
 O33 O 0.19153 0.39258 0.27115
 O34 O 0.29818 0.38935 0.29809
 O35 O 0.39075 0.30287 0.28867
 O36 O 0.34954 0.36176 0.23854
 C37 C 0.35007 0.36405 0.19913
 O38 O 0.24830 0.25538 0.12513
 O39 O 0.31102 0.10772 0.23232
 O40 O 0.32951 0.23968 0.15222
 O41 O 0.35320 0.17301 0.19234
 O42 O 0.20160 0.10955 0.20794
 O43 O 0.17849 0.17465 0.15905
 C44 C 0.35511 0.19908 0.15910
 H45 H 0.23944 0.13624 0.27770
 H46 H 0.17394 0.26871 0.18092
 H47 H 0.36164 0.26655 0.22070
 H48 H 0.23503 0.32541 0.32429
 H49 H 0.09566 0.16815 0.20644
 H50 H 0.09540 0.34371 0.24277
 H51 H 0.15753 0.40710 0.26712
 H52 H 0.33110 0.40671 0.30223
 H53 H 0.16820 0.09307 0.20402
 H54 H 0.34520 0.09376 0.23651
 H55 H 0.40708 0.15714 0.25568
 H56 H 0.40569 0.33724 0.29389
 H57 H 0.14954 0.15120 0.15439
 H58 H 0.26770 0.27643 0.10575
 H59 H 0.23073 0.22644 0.39627
 H60 H 0.35255 0.34688 0.34854
 Zr61 Zr 0.74568 0.73014 0.31591
 O62 O 0.70663 0.67861 0.35361
 O63 O 0.79555 0.76379 0.35839
 O64 O 0.79512 0.67352 0.33734
 O65 O 0.65704 0.82654 0.32150
 O66 O 0.82755 0.63779 0.27879
 O67 O 0.70189 0.76959 0.35946
 O68 O 0.84343 0.81434 0.31776
 O69 O 0.81050 0.73435 0.28037
 O70 O 0.74962 0.80526 0.29514
 O71 O 0.73577 0.67437 0.26921
 O72 O 0.67723 0.74288 0.28448
 Zr73 Zr 0.73869 0.76794 0.17706
 Zr74 Zr 0.79871 0.68179 0.23173
 Zr75 Zr 0.68423 0.81680 0.26105
 Zr76 Zr 0.81257 0.80844 0.25813
 O77 O 0.60471 0.81754 0.25919
 O78 O 0.88987 0.79016 0.25350
 O79 O 0.74766 0.82471 0.22363
 O80 O 0.80606 0.75573 0.20920
 O81 O 0.73354 0.69273 0.19719
 O82 O 0.67387 0.76380 0.21287
 C83 C 0.83101 0.79603 0.35264
 C84 C 0.66919 0.80532 0.35564
 C85 C 0.82285 0.64110 0.31783
 O86 O 0.87808 0.68202 0.22803
 O87 O 0.81938 0.66504 0.17109
 O88 O 0.78105 0.72623 0.13308
 C89 C 0.81007 0.68722 0.13705
 O90 O 0.63559 0.65211 0.28435
 Zr91 Zr 0.67091 0.69013 0.23517
 O92 O 0.68931 0.73354 0.13478
 O93 O 0.78429 0.60341 0.21849
 O94 O 0.67435 0.61035 0.22235
 O95 O 0.59290 0.70648 0.23415
 O96 O 0.64627 0.67745 0.17435
 C97 C 0.65777 0.69718 0.13980
 O98 O 0.77976 0.81752 0.13904
 O99 O 0.69685 0.89399 0.27950
 O100 O 0.69381 0.82722 0.15533
 O101 O 0.66239 0.86556 0.21336
 O102 O 0.81115 0.88680 0.27632
 O103 O 0.84196 0.85454 0.21087
 C104 C 0.66828 0.86185 0.17419
 H105 H 0.75191 0.83130 0.31764
 H106 H 0.83560 0.75900 0.19118
 H107 H 0.64270 0.77101 0.19715
 H108 H 0.73311 0.63973 0.28077
 H109 H 0.90917 0.81851 0.26700
 H110 H 0.88838 0.64646 0.22130
 H111 H 0.81721 0.58692 0.21355
 H112 H 0.64056 0.59917 0.21253
 H113 H 0.84573 0.89665 0.28510
 H114 H 0.66337 0.90954 0.28376
 H115 H 0.59440 0.85300 0.26621
 H116 H 0.57556 0.67661 0.22102
 H117 H 0.87314 0.87177 0.22088
 H118 H 0.76582 0.81335 0.11070
 H119 H 0.72130 0.68238 0.38173
 H120 H 0.60908 0.62878 0.27322
 Zr121 Zr 0.76597 0.27299 -0.32412
 O122 O 0.72927 0.32263 -0.36533
 O123 O 0.81930 0.23781 -0.36223
 O124 O 0.81402 0.33294 -0.34251
 O125 O 0.67942 0.17512 -0.33494
 O126 O 0.84498 0.36694 -0.28203
 O127 O 0.72582 0.23234 -0.37091
 O128 O 0.86313 0.18713 -0.31829
 O129 O 0.82793 0.27033 -0.28382
 O130 O 0.76828 0.19830 -0.30218
 O131 O 0.75191 0.32866 -0.27804
 O132 O 0.69530 0.25965 -0.29710
 Zr133 Zr 0.74678 0.23557 -0.18525
 Zr134 Zr 0.81187 0.32290 -0.23609
 Zr135 Zr 0.70047 0.18600 -0.27282
 Zr136 Zr 0.82821 0.19639 -0.26075
 O137 O 0.62112 0.18435 -0.27815
 O138 O 0.90463 0.21759 -0.25175
 O139 O 0.76059 0.17905 -0.23088
 O140 O 0.81677 0.24909 -0.21256
 O141 O 0.74387 0.31081 -0.20608
 O142 O 0.68548 0.23888 -0.22592
 C143 C 0.85314 0.20443 -0.35423
 C144 C 0.69337 0.19582 -0.36858
 C145 C 0.84113 0.36545 -0.32153
 O146 O 0.89053 0.32341 -0.22572
 O147 O 0.82627 0.34014 -0.17337
 O148 O 0.78429 0.27860 -0.13841
 C149 C 0.81318 0.31821 -0.14000
 O150 O 0.65399 0.35174 -0.29956
 Zr151 Zr 0.68446 0.31255 -0.24842
 O152 O 0.69316 0.26923 -0.14717
 O153 O 0.79713 0.40141 -0.22489
 O154 O 0.68823 0.39186 -0.23352
 O155 O 0.60682 0.29533 -0.25553
 O156 O 0.65168 0.32316 -0.19008
 C157 C 0.66001 0.30331 -0.15473
 O158 O 0.78507 0.18709 -0.14413
 O159 O 0.71491 0.10866 -0.28902
 O160 O 0.69974 0.17505 -0.16663
 O161 O 0.67316 0.13739 -0.22715
 O162 O 0.82783 0.11729 -0.27671
 O163 O 0.85551 0.15258 -0.21093
 C164 C 0.67523 0.14047 -0.18760
 H165 H 0.77216 0.17176 -0.32404
 H166 H 0.84465 0.24654 -0.19227
 H167 H 0.65295 0.23104 -0.21294
 H168 H 0.75001 0.36326 -0.28975
 H169 H 0.92540 0.18961 -0.26342
 H170 H 0.90021 0.35924 -0.21878
 H171 H 0.82962 0.41784 -0.21708
 H172 H 0.65386 0.40305 -0.22626
 H173 H 0.86291 0.10725 -0.28272
 H174 H 0.68209 0.09274 -0.29654
 H175 H 0.61144 0.14870 -0.28574
 H176 H 0.58791 0.32468 -0.24384
 H177 H 0.88773 0.13642 -0.21865
 H178 H 0.76849 0.19076 -0.11705
 H179 H 0.74602 0.31879 -0.39234
 H180 H 0.62799 0.37602 -0.28993
 Zr181 Zr 0.27068 0.76109 -0.31693
 O182 O 0.32257 0.72525 -0.35684
 O183 O 0.23640 0.81255 -0.35627
 O184 O 0.22908 0.72011 -0.36354
 O185 O 0.34906 0.85312 -0.27389
 O186 O 0.17830 0.66588 -0.32846
 O187 O 0.32578 0.81504 -0.33506
 O188 O 0.17176 0.84370 -0.31784
 O189 O 0.19642 0.75213 -0.29787
 O190 O 0.25554 0.82324 -0.27740
 O191 O 0.26811 0.68961 -0.28840
 O192 O 0.32518 0.75836 -0.26909
 Zr193 Zr 0.23001 0.74174 -0.17832
 Zr194 Zr 0.19481 0.68304 -0.26625
 Zr195 Zr 0.30634 0.81861 -0.22840
 Zr196 Zr 0.18233 0.81327 -0.25790
 O197 O 0.38353 0.81681 -0.21197
 O198 O 0.10785 0.79436 -0.27673
 O199 O 0.23243 0.81349 -0.20687
 O200 O 0.17625 0.74414 -0.22645
 O201 O 0.24565 0.67890 -0.21715
 O202 O 0.30424 0.74950 -0.19782
 C203 C 0.19738 0.84051 -0.35142
 C204 C 0.35159 0.84795 -0.31324
 C205 C 0.19440 0.68525 -0.36190
 O206 O 0.11556 0.68188 -0.27260
 O207 O 0.16868 0.63687 -0.21859
 O208 O 0.17602 0.68679 -0.16054
 C209 C 0.16123 0.64584 -0.18004
 O210 O 0.37078 0.67046 -0.28494
 Zr211 Zr 0.31836 0.68876 -0.23813
 O212 O 0.26503 0.68937 -0.13954
 O213 O 0.20745 0.60499 -0.28146
 O214 O 0.31166 0.60883 -0.24946
 O215 O 0.39306 0.70115 -0.21652
 O216 O 0.32476 0.65272 -0.18043
 C217 C 0.30080 0.65755 -0.14625
 O218 O 0.17649 0.77515 -0.13846
 O219 O 0.29395 0.89839 -0.22326
 O220 O 0.26584 0.78756 -0.13149
 O221 O 0.31450 0.84357 -0.16664
 O222 O 0.18501 0.89415 -0.25153
 O223 O 0.13444 0.83854 -0.20979
 C224 C 0.29758 0.82516 -0.13312
 H225 H 0.25894 0.85691 -0.29048
 H226 H 0.14184 0.74034 -0.21560
 H227 H 0.32930 0.74903 -0.17509
 H228 H 0.27580 0.66180 -0.30847
 H229 H 0.09171 0.82633 -0.28587
 H230 H 0.10584 0.64590 -0.27883
 H231 H 0.17408 0.58833 -0.28497
 H232 H 0.34106 0.59243 -0.23629
 H233 H 0.15440 0.90769 -0.26503
 H234 H 0.32698 0.91459 -0.21692
 H235 H 0.39407 0.85260 -0.20577
 H236 H 0.40705 0.66734 -0.20942
 H237 H 0.10695 0.85931 -0.22149
 H238 H 0.18131 0.75939 -0.11120
 H239 H 0.31719 0.74029 -0.38429
 H240 H 0.39104 0.64069 -0.27651
 Zr241 Zr 1.24173 1.22116 0.82408
 O242 O 1.19735 1.16924 0.85730
 O243 O 1.28857 1.25064 0.87131
 O244 O 1.28665 1.16145 0.84684
 O245 O 1.15632 1.32145 0.82640
 O246 O 1.32681 1.12993 0.79009
 O247 O 1.19423 1.26071 0.86544
 O248 O 1.34183 1.30215 0.83626
 O249 O 1.31029 1.22585 0.79340
 O250 O 1.24931 1.29717 0.80626
 O251 O 1.23629 1.16815 0.77458
 O252 O 1.17749 1.23597 0.78755
 Zr253 Zr 1.25098 1.26677 0.68651
 Zr254 Zr 1.30339 1.17616 0.74210
 Zr255 Zr 1.18805 1.31134 0.76765
 Zr256 Zr 1.31627 1.30115 0.77439
 O257 O 1.10857 1.31287 0.76408
 O258 O 1.39352 1.28161 0.77393
 O259 O 1.25557 1.32082 0.73561
 O260 O 1.31428 1.25134 0.72310
 O261 O 1.24275 1.19006 0.70265
 O262 O 1.18249 1.26094 0.71735
 C263 C 1.32608 1.28156 0.86947
 C264 C 1.16400 1.29861 0.86060
 C265 C 1.31729 1.13063 0.82864
 O266 O 1.38293 1.17546 0.74362
 O267 O 1.33006 1.16191 0.68228
 O268 O 1.29560 1.22535 0.64414
 C269 C 1.32325 1.18538 0.64832
 O270 O 1.13439 1.13657 0.77305
 Zr271 Zr 1.17625 1.18617 0.73558
 O272 O 1.20563 1.23852 0.63869
 O273 O 1.28960 1.09838 0.72618
 O274 O 1.18139 1.10815 0.71740
 O275 O 1.09847 1.20306 0.73432
 O276 O 1.15542 1.18254 0.67238
 C277 C 1.17036 1.20521 0.63971
 O278 O 1.29799 1.31844 0.65547
 O279 O 1.20176 1.38843 0.78560
 O280 O 1.20746 1.32590 0.66243
 O281 O 1.16602 1.35806 0.71842
 O282 O 1.31435 1.37821 0.79607
 O283 O 1.35130 1.34993 0.73166
 C284 C 1.17524 1.35567 0.67957
 H285 H 1.25007 1.32199 0.82968
 H286 H 1.34566 1.25492 0.70733
 H287 H 1.15238 1.26864 0.70051
 H288 H 1.23180 1.13290 0.78454
 H289 H 1.41198 1.30859 0.78987
 H290 H 1.39335 1.13994 0.73692
 H291 H 1.32280 1.08194 0.72266
 H292 H 1.14910 1.09861 0.70368
 H293 H 1.34806 1.38667 0.80772
 H294 H 1.16843 1.40475 0.78853
 H295 H 1.09824 1.34865 0.76990
 H296 H 1.08182 1.17570 0.71745
 H297 H 1.38147 1.36605 0.74462
 H298 H 1.28818 1.31638 0.62594
 H299 H 1.20877 1.17184 0.88644
 H300 H 1.12842 1.15549 0.79922
 Zr301 Zr 0.72611 0.73037 0.81524
 O302 O 0.74988 0.75664 0.87447
 O303 O 0.66724 0.68071 0.83182
 O304 O 0.67253 0.77647 0.84557
 O305 O 0.82194 0.64082 0.80474
 O306 O 0.64628 0.83172 0.79635
 O307 O 0.76418 0.67413 0.84908
 O308 O 0.63325 0.65587 0.76977
 O309 O 0.67203 0.74536 0.76985
 O310 O 0.73181 0.67132 0.77127
 O311 O 0.74457 0.80311 0.79309
 O312 O 0.80119 0.73257 0.79493
 Zr313 Zr 0.77103 0.76173 0.67879
 Zr314 Zr 0.69245 0.81605 0.74563
 Zr315 Zr 0.80466 0.67559 0.74855
 Zr316 Zr 0.67996 0.68801 0.72506
 O317 O 0.88359 0.67282 0.75722
 O318 O 0.60506 0.70995 0.71138
 O319 O 0.75267 0.68851 0.70092
 O320 O 0.69639 0.75907 0.69961
 O321 O 0.76566 0.82136 0.72257
 O322 O 0.82486 0.74593 0.72419
 C323 C 0.63456 0.65617 0.80937
 C324 C 0.80166 0.64495 0.84037
 C325 C 0.64463 0.81294 0.83253
 O326 O 0.61645 0.82036 0.72592
 O327 O 0.68504 0.85977 0.69243
 O328 O 0.73980 0.82393 0.64678
 C329 C 0.70604 0.85687 0.65705
 O330 O 0.83860 0.82683 0.82940
 Zr331 Zr 0.81725 0.80357 0.76880
 O332 O 0.83139 0.80881 0.66165
 O333 O 0.70427 0.89331 0.76406
 O334 O 0.81260 0.88365 0.77917
 O335 O 0.89210 0.78242 0.78300
 O336 O 0.86175 0.83802 0.72369
 C337 C 0.86221 0.83559 0.68412
 O338 O 0.74163 0.73936 0.62023
 O339 O 0.79203 0.59581 0.74134
 O340 O 0.81836 0.71079 0.64625
 O341 O 0.83338 0.64789 0.69252
 O342 O 0.68337 0.60750 0.71615
 O343 O 0.66553 0.66815 0.66225
 C344 C 0.83531 0.66667 0.65634
 H345 H 0.72562 0.63719 0.78291
 H346 H 0.67233 0.76542 0.67684
 H347 H 0.85938 0.74409 0.71325
 H348 H 0.74224 0.82961 0.81519
 H349 H 0.58418 0.67845 0.71006
 H350 H 0.60532 0.85607 0.73093
 H351 H 0.67242 0.91147 0.75842
 H352 H 0.84745 0.89723 0.78090
 H353 H 0.64835 0.59441 0.71477
 H354 H 0.82496 0.57884 0.74501
 H355 H 0.89360 0.63672 0.75264
 H356 H 0.91247 0.81429 0.78385
 H357 H 0.63462 0.64696 0.66007
 H358 H 0.76299 0.75543 0.59920
 H359 H 0.72934 0.73850 0.89496
 H360 H 0.83436 0.79656 0.84684
 Zr361 Zr 1.26668 0.77122 0.18216
 O362 O 1.23137 0.82505 0.14375
 O363 O 1.31701 0.73578 0.14152
 O364 O 1.31868 0.82794 0.16443
 O365 O 1.17469 0.67867 0.17058
 O366 O 1.35610 0.85439 0.22484
 O367 O 1.22358 0.73434 0.13516
 O368 O 1.35865 0.67914 0.18194
 O369 O 1.32952 0.76246 0.22070
 O370 O 1.26491 0.69550 0.20174
 O371 O 1.25803 0.82579 0.23007
 O372 O 1.19625 0.76168 0.21064
 Zr373 Zr 1.24982 0.72940 0.32033
 Zr374 Zr 1.31869 0.81378 0.27030
 Zr375 Zr 1.19744 0.68671 0.23267
 Zr376 Zr 1.32605 0.68760 0.24119
 O377 O 1.11818 0.69110 0.22809
 O378 O 1.40384 0.70342 0.24896
 O379 O 1.25845 0.67403 0.27267
 O380 O 1.31960 0.73880 0.29151
 O381 O 1.25112 0.80546 0.30164
 O382 O 1.18755 0.73852 0.28140
 C383 C 1.34941 0.70019 0.14705
 C384 C 1.18953 0.69929 0.13712
 C385 C 1.35069 0.85523 0.18556
 O386 O 1.39696 0.80794 0.28149
 O387 O 1.33328 0.82967 0.33307
 O388 O 1.28976 0.76893 0.36755
 C389 C 1.31941 0.80785 0.36624
 O390 O 1.16120 0.85683 0.21200
 Zr391 Zr 1.19061 0.81318 0.26109
 O392 O 1.19848 0.76432 0.36067
 O393 O 1.31070 0.89341 0.28130
 O394 O 1.20068 0.89140 0.27797
 O395 O 1.11185 0.80158 0.25554
 O396 O 1.16042 0.82391 0.32069
 C397 C 1.16768 0.80142 0.35519
 O398 O 1.28759 0.67777 0.35923
 O399 O 1.20614 0.60877 0.21547
 O400 O 1.20194 0.67007 0.33869
 O401 O 1.16708 0.63987 0.27836
 O402 O 1.31955 0.60944 0.22290
 O403 O 1.35242 0.63947 0.28863
 C404 C 1.17260 0.63982 0.31780
 H405 H 1.26675 0.66977 0.17905
 H406 H 1.34771 0.73370 0.31122
 H407 H 1.15508 0.73236 0.29505
 H408 H 1.25848 0.86093 0.21929
 H409 H 1.42236 0.67490 0.23563
 H410 H 1.40931 0.84286 0.28867
 H411 H 1.34427 0.90684 0.28968
 H412 H 1.16753 0.90485 0.28645
 H413 H 1.35345 0.59748 0.21496
 H414 H 1.17217 0.59546 0.20822
 H415 H 1.10586 0.65632 0.22040
 H416 H 1.09535 0.83167 0.26848
 H417 H 1.38293 0.62135 0.27921
 H418 H 1.27231 0.68109 0.38686
 H419 H 1.24710 0.82171 0.11630
 H420 H 1.13720 0.88232 0.22305
 Zr421 Zr 0.76505 1.26296 0.18302
 O422 O 0.81871 1.23632 0.14014
 O423 O 0.72020 1.30978 0.14626
 O424 O 0.72992 1.21780 0.13608
 O425 O 0.83900 1.35983 0.22564
 O426 O 0.67790 1.16407 0.17039
 O427 O 0.81402 1.32196 0.16467
 O428 O 0.65711 1.33602 0.18850
 O429 O 0.69267 1.24847 0.20435
 O430 O 0.74892 1.32210 0.22511
 O431 O 0.76829 1.18964 0.20844
 O432 O 0.82283 1.26087 0.22815
 Zr433 Zr 0.73607 1.23249 0.32109
 Zr434 Zr 0.69677 1.17755 0.23296
 Zr435 Zr 0.80362 1.31795 0.27188
 Zr436 Zr 0.67793 1.30635 0.24737
 O437 O 0.88219 1.32296 0.28229
 O438 O 0.60246 1.28411 0.23477
 O439 O 0.73179 1.30643 0.29615
 O440 O 0.67849 1.23499 0.27606
 O441 O 0.75164 1.17256 0.27951
 O442 O 0.80783 1.24645 0.29844
 C443 C 0.67871 1.33341 0.15300
 C444 C 0.83866 1.35601 0.18603
 C445 C 0.69583 1.18260 0.13719
 O446 O 0.61752 1.17305 0.22742
 O447 O 0.66918 1.13022 0.27940
 O448 O 0.68891 1.17255 0.33966
 C449 C 0.66847 1.13538 0.31887
 O450 O 0.86952 1.17422 0.20469
 Zr451 Zr 0.82235 1.18859 0.25591
 O452 O 0.77923 1.18234 0.35622
 O453 O 0.71343 1.10078 0.21646
 O454 O 0.81785 1.10849 0.24490
 O455 O 0.89867 1.20480 0.27089
 O456 O 0.84031 1.15356 0.31290
 C457 C 0.81885 1.15607 0.34833
 O458 O 0.68273 1.26056 0.36366
 O459 O 0.78469 1.39522 0.28392
 O460 O 0.77240 1.27396 0.36940
 O461 O 0.81818 1.33380 0.33571
 O462 O 0.67695 1.38722 0.25406
 O463 O 0.63505 1.32750 0.29972
 C464 C 0.80444 1.31103 0.36883
 H465 H 0.74849 1.35622 0.21248
 H466 H 0.64533 1.22849 0.28849
 H467 H 0.83522 1.24603 0.31922
 H468 H 0.77624 1.16337 0.18715
 H469 H 0.58349 1.31547 0.22819
 H470 H 0.60918 1.13744 0.21868
 H471 H 0.68084 1.08300 0.21166
 H472 H 0.84953 1.09352 0.25536
 H473 H 0.64410 1.39902 0.24327
 H474 H 0.81675 1.41354 0.28976
 H475 H 0.88970 1.35872 0.29117
 H476 H 0.91579 1.17168 0.27499
 H477 H 0.60608 1.34845 0.29096
 H478 H 0.68934 1.24346 0.39013
 H479 H 0.81043 1.25200 0.11337
 H480 H 0.89045 1.14383 0.21010
 O481 O 0.46117 1.11108 0.01454
 O482 O 0.56440 0.91390 0.03488
 O483 O 0.41477 0.96326 0.04997
 O484 O 0.60919 1.05946 -0.00093
 O485 O 0.48742 0.93666 0.06705
 O486 O 0.54951 1.09958 0.02740
 O487 O 0.59925 0.98651 0.03882
 O488 O 0.43304 1.05327 0.05346
 C489 C 0.44300 1.09887 0.04821
 C490 C 0.58983 0.94585 0.05512
 C491 C 0.44381 0.94613 0.07676
 C492 C 0.59509 1.09137 0.02545
 O493 O 0.56120 1.08323 -0.05622
 O494 O 0.43583 0.90494 -0.00188
 O495 O 0.40871 1.06033 -0.02743
 O496 O 0.58788 0.92773 -0.03196
 O497 O 0.51290 0.90115 -0.03826
 O498 O 0.47288 1.07475 -0.06374
 O499 O 0.57643 1.00495 -0.06912
 O500 O 0.40565 0.96799 -0.03389
 Co501 Co 0.51063 1.08350 -0.01770
 Co502 Co 0.50082 0.92251 0.01377
 Co503 Co 0.42403 1.01038 0.00919
 Co504 Co 0.58468 0.99520 -0.01455
 O505 O 0.50490 1.00289 -0.00228
 C506 C 0.57654 1.04951 -0.08074
 C507 C 0.40656 0.92127 -0.02890
 C508 C 0.42720 1.06725 -0.06182
 C509 C 0.55582 0.90221 -0.05185
 O510 O 0.95958 0.59975 0.52888
 O511 O 1.03621 0.38279 0.54391
 O512 O 0.90715 0.46461 0.53694
 O513 O 1.08716 0.54532 0.54010
 O514 O 0.97885 0.45075 0.56639
 O515 O 1.05192 0.60681 0.50797
 O516 O 1.07926 0.45548 0.54648
 O517 O 0.89874 0.54859 0.50893
 C518 C 0.91683 0.58086 0.53447
 C519 C 1.07200 0.41099 0.56003
 C520 C 0.93276 0.45706 0.56928
 C521 C 1.08316 0.59173 0.53400
 O522 O 1.02762 0.57839 0.43365
 O523 O 0.94309 0.38660 0.50887
 O524 O 0.92635 0.50916 0.43286
 O525 O 1.08789 0.44254 0.46243
 O526 O 1.01950 0.40035 0.46862
 O527 O 0.93636 0.58629 0.45086
 O528 O 1.09498 0.53808 0.45688
 O529 O 0.93312 0.43077 0.45753
 Co530 Co 0.99405 0.58436 0.48176
 Co531 Co 1.00032 0.42905 0.51643
 Co532 Co 0.92209 0.48925 0.48497
 Co533 Co 1.07917 0.49539 0.50051
 O534 O 0.99799 0.50213 0.49463
 C535 C 1.07214 0.56328 0.42932
 C536 C 0.92157 0.39118 0.47474
 C537 C 0.92256 0.55424 0.42451
 C538 C 1.06036 0.40553 0.45183
 O539 O 1.07446 0.50681 0.06996
 O540 O 1.05372 0.50297 -0.07610
 O541 O 1.05646 0.40959 -0.00486
 O542 O 1.06825 0.59515 0.00273
 O543 O 1.02077 0.41890 -0.06292
 O544 O 1.04201 0.59254 0.06327
 O545 O 1.03496 0.58108 -0.06446
 O546 O 1.04570 0.43012 0.06537
 C547 C 1.08080 0.46044 0.07508
 C548 C 1.06192 0.54862 -0.08227
 C549 C 1.05570 0.40047 -0.04217
 C550 C 1.07538 0.60560 0.03946
 O551 O 0.94782 0.55665 0.06931
 O552 O 0.92866 0.45882 -0.05585
 O553 O 0.94227 0.43403 0.05175
 O554 O 0.93914 0.58350 -0.03212
 O555 O 0.95904 0.53851 -0.08366
 O556 O 0.98320 0.47874 0.09518
 O557 O 0.97031 0.61555 0.02904
 O558 O 0.95462 0.39959 -0.01619
 Co559 Co 1.01083 0.53097 0.06703
 Co560 Co 0.99168 0.48263 -0.06234
 Co561 Co 0.99978 0.42678 0.02211
 Co562 Co 1.00330 0.58555 -0.01444
 O563 O 1.00150 0.50631 0.00292
 C564 C 0.93866 0.59808 0.05314
 C565 C 0.92227 0.41619 -0.04090
 C566 C 0.94586 0.45182 0.08707
 C567 C 0.92752 0.56601 -0.06613
 O568 O 0.58131 1.00437 0.56877
 O569 O 0.55482 0.99341 0.42407
 O570 O 0.56188 0.90547 0.49473
 O571 O 0.56829 1.09094 0.50013
 O572 O 0.52134 0.91011 0.43896
 O573 O 0.54427 1.08900 0.56114
 O574 O 0.53530 1.07180 0.43427
 O575 O 0.55499 0.92657 0.56432
 C576 C 0.58986 0.95797 0.57193
 C577 C 0.56292 1.03894 0.41750
 C578 C 0.55927 0.89541 0.45776
 C579 C 0.57670 1.10188 0.53654
 O580 O 0.45318 1.05031 0.57197
 O581 O 0.43045 0.95102 0.44816
 O582 O 0.45067 0.92700 0.55560
 O583 O 0.43877 1.07273 0.46718
 O584 O 0.46061 1.02859 0.41590
 O585 O 0.49295 0.97336 0.59701
 O586 O 0.46981 1.10770 0.52785
 O587 O 0.45871 0.89272 0.48783
 Co588 Co 0.51663 1.02626 0.56742
 Co589 Co 0.49309 0.97388 0.43914
 Co590 Co 0.50623 0.92098 0.52355
 Co591 Co 0.50332 1.07789 0.48430
 O592 O 0.50477 0.99971 0.50358
 C593 C 0.44213 1.09134 0.55567
 C594 C 0.42501 0.90880 0.46410
 C595 C 0.45700 0.94371 0.59098
 C596 C 0.42874 1.05638 0.43246
 O597 O 1.06409 1.05038 0.43788
 O598 O 0.92244 1.03512 0.54890
 O599 O 0.96498 1.03994 0.43339
 O600 O 1.08421 1.05729 0.56302
 O601 O 0.90722 1.02298 0.47575
 O602 O 1.08698 1.08139 0.50212
 O603 O 0.99127 1.07653 0.56929
 O604 O 1.03496 0.98865 0.40286
 C605 C 1.05894 1.02931 0.40351
 C606 C 0.94455 1.07501 0.56359
 C607 C 0.92192 1.04817 0.44604
 C608 C 1.09103 1.09204 0.53896
 O609 O 1.11972 0.98324 0.52568
 O610 O 0.93528 0.92343 0.47896
 O611 O 1.02227 0.91553 0.45142
 O612 O 0.97861 0.98570 0.59407
 O613 O 0.94988 0.93177 0.55063
 O614 O 1.09530 0.95271 0.45657
 O615 O 1.06945 0.96498 0.57735
 O616 O 0.94626 0.94584 0.41503
 Co617 Co 1.08570 1.01550 0.48240
 Co618 Co 0.93584 0.98039 0.51282
 Co619 Co 0.99286 0.97832 0.44591
 Co620 Co 1.02905 1.01937 0.56920
 O621 O 1.01324 1.00051 0.50381
 C622 C 1.11016 0.95882 0.55853
 C623 C 0.92279 0.91819 0.44137
 C624 C 1.06912 0.91305 0.44943
 C625 C 0.95980 0.94318 0.58677
 O626 O 0.55523 0.55481 -0.05746
 O627 O 0.40630 0.54408 0.03995
 O628 O 0.43049 0.52640 -0.07708
 O629 O 0.56363 0.53658 0.06901
 O630 O 0.38116 0.50656 -0.02587
 O631 O 0.56587 0.56768 0.01057
 O632 O 0.48041 0.57287 0.05094
 O633 O 0.51835 0.50365 -0.09907
 C634 C 0.54174 0.54401 -0.09287
 C635 C 0.43458 0.58024 0.05072
 C636 C 0.39044 0.53246 -0.05769
 C637 C 0.57935 0.57056 0.04666
 O638 O 0.59223 0.46550 0.02250
 O639 O 0.41633 0.41220 0.00210
 O640 O 0.50777 0.41357 -0.07262
 O641 O 0.48147 0.50610 0.10615
 O642 O 0.43834 0.45183 0.06729
 O643 O 0.57818 0.45208 -0.05187
 O644 O 0.53146 0.44497 0.06328
 O645 O 0.41585 0.43260 -0.06035
 Co646 Co 0.56674 0.50835 -0.01777
 Co647 Co 0.41723 0.47983 0.01839
 Co648 Co 0.47007 0.47126 -0.07056
 Co649 Co 0.50328 0.50790 0.05430
 O650 O 0.49104 0.49278 -0.00671
 C651 C 0.57554 0.43798 0.05111
 C652 C 0.41011 0.39931 -0.03444
 C653 C 0.55475 0.41404 -0.06791
 C654 C 0.44520 0.47271 0.10271
 N655 N 0.43305 1.18930 0.07063
 N656 N 0.40964 1.21562 0.09961
 C657 C 0.38934 1.18277 0.12621
 C658 C 0.40043 1.13300 0.11365
 C659 C 0.42777 1.13903 0.07784
 H660 H 0.38721 1.09772 0.12671
 H661 H 0.45042 1.20566 0.04539
 H662 H 0.40637 1.25544 0.10032
 N663 N 0.85175 0.56332 0.58541
 N664 N 0.83191 0.58508 0.61822
 C665 C 0.85244 0.63181 0.62384
 C666 C 0.88773 0.64031 0.59353
 C667 C 0.88617 0.59533 0.56994
 H668 H 0.91082 0.67394 0.58927
 H669 H 0.84185 0.52694 0.57410
 H670 H 0.80387 0.56850 0.63589
 N671 N 0.61773 0.97115 0.12563
 N672 N 0.63746 0.94867 0.15800
 C673 C 0.64312 0.89872 0.14846
 C674 C 0.62558 0.88850 0.10903
 C675 C 0.61002 0.93538 0.09573
 H676 H 0.62575 0.85244 0.09201
 H677 H 0.61005 1.01022 0.12406
 H678 H 0.64834 0.96755 0.18534
 N679 N 1.07782 0.42894 0.63435
 N680 N 1.10759 0.41784 0.66559
 C681 C 1.14199 0.38398 0.65232
 C682 C 1.13341 0.37249 0.61089
 C683 C 1.09188 0.40130 0.60103
 H684 H 1.15390 0.34641 0.59104
 H685 H 1.04870 0.45554 0.63577
 H686 H 1.10368 0.43261 0.69549
 N687 N 0.60738 1.03143 -0.15175
 N688 N 0.63377 1.05539 -0.17977
 C689 C 0.64611 1.10242 -0.16499
 C690 C 0.62591 1.10911 -0.12618
 C691 C 0.60148 1.06324 -0.11906
 H692 H 0.62901 1.14234 -0.10585
 H693 H 0.59382 0.99398 -0.15503
 H694 H 0.64365 1.03942 -0.20826
 N695 N 1.07472 0.55892 0.35341
 N696 N 1.10175 0.57838 0.32370
 C697 C 1.14057 0.60481 0.34077
 C698 C 1.13873 0.60114 0.38332
 C699 C 1.09621 0.57192 0.38986
 H700 H 1.16205 0.62080 0.40620
 H701 H 1.04103 0.53878 0.34878
 H702 H 1.09192 0.57604 0.29250
 N703 N 0.35056 0.84446 -0.03194
 N704 N 0.32024 0.82041 -0.05856
 C705 C 0.31947 0.84610 -0.09407
 C706 C 0.35047 0.88916 -0.08943
 C707 C 0.36960 0.88646 -0.04954
 H708 H 0.36016 0.91666 -0.11253
 H709 H 0.35866 0.83171 -0.00235
 H710 H 0.30245 0.78554 -0.05304
 N711 N 0.85998 0.31707 0.47109
 N712 N 0.82740 0.29807 0.44344
 C713 C 0.83052 0.32486 0.40836
 C714 C 0.86702 0.36226 0.41411
 C715 C 0.88486 0.35614 0.45416
 H716 H 0.87938 0.38998 0.39204
 H717 H 0.86461 0.30369 0.50094
 H718 H 0.80411 0.26656 0.44838
 N719 N 1.17274 0.45947 0.09184
 N720 N 1.20355 0.43313 0.11556
 C721 C 1.17622 0.39935 0.13679
 C722 C 1.12611 0.40357 0.12562
 C723 C 1.12556 0.44195 0.09693
 H724 H 1.09455 0.38170 0.13668
 H725 H 1.18403 0.48830 0.07213
 H726 H 1.24242 0.43870 0.11744
 N727 N 0.67835 0.92872 0.56683
 N728 N 0.70899 0.90026 0.58903
 C729 C 0.68786 0.89263 0.62590
 C730 C 0.64201 0.91734 0.62716
 C731 C 0.63738 0.93976 0.58924
 H732 H 0.61374 0.91505 0.65076
 H733 H 0.68388 0.93732 0.53596
 H734 H 0.74239 0.88432 0.57825
 N735 N 1.11111 0.52969 -0.14231
 N736 N 1.13613 0.55798 -0.17163
 C737 C 1.13735 0.60722 -0.15846
 C738 C 1.11222 0.61185 -0.12123
 C739 C 1.09544 0.56258 -0.11275
 H740 H 1.10513 0.64666 -0.10366
 H741 H 1.10264 0.49070 -0.14529
 H742 H 1.15190 0.54256 -0.19841
 N743 N 0.61527 1.01997 0.35652
 N744 N 0.64169 1.04568 0.32965
 C745 C 0.64317 1.09524 0.34171
 C746 C 0.61636 1.10164 0.37772
 C747 C 0.59893 1.05291 0.38581
 H748 H 0.60885 1.13690 0.39455
 H749 H 0.60715 0.98089 0.35387
 H750 H 0.65812 1.02945 0.30345
 N751 N 0.87747 0.66882 0.04360
 N752 N 0.84236 0.69208 0.06543
 C753 C 0.83710 0.66731 0.10105
 C754 C 0.86957 0.62597 0.10155
 C755 C 0.89487 0.62874 0.06487
 H756 H 0.87711 0.60045 0.12668
 H757 H 0.89063 0.68152 0.01540
 H758 H 0.82469 0.72596 0.05706
 N759 N 0.38168 1.16327 0.55082
 N760 N 0.35038 1.18826 0.57518
 C761 C 0.34974 1.16535 0.61190
 C762 C 0.38149 1.12332 0.61063
 C763 C 0.40126 1.12368 0.57140
 H764 H 0.39125 1.09812 0.63547
 H765 H 0.39044 1.17411 0.52098
 H766 H 0.33123 1.22143 0.56710
 N767 N 0.86521 0.34009 -0.03889
 N768 N 0.83602 0.31417 -0.06527
 C769 C 0.83433 0.33931 -0.10107
 C770 C 0.86274 0.38370 -0.09692
 C771 C 0.88196 0.38258 -0.05719
 H772 H 0.87199 0.41052 -0.12066
 H773 H 0.87522 0.32761 -0.00960
 H774 H 0.82007 0.27847 -0.05953
 N775 N 0.37039 0.83112 0.46730
 N776 N 0.34239 0.80391 0.44089
 C777 C 0.33960 0.82915 0.40521
 C778 C 0.36562 0.87484 0.40941
 C779 C 0.38494 0.87446 0.44901
 H780 H 0.37374 0.90201 0.38565
 H781 H 0.38148 0.81885 0.49639
 H782 H 0.32827 0.76738 0.44647
 N783 N 1.06545 1.03650 0.32738
 N784 N 1.08815 1.06655 0.30108
 C785 C 1.11426 1.10281 0.32245
 C786 C 1.10769 1.09574 0.36415
 C787 C 1.07659 1.05327 0.36589
 H788 H 1.12411 1.11762 0.38962
 H789 H 1.04307 1.00495 0.31898
 H790 H 1.08647 1.06154 0.26912
 N791 N 0.53525 0.56976 -0.16567
 N792 N 0.55953 0.59927 -0.19130
 C793 C 0.59637 0.62457 -0.17044
 C794 C 0.59505 0.61096 -0.12933
 C795 C 0.55587 0.57566 -0.12784
 H796 H 0.62088 0.62231 -0.10478
 H797 H 0.50595 0.54490 -0.17435
 H798 H 0.55185 0.60062 -0.22286
 N799 N 0.88444 1.14523 0.55014
 N800 N 0.86220 1.18187 0.57168
 C801 C 0.87876 1.18007 0.61100
 C802 C 0.91365 1.14129 0.61443
 C803 C 0.91538 1.11982 0.57542
 H804 H 0.93167 1.12754 0.64210
 H805 H 0.87785 1.13741 0.51895
 H806 H 0.83395 1.20536 0.56011
 N807 N 0.38398 0.65960 0.04528
 N808 N 0.36140 0.69145 0.07117
 C809 C 0.37517 0.68015 0.11004
 C810 C 0.40889 0.63990 0.10860
 C811 C 0.41348 0.62813 0.06698
 H812 H 0.42356 0.61850 0.13421
 H813 H 0.37690 0.65758 0.01360
 H814 H 0.33430 0.71799 0.06238
 N815 N 1.18716 0.90986 0.55551
 N816 N 1.21106 0.87486 0.58087
 C817 C 1.18341 0.87029 0.61521
 C818 C 1.14135 0.90106 0.61235
 C819 C 1.14507 0.92506 0.57466
 H820 H 1.11199 0.90576 0.63491
 H821 H 1.19978 0.92083 0.52667
 H822 H 1.24513 0.85698 0.57421
 N823 N 0.65306 0.38591 0.05342
 N824 N 0.68005 0.35991 0.08002
 C825 C 0.65613 0.35867 0.11637
 C826 C 0.61065 0.38501 0.11215
 C827 C 0.61040 0.40171 0.07137
 H828 H 0.58314 0.39293 0.13567
 H829 H 0.66468 0.39402 0.02365
 H830 H 0.71518 0.34430 0.07342
 N831 N 0.86950 0.84138 0.45176
 N832 N 0.84634 0.80698 0.42788
 C833 C 0.85685 0.81746 0.38848
 C834 C 0.88757 0.85970 0.38700
 C835 C 0.89404 0.87398 0.42742
 H836 H 0.90072 0.87933 0.36012
 H837 H 0.86718 0.84325 0.48382
 H838 H 0.82216 0.77862 0.43837
 N839 N 0.35868 0.31956 -0.02718
 N840 N 0.33524 0.28802 -0.05361
 C841 C 0.35154 0.29752 -0.09190
 C842 C 0.38749 0.33547 -0.08951
 C843 C 0.39011 0.34948 -0.04837
 H844 H 0.40392 0.35548 -0.11496
 H845 H 0.34958 0.32376 0.00388
 H846 H 0.30563 0.26379 -0.04589
 N847 N 1.12227 0.33405 -0.03829
 N848 N 1.14987 0.30634 -0.06381
 C849 C 1.13793 0.31872 -0.10275
 C850 C 1.10076 0.35587 -0.10196
 C851 C 1.09197 0.36445 -0.06041
 H852 H 1.08340 0.37469 -0.12781
 H853 H 1.12437 0.33211 -0.00624
 H854 H 1.17716 0.28026 -0.05453
 N855 N 0.63308 0.83774 0.45856
 N856 N 0.66164 0.81346 0.43165
 C857 C 0.64507 0.82394 0.39342
 C858 C 0.60391 0.85607 0.39601
 C859 C 0.59760 0.86371 0.43791
 H860 H 0.58218 0.87210 0.37109
 H861 H 0.63800 0.83650 0.49046
 H862 H 0.69241 0.79083 0.43949
 N863 N 0.83987 0.59626 -0.06259
 N864 N 0.80627 0.61702 -0.08720
 C865 C 0.82410 0.61601 -0.12581
 C866 C 0.87090 0.59250 -0.12591
 C867 C 0.87966 0.58124 -0.08498
 H868 H 0.89702 0.58937 -0.15110
 H869 H 0.83663 0.59489 -0.03062
 H870 H 0.77313 0.63424 -0.07716
 N871 N 0.34001 1.08320 0.43193
 N872 N 0.30838 1.10593 0.40679
 C873 C 0.33033 1.11105 0.36992
 C874 C 0.37795 1.08942 0.37141
 C875 C 0.38260 1.07275 0.41159
 H876 H 0.40679 1.09059 0.34824
 H877 H 0.33332 1.07720 0.46308
 H878 H 0.27343 1.12016 0.41563
 N879 N 1.15112 0.66327 0.03383
 N880 N 1.18059 0.68943 0.06002
 C881 C 1.16607 0.67952 0.09873
 C882 C 1.12618 0.64575 0.09707
 C883 C 1.11766 0.63646 0.05565
 H884 H 1.10558 0.63046 0.12264
 H885 H 1.15349 0.66455 0.00181
 H886 H 1.21001 0.71340 0.05144
 N887 N 0.65173 1.16007 0.52893
 N888 N 0.68221 1.18606 0.55444
 C889 C 0.66988 1.17500 0.59344
 C890 C 0.63042 1.14077 0.59269
 C891 C 0.61977 1.13240 0.55153
 H892 H 0.61102 1.12507 0.61872
 H893 H 0.65215 1.16235 0.49688
 H894 H 0.71046 1.21107 0.54521
 N895 N 0.91270 0.46337 0.15704
 N896 N 0.88576 0.43763 0.18342
 C897 C 0.86752 0.39509 0.16442
 C898 C 0.88301 0.39398 0.12365
 C899 C 0.91221 0.43795 0.12057
 H900 H 0.87708 0.36390 0.10069
 H901 H 0.93267 0.49687 0.16450
 H902 H 0.88113 0.44861 0.21423
 N903 N 0.43934 0.94538 0.66289
 N904 N 0.41058 0.91767 0.68997
 C905 C 0.38417 0.88219 0.66795
 C906 C 0.39501 0.88679 0.62617
 C907 C 0.43021 0.92662 0.62464
 H908 H 0.38065 0.86342 0.60073
 H909 H 0.46451 0.97449 0.67174
 H910 H 0.41070 0.92394 0.72183
 N911 N 0.40893 1.04500 -0.13423
 N912 N 0.37841 1.06089 -0.16343
 C913 C 0.34629 1.09503 -0.14677
 C914 C 0.35568 1.10007 -0.10496
 C915 C 0.39619 1.06834 -0.09868
 H916 H 0.33998 1.12772 -0.08350
 H917 H 0.43950 1.02078 -0.13908
 H918 H 0.38214 1.05130 -0.19461
 N919 N 0.89428 0.53657 0.35342
 N920 N 0.86682 0.55927 0.32533
 C921 C 0.85195 0.60476 0.34093
 C922 C 0.87110 0.61216 0.38014
 C923 C 0.89779 0.56801 0.38663
 H924 H 0.86615 0.64465 0.40089
 H925 H 0.91010 0.50027 0.34983
 H926 H 0.85827 0.54360 0.29622
 N927 N 0.67598 1.13845 0.03310
 N928 N 0.70225 1.16289 0.06219
 C929 C 0.67641 1.16181 0.09754
 C930 C 0.63101 1.13623 0.09041
 C931 C 0.63237 1.12215 0.04902
 H932 H 0.60201 1.12777 0.11238
 H933 H 0.68795 1.13287 0.00284
 H934 H 0.73787 1.17882 0.05801
 N935 N 1.13198 0.67367 0.53971
 N936 N 1.16328 0.69702 0.56601
 C937 C 1.16887 0.66792 0.59948
 C938 C 1.14000 0.62363 0.59387
 C939 C 1.11711 0.62887 0.55555
 H940 H 1.13502 0.59285 0.61524
 H941 H 1.12105 0.68832 0.51133
 H942 H 1.17889 0.73323 0.56169
 N943 N 0.53424 0.85997 -0.11869
 N944 N 0.55775 0.83716 -0.14948
 C945 C 0.60691 0.83418 -0.13970
 C946 C 0.61551 0.85673 -0.10129
 C947 C 0.56826 0.87277 -0.08917
 H948 H 0.65102 0.86202 -0.08514
 H949 H 0.49579 0.86788 -0.11852
 H950 H 0.54037 0.82413 -0.17674
 N951 N 1.05468 0.31889 0.42039
 N952 N 1.07694 0.29105 0.39171
 C953 C 1.11072 0.32063 0.37296
 C954 C 1.11078 0.36945 0.39081
 C955 C 1.07464 0.36646 0.42103
 H956 H 1.13461 0.40168 0.38370
 H957 H 1.02722 0.30493 0.44001
 H958 H 1.06923 0.25245 0.38536
 N959 N 0.45319 0.93155 0.15144
 N960 N 0.42839 0.90741 0.18018
 C961 C 0.38492 0.88916 0.16377
 C962 C 0.38128 0.90325 0.12303
 C963 C 0.42543 0.93003 0.11658
 H964 H 0.35250 0.89255 0.10061
 H965 H 0.48915 0.94728 0.15537
 H966 H 0.44222 0.90157 0.20992
 N967 N 0.92837 0.46061 0.64544
 N968 N 0.90485 0.43524 0.67426
 C969 C 0.87032 0.40392 0.65619
 C970 C 0.87106 0.41068 0.61400
 C971 C 0.90859 0.44685 0.60853
 H972 H 0.85070 0.38891 0.59044
 H973 H 0.95901 0.48506 0.65090
 H974 H 0.91418 0.43759 0.70556
 N975 N 1.13935 1.17370 0.53526
 N976 N 1.16167 1.20404 0.56309
 C977 C 1.14597 1.19063 0.60073
 C978 C 1.11153 1.15172 0.59674
 C979 C 1.10940 1.14099 0.55513
 H980 H 1.09592 1.12924 0.62116
 H981 H 1.14823 1.17236 0.50403
 H982 H 1.19008 1.23027 0.55657
 N983 N 0.62308 0.65343 0.03961
 N984 N 0.64247 0.68881 0.06467
 C985 C 0.63531 0.67371 0.10351
 C986 C 0.61095 0.62731 0.10354
 C987 C 0.60445 0.61572 0.06267
 H988 H 0.60112 0.60424 0.12958
 H989 H 0.62340 0.65484 0.00751
 H990 H 0.66138 0.72157 0.05522
 N991 N 1.11659 0.83140 0.45468
 N992 N 1.14371 0.80239 0.42960
 C993 C 1.13887 0.81996 0.39100
 C994 C 1.10688 0.86154 0.39158
 C995 C 1.09341 0.86733 0.43239
 H996 H 1.09769 0.88651 0.36645
 H997 H 1.11605 0.82811 0.48665
 H998 H 1.16678 0.77260 0.43918
 N999 N 0.61163 0.34108 -0.05719
 N1000 N 0.63990 0.31129 -0.08051
 C1001 C 0.63026 0.32192 -0.12022
 C1002 C 0.59381 0.35913 -0.12242
 C1003 C 0.58338 0.37024 -0.08189
 H1004 H 0.58028 0.37869 -0.14939
 H1005 H 0.61317 0.34273 -0.02507
 H1006 H 0.66712 0.28636 -0.06925
 N1007 N 0.84233 1.09602 0.44455
 N1008 N 0.81503 1.12294 0.41889
 C1009 C 0.84017 1.12802 0.38349
 C1010 C 0.88653 1.10349 0.38711
 C1011 C 0.88623 1.08380 0.42673
 H1012 H 0.91524 1.09910 0.36401
 H1013 H 0.83002 1.08472 0.47339
 H1014 H 0.77907 1.13652 0.42542
 N1015 N 0.31231 0.58505 -0.05403
 N1016 N 0.28917 0.61879 -0.07727
 C1017 C 0.31515 0.62400 -0.11236
 C1018 C 0.35656 0.59240 -0.11140
 C1019 C 0.35341 0.56843 -0.07393
 H1020 H 0.38519 0.58776 -0.13457
 H1021 H 0.30040 0.57424 -0.02494
 H1022 H 0.25613 0.63771 -0.06917
 N1023 N 0.96492 0.91754 0.65935
 N1024 N 0.93877 0.88999 0.68511
 C1025 C 0.90161 0.86554 0.66404
 C1026 C 0.90474 0.87743 0.62263
 C1027 C 0.94527 0.91108 0.62123
 H1028 H 0.87894 0.86663 0.59792
 H1029 H 0.99455 0.94193 0.66814
 H1030 H 0.94543 0.88948 0.71684
 N1031 N 0.43276 0.46809 0.17807
 N1032 N 0.40793 0.43895 0.20365
 C1033 C 0.38164 0.40365 0.18143
 C1034 C 0.38977 0.41057 0.14001
 C1035 C 0.42253 0.45165 0.13933
 H1036 H 0.37483 0.38830 0.11416
 H1037 H 0.45665 0.49820 0.18714
 H1038 H 0.40938 0.44313 0.23568
   
