data_POSCAR
  _audit_creation_date              2014-09-24
  _audit_creation_method            'ToBaCCo'
  _symmetry_space_group_name_H-M    'P1'
  _symmetry_Int_Tables_number       1
  _symmetry_cell_setting            triclinic
  loop_
  _symmetry_equiv_pos_as_xyz
 x,y,z
_cell_length_a 42.3409
_cell_length_b 42.3920
_cell_length_c 42.5135
_cell_angle_alpha 89.998400
_cell_angle_beta 90.011700
_cell_angle_gamma 90.025500
loop_
  _atom_site_label
  _atom_site_type_symbol
  _atom_site_fract_x
  _atom_site_fract_y
  _atom_site_fract_z
N1 N 0.14399 0.22477 0.22159
 N2 N 0.14957 0.20013 0.23957
 C3 C 0.12730 0.19862 0.26218
 C4 C 0.10695 0.22362 0.25797
 C5 C 0.11803 0.23976 0.23211
 H6 H 0.12569 0.18055 0.28006
 H7 H 0.10773 0.26055 0.22151
 Cu8 Cu 0.18489 0.17208 0.23098
 Cu9 Cu 0.17016 0.23507 0.18533
 Cu10 Cu 0.23359 0.18558 0.17008
 N11 N 0.22072 0.14467 0.22248
 N12 N 0.23970 0.15012 0.19859
 C13 C 0.26207 0.12757 0.19763
 C14 C 0.25670 0.10708 0.22220
 C15 C 0.23039 0.11842 0.23755
 H16 H 0.28062 0.12599 0.18021
 H17 H 0.21906 0.10811 0.25790
 N18 N 0.22349 0.22266 0.14398
 N19 N 0.19934 0.24152 0.14979
 C20 C 0.19830 0.26414 0.12754
 C21 C 0.22292 0.25917 0.10699
 C22 C 0.23844 0.23281 0.11789
 H23 H 0.18076 0.28262 0.12608
 H24 H 0.25881 0.22169 0.10731
 H25 H 0.18535 0.18962 0.17634
 H26 H 0.21099 0.21439 0.20214
 N27 N 0.64446 0.72535 0.72233
 N28 N 0.65012 0.70069 0.74026
 C29 C 0.62792 0.69911 0.76292
 C30 C 0.60752 0.72409 0.75881
 C31 C 0.61851 0.74029 0.73294
 H32 H 0.62637 0.68100 0.78077
 H33 H 0.60814 0.76106 0.72239
 Cu34 Cu 0.68543 0.67268 0.73149
 Cu35 Cu 0.67049 0.73571 0.68598
 Cu36 Cu 0.73389 0.68625 0.67043
 N37 N 0.72121 0.64527 0.72282
 N38 N 0.74010 0.65075 0.69886
 C39 C 0.76243 0.62817 0.69775
 C40 C 0.75714 0.60763 0.72230
 C41 C 0.73091 0.61897 0.73778
 H42 H 0.78089 0.62659 0.68024
 H43 H 0.71963 0.60861 0.75813
 N44 N 0.72369 0.72338 0.64443
 N45 N 0.69955 0.74222 0.65035
 C46 C 0.69843 0.76487 0.62813
 C47 C 0.72298 0.75992 0.60749
 C48 C 0.73854 0.73356 0.61830
 H49 H 0.68087 0.78334 0.62675
 H50 H 0.75888 0.72245 0.60763
 H51 H 0.68567 0.69028 0.67688
 H52 H 0.71140 0.71504 0.70260
 N53 N 0.35459 0.77545 0.72282
 N54 N 0.34895 0.80014 0.74073
 C55 C 0.37120 0.80175 0.76336
 C56 C 0.39160 0.77677 0.75925
 C57 C 0.38056 0.76053 0.73342
 H58 H 0.37279 0.81989 0.78117
 H59 H 0.39092 0.73975 0.72287
 Cu60 Cu 0.31363 0.82812 0.73195
 Cu61 Cu 0.32853 0.76505 0.68651
 Cu62 Cu 0.26512 0.81449 0.67091
 N63 N 0.27784 0.85554 0.72326
 N64 N 0.25893 0.85003 0.69931
 C65 C 0.23661 0.87262 0.69815
 C66 C 0.24196 0.89317 0.72268
 C67 C 0.26819 0.88187 0.73820
 H68 H 0.21816 0.87418 0.68060
 H69 H 0.27952 0.89226 0.75852
 N70 N 0.27531 0.77733 0.64495
 N71 N 0.29944 0.75849 0.65090
 C72 C 0.30059 0.73583 0.62869
 C73 C 0.27605 0.74077 0.60802
 C74 C 0.26047 0.76713 0.61880
 H75 H 0.31817 0.71739 0.62732
 H76 H 0.24016 0.77825 0.60809
 H77 H 0.31335 0.81047 0.67735
 H78 H 0.28763 0.78575 0.70310
 N79 N 0.85540 0.27426 0.22263
 N80 N 0.84968 0.29887 0.24063
 C81 C 0.87190 0.30048 0.26329
 C82 C 0.89235 0.27556 0.25908
 C83 C 0.88142 0.25937 0.23318
 H84 H 0.87341 0.31859 0.28116
 H85 H 0.89185 0.23867 0.22253
 Cu86 Cu 0.81428 0.32678 0.23193
 Cu87 Cu 0.82937 0.26393 0.18625
 Cu88 Cu 0.76586 0.31329 0.17081
 N89 N 0.77846 0.35417 0.22331
 N90 N 0.75959 0.34871 0.19932
 C91 C 0.73723 0.37127 0.19824
 C92 C 0.74248 0.39176 0.22283
 C93 C 0.76873 0.38043 0.23831
 H94 H 0.71878 0.37286 0.18070
 H95 H 0.77999 0.39077 0.25868
 N96 N 0.77613 0.27625 0.14472
 N97 N 0.80031 0.25744 0.15060
 C98 C 0.80146 0.23484 0.12833
 C99 C 0.77689 0.23979 0.10770
 C100 C 0.76128 0.26610 0.11857
 H101 H 0.81905 0.21641 0.12691
 H102 H 0.74091 0.27718 0.10794
 H103 H 0.81410 0.30935 0.17726
 H104 H 0.78842 0.28445 0.20290
 N105 N 0.85536 0.72554 0.27752
 N106 N 0.84967 0.70087 0.25960
 C107 C 0.87191 0.69925 0.23698
 C108 C 0.89235 0.72422 0.24110
 C109 C 0.88135 0.74045 0.26694
 H110 H 0.87346 0.68112 0.21915
 H111 H 0.89175 0.76121 0.27749
 Cu112 Cu 0.81431 0.67291 0.26834
 Cu113 Cu 0.82929 0.73595 0.31383
 Cu114 Cu 0.76580 0.68654 0.32933
 N115 N 0.77848 0.64551 0.27699
 N116 N 0.75957 0.65103 0.30092
 C117 C 0.73721 0.62845 0.30204
 C118 C 0.74251 0.60788 0.27752
 C119 C 0.76877 0.61919 0.26205
 H120 H 0.71874 0.62689 0.31954
 H121 H 0.78007 0.60880 0.24173
 N122 N 0.77602 0.72368 0.35532
 N123 N 0.80019 0.74250 0.34942
 C124 C 0.80133 0.76515 0.37165
 C125 C 0.77674 0.76022 0.39226
 C126 C 0.76115 0.73387 0.38143
 H127 H 0.81892 0.78360 0.37305
 H128 H 0.74080 0.72276 0.39209
 H129 H 0.81404 0.69054 0.32295
 H130 H 0.78838 0.71530 0.29718
 N131 N 0.35599 0.22574 -0.22301
 N132 N 0.34972 0.20181 -0.24172
 C133 C 0.37207 0.20023 -0.26425
 C134 C 0.39315 0.22449 -0.25922
 C135 C 0.38246 0.24025 -0.23297
 H136 H 0.37320 0.18260 -0.28261
 H137 H 0.39333 0.26041 -0.22174
 Cu138 Cu 0.31354 0.17445 -0.23438
 Cu139 Cu 0.32996 0.23577 -0.18666
 Cu140 Cu 0.26644 0.18651 -0.17166
 N141 N 0.27835 0.14650 -0.22486
 N142 N 0.26002 0.15134 -0.20034
 C143 C 0.23807 0.12839 -0.19895
 C144 C 0.24303 0.10825 -0.22389
 C145 C 0.26868 0.12021 -0.23989
 H146 H 0.22010 0.12628 -0.18100
 H147 H 0.27960 0.11030 -0.26064
 N148 N 0.27672 0.22331 -0.14532
 N149 N 0.30094 0.24211 -0.15103
 C150 C 0.30209 0.26461 -0.12866
 C151 C 0.27745 0.25959 -0.10812
 C152 C 0.26182 0.23335 -0.11917
 H153 H 0.31969 0.28303 -0.12713
 H154 H 0.24137 0.22226 -0.10868
 H155 H 0.31461 0.19003 -0.17917
 H156 H 0.28861 0.21605 -0.20341
 N157 N 0.64375 0.27420 -0.22211
 N158 N 0.64944 0.29881 -0.24012
 C159 C 0.62716 0.30042 -0.26273
 C160 C 0.60671 0.27548 -0.25847
 C161 C 0.61770 0.25929 -0.23259
 H162 H 0.62562 0.31850 -0.28061
 H163 H 0.60732 0.23856 -0.22195
 Cu164 Cu 0.68490 0.32673 -0.23156
 Cu165 Cu 0.66992 0.26384 -0.18586
 Cu166 Cu 0.73359 0.31313 -0.17068
 N167 N 0.72083 0.35406 -0.22308
 N168 N 0.73981 0.34856 -0.19919
 C169 C 0.76222 0.37108 -0.19820
 C170 C 0.75689 0.39161 -0.22275
 C171 C 0.73055 0.38032 -0.23811
 H172 H 0.78075 0.37264 -0.18075
 H173 H 0.71921 0.39070 -0.25842
 N174 N 0.72338 0.27609 -0.14456
 N175 N 0.69913 0.25731 -0.15033
 C176 C 0.69804 0.23471 -0.12805
 C177 C 0.72273 0.23963 -0.10753
 C178 C 0.73833 0.26592 -0.11848
 H179 H 0.68043 0.21630 -0.12655
 H180 H 0.75876 0.27700 -0.10794
 H181 H 0.68531 0.30923 -0.17691
 H182 H 0.71082 0.28434 -0.20269
 N183 N 0.14552 0.77496 0.27739
 N184 N 0.15121 0.79961 0.25944
 C185 C 0.12897 0.80120 0.23680
 C186 C 0.10853 0.77624 0.24094
 C187 C 0.11953 0.76004 0.26680
 H188 H 0.12742 0.81932 0.21896
 H189 H 0.10913 0.73929 0.27738
 Cu190 Cu 0.18656 0.82758 0.26819
 Cu191 Cu 0.17156 0.76461 0.31373
 Cu192 Cu 0.23500 0.81407 0.32929
 N193 N 0.22236 0.85503 0.27686
 N194 N 0.24125 0.84956 0.30084
 C195 C 0.26359 0.87217 0.30198
 C196 C 0.25827 0.89267 0.27740
 C197 C 0.23204 0.88134 0.26188
 H198 H 0.28202 0.87376 0.31953
 H199 H 0.22073 0.89168 0.24153
 N200 N 0.22477 0.77695 0.35530
 N201 N 0.20061 0.75810 0.34937
 C202 C 0.19944 0.73548 0.37162
 C203 C 0.22397 0.74045 0.39230
 C204 C 0.23957 0.76680 0.38148
 H205 H 0.18183 0.71705 0.37302
 H206 H 0.25989 0.77793 0.39218
 H207 H 0.18678 0.81004 0.32282
 H208 H 0.21249 0.78526 0.29714
 N209 N 0.47639 0.39596 0.47385
 N210 N 0.45250 0.40238 0.49255
 C211 C 0.45089 0.38017 0.51519
 C212 C 0.47507 0.35900 0.51027
 C213 C 0.49082 0.36953 0.48394
 H214 H 0.43325 0.37915 0.53355
 H215 H 0.51092 0.35853 0.47273
 Cu216 Cu 0.42516 0.43850 0.48503
 Cu217 Cu 0.48641 0.42169 0.43730
 Cu218 Cu 0.43716 0.48505 0.42190
 N219 N 0.39719 0.47358 0.47525
 N220 N 0.40200 0.49168 0.45058
 C221 C 0.37901 0.51357 0.44903
 C222 C 0.35888 0.50880 0.47402
 C223 C 0.37089 0.48333 0.49022
 H224 H 0.37686 0.53135 0.43091
 H225 H 0.36097 0.47255 0.51106
 N226 N 0.47395 0.47457 0.39557
 N227 N 0.49274 0.45042 0.40145
 C228 C 0.51523 0.44909 0.37905
 C229 C 0.51021 0.47354 0.35833
 C230 C 0.48398 0.48925 0.36929
 H231 H 0.53365 0.43149 0.37763
 H232 H 0.47288 0.50960 0.35866
 H233 H 0.46677 0.46313 0.45377
 H234 H 0.44062 0.43699 0.42980
 N235 N -0.02404 -0.10517 0.97186
 N236 N -0.04870 -0.09950 0.98982
 C237 C -0.05033 -0.12175 1.01242
 C238 C -0.02538 -0.14218 1.00824
 C239 C -0.00915 -0.13117 0.98239
 H240 H -0.06845 -0.12331 1.03027
 H241 H 0.01161 -0.14155 0.97179
 Cu242 Cu -0.07665 -0.06414 0.98118
 Cu243 Cu -0.01364 -0.07908 0.93559
 Cu244 Cu -0.06303 -0.01560 0.92022
 N245 N -0.10405 -0.02833 0.97262
 N246 N -0.09855 -0.00941 0.94869
 C247 C -0.12113 0.01293 0.94766
 C248 C -0.14168 0.00761 0.97221
 C249 C -0.13035 -0.01865 0.98762
 H250 H -0.12270 0.03141 0.93019
 H251 H -0.14072 -0.02996 1.00795
 N252 N -0.02590 -0.02580 0.89418
 N253 N -0.00708 -0.04996 0.90003
 C254 C 0.01557 -0.05108 0.87779
 C255 C 0.01065 -0.02650 0.85720
 C256 C -0.01570 -0.01093 0.86806
 H257 H 0.03401 -0.06867 0.87635
 H258 H -0.02680 0.00942 0.85744
 H259 H -0.03423 -0.03821 0.95231
 H260 H -0.05910 -0.06379 0.92654
 N261 N 1.02445 0.60455 0.97233
 N262 N 1.04913 0.59888 0.99027
 C263 C 1.05083 0.62117 1.01283
 C264 C 1.02590 0.64163 1.00864
 C265 C 1.00961 0.63059 0.98283
 H266 H 1.06899 0.62273 1.03064
 H267 H 0.98886 0.64099 0.97223
 Cu268 Cu 1.07702 0.56347 0.98163
 Cu269 Cu 1.01396 0.57843 0.93609
 Cu270 Cu 1.06324 0.51488 0.92076
 N271 N 1.10436 0.52762 0.97308
 N272 N 1.09879 0.50867 0.94919
 C273 C 1.12135 0.48632 0.94813
 C274 C 1.14197 0.49164 0.97263
 C275 C 1.13070 0.51793 0.98804
 H276 H 1.12287 0.46783 0.93066
 H277 H 1.14114 0.52926 1.00832
 N278 N 1.02608 0.52509 0.89474
 N279 N 1.00731 0.54928 0.90058
 C280 C 0.98464 0.55043 0.87833
 C281 C 0.98952 0.52583 0.85776
 C282 C 1.01585 0.51022 0.86864
 H283 H 0.96625 0.56805 0.87687
 H284 H 1.02692 0.48986 0.85801
 H285 H 1.03451 0.53757 0.95284
 H286 H 1.05938 0.56308 0.92702
 N287 N 0.52423 0.10554 0.47300
 N288 N 0.54887 0.09980 0.49098
 C289 C 0.55057 0.12205 0.51357
 C290 C 0.52569 0.14257 0.50937
 C291 C 0.50942 0.13159 0.48352
 H292 H 0.56869 0.12354 0.53143
 H293 H 0.48869 0.14203 0.47292
 Cu294 Cu 0.57670 0.06433 0.48237
 Cu295 Cu 0.51372 0.07945 0.43675
 Cu296 Cu 0.56287 0.01578 0.42149
 N297 N 0.60396 0.02841 0.47385
 N298 N 0.59836 0.00948 0.44995
 C299 C 0.62088 -0.01291 0.44889
 C300 C 0.64150 -0.00763 0.47339
 C301 C 0.63028 0.01868 0.48880
 H302 H 0.62239 -0.03138 0.43140
 H303 H 0.64076 0.03000 0.50907
 N304 N 0.52577 0.02606 0.39543
 N305 N 0.50705 0.05031 0.40122
 C306 C 0.48442 0.05148 0.37895
 C307 C 0.48926 0.02684 0.35841
 C308 C 0.51554 0.01118 0.36933
 H309 H 0.46605 0.06913 0.37745
 H310 H 0.52657 -0.00922 0.35875
 H311 H 0.53415 0.03855 0.45354
 H312 H 0.55911 0.06400 0.42774
 N313 N -0.02452 0.10556 0.52728
 N314 N -0.04918 0.09980 0.50933
 C315 C -0.05089 0.12204 0.48673
 C316 C -0.02599 0.14257 0.49090
 C317 C -0.00971 0.13161 0.51674
 H318 H -0.06904 0.12353 0.46889
 H319 H 0.01104 0.14206 0.52732
 Cu320 Cu -0.07702 0.06434 0.51799
 Cu321 Cu -0.01400 0.07950 0.56354
 Cu322 Cu -0.06319 0.01584 0.57891
 N323 N -0.10432 0.02843 0.52657
 N324 N -0.09873 0.00953 0.55048
 C325 C -0.12126 -0.01287 0.55157
 C326 C -0.14189 -0.00760 0.52707
 C327 C -0.13065 0.01869 0.51163
 H328 H -0.12278 -0.03133 0.56907
 H329 H -0.14112 0.02999 0.49135
 N330 N -0.02606 0.02615 0.60493
 N331 N -0.00732 0.05038 0.59909
 C332 C 0.01535 0.05156 0.62132
 C333 C 0.01051 0.02694 0.64189
 C334 C -0.01580 0.01128 0.63102
 H335 H 0.03374 0.06921 0.62276
 H336 H -0.02683 -0.00912 0.64162
 H337 H -0.03448 0.03858 0.54682
 H338 H -0.05940 0.06405 0.57261
 N339 N 0.47626 0.60411 0.02732
 N340 N 0.45237 0.59773 0.00858
 C341 C 0.45076 0.62000 -0.01399
 C342 C 0.47494 0.64119 -0.00899
 C343 C 0.49068 0.63059 0.01732
 H344 H 0.43313 0.62106 -0.03236
 H345 H 0.51078 0.64158 0.02858
 Cu346 Cu 0.42503 0.56157 0.01595
 Cu347 Cu 0.48627 0.57827 0.06379
 Cu348 Cu 0.43699 0.51483 0.07895
 N349 N 0.39705 0.52645 0.02560
 N350 N 0.40184 0.50827 0.05023
 C351 C 0.37883 0.48637 0.05168
 C352 C 0.35873 0.49122 0.02667
 C353 C 0.37076 0.51674 0.01057
 H354 H 0.37667 0.46852 0.06973
 H355 H 0.36087 0.52757 -0.01026
 N356 N 0.47378 0.52524 0.10533
 N357 N 0.49259 0.54942 0.09954
 C358 C 0.51508 0.55068 0.12195
 C359 C 0.51005 0.52616 0.14258
 C360 C 0.48381 0.51047 0.13156
 H361 H 0.53351 0.56829 0.12343
 H362 H 0.47271 0.49008 0.14212
 H363 H 0.46662 0.53686 0.04717
 H364 H 0.44046 0.56292 0.07121
 N365 N 0.52440 -0.10532 0.02843
 N366 N 0.54909 -0.09969 0.01048
 C367 C 0.55067 -0.12192 -0.01212
 C368 C 0.52566 -0.14231 -0.00797
 C369 C 0.50944 -0.13128 0.01787
 H370 H 0.56880 -0.12350 -0.02996
 H371 H 0.48864 -0.14163 0.02845
 Cu372 Cu 0.57712 -0.06438 0.01915
 Cu373 Cu 0.51404 -0.07922 0.06470
 Cu374 Cu 0.56357 -0.01582 0.08010
 N375 N 0.60458 -0.02860 0.02773
 N376 N 0.59911 -0.00967 0.05165
 C377 C 0.62172 0.01267 0.05268
 C378 C 0.64226 0.00733 0.02813
 C379 C 0.63090 -0.01892 0.01272
 H380 H 0.62330 0.03116 0.07013
 H381 H 0.64124 -0.03022 -0.00762
 N382 N 0.52640 -0.02597 0.10613
 N383 N 0.50753 -0.05010 0.10026
 C384 C 0.48485 -0.05119 0.12247
 C385 C 0.48981 -0.02661 0.14307
 C386 C 0.51621 -0.01108 0.13223
 H387 H 0.46636 -0.06874 0.12389
 H388 H 0.52734 0.00926 0.14285
 H389 H 0.53474 -0.03839 0.04799
 H390 H 0.55953 -0.06400 0.07377
 N391 N 1.02407 0.39556 0.52696
 N392 N 1.04875 0.40127 0.50903
 C393 C 1.05034 0.37911 0.48635
 C394 C 1.02534 0.35868 0.49045
 C395 C 1.00913 0.36962 0.51633
 H396 H 1.06849 0.37758 0.46853
 H397 H 0.98837 0.35920 0.52691
 Cu398 Cu 1.07678 0.43655 0.51787
 Cu399 Cu 1.01373 0.42147 0.56338
 Cu400 Cu 1.06325 0.48478 0.57908
 N401 N 1.10425 0.47229 0.52662
 N402 N 1.09878 0.49109 0.55064
 C403 C 1.12140 0.51340 0.55182
 C404 C 1.14196 0.50819 0.52726
 C405 C 1.13059 0.48203 0.51170
 H406 H 1.12300 0.53177 0.56940
 H407 H 1.14096 0.47082 0.49132
 N408 N 1.02610 0.47450 0.60507
 N409 N 1.00723 0.45039 0.59909
 C410 C 0.98459 0.44917 0.62134
 C411 C 0.98957 0.47363 0.64206
 C412 C 1.01595 0.48923 0.63127
 H413 H 0.96612 0.43160 0.62269
 H414 H 1.02710 0.50951 0.64201
 H415 H 1.03441 0.46238 0.54687
 H416 H 1.05922 0.43663 0.57250
 C417 C 0.33922 -0.02822 0.25747
 C418 C 0.35571 -0.00041 0.25043
 C419 C 0.33901 0.02723 0.24327
 C420 C 0.30593 0.02708 0.24318
 C421 C 0.28952 -0.00073 0.25021
 C422 C 0.30614 -0.02839 0.25735
 C423 C 0.39041 -0.00023 0.25052
 C424 C 0.40710 -0.00689 0.22281
 C425 C 0.44018 -0.00672 0.22289
 C426 C 0.45660 0.00014 0.25067
 C427 C 0.43999 0.00681 0.27837
 C428 C 0.40691 0.00661 0.27830
 H429 H 0.35212 -0.04960 0.26300
 H430 H 0.35176 0.04874 0.23782
 H431 H 0.39435 -0.01220 0.20133
 H432 H 0.39401 0.01178 0.29972
 H433 H 0.26390 -0.00086 0.25012
 H434 H 0.48221 0.00027 0.25073
 C435 C 0.16098 -0.02785 0.74255
 C436 C 0.14444 -0.00003 0.74938
 C437 C 0.16110 0.02776 0.75611
 C438 C 0.19418 0.02774 0.75602
 C439 C 0.21064 -0.00009 0.74920
 C440 C 0.19406 -0.02788 0.74247
 C441 C 0.10974 0.00003 0.74943
 C442 C 0.09317 -0.00672 0.77718
 C443 C 0.06008 -0.00663 0.77723
 C444 C 0.04356 0.00021 0.74952
 C445 C 0.06004 0.00696 0.72176
 C446 C 0.09312 0.00687 0.72172
 H447 H 0.14811 -0.04934 0.73733
 H448 H 0.14832 0.04928 0.76140
 H449 H 0.10601 -0.01202 0.79861
 H450 H 0.10593 0.01211 0.70026
 H451 H 0.23626 -0.00011 0.74914
 H452 H 0.01794 0.00028 0.74955
 C453 C 0.66037 0.47200 0.24335
 C454 C 0.64379 0.49975 0.25032
 C455 C 0.66039 0.52752 0.25726
 C456 C 0.69347 0.52755 0.25719
 C457 C 0.70998 0.49979 0.25023
 C458 C 0.69346 0.47201 0.24332
 C459 C 0.60909 0.49974 0.25036
 C460 C 0.59252 0.49310 0.27814
 C461 C 0.55944 0.49310 0.27817
 C462 C 0.54290 0.49976 0.25042
 C463 C 0.55938 0.50641 0.22264
 C464 C 0.59246 0.50639 0.22261
 H465 H 0.64754 0.45052 0.23798
 H466 H 0.64757 0.54899 0.26265
 H467 H 0.60537 0.48795 0.29960
 H468 H 0.60527 0.51154 0.20112
 H469 H 0.73560 0.49980 0.25019
 H470 H 0.51728 0.49977 0.25045
 C471 C 0.83913 0.47182 0.75681
 C472 C 0.85575 0.49956 0.74984
 C473 C 0.83919 0.52732 0.74281
 C474 C 0.80611 0.52734 0.74278
 C475 C 0.78956 0.49959 0.74973
 C476 C 0.80604 0.47182 0.75673
 C477 C 0.89046 0.49956 0.74988
 C478 C 0.90707 0.49303 0.72210
 C479 C 0.94015 0.49304 0.72213
 C480 C 0.95665 0.49962 0.74993
 C481 C 0.94012 0.50616 0.77771
 C482 C 0.90703 0.50612 0.77769
 H483 H 0.85193 0.45035 0.76225
 H484 H 0.85204 0.54878 0.73742
 H485 H 0.89426 0.48794 0.70060
 H486 H 0.89420 0.51120 0.79916
 H487 H 0.76394 0.49960 0.74969
 H488 H 0.98226 0.49965 0.74995
 C489 C 0.25710 0.34183 -0.02812
 C490 C 0.25012 0.35834 -0.00040
 C491 C 0.24318 0.34171 0.02726
 C492 C 0.24322 0.30867 0.02721
 C493 C 0.25018 0.29224 -0.00051
 C494 C 0.25712 0.30879 -0.02818
 C495 C 0.25014 0.39300 -0.00034
 C496 C 0.22232 0.40961 -0.00712
 C497 C 0.22236 0.44265 -0.00709
 C498 C 0.25022 0.45912 -0.00027
 C499 C 0.27804 0.44259 0.00651
 C500 C 0.27799 0.40955 0.00648
 H501 H 0.26248 0.35468 -0.04951
 H502 H 0.23778 0.35448 0.04870
 H503 H 0.20078 0.39682 -0.01242
 H504 H 0.29951 0.39672 0.01173
 H505 H 0.25021 0.26665 -0.00055
 H506 H 0.25026 0.48470 -0.00026
 C507 C 0.74318 0.15728 -0.02764
 C508 C 0.75011 0.14073 0.00008
 C509 C 0.75693 0.15733 0.02779
 C510 C 0.75685 0.19037 0.02778
 C511 C 0.74991 0.20684 0.00007
 C512 C 0.74308 0.19032 -0.02764
 C513 C 0.75017 0.10607 0.00009
 C514 C 0.77794 0.08955 -0.00705
 C515 C 0.77800 0.05650 -0.00701
 C516 C 0.75027 0.03996 0.00013
 C517 C 0.72249 0.05640 0.00726
 C518 C 0.72245 0.08944 0.00725
 H519 H 0.73789 0.14445 -0.04907
 H520 H 0.76229 0.14455 0.04923
 H521 H 0.79938 0.10239 -0.01258
 H522 H 0.70097 0.10221 0.01277
 H523 H 0.74984 0.23242 0.00006
 H524 H 0.75031 0.01437 0.00015
 C525 C 0.24350 0.65814 0.47248
 C526 C 0.25006 0.64161 0.50030
 C527 C 0.25658 0.65824 0.52807
 C528 C 0.25654 0.69128 0.52802
 C529 C 0.24997 0.70772 0.50020
 C530 C 0.24345 0.69118 0.47243
 C531 C 0.25013 0.60695 0.50035
 C532 C 0.27802 0.59044 0.49367
 C533 C 0.27811 0.55739 0.49376
 C534 C 0.25029 0.54083 0.50051
 C535 C 0.22239 0.55727 0.50718
 C536 C 0.22232 0.59031 0.50711
 H537 H 0.23845 0.64530 0.45100
 H538 H 0.26168 0.64548 0.54958
 H539 H 0.29954 0.60329 0.48843
 H540 H 0.20075 0.60307 0.51230
 H541 H 0.24994 0.73331 0.50017
 H542 H 0.25036 0.51525 0.50058
 C543 C 0.75670 0.84259 0.47226
 C544 C 0.74982 0.85911 0.50001
 C545 C 0.74297 0.84248 0.52769
 C546 C 0.74300 0.80944 0.52764
 C547 C 0.74987 0.79300 0.49990
 C548 C 0.75672 0.80955 0.47221
 C549 C 0.74982 0.89377 0.50007
 C550 C 0.72196 0.91034 0.49337
 C551 C 0.72195 0.94338 0.49344
 C552 C 0.74980 0.95988 0.50022
 C553 C 0.77766 0.94339 0.50692
 C554 C 0.77766 0.91035 0.50685
 H555 H 0.76201 0.85544 0.45085
 H556 H 0.73765 0.85525 0.54915
 H557 H 0.70043 0.89753 0.48811
 H558 H 0.79921 0.89754 0.51205
 H559 H 0.74989 0.76742 0.49986
 H560 H 0.74980 0.98547 0.50028
 C561 C -0.02876 0.25698 0.34058
 C562 C -0.00084 0.25036 0.35707
 C563 C 0.02697 0.24355 0.34051
 C564 C 0.02688 0.24339 0.30757
 C565 C -0.00102 0.25000 0.29116
 C566 C -0.02884 0.25679 0.30763
 C567 C -0.00075 0.25047 0.39164
 C568 C -0.00720 0.22263 0.40826
 C569 C -0.00706 0.22271 0.44121
 C570 C -0.00045 0.25063 0.45755
 C571 C 0.00602 0.27847 0.44102
 C572 C 0.00586 0.27839 0.40807
 H573 H -0.05027 0.26223 0.35337
 H574 H 0.04855 0.23841 0.35325
 H575 H -0.01231 0.20104 0.39557
 H576 H 0.01087 0.29992 0.39523
 H577 H -0.00109 0.24986 0.26565
 H578 H -0.00032 0.25068 0.48306
 C579 C -0.02748 0.74340 0.15852
 C580 C 0.00039 0.75002 0.14196
 C581 C 0.02828 0.75674 0.15846
 C582 C 0.02830 0.75682 0.19141
 C583 C 0.00043 0.75020 0.20787
 C584 C -0.02746 0.74350 0.19146
 C585 C 0.00037 0.74994 0.10740
 C586 C -0.00615 0.77778 0.09081
 C587 C -0.00618 0.77770 0.05786
 C588 C 0.00033 0.74979 0.04148
 C589 C 0.00687 0.72195 0.05798
 C590 C 0.00688 0.72202 0.09093
 H591 H -0.04905 0.73820 0.14577
 H592 H 0.04984 0.76186 0.14568
 H593 H -0.01120 0.79937 0.10353
 H594 H 0.01194 0.70049 0.10375
 H595 H 0.00044 0.75027 0.23339
 H596 H 0.00032 0.74973 0.01597
 C597 C 0.47229 0.24340 0.65972
 C598 C 0.50020 0.25013 0.64328
 C599 C 0.52806 0.25671 0.65990
 C600 C 0.52799 0.25656 0.69285
 C601 C 0.50008 0.24984 0.70920
 C602 C 0.47223 0.24327 0.69267
 C603 C 0.50025 0.25031 0.60872
 C604 C 0.49380 0.27828 0.59232
 C605 C 0.49379 0.27844 0.55937
 C606 C 0.50025 0.25063 0.54280
 C607 C 0.50670 0.22266 0.55911
 C608 C 0.50669 0.22249 0.59206
 H609 H 0.45075 0.23832 0.64689
 H610 H 0.54964 0.26193 0.64720
 H611 H 0.48880 0.29979 0.60519
 H612 H 0.51168 0.20086 0.60472
 H613 H 0.50002 0.24975 0.73471
 H614 H 0.50025 0.25075 0.51729
 C615 C 0.47187 0.75708 0.84167
 C616 C 0.49974 0.75020 0.85812
 C617 C 0.52755 0.74345 0.84152
 C618 C 0.52750 0.74361 0.80858
 C619 C 0.49963 0.75047 0.79221
 C620 C 0.47181 0.75720 0.80872
 C621 C 0.49980 0.75002 0.89268
 C622 C 0.49344 0.72202 0.90908
 C623 C 0.49352 0.72185 0.94203
 C624 C 0.49999 0.74966 0.95860
 C625 C 0.50637 0.77766 0.94229
 C626 C 0.50626 0.77784 0.90934
 H627 H 0.45036 0.76228 0.85449
 H628 H 0.54910 0.73813 0.85424
 H629 H 0.48845 0.70051 0.89621
 H630 H 0.51120 0.79949 0.89668
 H631 H 0.49958 0.75057 0.76670
 H632 H 0.50008 0.74952 0.98411
 C633 C 0.07902 0.23056 0.27582
 C634 C 0.05537 0.23640 0.29048
 C635 C 0.57961 0.73095 0.77673
 C636 C 0.55597 0.73671 0.79144
 C637 C 0.41957 0.76994 0.77710
 C638 C 0.44326 0.76416 0.79172
 C639 C -0.08113 0.26920 0.27594
 C640 C -0.05742 0.26356 0.29059
 C641 C -0.07968 0.73100 0.22323
 C642 C -0.05599 0.73669 0.20856
 C643 C 0.41981 0.23080 0.72412
 C644 C 0.44361 0.23645 0.70962
 C645 C 0.58020 0.26905 0.72467
 C646 C 0.55651 0.26336 0.70999
 C647 C 0.08055 0.76942 0.22309
 C648 C 0.05685 0.76369 0.20845
 C649 C 0.27422 0.07906 0.22964
 C650 C 0.28877 0.05543 0.23583
 C651 C 0.77460 0.57953 0.72955
 C652 C 0.78907 0.55581 0.73559
 C653 C 0.77441 0.41968 0.76995
 C654 C 0.78894 0.44338 0.76391
 C655 C 0.27474 -0.08068 0.27057
 C656 C 0.28917 -0.05691 0.26455
 C657 C 0.22550 -0.08017 0.72945
 C658 C 0.21107 -0.05640 0.73541
 C659 C 0.72500 0.41985 0.23010
 C660 C 0.71052 0.44356 0.23614
 C661 C 0.72504 0.57976 0.27031
 C662 C 0.71055 0.55602 0.26431
 C663 C 0.22572 0.08002 0.76893
 C664 C 0.21128 0.05623 0.76301
 C665 C 0.23010 0.27690 0.07912
 C666 C 0.23608 0.29153 0.05555
 C667 C 0.73005 0.77767 0.57959
 C668 C 0.73595 0.79231 0.55601
 C669 C 0.76969 0.77794 0.42018
 C670 C 0.76378 0.79251 0.44380
 C671 C 0.27030 0.27723 -0.08019
 C672 C 0.26430 0.29176 -0.05657
 C673 C 0.72989 0.22194 -0.07963
 C674 C 0.73590 0.20737 -0.05603
 C675 C 0.23089 0.72278 0.42028
 C676 C 0.23664 0.70822 0.44395
 C677 C 0.26909 0.72305 0.58008
 C678 C 0.26334 0.70842 0.55645
 C679 C 0.76982 0.22208 0.07978
 C680 C 0.76390 0.20748 0.05617
 C681 C 0.48163 0.33088 0.52794
 C682 C 0.48716 0.30709 0.54245
 C683 C -0.01860 0.82986 0.02608
 C684 C -0.01293 0.80620 0.04074
 C685 C 0.01920 0.66965 0.02640
 C686 C 0.01358 0.69337 0.04099
 C687 C 0.51897 0.17052 0.52722
 C688 C 0.51337 0.19418 0.54193
 C689 C -0.01930 0.17053 0.47304
 C690 C -0.01372 0.19421 0.45836
 C691 C 0.48148 0.66935 0.97341
 C692 C 0.48696 0.69318 0.95894
 C693 C 0.51882 0.82976 0.97417
 C694 C 0.51313 0.80612 0.95947
 C695 C 0.01856 0.33073 0.47261
 C696 C 0.01285 0.30703 0.45800
 C697 C 0.33057 0.52606 0.48106
 C698 C 0.30672 0.54042 0.48687
 C699 C 0.83021 0.02506 -0.02046
 C700 C 0.80648 0.03951 -0.01433
 C701 C 0.67036 0.02482 0.02076
 C702 C 0.69406 0.03931 0.01460
 C703 C 0.17012 0.52566 0.52010
 C704 C 0.19388 0.54016 0.51419
 C705 C 0.17011 0.47419 -0.02015
 C706 C 0.19386 0.45972 -0.01416
 C707 C 0.66965 0.97491 0.48056
 C708 C 0.69342 0.96043 0.48647
 C709 C 0.82996 0.97492 0.51989
 C710 C 0.80619 0.96044 0.51396
 C711 C 0.33044 0.47395 0.01950
 C712 C 0.30660 0.45958 0.01356
 C713 C 0.52783 0.48045 0.33031
 C714 C 0.54238 0.48623 0.30663
 C715 C 0.02838 -0.01946 0.82927
 C716 C 0.04299 -0.01360 0.80565
 C717 C 0.02829 0.01991 0.66978
 C718 C 0.04292 0.01401 0.69338
 C719 C 0.52769 0.51916 0.17057
 C720 C 0.54227 0.51333 0.19422
 C721 C 0.47204 -0.01954 0.17096
 C722 C 0.45738 -0.01367 0.19454
 C723 C 0.97187 0.48052 0.67004
 C724 C 0.95727 0.48625 0.69369
 C725 C 0.97180 0.51884 0.82981
 C726 C 0.95720 0.51304 0.80616
 C727 C 0.47155 0.01980 0.33046
 C728 C 0.45700 0.01388 0.30682
   
