data_POSCAR
  _audit_creation_date              2014-09-24
  _audit_creation_method            'ToBaCCo'
  _symmetry_space_group_name_H-M    'P1'
  _symmetry_Int_Tables_number       1
  _symmetry_cell_setting            triclinic
  loop_
  _symmetry_equiv_pos_as_xyz
 x,y,z
_cell_length_a 34.6972
_cell_length_b 34.7583
_cell_length_c 34.6306
_cell_angle_alpha 78.576600
_cell_angle_beta 98.726500
_cell_angle_gamma 95.193500
loop_
  _atom_site_label
  _atom_site_type_symbol
  _atom_site_fract_x
  _atom_site_fract_y
  _atom_site_fract_z
O1 O 0.53795 0.46891 0.08186
 O2 O 0.43116 0.46286 0.08075
 O3 O 0.48222 0.41274 0.08078
 O4 O 0.48623 0.51845 0.08272
 O5 O 0.47885 0.53218 0.01706
 O6 O 0.47459 0.42593 0.01511
 O7 O 0.42287 0.47667 0.01512
 O8 O 0.52980 0.48183 0.01620
 Cu9 Cu 0.48530 0.46435 0.08807
 Cu10 Cu 0.47565 0.48043 0.00927
 C11 C 0.55207 0.47647 0.04923
 C12 C 0.40879 0.46897 0.04783
 C13 C 0.47769 0.40129 0.04771
 C14 C 0.48323 0.54330 0.05037
 O15 O -0.00446 0.57167 0.47981
 O16 O -0.01373 0.46368 0.49429
 O17 O -0.00761 0.51424 0.54094
 O18 O -0.00950 0.51996 0.43307
 O19 O 0.05487 0.51938 0.44195
 O20 O 0.05675 0.51358 0.54934
 O21 O 0.05056 0.46224 0.50239
 O22 O 0.05981 0.57021 0.48859
 Cu23 Cu -0.01531 0.51769 0.48607
 Cu24 Cu 0.06195 0.51617 0.49644
 C25 C 0.02929 0.58935 0.48209
 C26 C 0.01680 0.44462 0.50059
 C27 C 0.02497 0.51292 0.56344
 C28 C 0.02249 0.52032 0.41928
 O29 O 0.51748 0.06615 0.53984
 O30 O 0.51888 0.06612 0.43406
 O31 O 0.46414 0.06051 0.47947
 O32 O 0.57168 0.06945 0.49496
 O33 O 0.57277 0.00469 0.50841
 O34 O 0.46561 -0.00424 0.49188
 O35 O 0.51974 0.00132 0.44695
 O36 O 0.51775 0.00136 0.55324
 Cu37 Cu 0.51786 0.07207 0.48577
 Cu38 Cu 0.51921 -0.00574 0.50155
 C39 C 0.51718 0.03393 0.56457
 C40 C 0.51959 0.03383 0.42246
 C41 C 0.44664 0.02651 0.48301
 C42 C 0.59049 0.03854 0.50413
 C43 C 0.49498 -0.03066 0.01560
 C44 C 0.49696 0.00036 -0.01498
 C45 C 0.49683 -0.00461 -0.05664
 C46 C 0.49845 0.04122 -0.00805
 C47 C 0.49336 -0.02416 0.05623
 C48 C 0.49580 -0.07217 0.01079
 C49 C 0.52609 0.01499 -0.07847
 C50 C 0.52607 0.01112 -0.11780
 C51 C 0.49655 -0.01227 -0.13629
 C52 C 0.46755 -0.03230 -0.11437
 C53 C 0.46738 -0.02813 -0.07503
 C54 C 0.53447 0.06159 0.00065
 C55 C 0.53592 0.10109 0.00419
 C56 C 0.50136 0.12045 0.00025
 C57 C 0.46520 0.09959 -0.00734
 C58 C 0.46382 0.06030 -0.01172
 C59 C 0.45729 -0.02245 0.06915
 C60 C 0.45576 -0.01910 0.10843
 C61 C 0.49030 -0.01634 0.13496
 C62 C 0.52649 -0.01708 0.12158
 C63 C 0.52794 -0.02120 0.08250
 C64 C 0.46730 -0.10039 0.02526
 C65 C 0.46835 -0.13971 0.02219
 C66 C 0.49812 -0.15176 0.00473
 C67 C 0.52631 -0.12351 -0.01030
 C68 C 0.52550 -0.08415 -0.00683
 H69 H 0.54937 0.03294 -0.06498
 H70 H 0.54957 0.02598 -0.13339
 H71 H 0.44461 -0.05062 -0.12795
 H72 H 0.44419 -0.04311 -0.05897
 H73 H 0.56145 0.04712 0.00384
 H74 H 0.56408 0.11660 0.00995
 H75 H 0.43580 0.04489 -0.01852
 H76 H 0.43037 -0.02454 0.04904
 H77 H 0.42759 -0.01873 0.11817
 H78 H 0.55356 -0.01582 0.14159
 H79 H 0.55596 -0.02260 0.07284
 H80 H 0.44391 -0.09202 0.03868
 H81 H 0.44546 -0.16048 0.03300
 H82 H 0.54945 -0.13207 -0.02401
 H83 H 0.54823 -0.06311 -0.01759
 H84 H 0.43809 0.11394 -0.01126
 C85 C -0.04283 0.48136 0.97411
 C86 C -0.01308 0.48297 1.00443
 C87 C 0.02850 0.48204 0.99876
 C88 C -0.01988 0.48566 1.04509
 C89 C -0.08481 0.48142 0.97894
 C90 C -0.03486 0.47875 0.93393
 C91 C 0.05146 0.45297 1.02304
 C92 C 0.09115 0.45281 1.02003
 C93 C 0.10885 0.48206 0.99285
 C94 C 0.08567 0.51071 0.96802
 C95 C 0.04595 0.51100 0.97124
 C96 C -0.04338 0.45710 1.06709
 C97 C -0.04785 0.45967 1.10601
 C98 C -0.02827 0.49030 1.12375
 C99 C -0.00530 0.51914 1.10134
 C100 C -0.00099 0.51665 1.06254
 C101 C -0.09881 0.51019 0.99576
 C102 C -0.13866 0.50989 0.99892
 C103 C -0.16527 0.48133 0.98443
 C104 C -0.15133 0.45324 0.96693
 C105 C -0.11159 0.45309 0.96447
 C106 C -0.04080 0.51112 0.90282
 C107 C -0.03487 0.50872 0.86441
 C108 C -0.02376 0.47352 0.85638
 C109 C -0.01835 0.44095 0.88747
 C110 C -0.02337 0.44369 0.92616
 H111 H 0.03857 0.43037 1.04445
 H112 H 0.10771 0.42954 1.03882
 H113 H 0.09855 0.53349 0.94676
 H114 H 0.02905 0.53424 0.95281
 H115 H -0.05783 0.43266 1.05432
 H116 H -0.06588 0.43724 1.12260
 H117 H 0.01710 0.53907 1.04597
 H118 H -0.07905 0.53318 1.00593
 H119 H -0.14869 0.53264 1.01155
 H120 H -0.17129 0.43115 0.95527
 H121 H -0.10174 0.43074 0.95111
 H122 H -0.05010 0.53822 0.90837
 H123 H -0.04011 0.53398 0.84080
 H124 H -0.01015 0.41346 0.88180
 H125 H -0.01913 0.41832 0.94986
 H126 H 0.00915 0.54390 1.11348
 C127 C 0.02972 0.00294 0.48923
 C128 C 0.00373 0.02869 0.49261
 C129 C -0.03796 0.01677 0.49584
 C130 C 0.01552 0.07064 0.49376
 C131 C 0.07166 0.01514 0.48773
 C132 C 0.01807 -0.03871 0.48652
 C133 C -0.06675 0.03839 0.46993
 C134 C -0.10595 0.03086 0.47494
 C135 C -0.11713 0.00172 0.50626
 C136 C -0.08856 -0.02114 0.53117
 C137 C -0.04912 -0.01339 0.52629
 C138 C 0.03286 0.09499 0.46279
 C139 C 0.04236 0.13476 0.46390
 C140 C 0.03381 0.15094 0.49545
 C141 C 0.01694 0.12636 0.52666
 C142 C 0.00775 0.08665 0.52569
 C143 C 0.09436 0.03150 0.51835
 C144 C 0.13391 0.04234 0.51650
 C145 C 0.15155 0.03609 0.48457
 C146 C 0.12868 0.01994 0.45384
 C147 C 0.08915 0.00941 0.45555
 C148 C 0.03897 -0.06854 0.51217
 C149 C 0.03093 -0.10770 0.50824
 C150 C 0.00197 -0.11782 0.47825
 C151 C -0.01987 -0.08816 0.45338
 C152 C -0.01160 -0.04880 0.45715
 H153 H -0.05871 0.06163 0.44614
 H154 H -0.12744 0.04807 0.45437
 H155 H -0.09662 -0.04395 0.55530
 H156 H -0.02726 -0.03006 0.54694
 H157 H 0.03856 0.08332 0.43759
 H158 H 0.05548 0.15315 0.43962
 H159 H -0.00546 0.06829 0.54993
 H160 H 0.08149 0.03563 0.54373
 H161 H 0.15098 0.05481 0.54045
 H162 H 0.14110 0.01577 0.42824
 H163 H 0.07204 -0.00302 0.43159
 H164 H 0.06182 -0.06141 0.53513
 H165 H 0.04741 -0.12998 0.52877
 H166 H -0.04248 -0.09534 0.43024
 H167 H -0.02767 -0.02617 0.43661
 H168 H 0.01104 0.13763 0.55200
 C169 C -0.40518 0.47925 1.05011
 C170 C -0.38793 0.48231 1.01569
 C171 C -0.34528 0.48535 1.01589
 N172 N -0.33040 0.48152 0.98291
 N173 N -0.29194 0.48415 0.98240
 C174 C -0.26682 0.49098 1.01479
 N175 N -0.28169 0.49518 1.04769
 N176 N -0.32020 0.49231 1.04829
 C177 C -0.22418 0.49365 1.01454
 C178 C -0.20783 0.48093 0.98521
 H179 H -0.40629 0.48152 0.98758
 H180 H -0.20543 0.50388 1.03891
 H181 H -0.38696 0.47826 1.07856
 H182 H -0.22702 0.46754 0.96314
 C183 C 0.36853 0.46710 1.04842
 C184 C 0.34131 0.47491 1.01411
 C185 C 0.29896 0.47311 1.01601
 N186 N 0.27361 0.48455 0.98257
 N187 N 0.23529 0.48319 0.98404
 C188 C 0.22092 0.47022 1.01904
 N189 N 0.24626 0.45864 1.05239
 N190 N 0.28452 0.46011 1.05093
 C191 C 0.17876 0.46826 1.02158
 C192 C 0.15114 0.48332 0.98969
 H193 H 0.35116 0.48323 0.98520
 H194 H 0.16958 0.45576 1.05017
 H195 H 0.35818 0.45975 1.07714
 H196 H 0.16107 0.49861 0.96220
 C197 C 0.03359 -0.36993 0.47823
 C198 C 0.00197 -0.34623 0.47206
 C199 C 0.00775 -0.30384 0.47251
 N200 N -0.02345 -0.28140 0.46640
 N201 N -0.01846 -0.24328 0.46827
 C202 C 0.01795 -0.22632 0.47640
 N203 N 0.04909 -0.24874 0.48237
 N204 N 0.04410 -0.28675 0.48043
 C205 C 0.02436 -0.18485 0.48026
 C206 C -0.00554 -0.15898 0.47245
 H207 H -0.02767 -0.35909 0.46817
 H208 H 0.05405 -0.17432 0.48930
 H209 H 0.06303 -0.35644 0.48132
 H210 H -0.03454 -0.16845 0.45991
 C211 C 0.01236 0.40163 0.50562
 C212 C 0.04301 0.37907 0.50384
 C213 C 0.03730 0.33625 0.50665
 N214 N 0.06484 0.31602 0.49674
 N215 N 0.05944 0.27731 0.49835
 C216 C 0.02637 0.25747 0.51012
 N217 N -0.00092 0.27764 0.52042
 N218 N 0.00437 0.31633 0.51860
 C219 C 0.01954 0.21491 0.51188
 C220 C 0.04238 0.19342 0.49507
 H221 H 0.07130 0.39327 0.49843
 H222 H -0.00569 0.20060 0.52498
 H223 H -0.01645 0.38759 0.50884
 H224 H 0.06524 0.20863 0.47865
 C225 C 0.51618 0.03516 -0.39567
 C226 C 0.51331 0.00158 -0.36625
 C227 C 0.51233 0.00455 -0.32459
 N228 N 0.50332 -0.02781 -0.29764
 N229 N 0.50231 -0.02520 -0.25990
 C230 C 0.51043 0.00987 -0.24778
 N231 N 0.51967 0.04211 -0.27466
 N232 N 0.52049 0.03954 -0.31236
 C233 C 0.51025 0.01355 -0.20628
 C234 C 0.49584 -0.01651 -0.17807
 H235 H 0.51082 -0.02738 -0.37391
 H236 H 0.52080 0.04153 -0.19813
 H237 H 0.51696 0.06385 -0.38763
 H238 H 0.48186 -0.04301 -0.18726
 C239 C 0.52070 0.03468 0.38009
 C240 C 0.51048 0.00159 0.36287
 C241 C 0.51171 0.00284 0.32039
 N242 N 0.49132 -0.02517 0.30196
 N243 N 0.49225 -0.02434 0.26348
 C244 C 0.51392 0.00433 0.24214
 N245 N 0.53466 0.03207 0.26068
 N246 N 0.53341 0.03148 0.29906
 C247 C 0.51595 0.00504 0.19993
 C248 C 0.48775 -0.01499 0.17684
 H249 H 0.49980 -0.02545 0.38056
 H250 H 0.53946 0.02275 0.18647
 H251 H 0.52831 0.06252 0.36166
 H252 H 0.46207 -0.02895 0.18940
 C253 C 0.48455 -0.41472 0.05229
 C254 C 0.48710 -0.38488 0.01912
 C255 C 0.48752 -0.34308 0.02190
 N256 N 0.49550 -0.31454 -0.00928
 N257 N 0.49564 -0.27666 -0.00705
 C258 C 0.48762 -0.26597 0.02643
 N259 N 0.47947 -0.29451 0.05749
 N260 N 0.47952 -0.33232 0.05532
 C261 C 0.48665 -0.22445 0.02942
 C262 C 0.49995 -0.19338 0.00146
 H263 H 0.48934 -0.39226 -0.00938
 H264 H 0.47609 -0.21835 0.05531
 H265 H 0.48408 -0.40713 0.08108
 H266 H 0.51394 -0.19971 -0.02231
 C267 C 0.47566 0.35884 0.04778
 C268 C 0.48317 0.34382 0.01543
 C269 C 0.48149 0.30121 0.01613
 N270 N 0.50043 0.28701 -0.00908
 N271 N 0.49914 0.24850 -0.00870
 C272 C 0.47850 0.22278 0.01665
 N273 N 0.45917 0.23702 0.04152
 N274 N 0.46082 0.27549 0.04145
 C275 C 0.47612 0.18026 0.01676
 C276 C 0.50389 0.16281 0.00182
 H277 H 0.49231 0.36369 -0.01029
 H278 H 0.45289 0.16213 0.03031
 H279 H 0.46989 0.33882 0.07481
 H280 H 0.52938 0.18051 -0.00750
 C281 C -0.36669 0.04251 0.50882
 C282 C -0.34401 0.00999 0.51707
 C283 C -0.30160 0.01434 0.51627
 N284 N -0.28052 -0.01796 0.52312
 N285 N -0.24236 -0.01432 0.52058
 C286 C -0.22401 0.02180 0.51105
 N287 N -0.24506 0.05404 0.50443
 N288 N -0.28313 0.05040 0.50701
 C289 C -0.18251 0.02671 0.50614
 C290 C -0.15826 -0.00456 0.51360
 H291 H -0.35784 -0.01943 0.52245
 H292 H -0.17068 0.05634 0.49628
 H293 H -0.35281 0.07192 0.50376
 H294 H -0.16896 -0.03366 0.52693
 C295 C 0.40389 0.02195 0.47691
 C296 C 0.38050 0.05260 0.47636
 C297 C 0.33777 0.04627 0.47271
 N298 N 0.31602 0.07283 0.48196
 N299 N 0.27736 0.06654 0.47999
 C300 C 0.25913 0.03357 0.46847
 N301 N 0.28084 0.00734 0.45870
 N302 N 0.31945 0.01350 0.46091
 C303 C 0.21675 0.02553 0.46677
 C304 C 0.19373 0.04634 0.48408
 H305 H 0.39379 0.08108 0.48086
 H306 H 0.20386 0.00071 0.45372
 H307 H 0.39051 -0.00710 0.47487
 H308 H 0.20752 0.06862 0.50045
 C309 C 0.02282 0.52157 1.37669
 C310 C -0.01078 0.51456 1.35073
 C311 C -0.00897 0.51340 1.30876
 N312 N -0.04089 0.50092 1.28551
 N313 N -0.03918 0.49916 1.24768
 C314 C -0.00547 0.50993 1.23176
 N315 N 0.02630 0.52264 1.25494
 N316 N 0.02463 0.52426 1.29273
 C317 C -0.00262 0.50849 1.19016
 C318 C -0.03217 0.49165 1.16546
 H319 H -0.03872 0.50827 1.36173
 H320 H 0.02456 0.51992 1.17924
 H321 H 0.05092 0.52618 1.36593
 H322 H -0.05781 0.47709 1.17764
 C323 C 0.02644 0.51129 0.60632
 C324 C -0.00545 0.49730 0.62625
 C325 C -0.00419 0.49730 0.66887
 N326 N -0.02937 0.47296 0.69025
 N327 N -0.02899 0.47335 0.72872
 C328 C -0.00368 0.49841 0.74707
 N329 N 0.02124 0.52299 0.72560
 N330 N 0.02118 0.52228 0.68727
 C331 C -0.00432 0.50065 0.78888
 C332 C -0.01980 0.46978 0.81546
 H333 H -0.03155 0.48498 0.61050
 H334 H 0.00834 0.52708 0.79918
 H335 H 0.05377 0.52012 0.62287
 H336 H -0.02814 0.44172 0.80646
   
