data_POSCAR
  _audit_creation_date              2014-09-24
  _audit_creation_method            'ToBaCCo'
  _symmetry_space_group_name_H-M    'P1'
  _symmetry_Int_Tables_number       1
  _symmetry_cell_setting            triclinic
  loop_
  _symmetry_equiv_pos_as_xyz
 x,y,z
_cell_length_a 38.2792
_cell_length_b 38.3989
_cell_length_c 37.7907
_cell_angle_alpha 90.074000
_cell_angle_beta 90.129100
_cell_angle_gamma 89.873500
loop_
  _atom_site_label
  _atom_site_type_symbol
  _atom_site_fract_x
  _atom_site_fract_y
  _atom_site_fract_z
C1 C 0.16399 0.16484 0.20701
 N2 N 0.19317 0.14998 0.19313
 C3 C 0.20966 0.16428 0.16474
 N4 N 0.19621 0.19377 0.14991
 C5 C 0.16666 0.20848 0.16312
 N6 N 0.15093 0.19399 0.19162
 C7 C -0.16138 0.83537 0.20584
 N8 N -0.19061 0.84986 0.19137
 C9 C -0.20878 0.83302 0.16544
 N10 N -0.19696 0.80162 0.15365
 C11 C -0.16715 0.78763 0.16691
 N12 N -0.14965 0.80446 0.19295
 C13 C -0.16457 0.16180 -0.20561
 N14 N -0.19329 0.14669 -0.19122
 C15 C -0.20998 0.16128 -0.16310
 N16 N -0.19741 0.19151 -0.14922
 C17 C -0.16855 0.20676 -0.16310
 N18 N -0.15233 0.19184 -0.19120
 C19 C 0.16191 0.83807 -0.20328
 N20 N 0.14826 0.80825 -0.18995
 C21 C 0.16376 0.79205 -0.16218
 N22 N 0.19332 0.80560 -0.14792
 C23 C 0.20701 0.83584 -0.16047
 N24 N 0.19095 0.85202 -0.18816
 C25 C 0.16378 1.16386 0.79421
 N26 N 0.19390 1.15050 0.80772
 C27 C 0.21074 1.16683 0.83468
 N28 N 0.19741 1.19679 0.84821
 C29 C 0.16692 1.21015 0.83563
 N30 N 0.15033 1.19340 0.80872
 C31 C 0.84088 0.83897 0.79575
 N32 N 0.81070 0.85252 0.80888
 C33 C 0.79403 0.83691 0.83624
 N34 N 0.80761 0.80743 0.85056
 C35 C 0.83810 0.79378 0.83834
 N36 N 0.85454 0.80983 0.81098
 C37 C 0.16213 0.83584 1.20528
 N38 N 0.14832 0.80579 1.19220
 C39 C 0.16456 0.78813 1.16565
 N40 N 0.19473 0.80086 1.15194
 C41 C 0.20838 0.83117 1.16416
 N42 N 0.19203 0.84841 1.19077
 C43 C 0.83573 1.16561 1.20688
 N44 N 0.80491 1.15380 1.19373
 C45 C 0.79171 1.16659 1.16301
 N46 N 0.80914 1.19218 1.14564
 C47 C 0.83949 1.20521 1.15900
 N48 N 0.85273 1.19135 1.18934
 O49 O 0.45068 1.06070 1.06377
 O50 O 0.41257 1.02699 1.03160
 C51 C 0.41945 1.05102 1.05462
 O52 O 0.54907 1.05913 0.93766
 O53 O 0.58738 1.02718 0.97148
 C54 C 0.58033 1.04980 0.94715
 O55 O 0.45089 1.06309 0.94165
 O56 O 0.41267 1.02837 0.97215
 C57 C 0.41957 1.05330 0.95018
 O58 O 0.54897 1.05746 1.06735
 O59 O 0.58727 1.02721 1.03211
 C60 C 0.58031 1.04929 1.05708
 Zr61 Zr 0.49991 1.04124 1.04699
 O62 O 0.50370 1.09623 1.04803
 O63 O 0.49599 1.04003 1.10285
 Zr64 Zr 0.49997 1.04259 0.95739
 O65 O 0.50405 1.09755 0.95777
 O66 O 0.49574 1.04286 0.90153
 O67 O 0.46881 1.04875 1.00223
 O68 O 0.53015 1.04837 1.00235
 O69 O 0.54946 0.93567 1.06432
 O70 O 0.58765 0.96923 1.03232
 C71 C 0.58073 0.94564 1.05576
 O72 O 0.45124 0.93429 0.93954
 O73 O 0.41286 0.96831 0.97101
 C74 C 0.41994 0.94397 0.94838
 O75 O 0.54942 0.93760 0.93671
 O76 O 0.58760 0.96984 0.97030
 C77 C 0.58071 0.94712 0.94587
 O78 O 0.45112 0.93246 1.06074
 O79 O 0.41281 0.96740 1.03019
 C80 C 0.41976 0.94238 1.05211
 Zr81 Zr 0.50021 0.95317 1.04545
 O82 O 0.50427 0.89820 1.04592
 O83 O 0.49628 0.95380 1.10134
 Zr84 Zr 0.50022 0.95446 0.95602
 O85 O 0.50431 0.89951 0.95408
 O86 O 0.49636 0.95653 0.90015
 Zr87 Zr 0.44817 0.99789 1.00126
 Zr88 Zr 0.55194 0.99800 1.00158
 O89 O 0.53058 0.94754 1.00071
 O90 O 0.46911 0.94702 1.00053
 O91 O 0.53126 0.99714 1.05324
 O92 O 0.46975 0.99860 0.95010
 O93 O 0.46972 0.99705 1.05257
 O94 O 0.53121 0.99863 0.94985
 H95 H 0.54585 1.06885 1.00258
 H96 H 0.45381 0.99890 0.92941
 H97 H 0.54640 0.92709 1.00042
 H98 H 0.45385 0.99660 1.07324
 H99 H 0.51527 1.02874 0.89211
 H100 H 0.51728 0.96879 0.89127
 H101 H 0.48599 0.88994 0.96968
 H102 H 0.48638 0.88907 1.02945
 H103 H 0.51741 0.96541 1.11072
 H104 H 0.51543 1.02545 1.11179
 H105 H 0.48418 1.10561 1.03372
 H106 H 0.48548 1.10659 0.97347
 O107 O -0.06422 0.44792 0.05843
 O108 O -0.03043 0.41074 0.02521
 C109 C -0.05447 0.41702 0.04838
 O110 O -0.06335 0.54973 -0.06379
 O111 O -0.03026 0.58683 -0.02972
 C112 C -0.05359 0.58060 -0.05379
 O113 O -0.06701 0.45158 -0.06319
 O114 O -0.03198 0.41271 -0.03363
 C115 C -0.05713 0.42010 -0.05532
 O116 O -0.06298 0.54586 0.06330
 O117 O -0.03008 0.58470 0.03168
 C118 C -0.05352 0.57733 0.05520
 Zr119 Zr -0.04455 0.49740 0.04353
 O120 O -0.09955 0.49715 0.04886
 O121 O -0.03977 0.49295 0.09922
 Zr122 Zr -0.04613 0.50009 -0.04616
 O123 O -0.10131 0.50370 -0.04604
 O124 O -0.04593 0.49786 -0.10214
 O125 O -0.05227 0.46792 -0.00220
 O126 O -0.05172 0.52890 -0.00035
 O127 O 0.06144 0.54554 0.06264
 O128 O 0.02801 0.58483 0.03152
 C129 C 0.05165 0.57704 0.05487
 O130 O 0.06322 0.45153 -0.06416
 O131 O 0.02840 0.41251 -0.03477
 C132 C 0.05336 0.42012 -0.05648
 O133 O 0.05967 0.54933 -0.06478
 O134 O 0.02735 0.58659 -0.03032
 C135 C 0.05032 0.58032 -0.05469
 O136 O 0.06401 0.44758 0.05651
 O137 O 0.02873 0.41079 0.02458
 C138 C 0.05366 0.41673 0.04701
 Zr139 Zr 0.04370 0.49722 0.04222
 O140 O 0.09888 0.50077 0.04260
 O141 O 0.04325 0.49187 0.09798
 Zr142 Zr 0.04232 0.49991 -0.04724
 O143 O 0.09736 0.50373 -0.05020
 O144 O 0.03929 0.49754 -0.10315
 Zr145 Zr -0.00127 0.44707 -0.00377
 Zr146 Zr -0.00118 0.55037 -0.00030
 O147 O 0.04938 0.52872 -0.00161
 O148 O 0.04980 0.46758 -0.00360
 O149 O -0.00034 0.52829 0.05077
 O150 O -0.00200 0.46994 -0.05428
 O151 O -0.00036 0.46686 0.04821
 O152 O -0.00196 0.53126 -0.05262
 H153 H -0.07216 0.54475 0.00002
 H154 H -0.00228 0.45447 -0.07529
 H155 H 0.06999 0.54428 -0.00134
 H156 H -0.00000 0.45044 0.06841
 H157 H -0.03259 0.51819 -0.11071
 H158 H 0.02810 0.51932 -0.11140
 H159 H 0.10714 0.48734 -0.03261
 H160 H 0.10797 0.48231 0.02682
 H161 H 0.03053 0.51214 0.10778
 H162 H -0.03065 0.51530 0.10843
 H163 H -0.10949 0.50750 0.02714
 H164 H -0.11006 0.48565 -0.02964
 O165 O 1.06494 -0.05974 0.54814
 O166 O 1.03242 -0.02767 0.58752
 C167 C 1.05638 -0.05037 0.58004
 O168 O 1.05905 0.06657 0.45030
 O169 O 1.02815 0.03237 0.41142
 C170 C 1.05013 0.05695 0.41860
 O171 O 1.06370 0.06180 0.54982
 O172 O 1.03040 0.02971 0.58828
 C173 C 1.05424 0.05249 0.58141
 O174 O 1.06172 -0.06079 0.44835
 O175 O 1.02909 -0.02710 0.41040
 C176 C 1.05207 -0.05103 0.41691
 Zr177 Zr 1.04501 -0.04256 0.49865
 O178 O 1.10015 -0.04200 0.49468
 O179 O 1.04527 -0.09763 0.50149
 Zr180 Zr 1.04392 0.04559 0.49985
 O181 O 1.09904 0.04528 0.49523
 O182 O 1.04410 0.10051 0.50459
 O183 O 1.05170 0.00123 0.53070
 O184 O 1.05046 0.00198 0.46853
 O185 O 0.94083 -0.06357 0.44965
 O186 O 0.97045 -0.02816 0.41113
 C187 C 0.94899 -0.05321 0.41804
 O188 O 0.93704 0.06122 0.55078
 O189 O 0.97044 0.02833 0.58880
 C190 C 0.94654 0.05136 0.58222
 O191 O 0.93744 0.06391 0.45123
 O192 O 0.97037 0.03236 0.41174
 C193 C 0.94697 0.05559 0.41936
 O194 O 0.93753 -0.06064 0.54921
 O195 O 0.97158 -0.02929 0.58781
 C196 C 0.94756 -0.05191 0.58083
 Zr197 Zr 0.95657 -0.04337 0.49950
 O198 O 0.90137 -0.04292 0.49563
 O199 O 0.95641 -0.09836 0.50308
 Zr200 Zr 0.95555 0.04474 0.50060
 O201 O 0.90030 0.04388 0.49789
 O202 O 0.95512 0.09975 0.50459
 Zr203 Zr 1.00091 0.00052 0.55212
 Zr204 Zr 0.99963 0.00170 0.44710
 O205 O 0.94931 0.00091 0.46938
 O206 O 0.94962 0.00029 0.53168
 O207 O 1.00054 -0.04942 0.46744
 O208 O 1.00001 0.05118 0.53093
 O209 O 1.00124 -0.04967 0.52969
 O210 O 0.99927 0.05233 0.46879
 H211 H 1.07083 0.00254 0.45241
 H212 H 0.99996 0.07153 0.54708
 H213 H 0.92871 0.00071 0.45345
 H214 H 1.00167 -0.07024 0.54548
 H215 H 1.02753 0.10972 0.48680
 H216 H 0.96792 0.10903 0.48395
 H217 H 0.89183 0.03007 0.51820
 H218 H 0.89230 -0.02974 0.51616
 H219 H 0.97282 -0.10725 0.48503
 H220 H 1.03228 -0.10653 0.48072
 H221 H 1.10916 -0.02777 0.51453
 H222 H 1.10851 0.03210 0.51559
 C223 C 1.11384 0.12216 0.29719
 C224 C 1.14061 0.10334 0.27980
 C225 C 1.15766 0.11782 0.25040
 C226 C 1.14731 0.15035 0.23672
 C227 C 1.11955 0.16810 0.25326
 C228 C 1.10327 0.15441 0.28312
 C229 C 1.09727 0.10646 0.32929
 C230 C 1.07323 0.12467 0.35077
 C231 C 1.05835 0.10872 0.38029
 C232 C 1.06674 0.07426 0.38862
 C233 C 1.09081 0.05596 0.36788
 C234 C 1.10676 0.07206 0.33881
 C235 C 1.14966 0.06984 0.29135
 C236 C 1.13253 0.05422 0.31971
 H237 H 1.16985 0.05518 0.27781
 H238 H 1.14002 0.02800 0.32720
 H239 H 1.17843 0.10320 0.23772
 H240 H 1.11045 0.19303 0.24347
 H241 H 1.03983 0.12308 0.39635
 H242 H 1.09751 0.02937 0.37482
 H243 H 1.08214 0.16928 0.29448
 H244 H 1.06592 0.15130 0.34549
 C245 C 0.88850 -0.11922 0.29499
 C246 C 0.86330 -0.10003 0.27568
 C247 C 0.84665 -0.11512 0.24622
 C248 C 0.85602 -0.14867 0.23444
 C249 C 0.88292 -0.16646 0.25243
 C250 C 0.89868 -0.15215 0.28236
 C251 C 0.90394 -0.10325 0.32760
 C252 C 0.92528 -0.12205 0.35138
 C253 C 0.93921 -0.10589 0.38135
 C254 C 0.93267 -0.07065 0.38781
 C255 C 0.91109 -0.05176 0.36481
 C256 C 0.89585 -0.06807 0.33534
 C257 C 0.85536 -0.06572 0.28554
 C258 C 0.87203 -0.04976 0.31414
 H259 H 0.83646 -0.05075 0.27050
 H260 H 0.86552 -0.02294 0.32028
 H261 H 0.82673 -0.10041 0.23227
 H262 H 0.89144 -0.19208 0.24403
 H263 H 0.95570 -0.12073 0.39917
 H264 H 0.90564 -0.02455 0.37035
 H265 H 0.91902 -0.16715 0.29504
 H266 H 0.93107 -0.14931 0.34757
 C267 C 0.88470 0.11739 0.70442
 C268 C 0.85913 0.09840 0.72317
 C269 C 0.84248 0.11342 0.75258
 C270 C 0.85213 0.14669 0.76495
 C271 C 0.87897 0.16451 0.74724
 C272 C 0.89481 0.15027 0.71732
 C273 C 0.90058 0.10124 0.67215
 C274 C 0.92285 0.11968 0.64919
 C275 C 0.93718 0.10339 0.61956
 C276 C 0.93004 0.06839 0.61251
 C277 C 0.90760 0.04981 0.63469
 C278 C 0.89209 0.06625 0.66394
 C279 C 0.85089 0.06429 0.71291
 C280 C 0.86766 0.04825 0.68447
 H281 H 0.83163 0.04951 0.72752
 H282 H 0.86086 0.02160 0.67799
 H283 H 0.82250 0.09868 0.76624
 H284 H 0.88756 0.18995 0.75607
 H285 H 0.95437 0.11798 0.60235
 H286 H 0.90175 0.02281 0.62872
 H287 H 0.91522 0.16524 0.70496
 H288 H 0.92914 0.14674 0.65337
 C289 C 1.11828 -0.11685 0.70226
 C290 C 1.13218 -0.09508 0.72906
 C291 C 1.14699 -0.10986 0.75966
 C292 C 1.14636 -0.14603 0.76481
 C293 C 1.13093 -0.16733 0.73904
 C294 C 1.11730 -0.15305 0.70804
 C295 C 1.10395 -0.10030 0.66944
 C296 C 1.09383 -0.11974 0.63946
 C297 C 1.07946 -0.10322 0.60994
 C298 C 1.07434 -0.06714 0.60990
 C299 C 1.08537 -0.04734 0.63904
 C300 C 1.10103 -0.06357 0.66837
 C301 C 1.13029 -0.05878 0.72554
 C302 C 1.11419 -0.04337 0.69627
 H303 H 1.14058 -0.04204 0.74618
 H304 H 1.11255 -0.01519 0.69519
 H305 H 1.15819 -0.09321 0.77990
 H306 H 1.12995 -0.19530 0.74257
 H307 H 1.07135 -0.11880 0.58746
 H308 H 1.08213 -0.01928 0.63863
 H309 H 1.10563 -0.17071 0.68922
 H310 H 1.09701 -0.14764 0.63820
 C311 C 0.29945 1.11465 1.12159
 C312 C 0.28777 1.14691 1.10785
 C313 C 0.25801 1.16322 1.12209
 C314 C 0.23977 1.14826 1.15062
 C315 C 0.25224 1.11666 1.16471
 C316 C 0.28146 1.10009 1.15043
 C317 C 0.33070 1.09759 1.10503
 C318 C 0.34291 1.06437 1.11520
 C319 C 0.37201 1.04956 1.09884
 C320 C 0.38971 1.06754 1.07226
 C321 C 0.37793 1.10042 1.06163
 C322 C 0.34830 1.11539 1.07751
 C323 C 0.30600 1.16286 1.08016
 C324 C 0.33583 1.14764 1.06561
 H325 H 0.29722 1.18766 1.06971
 H326 H 0.34911 1.16116 1.04439
 H327 H 0.24930 1.18776 1.11094
 H328 H 0.23928 1.10426 1.18680
 H329 H 0.38081 1.02395 1.10697
 H330 H 0.39143 1.11394 1.04052
 H331 H 0.28958 1.07599 1.16256
 H332 H 0.33017 1.04919 1.13536
 C333 C 0.29884 0.87798 0.88613
 C334 C 0.27958 0.89748 0.86100
 C335 C 0.24965 0.88316 0.84509
 C336 C 0.23740 0.84999 0.85494
 C337 C 0.25604 0.83137 0.88094
 C338 C 0.28636 0.84498 0.89609
 C339 C 0.33115 0.89380 0.90180
 C340 C 0.35395 0.87533 0.92445
 C341 C 0.38333 0.89154 0.93894
 C342 C 0.39033 0.92645 0.93148
 C343 C 0.36848 0.94492 0.90842
 C344 C 0.33933 0.92869 0.89302
 C345 C 0.28984 0.93146 0.85248
 C346 C 0.31868 0.94696 0.86865
 H347 H 0.27495 0.94657 0.83348
 H348 H 0.32518 0.97351 0.86160
 H349 H 0.23547 0.89840 0.82563
 H350 H 0.24749 0.80588 0.88954
 H351 H 0.40029 0.87700 0.95657
 H352 H 0.37453 0.97177 0.90212
 H353 H 0.29932 0.82943 0.91594
 H354 H 0.34970 0.84838 0.93112
 C355 C 0.70010 0.87764 1.11972
 C356 C 0.72291 0.89834 1.14033
 C357 C 0.75231 0.88318 1.15660
 C358 C 0.76092 0.84796 1.15056
 C359 C 0.73901 0.82813 1.12843
 C360 C 0.70888 0.84255 1.11363
 C361 C 0.66831 0.89437 1.10398
 C362 C 0.64150 0.87509 1.08752
 C363 C 0.61270 0.89194 1.07260
 C364 C 0.61034 0.92828 1.07310
 C365 C 0.63636 0.94780 1.09006
 C366 C 0.66475 0.93100 1.10648
 C367 C 0.71692 0.93425 1.14346
 C368 C 0.68907 0.95039 1.12600
 H369 H 0.73462 0.95031 1.15881
 H370 H 0.68611 0.97837 1.12844
 H371 H 0.76926 0.89934 1.17272
 H372 H 0.74476 0.80105 1.12281
 H373 H 0.59252 0.87658 1.05991
 H374 H 0.63400 0.97594 1.09118
 H375 H 0.69324 0.82602 1.09682
 H376 H 0.64209 0.84702 1.08635
 C377 C 0.70076 1.11187 0.88056
 C378 C 0.71493 1.14193 0.89681
 C379 C 0.74419 1.15845 0.88205
 C380 C 0.76039 1.14506 0.85149
 C381 C 0.74650 1.11476 0.83594
 C382 C 0.71715 1.09851 0.85011
 C383 C 0.66912 1.09541 0.89676
 C384 C 0.65217 1.06627 0.88178
 C385 C 0.62287 1.05184 0.89802
 C386 C 0.60995 1.06607 0.92940
 C387 C 0.62627 1.09500 0.94459
 C388 C 0.65558 1.10994 0.92838
 C389 C 0.70006 1.15518 0.92790
 C390 C 0.67124 1.13933 0.94353
 H391 H 0.71103 1.17804 0.94053
 H392 H 0.66089 1.15043 0.96774
 H393 H 0.75451 1.18155 0.89482
 H394 H 0.75815 1.10342 0.81249
 H395 H 0.61042 1.02930 0.88625
 H396 H 0.61608 1.10582 0.96902
 H397 H 0.70793 1.07540 0.83687
 H398 H 0.66098 1.05424 0.85760
 C399 C 0.11652 0.29601 0.11332
 C400 C 0.15345 0.29424 0.11476
 C401 C 0.16999 0.26513 0.13011
 C402 C 0.15007 0.23864 0.14568
 C403 C 0.11356 0.24125 0.14540
 C404 C 0.09694 0.26934 0.12928
 C405 C 0.09977 0.32673 0.09579
 C406 C 0.06354 0.32873 0.08944
 C407 C 0.04901 0.35797 0.07336
 C408 C 0.07003 0.38616 0.06364
 C409 C 0.10621 0.38442 0.06933
 C410 C 0.12131 0.35449 0.08451
 C411 C 0.17346 0.32195 0.10179
 C412 C 0.15771 0.35177 0.08774
 H413 H 0.20172 0.32089 0.10320
 H414 H 0.17431 0.37277 0.07870
 H415 H 0.19827 0.26360 0.13097
 H416 H 0.09767 0.22120 0.15744
 H417 H 0.02103 0.35877 0.06891
 H418 H 0.12259 0.40590 0.06103
 H419 H 0.06880 0.26993 0.13020
 H420 H 0.04601 0.30784 0.09618
 C421 C -0.12540 0.29992 -0.11746
 C422 C -0.10338 0.27230 -0.12847
 C423 C -0.11776 0.24244 -0.14409
 C424 C -0.15402 0.23865 -0.14717
 C425 C -0.17598 0.26514 -0.13462
 C426 C -0.16189 0.29566 -0.12028
 C427 C -0.10879 0.33198 -0.10225
 C428 C -0.12765 0.36269 -0.09460
 C429 C -0.11079 0.39173 -0.08010
 C430 C -0.07502 0.39047 -0.07227
 C431 C -0.05602 0.36024 -0.08023
 C432 C -0.07232 0.33153 -0.09602
 C433 C -0.06725 0.27416 -0.12296
 C434 C -0.05217 0.30275 -0.10620
 H435 H -0.05045 0.25282 -0.13096
 H436 H -0.02419 0.30260 -0.10173
 H437 H -0.10073 0.22157 -0.15294
 H438 H -0.20409 0.26246 -0.13646
 H439 H -0.12587 0.41494 -0.07428
 H440 H -0.02825 0.35930 -0.07468
 H441 H -0.17989 0.31532 -0.11106
 H442 H -0.15525 0.36488 -0.10001
 C443 C 0.11850 0.69970 -0.11768
 C444 C 0.09723 0.72874 -0.12612
 C445 C 0.11208 0.75833 -0.14180
 C446 C 0.14824 0.76029 -0.14720
 C447 C 0.16953 0.73230 -0.13717
 C448 C 0.15487 0.70214 -0.12296
 C449 C 0.10147 0.66812 -0.10226
 C450 C 0.11929 0.63632 -0.09750
 C451 C 0.10237 0.60772 -0.08262
 C452 C 0.06757 0.61033 -0.07148
 C453 C 0.04944 0.64172 -0.07647
 C454 C 0.06576 0.67016 -0.09283
 C455 C 0.06158 0.72850 -0.11777
 C456 C 0.04640 0.70023 -0.10054
 H457 H 0.04535 0.75089 -0.12379
 H458 H 0.01892 0.70164 -0.09381
 H459 H 0.09570 0.78042 -0.14862
 H460 H 0.19757 0.73361 -0.14075
 H461 H 0.11677 0.58363 -0.07919
 H462 H 0.02240 0.64376 -0.06829
 H463 H 0.17245 0.68136 -0.11560
 H464 H 0.14610 0.63288 -0.10557
 C465 C -0.12246 0.69547 0.12114
 C466 C -0.10257 0.72633 0.12460
 C467 C -0.11722 0.75582 0.14067
 C468 C -0.15219 0.75587 0.15137
 C469 C -0.17258 0.72608 0.14622
 C470 C -0.15780 0.69595 0.13169
 C471 C -0.10525 0.66410 0.10517
 C472 C -0.12085 0.63088 0.10477
 C473 C -0.10375 0.60255 0.08920
 C474 C -0.07105 0.60681 0.07309
 C475 C -0.05528 0.63974 0.07365
 C476 C -0.07152 0.66796 0.09049
 C477 C -0.06863 0.72797 0.11098
 C478 C -0.05385 0.69974 0.09331
 H479 H -0.05360 0.75178 0.11317
 H480 H -0.02789 0.70260 0.08232
 H481 H -0.10176 0.77929 0.14375
 H482 H -0.19982 0.72600 0.15392
 H483 H -0.11647 0.57738 0.08920
 H484 H -0.03004 0.64340 0.06132
 H485 H -0.17452 0.67360 0.12828
 H486 H -0.14597 0.62622 0.11676
 C487 C 1.11420 0.11781 0.70509
 C488 C 1.14631 0.10440 0.71777
 C489 C 1.16217 0.11907 0.74786
 C490 C 1.14706 0.14790 0.76519
 C491 C 1.11528 0.16120 0.75214
 C492 C 1.09906 0.14639 0.72272
 C493 C 1.09810 0.10148 0.67294
 C494 C 1.06513 0.11153 0.65967
 C495 C 1.05136 0.09573 0.62951
 C496 C 1.07022 0.06994 0.61173
 C497 C 1.10273 0.05919 0.62474
 C498 C 1.11661 0.07447 0.65550
 C499 C 1.16280 0.07691 0.69991
 C500 C 1.14847 0.06254 0.66923
 H501 H 1.18747 0.06669 0.70951
 H502 H 1.16244 0.04159 0.65618
 H503 H 1.18677 0.10840 0.75717
 H504 H 1.10269 0.18334 0.76456
 H505 H 1.02572 0.10346 0.62011
 H506 H 1.11672 0.03842 0.61137
 H507 H 1.07496 0.15814 0.71395
 H508 H 1.04927 0.13105 0.67243
 C509 C 0.88903 -0.11679 0.70514
 C510 C 0.85678 -0.10362 0.71759
 C511 C 0.84147 -0.11768 0.74814
 C512 C 0.85719 -0.14575 0.76621
 C513 C 0.88905 -0.15894 0.75334
 C514 C 0.90478 -0.14466 0.72343
 C515 C 0.90463 -0.10089 0.67261
 C516 C 0.93780 -0.11046 0.65958
 C517 C 0.95127 -0.09473 0.62931
 C518 C 0.93186 -0.06963 0.61108
 C519 C 0.89898 -0.05966 0.62363
 C520 C 0.88547 -0.07469 0.65459
 C521 C 0.83960 -0.07698 0.69909
 C522 C 0.85340 -0.06316 0.66802
 H523 H 0.81481 -0.06695 0.70851
 H524 H 0.83891 -0.04284 0.65450
 H525 H 0.81674 -0.10717 0.75721
 H526 H 0.90205 -0.18055 0.76627
 H527 H 0.97710 -0.10201 0.62016
 H528 H 0.88444 -0.03955 0.60982
 H529 H 0.92899 -0.15624 0.71482
 H530 H 0.95403 -0.12949 0.67265
 C531 C 1.11691 -0.11290 0.29385
 C532 C 1.09946 -0.14120 0.27764
 C533 C 1.11441 -0.15810 0.24827
 C534 C 1.14633 -0.14665 0.23393
 C535 C 1.16257 -0.11743 0.24929
 C536 C 1.14824 -0.10094 0.27879
 C537 C 1.10102 -0.09664 0.32615
 C538 C 1.11791 -0.07044 0.34600
 C539 C 1.10202 -0.05614 0.37589
 C540 C 1.06900 -0.06742 0.38647
 C541 C 1.05191 -0.09354 0.36730
 C542 C 1.06794 -0.10867 0.33757
 C543 C 1.06707 -0.15228 0.29065
 C544 C 1.05139 -0.13598 0.31959
 H545 H 1.05346 -0.17370 0.27806
 H546 H 1.02616 -0.14531 0.32840
 H547 H 1.10094 -0.18012 0.23658
 H548 H 1.18691 -0.10738 0.23896
 H549 H 1.11539 -0.03593 0.39064
 H550 H 1.02633 -0.10226 0.37578
 H551 H 1.16210 -0.07877 0.28926
 H552 H 1.14345 -0.06084 0.33915
 C553 C 0.87921 0.12003 0.29933
 C554 C 0.89987 0.14149 0.27739
 C555 C 0.88495 0.15768 0.24765
 C556 C 0.85009 0.15095 0.23779
 C557 C 0.83024 0.12826 0.25891
 C558 C 0.84440 0.11337 0.28940
 C559 C 0.89576 0.10412 0.33141
 C560 C 0.87642 0.08627 0.35737
 C561 C 0.89318 0.07122 0.38641
 C562 C 0.92950 0.07308 0.38979
 C563 C 0.94903 0.09136 0.36467
 C564 C 0.93228 0.10776 0.33608
 C565 C 0.93558 0.14560 0.28451
 C566 C 0.95164 0.12829 0.31265
 H567 H 0.95158 0.16166 0.26747
 H568 H 0.97952 0.13154 0.31650
 H569 H 0.90113 0.17433 0.23135
 H570 H 0.80342 0.12214 0.25217
 H571 H 0.87784 0.05741 0.40593
 H572 H 0.97713 0.09336 0.36785
 H573 H 0.82792 0.09607 0.30437
 H574 H 0.84837 0.08401 0.35594
 C575 C 0.12292 0.30128 -0.11864
 C576 C 0.10366 0.28139 -0.14341
 C577 C 0.11872 0.25185 -0.15915
 C578 C 0.15242 0.24052 -0.14943
 C579 C 0.17093 0.25980 -0.12387
 C580 C 0.15656 0.28982 -0.10890
 C581 C 0.10616 0.33307 -0.10305
 C582 C 0.12421 0.35651 -0.08082
 C583 C 0.10711 0.38534 -0.06635
 C584 C 0.07171 0.39110 -0.07337
 C585 C 0.05365 0.36862 -0.09604
 C586 C 0.07075 0.34007 -0.11146
 C587 C 0.06914 0.29054 -0.15168
 C588 C 0.05282 0.31884 -0.13551
 H589 H 0.05425 0.27514 -0.17042
 H590 H 0.02587 0.32447 -0.14231
 H591 H 0.10357 0.23717 -0.17829
 H592 H 0.19682 0.25190 -0.11541
 H593 H 0.12134 0.40281 -0.04902
 H594 H 0.02644 0.37377 -0.10208
 H595 H 0.17198 0.30331 -0.08932
 H596 H 0.15150 0.35317 -0.07448
 C597 C -0.11216 0.29370 0.11308
 C598 C -0.14030 0.27716 0.09556
 C599 C -0.15608 0.24764 0.11059
 C600 C -0.14363 0.23353 0.14265
 C601 C -0.11435 0.24908 0.15874
 C602 C -0.09897 0.27870 0.14434
 C603 C -0.09734 0.32627 0.09735
 C604 C -0.07169 0.34647 0.11460
 C605 C -0.05853 0.37648 0.09878
 C606 C -0.07048 0.38691 0.06549
 C607 C -0.09622 0.36748 0.04810
 C608 C -0.11022 0.33758 0.06410
 C609 C -0.15236 0.29008 0.06306
 C610 C -0.13721 0.31925 0.04736
 H611 H -0.17365 0.27723 0.04936
 H612 H -0.14722 0.32795 0.02201
 H613 H -0.17812 0.23576 0.09716
 H614 H -0.10350 0.23889 0.18313
 H615 H -0.03851 0.39135 0.11231
 H616 H -0.10542 0.37580 0.02228
 H617 H -0.07674 0.28937 0.15812
 H618 H -0.06159 0.33974 0.14036
 C619 C -0.11930 0.70241 -0.11475
 C620 C -0.10027 0.72081 -0.14075
 C621 C -0.11466 0.75072 -0.15656
 C622 C -0.14761 0.76352 -0.14616
 C623 C -0.16588 0.74555 -0.11960
 C624 C -0.15209 0.71545 -0.10427
 C625 C -0.10337 0.67018 -0.09909
 C626 C -0.12113 0.64877 -0.07474
 C627 C -0.10495 0.61929 -0.06056
 C628 C -0.07079 0.61064 -0.07015
 C629 C -0.05299 0.63116 -0.09475
 C630 C -0.06912 0.66065 -0.10954
 C631 C -0.06677 0.70956 -0.15047
 C632 C -0.05136 0.68041 -0.13487
 H633 H -0.05203 0.72377 -0.17017
 H634 H -0.02523 0.67304 -0.14302
 H635 H -0.09972 0.76427 -0.17661
 H636 H -0.19120 0.75450 -0.11059
 H637 H -0.11895 0.60342 -0.04163
 H638 H -0.02676 0.62386 -0.10263
 H639 H -0.16744 0.70304 -0.08402
 H640 H -0.14750 0.65420 -0.06638
 C641 C 0.12017 0.69455 0.12132
 C642 C 0.09866 0.71894 0.13915
 C643 C 0.11343 0.74886 0.15451
 C644 C 0.14931 0.75565 0.15125
 C645 C 0.17042 0.73174 0.13304
 C646 C 0.15617 0.70152 0.11844
 C647 C 0.10341 0.66298 0.10524
 C648 C 0.12273 0.63593 0.08918
 C649 C 0.10576 0.60763 0.07356
 C650 C 0.06927 0.60588 0.07317
 C651 C 0.04978 0.63195 0.08996
 C652 C 0.06655 0.66016 0.10644
 C653 C 0.06247 0.71381 0.14072
 C654 C 0.04671 0.68532 0.12429
 H655 H 0.04596 0.73249 0.15426
 H656 H 0.01857 0.68282 0.12580
 H657 H 0.09677 0.76744 0.16803
 H658 H 0.19816 0.73637 0.13008
 H659 H 0.12116 0.58741 0.06098
 H660 H 0.02160 0.62988 0.09070
 H661 H 0.17370 0.68433 0.10449
 H662 H 0.15089 0.63606 0.08846
 C663 C 0.30212 1.12201 0.88280
 C664 C 0.27400 1.10057 0.87194
 C665 C 0.24493 1.11529 0.85487
 C666 C 0.24248 1.15142 0.85024
 C667 C 0.26963 1.17279 0.86227
 C668 C 0.29931 1.15831 0.87801
 C669 C 0.33309 1.10516 0.90004
 C670 C 0.36410 1.12338 0.90792
 C671 C 0.39224 1.10644 0.92405
 C672 C 0.38986 1.07122 0.93331
 C673 C 0.35923 1.05281 0.92545
 C674 C 0.33133 1.06920 0.90801
 C675 C 0.27453 1.06483 0.87927
 C676 C 0.30218 1.04964 0.89773
 H677 H 0.25282 1.04847 0.87135
 H678 H 0.30101 1.02202 0.90348
 H679 H 0.22348 1.09879 0.84649
 H680 H 0.26794 1.20081 0.85931
 H681 H 0.41581 1.12103 0.92966
 H682 H 0.35751 1.02540 0.93201
 H683 H 0.31935 1.17599 0.88696
 H684 H 0.36735 1.15049 0.90128
 C685 C 0.30060 0.87457 1.11656
 C686 C 0.27327 0.89650 1.12853
 C687 C 0.24379 0.88211 1.14492
 C688 C 0.24013 0.84592 1.14800
 C689 C 0.26645 0.82412 1.13477
 C690 C 0.29652 0.83820 1.11955
 C691 C 0.33216 0.89112 1.10028
 C692 C 0.36251 0.87219 1.09130
 C693 C 0.39117 0.88892 1.07606
 C694 C 0.38993 0.92466 1.06875
 C695 C 0.36004 0.94377 1.07789
 C696 C 0.33167 0.92752 1.09442
 C697 C 0.27507 0.93255 1.12325
 C698 C 0.30327 0.94763 1.10582
 H699 H 0.25399 0.94930 1.13208
 H700 H 0.30313 0.97558 1.10177
 H701 H 0.22309 0.89908 1.15430
 H702 H 0.26395 0.79608 1.13660
 H703 H 0.41418 0.87380 1.06943
 H704 H 0.35926 0.97157 1.07292
 H705 H 0.31595 0.82024 1.10976
 H706 H 0.36479 0.84463 1.09631
 C707 C 0.69834 1.11967 1.12122
 C708 C 0.72470 1.13185 1.09809
 C709 C 0.75437 1.14866 1.11180
 C710 C 0.75909 1.15195 1.14846
 C711 C 0.73336 1.13918 1.17133
 C712 C 0.70322 1.12353 1.15797
 C713 C 0.66705 1.10196 1.10557
 C714 C 0.63788 1.09189 1.12587
 C715 C 0.60957 1.07499 1.11006
 C716 C 0.61001 1.06714 1.07389
 C717 C 0.63862 1.07743 1.05333
 C718 C 0.66665 1.09548 1.06869
 C719 C 0.72190 1.12604 1.06159
 C720 C 0.69386 1.10761 1.04729
 H721 H 0.74215 1.13512 1.04388
 H722 H 0.69327 1.10313 1.01896
 H723 H 0.77456 1.15779 1.09402
 H724 H 0.73661 1.14125 1.19974
 H725 H 0.58747 1.06759 1.12623
 H726 H 0.63861 1.07216 1.02513
 H727 H 0.68453 1.11389 1.17687
 H728 H 0.63620 1.09724 1.15384
 C729 C 0.70024 0.88097 0.88015
 C730 C 0.72765 0.90287 0.86862
 C731 C 0.75765 0.88834 0.85310
 C732 C 0.76165 0.85210 0.85070
 C733 C 0.73513 0.83042 0.86340
 C734 C 0.70461 0.84459 0.87762
 C735 C 0.66835 0.89749 0.89588
 C736 C 0.63808 0.87842 0.90434
 C737 C 0.60937 0.89485 0.91985
 C738 C 0.61041 0.93045 0.92786
 C739 C 0.64001 0.94990 0.91880
 C740 C 0.66854 0.93387 0.90203
 C741 C 0.72545 0.93896 0.87377
 C742 C 0.69691 0.95403 0.89090
 H743 H 0.74656 0.95573 0.86526
 H744 H 0.69683 0.98198 0.89504
 H745 H 0.77853 0.90519 0.84414
 H746 H 0.73791 0.80237 0.86208
 H747 H 0.58656 0.87951 0.92638
 H748 H 0.64052 0.97763 0.92425
 H749 H 0.68516 0.82667 0.88718
 H750 H 0.63594 0.85093 0.89889
   
