data_POSCAR
  _audit_creation_date              2014-09-24
  _audit_creation_method            'ToBaCCo'
  _symmetry_space_group_name_H-M    'P1'
  _symmetry_Int_Tables_number       1
  _symmetry_cell_setting            triclinic
  loop_
  _symmetry_equiv_pos_as_xyz
 x,y,z
_cell_length_a 38.7871
_cell_length_b 50.0641
_cell_length_c 35.0697
_cell_angle_alpha 90.000000
_cell_angle_beta 90.000000
_cell_angle_gamma 90.000100
loop_
  _atom_site_label
  _atom_site_type_symbol
  _atom_site_fract_x
  _atom_site_fract_y
  _atom_site_fract_z
O1 O 0.25501 0.27554 0.29852
 O2 O 0.20633 0.22345 0.24756
 O3 O 0.25509 0.22348 0.29849
 O4 O 0.20628 0.27551 0.24756
 O5 O 0.24536 0.27553 0.20188
 O6 O 0.29414 0.22351 0.25286
 O7 O 0.24541 0.22347 0.20189
 O8 O 0.29410 0.27557 0.25284
 Cu9 Cu 0.22677 0.24949 0.27761
 Cu10 Cu 0.27366 0.24952 0.22280
 C11 C 0.28285 0.28453 0.28437
 C12 C 0.21757 0.21448 0.21603
 C13 C 0.28298 0.21448 0.28442
 C14 C 0.21751 0.28449 0.21603
 O15 O 0.75287 0.22356 0.20162
 O16 O 0.70605 0.27556 0.25485
 O17 O 0.75293 0.27552 0.20163
 O18 O 0.70599 0.22361 0.25486
 O19 O 0.74665 0.22357 0.29873
 O20 O 0.79363 0.27549 0.24554
 O21 O 0.74675 0.27552 0.29876
 O22 O 0.79356 0.22353 0.24554
 Cu23 Cu 0.72538 0.24956 0.22384
 Cu24 Cu 0.77423 0.24952 0.27654
 C25 C 0.78129 0.21468 0.21442
 C26 C 0.71833 0.28441 0.28597
 C27 C 0.78137 0.28436 0.21443
 C28 C 0.71817 0.21469 0.28602
 O29 O 0.74717 0.77641 0.70162
 O30 O 0.79398 0.72441 0.75484
 O31 O 0.74710 0.72445 0.70163
 O32 O 0.79404 0.77636 0.75485
 O33 O 0.75338 0.77640 0.79873
 O34 O 0.70640 0.72448 0.74554
 O35 O 0.75328 0.72445 0.79876
 O36 O 0.70647 0.77644 0.74554
 Cu37 Cu 0.77465 0.75041 0.72384
 Cu38 Cu 0.72581 0.75045 0.77654
 C39 C 0.71874 0.78529 0.71442
 C40 C 0.78170 0.71557 0.78597
 C41 C 0.71866 0.71561 0.71442
 C42 C 0.78186 0.78528 0.78602
 O43 O 0.29370 0.77652 0.74756
 O44 O 0.24502 0.72443 0.79852
 O45 O 0.29375 0.72446 0.74756
 O46 O 0.24494 0.77649 0.79849
 O47 O 0.20589 0.77646 0.75286
 O48 O 0.25467 0.72444 0.70188
 O49 O 0.20593 0.72441 0.75284
 O50 O 0.25462 0.77650 0.70189
 Cu51 Cu 0.27326 0.75048 0.77760
 Cu52 Cu 0.22637 0.75045 0.72279
 C53 C 0.28246 0.78549 0.71603
 C54 C 0.21718 0.71544 0.78437
 C55 C 0.28252 0.71548 0.71603
 C56 C 0.21705 0.78550 0.78442
 C57 C 0.98232 -0.00059 -0.00029
 C58 C 1.01748 -0.00060 -0.00027
 C59 C 1.03759 0.01921 0.02212
 C60 C 1.03759 -0.02041 -0.02264
 C61 C 0.96218 -0.02200 -0.01938
 C62 C 0.96219 0.02084 0.01878
 C63 C 1.06256 0.03498 0.00386
 C64 C 1.08109 0.05411 0.02440
 C65 C 1.07507 0.05753 0.06345
 C66 C 1.05070 0.04149 0.08202
 C67 C 1.03217 0.02232 0.06151
 C68 C 1.03220 -0.02352 -0.06203
 C69 C 1.05075 -0.04269 -0.08253
 C70 C 1.07510 -0.05873 -0.06394
 C71 C 1.08109 -0.05532 -0.02487
 C72 C 1.06254 -0.03619 -0.00436
 C73 C 0.96748 -0.04903 -0.01025
 C74 C 0.94872 -0.06897 -0.02894
 C75 C 0.92426 -0.06207 -0.05661
 C76 C 0.91840 -0.03516 -0.06527
 C77 C 0.93716 -0.01522 -0.04666
 C78 C 0.93714 0.01407 0.04604
 C79 C 0.91840 0.03403 0.06465
 C80 C 0.92430 0.06094 0.05599
 C81 C 0.94878 0.06782 0.02833
 C82 C 0.96752 0.04787 0.00965
 H83 H 1.06725 0.03277 -0.02642
 H84 H 1.09995 0.06636 0.00977
 H85 H 1.04596 0.04388 0.11227
 H86 H 1.01349 0.01000 0.07627
 H87 H 1.01355 -0.01120 -0.07681
 H88 H 1.04604 -0.04507 -0.11278
 H89 H 1.06721 -0.03399 0.02593
 H90 H 0.98619 -0.05465 0.01123
 H91 H 0.95334 -0.08973 -0.02188
 H92 H 0.89948 -0.02960 -0.08657
 H93 H 0.93255 0.00551 -0.05391
 H94 H 0.93251 -0.00665 0.05330
 H95 H 0.89947 0.02848 0.08593
 H96 H 0.95343 0.08858 0.02128
 H97 H 0.98624 0.05347 -0.01182
 H98 H 1.09993 -0.06758 -0.01023
 C99 C 0.48249 0.50008 0.50022
 C100 C 0.51765 0.50008 0.50023
 C101 C 0.53779 0.52153 0.51923
 C102 C 0.53779 0.47862 0.48125
 C103 C 0.46239 0.48024 0.47789
 C104 C 0.46238 0.51993 0.52254
 C105 C 0.53246 0.54855 0.50999
 C106 C 0.55119 0.56853 0.52861
 C107 C 0.57565 0.56170 0.55632
 C108 C 0.58154 0.53480 0.56508
 C109 C 0.56281 0.51482 0.54653
 C110 C 0.56281 0.48532 0.45395
 C111 C 0.58153 0.46533 0.43540
 C112 C 0.57562 0.43844 0.44416
 C113 C 0.55116 0.43162 0.47187
 C114 C 0.53244 0.45161 0.49049
 C115 C 0.43743 0.46448 0.49619
 C116 C 0.41893 0.44530 0.47572
 C117 C 0.42498 0.44182 0.43668
 C118 C 0.44932 0.45785 0.41806
 C119 C 0.46782 0.47707 0.43851
 C120 C 0.46780 0.52310 0.56192
 C121 C 0.44928 0.54231 0.58236
 C122 C 0.42494 0.55834 0.56374
 C123 C 0.41891 0.55486 0.52470
 C124 C 0.43743 0.53569 0.50423
 H125 H 0.51375 0.55411 0.48849
 H126 H 0.54655 0.58928 0.52148
 H127 H 0.60046 0.52930 0.58641
 H128 H 0.56744 0.49411 0.55387
 H129 H 0.56745 0.50603 0.44661
 H130 H 0.60045 0.47083 0.41407
 H131 H 0.51373 0.44605 0.51199
 H132 H 0.43273 0.46674 0.52647
 H133 H 0.40009 0.43306 0.49038
 H134 H 0.45408 0.45542 0.38782
 H135 H 0.48648 0.48938 0.42372
 H136 H 0.48645 0.51079 0.57672
 H137 H 0.45402 0.54474 0.61261
 H138 H 0.40008 0.56710 0.51003
 H139 H 0.43274 0.53343 0.47395
 H140 H 0.54650 0.41087 0.47900
 C141 C 0.01754 0.49989 0.00022
 C142 C -0.01762 0.49989 0.00023
 C143 C -0.03776 0.47844 0.01923
 C144 C -0.03775 0.52135 -0.01875
 C145 C 0.03764 0.51973 -0.02211
 C146 C 0.03765 0.48004 0.02254
 C147 C -0.03243 0.45142 0.01000
 C148 C -0.05116 0.43144 0.02861
 C149 C -0.07562 0.43827 0.05632
 C150 C -0.08151 0.46517 0.06508
 C151 C -0.06278 0.48515 0.04653
 C152 C -0.06278 0.51465 -0.04605
 C153 C -0.08150 0.53464 -0.06460
 C154 C -0.07559 0.56153 -0.05584
 C155 C -0.05113 0.56836 -0.02813
 C156 C -0.03241 0.54836 -0.00951
 C157 C 0.06260 0.53549 -0.00381
 C158 C 0.08110 0.55467 -0.02428
 C159 C 0.07505 0.55815 -0.06332
 C160 C 0.05071 0.54212 -0.08194
 C161 C 0.03221 0.52290 -0.06149
 C162 C 0.03223 0.47687 0.06193
 C163 C 0.05075 0.45766 0.08237
 C164 C 0.07509 0.44164 0.06374
 C165 C 0.08112 0.44511 0.02470
 C166 C 0.06260 0.46428 0.00423
 H167 H -0.01372 0.44586 -0.01151
 H168 H -0.04652 0.41069 0.02148
 H169 H -0.10043 0.47068 0.08641
 H170 H -0.06741 0.50586 0.05387
 H171 H -0.06742 0.49394 -0.05339
 H172 H -0.10042 0.52914 -0.08593
 H173 H -0.01370 0.55392 0.01199
 H174 H 0.06730 0.53323 0.02647
 H175 H 0.09994 0.56691 -0.00962
 H176 H 0.04595 0.54455 -0.11218
 H177 H 0.01355 0.51059 -0.07628
 H178 H 0.01358 0.48918 0.07672
 H179 H 0.04601 0.45523 0.11261
 H180 H 0.09995 0.43287 0.01003
 H181 H 0.06729 0.46654 -0.02605
 H182 H -0.04647 0.58910 -0.02101
 C183 C 0.51771 1.00056 0.49971
 C184 C 0.48255 1.00057 0.49973
 C185 C 0.46244 0.98076 0.52212
 C186 C 0.46244 1.02038 0.47736
 C187 C 0.53785 1.02197 0.48062
 C188 C 0.53784 0.97913 0.51878
 C189 C 0.43747 0.96499 0.50386
 C190 C 0.41894 0.94586 0.52439
 C191 C 0.42496 0.94244 0.56345
 C192 C 0.44933 0.95848 0.58202
 C193 C 0.46786 0.97765 0.56151
 C194 C 0.46783 1.02349 0.43797
 C195 C 0.44928 1.04267 0.41747
 C196 C 0.42493 1.05870 0.43606
 C197 C 0.41894 1.05529 0.47513
 C198 C 0.43749 1.03617 0.49564
 C199 C 0.53255 1.04900 0.48975
 C200 C 0.55131 1.06894 0.47106
 C201 C 0.57577 1.06204 0.44339
 C202 C 0.58163 1.03513 0.43473
 C203 C 0.56287 1.01519 0.45334
 C204 C 0.56289 0.98590 0.54604
 C205 C 0.58163 0.96594 0.56465
 C206 C 0.57573 0.93903 0.55599
 C207 C 0.55125 0.93215 0.52832
 C208 C 0.53251 0.95211 0.50965
 H209 H 0.43278 0.96720 0.47358
 H210 H 0.40008 0.93361 0.50977
 H211 H 0.45407 0.95609 0.61227
 H212 H 0.48654 0.98997 0.57627
 H213 H 0.48648 1.01117 0.42319
 H214 H 0.45399 1.04504 0.38722
 H215 H 0.43282 1.03396 0.52593
 H216 H 0.51384 1.05462 0.51123
 H217 H 0.54669 1.08970 0.47812
 H218 H 0.60055 1.02957 0.41343
 H219 H 0.56748 0.99446 0.44609
 H220 H 0.56752 1.00662 0.55330
 H221 H 0.60056 0.97149 0.58593
 H222 H 0.54660 0.91139 0.52127
 H223 H 0.51379 0.94650 0.48818
 H224 H 0.40010 1.06755 0.48977
 C225 C 1.19221 0.16297 0.14186
 C226 C 1.16165 0.15284 0.15738
 C227 C 1.14927 0.16293 0.19198
 C228 C 1.16739 0.18304 0.21105
 C229 C 1.19819 0.19334 0.19572
 C230 C 1.21038 0.18308 0.16087
 C231 C 1.14299 0.13214 0.13773
 C232 C 1.12741 0.11486 0.12111
 C233 C 1.10920 0.09474 0.10140
 C234 C 1.09365 0.07768 0.08428
 H235 H 1.20201 0.15531 0.11508
 H236 H 1.12562 0.15524 0.20423
 H237 H 1.15731 0.19049 0.23781
 H238 H 1.23399 0.19055 0.14830
 C239 C 0.69453 0.66553 0.63778
 C240 C 0.66309 0.65584 0.65159
 C241 C 0.64986 0.66560 0.68600
 C242 C 0.66796 0.68501 0.70652
 C243 C 0.69959 0.69491 0.69285
 C244 C 0.71270 0.68494 0.65824
 C245 C 0.64441 0.63584 0.63056
 C246 C 0.62871 0.61903 0.61313
 C247 C 0.61028 0.59925 0.59299
 C248 C 0.59451 0.58222 0.57608
 H249 H 0.70502 0.65809 0.61118
 H250 H 0.62554 0.65823 0.69697
 H251 H 0.65716 0.69227 0.73304
 H252 H 0.73695 0.69214 0.64692
 C253 C -0.19450 0.33444 0.13778
 C254 C -0.16305 0.34413 0.15160
 C255 C -0.14983 0.33437 0.18600
 C256 C -0.16793 0.31496 0.20652
 C257 C -0.19956 0.30506 0.19285
 C258 C -0.21266 0.31504 0.15824
 C259 C -0.14438 0.36413 0.13057
 C260 C -0.12868 0.38094 0.11313
 C261 C -0.11025 0.40072 0.09299
 C262 C -0.09447 0.41775 0.07608
 H263 H -0.20499 0.34188 0.11118
 H264 H -0.12551 0.34174 0.19697
 H265 H -0.15712 0.30771 0.23304
 H266 H -0.23692 0.30783 0.14692
 C267 C 0.35076 0.83704 0.69198
 C268 C 0.33838 0.84713 0.65738
 C269 C 0.30782 0.83700 0.64186
 C270 C 0.28965 0.81690 0.66087
 C271 C 0.30184 0.80664 0.69572
 C272 C 0.33263 0.81693 0.71105
 C273 C 0.35704 0.86783 0.63773
 C274 C 0.37262 0.88511 0.62111
 C275 C 0.39083 0.90523 0.60139
 C276 C 0.40638 0.92229 0.58428
 H277 H 0.37440 0.84473 0.70423
 H278 H 0.29802 0.84466 0.61507
 H279 H 0.26604 0.80943 0.64830
 H280 H 0.34272 0.80948 0.73781
 C281 C -0.19429 0.66547 -0.13736
 C282 C -0.16287 0.65573 -0.15117
 C283 C -0.14962 0.66547 -0.18559
 C284 C -0.16768 0.68489 -0.20612
 C285 C -0.19928 0.69484 -0.19245
 C286 C -0.21241 0.68490 -0.15783
 C287 C -0.14423 0.63572 -0.13013
 C288 C -0.12857 0.61890 -0.11268
 C289 C -0.11017 0.59910 -0.09252
 C290 C -0.09442 0.58206 -0.07561
 H291 H -0.20479 0.65805 -0.11075
 H292 H -0.12532 0.65805 -0.19655
 H293 H -0.15685 0.69212 -0.23264
 H294 H -0.23665 0.69214 -0.14652
 C295 C 0.35050 1.16402 0.30757
 C296 C 0.33817 1.15393 0.34216
 C297 C 0.30760 1.16401 0.35766
 C298 C 0.28935 1.18408 0.33867
 C299 C 0.30144 1.19443 0.30371
 C300 C 0.33235 1.18410 0.28846
 C301 C 0.35688 1.13326 0.36181
 C302 C 0.37249 1.11600 0.37843
 C303 C 0.39074 1.09589 0.39813
 C304 C 0.40632 1.07885 0.41524
 H305 H 0.37417 1.15636 0.29533
 H306 H 0.29784 1.15634 0.38446
 H307 H 0.26575 1.19141 0.35144
 H308 H 0.34259 1.19144 0.26170
 C309 C 1.19243 -0.16404 -0.14234
 C310 C 1.16186 -0.15395 -0.15784
 C311 C 1.14952 -0.16405 -0.19243
 C312 C 1.16768 -0.18412 -0.21154
 C313 C 1.19859 -0.19445 -0.19629
 C314 C 1.21068 -0.18411 -0.16133
 C315 C 1.14315 -0.13329 -0.13819
 C316 C 1.12753 -0.11603 -0.12157
 C317 C 1.10929 -0.09592 -0.10187
 C318 C 1.09371 -0.07888 -0.08476
 H319 H 1.20219 -0.15637 -0.11554
 H320 H 1.12586 -0.15639 -0.20467
 H321 H 1.15744 -0.19147 -0.23830
 H322 H 1.23428 -0.19144 -0.14856
 C323 C 0.69433 0.33450 0.36264
 C324 C 0.66290 0.34424 0.34883
 C325 C 0.64965 0.33450 0.31442
 C326 C 0.66771 0.31508 0.29389
 C327 C 0.69932 0.30513 0.30755
 C328 C 0.71244 0.31507 0.34217
 C329 C 0.64427 0.36425 0.36988
 C330 C 0.62860 0.38107 0.38732
 C331 C 0.61020 0.40087 0.40748
 C332 C 0.59445 0.41791 0.42439
 H333 H 0.70482 0.34192 0.38925
 H334 H 0.62535 0.34192 0.30345
 H335 H 0.65689 0.30785 0.26736
 H336 H 0.73668 0.30783 0.35348
 C337 C 0.84980 -0.16571 -0.18652
 C338 C 0.83661 -0.15598 -0.15211
 C339 C 0.80516 -0.16565 -0.13831
 C340 C 0.78696 -0.18503 -0.15877
 C341 C 0.79998 -0.19508 -0.19349
 C342 C 0.83170 -0.18509 -0.20708
 C343 C 0.85532 -0.13602 -0.13104
 C344 C 0.87106 -0.11926 -0.11356
 C345 C 0.88955 -0.09953 -0.09337
 C346 C 0.90536 -0.08254 -0.07642
 H347 H 0.87412 -0.15834 -0.19747
 H348 H 0.79471 -0.15822 -0.11169
 H349 H 0.76271 -0.19212 -0.14725
 H350 H 0.84267 -0.19223 -0.23360
 C351 C 0.35108 0.33615 0.30839
 C352 C 0.33867 0.34625 0.34298
 C353 C 0.30813 0.33610 0.35850
 C354 C 0.29000 0.31596 0.33952
 C355 C 0.30221 0.30569 0.30468
 C356 C 0.33299 0.31601 0.28934
 C357 C 0.35728 0.36699 0.36259
 C358 C 0.37281 0.38432 0.37917
 C359 C 0.39095 0.40450 0.39884
 C360 C 0.40644 0.42161 0.41591
 H361 H 0.37471 0.34386 0.29613
 H362 H 0.29831 0.34376 0.38528
 H363 H 0.26640 0.30847 0.35209
 H364 H 0.34309 0.30856 0.26259
 C365 C 0.19189 0.66387 -0.14150
 C366 C 0.16135 0.65372 -0.15702
 C367 C 0.14895 0.66382 -0.19161
 C368 C 0.16704 0.68397 -0.21066
 C369 C 0.19782 0.69428 -0.19532
 C370 C 0.21003 0.68401 -0.16048
 C371 C 0.14275 0.63298 -0.13741
 C372 C 0.12722 0.61565 -0.12083
 C373 C 0.10908 0.59547 -0.10116
 C374 C 0.09359 0.57836 -0.08409
 H375 H 0.20171 0.65621 -0.11472
 H376 H 0.12532 0.65611 -0.20387
 H377 H 0.15694 0.69142 -0.23741
 H378 H 0.23362 0.69150 -0.14791
 C379 C 0.69487 1.16562 0.36170
 C380 C 0.66343 1.15595 0.34789
 C381 C 0.65023 1.16569 0.31348
 C382 C 0.66834 1.18506 0.29292
 C383 C 0.70005 1.19505 0.30651
 C384 C 0.71307 1.18500 0.34124
 C385 C 0.64471 1.13600 0.36897
 C386 C 0.62897 1.11923 0.38644
 C387 C 0.61048 1.09950 0.40663
 C388 C 0.59467 1.08251 0.42358
 H389 H 0.70532 1.15819 0.38831
 H390 H 0.62591 1.15831 0.30253
 H391 H 0.65736 1.19220 0.26640
 H392 H 0.73732 1.19209 0.35275
 C393 C 0.14917 0.33603 0.19201
 C394 C 0.16156 0.34615 0.15743
 C395 C 0.19212 0.33603 0.14190
 C396 C 0.21029 0.31591 0.16089
 C397 C 0.19810 0.30563 0.19572
 C398 C 0.16730 0.31590 0.21106
 C399 C 0.14291 0.36687 0.13782
 C400 C 0.12735 0.38417 0.12124
 C401 C 0.10917 0.40434 0.10157
 C402 C 0.09365 0.42143 0.08451
 H403 H 0.12553 0.34370 0.20427
 H404 H 0.20192 0.34371 0.11513
 H405 H 0.23390 0.30846 0.14831
 H406 H 0.15722 0.30844 0.23782
 C407 C 0.65001 0.83533 0.68594
 C408 C 0.66324 0.84505 0.65150
 C409 C 0.69468 0.83533 0.63769
 C410 C 0.71282 0.81593 0.65819
 C411 C 0.69972 0.80600 0.69283
 C412 C 0.66810 0.81594 0.70649
 C413 C 0.64456 0.86502 0.63042
 C414 C 0.62885 0.88180 0.61294
 C415 C 0.61040 0.90155 0.59275
 C416 C 0.59461 0.91855 0.57579
 H417 H 0.62570 0.84273 0.69689
 H418 H 0.70516 0.84274 0.61108
 H419 H 0.73706 0.80870 0.64688
 H420 H 0.65729 0.80871 0.73302
 C421 C 0.80536 0.16464 0.13770
 C422 C 0.83680 0.15492 0.15150
 C423 C 0.85002 0.16464 0.18594
 C424 C 0.83193 0.18403 0.20649
 C425 C 0.80032 0.19397 0.19283
 C426 C 0.78721 0.18404 0.15819
 C427 C 0.85547 0.13495 0.13042
 C428 C 0.87118 0.11817 0.11294
 C429 C 0.88963 0.09842 0.09275
 C430 C 0.90542 0.08142 0.07580
 H431 H 0.79488 0.15724 0.11108
 H432 H 0.87433 0.15724 0.19690
 H433 H 0.84274 0.19126 0.23303
 H434 H 0.76297 0.19127 0.14688
 C435 C 0.35085 0.66394 0.69201
 C436 C 0.33847 0.65383 0.65743
 C437 C 0.30791 0.66394 0.64190
 C438 C 0.28974 0.68406 0.66089
 C439 C 0.30193 0.69434 0.69572
 C440 C 0.33273 0.68407 0.71106
 C441 C 0.35712 0.63310 0.63782
 C442 C 0.37268 0.61580 0.62124
 C443 C 0.39086 0.59563 0.60157
 C444 C 0.40638 0.57854 0.58451
 H445 H 0.37450 0.65627 0.70427
 H446 H 0.29811 0.65626 0.61513
 H447 H 0.26612 0.69152 0.64831
 H448 H 0.34281 0.69153 0.73781
   
