data_POSCAR
  _audit_creation_date              2014-09-24
  _audit_creation_method            'ToBaCCo'
  _symmetry_space_group_name_H-M    'P1'
  _symmetry_Int_Tables_number       1
  _symmetry_cell_setting            triclinic
  loop_
  _symmetry_equiv_pos_as_xyz
 x,y,z
_cell_length_a 28.5316
_cell_length_b 29.2693
_cell_length_c 28.8986
_cell_angle_alpha 90.772800
_cell_angle_beta 89.661900
_cell_angle_gamma 90.367900
loop_
  _atom_site_label
  _atom_site_type_symbol
  _atom_site_fract_x
  _atom_site_fract_y
  _atom_site_fract_z
C1 C 0.17447 0.22030 0.25838
 C2 C 0.17906 0.25768 0.22900
 C3 C 0.21160 0.25684 0.19320
 C4 C 0.24037 0.21839 0.18653
 C5 C 0.23547 0.18167 0.21565
 C6 C 0.20256 0.18267 0.25160
 C7 C 0.14251 0.20964 0.29259
 N8 N 0.15124 0.16649 0.30716
 C9 C 0.18762 0.14980 0.28157
 C10 C 0.26468 0.14793 0.19987
 N11 N 0.28860 0.16314 0.16223
 C12 C 0.27329 0.20624 0.15333
 C13 C 0.20334 0.29463 0.16670
 N14 N 0.16707 0.31853 0.18579
 C15 C 0.15197 0.29575 0.22372
 H16 H 0.11364 0.23089 0.30388
 H17 H 0.20077 0.11521 0.28308
 H18 H 0.26813 0.11429 0.21461
 H19 H 0.28413 0.22708 0.12454
 H20 H 0.21970 0.30174 0.13368
 H21 H 0.12080 0.30403 0.24359
 C22 C -0.20961 0.76225 0.26418
 C23 C -0.20460 0.73264 0.22613
 C24 C -0.22941 0.74013 0.18591
 C25 C -0.25974 0.77776 0.18329
 C26 C -0.26523 0.80623 0.22141
 C27 C -0.24026 0.79837 0.26202
 C28 C -0.18181 0.76945 0.30235
 N29 N -0.19506 0.80902 0.32382
 C30 C -0.23116 0.82650 0.29921
 C31 C -0.29237 0.84223 0.20833
 N32 N -0.30383 0.83698 0.16295
 C33 C -0.28404 0.79725 0.14733
 C34 C -0.21253 0.70976 0.15316
 N35 N -0.17866 0.68378 0.17272
 C36 C -0.17325 0.69826 0.21714
 H37 H -0.15044 0.75046 0.31001
 H38 H -0.24526 0.86052 0.30414
 H39 H -0.30250 0.87090 0.23018
 H40 H -0.28633 0.78343 0.11256
 H41 H -0.22210 0.70907 0.11701
 H42 H -0.14662 0.68620 0.24047
 C43 C -0.17995 0.22138 -0.25857
 C44 C -0.17672 0.24874 -0.21896
 C45 C -0.20938 0.24512 -0.18372
 C46 C -0.24700 0.21406 -0.18863
 C47 C -0.25040 0.18695 -0.22815
 C48 C -0.21631 0.19049 -0.26322
 C49 C -0.14784 0.21259 -0.29304
 N50 N -0.16371 0.17686 -0.31908
 C51 C -0.20575 0.16331 -0.30094
 C52 C -0.28673 0.15650 -0.22134
 N53 N -0.30652 0.16497 -0.17913
 C54 C -0.28152 0.19957 -0.15865
 C55 C -0.19388 0.27318 -0.14792
 N56 N -0.15282 0.29326 -0.16129
 C57 C -0.14261 0.27846 -0.20477
 H58 H -0.11337 0.22800 -0.29549
 H59 H -0.22494 0.13294 -0.31161
 H60 H -0.29615 0.12856 -0.24444
 H61 H -0.28621 0.21162 -0.12335
 H62 H -0.21118 0.27827 -0.11488
 H63 H -0.11191 0.28840 -0.22453
 C64 C 0.18647 0.78321 -0.26794
 C65 C 0.18326 0.75650 -0.22832
 C66 C 0.21696 0.75982 -0.19430
 C67 C 0.25437 0.79091 -0.19939
 C68 C 0.25731 0.81778 -0.23839
 C69 C 0.22311 0.81370 -0.27303
 C70 C 0.15523 0.79068 -0.30300
 N71 N 0.17194 0.82491 -0.32999
 C72 C 0.21337 0.83939 -0.31129
 C73 C 0.29358 0.84839 -0.23153
 N74 N 0.31362 0.84034 -0.18976
 C75 C 0.28904 0.80563 -0.16971
 C76 C 0.20282 0.73145 -0.15892
 N77 N 0.16165 0.71093 -0.17117
 C78 C 0.14918 0.72713 -0.21312
 H79 H 0.12069 0.77537 -0.30571
 H80 H 0.23283 0.86937 -0.32199
 H81 H 0.30263 0.87630 -0.25417
 H82 H 0.29400 0.79382 -0.13474
 H83 H 0.22068 0.72696 -0.12640
 H84 H 0.11710 0.71860 -0.23119
 C85 C 0.22720 1.18387 0.74972
 C86 C 0.26651 1.18824 0.77839
 C87 C 0.27090 1.22532 0.80818
 C88 C 0.23631 1.25913 0.80908
 C89 C 0.19766 1.25508 0.78054
 C90 C 0.19275 1.21678 0.75091
 C91 C 0.21146 1.14857 0.72189
 N92 N 0.16757 1.15832 0.70672
 C93 C 0.15630 1.20060 0.72384
 C94 C 0.16747 1.28962 0.79310
 N95 N 0.18667 1.31467 0.82843
 C96 C 0.22876 1.29570 0.83858
 C97 C 0.30735 1.21623 0.83773
 N98 N 0.32556 1.17475 0.82629
 C99 C 0.30033 1.15747 0.79021
 H100 H 0.23024 1.11728 0.71440
 H101 H 0.12373 1.21827 0.71800
 H102 H 0.13259 1.29448 0.77948
 H103 H 0.25113 1.30541 0.86717
 H104 H 0.31672 1.23623 0.86810
 H105 H 0.30306 1.12290 0.77671
 C106 C 0.77183 0.81165 0.75243
 C107 C 0.73504 0.80884 0.78459
 C108 C 0.73317 0.77344 0.81569
 C109 C 0.76783 0.73965 0.81425
 C110 C 0.80391 0.74211 0.78208
 C111 C 0.80633 0.77884 0.75133
 C112 C 0.78518 0.84549 0.72256
 N113 N 0.82778 0.83499 0.70394
 C114 C 0.84054 0.79363 0.72091
 C115 C 0.83512 0.70822 0.79240
 N116 N 0.81924 0.68518 0.83010
 C117 C 0.77806 0.70462 0.84374
 C118 C 0.69863 0.78394 0.84772
 N119 N 0.67923 0.82456 0.83634
 C120 C 0.70179 0.83997 0.79798
 H121 H 0.76586 0.87645 0.71605
 H122 H 0.87260 0.77568 0.71271
 H123 H 0.86867 0.70262 0.77559
 H124 H 0.75821 0.69649 0.87453
 H125 H 0.69113 0.76534 0.87904
 H126 H 0.69724 0.87348 0.78330
 C127 C 0.23432 0.80447 1.26477
 C128 C 0.26868 0.80207 1.22979
 C129 C 0.26426 0.77054 1.19400
 C130 C 0.22554 0.74109 1.19234
 C131 C 0.19137 0.74351 1.22632
 C132 C 0.19590 0.77542 1.26305
 C133 C 0.22640 0.83580 1.30006
 N134 N 0.18454 0.82614 1.32078
 C135 C 0.16546 0.78968 1.29746
 C136 C 0.15551 0.71463 1.21244
 N137 N 0.16732 0.69475 1.17099
 C138 C 0.21017 0.71106 1.15869
 C139 C 0.29760 0.78078 1.16121
 N140 N 0.32245 0.81784 1.17602
 C141 C 0.30498 0.83089 1.21805
 H142 H 0.24806 0.86540 1.30776
 H143 H 0.13033 0.77646 1.30276
 H144 H 0.12271 0.71024 1.23071
 H145 H 0.22808 0.70285 1.12652
 H146 H 0.30003 0.76508 1.12722
 H147 H 0.31509 0.86175 1.23662
 C148 C 0.78702 1.19272 1.25218
 C149 C 0.74793 1.20027 1.22446
 C150 C 0.74805 1.23550 1.19323
 C151 C 0.78697 1.26484 1.19055
 C152 C 0.82576 1.25762 1.21816
 C153 C 0.82609 1.22060 1.24896
 C154 C 0.79761 1.15759 1.28108
 N155 N 0.84252 1.16255 1.29582
 C156 C 0.86025 1.20142 1.27642
 C157 C 0.85963 1.28846 1.20439
 N158 N 0.84210 1.31471 1.16998
 C159 C 0.79801 1.29957 1.16074
 C160 C 0.71005 1.22871 1.16459
 N161 N 0.68688 1.19031 1.17807
 C162 C 0.70982 1.17316 1.21495
 H163 H 0.77449 1.12951 1.28999
 H164 H 0.89535 1.21476 1.28093
 H165 H 0.89529 1.28997 1.21688
 H166 H 0.77629 1.31144 1.13283
 H167 H 0.70307 1.24754 1.13346
 H168 H 0.70237 1.14032 1.23028
 O169 O 0.52642 0.94397 0.93765
 O170 O 0.44891 0.96964 1.09341
 O171 O 0.59446 0.98754 1.04931
 O172 O 0.44096 0.94587 0.94897
 O173 O 0.53662 0.96000 1.09192
 O174 O 0.46631 0.98027 0.88734
 O175 O 0.43728 0.93352 1.03043
 O176 O 0.58981 0.97565 0.96459
 C177 C 0.56987 0.94291 0.94329
 C178 C 0.43484 0.93469 1.07307
 C179 C 0.57893 0.95953 1.07933
 C180 C 0.43631 0.95221 0.90578
 O181 O 0.47501 1.05685 0.93054
 O182 O 0.54621 1.04605 1.09759
 O183 O 0.56163 1.06538 0.95710
 O184 O 0.40491 1.02168 1.04498
 O185 O 0.45917 1.05692 1.08575
 O186 O 0.54917 1.02058 0.90193
 O187 O 0.41167 1.03286 0.96173
 O188 O 0.56675 1.07706 1.03513
 Co189 Co 0.49919 1.00026 0.93722
 Co190 Co 0.49792 1.00811 1.08378
 Co191 Co 0.57242 1.02461 1.00188
 Co192 Co 0.43022 0.98553 0.99760
 O193 O 0.50187 1.00632 1.00754
 C194 C 0.43222 1.06120 0.93666
 C195 C 0.56614 1.07777 1.07758
 C196 C 0.56945 1.05560 0.91605
 C197 C 0.41735 1.05333 1.07299
 O198 O 0.02927 0.47265 0.11219
 O199 O 0.05603 0.54495 -0.08729
 O200 O 0.08276 0.44463 -0.03182
 O201 O 0.02647 0.59345 0.03752
 O202 O 0.04889 0.45884 -0.09494
 O203 O 0.06333 0.53481 0.06394
 O204 O 0.01871 0.59772 -0.04677
 O205 O 0.06679 0.45027 0.04992
 C206 C 0.05914 0.44482 0.09292
 C207 C 0.05115 0.58596 -0.07495
 C208 C 0.08223 0.44146 -0.07443
 C209 C 0.06101 0.57712 0.05895
 O210 O -0.01895 0.55019 0.09726
 O211 O -0.04016 0.46435 -0.09023
 O212 O -0.01969 0.41528 0.03599
 O213 O -0.07082 0.55971 -0.03706
 O214 O -0.03245 0.55048 -0.09837
 O215 O -0.04825 0.47434 0.06902
 O216 O -0.06282 0.55532 0.04066
 O217 O -0.00672 0.41131 -0.04786
 Co218 Co 0.00804 0.50338 0.06289
 Co219 Co 0.00766 0.50476 -0.08422
 Co220 Co 0.02853 0.43670 0.00073
 Co221 Co -0.02002 0.57158 -0.00179
 O222 O 0.00467 0.50570 -0.00797
 C223 C -0.05590 0.56556 0.08155
 C224 C -0.03726 0.42346 -0.07740
 C225 C -0.04987 0.43247 0.06207
 C226 C -0.06837 0.56441 -0.07905
 O227 O 1.05483 0.05966 0.46508
 O228 O 0.90768 0.03279 0.54550
 O229 O 0.94872 0.01020 0.40198
 O230 O 1.03317 0.01529 0.61219
 O231 O 0.90461 0.03949 0.45824
 O232 O 1.05905 0.05023 0.54984
 O233 O 0.97619 0.05600 0.56441
 O234 O 1.03431 0.01785 0.40591
 C235 C 1.05101 0.05459 0.42236
 C236 C 0.93311 0.06201 0.56448
 C237 C 0.91833 0.03899 0.41658
 C238 C 1.06336 0.04382 0.59342
 O239 O 1.08488 -0.03725 0.53462
 O240 O 0.89706 -0.04629 0.45197
 O241 O 1.03840 -0.07077 0.43732
 O242 O 0.94877 -0.02575 0.59306
 O243 O 0.90961 -0.05672 0.53674
 O244 O 1.09144 -0.02255 0.45077
 O245 O 1.02273 -0.06019 0.56859
 O246 O 0.95833 -0.07964 0.42762
 Co247 Co 1.06478 0.01008 0.49974
 Co248 Co 0.91310 -0.00779 0.49836
 Co249 Co 0.99499 -0.02872 0.42416
 Co250 Co 1.00001 -0.00273 0.56238
 O251 O 0.99005 -0.00942 0.49384
 C252 C 1.06506 -0.06536 0.56041
 C253 C 0.91534 -0.07842 0.43064
 C254 C 1.08011 -0.06088 0.43512
 C255 C 0.91943 -0.05490 0.57885
 C256 C 1.12438 0.14016 0.33716
 C257 C 1.15460 0.11087 0.36893
 C258 C 1.12934 0.08287 0.39656
 C259 C 1.07605 0.08701 0.39092
 C260 C 1.06581 0.13806 0.39882
 C261 C 1.09126 0.16620 0.37069
 C262 C 1.09260 0.10623 0.31097
 C263 C 1.06727 0.07845 0.33902
 H264 H 1.19261 0.11234 0.37001
 H265 H 1.14598 0.06001 0.42061
 H266 H 1.04143 0.15093 0.42478
 H267 H 1.08886 0.20307 0.37352
 H268 H 1.08968 0.10484 0.27353
 H269 H 1.04249 0.05346 0.32539
 C270 C 0.83307 -0.16430 0.35269
 C271 C 0.80506 -0.13450 0.38706
 C272 C 0.83234 -0.10644 0.41346
 C273 C 0.88528 -0.11096 0.40340
 C274 C 0.89551 -0.16199 0.40980
 C275 C 0.86793 -0.19023 0.38333
 C276 C 0.86334 -0.13081 0.32481
 C277 C 0.89044 -0.10292 0.35130
 H278 H 0.76726 -0.13631 0.39131
 H279 H 0.81753 -0.08433 0.44014
 H280 H 0.92104 -0.17479 0.43404
 H281 H 0.86970 -0.22714 0.38561
 H282 H 0.86323 -0.12917 0.28729
 H283 H 0.91334 -0.07720 0.33641
 C284 C 0.86270 0.15040 0.65026
 C285 C 0.83455 0.13436 0.60804
 C286 C 0.85890 0.10637 0.57912
 C287 C 0.90946 0.09671 0.59491
 C288 C 0.93202 0.14422 0.60031
 C289 C 0.90737 0.17282 0.62931
 C290 C 0.88013 0.10679 0.67324
 C291 C 0.90456 0.07889 0.64436
 H292 H 0.79918 0.14543 0.60060
 H293 H 0.84406 0.09382 0.54681
 H294 H 0.96351 0.15486 0.58204
 H295 H 0.91783 0.20814 0.63477
 H296 H 0.87475 0.09919 0.70956
 H297 H 0.92046 0.04757 0.65616
 C298 C 1.14479 -0.14930 0.64028
 C299 C 1.10578 -0.17570 0.61393
 C300 C 1.07893 -0.14853 0.58658
 C301 C 1.09389 -0.09804 0.58789
 C302 C 1.09286 -0.08444 0.63942
 C303 C 1.11938 -0.11102 0.66665
 C304 C 1.17296 -0.12546 0.60193
 C305 C 1.14637 -0.09853 0.57465
 H306 H 1.10063 -0.21241 0.61528
 H307 H 1.05074 -0.16190 0.56518
 H308 H 1.07207 -0.05674 0.65372
 H309 H 1.12151 -0.10579 0.70385
 H310 H 1.21008 -0.13064 0.59555
 H311 H 1.16117 -0.08081 0.54515
 C312 C 0.32149 1.13688 1.13798
 C313 C 0.35214 1.16181 1.10188
 C314 C 0.38353 1.13384 1.07980
 C315 C 0.38148 1.08390 1.09566
 C316 C 0.38786 1.08662 1.14840
 C317 C 0.35705 1.11462 1.17039
 C318 C 0.29874 1.09690 1.11110
 C319 C 0.33006 1.06921 1.08892
 H320 H 0.35072 1.19802 1.09478
 H321 H 0.40791 1.14620 1.05377
 H322 H 0.41486 1.06853 1.16694
 H323 H 0.35820 1.12068 1.20752
 H324 H 0.26116 1.09114 1.10940
 H325 H 0.31907 1.03975 1.06842
 C326 C 0.34596 0.86864 0.83297
 C327 C 0.32187 0.90566 0.86253
 C328 C 0.35220 0.93361 0.88566
 C329 C 0.40405 0.92204 0.87761
 C330 C 0.40839 0.87124 0.88977
 C331 C 0.37822 0.84327 0.86641
 C332 C 0.38025 0.89495 0.80121
 C333 C 0.41050 0.92312 0.82472
 H334 H 0.28418 0.91039 0.86389
 H335 H 0.34027 0.96268 0.90611
 H336 H 0.43414 0.85816 0.91365
 H337 H 0.37864 0.80644 0.87020
 H338 H 0.38194 0.89078 0.76389
 H339 H 0.43725 0.94315 0.80730
 C340 C 0.66724 0.86720 1.13957
 C341 C 0.66167 0.85962 1.08684
 C342 C 0.63234 0.89031 1.06683
 C343 C 0.61140 0.92553 1.10102
 C344 C 0.58798 0.89654 1.13897
 C345 C 0.61708 0.86620 1.15890
 C346 C 0.68337 0.91741 1.14450
 C347 C 0.65398 0.94781 1.12463
 H348 H 0.67964 0.83378 1.06640
 H349 H 0.62528 0.89000 1.02995
 H350 H 0.55145 0.89919 1.14930
 H351 H 0.60536 0.84320 1.18583
 H352 H 0.71543 0.92805 1.16170
 H353 H 0.66081 0.98435 1.12514
 C354 C 0.66072 1.13719 0.84329
 C355 C 0.68424 1.09938 0.87090
 C356 C 0.65353 1.07195 0.89375
 C357 C 0.60187 1.08482 0.88748
 C358 C 0.59907 1.13573 0.90141
 C359 C 0.62959 1.16309 0.87831
 C360 C 0.62529 1.11189 0.81147
 C361 C 0.59455 1.08427 0.83481
 H362 H 0.72179 1.09368 0.87105
 H363 H 0.66501 1.04231 0.91265
 H364 H 0.57379 1.14944 0.92608
 H365 H 0.62991 1.19992 0.88317
 H366 H 0.62334 1.11630 0.77432
 H367 H 0.56700 1.06494 0.81755
 C368 C 0.13950 0.35335 0.16235
 C369 C 0.11579 0.38838 0.19509
 C370 C 0.08875 0.41933 0.17271
 C371 C 0.08841 0.41244 0.11985
 C372 C 0.14049 0.41348 0.10558
 C373 C 0.16732 0.38258 0.12787
 C374 C 0.09935 0.33184 0.13439
 C375 C 0.07251 0.36274 0.11238
 H376 H 0.12052 0.38931 0.23232
 H377 H 0.07023 0.44649 0.19088
 H378 H 0.15531 0.43757 0.08118
 H379 H 0.20496 0.38070 0.12274
 H380 H 0.09183 0.29544 0.13332
 H381 H 0.04143 0.35274 0.09317
 C382 C -0.12366 0.32707 -0.13673
 C383 C -0.12670 0.37410 -0.15914
 C384 C -0.09838 0.40614 -0.13944
 C385 C -0.06931 0.38830 -0.09879
 C386 C -0.10576 0.36791 -0.06521
 C387 C -0.13448 0.33570 -0.08508
 C388 C -0.07131 0.31472 -0.13818
 C389 C -0.04294 0.34696 -0.11878
 H390 H -0.14953 0.38155 -0.18796
 H391 H -0.09711 0.44099 -0.15181
 H392 H -0.10850 0.37778 -0.02895
 H393 H -0.16132 0.31794 -0.06550
 H394 H -0.05778 0.28320 -0.15311
 H395 H -0.00519 0.34321 -0.11773
 C396 C 0.13350 0.67825 -0.14428
 C397 C 0.16081 0.64967 -0.10921
 C398 C 0.13324 0.61969 -0.08534
 C399 C 0.08116 0.62102 -0.09873
 C400 C 0.06686 0.67127 -0.09187
 C401 C 0.09427 0.70122 -0.11588
 C402 C 0.10857 0.64259 -0.17512
 C403 C 0.08087 0.61326 -0.15144
 H404 H 0.19837 0.65196 -0.10406
 H405 H 0.14721 0.59697 -0.05952
 H406 H 0.03801 0.68246 -0.06995
 H407 H 0.08887 0.73788 -0.11451
 H408 H 0.11307 0.63976 -0.21236
 H409 H 0.06121 0.58620 -0.16877
 C410 C -0.14709 0.65161 0.14889
 C411 C -0.09920 0.67323 0.13792
 C412 C -0.06888 0.64424 0.11626
 C413 C -0.08916 0.59626 0.10739
 C414 C -0.10536 0.57952 0.15502
 C415 C -0.13589 0.60853 0.17686
 C416 C -0.16537 0.63302 0.10243
 C417 C -0.13507 0.60427 0.08070
 H418 H -0.09008 0.70839 0.14643
 H419 H -0.03372 0.65461 0.10616
 H420 H -0.09427 0.54755 0.16996
 H421 H -0.15110 0.60123 0.21048
 H422 H -0.19990 0.63957 0.08865
 H423 H -0.14407 0.58725 0.04830
 C424 C 1.14030 0.12968 0.67828
 C425 C 1.15382 0.13320 0.62690
 C426 C 1.12854 0.10502 0.59841
 C427 C 1.09194 0.07557 0.62381
 C428 C 1.11988 0.05037 0.66072
 C429 C 1.14474 0.07847 0.68949
 C430 C 1.08695 0.13827 0.67993
 C431 C 1.06188 0.11000 0.65131
 H432 H 1.18077 0.15617 0.61404
 H433 H 1.13404 0.10412 0.56124
 H434 H 1.11945 0.01355 0.66457
 H435 H 1.16471 0.06534 0.71820
 H436 H 1.06977 0.16268 0.70279
 H437 H 1.02390 0.11116 0.64941
 C438 C 0.85230 -0.13773 0.67252
 C439 C 0.83271 -0.14217 0.62330
 C440 C 0.85486 -0.11510 0.59198
 C441 C 0.89474 -0.08570 0.61266
 C442 C 0.87179 -0.05921 0.65293
 C443 C 0.85008 -0.08626 0.68448
 C444 C 0.90530 -0.14730 0.66739
 C445 C 0.92730 -0.12003 0.63595
 H446 H 0.80398 -0.16487 0.61389
 H447 H 0.84477 -0.11479 0.55582
 H448 H 0.87307 -0.02231 0.65673
 H449 H 0.83365 -0.07222 0.71546
 H450 H 0.92463 -0.17156 0.68775
 H451 H 0.96474 -0.12187 0.62921
 C452 C 1.16011 -0.14508 0.35140
 C453 C 1.19049 -0.11651 0.38555
 C454 C 1.16499 -0.08800 0.41403
 C455 C 1.11182 -0.09095 0.40590
 C456 C 1.10611 -0.08149 0.35404
 C457 C 1.13098 -0.10980 0.32570
 C458 C 1.12520 -0.17029 0.38295
 C459 C 1.10002 -0.14207 0.41118
 H460 H 1.22828 -0.11928 0.38814
 H461 H 1.18103 -0.06639 0.44040
 H462 H 1.08639 -0.05306 0.34067
 H463 H 1.13153 -0.10612 0.28837
 H464 H 1.12199 -0.20720 0.38465
 H465 H 1.07528 -0.15514 0.43653
 C466 C 0.86380 0.13215 0.32605
 C467 C 0.84039 0.13305 0.37404
 C468 C 0.85827 0.10241 0.40398
 C469 C 0.89835 0.07328 0.38352
 C470 C 0.87777 0.05133 0.33954
 C471 C 0.86005 0.08198 0.30935
 C472 C 0.91653 0.13933 0.33571
 C473 C 0.93439 0.10839 0.36582
 H474 H 0.81227 0.15616 0.38372
 H475 H 0.84502 0.09951 0.43911
 H476 H 0.87773 0.01480 0.33243
 H477 H 0.84515 0.07154 0.27635
 H478 H 0.93852 0.16526 0.32011
 H479 H 0.97096 0.10858 0.37577
 C480 C 0.16267 0.34816 -0.14623
 C481 C 0.19125 0.37594 -0.10994
 C482 C 0.16518 0.40744 -0.08585
 C483 C 0.11349 0.40849 -0.10033
 C484 C 0.11511 0.41620 -0.15299
 C485 C 0.14086 0.38476 -0.17693
 C486 C 0.12159 0.32768 -0.11892
 C487 C 0.09600 0.35908 -0.09512
 H488 H 0.22869 0.37317 -0.10474
 H489 H 0.18028 0.43042 -0.06011
 H490 H 0.09855 0.44471 -0.16995
 H491 H 0.14611 0.38642 -0.21410
 H492 H 0.11342 0.29141 -0.11827
 H493 H 0.06590 0.34936 -0.07439
 C494 C -0.13083 0.34688 0.14143
 C495 C -0.10639 0.32276 0.10069
 C496 C -0.08064 0.35124 0.07371
 C497 C -0.08141 0.40166 0.08992
 C498 C -0.13360 0.41402 0.09216
 C499 C -0.15964 0.38539 0.11934
 C500 C -0.09170 0.37214 0.16776
 C501 C -0.06584 0.40054 0.14079
 H502 H -0.10958 0.28640 0.09343
 H503 H -0.06210 0.33892 0.04315
 H504 H -0.14858 0.44300 0.07461
 H505 H -0.19685 0.39036 0.12525
 H506 H -0.08552 0.36908 0.20459
 H507 H -0.03735 0.42109 0.15478
 C508 C -0.15434 0.65321 -0.14616
 C509 C -0.10993 0.67488 -0.12541
 C510 C -0.08211 0.64481 -0.10347
 C511 C -0.10109 0.59561 -0.10366
 C512 C -0.15068 0.59913 -0.08288
 C513 C -0.17884 0.62912 -0.10516
 C514 C -0.13681 0.61369 -0.17730
 C515 C -0.10887 0.58356 -0.15502
 H516 H -0.10110 0.71090 -0.12791
 H517 H -0.04932 0.65518 -0.08752
 H518 H -0.16314 0.57855 -0.05430
 H519 H -0.21534 0.63294 -0.09545
 H520 H -0.14620 0.60940 -0.21345
 H521 H -0.09437 0.55354 -0.17214
 C522 C 0.13913 0.66346 0.14173
 C523 C 0.12762 0.68365 0.09422
 C524 C 0.10278 0.65484 0.06597
 C525 C 0.09140 0.60848 0.08783
 C526 C 0.13915 0.58934 0.10219
 C527 C 0.16410 0.61811 0.13047
 C528 C 0.09145 0.64912 0.16206
 C529 C 0.06672 0.62054 0.13387
 H530 H 0.13829 0.71765 0.08373
 H531 H 0.09248 0.66410 0.03124
 H532 H 0.15225 0.55621 0.09107
 H533 H 0.19840 0.60944 0.14368
 H534 H 0.07802 0.65924 0.19574
 H535 H 0.03276 0.60705 0.14404
 C536 C 0.35510 1.14682 0.85610
 C537 C 0.32554 1.11900 0.89019
 C538 C 0.35112 1.09160 0.91770
 C539 C 0.40434 1.09423 0.90865
 C540 C 0.40992 1.08404 0.85655
 C541 C 0.38451 1.11164 0.82909
 C542 C 0.39097 1.17299 0.88642
 C543 C 0.41681 1.14521 0.91412
 H544 H 0.28766 1.12124 0.89280
 H545 H 0.33476 1.07058 0.94400
 H546 H 0.43290 1.05797 0.84225
 H547 H 0.38626 1.10935 0.79161
 H548 H 0.39623 1.20971 0.88565
 H549 H 0.44378 1.15819 0.93723
 C550 C 0.35347 0.84647 1.14769
 C551 C 0.32892 0.89041 1.13317
 C552 C 0.35645 0.91879 1.10804
 C553 C 0.40618 0.90078 1.09940
 C554 C 0.42555 0.89080 1.14782
 C555 C 0.39788 0.86234 1.17314
 C556 C 0.37177 0.82473 1.10204
 C557 C 0.39929 0.85348 1.07664
 H558 H 0.29276 0.89833 1.14179
 H559 H 0.34384 0.95113 1.09516
 H560 H 0.45854 0.90434 1.16076
 H561 H 0.40712 0.85152 1.20766
 H562 H 0.36578 0.78957 1.09134
 H563 H 0.41590 0.84295 1.04437
 C564 C 0.65333 1.16311 1.15082
 C565 C 0.62748 1.18793 1.11183
 C566 C 0.59774 1.16005 1.08729
 C567 C 0.59667 1.11042 1.10424
 C568 C 0.64791 1.09492 1.10272
 C569 C 0.67749 1.12246 1.12689
 C570 C 0.61405 1.14212 1.18044
 C571 C 0.58442 1.11443 1.15610
 H572 H 0.63075 1.22412 1.10492
 H573 H 0.57620 1.17240 1.05933
 H574 H 0.65999 1.06463 1.08427
 H575 H 0.71483 1.11597 1.12891
 H576 H 0.60940 1.14923 1.21713
 H577 H 0.55436 1.09794 1.17211
 C578 C 0.64933 0.85356 0.86590
 C579 C 0.61569 0.88304 0.83799
 C580 C 0.58974 0.91202 0.86446
 C581 C 0.59898 0.90873 0.91669
 C582 C 0.59101 0.85800 0.92781
 C583 C 0.61746 0.82884 0.90107
 C584 C 0.67841 0.88738 0.89496
 C585 C 0.65225 0.91616 0.92156
 H586 H 0.61182 0.88066 0.80070
 H587 H 0.56407 0.93458 0.84948
 H588 H 0.56655 0.84612 0.95399
 H589 H 0.61512 0.79201 0.90420
 H590 H 0.71645 0.88808 0.89504
 H591 H 0.66828 0.94134 0.94451
   
