data_POSCAR
  _audit_creation_date              2014-09-24
  _audit_creation_method            'ToBaCCo'
  _symmetry_space_group_name_H-M    'P1'
  _symmetry_Int_Tables_number       1
  _symmetry_cell_setting            triclinic
  loop_
  _symmetry_equiv_pos_as_xyz
 x,y,z
_cell_length_a 38.9136
_cell_length_b 38.7149
_cell_length_c 36.9241
_cell_angle_alpha 89.924200
_cell_angle_beta 89.843900
_cell_angle_gamma 91.277300
loop_
  _atom_site_label
  _atom_site_type_symbol
  _atom_site_fract_x
  _atom_site_fract_y
  _atom_site_fract_z
C1 C -0.07095 0.30595 -0.03460
 C2 C -0.08922 0.30701 -0.00183
 C3 C -0.07334 0.30323 0.03199
 C4 C -0.03706 0.29902 0.03313
 C5 C -0.01764 0.29978 0.00036
 C6 C -0.03455 0.30337 -0.03345
 C7 C -0.01447 0.30521 -0.06514
 C8 C 0.02070 0.30004 -0.06435
 C9 C 0.03821 0.29553 -0.03148
 C10 C 0.01871 0.29544 0.00127
 C11 C -0.01995 0.29119 0.06560
 C12 C 0.01535 0.28705 0.06650
 C13 C 0.03520 0.28942 0.03483
 C14 C 0.07090 0.28392 0.03571
 C15 C 0.08945 0.28288 0.00341
 C16 C 0.07410 0.28868 -0.03033
 H17 H -0.02572 0.31042 -0.09126
 H18 H 0.03356 0.29892 -0.09021
 H19 H -0.03357 0.28686 0.09074
 H20 H 0.02678 0.28080 0.09232
 H21 H -0.11693 0.30936 -0.00264
 H22 H 0.11689 0.27862 0.00483
 C23 C 0.42013 0.79893 0.53025
 C24 C 0.40291 0.79934 0.49705
 C25 C 0.42081 0.80037 0.46415
 C26 C 0.45720 0.80196 0.46431
 C27 C 0.47506 0.80149 0.49778
 C28 C 0.45649 0.79991 0.53089
 C29 C 0.47476 0.79806 0.56363
 C30 C 0.51052 0.79778 0.56392
 C31 C 0.52946 0.79931 0.53149
 C32 C 0.51158 0.80129 0.49809
 C33 C 0.47617 0.80379 0.43189
 C34 C 0.51189 0.80329 0.43216
 C35 C 0.53009 0.80167 0.46492
 C36 C 0.56627 0.79934 0.46539
 C37 C 0.58349 0.79738 0.49843
 C38 C 0.56575 0.79752 0.53139
 H39 H 0.46159 0.79623 0.58942
 H40 H 0.52314 0.79572 0.58988
 H41 H 0.46356 0.80537 0.40588
 H42 H 0.52509 0.80388 0.40633
 H43 H 0.37505 0.79749 0.49682
 H44 H 0.61125 0.79518 0.49847
 C45 C 0.92230 0.70948 0.03033
 C46 C 0.90586 0.71393 -0.00289
 C47 C 0.92346 0.71042 -0.03565
 C48 C 0.95891 0.70304 -0.03540
 C49 C 0.97634 0.69980 -0.00190
 C50 C 0.95775 0.70220 0.03108
 C51 C 0.97514 0.69747 0.06388
 C52 C 1.01020 0.69137 0.06437
 C53 C 1.02985 0.69163 0.03225
 C54 C 1.01246 0.69458 -0.00136
 C55 C 0.97740 0.69900 -0.06771
 C56 C 1.01242 0.69281 -0.06719
 C57 C 1.03097 0.69237 -0.03445
 C58 C 1.06714 0.68777 -0.03393
 C59 C 1.08345 0.68326 -0.00037
 C60 C 1.06603 0.68699 0.03277
 H61 H 0.96180 0.69825 0.08960
 H62 H 1.02163 0.68612 0.09040
 H63 H 0.96495 0.70037 -0.09382
 H64 H 1.02472 0.68806 -0.09294
 H65 H 0.87875 0.71993 -0.00325
 H66 H 1.11122 0.68150 0.00002
 C67 C 0.42836 0.20007 0.53332
 C68 C 0.41110 0.19949 0.50017
 C69 C 0.42885 0.19736 0.46728
 C70 C 0.46513 0.19530 0.46736
 C71 C 0.48309 0.19634 0.50075
 C72 C 0.46466 0.19850 0.53387
 C73 C 0.48303 0.19974 0.56657
 C74 C 0.51875 0.19898 0.56679
 C75 C 0.53760 0.19773 0.53428
 C76 C 0.51961 0.19591 0.50096
 C77 C 0.48387 0.19188 0.43501
 C78 C 0.51961 0.19134 0.43523
 C79 C 0.53806 0.19425 0.46781
 C80 C 0.57447 0.19512 0.46817
 C81 C 0.59177 0.19636 0.50133
 C82 C 0.57397 0.19810 0.53422
 H83 H 0.47001 0.20148 0.59240
 H84 H 0.53144 0.19943 0.59282
 H85 H 0.47107 0.18945 0.40914
 H86 H 0.53265 0.18842 0.40954
 H87 H 0.38334 0.20157 0.49994
 H88 H 0.61964 0.19781 0.50148
 C89 C 0.69410 -0.06998 0.02884
 C90 C 0.69063 -0.08591 -0.00513
 C91 C 0.69148 -0.06724 -0.03770
 C92 C 0.69329 -0.03055 -0.03618
 C93 C 0.69648 -0.01357 -0.00223
 C94 C 0.69755 -0.03328 0.03036
 C95 C 0.70492 -0.01583 0.06297
 C96 C 0.70852 0.01989 0.06417
 C97 C 0.70593 0.03992 0.03267
 C98 C 0.70018 0.02320 -0.00101
 C99 C 0.69116 -0.01030 -0.06769
 C100 C 0.69570 0.02532 -0.06661
 C101 C 0.69980 0.04299 -0.03360
 C102 C 0.70605 0.07945 -0.03220
 C103 C 0.71169 0.09501 0.00164
 C104 C 0.71099 0.07611 0.03381
 H105 H 0.70932 -0.02942 0.08799
 H106 H 0.71451 0.03157 0.09007
 H107 H 0.68626 -0.02178 -0.09389
 H108 H 0.69672 0.03840 -0.09239
 H109 H 0.68884 -0.11389 -0.00622
 H110 H 0.71565 0.12281 0.00323
 C111 C 0.19954 0.42161 0.53554
 C112 C 0.20038 0.40381 0.50267
 C113 C 0.19892 0.42113 0.46950
 C114 C 0.19641 0.45753 0.46894
 C115 C 0.19554 0.47602 0.50212
 C116 C 0.19704 0.45799 0.53557
 C117 C 0.19755 0.47689 0.56804
 C118 C 0.19698 0.51281 0.56777
 C119 C 0.19584 0.53128 0.53502
 C120 C 0.19494 0.51273 0.50185
 C121 C 0.19630 0.47602 0.43617
 C122 C 0.19573 0.51195 0.43589
 C123 C 0.19523 0.53083 0.46838
 C124 C 0.19658 0.56737 0.46837
 C125 C 0.19748 0.58523 0.50123
 C126 C 0.19717 0.56783 0.53443
 H127 H 0.19908 0.46413 0.59405
 H128 H 0.19812 0.52596 0.59358
 H129 H 0.19732 0.46291 0.41034
 H130 H 0.19636 0.52478 0.40985
 H131 H 0.20304 0.37597 0.50290
 H132 H 0.19926 0.61324 0.50096
 C133 C 0.30714 0.92312 0.03274
 C134 C 0.30907 0.90577 -0.00033
 C135 C 0.31036 0.92350 -0.03361
 C136 C 0.31221 0.96032 -0.03313
 C137 C 0.30992 0.97829 0.00030
 C138 C 0.30769 0.95961 0.03331
 C139 C 0.30708 0.97787 0.06616
 C140 C 0.30741 1.01375 0.06662
 C141 C 0.30836 1.03288 0.03426
 C142 C 0.31027 1.01510 0.00078
 C143 C 0.31907 0.97967 -0.06470
 C144 C 0.31949 1.01559 -0.06422
 C145 C 0.31297 1.03397 -0.03216
 C146 C 0.31182 1.07076 -0.03171
 C147 C 0.31081 1.08763 0.00200
 C148 C 0.30849 1.06938 0.03463
 H149 H 0.30685 0.96460 0.09197
 H150 H 0.30742 1.02633 0.09277
 H151 H 0.32512 0.96723 -0.09007
 H152 H 0.32589 1.02880 -0.08925
 H153 H 0.30667 0.87781 0.00004
 H154 H 0.30898 1.11552 0.00305
 C155 C 0.80428 0.43625 0.46759
 C156 C 0.80481 0.41909 0.50090
 C157 C 0.80698 0.43720 0.53358
 C158 C 0.80919 0.47375 0.53305
 C159 C 0.80826 0.49156 0.49944
 C160 C 0.80611 0.47275 0.46655
 C161 C 0.80511 0.49093 0.43361
 C162 C 0.80588 0.52688 0.43294
 C163 C 0.80689 0.54609 0.46523
 C164 C 0.80865 0.52828 0.49877
 C165 C 0.81258 0.49294 0.56516
 C166 C 0.81303 0.52888 0.56450
 C167 C 0.81007 0.54705 0.53170
 C168 C 0.80878 0.58355 0.53096
 C169 C 0.80767 0.60076 0.49765
 C170 C 0.80632 0.58266 0.46489
 H171 H 0.80357 0.47755 0.40794
 H172 H 0.80557 0.53944 0.40677
 H173 H 0.81501 0.48035 0.59118
 H174 H 0.81586 0.54229 0.59004
 H175 H 0.80242 0.39112 0.50141
 H176 H 0.80593 0.62869 0.49729
 O177 O 0.23142 0.27349 0.20854
 O178 O 0.30045 0.25035 0.27164
 O179 O 0.28061 0.22959 0.20751
 O180 O 0.25201 0.29534 0.27214
 O181 O 0.21728 0.25670 0.29821
 O182 O 0.24576 0.19083 0.23323
 O183 O 0.26562 0.21159 0.29738
 O184 O 0.19665 0.23485 0.23460
 Cu185 Cu 0.26961 0.26613 0.23738
 Cu186 Cu 0.22781 0.21962 0.26850
 C187 C 0.20257 0.25766 0.21057
 C188 C 0.29453 0.22724 0.29539
 C189 C 0.26771 0.19926 0.20911
 C190 C 0.23021 0.28705 0.29638
 O191 O 0.77667 0.74379 0.29198
 O192 O 0.74603 0.80794 0.22643
 O193 O 0.72767 0.78810 0.29150
 O194 O 0.79518 0.76383 0.22693
 O195 O 0.76005 0.72434 0.20320
 O196 O 0.69254 0.74860 0.26778
 O197 O 0.71089 0.76844 0.20272
 O198 O 0.74154 0.70431 0.26824
 Cu199 Cu 0.76493 0.77990 0.26161
 Cu200 Cu 0.72271 0.73243 0.23310
 C201 C 0.76398 0.71333 0.29144
 C202 C 0.72362 0.79889 0.20321
 C203 C 0.69886 0.77216 0.29081
 C204 C 0.78886 0.74030 0.20385
 O205 O 0.80589 0.25296 0.23284
 O206 O 0.74062 0.22133 0.29832
 O207 O 0.76165 0.20210 0.23413
 O208 O 0.78586 0.27170 0.29747
 O209 O 0.74740 0.30552 0.27255
 O210 O 0.72331 0.23590 0.20898
 O211 O 0.70228 0.25508 0.27315
 O212 O 0.76743 0.28682 0.20798
 Cu213 Cu 0.77736 0.23364 0.26828
 Cu214 Cu 0.73120 0.27424 0.23822
 C215 C 0.79747 0.27481 0.20897
 C216 C 0.71049 0.23316 0.29697
 C217 C 0.73885 0.20746 0.21043
 C218 C 0.77051 0.30021 0.29596
 O219 O 0.24872 0.69102 0.26747
 O220 O 0.27723 0.75795 0.20246
 O221 O 0.29590 0.73925 0.26740
 O222 O 0.22972 0.70979 0.20250
 O223 O 0.19302 0.74613 0.22649
 O224 O 0.25918 0.77563 0.29132
 O225 O 0.24051 0.79433 0.22637
 O226 O 0.21202 0.72737 0.29148
 Cu227 Cu 0.26655 0.72082 0.23250
 Cu228 Cu 0.22243 0.76452 0.26128
 C229 C 0.22600 0.69808 0.29085
 C230 C 0.26350 0.78735 0.20325
 C231 C 0.28857 0.76212 0.29060
 C232 C 0.20031 0.72328 0.20329
 O233 O 0.78366 0.27287 0.70516
 O234 O 0.75479 0.20603 0.77030
 O235 O 0.73594 0.22495 0.70540
 O236 O 0.80308 0.25312 0.76951
 O237 O 0.76716 0.28989 0.79413
 O238 O 0.69995 0.26177 0.72981
 O239 O 0.71880 0.24283 0.79474
 O240 O 0.74774 0.30965 0.72974
 Cu241 Cu 0.77296 0.23553 0.73507
 Cu242 Cu 0.72976 0.27975 0.76453
 C243 C 0.77033 0.30247 0.70628
 C244 C 0.73232 0.21334 0.79388
 C245 C 0.70676 0.23885 0.70650
 C246 C 0.79632 0.27591 0.79295
 O247 O 0.21462 0.73019 0.70888
 O248 O 0.24373 0.79759 0.77303
 O249 O 0.26165 0.77847 0.70787
 O250 O 0.19632 0.74919 0.77405
 O251 O 0.23331 0.71299 0.79768
 O252 O 0.29866 0.74221 0.73139
 O253 O 0.28073 0.76133 0.79651
 O254 O 0.25160 0.69400 0.73254
 Cu255 Cu 0.22530 0.76752 0.73867
 Cu256 Cu 0.26978 0.72400 0.76699
 C257 C 0.22864 0.70091 0.70948
 C258 C 0.26701 0.79073 0.79576
 C259 C 0.29100 0.76486 0.70809
 C260 C 0.20386 0.72638 0.79723
 O261 O 0.20246 0.24127 0.77490
 O262 O 0.26871 0.21573 0.70936
 O263 O 0.25026 0.19553 0.77444
 O264 O 0.22108 0.26137 0.71003
 O265 O 0.25749 0.29955 0.73400
 O266 O 0.28670 0.23372 0.79831
 O267 O 0.30515 0.25393 0.73322
 O268 O 0.23886 0.27943 0.79888
 Cu269 Cu 0.23196 0.22460 0.73982
 Cu270 Cu 0.27573 0.27048 0.76856
 C271 C 0.20956 0.26441 0.79817
 C272 C 0.29793 0.23092 0.70983
 C273 C 0.27315 0.20363 0.79752
 C274 C 0.23470 0.29143 0.71084
 O275 O 0.71509 0.77193 0.79105
 O276 O 0.74605 0.70711 0.72647
 O277 O 0.76435 0.72795 0.79105
 O278 O 0.69592 0.75014 0.72708
 O279 O 0.73028 0.78961 0.70183
 O280 O 0.79882 0.76752 0.76612
 O281 O 0.78052 0.74665 0.70149
 O282 O 0.74946 0.81143 0.76584
 Cu283 Cu 0.72688 0.73530 0.76144
 Cu284 Cu 0.76823 0.78280 0.73128
 C285 C 0.72738 0.80253 0.78958
 C286 C 0.76826 0.71606 0.70284
 C287 C 0.79296 0.74422 0.78971
 C288 C 0.70165 0.77330 0.70338
 C289 C 0.29141 0.13139 0.12896
 C290 C 0.32229 0.13498 0.10958
 C291 C 0.32824 0.11421 0.07931
 C292 C 0.30341 0.08957 0.06828
 C293 C 0.27258 0.08597 0.08794
 C294 C 0.26668 0.10670 0.11819
 C295 C 0.28407 0.15449 0.15837
 C296 C 0.27708 0.17452 0.18213
 H297 H 0.34146 0.15424 0.11745
 H298 H 0.35198 0.11762 0.06421
 H299 H 0.25287 0.06755 0.07941
 H300 H 0.24254 0.10397 0.13271
 C301 C 0.79362 0.64765 0.62398
 C302 C 0.77053 0.62039 0.61647
 C303 C 0.77601 0.59899 0.58670
 C304 C 0.80484 0.60446 0.56426
 C305 C 0.82812 0.63165 0.57208
 C306 C 0.82257 0.65312 0.60189
 C307 C 0.78615 0.67131 0.65280
 C308 C 0.77863 0.69151 0.67616
 H309 H 0.74784 0.61619 0.63312
 H310 H 0.75739 0.57862 0.58065
 H311 H 0.85024 0.63651 0.55479
 H312 H 0.84041 0.67437 0.60725
 C313 C 0.70269 0.86426 0.12014
 C314 C 0.72124 0.85791 0.08851
 C315 C 0.71803 0.87945 0.05851
 C316 C 0.69645 0.90824 0.05961
 C317 C 0.67696 0.91375 0.09130
 C318 C 0.68028 0.89203 0.12146
 C319 C 0.70775 0.84230 0.15106
 C320 C 0.71401 0.82292 0.17564
 H321 H 0.73864 0.83647 0.08717
 H322 H 0.73357 0.87428 0.03482
 H323 H 0.65890 0.93461 0.09260
 H324 H 0.66547 0.89694 0.14572
 C325 C 0.21444 0.35929 0.62983
 C326 C 0.24139 0.36525 0.60527
 C327 C 0.23652 0.38609 0.57497
 C328 C 0.20468 0.40134 0.56896
 C329 C 0.17773 0.39564 0.59377
 C330 C 0.18262 0.37466 0.62418
 C331 C 0.21960 0.33624 0.65980
 C332 C 0.22560 0.31614 0.68378
 H333 H 0.26604 0.35337 0.60929
 H334 H 0.25748 0.39010 0.55593
 H335 H 0.15292 0.40702 0.58926
 H336 H 0.16155 0.37006 0.64294
 C337 C 0.86220 0.29563 0.12459
 C338 C 0.89119 0.31770 0.12525
 C339 C 0.91239 0.32082 0.09460
 C340 C 0.90517 0.30142 0.06307
 C341 C 0.87512 0.28034 0.06256
 C342 C 0.85408 0.27733 0.09306
 C343 C 0.84075 0.29062 0.15608
 C344 C 0.82160 0.28441 0.18109
 H345 H 0.89747 0.33234 0.14941
 H346 H 0.93431 0.33855 0.09546
 H347 H 0.86858 0.26493 0.03899
 H348 H 0.83167 0.26023 0.09220
 C349 C 0.35727 0.78481 0.62479
 C350 C 0.36004 0.75831 0.59928
 C351 C 0.38077 0.76299 0.56870
 C352 C 0.39909 0.79420 0.56338
 C353 C 0.39634 0.82079 0.58899
 C354 C 0.37550 0.81608 0.61967
 C355 C 0.33489 0.77971 0.65549
 C356 C 0.31529 0.77380 0.68017
 H357 H 0.34595 0.73408 0.60289
 H358 H 0.38252 0.74230 0.54910
 H359 H 0.41012 0.84512 0.58505
 H360 H 0.37339 0.83681 0.63917
 C361 C 0.13053 0.69969 0.12443
 C362 C 0.10282 0.72151 0.11928
 C363 C 0.08094 0.71675 0.08968
 C364 C 0.08612 0.68973 0.06474
 C365 C 0.11420 0.66788 0.07041
 C366 C 0.13603 0.67272 0.10008
 C367 C 0.15464 0.70661 0.15317
 C368 C 0.17527 0.71357 0.17651
 H369 H 0.09872 0.74292 0.13755
 H370 H 0.06100 0.73538 0.08536
 H371 H 0.11919 0.64684 0.05195
 H372 H 0.15760 0.65583 0.10363
 C373 C 0.63732 0.21501 0.62755
 C374 C 0.61374 0.23990 0.61710
 C375 C 0.59252 0.23402 0.58718
 C376 C 0.59452 0.20307 0.56758
 C377 C 0.61803 0.17807 0.57832
 C378 C 0.63929 0.18399 0.60825
 C379 C 0.66099 0.22238 0.65652
 C380 C 0.68150 0.22942 0.67990
 H381 H 0.61229 0.26414 0.63159
 H382 H 0.57498 0.25385 0.57884
 H383 H 0.62019 0.15425 0.56321
 H384 H 0.65770 0.16472 0.61590
 C385 C 0.71427 0.14565 0.87656
 C386 C 0.73953 0.14628 0.90338
 C387 C 0.73658 0.12444 0.93332
 C388 C 0.70851 0.10100 0.93683
 C389 C 0.68266 0.10126 0.91010
 C390 C 0.68568 0.12327 0.88003
 C391 C 0.71822 0.16848 0.84597
 C392 C 0.72362 0.18851 0.82146
 H393 H 0.76166 0.16365 0.90111
 H394 H 0.75690 0.12523 0.95334
 H395 H 0.65977 0.08501 0.91286
 H396 H 0.66567 0.12301 0.85969
 C397 C 0.20809 0.63015 0.37331
 C398 C 0.23548 0.62657 0.39741
 C399 C 0.23170 0.60567 0.42802
 C400 C 0.20050 0.58798 0.43480
 C401 C 0.17307 0.59136 0.41050
 C402 C 0.17687 0.61240 0.37978
 C403 C 0.21223 0.65309 0.34285
 C404 C 0.21752 0.67320 0.31842
 H405 H 0.25967 0.64029 0.39275
 H406 H 0.25301 0.60345 0.44663
 H407 H 0.14875 0.57807 0.41559
 H408 H 0.15547 0.61514 0.36139
 C409 C 0.29400 0.86044 0.87394
 C410 C 0.27772 0.89217 0.87672
 C411 C 0.28399 0.91362 0.90655
 C412 C 0.30685 0.90376 0.93416
 C413 C 0.32336 0.87182 0.93061
 C414 C 0.31709 0.85051 0.90074
 C415 C 0.28520 0.83685 0.84513
 C416 C 0.27722 0.81623 0.82201
 H417 H 0.25933 0.89985 0.85643
 H418 H 0.26939 0.93701 0.90893
 H419 H 0.34133 0.86329 0.95093
 H420 H 0.32973 0.82591 0.89896
 C421 C 0.78883 0.37136 0.37502
 C422 C 0.82059 0.38849 0.37994
 C423 C 0.82563 0.41027 0.40980
 C424 C 0.79890 0.41501 0.43479
 C425 C 0.76711 0.39800 0.42954
 C426 C 0.76209 0.37635 0.39976
 C427 C 0.78375 0.34735 0.34575
 C428 C 0.77831 0.32630 0.32235
 H429 H 0.84151 0.38462 0.36107
 H430 H 0.85039 0.42302 0.41374
 H431 H 0.74634 0.40128 0.44874
 H432 H 0.73751 0.36307 0.39632
 C433 C 0.14062 0.28071 0.87918
 C434 C 0.13939 0.25496 0.90570
 C435 C 0.11723 0.25768 0.93521
 C436 C 0.09532 0.28603 0.93862
 C437 C 0.09719 0.31221 0.91200
 C438 C 0.11956 0.30943 0.88236
 C439 C 0.16413 0.27726 0.84930
 C440 C 0.18456 0.27237 0.82535
 H441 H 0.15569 0.23271 0.90362
 H442 H 0.11671 0.23708 0.95513
 H443 H 0.08216 0.33529 0.91467
 H444 H 0.12071 0.32980 0.86223
 C445 C 0.62955 0.78836 0.37135
 C446 C 0.62232 0.75996 0.39381
 C447 C 0.60117 0.76359 0.42405
 C448 C 0.58692 0.79564 0.43206
 C449 C 0.59388 0.82407 0.40934
 C450 C 0.61516 0.82041 0.37901
 C451 C 0.65306 0.78446 0.34162
 C452 C 0.67357 0.77965 0.31777
 H453 H 0.63347 0.73511 0.38825
 H454 H 0.59616 0.74151 0.44150
 H455 H 0.58325 0.84902 0.41543
 H456 H 0.62079 0.84259 0.36191
 C457 C 0.86248 0.72660 0.86964
 C458 C 0.87458 0.69357 0.87732
 C459 C 0.89523 0.68830 0.90773
 C460 C 0.90397 0.71607 0.93058
 C461 C 0.89208 0.74915 0.92254
 C462 C 0.87151 0.75439 0.89217
 C463 C 0.83910 0.73188 0.84010
 C464 C 0.81856 0.73711 0.81643
 H465 H 0.86750 0.67183 0.86025
 H466 H 0.90387 0.66255 0.91387
 H467 H 0.89836 0.77076 0.94011
 H468 H 0.86208 0.77999 0.88667
 C469 C 0.36550 0.20795 0.37335
 C470 C 0.36089 0.17935 0.39626
 C471 C 0.38226 0.17529 0.42627
 C472 C 0.40854 0.19973 0.43352
 C473 C 0.41335 0.22810 0.41016
 C474 C 0.39197 0.23213 0.38016
 C475 C 0.34146 0.21388 0.34458
 C476 C 0.32049 0.21959 0.32150
 H477 H 0.34026 0.16068 0.39144
 H478 H 0.37794 0.15348 0.44424
 H479 H 0.43307 0.24754 0.41574
 H480 H 0.39551 0.25456 0.36285
 C481 C 0.70300 0.87098 0.86871
 C482 C 0.72377 0.90055 0.87346
 C483 C 0.71924 0.92166 0.90368
 C484 C 0.69355 0.91371 0.92963
 C485 C 0.67262 0.88391 0.92422
 C486 C 0.67722 0.86289 0.89395
 C487 C 0.71012 0.84744 0.83970
 C488 C 0.71729 0.82716 0.81629
 H489 H 0.74429 0.90666 0.85444
 H490 H 0.73709 0.94317 0.90769
 H491 H 0.65258 0.87687 0.94346
 H492 H 0.66118 0.83986 0.89069
 C493 C 0.21154 0.35641 0.37656
 C494 C 0.23895 0.36269 0.40028
 C495 C 0.23488 0.38442 0.43002
 C496 C 0.20336 0.40028 0.43632
 C497 C 0.17595 0.39430 0.41229
 C498 C 0.18005 0.37243 0.38244
 C499 C 0.21596 0.33258 0.34709
 C500 C 0.22147 0.31202 0.32339
 H501 H 0.26337 0.35037 0.39607
 H502 H 0.25618 0.38858 0.44846
 H503 H 0.15136 0.40609 0.41704
 H504 H 0.15862 0.36764 0.36433
 C505 C 0.29784 0.13492 0.87653
 C506 C 0.28064 0.10290 0.87883
 C507 C 0.28593 0.08126 0.90855
 C508 C 0.30879 0.09116 0.93651
 C509 C 0.32605 0.12353 0.93361
 C510 C 0.32073 0.14506 0.90383
 C511 C 0.29018 0.15843 0.84757
 C512 C 0.28290 0.17874 0.82418
 H513 H 0.26235 0.09507 0.85818
 H514 H 0.27072 0.05755 0.91046
 H515 H 0.34398 0.13215 0.95427
 H516 H 0.33402 0.16992 0.90245
 C517 C 0.78911 0.64558 0.37125
 C518 C 0.81977 0.64941 0.39079
 C519 C 0.82584 0.62826 0.42075
 C520 C 0.80137 0.60297 0.43131
 C521 C 0.77079 0.59910 0.41146
 C522 C 0.76477 0.62021 0.38151
 C523 C 0.78154 0.66898 0.34215
 C524 C 0.77413 0.68900 0.31852
 H525 H 0.83863 0.66917 0.38331
 H526 H 0.84934 0.63191 0.43605
 H527 H 0.75132 0.58022 0.41965
 H528 H 0.74080 0.61727 0.36685
 C529 C 0.13391 0.70225 0.87613
 C530 C 0.13888 0.67485 0.90013
 C531 C 0.11641 0.66952 0.92933
 C532 C 0.08823 0.69130 0.93480
 C533 C 0.08374 0.71889 0.91034
 C534 C 0.10623 0.72413 0.88122
 C535 C 0.15831 0.70937 0.84759
 C536 C 0.17898 0.71650 0.82423
 H537 H 0.16043 0.65792 0.89661
 H538 H 0.12090 0.64809 0.94748
 H539 H 0.06374 0.73748 0.91462
 H540 H 0.10255 0.74585 0.86322
 C541 C 0.64023 0.20836 0.37548
 C542 C 0.61412 0.23183 0.38226
 C543 C 0.59198 0.22685 0.41176
 C544 C 0.59553 0.19817 0.43469
 C545 C 0.62147 0.17443 0.42748
 C546 C 0.64367 0.17947 0.39796
 C547 C 0.66477 0.21540 0.34699
 C548 C 0.68556 0.22271 0.32377
 H549 H 0.61145 0.25446 0.36530
 H550 H 0.57266 0.24586 0.41732
 H551 H 0.62490 0.15243 0.44514
 H552 H 0.66397 0.16132 0.39317
 C553 C 0.86633 0.29706 0.87215
 C554 C 0.89427 0.27535 0.87652
 C555 C 0.91570 0.27896 0.90665
 C556 C 0.90974 0.30464 0.93289
 C557 C 0.88155 0.32648 0.92789
 C558 C 0.86020 0.32281 0.89771
 C559 C 0.84237 0.29103 0.84311
 C560 C 0.82164 0.28483 0.81968
 H561 H 0.89883 0.25486 0.85725
 H562 H 0.93586 0.26044 0.91034
 H563 H 0.87605 0.34654 0.94736
 H564 H 0.83845 0.33957 0.89476
 C565 C 0.35758 0.78591 0.37015
 C566 C 0.38293 0.76206 0.37845
 C567 C 0.40417 0.76731 0.40849
 C568 C 0.40046 0.79662 0.43042
 C569 C 0.37523 0.82065 0.42179
 C570 C 0.35394 0.81536 0.39172
 C571 C 0.33389 0.77883 0.34106
 C572 C 0.31350 0.77181 0.31751
 H573 H 0.38572 0.73900 0.36221
 H574 H 0.42300 0.74813 0.41516
 H575 H 0.37170 0.84316 0.43867
 H576 H 0.33419 0.83380 0.38577
 C577 C 0.28863 0.85776 0.12488
 C578 C 0.26442 0.88220 0.11490
 C579 C 0.27084 0.90410 0.08542
 C580 C 0.30168 0.90191 0.06579
 C581 C 0.32601 0.87754 0.07608
 C582 C 0.31954 0.85561 0.10557
 C583 C 0.28075 0.83356 0.15348
 C584 C 0.27333 0.81275 0.17667
 H585 H 0.24027 0.88383 0.12941
 H586 H 0.25151 0.92229 0.07743
 H587 H 0.34973 0.87523 0.06095
 H588 H 0.33831 0.83658 0.11287
 C589 C 0.79397 0.37313 0.62761
 C590 C 0.82251 0.36904 0.60497
 C591 C 0.82748 0.39076 0.57502
 C592 C 0.80401 0.41686 0.56755
 C593 C 0.77572 0.42116 0.59069
 C594 C 0.77080 0.39947 0.62063
 C595 C 0.78695 0.34880 0.65635
 C596 C 0.77998 0.32788 0.67961
 H597 H 0.84042 0.34854 0.60992
 H598 H 0.84919 0.38679 0.55720
 H599 H 0.75696 0.44067 0.58493
 H600 H 0.74842 0.40262 0.63773
 C601 C 0.72400 0.13746 0.12950
 C602 C 0.69347 0.11827 0.12436
 C603 C 0.68951 0.09738 0.09367
 C604 C 0.71611 0.09552 0.06799
 C605 C 0.74680 0.11444 0.07359
 C606 C 0.75074 0.13523 0.10422
 C607 C 0.72765 0.16093 0.15948
 C608 C 0.73197 0.18166 0.18345
 H609 H 0.67253 0.11999 0.14363
 H610 H 0.66549 0.08329 0.08948
 H611 H 0.76745 0.11351 0.05390
 H612 H 0.77440 0.15011 0.10783
 C613 C 0.20984 0.63215 0.62810
 C614 C 0.23672 0.62869 0.60320
 C615 C 0.23259 0.60728 0.57308
 C616 C 0.20155 0.58894 0.56757
 C617 C 0.17463 0.59225 0.59267
 C618 C 0.17879 0.61378 0.62290
 C619 C 0.21435 0.65548 0.65815
 C620 C 0.21989 0.67584 0.68225
 H621 H 0.26079 0.64286 0.60685
 H622 H 0.25351 0.60517 0.55385
 H623 H 0.15041 0.57851 0.58858
 H624 H 0.15777 0.61640 0.64192
 C625 C 0.85853 0.72300 0.12374
 C626 C 0.87085 0.69019 0.11551
 C627 C 0.89231 0.68575 0.08545
 C628 C 0.90163 0.71415 0.06356
 C629 C 0.88942 0.74697 0.07212
 C630 C 0.86805 0.75138 0.10211
 C631 C 0.83480 0.72765 0.15319
 C632 C 0.81419 0.73275 0.17690
 H633 H 0.86343 0.66802 0.13191
 H634 H 0.90122 0.66019 0.07890
 H635 H 0.89616 0.76905 0.05528
 H636 H 0.85849 0.77683 0.10809
 C637 C 0.36537 0.21353 0.62752
 C638 C 0.38230 0.18233 0.62235
 C639 C 0.40330 0.17793 0.59189
 C640 C 0.40755 0.20476 0.56651
 C641 C 0.39059 0.23594 0.57193
 C642 C 0.36969 0.24031 0.60230
 C643 C 0.34255 0.21808 0.65783
 C644 C 0.32262 0.22322 0.68221
 H645 H 0.37898 0.16136 0.64158
 H646 H 0.41596 0.15359 0.58787
 H647 H 0.39343 0.25679 0.55248
 H648 H 0.35659 0.26448 0.60591
 C649 C 0.13232 0.27160 0.13074
 C650 C 0.11457 0.30227 0.12542
 C651 C 0.09358 0.30596 0.09500
 C652 C 0.09018 0.27896 0.06978
 C653 C 0.10762 0.24812 0.07561
 C654 C 0.12850 0.24444 0.10597
 C655 C 0.15599 0.26828 0.16031
 C656 C 0.17681 0.26424 0.18393
 H657 H 0.11754 0.32352 0.14429
 H658 H 0.08066 0.33010 0.09061
 H659 H 0.10549 0.22717 0.05626
 H660 H 0.14227 0.22068 0.10974
 C661 C 0.63037 0.78710 0.62434
 C662 C 0.61228 0.81762 0.61920
 C663 C 0.59028 0.82082 0.58946
 C664 C 0.58624 0.79347 0.56478
 C665 C 0.60407 0.76283 0.57040
 C666 C 0.62593 0.75964 0.60005
 C667 C 0.65467 0.78399 0.65343
 C668 C 0.67581 0.77993 0.67678
 H669 H 0.61566 0.83909 0.63773
 H670 H 0.57702 0.84478 0.58522
 H671 H 0.60144 0.74161 0.55143
 H672 H 0.63988 0.73598 0.60367
   
