data_POSCAR
  _audit_creation_date              2014-09-24
  _audit_creation_method            'ToBaCCo'
  _symmetry_space_group_name_H-M    'P1'
  _symmetry_Int_Tables_number       1
  _symmetry_cell_setting            triclinic
  loop_
  _symmetry_equiv_pos_as_xyz
 x,y,z
_cell_length_a 37.2864
_cell_length_b 37.2598
_cell_length_c 37.3128
_cell_angle_alpha 89.958700
_cell_angle_beta 90.000600
_cell_angle_gamma 89.917500
loop_
  _atom_site_label
  _atom_site_type_symbol
  _atom_site_fract_x
  _atom_site_fract_y
  _atom_site_fract_z
O1 O 0.22066 1.03544 0.46556
 O2 O 0.22044 0.96556 0.53537
 O3 O 0.22061 1.03551 0.53542
 O4 O 0.22050 0.96550 0.46552
 O5 O 0.27980 0.96528 0.46557
 O6 O 0.27990 1.03529 0.53547
 O7 O 0.27975 0.96534 0.53541
 O8 O 0.27997 1.03522 0.46561
 Cu9 Cu 0.21458 1.00053 0.50047
 Cu10 Cu 0.28583 1.00026 0.50052
 C11 C 0.25035 1.04711 0.45379
 C12 C 0.25006 0.95365 0.54716
 C13 C 0.25027 1.04723 0.54726
 C14 C 0.25013 0.95357 0.45374
 O15 O 0.77932 -0.03561 0.46582
 O16 O 0.77947 0.03420 0.53552
 O17 O 0.77937 -0.03572 0.53565
 O18 O 0.77942 0.03428 0.46572
 O19 O 0.72011 0.03445 0.46577
 O20 O 0.72007 -0.03555 0.53569
 O21 O 0.72016 0.03437 0.53556
 O22 O 0.72000 -0.03544 0.46587
 Cu23 Cu 0.78538 -0.00074 0.50068
 Cu24 Cu 0.71410 -0.00054 0.50073
 C25 C 0.74964 -0.04728 0.45406
 C26 C 0.74984 0.04607 0.54728
 C27 C 0.74971 -0.04746 0.54749
 C28 C 0.74978 0.04618 0.45393
 O29 O 0.22052 0.46406 0.96563
 O30 O 0.22054 0.53391 1.03537
 O31 O 0.22051 0.53395 0.96558
 O32 O 0.22059 0.46400 1.03545
 O33 O 0.27989 0.46394 1.03541
 O34 O 0.27982 0.53389 0.96554
 O35 O 0.27986 0.53385 1.03534
 O36 O 0.27984 0.46400 0.96559
 Cu37 Cu 0.21456 0.49898 1.00052
 Cu38 Cu 0.28584 0.49891 1.00047
 C39 C 0.25018 0.45226 0.95382
 C40 C 0.25020 0.54568 1.04711
 C41 C 0.25016 0.54573 0.95377
 C42 C 0.25025 0.45216 1.04724
 O43 O 0.46616 0.22011 1.03534
 O44 O 0.53595 0.22007 0.96564
 O45 O 0.53604 0.22015 1.03548
 O46 O 0.46609 0.22000 0.96553
 O47 O 0.46595 0.27935 0.96541
 O48 O 0.53591 0.27949 1.03536
 O49 O 0.53582 0.27943 0.96552
 O50 O 0.46603 0.27947 1.03522
 Cu51 Cu 0.50108 0.21410 1.00051
 Cu52 Cu 0.50092 0.28541 1.00037
 C53 C 0.45431 0.24980 1.04703
 C54 C 0.54765 0.24974 0.95381
 C55 C 0.54779 0.24984 1.04725
 C56 C 0.45420 0.24965 0.95365
 O57 O 0.46565 0.77972 -0.03556
 O58 O 0.53545 0.77998 0.03415
 O59 O 0.53554 0.77991 -0.03570
 O60 O 0.46558 0.77976 0.03426
 O61 O 0.46584 0.72042 0.03434
 O62 O 0.53580 0.72057 -0.03561
 O63 O 0.53571 0.72063 0.03424
 O64 O 0.46591 0.72036 -0.03547
 Cu65 Cu 0.50054 0.78583 -0.00073
 Cu66 Cu 0.50085 0.71451 -0.00062
 C67 C 0.45398 0.74999 -0.04725
 C68 C 0.54733 0.75035 0.04597
 C69 C 0.54749 0.75026 -0.04748
 C70 C 0.45390 0.75007 0.04611
 O71 O 1.03548 0.46572 0.22020
 O72 O 0.96564 0.53557 0.22028
 O73 O 1.03553 0.53565 0.22029
 O74 O 0.96562 0.46565 0.22024
 O75 O 0.96563 0.46556 0.27950
 O76 O 1.03555 0.53555 0.27954
 O77 O 0.96566 0.53549 0.27956
 O78 O 1.03551 0.46563 0.27948
 Cu79 Cu 1.00057 0.50066 0.21428
 Cu80 Cu 1.00059 0.50055 0.28549
 C81 C 1.04727 0.45388 0.24982
 C82 C 0.95385 0.54730 0.24993
 C83 C 1.04737 0.54742 0.24992
 C84 C 0.95382 0.45378 0.24987
 O85 O -0.03554 0.46562 0.77949
 O86 O 0.03420 0.53538 0.77968
 O87 O -0.03570 0.53556 0.77959
 O88 O 0.03432 0.46546 0.77955
 O89 O 0.03438 0.46560 0.72029
 O90 O -0.03564 0.53569 0.72033
 O91 O 0.03426 0.53551 0.72040
 O92 O -0.03548 0.46575 0.72022
 Cu93 Cu -0.00070 0.50050 0.78555
 Cu94 Cu -0.00062 0.50066 0.71434
 C95 C -0.04726 0.45389 0.74983
 C96 C 0.04602 0.54719 0.75007
 C97 C -0.04750 0.54747 0.74996
 C98 C 0.04618 0.45369 0.74992
 O99 O 0.46426 0.96573 0.22029
 O100 O 0.53405 1.03553 0.22037
 O101 O 0.53408 0.96567 0.22032
 O102 O 0.46421 1.03563 0.22035
 O103 O 0.46419 1.03555 0.27962
 O104 O 0.53406 0.96559 0.27960
 O105 O 0.53403 1.03545 0.27964
 O106 O 0.46424 0.96564 0.27956
 Cu107 Cu 0.49914 1.00065 0.21435
 Cu108 Cu 0.49911 1.00055 0.28559
 C109 C 0.45249 0.95389 0.24991
 C110 C 0.54583 1.04725 0.25002
 C111 C 0.54587 0.95383 0.24996
 C112 C 0.45241 1.04742 0.24999
 O113 O 1.03513 0.27946 0.53458
 O114 O 0.96527 0.27943 0.46484
 O115 O 0.96530 0.27942 0.53462
 O116 O 1.03511 0.27952 0.46480
 O117 O 1.03525 0.22016 0.46481
 O118 O 0.96544 0.22006 0.53463
 O119 O 0.96541 0.22007 0.46485
 O120 O 1.03527 0.22010 0.53459
 Cu121 Cu 1.00019 0.28545 0.49971
 Cu122 Cu 1.00036 0.21410 0.49972
 C123 C 1.04699 0.24978 0.54636
 C124 C 0.95355 0.24974 0.45308
 C125 C 0.95359 0.24972 0.54641
 C126 C 1.04696 0.24985 0.45302
 O127 O -0.03496 0.77986 0.53489
 O128 O 0.03488 0.77975 0.46513
 O129 O -0.03495 0.77984 0.46511
 O130 O 0.03487 0.77978 0.53493
 O131 O 0.03488 0.72042 0.53499
 O132 O -0.03494 0.72048 0.46518
 O133 O 0.03489 0.72039 0.46521
 O134 O -0.03494 0.72050 0.53495
 Cu135 Cu -0.00003 0.78580 0.50001
 Cu136 Cu -0.00002 0.71445 0.50009
 C137 C -0.04674 0.75020 0.54669
 C138 C 0.04667 0.75004 0.45339
 C139 C -0.04673 0.75017 0.45337
 C140 C 0.04665 0.75009 0.54675
 O141 O 0.77948 0.46512 1.03486
 O142 O 0.77948 0.53500 0.96513
 O143 O 0.77946 0.53498 1.03489
 O144 O 0.77953 0.46515 0.96510
 O145 O 0.72021 0.46520 0.96507
 O146 O 0.72014 0.53504 1.03486
 O147 O 0.72016 0.53505 0.96510
 O148 O 0.72015 0.46518 1.03483
 Cu149 Cu 0.78548 0.50005 1.00000
 Cu150 Cu 0.71417 0.50012 0.99996
 C151 C 0.74981 0.45336 1.04661
 C152 C 0.74981 0.54681 0.95335
 C153 C 0.74979 0.54680 1.04665
 C154 C 0.74989 0.45339 0.95331
 O155 O 0.46442 1.03555 0.77959
 O156 O 0.53429 0.96563 0.77965
 O157 O 0.53426 1.03549 0.77959
 O158 O 0.46448 0.96566 0.77970
 O159 O 0.46445 0.96562 0.72043
 O160 O 0.53424 1.03546 0.72031
 O161 O 0.53427 0.96560 0.72038
 O162 O 0.46440 1.03552 0.72032
 Cu163 Cu 0.49936 1.00059 0.78562
 Cu164 Cu 0.49933 1.00056 0.71437
 C165 C 0.45261 1.04734 0.74994
 C166 C 0.54607 0.95382 0.75002
 C167 C 0.54605 1.04724 0.74993
 C168 C 0.45270 0.95384 0.75008
 C169 C 0.25059 0.22342 0.27655
 C170 C 0.22384 0.25019 0.27648
 C171 C 0.22385 0.27691 0.24970
 C172 C 0.25058 0.27688 0.22299
 C173 C 0.27732 0.25010 0.22309
 C174 C 0.27734 0.22336 0.24985
 C175 C 0.74971 0.77699 0.27674
 C176 C 0.77651 0.75027 0.27673
 C177 C 0.77659 0.72360 0.24996
 C178 C 0.74990 0.72364 0.22321
 C179 C 0.72315 0.75040 0.22322
 C180 C 0.72303 0.77708 0.24998
 C181 C 0.75019 0.22320 0.72321
 C182 C 0.77692 0.24991 0.72315
 C183 C 0.77691 0.27667 0.74984
 C184 C 0.75023 0.27668 0.77661
 C185 C 0.72354 0.24994 0.77666
 C186 C 0.72347 0.22322 0.74994
 C187 C 0.24989 0.77654 0.72361
 C188 C 0.27664 0.77650 0.75031
 C189 C 0.27668 0.74969 0.77700
 C190 C 0.24997 0.72295 0.77705
 C191 C 0.22322 0.72304 0.75035
 C192 C 0.22318 0.74981 0.72362
 C193 C 0.22359 0.24956 0.72306
 C194 C 0.22350 0.27630 0.74983
 C195 C 0.25026 0.27620 0.77657
 C196 C 0.27709 0.24944 0.77657
 C197 C 0.27710 0.22273 0.74977
 C198 C 0.25036 0.22275 0.72301
 C199 C 0.77656 0.75020 0.72328
 C200 C 0.74979 0.77700 0.72324
 C201 C 0.72305 0.77700 0.75000
 C202 C 0.72305 0.75025 0.77678
 C203 C 0.74985 0.72348 0.77674
 C204 C 0.77663 0.72341 0.75002
 C205 C 0.22320 0.74967 0.27664
 C206 C 0.24990 0.77646 0.27664
 C207 C 0.27663 0.77645 0.24986
 C208 C 0.27670 0.74967 0.22313
 C209 C 0.24998 0.72289 0.22321
 C210 C 0.22320 0.72287 0.24993
 C211 C 0.77670 0.24984 0.27662
 C212 C 0.74992 0.22313 0.27668
 C213 C 0.72317 0.22320 0.24993
 C214 C 0.72319 0.24993 0.22313
 C215 C 0.74999 0.27662 0.22315
 C216 C 0.77676 0.27662 0.24987
 C217 C 0.25043 0.07426 0.42656
 C218 C 0.25049 0.09706 0.40364
 C219 C 0.25053 0.12374 0.37680
 C220 C 0.25058 0.14650 0.35387
 C221 C 0.25060 0.17317 0.32703
 C222 C 0.25061 0.19596 0.30411
 C223 C 0.74958 0.92564 0.42684
 C224 C 0.74954 0.90291 0.40392
 C225 C 0.74951 0.87633 0.37705
 C226 C 0.74951 0.85364 0.35410
 C227 C 0.74953 0.82708 0.32724
 C228 C 0.74959 0.80436 0.30430
 C229 C 0.74990 0.07331 0.57436
 C230 C 0.74995 0.09622 0.59710
 C231 C 0.75001 0.12305 0.62370
 C232 C 0.75007 0.14597 0.64643
 C233 C 0.75014 0.17278 0.67304
 C234 C 0.75017 0.19568 0.69580
 C235 C 0.24998 0.92641 0.57432
 C236 C 0.24992 0.90351 0.59713
 C237 C 0.24987 0.87669 0.62383
 C238 C 0.24985 0.85379 0.64663
 C239 C 0.24984 0.82699 0.67333
 C240 C 0.24985 0.80409 0.69614
 C241 C 0.42710 0.24981 0.07413
 C242 C 0.40421 0.24984 0.09689
 C243 C 0.37741 0.24987 0.12352
 C244 C 0.35451 0.24992 0.14627
 C245 C 0.32772 0.24999 0.17290
 C246 C 0.30483 0.25005 0.19567
 C247 C 0.42674 0.74989 0.92569
 C248 C 0.40380 0.74981 0.90297
 C249 C 0.37694 0.74972 0.87640
 C250 C 0.35399 0.74966 0.85370
 C251 C 0.32715 0.74963 0.82712
 C252 C 0.30422 0.74963 0.80439
 C253 C 0.57442 0.75044 0.07319
 C254 C 0.59716 0.75050 0.09611
 C255 C 0.62375 0.75055 0.12296
 C256 C 0.64645 0.75056 0.14590
 C257 C 0.67303 0.75054 0.17274
 C258 C 0.69576 0.75049 0.19567
 C259 C 0.57475 0.24974 0.92661
 C260 C 0.59751 0.24975 0.90371
 C261 C 0.62412 0.24977 0.87689
 C262 C 0.64684 0.24980 0.85397
 C263 C 0.67343 0.24985 0.82713
 C264 C 0.69616 0.24990 0.80421
 C265 C 0.07445 0.42667 0.24978
 C266 C 0.09729 0.40380 0.24973
 C267 C 0.12401 0.37700 0.24968
 C268 C 0.14683 0.35412 0.24966
 C269 C 0.17354 0.32733 0.24965
 C270 C 0.19637 0.30444 0.24966
 C271 C 0.92567 0.42666 0.74976
 C272 C 0.90294 0.40374 0.74972
 C273 C 0.87635 0.37688 0.74969
 C274 C 0.85364 0.35395 0.74969
 C275 C 0.82705 0.32711 0.74971
 C276 C 0.80431 0.30420 0.74975
 C277 C 0.07325 0.57427 0.75014
 C278 C 0.09617 0.59700 0.75020
 C279 C 0.12302 0.62358 0.75026
 C280 C 0.14596 0.64629 0.75033
 C281 C 0.17280 0.67288 0.75038
 C282 C 0.19570 0.69563 0.75039
 C283 C 0.92661 0.57445 0.24995
 C284 C 0.90370 0.59725 0.24994
 C285 C 0.87685 0.62392 0.24992
 C286 C 0.85391 0.64669 0.24991
 C287 C 0.82707 0.67335 0.24992
 C288 C 0.80415 0.69615 0.24993
 C289 C 0.07417 0.24978 0.57352
 C290 C 0.09702 0.24976 0.59636
 C291 C 0.12376 0.24973 0.62310
 C292 C 0.14658 0.24969 0.64595
 C293 C 0.17328 0.24965 0.67272
 C294 C 0.19611 0.24961 0.69558
 C295 C 0.92607 0.75024 0.57385
 C296 C 0.90322 0.75024 0.59667
 C297 C 0.87646 0.75022 0.62339
 C298 C 0.85361 0.75019 0.64622
 C299 C 0.82687 0.75017 0.67295
 C300 C 0.80403 0.75017 0.69579
 C301 C 0.07383 0.74998 0.42621
 C302 C 0.09666 0.74991 0.40336
 C303 C 0.12337 0.74982 0.37659
 C304 C 0.14618 0.74976 0.35373
 C305 C 0.17289 0.74970 0.32697
 C306 C 0.19572 0.74967 0.30412
 C307 C 0.92635 0.24973 0.42593
 C308 C 0.90348 0.24972 0.40312
 C309 C 0.87670 0.24971 0.37642
 C310 C 0.85383 0.24971 0.35361
 C311 C 0.82707 0.24974 0.32691
 C312 C 0.80420 0.24978 0.30409
 C313 C 0.25016 0.42514 0.92659
 C314 C 0.25015 0.40237 0.90368
 C315 C 0.25013 0.37573 0.87683
 C316 C 0.25013 0.35300 0.85390
 C317 C 0.25015 0.32637 0.82705
 C318 C 0.25019 0.30361 0.80413
 C319 C 0.74981 0.42617 0.07375
 C320 C 0.74983 0.40330 0.09658
 C321 C 0.74987 0.37655 0.12330
 C322 C 0.74992 0.35370 0.14612
 C323 C 0.74997 0.32696 0.17284
 C324 C 0.74999 0.30411 0.19568
 C325 C 0.74981 0.57400 0.92620
 C326 C 0.74981 0.59685 0.90337
 C327 C 0.74983 0.62358 0.87663
 C328 C 0.74986 0.64640 0.85378
 C329 C 0.74987 0.67313 0.82704
 C330 C 0.74987 0.69598 0.80421
 C331 C 0.25020 0.57292 0.07422
 C332 C 0.25018 0.59583 0.09699
 C333 C 0.25014 0.62267 0.12364
 C334 C 0.25011 0.64560 0.14638
 C335 C 0.25008 0.67243 0.17302
 C336 C 0.25004 0.69534 0.19579
 C337 C 0.42686 0.07310 0.74991
 C338 C 0.40399 0.09597 0.74986
 C339 C 0.37719 0.12274 0.74980
 C340 C 0.35431 0.14560 0.74976
 C341 C 0.32752 0.17236 0.74975
 C342 C 0.30464 0.19522 0.74975
 C343 C 0.42540 0.92662 0.24988
 C344 C 0.40267 0.90368 0.24984
 C345 C 0.37607 0.87680 0.24980
 C346 C 0.35336 0.85384 0.24978
 C347 C 0.32676 0.82696 0.24978
 C348 C 0.30402 0.80402 0.24980
 C349 C 0.57308 0.07435 0.25004
 C350 C 0.59601 0.09710 0.25005
 C351 C 0.62287 0.12372 0.25004
 C352 C 0.64582 0.14644 0.25004
 C353 C 0.67268 0.17305 0.25002
 C354 C 0.69561 0.19580 0.24999
 C355 C 0.57329 0.92660 0.75004
 C356 C 0.59616 0.90374 0.75003
 C357 C 0.62295 0.87697 0.75000
 C358 C 0.64584 0.85413 0.74997
 C359 C 0.67264 0.82738 0.74997
 C360 C 0.69552 0.80452 0.74998
 C361 C 0.74969 0.92675 0.57327
 C362 C 0.74968 0.90387 0.59617
 C363 C 0.74968 0.87707 0.62301
 C364 C 0.74970 0.85421 0.64593
 C365 C 0.74971 0.82743 0.67276
 C366 C 0.74974 0.80455 0.69567
 C367 C 0.25028 0.42640 0.07300
 C368 C 0.25031 0.40354 0.09590
 C369 C 0.25036 0.37677 0.12272
 C370 C 0.25042 0.35394 0.14563
 C371 C 0.25050 0.32721 0.17247
 C372 C 0.25055 0.30437 0.19539
 C373 C 0.25031 0.07302 0.57304
 C374 C 0.25034 0.09590 0.59593
 C375 C 0.25036 0.12269 0.62278
 C376 C 0.25038 0.14555 0.64569
 C377 C 0.25040 0.17233 0.67252
 C378 C 0.25040 0.19521 0.69543
 C379 C 0.25007 0.92630 0.42649
 C380 C 0.25001 0.90341 0.40361
 C381 C 0.24995 0.87660 0.37679
 C382 C 0.24991 0.85373 0.35390
 C383 C 0.24989 0.82693 0.32708
 C384 C 0.24989 0.80404 0.30419
 C385 C 0.74979 0.07343 0.42668
 C386 C 0.74979 0.09631 0.40378
 C387 C 0.74980 0.12310 0.37694
 C388 C 0.74980 0.14595 0.35402
 C389 C 0.74983 0.17272 0.32717
 C390 C 0.74987 0.19559 0.30426
 C391 C 0.57326 0.75030 0.92672
 C392 C 0.59614 0.75032 0.90382
 C393 C 0.62295 0.75032 0.87698
 C394 C 0.64580 0.75031 0.85407
 C395 C 0.67260 0.75027 0.82724
 C396 C 0.69548 0.75026 0.80434
 C397 C 0.07414 0.24990 0.42583
 C398 C 0.09699 0.24996 0.40299
 C399 C 0.12376 0.25004 0.37626
 C400 C 0.14662 0.25012 0.35344
 C401 C 0.17341 0.25018 0.32674
 C402 C 0.19629 0.25021 0.30393
 C403 C 0.57355 0.24988 0.07305
 C404 C 0.59642 0.24990 0.09596
 C405 C 0.62319 0.24992 0.12283
 C406 C 0.64603 0.24994 0.14576
 C407 C 0.67279 0.24995 0.17262
 C408 C 0.69565 0.24995 0.19553
 C409 C 0.42695 0.24958 0.92640
 C410 C 0.40407 0.24951 0.90350
 C411 C 0.37726 0.24945 0.87668
 C412 C 0.35438 0.24942 0.85380
 C413 C 0.32756 0.24940 0.82700
 C414 C 0.30467 0.24941 0.80412
 C415 C 0.42663 0.75000 0.07336
 C416 C 0.40373 0.74992 0.09624
 C417 C 0.37689 0.74983 0.12303
 C418 C 0.35399 0.74977 0.14589
 C419 C 0.32716 0.74971 0.17269
 C420 C 0.30427 0.74969 0.19557
 C421 C 0.92669 0.57331 0.74997
 C422 C 0.90377 0.59624 0.74999
 C423 C 0.87690 0.62309 0.75002
 C424 C 0.85398 0.64600 0.75002
 C425 C 0.82713 0.67285 0.75001
 C426 C 0.80421 0.69578 0.75002
 C427 C 0.42670 0.07323 0.24999
 C428 C 0.40388 0.09617 0.24998
 C429 C 0.37717 0.12304 0.24996
 C430 C 0.35437 0.14599 0.24994
 C431 C 0.32766 0.17285 0.24992
 C432 C 0.30483 0.19578 0.24989
 C433 C 0.07317 0.57319 0.24993
 C434 C 0.09608 0.59605 0.24992
 C435 C 0.12295 0.62282 0.24991
 C436 C 0.14587 0.64566 0.24991
 C437 C 0.17272 0.67244 0.24993
 C438 C 0.19563 0.69531 0.24993
 C439 C 0.92658 0.42651 0.24984
 C440 C 0.90371 0.40360 0.24981
 C441 C 0.87692 0.37676 0.24980
 C442 C 0.85405 0.35386 0.24980
 C443 C 0.82725 0.32704 0.24982
 C444 C 0.80435 0.30416 0.24984
 C445 C 0.07346 0.42638 0.74990
 C446 C 0.09637 0.40346 0.74989
 C447 C 0.12323 0.37661 0.74987
 C448 C 0.14614 0.35369 0.74985
 C449 C 0.17298 0.32683 0.74985
 C450 C 0.19590 0.30390 0.74984
 C451 C 0.92608 0.75019 0.42620
 C452 C 0.90323 0.75018 0.40336
 C453 C 0.87645 0.75019 0.37664
 C454 C 0.85360 0.75019 0.35382
 C455 C 0.82684 0.75020 0.32708
 C456 C 0.80400 0.75023 0.30424
 C457 C 0.92642 0.24969 0.57360
 C458 C 0.90358 0.24968 0.59646
 C459 C 0.87684 0.24970 0.62322
 C460 C 0.85400 0.24973 0.64606
 C461 C 0.82726 0.24979 0.67281
 C462 C 0.80442 0.24986 0.69566
 C463 C 0.07381 0.75005 0.57395
 C464 C 0.09663 0.75001 0.59683
 C465 C 0.12333 0.74994 0.62362
 C466 C 0.14613 0.74990 0.64650
 C467 C 0.17284 0.74987 0.67327
 C468 C 0.19568 0.74984 0.69613
 C469 C 0.74977 0.57400 0.07382
 C470 C 0.74978 0.59686 0.09664
 C471 C 0.74980 0.62363 0.12337
 C472 C 0.74984 0.64650 0.14618
 C473 C 0.74991 0.67326 0.17290
 C474 C 0.74993 0.69613 0.19573
 C475 C 0.25012 0.57298 0.92656
 C476 C 0.25011 0.59588 0.90370
 C477 C 0.25010 0.62271 0.87695
 C478 C 0.25009 0.64562 0.85412
 C479 C 0.25005 0.67246 0.82739
 C480 C 0.25000 0.69538 0.80456
 C481 C 0.74992 0.42621 0.92612
 C482 C 0.74997 0.40337 0.90327
 C483 C 0.75005 0.37664 0.87650
 C484 C 0.75013 0.35380 0.85366
 C485 C 0.75020 0.32706 0.82692
 C486 C 0.75024 0.30420 0.80408
 C487 C 0.57310 0.92662 0.24995
 C488 C 0.59600 0.90377 0.24994
 C489 C 0.62283 0.87702 0.24993
 C490 C 0.64575 0.85419 0.24994
 C491 C 0.67257 0.82745 0.24997
 C492 C 0.69547 0.80459 0.24998
 C493 C 0.57331 0.07435 0.74990
 C494 C 0.59624 0.09710 0.74988
 C495 C 0.62312 0.12372 0.74987
 C496 C 0.64608 0.14644 0.74988
 C497 C 0.67296 0.17305 0.74990
 C498 C 0.69590 0.19580 0.74992
 C499 C 0.42560 0.92658 0.75013
 C500 C 0.40284 0.90365 0.75017
 C501 C 0.37621 0.87678 0.75021
 C502 C 0.35348 0.85383 0.75027
 C503 C 0.32685 0.82698 0.75031
 C504 C 0.30408 0.80405 0.75032
   
