data_POSCAR
  _audit_creation_date              2014-09-24
  _audit_creation_method            'ToBaCCo'
  _symmetry_space_group_name_H-M    'P1'
  _symmetry_Int_Tables_number       1
  _symmetry_cell_setting            triclinic
  loop_
  _symmetry_equiv_pos_as_xyz
 x,y,z
_cell_length_a 38.3683
_cell_length_b 38.6191
_cell_length_c 38.6726
_cell_angle_alpha 89.999200
_cell_angle_beta 89.980000
_cell_angle_gamma 90.020700
loop_
  _atom_site_label
  _atom_site_type_symbol
  _atom_site_fract_x
  _atom_site_fract_y
  _atom_site_fract_z
C1 C 0.27469 0.24950 0.22579
 N2 N 0.24978 0.27446 0.22602
 C3 C 0.22483 0.27468 0.25094
 N4 N 0.22488 0.24976 0.27573
 C5 C 0.24972 0.22471 0.27566
 N6 N 0.27458 0.22467 0.25065
 C7 C 0.72487 -0.24963 0.22425
 N8 N 0.74975 -0.27468 0.22463
 C9 C 0.77458 -0.27507 0.24968
 N10 N 0.77438 -0.25017 0.27451
 C11 C 0.74966 -0.22501 0.27434
 N12 N 0.72498 -0.22482 0.24917
 C13 C 0.72577 0.24963 0.77411
 N14 N 0.75064 0.27465 0.77383
 C15 C 0.77540 0.27517 0.74870
 N16 N 0.77515 0.25036 0.72377
 C17 C 0.75039 0.22520 0.72392
 N18 N 0.72573 0.22494 0.74912
 C19 C 0.27591 -0.24950 0.77595
 N20 N 0.27569 -0.22457 0.75112
 C21 C 0.25086 -0.22464 0.72611
 N22 N 0.22608 -0.24975 0.72600
 C23 C 0.22605 -0.27474 0.75069
 N24 N 0.25101 -0.27455 0.77559
 C25 C 0.72455 -0.24972 0.77545
 N26 N 0.72467 -0.22492 0.75050
 C27 C 0.74930 -0.22518 0.72526
 N28 N 0.77397 -0.25040 0.72505
 C29 C 0.77417 -0.27529 0.74989
 N30 N 0.74938 -0.27483 0.77501
 C31 C 0.27451 0.24916 0.77465
 N32 N 0.27448 0.22437 0.74974
 C33 C 0.24964 0.22441 0.72472
 N34 N 0.22475 0.24942 0.72469
 C35 C 0.22462 0.27430 0.74952
 N36 N 0.24954 0.27408 0.77445
 C37 C 0.27524 -0.24990 0.22411
 N38 N 0.25028 -0.27490 0.22442
 C39 C 0.22542 -0.27529 0.24947
 N40 N 0.22567 -0.25044 0.27435
 C41 C 0.25046 -0.22533 0.27425
 N42 N 0.27517 -0.22513 0.24909
 C43 C 0.72631 0.25013 0.22571
 N44 N 0.75119 0.27515 0.22599
 C45 C 0.77594 0.27567 0.25112
 N46 N 0.77567 0.25086 0.27607
 C47 C 0.75091 0.22570 0.27592
 N48 N 0.72627 0.22544 0.25072
 O49 O 0.22139 0.03279 0.46640
 O50 O 0.22170 -0.03476 0.53360
 O51 O 0.22143 0.03286 0.53349
 O52 O 0.22165 -0.03486 0.46643
 O53 O 0.27924 -0.03443 0.46615
 O54 O 0.27902 0.03287 0.53366
 O55 O 0.27929 -0.03432 0.53375
 O56 O 0.27898 0.03280 0.46614
 Cu57 Cu 0.21576 -0.00103 0.49998
 Cu58 Cu 0.28492 -0.00076 0.49991
 C59 C 0.25013 0.04427 0.45484
 C60 C 0.25054 -0.04595 0.54517
 C61 C 0.25019 0.04435 0.54501
 C62 C 0.25048 -0.04610 0.45482
 O63 O 0.72128 0.03316 0.53353
 O64 O 0.72109 -0.03399 0.46594
 O65 O 0.72102 -0.03406 0.53354
 O66 O 0.72138 0.03324 0.46603
 O67 O 0.77897 0.03326 0.46630
 O68 O 0.77860 -0.03448 0.53337
 O69 O 0.77868 -0.03440 0.46620
 O70 O 0.77887 0.03318 0.53337
 Cu71 Cu 0.71541 -0.00041 0.49975
 Cu72 Cu 0.78457 -0.00065 0.49981
 C73 C 0.75011 0.04465 0.54487
 C74 C 0.74985 -0.04563 0.45460
 C75 C 0.74975 -0.04573 0.54492
 C76 C 0.75024 0.04477 0.45476
 O77 O 0.46667 0.22028 0.03401
 O78 O 0.53423 0.22023 -0.03363
 O79 O 0.53433 0.22034 0.03393
 O80 O 0.46658 0.22022 -0.03356
 O81 O 0.46637 0.27743 -0.03340
 O82 O 0.53452 0.27755 0.03363
 O83 O 0.53442 0.27745 -0.03348
 O84 O 0.46645 0.27750 0.03372
 Cu85 Cu 0.50045 0.21451 0.00020
 Cu86 Cu 0.50044 0.28323 0.00011
 C87 C 0.45505 0.24890 0.04533
 C88 C 0.54584 0.24883 -0.04502
 C89 C 0.54597 0.24897 0.04521
 C90 C 0.45494 0.24881 -0.04492
 O91 O 0.53435 0.72234 0.03370
 O92 O 0.46629 0.72235 -0.03341
 O93 O 0.53442 0.72239 -0.03338
 O94 O 0.46619 0.72229 0.03367
 O95 O 0.46644 0.77950 0.03399
 O96 O 0.53414 0.77960 -0.03362
 O97 O 0.46653 0.77956 -0.03363
 O98 O 0.53408 0.77956 0.03401
 Cu99 Cu 0.50032 0.71660 0.00015
 Cu100 Cu 0.50030 0.78531 0.00020
 C101 C 0.54575 0.75095 0.04530
 C102 C 0.45490 0.75095 -0.04498
 C103 C 0.54582 0.75101 -0.04496
 C104 C 0.45476 0.75088 0.04527
 O105 O 0.03360 0.46729 0.22242
 O106 O -0.03436 0.53457 0.22214
 O107 O 0.03383 0.53449 0.22202
 O108 O -0.03445 0.46741 0.22253
 O109 O -0.03402 0.46736 0.27967
 O110 O 0.03355 0.53517 0.27915
 O111 O -0.03410 0.53509 0.27927
 O112 O 0.03358 0.46750 0.27956
 Cu113 Cu -0.00035 0.50093 0.21654
 Cu114 Cu -0.00024 0.50133 0.28516
 C115 C 0.04509 0.45590 0.25103
 C116 C -0.04578 0.54627 0.25066
 C117 C 0.04527 0.54627 0.25050
 C118 C -0.04575 0.45589 0.25118
 O119 O 0.03307 0.53438 0.72083
 O120 O -0.03459 0.46674 0.72026
 O121 O -0.03462 0.53448 0.72055
 O122 O 0.03300 0.46676 0.72055
 O123 O 0.03292 0.46674 0.77769
 O124 O -0.03516 0.53396 0.77768
 O125 O -0.03514 0.46681 0.77739
 O126 O 0.03299 0.53397 0.77796
 Cu127 Cu -0.00077 0.50063 0.71480
 Cu128 Cu -0.00112 0.50037 0.78342
 C129 C 0.04459 0.54561 0.74949
 C130 C -0.04637 0.45529 0.74874
 C131 C -0.04644 0.54567 0.74911
 C132 C 0.04447 0.45526 0.74913
 C133 C 0.35134 0.24916 0.14895
 N134 N 0.34719 0.22141 0.17010
 N135 N 0.32284 0.22157 0.19468
 C136 C 0.30160 0.24937 0.19881
 N137 N 0.30567 0.27707 0.17757
 N138 N 0.33019 0.27702 0.15316
 C139 C 0.37827 0.24907 0.12199
 N140 N 0.38653 0.27866 0.10489
 N141 N 0.41109 0.27863 0.08053
 C142 C 0.42808 0.24895 0.07221
 N143 N 0.41973 0.21933 0.08921
 N144 N 0.39535 0.21942 0.11376
 C145 C 0.64966 0.75079 0.14868
 N146 N 0.65159 0.77698 0.17200
 N147 N 0.67591 0.77679 0.19659
 C148 C 0.69941 0.75055 0.19857
 N149 N 0.69755 0.72446 0.17508
 N150 N 0.67303 0.72449 0.15070
 C151 C 0.62269 0.75086 0.12176
 N152 N 0.61563 0.72167 0.10350
 N153 N 0.59099 0.72166 0.07923
 C154 C 0.57276 0.75093 0.07212
 N155 N 0.57994 0.78017 0.09026
 N156 N 0.60435 0.78009 0.11476
 C157 C 0.64944 0.24905 -0.14873
 N158 N 0.65353 0.22133 -0.16994
 N159 N 0.67779 0.22155 -0.19460
 C160 C 0.69901 0.24937 -0.19876
 N161 N 0.69502 0.27703 -0.17745
 N162 N 0.67059 0.27692 -0.15297
 C163 C 0.62256 0.24895 -0.12173
 N164 N 0.61433 0.27855 -0.10465
 N165 N 0.58979 0.27853 -0.08027
 C166 C 0.57280 0.24885 -0.07191
 N167 N 0.58113 0.21922 -0.08888
 N168 N 0.60548 0.21929 -0.11345
 C169 C 0.35121 0.75079 -0.14857
 N170 N 0.34926 0.77703 -0.17183
 N171 N 0.32494 0.77687 -0.19642
 C172 C 0.30144 0.75061 -0.19845
 N173 N 0.30334 0.72445 -0.17504
 N174 N 0.32787 0.72446 -0.15066
 C175 C 0.37814 0.75085 -0.12162
 N176 N 0.38518 0.72165 -0.10338
 N177 N 0.40976 0.72164 -0.07905
 C178 C 0.42793 0.75094 -0.07185
 N179 N 0.42077 0.78019 -0.08997
 N180 N 0.39642 0.78011 -0.11453
 C181 C 0.14841 0.35182 0.25116
 N182 N 0.16954 0.34746 0.22334
 N183 N 0.19397 0.32295 0.22333
 C184 C 0.19797 0.30174 0.25104
 N185 N 0.17675 0.30601 0.27882
 N186 N 0.15250 0.33070 0.27892
 C187 C 0.12159 0.37891 0.25117
 N188 N 0.10459 0.38739 0.28077
 N189 N 0.08032 0.41206 0.28077
 C190 C 0.07199 0.42894 0.25111
 N191 N 0.08890 0.42037 0.22148
 N192 N 0.11336 0.39589 0.22154
 C193 C 0.14908 0.64862 0.75020
 N194 N 0.15337 0.66983 0.72253
 N195 N 0.17785 0.69430 0.72273
 C196 C 0.19911 0.69827 0.75050
 N197 N 0.19493 0.67696 0.77812
 N198 N 0.17027 0.65265 0.77802
 C199 C 0.12195 0.62181 0.75003
 N200 N 0.11348 0.60471 0.77953
 N201 N 0.08872 0.58051 0.77939
 C202 C 0.07172 0.57237 0.74970
 N203 N 0.08029 0.58938 0.72017
 N204 N 0.10486 0.61376 0.72036
 C205 C -0.15000 0.64947 0.25019
 N206 N -0.17332 0.65144 0.22387
 N207 N -0.19791 0.67579 0.22380
 C208 C -0.19990 0.69928 0.24988
 N209 N -0.17645 0.69734 0.27612
 N210 N -0.15206 0.67280 0.27635
 C211 C -0.12295 0.62260 0.25032
 N212 N -0.10463 0.61570 0.27954
 N213 N -0.08014 0.59125 0.27970
 C214 C -0.07286 0.57306 0.25054
 N215 N -0.09107 0.58007 0.22127
 N216 N -0.11578 0.60430 0.22121
 C217 C -0.14968 0.35116 0.74840
 N218 N -0.17295 0.34886 0.77474
 N219 N -0.19734 0.32431 0.77474
 C220 C -0.19919 0.30093 0.74856
 N221 N -0.17578 0.30317 0.72228
 N222 N -0.15158 0.32793 0.72212
 C223 C -0.12288 0.37827 0.74841
 N224 N -0.11596 0.39648 0.77764
 N225 N -0.09149 0.42095 0.77776
 C226 C -0.07329 0.42833 0.74857
 N227 N -0.08032 0.41025 0.71929
 N228 N -0.10458 0.38554 0.71925
 C229 C 0.24980 0.14798 0.35191
 N230 N 0.27768 0.15210 0.33069
 N231 N 0.27759 0.17648 0.30632
 C232 C 0.24973 0.19779 0.30246
 N233 N 0.22190 0.19376 0.32378
 N234 N 0.22188 0.16920 0.34798
 C235 C 0.24987 0.12101 0.37866
 N236 N 0.22010 0.11271 0.39575
 N237 N 0.22015 0.08814 0.41993
 C238 C 0.25002 0.07117 0.42807
 N239 N 0.27981 0.07956 0.41108
 N240 N 0.27971 0.10395 0.38671
 C241 C 0.75026 0.14853 0.64761
 N242 N 0.77812 0.16988 0.65145
 N243 N 0.77809 0.19444 0.67564
 C244 C 0.75032 0.19836 0.69705
 N245 N 0.72252 0.17693 0.69329
 N246 N 0.72243 0.15255 0.66892
 C247 C 0.75024 0.12153 0.62091
 N248 N 0.72043 0.10436 0.61291
 N249 N 0.72036 0.07993 0.58859
 C250 C 0.75017 0.07159 0.57160
 N251 N 0.78001 0.08865 0.57970
 N252 N 0.78001 0.11328 0.60383
 C253 C 0.25077 -0.14845 0.64931
 N254 N 0.22291 -0.16973 0.65345
 N255 N 0.22299 -0.19405 0.67788
 C256 C 0.25081 -0.19780 0.69923
 N257 N 0.27862 -0.17642 0.69519
 N258 N 0.27865 -0.15227 0.67058
 C259 C 0.25074 -0.12181 0.62224
 N260 N 0.28050 -0.10469 0.61393
 N261 N 0.28048 -0.08062 0.58925
 C262 C 0.25064 -0.07263 0.57217
 N263 N 0.22086 -0.08965 0.58056
 N264 N 0.22094 -0.11390 0.60506
 C265 C 0.74967 -0.14867 0.35098
 N266 N 0.72186 -0.15249 0.32963
 N267 N 0.72190 -0.17673 0.30510
 C268 C 0.74965 -0.19818 0.30123
 N269 N 0.77741 -0.19444 0.32267
 N270 N 0.77748 -0.17003 0.34701
 C271 C 0.74970 -0.12188 0.37791
 N272 N 0.77948 -0.11391 0.39511
 N273 N 0.77956 -0.08952 0.41947
 C274 C 0.74979 -0.07241 0.42770
 N275 N 0.71997 -0.08047 0.41060
 N276 N 0.71996 -0.10467 0.38605
 C277 C 0.64955 0.75085 -0.14867
 N278 N 0.67287 0.72451 -0.15079
 N279 N 0.69731 0.72444 -0.17527
 C280 C 0.69915 0.75052 -0.19878
 N281 N 0.67569 0.77680 -0.19671
 N282 N 0.65146 0.77703 -0.17202
 C283 C 0.62265 0.75094 -0.12165
 N284 N 0.60434 0.78018 -0.11457
 N285 N 0.57999 0.78026 -0.08999
 C286 C 0.57283 0.75101 -0.07183
 N287 N 0.59103 0.72174 -0.07902
 N288 N 0.61560 0.72175 -0.10337
 C289 C 0.35114 0.24889 -0.14848
 N290 N 0.32995 0.27671 -0.15269
 N291 N 0.30545 0.27674 -0.17709
 C292 C 0.30142 0.24905 -0.19835
 N293 N 0.32270 0.22127 -0.19422
 N294 N 0.34703 0.22114 -0.16965
 C295 C 0.37808 0.24884 -0.12152
 N296 N 0.39519 0.21920 -0.11326
 N297 N 0.41958 0.21915 -0.08874
 C298 C 0.42792 0.24879 -0.07177
 N299 N 0.41090 0.27845 -0.08011
 N300 N 0.38633 0.27844 -0.10445
 C301 C 0.35059 0.75059 0.14856
 N302 N 0.32716 0.72431 0.15052
 N303 N 0.30260 0.72426 0.17488
 C304 C 0.30074 0.75031 0.19843
 N305 N 0.32431 0.77651 0.19652
 N306 N 0.34867 0.77673 0.17195
 C307 C 0.37762 0.75069 0.12166
 N308 N 0.39600 0.77992 0.11472
 N309 N 0.42046 0.78004 0.09024
 C310 C 0.42766 0.75082 0.07207
 N311 N 0.40940 0.72155 0.07912
 N312 N 0.38471 0.72152 0.10336
 C313 C 0.64989 0.24943 0.14864
 N314 N 0.67104 0.27731 0.15281
 N315 N 0.69550 0.27746 0.17725
 C316 C 0.69954 0.24983 0.19859
 N317 N 0.67832 0.22199 0.19449
 N318 N 0.65403 0.22174 0.16988
 C319 C 0.62295 0.24927 0.12169
 N320 N 0.60584 0.21959 0.11352
 N321 N 0.58142 0.21946 0.08904
 C322 C 0.57303 0.24905 0.07202
 N323 N 0.59004 0.27875 0.08027
 N324 N 0.61465 0.27883 0.10457
 C325 C -0.15056 0.64905 0.74935
 N326 N -0.15259 0.67236 0.72316
 N327 N -0.17693 0.69697 0.72339
 C328 C -0.20036 0.69899 0.74967
 N329 N -0.19841 0.67552 0.77576
 N330 N -0.17386 0.65111 0.77569
 C331 C -0.12354 0.62213 0.74925
 N332 N -0.11646 0.60382 0.77838
 N333 N -0.09178 0.57956 0.77837
 C334 C -0.07351 0.57250 0.74914
 N335 N -0.08070 0.59069 0.71996
 N336 N -0.10516 0.61518 0.72006
 C337 C -0.14911 0.35170 0.25145
 N338 N -0.17235 0.34939 0.22509
 N339 N -0.19675 0.32484 0.22509
 C340 C -0.19863 0.30145 0.25127
 N341 N -0.17525 0.30370 0.27756
 N342 N -0.15104 0.32846 0.27772
 C343 C -0.12229 0.37883 0.25145
 N344 N -0.10403 0.38612 0.28062
 N345 N -0.07977 0.41083 0.28060
 C346 C -0.07268 0.42891 0.25132
 N347 N -0.09084 0.42152 0.22212
 N348 N -0.11532 0.39704 0.22222
 C349 C 0.14800 0.35130 0.74928
 N350 N 0.15218 0.33018 0.72152
 N351 N 0.17649 0.30555 0.72164
 C352 C 0.19769 0.30132 0.74943
 N353 N 0.19360 0.32253 0.77713
 N354 N 0.16911 0.34698 0.77711
 C355 C 0.12111 0.37834 0.74922
 N356 N 0.11279 0.39537 0.77881
 N357 N 0.08829 0.41981 0.77880
 C358 C 0.07141 0.42830 0.74915
 N359 N 0.07982 0.41138 0.71953
 N360 N 0.10414 0.38675 0.71959
 C361 C 0.14974 0.64939 0.24989
 N362 N 0.15187 0.67269 0.27608
 N363 N 0.17633 0.69718 0.27587
 C364 C 0.19981 0.69910 0.24963
 N365 N 0.19775 0.67564 0.22352
 N366 N 0.17308 0.65135 0.22357
 C367 C 0.12261 0.62255 0.25003
 N368 N 0.10426 0.61570 0.27927
 N369 N 0.07971 0.59128 0.27945
 C370 C 0.07240 0.57306 0.25032
 N371 N 0.09063 0.58002 0.22104
 N372 N 0.11541 0.60422 0.22094
 C373 C 0.74938 -0.14884 0.64855
 N374 N 0.72157 -0.15263 0.66994
 N375 N 0.72159 -0.17685 0.69448
 C376 C 0.74931 -0.19835 0.69834
 N377 N 0.77706 -0.19465 0.67686
 N378 N 0.77715 -0.17025 0.65250
 C379 C 0.74945 -0.12205 0.62160
 N380 N 0.77925 -0.11410 0.60440
 N381 N 0.77937 -0.08969 0.58004
 C382 C 0.74963 -0.07255 0.57180
 N383 N 0.71979 -0.08059 0.58890
 N384 N 0.71973 -0.10481 0.61345
 C385 C 0.25059 -0.14913 0.35110
 N386 N 0.22274 -0.17045 0.34708
 N387 N 0.22276 -0.19480 0.32268
 C388 C 0.25052 -0.19855 0.30122
 N389 N 0.27832 -0.17714 0.30515
 N390 N 0.27840 -0.15296 0.32973
 C391 C 0.25059 -0.12237 0.37809
 N392 N 0.28035 -0.10518 0.38624
 N393 N 0.28035 -0.08099 0.41081
 C394 C 0.25054 -0.07292 0.42793
 N395 N 0.22075 -0.09002 0.41969
 N396 N 0.22081 -0.11440 0.39531
 C397 C 0.75064 0.14893 0.35220
 N398 N 0.77851 0.17028 0.34841
 N399 N 0.77853 0.19487 0.32423
 C400 C 0.75080 0.19883 0.30280
 N401 N 0.72299 0.17740 0.30652
 N402 N 0.72285 0.15299 0.33087
 C403 C 0.75056 0.12187 0.37887
 N404 N 0.72073 0.10468 0.38680
 N405 N 0.72060 0.08019 0.41107
 C406 C 0.75037 0.07179 0.42808
 N407 N 0.78023 0.08887 0.42006
 N408 N 0.78029 0.11356 0.39599
 C409 C 0.24986 0.14788 0.64821
 N410 N 0.27773 0.15198 0.66944
 N411 N 0.27760 0.17628 0.69390
 C412 C 0.24971 0.19754 0.69783
 N413 N 0.22190 0.19354 0.67651
 N414 N 0.22192 0.16906 0.65222
 C415 C 0.24995 0.12098 0.62136
 N416 N 0.22018 0.11271 0.60428
 N417 N 0.22023 0.08819 0.58003
 C418 C 0.25011 0.07126 0.57181
 N419 N 0.27990 0.07962 0.58879
 N420 N 0.27979 0.10395 0.61323
   
