data_POSCAR
  _audit_creation_date              2014-09-24
  _audit_creation_method            'ToBaCCo'
  _symmetry_space_group_name_H-M    'P1'
  _symmetry_Int_Tables_number       1
  _symmetry_cell_setting            triclinic
  loop_
  _symmetry_equiv_pos_as_xyz
 x,y,z
_cell_length_a 30.8922
_cell_length_b 30.8617
_cell_length_c 30.9181
_cell_angle_alpha 89.477100
_cell_angle_beta 88.949800
_cell_angle_gamma 90.962400
loop_
  _atom_site_label
  _atom_site_type_symbol
  _atom_site_fract_x
  _atom_site_fract_y
  _atom_site_fract_z
C1 C 0.03234 0.43654 0.18707
 H2 H 0.05879 0.45954 0.18191
 C3 C 0.03221 0.39692 0.16528
 H4 H 0.05850 0.38952 0.14301
 C5 C -0.03335 0.41700 0.22366
 H6 H -0.05825 0.42403 0.24735
 C7 C -0.03477 0.37730 0.20265
 H8 H -0.06109 0.35454 0.20989
 N9 N -0.00023 0.44581 0.21561
 C10 C -0.00179 0.58518 0.23834
 H11 H -0.00380 0.58325 0.27328
 C12 C -0.00341 0.62532 0.21764
 H13 H -0.00652 0.65448 0.23663
 C14 C 0.00415 0.54933 0.17097
 H15 H 0.00654 0.51951 0.15307
 C16 C 0.00259 0.58910 0.14882
 H17 H 0.00409 0.58998 0.11380
 Zn18 Zn 0.00183 0.49707 0.24910
 N19 N 0.00224 0.54827 0.21500
 C20 C 0.08334 0.52775 0.27586
 N21 N 0.05268 0.49610 0.28279
 C22 C 0.05968 0.46245 0.31046
 C23 C 0.09882 0.45991 0.33250
 C24 C 0.12266 0.52650 0.29723
 C25 C -0.08557 0.50615 0.25910
 C26 C -0.12630 0.50702 0.27895
 C27 C -0.09267 0.49484 0.34792
 C28 C -0.05222 0.49424 0.32664
 N29 N -0.04966 0.49928 0.28288
 H30 H 0.07802 0.55352 0.25285
 H31 H 0.03525 0.43716 0.31470
 H32 H 0.10444 0.43281 0.35407
 H33 H 0.14695 0.55164 0.29102
 H34 H -0.08247 0.51022 0.22439
 H35 H -0.15469 0.51195 0.25954
 H36 H -0.09486 0.49029 0.38267
 H37 H -0.02320 0.48926 0.34490
 C38 C -0.00123 0.62738 0.17254
 C39 C -0.00164 0.36696 0.17341
 C40 C -0.12999 0.50099 0.32364
 C41 C 0.13065 0.49220 0.32557
 C42 C 0.02887 0.56020 0.80719
 H43 H 0.05463 0.53693 0.80826
 C44 C 0.03278 0.59932 0.82943
 H45 H 0.06141 0.60613 0.84806
 C46 C -0.03901 0.58114 0.77985
 H47 H -0.06638 0.57476 0.75956
 C48 C -0.03643 0.62041 0.80154
 H49 H -0.06204 0.64372 0.79825
 N50 N -0.00667 0.55192 0.78299
 C51 C -0.02180 0.41388 0.75998
 H52 H -0.02921 0.41618 0.72598
 C53 C -0.02096 0.37348 0.78023
 H54 H -0.02799 0.34450 0.76193
 C55 C -0.00208 0.44880 0.82501
 H56 H 0.00561 0.47824 0.84208
 C57 C -0.00074 0.40880 0.84658
 H58 H 0.00803 0.40739 0.88032
 Zn59 Zn -0.00895 0.50161 0.74856
 N60 N -0.01161 0.45037 0.78222
 C61 C 0.06878 0.46644 0.71765
 N62 N 0.04220 0.50097 0.71384
 C63 C 0.05448 0.53667 0.69017
 C64 C 0.09549 0.53888 0.67009
 C65 C 0.10969 0.46724 0.69801
 C66 C -0.09696 0.49518 0.73972
 C67 C -0.13706 0.49535 0.71999
 C68 C -0.10051 0.50901 0.65118
 C69 C -0.06081 0.50853 0.67239
 N70 N -0.05997 0.50212 0.71597
 H71 H 0.05923 0.43878 0.73734
 H72 H 0.03316 0.56406 0.68842
 H73 H 0.10567 0.56784 0.65236
 H74 H 0.13094 0.43999 0.70221
 H75 H -0.09518 0.48993 0.77428
 H76 H -0.16624 0.49012 0.73953
 H77 H -0.10108 0.51450 0.61651
 H78 H -0.03089 0.51358 0.65421
 C79 C -0.00970 0.37088 0.82367
 C80 C -0.00012 0.62973 0.82623
 C81 C -0.13898 0.50254 0.67538
 C82 C 0.12348 0.50399 0.67467
 C83 C 0.19401 0.03026 0.43140
 H84 H 0.19119 0.05694 0.45367
 C85 C 0.17534 0.03290 0.39058
 H86 H 0.15758 0.06144 0.38148
 C87 C 0.22274 -0.03854 0.41466
 H88 H 0.24240 -0.06572 0.42329
 C89 C 0.20455 -0.03726 0.37380
 H90 H 0.20974 -0.06374 0.35161
 N91 N 0.21751 -0.00496 0.44244
 C92 C 0.23547 -0.01045 0.58190
 H93 H 0.27023 -0.01427 0.58120
 C94 C 0.21291 -0.01112 0.62129
 H95 H 0.23029 -0.01539 0.65111
 C96 C 0.17041 -0.00017 0.54376
 H97 H 0.15414 0.00390 0.51337
 C98 C 0.14647 -0.00059 0.58269
 H99 H 0.11170 0.00337 0.58236
 Zn100 Zn 0.24974 -0.00427 0.49386
 N101 N 0.21418 -0.00460 0.54423
 C102 C 0.28017 0.07630 0.52427
 N103 N 0.28464 0.04670 0.49219
 C104 C 0.31014 0.05521 0.45663
 C105 C 0.33210 0.09506 0.45222
 C106 C 0.30155 0.11636 0.52118
 C107 C 0.25966 -0.09205 0.50449
 C108 C 0.27977 -0.13204 0.50352
 C109 C 0.34782 -0.09514 0.48688
 C110 C 0.32635 -0.05558 0.48825
 N111 N 0.28286 -0.05497 0.49614
 H112 H 0.25888 0.06962 0.55167
 H113 H 0.31227 0.03157 0.43109
 H114 H 0.35162 0.10204 0.42346
 H115 H 0.29706 0.14002 0.54648
 H116 H 0.22514 -0.09049 0.51068
 H117 H 0.26080 -0.16145 0.50924
 H118 H 0.38224 -0.09575 0.47961
 H119 H 0.34416 -0.02568 0.48203
 C120 C 0.16808 -0.00595 0.62177
 C121 C 0.18123 -0.00102 0.36142
 C122 C 0.32406 -0.13365 0.49406
 C123 C 0.32733 0.12601 0.48467
 C124 C 0.81271 0.04122 0.55871
 H125 H 0.81400 0.06757 0.53538
 C126 C 0.83556 0.04460 0.59729
 H127 H 0.85489 0.07339 0.60353
 C128 C 0.78430 -0.02762 0.58042
 H129 H 0.76332 -0.05516 0.57463
 C130 C 0.80660 -0.02558 0.61916
 H131 H 0.80314 -0.05186 0.64252
 N132 N 0.78755 0.00553 0.55109
 C133 C 0.75963 -0.00115 0.41297
 H134 H 0.72490 -0.00573 0.41589
 C135 C 0.77972 -0.00104 0.37220
 H136 H 0.76033 -0.00561 0.34367
 C137 C 0.82715 0.01026 0.44674
 H138 H 0.84541 0.01442 0.47593
 C139 C 0.84864 0.01059 0.40641
 H140 H 0.88349 0.01513 0.40469
 Zn141 Zn 0.75128 0.00447 0.50213
 N142 N 0.78333 0.00488 0.44915
 C143 C 0.71952 0.08446 0.47213
 N144 N 0.71659 0.05468 0.50488
 C145 C 0.69305 0.06258 0.54156
 C146 C 0.67159 0.10190 0.54641
 C147 C 0.69858 0.12402 0.47565
 C148 C 0.74046 -0.08436 0.49586
 C149 C 0.72002 -0.12493 0.49872
 C150 C 0.65284 -0.08957 0.51639
 C151 C 0.67462 -0.04943 0.51316
 N152 N 0.71786 -0.04769 0.50371
 H153 H 0.73929 0.07837 0.44377
 H154 H 0.69208 0.03888 0.56757
 H155 H 0.65362 0.10833 0.57602
 H156 H 0.70186 0.14779 0.44973
 H157 H 0.77475 -0.08201 0.48829
 H158 H 0.73854 -0.15391 0.49311
 H159 H 0.61860 -0.09091 0.52459
 H160 H 0.65720 -0.01990 0.51890
 C161 C 0.82461 0.00506 0.36877
 C162 C 0.83207 0.01098 0.62794
 C163 C 0.67594 -0.12765 0.50949
 C164 C 0.67479 0.13306 0.51326
 C165 C 0.56331 0.18912 0.96922
 H166 H 0.53975 0.18602 0.94392
 C167 C 0.60246 0.16703 0.96615
 H168 H 0.60904 0.14659 0.93859
 C169 C 0.58468 0.22086 1.03524
 H170 H 0.57844 0.24273 1.06156
 C171 C 0.62399 0.19945 1.03345
 H172 H 0.64742 0.20453 1.05864
 N173 N 0.55516 0.21535 1.00350
 C174 C 0.41620 0.23555 1.01612
 H175 H 0.41751 0.27035 1.01999
 C176 C 0.37649 0.21357 1.01840
 H177 H 0.34708 0.23154 1.02396
 C178 C 0.45307 0.16982 1.00388
 H179 H 0.48306 0.15302 0.99844
 C180 C 0.41382 0.14644 1.00583
 H181 H 0.41363 0.11162 1.00156
 Zn182 Zn 0.50417 0.24868 1.00544
 N183 N 0.45336 0.21367 1.00838
 C184 C 0.46997 0.27902 0.92704
 N185 N 0.50343 0.28380 0.95476
 C186 C 0.53775 0.31061 0.94495
 C187 C 0.53923 0.33387 0.90583
 C188 C 0.47014 0.30167 0.88782
 C189 C 0.49822 0.25827 1.09363
 C190 C 0.49899 0.27852 1.13365
 C191 C 0.51062 0.34730 1.09679
 C192 C 0.50956 0.32565 1.05720
 N193 N 0.50404 0.28180 1.05651
 H194 H 0.44355 0.25677 0.93463
 H195 H 0.56438 0.31314 0.96707
 H196 H 0.56691 0.35463 0.89788
 H197 H 0.44362 0.29710 0.86576
 H198 H 0.49366 0.22349 1.09202
 H199 H 0.49483 0.25938 1.16303
 H200 H 0.51553 0.38212 1.09739
 H201 H 0.51360 0.34374 1.02727
 C202 C 0.37518 0.16867 1.01292
 C203 C 0.63308 0.17250 0.99856
 C204 C 0.50558 0.32333 1.13529
 C205 C 0.50515 0.32909 0.87694
 C206 C 0.43890 0.81277 0.96737
 H207 H 0.46159 0.81443 0.94031
 C208 C 0.40059 0.83627 0.96618
 H209 H 0.39387 0.85625 0.93817
 C210 C 0.41878 0.78306 1.03600
 H211 H 0.42521 0.76140 1.06262
 C212 C 0.38026 0.80599 1.03617
 H213 H 0.35757 0.80211 1.06314
 N214 N 0.44719 0.78675 1.00193
 C215 C 0.58556 0.76177 1.00280
 H216 H 0.58359 0.72690 1.00660
 C217 C 0.62583 0.78275 1.00124
 H218 H 0.65506 0.76406 1.00393
 C219 C 0.54979 0.82872 0.99456
 H220 H 0.52003 0.84640 0.99217
 C221 C 0.58960 0.85108 0.99286
 H222 H 0.59051 0.88601 0.98907
 Zn223 Zn 0.49677 0.75144 1.00023
 N224 N 0.54864 0.78477 0.99888
 C225 C 0.52629 0.72205 0.91904
 N226 N 0.49414 0.71745 0.94953
 C227 C 0.45884 0.69156 0.94266
 C228 C 0.45510 0.66886 0.90386
 C229 C 0.52386 0.69997 0.88003
 C230 C 0.50537 0.73886 1.08818
 C231 C 0.50670 0.71682 1.12764
 C232 C 0.49411 0.64960 1.08998
 C233 C 0.49304 0.67299 1.05101
 N234 N 0.49810 0.71690 1.05099
 H235 H 0.55345 0.74366 0.92429
 H236 H 0.43328 0.68919 0.96700
 H237 H 0.42674 0.64869 0.89834
 H238 H 0.54942 0.70429 0.85582
 H239 H 0.50974 0.77371 1.08708
 H240 H 0.51205 0.73470 1.15712
 H241 H 0.48966 0.61471 1.09000
 H242 H 0.48804 0.65612 1.02100
 C243 C 0.62790 0.82772 0.99597
 C244 C 0.37089 0.83256 1.00082
 C245 C 0.50080 0.67186 1.12861
 C246 C 0.48791 0.67335 0.87224
 B247 B 1.00253 1.04426 0.02518
 B248 B 1.00375 1.04443 -0.02924
 B249 B 1.04681 1.02741 -0.00196
 B250 B 1.02869 1.00001 0.04214
 B251 B 0.97418 1.00013 0.04217
 B252 B 0.95884 1.02760 -0.00211
 B253 B 1.00192 0.95633 -0.02885
 B254 B 1.00083 0.95601 0.02563
 B255 B 0.95775 0.97316 -0.00184
 B256 B 0.97602 1.00058 -0.04594
 B257 B 1.03037 1.00036 -0.04578
 B258 B 1.04571 0.97283 -0.00172
 B259 B 0.54335 0.50099 0.47721
 B260 B 0.54044 0.50151 0.53155
 B261 B 0.52455 0.54489 0.50296
 B262 B 0.49981 0.52661 0.45833
 B263 B 0.50059 0.47214 0.45965
 B264 B 0.52576 0.45660 0.50481
 B265 B 0.45249 0.49871 0.52879
 B266 B 0.45525 0.49810 0.47436
 B267 B 0.47129 0.45484 0.50297
 B268 B 0.49602 0.47301 0.54745
 B269 B 0.49525 0.52753 0.54627
 B270 B 0.47006 0.54303 0.50105
 C271 C 0.99198 1.16342 0.08727
 C272 C 1.00151 1.16928 0.13134
 C273 C 1.00258 1.21169 0.14881
 C274 C 0.99352 1.24786 0.12207
 C275 C 0.98003 1.24141 0.07904
 C276 C 0.97861 1.19891 0.06183
 C277 C 0.96315 1.19287 0.01949
 C278 C 0.94984 1.22793 -0.00534
 C279 C 0.95244 1.26967 0.01099
 C280 C 0.96741 1.27655 0.05267
 C281 C 1.01237 1.21678 0.19303
 C282 C 1.01968 1.18087 0.21944
 C283 C 1.01771 1.13934 0.20248
 C284 C 1.00925 1.13345 0.15880
 C285 C 0.99634 1.29138 0.13938
 C286 C 0.99796 1.32720 0.15464
 C287 C 0.99695 1.12133 0.06765
 C288 C 1.00068 1.08698 0.05005
 H289 H 0.96079 1.16100 0.00532
 H290 H 0.93792 1.22270 -0.03762
 H291 H 0.94261 1.29686 -0.00867
 H292 H 0.96841 1.30956 0.06417
 H293 H 1.01387 1.24842 0.20777
 H294 H 1.02674 1.18530 0.25329
 H295 H 1.02327 1.11155 0.22313
 H296 H 1.00811 1.10054 0.14698
 C297 C 0.99074 0.83475 0.08645
 C298 C 1.00286 0.82732 0.12968
 C299 C 1.00372 0.78429 0.14632
 C300 C 0.99255 0.74898 0.11944
 C301 C 0.97811 0.75672 0.07691
 C302 C 0.97629 0.79986 0.06073
 C303 C 0.95967 0.80709 0.01898
 C304 C 0.94637 0.77253 -0.00655
 C305 C 0.94958 0.73023 0.00868
 C306 C 0.96511 0.72221 0.04999
 C307 C 1.01577 0.77768 0.18981
 C308 C 1.02593 0.81264 0.21623
 C309 C 1.02461 0.85474 0.20001
 C310 C 1.01367 0.86217 0.15710
 C311 C 0.99483 0.70497 0.13611
 C312 C 0.99671 0.66902 0.15150
 C313 C 0.99475 0.87781 0.06770
 C314 C 0.99813 0.91287 0.05057
 H315 H 0.95661 0.83944 0.00576
 H316 H 0.93396 0.77860 -0.03849
 H317 H 0.93966 0.70349 -0.01149
 H318 H 0.96650 0.68878 0.06068
 H319 H 1.01708 0.74555 0.20397
 H320 H 1.03479 0.80703 0.24950
 H321 H 1.03242 0.88179 0.22067
 H322 H 1.01309 0.89548 0.14589
 C323 C 1.00911 1.16401 -0.09267
 C324 C 1.03031 1.19860 -0.07153
 C325 C 1.02663 1.24153 -0.08774
 C326 C 1.00285 1.24923 -0.12565
 C327 C 0.98370 1.21419 -0.14810
 C328 C 0.98678 1.17137 -0.13144
 C329 C 0.96732 1.13674 -0.15417
 C330 C 0.94564 1.14426 -0.19255
 C331 C 0.94244 1.18619 -0.20883
 C332 C 0.96112 1.22089 -0.18697
 C333 C 1.04644 1.27595 -0.06505
 C334 C 1.06937 1.26809 -0.02745
 C335 C 1.07344 1.22600 -0.01190
 C336 C 1.05444 1.19146 -0.03368
 C337 C 0.99829 1.29304 -0.14186
 C338 C 0.99450 1.32899 -0.15654
 C339 C 1.00760 1.12159 -0.07270
 C340 C 1.00578 1.08707 -0.05460
 H341 H 0.96916 1.10354 -0.14284
 H342 H 0.93134 1.11744 -0.20984
 H343 H 0.92547 1.19186 -0.23862
 H344 H 0.95784 1.25290 -0.20097
 H345 H 1.04423 1.30925 -0.07596
 H346 H 1.08407 1.29481 -0.01031
 H347 H 1.09117 1.22011 0.01733
 H348 H 1.05840 1.15928 -0.02026
 C349 C 1.00407 0.83547 -0.08761
 C350 C 0.97778 0.82491 -0.12302
 C351 C 0.97863 0.78249 -0.14032
 C352 C 1.00530 0.75076 -0.12153
 C353 C 1.03105 0.76119 -0.08558
 C354 C 1.03036 0.80372 -0.06849
 C355 C 1.05527 0.81313 -0.03164
 C356 C 1.08049 0.78153 -0.01252
 C357 C 1.08157 0.74005 -0.02957
 C358 C 1.05719 0.72980 -0.06569
 C359 C 0.95222 0.77275 -0.17602
 C360 C 0.92551 0.80395 -0.19379
 C361 C 0.92429 0.84530 -0.17642
 C362 C 0.94998 0.85580 -0.14136
 C363 C 1.00513 0.70718 -0.13862
 C364 C 1.00364 0.67142 -0.15384
 C365 C 1.00295 0.87849 -0.06972
 C366 C 1.00214 0.91351 -0.05323
 H367 H 1.05521 0.84482 -0.01695
 H368 H 1.09928 0.78931 0.01567
 H369 H 1.10125 0.71561 -0.01464
 H370 H 1.05885 0.69702 -0.07765
 H371 H 0.95183 0.74097 -0.19051
 H372 H 0.90551 0.79593 -0.22106
 H373 H 0.90333 0.86938 -0.19015
 H374 H 0.94758 0.88822 -0.12863
 C375 C 1.10253 1.00182 0.15387
 C376 C 1.11286 1.04179 0.17343
 C377 C 1.13078 1.04221 0.21539
 C378 C 1.13890 1.00259 0.23694
 C379 C 1.13305 0.96278 0.21516
 C380 C 1.11513 0.96249 0.17322
 C381 C 1.11042 0.92263 0.15143
 C382 C 1.12315 0.88399 0.17065
 C383 C 1.13988 0.88408 0.21209
 C384 C 1.14474 0.92293 0.23431
 C385 C 1.14019 1.08254 0.23478
 C386 C 1.13309 1.12134 0.21280
 C387 C 1.11633 1.12085 0.17139
 C388 C 1.10586 1.08161 0.15189
 C389 C 1.15333 1.00263 0.28129
 C390 C 1.16548 1.00169 0.31807
 C391 C 1.07693 1.00101 0.11524
 C392 C 1.05520 1.00030 0.08345
 H393 H 1.09746 0.92101 0.11916
 H394 H 1.11953 0.85376 0.15348
 H395 H 1.14928 0.85391 0.22706
 H396 H 1.15829 0.92144 0.26630
 H397 H 1.15362 1.08448 0.26680
 H398 H 1.14067 1.15195 0.22797
 H399 H 1.11069 1.15108 0.15460
 H400 H 1.09271 1.08278 0.11968
 C401 C 1.08374 0.99822 -0.17021
 C402 C 1.08466 1.03669 -0.19546
 C403 C 1.09807 1.03535 -0.23961
 C404 C 1.11037 0.99550 -0.25817
 C405 C 1.10752 0.95672 -0.23333
 C406 C 1.09422 0.95811 -0.18914
 C407 C 1.09109 0.91892 -0.16500
 C408 C 1.10040 0.87941 -0.18419
 C409 C 1.11369 0.87806 -0.22734
 C410 C 1.11743 0.91619 -0.25175
 C411 C 1.09875 1.07422 -0.26428
 C412 C 1.08631 1.11326 -0.24587
 C413 C 1.07314 1.11456 -0.20268
 C414 C 1.07229 1.07682 -0.17758
 C415 C 1.12831 0.99479 -0.30187
 C416 C 1.14520 0.99439 -0.33732
 C417 C 1.06925 0.99946 -0.12554
 C418 C 1.05465 1.00015 -0.08931
 H419 H 1.08085 0.91829 -0.13133
 H420 H 1.09694 0.84966 -0.16559
 H421 H 1.12091 0.84727 -0.24208
 H422 H 1.12756 0.91347 -0.28529
 H423 H 1.10856 1.07478 -0.29806
 H424 H 1.08687 1.14267 -0.26524
 H425 H 1.06355 1.14497 -0.18853
 H426 H 1.06181 1.07946 -0.14414
 C427 C 0.91179 1.00189 0.16325
 C428 C 0.90157 1.04209 0.18222
 C429 C 0.88518 1.04327 0.22547
 C430 C 0.87874 1.00418 0.24934
 C431 C 0.88884 0.96395 0.23017
 C432 C 0.90532 0.96282 0.18696
 C433 C 0.91505 0.92226 0.16843
 C434 C 0.90877 0.88388 0.19195
 C435 C 0.89289 0.88497 0.23427
 C436 C 0.88293 0.92444 0.25330
 C437 C 0.87568 1.08392 0.24389
 C438 C 0.88209 1.12225 0.22022
 C439 C 0.89780 1.12104 0.17784
 C440 C 0.90747 1.08151 0.15888
 C441 C 0.86050 1.00510 0.29305
 C442 C 0.84432 1.00531 0.32892
 C443 C 0.93107 1.00092 0.12021
 C444 C 0.94868 1.00032 0.08520
 H445 H 0.92747 0.91974 0.13560
 H446 H 0.91632 0.85313 0.17728
 H447 H 0.88819 0.85507 0.25244
 H448 H 0.87065 0.92360 0.28630
 H449 H 0.86335 1.08650 0.27673
 H450 H 0.87475 1.15307 0.23485
 H451 H 0.90268 1.15088 0.15958
 H452 H 0.91960 1.08223 0.12580
 C453 C 0.92103 1.00808 -0.16824
 C454 C 0.93905 0.98281 -0.20181
 C455 C 0.92232 0.98569 -0.24424
 C456 C 0.88791 1.01407 -0.25292
 C457 C 0.87072 1.04020 -0.21952
 C458 C 0.88749 1.03732 -0.17709
 C459 C 0.87026 1.06415 -0.14436
 C460 C 0.83697 1.09262 -0.15311
 C461 C 0.82031 1.09522 -0.19451
 C462 C 0.83692 1.06944 -0.22748
 C463 C 0.94049 0.95967 -0.27715
 C464 C 0.97410 0.93155 -0.26837
 C465 C 0.99047 0.92882 -0.22692
 C466 C 0.97355 0.95435 -0.19397
 C467 C 0.86913 1.01492 -0.29569
 C468 C 0.85285 1.01407 -0.33086
 C469 C 0.93752 1.00443 -0.12481
 C470 C 0.95272 1.00197 -0.08935
 H471 H 0.88253 1.06363 -0.11181
 H472 H 0.82408 1.11280 -0.12764
 H473 H 0.79447 1.11744 -0.20116
 H474 H 0.82312 1.07280 -0.25922
 H475 H 0.92893 0.96074 -0.30996
 H476 H 0.98748 0.91173 -0.29386
 H477 H 1.01627 0.90664 -0.22025
 H478 H 0.98766 0.95131 -0.16233
 C479 C 1.17031 1.08324 0.00377
 C480 C 1.20451 1.06045 -0.01628
 C481 C 1.24798 1.07508 -0.01150
 C482 C 1.25680 1.11318 0.01213
 C483 C 1.22256 1.13563 0.03265
 C484 C 1.17916 1.12050 0.02856
 C485 C 1.14544 1.14334 0.04937
 C486 C 1.15438 1.18023 0.07348
 C487 C 1.19682 1.19508 0.07751
 C488 C 1.23065 1.17319 0.05738
 C489 C 1.28176 1.05106 -0.03072
 C490 C 1.27279 1.01380 -0.05431
 C491 C 1.23020 1.00000 -0.05977
 C492 C 1.19631 1.02301 -0.04118
 C493 C 1.30057 1.13092 0.01315
 C494 C 1.33615 1.14756 0.01329
 C495 C 1.12633 1.06699 0.00058
 C496 C 1.09050 1.05149 -0.00129
 H497 H 1.11188 1.13307 0.04713
 H498 H 1.12822 1.19743 0.08906
 H499 H 1.20359 1.22373 0.09633
 H500 H 1.26314 1.18592 0.06160
 H501 H 1.31539 1.06066 -0.02745
 H502 H 1.29901 0.99564 -0.06857
 H503 H 1.22336 0.97112 -0.07825
 H504 H 1.16373 1.01094 -0.04628
 C505 C 0.83827 1.08610 -0.00434
 C506 C 0.80583 1.06530 -0.02881
 C507 C 0.76325 1.08193 -0.02888
 C508 C 0.75358 1.11952 -0.00490
 C509 C 0.78613 1.14020 0.01970
 C510 C 0.82854 1.12318 0.02023
 C511 C 0.86037 1.14372 0.04569
 C512 C 0.85075 1.18053 0.06950
 C513 C 0.80936 1.19749 0.06871
 C514 C 0.77727 1.17765 0.04423
 C515 C 0.73112 1.06016 -0.05293
 C516 C 0.74081 1.02295 -0.07617
 C517 C 0.78251 1.00675 -0.07620
 C518 C 0.81479 1.02760 -0.05293
 C519 C 0.71021 1.13686 -0.00508
 C520 C 0.67463 1.15231 -0.00423
 C521 C 0.88126 1.06842 -0.00347
 C522 C 0.91623 1.05209 -0.00271
 H523 H 0.89291 1.13151 0.04757
 H524 H 0.87553 1.19593 0.08866
 H525 H 0.80201 1.22610 0.08726
 H526 H 0.74553 1.19195 0.04484
 H527 H 0.69820 1.07154 -0.05387
 H528 H 0.71580 1.00659 -0.09424
 H529 H 0.78990 0.97780 -0.09421
 H530 H 0.84667 1.01361 -0.05379
 C531 C 1.16722 0.91605 -0.00174
 C532 C 1.19805 0.93443 0.02633
 C533 C 1.24131 0.91950 0.02549
 C534 C 1.25311 0.88551 -0.00262
 C535 C 1.22218 0.86721 -0.03071
 C536 C 1.17926 0.88301 -0.03071
 C537 C 1.14921 0.86511 -0.05986
 C538 C 1.16075 0.83134 -0.08710
 C539 C 1.20255 0.81543 -0.08672
 C540 C 1.23313 0.83321 -0.05912
 C541 C 1.27188 0.93921 0.05294
 C542 C 1.26000 0.97265 0.08053
 C543 C 1.21757 0.98697 0.08166
 C544 C 1.18680 0.96812 0.05503
 C545 C 1.29649 0.86821 -0.00169
 C546 C 1.33185 0.85230 -0.00073
 C547 C 1.12365 0.93250 -0.00182
 C548 C 1.08840 0.94834 -0.00180
 H549 H 1.11651 0.87688 -0.06175
 H550 H 1.13712 0.81731 -0.10848
 H551 H 1.21139 0.78925 -0.10803
 H552 H 1.26533 0.81997 -0.06028
 H553 H 1.30527 0.92915 0.05320
 H554 H 1.28385 0.98748 0.10119
 H555 H 1.20845 1.01290 0.10317
 H556 H 1.15429 0.98056 0.05691
 C557 C 0.83500 0.91555 -0.00412
 C558 C 0.82576 0.87792 -0.02820
 C559 C 0.78250 0.86182 -0.03004
 C560 C 0.74880 0.88378 -0.00808
 C561 C 0.75797 0.92228 0.01481
 C562 C 0.80134 0.93783 0.01739
 C563 C 0.80997 0.97580 0.04139
 C564 C 0.77650 0.99847 0.06114
 C565 C 0.73395 0.98367 0.05795
 C566 C 0.72462 0.94587 0.03534
 C567 C 0.77401 0.82392 -0.05411
 C568 C 0.80729 0.80277 -0.07596
 C569 C 0.84959 0.81868 -0.07430
 C570 C 0.85895 0.85577 -0.05065
 C571 C 0.70518 0.86563 -0.00737
 C572 C 0.66949 0.84926 -0.00607
 C573 C 0.87874 0.93265 -0.00295
 C574 C 0.91431 0.94881 -0.00224
 H575 H 0.84252 0.98867 0.04472
 H576 H 0.78363 1.02778 0.07881
 H577 H 0.70803 1.00149 0.07320
 H578 H 0.69104 0.93555 0.03384
 H579 H 0.74160 0.81042 -0.05654
 H580 H 0.80019 0.77392 -0.09435
 H581 H 0.87528 0.80219 -0.09143
 H582 H 0.89238 0.86684 -0.05019
 C583 C 0.66181 0.50268 0.40979
 C584 C 0.68515 0.54206 0.40332
 C585 C 0.72789 0.54154 0.38565
 C586 C 0.74693 0.50158 0.37470
 C587 C 0.72225 0.46255 0.37818
 C588 C 0.67930 0.46323 0.39533
 C589 C 0.65463 0.42419 0.39728
 C590 C 0.67203 0.38544 0.38286
 C591 C 0.71436 0.38457 0.36687
 C592 C 0.73937 0.42258 0.36455
 C593 C 0.75050 0.58139 0.37898
 C594 C 0.73095 0.62065 0.38841
 C595 C 0.68890 0.62112 0.40512
 C596 C 0.66640 0.58232 0.41338
 C597 C 0.79124 0.50093 0.35833
 C598 C 0.82763 0.50079 0.34362
 C599 C 0.62054 0.50251 0.43262
 C600 C 0.58659 0.50201 0.45221
 H601 H 0.62158 0.42327 0.40959
 H602 H 0.65271 0.35586 0.38455
 H603 H 0.72787 0.35430 0.35610
 H604 H 0.77202 0.42037 0.35157
 H605 H 0.78318 0.58267 0.36578
 H606 H 0.74847 0.65086 0.38260
 H607 H 0.67375 0.65171 0.41213
 H608 H 0.63383 0.58431 0.42663
 C609 C 0.33609 0.49367 0.41212
 C610 C 0.31309 0.53255 0.40659
 C611 C 0.27050 0.53120 0.38992
 C612 C 0.25094 0.49090 0.37935
 C613 C 0.27400 0.45202 0.38488
 C614 C 0.31684 0.45345 0.40097
 C615 C 0.33944 0.41422 0.40566
 C616 C 0.32004 0.37466 0.39529
 C617 C 0.27804 0.37322 0.37999
 C618 C 0.25517 0.41137 0.37465
 C619 C 0.24840 0.57059 0.38415
 C620 C 0.26790 0.61017 0.39427
 C621 C 0.30953 0.61148 0.41049
 C622 C 0.33187 0.57320 0.41706
 C623 C 0.20765 0.48975 0.36159
 C624 C 0.17216 0.49001 0.34591
 C625 C 0.37867 0.49495 0.43114
 C626 C 0.41317 0.49629 0.44861
 H627 H 0.37219 0.41366 0.41751
 H628 H 0.33749 0.34491 0.39956
 H629 H 0.26310 0.34236 0.37221
 H630 H 0.22259 0.40863 0.36256
 H631 H 0.21594 0.57128 0.37163
 H632 H 0.25062 0.64000 0.38942
 H633 H 0.32462 0.64235 0.41793
 H634 H 0.36421 0.57592 0.42972
 C635 C 0.65754 0.50288 0.59659
 C636 C 0.67797 0.54258 0.60734
 C637 C 0.72134 0.54293 0.62183
 C638 C 0.74364 0.50343 0.62621
 C639 C 0.72249 0.46356 0.61708
 C640 C 0.67917 0.46328 0.60245
 C641 C 0.65838 0.42306 0.59411
 C642 C 0.67991 0.38419 0.59994
 C643 C 0.72247 0.38445 0.61370
 C644 C 0.74368 0.42357 0.62224
 C645 C 0.74140 0.58312 0.63167
 C646 C 0.71902 0.62178 0.62782
 C647 C 0.67635 0.62132 0.61431
 C648 C 0.65592 0.58227 0.60400
 C649 C 0.78749 0.50357 0.64221
 C650 C 0.82326 0.50326 0.65712
 C651 C 0.61565 0.50295 0.57653
 C652 C 0.58184 0.50268 0.55798
 H653 H 0.62525 0.42121 0.58340
 H654 H 0.66356 0.35370 0.59361
 H655 H 0.73911 0.35415 0.61792
 H656 H 0.77675 0.42210 0.63302
 H657 H 0.77449 0.58509 0.64248
 H658 H 0.73484 0.65224 0.63548
 H659 H 0.65906 0.65142 0.61148
 H660 H 0.62270 0.58352 0.59356
 C661 C 0.33510 0.50021 0.59822
 C662 C 0.31813 0.54036 0.61136
 C663 C 0.27489 0.54230 0.62762
 C664 C 0.24934 0.50389 0.63130
 C665 C 0.26794 0.46323 0.62223
 C666 C 0.31116 0.46142 0.60598
 C667 C 0.32967 0.42052 0.59829
 C668 C 0.30610 0.38238 0.60664
 C669 C 0.26347 0.38410 0.62162
 C670 C 0.24439 0.42399 0.62926
 C671 C 0.25832 0.58287 0.64005
 C672 C 0.28411 0.62033 0.63741
 C673 C 0.32663 0.61827 0.62218
 C674 C 0.34357 0.57887 0.60895
 C675 C 0.20439 0.50584 0.64551
 C676 C 0.16720 0.50605 0.65798
 C677 C 0.37600 0.49902 0.57472
 C678 C 0.40953 0.49837 0.55440
 H679 H 0.36271 0.41762 0.58652
 H680 H 0.32088 0.35132 0.60105
 H681 H 0.24516 0.35437 0.62756
 H682 H 0.21128 0.42366 0.64132
 H683 H 0.22550 0.58599 0.65233
 H684 H 0.27101 0.65112 0.64716
 H685 H 0.34628 0.64752 0.61981
 H686 H 0.37679 0.57886 0.59716
 C687 C 0.50182 0.58106 0.33392
 C688 C 0.54151 0.58957 0.31156
 C689 C 0.54138 0.60554 0.26829
 C690 C 0.50160 0.61278 0.24763
 C691 C 0.46196 0.60278 0.26945
 C692 C 0.46205 0.58676 0.31270
 C693 C 0.42198 0.57652 0.33365
 C694 C 0.38300 0.58187 0.31236
 C695 C 0.38294 0.59785 0.27023
 C696 C 0.42185 0.60833 0.24888
 C697 C 0.58141 0.61384 0.24655
 C698 C 0.62047 0.60629 0.26685
 C699 C 0.62062 0.59053 0.30906
 C700 C 0.58169 0.58227 0.33140
 C701 C 0.50142 0.63197 0.20458
 C702 C 0.50118 0.64926 0.16947
 C703 C 0.50182 0.56501 0.37815
 C704 C 0.50131 0.55000 0.41423
 H705 H 0.42037 0.56402 0.36645
 H706 H 0.35264 0.57347 0.32848
 H707 H 0.35256 0.60201 0.25392
 H708 H 0.42014 0.62041 0.21600
 H709 H 0.58295 0.62590 0.21358
 H710 H 0.65081 0.61253 0.24965
 H711 H 0.65112 0.58429 0.32429
 H712 H 0.58341 0.56970 0.36408
 C713 C 0.49001 0.58688 0.66687
 C714 C 0.51103 0.56492 0.70073
 C715 C 0.50728 0.58023 0.74378
 C716 C 0.48393 0.61839 0.75243
 C717 C 0.46349 0.64072 0.71836
 C718 C 0.46646 0.62483 0.67543
 C719 C 0.44600 0.64773 0.64184
 C720 C 0.42343 0.68550 0.65043
 C721 C 0.42037 0.70099 0.69242
 C722 C 0.44006 0.67898 0.72614
 C723 C 0.52737 0.55691 0.77732
 C724 C 0.55104 0.51986 0.76845
 C725 C 0.55565 0.50552 0.72616
 C726 C 0.53602 0.52770 0.69255
 C727 C 0.48347 0.63631 0.79569
 C728 C 0.48458 0.65240 0.83105
 C729 C 0.49148 0.56929 0.62369
 C730 C 0.49290 0.55259 0.58876
 H731 H 0.44740 0.63686 0.60866
 H732 H 0.40801 0.70272 0.62441
 H733 H 0.40261 0.73024 0.69893
 H734 H 0.43670 0.69225 0.75827
 H735 H 0.52489 0.56695 0.81070
 H736 H 0.56605 0.50231 0.79450
 H737 H 0.57422 0.47684 0.71937
 H738 H 0.54045 0.51518 0.66022
 C739 C 0.50824 0.40950 0.34091
 C740 C 0.47949 0.37523 0.33046
 C741 C 0.47997 0.35815 0.28797
 C742 C 0.50892 0.37585 0.25614
 C743 C 0.53873 0.40917 0.26710
 C744 C 0.53853 0.42590 0.30975
 C745 C 0.56900 0.45876 0.32027
 C746 C 0.59904 0.47438 0.28955
 C747 C 0.59892 0.45838 0.24768
 C748 C 0.56911 0.42621 0.23635
 C749 C 0.45128 0.32342 0.27841
 C750 C 0.42331 0.30583 0.31008
 C751 C 0.42287 0.32261 0.35164
 C752 C 0.45017 0.35729 0.36175
 C753 C 0.50836 0.35915 0.21245
 C754 C 0.50732 0.34389 0.17674
 C755 C 0.50573 0.42901 0.38316
 C756 C 0.50342 0.44672 0.41749
 H757 H 0.57028 0.47236 0.35237
 H758 H 0.62262 0.49891 0.29832
 H759 H 0.62220 0.47081 0.22388
 H760 H 0.57038 0.41461 0.20344
 H761 H 0.45042 0.30922 0.24656
 H762 H 0.40191 0.27898 0.30234
 H763 H 0.40140 0.30857 0.37620
 H764 H 0.44839 0.36954 0.39438
 C765 C 0.49841 0.41568 0.67008
 C766 C 0.47343 0.43446 0.70360
 C767 C 0.47727 0.41922 0.74684
 C768 C 0.50512 0.38444 0.75605
 C769 C 0.53027 0.36586 0.72244
 C770 C 0.52721 0.38186 0.67938
 C771 C 0.55323 0.36341 0.64643
 C772 C 0.58086 0.32946 0.65558
 C773 C 0.58360 0.31352 0.69761
 C774 C 0.55877 0.33147 0.73081
 C775 C 0.45309 0.43948 0.78005
 C776 C 0.42586 0.47379 0.77077
 C777 C 0.42170 0.48833 0.72839
 C778 C 0.44495 0.46886 0.69502
 C779 C 0.50643 0.36647 0.79960
 C780 C 0.50652 0.35026 0.83525
 C781 C 0.49616 0.43286 0.62650
 C782 C 0.49523 0.44893 0.59100
 H783 H 0.55245 0.37497 0.61333
 H784 H 0.60019 0.31542 0.62992
 H785 H 0.60518 0.28718 0.70457
 H786 H 0.56225 0.31816 0.76304
 H787 H 0.45525 0.42929 0.81351
 H788 H 0.40784 0.48912 0.79661
 H789 H 0.40049 0.51496 0.72131
 H790 H 0.44076 0.48146 0.66260
 C791 C 0.58601 0.66548 0.51898
 C792 C 0.55949 0.70064 0.53047
 C793 C 0.57716 0.74346 0.53037
 C794 C 0.62173 0.75050 0.52079
 C795 C 0.64918 0.71462 0.51465
 C796 C 0.63119 0.67195 0.51381
 C797 C 0.65914 0.63651 0.50860
 C798 C 0.70382 0.64296 0.50489
 C799 C 0.72142 0.68471 0.50495
 C800 C 0.69454 0.72029 0.50953
 C801 C 0.54961 0.77832 0.54021
 C802 C 0.50613 0.77090 0.55123
 C803 C 0.48925 0.72887 0.55278
 C804 C 0.51545 0.69401 0.54243
 C805 C 0.63948 0.79436 0.51740
 C806 C 0.65524 0.83032 0.51397
 C807 C 0.56654 0.62314 0.51152
 C808 C 0.54914 0.58846 0.50599
 H809 H 0.64686 0.60346 0.50833
 H810 H 0.72482 0.61542 0.50149
 H811 H 0.75610 0.68956 0.50159
 H812 H 0.70975 0.75212 0.50977
 H813 H 0.56149 0.81151 0.54003
 H814 H 0.48549 0.79789 0.55881
 H815 H 0.45551 0.72329 0.56139
 H816 H 0.50087 0.66188 0.54390
 C817 C 0.58876 0.33863 0.51966
 C818 C 0.63251 0.33249 0.50744
 C819 C 0.65022 0.29032 0.50914
 C820 C 0.62394 0.25453 0.52294
 C821 C 0.58092 0.26122 0.53768
 C822 C 0.56352 0.30354 0.53667
 C823 C 0.52076 0.30966 0.55243
 C824 C 0.49555 0.27479 0.56780
 C825 C 0.51227 0.23326 0.56801
 C826 C 0.55450 0.22637 0.55327
 C827 C 0.69414 0.28502 0.49677
 C828 C 0.71993 0.32047 0.48377
 C829 C 0.70266 0.36175 0.48257
 C830 C 0.65934 0.36783 0.49388
 C831 C 0.64094 0.21091 0.52098
 C832 C 0.65573 0.17507 0.51815
 C833 C 0.56911 0.38047 0.51332
 C834 C 0.55132 0.41451 0.50845
 H835 H 0.50627 0.34134 0.55274
 H836 H 0.46277 0.28000 0.57934
 H837 H 0.49248 0.20623 0.57979
 H838 H 0.56623 0.19355 0.55439
 H839 H 0.70910 0.25358 0.49743
 H840 H 0.75353 0.31589 0.47469
 H841 H 0.72284 0.38920 0.47260
 H842 H 0.64734 0.40057 0.49259
 C843 C 0.40740 0.66048 0.48571
 C844 C 0.36433 0.66748 0.49957
 C845 C 0.34776 0.71009 0.49913
 C846 C 0.37460 0.74528 0.48490
 C847 C 0.41657 0.73764 0.46781
 C848 C 0.43267 0.69484 0.46739
 C849 C 0.47421 0.68754 0.44905
 C850 C 0.49967 0.72187 0.43278
 C851 C 0.48433 0.76394 0.43415
 C852 C 0.44319 0.77192 0.45129
 C853 C 0.30440 0.71637 0.51298
 C854 C 0.27796 0.68136 0.52585
 C855 C 0.29409 0.63959 0.52562
 C856 C 0.33699 0.63261 0.51329
 C857 C 0.35874 0.78909 0.48772
 C858 C 0.34408 0.82487 0.49055
 C859 C 0.42669 0.61869 0.49223
 C860 C 0.44448 0.58480 0.49733
 H861 H 0.48755 0.65537 0.44743
 H862 H 0.53158 0.71580 0.41935
 H863 H 0.50433 0.79053 0.42173
 H864 H 0.43247 0.80512 0.45136
 H865 H 0.29031 0.74823 0.51340
 H866 H 0.24474 0.68666 0.53592
 H867 H 0.27340 0.61246 0.53545
 H868 H 0.34818 0.59956 0.51366
 C869 C 0.41176 0.33426 0.48487
 C870 C 0.43890 0.30080 0.47005
 C871 C 0.42212 0.25787 0.46681
 C872 C 0.37792 0.24915 0.47677
 C873 C 0.34989 0.28357 0.48715
 C874 C 0.36696 0.32629 0.49139
 C875 C 0.33848 0.36029 0.50152
 C876 C 0.29412 0.35241 0.50657
 C877 C 0.27740 0.31055 0.50283
 C878 C 0.30484 0.27634 0.49347
 C879 C 0.45019 0.22457 0.45354
 C880 C 0.49341 0.23368 0.44270
 C881 C 0.50951 0.27593 0.44462
 C882 C 0.48271 0.30923 0.45818
 C883 C 0.36140 0.20488 0.47770
 C884 C 0.34667 0.16851 0.48005
 C885 C 0.43022 0.37658 0.49376
 C886 C 0.44701 0.41133 0.49992
 H887 H 0.35003 0.39340 0.50462
 H888 H 0.27267 0.37891 0.51364
 H889 H 0.24295 0.30455 0.50709
 H890 H 0.29029 0.24439 0.49057
 H891 H 0.43892 0.19131 0.45096
 H892 H 0.51445 0.20786 0.43247
 H893 H 0.54303 0.28292 0.43594
 H894 H 0.49669 0.34158 0.45924
   
