data_POSCAR
  _audit_creation_date              2014-09-24
  _audit_creation_method            'ToBaCCo'
  _symmetry_space_group_name_H-M    'P1'
  _symmetry_Int_Tables_number       1
  _symmetry_cell_setting            triclinic
  loop_
  _symmetry_equiv_pos_as_xyz
 x,y,z
_cell_length_a 23.9117
_cell_length_b 24.1482
_cell_length_c 54.8794
_cell_angle_alpha 90.401100
_cell_angle_beta 86.365400
_cell_angle_gamma 127.569000
loop_
  _atom_site_label
  _atom_site_type_symbol
  _atom_site_fract_x
  _atom_site_fract_y
  _atom_site_fract_z
C1 C -0.08467 -0.05755 0.52717
 C2 C 0.98987 -0.02099 0.14627
 C3 C 0.08552 1.05578 0.82737
 O4 O 0.52672 0.09487 0.01096
 O5 O 0.64926 0.10738 -0.03742
 O6 O 0.53936 0.10720 -0.03648
 O7 O 0.64394 0.10884 0.00993
 O8 O 0.57910 -0.00615 0.00971
 O9 O 0.47231 -0.00791 -0.03658
 O10 O 0.58170 -0.00776 -0.03758
 O11 O 0.46127 -0.02015 0.01081
 Cu12 Cu 0.59632 0.11599 -0.01329
 Cu13 Cu 0.51697 -0.02191 -0.01340
 C14 C 0.47261 0.03483 0.01903
 C15 C 0.63658 0.05149 -0.04555
 C16 C 0.48745 0.04972 -0.04427
 C17 C 0.63033 0.05209 0.01758
 O18 O 0.06768 0.59040 0.69713
 O19 O 0.04324 0.46519 0.65141
 O20 O 0.05216 0.57853 0.65051
 O21 O 0.07659 0.48802 0.69646
 O22 O -0.03798 0.41781 0.70704
 O23 O -0.06245 0.51188 0.66097
 O24 O -0.07150 0.39726 0.66158
 O25 O -0.04706 0.51954 0.70743
 Cu26 Cu 0.07113 0.53723 0.67282
 Cu27 Cu -0.06618 0.45448 0.68510
 C28 C 0.01388 0.57595 0.71011
 C29 C -0.01874 0.40920 0.64892
 C30 C -0.00846 0.56233 0.64813
 C31 C 0.02435 0.43771 0.70961
 O32 O 0.41400 0.39376 0.31179
 O33 O 0.52375 0.51189 0.36060
 O34 O 0.40467 0.38456 0.35970
 O35 O 0.54291 0.50737 0.31365
 O36 O 0.49470 0.56072 0.31021
 O37 O 0.35411 0.43593 0.35773
 O38 O 0.47378 0.56359 0.35768
 O39 O 0.36588 0.44767 0.31032
 Cu40 Cu 0.47577 0.44408 0.33679
 Cu41 Cu 0.41771 0.50738 0.33393
 C42 C 0.37159 0.40179 0.30252
 C43 C 0.51763 0.55887 0.36719
 C44 C 0.35542 0.38804 0.36659
 C45 C 0.54259 0.55425 0.30369
 C46 C -0.16113 -0.02020 0.54517
 C47 C -0.16568 0.02635 0.55893
 C48 C -0.10915 0.07773 0.57229
 C49 C -0.05073 0.07775 0.57343
 C50 C -0.04597 0.03194 0.55976
 C51 C -0.09917 -0.01547 0.54427
 C52 C -0.11164 0.13054 0.58514
 C53 C -0.05242 0.19572 0.58784
 C54 C -0.04806 0.25066 0.60208
 C55 C 0.01804 0.31698 0.60211
 C56 C 0.02729 0.36914 0.61678
 C57 C -0.02957 0.35628 0.63177
 C58 C -0.09637 0.29073 0.63119
 C59 C -0.10558 0.23835 0.61660
 H60 H -0.20576 -0.05851 0.53509
 H61 H -0.21259 0.02354 0.55858
 H62 H -0.00792 0.11385 0.58465
 H63 H 0.00153 0.03583 0.56030
 H64 H -0.16292 0.11549 0.59168
 H65 H -0.00296 0.21012 0.57922
 H66 H 0.06336 0.32810 0.59114
 H67 H 0.07935 0.41907 0.61672
 H68 H -0.14131 0.27910 0.64257
 H69 H -0.15732 0.18819 0.61740
 C70 C 0.85472 0.89308 0.15927
 C71 C 0.79735 0.83623 0.17325
 C72 C 0.80462 0.79185 0.18626
 C73 C 0.86843 0.80086 0.18301
 C74 C 0.92576 0.85714 0.16859
 C75 C 0.92190 0.90729 0.15732
 C76 C 0.74616 0.74021 0.20412
 C77 C 0.75750 0.72278 0.22534
 C78 C 0.70107 0.67999 0.24507
 C79 C 0.70882 0.64138 0.26150
 C80 C 0.65773 0.60150 0.28068
 C81 C 0.59807 0.60009 0.28410
 C82 C 0.59105 0.64021 0.26806
 C83 C 0.64211 0.67987 0.24870
 H84 H 0.84511 0.92642 0.15095
 H85 H 0.74806 0.82942 0.17504
 H86 H 0.87498 0.76580 0.19216
 H87 H 0.97513 0.86431 0.16798
 H88 H 0.69327 0.72152 0.20066
 H89 H 0.81041 0.74153 0.22882
 H90 H 0.75425 0.64150 0.25933
 H91 H 0.66500 0.57156 0.29285
 H92 H 0.54575 0.64026 0.27029
 H93 H 0.63581 0.71118 0.23692
 C94 C 0.21315 0.13255 -0.16117
 C95 C 0.26554 0.14132 -0.14757
 C96 C 0.24829 0.09113 -0.12961
 C97 C 0.17709 0.03354 -0.12463
 C98 C 0.12493 0.02447 -0.13814
 C99 C 0.14113 0.07386 -0.15664
 C100 C 0.30511 0.09979 -0.11630
 C101 C 0.29950 0.04486 -0.10727
 C102 C 0.35230 0.04952 -0.09263
 C103 C 0.34255 -0.01258 -0.08684
 C104 C 0.38732 -0.01244 -0.07163
 C105 C 0.44315 0.05003 -0.06185
 C106 C 0.45410 0.11255 -0.06806
 C107 C 0.40909 0.11238 -0.08317
 H108 H 0.23013 0.17051 -0.17584
 H109 H 0.32018 0.18628 -0.15172
 H110 H 0.16117 -0.00518 -0.11036
 H111 H 0.07117 -0.02255 -0.13440
 H112 H 0.35299 0.15239 -0.11486
 H113 H 0.25347 -0.00735 -0.11088
 H114 H 0.29922 -0.06183 -0.09377
 H115 H 0.37741 -0.06149 -0.06721
 H116 H 0.49645 0.16156 -0.06070
 H117 H 0.41826 0.16137 -0.08671
 C118 C -0.12285 0.85873 0.56349
 C119 C -0.11590 0.81805 0.57890
 C120 C -0.05585 0.82058 0.57635
 C121 C -0.00034 0.86851 0.55908
 C122 C -0.00684 0.91021 0.54373
 C123 C -0.06988 0.90353 0.54485
 C124 C -0.05359 0.77264 0.59219
 C125 C -0.01741 0.74834 0.58572
 C126 C -0.01856 0.69747 0.60117
 C127 C 0.04002 0.69728 0.59912
 C128 C 0.04227 0.65196 0.61391
 C129 C -0.01467 0.60486 0.63086
 C130 C -0.07480 0.60271 0.63219
 C131 C -0.07678 0.64860 0.61751
 H132 H -0.17138 0.85326 0.56544
 H133 H -0.15879 0.78273 0.59240
 H134 H 0.04842 0.87448 0.55752
 H135 H 0.03769 0.94706 0.53112
 H136 H -0.08589 0.75432 0.60930
 H137 H 0.01528 0.76685 0.56868
 H138 H 0.08503 0.73358 0.58644
 H139 H 0.08922 0.65458 0.61230
 H140 H -0.11956 0.56682 0.64500
 H141 H -0.12404 0.64534 0.61896
 C142 C 0.03214 0.00477 0.19034
 C143 C 0.07475 0.05004 0.20810
 C144 C 0.11599 0.12233 0.20421
 C145 C 0.11193 0.14868 0.18220
 C146 C 0.06865 0.10316 0.16437
 C147 C 0.02781 0.02952 0.16774
 C148 C 0.16484 0.16703 0.22308
 C149 C 0.19779 0.23577 0.22433
 C150 C 0.24399 0.27752 0.24411
 C151 C 0.24900 0.33598 0.25136
 C152 C 0.29033 0.37582 0.27033
 C153 C 0.32859 0.35874 0.28233
 C154 C 0.32529 0.30129 0.27466
 C155 C 0.28333 0.26095 0.25572
 H156 H 0.00497 -0.04946 0.19480
 H157 H 0.07684 0.02805 0.22485
 H158 H 0.14420 0.20425 0.17803
 H159 H 0.07116 0.12660 0.14721
 H160 H 0.17172 0.14100 0.23722
 H161 H 0.18706 0.26181 0.21167
 H162 H 0.21988 0.35026 0.24257
 H163 H 0.29231 0.42029 0.27555
 H164 H 0.35485 0.28741 0.28335
 H165 H 0.28254 0.21749 0.25003
 C166 C 0.95311 0.00129 -0.16921
 C167 C 0.89435 -0.00752 -0.15741
 C168 C 0.89825 0.01782 -0.13404
 C169 C 0.96047 0.04844 -0.12209
 C170 C 1.01883 0.05682 -0.13372
 C171 C 1.01671 0.03316 -0.15758
 C172 C 0.83762 0.01282 -0.12241
 C173 C 0.84715 0.06280 -0.10805
 C174 C 0.78920 0.05896 -0.09447
 C175 C 0.80364 0.12077 -0.08547
 C176 C 0.75313 0.11888 -0.07037
 C177 C 0.68718 0.05487 -0.06373
 C178 C 0.67192 -0.00684 -0.07329
 C179 C 0.72233 -0.00492 -0.08846
 H180 H 0.94981 -0.01457 -0.18789
 H181 H 0.84681 -0.03135 -0.16698
 H182 H 0.96475 0.06732 -0.10383
 H183 H 1.06676 0.08534 -0.12421
 H184 H 0.78493 -0.03117 -0.12662
 H185 H 0.90050 0.10971 -0.10616
 H186 H 0.85487 0.17064 -0.08971
 H187 H 0.76663 0.16730 -0.06327
 H188 H 0.62165 -0.05709 -0.06846
 H189 H 0.70958 -0.05389 -0.09451
 C190 C 0.02687 -0.08998 0.12265
 C191 C 0.07721 -0.09224 0.10918
 C192 C 0.14691 -0.03149 0.10443
 C193 C 0.16440 0.03199 0.11274
 C194 C 0.11455 0.03420 0.12622
 C195 C 0.04508 -0.02692 0.13246
 C196 C 0.19832 -0.03466 0.08909
 C197 C 0.26876 0.01471 0.08893
 C198 C 0.32063 0.01734 0.07167
 C199 C 0.38610 0.08251 0.06572
 C200 C 0.43581 0.08825 0.04882
 C201 C 0.42148 0.02864 0.03776
 C202 C 0.35679 -0.03698 0.04427
 C203 C 0.30683 -0.04264 0.06104
 H204 H -0.02698 -0.13743 0.12433
 H205 H 0.06122 -0.14152 0.10203
 H206 H 0.21580 0.08106 0.10809
 H207 H 0.13116 0.08523 0.13093
 H208 H 0.17684 -0.07812 0.07715
 H209 H 0.29012 0.05767 0.10108
 H210 H 0.39828 0.12947 0.07380
 H211 H 0.48523 0.13948 0.04430
 H212 H 0.34429 -0.08403 0.03619
 H213 H 0.25795 -0.09403 0.06572
 C214 C 0.82540 0.81756 0.51129
 C215 C 0.77724 0.77234 0.49471
 C216 C 0.75557 0.79591 0.47715
 C217 C 0.78155 0.86627 0.47718
 C218 C 0.82965 0.91187 0.49407
 C219 C 0.85279 0.88870 0.51163
 C220 C 0.70878 0.74513 0.45889
 C221 C 0.68945 0.76037 0.43919
 C222 C 0.64569 0.70743 0.42107
 C223 C 0.60022 0.71308 0.40843
 C224 C 0.55840 0.66443 0.39117
 C225 C 0.56183 0.60939 0.38583
 C226 C 0.60833 0.60433 0.39816
 C227 C 0.64988 0.65283 0.41562
 H228 H 0.84297 0.79588 0.52290
 H229 H 0.75899 0.71877 0.49502
 H230 H 0.76652 0.88721 0.46402
 H231 H 0.85089 0.96630 0.49291
 H232 H 0.69021 0.69187 0.46174
 H233 H 0.70390 0.81195 0.43631
 H234 H 0.59655 0.75495 0.41210
 H235 H 0.52357 0.67032 0.38188
 H236 H 0.61283 0.56312 0.39426
 H237 H 0.68618 0.64822 0.42441
 C238 C 0.08827 0.10642 0.78668
 C239 C 0.09456 0.15866 0.77307
 C240 C 0.11131 0.21879 0.78410
 C241 C 0.12576 0.22819 0.80876
 C242 C 0.12238 0.17718 0.82228
 C243 C 0.10313 0.11448 0.81167
 C244 C 0.11066 0.26933 0.76956
 C245 C 0.07328 0.29145 0.77726
 C246 C 0.06249 0.33204 0.76085
 C247 C -0.00317 0.31958 0.76204
 C248 C -0.01608 0.35377 0.74544
 C249 C 0.03712 0.40207 0.72771
 C250 C 0.10364 0.41623 0.72719
 C251 C 0.11616 0.38157 0.74353
 H252 H 0.06824 0.05855 0.77751
 H253 H 0.08219 0.15017 0.75410
 H254 H 0.13889 0.27460 0.81760
 H255 H 0.13203 0.18542 0.84146
 H256 H 0.13312 0.28063 0.75083
 H257 H 0.04389 0.27308 0.79498
 H258 H -0.04516 0.28186 0.77536
 H259 H -0.06764 0.34221 0.74642
 H260 H 0.14598 0.45350 0.71388
 H261 H 0.16789 0.39353 0.74257
 C262 C 0.95445 -0.01727 0.10330
 C263 C 0.91906 -0.00531 0.08755
 C264 C 0.89229 0.03032 0.09516
 C265 C 0.90528 0.05738 0.11866
 C266 C 0.94137 0.04594 0.13445
 C267 C 0.96592 0.00719 0.12733
 C268 C 0.84542 0.03112 0.07890
 C269 C 0.82086 0.06803 0.08242
 C270 C 0.77005 0.06219 0.06637
 C271 C 0.77222 0.12066 0.06213
 C272 C 0.72612 0.11709 0.04655
 C273 C 0.67595 0.05444 0.03526
 C274 C 0.67198 -0.00486 0.04025
 C275 C 0.71853 -0.00108 0.05564
 H276 H 0.96934 -0.04914 0.09673
 H277 H 0.90962 -0.02714 0.06960
 H278 H 0.88412 0.08360 0.12565
 H279 H 0.94389 0.06193 0.15306
 H280 H 0.82986 -0.00130 0.06315
 H281 H 0.83993 0.10545 0.09666
 H282 H 0.81071 0.16965 0.07046
 H283 H 0.73018 0.16361 0.04322
 H284 H 0.63368 -0.05395 0.03195
 H285 H 0.71372 -0.04789 0.05922
 C286 C 0.00217 -0.03237 0.49058
 C287 C 0.05258 0.01106 0.47144
 C288 C 0.07923 0.08118 0.46879
 C289 C 0.05647 0.10758 0.48618
 C290 C 0.00607 0.06452 0.50503
 C291 C -0.02188 -0.00656 0.50808
 C292 C 0.13141 0.12627 0.44815
 C293 C 0.13879 0.18226 0.43907
 C294 C 0.19377 0.23257 0.41988
 C295 C 0.18814 0.28163 0.40918
 C296 C 0.24040 0.33237 0.39191
 C297 C 0.29961 0.33518 0.38497
 C298 C 0.30523 0.28609 0.39566
 C299 C 0.25329 0.23568 0.41296
 H300 H -0.01934 -0.08690 0.49147
 H301 H 0.06945 -0.01067 0.45831
 H302 H 0.07712 0.16181 0.48531
 H303 H -0.01186 0.08806 0.51653
 H304 H 0.16278 0.11147 0.44010
 H305 H 0.10217 0.19206 0.44586
 H306 H 0.14320 0.28093 0.41431
 H307 H 0.23441 0.36928 0.38399
 H308 H 0.35035 0.28689 0.39083
 H309 H 0.26119 0.20054 0.42111
 C310 C 0.13282 1.01367 0.79534
 C311 C 0.12971 0.96255 0.78216
 C312 C 0.07166 0.89203 0.78587
 C313 C 0.01626 0.87361 0.80318
 C314 C 0.01921 0.92507 0.81641
 C315 C 0.07665 0.99657 0.81219
 C316 C 0.07105 0.84053 0.77078
 C317 C 0.03100 0.77187 0.77643
 C318 C 0.03002 0.72192 0.76027
 C319 C -0.03222 0.65305 0.76033
 C320 C -0.03684 0.60540 0.74435
 C321 C 0.02117 0.62537 0.72817
 C322 C 0.08463 0.69346 0.72886
 C323 C 0.08911 0.74133 0.74477
 H324 H 0.17939 1.06749 0.79223
 H325 H 0.17343 0.97828 0.76911
 H326 H -0.02981 0.81981 0.80653
 H327 H -0.02306 0.90809 0.83023
 H328 H 0.10567 0.86084 0.75417
 H329 H -0.00467 0.75047 0.79275
 H330 H -0.07811 0.63657 0.77230
 H331 H -0.08634 0.55308 0.74445
 H332 H 0.13040 0.71016 0.71679
 H333 H 0.13889 0.79327 0.74489
   
