data_POSCAR
  _audit_creation_date              2014-09-24
  _audit_creation_method            'ToBaCCo'
  _symmetry_space_group_name_H-M    'P1'
  _symmetry_Int_Tables_number       1
  _symmetry_cell_setting            triclinic
  loop_
  _symmetry_equiv_pos_as_xyz
 x,y,z
_cell_length_a 42.9947
_cell_length_b 44.0916
_cell_length_c 17.9635
_cell_angle_alpha 90.020800
_cell_angle_beta 89.573000
_cell_angle_gamma 119.014400
loop_
  _atom_site_label
  _atom_site_type_symbol
  _atom_site_fract_x
  _atom_site_fract_y
  _atom_site_fract_z
C1 C 0.12542 0.41848 0.49689
 C2 C 0.14414 0.42273 0.43046
 C3 C 0.17615 0.42148 0.43108
 C4 C 0.18896 0.41443 0.49793
 C5 C 0.16890 0.40938 0.56393
 C6 C 0.13807 0.41253 0.56362
 C7 C 0.22363 0.41381 0.49962
 C8 C 0.24349 0.42052 0.56624
 C9 C 0.27621 0.42071 0.56675
 C10 C 0.29018 0.41570 0.50053
 C11 C 0.27160 0.41004 0.43408
 C12 C 0.23814 0.40798 0.43380
 H13 H 0.10156 0.42111 0.49713
 H14 H 0.19121 0.42705 0.37970
 H15 H 0.17730 0.40372 0.61626
 H16 H 0.23452 0.42670 0.61751
 H17 H 0.31632 0.41763 0.50015
 H18 H 0.22420 0.40262 0.38152
 C19 C 0.56111 -0.30153 0.52183
 C20 C 0.56214 -0.28621 0.45323
 C21 C 0.56280 -0.25407 0.45100
 C22 C 0.56011 -0.23799 0.51748
 C23 C 0.55813 -0.25464 0.58593
 C24 C 0.55941 -0.28571 0.58796
 C25 C 0.55742 -0.20522 0.51555
 C26 C 0.56519 -0.18357 0.57902
 C27 C 0.56030 -0.15434 0.57762
 C28 C 0.54952 -0.14531 0.51216
 C29 C 0.54253 -0.16576 0.44880
 C30 C 0.54564 -0.19584 0.45070
 H31 H 0.56052 -0.32644 0.52371
 H32 H 0.56491 -0.24224 0.39718
 H33 H 0.55441 -0.24441 0.63793
 H34 H 0.57479 -0.18912 0.62985
 H35 H 0.54614 -0.12247 0.51075
 H36 H 0.53818 -0.21185 0.40148
 C37 C 1.30563 0.85731 0.48456
 C38 C 1.28579 0.84911 0.41938
 C39 C 1.25165 0.82006 0.41786
 C40 C 1.23783 0.79789 0.48091
 C41 C 1.25905 0.80645 0.54539
 C42 C 1.29226 0.83628 0.54737
 C43 C 1.20241 0.76534 0.47885
 C44 C 1.18356 0.74905 0.54528
 C45 C 1.15216 0.71701 0.54292
 C46 C 1.13810 0.70202 0.47424
 C47 C 1.15572 0.71806 0.40824
 C48 C 1.18793 0.74904 0.41034
 H49 H 1.33190 0.87997 0.48628
 H50 H 1.23638 0.81496 0.36739
 H51 H 1.25049 0.78995 0.59415
 H52 H 1.19322 0.76065 0.59911
 H53 H 1.11391 0.67715 0.47204
 H54 H 1.20192 0.75940 0.35834
 C55 C 0.87710 0.58918 0.49641
 C56 C 0.85938 0.58653 0.43013
 C57 C 0.82727 0.58746 0.43123
 C58 C 0.81311 0.59262 0.49875
 C59 C 0.83235 0.59621 0.56498
 C60 C 0.86331 0.59325 0.56384
 C61 C 0.77771 0.59208 0.50067
 C62 C 0.75824 0.58633 0.56823
 C63 C 0.72473 0.58443 0.56931
 C64 C 0.70943 0.58668 0.50286
 C65 C 0.72748 0.59132 0.43545
 C66 C 0.76178 0.59525 0.43439
 H67 H 0.90089 0.58649 0.49590
 H68 H 0.81328 0.58285 0.37928
 H69 H 0.82335 0.60038 0.61828
 H70 H 0.76799 0.58205 0.62018
 H71 H 0.68268 0.58334 0.50311
 H72 H 0.77508 0.59987 0.38109
 C73 C 0.43652 0.29890 0.51039
 C74 C 0.43212 0.28032 0.44482
 C75 C 0.42787 0.24670 0.44785
 C76 C 0.42985 0.23203 0.51673
 C77 C 0.43563 0.25205 0.58195
 C78 C 0.43805 0.28479 0.57887
 C79 C 0.42753 0.19692 0.52091
 C80 C 0.41880 0.17814 0.58887
 C81 C 0.42056 0.14738 0.59504
 C82 C 0.42835 0.13348 0.53257
 C83 C 0.43593 0.15081 0.46453
 C84 C 0.43619 0.18264 0.45865
 H85 H 0.43973 0.32487 0.50780
 H86 H 0.42344 0.23255 0.39635
 H87 H 0.43929 0.24300 0.63538
 H88 H 0.41153 0.18753 0.63799
 H89 H 0.43010 0.10979 0.53755
 H90 H 0.44439 0.19644 0.40624
 C91 C 0.70732 0.13609 0.47791
 C92 C 0.72896 0.14976 0.41528
 C93 C 0.76134 0.18045 0.42065
 C94 C 0.77136 0.19943 0.48805
 C95 C 0.74850 0.18536 0.55065
 C96 C 0.71702 0.15356 0.54551
 C97 C 0.80403 0.23451 0.49115
 C98 C 0.82071 0.24948 0.55954
 C99 C 0.85007 0.28307 0.56133
 C100 C 0.86411 0.30126 0.49493
 C101 C 0.84838 0.28683 0.42710
 C102 C 0.81815 0.25420 0.42522
 H103 H 0.68199 0.11247 0.47324
 H104 H 0.77783 0.18958 0.37122
 H105 H 0.75410 0.19929 0.60268
 H106 H 0.81102 0.23551 0.61149
 H107 H 0.88686 0.32719 0.49606
 H108 H 0.80548 0.24503 0.37202
 O109 O 0.95807 0.49904 -0.15548
 O110 O 1.04423 0.54093 0.12385
 O111 O 0.93483 0.49620 0.06990
 O112 O 1.06802 0.55426 -0.10261
 O113 O 0.98531 0.53438 0.11074
 O114 O 1.01832 0.54622 -0.14524
 O115 O 1.06368 0.56761 0.02271
 O116 O 0.94079 0.51171 -0.05680
 C117 C 0.94535 0.51571 -0.12459
 C118 C 1.05928 0.56895 0.09019
 C119 C 0.95301 0.52390 0.10462
 C120 C 1.05082 0.56535 -0.13924
 O121 O 1.04118 0.49993 -0.15671
 O122 O 0.95894 0.46622 0.13052
 O123 O 0.93220 0.44650 -0.09325
 O124 O 1.06770 0.50913 0.06718
 O125 O 1.01769 0.47251 0.11493
 O126 O 0.98126 0.45312 -0.13788
 O127 O 1.06021 0.49025 -0.05745
 O128 O 0.93855 0.43677 0.03343
 Co129 Co 0.99977 0.49974 -0.13592
 Co130 Co 1.00144 0.50332 0.10678
 Co131 Co 0.94269 0.47554 -0.01207
 Co132 Co 1.05878 0.52755 -0.01736
 O133 O 1.00067 0.50154 -0.01462
 C134 C 1.05441 0.48421 -0.12429
 C135 C 0.94337 0.43729 0.10107
 C136 C 0.94890 0.43423 -0.12822
 C137 C 1.04992 0.48272 0.10682
 O138 O 0.50697 0.46409 -0.13222
 O139 O 0.45760 0.49773 0.15358
 O140 O 0.51344 0.44417 0.09206
 O141 O 0.44108 0.50733 -0.07067
 O142 O 0.47090 0.45088 0.13586
 O143 O 0.45454 0.47058 -0.11753
 O144 O 0.42934 0.48827 0.05398
 O145 O 0.49780 0.43457 -0.03467
 C146 C 0.49363 0.43514 -0.10236
 C147 C 0.42885 0.48210 0.12091
 C148 C 0.48445 0.43195 0.12692
 C149 C 0.43253 0.48087 -0.10975
 O150 O 0.49634 0.53900 -0.12718
 O151 O 0.53974 0.49666 0.15359
 O152 O 0.56082 0.49393 -0.07149
 O153 O 0.48512 0.55214 0.09897
 O154 O 0.52662 0.54394 0.14227
 O155 O 0.54853 0.53221 -0.11319
 O156 O 0.50322 0.56561 -0.02638
 O157 O 0.56997 0.50936 0.05518
 Co158 Co 0.50148 0.50127 -0.10929
 Co159 Co 0.49885 0.49749 0.13343
 Co160 Co 0.53215 0.47328 0.01056
 Co161 Co 0.46805 0.52556 0.01390
 O162 O 0.50013 0.49940 0.01212
 C163 C 0.50908 0.56700 -0.09385
 C164 C 0.56916 0.51334 0.12287
 C165 C 0.57031 0.52163 -0.10671
 C166 C 0.51322 0.56313 0.13581
 O167 O 0.52715 0.03659 -0.14905
 O168 O 0.52331 -0.03604 0.09268
 O169 O 0.56473 0.07057 0.07576
 O170 O 0.51049 -0.05197 -0.04230
 O171 O 0.56127 0.02212 0.10462
 O172 O 0.50925 -0.02514 -0.14064
 O173 O 0.47210 -0.07539 0.07398
 O174 O 0.56531 0.06627 -0.06280
 C175 C 0.55860 0.05772 -0.12939
 C176 C 0.50061 -0.06636 0.10558
 C177 C 0.57879 0.05402 0.10188
 C178 C 0.51920 -0.04415 -0.10858
 O179 O 0.44311 -0.03860 -0.09407
 O180 O 0.50824 0.03423 0.15632
 O181 O 0.50635 0.06994 -0.06830
 O182 O 0.43532 -0.04732 0.03984
 O183 O 0.46599 -0.02790 0.14163
 O184 O 0.46144 0.02121 -0.09599
 O185 O 0.44357 -0.08484 -0.05690
 O186 O 0.50308 0.06719 0.07136
 Co187 Co 0.48686 -0.00103 -0.10971
 Co188 Co 0.51360 -0.00163 0.11484
 Co189 Co 0.53190 0.06241 0.00373
 Co190 Co 0.47386 -0.04743 -0.00341
 O191 O 0.50372 0.00530 0.00441
 C192 C 0.43277 -0.07041 -0.10540
 C193 C 0.49983 0.05707 0.13748
 C194 C 0.47547 0.05317 -0.09305
 C195 C 0.43622 -0.04206 0.10870
 C196 C 1.10194 0.44503 0.25415
 C197 C 1.12210 0.47257 0.20540
 C198 C 1.10517 0.48369 0.15449
 C199 C 1.13164 0.42994 0.36685
 C200 C 1.04779 0.43891 0.19892
 C201 C 1.06476 0.42781 0.24963
 C202 C 1.11887 0.43657 0.31368
 C203 C 1.06778 0.46758 0.15209
 H204 H 1.15086 0.48625 0.20854
 H205 H 1.12134 0.50584 0.11926
 H206 H 1.01902 0.42583 0.19823
 H207 H 1.04881 0.40656 0.28721
 C208 C 0.54786 0.65207 0.27796
 C209 C 0.51846 0.64220 0.23162
 C210 C 0.50818 0.61431 0.18252
 C211 C 0.55924 0.69547 0.38975
 C212 C 0.55755 0.60682 0.22369
 C213 C 0.56778 0.63470 0.27271
 C214 C 0.55493 0.67686 0.33689
 C215 C 0.52705 0.59567 0.17950
 H216 H 0.50261 0.65518 0.23550
 H217 H 0.48462 0.60645 0.14922
 H218 H 0.57280 0.59323 0.22236
 H219 H 0.59042 0.64185 0.30857
 C220 C 0.34494 -0.09142 0.25102
 C221 C 0.34266 -0.10220 0.17692
 C222 C 0.37150 -0.08428 0.12803
 C223 C 0.30170 -0.13153 0.35728
 C224 C 0.40420 -0.04388 0.22634
 C225 C 0.37532 -0.06155 0.27471
 C226 C 0.31951 -0.11349 0.30626
 C227 C 0.40308 -0.05580 0.15332
 H228 H 0.31950 -0.12550 0.15813
 H229 H 0.37003 -0.09418 0.07222
 H230 H 0.42812 -0.02198 0.24725
 H231 H 0.37757 -0.05310 0.33203
 C232 C 0.90225 0.56466 0.24811
 C233 C 0.88170 0.53562 0.20406
 C234 C 0.89819 0.52356 0.15381
 C235 C 0.87317 0.57991 0.36229
 C236 C 0.95582 0.57057 0.18881
 C237 C 0.93927 0.58259 0.23903
 C238 C 0.88594 0.57353 0.30850
 C239 C 0.93552 0.54024 0.14749
 H240 H 0.85305 0.52141 0.21086
 H241 H 0.88180 0.50018 0.12266
 H242 H 0.98452 0.58421 0.18453
 H243 H 0.95548 0.60504 0.27299
 C244 C 0.44720 0.34020 0.26107
 C245 C 0.47865 0.35213 0.21933
 C246 C 0.48977 0.38083 0.17198
 C247 C 0.43505 0.29778 0.37508
 C248 C 0.43711 0.38473 0.20503
 C249 C 0.42603 0.35604 0.25230
 C250 C 0.43961 0.31564 0.32076
 C251 C 0.46973 0.39819 0.16637
 H252 H 0.49548 0.34036 0.22616
 H253 H 0.51497 0.39049 0.14284
 H254 H 0.42086 0.39720 0.20112
 H255 H 0.40179 0.34728 0.28468
 C256 C 0.67452 0.10584 0.22715
 C257 C 0.65775 0.06980 0.21906
 C258 C 0.62784 0.05299 0.17392
 C259 C 0.71447 0.13480 0.34426
 C260 C 0.63274 0.10849 0.14108
 C261 C 0.66268 0.12524 0.18620
 C262 C 0.69825 0.12183 0.28826
 C263 C 0.61417 0.07209 0.13697
 H264 H 0.66634 0.05449 0.25137
 H265 H 0.61420 0.02493 0.17162
 H266 H 0.62294 0.12388 0.11303
 H267 H 0.67514 0.15311 0.19295
 C268 C 0.43088 0.10470 -0.21862
 C269 C 0.46189 0.12418 -0.17767
 C270 C 0.47522 0.10752 -0.13214
 C271 C 0.42023 0.13338 -0.33729
 C272 C 0.42511 0.05193 -0.16435
 C273 C 0.41188 0.06866 -0.20990
 C274 C 0.42329 0.12056 -0.28057
 C275 C 0.45775 0.07112 -0.12764
 H276 H 0.47710 0.15206 -0.18487
 H277 H 0.50030 0.12298 -0.10428
 H278 H 0.41096 0.02386 -0.16176
 H279 H 0.38816 0.05328 -0.24220
 C280 C 0.66148 0.56230 -0.25123
 C281 C 0.65272 0.53282 -0.20793
 C282 C 0.62431 0.52075 -0.15727
 C283 C 0.70543 0.57783 -0.36632
 C284 C 0.61438 0.56863 -0.19036
 C285 C 0.64281 0.58066 -0.24096
 C286 C 0.68647 0.57128 -0.31209
 C287 C 0.60406 0.53788 -0.14981
 H288 H 0.66683 0.51828 -0.21566
 H289 H 0.61709 0.49703 -0.12677
 H290 H 0.59965 0.58263 -0.18515
 H291 H 0.64926 0.60346 -0.27432
 C292 C 0.89430 0.34227 -0.26010
 C293 C 0.93126 0.35809 -0.25215
 C294 C 0.94892 0.38685 -0.20563
 C295 C 0.86391 0.29983 -0.37324
 C296 C 0.89252 0.38309 -0.17167
 C297 C 0.87490 0.35432 -0.21828
 C298 C 0.87724 0.31768 -0.31923
 C299 C 0.92987 0.40042 -0.16691
 H300 H 0.94665 0.34925 -0.28463
 H301 H 0.97759 0.39929 -0.20234
 H302 H 0.87707 0.39283 -0.14245
 H303 H 0.84634 0.34258 -0.22450
 C304 C 0.56012 -0.09516 -0.24856
 C305 C 0.56388 -0.06297 -0.26956
 C306 C 0.55303 -0.04495 -0.22135
 C307 C 0.56350 -0.13439 -0.35636
 C308 C 0.53706 -0.08994 -0.12815
 C309 C 0.54767 -0.10814 -0.17689
 C310 C 0.56344 -0.11679 -0.30488
 C311 C 0.53829 -0.05887 -0.15122
 H312 H 0.57317 -0.05277 -0.32501
 H313 H 0.55437 -0.02106 -0.24057
 H314 H 0.52556 -0.10139 -0.07468
 H315 H 0.54425 -0.13319 -0.16024
 C316 C 0.34261 0.44324 -0.25539
 C317 C 0.34969 0.47043 -0.20617
 C318 C 0.37788 0.48154 -0.15593
 C319 C 0.29724 0.42822 -0.36653
 C320 C 0.39123 0.43745 -0.20199
 C321 C 0.36303 0.42636 -0.25206
 C322 C 0.31693 0.43480 -0.31408
 C323 C 0.39957 0.46576 -0.15464
 H324 H 0.33425 0.48385 -0.20838
 H325 H 0.38357 0.50340 -0.12024
 H326 H 0.40726 0.42464 -0.20219
 H327 H 0.35796 0.40539 -0.29003
 C328 C 1.10471 0.65463 -0.28188
 C329 C 1.06752 0.63718 -0.27661
 C330 C 1.04997 0.60917 -0.22747
 C331 C 1.13667 0.69843 -0.39368
 C332 C 1.10678 0.61669 -0.18623
 C333 C 1.12428 0.64472 -0.23544
 C334 C 1.12238 0.67962 -0.34084
 C335 C 1.06937 0.59798 -0.18316
 H336 H 1.05200 0.64437 -0.31254
 H337 H 1.02121 0.59552 -0.22612
 H338 H 1.12252 0.60881 -0.15283
 H339 H 1.15305 0.65777 -0.23933
 C340 C 0.90821 0.57030 -0.26319
 C341 C 0.93401 0.56219 -0.28901
 C342 C 0.94658 0.54532 -0.24273
 C343 C 0.87845 0.58889 -0.36852
 C344 C 0.90915 0.54619 -0.14208
 C345 C 0.89607 0.56276 -0.18926
 C346 C 0.89167 0.58199 -0.31688
 C347 C 0.93385 0.53653 -0.16931
 H348 H 0.94337 0.56760 -0.34620
 H349 H 0.96575 0.53842 -0.26516
 H350 H 0.89892 0.53966 -0.08570
 H351 H 0.87576 0.56856 -0.16899
 C352 C 0.45568 0.34860 -0.24980
 C353 C 0.46536 0.34506 -0.17720
 C354 C 0.47604 0.37257 -0.12662
 C355 C 0.44341 0.30398 -0.35835
 C356 C 0.46641 0.40637 -0.22105
 C357 C 0.45548 0.37898 -0.27077
 C358 C 0.44859 0.32292 -0.30607
 C359 C 0.47755 0.40380 -0.14910
 H360 H 0.46570 0.32162 -0.16056
 H361 H 0.48466 0.37007 -0.07156
 H362 H 0.46716 0.43006 -0.23980
 H363 H 0.44807 0.38201 -0.32671
 C364 C 0.64252 0.10807 -0.29057
 C365 C 0.60863 0.08291 -0.31346
 C366 C 0.58125 0.06610 -0.26112
 C367 C 0.69261 0.13929 -0.39284
 C368 C 0.62185 0.09939 -0.16276
 C369 C 0.64912 0.11614 -0.21514
 C370 C 0.67035 0.12558 -0.34487
 C371 C 0.58754 0.07434 -0.18520
 H372 H 0.60332 0.07642 -0.37185
 H373 H 0.55520 0.04690 -0.28007
 H374 H 0.62761 0.10631 -0.10468
 H375 H 0.67525 0.13549 -0.19684
 C376 C 1.09132 0.42903 -0.26163
 C377 C 1.10623 0.44005 -0.19097
 C378 C 1.09295 0.45635 -0.14320
 C379 C 1.12267 0.41457 -0.37156
 C380 C 1.04963 0.44973 -0.23649
 C381 C 1.06236 0.43299 -0.28311
 C382 C 1.10870 0.41944 -0.31804
 C383 C 1.06533 0.46237 -0.16698
 H384 H 1.12907 0.43757 -0.17434
 H385 H 1.10552 0.46600 -0.08994
 H386 H 1.02825 0.45391 -0.25612
 H387 H 1.05091 0.42497 -0.33793
 C388 C 0.54823 0.65570 -0.23497
 C389 C 0.55236 0.62725 -0.25477
 C390 C 0.54129 0.59930 -0.20637
 C391 C 0.55661 0.69771 -0.34650
 C392 C 0.52437 0.62913 -0.11464
 C393 C 0.53499 0.65712 -0.16419
 C394 C 0.55338 0.68038 -0.29229
 C395 C 0.52634 0.59952 -0.13677
 H396 H 0.56234 0.62578 -0.30950
 H397 H 0.54293 0.57675 -0.22490
 H398 H 0.51263 0.62969 -0.06145
 H399 H 0.53140 0.67898 -0.14871
 C400 C 0.35479 -0.12623 -0.27066
 C401 C 0.37043 -0.14284 -0.23182
 C402 C 0.39541 -0.12499 -0.17637
 C403 C 0.31295 -0.15371 -0.38592
 C404 C 0.38861 -0.07425 -0.19851
 C405 C 0.36367 -0.09209 -0.25336
 C406 C 0.33148 -0.14266 -0.33200
 C407 C 0.40499 -0.09039 -0.16007
 H408 H 0.36387 -0.16922 -0.24534
 H409 H 0.40781 -0.13789 -0.14758
 H410 H 0.39540 -0.04764 -0.18690
 H411 H 0.35184 -0.07897 -0.28345
 C412 C 0.51997 -0.12728 0.26387
 C413 C 0.48569 -0.13971 0.23542
 C414 C 0.47944 -0.12068 0.18087
 C415 C 0.53288 -0.15499 0.38147
 C416 C 0.54194 -0.07746 0.18208
 C417 C 0.54814 -0.09653 0.23606
 C418 C 0.52615 -0.14370 0.32663
 C419 C 0.50742 -0.08898 0.15517
 H420 H 0.46368 -0.16337 0.25712
 H421 H 0.45260 -0.12996 0.16113
 H422 H 0.56396 -0.05311 0.16316
 H423 H 0.57470 -0.08660 0.25811
 C424 C 0.33627 0.42646 0.25682
 C425 C 0.33270 0.43749 0.18570
 C426 C 0.36249 0.45398 0.13850
 C427 C 0.28986 0.41179 0.36564
 C428 C 0.39879 0.44757 0.23327
 C429 C 0.36912 0.43064 0.27935
 C430 C 0.30898 0.41672 0.31257
 C431 C 0.39601 0.46019 0.16328
 H432 H 0.30744 0.43486 0.16826
 H433 H 0.35978 0.46360 0.08483
 H434 H 0.42424 0.45188 0.25366
 H435 H 0.37230 0.42262 0.33453
 C436 C 1.10812 0.65802 0.22915
 C437 C 1.07613 0.62921 0.25032
 C438 C 1.05952 0.60109 0.20277
 C439 C 1.14148 0.70066 0.33910
 C440 C 1.10530 0.63137 0.10924
 C441 C 1.12242 0.65955 0.15792
 C442 C 1.12746 0.68306 0.28551
 C443 C 1.07434 0.60147 0.13265
 H444 H 1.06497 0.62767 0.30541
 H445 H 1.03578 0.57835 0.22228
 H446 H 1.11731 0.63207 0.05560
 H447 H 1.14740 0.68168 0.14137
 C448 C 0.46499 0.10570 0.30005
 C449 C 0.47217 0.07920 0.32170
 C450 C 0.48316 0.06296 0.26887
 C451 C 0.44597 0.13642 0.40302
 C452 C 0.47935 0.09950 0.17250
 C453 C 0.46843 0.11568 0.22535
 C454 C 0.45453 0.12284 0.35488
 C455 C 0.48709 0.07312 0.19372
 H456 H 0.46952 0.07126 0.37951
 H457 H 0.48880 0.04271 0.28688
 H458 H 0.48205 0.10793 0.11505
 H459 H 0.46290 0.13611 0.20802
 C460 C 0.66006 0.56796 0.26206
 C461 C 0.62607 0.55969 0.28745
 C462 C 0.59690 0.54280 0.24098
 C463 C 0.70805 0.58679 0.36773
 C464 C 0.63563 0.54394 0.14096
 C465 C 0.66500 0.56053 0.18835
 C466 C 0.68807 0.57976 0.31598
 C467 C 0.60119 0.53414 0.16777
 H468 H 0.62186 0.56502 0.34447
 H469 H 0.57077 0.53580 0.26309
 H470 H 0.63960 0.53751 0.08476
 H471 H 0.69119 0.56647 0.16840
 C472 C 0.89513 0.35093 0.25021
 C473 C 0.88165 0.34747 0.17795
 C474 C 0.89838 0.37488 0.12673
 C475 C 0.86284 0.30670 0.35999
 C476 C 0.94226 0.40841 0.21983
 C477 C 0.92589 0.38111 0.27018
 C478 C 0.87660 0.32547 0.30721
 C479 C 0.92828 0.40595 0.14825
 H480 H 0.85772 0.32419 0.16210
 H481 H 0.88705 0.37247 0.07197
 H482 H 0.96532 0.43198 0.23784
 H483 H 0.93654 0.38409 0.32585
   
