data_POSCAR
  _audit_creation_date              2014-09-24
  _audit_creation_method            'ToBaCCo'
  _symmetry_space_group_name_H-M    'P1'
  _symmetry_Int_Tables_number       1
  _symmetry_cell_setting            triclinic
  loop_
  _symmetry_equiv_pos_as_xyz
 x,y,z
_cell_length_a 67.4274
_cell_length_b 67.1372
_cell_length_c 67.2574
_cell_angle_alpha 89.950500
_cell_angle_beta 89.995100
_cell_angle_gamma 90.060100
loop_
  _atom_site_label
  _atom_site_type_symbol
  _atom_site_fract_x
  _atom_site_fract_y
  _atom_site_fract_z
N1 N 0.60147 0.65689 0.61761
 N2 N 0.59271 0.64774 0.63251
 C3 C 0.57632 0.65798 0.63765
 C4 C 0.57485 0.67453 0.62543
 C5 C 0.59109 0.67335 0.61291
 H6 H 0.56641 0.65399 0.64965
 H7 H 0.59492 0.68356 0.60108
 Cu8 Cu 0.60432 0.62390 0.64416
 Cu9 Cu 0.62542 0.64660 0.60505
 Cu10 Cu 0.64603 0.60399 0.62573
 N11 N 0.61594 0.60007 0.65581
 N12 N 0.63266 0.59282 0.64891
 C13 C 0.63810 0.57709 0.66002
 C14 C 0.62394 0.57408 0.67473
 C15 C 0.61003 0.58901 0.67146
 H16 H 0.65130 0.56840 0.65731
 H17 H 0.59684 0.59198 0.68007
 N18 N 0.65725 0.61747 0.60221
 N19 N 0.64953 0.63379 0.59447
 C20 C 0.66037 0.63924 0.57855
 C21 C 0.67559 0.62564 0.57604
 C22 C 0.67312 0.61205 0.59133
 H23 H 0.65717 0.65191 0.56916
 H24 H 0.68227 0.59920 0.59434
 H25 H 0.62138 0.61709 0.61300
 H26 H 0.63648 0.63283 0.63014
 N27 N 0.89809 0.34180 0.11803
 N28 N 0.90716 0.35117 0.13255
 C29 C 0.92358 0.34095 0.13760
 C30 C 0.92486 0.32409 0.12568
 C31 C 0.90827 0.32520 0.11348
 H32 H 0.93361 0.34534 0.14932
 H33 H 0.90409 0.31504 0.10176
 Cu34 Cu 0.89644 0.37557 0.14388
 Cu35 Cu 0.87439 0.35237 0.10534
 Cu36 Cu 0.85443 0.39541 0.12532
 N37 N 0.88411 0.39894 0.15571
 N38 N 0.86763 0.40649 0.14851
 C39 C 0.86222 0.42224 0.15961
 C40 C 0.87607 0.42478 0.17460
 C41 C 0.88976 0.40970 0.17163
 H42 H 0.84925 0.43126 0.15684
 H43 H 0.90270 0.40660 0.18060
 N44 N 0.84318 0.38199 0.10187
 N45 N 0.85058 0.36539 0.09447
 C46 C 0.83964 0.35986 0.07866
 C47 C 0.82466 0.37368 0.07589
 C48 C 0.82740 0.38750 0.09090
 H49 H 0.84258 0.34693 0.06957
 H50 H 0.81845 0.40054 0.09372
 H51 H 0.87899 0.38191 0.11275
 H52 H 0.86402 0.36664 0.13052
 N53 N 0.39778 0.15743 -0.11747
 N54 N 0.40655 0.14833 -0.13236
 C55 C 0.42289 0.15865 -0.13754
 C56 C 0.42436 0.17517 -0.12533
 C57 C 0.40813 0.17393 -0.11280
 H58 H 0.43286 0.15463 -0.14946
 H59 H 0.40436 0.18405 -0.10089
 Cu60 Cu 0.39563 0.12403 -0.14375
 Cu61 Cu 0.37410 0.14682 -0.10474
 Cu62 Cu 0.35387 0.10391 -0.12490
 N63 N 0.38338 0.10057 -0.15550
 N64 N 0.36699 0.09291 -0.14818
 C65 C 0.36161 0.07708 -0.15920
 C66 C 0.37540 0.07461 -0.17425
 C67 C 0.38902 0.08981 -0.17141
 H68 H 0.34872 0.06794 -0.15633
 H69 H 0.40190 0.09298 -0.18045
 N70 N 0.34274 0.11728 -0.10137
 N71 N 0.35026 0.13379 -0.09388
 C72 C 0.33935 0.13933 -0.07805
 C73 C 0.32425 0.12560 -0.07538
 C74 C 0.32689 0.11182 -0.09045
 H75 H 0.34236 0.15221 -0.06892
 H76 H 0.31781 0.09887 -0.09336
 H77 H 0.37852 0.11734 -0.11250
 H78 H 0.36334 0.13276 -0.12993
 N79 N 0.10195 0.84159 0.38212
 N80 N 0.09240 0.85145 0.36824
 C81 C 0.07582 0.84136 0.36339
 C82 C 0.07496 0.82406 0.37471
 C83 C 0.09195 0.82476 0.38638
 H84 H 0.06541 0.84613 0.35215
 H85 H 0.09645 0.81421 0.39765
 Cu86 Cu 0.10269 0.87622 0.35723
 Cu87 Cu 0.12571 0.85209 0.39474
 Cu88 Cu 0.14530 0.89553 0.37520
 N89 N 0.11531 0.89939 0.34521
 N90 N 0.13198 0.90674 0.35216
 C91 C 0.13751 0.92236 0.34090
 C92 C 0.12354 0.92502 0.32604
 C93 C 0.10965 0.91014 0.32927
 H94 H 0.15066 0.93122 0.34346
 H95 H 0.09658 0.90714 0.32047
 N96 N 0.15671 0.88195 0.39847
 N97 N 0.14953 0.86513 0.40563
 C98 C 0.16051 0.85955 0.42141
 C99 C 0.17528 0.87358 0.42439
 C100 C 0.17238 0.88756 0.40953
 H101 H 0.15768 0.84648 0.43036
 H102 H 0.18112 0.90081 0.40691
 H103 H 0.12091 0.88176 0.38808
 H104 H 0.13537 0.86691 0.36955
 N105 N 0.10139 0.15774 0.11778
 N106 N 0.09259 0.14856 0.13263
 C107 C 0.07614 0.15874 0.13769
 C108 C 0.07472 0.17529 0.12549
 C109 C 0.09102 0.17420 0.11307
 H110 H 0.06612 0.15468 0.14958
 H111 H 0.09483 0.18442 0.10124
 Cu112 Cu 0.10409 0.12467 0.14426
 Cu113 Cu 0.12520 0.14729 0.10509
 Cu114 Cu 0.14522 0.10413 0.12517
 N115 N 0.11559 0.10071 0.15576
 N116 N 0.13186 0.09295 0.14833
 C117 C 0.13709 0.07699 0.15924
 C118 C 0.12335 0.07454 0.17434
 C119 C 0.10987 0.08988 0.17163
 H120 H 0.14992 0.06781 0.15631
 H121 H 0.09711 0.09313 0.18080
 N122 N 0.15654 0.11771 0.10178
 N123 N 0.14912 0.13430 0.09433
 C124 C 0.16010 0.13988 0.07855
 C125 C 0.17512 0.12610 0.07585
 C126 C 0.17237 0.11226 0.09087
 H127 H 0.15715 0.15279 0.06942
 H128 H 0.18134 0.09923 0.09371
 H129 H 0.12067 0.11783 0.11284
 H130 H 0.13626 0.13309 0.12996
 N131 N 0.39813 0.84219 0.61763
 N132 N 0.40676 0.85118 0.63268
 C133 C 0.42315 0.84093 0.63782
 C134 C 0.42476 0.82456 0.62543
 C135 C 0.40859 0.82583 0.61282
 H136 H 0.43301 0.84484 0.64988
 H137 H 0.40491 0.81579 0.60081
 Cu138 Cu 0.39520 0.87498 0.64440
 Cu139 Cu 0.37435 0.85270 0.60492
 Cu140 Cu 0.35417 0.89567 0.62515
 N141 N 0.38368 0.89892 0.65587
 N142 N 0.36744 0.90673 0.64839
 C143 C 0.36222 0.92269 0.65928
 C144 C 0.37594 0.92509 0.67441
 C145 C 0.38938 0.90972 0.67175
 H146 H 0.34944 0.93192 0.65630
 H147 H 0.40212 0.90644 0.68093
 N148 N 0.34294 0.88222 0.60167
 N149 N 0.35043 0.86570 0.59416
 C150 C 0.33948 0.86018 0.57835
 C151 C 0.32441 0.87392 0.57569
 C152 C 0.32710 0.88768 0.59077
 H153 H 0.34248 0.84732 0.56919
 H154 H 0.31806 0.90064 0.59367
 H155 H 0.37880 0.88210 0.61292
 H156 H 0.36312 0.86668 0.62985
 N157 N 0.89811 0.65750 0.38246
 N158 N 0.90690 0.64838 0.36761
 C159 C 0.92321 0.65875 0.36239
 C160 C 0.92464 0.67530 0.37455
 C161 C 0.90841 0.67405 0.38709
 H162 H 0.93319 0.65472 0.35047
 H163 H 0.90462 0.68419 0.39897
 Cu164 Cu 0.89603 0.62406 0.35623
 Cu165 Cu 0.87444 0.64686 0.39522
 Cu166 Cu 0.85434 0.60388 0.37509
 N167 N 0.88386 0.60054 0.34451
 N168 N 0.86748 0.59286 0.35183
 C169 C 0.86212 0.57703 0.34081
 C170 C 0.87591 0.57456 0.32576
 C171 C 0.88951 0.58977 0.32860
 H172 H 0.84923 0.56787 0.34369
 H173 H 0.90238 0.59295 0.31956
 N174 N 0.84314 0.61723 0.39861
 N175 N 0.85062 0.63377 0.40610
 C176 C 0.83967 0.63927 0.42192
 C177 C 0.82461 0.62549 0.42459
 C178 C 0.82731 0.61172 0.40953
 H179 H 0.84264 0.65216 0.43105
 H180 H 0.81828 0.59874 0.40662
 H181 H 0.87896 0.61742 0.38751
 H182 H 0.86376 0.63279 0.37006
 N183 N 0.60157 0.34264 -0.11716
 N184 N 0.59272 0.35191 -0.13191
 C185 C 0.57630 0.34169 -0.13705
 C186 C 0.57490 0.32504 -0.12497
 C187 C 0.59122 0.32613 -0.11254
 H188 H 0.56631 0.34578 -0.14894
 H189 H 0.59511 0.31582 -0.10081
 Cu190 Cu 0.60427 0.37589 -0.14334
 Cu191 Cu 0.62559 0.35292 -0.10464
 Cu192 Cu 0.64588 0.39598 -0.12489
 N193 N 0.61585 0.39969 -0.15509
 N194 N 0.63236 0.40725 -0.14793
 C195 C 0.63770 0.42307 -0.15902
 C196 C 0.62378 0.42562 -0.17394
 C197 C 0.61010 0.41050 -0.17094
 H198 H 0.65073 0.43207 -0.15634
 H199 H 0.59718 0.40736 -0.17993
 N200 N 0.65726 0.38228 -0.10158
 N201 N 0.64972 0.36575 -0.09407
 C202 C 0.66072 0.36012 -0.07833
 C203 C 0.67587 0.37380 -0.07571
 C204 C 0.67319 0.38763 -0.09074
 H205 H 0.65768 0.34726 -0.06915
 H206 H 0.68224 0.40061 -0.09362
 H207 H 0.62143 0.38250 -0.11218
 H208 H 0.63654 0.36714 -0.12960
 C209 C -0.03037 0.27967 0.12590
 C210 C -0.02795 0.29725 0.13689
 C211 C -0.04279 0.31177 0.13705
 C212 C -0.06028 0.30930 0.12581
 C213 C -0.06248 0.29166 0.11463
 C214 C -0.04782 0.27696 0.11488
 C215 C -0.01478 0.26422 0.12593
 N216 N -0.01948 0.24477 0.12297
 N217 N -0.00545 0.23082 0.12308
 C218 C 0.01387 0.23579 0.12593
 N219 N 0.01859 0.25525 0.12879
 N220 N 0.00452 0.26918 0.12889
 C221 C 0.02945 0.22033 0.12589
 C222 C 0.04894 0.22507 0.12020
 C223 C 0.06360 0.21038 0.11987
 C224 C 0.05916 0.19078 0.12568
 C225 C 0.03975 0.18609 0.13162
 C226 C 0.02497 0.20068 0.13150
 H227 H -0.01465 0.29967 0.14559
 H228 H -0.04021 0.32504 0.14576
 H229 H -0.07564 0.28887 0.10588
 H230 H -0.05003 0.26356 0.10620
 H231 H 0.05277 0.24009 0.11573
 H232 H 0.07849 0.21442 0.11534
 H233 H 0.03591 0.17106 0.13605
 H234 H 0.01009 0.19664 0.13604
 C235 C 0.52977 0.71987 0.62608
 C236 C 0.54893 0.72418 0.61907
 C237 C 0.56353 0.70941 0.61873
 C238 C 0.55937 0.69013 0.62574
 C239 C 0.54029 0.68589 0.63298
 C240 C 0.52558 0.70055 0.63297
 C241 C 0.51422 0.73540 0.62611
 N242 N 0.49471 0.73033 0.62613
 N243 N 0.48070 0.74430 0.62599
 C244 C 0.48562 0.76393 0.62600
 N245 N 0.50513 0.76900 0.62608
 N246 N 0.51914 0.75503 0.62605
 C247 C 0.47005 0.77944 0.62589
 C248 C 0.47417 0.79875 0.63281
 C249 C 0.45940 0.81336 0.63285
 C250 C 0.44033 0.80905 0.62561
 C251 C 0.43626 0.78980 0.61852
 C252 C 0.45092 0.77509 0.61884
 H253 H 0.55258 0.73891 0.61360
 H254 H 0.57814 0.71317 0.61321
 H255 H 0.53662 0.67114 0.63836
 H256 H 0.51097 0.69682 0.63855
 H257 H 0.48875 0.80253 0.63840
 H258 H 0.46300 0.82810 0.63827
 H259 H 0.42166 0.78601 0.61299
 H260 H 0.44733 0.76037 0.61334
 C261 C 1.03014 0.77961 0.37442
 C262 C 1.02711 0.79786 0.36473
 C263 C 1.04197 0.81239 0.36456
 C264 C 1.06008 0.80926 0.37457
 C265 C 1.06290 0.79096 0.38448
 C266 C 1.04821 0.77624 0.38417
 C267 C 1.01450 0.76417 0.37436
 N268 N 1.01927 0.74456 0.37559
 N269 N 1.00518 0.73064 0.37543
 C270 C 0.98573 0.73578 0.37427
 N271 N 0.98096 0.75540 0.37315
 N272 N 0.99507 0.76931 0.37309
 C273 C 0.97008 0.72035 0.37425
 C274 C 0.95093 0.72477 0.38115
 C275 C 0.93620 0.71009 0.38139
 C276 C 0.94024 0.69082 0.37436
 C277 C 0.95933 0.68647 0.36724
 C278 C 0.97417 0.70103 0.36737
 H279 H 1.01330 0.80082 0.35704
 H280 H 1.03891 0.82622 0.35690
 H281 H 1.07657 0.78766 0.39221
 H282 H 1.05091 0.76229 0.39182
 H283 H 0.94739 0.73951 0.38662
 H284 H 0.92159 0.71391 0.38686
 H285 H 0.96292 0.67172 0.36184
 H286 H 0.98878 0.69724 0.36187
 C287 C 0.46985 0.22019 -0.12558
 C288 C 0.45075 0.22454 -0.11846
 C289 C 0.43602 0.20987 -0.11824
 C290 C 0.43999 0.19066 -0.12546
 C291 C 0.45904 0.18635 -0.13274
 C292 C 0.47387 0.20092 -0.13263
 C293 C 0.48547 0.23568 -0.12567
 N294 N 0.50496 0.23058 -0.12600
 N295 N 0.51902 0.24455 -0.12596
 C296 C 0.51416 0.26418 -0.12576
 N297 N 0.49467 0.26927 -0.12551
 N298 N 0.48062 0.25531 -0.12539
 C299 C 0.52975 0.27970 -0.12572
 C300 C 0.52550 0.29912 -0.13223
 C301 C 0.54023 0.31379 -0.13220
 C302 C 0.55940 0.30943 -0.12531
 C303 C 0.56363 0.29005 -0.11870
 C304 C 0.54901 0.27528 -0.11908
 H305 H 0.44724 0.23923 -0.11285
 H306 H 0.42145 0.21367 -0.11265
 H307 H 0.46258 0.17164 -0.13825
 H308 H 0.48843 0.19714 -0.13827
 H309 H 0.51082 0.30295 -0.13751
 H310 H 0.53651 0.32863 -0.13727
 H311 H 0.57832 0.28621 -0.11346
 H312 H 0.55272 0.26046 -0.11392
 C313 C 0.12342 -0.03006 0.28019
 C314 C 0.10596 -0.04046 0.28497
 C315 C 0.10602 -0.05513 0.29974
 C316 C 0.12351 -0.05961 0.31019
 C317 C 0.14097 -0.04920 0.30540
 C318 C 0.14094 -0.03466 0.29052
 C319 C 0.12337 -0.01449 0.26455
 N320 N 0.14066 -0.00718 0.25718
 N321 N 0.14063 0.00679 0.24310
 C322 C 0.12330 0.01411 0.23586
 N323 N 0.10600 0.00684 0.24326
 N324 N 0.10603 -0.00720 0.25728
 C325 C 0.12329 0.02962 0.22017
 C326 C 0.10584 0.04006 0.21550
 C327 C 0.10587 0.05471 0.20071
 C328 C 0.12331 0.05911 0.19012
 C329 C 0.14073 0.04863 0.19476
 C330 C 0.14075 0.03413 0.20967
 H331 H 0.09222 -0.03735 0.27724
 H332 H 0.09228 -0.06276 0.30310
 H333 H 0.15475 -0.05237 0.31300
 H334 H 0.15465 -0.02692 0.28723
 H335 H 0.09214 0.03701 0.22334
 H336 H 0.09216 0.06241 0.19743
 H337 H 0.15447 0.05175 0.18704
 H338 H 0.15444 0.02635 0.21286
 C339 C 0.62369 0.52962 -0.28028
 C340 C 0.64035 0.53229 -0.29251
 C341 C 0.64037 0.54679 -0.30742
 C342 C 0.62383 0.55931 -0.31032
 C343 C 0.60721 0.55665 -0.29785
 C344 C 0.60710 0.54190 -0.28316
 C345 C 0.62366 0.51412 -0.26461
 N346 N 0.60639 0.50771 -0.25640
 N347 N 0.60638 0.49372 -0.24233
 C348 C 0.62366 0.48564 -0.23581
 N349 N 0.64094 0.49208 -0.24399
 N350 N 0.64093 0.50598 -0.25813
 C351 C 0.62369 0.47021 -0.22006
 C352 C 0.64128 0.46545 -0.20991
 C353 C 0.64128 0.45106 -0.19489
 C354 C 0.62374 0.44093 -0.18982
 C355 C 0.60619 0.44556 -0.20008
 C356 C 0.60614 0.46012 -0.21496
 H357 H 0.65337 0.52304 -0.29068
 H358 H 0.65360 0.54825 -0.31637
 H359 H 0.59405 0.56569 -0.29948
 H360 H 0.59404 0.54024 -0.27393
 H361 H 0.65505 0.47298 -0.21345
 H362 H 0.65510 0.44774 -0.18742
 H363 H 0.59240 0.43813 -0.19648
 H364 H 0.59236 0.46336 -0.22256
 C365 C 0.37577 1.02949 0.78021
 C366 C 0.35824 1.03395 0.79061
 C367 C 0.35815 1.04853 0.80542
 C368 C 0.37553 1.05913 0.81005
 C369 C 0.39302 1.05476 0.79958
 C370 C 0.39316 1.04004 0.78489
 C371 C 0.37587 1.01396 0.76457
 N372 N 0.39322 1.00675 0.75728
 N373 N 0.39328 0.99276 0.74324
 C374 C 0.37600 0.98547 0.73584
 N375 N 0.35865 0.99271 0.74311
 N376 N 0.35859 1.00662 0.75721
 C377 C 0.37603 0.97000 0.72014
 C378 C 0.35857 0.96553 0.70963
 C379 C 0.35858 0.95103 0.69474
 C380 C 0.37600 0.94053 0.69014
 C381 C 0.39344 0.94491 0.70072
 C382 C 0.39348 0.95955 0.71549
 H383 H 0.34459 1.02608 0.78740
 H384 H 0.34437 1.05162 0.81306
 H385 H 0.40670 1.06252 0.80285
 H386 H 0.40690 1.03702 0.77712
 H387 H 0.34489 0.97333 0.71281
 H388 H 0.34485 0.94793 0.68703
 H389 H 0.40714 0.93720 0.69747
 H390 H 0.40717 0.96259 0.72334
 C391 C 0.87626 0.46976 0.22030
 C392 C 0.89370 0.45932 0.21560
 C393 C 0.89362 0.44464 0.20086
 C394 C 0.87614 0.44021 0.19036
 C395 C 0.85873 0.45069 0.19503
 C396 C 0.85877 0.46523 0.20988
 C397 C 0.87629 0.48529 0.23594
 N398 N 0.85898 0.49255 0.24326
 N399 N 0.85896 0.50651 0.25732
 C400 C 0.87627 0.51387 0.26460
 N401 N 0.89359 0.50664 0.25726
 N402 N 0.89361 0.49261 0.24326
 C403 C 0.87621 0.52942 0.28022
 C404 C 0.89361 0.53998 0.28485
 C405 C 0.89349 0.55471 0.29954
 C406 C 0.87602 0.55907 0.31006
 C407 C 0.85864 0.54846 0.30546
 C408 C 0.85871 0.53387 0.29066
 H409 H 0.90742 0.46240 0.22338
 H410 H 0.90733 0.43696 0.19757
 H411 H 0.84496 0.44755 0.18738
 H412 H 0.84508 0.47302 0.21310
 H413 H 0.90733 0.53697 0.27705
 H414 H 0.90718 0.56249 0.30277
 H415 H 0.84488 0.55154 0.31313
 H416 H 0.84506 0.52599 0.28750
 C417 C 0.27921 0.12564 -0.02992
 C418 C 0.28382 0.10805 -0.04026
 C419 C 0.29835 0.10806 -0.05508
 C420 C 0.30875 0.12560 -0.05976
 C421 C 0.30421 0.14316 -0.04936
 C422 C 0.28955 0.14320 -0.03468
 C423 C 0.26374 0.12568 -0.01428
 N424 N 0.25658 0.14310 -0.00695
 N425 N 0.24267 0.14315 0.00710
 C426 C 0.23537 0.12579 0.01449
 N427 N 0.24255 0.10837 0.00718
 N428 N 0.25641 0.10832 -0.00693
 C429 C 0.21995 0.12586 0.03018
 C430 C 0.21525 0.10832 0.04058
 C431 C 0.20079 0.10842 0.05547
 C432 C 0.19056 0.12602 0.06017
 C433 C 0.19519 0.14355 0.04971
 C434 C 0.20978 0.14349 0.03495
 H435 H 0.27611 0.09428 -0.03700
 H436 H 0.30158 0.09423 -0.06267
 H437 H 0.31180 0.15697 -0.05269
 H438 H 0.28641 0.15699 -0.02697
 H439 H 0.22283 0.09449 0.03732
 H440 H 0.19749 0.09461 0.06310
 H441 H 0.18772 0.15740 0.05304
 H442 H 0.21300 0.15726 0.02719
 C443 C 0.72023 0.62532 0.53017
 C444 C 0.71563 0.60780 0.54066
 C445 C 0.70122 0.60792 0.55561
 C446 C 0.69094 0.62551 0.56027
 C447 C 0.69544 0.64299 0.54968
 C448 C 0.70999 0.64292 0.53487
 C449 C 0.73566 0.62528 0.51446
 N450 N 0.74289 0.64266 0.50707
 N451 N 0.75682 0.64266 0.49303
 C452 C 0.76405 0.62528 0.48570
 N453 N 0.75678 0.60789 0.49305
 N454 N 0.74291 0.60789 0.50717
 C455 C 0.77954 0.62531 0.47006
 C456 C 0.78421 0.60776 0.45970
 C457 C 0.79876 0.60784 0.44488
 C458 C 0.80910 0.62542 0.44022
 C459 C 0.80449 0.64294 0.45065
 C460 C 0.78982 0.64290 0.46533
 H461 H 0.72326 0.59399 0.53743
 H462 H 0.69800 0.59415 0.56334
 H463 H 0.68792 0.65683 0.55297
 H464 H 0.71312 0.65666 0.52704
 H465 H 0.77655 0.59395 0.46293
 H466 H 0.80203 0.59404 0.43726
 H467 H 0.81204 0.65678 0.44735
 H468 H 0.78664 0.65668 0.47306
 C469 C 0.77973 0.37384 0.03031
 C470 C 0.78444 0.39140 0.04065
 C471 C 0.79894 0.39133 0.05550
 C472 C 0.80921 0.37374 0.06021
 C473 C 0.80459 0.35621 0.04979
 C474 C 0.78996 0.35624 0.03507
 C475 C 0.76428 0.37387 0.01464
 N476 N 0.75703 0.35649 0.00729
 N477 N 0.74315 0.35649 -0.00679
 C478 C 0.73598 0.37388 -0.01419
 N479 N 0.74325 0.39127 -0.00687
 N480 N 0.75707 0.39126 0.00728
 C481 C 0.72060 0.37388 -0.02994
 C482 C 0.71605 0.39143 -0.04037
 C483 C 0.70163 0.39138 -0.05530
 C484 C 0.69131 0.37382 -0.06002
 C485 C 0.69580 0.35628 -0.04953
 C486 C 0.71034 0.35629 -0.03473
 H487 H 0.77682 0.40521 0.03738
 H488 H 0.80224 0.40514 0.06309
 H489 H 0.81209 0.34237 0.05312
 H490 H 0.78675 0.34246 0.02735
 H491 H 0.72370 0.40523 -0.03708
 H492 H 0.69844 0.40519 -0.06295
 H493 H 0.68826 0.34245 -0.05288
 H494 H 0.71345 0.34251 -0.02695
 C495 C 0.22003 0.87396 0.47017
 C496 C 0.20984 0.85632 0.46542
 C497 C 0.19527 0.85623 0.45065
 C498 C 0.19065 0.87373 0.44016
 C499 C 0.20085 0.89137 0.44491
 C500 C 0.21531 0.89150 0.45980
 C501 C 0.23551 0.87402 0.48581
 N502 N 0.24277 0.89142 0.49311
 N503 N 0.25667 0.89145 0.50719
 C504 C 0.26398 0.87407 0.51449
 N505 N 0.25676 0.85667 0.50715
 N506 N 0.24279 0.85665 0.49315
 C507 C 0.27947 0.87406 0.53012
 C508 C 0.28974 0.85648 0.53484
 C509 C 0.30437 0.85646 0.54956
 C510 C 0.30895 0.87397 0.56003
 C511 C 0.29862 0.89154 0.55536
 C512 C 0.28412 0.89161 0.54052
 H513 H 0.21306 0.84256 0.47318
 H514 H 0.18781 0.84235 0.44732
 H515 H 0.19755 0.90517 0.43728
 H516 H 0.22289 0.90535 0.46307
 H517 H 0.28657 0.84271 0.52709
 H518 H 0.31192 0.84263 0.55286
 H519 H 0.30187 0.90534 0.56300
 H520 H 0.27646 0.90541 0.53728
   
