data_POSCAR
  _audit_creation_date              2014-09-24
  _audit_creation_method            'ToBaCCo'
  _symmetry_space_group_name_H-M    'P1'
  _symmetry_Int_Tables_number       1
  _symmetry_cell_setting            triclinic
  loop_
  _symmetry_equiv_pos_as_xyz
 x,y,z
_cell_length_a 70.0347
_cell_length_b 69.5124
_cell_length_c 28.9553
_cell_angle_alpha 89.971400
_cell_angle_beta 89.976800
_cell_angle_gamma 119.795700
loop_
  _atom_site_label
  _atom_site_type_symbol
  _atom_site_fract_x
  _atom_site_fract_y
  _atom_site_fract_z
C1 C 0.18100 0.46287 0.50072
 C2 C 0.18909 0.45980 0.45848
 C3 C 0.20914 0.45970 0.45893
 C4 C 0.22177 0.46417 0.49952
 C5 C 0.21353 0.46818 0.54072
 C6 C 0.19267 0.46659 0.54243
 C7 C 0.24328 0.46422 0.49896
 C8 C 0.25169 0.45986 0.53956
 C9 C 0.27192 0.46026 0.53944
 C10 C 0.28326 0.46364 0.49770
 C11 C 0.27504 0.46731 0.45657
 C12 C 0.25555 0.46839 0.45771
 H13 H 0.16643 0.46448 0.50061
 H14 H 0.21441 0.45518 0.42776
 H15 H 0.22305 0.47176 0.57196
 H16 H 0.24256 0.45577 0.57155
 H17 H 0.29895 0.46409 0.49735
 H18 H 0.25002 0.47226 0.42603
 C19 C 0.52945 -0.28538 0.50487
 C20 C 0.53447 -0.27401 0.46237
 C21 C 0.53899 -0.25185 0.46247
 C22 C 0.53662 -0.24187 0.50285
 C23 C 0.53074 -0.25417 0.54430
 C24 C 0.52765 -0.27577 0.54627
 C25 C 0.53946 -0.21899 0.50150
 C26 C 0.54537 -0.20573 0.54163
 C27 C 0.54658 -0.18496 0.54147
 C28 C 0.54319 -0.17670 0.49998
 C29 C 0.53788 -0.18921 0.45927
 C30 C 0.53559 -0.21044 0.46050
 H31 H 0.52874 -0.30125 0.50624
 H32 H 0.54346 -0.24259 0.43064
 H33 H 0.52744 -0.24736 0.57479
 H34 H 0.54911 -0.21137 0.57338
 H35 H 0.54432 -0.16059 0.49949
 H36 H 0.53005 -0.22040 0.42953
 C37 C 1.29402 0.80726 0.49549
 C38 C 1.28464 0.79679 0.45322
 C39 C 1.26265 0.77928 0.45367
 C40 C 1.24972 0.77327 0.49420
 C41 C 1.25951 0.78487 0.53532
 C42 C 1.28177 0.80124 0.53648
 C43 C 1.22628 0.75465 0.49350
 C44 C 1.21623 0.74213 0.53366
 C45 C 1.19413 0.72472 0.53362
 C46 C 1.18270 0.71915 0.49127
 C47 C 1.19252 0.73084 0.45060
 C48 C 1.21392 0.74898 0.45234
 H49 H 1.31061 0.82117 0.49677
 H50 H 1.25591 0.76962 0.42267
 H51 H 1.25008 0.78116 0.56687
 H52 H 1.22551 0.74633 0.56531
 H53 H 1.16655 0.70460 0.48882
 H54 H 1.22078 0.75854 0.42117
 C55 C 0.81743 0.53195 0.50136
 C56 C 0.81025 0.53660 0.45984
 C57 C 0.79055 0.53726 0.45938
 C58 C 0.77741 0.53234 0.49941
 C59 C 0.78488 0.52735 0.54053
 C60 C 0.80497 0.52747 0.54190
 C61 C 0.75584 0.53198 0.49802
 C62 C 0.74710 0.53631 0.53809
 C63 C 0.72649 0.53538 0.53768
 C64 C 0.71520 0.53098 0.49524
 C65 C 0.72367 0.52690 0.45491
 C66 C 0.74372 0.52707 0.45668
 H67 H 0.83273 0.53161 0.50206
 H68 H 0.78572 0.54187 0.42763
 H69 H 0.77490 0.52273 0.57147
 H70 H 0.75685 0.54137 0.56926
 H71 H 0.69925 0.52983 0.49328
 H72 H 0.74944 0.52279 0.42575
 C73 C 0.45472 0.27881 0.50377
 C74 C 0.45060 0.26699 0.46243
 C75 C 0.44922 0.24620 0.46278
 C76 C 0.45337 0.23766 0.50338
 C77 C 0.45825 0.25032 0.54433
 C78 C 0.45811 0.27058 0.54562
 C79 C 0.45256 0.21563 0.50290
 C80 C 0.44788 0.20275 0.54347
 C81 C 0.44743 0.18220 0.54368
 C82 C 0.45020 0.17399 0.50119
 C83 C 0.45434 0.18618 0.46028
 C84 C 0.45627 0.20721 0.46166
 H85 H 0.45664 0.29524 0.50237
 H86 H 0.44470 0.23678 0.43105
 H87 H 0.46148 0.24402 0.57558
 H88 H 0.44361 0.20819 0.57473
 H89 H 0.45062 0.15867 0.49971
 H90 H 0.46050 0.21677 0.43012
 C91 C 0.70981 0.19472 0.50780
 C92 C 0.72140 0.20038 0.46597
 C93 C 0.74364 0.21698 0.46558
 C94 C 0.75405 0.22902 0.50601
 C95 C 0.74171 0.22333 0.54736
 C96 C 0.71988 0.20587 0.54874
 C97 C 0.77752 0.24757 0.50506
 C98 C 0.79047 0.25393 0.54554
 C99 C 0.81219 0.27201 0.54595
 C100 C 0.82139 0.28256 0.50357
 C101 C 0.80912 0.27620 0.46265
 C102 C 0.78710 0.25924 0.46390
 H103 H 0.69301 0.18111 0.50865
 H104 H 0.75258 0.22051 0.43340
 H105 H 0.74875 0.23259 0.57875
 H106 H 0.78391 0.24428 0.57666
 H107 H 0.83771 0.29692 0.50225
 H108 H 0.77760 0.25531 0.43243
 N109 N 1.02595 0.53498 0.07682
 N110 N 1.04121 0.54687 0.10751
 N111 N 0.97901 0.52417 0.04739
 N112 N 0.96391 0.52970 0.05688
 N113 N 0.97974 0.51145 0.08006
 N114 N 0.96512 0.50790 0.11248
 N115 N 1.02521 0.54777 0.04430
 N116 N 1.03995 0.56873 0.05216
 C117 C 1.04999 0.56788 0.09150
 C118 C 0.95521 0.51921 0.09743
 N119 N 0.97721 0.50800 -0.08289
 N120 N 0.96077 0.50198 -0.11203
 N121 N 1.02376 0.54572 -0.05537
 N122 N 1.03965 0.56604 -0.06487
 N123 N 1.02343 0.53163 -0.08597
 N124 N 1.03907 0.54191 -0.11696
 N125 N 0.97744 0.52207 -0.05235
 N126 N 0.96113 0.52607 -0.06011
 Mn127 Mn 1.00134 0.53516 -0.00407
 C128 C 0.95079 0.51328 -0.09737
 C129 C 1.04913 0.56336 -0.10335
 N130 N 0.98021 0.47031 0.08281
 N131 N 0.96462 0.46002 0.11390
 N132 N 1.02604 0.47968 0.04894
 N133 N 1.04123 0.47427 0.05809
 N134 N 1.02646 0.49373 0.07977
 N135 N 1.04196 0.49824 0.11071
 N136 N 0.97981 0.45623 0.05208
 N137 N 0.96392 0.43591 0.06160
 Mn138 Mn 1.00312 0.50263 0.08029
 C139 C 0.95451 0.43858 0.10021
 C140 C 1.05120 0.48616 0.09647
 N141 N 1.02405 0.49068 -0.08300
 N142 N 1.04003 0.49603 -0.11309
 N143 N 0.97844 0.45419 -0.04756
 N144 N 0.96362 0.43325 -0.05533
 N145 N 0.97781 0.46699 -0.08017
 N146 N 0.96252 0.45514 -0.11084
 N147 N 1.02472 0.47787 -0.05048
 N148 N 1.04121 0.47410 -0.05772
 Mn149 Mn 1.00061 0.49933 -0.08343
 Mn150 Mn 1.00224 0.46677 0.00077
 Cl151 Cl 1.00182 0.50098 -0.00157
 C152 C 1.05067 0.48563 -0.09691
 C153 C 0.95363 0.43414 -0.09472
 N154 N 0.46931 0.49287 0.08104
 N155 N 0.45874 0.49854 0.11083
 N156 N 0.47823 0.45532 0.05015
 N157 N 0.47211 0.43449 0.06000
 N158 N 0.49166 0.46865 0.08188
 N159 N 0.49504 0.45725 0.11411
 N160 N 0.45578 0.47945 0.04953
 N161 N 0.43556 0.47557 0.05720
 C162 C 0.43772 0.48773 0.09549
 C163 C 0.48293 0.43597 0.09977
 N164 N 0.49203 0.46839 -0.08117
 N165 N 0.49728 0.45729 -0.11054
 N166 N 0.45584 0.47903 -0.05015
 N167 N 0.43534 0.47365 -0.05967
 N168 N 0.46928 0.49221 -0.08211
 N169 N 0.45829 0.49618 -0.11415
 N170 N 0.47849 0.45510 -0.04945
 N171 N 0.47411 0.43453 -0.05654
 Mn172 Mn 0.46686 0.46701 0.00001
 C173 C 0.48606 0.43619 -0.09472
 C174 C 0.43715 0.48468 -0.09948
 N175 N 0.53306 0.50949 0.08123
 N176 N 0.54351 0.50366 0.11095
 N177 N 0.52414 0.54689 0.04904
 N178 N 0.52960 0.56767 0.05761
 N179 N 0.51065 0.53364 0.08083
 N180 N 0.50650 0.54500 0.11176
 N181 N 0.54664 0.52279 0.04958
 N182 N 0.56679 0.52644 0.05709
 Mn183 Mn 0.50118 0.50117 0.08169
 C184 C 0.56453 0.51427 0.09547
 C185 C 0.51829 0.56619 0.09669
 N186 N 0.51053 0.53316 -0.08215
 N187 N 0.50487 0.54396 -0.11145
 N188 N 0.54673 0.52276 -0.05014
 N189 N 0.56722 0.52801 -0.05943
 N190 N 0.53329 0.50934 -0.08176
 N191 N 0.54427 0.50506 -0.11330
 N192 N 0.52400 0.54665 -0.05065
 N193 N 0.52793 0.56709 -0.05784
 Mn194 Mn 0.50129 0.50078 -0.08225
 Mn195 Mn 0.53562 0.53501 -0.00054
 Cl196 Cl 0.50124 0.50099 -0.00027
 C197 C 0.51580 0.56510 -0.09591
 C198 C 0.56540 0.51664 -0.09873
 N199 N 0.45580 -0.02468 0.05167
 N200 N 0.43624 -0.04222 0.05899
 N201 N 0.49010 0.02297 0.08311
 N202 N 0.49461 0.03898 0.11293
 N203 N 0.47596 0.02192 0.05208
 N204 N 0.47040 0.03721 0.06010
 N205 N 0.46992 -0.02352 0.08286
 N206 N 0.46045 -0.04022 0.11207
 C207 C 0.43945 -0.05180 0.09679
 C208 C 0.48229 0.04780 0.09814
 N209 N 0.54643 0.02728 0.05012
 N210 N 0.56659 0.04334 0.05945
 N211 N 0.51233 -0.02026 0.08160
 N212 N 0.50792 -0.03637 0.11107
 N213 N 0.52612 -0.01928 0.04974
 N214 N 0.53158 -0.03473 0.05694
 N215 N 0.53263 0.02621 0.08205
 N216 N 0.54297 0.04151 0.11382
 Mn217 Mn 0.50124 0.00137 0.08281
 C218 C 0.56411 0.05223 0.09912
 C219 C 0.51995 -0.04534 0.09532
 N220 N 0.47537 0.02198 -0.04758
 N221 N 0.46836 0.03610 -0.05629
 N222 N 0.46907 -0.02333 -0.08013
 N223 N 0.45873 -0.03865 -0.11188
 N224 N 0.45527 -0.02447 -0.04808
 N225 N 0.43513 -0.04058 -0.05735
 N226 N 0.48914 0.02315 -0.07972
 N227 N 0.49190 0.03810 -0.11104
 Mn228 Mn 0.46535 -0.00134 0.00208
 C229 C 0.47901 0.04621 -0.09580
 C230 C 0.43760 -0.04944 -0.09706
 N231 N 0.52581 -0.01894 -0.05009
 N232 N 0.53274 -0.03301 -0.05988
 N233 N 0.53180 0.02651 -0.08078
 N234 N 0.54141 0.04306 -0.11031
 N235 N 0.54591 0.02756 -0.04963
 N236 N 0.56557 0.04488 -0.05728
 N237 N 0.51179 -0.01997 -0.08143
 N238 N 0.50878 -0.03477 -0.11328
 Mn239 Mn 0.53631 0.00417 0.00000
 Mn240 Mn 0.50046 0.00158 -0.08095
 Cl241 Cl 0.50084 0.00145 0.00094
 C242 C 0.52180 -0.04294 -0.09921
 C243 C 0.56245 0.05445 -0.09522
 C244 C 1.14395 0.45030 0.37638
 C245 C 1.15576 0.45921 0.33565
 C246 C 1.17827 0.46641 0.33431
 C247 C 1.18914 0.46558 0.37419
 C248 C 1.17769 0.45788 0.41654
 C249 C 1.15470 0.44955 0.41629
 C250 C 1.14491 0.46254 0.29682
 C251 C 1.13519 0.46581 0.26624
 C252 C 1.12310 0.47000 0.23271
 C253 C 1.11216 0.47372 0.20592
 C254 C 1.09838 0.47816 0.17609
 C255 C 1.09026 0.46639 0.13484
 C256 C 1.07536 0.46947 0.10806
 C257 C 1.06836 0.48429 0.12245
 C258 C 1.07706 0.49649 0.16326
 C259 C 1.09196 0.49341 0.18991
 H260 H 1.12644 0.44443 0.37766
 H261 H 1.18760 0.47344 0.30292
 H262 H 1.20678 0.47254 0.37218
 H263 H 1.14478 0.44227 0.44683
 H264 H 1.09505 0.45448 0.12391
 H265 H 1.06893 0.45986 0.07676
 H266 H 1.07199 0.50804 0.17514
 H267 H 1.09809 0.50256 0.22186
 C268 C 0.54743 0.71560 0.34181
 C269 C 0.53428 0.69256 0.33914
 C270 C 0.52120 0.68076 0.37666
 C271 C 0.52128 0.69178 0.41689
 C272 C 0.53460 0.71507 0.42087
 C273 C 0.54754 0.72681 0.38215
 C274 C 0.53418 0.68048 0.29871
 C275 C 0.53320 0.66887 0.26686
 C276 C 0.53112 0.65372 0.23215
 C277 C 0.52869 0.63961 0.20483
 C278 C 0.52514 0.62153 0.17516
 C279 C 0.50978 0.59987 0.18828
 C280 C 0.50721 0.58191 0.16201
 C281 C 0.51999 0.58537 0.12218
 C282 C 0.53499 0.60720 0.10843
 C283 C 0.53760 0.62520 0.13493
 H284 H 0.55777 0.72490 0.31296
 H285 H 0.51078 0.66291 0.37480
 H286 H 0.51013 0.68186 0.44411
 H287 H 0.55857 0.74452 0.38323
 H288 H 0.50009 0.59683 0.21940
 H289 H 0.49548 0.56530 0.17336
 H290 H 0.54505 0.61032 0.07789
 H291 H 0.54958 0.64190 0.12455
 C292 C 0.29832 -0.18818 0.32840
 C293 C 0.32129 -0.17657 0.32985
 C294 C 0.33210 -0.17534 0.37117
 C295 C 0.32009 -0.18484 0.41140
 C296 C 0.29683 -0.19576 0.41136
 C297 C 0.28616 -0.19785 0.36858
 C298 C 0.33398 -0.16428 0.29036
 C299 C 0.34542 -0.15284 0.25923
 C300 C 0.35978 -0.13824 0.22529
 C301 C 0.37286 -0.12487 0.19861
 C302 C 0.38944 -0.10795 0.16977
 C303 C 0.41159 -0.09899 0.18181
 C304 C 0.42785 -0.08105 0.15722
 C305 C 0.42219 -0.07180 0.12017
 C306 C 0.39996 -0.08127 0.10728
 C307 C 0.38364 -0.09923 0.13214
 H308 H 0.28977 -0.18910 0.29658
 H309 H 0.34992 -0.16656 0.37259
 H310 H 0.32926 -0.18371 0.44230
 H311 H 0.26845 -0.20555 0.36625
 H312 H 0.41625 -0.10552 0.21099
 H313 H 0.44484 -0.07417 0.16780
 H314 H 0.39517 -0.07445 0.07887
 H315 H 0.36653 -0.10596 0.12272
 C316 C 0.82399 0.52935 0.33670
 C317 C 0.84702 0.54084 0.33787
 C318 C 0.85799 0.55241 0.37776
 C319 C 0.84604 0.55185 0.41688
 C320 C 0.82290 0.53963 0.41666
 C321 C 0.81199 0.52880 0.37580
 C322 C 0.85943 0.53918 0.29994
 C323 C 0.87015 0.53719 0.26968
 C324 C 0.88311 0.53426 0.23611
 C325 C 0.89455 0.53134 0.20916
 C326 C 0.90869 0.52744 0.17920
 C327 C 0.91584 0.51281 0.19333
 C328 C 0.93060 0.50979 0.16612
 C329 C 0.93844 0.52139 0.12431
 C330 C 0.93082 0.53569 0.10972
 C331 C 0.91604 0.53873 0.13713
 H332 H 0.81533 0.52020 0.30613
 H333 H 0.87581 0.56132 0.37910
 H334 H 0.85488 0.56056 0.44766
 H335 H 0.79420 0.51906 0.37477
 H336 H 0.91028 0.50400 0.22583
 H337 H 0.93614 0.49864 0.17819
 H338 H 0.93660 0.54483 0.07767
 H339 H 0.91063 0.55012 0.12589
 C340 C 0.43892 0.30132 0.37746
 C341 C 0.45149 0.30182 0.33941
 C342 C 0.46213 0.28929 0.34005
 C343 C 0.46090 0.27698 0.37931
 C344 C 0.44914 0.27721 0.41851
 C345 C 0.43772 0.28908 0.41674
 C346 C 0.45504 0.31679 0.30180
 C347 C 0.45854 0.33022 0.27190
 C348 C 0.46308 0.34685 0.23875
 C349 C 0.46719 0.36171 0.21199
 C350 C 0.47222 0.38013 0.18191
 C351 C 0.46129 0.37678 0.13967
 C352 C 0.46520 0.39495 0.11218
 C353 C 0.48003 0.41666 0.12680
 C354 C 0.49132 0.41982 0.16872
 C355 C 0.48741 0.40166 0.19609
 H356 H 0.43065 0.31099 0.37739
 H357 H 0.47202 0.28968 0.31091
 H358 H 0.47005 0.26819 0.37988
 H359 H 0.42835 0.28937 0.44624
 H360 H 0.44946 0.36019 0.12841
 H361 H 0.45628 0.39204 0.08004
 H362 H 0.50285 0.43634 0.18082
 H363 H 0.49594 0.40444 0.22875
 C364 C 0.67725 0.17386 0.37443
 C365 C 0.68700 0.16606 0.34302
 C366 C 0.70839 0.17001 0.35098
 C367 C 0.71985 0.18151 0.39061
 C368 C 0.70994 0.18900 0.42279
 C369 C 0.68861 0.18525 0.41396
 C370 C 0.67440 0.15314 0.30406
 C371 C 0.66273 0.14192 0.27299
 C372 C 0.64787 0.12831 0.23862
 C373 C 0.63422 0.11626 0.21114
 C374 C 0.61687 0.10135 0.18080
 C375 C 0.62158 0.09379 0.13987
 C376 C 0.60440 0.07818 0.11236
 C377 C 0.58237 0.06994 0.12575
 C378 C 0.57785 0.07803 0.16634
 C379 C 0.59499 0.09361 0.19363
 H380 H 0.66072 0.17089 0.36864
 H381 H 0.71605 0.16394 0.32700
 H382 H 0.73619 0.18403 0.39671
 H383 H 0.68070 0.19112 0.43775
 H384 H 0.63847 0.09964 0.12965
 H385 H 0.60833 0.07222 0.08127
 H386 H 0.56106 0.07203 0.17747
 H387 H 0.59115 0.09933 0.22525
 C388 C 0.43734 0.13628 -0.37460
 C389 C 0.44618 0.14802 -0.33374
 C390 C 0.45353 0.17074 -0.33223
 C391 C 0.45292 0.18188 -0.37202
 C392 C 0.44527 0.17051 -0.41450
 C393 C 0.43680 0.14731 -0.41445
 C394 C 0.44939 0.13694 -0.29501
 C395 C 0.45271 0.12717 -0.26446
 C396 C 0.45718 0.11519 -0.23094
 C397 C 0.46139 0.10449 -0.20427
 C398 C 0.46678 0.09117 -0.17482
 C399 C 0.45532 0.08231 -0.13350
 C400 C 0.45968 0.06809 -0.10694
 C401 C 0.47547 0.06252 -0.12163
 C402 C 0.48723 0.07191 -0.16258
 C403 C 0.48289 0.08612 -0.18897
 H404 H 0.43137 0.11862 -0.37606
 H405 H 0.46054 0.18004 -0.30077
 H406 H 0.46002 0.19968 -0.36979
 H407 H 0.42956 0.13741 -0.44504
 H408 H 0.44277 0.08606 -0.12229
 H409 H 0.45038 0.06109 -0.07553
 H410 H 0.49951 0.06796 -0.17470
 H411 H 0.49182 0.09284 -0.22093
 C412 C 0.69020 0.54565 -0.38302
 C413 C 0.69406 0.53846 -0.34084
 C414 C 0.70998 0.53197 -0.33796
 C415 C 0.72143 0.53188 -0.37755
 C416 C 0.71689 0.53796 -0.42113
 C417 C 0.70147 0.54548 -0.42263
 C418 C 0.68040 0.53628 -0.30175
 C419 C 0.66788 0.53394 -0.27084
 C420 C 0.65212 0.53073 -0.23682
 C421 C 0.63783 0.52769 -0.20965
 C422 C 0.61990 0.52382 -0.17953
 C423 C 0.59831 0.50880 -0.19292
 C424 C 0.58060 0.50606 -0.16592
 C425 C 0.58425 0.51835 -0.12512
 C426 C 0.60600 0.53299 -0.11119
 C427 C 0.62374 0.53575 -0.13836
 H428 H 0.67808 0.55096 -0.38556
 H429 H 0.71302 0.52625 -0.30544
 H430 H 0.73267 0.52553 -0.37407
 H431 H 0.69813 0.55157 -0.45423
 H432 H 0.59514 0.49951 -0.22476
 H433 H 0.56404 0.49463 -0.17746
 H434 H 0.60928 0.54268 -0.07992
 H435 H 0.64038 0.54747 -0.12774
 C436 C 0.82457 0.28885 -0.32984
 C437 C 0.84749 0.30184 -0.33097
 C438 C 0.85883 0.30314 -0.37157
 C439 C 0.84733 0.29245 -0.41157
 C440 C 0.82405 0.28027 -0.41203
 C441 C 0.81294 0.27801 -0.36975
 C442 C 0.85930 0.31564 -0.29228
 C443 C 0.86961 0.32835 -0.26169
 C444 C 0.88217 0.34443 -0.22813
 C445 C 0.89332 0.35910 -0.20150
 C446 C 0.90715 0.37761 -0.17228
 C447 C 0.91276 0.39903 -0.18647
 C448 C 0.92745 0.41737 -0.16047
 C449 C 0.93676 0.41454 -0.11985
 C450 C 0.93061 0.39295 -0.10506
 C451 C 0.91591 0.37456 -0.13126
 H452 H 0.81559 0.28786 -0.29861
 H453 H 0.87662 0.31300 -0.37274
 H454 H 0.85689 0.29380 -0.44198
 H455 H 0.79517 0.26935 -0.36778
 H456 H 0.90612 0.40159 -0.21819
 H457 H 0.93183 0.43379 -0.17266
 H458 H 0.93755 0.39030 -0.07391
 H459 H 0.91172 0.35806 -0.12003
 C460 C 0.53801 -0.17163 -0.33607
 C461 C 0.55035 -0.14845 -0.33621
 C462 C 0.56313 -0.13734 -0.37482
 C463 C 0.56285 -0.14927 -0.41391
 C464 C 0.54969 -0.17251 -0.41491
 C465 C 0.53773 -0.18361 -0.37511
 C466 C 0.54815 -0.13600 -0.29894
 C467 C 0.54556 -0.12536 -0.26925
 C468 C 0.54179 -0.11264 -0.23634
 C469 C 0.53809 -0.10151 -0.20986
 C470 C 0.53324 -0.08785 -0.18025
 C471 C 0.51736 -0.08237 -0.19392
 C472 C 0.51332 -0.06813 -0.16695
 C473 C 0.52513 -0.05915 -0.12590
 C474 C 0.54073 -0.06509 -0.11182
 C475 C 0.54478 -0.07935 -0.13895
 H476 H 0.52792 -0.18040 -0.30652
 H477 H 0.57269 -0.11940 -0.37536
 H478 H 0.57242 -0.14031 -0.44383
 H479 H 0.52724 -0.20145 -0.37504
 H480 H 0.50835 -0.08885 -0.22584
 H481 H 0.50118 -0.06388 -0.17862
 H482 H 0.55006 -0.05840 -0.08036
 H483 H 0.55713 -0.08345 -0.12808
 C484 C 0.29423 0.47085 -0.33841
 C485 C 0.30580 0.45924 -0.33803
 C486 C 0.30473 0.44643 -0.37626
 C487 C 0.29284 0.44591 -0.41544
 C488 C 0.28191 0.45826 -0.41691
 C489 C 0.28227 0.47031 -0.37756
 C490 C 0.32038 0.46200 -0.30043
 C491 C 0.33350 0.46484 -0.27053
 C492 C 0.34976 0.46860 -0.23740
 C493 C 0.36432 0.47206 -0.21071
 C494 C 0.38242 0.47633 -0.18081
 C495 C 0.40395 0.49107 -0.19507
 C496 C 0.42177 0.49421 -0.16795
 C497 C 0.41825 0.48260 -0.12620
 C498 C 0.39656 0.46823 -0.11148
 C499 C 0.37873 0.46508 -0.13874
 H500 H 0.29507 0.48094 -0.30912
 H501 H 0.31366 0.43741 -0.37637
 H502 H 0.29263 0.43628 -0.44502
 H503 H 0.27421 0.48017 -0.37789
 H504 H 0.40700 0.49983 -0.22761
 H505 H 0.43829 0.50541 -0.18010
 H506 H 0.39338 0.45908 -0.07946
 H507 H 0.36213 0.45359 -0.12744
 C508 C 1.18502 0.69824 -0.34912
 C509 C 1.16214 0.68798 -0.34540
 C510 C 1.14998 0.69032 -0.38091
 C511 C 1.16052 0.70254 -0.42035
 C512 C 1.18364 0.71279 -0.42541
 C513 C 1.19571 0.71060 -0.38854
 C514 C 1.15078 0.67418 -0.30637
 C515 C 1.14037 0.66192 -0.27523
 C516 C 1.12720 0.64674 -0.24077
 C517 C 1.11519 0.63305 -0.21323
 C518 C 1.10002 0.61582 -0.18286
 C519 C 1.09270 0.59367 -0.19417
 C520 C 1.07650 0.57664 -0.16754
 C521 C 1.06737 0.58154 -0.12916
 C522 C 1.07521 0.60382 -0.11715
 C523 C 1.09143 0.62089 -0.14401
 H524 H 1.19459 0.69633 -0.32195
 H525 H 1.13224 0.68256 -0.37825
 H526 H 1.15038 0.70441 -0.44611
 H527 H 1.21331 0.71734 -0.39063
 H528 H 1.09917 0.58955 -0.22425
 H529 H 1.07085 0.55964 -0.17751
 H530 H 1.06845 0.60804 -0.08775
 H531 H 1.09690 0.63799 -0.13509
 C532 C 0.82253 0.53107 -0.33298
 C533 C 0.83265 0.51804 -0.33369
 C534 C 0.83244 0.50699 -0.37423
 C535 C 0.82278 0.50947 -0.41429
 C536 C 0.81320 0.52308 -0.41439
 C537 C 0.81276 0.53351 -0.37308
 C538 C 0.84465 0.51710 -0.29423
 C539 C 0.85564 0.51635 -0.26300
 C540 C 0.86949 0.51542 -0.22876
 C541 C 0.88208 0.51447 -0.20171
 C542 C 0.89792 0.51307 -0.17232
 C543 C 0.90497 0.49803 -0.18342
 C544 C 0.92181 0.49778 -0.15815
 C545 C 0.93186 0.51261 -0.12134
 C546 C 0.92428 0.52728 -0.10940
 C547 C 0.90742 0.52755 -0.13494
 H548 H 0.82270 0.53979 -0.30185
 H549 H 0.84023 0.49688 -0.37520
 H550 H 0.82308 0.50099 -0.44542
 H551 H 0.80565 0.54423 -0.37230
 H552 H 0.89781 0.48681 -0.21237
 H553 H 0.92723 0.48624 -0.16804
 H554 H 0.93175 0.53888 -0.08120
 H555 H 0.90216 0.53936 -0.12621
 C556 C 0.47686 0.29340 -0.33481
 C557 C 0.46792 0.30738 -0.33069
 C558 C 0.45543 0.30874 -0.36670
 C559 C 0.45210 0.29652 -0.40699
 C560 C 0.46127 0.28254 -0.41253
 C561 C 0.47350 0.28099 -0.37517
 C562 C 0.47201 0.32115 -0.29067
 C563 C 0.47505 0.33366 -0.25914
 C564 C 0.47824 0.34936 -0.22475
 C565 C 0.48075 0.36360 -0.19771
 C566 C 0.48357 0.38154 -0.16842
 C567 C 0.49853 0.40334 -0.18141
 C568 C 0.49973 0.42110 -0.15653
 C569 C 0.48594 0.41729 -0.11827
 C570 C 0.47144 0.39535 -0.10441
 C571 C 0.47020 0.37755 -0.12952
 H572 H 0.48675 0.29237 -0.30718
 H573 H 0.44825 0.31937 -0.36372
 H574 H 0.44164 0.29764 -0.43308
 H575 H 0.48150 0.27114 -0.37750
 H576 H 0.50886 0.40662 -0.21160
 H577 H 0.51112 0.43781 -0.16790
 H578 H 0.46063 0.39196 -0.07505
 H579 H 0.45844 0.36074 -0.11937
 C580 C 0.67320 0.18271 -0.36448
 C581 C 0.68320 0.17906 -0.32624
 C582 C 0.70567 0.18591 -0.32755
 C583 C 0.71790 0.19564 -0.36758
 C584 C 0.70773 0.19846 -0.40688
 C585 C 0.68537 0.19237 -0.40453
 C586 C 0.66986 0.16638 -0.28775
 C587 C 0.65796 0.15474 -0.25735
 C588 C 0.64318 0.14004 -0.22406
 C589 C 0.62984 0.12667 -0.19775
 C590 C 0.61303 0.10985 -0.16909
 C591 C 0.61856 0.10136 -0.13066
 C592 C 0.60206 0.08363 -0.10562
 C593 C 0.57991 0.07416 -0.11906
 C594 C 0.57451 0.08317 -0.15700
 C595 C 0.59097 0.10087 -0.18180
 H596 H 0.65580 0.17742 -0.36391
 H597 H 0.71354 0.18300 -0.29827
 H598 H 0.73504 0.19997 -0.36857
 H599 H 0.67717 0.19459 -0.43407
 H600 H 0.63562 0.10811 -0.12068
 H601 H 0.60666 0.07701 -0.07653
 H602 H 0.55759 0.07628 -0.16806
 H603 H 0.58650 0.10723 -0.21158
 C604 C 1.18717 0.48383 -0.33730
 C605 C 1.16428 0.47344 -0.33307
 C606 C 1.15096 0.46042 -0.36917
 C607 C 1.16032 0.45804 -0.40969
 C608 C 1.18343 0.46874 -0.41538
 C609 C 1.19670 0.48143 -0.37790
 C610 C 1.15404 0.47664 -0.29295
 C611 C 1.14412 0.47893 -0.26139
 C612 C 1.13111 0.48125 -0.22704
 C613 C 1.11897 0.48306 -0.20008
 C614 C 1.10342 0.48512 -0.17096
 C615 C 1.09561 0.49928 -0.18449
 C616 C 1.07881 0.49980 -0.15958
 C617 C 1.06956 0.48613 -0.12072
 C618 C 1.07792 0.47242 -0.10639
 C619 C 1.09473 0.47186 -0.13155
 H620 H 1.19766 0.49414 -0.30961
 H621 H 1.13319 0.45213 -0.36612
 H622 H 1.14920 0.44717 -0.43592
 H623 H 1.21445 0.49053 -0.38031
 H624 H 1.10212 0.50952 -0.21505
 H625 H 1.07278 0.51060 -0.17132
 H626 H 1.07108 0.46172 -0.07657
 H627 H 1.10055 0.46071 -0.12096
 C628 C 0.50945 0.67740 -0.36962
 C629 C 0.51846 0.68878 -0.32849
 C630 C 0.52908 0.71194 -0.32790
 C631 C 0.53135 0.72371 -0.36876
 C632 C 0.52334 0.71247 -0.41126
 C633 C 0.51177 0.68902 -0.41044
 C634 C 0.51794 0.67638 -0.28820
 C635 C 0.51752 0.66481 -0.25674
 C636 C 0.51692 0.64995 -0.22276
 C637 C 0.51622 0.63622 -0.19631
 C638 C 0.51506 0.61863 -0.16801
 C639 C 0.52905 0.62318 -0.13002
 C640 C 0.52899 0.60574 -0.10554
 C641 C 0.51504 0.58364 -0.11914
 C642 C 0.50073 0.57928 -0.15663
 C643 C 0.50075 0.59665 -0.18084
 H644 H 0.50095 0.65945 -0.37039
 H645 H 0.53623 0.72093 -0.29620
 H646 H 0.54068 0.74161 -0.36714
 H647 H 0.50415 0.67940 -0.44118
 H648 H 0.54030 0.64014 -0.11997
 H649 H 0.54018 0.60955 -0.07677
 H650 H 0.48973 0.56244 -0.16780
 H651 H 0.48993 0.59294 -0.21029
 C652 C 0.32464 -0.17319 -0.36931
 C653 C 0.31484 -0.16492 -0.33914
 C654 C 0.29370 -0.16848 -0.34855
 C655 C 0.28258 -0.17994 -0.38851
 C656 C 0.29262 -0.18779 -0.41956
 C657 C 0.31363 -0.18453 -0.40916
 C658 C 0.32727 -0.15178 -0.30022
 C659 C 0.33888 -0.14033 -0.26931
 C660 C 0.35373 -0.12644 -0.23521
 C661 C 0.36740 -0.11416 -0.20802
 C662 C 0.38480 -0.09898 -0.17807
 C663 C 0.38013 -0.09152 -0.13695
 C664 C 0.39733 -0.07574 -0.10972
 C665 C 0.41934 -0.06724 -0.12356
 C666 C 0.42383 -0.07520 -0.16438
 C667 C 0.40667 -0.09094 -0.19139
 H668 H 0.34098 -0.17052 -0.36242
 H669 H 0.28601 -0.16204 -0.32555
 H670 H 0.26648 -0.18209 -0.39584
 H671 H 0.32162 -0.19066 -0.43212
 H672 H 0.36325 -0.09760 -0.12634
 H673 H 0.39341 -0.06989 -0.07844
 H674 H 0.44060 -0.06899 -0.17587
 H675 H 0.41048 -0.09658 -0.22316
 C676 C 0.54217 -0.17167 0.33373
 C677 C 0.53081 -0.15984 0.33453
 C678 C 0.52087 -0.15857 0.37548
 C679 C 0.52269 -0.16860 0.41573
 C680 C 0.53453 -0.18006 0.41565
 C681 C 0.54396 -0.18180 0.37405
 C682 C 0.53007 -0.14801 0.29437
 C683 C 0.52927 -0.13726 0.26249
 C684 C 0.52797 -0.12381 0.22751
 C685 C 0.52642 -0.11165 0.19996
 C686 C 0.52389 -0.09644 0.17028
 C687 C 0.50769 -0.09099 0.18091
 C688 C 0.50614 -0.07476 0.15557
 C689 C 0.52081 -0.06370 0.11908
 C690 C 0.53665 -0.06970 0.10749
 C691 C 0.53825 -0.08596 0.13318
 H692 H 0.54999 -0.17269 0.30227
 H693 H 0.51200 -0.14949 0.37649
 H694 H 0.51497 -0.16727 0.44705
 H695 H 0.55331 -0.19038 0.37309
 H696 H 0.49654 -0.09892 0.20960
 H697 H 0.49369 -0.07059 0.16515
 H698 H 0.54815 -0.06142 0.07956
 H699 H 0.55094 -0.08998 0.12480
 C700 C 0.30705 0.45777 0.36274
 C701 C 0.31130 0.47486 0.33170
 C702 C 0.30297 0.48913 0.34048
 C703 C 0.29073 0.48649 0.38066
 C704 C 0.28688 0.46966 0.41256
 C705 C 0.29494 0.45517 0.40282
 C706 C 0.32533 0.47827 0.29258
 C707 C 0.33783 0.48067 0.26157
 C708 C 0.35329 0.48309 0.22749
 C709 C 0.36720 0.48493 0.20048
 C710 C 0.38467 0.48700 0.17095
 C711 C 0.40651 0.50155 0.18346
 C712 C 0.42374 0.50215 0.15805
 C713 C 0.41937 0.48817 0.11971
 C714 C 0.39741 0.47406 0.10640
 C715 C 0.38013 0.47343 0.13205
 H716 H 0.31344 0.44666 0.35636
 H717 H 0.30628 0.50250 0.31680
 H718 H 0.28484 0.49797 0.38745
 H719 H 0.29195 0.44186 0.42641
 H720 H 0.41022 0.51204 0.21362
 H721 H 0.44048 0.51325 0.16902
 H722 H 0.39358 0.46312 0.07701
 H723 H 0.36328 0.46200 0.12223
 C724 C 1.14664 0.70392 0.36246
 C725 C 1.15773 0.70105 0.32522
 C726 C 1.18055 0.70991 0.32734
 C727 C 1.19210 0.72075 0.36730
 C728 C 1.18091 0.72272 0.40579
 C729 C 1.15815 0.71472 0.40246
 C730 C 1.14538 0.68693 0.28732
 C731 C 1.13470 0.67403 0.25730
 C732 C 1.12181 0.65779 0.22426
 C733 C 1.11046 0.64304 0.19796
 C734 C 1.09646 0.62447 0.16900
 C735 C 1.08774 0.62749 0.12789
 C736 C 1.07301 0.60908 0.10176
 C737 C 1.06681 0.58749 0.11669
 C738 C 1.07605 0.58469 0.15745
 C739 C 1.09075 0.60306 0.18339
 H740 H 1.12897 0.69705 0.36130
 H741 H 1.18928 0.70762 0.29889
 H742 H 1.20957 0.72650 0.36901
 H743 H 1.14914 0.71620 0.43136
 H744 H 1.09201 0.64399 0.11648
 H745 H 1.06613 0.61171 0.07050
 H746 H 1.07162 0.56828 0.16977
 H747 H 1.09737 0.60052 0.21516
 C748 C 0.44467 0.14494 0.36524
 C749 C 0.46209 0.15760 0.33512
 C750 C 0.47663 0.17997 0.34492
 C751 C 0.47394 0.18953 0.38519
 C752 C 0.45675 0.17672 0.41618
 C753 C 0.44199 0.15441 0.40545
 C754 C 0.46567 0.14701 0.29602
 C755 C 0.46844 0.13713 0.26495
 C756 C 0.47152 0.12447 0.23074
 C757 C 0.47413 0.11284 0.20361
 C758 C 0.47734 0.09808 0.17398
 C759 C 0.46375 0.08821 0.13562
 C760 C 0.46571 0.07222 0.10984
 C761 C 0.48118 0.06588 0.12250
 C762 C 0.49512 0.07632 0.16030
 C763 C 0.49319 0.09229 0.18583
 H764 H 0.43336 0.12761 0.35808
 H765 H 0.49028 0.18987 0.32200
 H766 H 0.48564 0.20669 0.39279
 H767 H 0.42844 0.14425 0.42838
 H768 H 0.45133 0.09247 0.12633
 H769 H 0.45477 0.06443 0.08087
 H770 H 0.50725 0.07185 0.17075
 H771 H 0.50372 0.09974 0.21556
 C772 C 0.71019 0.53134 0.32987
 C773 C 0.68729 0.51761 0.32977
 C774 C 0.67655 0.50579 0.36964
 C775 C 0.68849 0.50820 0.40990
 C776 C 0.71138 0.52254 0.41087
 C777 C 0.72220 0.53372 0.37018
 C778 C 0.67442 0.51681 0.29034
 C779 C 0.66270 0.51619 0.25924
 C780 C 0.64789 0.51542 0.22527
 C781 C 0.63433 0.51463 0.19855
 C782 C 0.61706 0.51343 0.16966
 C783 C 0.59516 0.49922 0.18232
 C784 C 0.57811 0.49919 0.15739
 C785 C 0.58271 0.51341 0.11936
 C786 C 0.60473 0.52723 0.10594
 C787 C 0.62184 0.52730 0.13114
 H788 H 0.71865 0.54067 0.29928
 H789 H 0.65884 0.49513 0.36997
 H790 H 0.67979 0.49915 0.44056
 H791 H 0.73980 0.54497 0.37011
 H792 H 0.59127 0.48849 0.21217
 H793 H 0.56132 0.48830 0.16844
 H794 H 0.60872 0.53834 0.07677
 H795 H 0.63875 0.53845 0.12119
 C796 C 0.85128 0.30490 0.36801
 C797 C 0.84040 0.31246 0.33907
 C798 C 0.81884 0.30735 0.34937
 C799 C 0.80836 0.29507 0.38900
 C800 C 0.81942 0.28790 0.41888
 C801 C 0.84088 0.29270 0.40760
 C802 C 0.85207 0.32668 0.30076
 C803 C 0.86271 0.33925 0.27021
 C804 C 0.87610 0.35472 0.23639
 C805 C 0.88826 0.36859 0.20932
 C806 C 0.90358 0.38595 0.17936
 C807 C 0.91193 0.38098 0.13998
 C808 C 0.92819 0.39812 0.11331
 C809 C 0.93631 0.42037 0.12604
 C810 C 0.92745 0.42517 0.16502
 C811 C 0.91121 0.40807 0.19148
 H812 H 0.86798 0.30881 0.36046
 H813 H 0.81034 0.31327 0.32737
 H814 H 0.79191 0.29180 0.39707
 H815 H 0.84968 0.28717 0.42971
 H816 H 0.90621 0.36391 0.13042
 H817 H 0.93473 0.39397 0.08344
 H818 H 0.93333 0.44214 0.17558
 H819 H 0.90494 0.41210 0.22198
   
