data_POSCAR
  _audit_creation_date              2014-09-24
  _audit_creation_method            'ToBaCCo'
  _symmetry_space_group_name_H-M    'P1'
  _symmetry_Int_Tables_number       1
  _symmetry_cell_setting            triclinic
  loop_
  _symmetry_equiv_pos_as_xyz
 x,y,z
_cell_length_a 33.2515
_cell_length_b 37.3614
_cell_length_c 37.2622
_cell_angle_alpha 90.014000
_cell_angle_beta 89.316400
_cell_angle_gamma 87.183600
loop_
  _atom_site_label
  _atom_site_type_symbol
  _atom_site_fract_x
  _atom_site_fract_y
  _atom_site_fract_z
N1 N 0.20437 1.20984 0.21068
 N2 N 0.81981 0.80269 0.22530
 N3 N 0.77152 1.22792 -0.22513
 N4 N 0.20847 0.77029 -0.20296
 C5 C 0.53515 1.05341 -0.04005
 H6 H 0.51303 1.06749 -0.02313
 C7 C 0.55909 1.07282 -0.06335
 H8 H 0.55417 1.10159 -0.06429
 C9 C 0.56738 0.99877 -0.05958
 H10 H 0.57030 0.96985 -0.05794
 C11 C 0.59201 1.01707 -0.08313
 H12 H 0.61394 1.00200 -0.09957
 N13 N 0.53936 1.01703 -0.03890
 C14 C 0.47889 1.01932 0.05817
 H15 H 0.50174 1.00174 0.07008
 C16 C 0.45400 1.04120 0.08028
 H17 H 0.45826 1.04042 0.10906
 C18 C 0.44465 1.04096 0.00657
 H19 H 0.44089 1.04024 -0.02222
 C20 C 0.41899 1.06321 0.02770
 H21 H 0.39534 1.07903 0.01466
 Zn22 Zn 0.50694 0.98963 -0.00833
 N23 N 0.47415 1.01990 0.02197
 C24 C 0.57119 0.97559 0.03798
 N25 N 0.54202 0.95960 0.01947
 C26 C 0.53896 0.92347 0.02023
 C27 C 0.56513 0.90208 0.04114
 C28 C 0.59810 0.95528 0.05917
 C29 C 0.47329 0.96462 -0.07258
 C30 C 0.44678 0.94572 -0.09323
 C31 C 0.41818 0.92235 -0.03867
 C32 C 0.44521 0.94192 -0.01907
 N33 N 0.47231 0.96221 -0.03619
 H34 H 0.57340 1.00434 0.03636
 H35 H 0.51626 0.91108 0.00466
 H36 H 0.56180 0.87337 0.04149
 H37 H 0.62066 0.96939 0.07322
 H38 H 0.49423 0.98163 -0.08576
 H39 H 0.44815 0.94826 -0.12219
 H40 H 0.39688 0.90701 -0.02388
 H41 H 0.44439 0.94117 0.00996
 C42 C 0.42381 1.06376 0.06515
 C43 C 0.58813 1.05457 -0.08528
 C44 C 0.41872 0.92404 -0.07651
 C45 C 0.59513 0.91778 0.06132
 C46 C -0.02743 0.54922 1.04511
 H47 H 0.00502 0.54534 1.04568
 C48 C -0.04665 0.57674 1.06520
 H49 H -0.02847 0.59399 1.08088
 C50 C -0.08981 0.53282 1.02160
 H51 H -0.10644 0.51634 1.00381
 C52 C -0.11023 0.56009 1.04114
 H53 H -0.14257 0.56402 1.03856
 N54 N -0.04913 0.52784 1.02398
 C55 C 0.02674 0.43153 1.00354
 H56 H 0.02498 0.43112 0.97457
 C57 C 0.04653 0.40322 1.02152
 H58 H 0.06016 0.38105 1.00622
 C59 C 0.00966 0.46036 1.05871
 H60 H -0.00574 0.48218 1.07310
 C61 C 0.02956 0.43270 1.07780
 H62 H 0.02906 0.43357 1.10683
 Zn63 Zn -0.02052 0.49379 0.99457
 N64 N 0.00873 0.45928 1.02223
 C65 C 0.05548 0.51390 0.96839
 N66 N 0.01496 0.51940 0.96539
 C67 C -0.00116 0.54574 0.94407
 C68 C 0.02374 0.56797 0.92469
 C69 C 0.08154 0.53562 0.94970
 C70 C -0.08199 0.44736 0.98522
 C71 C -0.10774 0.42548 0.96707
 C72 C -0.08073 0.44661 0.91088
 C73 C -0.05552 0.46825 0.93024
 N74 N -0.05658 0.46816 0.96672
 H75 H 0.06773 0.49339 0.98616
 H76 H -0.03353 0.55005 0.94287
 H77 H 0.00944 0.58914 0.90896
 H78 H 0.11372 0.53112 0.95308
 H79 H -0.08179 0.44745 1.01425
 H80 H -0.12742 0.40895 0.98258
 H81 H -0.07884 0.44754 0.88196
 H82 H -0.03457 0.48452 0.91606
 C83 C 0.04817 0.40358 1.05906
 C84 C -0.08870 0.58243 1.06332
 C85 C -0.10710 0.42433 0.92936
 C86 C 0.06595 0.56337 0.92763
 C87 C 1.08319 -0.01539 0.56586
 H88 H 1.08793 0.01301 0.56726
 C89 C 1.10485 -0.03907 0.58825
 H90 H 1.12654 -0.02876 0.60656
 C91 C 1.04777 -0.06313 0.54164
 H92 H 1.02509 -0.07240 0.52383
 C93 C 1.06864 -0.08771 0.56366
 H94 H 1.06236 -0.11577 0.56175
 N95 N 1.05487 -0.02762 0.54345
 C96 C 1.03459 0.05559 0.46216
 H97 H 1.00214 0.05673 0.46129
 C98 C 1.05610 0.07531 0.43733
 H99 H 1.03952 0.09260 0.41888
 C100 C 1.09513 0.03084 0.48665
 H101 H 1.11043 0.01274 0.50507
 C102 C 1.11787 0.05015 0.46229
 H103 H 1.15042 0.04706 0.46269
 Zn104 Zn 1.02202 0.00572 0.51677
 N105 N 1.05417 0.03401 0.48636
 C106 C 0.96432 0.06149 0.53689
 N107 N 0.99050 0.03536 0.54935
 C108 C 0.99466 0.02979 0.58522
 C109 C 0.97344 0.05167 0.60994
 C110 C 0.94203 0.08383 0.56072
 C111 C 1.00638 -0.03679 0.45812
 C112 C 0.98376 -0.05509 0.43347
 C113 C 0.92383 -0.03790 0.46788
 C114 C 0.94773 -0.01982 0.49186
 N115 N 0.98820 -0.01957 0.48648
 H116 H 0.96043 0.06507 0.50841
 H117 H 1.01440 0.00832 0.59499
 H118 H 0.97787 0.04682 0.63834
 H119 H 0.92225 0.10465 0.54959
 H120 H 1.03865 -0.03594 0.45447
 H121 H 0.99983 -0.06769 0.41118
 H122 H 0.89160 -0.03762 0.47263
 H123 H 0.93393 -0.00599 0.51469
 C124 C 1.09839 0.07228 0.43684
 C125 C 1.09691 -0.07556 0.58800
 C126 C 0.94159 -0.05589 0.43803
 C127 C 0.94671 0.07926 0.59801
 C128 C 0.18984 0.24323 1.19533
 C129 C 0.15052 0.24725 1.18285
 C130 C 0.13397 0.28000 1.16501
 C131 C 0.10177 0.27705 1.14140
 C132 C 0.08517 0.30727 1.12397
 C133 C 0.10025 0.34120 1.13010
 C134 C 0.13164 0.34438 1.15455
 C135 C 0.14860 0.31403 1.17171
 C136 C 0.08295 0.37358 1.11205
 C137 C 0.06711 0.37222 1.07759
 H138 H 0.13190 0.22426 1.18416
 H139 H 0.08956 0.25121 1.13625
 H140 H 0.06009 0.30405 1.10619
 H141 H 0.14328 0.37036 1.16012
 H142 H 0.17258 0.31742 1.19059
 H143 H 0.08496 0.39920 1.12531
 H144 H 0.21062 0.26426 1.19111
 H145 H 0.07022 0.34729 1.06274
 C146 C -0.16937 0.76734 1.21184
 C147 C -0.16568 0.76023 1.17510
 C148 C -0.14926 0.72574 1.16014
 C149 C -0.15809 0.71708 1.12455
 C150 C -0.14150 0.68572 1.10872
 C151 C -0.11548 0.66236 1.12823
 C152 C -0.10637 0.67116 1.16372
 C153 C -0.12311 0.70244 1.17960
 C154 C -0.09542 0.63000 1.11177
 C155 C -0.11056 0.61263 1.08199
 H156 H -0.17469 0.78109 1.15626
 H157 H -0.17760 0.73486 1.10879
 H158 H -0.14820 0.68054 1.08092
 H159 H -0.08588 0.65393 1.17911
 H160 H -0.11435 0.70869 1.20665
 H161 H -0.06838 0.61898 1.12434
 H162 H -0.16042 0.74677 1.23096
 H163 H -0.14017 0.62079 1.07233
 C164 C -0.21342 0.26006 0.78485
 C165 C -0.21772 0.27473 0.81949
 C166 C -0.19734 0.30703 0.83134
 C167 C -0.21230 0.32543 0.86190
 C168 C -0.19223 0.35424 0.87583
 C169 C -0.15627 0.36492 0.85974
 C170 C -0.14198 0.34731 0.82853
 C171 C -0.16204 0.31847 0.81457
 C172 C -0.13248 0.39353 0.87524
 C173 C -0.13206 0.40037 0.91221
 H174 H -0.23497 0.26142 0.83984
 H175 H -0.23948 0.31726 0.87525
 H176 H -0.20497 0.36796 0.89920
 H177 H -0.11438 0.35507 0.81560
 H178 H -0.14877 0.30453 0.79158
 H179 H -0.11211 0.40653 0.85725
 H180 H -0.19578 0.27445 0.76560
 H181 H -0.15086 0.38455 0.92930
 C182 C 0.18954 0.73744 0.80575
 C183 C 0.18459 0.72592 0.84113
 C184 C 0.15988 0.69550 0.85118
 C185 C 0.16702 0.67806 0.88399
 C186 C 0.14267 0.65071 0.89544
 C187 C 0.11039 0.64044 0.87431
 C188 C 0.10310 0.65803 0.84162
 C189 C 0.12761 0.68519 0.83004
 C190 C 0.08208 0.61360 0.88686
 C191 C 0.09300 0.58628 0.91108
 H192 H 0.19857 0.74018 0.86258
 H193 H 0.19124 0.68594 0.90103
 H194 H 0.14839 0.63863 0.92138
 H195 H 0.07799 0.65106 0.82518
 H196 H 0.12020 0.69883 0.80521
 H197 H 0.05225 0.61532 0.87563
 H198 H 0.17684 0.72236 0.78423
 H199 H 0.12460 0.58249 0.91759
 C200 C 1.18202 0.19569 0.24042
 C201 C 1.19847 0.16963 0.26363
 C202 C 1.17506 0.15346 0.29300
 C203 C 1.19566 0.13684 0.32163
 C204 C 1.17458 0.12040 0.34931
 C205 C 1.13226 0.12015 0.34879
 C206 C 1.11178 0.13638 0.31986
 C207 C 1.13283 0.15281 0.29226
 C208 C 1.10829 0.10220 0.37670
 C209 C 1.12294 0.09137 0.41022
 H210 H 1.23012 0.16164 0.26110
 H211 H 1.22823 0.13645 0.32252
 H212 H 1.19179 0.10738 0.37042
 H213 H 1.07927 0.13613 0.31845
 H214 H 1.11586 0.16414 0.27007
 H215 H 1.07751 0.09713 0.37007
 H216 H 1.15221 0.20731 0.24626
 H217 H 1.15386 0.09554 0.41702
 C218 C 1.19863 -0.21139 0.76398
 C219 C 1.16030 -0.21233 0.74904
 C220 C 1.14688 -0.19190 0.71681
 C221 C 1.17326 -0.17320 0.69460
 C222 C 1.15853 -0.15336 0.66531
 C223 C 1.11720 -0.15188 0.65755
 C224 C 1.09122 -0.17154 0.67890
 C225 C 1.10585 -0.19119 0.70824
 C226 C 1.10002 -0.13033 0.62759
 C227 C 1.11756 -0.09981 0.61407
 H228 H 1.13791 -0.22737 0.76300
 H229 H 1.20525 -0.17377 0.69935
 H230 H 1.17967 -0.13958 0.64864
 H231 H 1.05931 -0.17117 0.67329
 H232 H 1.08485 -0.20558 0.72458
 H233 H 1.07034 -0.13661 0.61861
 H234 H 1.22083 -0.19475 0.75206
 H235 H 1.14495 -0.09104 0.62592
 C236 C 0.84206 -0.18544 0.25565
 C237 C 0.83155 -0.15398 0.27464
 C238 C 0.85666 -0.13972 0.30349
 C239 C 0.83947 -0.11397 0.32727
 C240 C 0.86265 -0.09881 0.35389
 C241 C 0.90370 -0.10923 0.35727
 C242 C 0.92088 -0.13477 0.33328
 C243 C 0.89779 -0.14978 0.30666
 C244 C 0.93033 -0.09300 0.38380
 C245 C 0.91654 -0.07320 0.41389
 H246 H 0.80353 -0.13938 0.26861
 H247 H 0.80803 -0.10527 0.32502
 H248 H 0.84838 -0.07842 0.37095
 H249 H 0.95254 -0.14288 0.33484
 H250 H 0.91277 -0.16845 0.28816
 H251 H 0.96219 -0.09804 0.37926
 H252 H 0.86758 -0.20215 0.26439
 H253 H 0.88449 -0.07128 0.41935
 C254 C 0.78675 0.21062 0.74471
 C255 C 0.82609 0.21446 0.73172
 C256 C 0.84350 0.19307 0.70144
 C257 C 0.88484 0.18365 0.70140
 C258 C 0.90222 0.16245 0.67394
 C259 C 0.87859 0.15060 0.64569
 C260 C 0.83758 0.16130 0.64485
 C261 C 0.82003 0.18216 0.67263
 C262 C 0.89636 0.12755 0.61677
 C263 C 0.92672 0.10131 0.62386
 H264 H 0.84662 0.22998 0.74694
 H265 H 0.90365 0.19223 0.72301
 H266 H 0.93422 0.15563 0.67471
 H267 H 0.81897 0.15298 0.62299
 H268 H 0.78830 0.18995 0.67133
 H269 H 0.88307 0.12986 0.59050
 H270 H 0.76916 0.19098 0.73152
 H271 H 0.93484 0.09714 0.65170
 C272 C 0.23621 1.18837 0.19320
 C273 C 0.26023 1.20150 0.16553
 C274 C 0.29003 1.17890 0.14457
 C275 C 0.30564 1.14547 0.15687
 C276 C 0.33269 1.12464 0.13562
 C277 C 0.34532 1.13700 0.10183
 C278 C 0.33015 1.17057 0.08987
 C279 C 0.30302 1.19134 0.11105
 C280 C 0.37298 1.11541 0.07783
 C281 C 0.39728 1.08614 0.08938
 H282 H 0.25559 1.22911 0.15724
 H283 H 0.29738 1.13517 0.18288
 H284 H 0.34287 1.09868 0.14570
 H285 H 0.33922 1.18075 0.06394
 H286 H 0.29167 1.21703 0.10094
 H287 H 0.37516 1.12399 0.05019
 H288 H 0.23962 1.16035 0.20015
 H289 H 0.39847 1.07997 0.11770
 C290 C 0.73999 1.21416 -0.20626
 C291 C 0.73116 1.17776 -0.20672
 C292 C 0.70056 1.16213 -0.18297
 C293 C 0.68498 1.12932 -0.19268
 C294 C 0.65807 1.11239 -0.16999
 C295 C 0.64668 1.12770 -0.13666
 C296 C 0.66164 1.16085 -0.12724
 C297 C 0.68851 1.17782 -0.14997
 C298 C 0.61935 1.11007 -0.11119
 C299 C 0.61429 1.07312 -0.11111
 H300 H 0.74841 1.15908 -0.22373
 H301 H 0.69375 1.11668 -0.21794
 H302 H 0.64621 1.08750 -0.17885
 H303 H 0.65329 1.17327 -0.10177
 H304 H 0.70066 1.20252 -0.14090
 H305 H 0.60520 1.12662 -0.09037
 H306 H 0.72166 1.23163 -0.18893
 H307 H 0.63189 1.05640 -0.12976
 C308 C 0.23959 0.78314 -0.18036
 C309 C 0.24713 0.81955 -0.17815
 C310 C 0.27781 0.83434 -0.15459
 C311 C 0.29182 0.86828 -0.16259
 C312 C 0.32007 0.88375 -0.14074
 C313 C 0.33489 0.86558 -0.11022
 C314 C 0.32025 0.83198 -0.10173
 C315 C 0.29211 0.81638 -0.12372
 C316 C 0.36411 0.88168 -0.08605
 C317 C 0.39192 0.90601 -0.09830
 H318 H 0.23000 0.83832 -0.19484
 H319 H 0.28077 0.88295 -0.18583
 H320 H 0.32948 0.91028 -0.14743
 H321 H 0.33065 0.81774 -0.07801
 H322 H 0.28107 0.79075 -0.11591
 H323 H 0.36458 0.87246 -0.05858
 H324 H 0.25671 0.76400 -0.16414
 H325 H 0.39345 0.91088 -0.12694
 C326 C 0.79229 0.82697 0.20657
 C327 C 0.75873 0.81491 0.18883
 C328 C 0.73102 0.83875 0.16784
 C329 C 0.70971 0.82414 0.13954
 C330 C 0.68369 0.84585 0.11872
 C331 C 0.67784 0.88268 0.12629
 C332 C 0.69897 0.89717 0.15482
 C333 C 0.72514 0.87550 0.17550
 C334 C 0.65110 0.90708 0.10471
 C335 C 0.62072 0.89532 0.08240
 H336 H 0.75385 0.78647 0.18870
 H337 H 0.71382 0.79591 0.13308
 H338 H 0.66907 0.83362 0.09641
 H339 H 0.69505 0.92541 0.16131
 H340 H 0.74016 0.88758 0.19771
 H341 H 0.65509 0.93536 0.10808
 H342 H 0.79807 0.85520 0.20633
 H343 H 0.61573 0.86694 0.08178
   
