data_POSCAR
  _audit_creation_date              2014-09-24
  _audit_creation_method            'ToBaCCo'
  _symmetry_space_group_name_H-M    'P1'
  _symmetry_Int_Tables_number       1
  _symmetry_cell_setting            triclinic
  loop_
  _symmetry_equiv_pos_as_xyz
 x,y,z
_cell_length_a 49.9548
_cell_length_b 49.3562
_cell_length_c 50.4256
_cell_angle_alpha 90.025500
_cell_angle_beta 90.233400
_cell_angle_gamma 90.009500
loop_
  _atom_site_label
  _atom_site_type_symbol
  _atom_site_fract_x
  _atom_site_fract_y
  _atom_site_fract_z
C1 C 0.20779 0.52035 1.03335
 H2 H 0.20684 0.53554 1.01790
 C3 C 0.18986 0.52136 1.05446
 H4 H 0.17499 0.53727 1.05421
 C5 C 0.22730 0.48026 1.05029
 H6 H 0.24173 0.46409 1.04844
 C7 C 0.20970 0.48039 1.07175
 H8 H 0.21205 0.46465 1.08647
 N9 N 0.22609 0.50011 1.03169
 C10 C 0.28841 0.53188 0.98008
 H11 H 0.28865 0.51626 0.96502
 C12 C 0.30664 0.55326 0.97888
 H13 H 0.32061 0.55417 0.96254
 C14 C 0.26996 0.54937 1.01977
 H15 H 0.25607 0.54744 1.03601
 C16 C 0.28785 0.57113 1.01935
 H17 H 0.28750 0.58575 1.03535
 Zn18 Zn 0.24814 0.49945 1.00129
 N19 N 0.27051 0.53035 1.00025
 C20 C 0.22548 0.51834 0.95276
 N21 N 0.22507 0.49850 0.97148
 C22 C 0.20691 0.47802 0.97037
 C23 C 0.18829 0.47677 0.94970
 C24 C 0.20720 0.51787 0.93172
 C25 C 0.28949 0.46748 1.02144
 C26 C 0.30791 0.44625 1.02221
 C27 C 0.28785 0.42812 0.98229
 C28 C 0.26979 0.44973 0.98229
 N29 N 0.27086 0.46880 1.00175
 H30 H 0.23959 0.53484 0.95436
 H31 H 0.20681 0.46272 0.98573
 H32 H 0.17416 0.46015 0.94908
 H33 H 0.20749 0.53410 0.91729
 H34 H 0.29012 0.48314 1.03645
 H35 H 0.32244 0.44548 1.03818
 H36 H 0.28704 0.41345 0.96635
 H37 H 0.25532 0.45150 0.96642
 C38 C 0.30665 0.57316 0.99879
 C39 C 0.19030 0.50108 1.07424
 C40 C 0.30735 0.42628 1.00236
 C41 C 0.18819 0.49696 0.93008
 C42 C 0.79230 0.51985 -0.03264
 H43 H 0.79310 0.53557 -0.01770
 C44 C 0.81020 0.52030 -0.05381
 H45 H 0.82487 0.53641 -0.05492
 C46 C 0.77288 0.47913 -0.04855
 H47 H 0.75860 0.46288 -0.04621
 C48 C 0.79044 0.47876 -0.07003
 H49 H 0.78912 0.46244 -0.08433
 N50 N 0.77401 0.49958 -0.03049
 C51 C 0.71069 0.53296 0.01900
 H52 H 0.71002 0.51778 0.03445
 C53 C 0.69265 0.55454 0.01929
 H54 H 0.67798 0.55572 0.03500
 C55 C 0.72995 0.54905 -0.02088
 H56 H 0.74421 0.54662 -0.03673
 C57 C 0.71223 0.57095 -0.02138
 H58 H 0.71344 0.58546 -0.03743
 Zn59 Zn 0.75163 0.49995 -0.00030
 N60 N 0.72897 0.53070 -0.00078
 C61 C 0.77324 0.52111 0.04780
 N62 N 0.77433 0.50059 0.02982
 C63 C 0.79284 0.48051 0.03199
 C64 C 0.81101 0.48033 0.05308
 C65 C 0.79108 0.52175 0.06920
 C66 C 0.71080 0.46657 -0.01952
 C67 C 0.69292 0.44484 -0.01978
 C68 C 0.71307 0.42859 0.02084
 C69 C 0.73061 0.45063 0.02030
 N70 N 0.72927 0.46899 0.00022
 H71 H 0.75879 0.53721 0.04545
 H72 H 0.79360 0.46473 0.01711
 H73 H 0.82584 0.46438 0.05420
 H74 H 0.78978 0.53813 0.08343
 H75 H 0.70984 0.48176 -0.03496
 H76 H 0.67809 0.44356 -0.03545
 H77 H 0.71455 0.41408 0.03688
 H78 H 0.74502 0.45318 0.03611
 C79 C 0.69322 0.57388 -0.00114
 C80 C 0.80946 0.49953 -0.07285
 C81 C 0.69386 0.42551 0.00064
 C82 C 0.81033 0.50119 0.07202
 C83 C -0.01936 0.29284 0.46670
 H84 H -0.03430 0.29395 0.48214
 C85 C -0.02014 0.31112 0.44562
 H86 H -0.03557 0.32645 0.44593
 C87 C 0.01976 0.27242 0.44963
 H88 H 0.03543 0.25744 0.45139
 C89 C 0.01985 0.29035 0.42821
 H90 H 0.03526 0.28775 0.41344
 N91 N 0.00022 0.27385 0.46823
 C92 C -0.03322 0.21021 0.51798
 H93 H -0.01790 0.20893 0.53315
 C94 C -0.05508 0.19260 0.51859
 H95 H -0.05633 0.17766 0.53425
 C96 C -0.04946 0.23053 0.47850
 H97 H -0.04699 0.24503 0.46267
 C98 C -0.07163 0.21330 0.47832
 H99 H -0.08630 0.21512 0.46256
 Zn100 Zn 0.00008 0.25088 0.49825
 N101 N -0.03090 0.22881 0.49824
 C102 C -0.01919 0.27293 0.54674
 N103 N 0.00079 0.27356 0.52850
 C104 C 0.02118 0.29171 0.53042
 C105 C 0.02215 0.31009 0.55143
 C106 C -0.01900 0.29096 0.56810
 C107 C 0.03142 0.20890 0.47807
 C108 C 0.05230 0.19014 0.47731
 C109 C 0.06991 0.20961 0.51775
 C110 C 0.04866 0.22800 0.51773
 N111 N 0.03004 0.22741 0.49798
 H112 H -0.03560 0.25887 0.54450
 H113 H 0.03660 0.29201 0.51542
 H114 H 0.03866 0.32425 0.55270
 H115 H -0.03536 0.29053 0.58211
 H116 H 0.01612 0.20864 0.46282
 H117 H 0.05317 0.17575 0.46114
 H118 H 0.08427 0.21007 0.53388
 H119 H 0.04685 0.24238 0.53377
 C120 C -0.07463 0.19397 0.49854
 C121 C -0.00031 0.31031 0.42573
 C122 C 0.07187 0.19027 0.49740
 C123 C 0.00179 0.30998 0.57056
 C124 C 0.98038 0.70765 0.53396
 H125 H 0.96521 0.70638 0.51864
 C126 C 0.98003 0.68950 0.55516
 H127 H 0.96456 0.67416 0.55592
 C128 C 1.01963 0.72854 0.55082
 H129 H 1.03528 0.74350 0.54884
 C130 C 1.02007 0.71075 0.57236
 H131 H 1.03583 0.71258 0.58705
 N132 N 0.99987 0.72680 0.53227
 C133 C 0.96588 0.78981 0.48183
 H134 H 0.98113 0.79097 0.46670
 C135 C 0.94406 0.80744 0.48106
 H136 H 0.94276 0.82229 0.46531
 C137 C 0.94987 0.76980 0.52143
 H138 H 0.95243 0.75543 0.53737
 C139 C 0.92773 0.78707 0.52144
 H140 H 0.91317 0.78542 0.53721
 Zn141 Zn 0.99941 0.74948 0.50203
 N142 N 0.96832 0.77137 0.50172
 C143 C 0.98023 0.72692 0.45354
 N144 N 1.00017 0.72653 0.47199
 C145 C 1.02066 0.70849 0.47039
 C146 C 1.02182 0.69003 0.44947
 C147 C 0.98060 0.70879 0.43225
 C148 C 1.03067 0.79182 0.52195
 C149 C 1.05154 0.81060 0.52266
 C150 C 1.06905 0.79081 0.48248
 C151 C 1.04781 0.77240 0.48254
 N152 N 1.02925 0.77311 0.50219
 H153 H 0.96374 0.74091 0.45551
 H154 H 1.03605 0.70839 0.48555
 H155 H 1.03845 0.67601 0.44844
 H156 H 0.96431 0.70907 0.41803
 H157 H 1.01543 0.79217 0.53713
 H158 H 1.05245 0.82513 0.53873
 H159 H 1.08336 0.79022 0.46643
 H160 H 1.04597 0.75787 0.46661
 C161 C 0.92465 0.80628 0.50111
 C162 C 1.00009 0.69087 0.57471
 C163 C 1.07107 0.81031 0.50269
 C164 C 1.00153 0.68993 0.43009
 C165 C 0.46776 -0.02119 0.29102
 H166 H 0.48322 -0.03650 0.29205
 C167 C 0.44661 -0.02167 0.30901
 H168 H 0.44604 -0.03739 0.32396
 C169 C 0.45059 0.01864 0.27099
 H170 H 0.45247 0.03459 0.25646
 C171 C 0.42910 0.01896 0.28863
 H172 H 0.41432 0.03493 0.28712
 N173 N 0.46931 -0.00132 0.27243
 C174 C 0.52056 -0.03468 0.21077
 H175 H 0.53574 -0.01905 0.20996
 C176 C 0.52146 -0.05638 0.19305
 H177 H 0.53728 -0.05638 0.17851
 C178 C 0.48061 -0.05143 0.22966
 H179 H 0.46454 -0.04926 0.24376
 C180 C 0.48063 -0.07347 0.21228
 H181 H 0.46489 -0.08832 0.21444
 Zn182 Zn 0.49981 -0.00130 0.25028
 N183 N 0.50042 -0.03262 0.22864
 C184 C 0.54881 -0.02022 0.27271
 N185 N 0.53012 -0.00018 0.27286
 C186 C 0.53154 0.02062 0.29048
 C187 C 0.55247 0.02195 0.30885
 C188 C 0.57011 -0.01969 0.29076
 C189 C 0.47933 0.03002 0.20892
 C190 C 0.47855 0.05087 0.19024
 C191 C 0.51914 0.06909 0.20939
 C192 C 0.51915 0.04786 0.22772
 N193 N 0.49936 0.02893 0.22721
 H194 H 0.54697 -0.03695 0.25902
 H195 H 0.51619 0.03609 0.29039
 H196 H 0.55331 0.03879 0.32258
 H197 H 0.58448 -0.03611 0.29072
 H198 H 0.46405 0.01448 0.20873
 H199 H 0.46230 0.05146 0.17598
 H200 H 0.53535 0.08365 0.20976
 H201 H 0.53529 0.04626 0.24195
 C202 C 0.50117 -0.07635 0.19327
 C203 C 0.42697 -0.00133 0.30805
 C204 C 0.49873 0.07068 0.19021
 C205 C 0.57203 0.00151 0.30927
 C206 C 0.53570 -0.02093 0.70975
 H207 H 0.52041 -0.03644 0.70876
 C208 C 0.55731 -0.02171 0.69232
 H209 H 0.55843 -0.03786 0.67783
 C210 C 0.55190 0.01972 0.72900
 H211 H 0.54946 0.03612 0.74297
 C212 C 0.57384 0.01974 0.71193
 H213 H 0.58838 0.03595 0.71333
 N214 N 0.53340 -0.00046 0.72765
 C215 C 0.48036 -0.03160 0.78894
 H216 H 0.46500 -0.01616 0.78857
 C217 C 0.47907 -0.05254 0.80748
 H218 H 0.46236 -0.05330 0.82106
 C219 C 0.52093 -0.04908 0.77175
 H220 H 0.53754 -0.04729 0.75822
 C221 C 0.52043 -0.07038 0.78998
 H222 H 0.53674 -0.08482 0.79025
 Zn223 Zn 0.50222 0.00020 0.74881
 N224 N 0.50103 -0.03026 0.77153
 C225 C 0.45378 -0.01955 0.72577
 N226 N 0.47259 0.00038 0.72531
 C227 C 0.47172 0.02043 0.70685
 C228 C 0.45121 0.02114 0.68800
 C229 C 0.43288 -0.01962 0.70727
 C230 C 0.52129 0.03314 0.78969
 C231 C 0.52159 0.05483 0.80744
 C232 C 0.48173 0.07230 0.78621
 C233 C 0.48222 0.05025 0.76883
 N234 N 0.50190 0.03130 0.77078
 H235 H 0.45519 -0.03571 0.74014
 H236 H 0.48715 0.03582 0.70672
 H237 H 0.45076 0.03744 0.67364
 H238 H 0.41837 -0.03591 0.70764
 H239 H 0.53639 0.01749 0.79112
 H240 H 0.53695 0.05564 0.82263
 H241 H 0.46600 0.08726 0.78427
 H242 H 0.46664 0.04816 0.75405
 C243 C 0.49939 -0.07219 0.80831
 C244 C 0.57667 -0.00108 0.69314
 C245 C 0.50157 0.07475 0.80590
 C246 C 0.43148 0.00086 0.68796
 Si247 Si 0.25243 -0.00007 0.49920
 Si248 Si 0.74879 0.00102 0.49996
 Si249 Si 0.49980 0.24909 0.99953
 Si250 Si 0.49915 0.75031 -0.00019
 Si251 Si 1.00059 0.50146 0.24928
 Si252 Si -0.00063 0.49859 0.75120
 C253 C 0.13506 0.13108 0.49818
 C254 C 0.14049 0.15796 0.50524
 C255 C 0.12000 0.17728 0.50490
 C256 C 0.09379 0.16993 0.49746
 C257 C 0.08859 0.14286 0.49033
 C258 C 0.10909 0.12360 0.49070
 C259 C 0.15595 0.11102 0.49882
 C260 C 0.17304 0.09378 0.49933
 C261 C 0.19292 0.07269 0.49989
 C262 C 0.21126 0.07013 0.47911
 C263 C 0.22966 0.04876 0.47904
 C264 C 0.22991 0.02989 0.49983
 C265 C 0.21159 0.03262 0.52066
 C266 C 0.19323 0.05397 0.52074
 H267 H 0.16054 0.16398 0.51102
 H268 H 0.12470 0.19800 0.51021
 H269 H 0.06857 0.13646 0.48491
 H270 H 0.10463 0.10283 0.48531
 H271 H 0.21104 0.08436 0.46277
 H272 H 0.24320 0.04679 0.46248
 H273 H 0.21127 0.01802 0.53669
 H274 H 0.17901 0.05563 0.53683
 C275 C 0.63458 0.63764 -0.00234
 C276 C 0.64683 0.63017 0.02156
 C277 C 0.66622 0.60974 0.02192
 C278 C 0.67358 0.59647 -0.00166
 C279 C 0.66144 0.60444 -0.02565
 C280 C 0.64204 0.62486 -0.02596
 C281 C 0.61344 0.65745 -0.00245
 C282 C 0.59520 0.67345 -0.00243
 C283 C 0.57278 0.69175 -0.00225
 C284 C 0.57676 0.71984 -0.00258
 C285 C 0.55475 0.73737 -0.00209
 C286 C 0.52859 0.72698 -0.00113
 C287 C 0.52480 0.69880 -0.00114
 C288 C 0.54676 0.68131 -0.00163
 H289 H 0.64118 0.63990 0.03997
 H290 H 0.67544 0.60430 0.04065
 H291 H 0.66639 0.59439 -0.04408
 H292 H 0.63254 0.63036 -0.04455
 H293 H 0.59682 0.72816 -0.00317
 H294 H 0.55813 0.75904 -0.00247
 H295 H 0.50495 0.69010 -0.00078
 H296 H 0.54344 0.65962 -0.00148
 C297 C 0.86050 -0.13566 0.50121
 C298 C 0.87290 -0.14311 0.52505
 C299 C 0.89342 -0.16236 0.52509
 C300 C 0.90188 -0.17438 0.50124
 C301 C 0.88896 -0.16709 0.47743
 C302 C 0.86843 -0.14784 0.47744
 C303 C 0.84071 -0.11449 0.50099
 C304 C 0.82478 -0.09615 0.50081
 C305 C 0.80665 -0.07350 0.50058
 C306 C 0.81694 -0.04716 0.49966
 C307 C 0.79965 -0.02494 0.49946
 C308 C 0.77182 -0.02880 0.50006
 C309 C 0.76159 -0.05528 0.50120
 C310 C 0.77893 -0.07755 0.50140
 H311 H 0.86706 -0.13365 0.54354
 H312 H 0.90320 -0.16724 0.54369
 H313 H 0.89479 -0.17622 0.45880
 H314 H 0.85900 -0.14218 0.45886
 H315 H 0.83837 -0.04379 0.49914
 H316 H 0.80824 -0.00486 0.49895
 H317 H 0.74020 -0.05870 0.50207
 H318 H 0.77074 -0.09785 0.50225
 C319 C 0.36606 0.36258 1.00113
 C320 C 0.37348 0.38894 1.00823
 C321 C 0.35437 0.40959 1.00875
 C322 C 0.32750 0.40415 1.00217
 C323 C 0.32020 0.37755 0.99510
 C324 C 0.33938 0.35690 0.99461
 C325 C 0.38602 0.34158 1.00034
 C326 C 0.40331 0.32456 0.99976
 C327 C 0.42463 0.30498 0.99918
 C328 C 0.43965 0.30146 0.97605
 C329 C 0.46167 0.28400 0.97604
 C330 C 0.46884 0.26994 0.99916
 C331 C 0.45344 0.27308 1.02216
 C332 C 0.43141 0.29056 1.02216
 H333 H 0.39410 0.39358 1.01320
 H334 H 0.36073 0.42991 1.01385
 H335 H 0.29963 0.37268 0.99020
 H336 H 0.33341 0.33654 0.98912
 H337 H 0.43469 0.31264 0.95821
 H338 H 0.47347 0.28195 0.95818
 H339 H 0.45880 0.26268 1.04030
 H340 H 0.42004 0.29327 1.04022
 C341 C 0.86024 0.13701 0.49818
 C342 C 0.86865 0.14885 0.52202
 C343 C 0.88958 0.16766 0.52213
 C344 C 0.90241 0.17484 0.49835
 C345 C 0.89356 0.16309 0.47444
 C346 C 0.87263 0.14428 0.47439
 C347 C 0.83972 0.11656 0.49824
 C348 C 0.82303 0.09892 0.49826
 C349 C 0.80380 0.07723 0.49825
 C350 C 0.79038 0.07034 0.52163
 C351 C 0.77317 0.04800 0.52207
 C352 C 0.76929 0.03240 0.49912
 C353 C 0.78236 0.03968 0.47562
 C354 C 0.79955 0.06200 0.47518
 H355 H 0.85921 0.14334 0.54056
 H356 H 0.89572 0.17660 0.54080
 H357 H 0.90325 0.16790 0.45586
 H358 H 0.86640 0.13510 0.45584
 H359 H 0.79366 0.08188 0.53964
 H360 H 0.76352 0.04257 0.54050
 H361 H 0.77973 0.02772 0.45778
 H362 H 0.80994 0.06705 0.45703
 C363 C 0.36516 0.63708 -0.00100
 C364 C 0.33869 0.64263 0.00618
 C365 C 0.31956 0.62191 0.00599
 C366 C 0.32671 0.59538 -0.00142
 C367 C 0.35337 0.59009 -0.00869
 C368 C 0.37242 0.61080 -0.00847
 C369 C 0.38512 0.65810 -0.00041
 C370 C 0.40242 0.67512 0.00003
 C371 C 0.42379 0.69467 0.00048
 C372 C 0.43038 0.70900 -0.02255
 C373 C 0.45246 0.72641 -0.02266
 C374 C 0.46812 0.72958 0.00029
 C375 C 0.46114 0.71561 0.02347
 C376 C 0.43907 0.69822 0.02357
 H377 H 0.33285 0.66292 0.01197
 H378 H 0.29914 0.62668 0.01141
 H379 H 0.35962 0.56983 -0.01407
 H380 H 0.39289 0.60626 -0.01394
 H381 H 0.41881 0.70625 -0.04058
 H382 H 0.45767 0.73674 -0.04084
 H383 H 0.47314 0.71769 0.04129
 H384 H 0.43426 0.68711 0.04145
 C385 C 0.13438 -0.13063 0.50181
 C386 C 0.13973 -0.15757 0.49500
 C387 C 0.11920 -0.17685 0.49538
 C388 C 0.09303 -0.16939 0.50262
 C389 C 0.08791 -0.14225 0.50952
 C390 C 0.10844 -0.12304 0.50910
 C391 C 0.15530 -0.11060 0.50104
 C392 C 0.17244 -0.09341 0.50037
 C393 C 0.19238 -0.07239 0.49955
 C394 C 0.21133 -0.07003 0.51996
 C395 C 0.22987 -0.04878 0.51974
 C396 C 0.22965 -0.02983 0.49901
 C397 C 0.21070 -0.03236 0.47856
 C398 C 0.19220 -0.05359 0.47878
 H399 H 0.15975 -0.16367 0.48935
 H400 H 0.12384 -0.19762 0.49026
 H401 H 0.06792 -0.13577 0.51478
 H402 H 0.10405 -0.10221 0.51430
 H403 H 0.21151 -0.08434 0.53625
 H404 H 0.24392 -0.04696 0.53601
 H405 H 0.21002 -0.01770 0.46259
 H406 H 0.17752 -0.05510 0.46298
 C407 C 0.63552 0.36145 1.00196
 C408 C 0.64319 0.37425 1.02557
 C409 C 0.66251 0.39474 1.02523
 C410 C 0.67437 0.40278 1.00121
 C411 C 0.66682 0.38948 0.97764
 C412 C 0.64751 0.36897 0.97804
 C413 C 0.61438 0.34163 1.00209
 C414 C 0.59613 0.32565 1.00207
 C415 C 0.57365 0.30740 1.00186
 C416 C 0.54766 0.31792 1.00125
 C417 C 0.52564 0.30051 1.00069
 C418 C 0.52934 0.27231 1.00060
 C419 C 0.55547 0.26184 1.00156
 C420 C 0.57754 0.27931 1.00211
 H421 H 0.63390 0.36872 1.04418
 H422 H 0.66761 0.40482 1.04365
 H423 H 0.67582 0.39496 0.95890
 H424 H 0.64169 0.35923 0.95964
 H425 H 0.54440 0.33963 1.00115
 H426 H 0.50582 0.30927 1.00033
 H427 H 0.55878 0.24016 1.00188
 H428 H 0.59758 0.27093 1.00270
 C429 C 0.49944 0.13326 1.13088
 C430 C 0.49216 0.10677 1.12408
 C431 C 0.49188 0.08648 1.14338
 C432 C 0.49887 0.09240 1.16982
 C433 C 0.50620 0.11910 1.17647
 C434 C 0.50645 0.13940 1.15710
 C435 C 0.49969 0.15396 1.11078
 C436 C 0.49965 0.17075 1.09343
 C437 C 0.49927 0.19012 1.07210
 C438 C 0.47910 0.18876 1.05283
 C439 C 0.47916 0.20673 1.03145
 C440 C 0.49951 0.22616 1.02895
 C441 C 0.51932 0.22792 1.04873
 C442 C 0.51927 0.20988 1.07014
 H443 H 0.48680 0.10177 1.10382
 H444 H 0.48657 0.06606 1.13752
 H445 H 0.51142 0.12435 1.19669
 H446 H 0.51207 0.15986 1.16259
 H447 H 0.46341 0.17367 1.05423
 H448 H 0.46326 0.20535 1.01695
 H449 H 0.53486 0.24309 1.04777
 H450 H 0.53489 0.21124 1.08504
 C451 C 0.00103 0.63240 0.63787
 C452 C 0.02501 0.64043 0.62597
 C453 C 0.02477 0.65973 0.60569
 C454 C 0.00049 0.67121 0.59699
 C455 C -0.02348 0.66324 0.60932
 C456 C -0.02318 0.64395 0.62962
 C457 C 0.00117 0.61165 0.65790
 C458 C 0.00124 0.59389 0.67430
 C459 C 0.00128 0.57226 0.69341
 C460 C 0.02195 0.55312 0.69334
 C461 C 0.02145 0.53141 0.71110
 C462 C 0.00037 0.52874 0.72919
 C463 C -0.02029 0.54798 0.72927
 C464 C -0.01980 0.56971 0.71147
 H465 H 0.04385 0.63150 0.63211
 H466 H 0.04350 0.66516 0.59636
 H467 H -0.04244 0.67196 0.60331
 H468 H -0.04186 0.63788 0.63871
 H469 H 0.03826 0.55478 0.67934
 H470 H 0.03738 0.51654 0.71055
 H471 H -0.03704 0.54608 0.74265
 H472 H -0.03602 0.58428 0.71154
 C473 C 0.49900 0.86538 -0.13220
 C474 C 0.50686 0.85925 -0.15813
 C475 C 0.50692 0.87950 -0.17756
 C476 C 0.49907 0.90612 -0.17127
 C477 C 0.49118 0.91200 -0.14514
 C478 C 0.49115 0.89177 -0.12578
 C479 C 0.49907 0.84478 -0.11200
 C480 C 0.49893 0.82808 -0.09456
 C481 C 0.49851 0.80883 -0.07313
 C482 C 0.51836 0.78892 -0.07104
 C483 C 0.51842 0.77102 -0.04952
 C484 C 0.49878 0.77306 -0.02976
 C485 C 0.47857 0.79263 -0.03239
 C486 C 0.47850 0.81047 -0.05388
 H487 H 0.51293 0.83887 -0.16333
 H488 H 0.51284 0.87427 -0.19755
 H489 H 0.48545 0.93237 -0.13953
 H490 H 0.48513 0.89676 -0.10574
 H491 H 0.53386 0.78734 -0.08592
 H492 H 0.53385 0.75572 -0.04846
 H493 H 0.46280 0.79423 -0.01791
 H494 H 0.46293 0.82569 -0.05538
 C495 C 0.99951 0.36797 0.36297
 C496 C 0.97569 0.36132 0.37580
 C497 C 0.97564 0.34217 0.39619
 C498 C 0.99956 0.32915 0.40434
 C499 C 1.02339 0.33591 0.39072
 C500 C 1.02330 0.35513 0.37036
 C501 C 0.99962 0.38861 0.34284
 C502 C 0.99957 0.40631 0.32637
 C503 C 0.99938 0.42790 0.30722
 C504 C 0.97870 0.44704 0.30748
 C505 C 0.97899 0.46870 0.28966
 C506 C 0.99986 0.47133 0.27132
 C507 C 1.02053 0.45209 0.27107
 C508 C 1.02024 0.43041 0.28892
 H509 H 0.95708 0.37101 0.37008
 H510 H 0.95650 0.33717 0.40484
 H511 H 1.04255 0.32753 0.39641
 H512 H 1.04194 0.36033 0.36069
 H513 H 0.96255 0.44541 0.32166
 H514 H 0.96307 0.48358 0.29036
 H515 H 1.03712 0.45396 0.25749
 H516 H 1.03645 0.41583 0.28870
 C517 C 0.50062 0.86046 0.13576
 C518 C 0.47686 0.86827 0.14807
 C519 C 0.47703 0.88868 0.16731
 C520 C 0.50110 0.90195 0.17462
 C521 C 0.52500 0.89327 0.16222
 C522 C 0.52469 0.87283 0.14304
 C523 C 0.50018 0.84053 0.11491
 C524 C 0.49979 0.82434 0.09701
 C525 C 0.49932 0.80562 0.07513
 C526 C 0.47624 0.80308 0.05951
 C527 C 0.47620 0.78604 0.03738
 C528 C 0.49932 0.77157 0.03043
 C529 C 0.52211 0.77345 0.04671
 C530 C 0.52216 0.79053 0.06886
 H531 H 0.45803 0.85897 0.14240
 H532 H 0.45788 0.89479 0.17522
 H533 H 0.54428 0.90159 0.16764
 H534 H 0.54328 0.86677 0.13376
 H535 H 0.45835 0.81445 0.06432
 H536 H 0.45802 0.78413 0.02581
 H537 H 0.53999 0.76206 0.04240
 H538 H 0.54008 0.79218 0.08092
 C539 C 0.00104 0.36856 0.63370
 C540 C 0.00890 0.37620 0.60818
 C541 C 0.00931 0.35712 0.58771
 C542 C 0.00182 0.33008 0.59249
 C543 C -0.00597 0.32256 0.61826
 C544 C -0.00634 0.34170 0.63872
 C545 C 0.00029 0.38847 0.65453
 C546 C -0.00032 0.40558 0.67159
 C547 C -0.00100 0.42652 0.69143
 C548 C 0.01966 0.42865 0.71017
 C549 C 0.01964 0.44983 0.72860
 C550 C -0.00113 0.46896 0.72849
 C551 C -0.02183 0.46667 0.70975
 C552 C -0.02181 0.44550 0.69135
 H553 H 0.01455 0.39697 0.60405
 H554 H 0.01500 0.36365 0.56803
 H555 H -0.01156 0.30184 0.62262
 H556 H -0.01243 0.33557 0.65843
 H557 H 0.03599 0.41420 0.71026
 H558 H 0.03611 0.45145 0.74249
 H559 H -0.03783 0.48148 0.70916
 H560 H -0.03780 0.44417 0.67682
 C561 C 0.50007 0.13873 0.86378
 C562 C 0.47616 0.12661 0.85540
 C563 C 0.47658 0.10612 0.83625
 C564 C 0.50098 0.09743 0.82527
 C565 C 0.52486 0.11004 0.83355
 C566 C 0.52439 0.13054 0.85269
 C567 C 0.49974 0.15875 0.88454
 C568 C 0.49949 0.17503 0.90237
 C569 C 0.49922 0.19385 0.92417
 C570 C 0.47620 0.19660 0.93965
 C571 C 0.47637 0.21367 0.96177
 C572 C 0.49963 0.22795 0.96883
 C573 C 0.52235 0.22587 0.95266
 C574 C 0.52219 0.20877 0.93053
 H575 H 0.45724 0.13268 0.86398
 H576 H 0.45790 0.09658 0.83057
 H577 H 0.54391 0.10404 0.82523
 H578 H 0.54302 0.13978 0.85905
 H579 H 0.45820 0.18537 0.93478
 H580 H 0.45825 0.21573 0.97325
 H581 H 0.54035 0.23710 0.95707
 H582 H 0.54007 0.20694 0.91858
 C583 C 1.00205 0.63139 0.36691
 C584 C 0.99434 0.65815 0.36178
 C585 C 0.99423 0.67726 0.38228
 C586 C 1.00188 0.66982 0.40818
 C587 C 1.00963 0.64287 0.41307
 C588 C 1.00971 0.62382 0.39257
 C589 C 1.00197 0.61154 0.34601
 C590 C 1.00199 0.59444 0.32893
 C591 C 1.00215 0.57347 0.30911
 C592 C 0.98124 0.57153 0.29061
 C593 C 0.98087 0.55034 0.27217
 C594 C 1.00148 0.53104 0.27204
 C595 C 1.02240 0.53313 0.29055
 C596 C 1.02278 0.55429 0.30895
 H597 H 0.98841 0.66423 0.34197
 H598 H 0.98844 0.69791 0.37784
 H599 H 1.01522 0.63639 0.43284
 H600 H 1.01561 0.60313 0.39677
 H601 H 0.96506 0.58613 0.29071
 H602 H 0.96424 0.54887 0.25845
 H603 H 1.03829 0.51820 0.29095
 H604 H 1.03896 0.55548 0.32329
 C605 C 1.13274 0.50113 0.13626
 C606 C 1.14524 0.47701 0.12882
 C607 C 1.16445 0.47698 0.10875
 C608 C 1.17155 0.50120 0.09545
 C609 C 1.15890 0.52545 0.10366
 C610 C 1.13974 0.52534 0.12378
 C611 C 1.11211 0.50091 0.15609
 C612 C 1.09448 0.50073 0.17233
 C613 C 1.07304 0.50052 0.19129
 C614 C 1.05402 0.47969 0.19070
 C615 C 1.03262 0.47994 0.20845
 C616 C 1.03014 0.50091 0.22705
 C617 C 1.04923 0.52176 0.22759
 C618 C 1.07064 0.52152 0.20981
 H619 H 1.13978 0.45807 0.13823
 H620 H 1.17254 0.45756 0.10298
 H621 H 1.16415 0.54487 0.09526
 H622 H 1.13032 0.54420 0.12955
 H623 H 1.05558 0.46344 0.17634
 H624 H 1.01787 0.46387 0.20754
 H625 H 1.04747 0.53844 0.24138
 H626 H 1.08513 0.53785 0.21029
 C627 C 0.63958 -0.00031 0.63520
 C628 C 0.63202 -0.02471 0.64717
 C629 C 0.61188 -0.02494 0.66636
 C630 C 0.59902 -0.00075 0.67380
 C631 C 0.60708 0.02372 0.66192
 C632 C 0.62719 0.02390 0.64274
 C633 C 0.65917 -0.00020 0.61436
 C634 C 0.67506 0.00013 0.59643
 C635 C 0.69335 0.00080 0.57447
 C636 C 0.71302 -0.01919 0.57173
 C637 C 0.73001 -0.01899 0.54973
 C638 C 0.72729 0.00107 0.53015
 C639 C 0.70798 0.02143 0.53342
 C640 C 0.69105 0.02124 0.55539
 H641 H 0.64147 -0.04357 0.64146
 H642 H 0.60635 -0.04404 0.67536
 H643 H 0.59731 0.04262 0.66691
 H644 H 0.63277 0.04287 0.63347
 H645 H 0.71511 -0.03501 0.58648
 H646 H 0.74513 -0.03453 0.54818
 H647 H 0.70588 0.03751 0.51906
 H648 H 0.67602 0.03693 0.55739
 C649 C -0.13280 0.49896 0.86415
 C650 C -0.14002 0.47472 0.87661
 C651 C -0.15908 0.47483 0.89685
 C652 C -0.17113 0.49923 0.90492
 C653 C -0.16396 0.52344 0.89203
 C654 C -0.14492 0.52328 0.87179
 C655 C -0.11230 0.49901 0.84420
 C656 C -0.09474 0.49915 0.82786
 C657 C -0.07334 0.49944 0.80886
 C658 C -0.07089 0.47847 0.79030
 C659 C -0.04944 0.47828 0.77255
 C660 C -0.03038 0.49916 0.77317
 C661 C -0.03294 0.52012 0.79177
 C662 C -0.05437 0.52031 0.80948
 H663 H -0.13065 0.45580 0.87095
 H664 H -0.16389 0.45592 0.90661
 H665 H -0.17313 0.54249 0.89756
 H666 H -0.13947 0.54216 0.86228
 H667 H -0.08534 0.46210 0.78980
 H668 H -0.04761 0.46162 0.75876
 H669 H -0.01821 0.53620 0.79274
 H670 H -0.05597 0.53654 0.82386
 C671 C 0.36467 -0.00023 0.36664
 C672 C 0.37254 -0.02476 0.35514
 C673 C 0.39252 -0.02511 0.33580
 C674 C 0.40491 -0.00088 0.32772
 C675 C 0.39659 0.02371 0.33916
 C676 C 0.37662 0.02401 0.35850
 C677 C 0.34497 -0.00000 0.38740
 C678 C 0.32884 0.00020 0.40511
 C679 C 0.31001 0.00048 0.42664
 C680 C 0.29152 -0.02064 0.42949
 C681 C 0.27386 -0.02078 0.45095
 C682 C 0.27449 0.00029 0.46963
 C683 C 0.29306 0.02138 0.46670
 C684 C 0.31069 0.02152 0.44526
 H685 H 0.36341 -0.04364 0.36129
 H686 H 0.39825 -0.04432 0.32714
 H687 H 0.40598 0.04265 0.33365
 H688 H 0.37077 0.04310 0.36738
 H689 H 0.29097 -0.03713 0.41532
 H690 H 0.26010 -0.03754 0.45305
 H691 H 0.29404 0.03762 0.48112
 H692 H 0.32502 0.03788 0.44335
 C693 C 0.12916 0.49635 0.86779
 C694 C 0.15562 0.50361 0.86217
 C695 C 0.17490 0.50373 0.88238
 C696 C 0.16791 0.49657 0.90847
 C697 C 0.14124 0.48927 0.91386
 C698 C 0.12204 0.48917 0.89365
 C699 C 0.10915 0.49648 0.84719
 C700 C 0.09197 0.49654 0.83034
 C701 C 0.07098 0.49656 0.81072
 C702 C 0.06884 0.51793 0.79257
 C703 C 0.04773 0.51847 0.77427
 C704 C 0.02870 0.49756 0.77393
 C705 C 0.03096 0.47619 0.79212
 C706 C 0.05206 0.47565 0.81038
 H707 H 0.16135 0.50917 0.84221
 H708 H 0.19530 0.50916 0.87756
 H709 H 0.13513 0.48407 0.93379
 H710 H 0.10158 0.48364 0.89823
 H711 H 0.08325 0.53433 0.79281
 H712 H 0.04612 0.53544 0.76081
 H713 H 0.01625 0.46007 0.79234
 H714 H 0.05341 0.45912 0.82445
 C715 C 0.63467 0.00202 0.36803
 C716 C 0.64035 -0.00572 0.34195
 C717 C 0.62004 -0.00581 0.32275
 C718 C 0.59378 0.00189 0.32944
 C719 C 0.58834 0.00969 0.35571
 C720 C 0.60865 0.00975 0.37484
 C721 C 0.65533 0.00187 0.38800
 C722 C 0.67211 0.00185 0.40524
 C723 C 0.69150 0.00196 0.42643
 C724 C 0.70639 -0.02135 0.43212
 C725 C 0.72408 -0.02164 0.45370
 C726 C 0.72677 0.00129 0.46999
 C727 C 0.71246 0.02488 0.46358
 C728 C 0.69482 0.02518 0.44202
 H729 H 0.66044 -0.01171 0.33645
 H730 H 0.62491 -0.01165 0.30264
 H731 H 0.56828 0.01530 0.36161
 H732 H 0.60401 0.01567 0.39500
 H733 H 0.70411 -0.03939 0.42007
 H734 H 0.73529 -0.03989 0.45761
 H735 H 0.71494 0.04316 0.47516
 H736 H 0.68359 0.04343 0.43767
 C737 C 0.86873 0.50273 0.13488
 C738 C 0.85679 0.47824 0.12739
 C739 C 0.83756 0.47775 0.10717
 C740 C 0.83002 0.50181 0.09416
 C741 C 0.84193 0.52638 0.10206
 C742 C 0.86117 0.52681 0.12227
 C743 C 0.88930 0.50304 0.15494
 C744 C 0.90684 0.50321 0.17142
 C745 C 0.92816 0.50329 0.19070
 C746 C 0.93066 0.48193 0.20881
 C747 C 0.95202 0.48146 0.22681
 C748 C 0.97096 0.50245 0.22692
 C749 C 0.96836 0.52382 0.20877
 C750 C 0.94701 0.52428 0.19078
 H751 H 0.86248 0.45948 0.13703
 H752 H 0.82852 0.45858 0.10177
 H753 H 0.83684 0.54518 0.09220
 H754 H 0.87039 0.54587 0.12783
 H755 H 0.91631 0.46546 0.20876
 H756 H 0.95387 0.46449 0.24023
 H757 H 0.98301 0.54000 0.20835
 H758 H 0.94538 0.54082 0.17674
 C759 C 0.36945 0.00018 0.62855
 C760 C 0.39565 0.00726 0.62174
 C761 C 0.41578 0.00755 0.64106
 C762 C 0.40997 0.00074 0.66752
 C763 C 0.38355 -0.00636 0.67418
 C764 C 0.36342 -0.00661 0.65480
 C765 C 0.34889 -0.00024 0.60846
 C766 C 0.33204 -0.00055 0.59127
 C767 C 0.31237 -0.00087 0.57034
 C768 C 0.31225 -0.02199 0.55179
 C769 C 0.29388 -0.02180 0.53082
 C770 C 0.27537 -0.00059 0.52829
 C771 C 0.27551 0.02053 0.54692
 C772 C 0.29391 0.02034 0.56791
 H773 H 0.40056 0.01245 0.60146
 H774 H 0.43598 0.01269 0.63520
 H775 H 0.37839 -0.01141 0.69442
 H776 H 0.34318 -0.01208 0.66029
 H777 H 0.32656 -0.03841 0.55337
 H778 H 0.29427 -0.03808 0.51642
 H779 H 0.26180 0.03738 0.54512
 H780 H 0.29397 0.03690 0.58203
   
