data_POSCAR
  _audit_creation_date              2014-09-24
  _audit_creation_method            'ToBaCCo'
  _symmetry_space_group_name_H-M    'P1'
  _symmetry_Int_Tables_number       1
  _symmetry_cell_setting            triclinic
  loop_
  _symmetry_equiv_pos_as_xyz
 x,y,z
_cell_length_a 42.5593
_cell_length_b 42.6091
_cell_length_c 8.6921
_cell_angle_alpha 90.002300
_cell_angle_beta 90.038600
_cell_angle_gamma 89.992100
loop_
  _atom_site_label
  _atom_site_type_symbol
  _atom_site_fract_x
  _atom_site_fract_y
  _atom_site_fract_z
O1 O 0.28525 0.21914 0.16487
 O2 O 0.22573 0.28001 0.08971
 O3 O 0.28506 0.28021 0.16326
 O4 O 0.22590 0.21885 0.09090
 O5 O 0.21340 0.21907 0.33775
 O6 O 0.27254 0.28043 0.41013
 O7 O 0.21322 0.28019 0.33659
 O8 O 0.27274 0.21932 0.41174
 Cu9 Cu 0.25677 0.24953 0.10242
 Cu10 Cu 0.24167 0.24976 0.39877
 C11 C 0.28909 0.20899 0.30076
 C12 C 0.20942 0.29039 0.20076
 C13 C 0.28881 0.29066 0.29867
 C14 C 0.20964 0.20861 0.20238
 O15 O 0.78526 0.27988 0.33514
 O16 O 0.72605 0.21851 0.40594
 O17 O 0.78547 0.21877 0.33381
 O18 O 0.72589 0.27965 0.40744
 O19 O 0.71360 0.27982 0.16022
 O20 O 0.77318 0.21895 0.08661
 O21 O 0.71376 0.21873 0.15876
 O22 O 0.77297 0.28009 0.08793
 Cu23 Cu 0.75695 0.24917 0.39533
 Cu24 Cu 0.74210 0.24941 0.09863
 C25 C 0.78912 0.29035 0.19988
 C26 C 0.70987 0.20828 0.29405
 C27 C 0.78942 0.20861 0.19805
 C28 C 0.70968 0.29002 0.29595
 O29 O 0.77405 0.78032 0.90751
 O30 O 0.71458 0.71925 0.83542
 O31 O 0.77393 0.71918 0.90895
 O32 O 0.71472 0.78035 0.83356
 O33 O 0.72723 0.78007 0.58669
 O34 O 0.78643 0.71890 0.66209
 O35 O 0.72709 0.71893 0.58856
 O36 O 0.78656 0.78000 0.66064
 Cu37 Cu 0.74302 0.74980 0.89610
 Cu38 Cu 0.75813 0.74944 0.59975
 C39 C 0.79036 0.79045 0.79599
 C40 C 0.71077 0.70880 0.70008
 C41 C 0.79020 0.70872 0.79798
 C42 C 0.71096 0.79052 0.69766
 O43 O 0.28573 0.78096 0.84312
 O44 O 0.22620 0.71989 0.91366
 O45 O 0.28559 0.71987 0.84142
 O46 O 0.22633 0.78104 0.91526
 O47 O 0.21404 0.78132 0.66808
 O48 O 0.27330 0.72014 0.59420
 O49 O 0.21391 0.72021 0.66644
 O50 O 0.27343 0.78128 0.59591
 Cu51 Cu 0.25723 0.75041 0.90311
 Cu52 Cu 0.24239 0.75077 0.60640
 C53 C 0.28966 0.79142 0.70787
 C54 C 0.20999 0.70974 0.80167
 C55 C 0.28948 0.70969 0.70565
 C56 C 0.21015 0.79151 0.80386
 C57 C 0.98461 0.09726 0.08123
 C58 C 1.01679 0.09706 0.08847
 C59 C 1.02621 0.06631 0.06342
 N60 N 1.00079 0.04784 0.04157
 C61 C 0.97531 0.06662 0.05240
 C62 C 1.05784 0.05626 0.05651
 C63 C 1.06768 0.02511 0.02560
 C64 C 1.09859 0.01654 -0.00300
 C65 C 1.09865 -0.01519 -0.03037
 C66 C 1.06778 -0.02536 -0.01795
 N67 N 1.04914 -0.00069 0.01882
 C68 C 1.05805 -0.05681 -0.04134
 C69 C 1.02645 -0.06682 -0.05228
 C70 C 1.01715 -0.09745 -0.08156
 C71 C 0.98497 -0.09724 -0.08901
 C72 C 0.97556 -0.06650 -0.06356
 N73 N 1.00097 -0.04805 -0.04132
 C74 C 0.94393 -0.05646 -0.05648
 C75 C 0.93409 -0.02533 -0.02518
 C76 C 0.90320 -0.01678 0.00399
 C77 C 0.90314 0.01493 0.03158
 C78 C 0.93400 0.02512 0.01865
 N79 N 0.95263 0.00048 -0.01859
 C80 C 0.94371 0.05658 0.04189
 H81 H 0.96978 0.11766 0.09655
 H82 H 1.03154 0.11732 0.10898
 H83 H 0.97610 0.00163 -0.04911
 H84 H 1.11903 0.03163 -0.00600
 H85 H 1.11915 -0.02910 -0.05845
 H86 H 1.03198 -0.11784 -0.09707
 H87 H 0.97022 -0.11749 -0.10983
 H88 H 0.88265 0.02882 0.06007
 H89 H 1.02563 -0.00181 0.04877
 H90 H 0.88277 -0.03190 0.00728
 C91 C 0.48384 0.59703 0.58974
 C92 C 0.51602 0.59717 0.58285
 C93 C 0.52527 0.56652 0.55369
 N94 N 0.49975 0.54781 0.54229
 C95 C 0.47437 0.56632 0.56413
 C96 C 0.55685 0.55643 0.54339
 C97 C 0.56652 0.52497 0.51986
 C98 C 0.59736 0.51471 0.53304
 C99 C 0.59725 0.48300 0.50515
 C100 C 0.56634 0.47453 0.47549
 N101 N 0.54785 0.50038 0.48214
 C102 C 0.55646 0.44343 0.44377
 C103 C 0.52481 0.43347 0.43606
 C104 C 0.51534 0.40276 0.41024
 C105 C 0.48316 0.40263 0.41698
 C106 C 0.47391 0.43327 0.44629
 N107 N 0.49943 0.45198 0.45791
 C108 C 0.44233 0.44336 0.45666
 C109 C 0.43266 0.47482 0.48036
 C110 C 0.40181 0.48507 0.46749
 C111 C 0.40192 0.51677 0.49554
 C112 C 0.43283 0.52525 0.52494
 N113 N 0.45133 0.49940 0.51802
 C114 C 0.44272 0.55634 0.55669
 H115 H 0.46911 0.61731 0.61034
 H116 H 0.53088 0.61753 0.59861
 H117 H 0.47481 0.49820 0.54850
 H118 H 0.61786 0.52854 0.56191
 H119 H 0.61765 0.46784 0.50848
 H120 H 0.53006 0.38248 0.38959
 H121 H 0.46829 0.38228 0.40105
 H122 H 0.38152 0.53192 0.49242
 H123 H 0.52439 0.50159 0.45140
 H124 H 0.38130 0.47124 0.43872
 C125 C -0.01688 0.40318 0.08811
 C126 C 0.01529 0.40291 0.08121
 C127 C 0.02467 0.43354 0.05246
 N128 N -0.00078 0.45237 0.04133
 C129 C -0.02623 0.43395 0.06293
 C130 C 0.05629 0.44349 0.04219
 C131 C 0.06609 0.47493 0.01900
 C132 C 0.09699 0.48503 0.03185
 C133 C 0.09700 0.51676 0.00448
 C134 C 0.06612 0.52540 -0.02453
 N135 N 0.04752 0.49963 -0.01799
 C136 C 0.05635 0.55657 -0.05551
 C137 C 0.02474 0.56667 -0.06298
 C138 C 0.01539 0.59744 -0.08814
 C139 C -0.01679 0.59770 -0.08148
 C140 C -0.02616 0.56707 -0.05284
 N141 N -0.00072 0.54825 -0.04157
 C142 C -0.05779 0.55711 -0.04274
 C143 C -0.06759 0.52568 -0.01947
 C144 C -0.09848 0.51557 -0.03231
 C145 C -0.09850 0.48385 -0.00471
 C146 C -0.06762 0.47522 0.02440
 N147 N -0.04901 0.50098 0.01774
 C148 C -0.05785 0.44406 0.05562
 H149 H -0.03168 0.38295 0.10842
 H150 H 0.03008 0.38248 0.09668
 H151 H -0.02552 0.50206 0.04808
 H152 H 0.11745 0.47107 0.06012
 H153 H 0.11748 0.53181 0.00771
 H154 H 0.03019 0.61768 -0.10832
 H155 H -0.03158 0.61813 -0.09700
 H156 H -0.11897 0.46879 -0.00789
 H157 H 0.02402 0.49856 -0.04828
 H158 H -0.11894 0.52951 -0.06072
 C159 C 0.51668 0.90297 0.58252
 C160 C 0.48451 0.90327 0.59091
 C161 C 0.47514 0.93401 0.56531
 N162 N 0.50056 0.95239 0.54206
 C163 C 0.52601 0.93356 0.55252
 C164 C 0.44352 0.94413 0.55902
 C165 C 0.43373 0.97526 0.52744
 C166 C 0.40282 0.98387 0.49896
 C167 C 0.40280 1.01557 0.47083
 C168 C 0.43370 1.02569 0.48274
 N169 N 0.45232 1.00103 0.51989
 C170 C 0.44346 1.05711 0.45870
 C171 C 0.47507 1.06705 0.44711
 C172 C 0.48440 1.09765 0.41746
 C173 C 0.51657 1.09736 0.40934
 C174 C 0.52595 1.06661 0.43470
 N175 N 0.50052 1.04822 0.45758
 C176 C 0.55757 1.05649 0.44101
 C177 C 0.56737 1.02534 0.47217
 C178 C 0.59829 1.01671 0.50025
 C179 C 0.59830 0.98500 0.52810
 C180 C 0.56739 0.97490 0.51648
 N181 N 0.54877 0.99958 0.47973
 C182 C 0.55762 0.94348 0.54060
 H183 H 0.53148 0.88255 0.59786
 H184 H 0.46974 0.88307 0.61248
 H185 H 0.52523 0.99850 0.45027
 H186 H 0.38234 0.96881 0.49649
 H187 H 0.38231 1.02948 0.44265
 H188 H 0.46960 1.11807 0.40219
 H189 H 0.53135 1.11757 0.38804
 H190 H 0.61880 0.97106 0.55596
 H191 H 0.47585 1.00213 0.54970
 H192 H 0.61877 1.03176 0.50261
 C193 C 1.18774 0.18605 0.17671
 C194 C 1.16818 0.16606 0.15548
 C195 C 1.14513 0.14271 0.13230
 C196 C 1.12534 0.12284 0.11371
 C197 C 1.10205 0.09965 0.09312
 C198 C 1.08204 0.07991 0.07622
 C199 C 0.68749 0.68510 0.67295
 C200 C 0.66780 0.66525 0.65138
 C201 C 0.64462 0.64208 0.62724
 C202 C 0.62472 0.62238 0.60736
 C203 C 0.60129 0.59940 0.58477
 C204 C 0.58118 0.57986 0.56586
 C205 C -0.18775 0.31422 0.17344
 C206 C -0.16820 0.33425 0.15288
 C207 C -0.14517 0.35763 0.13031
 C208 C -0.12540 0.37753 0.11210
 C209 C -0.10211 0.40073 0.09185
 C210 C -0.08209 0.42045 0.07515
 C211 C 0.31297 0.81511 0.68140
 C212 C 0.33268 0.83497 0.66056
 C213 C 0.35588 0.85816 0.63746
 C214 C 0.37579 0.87789 0.61863
 C215 C 0.39920 0.90094 0.59746
 C216 C 0.41928 0.92057 0.57984
 C217 C -0.18787 0.68625 -0.17513
 C218 C -0.16827 0.66634 -0.15256
 C219 C -0.14519 0.64311 -0.12748
 C220 C -0.12537 0.62334 -0.10707
 C221 C -0.10205 0.60027 -0.08411
 C222 C -0.08201 0.58064 -0.06511
 C223 C 0.31246 1.18543 0.32911
 C224 C 0.33225 1.16571 0.35142
 C225 C 0.35556 1.14268 0.37610
 C226 C 0.37555 1.12307 0.39611
 C227 C 0.39905 1.10016 0.41847
 C228 C 0.41919 1.08061 0.43695
 C229 C 1.18822 -0.18600 -0.16989
 C230 C 1.16862 -0.16607 -0.14789
 C231 C 1.14554 -0.14281 -0.12349
 C232 C 1.12572 -0.12302 -0.10368
 C233 C 1.10238 -0.09994 -0.08144
 C234 C 1.08233 -0.08031 -0.06303
 C235 C 0.68643 0.31373 0.32339
 C236 C 0.66680 0.33365 0.34475
 C237 C 0.64370 0.35695 0.36804
 C238 C 0.62390 0.37680 0.38668
 C239 C 0.60061 0.39999 0.40727
 C240 C 0.58062 0.41974 0.42414
 C241 C 0.81363 -0.18582 -0.17693
 C242 C 0.83329 -0.16594 -0.15577
 C243 C 0.85645 -0.14270 -0.13256
 C244 C 0.87631 -0.12291 -0.11390
 C245 C 0.89968 -0.09980 -0.09324
 C246 C 0.91972 -0.08010 -0.07630
 C247 C 0.31199 0.31445 0.32600
 C248 C 0.33160 0.33437 0.34779
 C249 C 0.35470 0.35760 0.37225
 C250 C 0.37454 0.37735 0.39236
 C251 C 0.39792 0.40037 0.41514
 C252 C 0.41801 0.41993 0.43414
 C253 C 0.18672 0.68600 -0.17198
 C254 C 0.16706 0.66608 -0.15151
 C255 C 0.14390 0.64281 -0.12909
 C256 C 0.12404 0.62300 -0.11108
 C257 C 0.10067 0.59987 -0.09113
 C258 C 0.08061 0.58018 -0.07471
 C259 C 0.68790 1.18578 0.31923
 C260 C 0.66826 1.16585 0.34026
 C261 C 0.64512 1.14260 0.36345
 C262 C 0.62526 1.12282 0.38222
 C263 C 0.60188 1.09973 0.40320
 C264 C 0.58181 1.08007 0.42057
 C265 C 0.18621 0.31412 0.17261
 C266 C 0.16662 0.33404 0.15043
 C267 C 0.14357 0.35732 0.12580
 C268 C 0.12379 0.37714 0.10570
 C269 C 0.10051 0.40027 0.08309
 C270 C 0.08051 0.41994 0.06434
 C271 C 0.68778 0.81428 0.66935
 C272 C 0.66818 0.83419 0.64714
 C273 C 0.64510 0.85744 0.62260
 C274 C 0.62527 0.87723 0.60271
 C275 C 0.60193 0.90031 0.58050
 C276 C 0.58187 0.91995 0.56216
 C277 C 0.81278 0.18501 0.17040
 C278 C 0.83255 0.16525 0.14864
 C279 C 0.85583 0.14217 0.12446
 C280 C 0.87580 0.12253 0.10470
 C281 C 0.89928 0.09960 0.08242
 C282 C 0.91942 0.08005 0.06387
 C283 C 0.31268 0.68593 0.67809
 C284 C 0.33230 0.66601 0.65670
 C285 C 0.35540 0.64272 0.63335
 C286 C 0.37522 0.62290 0.61460
 C287 C 0.39855 0.59974 0.59378
 C288 C 0.41855 0.58002 0.57667
   
