data_POSCAR
  _audit_creation_date              2014-09-24
  _audit_creation_method            'ToBaCCo'
  _symmetry_space_group_name_H-M    'P1'
  _symmetry_Int_Tables_number       1
  _symmetry_cell_setting            triclinic
  loop_
  _symmetry_equiv_pos_as_xyz
 x,y,z
_cell_length_a 35.6868
_cell_length_b 35.6920
_cell_length_c 35.6891
_cell_angle_alpha 96.374100
_cell_angle_beta 83.340800
_cell_angle_gamma 96.724600
loop_
  _atom_site_label
  _atom_site_type_symbol
  _atom_site_fract_x
  _atom_site_fract_y
  _atom_site_fract_z
O1 O 0.54449 0.50675 0.03332
 O2 O 0.44167 0.50093 0.02702
 O3 O 0.48910 0.45239 0.03374
 O4 O 0.49694 0.55517 0.02660
 O5 O 0.50695 0.54492 -0.03565
 O6 O 0.49909 0.44215 -0.02851
 O7 O 0.45164 0.49069 -0.03518
 O8 O 0.55448 0.49649 -0.02893
 Cu9 Cu 0.49207 0.50480 0.03641
 Cu10 Cu 0.50405 0.49251 -0.03830
 C11 C 0.56710 0.50254 0.00329
 C12 C 0.42895 0.49505 -0.00519
 C13 C 0.49286 0.42966 0.00385
 C14 C 0.50307 0.56764 -0.00577
 O15 O -0.03315 0.54481 0.50633
 O16 O -0.02694 0.44197 0.50028
 O17 O -0.02659 0.49691 0.55458
 O18 O -0.03379 0.48992 0.45196
 O19 O 0.02851 0.50001 0.44131
 O20 O 0.03572 0.50698 0.54399
 O21 O 0.03536 0.45206 0.48963
 O22 O 0.02910 0.55485 0.49572
 Cu23 Cu -0.03635 0.49237 0.50431
 Cu24 Cu 0.03840 0.50445 0.49157
 C25 C -0.00311 0.56755 0.50198
 C26 C 0.00532 0.42941 0.49415
 C27 C 0.00580 0.50305 0.56687
 C28 C -0.00392 0.49402 0.42906
 O29 O 0.50527 0.02696 0.55482
 O30 O 0.51156 0.03317 0.45191
 O31 O 0.45707 0.03373 0.50703
 O32 O 0.55976 0.02641 0.49980
 O33 O 0.54899 -0.03584 0.49019
 O34 O 0.44631 -0.02853 0.49742
 O35 O 0.50079 -0.02908 0.44232
 O36 O 0.49450 -0.03523 0.54522
 Cu37 Cu 0.50950 0.03630 0.50432
 Cu38 Cu 0.49659 -0.03840 0.49281
 C39 C 0.49896 -0.00523 0.56775
 C40 C 0.50705 0.00313 0.42949
 C41 C 0.43410 0.00387 0.50335
 C42 C 0.57196 -0.00599 0.49400
 C43 C 0.49650 -0.03786 -0.08418
 C44 C 0.49941 -0.07481 -0.07612
 C45 C 0.50086 -0.08336 -0.03906
 C46 C 0.50001 -0.05404 -0.00890
 C47 C 0.49691 -0.01642 -0.01655
 C48 C 0.49473 -0.00834 -0.05425
 C49 C 0.48993 0.02881 -0.06086
 C50 C 0.48853 0.05770 -0.03132
 C51 C 0.49198 0.05066 0.00605
 C52 C 0.49571 0.01315 0.01361
 C53 C 0.50247 -0.06128 0.02862
 C54 C 0.50103 -0.03240 0.05816
 C55 C 0.49789 0.00508 0.05131
 C56 C 0.49617 0.03461 0.08122
 C57 C 0.49239 0.07139 0.07328
 C58 C 0.49081 0.07994 0.03623
 H59 H 0.48673 0.03591 -0.08892
 H60 H 0.48423 0.08557 -0.03811
 H61 H 0.50557 -0.08941 0.03560
 H62 H 0.50221 -0.03992 0.08650
 H63 H 0.50039 -0.09738 -0.09912
 H64 H 0.49158 0.09398 0.09628
 C65 C 0.03782 0.50918 0.91710
 C66 C 0.07490 0.50821 0.92575
 C67 C 0.08289 0.50627 0.96288
 C68 C 0.05299 0.50588 0.99265
 C69 C 0.01519 0.50695 0.98438
 C70 C 0.00759 0.50888 0.94653
 C71 C -0.02984 0.51160 0.93928
 C72 C -0.05938 0.51136 0.96838
 C73 C -0.05272 0.50839 1.00594
 C74 C -0.01500 0.50669 1.01412
 C75 C 0.06000 0.50562 1.03057
 C76 C 0.03046 0.50535 1.05966
 C77 C -0.00732 0.50534 1.05205
 C78 C -0.03754 0.50517 1.08150
 C79 C -0.07451 0.50694 1.07297
 C80 C -0.08260 0.50823 1.03575
 H81 H -0.03667 0.51450 0.91107
 H82 H -0.08746 0.51409 0.96111
 H83 H 0.08850 0.50616 1.03828
 H84 H 0.03773 0.50571 1.08830
 H85 H 0.09790 0.50817 0.90301
 H86 H -0.09756 0.50654 1.09566
 C87 C -0.03459 -0.08396 0.50798
 C88 C -0.07182 -0.07594 0.50668
 C89 C -0.08036 -0.03898 0.50485
 C90 C -0.05092 -0.00873 0.50495
 C91 C -0.01298 -0.01634 0.50631
 C92 C -0.00479 -0.05404 0.50808
 C93 C 0.03277 -0.06064 0.51106
 C94 C 0.06186 -0.03106 0.51124
 C95 C 0.05461 0.00636 0.50845
 C96 C 0.01675 0.01389 0.50651
 C97 C -0.05855 0.02902 0.50489
 C98 C -0.02946 0.05860 0.50510
 C99 C 0.00847 0.05167 0.50537
 C100 C 0.03823 0.08162 0.50569
 C101 C 0.07538 0.07369 0.50766
 C102 C 0.08404 0.03663 0.50870
 H103 H 0.04004 -0.08871 0.51385
 H104 H 0.09006 -0.03786 0.51417
 H105 H -0.08720 0.03623 0.50524
 H106 H -0.03720 0.08708 0.50560
 H107 H -0.09450 -0.09901 0.50633
 H108 H 0.09810 0.09672 0.50759
 C109 C -0.31318 0.50682 1.01107
 C110 C -0.32718 0.50051 0.97561
 C111 C -0.36612 0.49932 0.97301
 C112 C -0.39158 0.50442 1.00591
 C113 C -0.37718 0.51092 1.04141
 C114 C -0.33825 0.51210 1.04393
 C115 C -0.27319 0.50755 1.01386
 C116 C -0.23976 0.50805 1.01657
 C117 C -0.19997 0.50858 1.02033
 C118 C -0.18012 0.47833 1.00359
 C119 C -0.14172 0.47839 1.00816
 C120 C -0.12279 0.50885 1.02932
 C121 C -0.14284 0.53906 1.04608
 C122 C -0.18123 0.53897 1.04150
 H123 H -0.30802 0.49637 0.94999
 H124 H -0.37627 0.49425 0.94526
 H125 H -0.39599 0.51495 1.06727
 H126 H -0.32772 0.51699 1.07152
 H127 H -0.19441 0.45457 0.98733
 H128 H -0.12680 0.45459 0.99553
 H129 H -0.12875 0.56260 1.06279
 H130 H -0.19635 0.56243 1.05473
 C131 C 0.31152 0.49392 0.98706
 C132 C 0.32543 0.49933 1.02253
 C133 C 0.36421 0.49926 1.02521
 C134 C 0.38978 0.49384 0.99230
 C135 C 0.37524 0.48794 0.95676
 C136 C 0.33645 0.48803 0.95423
 C137 C 0.27182 0.49536 0.98420
 C138 C 0.23871 0.49704 0.98146
 C139 C 0.19939 0.49954 0.97772
 C140 C 0.18858 0.53198 0.96491
 C141 C 0.15054 0.53430 0.96052
 C142 C 0.12290 0.50429 0.96913
 C143 C 0.13386 0.47175 0.98187
 C144 C 0.17195 0.46946 0.98627
 H145 H 0.30636 0.50395 1.04813
 H146 H 0.37410 0.50385 1.05309
 H147 H 0.39380 0.48361 0.93075
 H148 H 0.32596 0.48384 0.92661
 H149 H 0.20960 0.55535 0.95808
 H150 H 0.14261 0.55944 0.95033
 H151 H 0.11296 0.44813 0.98811
 H152 H 0.18002 0.44416 0.99603
 C153 C -0.01053 -0.31464 0.50649
 C154 C 0.02490 -0.32864 0.50007
 C155 C 0.02745 -0.36758 0.49878
 C156 C -0.00554 -0.39322 0.50386
 C157 C -0.04106 -0.37865 0.51051
 C158 C -0.04345 -0.33970 0.51178
 C159 C -0.01321 -0.27462 0.50728
 C160 C -0.01580 -0.24118 0.50783
 C161 C -0.01939 -0.20137 0.50839
 C162 C -0.00237 -0.18130 0.47818
 C163 C -0.00683 -0.14288 0.47824
 C164 C -0.02816 -0.12414 0.50867
 C165 C -0.04518 -0.14439 0.53886
 C166 C -0.04072 -0.18280 0.53877
 H167 H 0.05058 -0.30947 0.49593
 H168 H 0.05531 -0.37750 0.49362
 H169 H -0.06712 -0.39727 0.51459
 H170 H -0.07104 -0.32915 0.51677
 H171 H 0.01401 -0.19544 0.45443
 H172 H 0.00600 -0.12782 0.45444
 H173 H -0.06203 -0.13045 0.56237
 H174 H -0.05416 -0.19808 0.56220
 C175 C 0.01340 0.31012 0.49309
 C176 C 0.04621 0.33514 0.48679
 C177 C 0.04357 0.37390 0.48664
 C178 C 0.00800 0.38817 0.49284
 C179 C -0.02487 0.36271 0.49872
 C180 C -0.02215 0.32394 0.49887
 C181 C 0.01637 0.27044 0.49459
 C182 C 0.01922 0.23736 0.49630
 C183 C 0.02312 0.19805 0.49884
 C184 C 0.03585 0.18714 0.53126
 C185 C 0.04036 0.14912 0.53362
 C186 C 0.03195 0.12161 0.50365
 C187 C 0.01932 0.13269 0.47111
 C188 C 0.01480 0.17075 0.46878
 H189 H 0.07387 0.32475 0.48234
 H190 H 0.06941 0.39271 0.48203
 H191 H -0.05267 0.37276 0.50361
 H192 H -0.04773 0.30483 0.50383
 H193 H 0.04251 0.20804 0.55461
 H194 H 0.05046 0.14110 0.55876
 H195 H 0.01324 0.11190 0.44751
 H196 H 0.00511 0.17891 0.44349
 C197 C 0.49534 -0.01285 -0.31449
 C198 C 0.50164 0.02259 -0.32867
 C199 C 0.50257 0.02522 -0.36759
 C200 C 0.49724 -0.00770 -0.39302
 C201 C 0.49063 -0.04322 -0.37824
 C202 C 0.48972 -0.04570 -0.33933
 C203 C 0.49503 -0.01565 -0.27452
 C204 C 0.49490 -0.01841 -0.24114
 C205 C 0.49480 -0.02227 -0.20141
 C206 C 0.52452 -0.00409 -0.18150
 C207 C 0.52490 -0.00875 -0.14315
 C208 C 0.49541 -0.03146 -0.12434
 C209 C 0.46572 -0.04965 -0.14445
 C210 C 0.46537 -0.04499 -0.18277
 H211 H 0.50603 0.04821 -0.30967
 H212 H 0.50771 0.05308 -0.37766
 H213 H 0.48636 -0.06924 -0.39669
 H214 H 0.48481 -0.07329 -0.32863
 H215 H 0.54754 0.01338 -0.19569
 H216 H 0.54829 0.00505 -0.12818
 H217 H 0.44293 -0.06753 -0.13044
 H218 H 0.44234 -0.05933 -0.19794
 C219 C 0.50884 0.01090 0.31000
 C220 C 0.50294 -0.02457 0.32418
 C221 C 0.50284 -0.02718 0.36300
 C222 C 0.50859 0.00573 0.38819
 C223 C 0.51492 0.04123 0.37358
 C224 C 0.51501 0.04376 0.33475
 C225 C 0.50753 0.01373 0.27026
 C226 C 0.50591 0.01643 0.23712
 C227 C 0.50338 0.02008 0.19776
 C228 C 0.53446 0.01431 0.17075
 C229 C 0.53206 0.01861 0.13264
 C230 C 0.49844 0.02847 0.12123
 C231 C 0.46745 0.03434 0.14842
 C232 C 0.46988 0.03004 0.18649
 H233 H 0.49807 -0.05018 0.30528
 H234 H 0.49787 -0.05493 0.37332
 H235 H 0.51942 0.06710 0.39217
 H236 H 0.51954 0.07137 0.32409
 H237 H 0.56058 0.00677 0.17919
 H238 H 0.55640 0.01452 0.11207
 H239 H 0.44145 0.04231 0.14013
 H240 H 0.44572 0.03472 0.20716
 C241 C 0.50692 -0.31293 -0.01462
 C242 C 0.51235 -0.33804 -0.04730
 C243 C 0.51153 -0.37687 -0.04443
 C244 C 0.50522 -0.39110 -0.00875
 C245 C 0.50015 -0.36556 0.02398
 C246 C 0.50098 -0.32673 0.02102
 C247 C 0.50670 -0.27313 -0.01776
 C248 C 0.50618 -0.23987 -0.02064
 C249 C 0.50526 -0.20029 -0.02442
 C250 C 0.53552 -0.18024 -0.04483
 C251 C 0.53424 -0.14200 -0.04925
 C252 C 0.50277 -0.12345 -0.03310
 C253 C 0.47243 -0.14371 -0.01280
 C254 C 0.47375 -0.18195 -0.00837
 H255 H 0.51694 -0.32764 -0.07503
 H256 H 0.51552 -0.39575 -0.07016
 H257 H 0.49521 -0.37559 0.05186
 H258 H 0.49670 -0.30753 0.04650
 H259 H 0.55995 -0.19421 -0.05751
 H260 H 0.55770 -0.12684 -0.06529
 H261 H 0.44772 -0.12993 -0.00064
 H262 H 0.45009 -0.19727 0.00728
 C263 C 0.48739 0.31006 0.01251
 C264 C 0.49361 0.32393 -0.02309
 C265 C 0.49506 0.36283 -0.02598
 C266 C 0.49033 0.38837 0.00679
 C267 C 0.48379 0.37409 0.04244
 C268 C 0.48235 0.33518 0.04524
 C269 C 0.48692 0.27015 0.01555
 C270 C 0.48691 0.23680 0.01831
 C271 C 0.48732 0.19711 0.02187
 C272 C 0.51812 0.17821 0.00481
 C273 C 0.51906 0.13989 0.00909
 C274 C 0.48905 0.12007 0.03026
 C275 C 0.45827 0.13916 0.04739
 C276 C 0.45737 0.17750 0.04311
 H277 H 0.49760 0.30471 -0.04861
 H278 H 0.50015 0.37289 -0.05384
 H279 H 0.48004 0.39298 0.06820
 H280 H 0.47756 0.32473 0.07295
 H281 H 0.54154 0.19318 -0.01149
 H282 H 0.54329 0.12572 -0.00380
 H283 H 0.43508 0.12437 0.06412
 H284 H 0.43350 0.19191 0.05658
 C285 C -0.30887 -0.01508 0.49195
 C286 C -0.33421 -0.04772 0.48643
 C287 C -0.37294 -0.04477 0.48656
 C288 C -0.38684 -0.00905 0.49227
 C289 C -0.36106 0.02365 0.49732
 C290 C -0.32233 0.02061 0.49718
 C291 C -0.26926 -0.01832 0.49329
 C292 C -0.23620 -0.02129 0.49494
 C293 C -0.19693 -0.02516 0.49747
 C294 C -0.18620 -0.03809 0.52989
 C295 C -0.14815 -0.04228 0.53238
 C296 C -0.12045 -0.03336 0.50254
 C297 C -0.13136 -0.02063 0.46997
 C298 C -0.16944 -0.01642 0.46752
 H299 H -0.32408 -0.07550 0.48241
 H300 H -0.39201 -0.07048 0.48260
 H301 H -0.37083 0.05156 0.50180
 H302 H -0.30296 0.04606 0.50154
 H303 H -0.20726 -0.04505 0.55317
 H304 H -0.14024 -0.05245 0.55755
 H305 H -0.11038 -0.01413 0.44649
 H306 H -0.17747 -0.00656 0.44224
 C307 C 0.31459 0.01274 0.50836
 C308 C 0.34000 0.04543 0.51322
 C309 C 0.37887 0.04256 0.51189
 C310 C 0.39285 0.00688 0.50564
 C311 C 0.36702 -0.02585 0.50103
 C312 C 0.32815 -0.02290 0.50238
 C313 C 0.27468 0.01585 0.50902
 C314 C 0.24131 0.01869 0.50936
 C315 C 0.20157 0.02240 0.50958
 C316 C 0.18253 0.04319 0.54003
 C317 C 0.14411 0.04749 0.53990
 C318 C 0.12435 0.03082 0.50941
 C319 C 0.14361 0.01013 0.47886
 C320 C 0.18203 0.00584 0.47903
 H321 H 0.32979 0.07316 0.51785
 H322 H 0.39797 0.06830 0.51553
 H323 H 0.37684 -0.05374 0.49617
 H324 H 0.30872 -0.04839 0.49855
 H325 H 0.19743 0.05626 0.56372
 H326 H 0.12975 0.06382 0.56351
 H327 H 0.12890 -0.00243 0.45487
 H328 H 0.19655 -0.01012 0.45524
 C329 C -0.01305 0.49219 1.30993
 C330 C 0.02267 0.49774 1.32342
 C331 C 0.02573 0.49781 1.36214
 C332 C -0.00697 0.49238 1.38787
 C333 C -0.04272 0.48636 1.37394
 C334 C -0.04570 0.48630 1.33522
 C335 C -0.01634 0.49358 1.27033
 C336 C -0.01939 0.49525 1.23729
 C337 C -0.02338 0.49779 1.19803
 C338 C -0.01490 0.46785 1.17069
 C339 C -0.01923 0.47030 1.13262
 C340 C -0.03184 0.50285 1.12158
 C341 C -0.04051 0.53267 1.14913
 C342 C -0.03619 0.53019 1.18716
 H343 H 0.04812 0.50239 1.30408
 H344 H 0.05366 0.50254 1.37194
 H345 H -0.06844 0.48210 1.39297
 H346 H -0.07350 0.48203 1.32507
 H347 H -0.00513 0.44258 1.17883
 H348 H -0.01292 0.44683 1.11176
 H349 H -0.05058 0.55783 1.14111
 H350 H -0.04296 0.55346 1.20811
 C351 C 0.01438 0.50819 0.68642
 C352 C 0.04716 0.51323 0.66112
 C353 C 0.04439 0.51182 0.62222
 C354 C 0.00873 0.50533 0.60812
 C355 C -0.02409 0.50053 0.63384
 C356 C -0.02124 0.50194 0.67272
 C357 C 0.01736 0.50898 0.72635
 C358 C 0.02009 0.50944 0.75975
 C359 C 0.02367 0.50979 0.79952
 C360 C 0.04459 0.54032 0.81838
 C361 C 0.04882 0.54030 0.85683
 C362 C 0.03195 0.50984 0.87679
 C363 C 0.01110 0.47923 0.85773
 C364 C 0.00688 0.47929 0.81928
 H365 H 0.07487 0.51806 0.67143
 H366 H 0.07019 0.51562 0.60321
 H367 H -0.05196 0.49548 0.62392
 H368 H -0.04679 0.49799 0.69207
 H369 H 0.05784 0.56397 0.80332
 H370 H 0.06529 0.56395 0.87104
 H371 H -0.00160 0.45526 0.87260
 H372 H -0.00919 0.45544 0.80489
   
