data_POSCAR
  _audit_creation_date              2014-09-24
  _audit_creation_method            'ToBaCCo'
  _symmetry_space_group_name_H-M    'P1'
  _symmetry_Int_Tables_number       1
  _symmetry_cell_setting            triclinic
  loop_
  _symmetry_equiv_pos_as_xyz
 x,y,z
_cell_length_a 48.5366
_cell_length_b 48.5775
_cell_length_c 27.9399
_cell_angle_alpha 90.001100
_cell_angle_beta 89.945900
_cell_angle_gamma 120.038700
loop_
  _atom_site_label
  _atom_site_type_symbol
  _atom_site_fract_x
  _atom_site_fract_y
  _atom_site_fract_z
O1 O 0.46171 0.96964 0.54433
 O2 O 0.49301 1.03159 0.45115
 O3 O 0.46206 0.96977 0.45111
 O4 O 0.49269 1.03159 0.54439
 O5 O 0.53812 1.03156 0.54488
 O6 O 0.50750 0.96976 0.45157
 O7 O 0.53847 1.03171 0.45166
 O8 O 0.50719 0.96974 0.54479
 Cu9 Cu 0.47282 1.00064 0.49773
 Cu10 Cu 0.52737 1.00070 0.49824
 C11 C 0.47910 0.95910 0.56057
 C12 C 0.52112 1.04230 0.43529
 C13 C 0.47954 0.95919 0.43531
 C14 C 0.52064 1.04213 0.56068
 O15 O -0.03229 0.46155 0.45187
 O16 O 0.02963 0.49217 0.54504
 O17 O -0.03238 0.46120 0.54511
 O18 O 0.02958 0.49246 0.45182
 O19 O 0.02964 0.53789 0.45237
 O20 O -0.03227 0.50660 0.54574
 O21 O 0.02960 0.53755 0.54559
 O22 O -0.03236 0.50687 0.45251
 Cu23 Cu -0.00137 0.47230 0.49843
 Cu24 Cu -0.00135 0.52676 0.49908
 C25 C -0.04296 0.47895 0.43606
 C26 C 0.04020 0.52010 0.56131
 C27 C -0.04296 0.47853 0.56159
 C28 C 0.04020 0.52052 0.43606
 O29 O 0.49239 0.46242 0.54650
 O30 O 0.46116 0.49301 0.45325
 O31 O 0.49216 0.46208 0.45328
 O32 O 0.46149 0.49333 0.54649
 O33 O 0.50686 0.53876 0.54583
 O34 O 0.53759 0.50754 0.45267
 O35 O 0.50665 0.53841 0.45261
 O36 O 0.53788 0.50783 0.54589
 Cu37 Cu 0.47225 0.47316 0.49991
 Cu38 Cu 0.52679 0.52768 0.49922
 C39 C 0.52048 0.47990 0.56222
 C40 C 0.47857 0.52093 0.43689
 C41 C 0.52012 0.47947 0.43696
 C42 C 0.47890 0.52142 0.56228
 O43 O 0.37941 0.66821 -0.05685
 O44 O 0.38080 0.72186 -0.04197
 C45 C 0.36098 0.72618 -0.06589
 O46 O 0.33142 0.71152 -0.05685
 O47 O 0.27769 0.65923 -0.04183
 C48 C 0.27336 0.63510 -0.06576
 O49 O 0.28802 0.62023 -0.05679
 O50 O 0.34032 0.61886 -0.04190
 C51 C 0.36450 0.63868 -0.06584
 O52 O 0.38076 0.65930 0.03834
 O53 O 0.37938 0.71156 0.05324
 C54 C 0.36450 0.72621 0.06223
 O55 O 0.34034 0.72186 0.03831
 O56 O 0.28801 0.66817 0.05334
 C57 C 0.27333 0.63864 0.06235
 O58 O 0.27767 0.61884 0.03841
 O59 O 0.33137 0.62025 0.05330
 C60 C 0.36092 0.63516 0.06231
 Cr61 Cr 0.37834 0.68936 -0.00181
 Cr62 Cr 0.31024 0.68932 -0.00176
 Cr63 Cr 0.31022 0.62129 -0.00175
 O64 O 0.33293 0.66666 -0.00177
 O65 O 0.61876 0.34091 -0.04073
 O66 O 0.62014 0.28864 -0.05564
 C67 C 0.63505 0.27402 -0.06470
 O68 O 0.65921 0.27836 -0.04081
 O69 O 0.71154 0.33203 -0.05579
 C70 C 0.72618 0.36155 -0.06490
 O71 O 0.72185 0.38137 -0.04100
 O72 O 0.66813 0.37994 -0.05579
 C73 C 0.63858 0.36505 -0.06472
 O74 O 0.62018 0.33202 0.05445
 O75 O 0.61875 0.27835 0.03956
 C76 C 0.63857 0.27402 0.06345
 O77 O 0.66813 0.28867 0.05438
 O78 O 0.72184 0.34096 0.03940
 C79 C 0.72619 0.36512 0.06328
 O80 O 0.71157 0.38002 0.05422
 O81 O 0.65924 0.38136 0.03942
 C82 C 0.63508 0.36155 0.06341
 Cr83 Cr 0.62120 0.31085 -0.00059
 Cr84 Cr 0.68931 0.31088 -0.00071
 Cr85 Cr 0.68933 0.37893 -0.00078
 O86 O 0.66661 0.33355 -0.00069
 C87 C 0.44295 0.88747 -0.32905
 C88 C 0.47444 0.90058 -0.34549
 C89 C 0.48611 0.92370 -0.38145
 C90 C 0.46660 0.93433 -0.40173
 C91 C 0.43510 0.92119 -0.38541
 C92 C 0.42339 0.89800 -0.34955
 C93 C 0.43066 0.86314 -0.29059
 N94 N 0.39979 0.84922 -0.27632
 N95 N 0.38881 0.82753 -0.24156
 C96 C 0.40823 0.81884 -0.21952
 N97 N 0.43909 0.83273 -0.23382
 N98 N 0.45006 0.85440 -0.26862
 C99 C 0.39608 0.79489 -0.18052
 C100 C 0.41671 0.78749 -0.15565
 C101 C 0.40533 0.76519 -0.11854
 C102 C 0.37302 0.74969 -0.10546
 C103 C 0.35234 0.75695 -0.13052
 C104 C 0.36375 0.77932 -0.16754
 H105 H 0.49017 0.89302 -0.33059
 H106 H 0.51050 0.93334 -0.39320
 H107 H 0.41943 0.92883 -0.40032
 H108 H 0.39903 0.88845 -0.33776
 H109 H 0.44175 0.79901 -0.16467
 H110 H 0.42190 0.76011 -0.10010
 H111 H 0.32731 0.74545 -0.12143
 H112 H 0.34716 0.78438 -0.18595
 C113 C 0.11186 0.55559 -0.32844
 C114 C 0.10128 0.52550 -0.34894
 C115 C 0.07808 0.51400 -0.38476
 C116 C 0.06498 0.53237 -0.40102
 C117 C 0.07565 0.56251 -0.38072
 C118 C 0.09878 0.57396 -0.34481
 C119 C 0.13622 0.56764 -0.29005
 N120 N 0.14501 0.59580 -0.26808
 N121 N 0.16670 0.60651 -0.23335
 C122 C 0.18058 0.58957 -0.21912
 N123 N 0.17184 0.56144 -0.24115
 N124 N 0.15012 0.55071 -0.27584
 C125 C 0.20456 0.60139 -0.18019
 C126 C 0.22013 0.58466 -0.16728
 C127 C 0.24252 0.59565 -0.13033
 C128 C 0.24982 0.62359 -0.10527
 C129 C 0.23433 0.64038 -0.11828
 C130 C 0.21201 0.62943 -0.15532
 H131 H 0.11081 0.51068 -0.33720
 H132 H 0.07040 0.49069 -0.39968
 H133 H 0.06603 0.57725 -0.39242
 H134 H 0.10638 0.59726 -0.32990
 H135 H 0.21503 0.56300 -0.18570
 H136 H 0.25401 0.58213 -0.12130
 H137 H 0.23944 0.66204 -0.09984
 H138 H 0.20049 0.64293 -0.16428
 C139 C 0.44398 0.55694 -0.32908
 C140 C 0.42512 0.52587 -0.34665
 C141 C 0.43655 0.51419 -0.38262
 C142 C 0.46725 0.53327 -0.40191
 C143 C 0.48605 0.56444 -0.38429
 C144 C 0.47453 0.57611 -0.34843
 C145 C 0.43192 0.56920 -0.29060
 N146 N 0.44924 0.59985 -0.27562
 N147 N 0.43851 0.61080 -0.24085
 C148 C 0.41002 0.59157 -0.21950
 N149 N 0.39270 0.56094 -0.23451
 N150 N 0.40340 0.55000 -0.26933
 C151 C 0.39821 0.60369 -0.18048
 C152 C 0.36993 0.58313 -0.15595
 C153 C 0.35899 0.59448 -0.11882
 C154 C 0.37601 0.62668 -0.10541
 C155 C 0.40419 0.64728 -0.13014
 C156 C 0.41518 0.63591 -0.16715
 H157 H 0.40144 0.51046 -0.33264
 H158 H 0.42125 0.49009 -0.39510
 H159 H 0.50978 0.57996 -0.39810
 H160 H 0.48972 0.60015 -0.33573
 H161 H 0.35624 0.55818 -0.16523
 H162 H 0.33715 0.57796 -0.10064
 H163 H 0.41790 0.67223 -0.12078
 H164 H 0.43702 0.65244 -0.18531
 C165 C 0.55598 0.11344 -0.32859
 C166 C 0.52590 0.10294 -0.34916
 C167 C 0.51447 0.07986 -0.38515
 C168 C 0.53287 0.06681 -0.40152
 C169 C 0.56301 0.07742 -0.38118
 C170 C 0.57441 0.10043 -0.34509
 C171 C 0.56796 0.13764 -0.28999
 N172 N 0.59610 0.14636 -0.26796
 N173 N 0.60674 0.16791 -0.23303
 C174 C 0.58973 0.18170 -0.21865
 N175 N 0.56163 0.17303 -0.24075
 N176 N 0.55097 0.15146 -0.27563
 C177 C 0.60148 0.20553 -0.17952
 C178 C 0.58469 0.22102 -0.16646
 C179 C 0.59563 0.24330 -0.12936
 C180 C 0.62357 0.25056 -0.10430
 C181 C 0.64041 0.23513 -0.11743
 C182 C 0.62952 0.21292 -0.15463
 H183 H 0.51105 0.11241 -0.33734
 H184 H 0.49116 0.07222 -0.40011
 H185 H 0.57778 0.06785 -0.39296
 H186 H 0.59769 0.10798 -0.33014
 H187 H 0.56304 0.21597 -0.18489
 H188 H 0.58207 0.25474 -0.12023
 H189 H 0.66207 0.24021 -0.09899
 H190 H 0.64306 0.20146 -0.16370
 C191 C 0.88678 0.44306 -0.32934
 C192 C 0.89809 0.42388 -0.34877
 C193 C 0.92120 0.43553 -0.38478
 C194 C 0.93357 0.46668 -0.40249
 C195 C 0.92201 0.48575 -0.38316
 C196 C 0.89898 0.47411 -0.34703
 C197 C 0.86256 0.43083 -0.29067
 N198 N 0.85333 0.45005 -0.26934
 N199 N 0.83179 0.43915 -0.23433
 C200 C 0.81849 0.40854 -0.21918
 N201 N 0.82767 0.38930 -0.24058
 N202 N 0.84925 0.40022 -0.27554
 C203 C 0.79467 0.39647 -0.17996
 C204 C 0.77943 0.36427 -0.16648
 C205 C 0.75715 0.35293 -0.12931
 C206 C 0.74964 0.37354 -0.10458
 C207 C 0.76482 0.40572 -0.11813
 C208 C 0.78702 0.41703 -0.15541
 H209 H 0.88924 0.39985 -0.33598
 H210 H 0.92937 0.42001 -0.39863
 H211 H 0.93082 0.50984 -0.39571
 H212 H 0.89077 0.48952 -0.33298
 H213 H 0.78468 0.34773 -0.18464
 H214 H 0.74590 0.32799 -0.11984
 H215 H 0.75954 0.42224 -0.09996
 H216 H 0.79829 0.44197 -0.16482
 C217 C 0.55659 0.44446 -0.32743
 C218 C 0.57615 0.47455 -0.34798
 C219 C 0.56446 0.48603 -0.38383
 C220 C 0.53296 0.46765 -0.40006
 C221 C 0.51344 0.43751 -0.37971
 C222 C 0.52510 0.42607 -0.34378
 C223 C 0.56889 0.43242 -0.28903
 N224 N 0.54949 0.40426 -0.26701
 N225 N 0.56046 0.39355 -0.23227
 C226 C 0.59132 0.41052 -0.21808
 N227 N 0.61074 0.43864 -0.24016
 N228 N 0.59976 0.44937 -0.27486
 C229 C 0.60347 0.39871 -0.17914
 C230 C 0.63581 0.41546 -0.16629
 C231 C 0.64722 0.40448 -0.12934
 C232 C 0.62654 0.37653 -0.10423
 C233 C 0.59422 0.35972 -0.11718
 C234 C 0.58284 0.37066 -0.15423
 H235 H 0.60052 0.48938 -0.33627
 H236 H 0.58012 0.50934 -0.39879
 H237 H 0.48905 0.42275 -0.39140
 H238 H 0.50937 0.40277 -0.32883
 H239 H 0.65240 0.43712 -0.18475
 H240 H 0.67225 0.41801 -0.12035
 H241 H 0.57765 0.33807 -0.09870
 H242 H 0.55780 0.35715 -0.16315
 C243 C 0.88678 0.44417 0.32721
 C244 C 0.89811 0.47467 0.34660
 C245 C 0.92122 0.48613 0.38254
 C246 C 0.93357 0.46733 0.40021
 C247 C 0.92199 0.43669 0.38092
 C248 C 0.89897 0.42532 0.34486
 C249 C 0.86257 0.43219 0.28861
 N250 N 0.85332 0.40374 0.26731
 N251 N 0.83178 0.39310 0.23236
 C252 C 0.81851 0.41043 0.21725
 N253 N 0.82770 0.43885 0.23862
 N254 N 0.84928 0.44951 0.27352
 C255 C 0.79469 0.39869 0.17811
 C256 C 0.77947 0.41566 0.16467
 C257 C 0.75718 0.40472 0.12758
 C258 C 0.74966 0.37660 0.10287
 C259 C 0.76482 0.35958 0.11637
 C260 C 0.78702 0.37046 0.15359
 H261 H 0.88928 0.48985 0.33384
 H262 H 0.92940 0.50982 0.39636
 H263 H 0.93078 0.42140 0.39344
 H264 H 0.89074 0.40168 0.33083
 H265 H 0.78474 0.43745 0.18281
 H266 H 0.74596 0.41842 0.11815
 H267 H 0.75953 0.33778 0.09822
 H268 H 0.79828 0.35678 0.16295
 C269 C 0.55670 0.11278 0.32667
 C270 C 0.57587 0.10143 0.34594
 C271 C 0.56419 0.07823 0.38179
 C272 C 0.53299 0.06582 0.39948
 C273 C 0.51391 0.07741 0.38029
 C274 C 0.52560 0.10052 0.34433
 C275 C 0.56898 0.13711 0.28821
 N276 N 0.54977 0.14639 0.26701
 N277 N 0.56073 0.16804 0.23220
 C278 C 0.59139 0.18140 0.21712
 N279 N 0.61062 0.17217 0.23839
 N280 N 0.59965 0.15049 0.27315
 C281 C 0.60352 0.20533 0.17810
 C282 C 0.63577 0.22062 0.16470
 C283 C 0.64716 0.24299 0.12769
 C284 C 0.62655 0.25052 0.10302
 C285 C 0.59432 0.23530 0.11651
 C286 C 0.58296 0.21302 0.15364
 H287 H 0.59994 0.11032 0.33318
 H288 H 0.57971 0.07005 0.39553
 H289 H 0.48979 0.06857 0.39283
 H290 H 0.51018 0.10876 0.33039
 H291 H 0.65231 0.21534 0.18281
 H292 H 0.67213 0.25426 0.11827
 H293 H 0.57780 0.24060 0.09839
 H294 H 0.55798 0.20171 0.16298
 C295 C 0.55564 0.44338 0.32656
 C296 C 0.52553 0.42383 0.34714
 C297 C 0.51403 0.43551 0.38301
 C298 C 0.53241 0.46699 0.39925
 C299 C 0.56258 0.48650 0.37889
 C300 C 0.57404 0.47485 0.34292
 C301 C 0.56770 0.43111 0.28810
 N302 N 0.59587 0.45051 0.26605
 N303 N 0.60658 0.43956 0.23126
 C304 C 0.58960 0.40873 0.21703
 N305 N 0.56146 0.38931 0.23915
 N306 N 0.55073 0.40027 0.27390
 C307 C 0.60141 0.39659 0.17803
 C308 C 0.58465 0.36429 0.16513
 C309 C 0.59563 0.35290 0.12812
 C310 C 0.62359 0.37357 0.10298
 C311 C 0.64041 0.40586 0.11597
 C312 C 0.62948 0.41722 0.15308
 H313 H 0.51070 0.39948 0.33541
 H314 H 0.49070 0.41985 0.39798
 H315 H 0.57733 0.51087 0.39058
 H316 H 0.59735 0.49057 0.32796
 H317 H 0.56298 0.34771 0.18361
 H318 H 0.58209 0.32789 0.11909
 H319 H 0.66209 0.42243 0.09747
 H320 H 0.64300 0.44224 0.16203
 C321 C 0.11184 0.55667 0.32555
 C322 C 0.10129 0.57620 0.34610
 C323 C 0.07809 0.56449 0.38200
 C324 C 0.06497 0.53302 0.39830
 C325 C 0.07562 0.51354 0.37796
 C326 C 0.09875 0.52521 0.34197
 C327 C 0.13620 0.56897 0.28708
 N328 N 0.14497 0.54960 0.26508
 N329 N 0.16666 0.56057 0.23027
 C330 C 0.18055 0.59140 0.21599
 N331 N 0.17182 0.61079 0.23806
 N332 N 0.15010 0.59981 0.27283
 C333 C 0.20452 0.60355 0.17698
 C334 C 0.22010 0.63586 0.16402
 C335 C 0.24250 0.64726 0.12701
 C336 C 0.24980 0.62661 0.10192
 C337 C 0.23429 0.59432 0.11498
 C338 C 0.21196 0.58295 0.15209
 H339 H 0.11082 0.60054 0.33433
 H340 H 0.07042 0.58013 0.39695
 H341 H 0.06599 0.48918 0.38970
 H342 H 0.10634 0.50951 0.32704
 H343 H 0.21502 0.65242 0.18245
 H344 H 0.25400 0.67227 0.11793
 H345 H 0.23939 0.57777 0.09653
 H346 H 0.20044 0.55793 0.16109
 C347 C 0.44406 0.88764 0.32494
 C348 C 0.47417 0.89821 0.34541
 C349 C 0.48567 0.92139 0.38126
 C350 C 0.46728 0.93447 0.39758
 C351 C 0.43711 0.92380 0.37731
 C352 C 0.42566 0.90070 0.34137
 C353 C 0.43199 0.86330 0.28653
 N354 N 0.40382 0.85451 0.26459
 N355 N 0.39309 0.83283 0.22985
 C356 C 0.41006 0.81896 0.21558
 N357 N 0.43821 0.82771 0.23759
 N358 N 0.44895 0.84942 0.27229
 C359 C 0.39823 0.79500 0.17665
 C360 C 0.41498 0.77944 0.16371
 C361 C 0.40397 0.75704 0.12677
 C362 C 0.37601 0.74974 0.10173
 C363 C 0.35920 0.76522 0.11476
 C364 C 0.37016 0.78754 0.15181
 H365 H 0.48900 0.88871 0.33363
 H366 H 0.50900 0.92906 0.39616
 H367 H 0.42235 0.93340 0.38906
 H368 H 0.40235 0.89310 0.32648
 H369 H 0.43665 0.78454 0.18211
 H370 H 0.41751 0.74556 0.11771
 H371 H 0.33753 0.76011 0.09635
 H372 H 0.35665 0.79905 0.16079
 C373 C 0.44254 0.55623 0.32620
 C374 C 0.47401 0.57465 0.34261
 C375 C 0.48564 0.56327 0.37868
 C376 C 0.46610 0.53315 0.39911
 C377 C 0.43461 0.51475 0.38283
 C378 C 0.42295 0.52617 0.34685
 C379 C 0.43030 0.56819 0.28761
 N380 N 0.39946 0.55120 0.27333
 N381 N 0.38853 0.56185 0.23845
 C382 C 0.40797 0.58993 0.21628
 N383 N 0.43881 0.60693 0.23058
 N384 N 0.44973 0.59631 0.26550
 C385 C 0.39588 0.60165 0.17715
 C386 C 0.41654 0.62967 0.15218
 C387 C 0.40521 0.64054 0.11498
 C388 C 0.37291 0.62370 0.10192
 C389 C 0.35221 0.59578 0.12706
 C390 C 0.36356 0.58486 0.16416
 H391 H 0.48976 0.59792 0.32760
 H392 H 0.51001 0.57804 0.39040
 H393 H 0.41893 0.49146 0.39785
 H394 H 0.39860 0.51133 0.33509
 H395 H 0.44157 0.64321 0.16119
 H396 H 0.42180 0.66218 0.09648
 H397 H 0.32719 0.58223 0.11799
 H398 H 0.34695 0.56323 0.18265
   
