data_POSCAR
  _audit_creation_date              2014-09-24
  _audit_creation_method            'ToBaCCo'
  _symmetry_space_group_name_H-M    'P1'
  _symmetry_Int_Tables_number       1
  _symmetry_cell_setting            triclinic
  loop_
  _symmetry_equiv_pos_as_xyz
 x,y,z
_cell_length_a 40.1674
_cell_length_b 42.1201
_cell_length_c 38.2212
_cell_angle_alpha 91.574000
_cell_angle_beta 88.717100
_cell_angle_gamma 92.221000
loop_
  _atom_site_label
  _atom_site_type_symbol
  _atom_site_fract_x
  _atom_site_fract_y
  _atom_site_fract_z
C1 C 0.20669 0.17422 0.19711
 C2 C 0.19148 0.16061 0.22671
 C3 C 0.16261 0.17334 0.24160
 C4 C 0.14902 0.20012 0.22739
 C5 C 0.16405 0.21405 0.19777
 C6 C 0.19296 0.20101 0.18240
 C7 C 0.23489 0.16096 0.18146
 C8 C 0.24936 0.17394 0.15116
 C9 C 0.23600 0.20067 0.13645
 C10 C 0.20774 0.21434 0.15196
 C11 C 0.19350 0.24064 0.13722
 C12 C 0.16481 0.25343 0.15256
 C13 C 0.15025 0.24030 0.18274
 H14 H 0.20174 0.13971 0.23774
 H15 H 0.12650 0.20974 0.23895
 H16 H 0.24526 0.14012 0.19252
 H17 H 0.24723 0.21047 0.11283
 H18 H 0.20439 0.25089 0.11368
 H19 H 0.12788 0.25030 0.19419
 C20 C -0.22742 0.81939 0.21607
 C21 C -0.21641 0.83247 0.24803
 C22 C -0.18978 0.81939 0.26486
 C23 C -0.17455 0.79255 0.25036
 C24 C -0.18542 0.77909 0.21841
 C25 C -0.21184 0.79269 0.20100
 C26 C -0.25277 0.83346 0.19822
 C27 C -0.26245 0.82146 0.16533
 C28 C -0.24735 0.79474 0.15031
 C29 C -0.22196 0.78023 0.16800
 C30 C -0.20569 0.75423 0.15282
 C31 C -0.17945 0.74088 0.17014
 C32 C -0.16948 0.75312 0.20286
 H33 H -0.22776 0.85354 0.25916
 H34 H -0.15360 0.78280 0.26331
 H35 H -0.26438 0.85435 0.20950
 H36 H -0.25480 0.78574 0.12468
 H37 H -0.21292 0.74476 0.12731
 H38 H -0.14887 0.74281 0.21580
 C39 C -0.25468 0.20798 -0.25509
 C40 C -0.24005 0.19288 -0.28432
 C41 C -0.21016 0.20509 -0.29885
 C42 C -0.19549 0.23343 -0.28544
 C43 C -0.20999 0.24901 -0.25630
 C44 C -0.23952 0.23603 -0.24069
 C45 C -0.28276 0.19409 -0.23850
 C46 C -0.29540 0.20733 -0.20722
 C47 C -0.28083 0.23551 -0.19299
 C48 C -0.25281 0.25003 -0.20961
 C49 C -0.23655 0.27706 -0.19461
 C50 C -0.20722 0.28984 -0.21018
 C51 C -0.19423 0.27605 -0.24106
 H52 H -0.25080 0.17055 -0.29448
 H53 H -0.17196 0.24235 -0.29648
 H54 H -0.29373 0.17195 -0.24896
 H55 H -0.29037 0.24533 -0.16839
 H56 H -0.24597 0.28748 -0.17027
 H57 H -0.17111 0.28567 -0.25240
 C58 C 0.23013 0.81053 -0.23516
 C59 C 0.21232 0.82739 -0.25912
 C60 C 0.18142 0.81542 -0.27075
 C61 C 0.16851 0.78605 -0.25934
 C62 C 0.18613 0.76885 -0.23541
 C63 C 0.21700 0.78120 -0.22299
 C64 C 0.26009 0.82328 -0.22199
 C65 C 0.27682 0.80744 -0.19640
 C66 C 0.26411 0.77814 -0.18428
 C67 C 0.23414 0.76481 -0.19751
 C68 C 0.22017 0.73616 -0.18474
 C69 C 0.18947 0.72407 -0.19718
 C70 C 0.17274 0.74022 -0.22257
 H71 H 0.22206 0.85029 -0.26792
 H72 H 0.14442 0.77702 -0.26833
 H73 H 0.26986 0.84617 -0.23073
 H74 H 0.27699 0.76631 -0.16401
 H75 H 0.23263 0.72374 -0.16462
 H76 H 0.14875 0.73092 -0.23153
 C77 C 0.19229 1.22948 0.79834
 C78 C 0.17793 1.21552 0.76822
 C79 C 0.19069 1.18775 0.75299
 C80 C 0.21828 1.17402 0.76760
 C81 C 0.23295 1.18771 0.79776
 C82 C 0.21985 1.21552 0.81331
 C83 C 0.17897 1.25668 0.81427
 C84 C 0.19263 1.26996 0.84503
 C85 C 0.22012 1.25626 0.85989
 C86 C 0.23387 1.22901 0.84421
 C87 C 0.26085 1.21455 0.85928
 C88 C 0.27377 1.18690 0.84388
 C89 C 0.25994 1.17365 0.81317
 H90 H 0.15640 1.22591 0.75703
 H91 H 0.22793 1.15238 0.75591
 H92 H 0.15753 1.26722 0.80306
 H93 H 0.23045 1.26647 0.88385
 H94 H 0.27149 1.22448 0.88320
 H95 H 0.26991 1.15211 0.80160
 C96 C 0.82823 0.77032 0.79300
 C97 C 0.84523 0.78441 0.76448
 C98 C 0.83399 0.81249 0.75062
 C99 C 0.80547 0.82645 0.76507
 C100 C 0.78822 0.81270 0.79357
 C101 C 0.79962 0.78453 0.80766
 C102 C 0.83975 0.74267 0.80763
 C103 C 0.82315 0.72924 0.83670
 C104 C 0.79465 0.74325 0.85111
 C105 C 0.78276 0.77090 0.83682
 C106 C 0.75475 0.78558 0.85164
 C107 C 0.74358 0.81362 0.83773
 C108 C 0.76018 0.82702 0.80870
 H109 H 0.86743 0.77379 0.75341
 H110 H 0.79698 0.84829 0.75446
 H111 H 0.86194 0.73189 0.79676
 H112 H 0.78206 0.73294 0.87376
 H113 H 0.74192 0.77550 0.87426
 H114 H 0.75152 0.84885 0.79827
 C115 C 0.19358 0.75824 1.23660
 C116 C 0.17694 0.77322 1.26483
 C117 C 0.18936 0.80232 1.27880
 C118 C 0.21879 0.81645 1.26491
 C119 C 0.23576 0.80181 1.23667
 C120 C 0.22312 0.77256 1.22244
 C121 C 0.18054 0.72981 1.22139
 C122 C 0.19660 0.71578 1.19223
 C123 C 0.22613 0.72974 1.17851
 C124 C 0.23945 0.75814 1.19333
 C125 C 0.26808 0.77303 1.17864
 C126 C 0.28036 0.80218 1.19245
 C127 C 0.26443 0.81643 1.22155
 H128 H 0.15395 0.76266 1.27543
 H129 H 0.22801 0.83915 1.27559
 H130 H 0.15744 0.71911 1.23161
 H131 H 0.23819 0.71900 1.15566
 H132 H 0.28032 0.76241 1.15585
 H133 H 0.27388 0.83921 1.23179
 C134 C 0.82319 1.23062 1.24551
 C135 C 0.84076 1.21575 1.27148
 C136 C 0.82892 1.18654 1.28468
 C137 C 0.79924 1.17217 1.27210
 C138 C 0.78137 1.18667 1.24615
 C139 C 0.79333 1.21606 1.23287
 C140 C 0.83542 1.25927 1.23111
 C141 C 0.81813 1.27327 1.20439
 C142 C 0.78834 1.25908 1.19231
 C143 C 0.77588 1.23049 1.20622
 C144 C 0.74691 1.21550 1.19296
 C145 C 0.73532 1.18619 1.20570
 C146 C 0.75230 1.17188 1.23242
 H147 H 0.86389 1.22662 1.28099
 H148 H 0.79036 1.14943 1.28210
 H149 H 0.85868 1.27027 1.24003
 H150 H 0.77537 1.26989 1.17136
 H151 H 0.73383 1.22619 1.17201
 H152 H 0.74334 1.14900 1.24188
 O153 O 0.52446 0.96071 0.94861
 O154 O 0.47117 0.97006 1.06791
 O155 O 0.57306 0.99434 1.03225
 O156 O 0.46427 0.95807 0.95781
 O157 O 0.53426 0.97075 1.06559
 O158 O 0.48051 0.98462 0.91233
 O159 O 0.46283 0.94690 1.01838
 O160 O 0.56894 0.98559 0.96856
 C161 C 0.55520 0.96146 0.95368
 C162 C 0.46122 0.94625 1.05064
 C163 C 0.56391 0.97372 1.05452
 C164 C 0.46011 0.96353 0.92585
 O165 O 0.48450 1.03687 0.94797
 O166 O 0.53560 1.03121 1.07193
 O167 O 0.54576 1.04693 0.96514
 O168 O 0.43642 1.00474 1.03409
 O169 O 0.47323 1.03187 1.06540
 O170 O 0.53783 1.01492 0.92335
 O171 O 0.44043 1.01688 0.97242
 O172 O 0.55024 1.05421 1.02483
 Co173 Co 0.50336 0.99850 0.95048
 Co174 Co 0.50356 1.00107 1.06149
 Co175 Co 0.55536 1.01870 0.99785
 Co176 Co 0.45556 0.98341 0.99628
 O177 O 0.50585 1.00168 1.00370
 C178 C 0.45444 1.03867 0.95543
 C179 C 0.54975 1.05387 1.05701
 C180 C 0.55052 1.04051 0.93378
 C181 C 0.44426 1.02787 1.05440
 O182 O 0.02767 0.46910 0.06259
 O183 O 0.01457 0.52161 -0.08978
 O184 O 0.01183 0.43753 -0.03376
 O185 O 0.05343 0.53899 0.01692
 O186 O 0.03898 0.47963 -0.05287
 O187 O 0.02953 0.52933 0.06622
 O188 O 0.04179 0.53731 -0.04380
 O189 O 0.00123 0.43329 0.02915
 C190 C 0.02341 0.44103 0.05121
 C191 C 0.03613 0.54143 -0.07575
 C192 C 0.03774 0.45037 -0.04759
 C193 C 0.05412 0.53983 0.04920
 O194 O -0.03506 0.52871 0.06404
 O195 O -0.01740 0.46722 -0.07961
 O196 O -0.06054 0.45707 0.02098
 O197 O -0.01971 0.56025 -0.02958
 O198 O -0.04039 0.51843 -0.05518
 O199 O -0.03590 0.46904 0.06854
 O200 O -0.00715 0.56394 0.03249
 O201 O -0.05192 0.46090 -0.03878
 Co202 Co -0.00357 0.49907 0.05913
 Co203 Co -0.00042 0.50001 -0.05189
 Co204 Co -0.02322 0.45106 -0.00538
 Co205 Co 0.01518 0.54574 -0.00547
 O206 O -0.00435 0.49777 0.00130
 C207 C -0.03031 0.55661 0.05411
 C208 C -0.04448 0.45536 -0.06981
 C209 C -0.06010 0.45662 0.05316
 C210 C -0.04213 0.54713 -0.04755
 O211 O 1.06325 0.03524 0.47517
 O212 O 0.92900 0.01154 0.54397
 O213 O 0.97457 0.01941 0.44150
 O214 O 1.02463 0.05340 0.55768
 O215 O 0.95150 0.03661 0.48889
 O216 O 1.07004 0.03293 0.54049
 O217 O 0.96794 0.04460 0.55337
 O218 O 1.03354 0.00871 0.43606
 C219 C 1.05318 0.03161 0.44460
 C220 C 0.93816 0.03711 0.55778
 C221 C 0.95786 0.03991 0.45730
 C222 C 1.05529 0.05431 0.55661
 O223 O 1.06552 -0.02771 0.53742
 O224 O 0.91846 -0.01608 0.48341
 O225 O 1.01979 -0.05042 0.46185
 O226 O 0.97289 -0.01765 0.57515
 O227 O 0.95426 -0.04125 0.52771
 O228 O 1.06677 -0.02656 0.47134
 O229 O 1.03348 -0.00704 0.57928
 O230 O 0.96184 -0.04076 0.46429
 Co231 Co 1.06046 0.00340 0.50617
 Co232 Co 0.95496 -0.00247 0.50713
 Co233 Co 0.99806 -0.01415 0.45583
 Co234 Co 0.99989 0.01689 0.56193
 O235 O 1.00546 0.00218 0.50924
 C236 C 1.05543 -0.02622 0.56874
 C237 C 0.93127 -0.03568 0.46071
 C238 C 1.05054 -0.05042 0.46034
 C239 C 0.95898 -0.04156 0.55999
 C240 C 1.11852 0.12475 0.32012
 C241 C 1.12373 0.08911 0.31400
 C242 C 1.10985 0.07070 0.33953
 C243 C 1.09213 0.08971 0.36871
 C244 C 1.06674 0.10920 0.34995
 C245 C 1.08065 0.12767 0.32434
 C246 C 1.13239 0.13262 0.35655
 C247 C 1.11849 0.11417 0.38214
 C248 C 1.13379 0.14397 0.29237
 C249 C 1.14705 0.15845 0.26885
 C250 C 1.07756 0.06954 0.39601
 C251 C 1.06617 0.05239 0.41827
 H252 H 1.13713 0.07920 0.29152
 H253 H 1.11135 0.04500 0.33895
 H254 H 1.04023 0.10860 0.35626
 H255 H 1.06609 0.14292 0.30868
 H256 H 1.15135 0.15110 0.36180
 H257 H 1.12554 0.11682 0.40936
 C258 C 0.85094 -0.12978 0.34460
 C259 C 0.84575 -0.09426 0.33969
 C260 C 0.86063 -0.07506 0.36443
 C261 C 0.87923 -0.09325 0.39166
 C262 C 0.90370 -0.11360 0.37032
 C263 C 0.88882 -0.13280 0.34559
 C264 C 0.83829 -0.13635 0.38201
 C265 C 0.85322 -0.11709 0.40683
 C266 C 0.83538 -0.14990 0.31729
 C267 C 0.82330 -0.16510 0.29332
 C268 C 0.89591 -0.07249 0.41767
 C269 C 0.91120 -0.05547 0.43791
 H270 H 0.83154 -0.08502 0.31865
 H271 H 0.85919 -0.04937 0.36462
 H272 H 0.93039 -0.11303 0.37435
 H273 H 0.90274 -0.14870 0.32845
 H274 H 0.81936 -0.15448 0.38842
 H275 H 0.84707 -0.11868 0.43455
 C276 C 0.84281 0.14395 0.63876
 C277 C 0.83318 0.10973 0.64893
 C278 C 0.85144 0.08740 0.63174
 C279 C 0.87754 0.10148 0.60609
 C280 C 0.89857 0.12543 0.62805
 C281 C 0.88032 0.14774 0.64523
 C282 C 0.83958 0.14422 0.59884
 C283 C 0.85790 0.12182 0.58160
 C284 C 0.82344 0.16754 0.65821
 C285 C 0.80792 0.18563 0.67652
 C286 C 0.89768 0.07758 0.58815
 C287 C 0.91548 0.05854 0.57411
 H288 H 0.81364 0.10357 0.66791
 H289 H 0.84757 0.06212 0.63595
 H290 H 0.92549 0.12495 0.62987
 H291 H 0.89158 0.16640 0.66176
 H292 H 0.82433 0.16051 0.58534
 H293 H 0.85833 0.11888 0.55329
 C294 C 1.12979 -0.12737 0.66995
 C295 C 1.09168 -0.13147 0.67276
 C296 C 1.07540 -0.11055 0.65329
 C297 C 1.09893 -0.08770 0.63303
 C298 C 1.12195 -0.10920 0.61125
 C299 C 1.13819 -0.13007 0.63068
 C300 C 1.13753 -0.09240 0.68021
 C301 C 1.12129 -0.07153 0.66077
 C302 C 1.14768 -0.14940 0.69086
 C303 C 1.16322 -0.16651 0.70853
 C304 C 1.08204 -0.06527 0.61170
 C305 C 1.06928 -0.04710 0.59286
 H306 H 1.07866 -0.14919 0.68862
 H307 H 1.04841 -0.11032 0.65245
 H308 H 1.12519 -0.10814 0.58302
 H309 H 1.15534 -0.14690 0.61914
 H310 H 1.15428 -0.08472 0.70095
 H311 H 1.12409 -0.04596 0.66485
 C312 C 0.32498 1.12446 1.11020
 C313 C 0.32122 1.09056 1.12389
 C314 C 0.34574 1.07126 1.11236
 C315 C 0.37164 1.08772 1.08825
 C316 C 0.38456 1.11705 1.10930
 C317 C 0.35998 1.13640 1.12087
 C318 C 0.32692 1.12035 1.07019
 C319 C 0.35151 1.10098 1.05862
 C320 C 0.29828 1.14453 1.12329
 C321 C 0.27561 1.15930 1.13563
 C322 C 0.39784 1.06664 1.07614
 C323 C 0.41913 1.04894 1.06634
 H324 H 0.30099 1.08241 1.14114
 H325 H 0.34655 1.04659 1.11972
 H326 H 0.41068 1.12219 1.11461
 H327 H 0.36501 1.15814 1.13607
 H328 H 0.31048 1.13162 1.05253
 H329 H 0.35613 1.09561 1.03104
 C330 C 0.35295 0.86139 0.84702
 C331 C 0.38880 0.85594 0.83408
 C332 C 0.41173 0.87704 0.84828
 C333 C 0.39645 0.90142 0.87394
 C334 C 0.37702 0.88147 0.90119
 C335 C 0.35417 0.86044 0.88704
 C336 C 0.34686 0.89621 0.83905
 C337 C 0.36971 0.91724 0.85320
 C338 C 0.32762 0.83946 0.83191
 C339 C 0.30522 0.82346 0.81928
 C340 C 0.42050 0.92417 0.88991
 C341 C 0.43917 0.94260 0.90505
 H342 H 0.39557 0.83721 0.81549
 H343 H 0.43816 0.87640 0.84184
 H344 H 0.38093 0.88366 0.92919
 H345 H 0.33852 0.84461 0.90287
 H346 H 0.32637 0.90371 0.82357
 H347 H 0.36881 0.94270 0.84986
 C348 C 0.67176 0.87431 1.11789
 C349 C 0.67881 0.90927 1.12868
 C350 C 0.65724 0.92954 1.11512
 C351 C 0.63074 0.91288 1.09211
 C352 C 0.61373 0.88761 1.11533
 C353 C 0.63532 0.86731 1.12891
 C354 C 0.67202 0.87373 1.07771
 C355 C 0.65039 0.89407 1.06411
 C356 C 0.69510 0.85312 1.13323
 C357 C 0.71478 0.83732 1.14754
 C358 C 0.60744 0.93483 1.07802
 C359 C 0.58786 0.95283 1.06711
 H360 H 0.69902 0.91739 1.14549
 H361 H 0.65896 0.95502 1.12029
 H362 H 0.58705 0.88577 1.12059
 H363 H 0.62718 0.84807 1.14578
 H364 H 0.68771 0.85869 1.06141
 H365 H 0.64755 0.89649 1.03614
 C366 C 0.64008 1.14917 0.84434
 C367 C 0.64854 1.11494 0.83368
 C368 C 0.62936 1.09241 0.85030
 C369 C 0.60356 1.10628 0.87598
 C370 C 0.58345 1.12860 0.85421
 C371 C 0.60270 1.15120 0.83753
 C372 C 0.64296 1.15090 0.88429
 C373 C 0.62377 1.12836 0.90092
 C374 C 0.66153 1.17277 0.82637
 C375 C 0.68095 1.19022 0.81101
 C376 C 0.58346 1.08200 0.89446
 C377 C 0.56794 1.06250 0.91133
 H378 H 0.66790 1.10892 0.81462
 H379 H 0.63225 1.06713 0.84549
 H380 H 0.55653 1.12681 0.85208
 H381 H 0.59228 1.16881 0.82116
 H382 H 0.65859 1.16835 0.89830
 H383 H 0.62299 1.12650 0.92920
 C384 C 0.11560 0.32641 0.11093
 C385 C 0.07899 0.32476 0.12336
 C386 C 0.06068 0.34835 0.11101
 C387 C 0.08076 0.37128 0.08742
 C388 C 0.09608 0.35014 0.05843
 C389 C 0.11444 0.32650 0.07081
 C390 C 0.12864 0.35987 0.12186
 C391 C 0.11029 0.38351 0.10948
 C392 C 0.13475 0.30087 0.12465
 C393 C 0.14921 0.27944 0.13689
 C394 C 0.06075 0.39650 0.07436
 C395 C 0.04382 0.41697 0.06380
 H396 H 0.06837 0.30660 0.14037
 H397 H 0.03437 0.35044 0.11743
 H398 H 0.09282 0.35346 0.03067
 H399 H 0.12697 0.30956 0.05367
 H400 H 0.15041 0.36458 0.13778
 H401 H 0.11632 0.40850 0.11480
 C402 C -0.14837 0.35811 -0.16029
 C403 C -0.15283 0.39293 -0.16951
 C404 C -0.13146 0.41380 -0.15257
 C405 C -0.10779 0.39774 -0.12812
 C406 C -0.09013 0.37301 -0.15133
 C407 C -0.11145 0.35219 -0.16823
 C408 C -0.15199 0.35744 -0.12028
 C409 C -0.13068 0.37825 -0.10339
 C410 C -0.17092 0.33513 -0.17826
 C411 C -0.18828 0.31509 -0.19282
 C412 C -0.08478 0.41965 -0.10929
 C413 C -0.06608 0.43657 -0.09222
 H414 H -0.17113 0.40051 -0.18770
 H415 H -0.13144 0.43927 -0.15625
 H416 H -0.06324 0.37199 -0.15431
 H417 H -0.10280 0.33333 -0.18568
 H418 H -0.16979 0.34204 -0.10641
 H419 H -0.13024 0.38066 -0.07504
 C420 C 0.13612 0.64925 -0.15445
 C421 C 0.14329 0.61556 -0.16826
 C422 C 0.12287 0.59253 -0.15386
 C423 C 0.09736 0.60555 -0.12714
 C424 C 0.07863 0.63033 -0.14682
 C425 C 0.09898 0.65329 -0.16118
 C426 C 0.13854 0.64778 -0.11455
 C427 C 0.11818 0.62482 -0.10020
 C428 C 0.15741 0.67454 -0.16969
 C429 C 0.17318 0.69654 -0.18212
 C430 C 0.07527 0.58134 -0.11101
 C431 C 0.05715 0.56251 -0.09599
 H432 H 0.16264 0.61027 -0.18759
 H433 H 0.12470 0.56750 -0.16087
 H434 H 0.05174 0.62984 -0.14938
 H435 H 0.08951 0.67248 -0.17603
 H436 H 0.15488 0.66335 -0.09895
 H437 H 0.11708 0.62072 -0.07227
 C438 C -0.12514 0.66986 0.12427
 C439 C -0.12547 0.66847 0.08410
 C440 C -0.10625 0.64543 0.06951
 C441 C -0.08863 0.62609 0.09657
 C442 C -0.11662 0.61317 0.12088
 C443 C -0.13582 0.63620 0.13547
 C444 C -0.08819 0.67378 0.13353
 C445 C -0.06900 0.65077 0.11896
 C446 C -0.14547 0.69472 0.14017
 C447 C -0.16144 0.71553 0.15366
 C448 C -0.06787 0.60135 0.08111
 C449 C -0.05068 0.58096 0.06869
 H450 H -0.13956 0.68417 0.06851
 H451 H -0.10386 0.64138 0.04140
 H452 H -0.12099 0.58813 0.12613
 H453 H -0.15666 0.63092 0.15322
 H454 H -0.07799 0.69298 0.15007
 H455 H -0.04236 0.65025 0.12299
 C456 C 1.14184 0.14302 0.67330
 C457 C 1.14364 0.10680 0.67506
 C458 C 1.12615 0.09069 0.64968
 C459 C 1.10847 0.11229 0.62488
 C460 C 1.13614 0.13483 0.61046
 C461 C 1.15370 0.15101 0.63594
 C462 C 1.10445 0.14943 0.67436
 C463 C 1.08693 0.13329 0.64894
 C464 C 1.16046 0.15998 0.70127
 C465 C 1.17505 0.17322 0.72517
 C466 C 1.08943 0.09404 0.59816
 C467 C 1.07373 0.07707 0.57801
 H468 H 1.15752 0.09483 0.69452
 H469 H 1.12508 0.06492 0.64746
 H470 H 1.14144 0.13785 0.58275
 H471 H 1.17404 0.16786 0.63004
 H472 H 1.09277 0.16533 0.69336
 H473 H 1.06026 0.13538 0.64619
 C474 C 0.88418 -0.14033 0.67386
 C475 C 0.87453 -0.10544 0.67488
 C476 C 0.89066 -0.08755 0.65022
 C477 C 0.91500 -0.10616 0.62674
 C478 C 0.89393 -0.13414 0.61133
 C479 C 0.87773 -0.15212 0.63611
 C480 C 0.92229 -0.13916 0.67695
 C481 C 0.93848 -0.12120 0.65220
 C482 C 0.86642 -0.15896 0.70099
 C483 C 0.85136 -0.17292 0.72400
 C484 C 0.93205 -0.08578 0.60068
 C485 C 0.94502 -0.06683 0.58095
 H486 H 0.85651 -0.09561 0.69337
 H487 H 0.88642 -0.06242 0.64765
 H488 H 0.89199 -0.13943 0.58348
 H489 H 0.86192 -0.17278 0.62944
 H490 H 0.93540 -0.15146 0.69674
 H491 H 0.96543 -0.11815 0.65082
 C492 C 1.13560 -0.14784 0.35352
 C493 C 1.14406 -0.15294 0.39192
 C494 C 1.12611 -0.13492 0.41523
 C495 C 1.10148 -0.11360 0.39783
 C496 C 1.07984 -0.13630 0.37497
 C497 C 1.09777 -0.15430 0.35169
 C498 C 1.14067 -0.11196 0.34855
 C499 C 1.12279 -0.09401 0.37177
 C500 C 1.15496 -0.16670 0.32792
 C501 C 1.17077 -0.18123 0.30598
 C502 C 1.08237 -0.09337 0.42226
 C503 C 1.06733 -0.07484 0.44071
 H504 H 1.16246 -0.16927 0.40008
 H505 H 1.12915 -0.13583 0.44333
 H506 H 1.05284 -0.13816 0.37697
 H507 H 1.08609 -0.17155 0.33375
 H508 H 1.15694 -0.10152 0.32855
 H509 H 1.12379 -0.06822 0.37161
 C510 C 0.88084 0.13824 0.35398
 C511 C 0.87647 0.14847 0.39267
 C512 C 0.89328 0.13045 0.41506
 C513 C 0.91283 0.10397 0.39658
 C514 C 0.93551 0.12101 0.36957
 C515 C 0.91871 0.13901 0.34719
 C516 C 0.87018 0.10288 0.35247
 C517 C 0.88692 0.08493 0.37478
 C518 C 0.86241 0.15704 0.32948
 C519 C 0.84683 0.17135 0.30872
 C520 C 0.93047 0.08363 0.42018
 C521 C 0.94377 0.06485 0.43812
 H522 H 0.86158 0.16818 0.40166
 H523 H 0.89278 0.13474 0.44320
 H524 H 0.96240 0.11917 0.36820
 H525 H 0.93123 0.15257 0.32667
 H526 H 0.85110 0.09278 0.33533
 H527 H 0.88214 0.05948 0.37670
 C528 C 0.14307 0.34279 -0.11061
 C529 C 0.14216 0.34483 -0.07041
 C530 C 0.12269 0.36824 -0.05693
 C531 C 0.10605 0.38729 -0.08497
 C532 C 0.08705 0.36230 -0.10758
 C533 C 0.10644 0.33899 -0.12100
 C534 C 0.15432 0.37626 -0.12210
 C535 C 0.13484 0.39968 -0.10861
 C536 C 0.16316 0.31714 -0.12562
 C537 C 0.17786 0.29529 -0.13895
 C538 C 0.08410 0.41187 -0.07083
 C539 C 0.06401 0.43048 -0.05989
 H540 H 0.15569 0.32936 -0.05401
 H541 H 0.11960 0.37284 -0.02899
 H542 H 0.06058 0.36286 -0.11261
 H543 H 0.09656 0.31961 -0.13750
 H544 H 0.17575 0.38115 -0.13919
 H545 H 0.13958 0.42461 -0.11416
 C546 C -0.14215 0.34896 0.14977
 C547 C -0.15427 0.34778 0.11189
 C548 C -0.14046 0.37127 0.09176
 C549 C -0.11589 0.39365 0.11148
 C550 C -0.09031 0.37178 0.12644
 C551 C -0.10409 0.34835 0.14651
 C552 C -0.14948 0.38260 0.16369
 C553 C -0.13564 0.40614 0.14353
 C554 C -0.15658 0.32313 0.17099
 C555 C -0.16804 0.30089 0.18711
 C556 C -0.09980 0.41830 0.08978
 C557 C -0.08350 0.43693 0.07243
 H558 H -0.17222 0.33010 0.10179
 H559 H -0.14657 0.37372 0.06447
 H560 H -0.06361 0.37449 0.12170
 H561 H -0.08922 0.33104 0.15893
 H562 H -0.16426 0.38749 0.18721
 H563 H -0.13857 0.43119 0.14976
 C564 C -0.13539 0.65503 -0.11830
 C565 C -0.10437 0.64474 -0.13912
 C566 C -0.08817 0.62097 -0.12416
 C567 C -0.10449 0.60966 -0.08976
 C568 C -0.14068 0.60046 -0.09896
 C569 C -0.15696 0.62436 -0.11400
 C570 C -0.12294 0.66362 -0.08143
 C571 C -0.10673 0.63981 -0.06645
 C572 C -0.15203 0.68119 -0.13460
 C573 C -0.16423 0.70346 -0.14810
 C574 C -0.08570 0.58471 -0.07383
 C575 C -0.06739 0.56618 -0.06137
 H576 H -0.09590 0.65516 -0.16357
 H577 H -0.06584 0.61106 -0.13585
 H578 H -0.15248 0.57734 -0.09404
 H579 H -0.18272 0.62168 -0.12195
 H580 H -0.12668 0.68636 -0.06816
 H581 H -0.09663 0.64219 -0.04035
 C582 C 0.15078 0.64305 0.13936
 C583 C 0.15826 0.64399 0.09980
 C584 C 0.14108 0.62116 0.08087
 C585 C 0.11810 0.59962 0.10334
 C586 C 0.09571 0.62242 0.12416
 C587 C 0.11285 0.64518 0.14304
 C588 C 0.15805 0.60902 0.14961
 C589 C 0.14082 0.58614 0.13063
 C590 C 0.16858 0.66823 0.15953
 C591 C 0.18211 0.69008 0.17537
 C592 C 0.09846 0.57582 0.08306
 C593 C 0.07967 0.55815 0.06701
 H594 H 0.17564 0.66101 0.08775
 H595 H 0.14373 0.61861 0.05261
 H596 H 0.06866 0.62077 0.12413
 H597 H 0.10049 0.66301 0.15916
 H598 H 0.17521 0.60341 0.16988
 H599 H 0.14323 0.56092 0.13463
 C600 C 0.34764 1.13786 0.88923
 C601 C 0.34799 1.13995 0.92942
 C602 C 0.37132 1.12175 0.94364
 C603 C 0.39203 1.10323 0.91631
 C604 C 0.40689 1.12852 0.89167
 C605 C 0.38355 1.14673 0.87744
 C606 C 0.34305 1.10228 0.88016
 C607 C 0.36629 1.08415 0.89434
 C608 C 0.32207 1.15680 0.87359
 C609 C 0.30037 1.17111 0.86026
 C610 C 0.41655 1.08267 0.93128
 C611 C 0.43500 1.06373 0.94279
 H612 H 0.33149 1.15455 0.94528
 H613 H 0.37482 1.12082 0.97167
 H614 H 0.43338 1.13192 0.88605
 H615 H 0.39007 1.16572 0.85960
 H616 H 0.32322 1.09219 0.86397
 H617 H 0.36632 1.05853 0.89027
 C618 C 0.35551 0.85075 1.13926
 C619 C 0.35296 0.88677 1.14475
 C620 C 0.37616 0.90399 1.12608
 C621 C 0.39975 0.88359 1.10365
 C622 C 0.37677 0.86221 1.08078
 C623 C 0.35353 0.84495 1.09950
 C624 C 0.39159 0.84384 1.14820
 C625 C 0.41488 0.86114 1.12945
 C626 C 0.32991 0.83268 1.15923
 C627 C 0.30782 0.81857 1.17493
 C628 C 0.42406 0.90315 1.08364
 C629 C 0.44222 0.92152 1.06793
 H630 H 0.33456 0.89782 1.16186
 H631 H 0.37758 0.92980 1.12724
 H632 H 0.37867 0.86067 1.05241
 H633 H 0.33551 0.82863 1.08713
 H634 H 0.39824 0.82684 1.16745
 H635 H 0.44148 0.85896 1.13263
 C636 C 0.65865 1.14018 1.15295
 C637 C 0.62287 1.14643 1.16565
 C638 C 0.59904 1.13089 1.14599
 C639 C 0.61340 1.11068 1.11560
 C640 C 0.63727 1.08845 1.13279
 C641 C 0.66100 1.10393 1.15238
 C642 C 0.65981 1.14924 1.11427
 C643 C 0.63604 1.13373 1.09465
 C644 C 0.68484 1.15660 1.17358
 C645 C 0.70738 1.16995 1.18913
 C646 C 0.58847 1.09311 1.09431
 C647 C 0.56968 1.07651 1.07695
 H648 H 0.61681 1.16168 1.18806
 H649 H 0.57257 1.13284 1.15154
 H650 H 0.63563 1.06272 1.12988
 H651 H 0.67964 1.09148 1.16623
 H652 H 0.67770 1.16640 1.10327
 H653 H 0.63358 1.13762 1.06688
 C654 C 0.66679 0.86298 0.88369
 C655 C 0.66697 0.86439 0.92389
 C656 C 0.64273 0.88255 0.93867
 C657 C 0.62065 0.89755 0.91182
 C658 C 0.60700 0.86950 0.88919
 C659 C 0.63127 0.85132 0.87440
 C660 C 0.66922 0.89780 0.87285
 C661 C 0.64505 0.91591 0.88758
 C662 C 0.69336 0.84403 0.86757
 C663 C 0.71591 0.82963 0.85406
 C664 C 0.59514 0.91801 0.92750
 C665 C 0.57582 0.93676 0.93982
 H666 H 0.68452 0.85211 0.93939
 H667 H 0.63954 0.88581 0.96680
 H668 H 0.58065 0.86435 0.88520
 H669 H 0.62568 0.83060 0.85774
 H670 H 0.68826 0.90740 0.85506
 H671 H 0.64344 0.94101 0.88238
   
