data_POSCAR
  _audit_creation_date              2014-09-24
  _audit_creation_method            'ToBaCCo'
  _symmetry_space_group_name_H-M    'P1'
  _symmetry_Int_Tables_number       1
  _symmetry_cell_setting            triclinic
  loop_
  _symmetry_equiv_pos_as_xyz
 x,y,z
_cell_length_a 33.9007
_cell_length_b 34.3820
_cell_length_c 31.9056
_cell_angle_alpha 90.603300
_cell_angle_beta 90.599700
_cell_angle_gamma 110.230900
loop_
  _atom_site_label
  _atom_site_type_symbol
  _atom_site_fract_x
  _atom_site_fract_y
  _atom_site_fract_z
O1 O 0.00436 0.34923 0.04475
 O2 O 0.05568 0.30185 -0.03255
 O3 O 0.01080 0.35094 -0.03723
 O4 O 0.04945 0.30093 0.04824
 O5 O -0.00886 0.24626 0.04293
 O6 O -0.04657 0.29546 -0.04279
 O7 O -0.00236 0.24695 -0.03708
 O8 O -0.05309 0.29376 0.03959
 Cu9 Cu 0.03581 0.33151 0.00616
 Cu10 Cu -0.03364 0.26555 -0.00012
 C11 C -0.03291 0.32892 0.05592
 C12 C 0.03556 0.26573 -0.04709
 C13 C -0.02443 0.33139 -0.05475
 C14 C 0.02685 0.26491 0.05984
 O15 O 0.55593 0.76618 0.44391
 O16 O 0.49088 0.74513 0.53872
 O17 O 0.57181 0.76960 0.52378
 O18 O 0.47580 0.74251 0.45713
 O19 O 0.47087 0.67676 0.45789
 O20 O 0.57054 0.70520 0.51663
 O21 O 0.49117 0.68100 0.53833
 O22 O 0.54794 0.69965 0.43903
 Cu23 Cu 0.52362 0.76240 0.49153
 Cu24 Cu 0.51943 0.68393 0.48850
 C25 C 0.56194 0.73613 0.42484
 C26 C 0.48090 0.70963 0.55519
 C27 C 0.58841 0.74215 0.52984
 C28 C 0.45776 0.70505 0.44528
 O29 O 1.01469 0.71083 0.03169
 O30 O 0.98179 0.76423 -0.05275
 O31 O 1.02736 0.71669 -0.04782
 O32 O 0.97558 0.76272 0.02919
 O33 O 1.03398 0.81706 0.03618
 O34 O 1.08566 0.77097 -0.04036
 O35 O 1.04012 0.81851 -0.04525
 O36 O 1.07316 0.76468 0.04085
 Cu37 Cu 0.99388 0.73344 -0.01110
 Cu38 Cu 1.06419 0.79820 -0.00154
 C39 C 1.04909 0.72865 0.05116
 C40 C 1.00500 0.80013 -0.06359
 C41 C 1.06554 0.73589 -0.05692
 C42 C 0.99640 0.79736 0.04644
 O43 O 0.50239 0.14718 0.55140
 O44 O 0.43012 0.13176 0.46179
 O45 O 0.50860 0.14196 0.46940
 O46 O 0.42315 0.13614 0.54102
 O47 O 0.44056 0.20429 0.54026
 O48 O 0.52366 0.20949 0.46355
 O49 O 0.44333 0.19929 0.45897
 O50 O 0.52091 0.21511 0.54568
 Cu51 Cu 0.46505 0.13255 0.50653
 Cu52 Cu 0.48404 0.21400 0.50176
 C53 C 0.52381 0.18357 0.56397
 C54 C 0.42350 0.16259 0.44580
 C55 C 0.52968 0.17622 0.45309
 C56 C 0.41692 0.16891 0.55255
 O57 O 0.78604 0.00047 0.02570
 O58 O 0.74288 0.05483 -0.05045
 O59 O 0.78727 0.00735 -0.05565
 O60 O 0.74236 0.04849 0.03113
 O61 O 0.80005 0.10394 0.03514
 O62 O 0.84539 0.06221 -0.05127
 O63 O 0.80077 0.10993 -0.04580
 O64 O 0.84399 0.05541 0.03117
 Cu65 Cu 0.75879 0.02224 -0.01285
 Cu66 Cu 0.82851 0.08812 -0.00720
 C67 C 0.82195 0.01905 0.04217
 C68 C 0.76441 0.09132 -0.06150
 C69 C 0.82361 0.02811 -0.06875
 C70 C 0.76367 0.08306 0.04807
 O71 O 0.12621 0.40050 0.56252
 O72 O 0.12332 0.46962 0.47814
 O73 O 0.12409 0.39370 0.48253
 O74 O 0.13163 0.47699 0.55870
 O75 O 0.20095 0.49759 0.55696
 O76 O 0.19323 0.41660 0.47706
 O77 O 0.19263 0.49327 0.47507
 O78 O 0.19536 0.41967 0.55883
 Cu79 Cu 0.11948 0.43322 0.52048
 Cu80 Cu 0.20258 0.45905 0.51643
 C81 C 0.16067 0.39756 0.57478
 C82 C 0.15700 0.49402 0.46292
 C83 C 0.15737 0.39043 0.46749
 C84 C 0.16753 0.50116 0.57120
 O85 O 0.30705 0.94920 -0.02614
 O86 O 0.26867 1.00071 0.06038
 O87 O 0.28094 0.92950 0.05007
 O88 O 0.30762 1.02513 -0.00931
 O89 O 0.24338 1.00611 -0.03638
 O90 O 0.21987 0.90507 0.01657
 O91 O 0.20552 0.97681 0.03079
 O92 O 0.24630 0.93822 -0.05864
 Cu93 Cu 0.29724 0.97809 0.02175
 Cu94 Cu 0.22218 0.95285 -0.01359
 C95 C 0.28295 0.93653 -0.05822
 C96 C 0.23001 0.99742 0.05958
 C97 C 0.24658 0.90040 0.04265
 C98 C 0.28035 1.03268 -0.03210
 O99 O 0.74309 0.58430 0.53219
 O100 O 0.73444 0.50199 0.45360
 O101 O 0.74001 0.57957 0.45043
 O102 O 0.73839 0.50717 0.53614
 O103 O 0.66924 0.48892 0.53790
 O104 O 0.67068 0.55927 0.45188
 O105 O 0.66524 0.48260 0.45626
 O106 O 0.67381 0.56532 0.53279
 Cu107 Cu 0.74602 0.54507 0.49289
 Cu108 Cu 0.66284 0.52192 0.49488
 C109 C 0.70976 0.58876 0.54568
 C110 C 0.69814 0.47858 0.44130
 C111 C 0.70545 0.58154 0.43659
 C112 C 0.70334 0.48632 0.55207
 C113 C 0.20544 0.22197 0.26171
 C114 C 0.22678 0.19526 0.25778
 C115 C 0.21936 0.16542 0.22202
 C116 C 0.25389 0.18918 0.29192
 C117 C 0.20585 0.24524 0.30115
 C118 C 0.17377 0.22331 0.22993
 C119 C 0.17987 0.13450 0.21613
 C120 C 0.17456 0.10193 0.18763
 C121 C 0.20871 0.09934 0.16443
 C122 C 0.24816 0.13078 0.16995
 C123 C 0.25344 0.16335 0.19865
 C124 C 0.24312 0.14988 0.30977
 C125 C 0.27118 0.14049 0.33638
 C126 C 0.31075 0.17017 0.34570
 C127 C 0.32062 0.21048 0.33004
 C128 C 0.29232 0.21991 0.30307
 C129 C 0.21757 0.28859 0.30052
 C130 C 0.20779 0.31003 0.33408
 C131 C 0.18507 0.28819 0.36812
 C132 C 0.17551 0.24510 0.36976
 C133 C 0.18610 0.22382 0.33668
 C134 C 0.18549 0.23995 0.19010
 C135 C 0.15473 0.24185 0.16125
 C136 C 0.11193 0.22638 0.17172
 C137 C 0.10052 0.20963 0.21154
 C138 C 0.13112 0.20847 0.24045
 H139 H 0.15357 0.13442 0.23513
 H140 H 0.14389 0.07809 0.18519
 H141 H 0.27513 0.13006 0.15256
 H142 H 0.28441 0.18642 0.20350
 H143 H 0.21341 0.12591 0.30184
 H144 H 0.26212 0.10956 0.34894
 H145 H 0.30117 0.25036 0.28935
 H146 H 0.23214 0.30550 0.27301
 H147 H 0.21525 0.34321 0.33200
 H148 H 0.15825 0.22764 0.39584
 H149 H 0.17604 0.19031 0.33736
 H150 H 0.21832 0.25174 0.18161
 H151 H 0.16426 0.25477 0.13064
 H152 H 0.06788 0.19799 0.22067
 H153 H 0.12147 0.19556 0.27105
 H154 H 0.35091 0.23394 0.33692
 C155 C 0.80269 0.79584 0.24777
 C156 C 0.78352 0.82460 0.24582
 C157 C 0.79702 0.85882 0.21564
 C158 C 0.74460 0.81898 0.26916
 C159 C 0.78453 0.75761 0.27238
 C160 C 0.83938 0.79947 0.22149
 C161 C 0.81963 0.89930 0.22948
 C162 C 0.83381 0.93131 0.20059
 C163 C 0.82480 0.92328 0.15760
 C164 C 0.80181 0.88266 0.14398
 C165 C 0.78828 0.85063 0.17276
 C166 C 0.74540 0.82092 0.31311
 C167 C 0.70786 0.80682 0.33526
 C168 C 0.66928 0.78994 0.31360
 C169 C 0.66848 0.79037 0.26966
 C170 C 0.70589 0.80532 0.24756
 C171 C 0.74544 0.72841 0.26070
 C172 C 0.72569 0.69499 0.28649
 C173 C 0.74491 0.68981 0.32423
 C174 C 0.78516 0.71791 0.33475
 C175 C 0.80481 0.75163 0.30898
 C176 C 0.83529 0.77127 0.18836
 C177 C 0.86756 0.77778 0.15956
 C178 C 0.90471 0.81253 0.16355
 C179 C 0.90928 0.83973 0.19800
 C180 C 0.87687 0.83326 0.22666
 H181 H 0.82666 0.90593 0.26254
 H182 H 0.85098 0.96241 0.21199
 H183 H 0.79464 0.87561 0.11102
 H184 H 0.77102 0.81939 0.16168
 H185 H 0.77511 0.83115 0.33015
 H186 H 0.70919 0.80644 0.36917
 H187 H 0.70478 0.80335 0.21364
 H188 H 0.72971 0.73222 0.23213
 H189 H 0.69519 0.67341 0.27691
 H190 H 0.80077 0.71477 0.36362
 H191 H 0.83507 0.77390 0.31833
 H192 H 0.80634 0.74521 0.18374
 H193 H 0.86266 0.75613 0.13356
 H194 H 0.93757 0.86632 0.20288
 H195 H 0.88052 0.85520 0.25228
 H196 H 0.63902 0.77765 0.25241
 C197 C 0.73983 0.26547 0.25344
 C198 C 0.76568 0.30606 0.25239
 C199 C 0.80446 0.32021 0.22651
 C200 C 0.75376 0.33796 0.27537
 C201 C 0.70454 0.25078 0.28383
 C202 C 0.74350 0.23365 0.22311
 C203 C 0.83164 0.29723 0.22460
 C204 C 0.86469 0.30763 0.19624
 C205 C 0.87254 0.34237 0.17068
 C206 C 0.84758 0.36728 0.17482
 C207 C 0.81361 0.35612 0.20225
 C208 C 0.77893 0.36097 0.30848
 C209 C 0.76371 0.38530 0.33477
 C210 C 0.72326 0.38703 0.32799
 C211 C 0.69974 0.36650 0.29275
 C212 C 0.71488 0.34229 0.26665
 C213 C 0.66472 0.22450 0.26973
 C214 C 0.63268 0.20682 0.29813
 C215 C 0.63933 0.21598 0.34108
 C216 C 0.67837 0.24349 0.35531
 C217 C 0.71102 0.26012 0.32700
 C218 C 0.74632 0.24111 0.17978
 C219 C 0.74608 0.20972 0.15149
 C220 C 0.74121 0.16995 0.16594
 C221 C 0.73831 0.16239 0.20906
 C222 C 0.73997 0.19409 0.23742
 H223 H 0.82646 0.27037 0.24409
 H224 H 0.88408 0.28841 0.19415
 H225 H 0.85317 0.39431 0.15548
 H226 H 0.79357 0.37473 0.20335
 H227 H 0.80913 0.35812 0.31543
 H228 H 0.78268 0.40097 0.36152
 H229 H 0.69543 0.32532 0.24068
 H230 H 0.65877 0.21677 0.23671
 H231 H 0.60272 0.18556 0.28663
 H232 H 0.68423 0.25036 0.38848
 H233 H 0.74166 0.27920 0.33899
 H234 H 0.74775 0.27090 0.16778
 H235 H 0.74793 0.21599 0.11824
 H236 H 0.73480 0.13194 0.22081
 H237 H 0.73749 0.18748 0.27060
 H238 H 0.66912 0.36827 0.28574
 C239 C 0.26040 0.72157 0.24930
 C240 C 0.22054 0.69772 0.25985
 C241 C 0.18388 0.69611 0.23311
 C242 C 0.21135 0.66963 0.29631
 C243 C 0.29674 0.72331 0.27627
 C244 C 0.26809 0.74576 0.21002
 C245 C 0.17547 0.73229 0.22353
 C246 C 0.14514 0.73117 0.19313
 C247 C 0.12179 0.69360 0.17302
 C248 C 0.12834 0.65704 0.18471
 C249 C 0.15924 0.65832 0.21442
 C250 C 0.18064 0.67113 0.32471
 C251 C 0.16703 0.64138 0.35573
 C252 C 0.18397 0.60959 0.35906
 C253 C 0.21602 0.60900 0.33185
 C254 C 0.22919 0.63847 0.30028
 C255 C 0.32431 0.70355 0.26277
 C256 C 0.35254 0.69629 0.29116
 C257 C 0.35453 0.70991 0.33303
 C258 C 0.32944 0.73280 0.34563
 C259 C 0.30030 0.73904 0.31750
 C260 C 0.25474 0.72543 0.17123
 C261 C 0.24876 0.74747 0.13661
 C262 C 0.25724 0.79036 0.13987
 C263 C 0.27500 0.81125 0.17742
 C264 C 0.28029 0.78906 0.21229
 H265 H 0.19356 0.76160 0.23836
 H266 H 0.14015 0.75967 0.18516
 H267 H 0.11088 0.62769 0.16960
 H268 H 0.16519 0.63008 0.22151
 H269 H 0.16629 0.69470 0.32203
 H270 H 0.14260 0.64279 0.37664
 H271 H 0.25183 0.63577 0.27784
 H272 H 0.32180 0.69106 0.23114
 H273 H 0.37193 0.67889 0.28076
 H274 H 0.33047 0.74348 0.37782
 H275 H 0.27909 0.75425 0.32836
 H276 H 0.24546 0.69201 0.16881
 H277 H 0.23601 0.73068 0.10781
 H278 H 0.28204 0.84432 0.18083
 H279 H 0.29049 0.80526 0.24194
 H280 H 0.22914 0.58446 0.33349
 C281 C 0.77854 0.32635 0.74795
 C282 C 0.74967 0.28713 0.74950
 C283 C 0.71020 0.27409 0.72363
 C284 C 0.75422 0.25467 0.77779
 C285 C 0.81933 0.33862 0.77155
 C286 C 0.76814 0.35873 0.72453
 C287 C 0.67162 0.25379 0.74295
 C288 C 0.63527 0.23515 0.71889
 C289 C 0.63657 0.23713 0.67505
 C290 C 0.67450 0.25944 0.65561
 C291 C 0.71124 0.27726 0.67971
 C292 C 0.76167 0.26202 0.82113
 C293 C 0.75992 0.22940 0.84781
 C294 C 0.74907 0.18886 0.83169
 C295 C 0.74248 0.18167 0.78848
 C296 C 0.74555 0.21431 0.76174
 C297 C 0.84397 0.31304 0.77139
 C298 C 0.87799 0.32083 0.79927
 C299 C 0.88926 0.35543 0.82641
 C300 C 0.86714 0.38313 0.82392
 C301 C 0.83225 0.37464 0.79691
 C302 C 0.78961 0.37537 0.68787
 C303 C 0.77403 0.39907 0.66127
 C304 C 0.73688 0.40651 0.67118
 C305 C 0.71765 0.39261 0.70968
 C306 C 0.73315 0.36903 0.73609
 H307 H 0.67002 0.25094 0.77673
 H308 H 0.60626 0.21837 0.73452
 H309 H 0.67625 0.26094 0.62176
 H310 H 0.74073 0.29179 0.66400
 H311 H 0.76732 0.29259 0.83447
 H312 H 0.76475 0.23540 0.88121
 H313 H 0.73951 0.20780 0.72853
 H314 H 0.83568 0.28589 0.75106
 H315 H 0.89514 0.29947 0.80011
 H316 H 0.87536 0.41008 0.84451
 H317 H 0.81414 0.39514 0.79736
 H318 H 0.81673 0.36775 0.67855
 H319 H 0.78968 0.40953 0.63195
 H320 H 0.68981 0.39888 0.71898
 H321 H 0.71655 0.35690 0.76459
 H322 H 0.73430 0.15060 0.77548
 C323 C 0.27240 0.71369 0.76959
 C324 C 0.31290 0.74044 0.77073
 C325 C 0.34354 0.73565 0.74025
 C326 C 0.32652 0.77831 0.79799
 C327 C 0.24037 0.71483 0.80054
 C328 C 0.25582 0.68285 0.73490
 C329 C 0.37285 0.71766 0.75309
 C330 C 0.39882 0.70851 0.72379
 C331 C 0.39639 0.71800 0.68133
 C332 C 0.36819 0.73766 0.66883
 C333 C 0.34164 0.74608 0.69806
 C334 C 0.32040 0.77665 0.84160
 C335 C 0.32289 0.81266 0.86432
 C336 C 0.33194 0.85058 0.84363
 C337 C 0.34310 0.85285 0.80129
 C338 C 0.34060 0.81712 0.77873
 C339 C 0.22785 0.74954 0.80543
 C340 C 0.19390 0.74747 0.83107
 C341 C 0.17109 0.71020 0.85074
 C342 C 0.18385 0.67577 0.84603
 C343 C 0.21830 0.67816 0.82143
 C344 C 0.22226 0.68543 0.71038
 C345 C 0.20211 0.65455 0.68097
 C346 C 0.21518 0.62040 0.67516
 C347 C 0.24999 0.61852 0.69835
 C348 C 0.26993 0.64936 0.72842
 H349 H 0.37455 0.70939 0.78556
 H350 H 0.42063 0.69381 0.73432
 H351 H 0.36553 0.74505 0.63626
 H352 H 0.31892 0.75978 0.68771
 H353 H 0.31025 0.74712 0.85729
 H354 H 0.31377 0.81007 0.89688
 H355 H 0.34601 0.81944 0.74533
 H356 H 0.24349 0.77772 0.78853
 H357 H 0.18427 0.77429 0.83394
 H358 H 0.16691 0.64681 0.86112
 H359 H 0.22705 0.65087 0.81759
 H360 H 0.21093 0.71102 0.71482
 H361 H 0.17589 0.65723 0.66306
 H362 H 0.26050 0.59235 0.69459
 H363 H 0.29525 0.64635 0.74752
 H364 H 0.35024 0.88177 0.78473
 C365 C 0.25939 0.21562 0.76970
 C366 C 0.23183 0.23619 0.77198
 C367 C 0.22087 0.25584 0.73484
 C368 C 0.20501 0.23425 0.80898
 C369 C 0.26691 0.19209 0.80559
 C370 C 0.27900 0.21074 0.72966
 C371 C 0.24695 0.29495 0.72152
 C372 C 0.23199 0.31645 0.69180
 C373 C 0.19081 0.29896 0.67552
 C374 C 0.16619 0.25859 0.68689
 C375 C 0.18098 0.23737 0.71644
 C376 C 0.20158 0.27095 0.82547
 C377 C 0.16932 0.26949 0.85305
 C378 C 0.13959 0.23123 0.86431
 C379 C 0.14463 0.19451 0.84969
 C380 C 0.17677 0.19601 0.82205
 C381 C 0.25391 0.14872 0.80266
 C382 C 0.26080 0.12588 0.83603
 C383 C 0.28186 0.14612 0.87247
 C384 C 0.29508 0.18959 0.87534
 C385 C 0.28723 0.21244 0.84226
 C386 C 0.25425 0.18592 0.69733
 C387 C 0.27315 0.17574 0.66224
 C388 C 0.31712 0.19036 0.65880
 C389 C 0.34181 0.21684 0.69028
 C390 C 0.32286 0.22655 0.72575
 H391 H 0.27775 0.30963 0.73578
 H392 H 0.25159 0.34751 0.68346
 H393 H 0.13483 0.24380 0.67398
 H394 H 0.16060 0.20710 0.72634
 H395 H 0.22259 0.30079 0.81521
 H396 H 0.16638 0.29836 0.86356
 H397 H 0.17784 0.16728 0.80883
 H398 H 0.23811 0.13254 0.77458
 H399 H 0.25074 0.09246 0.83284
 H400 H 0.31129 0.20584 0.90323
 H401 H 0.29752 0.24591 0.84491
 H402 H 0.22041 0.17286 0.70019
 H403 H 0.25338 0.15553 0.63828
 H404 H 0.37578 0.22815 0.68859
 H405 H 0.34240 0.24531 0.75074
 H406 H 0.12288 0.16446 0.85830
 C407 C 0.81202 0.84710 0.71378
 C408 C 0.82648 0.81549 0.72174
 C409 C 0.80559 0.77444 0.70146
 C410 C 0.85966 0.81942 0.75389
 C411 C 0.81907 0.88118 0.74475
 C412 C 0.78230 0.84356 0.67816
 C413 C 0.76333 0.75252 0.71015
 C414 C 0.74050 0.71808 0.68582
 C415 C 0.75954 0.70483 0.65235
 C416 C 0.80274 0.72522 0.64552
 C417 C 0.82568 0.75980 0.67007
 C418 C 0.85329 0.78953 0.78503
 C419 C 0.88390 0.79377 0.81606
 C420 C 0.92185 0.82784 0.81641
 C421 C 0.92834 0.85744 0.78470
 C422 C 0.89757 0.85323 0.75377
 C423 C 0.84132 0.92239 0.73434
 C424 C 0.85002 0.95376 0.76506
 C425 C 0.83579 0.94425 0.80623
 C426 C 0.81265 0.90299 0.81607
 C427 C 0.80445 0.87178 0.78565
 C428 C 0.79364 0.83537 0.63771
 C429 C 0.76281 0.81826 0.60693
 C430 C 0.72034 0.81049 0.61564
 C431 C 0.70949 0.82340 0.65441
 C432 C 0.74036 0.83971 0.68567
 H433 H 0.74755 0.76335 0.73460
 H434 H 0.70771 0.70247 0.69287
 H435 H 0.81838 0.71574 0.62006
 H436 H 0.85829 0.77655 0.66298
 H437 H 0.82422 0.76328 0.78587
 H438 H 0.87735 0.77042 0.83995
 H439 H 0.90338 0.87635 0.72960
 H440 H 0.85271 0.93003 0.70282
 H441 H 0.86742 0.98538 0.75649
 H442 H 0.80151 0.89462 0.84752
 H443 H 0.78703 0.84007 0.79407
 H444 H 0.82590 0.83856 0.63121
 H445 H 0.77191 0.80903 0.57703
 H446 H 0.67686 0.81764 0.66175
 H447 H 0.73094 0.84575 0.71669
 H448 H 0.95721 0.88375 0.78329
 N449 N 0.16521 0.03806 0.12093
 N450 N 0.17104 0.01104 0.09427
 C451 C 0.21254 0.01849 0.09088
 C452 C 0.23430 0.05193 0.11666
 C453 C 0.20297 0.06372 0.13518
 H454 H 0.26804 0.06644 0.12001
 H455 H 0.13566 0.03940 0.12769
 H456 H 0.14682 -0.01135 0.07772
 N457 N 0.69167 0.65961 0.61927
 N458 N 0.67875 0.62941 0.59101
 C459 C 0.71232 0.62116 0.57688
 C460 C 0.74829 0.64725 0.59690
 C461 C 0.73382 0.67114 0.62385
 H462 H 0.78024 0.64822 0.59272
 H463 H 0.67170 0.67243 0.63423
 H464 H 0.64743 0.61497 0.58151
 N465 N 0.87123 0.99246 0.13167
 N466 N 0.87087 1.01747 0.10056
 C467 C 0.83700 0.99873 0.07585
 C468 C 0.81514 0.96002 0.09155
 C469 C 0.83766 0.95729 0.12715
 H470 H 0.78537 0.93821 0.08035
 H471 H 0.89369 0.99989 0.15588
 H472 H 0.89249 1.04745 0.09747
 N473 N 0.13000 0.31717 0.65009
 N474 N 0.12240 0.34348 0.62433
 C475 C 0.15880 0.36707 0.60717
 C476 C 0.19137 0.35549 0.62294
 C477 C 0.17148 0.32331 0.64992
 H478 H 0.22433 0.36780 0.61505
 H479 H 0.10693 0.29582 0.66779
 H480 H 0.09253 0.34481 0.61843
 N481 N 0.93182 0.38961 0.12890
 N482 N 0.95713 0.38603 0.09894
 C483 C 0.94688 0.34561 0.08862
 C484 C 0.91409 0.32241 0.11340
 C485 C 0.90554 0.35144 0.13864
 H486 H 0.89845 0.28911 0.11292
 H487 H 0.93293 0.41769 0.14261
 H488 H 0.98059 0.41091 0.08556
 N489 N 0.43247 0.67143 0.65274
 N490 N 0.45394 0.66882 0.61917
 C491 C 0.45776 0.70153 0.59466
 C492 C 0.43757 0.72594 0.61321
 C493 C 0.42191 0.70571 0.65009
 H494 H 0.43487 0.75439 0.60163
 H495 H 0.42464 0.64957 0.67654
 H496 H 0.46593 0.64511 0.61343
 N497 N 0.05670 0.65952 0.13032
 N498 N 0.03659 0.66956 0.09598
 C499 C 0.05981 0.70823 0.08441
 C500 C 0.09459 0.72384 0.11090
 C501 C 0.09145 0.69246 0.13917
 H502 H 0.11911 0.75396 0.10958
 H503 H 0.04569 0.63152 0.14626
 H504 H 0.00857 0.64999 0.08221
 N505 N 0.57430 0.17401 0.66015
 N506 N 0.54543 0.15953 0.63039
 C507 C 0.55123 0.18868 0.60098
 C508 C 0.58560 0.22324 0.61219
 C509 C 0.59934 0.21252 0.65001
 H510 H 0.59875 0.25185 0.59526
 H511 H 0.57721 0.15730 0.68644
 H512 H 0.52197 0.13027 0.63054
 N513 N 0.70821 0.11809 0.85575
 N514 N 0.71214 0.09108 0.88642
 C515 C 0.74820 0.11038 0.90790
 C516 C 0.76743 0.15003 0.89240
 C517 C 0.74153 0.15341 0.85972
 H518 H 0.79716 0.17280 0.90238
 H519 H 0.68367 0.11141 0.83373
 H520 H 0.69147 0.06075 0.89009
 N521 N 0.12403 0.56102 0.39749
 N522 N 0.11695 0.53014 0.42380
 C523 C 0.15346 0.52421 0.43220
 C524 C 0.18539 0.55245 0.40986
 C525 C 0.16522 0.57539 0.38833
 H526 H 0.21846 0.55633 0.40994
 H527 H 0.10073 0.57156 0.38574
 H528 H 0.08753 0.51386 0.43621
 N529 N 0.29316 0.89901 0.84014
 N530 N 0.27765 0.92118 0.86810
 C531 C 0.29551 0.92079 0.90591
 C532 C 0.32244 0.89804 0.90322
 C533 C 0.31917 0.88413 0.86154
 H534 H 0.33850 0.88908 0.92884
 H535 H 0.28198 0.89121 0.80945
 H536 H 0.25491 0.93427 0.86062
 N537 N 0.66253 0.39813 0.36342
 N538 N 0.65606 0.42165 0.39360
 C539 C 0.69349 0.44683 0.40869
 C540 C 0.72537 0.43899 0.38726
 C541 C 0.70432 0.40789 0.35852
 H542 H 0.75893 0.45424 0.39155
 H543 H 0.63842 0.37533 0.34720
 H544 H 0.62638 0.42041 0.40347
 N545 N 0.06533 0.19681 0.88698
 N546 N 0.03610 0.20708 0.91087
 C547 C 0.05509 0.24574 0.92633
 C548 C 0.09642 0.26099 0.91281
 C549 C 0.10170 0.22941 0.88827
 H550 H 0.11958 0.29110 0.92008
 H551 H 0.05862 0.16919 0.86985
 H552 H 0.00516 0.18758 0.91558
 N553 N 0.60320 0.73038 0.32350
 N554 N 0.57563 0.71554 0.35337
 C555 C 0.58475 0.74311 0.38542
 C556 C 0.61981 0.77688 0.37590
 C557 C 0.63070 0.76740 0.33631
 H558 H 0.63615 0.80347 0.39569
 H559 H 0.60425 0.71438 0.29576
 H560 H 0.55142 0.68677 0.35197
 N561 N 0.98875 0.86613 0.85686
 N562 N 1.01065 0.85880 0.88846
 C563 C 0.99068 0.82010 0.90192
 C564 C 0.95468 0.80197 0.87798
 C565 C 0.95436 0.83208 0.84952
 H566 H 0.93232 0.77088 0.88088
 H567 H 0.99740 0.89425 0.84118
 H568 H 1.03866 0.88008 0.90054
 N569 N 0.34238 0.11853 0.36930
 N570 N 0.37227 0.11675 0.39514
 C571 C 0.39158 0.15460 0.41232
 C572 C 0.37342 0.18199 0.39645
 C573 C 0.34186 0.15757 0.36954
 H574 H 0.38063 0.21430 0.40490
 H575 H 0.32276 0.09316 0.35196
 H576 H 0.37866 0.08974 0.40139
 N577 N 0.87730 1.01284 0.83986
 N578 N 0.87457 1.03454 0.87350
 C579 C 0.83977 1.01286 0.89448
 C580 C 0.81961 0.97583 0.87356
 C581 C 0.84431 0.97692 0.83900
 H582 H 0.79024 0.95212 0.88167
 H583 H 0.90146 1.02261 0.81814
 H584 H 0.89574 1.06400 0.88130
 N585 N 0.12805 0.29204 0.41474
 N586 N 0.12016 0.31945 0.43940
 C587 C 0.15397 0.35454 0.44039
 C588 C 0.18479 0.34941 0.41490
 C589 C 0.16698 0.30917 0.39921
 H590 H 0.21570 0.37157 0.40889
 H591 H 0.10665 0.26239 0.40812
 H592 H 0.09225 0.31381 0.45576
 N593 N 0.32807 0.13453 0.92857
 N594 N 0.32806 0.10200 0.95429
 C595 C 0.29135 0.07063 0.94775
 C596 C 0.26745 0.08203 0.91795
 C597 C 0.29167 0.12201 0.90647
 H598 H 0.23692 0.06326 0.90538
 H599 H 0.35322 0.16236 0.92563
 H600 H 0.35262 0.10256 0.97461
 N601 N 0.67980 0.63917 0.35443
 N602 N 0.66958 0.61112 0.38411
 C603 C 0.70503 0.60958 0.40226
 C604 C 0.73950 0.63808 0.38342
 C605 C 0.72208 0.65623 0.35303
 H606 H 0.77241 0.64451 0.39075
 H607 H 0.65788 0.64694 0.33628
 H608 H 0.63873 0.59351 0.39180
 N609 N 0.09799 0.67177 0.87341
 N610 N 0.06811 0.67937 0.89871
 C611 C 0.08552 0.71798 0.91488
 C612 C 0.12611 0.73600 0.90002
 C613 C 0.13268 0.70611 0.87427
 H614 H 0.14821 0.76666 0.90738
 H615 H 0.09328 0.64439 0.85637
 H616 H 0.03814 0.65812 0.90432
 N617 N 0.58736 0.15217 0.36970
 N618 N 0.55936 0.14170 0.39975
 C619 C 0.55993 0.17628 0.42038
 C620 C 0.59018 0.21043 0.40305
 C621 C 0.60673 0.19358 0.37088
 H622 H 0.59800 0.24280 0.41159
 H623 H 0.59294 0.13121 0.34869
 H624 H 0.53939 0.11141 0.40512
 N625 N 0.95006 0.39780 0.87191
 N626 N 0.97310 0.39135 0.90299
 C627 C 0.95981 0.35044 0.91083
 C628 C 0.92737 0.32989 0.88317
 C629 C 0.92215 0.36103 0.85898
 H630 H 0.90913 0.29710 0.88183
 H631 H 0.95335 0.42694 0.86004
 H632 H 0.99669 0.41474 0.91918
 N633 N 0.38179 0.65829 0.36467
 N634 N 0.40768 0.65662 0.39520
 C635 C 0.42294 0.69402 0.41446
 C636 C 0.40548 0.72067 0.39567
 C637 C 0.37978 0.69671 0.36396
 H638 H 0.41225 0.75326 0.40247
 H639 H 0.36608 0.63351 0.34449
 H640 H 0.41590 0.63065 0.40155
 N641 N 0.21228 0.79555 0.07858
 N642 N 0.20851 0.82472 0.05378
 C643 C 0.23872 0.86090 0.06424
 C644 C 0.26265 0.85456 0.09716
 C645 C 0.24492 0.81268 0.10545
 H646 H 0.28935 0.87733 0.11272
 H647 H 0.19217 0.76469 0.07749
 H648 H 0.18582 0.81968 0.02999
 N649 N 0.67447 0.41874 0.63970
 N650 N 0.66570 0.43894 0.60808
 C651 C 0.70149 0.45932 0.58801
 C652 C 0.73473 0.45165 0.60771
 C653 C 0.71617 0.42575 0.64063
 H654 H 0.76758 0.46348 0.59945
 H655 H 0.65180 0.39977 0.65956
 H656 H 0.63555 0.43871 0.60055
 N657 N 0.71030 0.09694 0.13988
 N658 N 0.71549 0.07429 0.10815
 C659 C 0.74649 0.09840 0.08400
 C660 C 0.76140 0.13824 0.10067
 C661 C 0.73760 0.13592 0.13614
 H662 H 0.78671 0.16477 0.08933
 H663 H 0.68836 0.08576 0.16353
 H664 H 0.69878 0.04267 0.10388
 N665 N 0.14870 0.57515 0.64038
 N666 N 0.13619 0.54366 0.61354
 C667 C 0.16977 0.53396 0.60202
 C668 C 0.20537 0.56025 0.62279
 C669 C 0.19055 0.58609 0.64678
 H670 H 0.23740 0.56089 0.62028
 H671 H 0.12857 0.58842 0.65437
 H672 H 0.10515 0.52940 0.60311
 N673 N 0.97127 0.85612 0.12850
 N674 N 0.99501 0.85220 0.09731
 C675 C 0.97733 0.81430 0.07973
 C676 C 0.94083 0.79307 0.10054
 C677 C 0.93806 0.82055 0.13163
 H678 H 0.92033 0.76147 0.09464
 H679 H 0.97814 0.88293 0.14698
 H680 H 1.02309 0.87502 0.08867
 N681 N 0.32059 0.13567 0.60872
 N682 N 0.34726 0.12980 0.58171
 C683 C 0.38091 0.16486 0.57949
 C684 C 0.37564 0.19449 0.60652
 C685 C 0.33684 0.17453 0.62464
 H686 H 0.39729 0.22558 0.61279
 H687 H 0.29243 0.11278 0.61703
 H688 H 0.34244 0.10208 0.56524
 N689 N 0.03985 0.19825 0.14000
 N690 N 0.01758 0.20844 0.11071
 C691 C 0.04172 0.24406 0.09322
 C692 C 0.08139 0.25699 0.11186
 C693 C 0.07879 0.22701 0.14156
 H694 H 0.10794 0.28458 0.10533
 H695 H 0.02843 0.17177 0.15828
 H696 H -0.01373 0.19131 0.10316
 N697 N 0.69048 0.74983 0.56758
 N698 N 0.65531 0.73108 0.54631
 C699 C 0.62956 0.75307 0.55101
 C700 C 0.64898 0.78721 0.57688
 C701 C 0.68771 0.78394 0.58664
 H702 H 0.63673 0.81084 0.58715
 H703 H 0.71550 0.73877 0.56970
 H704 H 0.64935 0.70387 0.52860
   
