data_POSCAR
  _audit_creation_date              2014-09-24
  _audit_creation_method            'ToBaCCo'
  _symmetry_space_group_name_H-M    'P1'
  _symmetry_Int_Tables_number       1
  _symmetry_cell_setting            triclinic
  loop_
  _symmetry_equiv_pos_as_xyz
 x,y,z
_cell_length_a 35.4163
_cell_length_b 35.1038
_cell_length_c 13.4470
_cell_angle_alpha 89.895800
_cell_angle_beta 90.726700
_cell_angle_gamma 121.376500
loop_
  _atom_site_label
  _atom_site_type_symbol
  _atom_site_fract_x
  _atom_site_fract_y
  _atom_site_fract_z
C1 C 0.12298 0.44514 0.49780
 C2 C 0.14020 0.44357 0.40514
 C3 C 0.18015 0.44435 0.40261
 C4 C 0.20263 0.44502 0.48966
 C5 C 0.18353 0.44438 0.58215
 C6 C 0.14486 0.44662 0.58731
 C7 C 0.24792 0.45126 0.48217
 C8 C 0.27914 0.47272 0.55982
 C9 C 0.32266 0.48270 0.55045
 C10 C 0.33597 0.47341 0.46173
 C11 C 0.30640 0.45215 0.38287
 C12 C 0.26200 0.43988 0.39421
 H13 H 0.09271 0.44549 0.50022
 H14 H 0.19493 0.44684 0.33135
 H15 H 0.19950 0.44378 0.65065
 H16 H 0.27039 0.48293 0.62709
 H17 H 0.37031 0.48441 0.45340
 H18 H 0.23915 0.42227 0.33350
 C19 C 0.55624 -0.31610 0.50567
 C20 C 0.54856 -0.29960 0.41656
 C21 C 0.55012 -0.25892 0.41874
 C22 C 0.55992 -0.23383 0.50603
 C23 C 0.56774 -0.25062 0.59444
 C24 C 0.56432 -0.29263 0.59651
 C25 C 0.55598 -0.19340 0.50551
 C26 C 0.53704 -0.18505 0.58694
 C27 C 0.52748 -0.15113 0.58438
 C28 C 0.53620 -0.12532 0.49826
 C29 C 0.55350 -0.13407 0.41326
 C30 C 0.56499 -0.16689 0.41935
 H31 H 0.55385 -0.34806 0.50504
 H32 H 0.54184 -0.24741 0.35198
 H33 H 0.57500 -0.23157 0.66265
 H34 H 0.52782 -0.20623 0.65180
 H35 H 0.52688 -0.10050 0.49622
 H36 H 0.57926 -0.17297 0.35512
 C37 C 1.32118 0.87212 0.51732
 C38 C 1.30442 0.84481 0.43169
 C39 C 1.26184 0.80677 0.43397
 C40 C 1.23381 0.79735 0.51488
 C41 C 1.25131 0.82511 0.60024
 C42 C 1.29568 0.86093 0.60449
 C43 C 1.18805 0.75633 0.51121
 C44 C 1.16742 0.73400 0.59907
 C45 C 1.12741 0.69255 0.59718
 C46 C 1.10830 0.67249 0.50472
 C47 C 1.12814 0.69386 0.41548
 C48 C 1.16652 0.73664 0.41956
 H49 H 1.35479 0.90028 0.51792
 H50 H 1.25047 0.78423 0.37105
 H51 H 1.23107 0.81856 0.66492
 H52 H 1.18371 0.74758 0.66980
 H53 H 1.07825 0.64006 0.50142
 H54 H 1.18034 0.75356 0.35026
 C55 C 0.87641 0.54530 0.48792
 C56 C 0.85654 0.54622 0.39774
 C57 C 0.82020 0.55198 0.39925
 C58 C 0.80468 0.55913 0.48902
 C59 C 0.82637 0.55972 0.57831
 C60 C 0.86067 0.55070 0.57878
 C61 C 0.76422 0.56275 0.48988
 C62 C 0.73658 0.54894 0.57382
 C63 C 0.69738 0.54996 0.57387
 C64 C 0.68591 0.56483 0.48932
 C65 C 0.71058 0.57540 0.40295
 C66 C 0.75075 0.57652 0.40452
 H67 H 0.90316 0.53895 0.48767
 H68 H 0.80336 0.54942 0.32979
 H69 H 0.81586 0.56583 0.64849
 H70 H 0.74430 0.53550 0.63797
 H71 H 0.65678 0.56725 0.48914
 H72 H 0.77036 0.58675 0.33796
 C73 C 0.46101 0.33928 0.51061
 C74 C 0.46836 0.32145 0.42443
 C75 C 0.46370 0.27938 0.42872
 C76 C 0.44892 0.25308 0.51495
 C77 C 0.44105 0.27128 0.60005
 C78 C 0.44915 0.31516 0.60071
 C79 C 0.44495 0.20826 0.51680
 C80 C 0.45066 0.19056 0.60582
 C81 C 0.45207 0.15112 0.60649
 C82 C 0.44901 0.12994 0.51559
 C83 C 0.44340 0.14702 0.42585
 C84 C 0.43920 0.18458 0.42790
 H85 H 0.46663 0.37262 0.50802
 H86 H 0.47251 0.26770 0.36391
 H87 H 0.42933 0.25169 0.66710
 H88 H 0.45642 0.20866 0.67475
 H89 H 0.45197 0.10084 0.51426
 H90 H 0.43282 0.19597 0.35854
 C91 C 0.67516 0.10499 0.52725
 C92 C 0.69539 0.11650 0.43445
 C93 C 0.73975 0.15153 0.42766
 C94 C 0.76263 0.17847 0.51103
 C95 C 0.74050 0.16717 0.60284
 C96 C 0.69763 0.12998 0.61206
 C97 C 0.80729 0.22055 0.50151
 C98 C 0.83416 0.24082 0.58641
 C99 C 0.87070 0.28476 0.58426
 C100 C 0.88458 0.30621 0.49184
 C101 C 0.86064 0.28530 0.40426
 C102 C 0.82161 0.24322 0.41013
 H103 H 0.64121 0.07774 0.53225
 H104 H 0.75535 0.15878 0.35594
 H105 H 0.75550 0.18806 0.66767
 H106 H 0.82557 0.22326 0.65633
 H107 H 0.91361 0.33931 0.48771
 H108 H 0.80171 0.22954 0.34338
 O109 O 0.94267 0.48175 -0.20339
 O110 O 1.04479 0.54117 0.19091
 O111 O 0.91005 0.46925 0.09622
 O112 O 1.07648 0.56488 -0.11068
 O113 O 0.96933 0.52264 0.16232
 O114 O 1.01458 0.54807 -0.17770
 O115 O 1.06720 0.57696 0.05675
 O116 O 0.91817 0.49098 -0.06965
 C117 C 0.92287 0.49725 -0.15964
 C118 C 1.06314 0.57768 0.14746
 C119 C 0.92930 0.50499 0.14450
 C120 C 1.05353 0.57640 -0.15807
 O121 O 1.05143 0.49806 -0.19682
 O122 O 0.94251 0.43593 0.18291
 O123 O 0.91646 0.41369 -0.12271
 O124 O 1.07836 0.50754 0.10957
 O125 O 1.01780 0.45449 0.16848
 O126 O 0.97962 0.43175 -0.17989
 O127 O 1.07460 0.48784 -0.05986
 O128 O 0.92326 0.40073 0.04642
 Co129 Co 0.99686 0.48980 -0.17089
 Co130 Co 0.99381 0.48864 0.15724
 Co131 Co 0.92430 0.44785 -0.01213
 Co132 Co 1.06685 0.53006 -0.00155
 O133 O 0.99549 0.48903 -0.00682
 C134 C 1.07254 0.48403 -0.15127
 C135 C 0.92517 0.39968 0.13780
 C136 C 0.94045 0.40297 -0.16697
 C137 C 1.05777 0.47136 0.15480
 O138 O 0.46557 0.45115 -0.15738
 O139 O 0.45044 0.49759 0.18064
 O140 O 0.53413 0.44846 0.08795
 O141 O 0.43880 0.50161 -0.12833
 O142 O 0.48329 0.44980 0.17478
 O143 O 0.47628 0.51642 -0.26191
 O144 O 0.41874 0.48694 0.03774
 O145 O 0.51605 0.44029 -0.09263
 C146 C 0.48020 0.42594 -0.14161
 C147 C 0.41581 0.48130 0.12856
 C148 C 0.50433 0.43162 0.15307
 C149 C 0.44316 0.51438 -0.21682
 O150 O 0.54507 0.57017 -0.16395
 O151 O 0.56261 0.52032 0.19145
 O152 O 0.58297 0.52963 -0.10797
 O153 O 0.48099 0.57180 0.09051
 O154 O 0.53078 0.56849 0.18043
 O155 O 0.54169 0.50079 -0.22982
 O156 O 0.50323 0.58696 -0.08501
 O157 O 0.59713 0.53573 0.05448
 Co158 Co 0.50458 0.51103 -0.15357
 Co159 Co 0.50700 0.50935 0.16441
 Co160 Co 0.55366 0.48982 -0.01404
 Co161 Co 0.46460 0.53502 -0.01959
 O162 O 0.50935 0.51143 0.00084
 C163 C 0.53476 0.59807 -0.14302
 C164 C 0.59807 0.53954 0.14517
 C165 C 0.57919 0.51657 -0.19381
 C166 C 0.51080 0.58770 0.15705
 O167 O 0.55962 0.02692 -0.13999
 O168 O 0.50316 -0.04129 0.19417
 O169 O 0.58091 0.07755 0.09262
 O170 O 0.44854 -0.11051 -0.07324
 O171 O 0.53879 0.03886 0.21680
 O172 O 0.50579 -0.05129 -0.13585
 O173 O 0.50980 -0.06634 0.05127
 O174 O 0.56846 0.08802 -0.08590
 C175 C 0.58340 0.06771 -0.12949
 C176 C 0.51804 -0.06078 0.14351
 C177 C 0.57683 0.06211 0.17818
 C178 C 0.47727 -0.09284 -0.14354
 O179 O 0.44081 -0.03382 -0.17056
 O180 O 0.45673 0.02920 0.17075
 O181 O 0.49686 0.08527 -0.04156
 O182 O 0.43119 -0.09913 0.10881
 O183 O 0.42415 -0.04632 0.15496
 O184 O 0.49498 0.04740 -0.17439
 O185 O 0.41014 -0.06822 -0.03624
 O186 O 0.51678 0.08830 0.13927
 Co187 Co 0.49962 -0.00209 -0.13992
 Co188 Co 0.48188 -0.00420 0.17179
 Co189 Co 0.53626 0.07703 0.02574
 Co190 Co 0.46201 -0.06369 0.00461
 O191 O 0.49492 0.00384 0.01967
 C192 C 0.40640 -0.05941 -0.12452
 C193 C 0.47870 0.07009 0.17065
 C194 C 0.48830 0.07601 -0.13228
 C195 C 0.41196 -0.08624 0.16243
 N196 N 1.11369 0.45188 0.15775
 N197 N 1.13736 0.44536 0.22468
 C198 C 1.12022 0.44419 0.31472
 C199 C 1.08420 0.44902 0.30001
 N200 N 1.08152 0.45375 0.20151
 H201 H 1.06453 0.45315 0.35495
 N202 N 0.51274 0.65742 0.17549
 N203 N 0.52301 0.68836 0.24414
 C204 C 0.53685 0.67646 0.32632
 C205 C 0.53517 0.63713 0.30489
 N206 N 0.52003 0.62663 0.21056
 H207 H 0.54318 0.61744 0.35280
 N208 N 0.34752 -0.15795 0.20017
 N209 N 0.31804 -0.17723 0.27117
 C210 C 0.32907 -0.14669 0.34445
 C211 C 0.36647 -0.10751 0.31500
 N212 N 0.37648 -0.11610 0.22466
 H213 H 0.38410 -0.07582 0.35383
 N214 N 0.86656 0.51478 0.15158
 N215 N 0.84596 0.52510 0.21789
 C216 C 0.87090 0.53755 0.30193
 C217 C 0.90807 0.53529 0.28409
 N218 N 0.90397 0.52101 0.18975
 H219 H 0.93394 0.54038 0.33594
 N220 N 0.51233 0.36773 0.18527
 N221 N 0.50376 0.33844 0.25691
 C222 C 0.48303 0.34674 0.32989
 C223 C 0.47870 0.38189 0.29974
 N224 N 0.49721 0.39383 0.20928
 H225 H 0.46437 0.39788 0.34012
 N226 N 0.65413 0.08552 0.18690
 N227 N 0.68680 0.09980 0.25285
 C228 C 0.66898 0.09573 0.34309
 C229 C 0.62391 0.07813 0.33012
 N230 N 0.61625 0.07260 0.23163
 H231 H 0.60003 0.07398 0.38518
 N232 N 0.46737 0.13111 -0.14566
 N233 N 0.45828 0.15248 -0.21364
 C234 C 0.45844 0.13504 -0.30286
 C235 C 0.46772 0.10153 -0.28665
 N236 N 0.47325 0.10056 -0.18764
 H237 H 0.47220 0.08146 -0.34067
 N238 N 0.64742 0.51669 -0.19452
 N239 N 0.68038 0.52610 -0.25466
 C240 C 0.66946 0.53540 -0.34394
 C241 C 0.62787 0.53021 -0.33679
 N242 N 0.61562 0.51860 -0.24265
 H243 H 0.60891 0.53599 -0.39190
 N244 N 0.89289 0.32250 -0.16890
 N245 N 0.87345 0.28975 -0.23506
 C246 C 0.88951 0.30745 -0.32533
 C247 C 0.92052 0.35243 -0.31126
 N248 N 0.92133 0.36022 -0.21316
 H249 H 0.93744 0.37798 -0.36682
 N250 N 0.46237 -0.16443 -0.20361
 N251 N 0.47517 -0.18110 -0.27466
 C252 C 0.50429 -0.14645 -0.33071
 C253 C 0.50912 -0.10780 -0.29160
 N254 N 0.48251 -0.12061 -0.21227
 H255 H 0.53055 -0.07384 -0.31649
 N256 N 0.37936 0.52231 -0.21823
 N257 N 0.34591 0.51370 -0.27816
 C258 C 0.35460 0.50213 -0.36654
 C259 C 0.39477 0.50450 -0.35910
 N260 N 0.40888 0.51709 -0.26577
 H261 H 0.41021 0.49375 -0.41188
 N262 N 1.10646 0.65552 -0.15697
 N263 N 1.12802 0.68755 -0.22266
 C264 C 1.10940 0.67072 -0.31270
 C265 C 1.07460 0.62746 -0.29915
 N266 N 1.07421 0.61944 -0.20145
 H267 H 1.05471 0.60253 -0.35489
 N268 N 0.88296 0.53640 -0.16793
 N269 N 0.86654 0.55166 -0.23530
 C270 C 0.87731 0.54355 -0.32548
 C271 C 0.90096 0.52257 -0.31076
 N272 N 0.90352 0.51867 -0.21179
 H273 H 0.91327 0.50948 -0.36600
 N274 N 0.45250 0.34625 -0.14928
 N275 N 0.44440 0.31583 -0.21817
 C276 C 0.44848 0.33491 -0.30809
 C277 C 0.45843 0.37819 -0.29095
 N278 N 0.46044 0.38372 -0.19147
 H279 H 0.46733 0.40450 -0.34450
 N280 N 0.65718 0.13222 -0.14782
 N281 N 0.68838 0.15004 -0.21579
 C282 C 0.67513 0.12032 -0.29131
 C283 C 0.63504 0.08321 -0.26641
 N284 N 0.62513 0.09212 -0.17682
 H285 H 0.61361 0.05401 -0.31125
 N286 N 1.12743 0.46188 -0.16196
 N287 N 1.14763 0.45201 -0.23068
 C288 C 1.12986 0.45246 -0.31998
 C289 C 1.09772 0.46306 -0.30266
 N290 N 1.09748 0.46881 -0.20365
 H291 H 1.07783 0.46822 -0.35637
 N292 N 0.56062 0.67731 -0.15209
 N293 N 0.56777 0.70713 -0.22159
 C294 C 0.56544 0.68834 -0.31096
 C295 C 0.55764 0.64580 -0.29241
 N296 N 0.55493 0.64035 -0.19276
 H297 H 0.54999 0.61959 -0.34569
 N298 N 0.32556 -0.10836 -0.13801
 N299 N 0.29538 -0.13002 -0.20920
 C300 C 0.31590 -0.11660 -0.29781
 C301 C 0.35995 -0.08538 -0.27741
 N302 N 0.36465 -0.08115 -0.17747
 H303 H 0.38690 -0.07011 -0.32946
 N304 N 0.55307 -0.10556 0.15589
 N305 N 0.56295 -0.12548 0.22699
 C306 C 0.55474 -0.11306 0.31549
 C307 C 0.53989 -0.08440 0.29537
 N308 N 0.53915 -0.08067 0.19570
 H309 H 0.52738 -0.07026 0.34742
 N310 N 0.33645 0.45310 0.13001
 N311 N 0.30578 0.44468 0.19687
 C312 C 0.32412 0.44742 0.28723
 C313 C 0.36680 0.45687 0.27262
 N314 N 0.37343 0.46093 0.17457
 H315 H 0.39228 0.46397 0.32744
 N316 N 1.10541 0.65898 0.15974
 N317 N 1.12293 0.69076 0.22877
 C318 C 1.11106 0.67049 0.31810
 C319 C 1.08557 0.62484 0.30094
 N320 N 1.08298 0.61916 0.20147
 H321 H 1.07224 0.59827 0.35515
 N322 N 0.46730 0.13236 0.17707
 N323 N 0.45755 0.15351 0.24374
 C324 C 0.44729 0.12969 0.32866
 C325 C 0.45052 0.09268 0.31105
 N326 N 0.46296 0.09572 0.21604
 H327 H 0.44787 0.06804 0.36358
 N328 N 0.67866 0.58013 0.15305
 N329 N 0.71032 0.59068 0.22052
 C330 C 0.69030 0.57867 0.30950
 C331 C 0.64549 0.56045 0.29409
 N332 N 0.63965 0.56185 0.19633
 H333 H 0.61896 0.54350 0.34675
 N334 N 0.87869 0.31861 0.14860
 N335 N 0.86061 0.28734 0.21773
 C336 C 0.87469 0.30808 0.30687
 C337 C 0.90211 0.35324 0.28985
 N338 N 0.90365 0.35833 0.19055
 H339 H 0.91813 0.38002 0.34396
   
