data_POSCAR
  _audit_creation_date              2014-09-24
  _audit_creation_method            'ToBaCCo'
  _symmetry_space_group_name_H-M    'P1'
  _symmetry_Int_Tables_number       1
  _symmetry_cell_setting            triclinic
  loop_
  _symmetry_equiv_pos_as_xyz
 x,y,z
_cell_length_a 27.3126
_cell_length_b 26.2642
_cell_length_c 24.7436
_cell_angle_alpha 92.035100
_cell_angle_beta 90.254500
_cell_angle_gamma 78.999600
loop_
  _atom_site_label
  _atom_site_type_symbol
  _atom_site_fract_x
  _atom_site_fract_y
  _atom_site_fract_z
C1 C 0.18324 0.23064 0.03298
 C2 C 0.17832 0.24979 -0.01822
 C3 C 0.12794 0.26869 -0.02576
 N4 N 0.10209 0.26250 0.01921
 C5 C 0.13576 0.23952 0.05534
 C6 C 0.10742 0.29637 -0.07095
 C7 C 0.05566 0.30872 -0.08113
 C8 C 0.03369 0.34341 -0.11919
 C9 C -0.01688 0.34454 -0.11693
 C10 C -0.02434 0.31061 -0.07748
 N11 N 0.02011 0.28813 -0.05662
 C12 C -0.07134 0.30060 -0.06265
 C13 C -0.07974 0.27480 -0.01587
 C14 C -0.12470 0.26084 -0.00320
 C15 C -0.12023 0.24386 0.04865
 C16 C -0.07281 0.24822 0.06563
 N17 N -0.04809 0.26719 0.02629
 C18 C -0.05512 0.23942 0.11838
 C19 C -0.00523 0.24041 0.13317
 C20 C 0.01138 0.24561 0.18576
 C21 C 0.06204 0.24242 0.18289
 C22 C 0.07484 0.23642 0.12864
 N23 N 0.03381 0.23493 0.09845
 C24 C 0.12403 0.23062 0.10945
 H25 H 0.21796 0.21283 0.05141
 H26 H 0.20834 0.25020 -0.04655
 H27 H 0.03350 0.22527 0.05732
 H28 H 0.05220 0.36574 -0.14565
 H29 H -0.04503 0.36794 -0.14122
 H30 H -0.15769 0.26400 -0.02821
 H31 H -0.14895 0.23104 0.07171
 H32 H 0.08662 0.24512 0.21688
 H33 H 0.02612 0.25766 -0.03021
 H34 H -0.01041 0.25204 0.22258
 C35 C 0.60012 0.77667 0.51254
 C36 C 0.60500 0.76534 0.45811
 C37 C 0.55982 0.78657 0.43486
 N38 N 0.52755 0.81066 0.47313
 C39 C 0.55208 0.80445 0.52073
 C40 C 0.54922 0.78399 0.37905
 C41 C 0.50056 0.79473 0.35799
 C42 C 0.48963 0.80001 0.30353
 C43 C 0.43881 0.80432 0.29865
 C44 C 0.42030 0.80160 0.35030
 N45 N 0.45816 0.79579 0.38627
 C46 C 0.37064 0.79805 0.36161
 C47 C 0.35085 0.80268 0.41470
 C48 C 0.30744 0.78705 0.42987
 C49 C 0.30255 0.79659 0.48467
 C50 C 0.34305 0.81797 0.50128
 N51 N 0.37242 0.82187 0.45833
 C52 C 0.35246 0.83305 0.55538
 C53 C 0.39924 0.84226 0.57337
 C54 C 0.40763 0.86315 0.62402
 C55 C 0.45840 0.86030 0.62861
 C56 C 0.47956 0.83771 0.58066
 N57 N 0.44322 0.82687 0.54723
 C58 C 0.53144 0.82282 0.57162
 H59 H 0.62828 0.76392 0.54254
 H60 H 0.63764 0.74248 0.43847
 H61 H 0.44855 0.80372 0.51220
 H62 H 0.51575 0.79930 0.27060
 H63 H 0.41799 0.80745 0.26119
 H64 H 0.28279 0.76865 0.40484
 H65 H 0.27338 0.78677 0.50939
 H66 H 0.47770 0.87206 0.66383
 H67 H 0.45624 0.78522 0.42605
 H68 H 0.38013 0.87759 0.65501
 C69 C 0.82539 0.76560 0.03124
 C70 C 0.81582 0.77442 -0.02250
 C71 C 0.86130 0.76288 -0.04908
 N72 N 0.89817 0.74594 -0.01380
 C73 C 0.87632 0.74755 0.03532
 C74 C 0.86684 0.76074 -0.10572
 C75 C 0.91312 0.75960 -0.13172
 C76 C 0.92154 0.75185 -0.18685
 C77 C 0.97101 0.75413 -0.19562
 C78 C 0.99151 0.76262 -0.14547
 N79 N 0.95576 0.76690 -0.10700
 C80 C 1.04224 0.76495 -0.13560
 C81 C 1.06578 0.75368 -0.08548
 C82 C 1.11542 0.75562 -0.07538
 C83 C 1.12590 0.73700 -0.02474
 C84 C 1.08214 0.72508 -0.00535
 N85 N 1.04548 0.73482 -0.04268
 C86 C 1.07788 0.70247 0.04471
 C87 C 1.03202 0.69950 0.06879
 C88 C 1.02691 0.67424 0.11614
 C89 C 0.97666 0.68278 0.12762
 C90 C 0.95283 0.71228 0.08651
 N91 N 0.98672 0.72317 0.05147
 C92 C 0.90106 0.72923 0.08309
 H93 H 0.79779 0.77044 0.06320
 H94 H 0.77956 0.78694 -0.04046
 H95 H 0.97948 0.74967 0.02096
 H96 H 0.89487 0.74501 -0.21746
 H97 H 0.98994 0.74805 -0.23427
 H98 H 1.14171 0.76803 -0.10223
 H99 H 1.16158 0.73262 -0.00445
 H100 H 0.95954 0.66844 0.16187
 H101 H 0.95975 0.77771 -0.06663
 H102 H 1.05637 0.65252 0.14020
 C103 C 0.38762 0.22356 0.54812
 C104 C 0.39264 0.21589 0.49316
 C105 C 0.44169 0.19184 0.48347
 N106 N 0.46668 0.18413 0.53061
 C107 C 0.43374 0.20377 0.57019
 C108 C 0.46274 0.17818 0.43169
 C109 C 0.51441 0.16788 0.42151
 C110 C 0.53570 0.14941 0.37217
 C111 C 0.58565 0.15114 0.37585
 C112 C 0.59333 0.17043 0.42737
 N113 N 0.54976 0.18057 0.45495
 C114 C 0.63888 0.18242 0.44540
 C115 C 0.64891 0.19311 0.50031
 C116 C 0.68918 0.21377 0.51874
 C117 C 0.68460 0.21909 0.57404
 C118 C 0.64168 0.20146 0.58751
 N119 N 0.62022 0.18511 0.54244
 C120 C 0.62248 0.20169 0.64054
 C121 C 0.57411 0.19383 0.65206
 C122 C 0.55719 0.18746 0.70364
 C123 C 0.50677 0.18839 0.69952
 C124 C 0.49447 0.19521 0.64555
 N125 N 0.53572 0.19833 0.61685
 C126 C 0.44525 0.20476 0.62588
 H127 H 0.35421 0.24337 0.56880
 H128 H 0.36382 0.22877 0.46386
 H129 H 0.53609 0.21118 0.57781
 H130 H 0.51686 0.13752 0.33667
 H131 H 0.61300 0.14057 0.34387
 H132 H 0.71806 0.22538 0.49493
 H133 H 0.70928 0.23566 0.60081
 H134 H 0.48168 0.18610 0.73271
 H135 H 0.54322 0.20198 0.49103
 H136 H 0.57866 0.18432 0.74066
 C137 C 0.68094 -0.13947 -0.05160
 C138 C 0.68826 -0.15567 0.00033
 C139 C 0.70359 -0.11571 0.02973
 N140 N 0.70526 -0.07535 -0.00216
 C141 C 0.69142 -0.08984 -0.05194
 C142 C 0.71024 -0.11505 0.08612
 C143 C 0.73199 -0.07770 0.11461
 C144 C 0.73203 -0.07126 0.17044
 C145 C 0.75626 -0.03089 0.18221
 C146 C 0.76999 -0.01375 0.13321
 N147 N 0.75627 -0.04326 0.09223
 C148 C 0.79295 0.02942 0.12801
 C149 C 0.79547 0.05524 0.07913
 C150 C 0.81858 0.09751 0.07407
 C151 C 0.80543 0.11744 0.02437
 C152 C 0.77537 0.08623 0.00038
 N153 N 0.76928 0.04827 0.03391
 C154 C 0.74890 0.09742 -0.04820
 C155 C 0.72299 0.06228 -0.07515
 C156 C 0.69148 0.07453 -0.11887
 C157 C 0.67281 0.03071 -0.13274
 C158 C 0.69296 -0.00678 -0.09666
 N159 N 0.72454 0.01220 -0.06270
 C160 C 0.68185 -0.05701 -0.09606
 H161 H 0.66771 -0.16101 -0.08489
 H162 H 0.68222 -0.19230 0.01509
 H163 H 0.74815 -0.00914 -0.03519
 H164 H 0.71544 -0.09265 0.19957
 H165 H 0.76183 -0.01497 0.22223
 H166 H 0.84082 0.11368 0.10406
 H167 H 0.81556 0.15182 0.00826
 H168 H 0.64651 0.02718 -0.16487
 H169 H 0.76575 -0.04184 0.05176
 H170 H 0.68263 0.11135 -0.13848
 C171 C 0.24799 0.35402 0.53394
 C172 C 0.25326 0.34450 0.47909
 C173 C 0.23161 0.38998 0.45477
 N174 N 0.21289 0.42677 0.49291
 C175 C 0.22323 0.40503 0.54140
 C176 C 0.23021 0.39747 0.39835
 C177 C 0.21710 0.44668 0.37596
 C178 C 0.20789 0.45439 0.32148
 C179 C 0.20205 0.50688 0.31446
 C180 C 0.20796 0.52960 0.36486
 N181 N 0.21708 0.49271 0.40218
 C182 C 0.20984 0.58239 0.37353
 C183 C 0.20866 0.60729 0.42522
 C184 C 0.21965 0.65607 0.43548
 C185 C 0.21465 0.66575 0.49029
 C186 C 0.20066 0.62259 0.51169
 N187 N 0.19674 0.58705 0.47175
 C188 C 0.19189 0.61640 0.56723
 C189 C 0.18828 0.56816 0.58872
 C190 C 0.17345 0.56214 0.64119
 C191 C 0.17870 0.50959 0.64813
 C192 C 0.19645 0.48501 0.59966
 N193 N 0.20233 0.52093 0.56370
 C194 C 0.21153 0.43076 0.59237
 H195 H 0.26245 0.32681 0.56459
 H196 H 0.27247 0.30871 0.45975
 H197 H 0.22122 0.51331 0.52726
 H198 H 0.20677 0.42505 0.28988
 H199 H 0.19557 0.52605 0.27635
 H200 H 0.23142 0.68155 0.40685
 H201 H 0.22211 0.70003 0.51179
 H202 H 0.17138 0.49144 0.68508
 H203 H 0.22991 0.49782 0.44107
 H204 H 0.16115 0.59244 0.67165
 C205 C 0.19411 0.88132 -0.03703
 C206 C 0.18658 0.90001 -0.08839
 C207 C 0.21668 0.93654 -0.09328
 N208 N 0.24276 0.94019 -0.04711
 C209 C 0.22845 0.90717 -0.01239
 C210 C 0.22093 0.96472 -0.14015
 C211 C 0.24855 1.00507 -0.14150
 C212 C 0.26237 1.02621 -0.18834
 C213 C 0.28494 1.06704 -0.17252
 C214 C 0.28367 1.07010 -0.11648
 N215 N 0.26118 1.03241 -0.09799
 C216 C 0.30009 1.10908 -0.08423
 C217 C 0.30383 1.10839 -0.02761
 C218 C 0.31420 1.14909 0.00496
 C219 C 0.32017 1.13124 0.05644
 C220 C 0.31337 1.08030 0.05328
 N221 N 0.30362 1.06639 0.00194
 C222 C 0.32090 1.04620 0.09622
 C223 C 0.31024 0.99576 0.09268
 C224 C 0.32428 0.95863 0.13087
 C225 C 0.30408 0.91645 0.11488
 C226 C 0.27856 0.92874 0.06688
 N227 N 0.28220 0.97742 0.05403
 C228 C 0.24782 0.89803 0.04018
 H229 H 0.17656 0.85193 -0.01988
 H230 H 0.16199 0.88802 -0.11870
 H231 H 0.26108 0.99907 0.02491
 H232 H 0.25635 1.01374 -0.22960
 H233 H 0.29967 1.09225 -0.19921
 H234 H 0.31793 1.18731 -0.00736
 H235 H 0.32948 1.15281 0.09186
 H236 H 0.30729 0.88148 0.13737
 H237 H 0.24945 1.02963 -0.05858
 H238 H 0.34585 0.96206 0.16718
 C239 C 0.79676 0.33755 0.56255
 C240 C 0.80477 0.33008 0.50800
 C241 C 0.82245 0.37289 0.49062
 N242 N 0.82553 0.40622 0.53279
 C243 C 0.80953 0.38475 0.57669
 C244 C 0.83431 0.38112 0.43645
 C245 C 0.83831 0.43007 0.41726
 C246 C 0.85478 0.43791 0.36586
 C247 C 0.84526 0.49073 0.35906
 C248 C 0.82326 0.51356 0.40650
 N249 N 0.81938 0.47634 0.44183
 C250 C 0.80236 0.56680 0.41342
 C251 C 0.78582 0.59006 0.46423
 C252 C 0.75485 0.63812 0.47182
 C253 C 0.74689 0.64558 0.52648
 C254 C 0.77312 0.60179 0.55048
 N255 N 0.79717 0.56806 0.51244
 C256 C 0.77438 0.59347 0.60663
 C257 C 0.79058 0.54455 0.62882
 C258 C 0.79860 0.53680 0.68351
 C259 C 0.80743 0.48400 0.68995
 C260 C 0.80461 0.46119 0.63899
 N261 N 0.79442 0.49833 0.60193
 C262 C 0.80524 0.40800 0.62914
 H263 H 0.78098 0.31213 0.58798
 H264 H 0.79609 0.29777 0.48401
 H265 H 0.78299 0.49293 0.56249
 H266 H 0.87014 0.40847 0.33561
 H267 H 0.85203 0.51004 0.32268
 H268 H 0.73799 0.66443 0.44139
 H269 H 0.72289 0.67867 0.54584
 H270 H 0.81355 0.46463 0.72797
 H271 H 0.79792 0.48146 0.47670
 H272 H 0.79660 0.56622 0.71562
 O273 O 0.27725 0.23878 0.19431
 O274 O 0.36638 0.20299 0.30403
 O275 O 0.35229 0.16245 0.21004
 O276 O 0.28897 0.27482 0.29338
 O277 O 0.24051 0.22623 0.32874
 O278 O 0.30189 0.11467 0.24319
 O279 O 0.31794 0.15407 0.33898
 O280 O 0.22764 0.19146 0.22969
 Cu281 Cu 0.32587 0.22468 0.24659
 Cu282 Cu 0.26689 0.16668 0.28825
 C283 C 0.23727 0.22108 0.19321
 C284 C 0.35720 0.17331 0.34047
 C285 C 0.33779 0.11946 0.21266
 C286 C 0.25517 0.26911 0.32666
 O287 O 0.72705 0.80445 0.20915
 O288 O 0.78887 0.71937 0.31547
 O289 O 0.81082 0.74225 0.21588
 O290 O 0.70709 0.78798 0.30923
 O291 O 0.66990 0.72477 0.27936
 O292 O 0.77208 0.68195 0.18170
 O293 O 0.75350 0.65608 0.28244
 O294 O 0.68713 0.74254 0.18154
 Cu295 Cu 0.76268 0.76933 0.26587
 Cu296 Cu 0.71772 0.69404 0.22887
 C297 C 0.69638 0.78770 0.17743
 C298 C 0.78059 0.67350 0.31764
 C299 C 0.80730 0.70720 0.18030
 C300 C 0.67059 0.76468 0.30978
 O301 O 0.89506 0.16726 0.27473
 O302 O 0.79892 0.14386 0.36868
 O303 O 0.82522 0.11404 0.26726
 O304 O 0.86143 0.20785 0.36823
 O305 O 0.80842 0.26981 0.32915
 O306 O 0.76807 0.17718 0.23574
 O307 O 0.74473 0.20799 0.33457
 O308 O 0.83983 0.22756 0.23596
 Cu309 Cu 0.85027 0.15178 0.32367
 Cu310 Cu 0.78489 0.22694 0.28064
 C311 C 0.88360 0.20026 0.23852
 C312 C 0.75594 0.17232 0.36853
 C313 C 0.79104 0.13071 0.23345
 C314 C 0.84085 0.25535 0.36492
 O315 O 0.27665 0.74537 0.13726
 O316 O 0.24131 0.66617 0.24495
 O317 O 0.22776 0.66920 0.14079
 O318 O 0.29399 0.73720 0.24038
 O319 O 0.22527 0.79501 0.25752
 O320 O 0.15881 0.72747 0.15514
 O321 O 0.17216 0.72391 0.26037
 O322 O 0.20750 0.80294 0.15306
 Cu323 Cu 0.26671 0.69861 0.18895
 Cu324 Cu 0.18394 0.76822 0.20775
 C325 C 0.24791 0.78788 0.12705
 C326 C 0.20140 0.68219 0.27178
 C327 C 0.18236 0.68679 0.13058
 C328 C 0.27090 0.77663 0.26704
 O329 O 0.70236 0.26166 0.75920
 O330 O 0.77647 0.33179 0.84687
 O331 O 0.75936 0.32488 0.75006
 O332 O 0.72190 0.25912 0.86679
 O333 O 0.78375 0.19255 0.85323
 O334 O 0.82500 0.26161 0.73824
 O335 O 0.83932 0.26485 0.84168
 O336 O 0.76622 0.19651 0.74751
 Cu337 Cu 0.73275 0.29888 0.80923
 Cu338 Cu 0.80994 0.22186 0.79483
 C339 C 0.72221 0.21890 0.73589
 C340 C 0.82106 0.31125 0.85756
 C341 C 0.79918 0.30487 0.72480
 C342 C 0.74564 0.21502 0.87994
 O343 O 0.24328 0.82047 0.66712
 O344 O 0.14409 0.79240 0.75462
 O345 O 0.19291 0.74628 0.67032
 O346 O 0.19819 0.86437 0.75563
 O347 O 0.14067 0.90871 0.70353
 O348 O 0.13599 0.79181 0.61837
 O349 O 0.08635 0.83691 0.70290
 O350 O 0.18606 0.86565 0.61526
 Cu351 Cu 0.20027 0.80147 0.71728
 Cu352 Cu 0.13155 0.85553 0.65507
 C353 C 0.23134 0.84681 0.62534
 C354 C 0.09849 0.80976 0.74392
 C355 C 0.16418 0.74921 0.62947
 C356 C 0.16969 0.90669 0.74398
 O357 O 0.25691 0.34484 0.72445
 O358 O 0.31732 0.26044 0.82946
 O359 O 0.33370 0.27197 0.73004
 O360 O 0.23852 0.33507 0.82708
 O361 O 0.19212 0.27669 0.80743
 O362 O 0.28706 0.21470 0.70646
 O363 O 0.27065 0.20265 0.80800
 O364 O 0.20927 0.28822 0.70237
 Cu365 Cu 0.29065 0.30932 0.78046
 Cu366 Cu 0.23440 0.24014 0.75406
 C367 C 0.22442 0.33006 0.69400
 C368 C 0.30535 0.21674 0.83566
 C369 C 0.32677 0.23275 0.70168
 C370 C 0.19982 0.31629 0.83482
 O371 O 0.70536 0.71599 0.70522
 O372 O 0.64279 0.82480 0.79271
 O373 O 0.62835 0.78907 0.69745
 O374 O 0.71692 0.74488 0.80429
 O375 O 0.77019 0.79187 0.77620
 O376 O 0.67927 0.83747 0.66667
 O377 O 0.69607 0.87217 0.76545
 O378 O 0.75677 0.76448 0.67564
 Cu379 Cu 0.66844 0.76402 0.75354
 Cu380 Cu 0.73050 0.82194 0.71852
 C381 C 0.74126 0.72200 0.67503
 C382 C 0.65857 0.86721 0.79334
 C383 C 0.63892 0.81987 0.66304
 C384 C 0.75878 0.75873 0.80787
 N385 N 0.34190 0.06111 0.14027
 N386 N 0.36233 0.07600 0.18069
 N387 N 0.75481 0.63545 0.64372
 N388 N 0.76402 0.68073 0.63923
 N389 N 0.69129 0.85134 0.11332
 N390 N 0.67177 0.81933 0.13611
 N391 N 0.22155 0.40195 0.64064
 N392 N 0.20744 0.35922 0.64768
 N393 N 0.90886 0.23271 0.15830
 N394 N 0.92037 0.20573 0.19969
 N395 N 0.31463 0.83421 0.59585
 N396 N 0.26878 0.85232 0.58709
 N397 N 0.11904 0.68116 0.06900
 N398 N 0.15820 0.66031 0.09034
 N399 N 0.65030 0.21742 0.68526
 N400 N 0.69567 0.19737 0.69387
 N401 N 0.74033 0.14584 0.93677
 N402 N 0.72855 0.19208 0.92608
 N403 N 0.21733 0.61048 0.32674
 N404 N 0.19027 0.65409 0.31685
 N405 N 0.19496 0.95655 0.81657
 N406 N 0.16902 0.95326 0.77609
 N407 N 0.83373 0.34060 0.39635
 N408 N 0.85141 0.29296 0.40384
 N409 N 0.13724 0.31804 0.89974
 N410 N 0.16501 0.34098 0.87496
 N411 N 0.58921 0.76761 0.34125
 N412 N 0.63023 0.78342 0.34584
 N413 N 0.82905 0.74925 0.86651
 N414 N 0.79319 0.73325 0.84648
 N415 N 0.43075 0.18075 0.38549
 N416 N 0.39008 0.16396 0.38533
 N417 N 0.65725 0.92702 0.86327
 N418 N 0.63407 0.90962 0.82656
 N419 N 0.24728 0.35472 0.36089
 N420 N 0.23463 0.31072 0.36365
 N421 N 0.31584 0.14692 0.89245
 N422 N 0.33216 0.18326 0.87406
 N423 N 0.79195 0.59628 0.36540
 N424 N 0.79855 0.64283 0.36278
 N425 N 0.07451 0.77521 0.82220
 N426 N 0.06080 0.80004 0.77988
 N427 N 0.67489 0.18700 0.40469
 N428 N 0.72037 0.16483 0.40814
 N429 N 0.88927 0.32147 0.91001
 N430 N 0.85090 0.34163 0.88688
 N431 N 0.34245 0.78201 0.31713
 N432 N 0.29609 0.79883 0.30998
 N433 N 0.23171 0.85885 0.07059
 N434 N 0.26279 0.82077 0.08828
 N435 N 0.79507 0.37891 0.67442
 N436 N 0.81465 0.33147 0.68055
 N437 N 0.80576 0.05470 0.17673
 N438 N 0.77978 0.09888 0.18941
 N439 N 0.18875 0.66012 0.60478
 N440 N 0.16452 0.70497 0.59393
 N441 N 0.87235 0.72900 0.13116
 N442 N 0.84012 0.70019 0.13495
 N443 N 0.40656 0.22222 0.66502
 N444 N 0.36387 0.20957 0.66321
 N445 N 0.16226 0.21744 0.14927
 N446 N 0.20246 0.23504 0.15064
 N447 N 0.56342 0.81949 0.61819
 N448 N 0.60623 0.83211 0.61811
   
