data_POSCAR
  _audit_creation_date              2014-09-24
  _audit_creation_method            'ToBaCCo'
  _symmetry_space_group_name_H-M    'P1'
  _symmetry_Int_Tables_number       1
  _symmetry_cell_setting            triclinic
  loop_
  _symmetry_equiv_pos_as_xyz
 x,y,z
_cell_length_a 44.6077
_cell_length_b 45.7763
_cell_length_c 45.3503
_cell_angle_alpha 94.971500
_cell_angle_beta 89.850100
_cell_angle_gamma 88.870500
loop_
  _atom_site_label
  _atom_site_type_symbol
  _atom_site_fract_x
  _atom_site_fract_y
  _atom_site_fract_z
C1 C 0.28195 0.23798 0.24895
 N2 N 0.28409 0.22040 0.27146
 C3 C 0.26346 0.22220 0.29361
 N4 N 0.24028 0.24189 0.29303
 C5 C 0.23777 0.25967 0.27057
 N6 N 0.25874 0.25761 0.24864
 C7 C 0.72079 -0.26796 0.21959
 N8 N 0.71963 -0.24793 0.24346
 C9 C 0.74027 -0.24833 0.26537
 N10 N 0.76260 -0.26910 0.26320
 C11 C 0.76423 -0.28942 0.23940
 N12 N 0.74315 -0.28861 0.21784
 C13 C 0.72054 0.26825 0.76826
 N14 N 0.71886 0.24713 0.74549
 C15 C 0.73787 0.24684 0.72199
 N16 N 0.75887 0.26801 0.72146
 C17 C 0.76078 0.28941 0.74418
 N18 N 0.74147 0.28919 0.76738
 C19 C 0.27562 -0.25584 0.75140
 N20 N 0.25341 -0.27569 0.74768
 C21 C 0.23424 -0.27550 0.72449
 N22 N 0.23750 -0.25517 0.70464
 C23 C 0.25967 -0.23519 0.70792
 N24 N 0.27851 -0.23564 0.73137
 C25 C 0.72782 -0.22774 0.77298
 N26 N 0.74710 -0.25120 0.77209
 C27 C 0.76974 -0.25460 0.75193
 N28 N 0.77300 -0.23401 0.73240
 C29 C 0.75415 -0.21031 0.73289
 N30 N 0.73156 -0.20730 0.75323
 C31 C 0.26478 0.25758 0.79670
 N32 N 0.24492 0.28038 0.79535
 C33 C 0.22282 0.27922 0.77477
 N34 N 0.22061 0.25497 0.75558
 C35 C 0.24012 0.23199 0.75659
 N36 N 0.26230 0.23344 0.77715
 C37 C 0.25259 -0.24824 0.21910
 N38 N 0.23398 -0.27118 0.22164
 C39 C 0.21372 -0.27073 0.24418
 N40 N 0.21223 -0.24692 0.26419
 C41 C 0.23043 -0.22383 0.26208
 N42 N 0.25063 -0.22464 0.23955
 C43 C 0.74582 0.22968 0.23873
 N44 N 0.74842 0.20847 0.25783
 C45 C 0.77044 0.20941 0.27852
 N46 N 0.78992 0.23190 0.28000
 C47 C 0.78780 0.25331 0.26106
 N48 N 0.76562 0.25196 0.24046
 O49 O 0.27513 0.03369 0.48724
 O50 O 0.27464 -0.03015 0.53192
 O51 O 0.27589 -0.02283 0.47552
 O52 O 0.27736 0.02643 0.54374
 O53 O 0.22792 0.02835 0.54472
 O54 O 0.22642 -0.02128 0.47608
 O55 O 0.22518 -0.02826 0.53218
 O56 O 0.22568 0.03534 0.48850
 Cu57 Cu 0.28071 0.00164 0.50958
 Cu58 Cu 0.22137 0.00374 0.51049
 C59 C 0.25032 0.04533 0.48016
 C60 C 0.24964 -0.04020 0.53950
 C61 C 0.25102 -0.03054 0.46408
 C62 C 0.25302 0.03590 0.55592
 O63 O 0.73134 0.02825 0.52445
 O64 O 0.73168 -0.03911 0.47319
 O65 O 0.72821 -0.02754 0.53056
 O66 O 0.73103 0.01678 0.46722
 O67 O 0.78048 0.01582 0.46841
 O68 O 0.77762 -0.02988 0.53188
 O69 O 0.78111 -0.04051 0.47449
 O70 O 0.78077 0.02619 0.52554
 Cu71 Cu 0.72565 -0.00529 0.49875
 Cu72 Cu 0.78493 -0.00735 0.50020
 C73 C 0.75615 0.03878 0.53364
 C74 C 0.75660 -0.05123 0.46496
 C75 C 0.75223 -0.03634 0.54214
 C76 C 0.75603 0.02413 0.45705
 O77 O 0.47992 0.27265 0.04393
 O78 O 0.53668 0.26863 -0.01500
 O79 O 0.47850 0.26820 -0.01339
 O80 O 0.53856 0.27191 0.04255
 O81 O 0.53947 0.22365 0.04147
 O82 O 0.47960 0.21993 -0.01434
 O83 O 0.53762 0.22033 -0.01640
 O84 O 0.48096 0.22439 0.04322
 Cu85 Cu 0.50839 0.27518 0.01471
 Cu86 Cu 0.50959 0.21724 0.01350
 C87 C 0.47048 0.24925 0.05350
 C88 C 0.54662 0.24389 -0.02607
 C89 C 0.46881 0.24338 -0.02347
 C90 C 0.54933 0.24836 0.05156
 O91 O 0.51644 0.74198 0.02426
 O92 O 0.46118 0.74416 -0.03551
 O93 O 0.51947 0.74111 -0.03278
 O94 O 0.45806 0.74514 0.02193
 O95 O 0.45973 0.79344 0.02537
 O96 O 0.52131 0.78942 -0.02941
 O97 O 0.46329 0.79245 -0.03240
 O98 O 0.51786 0.79033 0.02815
 Cu99 Cu 0.48853 0.73827 -0.00587
 Cu100 Cu 0.49065 0.79627 -0.00169
 C101 C 0.52663 0.76577 0.03641
 C102 C 0.45303 0.76863 -0.04442
 C103 C 0.53096 0.76451 -0.04042
 C104 C 0.44848 0.76998 0.03316
 O105 O 0.03371 0.45953 0.26568
 O106 O -0.02266 0.51910 0.26904
 O107 O -0.02456 0.46195 0.26705
 O108 O 0.03532 0.51637 0.26431
 O109 O 0.03322 0.51188 0.21552
 O110 O -0.02707 0.45887 0.21829
 O111 O -0.02510 0.51571 0.22029
 O112 O 0.03154 0.45533 0.21691
 Cu113 Cu 0.00569 0.48959 0.27138
 Cu114 Cu 0.00290 0.48503 0.21289
 C115 C 0.04237 0.44721 0.24090
 C116 C -0.03350 0.52773 0.24538
 C117 C -0.03613 0.45124 0.24298
 C118 C 0.04450 0.52335 0.23932
 O119 O 0.02680 0.53325 0.70629
 O120 O -0.03230 0.47787 0.70088
 O121 O -0.03136 0.53527 0.70249
 O122 O 0.02574 0.47632 0.70593
 O123 O 0.02203 0.48026 0.75465
 O124 O -0.03557 0.53827 0.75116
 O125 O -0.03603 0.48141 0.74958
 O126 O 0.02271 0.53675 0.75496
 Cu127 Cu -0.00246 0.50534 0.69899
 Cu128 Cu -0.00719 0.50955 0.75744
 C129 C 0.03498 0.54435 0.73157
 C130 C -0.04414 0.47003 0.72438
 C131 C -0.04319 0.54687 0.72634
 C132 C 0.03375 0.46834 0.73094
 C133 C 0.34585 0.20871 0.19917
 C134 C 0.34975 0.23139 0.18026
 C135 C 0.33081 0.25665 0.18481
 C136 C 0.30838 0.25843 0.20672
 C137 C 0.30486 0.23571 0.22516
 C138 C 0.32388 0.21097 0.22121
 C139 C 0.33449 0.28017 0.16767
 C140 C 0.35706 0.27959 0.14650
 C141 C 0.37660 0.25504 0.14113
 C142 C 0.37208 0.23008 0.15744
 C143 C 0.38972 0.20451 0.15010
 C144 C 0.41157 0.20355 0.12819
 C145 C 0.41722 0.22813 0.11311
 C146 C 0.40018 0.25440 0.11961
 C147 C 0.40781 0.27906 0.10454
 C148 C 0.43074 0.27732 0.08345
 C149 C 0.44682 0.25103 0.07651
 C150 C 0.43996 0.22652 0.09152
 H151 H 0.35984 0.18919 0.19804
 H152 H 0.29406 0.27788 0.20984
 H153 H 0.32180 0.19312 0.23524
 H154 H 0.31995 0.29945 0.17090
 H155 H 0.35814 0.29862 0.13418
 H156 H 0.38673 0.18445 0.16042
 H157 H 0.42439 0.18335 0.12318
 H158 H 0.39690 0.30020 0.10886
 H159 H 0.43571 0.29669 0.07235
 H160 H 0.45254 0.20616 0.08660
 C161 C 0.67719 0.71133 0.15122
 C162 C 0.65515 0.73404 0.15168
 C163 C 0.65627 0.75668 0.17499
 C164 C 0.67765 0.75564 0.19755
 C165 C 0.69920 0.73276 0.19705
 C166 C 0.69881 0.71085 0.17338
 C167 C 0.63614 0.78042 0.17569
 C168 C 0.61523 0.78261 0.15336
 C169 C 0.61302 0.76059 0.12972
 C170 C 0.63241 0.73529 0.12959
 C171 C 0.62799 0.71182 0.10782
 C172 C 0.60594 0.71329 0.08643
 C173 C 0.58799 0.73843 0.08530
 C174 C 0.59162 0.76272 0.10653
 C175 C 0.57395 0.78830 0.10331
 C176 C 0.55312 0.78926 0.08047
 C177 C 0.54894 0.76479 0.06031
 C178 C 0.56647 0.73943 0.06287
 H179 H 0.67884 0.69394 0.13367
 H180 H 0.67767 0.77313 0.21528
 H181 H 0.71519 0.69298 0.17190
 H182 H 0.63678 0.79774 0.19356
 H183 H 0.60042 0.80155 0.15576
 H184 H 0.64067 0.69152 0.10720
 H185 H 0.60317 0.69460 0.07034
 H186 H 0.57614 0.80818 0.11761
 H187 H 0.54003 0.80923 0.07876
 H188 H 0.56377 0.72056 0.04698
 C189 C 0.67797 0.29409 -0.16178
 C190 C 0.66128 0.26919 -0.15603
 C191 C 0.66506 0.24356 -0.17573
 C192 C 0.68394 0.24349 -0.20059
 C193 C 0.70005 0.26846 -0.20600
 C194 C 0.69698 0.29361 -0.18626
 C195 C 0.65012 0.21805 -0.17046
 C196 C 0.63171 0.21716 -0.14585
 C197 C 0.62696 0.24210 -0.12566
 C198 C 0.64130 0.26878 -0.13134
 C199 C 0.63476 0.29431 -0.11249
 C200 C 0.61526 0.29382 -0.08871
 C201 C 0.60184 0.26788 -0.08235
 C202 C 0.60781 0.24148 -0.10033
 C203 C 0.59436 0.21560 -0.09203
 C204 C 0.57505 0.21631 -0.06765
 C205 C 0.56844 0.24272 -0.05077
 C206 C 0.58221 0.26835 -0.05811
 H207 H 0.67736 0.31418 -0.14756
 H208 H 0.68646 0.22373 -0.21547
 H209 H 0.70930 0.31319 -0.18973
 H210 H 0.65286 0.19841 -0.18547
 H211 H 0.62092 0.19663 -0.14365
 H212 H 0.64377 0.31541 -0.11589
 H213 H 0.61068 0.31407 -0.07507
 H214 H 0.59843 0.19439 -0.10370
 H215 H 0.56491 0.19611 -0.06230
 H216 H 0.57760 0.28887 -0.04494
 C217 C 0.31257 0.72168 -0.18032
 C218 C 0.33425 0.74359 -0.17463
 C219 C 0.33525 0.76630 -0.19393
 C220 C 0.31627 0.76608 -0.21859
 C221 C 0.29504 0.74401 -0.22418
 C222 C 0.29334 0.72202 -0.20450
 C223 C 0.35509 0.78928 -0.18848
 C224 C 0.37367 0.79061 -0.16393
 C225 C 0.37374 0.76845 -0.14413
 C226 C 0.35459 0.74395 -0.15026
 C227 C 0.35691 0.72035 -0.13225
 C228 C 0.37678 0.72084 -0.10873
 C229 C 0.39457 0.74511 -0.10168
 C230 C 0.39289 0.76957 -0.11881
 C231 C 0.41029 0.79426 -0.10964
 C232 C 0.42929 0.79405 -0.08525
 C233 C 0.43177 0.76929 -0.06928
 C234 C 0.41417 0.74496 -0.07752
 H235 H 0.30934 0.70430 -0.16614
 H236 H 0.31780 0.78360 -0.23314
 H237 H 0.27712 0.70473 -0.20772
 H238 H 0.35606 0.80665 -0.20324
 H239 H 0.38844 0.80899 -0.16157
 H240 H 0.34428 0.70061 -0.13630
 H241 H 0.37806 0.70203 -0.09578
 H242 H 0.40941 0.81427 -0.12051
 H243 H 0.44245 0.81326 -0.07914
 H244 H 0.41554 0.72587 -0.06496
 C245 C 0.17091 0.30839 0.29483
 C246 C 0.16470 0.32332 0.26936
 C247 C 0.18261 0.31591 0.24383
 C248 C 0.20633 0.29531 0.24442
 C249 C 0.21250 0.28117 0.27001
 C250 C 0.19433 0.28772 0.29503
 C251 C 0.17685 0.32909 0.21780
 C252 C 0.15359 0.34951 0.21634
 C253 C 0.13531 0.35805 0.24119
 C254 C 0.14138 0.34519 0.26832
 C255 C 0.12436 0.35507 0.29367
 C256 C 0.10216 0.37658 0.29265
 C257 C 0.09556 0.38886 0.26631
 C258 C 0.11158 0.37951 0.24003
 C259 C 0.10305 0.39209 0.21373
 C260 C 0.08035 0.41363 0.21393
 C261 C 0.06543 0.42343 0.24024
 C262 C 0.07303 0.41070 0.26628
 H263 H 0.15794 0.31184 0.31492
 H264 H 0.21991 0.29017 0.22471
 H265 H 0.19835 0.27700 0.31507
 H266 H 0.19048 0.32351 0.19821
 H267 H 0.15097 0.35871 0.19543
 H268 H 0.12809 0.34712 0.31503
 H269 H 0.08997 0.38369 0.31280
 H270 H 0.11326 0.38570 0.19255
 H271 H 0.07476 0.42291 0.19342
 H272 H 0.06133 0.41779 0.28673
 C273 C 0.17039 0.67856 0.69227
 C274 C 0.16247 0.66203 0.71605
 C275 C 0.17853 0.66713 0.74288
 C276 C 0.20199 0.68715 0.74524
 C277 C 0.20969 0.70312 0.72142
 C278 C 0.19352 0.69877 0.69503
 C279 C 0.17113 0.65233 0.76738
 C280 C 0.14773 0.63279 0.76616
 C281 C 0.13095 0.62682 0.74005
 C282 C 0.13907 0.64095 0.71428
 C283 C 0.12390 0.63314 0.68755
 C284 C 0.10130 0.61263 0.68607
 C285 C 0.09240 0.59950 0.71120
 C286 C 0.10669 0.60675 0.73869
 C287 C 0.09583 0.59376 0.76376
 C288 C 0.07250 0.57386 0.76132
 C289 C 0.05916 0.56608 0.73393
 C290 C 0.06918 0.57912 0.70895
 H291 H 0.15886 0.67681 0.67137
 H292 H 0.21401 0.69058 0.76596
 H293 H 0.19881 0.71095 0.67632
 H294 H 0.18347 0.65603 0.78789
 H295 H 0.14383 0.62216 0.78604
 H296 H 0.12942 0.64201 0.66704
 H297 H 0.09051 0.60713 0.66497
 H298 H 0.10447 0.59879 0.78571
 H299 H 0.06505 0.56434 0.78106
 H300 H 0.05873 0.57358 0.68769
 C301 C -0.18763 0.64773 0.20855
 C302 C -0.16594 0.64529 0.23094
 C303 C -0.16858 0.66497 0.25679
 C304 C -0.19139 0.68672 0.25940
 C305 C -0.21265 0.68902 0.23684
 C306 C -0.21045 0.66906 0.21153
 C307 C -0.14853 0.66277 0.28006
 C308 C -0.12628 0.64104 0.27864
 C309 C -0.12273 0.62082 0.25346
 C310 C -0.14214 0.62373 0.22876
 C311 C -0.13686 0.60525 0.20259
 C312 C -0.11412 0.58402 0.20086
 C313 C -0.09603 0.57988 0.22521
 C314 C -0.10020 0.59799 0.25198
 C315 C -0.08194 0.59206 0.27634
 C316 C -0.06044 0.56942 0.27398
 C317 C -0.05611 0.55196 0.24733
 C318 C -0.07392 0.55747 0.22295
 H319 H -0.18808 0.63310 0.18865
 H320 H -0.19269 0.70161 0.27932
 H321 H -0.22643 0.66977 0.19364
 H322 H -0.15026 0.67785 0.29981
 H323 H -0.11175 0.64109 0.29756
 H324 H -0.14958 0.60700 0.18266
 H325 H -0.11091 0.57043 0.18026
 H326 H -0.08411 0.60403 0.29777
 H327 H -0.04709 0.56559 0.29325
 H328 H -0.07101 0.54387 0.20230
 C329 C -0.19387 0.35410 0.76946
 C330 C -0.17360 0.35600 0.74574
 C331 C -0.17652 0.33560 0.72059
 C332 C -0.19800 0.31341 0.72011
 C333 C -0.21759 0.31147 0.74419
 C334 C -0.21531 0.33238 0.76863
 C335 C -0.15805 0.33752 0.69599
 C336 C -0.13695 0.35945 0.69558
 C337 C -0.13290 0.38006 0.72022
 C338 C -0.15088 0.37765 0.74606
 C339 C -0.14514 0.39656 0.77163
 C340 C -0.12321 0.41758 0.77182
 C341 C -0.10634 0.42101 0.74654
 C342 C -0.11109 0.40265 0.72019
 C343 C -0.09389 0.40794 0.69494
 C344 C -0.07252 0.42997 0.69621
 C345 C -0.06743 0.44736 0.72261
 C346 C -0.08458 0.44277 0.74762
 H347 H -0.19427 0.36941 0.78887
 H348 H -0.19953 0.29784 0.70076
 H349 H -0.23012 0.33211 0.78757
 H350 H -0.16008 0.32201 0.67667
 H351 H -0.12359 0.35921 0.67575
 H352 H -0.15671 0.39524 0.79231
 H353 H -0.11950 0.43141 0.79207
 H354 H -0.09663 0.39573 0.67376
 H355 H -0.05972 0.43317 0.67646
 H356 H -0.08113 0.45634 0.76810
 C357 C 0.29524 0.16647 0.34270
 C358 C 0.27143 0.16294 0.36269
 C359 C 0.24481 0.17987 0.35960
 C360 C 0.24256 0.19966 0.33763
 C361 C 0.26626 0.20255 0.31781
 C362 C 0.29258 0.18583 0.32071
 C363 C 0.22035 0.17668 0.37813
 C364 C 0.22118 0.15625 0.39903
 C365 C 0.24685 0.13834 0.40257
 C366 C 0.27283 0.14267 0.38501
 C367 C 0.29933 0.12659 0.39036
 C368 C 0.30006 0.10592 0.41101
 C369 C 0.27442 0.10009 0.42691
 C370 C 0.24742 0.11619 0.42302
 C371 C 0.22187 0.10878 0.43917
 C372 C 0.22314 0.08623 0.45796
 C373 C 0.24985 0.07037 0.46159
 C374 C 0.27556 0.07776 0.44631
 H375 H 0.31599 0.15408 0.34286
 H376 H 0.22198 0.21229 0.33553
 H377 H 0.31131 0.18753 0.30576
 H378 H 0.20007 0.18980 0.37613
 H379 H 0.20128 0.15529 0.41236
 H380 H 0.32017 0.12964 0.37912
 H381 H 0.32087 0.09396 0.41415
 H382 H 0.20027 0.11934 0.43722
 H383 H 0.20290 0.08100 0.46949
 H384 H 0.29631 0.06549 0.44878
 C385 C 0.70783 0.18354 0.67226
 C386 C 0.73221 0.17580 0.65293
 C387 C 0.75863 0.19247 0.65666
 C388 C 0.76006 0.21620 0.67847
 C389 C 0.73581 0.22323 0.69763
 C390 C 0.70975 0.20671 0.69422
 C391 C 0.78371 0.18509 0.63898
 C392 C 0.78365 0.16085 0.61832
 C393 C 0.75812 0.14322 0.61407
 C394 C 0.73154 0.15165 0.63066
 C395 C 0.70517 0.13575 0.62434
 C396 C 0.70501 0.11169 0.60349
 C397 C 0.73116 0.10210 0.58847
 C398 C 0.75818 0.11754 0.59363
 C399 C 0.78430 0.10616 0.57861
 C400 C 0.78343 0.08078 0.55925
 C401 C 0.75658 0.06590 0.55393
 C402 C 0.73045 0.07685 0.56850
 H403 H 0.68723 0.17165 0.67167
 H404 H 0.78048 0.22861 0.68111
 H405 H 0.69064 0.21159 0.70873
 H406 H 0.80387 0.19791 0.64148
 H407 H 0.80396 0.15680 0.60562
 H408 H 0.68395 0.14165 0.63479
 H409 H 0.68421 0.10018 0.59942
 H410 H 0.80598 0.11586 0.58183
 H411 H 0.80401 0.07277 0.54838
 H412 H 0.70959 0.06535 0.56480
 C413 C 0.29171 -0.17395 0.66720
 C414 C 0.26859 -0.16802 0.64709
 C415 C 0.24236 -0.18502 0.64745
 C416 C 0.23991 -0.20729 0.66672
 C417 C 0.26293 -0.21267 0.68661
 C418 C 0.28879 -0.19579 0.68660
 C419 C 0.21848 -0.17952 0.62886
 C420 C 0.21948 -0.15682 0.61053
 C421 C 0.24481 -0.13887 0.60968
 C422 C 0.27029 -0.14541 0.62724
 C423 C 0.29662 -0.12928 0.62419
 C424 C 0.29771 -0.10678 0.60558
 C425 C 0.27251 -0.09897 0.58971
 C426 C 0.24559 -0.11471 0.59168
 C427 C 0.22032 -0.10508 0.57610
 C428 C 0.22191 -0.08112 0.55922
 C429 C 0.24867 -0.06596 0.55700
 C430 C 0.27400 -0.07519 0.57214
 H431 H 0.31204 -0.16164 0.66909
 H432 H 0.21964 -0.21997 0.66668
 H433 H 0.30695 -0.19936 0.70178
 H434 H 0.19851 -0.19266 0.62878
 H435 H 0.20009 -0.15426 0.59684
 H436 H 0.31712 -0.13383 0.63557
 H437 H 0.31844 -0.09503 0.60398
 H438 H 0.19870 -0.11503 0.57706
 H439 H 0.20193 -0.07440 0.54784
 H440 H 0.29474 -0.06339 0.57085
 C441 C 0.70972 -0.18733 0.31948
 C442 C 0.73419 -0.18123 0.33868
 C443 C 0.76093 -0.19821 0.33335
 C444 C 0.76262 -0.22058 0.31003
 C445 C 0.73823 -0.22600 0.29106
 C446 C 0.71183 -0.20920 0.29615
 C447 C 0.78602 -0.19249 0.35100
 C448 C 0.78563 -0.16965 0.37327
 C449 C 0.75977 -0.15175 0.37917
 C450 C 0.73326 -0.15843 0.36241
 C451 C 0.70670 -0.14215 0.36996
 C452 C 0.70629 -0.11927 0.39213
 C453 C 0.73230 -0.11135 0.40748
 C454 C 0.75947 -0.12740 0.40129
 C455 C 0.78536 -0.11785 0.41707
 C456 C 0.78418 -0.09348 0.43782
 C457 C 0.75725 -0.07779 0.44382
 C458 C 0.73131 -0.08712 0.42875
 H459 H 0.68881 -0.17515 0.32130
 H460 H 0.78328 -0.23324 0.30619
 H461 H 0.69257 -0.21282 0.28191
 H462 H 0.80644 -0.20554 0.34725
 H463 H 0.80601 -0.16682 0.38576
 H464 H 0.68554 -0.14675 0.35937
 H465 H 0.68537 -0.10733 0.39699
 H466 H 0.80708 -0.12823 0.41343
 H467 H 0.80463 -0.08677 0.44908
 H468 H 0.71036 -0.07504 0.43303
 C469 C 0.66185 0.80243 -0.18255
 C470 C 0.65686 0.78023 -0.16327
 C471 C 0.67589 0.75500 -0.16639
 C472 C 0.69941 0.75277 -0.18713
 C473 C 0.70430 0.77503 -0.20602
 C474 C 0.68501 0.79976 -0.20353
 C475 C 0.67139 0.73190 -0.14887
 C476 C 0.64800 0.73290 -0.12860
 C477 C 0.62833 0.75746 -0.12454
 C478 C 0.63351 0.78198 -0.14134
 C479 C 0.61555 0.80756 -0.13526
 C480 C 0.59298 0.80900 -0.11397
 C481 C 0.58680 0.78485 -0.09837
 C482 C 0.60398 0.75852 -0.10379
 C483 C 0.59575 0.73419 -0.08848
 C484 C 0.57206 0.73627 -0.06820
 C485 C 0.55583 0.76260 -0.06223
 C486 C 0.56335 0.78685 -0.07744
 H487 H 0.64790 0.82191 -0.18242
 H488 H 0.71367 0.73324 -0.18870
 H489 H 0.68776 0.81734 -0.21778
 H490 H 0.68602 0.71262 -0.15103
 H491 H 0.64643 0.71421 -0.11585
 H492 H 0.61885 0.82726 -0.14613
 H493 H 0.57999 0.82922 -0.10988
 H494 H 0.60669 0.71300 -0.09206
 H495 H 0.56658 0.71712 -0.05696
 H496 H 0.55059 0.80722 -0.07335
 C497 C 0.31744 0.28760 -0.14307
 C498 C 0.33577 0.26291 -0.13806
 C499 C 0.32965 0.23606 -0.15478
 C500 C 0.30676 0.23450 -0.17608
 C501 C 0.28904 0.25926 -0.18091
 C502 C 0.29456 0.28570 -0.16404
 C503 C 0.34634 0.21082 -0.15016
 C504 C 0.36880 0.21138 -0.12901
 C505 C 0.37588 0.23749 -0.11175
 C506 C 0.35964 0.26386 -0.11693
 C507 C 0.36808 0.29034 -0.10110
 C508 C 0.39112 0.29106 -0.08056
 C509 C 0.40646 0.26547 -0.07453
 C510 C 0.39894 0.23823 -0.08975
 C511 C 0.41469 0.21283 -0.08202
 C512 C 0.43713 0.21464 -0.06057
 C513 C 0.44482 0.24170 -0.04607
 C514 C 0.42933 0.26704 -0.05321
 H515 H 0.31982 0.30868 -0.13090
 H516 H 0.30257 0.21378 -0.18871
 H517 H 0.28119 0.30521 -0.16709
 H518 H 0.34186 0.19026 -0.16296
 H519 H 0.38060 0.19089 -0.12713
 H520 H 0.35766 0.31120 -0.10442
 H521 H 0.39685 0.31197 -0.06909
 H522 H 0.41001 0.19112 -0.09176
 H523 H 0.44859 0.19464 -0.05540
 H524 H 0.43485 0.28810 -0.04194
 C525 C 0.29857 0.72497 0.15300
 C526 C 0.31760 0.74886 0.14957
 C527 C 0.31352 0.77429 0.16943
 C528 C 0.29216 0.77507 0.19235
 C529 C 0.27379 0.75097 0.19586
 C530 C 0.27714 0.72610 0.17561
 C531 C 0.33079 0.79891 0.16644
 C532 C 0.35201 0.79908 0.14401
 C533 C 0.35728 0.77426 0.12381
 C534 C 0.34033 0.74847 0.12710
 C535 C 0.34711 0.72298 0.10826
 C536 C 0.36941 0.72267 0.08682
 C537 C 0.38555 0.74779 0.08279
 C538 C 0.37942 0.77413 0.10081
 C539 C 0.39571 0.79927 0.09489
 C540 C 0.41766 0.79790 0.07276
 C541 C 0.42430 0.77155 0.05577
 C542 C 0.40794 0.74661 0.06082
 H543 H 0.29932 0.70515 0.13836
 H544 H 0.28986 0.79475 0.20738
 H545 H 0.26328 0.70712 0.17721
 H546 H 0.32782 0.81842 0.18160
 H547 H 0.36446 0.81894 0.14360
 H548 H 0.33605 0.70250 0.10995
 H549 H 0.37403 0.70245 0.07314
 H550 H 0.39188 0.82045 0.10670
 H551 H 0.42975 0.81759 0.06920
 H552 H 0.41256 0.72615 0.04755
 C553 C 0.68167 0.20200 0.18988
 C554 C 0.67482 0.22622 0.17345
 C555 C 0.69172 0.25195 0.17950
 C556 C 0.71494 0.25284 0.20046
 C557 C 0.72154 0.22855 0.21633
 C558 C 0.70453 0.20327 0.21090
 C559 C 0.68534 0.27678 0.16472
 C560 C 0.66227 0.27692 0.14424
 C561 C 0.64476 0.25191 0.13727
 C562 C 0.65168 0.22588 0.15154
 C563 C 0.63553 0.20028 0.14312
 C564 C 0.61312 0.20013 0.12195
 C565 C 0.60547 0.22549 0.10854
 C566 C 0.62086 0.25187 0.11618
 C567 C 0.61140 0.27716 0.10248
 C568 C 0.58819 0.27597 0.08179
 C569 C 0.57361 0.24965 0.07388
 C570 C 0.58239 0.22450 0.08746
 H571 H 0.66954 0.18184 0.18744
 H572 H 0.72765 0.27270 0.20464
 H573 H 0.70893 0.18419 0.22290
 H574 H 0.69825 0.29649 0.16917
 H575 H 0.65910 0.29700 0.13381
 H576 H 0.64002 0.17964 0.15210
 H577 H 0.60151 0.17987 0.11611
 H578 H 0.62115 0.29833 0.10748
 H579 H 0.58177 0.29582 0.07182
 H580 H 0.57107 0.20404 0.08180
 C581 C -0.19244 0.67690 0.77278
 C582 C -0.16976 0.67206 0.75092
 C583 C -0.16866 0.69176 0.72852
 C584 C -0.18845 0.71606 0.72912
 C585 C -0.21048 0.72096 0.75133
 C586 C -0.21239 0.70077 0.77286
 C587 C -0.14782 0.68715 0.70554
 C588 C -0.12815 0.66318 0.70401
 C589 C -0.12795 0.64315 0.72600
 C590 C -0.14839 0.64827 0.75039
 C591 C -0.14624 0.62994 0.77382
 C592 C -0.12520 0.60718 0.77333
 C593 C -0.10594 0.60122 0.74923
 C594 C -0.10743 0.61863 0.72487
 C595 C -0.08838 0.61055 0.70032
 C596 C -0.06803 0.58699 0.70064
 C597 C -0.06580 0.57081 0.72537
 C598 C -0.08503 0.57793 0.74950
 H599 H -0.19582 0.66234 0.78986
 H600 H -0.18676 0.73098 0.71190
 H601 H -0.22926 0.70341 0.79017
 H602 H -0.14682 0.70216 0.68835
 H603 H -0.11264 0.66149 0.68567
 H604 H -0.15994 0.63317 0.79347
 H605 H -0.12410 0.59398 0.79204
 H606 H -0.08890 0.62170 0.68036
 H607 H -0.05362 0.58173 0.68157
 H608 H -0.08386 0.56518 0.76854
 C609 C -0.14931 0.30139 0.28691
 C610 C -0.14956 0.32276 0.26617
 C611 C -0.17112 0.32004 0.24323
 C612 C -0.19211 0.29747 0.24198
 C613 C -0.19164 0.27640 0.26277
 C614 C -0.16983 0.27868 0.28512
 C615 C -0.17151 0.33970 0.22141
 C616 C -0.15036 0.36152 0.22122
 C617 C -0.12824 0.36503 0.24339
 C618 C -0.12876 0.34625 0.26701
 C619 C -0.10874 0.35183 0.29083
 C620 C -0.08814 0.37420 0.29106
 C621 C -0.08607 0.39147 0.26732
 C622 C -0.10581 0.38694 0.24294
 C623 C -0.10174 0.40407 0.21875
 C624 C -0.07928 0.42486 0.21903
 C625 C -0.06029 0.42963 0.24343
 C626 C -0.06400 0.41301 0.26765
 H627 H -0.13305 0.30109 0.30440
 H628 H -0.20847 0.29612 0.22429
 H629 H -0.16844 0.26285 0.30151
 H630 H -0.18811 0.33794 0.20396
 H631 H -0.15241 0.37579 0.20363
 H632 H -0.10886 0.33964 0.31010
 H633 H -0.07330 0.37770 0.30988
 H634 H -0.11493 0.40139 0.19888
 H635 H -0.07678 0.43731 0.19994
 H636 H -0.04909 0.41625 0.28646
 C637 C 0.17687 0.34873 0.79471
 C638 C 0.15909 0.35096 0.76910
 C639 C 0.16386 0.32954 0.74496
 C640 C 0.18450 0.30633 0.74712
 C641 C 0.20143 0.30412 0.77284
 C642 C 0.19770 0.32573 0.79642
 C643 C 0.14800 0.33126 0.71873
 C644 C 0.12753 0.35396 0.71564
 C645 C 0.12160 0.37572 0.73903
 C646 C 0.13696 0.37369 0.76651
 C647 C 0.12919 0.39402 0.79066
 C648 C 0.10743 0.41573 0.78806
 C649 C 0.09301 0.41857 0.76120
 C650 C 0.10025 0.39904 0.73610
 C651 C 0.08590 0.40387 0.70905
 C652 C 0.06466 0.42647 0.70741
 C653 C 0.05685 0.44494 0.73257
 C654 C 0.07127 0.44093 0.75938
 H655 H 0.17559 0.36458 0.81368
 H656 H 0.18756 0.29004 0.72847
 H657 H 0.21071 0.32472 0.81645
 H658 H 0.15152 0.31487 0.70025
 H659 H 0.11608 0.35333 0.69473
 H660 H 0.13896 0.39328 0.81227
 H661 H 0.10195 0.43059 0.80733
 H662 H 0.09085 0.39091 0.68860
 H663 H 0.05408 0.42929 0.68634
 H664 H 0.06576 0.45545 0.77890
 C665 C 0.15620 0.68235 0.27497
 C666 C 0.15536 0.65798 0.25363
 C667 C 0.17419 0.65827 0.22842
 C668 C 0.19387 0.68152 0.22558
 C669 C 0.19456 0.70555 0.24708
 C670 C 0.17526 0.70560 0.27165
 C671 C 0.17305 0.63549 0.20597
 C672 C 0.15293 0.61286 0.20746
 C673 C 0.13359 0.61167 0.23202
 C674 C 0.13594 0.63380 0.25614
 C675 C 0.11909 0.63083 0.28208
 C676 C 0.09952 0.60787 0.28394
 C677 C 0.09539 0.58730 0.25988
 C678 C 0.11214 0.58896 0.23345
 C679 C 0.10606 0.56827 0.20928
 C680 C 0.08438 0.54698 0.21142
 C681 C 0.06825 0.54525 0.23773
 C682 C 0.07416 0.56530 0.26201
 H683 H 0.14178 0.68460 0.29416
 H684 H 0.20823 0.68104 0.20619
 H685 H 0.17475 0.72372 0.28869
 H686 H 0.18753 0.63539 0.18672
 H687 H 0.15358 0.59618 0.18919
 H688 H 0.12101 0.64563 0.30176
 H689 H 0.08705 0.60653 0.30432
 H690 H 0.11696 0.56847 0.18808
 H691 H 0.08014 0.53181 0.19227
 H692 H 0.06149 0.56439 0.28235
 C693 C 0.78852 -0.16837 0.67322
 C694 C 0.76570 -0.14767 0.66762
 C695 C 0.73881 -0.14797 0.68437
 C696 C 0.73542 -0.16783 0.70608
 C697 C 0.75818 -0.18833 0.71109
 C698 C 0.78470 -0.18830 0.69446
 C699 C 0.71522 -0.12872 0.67914
 C700 C 0.71721 -0.10975 0.65696
 C701 C 0.74325 -0.10890 0.63929
 C702 C 0.76836 -0.12726 0.64556
 C703 C 0.79530 -0.12449 0.62968
 C704 C 0.79734 -0.10537 0.60763
 C705 C 0.77258 -0.08859 0.60007
 C706 C 0.74510 -0.09019 0.61563
 C707 C 0.72038 -0.07348 0.60632
 C708 C 0.72299 -0.05603 0.58276
 C709 C 0.75026 -0.05432 0.56768
 C710 C 0.77509 -0.07049 0.57667
 H711 H 0.80935 -0.17032 0.66109
 H712 H 0.71466 -0.16776 0.71858
 H713 H 0.80272 -0.20389 0.69775
 H714 H 0.69472 -0.12860 0.69206
 H715 H 0.69794 -0.09563 0.65456
 H716 H 0.81554 -0.13653 0.63405
 H717 H 0.81850 -0.10406 0.59603
 H718 H 0.69845 -0.07393 0.61622
 H719 H 0.70339 -0.04384 0.57626
 H720 H 0.79623 -0.06957 0.56497
 C721 C 0.20093 -0.17116 0.32476
 C722 C 0.22506 -0.15187 0.33037
 C723 C 0.25107 -0.15656 0.31236
 C724 C 0.25234 -0.17931 0.28943
 C725 C 0.22839 -0.19846 0.28461
 C726 C 0.20272 -0.19404 0.30241
 C727 C 0.27592 -0.13892 0.31768
 C728 C 0.27613 -0.11745 0.34126
 C729 C 0.25107 -0.11231 0.36025
 C730 C 0.22460 -0.12878 0.35378
 C731 C 0.19857 -0.12160 0.37089
 C732 C 0.19875 -0.10016 0.39446
 C733 C 0.22491 -0.08534 0.40234
 C734 C 0.25152 -0.09119 0.38545
 C735 C 0.27769 -0.07624 0.39510
 C736 C 0.27729 -0.05649 0.42034
 C737 C 0.25088 -0.05070 0.43675
 C738 C 0.22466 -0.06499 0.42738
 H739 H 0.18067 -0.16983 0.33781
 H740 H 0.27246 -0.18271 0.27600
 H741 H 0.18385 -0.20850 0.29922
 H742 H 0.29574 -0.14215 0.30380
 H743 H 0.29626 -0.10488 0.34376
 H744 H 0.17738 -0.13188 0.36635
 H745 H 0.17824 -0.09551 0.40703
 H746 H 0.29907 -0.07988 0.38419
 H747 H 0.29792 -0.04581 0.42712
 H748 H 0.20414 -0.06088 0.44007
 C749 C 0.80068 0.16356 0.33800
 C750 C 0.77802 0.14265 0.34043
 C751 C 0.75263 0.14434 0.32183
 C752 C 0.75054 0.16571 0.30144
 C753 C 0.77314 0.18630 0.29944
 C754 C 0.79816 0.18494 0.31793
 C755 C 0.72923 0.12489 0.32382
 C756 C 0.72987 0.10429 0.34454
 C757 C 0.75432 0.10200 0.36399
 C758 C 0.77935 0.12064 0.36105
 C759 C 0.80487 0.11655 0.37872
 C760 C 0.80551 0.09587 0.39941
 C761 C 0.78064 0.07878 0.40378
 C762 C 0.75461 0.08163 0.38625
 C763 C 0.72961 0.06451 0.39235
 C764 C 0.73049 0.04567 0.41492
 C765 C 0.75628 0.04289 0.43207
 C766 C 0.78147 0.05922 0.42608
 H767 H 0.82037 0.16447 0.35170
 H768 H 0.73092 0.16658 0.28746
 H769 H 0.81599 0.20057 0.31701
 H770 H 0.70992 0.12584 0.30944
 H771 H 0.71088 0.09013 0.34440
 H772 H 0.82506 0.12878 0.37685
 H773 H 0.82558 0.09363 0.41252
 H774 H 0.70866 0.06572 0.38076
 H775 H 0.71067 0.03335 0.41910
 H776 H 0.80144 0.05748 0.43945
 C777 C 0.20793 0.17841 0.69745
 C778 C 0.23231 0.15884 0.69020
 C779 C 0.25940 0.16351 0.70611
 C780 C 0.26156 0.18663 0.72850
 C781 C 0.23733 0.20612 0.73486
 C782 C 0.21054 0.20161 0.71925
 C783 C 0.28442 0.14549 0.69917
 C784 C 0.28366 0.12364 0.67595
 C785 C 0.25750 0.11855 0.65894
 C786 C 0.23100 0.13550 0.66712
 C787 C 0.20411 0.12857 0.65194
 C788 C 0.20339 0.10697 0.62854
 C789 C 0.22941 0.09163 0.61900
 C790 C 0.25688 0.09711 0.63401
 C791 C 0.28275 0.08143 0.62280
 C792 C 0.28127 0.06146 0.59781
 C793 C 0.25405 0.05618 0.58315
 C794 C 0.22812 0.07113 0.59415
 H795 H 0.18676 0.17707 0.68612
 H796 H 0.28252 0.19006 0.74025
 H797 H 0.19140 0.21628 0.72369
 H798 H 0.30509 0.14869 0.71145
 H799 H 0.30402 0.11083 0.67210
 H800 H 0.18295 0.13925 0.65781
 H801 H 0.18225 0.10260 0.61744
 H802 H 0.30467 0.08462 0.63229
 H803 H 0.30171 0.05027 0.58979
 H804 H 0.20695 0.06738 0.58289
   
