data_POSCAR
  _audit_creation_date              2014-09-24
  _audit_creation_method            'ToBaCCo'
  _symmetry_space_group_name_H-M    'P1'
  _symmetry_Int_Tables_number       1
  _symmetry_cell_setting            triclinic
  loop_
  _symmetry_equiv_pos_as_xyz
 x,y,z
_cell_length_a 36.9070
_cell_length_b 36.7709
_cell_length_c 36.7270
_cell_angle_alpha 89.928300
_cell_angle_beta 90.000200
_cell_angle_gamma 89.928200
loop_
  _atom_site_label
  _atom_site_type_symbol
  _atom_site_fract_x
  _atom_site_fract_y
  _atom_site_fract_z
C1 C 0.18892 1.23498 0.18951
 N2 N 0.21896 1.21964 0.17470
 C3 C 0.23382 1.18957 0.19012
 N4 N 0.21840 1.17458 0.22013
 C5 C 0.18836 1.18989 0.23497
 N6 N 0.17352 1.21998 0.21953
 C7 C 0.81216 0.76464 0.18990
 N8 N 0.78202 0.77954 0.17483
 C9 C 0.76671 0.80950 0.18998
 N10 N 0.78179 0.82479 0.21998
 C11 C 0.81193 0.80990 0.23507
 N12 N 0.82722 0.77994 0.21990
 C13 C 0.81042 1.23444 -0.18990
 N14 N 0.78045 1.21941 -0.17469
 C15 C 0.76527 1.18940 -0.18976
 N16 N 0.78031 1.17416 -0.21982
 C17 C 0.81029 1.18917 -0.23505
 N18 N 0.82545 1.21919 -0.21996
 C19 C 0.18874 0.76553 -0.19022
 N20 N 0.17364 0.78087 -0.22024
 C21 C 0.18877 0.81094 -0.23535
 N22 N 0.21879 0.82588 -0.22020
 C23 C 0.23391 0.81056 -0.19019
 N24 N 0.21877 0.78050 -0.17509
 C25 C 0.55515 1.04961 -0.01033
 H26 H 0.55586 1.04944 0.01912
 C27 C 0.58002 1.07056 -0.02981
 H28 H 0.59990 1.08671 -0.01537
 C29 C 0.52921 1.02783 -0.06522
 H30 H 0.50991 1.01053 -0.07890
 C31 C 0.55364 1.04838 -0.08576
 H32 H 0.55287 1.04710 -0.11522
 N33 N 0.53034 1.02891 -0.02818
 C34 C 0.44453 1.01004 0.05120
 H35 H 0.44388 0.98063 0.05109
 C36 C 0.41962 1.02949 0.07215
 H37 H 0.39977 1.01505 0.08838
 C38 C 0.47036 1.06489 0.02921
 H39 H 0.48962 1.07857 0.01183
 C40 C 0.44589 1.08539 0.04977
 H41 H 0.44659 1.11481 0.04841
 Zn42 Zn 0.49983 0.99919 0.00060
 N43 N 0.46930 1.02789 0.03038
 C44 C 0.52942 0.97052 0.06634
 N45 N 0.53043 0.96942 0.02930
 C46 C 0.55522 0.94867 0.01137
 C47 C 0.58020 0.92773 0.03079
 C48 C 0.55396 0.94997 0.08682
 C49 C 0.44442 0.98849 -0.04985
 C50 C 0.41950 0.96912 -0.07081
 C51 C 0.44586 0.91314 -0.04858
 C52 C 0.47034 0.93356 -0.02802
 N53 N 0.46924 0.97056 -0.02911
 H54 H 0.51014 0.98784 0.08008
 H55 H 0.55582 0.94883 -0.01808
 H56 H 0.60006 0.91157 0.01630
 H57 H 0.55330 0.95128 0.11628
 H58 H 0.44375 1.01791 -0.04969
 H59 H 0.39962 0.98363 -0.08699
 H60 H 0.44660 0.88371 -0.04729
 H61 H 0.48965 0.91981 -0.01070
 C62 C 0.42022 1.06750 0.07131
 C63 C 0.57934 1.06982 -0.06787
 C64 C 0.42015 0.93111 -0.07006
 C65 C 0.57965 0.92851 0.06885
 C66 C -0.00992 0.55592 1.05015
 H67 H 0.01939 0.55660 1.04997
 C68 C -0.02929 0.58086 1.07117
 H69 H -0.01491 0.60077 1.08737
 C70 C -0.06456 0.52995 1.02832
 H71 H -0.07820 0.51061 1.01098
 C72 C -0.08499 0.55444 1.04894
 H73 H -0.11431 0.55369 1.04768
 N74 N -0.02770 0.53105 1.02939
 C75 C 0.05123 0.44480 1.01048
 H76 H 0.05109 0.44415 0.98103
 C77 C 0.07209 0.41976 1.02995
 H78 H 0.08822 0.39981 1.01550
 C79 C 0.02942 0.47075 1.06539
 H80 H 0.01214 0.49011 1.07909
 C81 C 0.04989 0.44616 1.08592
 H82 H 0.04857 0.44686 1.11538
 Zn83 Zn 0.00090 0.50040 0.99962
 N84 N 0.03054 0.46969 1.02835
 C85 C 0.06631 0.52997 0.97092
 N86 N 0.02945 0.53109 0.96984
 C87 C 0.01161 0.55602 0.94909
 C88 C 0.03094 0.58103 0.92809
 C89 C 0.08669 0.55453 0.95032
 C90 C -0.04934 0.44488 0.98882
 C91 C -0.07024 0.41994 0.96939
 C92 C -0.04816 0.44644 0.91338
 C93 C -0.02766 0.47093 0.93387
 N94 N -0.02871 0.46978 0.97092
 H95 H 0.07998 0.51058 0.98826
 H96 H -0.01770 0.55671 0.94926
 H97 H 0.01651 0.60099 0.91191
 H98 H 0.11600 0.55378 0.95160
 H99 H -0.04915 0.44416 1.01827
 H100 H -0.08634 0.40000 0.98388
 H101 H -0.04692 0.44723 0.88392
 H102 H -0.01042 0.49030 0.92014
 C103 C 0.07130 0.42036 1.06800
 C104 C -0.06716 0.58019 1.07045
 C105 C -0.06953 0.42065 0.93134
 C106 C 0.06880 0.58036 0.92883
 C107 C 1.04961 -0.01043 0.55547
 H108 H 1.04939 0.01899 0.55617
 C109 C 1.07053 -0.02989 0.58048
 H110 H 1.08662 -0.01546 0.60045
 C111 C 1.02798 -0.06526 0.52940
 H112 H 1.01075 -0.07894 0.51000
 C113 C 1.04850 -0.08577 0.55396
 H114 H 1.04728 -0.11520 0.55319
 N115 N 1.02900 -0.02826 0.53052
 C116 C 1.01012 0.05100 0.44417
 H117 H 0.98081 0.05084 0.44346
 C118 C 1.02948 0.07200 0.41918
 H119 H 1.01509 0.08820 0.39920
 C120 C 1.06478 0.02914 0.47027
 H121 H 1.07843 0.01179 0.48966
 C122 C 1.08519 0.04973 0.44572
 H123 H 1.11451 0.04844 0.44650
 Zn124 Zn 0.99935 0.00046 0.49980
 N125 N 1.02792 0.03023 0.46912
 C126 C 0.97070 0.06610 0.52937
 N127 N 0.96966 0.02910 0.53048
 C128 C 0.94902 0.01119 0.55540
 C129 C 0.92810 0.03059 0.58041
 C130 C 0.95018 0.08655 0.55394
 C131 C 0.98871 -0.04995 0.44416
 C132 C 0.96942 -0.07094 0.41917
 C133 C 0.91364 -0.04882 0.44562
 C134 C 0.93398 -0.02822 0.47017
 N135 N 0.97085 -0.02925 0.46908
 H136 H 0.98795 0.07982 0.51000
 H137 H 0.94922 -0.01822 0.55608
 H138 H 0.91200 0.01611 0.60037
 H139 H 0.95142 0.11597 0.55320
 H140 H 1.01802 -0.04974 0.44349
 H141 H 0.98387 -0.08709 0.39923
 H142 H 0.88432 -0.04759 0.44637
 H143 H 0.92028 -0.01094 0.48955
 C144 C 1.06735 0.07124 0.41988
 C145 C 1.06986 -0.06789 0.57979
 C146 C 0.93155 -0.07026 0.41983
 C147 C 0.92880 0.06860 0.57975
 C148 C 0.17315 0.26411 1.17315
 C149 C 0.15871 0.28947 1.15818
 C150 C 0.14126 0.31852 1.14012
 C151 C 0.12591 0.34277 1.12426
 C152 C 0.10742 0.37048 1.10518
 C153 C 0.09119 0.39356 1.08846
 C154 C -0.17162 0.73564 1.17381
 C155 C -0.15678 0.71041 1.15910
 C156 C -0.13886 0.68150 1.14134
 C157 C -0.12310 0.65738 1.12575
 C158 C -0.10414 0.62981 1.10700
 C159 C -0.08752 0.60686 1.09056
 C160 C -0.17258 0.26515 0.82704
 C161 C -0.15786 0.29040 0.84178
 C162 C -0.14013 0.31932 0.85962
 C163 C -0.12458 0.34346 0.87534
 C164 C -0.10589 0.37104 0.89429
 C165 C -0.08954 0.39399 0.91093
 C166 C 0.17268 0.73642 0.82582
 C167 C 0.15796 0.71108 0.84048
 C168 C 0.14017 0.68205 0.85816
 C169 C 0.12452 0.65783 0.87370
 C170 C 0.10565 0.63015 0.89239
 C171 C 0.08910 0.60711 0.90878
 C172 C 1.17203 0.17398 0.26403
 C173 C 1.15711 0.15940 0.28932
 C174 C 1.13912 0.14179 0.31830
 C175 C 1.12332 0.12631 0.34248
 C176 C 1.10433 0.10765 0.37013
 C177 C 1.08769 0.09129 0.39314
 C178 C 1.17274 -0.17279 0.73559
 C179 C 1.15809 -0.15790 0.71030
 C180 C 1.14041 -0.13991 0.68133
 C181 C 1.12490 -0.12409 0.65716
 C182 C 1.10623 -0.10504 0.62952
 C183 C 1.08988 -0.08834 0.60652
 C184 C 0.82792 -0.17389 0.26411
 C185 C 0.84258 -0.15908 0.28939
 C186 C 0.86032 -0.14125 0.31835
 C187 C 0.87593 -0.12561 0.34251
 C188 C 0.89476 -0.10681 0.37013
 C189 C 0.91129 -0.09037 0.39312
 C190 C 0.82625 0.17299 0.73584
 C191 C 0.84083 0.15818 0.71050
 C192 C 0.85843 0.14029 0.68147
 C193 C 0.87390 0.12455 0.65725
 C194 C 0.89251 0.10559 0.62956
 C195 C 0.90882 0.08896 0.60652
 C196 C 0.26456 1.17239 0.17346
 C197 C 0.28983 1.15748 0.15899
 C198 C 0.31879 1.13947 0.14150
 C199 C 0.34295 1.12365 0.12611
 C200 C 0.37056 1.10461 0.10756
 C201 C 0.39354 1.08792 0.09127
 C202 C 0.73460 1.17254 -0.17267
 C203 C 0.70939 1.15793 -0.15782
 C204 C 0.68050 1.14029 -0.13987
 C205 C 0.65641 1.12480 -0.12407
 C206 C 0.62887 1.10616 -0.10504
 C207 C 0.60595 1.08982 -0.08833
 C208 C 0.26463 0.82737 -0.17320
 C209 C 0.28989 0.84201 -0.15848
 C210 C 0.31882 0.85974 -0.14075
 C211 C 0.34296 0.87536 -0.12518
 C212 C 0.37054 0.89421 -0.10647
 C213 C 0.39350 0.91078 -0.09009
 C214 C 0.73586 0.82623 0.17304
 C215 C 0.71049 0.84076 0.15830
 C216 C 0.68143 0.85829 0.14048
 C217 C 0.65718 0.87371 0.12478
 C218 C 0.62947 0.89227 0.10585
 C219 C 0.60641 0.90855 0.08923
   
