data_POSCAR
  _audit_creation_date              2014-09-24
  _audit_creation_method            'ToBaCCo'
  _symmetry_space_group_name_H-M    'P1'
  _symmetry_Int_Tables_number       1
  _symmetry_cell_setting            triclinic
  loop_
  _symmetry_equiv_pos_as_xyz
 x,y,z
_cell_length_a 27.0598
_cell_length_b 27.2788
_cell_length_c 31.2962
_cell_angle_alpha 90.300200
_cell_angle_beta 89.812500
_cell_angle_gamma 90.083800
loop_
  _atom_site_label
  _atom_site_type_symbol
  _atom_site_fract_x
  _atom_site_fract_y
  _atom_site_fract_z
B1 B 0.27835 0.23496 0.29695
 B2 B 0.22007 0.21688 0.28686
 B3 B 0.22920 0.27586 0.29874
 B4 B 0.28394 0.29331 0.27725
 B5 B 0.30729 0.24418 0.25090
 B6 B 0.26721 0.19622 0.25601
 B7 B 0.22058 0.26925 0.21187
 B8 B 0.27775 0.28915 0.22383
 B9 B 0.26810 0.22880 0.21082
 B10 B 0.21334 0.21161 0.23245
 B11 B 0.19033 0.26031 0.25878
 B12 B 0.22972 0.30814 0.25351
 B13 B 0.73321 0.79076 0.19731
 B14 B 0.72230 0.73079 0.20618
 B15 B 0.77892 0.74758 0.18838
 B16 B 0.79201 0.80317 0.21122
 B17 B 0.74454 0.81832 0.24435
 B18 B 0.70195 0.77281 0.24136
 B19 B 0.78619 0.73304 0.27392
 B20 B 0.79696 0.79367 0.26381
 B21 B 0.74112 0.77556 0.28348
 B22 B 0.72660 0.72060 0.26036
 B23 B 0.77356 0.70508 0.22734
 B24 B 0.81682 0.75048 0.22978
 B25 B 0.74799 0.21444 -0.20064
 B26 B 0.73366 0.27360 -0.21115
 B27 B 0.79276 0.26000 -0.20241
 B28 B 0.80399 0.20396 -0.22324
 B29 B 0.75103 0.18344 -0.24699
 B30 B 0.70712 0.22731 -0.23918
 B31 B 0.78050 0.26695 -0.28842
 B32 B 0.79719 0.20833 -0.27597
 B33 B 0.73719 0.22237 -0.28701
 B34 B 0.72485 0.27839 -0.26515
 B35 B 0.77733 0.29866 -0.24273
 B36 B 0.82167 0.25601 -0.24915
 B37 B 0.27042 0.77489 -0.29018
 B38 B 0.21326 0.79181 -0.27790
 B39 B 0.22065 0.73310 -0.28994
 B40 B 0.27772 0.71585 -0.27149
 B41 B 0.30232 0.76440 -0.24583
 B42 B 0.26225 0.81171 -0.24847
 B43 B 0.21656 0.73898 -0.20387
 B44 B 0.27348 0.72010 -0.21637
 B45 B 0.26667 0.77901 -0.20434
 B46 B 0.20956 0.79686 -0.22323
 B47 B 0.18484 0.74768 -0.24839
 B48 B 0.22497 0.70034 -0.24550
 B49 B 1.22553 1.27406 0.70471
 B50 B 1.20379 1.21761 0.71847
 B51 B 1.26354 1.22362 0.70293
 B52 B 1.28548 1.27755 0.72269
 B53 B 1.23851 1.30484 0.74928
 B54 B 1.18772 1.26813 0.74721
 B55 B 1.26064 1.21852 0.78971
 B56 B 1.28257 1.27358 0.77732
 B57 B 1.22336 1.27089 0.79100
 B58 B 1.20163 1.21543 0.77278
 B59 B 1.24788 1.18741 0.74497
 B60 B 1.29832 1.22430 0.74685
 B61 B 0.79063 0.74863 0.80953
 B62 B 0.73152 0.73467 0.79806
 B63 B 0.74373 0.79263 0.81001
 B64 B 0.80080 0.80588 0.79055
 B65 B 0.82237 0.75529 0.76409
 B66 B 0.77829 0.71087 0.76865
 B67 B 0.73850 0.78575 0.72323
 B68 B 0.79715 0.80218 0.73730
 B69 B 0.78398 0.74327 0.72286
 B70 B 0.72696 0.72912 0.74351
 B71 B 0.70574 0.77958 0.76840
 B72 B 0.74851 0.82437 0.76497
 B73 B 1.23524 0.71704 0.29073
 B74 B 1.22536 0.77703 0.28519
 B75 B 1.28392 0.75821 0.29342
 B76 B 1.28989 0.70312 0.26725
 B77 B 1.23589 0.69083 0.24204
 B78 B 1.19617 0.73723 0.25261
 B79 B 1.27573 0.77553 0.20907
 B80 B 1.28360 0.71525 0.21424
 B81 B 1.22590 0.73548 0.20581
 B82 B 1.21988 0.78979 0.23198
 B83 B 1.27310 0.80200 0.25721
 B84 B 1.31320 0.75550 0.24711
 B85 B 0.78827 1.25770 0.20176
 B86 B 0.72981 1.27618 0.21017
 B87 B 0.73936 1.21655 0.20158
 B88 B 0.79374 1.20153 0.22491
 B89 B 0.81659 1.25251 0.24855
 B90 B 0.77663 1.29939 0.24025
 B91 B 0.72804 1.22947 0.28725
 B92 B 0.78562 1.21025 0.27842
 B93 B 0.77776 1.27016 0.28707
 B94 B 0.72235 1.28559 0.26410
 B95 B 0.69928 1.23458 0.24034
 B96 B 0.73910 1.18779 0.24824
 N97 N 0.44537 1.05996 -0.07868
 N98 N 0.40711 1.06374 -0.10441
 N99 N 0.54961 1.09231 -0.04762
 N100 N 0.58748 1.12202 -0.05381
 N101 N 0.54999 1.05662 -0.07589
 N102 N 0.58827 1.06101 -0.10198
 N103 N 0.44508 1.09541 -0.05019
 N104 N 0.40665 1.12437 -0.05592
 C105 C 0.38278 1.10356 -0.08939
 C106 C 0.61185 1.10163 -0.08738
 N107 N 0.54354 1.06323 0.07435
 N108 N 0.58087 1.06826 0.10103
 N109 N 0.44167 1.10034 0.04119
 N110 N 0.40633 1.13327 0.04634
 N111 N 0.43934 1.06727 0.07137
 N112 N 0.40227 1.07627 0.09746
 N113 N 0.54585 1.09632 0.04409
 N114 N 0.58465 1.12500 0.04956
 Mn115 Mn 0.49557 1.09694 -0.00319
 C116 C 0.60662 1.10640 0.08474
 C117 C 0.38135 1.11692 0.08107
 N118 N 0.54565 0.95173 -0.07195
 N119 N 0.58540 0.94391 -0.09557
 N120 N 0.43754 0.92438 -0.04412
 N121 N 0.40007 0.89428 -0.05008
 N122 N 0.44103 0.95571 -0.07553
 N123 N 0.40629 0.94720 -0.10416
 N124 N 0.54222 0.91897 -0.04152
 N125 N 0.57943 0.88776 -0.04380
 Mn126 Mn 0.49564 1.00597 -0.07621
 C127 C 0.60657 0.90437 -0.07720
 C128 C 0.38033 0.90924 -0.08745
 N129 N 0.43399 0.96332 0.07519
 N130 N 0.39976 0.95527 0.10453
 N131 N 0.53759 0.92327 0.04982
 N132 N 0.57263 0.89104 0.05776
 N133 N 0.53802 0.95861 0.07836
 N134 N 0.57320 0.95148 0.10671
 N135 N 0.43318 0.92869 0.04605
 N136 N 0.39800 0.89667 0.05447
 Mn137 Mn 0.48880 1.01326 0.07539
 Mn138 Mn 0.48765 0.92315 0.00251
 Cl139 Cl 0.49217 1.00986 -0.00037
 C140 C 0.37664 0.91403 0.09071
 C141 C 0.59480 0.90961 0.09298
 N142 N 1.08272 0.55097 0.54734
 N143 N 1.12062 0.57980 0.55639
 N144 N 1.04194 0.45088 0.57783
 N145 N 1.05595 0.42307 0.61023
 N146 N 1.07526 0.44887 0.54723
 N147 N 1.11191 0.41964 0.55757
 N148 N 1.04868 0.55358 0.57724
 N149 N 1.06251 0.58455 0.60744
 C150 C 1.10716 0.60103 0.59369
 C151 C 1.09936 0.40333 0.59658
 N152 N 0.89947 0.46080 0.54715
 N153 N 0.86310 0.42987 0.55572
 N154 N 0.94121 0.56129 0.57667
 N155 N 0.93159 0.59312 0.60753
 N156 N 0.90729 0.56392 0.54673
 N157 N 0.87398 0.59763 0.55664
 N158 N 0.93371 0.45843 0.57682
 N159 N 0.92112 0.42624 0.60631
 Mn160 Mn 0.99121 0.50597 0.57752
 C161 C 0.87687 0.40859 0.59292
 C162 C 0.89024 0.61643 0.59421
 N163 N 1.07569 0.44743 0.45701
 N164 N 1.11221 0.41743 0.44775
 N165 N 1.05014 0.55124 0.42493
 N166 N 1.06686 0.57785 0.39278
 N167 N 1.08295 0.55000 0.45572
 N168 N 1.12239 0.57587 0.44548
 N169 N 1.04329 0.44870 0.42587
 N170 N 1.05811 0.41998 0.39400
 Mn171 Mn 1.07893 0.49951 0.50177
 C172 C 1.10103 0.40044 0.40856
 C173 C 1.11197 0.59311 0.40621
 N174 N 0.90807 0.56306 0.45346
 N175 N 0.87598 0.59745 0.44213
 N176 N 0.93511 0.45658 0.42543
 N177 N 0.92288 0.42460 0.39557
 N178 N 0.89964 0.46025 0.45411
 N179 N 0.86235 0.43074 0.44433
 N180 N 0.94314 0.55889 0.42450
 N181 N 0.93567 0.58990 0.39319
 Mn182 Mn 0.90312 0.51211 0.50045
 Mn183 Mn 0.99275 0.50370 0.42492
 Cl184 Cl 0.99134 0.50532 0.50119
 C185 C 0.89456 0.61494 0.40470
 C186 C 0.87773 0.40838 0.40789
 N187 N 1.08468 0.55905 0.05074
 N188 N 1.11451 0.59650 0.05704
 N189 N 1.05546 0.45501 0.08270
 N190 N 1.06186 0.41796 0.10921
 N191 N 1.09099 0.45592 0.05412
 N192 N 1.12277 0.42019 0.06091
 N193 N 1.04927 0.55880 0.07950
 N194 N 1.05453 0.59599 0.10646
 C195 C 1.09500 0.61986 0.09146
 C196 C 1.10397 0.39606 0.09505
 N197 N 0.91775 0.44462 0.04753
 N198 N 0.89078 0.40467 0.05180
 N199 N 0.94288 0.55259 0.07534
 N200 N 0.93383 0.59266 0.09809
 N201 N 0.90985 0.54760 0.04499
 N202 N 0.87728 0.58348 0.04650
 N203 N 0.95004 0.44824 0.07856
 N204 N 0.94610 0.41048 0.10462
 Mn205 Mn 0.99927 0.50383 0.07979
 C206 C 0.90948 0.38316 0.08708
 C207 C 0.89293 0.61168 0.07937
 N208 N 1.09467 0.45129 -0.03807
 N209 N 1.12808 0.41636 -0.04322
 N210 N 1.05664 0.55337 -0.07086
 N211 N 1.06276 0.58954 -0.09821
 N212 N 1.08978 0.55575 -0.04047
 N213 N 1.11935 0.59378 -0.04632
 N214 N 1.06243 0.44978 -0.06929
 N215 N 1.07329 0.41430 -0.09659
 Mn216 Mn 1.09076 0.50541 0.00660
 C217 C 1.11409 0.39326 -0.07987
 C218 C 1.10130 0.61521 -0.08198
 N219 N 0.91483 0.54485 -0.04602
 N220 N 0.88367 0.58148 -0.05114
 N221 N 0.95735 0.44359 -0.07247
 N222 N 0.95341 0.40658 -0.09957
 N223 N 0.92225 0.44162 -0.04358
 N224 N 0.89341 0.40335 -0.05026
 N225 N 0.95102 0.54747 -0.07392
 N226 N 0.94567 0.58629 -0.09860
 Mn227 Mn 0.91556 0.49449 0.00074
 Mn228 Mn 1.00686 0.49866 -0.07223
 Cl229 Cl 1.00323 0.50063 0.00379
 C230 C 0.90366 0.60734 -0.08368
 C231 C 0.91406 0.38110 -0.08466
 N232 N 0.56947 0.91122 0.45598
 N233 N 0.58434 0.87403 0.43203
 N234 N 0.59954 0.94490 0.54663
 N235 N 0.63586 0.93299 0.57276
 N236 N 0.56596 0.91003 0.54576
 N237 N 0.57868 0.87372 0.57121
 N238 N 0.60334 0.94587 0.45705
 N239 N 0.64258 0.93205 0.43430
 C240 C 0.62980 0.88727 0.41836
 C241 C 0.62231 0.88850 0.58799
 N242 N 0.55717 1.08254 0.55026
 N243 N 0.56769 1.11972 0.57592
 N244 N 0.59691 1.05477 0.45966
 N245 N 0.63311 1.07167 0.43521
 N246 N 0.56037 1.08651 0.46074
 N247 N 0.57050 1.12492 0.43675
 N248 N 0.59405 1.05113 0.54911
 N249 N 0.63036 1.06639 0.57396
 Mn250 Mn 0.59871 0.99927 0.50288
 C251 C 0.61306 1.10876 0.59094
 C252 C 0.61601 1.11556 0.42098
 N253 N 0.45860 0.90442 0.54245
 N254 N 0.44768 0.86758 0.56838
 N255 N 0.42638 0.93866 0.45261
 N256 N 0.38965 0.92021 0.42983
 N257 N 0.46336 0.90726 0.45315
 N258 N 0.45290 0.86815 0.43000
 N259 N 0.42217 0.93630 0.54137
 N260 N 0.38572 0.92171 0.56630
 Mn261 Mn 0.51434 0.90836 0.49949
 C262 C 0.40223 0.87924 0.58353
 C263 C 0.40688 0.87627 0.41556
 N264 N 0.45474 1.08204 0.45751
 N265 N 0.44219 1.12108 0.43542
 N266 N 0.41595 1.04390 0.54484
 N267 N 0.37562 1.05716 0.56618
 N268 N 0.44961 1.07871 0.54729
 N269 N 0.43277 1.11598 0.57030
 N270 N 0.42013 1.04821 0.45526
 N271 N 0.38255 1.06493 0.43224
 Mn272 Mn 0.50554 1.08219 0.50412
 Mn273 Mn 0.42098 0.99167 0.49832
 Cl274 Cl 0.50979 0.99536 0.50110
 C275 C 0.39708 1.11063 0.41970
 C276 C 0.38673 1.10213 0.58230
 N277 N 1.08096 0.94706 0.54618
 N278 N 1.10944 0.94510 0.58020
 N279 N 1.05028 0.90470 0.45736
 N280 N 1.05897 0.87184 0.42709
 N281 N 1.08375 0.93945 0.45624
 N282 N 1.11557 0.93182 0.42501
 N283 N 1.04659 0.91320 0.54788
 N284 N 1.05017 0.88804 0.58358
 C285 C 1.08958 0.90836 0.60358
 C286 C 1.09935 0.88990 0.40675
 N287 N 0.90896 0.93687 0.45466
 N288 N 0.88372 0.93354 0.41893
 N289 N 0.94230 0.91011 0.54557
 N290 N 0.93944 0.88507 0.58129
 N291 N 0.90778 0.94367 0.54424
 N292 N 0.87998 0.94190 0.57894
 N293 N 0.94357 0.90329 0.45589
 N294 N 0.94216 0.87578 0.42106
 Mn295 Mn 0.99579 0.90692 0.50154
 C296 C 0.90467 0.89536 0.39810
 C297 C 0.90060 0.90535 0.60199
 N298 N 1.08304 1.04272 0.44955
 N299 N 1.11627 1.04884 0.41914
 N300 N 1.04705 1.08504 0.53662
 N301 N 1.05313 1.11864 0.56670
 N302 N 1.08132 1.05128 0.53930
 N303 N 1.11170 1.06073 0.57118
 N304 N 1.04826 1.07582 0.44679
 N305 N 1.05671 1.10540 0.41447
 Mn306 Mn 1.08296 0.99499 0.49792
 C307 C 1.09870 1.08750 0.39691
 C308 C 1.09329 1.10253 0.58816
 N309 N 0.90755 1.04890 0.53788
 N310 N 0.88019 1.05541 0.57238
 N311 N 0.94401 1.07344 0.44562
 N312 N 0.93844 1.10037 0.41130
 N313 N 0.90892 1.04047 0.44840
 N314 N 0.87802 1.04449 0.41621
 N315 N 0.94081 1.08372 0.53466
 N316 N 0.93648 1.11516 0.56646
 Mn317 Mn 0.90747 0.99249 0.49650
 Mn318 Mn 0.99492 1.08023 0.49090
 Cl319 Cl 0.99522 0.99366 0.49686
 C320 C 0.89899 1.09682 0.59010
 C321 C 0.89742 1.08153 0.39301
 N322 N 0.58192 0.55191 0.04896
 N323 N 0.61285 0.58624 0.06216
 N324 N 0.55579 0.44387 0.07075
 N325 N 0.56783 0.41358 0.10152
 N326 N 0.59228 0.44962 0.04358
 N327 N 0.63061 0.42312 0.05543
 N328 N 0.54694 0.54524 0.07747
 N329 N 0.55327 0.57435 0.11092
 C330 C 0.59405 0.60034 0.10060
 C331 C 0.61408 0.40014 0.09112
 N332 N 0.41711 0.43293 0.03742
 N333 N 0.37917 0.40621 0.05064
 N334 N 0.44285 0.53479 0.07291
 N335 N 0.43177 0.56420 0.10475
 N336 N 0.40884 0.53542 0.04306
 N337 N 0.37315 0.56614 0.05419
 N338 N 0.45163 0.43367 0.06695
 N339 N 0.43813 0.40735 0.10011
 Mn340 Mn 0.49924 0.48934 0.07180
 C341 C 0.39326 0.39005 0.08962
 C342 C 0.38876 0.58388 0.09266
 N343 N 0.59556 0.45629 -0.04899
 N344 N 0.63480 0.43081 -0.06005
 N345 N 0.55232 0.55726 -0.07407
 N346 N 0.56299 0.58956 -0.10393
 N347 N 0.58609 0.55745 -0.04401
 N348 N 0.62107 0.58914 -0.05341
 N349 N 0.56336 0.45624 -0.08025
 N350 N 0.58025 0.43110 -0.11328
 Mn351 Mn 0.58944 0.50386 -0.00012
 C352 C 0.62490 0.41504 -0.10015
 C353 C 0.60533 0.61024 -0.08995
 N354 N 0.41124 0.54043 -0.05101
 N355 N 0.37133 0.56346 -0.06413
 N356 N 0.45817 0.44526 -0.08426
 N357 N 0.45264 0.41536 -0.11723
 N358 N 0.42235 0.43953 -0.05622
 N359 N 0.39132 0.40568 -0.06973
 N360 N 0.44730 0.54657 -0.07869
 N361 N 0.43313 0.57495 -0.11042
 Mn362 Mn 0.41431 0.48709 -0.00669
 Mn363 Mn 0.50531 0.50137 -0.07942
 Cl364 Cl 0.50197 0.49543 -0.00370
 C365 C 0.38599 0.58632 -0.10034
 C366 C 0.41135 0.39009 -0.10728
 C367 C 0.26935 1.17655 0.13523
 C368 C 0.29395 1.19849 0.17127
 C369 C 0.34570 1.19188 0.17405
 C370 C 0.37260 1.16827 0.14296
 C371 C 0.34969 1.14805 0.10763
 C372 C 0.29802 1.15200 0.10293
 C373 C 0.21753 1.17811 0.12980
 C374 C 0.19509 1.15769 0.09378
 C375 C 0.22337 1.13461 0.06246
 C376 C 0.27441 1.13143 0.06699
 H377 H 0.19339 1.19555 0.15240
 H378 H 0.15539 1.15992 0.09012
 H379 H 0.20565 1.11895 0.03458
 H380 H 0.29531 1.11306 0.04208
 H381 H 0.36731 1.20351 0.20109
 H382 H 0.41212 1.16408 0.14750
 C383 C 0.81565 0.72682 0.63861
 C384 C 0.80941 0.71180 0.68248
 C385 C 0.83002 0.66573 0.69334
 C386 C 0.85544 0.63657 0.66442
 C387 C 0.86125 0.65026 0.62205
 C388 C 0.84063 0.69524 0.60841
 C389 C 0.79990 0.77288 0.62374
 C390 C 0.80553 0.78679 0.58124
 C391 C 0.82841 0.75561 0.55221
 C392 C 0.84647 0.71056 0.56563
 H393 H 0.78558 0.80008 0.64480
 H394 H 0.79301 0.82253 0.57103
 H395 H 0.83324 0.76687 0.51933
 H396 H 0.86566 0.68835 0.54223
 H397 H 0.82836 0.65102 0.72522
 H398 H 0.87069 0.60221 0.67555
 C399 C 0.71717 0.85628 0.13190
 C400 C 0.69939 0.82503 0.16546
 C401 C 0.64755 0.82380 0.17229
 C402 C 0.61521 0.85238 0.14925
 C403 C 0.63221 0.88311 0.11738
 C404 C 0.68316 0.88573 0.10825
 C405 C 0.76708 0.85739 0.11934
 C406 C 0.78376 0.88773 0.08659
 C407 C 0.75078 0.91755 0.06495
 C408 C 0.70078 0.91647 0.07538
 H409 H 0.79329 0.83347 0.13313
 H410 H 0.82244 0.88763 0.07765
 H411 H 0.76386 0.94105 0.03956
 H412 H 0.67602 0.93958 0.05734
 H413 H 0.63031 0.79992 0.19537
 H414 H 0.57606 0.85003 0.15619
 C415 C 1.21538 0.35680 0.65469
 C416 C 1.19793 0.30958 0.66910
 C417 C 1.14758 0.29852 0.66049
 C418 C 1.11669 0.32920 0.63777
 C419 C 1.13340 0.37387 0.62290
 C420 C 1.18264 0.38862 0.63163
 C421 C 1.26352 0.37481 0.66346
 C422 C 1.27885 0.42112 0.65035
 C423 C 1.24679 0.45156 0.62862
 C424 C 1.19915 0.43580 0.61951
 H425 H 1.29093 0.35416 0.67985
 H426 H 1.31596 0.43359 0.65742
 H427 H 1.25874 0.48779 0.61907
 H428 H 1.17516 0.46163 0.60376
 H429 H 1.12927 0.26720 0.67390
 H430 H 1.07879 0.31796 0.63219
 C431 C 0.73047 1.13161 -0.15186
 C432 C 0.72004 1.18179 -0.16296
 C433 C 0.67532 1.20147 -0.14676
 C434 C 0.64379 1.17595 -0.12020
 C435 C 0.65204 1.12711 -0.11081
 C436 C 0.69547 1.10420 -0.12653
 C437 C 0.77336 1.10672 -0.16610
 C438 C 0.78093 1.05730 -0.15737
 C439 C 0.74657 1.03117 -0.13368
 C440 C 0.70465 1.05437 -0.11769
 H441 H 0.80212 1.12407 -0.18392
 H442 H 0.81384 1.03910 -0.16914
 H443 H 0.75262 0.99272 -0.12763
 H444 H 0.67953 1.03283 -0.09844
 H445 H 0.66133 1.23628 -0.15650
 H446 H 0.61010 1.19383 -0.10961
 C447 C 1.22887 0.64783 0.35369
 C448 C 1.20670 0.68457 0.32761
 C449 C 1.15494 0.69094 0.33149
 C450 C 1.12582 0.66089 0.35669
 C451 C 1.14640 0.62289 0.38004
 C452 C 1.19844 0.61565 0.37863
 C453 C 1.28049 0.64282 0.35673
 C454 C 1.30197 0.60579 0.38070
 C455 C 1.27242 0.57238 0.40212
 C456 C 1.22119 0.57674 0.40087
 H457 H 1.30488 0.66852 0.34237
 H458 H 1.34182 0.60305 0.38261
 H459 H 1.28938 0.54341 0.42034
 H460 H 1.20017 0.54899 0.41729
 H461 H 1.13543 0.71930 0.31451
 H462 H 1.08636 0.66766 0.35795
 C463 C 0.35341 0.80129 -0.16084
 C464 C 0.30059 0.80830 -0.16860
 C465 C 0.27721 0.84808 -0.14794
 C466 C 0.30301 0.88036 -0.12154
 C467 C 0.35346 0.87452 -0.11479
 C468 C 0.37908 0.83515 -0.13393
 C469 C 0.38294 0.76312 -0.17905
 C470 C 0.43317 0.75811 -0.17091
 C471 C 0.45712 0.79147 -0.14515
 C472 C 0.43078 0.82982 -0.12721
 H473 H 0.37027 0.73581 -0.20041
 H474 H 0.45381 0.72829 -0.18534
 H475 H 0.49639 0.78797 -0.13936
 H476 H 0.45209 0.85533 -0.10829
 H477 H 0.23850 0.85557 -0.15314
 H478 H 0.28350 0.91067 -0.10671
 C479 C 0.85692 0.29425 0.34023
 C480 C 0.80694 0.30261 0.32435
 C481 C 0.78143 0.34371 0.34086
 C482 C 0.80326 0.37637 0.36984
 C483 C 0.85109 0.36862 0.38492
 C484 C 0.87644 0.32570 0.37282
 C485 C 0.88919 0.25638 0.32562
 C486 C 0.93431 0.24661 0.34507
 C487 C 0.95007 0.27465 0.37926
 C488 C 0.92176 0.31401 0.39290
 H489 H 0.88194 0.23244 0.29956
 H490 H 0.95705 0.21662 0.33364
 H491 H 0.98475 0.26642 0.39479
 H492 H 0.93559 0.33503 0.41974
 H493 H 0.74470 0.35241 0.32978
 H494 H 0.78331 0.40914 0.37916
 C495 C 1.20258 0.30252 0.12899
 C496 C 1.18731 0.29338 0.17248
 C497 C 1.14010 0.31150 0.18429
 C498 C 1.11272 0.34214 0.15811
 C499 C 1.12892 0.35425 0.11719
 C500 C 1.17117 0.32974 0.10075
 C501 C 1.24850 0.28715 0.11237
 C502 C 1.26076 0.29208 0.06937
 C503 C 1.22753 0.31305 0.04137
 C504 C 1.18318 0.33186 0.05677
 H505 H 1.27645 0.27262 0.13210
 H506 H 1.29618 0.27917 0.05777
 H507 H 1.23642 0.31544 0.00768
 H508 H 1.15794 0.34653 0.03350
 H509 H 1.12455 0.30551 0.21564
 H510 H 1.07928 0.35826 0.17108
 C511 C 0.68505 0.78191 0.64843
 C512 C 0.70766 0.80894 0.68280
 C513 C 0.70303 0.86055 0.68202
 C514 C 0.67630 0.88483 0.65092
 C515 C 0.65254 0.85932 0.61833
 C516 C 0.65830 0.80760 0.61578
 C517 C 0.68954 0.73041 0.64418
 C518 C 0.66969 0.70525 0.60943
 C519 C 0.64527 0.73045 0.57751
 C520 C 0.63987 0.78102 0.58034
 H521 H 0.70962 0.70834 0.66620
 H522 H 0.67423 0.66592 0.60682
 H523 H 0.63093 0.71076 0.55010
 H524 H 0.62243 0.79884 0.55366
 H525 H 0.71952 0.88366 0.70610
 H526 H 0.67332 0.92439 0.65302
 C527 C 1.15281 0.73239 -0.13449
 C528 C 1.18407 0.71039 -0.16634
 C529 C 1.18777 0.65835 -0.16571
 C530 C 1.16128 0.62947 -0.13788
 C531 C 1.12992 0.65015 -0.10794
 C532 C 1.12618 0.70178 -0.10493
 C533 C 1.14829 0.78364 -0.12988
 C534 C 1.11965 0.80418 -0.09730
 C535 C 1.09448 0.77431 -0.06866
 C536 C 1.09709 0.72352 -0.07265
 H537 H 1.16734 0.80869 -0.15034
 H538 H 1.11724 0.84364 -0.09408
 H539 H 1.07262 0.79063 -0.04330
 H540 H 1.07682 0.70138 -0.04991
 H541 H 1.21170 0.63804 -0.18700
 H542 H 1.16529 0.58996 -0.13999
 C543 C 0.66372 1.22821 0.35663
 C544 C 0.69465 1.20368 0.32605
 C545 C 0.69848 1.15192 0.33020
 C546 C 0.67385 1.12552 0.36126
 C547 C 0.64336 1.14840 0.39090
 C548 C 0.63914 1.20054 0.38973
 C549 C 0.65756 1.27956 0.35636
 C550 C 0.62972 1.30341 0.38763
 C551 C 0.60776 1.27695 0.42034
 C552 C 0.61260 1.22621 0.42170
 H553 H 0.67410 1.30236 0.33260
 H554 H 0.62580 1.34289 0.38681
 H555 H 0.58711 1.29592 0.44506
 H556 H 0.59645 1.20796 0.44884
 H557 H 0.72142 1.12984 0.30946
 H558 H 0.67832 1.08603 0.36151
 C559 C 0.85409 0.73518 0.12876
 C560 C 0.80703 0.72128 0.14696
 C561 C 0.78898 0.67426 0.13517
 C562 C 0.81618 0.64100 0.11142
 C563 C 0.86330 0.65237 0.09739
 C564 C 0.88102 0.70066 0.10268
 C565 C 0.87636 0.78144 0.13573
 C566 C 0.91878 0.79555 0.11355
 C567 C 0.94226 0.76296 0.08596
 C568 C 0.92476 0.71529 0.08178
 H569 H 0.86209 0.80800 0.15764
 H570 H 0.93404 0.83186 0.11835
 H571 H 0.97536 0.77412 0.06906
 H572 H 0.94491 0.69033 0.06112
 H573 H 0.75579 0.65909 0.14824
 H574 H 0.80139 0.60441 0.10662
 C575 C 0.31556 1.21490 0.62708
 C576 C 0.29010 1.19327 0.66248
 C577 C 0.29197 1.14136 0.66497
 C578 C 0.32177 1.11292 0.63806
 C579 C 0.35122 1.13424 0.60656
 C580 C 0.34606 1.18540 0.59924
 C581 C 0.31037 1.26487 0.61752
 C582 C 0.33419 1.28606 0.58269
 C583 C 0.36333 1.25758 0.55578
 C584 C 0.36893 1.20772 0.56358
 H585 H 0.28627 1.28759 0.63562
 H586 H 0.32910 1.32464 0.57606
 H587 H 0.38092 1.27398 0.52821
 H588 H 0.38996 1.18688 0.54044
 H589 H 0.27148 1.12152 0.68899
 H590 H 0.32319 1.07369 0.64312
 C591 C 0.85890 0.26516 -0.13596
 C592 C 0.82653 0.28781 -0.16615
 C593 C 0.82427 0.33979 -0.16576
 C594 C 0.85322 0.36816 -0.13943
 C595 C 0.88620 0.34682 -0.11155
 C596 C 0.88940 0.29524 -0.10900
 C597 C 0.86054 0.21397 -0.13013
 C598 C 0.89256 0.19291 -0.10063
 C599 C 0.92328 0.22228 -0.07576
 C600 C 0.92161 0.27309 -0.07960
 H601 H 0.83613 0.18962 -0.14671
 H602 H 0.89313 0.15350 -0.09673
 H603 H 0.94797 0.20564 -0.05289
 H604 H 0.94534 0.29492 -0.05919
 H605 H 0.79907 0.36029 -0.18547
 H606 H 0.84953 0.40773 -0.14076
 C607 C 0.36438 0.76397 0.34797
 C608 C 0.31961 0.78342 0.33051
 C609 C 0.30737 0.83214 0.34264
 C610 C 0.33517 0.85969 0.37061
 C611 C 0.37738 0.84089 0.38939
 C612 C 0.39078 0.79124 0.38022
 C613 C 0.38500 0.71909 0.33393
 C614 C 0.42530 0.69827 0.35449
 C615 C 0.44650 0.72169 0.38930
 C616 C 0.42964 0.76763 0.40210
 H617 H 0.37134 0.69927 0.30686
 H618 H 0.43969 0.66330 0.34369
 H619 H 0.47668 0.70448 0.40615
 H620 H 0.44673 0.78307 0.43009
 H621 H 0.27604 0.85118 0.32950
 H622 H 0.32355 0.89708 0.37675
 C623 C 1.19226 1.18509 0.36715
 C624 C 1.18979 1.18245 0.32075
 C625 C 1.15801 1.14726 0.30235
 C626 C 1.12923 1.11622 0.32721
 C627 C 1.13116 1.11879 0.37152
 C628 C 1.16242 1.15283 0.39201
 C629 C 1.22303 1.21796 0.39051
 C630 C 1.22414 1.21937 0.43494
 C631 C 1.19462 1.18814 0.45836
 C632 C 1.16405 1.15522 0.43736
 H633 H 1.24751 1.24349 0.37630
 H634 H 1.24824 1.24503 0.45126
 H635 H 1.19544 1.18932 0.49294
 H636 H 1.14181 1.13169 0.45737
 H637 H 1.15466 1.14345 0.26806
 H638 H 1.10488 1.09014 0.31166
 C639 C 0.70148 0.70676 -0.12075
 C640 C 0.69782 0.70416 -0.16724
 C641 C 0.66121 0.67370 -0.18479
 C642 C 0.63040 0.64547 -0.15922
 C643 C 0.63444 0.64625 -0.11469
 C644 C 0.66870 0.67820 -0.09502
 C645 C 0.73637 0.73616 -0.09810
 C646 C 0.74098 0.73533 -0.05399
 C647 C 0.70871 0.70794 -0.02993
 C648 C 0.67105 0.68228 -0.04982
 H649 H 0.76188 0.76048 -0.11251
 H650 H 0.76934 0.75693 -0.03836
 H651 H 0.71256 0.70707 0.00433
 H652 H 0.64390 0.66636 -0.02883
 H653 H 0.65640 0.67078 -0.21904
 H654 H 0.60406 0.62136 -0.17472
 C655 C 0.88464 1.17505 0.69191
 C656 C 0.83201 1.17154 0.69637
 C657 C 0.80829 1.13295 0.67484
 C658 C 0.83140 1.10825 0.64159
 C659 C 0.88003 1.11927 0.63002
 C660 C 0.90836 1.15067 0.65691
 C661 C 0.91509 1.19924 0.72220
 C662 C 0.96535 1.20602 0.71500
 C663 C 0.98744 1.18597 0.67904
 C664 C 0.96000 1.15669 0.65139
 H665 H 0.90202 1.21094 0.75294
 H666 H 0.98758 1.22570 0.73813
 H667 H 1.02663 1.19101 0.67382
 H668 H 0.98076 1.13758 0.62722
 H669 H 0.77003 1.12400 0.68119
 H670 H 0.80984 1.08205 0.62334
 C671 C 0.31628 0.69428 0.13234
 C672 C 0.31213 0.68278 0.17748
 C673 C 0.33316 0.63855 0.19144
 C674 C 0.35640 0.60666 0.16319
 C675 C 0.36234 0.61868 0.12018
 C676 C 0.34612 0.66427 0.10534
 C677 C 0.29134 0.73328 0.11201
 C678 C 0.30490 0.74937 0.07144
 C679 C 0.34119 0.72473 0.04861
 C680 C 0.35985 0.68102 0.06430
 H681 H 0.26127 0.75250 0.12642
 H682 H 0.28719 0.78118 0.05776
 H683 H 0.35273 0.73793 0.01758
 H684 H 0.38570 0.66103 0.04437
 H685 H 0.33054 0.62720 0.22444
 H686 H 0.37035 0.57217 0.17522
 C687 C 1.18399 0.81585 0.64002
 C688 C 1.18419 0.82481 0.68609
 C689 C 1.15334 0.86229 0.70213
 C690 C 1.12326 0.88982 0.67530
 C691 C 1.12067 0.87908 0.63179
 C692 C 1.14954 0.84124 0.61401
 C693 C 1.21475 0.78150 0.61813
 C694 C 1.20737 0.76783 0.57582
 C695 C 1.17064 0.78963 0.55245
 C696 C 1.14386 0.82760 0.57033
 H697 H 1.24295 0.76074 0.63254
 H698 H 1.22978 0.73929 0.56140
 H699 H 1.16341 0.77778 0.52005
 H700 H 1.11816 0.84508 0.54914
 H701 H 1.15241 0.87059 0.73600
 H702 H 1.10092 0.91900 0.68879
 C703 C 0.70293 0.30055 0.12722
 C704 C 0.70050 0.30773 0.17347
 C705 C 0.66957 0.34507 0.18917
 C706 C 0.64226 0.37442 0.16200
 C707 C 0.64361 0.36731 0.11783
 C708 C 0.67200 0.32915 0.10018
 C709 C 0.73425 0.26617 0.10607
 C710 C 0.73164 0.25704 0.06235
 C711 C 0.69809 0.28202 0.03753
 C712 C 0.66884 0.31805 0.05597
 H713 H 0.76082 0.24416 0.12182
 H714 H 0.75527 0.22957 0.04782
 H715 H 0.69486 0.27368 0.00382
 H716 H 0.64300 0.33621 0.03515
 H717 H 0.66642 0.35249 0.22306
 H718 H 0.61981 0.40337 0.17577
 C719 C 0.88740 0.82264 0.29351
 C720 C 0.83506 0.82920 0.28952
 C721 C 0.81406 0.86928 0.31123
 C722 C 0.83895 0.89245 0.34420
 C723 C 0.88619 0.87712 0.35635
 C724 C 0.91273 0.84536 0.32855
 C725 C 0.91618 0.79800 0.26235
 C726 C 0.96690 0.79179 0.26737
 C727 C 0.99064 0.81082 0.30295
 C728 C 0.96425 0.83829 0.33281
 H729 H 0.90152 0.78637 0.23220
 H730 H 0.98813 0.77293 0.24296
 H731 H 1.03014 0.80619 0.30638
 H732 H 0.98561 0.85608 0.35739
 H733 H 0.77604 0.87997 0.30616
 H734 H 0.81889 0.91958 0.36273
 C735 C 0.32062 0.29347 -0.14148
 C736 C 0.32151 0.29866 -0.18803
 C737 C 0.35870 0.32886 -0.20550
 C738 C 0.38980 0.35694 -0.17946
 C739 C 0.38810 0.35251 -0.13497
 C740 C 0.35817 0.31630 -0.11662
 C741 C 0.28427 0.26760 -0.11749
 C742 C 0.28913 0.25811 -0.07400
 C743 C 0.33019 0.27453 -0.05216
 C744 C 0.36444 0.30357 -0.07312
 H745 H 0.25179 0.25219 -0.13069
 H746 H 0.26130 0.23674 -0.05748
 H747 H 0.33495 0.26575 -0.01874
 H748 H 0.39606 0.31605 -0.05497
 H749 H 0.36139 0.33398 -0.23971
 H750 H 0.41390 0.38378 -0.19416
 C751 C 1.21470 0.35680 -0.15963
 C752 C 1.19947 0.30672 -0.17074
 C753 C 1.15831 0.28757 -0.14869
 C754 C 1.13234 0.31498 -0.11810
 C755 C 1.14746 0.36217 -0.10633
 C756 C 1.18978 0.38267 -0.12581
 C757 C 1.25236 0.38391 -0.18120
 C758 C 1.26795 0.43012 -0.16797
 C759 C 1.24533 0.45301 -0.13391
 C760 C 1.20611 0.43028 -0.11363
 H761 H 1.27140 0.37240 -0.20905
 H762 H 1.29754 0.44862 -0.18486
 H763 H 1.25724 0.48921 -0.12393
 H764 H 1.18891 0.45138 -0.08858
 H765 H 1.14459 0.25127 -0.15623
 H766 H 1.09935 0.29938 -0.10391
 C767 C 0.73678 0.81110 0.36739
 C768 C 0.71357 0.79559 0.32829
 C769 C 0.66194 0.80429 0.32582
 C770 C 0.63669 0.83366 0.35501
 C771 C 0.66054 0.85524 0.38968
 C772 C 0.71026 0.84154 0.39766
 C773 C 0.78508 0.79660 0.37811
 C774 C 0.80673 0.81044 0.41670
 C775 C 0.78126 0.84017 0.44539
 C776 C 0.73356 0.85579 0.43604
 H777 H 0.80740 0.77567 0.35653
 H778 H 0.84396 0.79874 0.42400
 H779 H 0.79851 0.85107 0.47513
 H780 H 0.71473 0.87797 0.45972
 H781 H 0.63970 0.79018 0.29996
 H782 H 0.59777 0.84060 0.34964
 C783 C 0.86932 0.73039 -0.13608
 C784 C 0.82299 0.71675 -0.15517
 C785 C 0.80658 0.66799 -0.14782
 C786 C 0.83210 0.63501 -0.12311
 C787 C 0.87727 0.64722 -0.10558
 C788 C 0.89619 0.69514 -0.11112
 C789 C 0.89075 0.77723 -0.14131
 C790 C 0.93534 0.78963 -0.12186
 C791 C 0.96023 0.75569 -0.09706
 C792 C 0.94124 0.70871 -0.09190
 H793 H 0.87428 0.80524 -0.16014
 H794 H 0.95068 0.82597 -0.12605
 H795 H 0.99443 0.76586 -0.08174
 H796 H 0.96184 0.68328 -0.07241
 H797 H 0.77419 0.65292 -0.16286
 H798 H 0.81732 0.59826 -0.11955
 C799 C 0.35445 1.22549 0.35603
 C800 C 0.31315 1.20586 0.33302
 C801 C 0.30246 1.15550 0.34028
 C802 C 0.32867 1.12661 0.36886
 C803 C 0.36695 1.14588 0.39337
 C804 C 0.37777 1.19701 0.38905
 C805 C 0.37461 1.27204 0.34692
 C806 C 0.41015 1.29338 0.37319
 C807 C 0.42694 1.26872 0.40893
 C808 C 0.41110 1.22108 0.41688
 H809 H 0.36420 1.29264 0.31936
 H810 H 0.42410 1.32967 0.36613
 H811 H 0.45305 1.28627 0.43026
 H812 H 0.42428 1.20441 0.44581
 H813 H 0.27389 1.13656 0.32277
 H814 H 0.31918 1.08811 0.37113
 C815 C 1.14110 0.73083 0.15801
 C816 C 1.19027 0.71414 0.16715
 C817 C 1.20325 0.66782 0.15005
 C818 C 1.17306 0.64116 0.12352
 C819 C 1.12460 0.65503 0.11677
 C820 C 1.10722 0.69913 0.13556
 C821 C 1.12342 0.77687 0.17196
 C822 C 1.07335 0.78820 0.17025
 C823 C 1.04011 0.75511 0.15256
 C824 C 1.05692 0.71200 0.13343
 H825 H 1.14747 0.80506 0.18375
 H826 H 1.06020 0.82281 0.18295
 H827 H 1.00122 0.76339 0.15336
 H828 H 1.03013 0.68835 0.11808
 H829 H 1.23505 0.64781 0.15970
 H830 H 1.18662 0.60627 0.11151
 C831 C 0.72030 1.18922 0.63026
 C832 C 0.70385 1.19968 0.67319
 C833 C 0.65469 1.18577 0.68346
 C834 C 0.62554 1.15807 0.65600
 C835 C 0.64341 1.14307 0.61647
 C836 C 0.68969 1.16068 0.60219
 C837 C 0.76638 1.20495 0.61410
 C838 C 0.78190 1.19368 0.57273
 C839 C 0.75168 1.16660 0.54581
 C840 C 0.70589 1.15059 0.56009
 H841 H 0.79261 1.22341 0.63340
 H842 H 0.81801 1.20543 0.56187
 H843 H 0.76369 1.15750 0.51379
 H844 H 0.68323 1.13067 0.53750
 H845 H 0.63792 1.19429 0.71392
 H846 H 0.58921 1.14648 0.66662
 C847 C 0.86966 0.26719 0.14817
 C848 C 0.82352 0.28455 0.16535
 C849 C 0.81004 0.33328 0.15475
 C850 C 0.83709 0.36226 0.12767
 C851 C 0.88161 0.34629 0.11130
 C852 C 0.89871 0.29874 0.12112
 C853 C 0.88905 0.22051 0.15770
 C854 C 0.93431 0.20505 0.14097
 C855 C 0.96176 0.23566 0.11459
 C856 C 0.94431 0.28219 0.10473
 H857 H 0.87054 0.19523 0.17821
 H858 H 0.94830 0.16903 0.14874
 H859 H 0.99688 0.22335 0.10184
 H860 H 0.96670 0.30514 0.08419
 H861 H 0.77916 0.35195 0.16905
 H862 H 0.82419 0.39919 0.12144
 C863 C 0.31091 0.85991 0.67360
 C864 C 0.30430 0.80647 0.67408
 C865 C 0.33502 0.77922 0.64611
 C866 C 0.36768 0.80213 0.61725
 C867 C 0.37491 0.85305 0.61815
 C868 C 0.35049 0.88086 0.64960
 C869 C 0.28036 0.89463 0.69541
 C870 C 0.29326 0.94381 0.70004
 C871 C 0.33661 0.96113 0.68237
 C872 C 0.36486 0.93020 0.65705
 H873 H 0.24565 0.88636 0.70935
 H874 H 0.26959 0.96848 0.71798
 H875 H 0.34759 0.99893 0.68715
 H876 H 0.39825 0.94535 0.64327
 H877 H 0.33244 0.73959 0.64547
 H878 H 0.38713 0.77994 0.59388
 C879 C 0.26548 1.15515 -0.14165
 C880 C 0.28839 1.18481 -0.17389
 C881 C 0.34094 1.18590 -0.17463
 C882 C 0.36945 1.15980 -0.14671
 C883 C 0.34793 1.13068 -0.11596
 C884 C 0.29590 1.12800 -0.11257
 C885 C 0.21375 1.15272 -0.13611
 C886 C 0.19270 1.12424 -0.10391
 C887 C 0.22246 1.09763 -0.07630
 C888 C 0.27367 1.09940 -0.08047
 H889 H 0.18869 1.17315 -0.15551
 H890 H 0.15293 1.12307 -0.10018
 H891 H 0.20578 1.07576 -0.05134
 H892 H 0.29577 1.07863 -0.05819
 H893 H 0.36206 1.20808 -0.19656
 H894 H 0.40937 1.16246 -0.14930
 C895 C 0.86758 0.68401 0.30274
 C896 C 0.81690 0.69897 0.30817
 C897 C 0.79319 0.68444 0.34630
 C898 C 0.81873 0.65939 0.37861
 C899 C 0.86981 0.65074 0.37541
 C900 C 0.89506 0.66855 0.33890
 C901 C 0.89192 0.68005 0.26264
 C902 C 0.94306 0.67449 0.25989
 C903 C 0.97101 0.67184 0.29690
 C904 C 0.94726 0.66843 0.33626
 H905 H 0.87232 0.67782 0.23293
 H906 H 0.96104 0.67307 0.22895
 H907 H 1.01092 0.67000 0.29499
 H908 H 0.97000 0.66495 0.36443
 H909 H 0.75438 0.69239 0.35120
 H910 H 0.79824 0.64625 0.40604
 C911 C 0.72735 1.14435 0.14027
 C912 C 0.70966 1.18595 0.16397
 C913 C 0.65979 1.19995 0.15716
 C914 C 0.62872 1.17492 0.12998
 C915 C 0.64445 1.13296 0.10913
 C916 C 0.69381 1.11703 0.11374
 C917 C 0.77708 1.12909 0.14133
 C918 C 0.79285 1.08743 0.11917
 C919 C 0.75966 1.06014 0.09493
 C920 C 0.71057 1.07484 0.09192
 H921 H 0.80484 1.14942 0.15791
 H922 H 0.83124 1.07645 0.12058
 H923 H 0.77222 1.02787 0.07784
 H924 H 0.68598 1.05329 0.07205
 H925 H 0.64301 1.23074 0.17338
 H926 H 0.59092 1.18750 0.12664
 C927 C 1.13511 0.71174 0.66329
 C928 C 1.18714 0.70329 0.67386
 C929 C 1.21096 0.66377 0.65311
 C930 C 1.18561 0.63196 0.62569
 C931 C 1.13585 0.63955 0.61610
 C932 C 1.11197 0.68177 0.63154
 C933 C 1.10402 0.74808 0.68238
 C934 C 1.05685 0.75848 0.66722
 C935 C 1.03770 0.73249 0.63316
 C936 C 1.06463 0.69421 0.61565
 H937 H 1.11356 0.77049 0.70889
 H938 H 1.03519 0.78743 0.68188
 H939 H 1.00145 0.74131 0.62085
 H940 H 1.04809 0.67466 0.58913
 H941 H 1.24940 0.65579 0.65954
 H942 H 1.20462 0.60008 0.61306
 C943 C 0.73028 0.85732 -0.12247
 C944 C 0.71195 0.82146 -0.15207
 C945 C 0.66035 0.81160 -0.15048
 C946 C 0.62813 0.83752 -0.12477
 C947 C 0.64495 0.87501 -0.09874
 C948 C 0.69626 0.88438 -0.09599
 C949 C 0.78116 0.86634 -0.11725
 C950 C 0.79823 0.90081 -0.08769
 C951 C 0.76505 0.92723 -0.06257
 C952 C 0.71442 0.91941 -0.06674
 H953 H 0.80844 0.84595 -0.13452
 H954 H 0.83755 0.90682 -0.08406
 H955 H 0.77863 0.95404 -0.03985
 H956 H 0.68964 0.94035 -0.04646
 H957 H 0.64295 0.78404 -0.17022
 H958 H 0.58897 0.82920 -0.12647
 C959 C 1.21957 0.34489 0.36107
 C960 C 1.19945 0.30523 0.33695
 C961 C 1.14797 0.29652 0.34096
 C962 C 1.11695 0.32817 0.36325
 C963 C 1.13560 0.36989 0.38320
 C964 C 1.18739 0.37889 0.38212
 C965 C 1.27086 0.35114 0.36586
 C966 C 1.29045 0.39176 0.38689
 C967 C 1.25919 0.42731 0.40362
 C968 C 1.20817 0.42133 0.40111
 H969 H 1.29610 0.32363 0.35534
 H970 H 1.33009 0.39564 0.39017
 H971 H 1.27452 0.45916 0.41938
 H972 H 1.18562 0.45054 0.41393
 H973 H 1.13041 0.26564 0.32539
 H974 H 1.07779 0.31989 0.36490
 C975 C 0.35966 0.80666 0.16597
 C976 C 0.30662 0.80949 0.17476
 C977 C 0.27970 0.84731 0.15509
 C978 C 0.30243 0.88133 0.12821
 C979 C 0.35327 0.87989 0.12092
 C980 C 0.38241 0.84357 0.14042
 C981 C 0.39174 0.76863 0.18044
 C982 C 0.44226 0.76835 0.17231
 C983 C 0.46372 0.80592 0.14968
 C984 C 0.43451 0.84334 0.13420
 H985 H 0.38056 0.73695 0.19733
 H986 H 0.46498 0.73856 0.18381
 H987 H 0.50306 0.80569 0.14357
 H988 H 0.45371 0.87191 0.11711
 H989 H 0.24026 0.85067 0.16033
 H990 H 0.28010 0.90914 0.11302
 C991 C 0.77206 0.33079 0.64461
 C992 C 0.80129 0.29978 0.67133
 C993 C 0.85298 0.30218 0.66612
 C994 C 0.87557 0.33642 0.63982
 C995 C 0.84811 0.37074 0.61704
 C996 C 0.79554 0.36799 0.61908
 C997 C 0.72017 0.32594 0.64204
 C998 C 0.69178 0.35875 0.61871
 C999 C 0.71420 0.39724 0.59729
 C1000 C 0.76541 0.40201 0.59738
 H1001 H 0.70062 0.29614 0.65658
 H1002 H 0.65204 0.35439 0.61747
 H1003 H 0.69180 0.42330 0.58002
 H1004 H 0.78039 0.43302 0.58062
 H1005 H 0.87727 0.27858 0.68379
 H1006 H 0.91559 0.33676 0.63821
 C1007 C 1.12793 1.15374 0.69845
 C1008 C 1.16745 1.18621 0.68643
 C1009 C 1.17785 1.19065 0.64226
 C1010 C 1.15332 1.16357 0.61146
 C1011 C 1.11740 1.12984 0.62291
 C1012 C 1.10470 1.12386 0.66637
 C1013 C 1.10907 1.15071 0.74057
 C1014 C 1.07242 1.11692 0.75138
 C1015 C 1.05272 1.08583 0.72056
 C1016 C 1.06824 1.08945 0.67830
 H1017 H 1.11974 1.17532 0.76555
 H1018 H 1.05875 1.11531 0.78389
 H1019 H 1.02425 1.05975 0.72920
 H1020 H 1.05083 1.06573 0.65492
 H1021 H 1.20491 1.21639 0.63047
 H1022 H 1.16282 1.16889 0.57812
 C1023 C 0.67098 0.71013 0.13171
 C1024 C 0.68287 0.69988 0.17590
 C1025 C 0.65974 0.65861 0.19439
 C1026 C 0.62898 0.62749 0.17062
 C1027 C 0.61710 0.63822 0.12824
 C1028 C 0.63360 0.68244 0.11055
 C1029 C 0.69597 0.74482 0.10618
 C1030 C 0.67638 0.76136 0.06772
 C1031 C 0.63409 0.73981 0.05122
 C1032 C 0.61420 0.69898 0.07128
 H1033 H 0.73072 0.76011 0.11492
 H1034 H 0.69476 0.79032 0.05023
 H1035 H 0.61876 0.75261 0.02139
 H1036 H 0.58325 0.68073 0.05616
 H1037 H 0.66751 0.64831 0.22702
 H1038 H 0.61573 0.59391 0.18503
 C1039 C 1.19917 0.80268 0.36778
 C1040 C 1.19203 0.80501 0.32192
 C1041 C 1.15224 0.83347 0.30693
 C1042 C 1.12158 0.85955 0.33471
 C1043 C 1.13092 0.86047 0.37842
 C1044 C 1.17106 0.83403 0.39511
 C1045 C 1.23331 0.77116 0.38824
 C1046 C 1.24584 0.77657 0.43104
 C1047 C 1.22270 0.81173 0.45579
 C1048 C 1.18391 0.83847 0.43887
 H1049 H 1.25315 0.74307 0.37223
 H1050 H 1.27431 0.75377 0.44481
 H1051 H 1.23398 0.81728 0.48857
 H1052 H 1.16478 0.86304 0.46045
 H1053 H 1.14389 0.83543 0.27319
 H1054 H 1.09101 0.88031 0.32180
 C1055 C 0.71674 0.31594 -0.13232
 C1056 C 0.70507 0.30981 -0.17718
 C1057 C 0.66801 0.33990 -0.19415
 C1058 C 0.64360 0.37440 -0.16906
 C1059 C 0.65770 0.38355 -0.12671
 C1060 C 0.69825 0.35749 -0.10967
 C1061 C 0.74549 0.28256 -0.10833
 C1062 C 0.76339 0.29415 -0.06788
 C1063 C 0.75308 0.33937 -0.04992
 C1064 C 0.72070 0.37081 -0.07039
 H1065 H 0.75712 0.24795 -0.12041
 H1066 H 0.78714 0.26868 -0.05128
 H1067 H 0.76940 0.34974 -0.01964
 H1068 H 0.71563 0.40612 -0.05562
 H1069 H 0.65641 0.33620 -0.22706
 H1070 H 0.61328 0.39438 -0.18325
 C1071 C 0.81124 1.18258 0.35980
 C1072 C 0.81106 1.17489 0.31383
 C1073 C 0.83642 1.13387 0.29720
 C1074 C 0.86323 1.10292 0.32326
 C1075 C 0.86629 1.11219 0.36678
 C1076 C 0.84070 1.15167 0.38567
 C1077 C 0.78448 1.21993 0.38163
 C1078 C 0.78977 1.22921 0.42507
 C1079 C 0.82074 1.20053 0.44917
 C1080 C 0.84464 1.16116 0.43026
 H1081 H 0.75962 1.24421 0.36669
 H1082 H 0.76983 1.25918 0.43999
 H1083 H 0.82574 1.20833 0.48277
 H1084 H 0.86640 1.13869 0.45130
 H1085 H 0.83652 1.12550 0.26337
 H1086 H 0.88287 1.07222 0.30916
 C1087 C 0.29710 0.68852 -0.13397
 C1088 C 0.30040 0.68426 -0.18054
 C1089 C 0.33032 0.64666 -0.19723
 C1090 C 0.35761 0.61588 -0.17085
 C1091 C 0.35458 0.61925 -0.12627
 C1092 C 0.32325 0.65472 -0.10742
 C1093 C 0.26908 0.72486 -0.11186
 C1094 C 0.26204 0.72482 -0.06797
 C1095 C 0.28557 0.69066 -0.04332
 C1096 C 0.31808 0.65803 -0.06225
 H1097 H 0.24964 0.75362 -0.12658
 H1098 H 0.23812 0.75178 -0.05302
 H1099 H 0.27932 0.69008 -0.00924
 H1100 H 0.33849 0.63606 -0.04016
 H1101 H 0.33413 0.64173 -0.23144
 H1102 H 0.38123 0.58854 -0.18561
 C1103 C 0.82939 0.89000 0.70739
 C1104 C 0.83369 0.83786 0.71070
 C1105 C 0.87230 0.81531 0.68800
 C1106 C 0.89519 0.83891 0.65430
 C1107 C 0.88205 0.88679 0.64337
 C1108 C 0.85246 0.91437 0.67223
 C1109 C 0.80617 0.91919 0.73912
 C1110 C 0.80151 0.96964 0.73447
 C1111 C 0.82187 0.99277 0.69926
 C1112 C 0.84791 0.96583 0.66876
 H1113 H 0.79422 0.90480 0.76926
 H1114 H 0.78341 0.99114 0.75911
 H1115 H 0.81933 1.03211 0.69673
 H1116 H 0.86645 0.98639 0.64413
 H1117 H 0.88221 0.77748 0.69346
 H1118 H 0.92093 0.81799 0.63490
 C1119 C 0.28915 0.36912 0.17150
 C1120 C 0.30857 0.32661 0.19285
 C1121 C 0.35684 0.31207 0.18215
 C1122 C 0.38187 0.33163 0.14754
 C1123 C 0.36075 0.36797 0.12237
 C1124 C 0.31464 0.38836 0.13490
 C1125 C 0.24599 0.39404 0.18533
 C1126 C 0.22633 0.43302 0.16249
 C1127 C 0.24998 0.44993 0.12616
 C1128 C 0.29412 0.42871 0.11293
 H1129 H 0.22710 0.38593 0.21439
 H1130 H 0.19284 0.45077 0.17352
 H1131 H 0.23476 0.48061 0.10880
 H1132 H 0.31176 0.44520 0.08570
 H1133 H 0.37591 0.28439 0.20011
 H1134 H 0.41864 0.31809 0.14033
   
