data_POSCAR
  _audit_creation_date              2014-09-24
  _audit_creation_method            'ToBaCCo'
  _symmetry_space_group_name_H-M    'P1'
  _symmetry_Int_Tables_number       1
  _symmetry_cell_setting            triclinic
  loop_
  _symmetry_equiv_pos_as_xyz
 x,y,z
_cell_length_a 25.0758
_cell_length_b 25.0697
_cell_length_c 25.0780
_cell_angle_alpha 90.005500
_cell_angle_beta 90.082300
_cell_angle_gamma 90.054500
loop_
  _atom_site_label
  _atom_site_type_symbol
  _atom_site_fract_x
  _atom_site_fract_y
  _atom_site_fract_z
C1 C 0.33701 1.02386 -0.47226
 C2 C 0.33622 1.02625 -0.52686
 C3 C 0.38661 1.01118 -0.54430
 N4 N 0.41746 0.99849 -0.50189
 C5 C 0.38729 1.00616 -0.45790
 C6 C 0.40166 1.00221 -0.59811
 C7 C 0.45534 0.99090 -0.61267
 C8 C 0.47188 0.97028 -0.66139
 C9 C 0.52657 0.97028 -0.66109
 C10 C 0.54259 0.99300 -0.61326
 N11 N 0.49894 1.00474 -0.58369
 C12 C 0.59625 1.00485 -0.59898
 C13 C 0.61063 1.01443 -0.54514
 C14 C 0.65711 1.03940 -0.52820
 C15 C 0.65722 1.03714 -0.47358
 C16 C 0.61055 1.01150 -0.45898
 N17 N 0.58195 0.99789 -0.50267
 C18 C 0.59640 0.99765 -0.40636
 C19 C 0.54371 0.98325 -0.39286
 C20 C 0.52863 0.95749 -0.34635
 C21 C 0.47376 0.95632 -0.34610
 C22 C 0.45699 0.98141 -0.39249
 N23 N 0.49988 0.99730 -0.42094
 C24 C 0.40340 0.99304 -0.40547
 H25 H 0.30378 1.03289 -0.44632
 H26 H 0.30164 1.03638 -0.55050
 H27 H 0.49930 1.02237 -0.45404
 H28 H 0.44783 0.95730 -0.69469
 H29 H 0.55154 0.95593 -0.69317
 H30 H 0.68774 1.05744 -0.55264
 H31 H 0.68800 1.05277 -0.44761
 H32 H 0.44905 0.93967 -0.31491
 H33 H 0.49887 1.02692 -0.54858
 H34 H 0.55441 0.94196 -0.31539
 C35 C -0.47237 1.34387 -0.03816
 C36 C -0.52702 1.34333 -0.03709
 C37 C -0.54273 1.38925 -0.01050
 N38 N -0.49953 1.41827 0.00373
 C39 C -0.45656 1.39043 -0.01293
 C40 C -0.59594 1.40320 0.00232
 C41 C -0.60908 1.45662 0.01574
 C42 C -0.65422 1.47244 0.04358
 C43 C -0.65395 1.52724 0.04450
 C44 C -0.60821 1.54342 0.01810
 N45 N -0.58075 1.50023 0.00113
 C46 C -0.59487 1.59697 0.00691
 C47 C -0.54210 1.61315 -0.00430
 C48 C -0.52711 1.66371 -0.02068
 C49 C -0.47247 1.66459 -0.02066
 C50 C -0.45555 1.61393 -0.00571
 N51 N -0.49845 1.58290 0.00480
 C52 C -0.40194 1.59847 0.00435
 C53 C -0.38778 1.54453 0.01506
 C54 C -0.33837 1.52696 0.03329
 C55 C -0.33923 1.47220 0.03205
 C56 C -0.38846 1.45744 0.01181
 N57 N -0.41786 1.50155 0.00190
 C58 C -0.40324 1.40482 -0.00215
 H59 H -0.44713 1.31360 -0.05570
 H60 H -0.55223 1.31271 -0.05417
 H61 H -0.45339 1.50214 -0.01952
 H62 H -0.68445 1.44719 0.06122
 H63 H -0.68402 1.55237 0.06251
 H64 H -0.55271 1.69709 -0.03025
 H65 H -0.44856 1.69940 -0.02924
 H66 H -0.30646 1.44636 0.04300
 H67 H -0.54794 1.50072 -0.02431
 H68 H -0.30401 1.55041 0.04454
 C69 C -0.03871 0.34313 0.52312
 C70 C -0.03743 0.34387 0.46849
 C71 C -0.00964 0.38946 0.45400
 N72 N 0.00550 0.41698 0.49791
 C73 C -0.01144 0.38816 0.54023
 C74 C 0.00309 0.40459 0.40111
 C75 C 0.01418 0.45871 0.38902
 C76 C 0.04105 0.47707 0.34421
 C77 C 0.03840 0.53187 0.34535
 C78 C 0.01085 0.54540 0.39124
 N79 N -0.00311 0.50073 0.41801
 C80 C -0.00470 0.59748 0.40561
 C81 C -0.01742 0.61046 0.45873
 C82 C -0.04329 0.65638 0.47509
 C83 C -0.04274 0.65574 0.52980
 C84 C -0.01585 0.60975 0.54488
 N85 N -0.00110 0.58177 0.50132
 C86 C -0.00212 0.59516 0.59769
 C87 C 0.01140 0.54153 0.60965
 C88 C 0.04163 0.52498 0.65300
 C89 C 0.04225 0.47018 0.65192
 C90 C 0.01254 0.45468 0.60785
 N91 N -0.00512 0.49839 0.58160
 C92 C -0.00008 0.40136 0.59395
 H93 H -0.05789 0.31308 0.54743
 H94 H -0.05548 0.31456 0.44240
 H95 H -0.03165 0.49849 0.54950
 H96 H 0.06007 0.45349 0.31352
 H97 H 0.05461 0.55868 0.31567
 H98 H -0.06052 0.68717 0.45022
 H99 H -0.05993 0.68582 0.55550
 H100 H 0.06235 0.44462 0.68032
 H101 H -0.02840 0.49895 0.45094
 H102 H 0.06133 0.54979 0.68236
 O103 O -0.13600 1.00232 -0.07431
 O104 O 0.13830 0.99715 -0.07089
 O105 O 0.00072 1.06950 -0.13928
 O106 O 0.00355 0.92516 -0.13616
 O107 O 0.00116 0.86134 -0.07002
 O108 O -0.00098 1.13566 -0.07541
 O109 O 0.07391 0.99417 -0.13668
 O110 O -0.07041 0.99859 -0.13867
 Zr111 Zr 0.00128 0.99816 -0.09437
 O112 O 0.04893 0.95052 -0.04741
 O113 O -0.04747 1.04765 -0.05057
 C114 C -0.11982 1.00103 -0.12345
 C115 C 0.12304 0.99438 -0.12029
 C116 C -0.00085 1.11913 -0.12445
 C117 C 0.00326 0.87610 -0.11960
 H118 H 0.07220 1.06936 -0.07208
 O119 O 0.04911 1.04713 -0.04913
 H120 H -0.07039 0.92813 -0.07096
 O121 O -0.04771 0.95122 -0.04837
 O122 O 0.13680 1.00169 0.07302
 O123 O -0.13761 1.00064 0.07005
 O124 O 0.07265 1.13713 -0.00131
 O125 O 0.07158 0.86261 0.00055
 O126 O -0.07267 0.86332 0.00386
 O127 O -0.07142 1.13746 -0.00643
 O128 O 0.00205 1.07489 0.13497
 O129 O -0.00240 0.93064 0.13798
 O130 O 0.00174 1.13874 0.06875
 O131 O -0.00383 0.86440 0.07409
 O132 O 0.13746 1.07203 0.00244
 O133 O -0.13666 1.07256 -0.00407
 O134 O -0.13744 0.92868 -0.00001
 O135 O 0.13701 0.92746 0.00164
 O136 O 0.07108 1.00475 0.13738
 O137 O -0.07310 1.00071 0.13574
 Zr138 Zr 0.09402 0.99979 0.00057
 Zr139 Zr -0.09352 1.00052 -0.00162
 Zr140 Zr 0.00052 1.09383 -0.00250
 Zr141 Zr -0.00036 0.90630 0.00119
 Zr142 Zr -0.00056 1.00190 0.09316
 O143 O -0.04888 0.95288 0.04820
 O144 O 0.04834 1.04931 0.04735
 C145 C 0.12040 1.00402 0.12196
 C146 C -0.12229 1.00027 0.11953
 C147 C 0.12189 1.12142 0.00130
 C148 C 0.12095 0.87823 0.00107
 C149 C -0.12176 0.87947 0.00283
 C150 C -0.12077 1.12175 -0.00625
 C151 C 0.00300 1.12392 0.11835
 C152 C -0.00430 0.88107 0.12310
 H153 H -0.07083 1.07270 0.06838
 O154 O -0.04812 1.04938 0.04618
 H155 H 0.06988 0.93014 0.07247
 O156 O 0.04760 0.95264 0.04898
 C157 C 0.28183 1.00303 0.28371
 C158 C 0.29265 1.04994 0.31235
 C159 C 0.33309 1.04962 0.35103
 C160 C 0.36168 1.00246 0.36215
 C161 C 0.34917 0.95545 0.33388
 C162 C 0.31006 0.95577 0.29391
 C163 C 0.24008 1.00337 0.24228
 C164 C 0.23036 0.95682 0.21257
 C165 C 0.19125 0.95762 0.17264
 C166 C 0.16132 1.00404 0.16353
 C167 C 0.17066 1.05012 0.19398
 C168 C 0.21069 1.05024 0.23312
 C169 C 0.29869 0.90982 0.26387
 C170 C 0.25981 0.91046 0.22355
 C171 C 0.26276 1.09616 0.30176
 C172 C 0.22220 1.09620 0.26308
 H173 H 0.32033 0.87317 0.27128
 H174 H 0.25257 0.87431 0.20096
 H175 H 0.27062 1.13254 0.32374
 H176 H 0.19989 1.13258 0.25634
 H177 H 0.34251 1.08600 0.37251
 H178 H 0.36979 0.91859 0.34323
 H179 H 0.18347 0.92213 0.14913
 H180 H 0.14742 1.08582 0.18652
 C181 C -0.28423 1.00375 0.28173
 C182 C -0.27402 0.97978 0.33124
 C183 C -0.31371 0.98029 0.37049
 C184 C -0.36343 1.00525 0.36112
 C185 C -0.37231 1.02989 0.31115
 C186 C -0.33318 1.02874 0.27126
 C187 C -0.24287 1.00252 0.23999
 C188 C -0.25342 1.02566 0.19009
 C189 C -0.21410 1.02400 0.15041
 C190 C -0.16419 1.00040 0.16083
 C191 C -0.15418 0.97768 0.21121
 C192 C -0.19359 0.97821 0.25080
 C193 C -0.34206 1.05197 0.22103
 C194 C -0.30295 1.05025 0.18104
 C195 C -0.22439 0.95544 0.34042
 C196 C -0.18475 0.95488 0.30096
 H197 H -0.37969 1.07139 0.21243
 H198 H -0.31150 1.06842 0.14278
 H199 H -0.21604 0.93680 0.37851
 H200 H -0.14695 0.93588 0.30974
 H201 H -0.30637 0.95990 0.40791
 H202 H -0.40949 1.05060 0.30353
 H203 H -0.22193 1.04192 0.11186
 H204 H -0.11600 0.95910 0.21935
 C205 C -0.28236 0.99914 -0.28542
 C206 C -0.33012 1.02706 -0.27687
 C207 C -0.36950 1.02667 -0.31663
 C208 C -0.36173 0.99776 -0.36414
 C209 C -0.31390 0.96933 -0.37168
 C210 C -0.27380 0.97040 -0.33270
 C211 C -0.24049 1.00003 -0.24408
 C212 C -0.19229 0.97302 -0.25310
 C213 C -0.15247 0.97430 -0.21380
 C214 C -0.16116 1.00133 -0.16537
 C215 C -0.20987 1.02787 -0.15680
 C216 C -0.24951 1.02781 -0.19630
 C217 C -0.22524 0.94349 -0.34009
 C218 C -0.18506 0.94499 -0.30107
 C219 C -0.33748 1.05482 -0.22876
 C220 C -0.29796 1.05495 -0.18903
 H221 H -0.21813 0.92127 -0.37645
 H222 H -0.14812 0.92386 -0.30841
 H223 H -0.37419 1.07643 -0.22166
 H224 H -0.30533 1.07664 -0.15240
 H225 H -0.40616 1.04880 -0.31082
 H226 H -0.30795 0.94676 -0.40807
 H227 H -0.11523 0.95335 -0.22037
 H228 H -0.21660 1.04905 -0.11971
 C229 C 0.28525 0.99006 -0.28188
 C230 C 0.27775 0.95864 -0.32767
 C231 C 0.31708 0.95861 -0.36739
 C232 C 0.36270 0.99106 -0.36227
 C233 C 0.36953 1.02230 -0.31609
 C234 C 0.33117 1.02154 -0.27550
 C235 C 0.24400 0.99041 -0.24005
 C236 C 0.25195 1.02113 -0.19386
 C237 C 0.21260 1.02136 -0.15421
 C238 C 0.16503 0.99234 -0.16128
 C239 C 0.15748 0.96206 -0.20796
 C240 C 0.19720 0.96042 -0.24725
 C241 C 0.33762 1.05190 -0.22883
 C242 C 0.29882 1.05144 -0.18854
 C243 C 0.23082 0.92840 -0.33301
 C244 C 0.19106 0.92954 -0.29363
 H245 H 0.37296 1.07620 -0.22339
 H246 H 0.30534 1.07538 -0.15315
 H247 H 0.22453 0.90407 -0.36817
 H248 H 0.15525 0.90603 -0.29953
 H249 H 0.31199 0.93412 -0.40267
 H250 H 0.40462 1.04728 -0.31206
 H251 H 0.21830 1.04510 -0.11850
 H252 H 0.12106 0.93936 -0.21330
 C253 C 0.28414 1.28401 0.00300
 C254 C 0.27271 1.33448 -0.01830
 C255 C 0.31257 1.37372 -0.01861
 C256 C 0.36373 1.36324 0.00275
 C257 C 0.37393 1.31218 0.02452
 C258 C 0.33455 1.27246 0.02435
 C259 C 0.24252 1.24240 0.00286
 C260 C 0.25418 1.19167 0.02354
 C261 C 0.21463 1.15207 0.02278
 C262 C 0.16354 1.16320 0.00214
 C263 C 0.15246 1.21450 -0.01800
 C264 C 0.19192 1.25413 -0.01807
 C265 C 0.34459 1.22139 0.04516
 C266 C 0.30514 1.18161 0.04459
 C267 C 0.22167 1.34463 -0.03914
 C268 C 0.18190 1.30519 -0.03887
 H269 H 0.38336 1.21199 0.06179
 H270 H 0.31460 1.14269 0.06081
 H271 H 0.21234 1.38344 -0.05571
 H272 H 0.14304 1.31470 -0.05524
 H273 H 0.30413 1.41207 -0.03672
 H274 H 0.41224 1.30363 0.04268
 H275 H 0.22342 1.11285 0.03873
 H276 H 0.11341 1.22337 -0.03434
 C277 C 0.28199 0.71561 0.00735
 C278 C 0.27613 0.66985 -0.02443
 C279 C 0.31647 0.63119 -0.02416
 C280 C 0.36194 0.63771 0.00821
 C281 C 0.36639 0.68305 0.04111
 C282 C 0.32691 0.72261 0.04015
 C283 C 0.24050 0.75721 0.00591
 C284 C 0.24720 0.80377 0.03636
 C285 C 0.20821 0.84372 0.03390
 C286 C 0.16223 0.83658 0.00243
 C287 C 0.15562 0.78933 -0.02713
 C288 C 0.19508 0.74975 -0.02612
 C289 C 0.33172 0.76930 0.07080
 C290 C 0.29267 0.80935 0.06870
 C291 C 0.23025 0.66390 -0.05613
 C292 C 0.19024 0.70303 -0.05671
 H293 H 0.36620 0.77517 0.09622
 H294 H 0.29809 0.84495 0.09263
 H295 H 0.22522 0.62868 -0.08068
 H296 H 0.15545 0.69687 -0.08164
 H297 H 0.31290 0.59621 -0.04935
 H298 H 0.40103 0.68778 0.06659
 H299 H 0.21306 0.87988 0.05713
 H300 H 0.12031 0.78394 -0.05158
 C301 C -0.28274 0.71730 0.00397
 C302 C -0.31206 0.70737 -0.04272
 C303 C -0.35091 0.66716 -0.04256
 C304 C -0.36174 0.63800 0.00429
 C305 C -0.33243 0.64925 0.05103
 C306 C -0.29227 0.68821 0.05084
 C307 C -0.24137 0.75910 0.00383
 C308 C -0.21098 0.76807 0.05012
 C309 C -0.17123 0.80746 0.04949
 C310 C -0.16313 0.83836 0.00350
 C311 C -0.19416 0.82954 -0.04230
 C312 C -0.23301 0.78932 -0.04262
 C313 C -0.26146 0.69869 0.09652
 C314 C -0.22117 0.73765 0.09604
 C315 C -0.30207 0.73794 -0.08859
 C316 C -0.26345 0.77851 -0.08842
 H317 H -0.26831 0.67636 0.13286
 H318 H -0.19806 0.74424 0.13199
 H319 H -0.32454 0.73071 -0.12481
 H320 H -0.25720 0.80142 -0.12452
 H321 H -0.37284 0.65843 -0.07886
 H322 H -0.34123 0.62789 0.08759
 H323 H -0.14717 0.81470 0.08472
 H324 H -0.18733 0.85337 -0.07774
 C325 C -0.28301 1.28330 -0.00600
 C326 C -0.27589 1.32986 -0.03633
 C327 C -0.31571 1.36912 -0.03578
 C328 C -0.36154 1.36259 -0.00401
 C329 C -0.36775 1.31584 0.02646
 C330 C -0.32891 1.27577 0.02514
 C331 C -0.24149 1.24174 -0.00661
 C332 C -0.24919 1.19475 0.02287
 C333 C -0.20979 1.15524 0.02194
 C334 C -0.16241 1.16310 -0.00702
 C335 C -0.15496 1.21063 -0.03594
 C336 C -0.19479 1.24990 -0.03643
 C337 C -0.33499 1.22839 0.05441
 C338 C -0.29592 1.18839 0.05304
 C339 C -0.22899 1.33628 -0.06628
 C340 C -0.18896 1.29711 -0.06607
 H341 H -0.37030 1.22211 0.07846
 H342 H -0.30218 1.15237 0.07608
 H343 H -0.22299 1.37205 -0.08976
 H344 H -0.15323 1.30378 -0.08940
 H345 H -0.31101 1.40495 -0.05952
 H346 H -0.40290 1.31084 0.05111
 H347 H -0.21539 1.11889 0.04467
 H348 H -0.11863 1.21661 -0.05854
 C349 C 0.00625 1.28681 0.27996
 C350 C -0.01538 1.33717 0.26875
 C351 C -0.01631 1.37608 0.30891
 C352 C 0.00464 1.36531 0.36020
 C353 C 0.02673 1.31435 0.37016
 C354 C 0.02733 1.27504 0.33044
 C355 C 0.00638 1.24542 0.23817
 C356 C 0.02717 1.19473 0.24973
 C357 C 0.02612 1.15516 0.21026
 C358 C 0.00496 1.16619 0.15937
 C359 C -0.01492 1.21754 0.14817
 C360 C -0.01471 1.25720 0.18762
 C361 C 0.04851 1.22409 0.34027
 C362 C 0.04831 1.18456 0.30063
 C363 C -0.03612 1.34748 0.21769
 C364 C -0.03565 1.30822 0.17776
 H365 H 0.06503 1.21456 0.37906
 H366 H 0.06470 1.14568 0.30995
 H367 H -0.05291 1.38622 0.20851
 H368 H -0.05210 1.31779 0.13895
 H369 H -0.03491 1.41421 0.30064
 H370 H 0.04441 1.30554 0.40864
 H371 H 0.04200 1.11591 0.21904
 H372 H -0.03154 1.22628 0.10921
 C373 C -0.00123 1.28125 -0.28703
 C374 C 0.01908 1.26945 -0.33774
 C375 C 0.01990 1.30941 -0.37683
 C376 C -0.00028 1.36101 -0.36607
 C377 C -0.02062 1.37171 -0.31457
 C378 C -0.02092 1.33220 -0.27501
 C379 C -0.00171 1.23948 -0.24562
 C380 C -0.02127 1.25157 -0.19462
 C381 C -0.02087 1.21198 -0.15516
 C382 C -0.00178 1.16037 -0.16662
 C383 C 0.01708 1.14876 -0.21823
 C384 C 0.01762 1.18834 -0.25777
 C385 C -0.04071 1.34262 -0.22365
 C386 C -0.04072 1.30303 -0.18407
 C387 C 0.03837 1.21791 -0.34834
 C388 C 0.03746 1.17798 -0.30909
 H389 H -0.05610 1.38179 -0.21388
 H390 H -0.05609 1.31279 -0.14490
 H391 H 0.05416 1.20830 -0.38737
 H392 H 0.05262 1.13875 -0.31896
 H393 H 0.03752 1.30059 -0.41527
 H394 H -0.03754 1.41045 -0.30557
 H395 H -0.03568 1.22129 -0.11567
 H396 H 0.03224 1.10932 -0.22734
 C397 C 0.00317 0.71317 -0.28138
 C398 C -0.01707 0.66237 -0.26945
 C399 C -0.01882 0.62345 -0.30960
 C400 C -0.00004 0.63466 -0.36159
 C401 C 0.02097 0.68598 -0.37217
 C402 C 0.02219 0.72534 -0.33252
 C403 C 0.00416 0.75456 -0.23959
 C404 C 0.02345 0.80568 -0.25188
 C405 C 0.02316 0.84523 -0.21240
 C406 C 0.00446 0.83377 -0.16068
 C407 C -0.01396 0.78198 -0.14882
 C408 C -0.01463 0.74234 -0.18830
 C409 C 0.04197 0.77673 -0.34308
 C410 C 0.04239 0.81630 -0.30349
 C411 C -0.03556 0.65163 -0.21766
 C412 C -0.03420 0.69088 -0.17773
 H413 H 0.05685 0.78658 -0.38241
 H414 H 0.05758 0.85554 -0.31340
 H415 H -0.05125 0.61255 -0.20791
 H416 H -0.04889 0.68095 -0.13835
 H417 H -0.03619 0.58486 -0.30070
 H418 H 0.03748 0.69507 -0.41105
 H419 H 0.03761 0.88485 -0.22192
 H420 H -0.02880 0.77283 -0.10928
 C421 C -0.00686 0.71970 0.28587
 C422 C -0.03435 0.67171 0.27672
 C423 C -0.03401 0.63214 0.31624
 C424 C -0.00569 0.64001 0.36415
 C425 C 0.02204 0.68820 0.37242
 C426 C 0.02115 0.72841 0.33361
 C427 C -0.00708 0.76147 0.24449
 C428 C 0.01987 0.80971 0.25392
 C429 C 0.01968 0.84925 0.21439
 C430 C -0.00612 0.84020 0.16532
 C431 C -0.03280 0.79154 0.15642
 C432 C -0.03387 0.75220 0.19614
 C433 C 0.04779 0.77711 0.34152
 C434 C 0.04695 0.81718 0.30244
 C435 C -0.06138 0.66422 0.22816
 C436 C -0.06096 0.70371 0.18845
 H437 H 0.06943 0.78433 0.37825
 H438 H 0.06800 0.85417 0.31011
 H439 H -0.08273 0.62738 0.22064
 H440 H -0.08201 0.69622 0.15143
 H441 H -0.05551 0.59514 0.30984
 H442 H 0.04428 0.69419 0.40904
 H443 H 0.04067 0.88647 0.22123
 H444 H -0.05300 0.78455 0.11881
   
