data_POSCAR
  _audit_creation_date              2014-09-24
  _audit_creation_method            'ToBaCCo'
  _symmetry_space_group_name_H-M    'P1'
  _symmetry_Int_Tables_number       1
  _symmetry_cell_setting            triclinic
  loop_
  _symmetry_equiv_pos_as_xyz
 x,y,z
_cell_length_a 37.2382
_cell_length_b 27.0114
_cell_length_c 25.6119
_cell_angle_alpha 89.915000
_cell_angle_beta 90.058100
_cell_angle_gamma 90.175600
loop_
  _atom_site_label
  _atom_site_type_symbol
  _atom_site_fract_x
  _atom_site_fract_y
  _atom_site_fract_z
C1 C 0.22298 0.22148 0.22295
 C2 C 0.22302 0.27371 0.22302
 C3 C 0.24999 0.29942 0.24995
 C4 C 0.27693 0.27377 0.27683
 C5 C 0.27693 0.22154 0.27680
 C6 C 0.24994 0.19577 0.24986
 H7 H 0.24993 0.15556 0.24982
 H8 H 0.25001 0.33959 0.24998
 C9 C 0.77745 0.27756 0.22262
 C10 C 0.77732 0.22532 0.22265
 C11 C 0.75030 0.19961 0.24950
 C12 C 0.72343 0.22531 0.27631
 C13 C 0.72355 0.27746 0.27632
 C14 C 0.75053 0.30324 0.24949
 H15 H 0.75053 0.34343 0.24959
 H16 H 0.75019 0.15944 0.24952
 C17 C 0.72342 0.72566 0.72363
 C18 C 0.72341 0.77781 0.72368
 C19 C 0.75032 0.80363 0.75062
 C20 C 0.77729 0.77798 0.77756
 C21 C 0.77729 0.72574 0.77750
 C22 C 0.75034 0.69999 0.75053
 H23 H 0.75033 0.65983 0.75047
 H24 H 0.75022 0.84382 0.75056
 C25 C 0.27643 0.77480 0.72358
 C26 C 0.27644 0.72265 0.72368
 C27 C 0.24957 0.69678 0.75067
 C28 C 0.22265 0.72238 0.77760
 C29 C 0.22266 0.77463 0.77749
 C30 C 0.24955 0.80042 0.75048
 H31 H 0.24957 0.84059 0.75038
 H32 H 0.24967 0.65660 0.75065
 O33 O 1.03535 0.06282 0.00407
 O34 O 0.96509 -0.00661 -0.06617
 O35 O 0.96540 0.06325 0.00382
 O36 O 1.03503 -0.00703 -0.06593
 O37 O 1.03467 -0.06346 -0.00329
 O38 O 0.96504 0.00681 0.06646
 O39 O 0.96473 -0.06304 -0.00352
 O40 O 1.03499 0.00638 0.06671
 Cu41 Cu 1.00026 0.03381 -0.03737
 Cu42 Cu 0.99982 -0.03402 0.03791
 C43 C 1.04704 0.04632 0.04724
 C44 C 0.95306 -0.04655 -0.04670
 C45 C 0.95346 0.04689 0.04691
 C46 C 1.04660 -0.04711 -0.04639
 O47 O 0.53518 0.43736 0.49631
 O48 O 0.46515 0.50664 0.56633
 O49 O 0.46524 0.43673 0.49639
 O50 O 0.53510 0.50725 0.56626
 O51 O 0.53489 0.56365 0.50358
 O52 O 0.46503 0.49313 0.43371
 O53 O 0.46494 0.56304 0.50365
 O54 O 0.53497 0.49376 0.43363
 Cu55 Cu 0.50019 0.46631 0.53765
 Cu56 Cu 0.49994 0.53409 0.46232
 C57 C 0.54690 0.45386 0.45315
 C58 C 0.45323 0.54653 0.54681
 C59 C 0.45335 0.45303 0.45325
 C60 C 0.54679 0.54735 0.54672
 O61 O -0.03443 0.56315 -0.00330
 O62 O 0.03527 0.49260 0.06643
 O63 O 0.03551 0.56272 -0.00350
 O64 O -0.03467 0.49305 0.06663
 O65 O -0.03511 0.43684 0.00394
 O66 O 0.03508 0.50651 -0.06619
 O67 O 0.03483 0.43639 0.00373
 O68 O -0.03487 0.50694 -0.06600
 Cu69 Cu 0.00047 0.53355 0.03789
 Cu70 Cu -0.00006 0.46600 -0.03745
 C71 C -0.04641 0.54695 -0.04642
 C72 C 0.04682 0.45259 0.04684
 C73 C 0.04714 0.54638 -0.04668
 C74 C -0.04674 0.45319 0.04712
 O75 O 0.53447 1.00736 0.43310
 O76 O 0.46463 0.93694 0.50314
 O77 O 0.46452 1.00682 0.43295
 O78 O 0.53458 0.93749 0.50328
 O79 O 0.53445 0.99390 0.56577
 O80 O 0.46440 1.06324 0.49544
 O81 O 0.46451 0.99335 0.56563
 O82 O 0.53435 1.06377 0.49559
 Cu83 Cu 0.49956 0.96646 0.46181
 Cu84 Cu 0.49941 1.03426 0.53691
 C85 C 0.54621 1.04744 0.45254
 C86 C 0.45279 0.95326 0.54621
 C87 C 0.45263 1.04673 0.45233
 C88 C 0.54634 0.95399 0.54640
 C89 C 1.19708 0.19523 0.19709
 C90 C 1.17416 0.17224 0.17422
 C91 C 1.14729 0.14548 0.14738
 C92 C 1.12432 0.12270 0.12444
 C93 C 1.09740 0.09606 0.09755
 C94 C 1.07441 0.07334 0.07457
 C95 C 0.69611 0.69786 0.69626
 C96 C 0.67328 0.67477 0.67336
 C97 C 0.64651 0.64781 0.64653
 C98 C 0.62365 0.62480 0.62361
 C99 C 0.59687 0.59784 0.59680
 C100 C 0.57400 0.57480 0.57392
 C101 C -0.19664 0.30384 0.19681
 C102 C -0.17373 0.32687 0.17397
 C103 C -0.14687 0.35369 0.14716
 C104 C -0.12392 0.37654 0.12425
 C105 C -0.09704 0.40326 0.09738
 C106 C -0.07408 0.42606 0.07442
 C107 C 0.30369 0.80266 0.69616
 C108 C 0.32649 0.82579 0.67322
 C109 C 0.35320 0.85278 0.64632
 C110 C 0.37602 0.87582 0.62333
 C111 C 0.40276 0.90279 0.59643
 C112 C 0.42560 0.92583 0.57349
 C113 C -0.19544 0.69780 -0.19527
 C114 C -0.17264 0.67463 -0.17252
 C115 C -0.14592 0.64758 -0.14586
 C116 C -0.12310 0.62450 -0.12309
 C117 C -0.09637 0.59749 -0.09640
 C118 C -0.07355 0.57442 -0.07358
 C119 C 0.30281 1.19536 0.30262
 C120 C 0.32571 1.17242 0.32545
 C121 C 0.35255 1.14572 0.35224
 C122 C 0.37549 1.12298 0.37515
 C123 C 0.40237 1.09639 0.40201
 C124 C 0.42532 1.07371 0.42497
 C125 C 1.19543 -0.19750 -0.19528
 C126 C 1.17267 -0.17438 -0.17253
 C127 C 1.14599 -0.14740 -0.14586
 C128 C 1.12320 -0.12439 -0.12308
 C129 C 1.09651 -0.09746 -0.09638
 C130 C 1.07371 -0.07448 -0.07356
 C131 C 0.69628 0.30513 0.30359
 C132 C 0.67346 0.32806 0.32643
 C133 C 0.64671 0.35478 0.35321
 C134 C 0.62384 0.37754 0.37611
 C135 C 0.59704 0.40416 0.40294
 C136 C 0.57415 0.42687 0.42586
 C137 C 0.80316 -0.19572 -0.19656
 C138 C 0.82605 -0.17269 -0.17368
 C139 C 0.85289 -0.14587 -0.14684
 C140 C 0.87583 -0.12304 -0.12390
 C141 C 0.90273 -0.09635 -0.09702
 C142 C 0.92570 -0.07360 -0.07405
 C143 C 0.30422 0.30181 0.30410
 C144 C 0.32702 0.32506 0.32689
 C145 C 0.35375 0.35220 0.35360
 C146 C 0.37658 0.37536 0.37642
 C147 C 0.40332 0.40244 0.40317
 C148 C 0.42616 0.42555 0.42603
 C149 C 0.19681 0.69603 -0.19650
 C150 C 0.17397 0.67294 -0.17360
 C151 C 0.14717 0.64604 -0.14676
 C152 C 0.12426 0.62314 -0.12382
 C153 C 0.09740 0.59636 -0.09695
 C154 C 0.07446 0.57353 -0.07400
 C155 C 0.69602 1.19754 0.30351
 C156 C 0.67309 1.17449 0.32627
 C157 C 0.64621 1.14760 0.35294
 C158 C 0.62326 1.12465 0.37574
 C159 C 0.59639 1.09777 0.40247
 C160 C 0.57347 1.07480 0.42532
 C161 C 0.19576 0.30167 0.19579
 C162 C 0.17299 0.32487 0.17303
 C163 C 0.14629 0.35194 0.14634
 C164 C 0.12349 0.37503 0.12352
 C165 C 0.09678 0.40205 0.09681
 C166 C 0.07397 0.42512 0.07398
 C167 C 0.69607 0.80545 0.69635
 C168 C 0.67319 0.82834 0.67346
 C169 C 0.64636 0.85502 0.64662
 C170 C 0.62344 0.87774 0.62366
 C171 C 0.59658 0.90433 0.59675
 C172 C 0.57364 0.92700 0.57377
 C173 C 0.80455 0.19737 0.19550
 C174 C 0.82731 0.17420 0.17282
 C175 C 0.85400 0.14720 0.14621
 C176 C 0.87680 0.12417 0.12347
 C177 C 0.90351 0.09723 0.09682
 C178 C 0.92633 0.07424 0.07404
 C179 C 0.30374 0.69506 0.69638
 C180 C 0.32658 0.67218 0.67353
 C181 C 0.35336 0.64551 0.64673
 C182 C 0.37624 0.62279 0.62383
 C183 C 0.40305 0.59620 0.59699
 C184 C 0.42595 0.57351 0.57407
   
