data_POSCAR
  _audit_creation_date              2014-09-24
  _audit_creation_method            'ToBaCCo'
  _symmetry_space_group_name_H-M    'P1'
  _symmetry_Int_Tables_number       1
  _symmetry_cell_setting            triclinic
  loop_
  _symmetry_equiv_pos_as_xyz
 x,y,z
_cell_length_a 77.5305
_cell_length_b 10.9682
_cell_length_c 9.6458
_cell_angle_alpha 96.110000
_cell_angle_beta 90.621900
_cell_angle_gamma 86.541600
loop_
  _atom_site_label
  _atom_site_type_symbol
  _atom_site_fract_x
  _atom_site_fract_y
  _atom_site_fract_z
C1 C 0.74497 0.25345 0.46021
 C2 C 0.74576 0.26128 0.60322
 C3 C 0.72998 0.25274 0.68684
 C4 C 0.76255 0.27297 0.67642
 C5 C 0.76094 0.22823 0.37695
 C6 C 0.72815 0.26792 0.38663
 C7 C 0.72432 0.34423 0.79161
 C8 C 0.70763 0.34380 0.84731
 C9 C 0.69625 0.25098 0.79921
 C10 C 0.70311 0.15470 0.70215
 C11 C 0.71960 0.15550 0.65024
 C12 C 0.77044 0.38391 0.68243
 C13 C 0.78810 0.38891 0.71019
 C14 C 0.79829 0.28280 0.73557
 C15 C 0.78955 0.17547 0.74978
 C16 C 0.77182 0.17064 0.72005
 C17 C 0.76980 0.11333 0.37581
 C18 C 0.78714 0.09790 0.33678
 C19 C 0.79576 0.19698 0.29489
 C20 C 0.78604 0.30697 0.27730
 C21 C 0.76873 0.32286 0.31934
 C22 C 0.72156 0.17130 0.29832
 C23 C 0.70373 0.17162 0.26953
 C24 C 0.69258 0.26878 0.32890
 C25 C 0.69983 0.37349 0.39573
 C26 C 0.71735 0.37216 0.42520
 H27 H 0.73242 0.41896 0.82541
 H28 H 0.70390 0.41711 0.92720
 H29 H 0.69560 0.08242 0.65264
 H30 H 0.72380 0.08384 0.57210
 H31 H 0.76297 0.46503 0.65836
 H32 H 0.79373 0.47543 0.70601
 H33 H 0.76552 0.08573 0.72318
 H34 H 0.76351 0.03859 0.41455
 H35 H 0.79405 0.01059 0.34672
 H36 H 0.79211 0.38369 0.24095
 H37 H 0.76184 0.41128 0.31623
 H38 H 0.72981 0.09118 0.26329
 H39 H 0.69855 0.09147 0.21259
 H40 H 0.69172 0.45284 0.43616
 H41 H 0.72220 0.44844 0.48912
 H42 H 0.79636 0.09318 0.77703
 C43 C 0.25312 0.70842 0.35401
 C44 C 0.25434 0.72234 0.49637
 C45 C 0.23864 0.74196 0.58268
 C46 C 0.27120 0.72535 0.56845
 C47 C 0.26815 0.72514 0.26617
 C48 C 0.23613 0.69263 0.28632
 C49 C 0.22996 0.85788 0.59505
 C50 C 0.21277 0.87180 0.63757
 C51 C 0.20415 0.77011 0.67218
 C52 C 0.21365 0.65712 0.67639
 C53 C 0.23081 0.64285 0.63088
 C54 C 0.27913 0.83577 0.60221
 C55 C 0.29669 0.83457 0.63782
 C56 C 0.30628 0.72232 0.64583
 C57 C 0.29725 0.61404 0.63483
 C58 C 0.28000 0.61554 0.59379
 C59 C 0.27650 0.62746 0.18266
 C60 C 0.29312 0.63984 0.13159
 C61 C 0.30140 0.75029 0.16456
 C62 C 0.29174 0.85236 0.23017
 C63 C 0.27509 0.83985 0.27686
 C64 C 0.22800 0.58399 0.29586
 C65 C 0.21020 0.57996 0.27578
 C66 C 0.20009 0.68476 0.24445
 C67 C 0.20887 0.78953 0.21913
 C68 C 0.22673 0.79314 0.23966
 H69 H 0.23623 0.93536 0.56258
 H70 H 0.20593 0.96051 0.63598
 H71 H 0.20744 0.57790 0.70483
 H72 H 0.23755 0.55310 0.62346
 H73 H 0.27192 0.92157 0.59273
 H74 H 0.30281 0.92064 0.65136
 H75 H 0.27365 0.53072 0.57749
 H76 H 0.27057 0.54066 0.16318
 H77 H 0.29986 0.56084 0.07511
 H78 H 0.29740 0.94015 0.25180
 H79 H 0.26777 0.91701 0.32956
 H80 H 0.23535 0.50540 0.32925
 H81 H 0.20442 0.49589 0.29147
 H82 H 0.20206 0.87201 0.19170
 H83 H 0.23299 0.87735 0.22974
 H84 H 0.30368 0.52676 0.65110
 C85 C 0.24770 0.23248 -0.49226
 C86 C 0.24696 0.21811 -0.63647
 C87 C 0.26237 0.24080 -0.71853
 C88 C 0.23041 0.19455 -0.71248
 C89 C 0.23154 0.25612 -0.40828
 C90 C 0.26479 0.23093 -0.41761
 C91 C 0.27101 0.34698 -0.68020
 C92 C 0.28817 0.35408 -0.71631
 C93 C 0.29698 0.25877 -0.80347
 C94 C 0.28708 0.16038 -0.85999
 C95 C 0.27002 0.15070 -0.81630
 C96 C 0.22426 0.26887 -0.81394
 C97 C 0.20666 0.27449 -0.84968
 C98 C 0.19478 0.20626 -0.78329
 C99 C 0.20199 0.11555 -0.70220
 C100 C 0.21946 0.11012 -0.66788
 C101 C 0.22811 0.18780 -0.29808
 C102 C 0.21140 0.19275 -0.24206
 C103 C 0.19762 0.26397 -0.29765
 C104 C 0.20192 0.34136 -0.39843
 C105 C 0.21863 0.33985 -0.44874
 C106 C 0.27800 0.14553 -0.46685
 C107 C 0.29496 0.15715 -0.42370
 C108 C 0.29951 0.25628 -0.32906
 C109 C 0.28597 0.33378 -0.26494
 C110 C 0.26872 0.32094 -0.30894
 H111 H 0.26486 0.41965 -0.61030
 H112 H 0.29447 0.43157 -0.66498
 H113 H 0.29246 0.08819 -0.93477
 H114 H 0.26327 0.06941 -0.85166
 H115 H 0.23268 0.33082 -0.85619
 H116 H 0.20259 0.34146 -0.91925
 H117 H 0.22410 0.04708 -0.59569
 H118 H 0.23807 0.12589 -0.26036
 H119 H 0.20942 0.13783 -0.15769
 H120 H 0.19242 0.39737 -0.44921
 H121 H 0.22108 0.39685 -0.52959
 H122 H 0.27544 0.07449 -0.54775
 H123 H 0.30457 0.09026 -0.47050
 H124 H 0.28869 0.40941 -0.18807
 H125 H 0.25873 0.38697 -0.26585
 H126 H 0.19433 0.04973 -0.65956
 C127 C -0.24639 0.76565 -0.39107
 C128 C -0.24675 0.73844 -0.53370
 C129 C -0.23062 0.70395 -0.61328
 C130 C -0.26334 0.74754 -0.61049
 C131 C -0.26242 0.76045 -0.30934
 C132 C -0.22972 0.78438 -0.31577
 C133 C -0.22498 0.77359 -0.71570
 C134 C -0.20769 0.75980 -0.75969
 C135 C -0.19568 0.67719 -0.70001
 C136 C -0.20231 0.60022 -0.60784
 C137 C -0.21947 0.61174 -0.56882
 C138 C -0.27232 0.86081 -0.60264
 C139 C -0.28995 0.87028 -0.63086
 C140 C -0.29916 0.76562 -0.67808
 C141 C -0.28892 0.65404 -0.70901
 C142 C -0.27130 0.64478 -0.67299
 C143 C -0.27044 0.64964 -0.31911
 C144 C -0.28748 0.64566 -0.27764
 C145 C -0.29681 0.75209 -0.21740
 C146 C -0.28778 0.86028 -0.18838
 C147 C -0.27076 0.86501 -0.23691
 C148 C -0.22395 0.70969 -0.21334
 C149 C -0.20638 0.70230 -0.17567
 C150 C -0.19434 0.76985 -0.24003
 C151 C -0.20096 0.85770 -0.32608
 C152 C -0.21827 0.86383 -0.36391
 H153 H -0.23359 0.84355 -0.75499
 H154 H -0.20390 0.81641 -0.83786
 H155 H -0.19435 0.53606 -0.55496
 H156 H -0.22365 0.55560 -0.49286
 H157 H -0.26553 0.94068 -0.56601
 H158 H -0.29591 0.96062 -0.60810
 H159 H -0.26417 0.55650 -0.68711
 H160 H -0.26363 0.56743 -0.36654
 H161 H -0.29343 0.55862 -0.29459
 H162 H -0.29425 0.94401 -0.14013
 H163 H -0.26453 0.95125 -0.22501
 H164 H -0.23265 0.64923 -0.17165
 H165 H -0.20230 0.63664 -0.10433
 H166 H -0.19283 0.92034 -0.36959
 H167 H -0.22245 0.92451 -0.43985
 H168 H -0.29423 0.57104 -0.75532
 N169 N 0.01682 1.20392 -0.14965
 N170 N 0.03047 1.27002 -0.14939
 N171 N -0.01736 1.08461 -0.24951
 N172 N -0.03245 1.05951 -0.30798
 N173 N -0.01889 1.19113 -0.17237
 N174 N -0.03470 1.24143 -0.18128
 N175 N 0.01954 1.09841 -0.22663
 N176 N 0.03542 1.08939 -0.27708
 C177 C 0.04189 1.19835 -0.23028
 C178 C -0.04300 1.15961 -0.26736
 N179 N -0.01372 0.76654 -0.10061
 N180 N -0.02814 0.70783 -0.10093
 N181 N 0.02265 0.84164 -0.18490
 N182 N 0.03809 0.83301 -0.24244
 N183 N 0.02268 0.77880 -0.07633
 N184 N 0.03824 0.72667 -0.05751
 N185 N -0.01322 0.82730 -0.21042
 N186 N -0.02705 0.80950 -0.28848
 Mn187 Mn 0.00295 0.96252 -0.21964
 C188 C -0.03625 0.73438 -0.22001
 C189 C 0.04768 0.76022 -0.16290
 N190 N -0.02237 1.25436 0.12411
 N191 N -0.03801 1.30459 0.10402
 N192 N 0.01376 1.20500 0.25615
 N193 N 0.02802 1.21877 0.33011
 N194 N 0.01410 1.26617 0.14639
 N195 N 0.02882 1.32088 0.14291
 N196 N -0.02229 1.19209 0.23312
 N197 N -0.03781 1.19930 0.28942
 Mn198 Mn -0.00260 1.22997 -0.01307
 C199 C -0.04750 1.27050 0.20870
 C200 C 0.03730 1.29188 0.25952
 N201 N 0.01880 0.84022 0.21954
 N202 N 0.03428 0.78589 0.23081
 N203 N -0.01920 0.93502 0.27384
 N204 N -0.03537 0.94889 0.31726
 N205 N -0.01677 0.82968 0.19563
 N206 N -0.03099 0.76921 0.18763
 N207 N 0.01764 0.94721 0.29560
 N208 N 0.03275 0.96894 0.35563
 Mn209 Mn 0.00274 0.80276 0.05980
 Mn210 Mn -0.00254 1.07039 0.26653
 Cl211 Cl 0.00013 1.01643 0.02343
 C212 C 0.04282 0.86572 0.31718
 C213 C -0.04241 0.84367 0.26526
 N214 N 0.51807 0.66075 0.24832
 N215 N 0.53275 0.64846 0.31777
 N216 N 0.48327 0.76481 0.11933
 N217 N 0.46867 0.82976 0.09944
 N218 N 0.48178 0.70192 0.22645
 N219 N 0.46640 0.72536 0.28375
 N220 N 0.51987 0.72901 0.14622
 N221 N 0.53583 0.76537 0.14545
 C222 C 0.54360 0.71664 0.25476
 C223 C 0.45844 0.80690 0.20544
 N224 N 0.48609 0.60999 -0.26384
 N225 N 0.47173 0.61208 -0.33824
 N226 N 0.52231 0.67496 -0.14968
 N227 N 0.53733 0.72505 -0.14666
 N228 N 0.52262 0.57334 -0.23545
 N229 N 0.53815 0.55248 -0.29290
 N230 N 0.48652 0.71113 -0.17785
 N231 N 0.47267 0.78447 -0.19389
 Mn232 Mn 0.50296 0.72111 -0.01557
 C233 C 0.46363 0.72238 -0.29578
 C234 C 0.54711 0.64898 -0.23670
 N235 N 0.47735 0.44607 0.25045
 N236 N 0.46172 0.47361 0.30296
 N237 N 0.51250 0.30291 0.19020
 N238 N 0.52584 0.22490 0.20058
 N239 N 0.51415 0.40408 0.27407
 N240 N 0.52918 0.39697 0.34071
 N241 N 0.47723 0.34437 0.16506
 N242 N 0.46187 0.29927 0.16020
 Mn243 Mn 0.49785 0.55474 0.25125
 C244 C 0.45231 0.37975 0.24721
 C245 C 0.53616 0.28328 0.29492
 N246 N 0.51810 0.31658 -0.20909
 N247 N 0.53377 0.29537 -0.26057
 N248 N 0.47969 0.29054 -0.13183
 N249 N 0.46414 0.24756 -0.13686
 N250 N 0.48199 0.35391 -0.23736
 N251 N 0.46802 0.35457 -0.31750
 N252 N 0.51588 0.24980 -0.10637
 N253 N 0.53015 0.18167 -0.08618
 Mn254 Mn 0.50228 0.46195 -0.23778
 Mn255 Mn 0.49627 0.29628 0.02937
 Cl256 Cl 0.49983 0.50855 0.00672
 C257 C 0.54104 0.20911 -0.18541
 C258 C 0.45714 0.28581 -0.25457
 C259 C 0.34346 0.15127 0.12551
 C260 C 0.35226 0.25881 0.16652
 C261 C 0.34204 0.36766 0.20621
 C262 C 0.32401 0.36797 0.20663
 C263 C 0.31521 0.25954 0.17520
 C264 C 0.32539 0.15155 0.13089
 C265 C 0.34976 0.47678 0.24822
 C266 C 0.36751 0.48055 0.25642
 C267 C 0.37843 0.37488 0.22042
 C268 C 0.37073 0.26204 0.17349
 C269 C 0.38175 0.15635 0.13808
 C270 C 0.39957 0.15968 0.15255
 C271 C 0.40719 0.26859 0.19948
 C272 C 0.39680 0.37848 0.23055
 C273 C 0.40532 0.48843 0.26550
 C274 C 0.42327 0.48789 0.27621
 C275 C 0.43335 0.37835 0.25112
 C276 C 0.42526 0.26901 0.21145
 H277 H 0.35015 0.06417 0.09322
 H278 H 0.31707 0.45551 0.23164
 H279 H 0.31974 0.06417 0.10662
 H280 H 0.34193 0.56009 0.27961
 H281 H 0.37221 0.56780 0.29590
 H282 H 0.37698 0.06873 0.10015
 H283 H 0.40753 0.07615 0.12517
 H284 H 0.39857 0.57712 0.28321
 H285 H 0.42928 0.57417 0.30146
 H286 H 0.43307 0.18418 0.18728
 C287 C -0.14859 0.58098 0.30986
 C288 C -0.14071 0.68245 0.26580
 C289 C -0.15165 0.77910 0.22150
 C290 C -0.16972 0.77636 0.22960
 C291 C -0.17751 0.67589 0.27777
 C292 C -0.16643 0.57667 0.31221
 C293 C -0.14453 0.87854 0.16963
 C294 C -0.12676 0.88637 0.16488
 C295 C -0.11531 0.79569 0.21490
 C296 C -0.12240 0.69116 0.26468
 C297 C -0.11099 0.60017 0.31468
 C298 C -0.09329 0.61087 0.31721
 C299 C -0.08620 0.71318 0.27216
 C300 C -0.09703 0.80689 0.21932
 C301 C -0.08903 0.90876 0.17526
 C302 C -0.07135 0.92093 0.19361
 C303 C -0.06103 0.83071 0.25167
 C304 C -0.06830 0.72422 0.28415
 H305 H -0.14143 0.50161 0.34182
 H306 H -0.17745 0.85590 0.20297
 H307 H -0.17123 0.49240 0.34014
 H308 H -0.15279 0.95133 0.13197
 H309 H -0.12245 0.96623 0.12295
 H310 H -0.11527 0.52008 0.35629
 H311 H -0.08509 0.53960 0.35869
 H312 H -0.09601 0.98153 0.12790
 H313 H -0.06559 0.99990 0.15905
 H314 H -0.06009 0.65219 0.32417
 C315 C 0.65436 0.88776 0.35957
 C316 C 0.64496 0.78306 0.32368
 C317 C 0.65445 0.67257 0.27639
 C318 C 0.67268 0.66733 0.27216
 C319 C 0.68220 0.77186 0.31347
 C320 C 0.67231 0.88252 0.35356
 C321 C 0.64571 0.56670 0.23608
 C322 C 0.62775 0.56892 0.23842
 C323 C 0.61770 0.67743 0.28373
 C324 C 0.62650 0.78522 0.33137
 C325 C 0.61658 0.89121 0.38683
 C326 C 0.59868 0.89572 0.38468
 C327 C 0.58987 0.79467 0.32960
 C328 C 0.59916 0.68234 0.28308
 C329 C 0.58941 0.58005 0.23799
 C330 C 0.57137 0.59140 0.23313
 C331 C 0.56248 0.70453 0.27167
 C332 C 0.57173 0.80552 0.32108
 H333 H 0.64824 0.97664 0.39239
 H334 H 0.67904 0.57957 0.23732
 H335 H 0.67792 0.96855 0.38360
 H336 H 0.65284 0.48073 0.20249
 H337 H 0.62215 0.48301 0.20558
 H338 H 0.62224 0.97300 0.43381
 H339 H 0.59163 0.97965 0.42675
 H340 H 0.59527 0.49000 0.20605
 H341 H 0.56431 0.51181 0.19604
 H342 H 0.56478 0.89269 0.35267
 C343 C 0.15072 1.33462 0.11382
 C344 C 0.13964 1.28506 0.20593
 C345 C 0.14744 1.21215 0.30430
 C346 C 0.16537 1.18771 0.30706
 C347 C 0.17644 1.23178 0.21049
 C348 C 0.16860 1.30779 0.11539
 C349 C 0.13735 1.16345 0.40096
 C350 C 0.11957 1.18358 0.40132
 C351 C 0.11104 1.25485 0.30505
 C352 C 0.12120 1.30540 0.20460
 C353 C 0.11254 1.37254 0.10511
 C354 C 0.09462 1.38784 0.10174
 C355 C 0.08456 1.33974 0.19888
 C356 C 0.09263 1.27495 0.30400
 C357 C 0.08185 1.23089 0.40238
 C358 C 0.06396 1.24567 0.39267
 C359 C 0.05603 1.30278 0.28373
 C360 C 0.06642 1.35290 0.18896
 H361 H 0.14603 1.39461 0.03861
 H362 H 0.17043 1.13762 0.39048
 H363 H 0.17595 1.34652 0.03844
 H364 H 0.14327 1.10837 0.47736
 H365 H 0.11292 1.13978 0.47789
 H366 H 0.11924 1.41221 0.02565
 H367 H 0.08852 1.43688 0.02110
 H368 H 0.08670 1.18108 0.48608
 H369 H 0.05628 1.20470 0.46632
 H370 H 0.06042 1.39747 0.10398
 C371 C 0.65212 0.37496 -0.09730
 C372 C 0.64217 0.27300 -0.13848
 C373 C 0.65118 0.16147 -0.18789
 C374 C 0.66918 0.15253 -0.19292
 C375 C 0.67909 0.25645 -0.16522
 C376 C 0.67013 0.36699 -0.11079
 C377 C 0.64226 0.05884 -0.23648
 C378 C 0.62443 0.06245 -0.23312
 C379 C 0.61472 0.16957 -0.17996
 C380 C 0.62369 0.27754 -0.13434
 C381 C 0.61388 0.38671 -0.08938
 C382 C 0.59599 0.39068 -0.08829
 C383 C 0.58715 0.28596 -0.12954
 C384 C 0.59630 0.17317 -0.17418
 C385 C 0.58652 0.06912 -0.21231
 C386 C 0.56848 0.07884 -0.21150
 C387 C 0.55979 0.19216 -0.17404
 C388 C 0.56910 0.29475 -0.13121
 H389 H 0.64640 0.46389 -0.05911
 H390 H 0.67524 0.06171 -0.21837
 H391 H 0.67655 0.45137 -0.08666
 H392 H 0.64915 -0.02501 -0.28039
 H393 H 0.61866 -0.02031 -0.27558
 H394 H 0.61960 0.47202 -0.05687
 H395 H 0.58897 0.47727 -0.05598
 H396 H 0.59235 -0.02089 -0.24368
 H397 H 0.56133 -0.00133 -0.24377
 H398 H 0.56219 0.38245 -0.10088
 C399 C 0.15704 0.84990 -0.39905
 C400 C 0.14833 0.78808 -0.30178
 C401 C 0.15855 0.71968 -0.21090
 C402 C 0.17671 0.71555 -0.21710
 C403 C 0.18505 0.77870 -0.31354
 C404 C 0.17498 0.84524 -0.40432
 C405 C 0.15061 0.65493 -0.11509
 C406 C 0.13272 0.65887 -0.10449
 C407 C 0.12194 0.72598 -0.19190
 C408 C 0.12990 0.79113 -0.29278
 C409 C 0.11918 0.85844 -0.38029
 C410 C 0.10136 0.85945 -0.37287
 C411 C 0.09341 0.79431 -0.27797
 C412 C 0.10347 0.72942 -0.18312
 C413 C 0.09452 0.67324 -0.08186
 C414 C 0.07643 0.67999 -0.07733
 C415 C 0.06670 0.74248 -0.17361
 C416 C 0.07533 0.79847 -0.27418
 H417 H 0.15047 0.90109 -0.47484
 H418 H 0.18434 0.66356 -0.14629
 H419 H 0.18098 0.89154 -0.48332
 H420 H 0.15831 0.60038 -0.04716
 H421 H 0.12773 0.60650 -0.02743
 H422 H 0.12406 0.91276 -0.45592
 H423 H 0.09369 0.91434 -0.44059
 H424 H 0.10110 0.62673 -0.00207
 H425 H 0.07007 0.63820 0.00357
 H426 H 0.06794 0.84948 -0.34738
 C427 C 0.35244 0.59737 -0.41288
 C428 C 0.36232 0.69712 -0.36406
 C429 C 0.35340 0.80746 -0.30764
 C430 C 0.33523 0.81494 -0.29859
 C431 C 0.32559 0.71482 -0.35022
 C432 C 0.33459 0.60726 -0.40900
 C433 C 0.36267 0.90961 -0.26158
 C434 C 0.38062 0.90488 -0.27130
 C435 C 0.39008 0.79613 -0.32468
 C436 C 0.38072 0.69029 -0.36980
 C437 C 0.39005 0.57919 -0.41466
 C438 C 0.40781 0.57056 -0.41534
 C439 C 0.41714 0.67238 -0.37627
 C440 C 0.40861 0.78723 -0.32975
 C441 C 0.41911 0.88565 -0.28496
 C442 C 0.43716 0.86711 -0.27987
 C443 C 0.44521 0.75168 -0.32349
 C444 C 0.43511 0.65668 -0.37658
 H445 H 0.35792 0.51044 -0.45911
 H446 H 0.32873 0.89906 -0.25143
 H447 H 0.32794 0.52971 -0.45726
 H448 H 0.35597 0.99465 -0.21865
 H449 H 0.38677 0.98773 -0.23401
 H450 H 0.38413 0.49502 -0.44773
 H451 H 0.41437 0.48211 -0.44682
 H452 H 0.41381 0.97672 -0.24992
 H453 H 0.44479 0.94235 -0.23858
 H454 H 0.44120 0.56675 -0.40972
 C455 C -0.15586 1.37197 -0.33244
 C456 C -0.14529 1.28101 -0.27434
 C457 C -0.15363 1.18820 -0.21380
 C458 C -0.17179 1.19158 -0.20517
 C459 C -0.18224 1.28323 -0.26266
 C460 C -0.17381 1.37191 -0.32788
 C461 C -0.14381 1.09254 -0.16128
 C462 C -0.12589 1.08592 -0.16874
 C463 C -0.11694 1.17672 -0.22677
 C464 C -0.12679 1.27782 -0.27674
 C465 C -0.11783 1.37270 -0.32664
 C466 C -0.09992 1.36764 -0.33178
 C467 C -0.09014 1.26709 -0.28994
 C468 C -0.09846 1.16988 -0.23696
 C469 C -0.08788 1.06905 -0.19841
 C470 C -0.06998 1.06451 -0.21450
 C471 C -0.06197 1.15983 -0.26834
 C472 C -0.07205 1.26233 -0.30282
 H473 H -0.15074 1.44269 -0.38663
 H474 H -0.17758 1.12216 -0.15252
 H475 H -0.18092 1.44116 -0.38002
 H476 H -0.15006 1.02107 -0.11479
 H477 H -0.11943 1.00854 -0.12621
 H478 H -0.12429 1.45363 -0.36150
 H479 H -0.09366 1.44246 -0.37166
 H480 H -0.09294 0.99186 -0.15579
 H481 H -0.06224 0.98803 -0.17955
 H482 H -0.06577 1.33804 -0.34064
 C483 C 0.65840 0.81565 -0.07054
 C484 C 0.64840 0.74349 -0.16838
 C485 C 0.65732 0.67522 -0.28109
 C486 C 0.67526 0.67703 -0.29308
 C487 C 0.68510 0.75012 -0.19746
 C488 C 0.67632 0.82153 -0.08726
 C489 C 0.64834 0.60632 -0.38405
 C490 C 0.63055 0.60492 -0.38067
 C491 C 0.62085 0.67166 -0.27216
 C492 C 0.62993 0.73918 -0.16164
 C493 C 0.62020 0.80007 -0.04925
 C494 C 0.60230 0.79523 -0.04487
 C495 C 0.59331 0.73117 -0.15281
 C496 C 0.60239 0.67103 -0.26958
 C497 C 0.59255 0.61301 -0.37947
 C498 C 0.57466 0.60764 -0.36978
 C499 C 0.56590 0.66108 -0.25127
 C500 C 0.57525 0.72597 -0.14449
 H501 H 0.65272 0.87071 0.01826
 H502 H 0.68140 0.62612 -0.38367
 H503 H 0.68333 0.87872 -0.01030
 H504 H 0.65519 0.55400 -0.47008
 H505 H 0.62483 0.54867 -0.46474
 H506 H 0.62612 0.85127 0.03824
 H507 H 0.59540 0.84308 0.04380
 H508 H 0.59826 0.57008 -0.47459
 H509 H 0.56765 0.56121 -0.45546
 H510 H 0.56852 0.77009 -0.05281
 C511 C 0.15717 1.13173 -0.18322
 C512 C 0.14410 1.21867 -0.21909
 C513 C 0.14938 1.32378 -0.27625
 C514 C 0.16694 1.34200 -0.29227
 C515 C 0.17997 1.25276 -0.26224
 C516 C 0.17463 1.14803 -0.20533
 C517 C 0.13711 1.40958 -0.32081
 C518 C 0.11960 1.39447 -0.30880
 C519 C 0.11359 1.29312 -0.24919
 C520 C 0.12603 1.20412 -0.20261
 C521 C 0.11997 1.10395 -0.14083
 C522 C 0.10247 1.08560 -0.13507
 C523 C 0.09029 1.16670 -0.18891
 C524 C 0.09555 1.27584 -0.23826
 C525 C 0.08243 1.36327 -0.27334
 C526 C 0.06500 1.33812 -0.26949
 C527 C 0.06020 1.22435 -0.23525
 C528 C 0.07281 1.14015 -0.19178
 H529 H 0.15438 1.04788 -0.14155
 H530 H 0.17018 1.42802 -0.32744
 H531 H 0.18370 1.07409 -0.18263
 H532 H 0.14108 1.48862 -0.36815
 H533 H 0.11108 1.46294 -0.35033
 H534 H 0.12846 1.03657 -0.09730
 H535 H 0.09843 1.00611 -0.08904
 H536 H 0.08514 1.45223 -0.30262
 H537 H 0.05526 1.40655 -0.29709
 H538 H 0.06894 1.05524 -0.15662
 C539 C 0.34206 0.36014 -0.16479
 C540 C 0.35437 0.31181 -0.26707
 C541 C 0.34805 0.25007 -0.39152
 C542 C 0.33029 0.23955 -0.41267
 C543 C 0.31825 0.28001 -0.30697
 C544 C 0.32440 0.34244 -0.18347
 C545 C 0.35945 0.19716 -0.49444
 C546 C 0.37715 0.20177 -0.47650
 C547 C 0.38426 0.26204 -0.35497
 C548 C 0.37266 0.32113 -0.25017
 C549 C 0.37973 0.38899 -0.13337
 C550 C 0.39744 0.39442 -0.11573
 C551 C 0.40889 0.33238 -0.21262
 C552 C 0.40257 0.26701 -0.33546
 C553 C 0.41493 0.21107 -0.43385
 C554 C 0.43268 0.21982 -0.40984
 C555 C 0.43861 0.28161 -0.28619
 C556 C 0.42670 0.33764 -0.18812
 H557 H 0.34568 0.40938 -0.06763
 H558 H 0.32598 0.19871 -0.51322
 H559 H 0.31565 0.37664 -0.09975
 H560 H 0.35461 0.14880 -0.58908
 H561 H 0.38494 0.15754 -0.56090
 H562 H 0.37186 0.44094 -0.05419
 H563 H 0.40230 0.44895 -0.02549
 H564 H 0.41140 0.15990 -0.53021
 H565 H 0.44179 0.17585 -0.48659
 H566 H 0.43137 0.38668 -0.09269
 C567 C -0.14967 0.65858 -0.11214
 C568 C -0.13839 0.70469 -0.20583
 C569 C -0.14601 0.76851 -0.31297
 C570 C -0.16396 0.78303 -0.32634
 C571 C -0.17511 0.74530 -0.22710
 C572 C -0.16761 0.68113 -0.12076
 C573 C -0.13577 0.82037 -0.40582
 C574 C -0.11797 0.81050 -0.39550
 C575 C -0.10957 0.74474 -0.29358
 C576 C -0.11991 0.69114 -0.19675
 C577 C -0.11142 0.62691 -0.09390
 C578 C -0.09351 0.61849 -0.08306
 C579 C -0.08328 0.67068 -0.17589
 C580 C -0.09115 0.73250 -0.28421
 C581 C -0.08020 0.78128 -0.37771
 C582 C -0.06236 0.77188 -0.36216
 C583 C -0.05470 0.71755 -0.25032
 C584 C -0.06520 0.66423 -0.15897
 H585 H -0.14508 0.60688 -0.02900
 H586 H -0.16901 0.82389 -0.41664
 H587 H -0.17544 0.64797 -0.04257
 H588 H -0.14159 0.87160 -0.48615
 H589 H -0.11124 0.85664 -0.46956
 H590 H -0.11827 0.58276 -0.01886
 H591 H -0.08759 0.57140 -0.00016
 H592 H -0.08490 0.83096 -0.46189
 H593 H -0.05459 0.81478 -0.43372
 H594 H -0.05939 0.62192 -0.07174
 C595 C 0.34688 0.69961 0.01645
 C596 C 0.35689 0.76295 0.12192
 C597 C 0.34803 0.82260 0.24017
 C598 C 0.33006 0.81908 0.25112
 C599 C 0.32033 0.75678 0.14570
 C600 C 0.32893 0.69682 0.02857
 C601 C 0.35710 0.88421 0.34862
 C602 C 0.37491 0.88847 0.34354
 C603 C 0.38448 0.83100 0.22880
 C604 C 0.37532 0.76747 0.11588
 C605 C 0.38493 0.70884 0.00203
 C606 C 0.40274 0.71340 -0.00332
 C607 C 0.41181 0.77617 0.10415
 C608 C 0.40294 0.83398 0.22351
 C609 C 0.41304 0.88956 0.33362
 C610 C 0.43108 0.88490 0.32577
 C611 C 0.43956 0.82927 0.20639
 C612 C 0.42987 0.77677 0.09509
 H613 H 0.35246 0.65019 -0.07626
 H614 H 0.32368 0.86263 0.34466
 H615 H 0.32176 0.64785 -0.05433
 H616 H 0.35032 0.92953 0.43924
 H617 H 0.38079 0.93794 0.43204
 H618 H 0.37905 0.65776 -0.08527
 H619 H 0.40957 0.66466 -0.09165
 H620 H 0.40751 0.93432 0.42885
 H621 H 0.43846 0.92347 0.41408
 H622 H 0.43651 0.72995 0.00429
 C623 C -0.15728 1.13293 0.38985
 C624 C -0.14829 1.19521 0.29456
 C625 C -0.15822 1.25526 0.19469
 C626 C -0.17634 1.25159 0.19077
 C627 C -0.18502 1.19054 0.28726
 C628 C -0.17523 1.13113 0.38613
 C629 C -0.15008 1.32151 0.10146
 C630 C -0.13225 1.32817 0.10290
 C631 C -0.12171 1.26852 0.19850
 C632 C -0.12988 1.20115 0.29621
 C633 C -0.11935 1.14072 0.39125
 C634 C -0.10160 1.14946 0.39474
 C635 C -0.09350 1.21762 0.30350
 C636 C -0.10329 1.27488 0.20084
 C637 C -0.09411 1.33405 0.10355
 C638 C -0.07610 1.33672 0.10942
 C639 C -0.06662 1.28155 0.21275
 C640 C -0.07548 1.22395 0.31085
 H641 H -0.15096 1.08692 0.47116
 H642 H -0.18369 1.29791 0.11344
 H643 H -0.18150 1.08650 0.46518
 H644 H -0.15761 1.37046 0.02737
 H645 H -0.12715 1.38263 0.02833
 H646 H -0.12436 1.08456 0.46450
 H647 H -0.09406 1.09996 0.46828
 H648 H -0.10038 1.37610 0.01913
 H649 H -0.06954 1.37953 0.03040
 H650 H -0.06825 1.17820 0.38932
 C651 C 0.64835 0.29640 0.49045
 C652 C 0.63769 0.24499 0.38331
 C653 C 0.64576 0.19053 0.25861
 C654 C 0.66366 0.19722 0.23904
 C655 C 0.67378 0.25587 0.34428
 C656 C 0.66597 0.30051 0.47143
 C657 C 0.63592 0.12880 0.15524
 C658 C 0.61812 0.12671 0.16830
 C659 C 0.60935 0.18867 0.28524
 C660 C 0.61935 0.24654 0.39581
 C661 C 0.61063 0.30679 0.51379
 C662 C 0.59280 0.31691 0.52032
 C663 C 0.58285 0.26824 0.41037
 C664 C 0.59090 0.19779 0.29418
 C665 C 0.58007 0.14088 0.19143
 C666 C 0.56222 0.16279 0.19832
 C667 C 0.55456 0.24359 0.30595
 C668 C 0.56486 0.29225 0.41466
 H669 H 0.64359 0.33474 0.59076
 H670 H 0.66960 0.15859 0.14167
 H671 H 0.67354 0.34013 0.55787
 H672 H 0.64205 0.08182 0.06291
 H673 H 0.61155 0.07770 0.08298
 H674 H 0.61715 0.35152 0.60195
 H675 H 0.58668 0.36590 0.61157
 H676 H 0.58491 0.08018 0.10362
 H677 H 0.55447 0.12042 0.11469
 H678 H 0.55891 0.35099 0.50073
 C679 C 0.15433 0.61118 0.33683
 C680 C 0.14391 0.70187 0.27683
 C681 C 0.15235 0.78748 0.20546
 C682 C 0.17035 0.77647 0.18716
 C683 C 0.18068 0.68714 0.24914
 C684 C 0.17227 0.60572 0.32541
 C685 C 0.14285 0.88491 0.15400
 C686 C 0.12515 0.90124 0.17458
 C687 C 0.11605 0.81698 0.24238
 C688 C 0.12551 0.71294 0.28920
 C689 C 0.11626 0.62313 0.34611
 C690 C 0.09845 0.63639 0.36164
 C691 C 0.08917 0.74083 0.32457
 C692 C 0.09781 0.83310 0.26496
 C693 C 0.08780 0.93832 0.23180
 C694 C 0.07010 0.95089 0.25704
 C695 C 0.06176 0.86022 0.31652
 C696 C 0.07126 0.75415 0.34790
 H697 H 0.14911 0.54650 0.39920
 H698 H 0.17612 0.83911 0.12473
 H699 H 0.17940 0.53904 0.38173
 H700 H 0.14924 0.95132 0.10004
 H701 H 0.11896 0.98074 0.13448
 H702 H 0.12241 0.53930 0.37651
 H703 H 0.09190 0.56462 0.40502
 H704 H 0.09315 1.01256 0.18569
 H705 H 0.06269 1.02936 0.22346
 H706 H 0.06466 0.68183 0.39002
   
