data_POSCAR
  _audit_creation_date              2014-09-24
  _audit_creation_method            'ToBaCCo'
  _symmetry_space_group_name_H-M    'P1'
  _symmetry_Int_Tables_number       1
  _symmetry_cell_setting            triclinic
  loop_
  _symmetry_equiv_pos_as_xyz
 x,y,z
_cell_length_a 44.9551
_cell_length_b 46.0140
_cell_length_c 46.3187
_cell_angle_alpha 89.161300
_cell_angle_beta 87.934700
_cell_angle_gamma 87.676000
loop_
  _atom_site_label
  _atom_site_type_symbol
  _atom_site_fract_x
  _atom_site_fract_y
  _atom_site_fract_z
C1 C 0.26434 0.23166 0.22030
 N2 N 0.26304 0.21128 0.24178
 C3 C 0.24081 0.21260 0.26247
 N4 N 0.21979 0.23464 0.26151
 C5 C 0.22080 0.25519 0.24017
 N6 N 0.24314 0.25351 0.21969
 C7 C 0.72122 -0.23867 0.23923
 N8 N 0.72073 -0.21825 0.26022
 C9 C 0.73970 -0.22078 0.28236
 N10 N 0.75945 -0.24382 0.28339
 C11 C 0.76062 -0.26429 0.26248
 N12 N 0.74133 -0.26153 0.24055
 C13 C 0.73869 0.26531 0.75843
 N14 N 0.74018 0.24378 0.73862
 C15 C 0.76236 0.24253 0.71790
 N16 N 0.78321 0.26314 0.71716
 C17 C 0.78209 0.28486 0.73682
 N18 N 0.75970 0.28570 0.75735
 C19 C 0.28309 -0.25383 0.77733
 N20 N 0.26168 -0.27384 0.77636
 C21 C 0.24186 -0.27307 0.75489
 N22 N 0.24359 -0.25199 0.73418
 C23 C 0.26475 -0.23180 0.73469
 N24 N 0.28442 -0.23285 0.75633
 C25 C 0.73946 -0.23036 0.77752
 N26 N 0.75989 -0.25296 0.77547
 C27 C 0.78049 -0.25447 0.75320
 N28 N 0.78030 -0.23300 0.73269
 C29 C 0.76022 -0.21019 0.73449
 N30 N 0.73999 -0.20897 0.75696
 C31 C 0.27681 0.23639 0.76085
 N32 N 0.25571 0.25833 0.76013
 C33 C 0.23544 0.25984 0.73903
 N34 N 0.23642 0.23900 0.71845
 C35 C 0.25743 0.21688 0.71886
 N36 N 0.27750 0.21580 0.74013
 C37 C 0.26222 -0.26520 0.23398
 N38 N 0.24070 -0.28523 0.23485
 C39 C 0.21932 -0.28520 0.25641
 N40 N 0.21970 -0.26474 0.27726
 C41 C 0.24095 -0.24459 0.27683
 N42 N 0.26210 -0.24498 0.25513
 C43 C 0.71036 0.25817 0.22656
 N44 N 0.70855 0.23948 0.24942
 C45 C 0.72908 0.23932 0.27025
 N46 N 0.75139 0.25841 0.26814
 C47 C 0.75343 0.27747 0.24545
 N48 N 0.73285 0.27700 0.22466
 O49 O 0.27812 0.01432 0.46662
 O50 O 0.27659 -0.03987 0.52578
 O51 O 0.27885 -0.04219 0.46950
 O52 O 0.27505 0.01682 0.52268
 O53 O 0.22598 0.01768 0.52225
 O54 O 0.22978 -0.04114 0.46911
 O55 O 0.22752 -0.03891 0.52541
 O56 O 0.22904 0.01529 0.46613
 Cu57 Cu 0.28207 -0.01286 0.49623
 Cu58 Cu 0.22317 -0.01172 0.49572
 C59 C 0.25388 0.02407 0.45621
 C60 C 0.25181 -0.04867 0.53576
 C61 C 0.25491 -0.05163 0.46005
 C62 C 0.24984 0.02743 0.53149
 O63 O 0.72325 0.03796 0.52966
 O64 O 0.72352 -0.01581 0.47174
 O65 O 0.72460 -0.01878 0.52756
 O66 O 0.72295 0.04087 0.47353
 O67 O 0.77208 0.03976 0.47137
 O68 O 0.77376 -0.01929 0.52576
 O69 O 0.77268 -0.01662 0.46919
 O70 O 0.77237 0.03716 0.52739
 Cu71 Cu 0.71865 0.01118 0.50086
 Cu72 Cu 0.77766 0.01006 0.49821
 C73 C 0.74770 0.04686 0.53840
 C74 C 0.74811 -0.02537 0.46052
 C75 C 0.74950 -0.02915 0.53593
 C76 C 0.74727 0.05054 0.46321
 O77 O 0.47039 0.27268 0.01723
 O78 O 0.52894 0.27299 -0.04041
 O79 O 0.47105 0.27347 -0.03889
 O80 O 0.52805 0.27300 0.01606
 O81 O 0.53085 0.22500 0.01564
 O82 O 0.47251 0.22550 -0.03832
 O83 O 0.53044 0.22501 -0.04044
 O84 O 0.47273 0.22470 0.01785
 Cu85 Cu 0.49948 0.27785 -0.01155
 Cu86 Cu 0.50183 0.22023 -0.01126
 C87 C 0.46156 0.24862 0.02744
 C88 C 0.53958 0.24903 -0.05043
 C89 C 0.46187 0.24962 -0.04792
 C90 C 0.53922 0.24897 0.02522
 O91 O 0.53065 0.72890 0.03612
 O92 O 0.47580 0.73170 -0.02119
 O93 O 0.53366 0.72977 -0.02010
 O94 O 0.47273 0.73015 0.03523
 O95 O 0.47205 0.77809 0.03565
 O96 O 0.53313 0.77771 -0.01969
 O97 O 0.47515 0.77964 -0.02070
 O98 O 0.53007 0.77685 0.03641
 Cu99 Cu 0.50322 0.72534 0.00749
 Cu100 Cu 0.50247 0.78287 0.00797
 C101 C 0.53986 0.75242 0.04598
 C102 C 0.46617 0.75617 -0.03084
 C103 C 0.54391 0.75364 -0.02932
 C104 C 0.46200 0.75416 0.04500
 O105 O 0.01642 0.46564 0.27530
 O106 O -0.04134 0.52446 0.27281
 O107 O -0.04139 0.46799 0.27581
 O108 O 0.01688 0.52213 0.27191
 O109 O 0.01792 0.52018 0.22434
 O110 O -0.04020 0.46596 0.22823
 O111 O -0.04018 0.52258 0.22522
 O112 O 0.01754 0.46360 0.22772
 Cu113 Cu -0.01246 0.49535 0.27872
 Cu114 Cu -0.01111 0.49295 0.22160
 C115 C 0.02673 0.45440 0.25195
 C116 C -0.05077 0.53351 0.24863
 C117 C -0.05064 0.45756 0.25267
 C118 C 0.02748 0.53034 0.24746
 O119 O 0.04037 0.53318 0.74070
 O120 O -0.01815 0.47971 0.73762
 O121 O -0.01779 0.53611 0.74004
 O122 O 0.03973 0.47670 0.73800
 O123 O 0.03750 0.47400 0.78560
 O124 O -0.01989 0.53346 0.78764
 O125 O -0.02030 0.47701 0.78523
 O126 O 0.03809 0.53049 0.78830
 Cu127 Cu 0.01129 0.50676 0.73432
 Cu128 Cu 0.00865 0.50351 0.79146
 C129 C 0.04930 0.54094 0.76503
 C130 C -0.02921 0.46917 0.76093
 C131 C -0.02881 0.54486 0.76418
 C132 C 0.04837 0.46508 0.76146
 C133 C 0.31219 0.20936 0.19945
 C134 C 0.33522 0.20848 0.17833
 C135 C 0.33533 0.22857 0.15524
 C136 C 0.31143 0.24914 0.15327
 C137 C 0.28849 0.25008 0.17439
 C138 C 0.28864 0.23031 0.19781
 C139 C 0.36014 0.22689 0.13327
 C140 C 0.36791 0.24959 0.11653
 C141 C 0.39246 0.24836 0.09427
 C142 C 0.40408 0.27460 0.08408
 C143 C 0.42662 0.27469 0.06254
 C144 C 0.43800 0.24847 0.05057
 C145 C 0.42634 0.22216 0.06066
 C146 C 0.40372 0.22207 0.08216
 H147 H 0.31295 0.19371 0.21713
 H148 H 0.35317 0.19220 0.18018
 H149 H 0.31000 0.26428 0.13525
 H150 H 0.27050 0.26625 0.17220
 H151 H 0.37310 0.20660 0.13197
 H152 H 0.35663 0.27056 0.11986
 H153 H 0.39567 0.29516 0.09283
 H154 H 0.43507 0.29534 0.05521
 H155 H 0.43444 0.20161 0.05167
 H156 H 0.39480 0.20142 0.08866
 C157 C 0.67939 0.78662 0.21567
 C158 C 0.65875 0.78826 0.19379
 C159 C 0.65890 0.76692 0.17246
 C160 C 0.68082 0.74422 0.17299
 C161 C 0.70142 0.74247 0.19489
 C162 C 0.70092 0.76352 0.21674
 C163 C 0.63634 0.76954 0.14983
 C164 C 0.62828 0.74706 0.13410
 C165 C 0.60539 0.74938 0.11175
 C166 C 0.59278 0.72379 0.10262
 C167 C 0.57145 0.72475 0.08137
 C168 C 0.56227 0.75138 0.06868
 C169 C 0.57500 0.77700 0.07762
 C170 C 0.59644 0.77604 0.09877
 H171 H 0.67820 0.80342 0.23185
 H172 H 0.64235 0.80618 0.19372
 H173 H 0.68251 0.72792 0.15638
 H174 H 0.71777 0.72452 0.19455
 H175 H 0.62503 0.79056 0.14729
 H176 H 0.63776 0.72554 0.13851
 H177 H 0.59941 0.70293 0.11204
 H178 H 0.56215 0.70460 0.07492
 H179 H 0.56866 0.79784 0.06801
 H180 H 0.60621 0.79619 0.10436
 C181 C 0.71418 0.28754 -0.19720
 C182 C 0.69168 0.28840 -0.17560
 C183 C 0.66917 0.26814 -0.17502
 C184 C 0.66920 0.24736 -0.19703
 C185 C 0.69175 0.24645 -0.21861
 C186 C 0.71459 0.26644 -0.21888
 C187 C 0.64585 0.26989 -0.15156
 C188 C 0.62939 0.24738 -0.14320
 C189 C 0.60657 0.24875 -0.11927
 C190 C 0.59761 0.22260 -0.10636
 C191 C 0.57598 0.22269 -0.08395
 C192 C 0.56269 0.24902 -0.07399
 C193 C 0.57142 0.27523 -0.08705
 C194 C 0.59300 0.27513 -0.10955
 H195 H 0.73134 0.30337 -0.19678
 H196 H 0.69204 0.30482 -0.15910
 H197 H 0.65169 0.23202 -0.19803
 H198 H 0.69115 0.23013 -0.23517
 H199 H 0.64351 0.29007 -0.13986
 H200 H 0.63370 0.22645 -0.15318
 H201 H 0.60748 0.20197 -0.11356
 H202 H 0.56969 0.20210 -0.07442
 H203 H 0.56135 0.29585 -0.08009
 H204 H 0.59846 0.29572 -0.11950
 C205 C 0.30208 0.72354 -0.17842
 C206 C 0.32242 0.72242 -0.15628
 C207 C 0.34470 0.74280 -0.15521
 C208 C 0.34654 0.76417 -0.17718
 C209 C 0.32617 0.76539 -0.19933
 C210 C 0.30357 0.74509 -0.20031
 C211 C 0.36599 0.74032 -0.13144
 C212 C 0.38233 0.76228 -0.12310
 C213 C 0.40345 0.75982 -0.09918
 C214 C 0.41215 0.78539 -0.08626
 C215 C 0.43235 0.78422 -0.06399
 C216 C 0.44446 0.75738 -0.05419
 C217 C 0.43597 0.73175 -0.06723
 C218 C 0.41583 0.73292 -0.08957
 H219 H 0.28521 0.70738 -0.17824
 H220 H 0.32063 0.70555 -0.13981
 H221 H 0.36395 0.77972 -0.17779
 H222 H 0.32841 0.78218 -0.21581
 H223 H 0.36703 0.71987 -0.11963
 H224 H 0.37930 0.78350 -0.13318
 H225 H 0.40320 0.80640 -0.09337
 H226 H 0.43849 0.80439 -0.05448
 H227 H 0.44516 0.71075 -0.06040
 H228 H 0.41060 0.71274 -0.09952
 C229 C 0.19970 0.30108 0.21773
 C230 C 0.17821 0.32381 0.21678
 C231 C 0.15453 0.32542 0.23732
 C232 C 0.15244 0.30338 0.25863
 C233 C 0.17398 0.28064 0.25961
 C234 C 0.19791 0.27925 0.23922
 C235 C 0.13214 0.34984 0.23514
 C236 C 0.11432 0.35893 0.25733
 C237 C 0.09222 0.38361 0.25511
 C238 C 0.08210 0.39770 0.28048
 C239 C 0.06100 0.42081 0.27947
 C240 C 0.04943 0.43024 0.25300
 C241 C 0.05934 0.41599 0.22759
 C242 C 0.08037 0.39283 0.22862
 H243 H 0.21774 0.30068 0.20159
 H244 H 0.18021 0.34032 0.19998
 H245 H 0.13402 0.30322 0.27428
 H246 H 0.17174 0.26403 0.27627
 H247 H 0.13157 0.36157 0.21474
 H248 H 0.11683 0.34898 0.27846
 H249 H 0.09063 0.39088 0.30119
 H250 H 0.05374 0.43125 0.29946
 H251 H 0.05058 0.42251 0.20690
 H252 H 0.08672 0.38195 0.20867
 C253 C 0.19702 0.70699 0.73273
 C254 C 0.17517 0.68634 0.73168
 C255 C 0.17426 0.66330 0.75182
 C256 C 0.19611 0.66107 0.77287
 C257 C 0.21794 0.68179 0.77397
 C258 C 0.21864 0.70502 0.75393
 C259 C 0.15080 0.64178 0.74946
 C260 C 0.14216 0.62405 0.77117
 C261 C 0.11832 0.60291 0.76876
 C262 C 0.10417 0.59261 0.79417
 C263 C 0.08172 0.57256 0.79298
 C264 C 0.07301 0.56225 0.76629
 C265 C 0.08740 0.57226 0.74083
 C266 C 0.10991 0.59224 0.74202
 H267 H 0.19689 0.72453 0.71688
 H268 H 0.15881 0.68847 0.71509
 H269 H 0.19690 0.64316 0.78822
 H270 H 0.23445 0.67942 0.79040
 H271 H 0.13931 0.64173 0.72934
 H272 H 0.15172 0.62589 0.79212
 H273 H 0.11037 0.60023 0.81505
 H274 H 0.07117 0.56519 0.81301
 H275 H 0.08146 0.56446 0.71995
 H276 H 0.12093 0.59875 0.72197
 C277 C -0.19790 0.70974 0.28577
 C278 C -0.17670 0.68674 0.28646
 C279 C -0.17519 0.66559 0.26491
 C280 C -0.19595 0.66758 0.24285
 C281 C -0.21713 0.69065 0.24206
 C282 C -0.21837 0.71220 0.26343
 C283 C -0.15216 0.64166 0.26677
 C284 C -0.14296 0.62497 0.24439
 C285 C -0.11938 0.60154 0.24629
 C286 C -0.10500 0.59162 0.22067
 C287 C -0.08271 0.56957 0.22137
 C288 C -0.07434 0.55688 0.24778
 C289 C -0.08895 0.56651 0.27342
 C290 C -0.11135 0.58843 0.27271
 H291 H -0.19802 0.72565 0.30278
 H292 H -0.16121 0.68561 0.30387
 H293 H -0.19632 0.65125 0.22635
 H294 H -0.23261 0.69143 0.22464
 H295 H -0.14141 0.63890 0.28720
 H296 H -0.15182 0.62937 0.22331
 H297 H -0.11091 0.60111 0.20000
 H298 H -0.07196 0.56256 0.20122
 H299 H -0.08330 0.55688 0.29409
 H300 H -0.12254 0.59455 0.29289
 C301 C -0.19761 0.32875 0.75634
 C302 C -0.17586 0.34956 0.75606
 C303 C -0.15178 0.34808 0.73582
 C304 C -0.15055 0.32590 0.71531
 C305 C -0.17236 0.30508 0.71548
 C306 C -0.19614 0.30604 0.73617
 C307 C -0.12805 0.36958 0.73501
 C308 C -0.12120 0.38492 0.75811
 C309 C -0.09735 0.40627 0.75786
 C310 C -0.08610 0.41427 0.78435
 C311 C -0.06396 0.43462 0.78535
 C312 C -0.05264 0.44758 0.75982
 C313 C -0.06405 0.43981 0.73328
 C314 C -0.08626 0.41948 0.73228
 H315 H -0.21566 0.33067 0.77241
 H316 H -0.17833 0.36695 0.77151
 H317 H -0.13243 0.32447 0.69926
 H318 H -0.17036 0.28816 0.69943
 H319 H -0.11494 0.37153 0.71508
 H320 H -0.13253 0.38085 0.77869
 H321 H -0.09441 0.40465 0.80439
 H322 H -0.05572 0.44018 0.80616
 H323 H -0.05599 0.44962 0.71325
 H324 H -0.09495 0.41470 0.71149
 C325 C 0.21755 0.19243 0.30817
 C326 C 0.21644 0.17147 0.33027
 C327 C 0.23735 0.14800 0.33073
 C328 C 0.25910 0.14557 0.30816
 C329 C 0.26025 0.16657 0.28609
 C330 C 0.23955 0.19030 0.28586
 C331 C 0.23515 0.12624 0.35458
 C332 C 0.25808 0.10870 0.36256
 C333 C 0.25609 0.08724 0.38669
 C334 C 0.28248 0.07714 0.39942
 C335 C 0.28178 0.05671 0.42202
 C336 C 0.25460 0.04578 0.43231
 C337 C 0.22817 0.05561 0.41939
 C338 C 0.22888 0.07601 0.39673
 H339 H 0.20116 0.21034 0.30865
 H340 H 0.19928 0.17372 0.34721
 H341 H 0.27498 0.12730 0.30709
 H342 H 0.27728 0.16404 0.26907
 H343 H 0.21421 0.12588 0.36681
 H344 H 0.27976 0.11098 0.35206
 H345 H 0.30376 0.08520 0.39195
 H346 H 0.30256 0.04951 0.43143
 H347 H 0.20690 0.04737 0.42661
 H348 H 0.20812 0.08240 0.38691
 C349 C 0.78500 0.21883 0.67338
 C350 C 0.78607 0.19665 0.65302
 C351 C 0.76590 0.17415 0.65509
 C352 C 0.74501 0.17392 0.67846
 C353 C 0.74386 0.19614 0.69875
 C354 C 0.76375 0.21892 0.69641
 C355 C 0.76788 0.15114 0.63292
 C356 C 0.74521 0.13424 0.62723
 C357 C 0.74677 0.11173 0.60456
 C358 C 0.72004 0.10222 0.59392
 C359 C 0.72032 0.08110 0.57255
 C360 C 0.74742 0.06886 0.56142
 C361 C 0.77420 0.07798 0.57238
 C362 C 0.77391 0.09907 0.59382
 H363 H 0.80074 0.23596 0.67095
 H364 H 0.80258 0.19722 0.63542
 H365 H 0.72977 0.15646 0.68154
 H366 H 0.72746 0.19529 0.71642
 H367 H 0.78830 0.14931 0.61988
 H368 H 0.72390 0.13793 0.63845
 H369 H 0.69881 0.11137 0.60200
 H370 H 0.69928 0.07449 0.56465
 H371 H 0.79543 0.06874 0.56448
 H372 H 0.79498 0.10498 0.60211
 C373 C 0.28667 -0.18672 0.71290
 C374 C 0.28781 -0.16526 0.69122
 C375 C 0.26850 -0.16545 0.66807
 C376 C 0.24842 -0.18803 0.66669
 C377 C 0.24722 -0.20941 0.68836
 C378 C 0.26625 -0.20900 0.71177
 C379 C 0.27064 -0.14247 0.64535
 C380 C 0.24821 -0.13490 0.62804
 C381 C 0.25006 -0.11232 0.60492
 C382 C 0.22346 -0.10030 0.59404
 C383 C 0.22400 -0.07956 0.57171
 C384 C 0.25123 -0.07046 0.55960
 C385 C 0.27789 -0.08257 0.57034
 C386 C 0.27736 -0.10336 0.59265
 H387 H 0.30174 -0.18580 0.73054
 H388 H 0.30372 -0.14832 0.69264
 H389 H 0.23394 -0.18970 0.64870
 H390 H 0.23147 -0.22643 0.68656
 H391 H 0.29101 -0.13073 0.64385
 H392 H 0.22694 -0.14483 0.63147
 H393 H 0.20212 -0.10697 0.60288
 H394 H 0.20305 -0.07072 0.56390
 H395 H 0.29925 -0.07621 0.56130
 H396 H 0.29838 -0.11270 0.59967
 C397 C 0.74677 -0.20677 0.33346
 C398 C 0.74594 -0.18607 0.35527
 C399 C 0.73813 -0.15691 0.34910
 C400 C 0.73026 -0.14883 0.32092
 C401 C 0.73032 -0.16969 0.29925
 C402 C 0.73886 -0.19879 0.30528
 C403 C 0.73747 -0.13553 0.37258
 C404 C 0.74725 -0.10863 0.36862
 C405 C 0.74735 -0.08765 0.39243
 C406 C 0.77121 -0.06914 0.39427
 C407 C 0.77178 -0.04919 0.41672
 C408 C 0.74801 -0.04686 0.43719
 C409 C 0.72383 -0.06501 0.43499
 C410 C 0.72361 -0.08540 0.41296
 H411 H 0.75321 -0.22911 0.33872
 H412 H 0.75183 -0.19275 0.37692
 H413 H 0.72359 -0.12653 0.31578
 H414 H 0.72412 -0.16301 0.27770
 H415 H 0.73062 -0.14279 0.39408
 H416 H 0.75716 -0.10241 0.34787
 H417 H 0.78961 -0.07040 0.37852
 H418 H 0.79055 -0.03526 0.41781
 H419 H 0.70520 -0.06361 0.45047
 H420 H 0.70464 -0.09903 0.41168
 C421 C 0.69627 0.79380 -0.19788
 C422 C 0.67439 0.79456 -0.17567
 C423 C 0.67327 0.77233 -0.15467
 C424 C 0.69516 0.74958 -0.15591
 C425 C 0.71705 0.74874 -0.17816
 C426 C 0.71785 0.77074 -0.19965
 C427 C 0.64932 0.77412 -0.13172
 C428 C 0.64037 0.75117 -0.11591
 C429 C 0.61567 0.75274 -0.09371
 C430 C 0.60233 0.72686 -0.08487
 C431 C 0.57905 0.72714 -0.06403
 C432 C 0.56859 0.75337 -0.05141
 C433 C 0.58213 0.77928 -0.05995
 C434 C 0.60551 0.77899 -0.08072
 H435 H 0.69601 0.81133 -0.21375
 H436 H 0.65803 0.81251 -0.17510
 H437 H 0.69583 0.73252 -0.13961
 H438 H 0.73336 0.73075 -0.17839
 H439 H 0.63765 0.79498 -0.12910
 H440 H 0.65034 0.72984 -0.12030
 H441 H 0.60982 0.70631 -0.09428
 H442 H 0.56920 0.70677 -0.05788
 H443 H 0.57483 0.79981 -0.05038
 H444 H 0.61573 0.79932 -0.08606
 C445 C 0.32203 0.21346 -0.21645
 C446 C 0.34299 0.21228 -0.19487
 C447 C 0.34149 0.23261 -0.17253
 C448 C 0.31802 0.25385 -0.17185
 C449 C 0.29710 0.25509 -0.19348
 C450 C 0.29891 0.23498 -0.21611
 C451 C 0.36432 0.23046 -0.15016
 C452 C 0.37099 0.25279 -0.13355
 C453 C 0.39436 0.25102 -0.11170
 C454 C 0.40601 0.27697 -0.10236
 C455 C 0.42792 0.27651 -0.08171
 C456 C 0.43862 0.25001 -0.06979
 C457 C 0.42676 0.22401 -0.07884
 C458 C 0.40476 0.22447 -0.09946
 H459 H 0.32406 0.19755 -0.23347
 H460 H 0.36063 0.19553 -0.19579
 H461 H 0.31535 0.26929 -0.15450
 H462 H 0.27937 0.27173 -0.19233
 H463 H 0.37709 0.21010 -0.14861
 H464 H 0.36006 0.27387 -0.13697
 H465 H 0.39825 0.29772 -0.11121
 H466 H 0.43650 0.29695 -0.07515
 H467 H 0.43430 0.20326 -0.06983
 H468 H 0.39573 0.20403 -0.10527
 C469 C 0.30687 0.75507 0.21085
 C470 C 0.32882 0.75490 0.18868
 C471 C 0.32868 0.73449 0.16637
 C472 C 0.30642 0.71395 0.16714
 C473 C 0.28447 0.71402 0.18932
 C474 C 0.28429 0.73464 0.21155
 C475 C 0.35182 0.73316 0.14263
 C476 C 0.36859 0.75563 0.13471
 C477 C 0.39200 0.75435 0.11121
 C478 C 0.40203 0.78057 0.09924
 C479 C 0.42457 0.78054 0.07764
 C480 C 0.43775 0.75422 0.06756
 C481 C 0.42785 0.72795 0.07958
 C482 C 0.40535 0.72797 0.10125
 H483 H 0.30788 0.77117 0.22757
 H484 H 0.34612 0.77048 0.18956
 H485 H 0.30592 0.69779 0.15041
 H486 H 0.26768 0.69782 0.18894
 H487 H 0.35406 0.71316 0.13063
 H488 H 0.36445 0.77641 0.14502
 H489 H 0.39236 0.80121 0.10664
 H490 H 0.43172 0.80118 0.06891
 H491 H 0.43774 0.70729 0.07250
 H492 H 0.39909 0.70728 0.11044
 C493 C 0.65893 0.24953 0.21068
 C494 C 0.63769 0.24977 0.18936
 C495 C 0.64545 0.25756 0.16079
 C496 C 0.67463 0.26588 0.15394
 C497 C 0.69567 0.26636 0.17541
 C498 C 0.68806 0.25800 0.20393
 C499 C 0.62252 0.25791 0.13875
 C500 C 0.62846 0.24898 0.11170
 C501 C 0.60532 0.24910 0.08986
 C502 C 0.60497 0.22613 0.07032
 C503 C 0.58320 0.22582 0.04951
 C504 C 0.56202 0.24898 0.04735
 C505 C 0.56281 0.27229 0.06652
 C506 C 0.58410 0.27224 0.08776
 H507 H 0.65243 0.24321 0.23255
 H508 H 0.61524 0.24354 0.19511
 H509 H 0.68099 0.27255 0.13214
 H510 H 0.71798 0.27299 0.16965
 H511 H 0.59982 0.26412 0.14545
 H512 H 0.65039 0.23979 0.10584
 H513 H 0.62130 0.20822 0.07145
 H514 H 0.58319 0.20772 0.03484
 H515 H 0.54674 0.29041 0.06529
 H516 H 0.58429 0.29051 0.10221
 C517 C -0.17626 0.72110 0.72893
 C518 C -0.15459 0.69846 0.72767
 C519 C -0.15392 0.67647 0.74895
 C520 C -0.17602 0.67720 0.77127
 C521 C -0.19769 0.69989 0.77263
 C522 C -0.19807 0.72233 0.75157
 C523 C -0.13028 0.65300 0.74657
 C524 C -0.12187 0.63589 0.76882
 C525 C -0.09778 0.61284 0.76667
 C526 C -0.08534 0.60202 0.79224
 C527 C -0.06289 0.58009 0.79145
 C528 C -0.05235 0.56837 0.76499
 C529 C -0.06488 0.57901 0.73936
 C530 C -0.08745 0.60085 0.74015
 H531 H -0.17567 0.73771 0.71213
 H532 H -0.13806 0.69831 0.71005
 H533 H -0.17706 0.66019 0.78757
 H534 H -0.21419 0.69968 0.79026
 H535 H -0.11847 0.65098 0.72590
 H536 H -0.13199 0.63962 0.79005
 H537 H -0.09297 0.61063 0.81298
 H538 H -0.05379 0.57233 0.81161
 H539 H -0.05750 0.57019 0.71864
 H540 H -0.09697 0.60774 0.71996
 C541 C -0.22195 0.31770 0.22044
 C542 C -0.19967 0.33802 0.21889
 C543 C -0.17861 0.33900 0.24042
 C544 C -0.17986 0.31860 0.26334
 C545 C -0.20219 0.29827 0.26498
 C546 C -0.22372 0.29758 0.24363
 C547 C -0.15545 0.36109 0.23766
 C548 C -0.13978 0.36993 0.25983
 C549 C -0.11710 0.39251 0.25711
 C550 C -0.10871 0.40635 0.28220
 C551 C -0.08726 0.42754 0.28079
 C552 C -0.07360 0.43533 0.25418
 C553 C -0.08176 0.42133 0.22907
 C554 C -0.10311 0.40004 0.23049
 H555 H -0.23785 0.31798 0.20341
 H556 H -0.19907 0.35325 0.20084
 H557 H -0.16348 0.31787 0.27988
 H558 H -0.20242 0.28305 0.28304
 H559 H -0.15250 0.37143 0.21669
 H560 H -0.14460 0.36144 0.28132
 H561 H -0.11889 0.40084 0.30301
 H562 H -0.08141 0.43784 0.30056
 H563 H -0.07138 0.42657 0.20828
 H564 H -0.10803 0.38928 0.21074
 C565 C 0.19027 0.28502 0.71806
 C566 C 0.16874 0.30786 0.71790
 C567 C 0.16889 0.33011 0.73830
 C568 C 0.19155 0.32940 0.75853
 C569 C 0.21300 0.30658 0.75874
 C570 C 0.21259 0.28404 0.73859
 C571 C 0.14572 0.35402 0.73726
 C572 C 0.13774 0.37066 0.76006
 C573 C 0.11459 0.39460 0.75945
 C574 C 0.10179 0.40448 0.78579
 C575 C 0.08031 0.42729 0.78645
 C576 C 0.07121 0.44093 0.76071
 C577 C 0.08419 0.43127 0.73431
 C578 C 0.10572 0.40845 0.73365
 H579 H 0.18933 0.26812 0.70214
 H580 H 0.15176 0.30801 0.70188
 H581 H 0.19322 0.34663 0.77394
 H582 H 0.23006 0.30676 0.77464
 H583 H 0.13403 0.35691 0.71735
 H584 H 0.14756 0.36591 0.78067
 H585 H 0.10837 0.39442 0.80599
 H586 H 0.07083 0.43423 0.80716
 H587 H 0.07786 0.44149 0.71412
 H588 H 0.11566 0.40221 0.71295
 C589 C 0.17477 0.69436 0.27944
 C590 C 0.15277 0.67376 0.28043
 C591 C 0.15224 0.65225 0.25934
 C592 C 0.17463 0.65156 0.23727
 C593 C 0.19666 0.67224 0.23618
 C594 C 0.19710 0.69400 0.25727
 C595 C 0.12853 0.63066 0.26186
 C596 C 0.12078 0.61383 0.24014
 C597 C 0.09673 0.59262 0.24287
 C598 C 0.08404 0.58300 0.21763
 C599 C 0.06153 0.56288 0.21909
 C600 C 0.05121 0.55181 0.24590
 C601 C 0.06408 0.56117 0.27117
 C602 C 0.08669 0.58119 0.26971
 H603 H 0.17414 0.71056 0.29621
 H604 H 0.13598 0.67472 0.29781
 H605 H 0.17570 0.63487 0.22105
 H606 H 0.21349 0.67091 0.21887
 H607 H 0.11616 0.62975 0.28229
 H608 H 0.13135 0.61645 0.21897
 H609 H 0.09149 0.59119 0.19666
 H610 H 0.05218 0.55605 0.19919
 H611 H 0.05690 0.55278 0.29214
 H612 H 0.09649 0.58712 0.28965
 C613 C 0.75078 -0.15835 0.71931
 C614 C 0.75128 -0.13620 0.69834
 C615 C 0.76043 -0.14235 0.66975
 C616 C 0.76992 -0.17090 0.66257
 C617 C 0.77018 -0.19291 0.68371
 C618 C 0.76038 -0.18688 0.71222
 C619 C 0.76077 -0.11854 0.64802
 C620 C 0.75218 -0.12210 0.62097
 C621 C 0.75169 -0.09802 0.59952
 C622 C 0.72815 -0.09518 0.58049
 C623 C 0.72719 -0.07251 0.56007
 C624 C 0.75029 -0.05286 0.55774
 C625 C 0.77421 -0.05610 0.57636
 C626 C 0.77477 -0.07831 0.59728
 H627 H 0.74335 -0.15308 0.74119
 H628 H 0.74411 -0.11428 0.70435
 H629 H 0.77762 -0.17607 0.64076
 H630 H 0.77770 -0.21472 0.67769
 H631 H 0.76639 -0.09713 0.65500
 H632 H 0.74345 -0.14266 0.61488
 H633 H 0.71028 -0.11030 0.58174
 H634 H 0.70863 -0.07060 0.54580
 H635 H 0.79230 -0.04123 0.57497
 H636 H 0.79348 -0.08039 0.61136
 C637 C 0.21957 -0.22264 0.32271
 C638 C 0.21926 -0.20161 0.34417
 C639 C 0.24033 -0.17990 0.34340
 C640 C 0.26162 -0.17948 0.32034
 C641 C 0.26195 -0.20057 0.29886
 C642 C 0.24091 -0.22239 0.29977
 C643 C 0.23841 -0.15760 0.36631
 C644 C 0.26098 -0.14088 0.37279
 C645 C 0.25864 -0.11845 0.39558
 C646 C 0.28486 -0.10907 0.40743
 C647 C 0.28370 -0.08756 0.42852
 C648 C 0.25624 -0.07482 0.43813
 C649 C 0.22999 -0.08405 0.42614
 C650 C 0.23115 -0.10548 0.40502
 H651 H 0.20297 -0.23906 0.32411
 H652 H 0.20246 -0.20233 0.36150
 H653 H 0.27768 -0.16264 0.31836
 H654 H 0.27855 -0.19956 0.28138
 H655 H 0.21778 -0.15589 0.37904
 H656 H 0.28251 -0.14438 0.36193
 H657 H 0.30634 -0.11846 0.40038
 H658 H 0.30435 -0.08086 0.43722
 H659 H 0.20850 -0.07444 0.43281
 H660 H 0.21049 -0.11125 0.39578
 C661 C 0.70529 0.19735 0.29592
 C662 C 0.70430 0.17669 0.31830
 C663 C 0.72551 0.17607 0.33981
 C664 C 0.74725 0.19729 0.33899
 C665 C 0.74827 0.21795 0.31656
 C666 C 0.72746 0.21807 0.29461
 C667 C 0.72388 0.15323 0.36272
 C668 C 0.74723 0.14426 0.37828
 C669 C 0.74623 0.12034 0.40013
 C670 C 0.77320 0.10674 0.40828
 C671 C 0.77352 0.08409 0.42869
 C672 C 0.74680 0.07455 0.44157
 C673 C 0.71977 0.08837 0.43373
 C674 C 0.71945 0.11111 0.41335
 H675 H 0.68878 0.19686 0.27950
 H676 H 0.68713 0.16083 0.31855
 H677 H 0.76336 0.19829 0.35569
 H678 H 0.76543 0.23380 0.31644
 H679 H 0.70312 0.14225 0.36535
 H680 H 0.76867 0.15352 0.37377
 H681 H 0.79417 0.11352 0.39865
 H682 H 0.79476 0.07400 0.43431
 H683 H 0.69883 0.08175 0.44351
 H684 H 0.69823 0.12157 0.40848
 C685 C 0.27997 0.17095 0.69752
 C686 C 0.28135 0.14952 0.67644
 C687 C 0.26142 0.15054 0.65380
 C688 C 0.24025 0.17390 0.65243
 C689 C 0.23884 0.19538 0.67358
 C690 C 0.25866 0.19414 0.69641
 C691 C 0.26418 0.12732 0.63184
 C692 C 0.24227 0.12075 0.61442
 C693 C 0.24505 0.09686 0.59316
 C694 C 0.21900 0.08490 0.58356
 C695 C 0.22053 0.06234 0.56361
 C696 C 0.24823 0.05134 0.55263
 C697 C 0.27433 0.06358 0.56189
 C698 C 0.27279 0.08618 0.58180
 H699 H 0.29568 0.16928 0.71470
 H700 H 0.29803 0.13195 0.67792
 H701 H 0.22507 0.17607 0.63488
 H702 H 0.22233 0.21307 0.67190
 H703 H 0.28470 0.11417 0.63126
 H704 H 0.22078 0.13209 0.61674
 H705 H 0.19734 0.09287 0.59172
 H706 H 0.19998 0.05350 0.55683
 H707 H 0.29600 0.05585 0.55358
 H708 H 0.29338 0.09545 0.58778
   
