data_POSCAR
  _audit_creation_date              2014-09-24
  _audit_creation_method            'ToBaCCo'
  _symmetry_space_group_name_H-M    'P1'
  _symmetry_Int_Tables_number       1
  _symmetry_cell_setting            triclinic
  loop_
  _symmetry_equiv_pos_as_xyz
 x,y,z
_cell_length_a 18.4900
_cell_length_b 17.7404
_cell_length_c 39.7394
_cell_angle_alpha 91.756900
_cell_angle_beta 92.521800
_cell_angle_gamma 117.769300
loop_
  _atom_site_label
  _atom_site_type_symbol
  _atom_site_fract_x
  _atom_site_fract_y
  _atom_site_fract_z
C1 C -0.03640 -0.07665 0.46019
 C2 C 0.01949 -0.02888 0.48699
 C3 C 0.03234 -0.06983 0.51431
 C4 C -0.01273 -0.15853 0.51617
 C5 C -0.07343 -0.20569 0.49003
 C6 C -0.08546 -0.16497 0.46188
 C7 C 0.05345 0.06425 0.48957
 C8 C 0.02087 0.09988 0.51248
 C9 C 0.05017 0.18798 0.51583
 C10 C 0.11229 0.24075 0.49544
 C11 C 0.14602 0.20596 0.47243
 C12 C 0.11585 0.11694 0.46946
 H13 H -0.04619 -0.04382 0.43928
 H14 H 0.07615 -0.03136 0.53481
 H15 H -0.02757 0.05851 0.52784
 H16 H 0.13904 0.08832 0.45127
 H17 H -0.10814 -0.27418 0.49020
 H18 H 0.13374 0.30902 0.49700
 C19 C 1.06652 -0.04012 0.14121
 C20 C 1.02435 -0.01614 0.16407
 C21 C 1.06717 0.05451 0.18675
 C22 C 1.15244 0.10190 0.18692
 C23 C 1.19449 0.07809 0.16359
 C24 C 1.15227 0.00562 0.14091
 C25 C 0.93541 -0.06753 0.16532
 C26 C 0.90413 -0.13177 0.18830
 C27 C 0.81947 -0.18200 0.18978
 C28 C 0.76638 -0.16843 0.16719
 C29 C 0.79700 -0.10342 0.14437
 C30 C 0.88210 -0.05292 0.14354
 H31 H 1.03214 -0.09566 0.12406
 H32 H 1.03393 0.07188 0.20458
 H33 H 0.94592 -0.14216 0.20518
 H34 H 0.90728 -0.00403 0.12553
 H35 H 1.25930 0.11873 0.16240
 H36 H 0.70085 -0.20907 0.16693
 C37 C 0.07652 1.03750 0.86153
 C38 C 0.01365 1.00539 0.83575
 C39 C 0.00846 0.94324 0.81171
 C40 C 0.06704 0.91399 0.81306
 C41 C 0.13015 0.94711 0.83874
 C42 C 0.13454 1.00746 0.86391
 C43 C -0.04819 1.03539 0.83472
 C44 C -0.04517 1.09400 0.81129
 C45 C -0.10413 1.12278 0.81054
 C46 C -0.16652 1.09150 0.83317
 C47 C -0.16906 1.03415 0.85767
 C48 C -0.10934 1.00621 0.85778
 H49 H 0.07875 1.08456 0.88021
 H50 H -0.03995 0.91933 0.79174
 H51 H 0.00221 1.11586 0.79348
 H52 H -0.10962 0.96192 0.87607
 H53 H 0.17651 0.92628 0.83816
 H54 H -0.21193 1.11345 0.83118
 O55 O 0.59086 0.11473 -0.02930
 O56 O 0.47904 0.10327 0.04452
 O57 O 0.61869 0.10474 0.03553
 O58 O 0.43840 0.07159 -0.02123
 O59 O 0.39651 -0.06726 -0.02130
 O60 O 0.56598 -0.03526 0.03623
 O61 O 0.42644 -0.03704 0.04323
 O62 O 0.55110 -0.02355 -0.02987
 Cu63 Cu 0.53592 0.11191 0.00758
 Cu64 Cu 0.48190 -0.05267 0.00671
 C65 C 0.59076 0.04896 -0.04236
 C66 C 0.43362 0.03272 0.05653
 C67 C 0.62156 0.03860 0.04586
 C68 C 0.38789 -0.00506 -0.03150
 O69 O -0.10155 0.50826 0.63065
 O70 O -0.06448 0.39692 0.69862
 O71 O -0.08865 0.53253 0.69641
 O72 O -0.03224 0.40990 0.63420
 O73 O 0.09643 0.51042 0.64163
 O74 O 0.04183 0.62776 0.70227
 O75 O 0.06588 0.49258 0.70509
 O76 O 0.02742 0.60882 0.63584
 Cu77 Cu -0.08296 0.45288 0.66466
 Cu78 Cu 0.06914 0.56905 0.67194
 C79 C -0.04443 0.57641 0.62114
 C80 C 0.00587 0.42338 0.71328
 C81 C -0.03134 0.60272 0.70969
 C82 C 0.04279 0.44131 0.62714
 O83 O 0.51303 0.57613 0.30411
 O84 O 0.40484 0.42053 0.36466
 O85 O 0.53414 0.56828 0.36995
 O86 O 0.41021 0.41128 0.29954
 O87 O 0.50399 0.36712 0.29916
 O88 O 0.62647 0.52262 0.36676
 O89 O 0.49558 0.37276 0.36427
 O90 O 0.60620 0.53195 0.30124
 Cu91 Cu 0.45719 0.49900 0.33452
 Cu92 Cu 0.56638 0.44550 0.33257
 C93 C 0.57707 0.58120 0.29204
 C94 C 0.43028 0.36989 0.37502
 C95 C 0.60195 0.57142 0.38024
 C96 C 0.43661 0.36146 0.28779
 C97 C 0.01364 0.22241 0.54045
 C98 C 0.05735 0.29754 0.55742
 C99 C 0.02173 0.32947 0.58316
 C100 C 0.07065 0.40055 0.60175
 H101 H 0.12168 0.33533 0.55314
 H102 H -0.04333 0.29578 0.58674
 H103 H -0.04920 0.18241 0.54641
 H104 H 0.13560 0.43259 0.59770
 C105 C 0.78823 0.75115 0.21467
 C106 C 0.71616 0.72709 0.22803
 C107 C 0.68523 0.66167 0.25317
 C108 C 0.61526 0.64514 0.26702
 H109 H 0.67943 0.75781 0.22100
 H110 H 0.71890 0.62769 0.26023
 H111 H 0.82709 0.72415 0.22340
 H112 H 0.58342 0.68089 0.25970
 C113 C 0.19464 0.03844 -0.10885
 C114 C 0.23781 -0.00132 -0.09923
 C115 C 0.29941 0.02979 -0.07040
 C116 C 0.32021 -0.02582 -0.05683
 H117 H 0.22501 -0.06193 -0.11145
 H118 H 0.32846 0.09615 -0.06126
 H119 H 0.20280 0.09392 -0.09358
 H120 H 0.28745 -0.09224 -0.06607
 C121 C 0.00553 0.80477 0.54418
 C122 C -0.03726 0.72330 0.55185
 C123 C -0.01259 0.69121 0.58168
 C124 C -0.06372 0.61506 0.59225
 H125 H -0.09224 0.67941 0.53707
 H126 H 0.04657 0.72973 0.59504
 H127 H 0.05749 0.84608 0.56131
 H128 H -0.12354 0.57858 0.57909
 C129 C 0.19567 0.17613 0.21161
 C130 C 0.27337 0.20372 0.22315
 C131 C 0.31462 0.27472 0.24892
 C132 C 0.39054 0.29538 0.26086
 H133 H 0.30696 0.17132 0.21455
 H134 H 0.28289 0.30824 0.25854
 H135 H 0.16124 0.20587 0.22197
 H136 H 0.42036 0.25990 0.25111
 C137 C 0.77303 0.00521 -0.11742
 C138 C 0.71855 0.03360 -0.11218
 C139 C 0.66735 0.00949 -0.08297
 C140 C 0.63605 0.05985 -0.07275
 H141 H 0.71469 0.08063 -0.12767
 H142 H 0.65983 -0.04468 -0.06882
 H143 H 0.77549 -0.03981 -0.10010
 H144 H 0.64905 0.11668 -0.08619
 C145 C 0.19186 -0.02144 0.11739
 C146 C 0.27327 0.00903 0.11739
 C147 C 0.31201 -0.01290 0.08970
 C148 C 0.39211 0.03525 0.08675
 H149 H 0.31376 0.05369 0.13722
 H150 H 0.27487 -0.06157 0.07023
 H151 H 0.15409 -0.07009 0.09797
 H152 H 0.42679 0.08812 0.10506
 C153 C 0.85627 0.79010 0.43507
 C154 C 0.78750 0.71724 0.43821
 C155 C 0.73420 0.66967 0.40828
 C156 C 0.65252 0.63054 0.40853
 H157 H 0.76935 0.69243 0.46273
 H158 H 0.76299 0.66504 0.38565
 H159 H 0.86501 0.81855 0.41080
 H160 H 0.62291 0.64028 0.42995
 C161 C -0.10513 0.18233 0.78547
 C162 C -0.03768 0.24577 0.77414
 C163 C -0.04607 0.30165 0.74926
 C164 C 0.01772 0.37216 0.73955
 H165 H 0.02271 0.25703 0.78340
 H166 H -0.10712 0.28381 0.73841
 H167 H -0.16450 0.17600 0.77718
 H168 H 0.07889 0.39153 0.75056
 C169 C 0.73797 -0.09461 0.12054
 C170 C 0.75102 -0.02243 0.10605
 C171 C 0.68658 -0.02364 0.08252
 C172 C 0.68927 0.04632 0.06936
 H173 H 0.80720 0.03633 0.11168
 H174 H 0.63405 -0.08520 0.07592
 H175 H 0.67901 -0.15075 0.11544
 H176 H 0.74035 0.10867 0.07611
 C177 C 0.20786 0.26447 0.45039
 C178 C 0.26455 0.24957 0.43596
 C179 C 0.31950 0.31215 0.41323
 C180 C 0.38226 0.30725 0.39944
 H181 H 0.27010 0.19260 0.44059
 H182 H 0.30683 0.36423 0.40717
 H183 H 0.20736 0.32444 0.44632
 H184 H 0.39730 0.25697 0.40570
 C185 C 0.06823 0.85311 0.78710
 C186 C 0.00149 0.78794 0.77164
 C187 C 0.01251 0.73019 0.74731
 C188 C -0.04880 0.65670 0.73373
 H189 H -0.05944 0.77615 0.77749
 H190 H 0.07457 0.74874 0.74061
 H191 H 0.12797 0.85968 0.78192
 H192 H -0.11121 0.63650 0.74024
   
