data_POSCAR
  _audit_creation_date              2014-09-24
  _audit_creation_method            'ToBaCCo'
  _symmetry_space_group_name_H-M    'P1'
  _symmetry_Int_Tables_number       1
  _symmetry_cell_setting            triclinic
  loop_
  _symmetry_equiv_pos_as_xyz
 x,y,z
_cell_length_a 45.7259
_cell_length_b 47.0384
_cell_length_c 48.6996
_cell_angle_alpha 89.641600
_cell_angle_beta 90.068300
_cell_angle_gamma 118.848300
loop_
  _atom_site_label
  _atom_site_type_symbol
  _atom_site_fract_x
  _atom_site_fract_y
  _atom_site_fract_z
C1 C 0.00464 0.49527 1.32146
 C2 C 0.03378 0.51671 1.30698
 C3 C 0.03202 0.51791 1.27813
 C4 C 0.00256 0.49746 1.26373
 C5 C -0.02595 0.47610 1.27897
 C6 C -0.02554 0.47503 1.30789
 C7 C 0.00172 0.49821 1.23287
 C8 C -0.02854 0.48860 1.21866
 C9 C -0.02967 0.48795 1.18983
 C10 C 0.00017 0.49909 1.17498
 C11 C 0.03078 0.50976 1.18847
 C12 C 0.03118 0.50829 1.21728
 H13 H 0.00543 0.49427 1.34357
 H14 H 0.05335 0.53602 1.26697
 H15 H -0.04814 0.45887 1.26831
 H16 H -0.05154 0.48110 1.22984
 H17 H -0.00045 0.49934 1.15275
 H18 H 0.05472 0.51533 1.22738
 C19 C 0.50463 0.50591 1.32841
 C20 C 0.48497 0.51652 1.31376
 C21 C 0.48481 0.51484 1.28484
 C22 C 0.50588 0.50585 1.27065
 C23 C 0.52650 0.49715 1.28606
 C24 C 0.52499 0.49538 1.31497
 C25 C 0.50622 0.50520 1.23978
 C26 C 0.51486 0.48407 1.22584
 C27 C 0.51625 0.48386 1.19709
 C28 C 0.50686 0.50352 1.18192
 C29 C 0.49683 0.52383 1.19509
 C30 C 0.49768 0.52539 1.22392
 H31 H 0.50405 0.50581 1.35056
 H32 H 0.46917 0.52178 1.27321
 H33 H 0.54270 0.49028 1.27533
 H34 H 0.52010 0.46715 1.23708
 H35 H 0.50807 0.50357 1.15971
 H36 H 0.49128 0.54217 1.23375
 C37 C 0.49279 0.99954 1.32133
 C38 C 0.47293 0.96990 1.30822
 C39 C 0.46868 0.96944 1.27972
 C40 C 0.48592 0.99783 1.26374
 C41 C 0.50649 1.02722 1.27740
 C42 C 0.50923 1.02884 1.30630
 C43 C 0.48289 0.99672 1.23297
 C44 C 0.49032 1.02496 1.21760
 C45 C 0.48931 1.02449 1.18880
 C46 C 0.47833 0.99495 1.17515
 C47 C 0.46957 0.96626 1.18988
 C48 C 0.47289 0.96751 1.21856
 H49 H 0.49439 0.99948 1.34346
 H50 H 0.45150 0.94667 1.27033
 H51 H 0.52181 1.04879 1.26551
 H52 H 0.49671 1.04757 1.22774
 H53 H 0.47677 0.99430 1.15295
 H54 H 0.46824 0.94554 1.22926
 C55 C 1.00056 0.50528 0.68109
 C56 C 0.96982 0.49392 0.69456
 C57 C 0.96918 0.49599 0.72326
 C58 C 0.99868 0.50723 0.73882
 C59 C 1.02908 0.51736 0.72472
 C60 C 1.03073 0.51769 0.69580
 C61 C 0.99792 0.50789 0.76964
 C62 C 1.02654 0.52946 0.78457
 C63 C 1.02683 0.52883 0.81337
 C64 C 0.99739 0.50820 0.82749
 C65 C 0.96818 0.48747 0.81328
 C66 C 0.96890 0.48669 0.78448
 H67 H 1.00070 0.50590 0.65888
 H68 H 0.94545 0.48834 0.73326
 H69 H 1.05150 0.52358 0.73629
 H70 H 1.04908 0.54645 0.77400
 H71 H 0.99726 0.50813 0.84974
 H72 H 0.94660 0.46955 0.77388
 C73 C 0.51392 0.50520 0.67091
 C74 C 0.52341 0.48566 0.68617
 C75 C 0.52088 0.48508 0.71490
 C76 C 0.51086 0.50523 0.72879
 C77 C 0.50225 0.52529 0.71286
 C78 C 0.50272 0.52465 0.68401
 C79 C 0.50937 0.50522 0.75964
 C80 C 0.48860 0.51503 0.77355
 C81 C 0.48810 0.51599 0.80236
 C82 C 0.50666 0.50485 0.81747
 C83 C 0.52656 0.49393 0.80433
 C84 C 0.52877 0.49533 0.77558
 H85 H 0.51600 0.50584 0.64873
 H86 H 0.52634 0.46829 0.72609
 H87 H 0.49479 0.54132 0.72263
 H88 H 0.47292 0.52231 0.76229
 H89 H 0.50559 0.50466 0.83971
 H90 H 0.54546 0.48821 0.76589
 C91 C 0.48848 -0.00158 0.67900
 C92 C 0.50784 0.02766 0.69279
 C93 C 0.50986 0.02749 0.72147
 C94 C 0.49134 -0.00124 0.73678
 C95 C 0.47097 -0.03019 0.72244
 C96 C 0.47026 -0.03115 0.69340
 C97 C 0.49415 -0.00113 0.76755
 C98 C 0.48910 -0.02924 0.78205
 C99 C 0.49237 -0.02939 0.81089
 C100 C 0.50281 0.00007 0.82490
 C101 C 0.50850 0.02845 0.81098
 C102 C 0.50304 0.02741 0.78259
 H103 H 0.48646 -0.00067 0.65691
 H104 H 0.52663 0.04994 0.73156
 H105 H 0.45676 -0.05228 0.73401
 H106 H 0.48441 -0.05071 0.77077
 H107 H 0.50488 0.00095 0.84705
 H108 H 0.50643 0.04923 0.77233
 O109 O 0.39010 0.66223 0.97400
 O110 O 0.38914 0.71654 0.96577
 C111 C 0.37328 0.73177 0.96035
 O112 O 0.34749 0.72737 0.97366
 O113 O 0.29200 0.67344 0.96605
 C114 C 0.27684 0.64333 0.96086
 O115 O 0.28228 0.62290 0.97394
 O116 O 0.33850 0.62277 0.96559
 C117 C 0.36949 0.63784 0.96031
 O118 O 0.38877 0.67042 1.02863
 O119 O 0.39050 0.72605 1.02023
 C120 C 0.37017 0.73195 1.03350
 O121 O 0.33912 0.71785 1.02853
 O122 O 0.28250 0.66497 1.02075
 C123 C 0.27674 0.63921 1.03371
 O124 O 0.29186 0.62326 1.02848
 O125 O 0.34704 0.62077 1.02032
 C126 C 0.37273 0.64024 1.03379
 Cr127 Cr 0.38769 0.69290 0.99718
 Cr128 Cr 0.31625 0.69495 0.99727
 Cr129 Cr 0.31592 0.62429 0.99709
 O130 O 0.33992 0.67072 0.99720
 O131 O 0.60981 0.33326 0.97729
 O132 O 0.61441 0.28111 0.96803
 C133 C 0.63105 0.26649 0.96371
 O134 O 0.65602 0.27114 0.97828
 O135 O 0.71006 0.32725 0.97230
 C136 C 0.72421 0.35771 0.96831
 O137 O 0.71763 0.37656 0.98249
 O138 O 0.66102 0.37522 0.97270
 C139 C 0.63064 0.35955 0.96564
 O140 O 0.60727 0.32124 1.03162
 O141 O 0.60967 0.26797 1.02239
 C142 C 0.63005 0.26320 1.03693
 O143 O 0.66141 0.27854 1.03314
 O144 O 0.71728 0.33296 1.02717
 C145 C 0.72081 0.35699 1.04134
 O146 O 0.70419 0.37164 1.03678
 O147 O 0.64828 0.37221 1.02704
 C148 C 0.62161 0.35086 1.03844
 Cr149 Cr 0.61219 0.30184 0.99993
 Cr150 Cr 0.68519 0.30334 1.00271
 Cr151 Cr 0.68189 0.37206 1.00468
 O152 O 0.65973 0.32579 1.00247
 O153 O 0.65802 0.37081 0.52062
 O154 O 0.71514 0.37246 0.52923
 C155 C 0.73199 0.35825 0.53464
 O156 O 0.72871 0.33372 0.52138
 O157 O 0.67414 0.27899 0.52958
 C158 C 0.64300 0.26236 0.53385
 O159 O 0.62157 0.26622 0.51994
 O160 O 0.61848 0.31965 0.52813
 C161 C 0.63228 0.34974 0.53338
 O162 O 0.66813 0.37091 0.46606
 O163 O 0.72615 0.37448 0.47446
 C164 C 0.73281 0.35499 0.46128
 O165 O 0.71939 0.32494 0.46684
 O166 O 0.66651 0.26890 0.47514
 C167 C 0.64085 0.26306 0.46102
 O168 O 0.62361 0.27714 0.46526
 O169 O 0.61760 0.32907 0.47372
 C170 C 0.63715 0.35514 0.46106
 Cr171 Cr 0.69105 0.37032 0.49760
 Cr172 Cr 0.69617 0.30252 0.49820
 Cr173 Cr 0.62221 0.29899 0.49677
 O174 O 0.66981 0.32399 0.49755
 O175 O 0.34416 0.62306 0.51890
 O176 O 0.28715 0.62008 0.53048
 C177 C 0.27083 0.63367 0.53904
 O178 O 0.27472 0.66041 0.52933
 O179 O 0.32979 0.71397 0.53942
 C180 C 0.36106 0.73034 0.54280
 O181 O 0.38174 0.72758 0.52715
 O182 O 0.38383 0.67290 0.53018
 C183 C 0.36955 0.64223 0.53293
 O184 O 0.33388 0.63016 0.46523
 O185 O 0.27614 0.62561 0.47675
 C186 C 0.26883 0.64659 0.46710
 O187 O 0.28230 0.67563 0.47549
 O188 O 0.33611 0.73008 0.48564
 C189 C 0.36119 0.73698 0.47028
 O190 O 0.37855 0.72261 0.47215
 O191 O 0.38455 0.66996 0.47522
 C192 C 0.36495 0.64597 0.46066
 Cr193 Cr 0.31118 0.62657 0.49801
 Cr194 Cr 0.30676 0.69415 0.50728
 Cr195 Cr 0.38029 0.69731 0.50121
 O196 O 0.33265 0.67260 0.50220
 C197 C 0.43697 0.52719 0.31657
 C198 C 0.41963 0.54065 0.33017
 C199 C 0.43140 0.55699 0.35506
 C200 C 0.46027 0.55859 0.36668
 C201 C 0.47753 0.54501 0.35329
 C202 C 0.46647 0.52919 0.32778
 C203 C 0.41250 0.57100 0.36904
 C204 C 0.42734 0.59695 0.38546
 C205 C 0.40945 0.61038 0.40176
 C206 C 0.42834 0.64088 0.41395
 C207 C 0.41357 0.65311 0.43208
 C208 C 0.37944 0.63506 0.43854
 C209 C 0.36014 0.60511 0.42548
 C210 C 0.37497 0.59279 0.40738
 H211 H 0.42625 0.51419 0.29777
 H212 H 0.39698 0.53844 0.32109
 H213 H 0.46960 0.57014 0.38629
 H214 H 0.50045 0.54845 0.36265
 H215 H 0.38604 0.56008 0.36492
 H216 H 0.45430 0.60929 0.38719
 H217 H 0.45492 0.65495 0.41005
 H218 H 0.42918 0.67630 0.44169
 H219 H 0.33382 0.59049 0.43013
 H220 H 0.35952 0.56895 0.39892
 C221 C 0.45853 0.91170 0.31466
 C222 C 0.44611 0.88348 0.33064
 C223 C 0.43199 0.88200 0.35653
 C224 C 0.43042 0.90944 0.36609
 C225 C 0.44278 0.93762 0.35008
 C226 C 0.45731 0.93920 0.32433
 C227 C 0.42108 0.85229 0.37351
 C228 C 0.39930 0.84428 0.39434
 C229 C 0.38957 0.81563 0.41242
 C230 C 0.36021 0.80432 0.42795
 C231 C 0.35082 0.77854 0.44638
 C232 C 0.37074 0.76351 0.44988
 C233 C 0.40007 0.77464 0.43421
 C234 C 0.40951 0.80053 0.41576
 H235 H 0.47003 0.91235 0.29507
 H236 H 0.44793 0.86285 0.32290
 H237 H 0.42066 0.90976 0.38622
 H238 H 0.44129 0.95835 0.35799
 H239 H 0.43086 0.83623 0.36805
 H240 H 0.38717 0.85874 0.39809
 H241 H 0.34453 0.81562 0.42594
 H242 H 0.32804 0.77059 0.45808
 H243 H 0.41610 0.76376 0.43656
 H244 H 0.43286 0.80909 0.40484
 C245 C 0.09535 0.54422 0.30898
 C246 C 0.12501 0.56037 0.32395
 C247 C 0.12461 0.56962 0.35118
 C248 C 0.09395 0.56269 0.36315
 C249 C 0.06427 0.54619 0.34841
 C250 C 0.06420 0.53599 0.32117
 C251 C 0.15593 0.58401 0.36731
 C252 C 0.16133 0.60411 0.38841
 C253 C 0.19075 0.61571 0.40666
 C254 C 0.20173 0.64519 0.42046
 C255 C 0.22770 0.65566 0.43952
 C256 C 0.24283 0.63648 0.44559
 C257 C 0.23199 0.60703 0.43161
 C258 C 0.20629 0.59677 0.41229
 H259 H 0.09694 0.53643 0.28843
 H260 H 0.14833 0.56515 0.31437
 H261 H 0.09257 0.56900 0.38426
 H262 H 0.04147 0.54203 0.35850
 H263 H 0.17507 0.57792 0.36146
 H264 H 0.14372 0.61280 0.39248
 H265 H 0.18993 0.66003 0.41668
 H266 H 0.23533 0.67838 0.45003
 H267 H 0.24310 0.59169 0.43585
 H268 H 0.19785 0.57348 0.40258
 C269 C 0.57238 0.48404 0.31995
 C270 C 0.58854 0.46977 0.33430
 C271 C 0.57537 0.45300 0.35899
 C272 C 0.54634 0.45192 0.36968
 C273 C 0.53022 0.46629 0.35550
 C274 C 0.54260 0.48237 0.33009
 C275 C 0.59299 0.43785 0.37351
 C276 C 0.57721 0.41191 0.39012
 C277 C 0.59409 0.39690 0.40596
 C278 C 0.57442 0.36591 0.41743
 C279 C 0.58857 0.35181 0.43446
 C280 C 0.62284 0.36847 0.44057
 C281 C 0.64278 0.39914 0.42850
 C282 C 0.62859 0.41328 0.41149
 H283 H 0.58416 0.49728 0.30135
 H284 H 0.61135 0.47163 0.32594
 H285 H 0.53595 0.44008 0.38911
 H286 H 0.50707 0.46317 0.36412
 H287 H 0.61935 0.44770 0.36935
 H288 H 0.55031 0.40051 0.39200
 H289 H 0.54779 0.35276 0.41362
 H290 H 0.57244 0.32818 0.44340
 H291 H 0.66923 0.41276 0.43291
 H292 H 0.64464 0.43747 0.40368
 C293 C 0.53055 0.08806 0.30814
 C294 C 0.54593 0.11734 0.32248
 C295 C 0.55918 0.11888 0.34870
 C296 C 0.55689 0.09047 0.36034
 C297 C 0.54140 0.06115 0.34616
 C298 C 0.52737 0.05912 0.31989
 C299 C 0.57317 0.14976 0.36410
 C300 C 0.59595 0.15724 0.38401
 C301 C 0.60810 0.18642 0.40150
 C302 C 0.63809 0.19661 0.41583
 C303 C 0.64913 0.22209 0.43449
 C304 C 0.63025 0.23788 0.43949
 C305 C 0.60053 0.22819 0.42471
 C306 C 0.58948 0.20266 0.40596
 H307 H 0.51947 0.08807 0.28850
 H308 H 0.54699 0.13881 0.31319
 H309 H 0.56619 0.09044 0.38076
 H310 H 0.54117 0.04033 0.35589
 H311 H 0.56469 0.16687 0.35845
 H312 H 0.60669 0.14148 0.38766
 H313 H 0.65280 0.18444 0.41291
 H314 H 0.67218 0.22892 0.44545
 H315 H 0.58532 0.23973 0.42818
 H316 H 0.56579 0.19501 0.39588
 C317 C 0.94731 0.44143 0.34884
 C318 C 0.91886 0.42327 0.36478
 C319 C 0.88756 0.41809 0.35593
 C320 C 0.88482 0.42977 0.32997
 C321 C 0.91322 0.44740 0.31365
 C322 C 0.94523 0.45446 0.32315
 C323 C 0.85849 0.40061 0.37438
 C324 C 0.83370 0.40806 0.37612
 C325 C 0.80698 0.39347 0.39713
 C326 C 0.79318 0.41207 0.40773
 C327 C 0.76905 0.39961 0.42851
 C328 C 0.75779 0.36802 0.43879
 C329 C 0.77084 0.34902 0.42750
 C330 C 0.79521 0.36161 0.40693
 H331 H 0.97082 0.44443 0.35657
 H332 H 0.92145 0.41387 0.38447
 H333 H 0.86080 0.42544 0.32231
 H334 H 0.91007 0.45705 0.29430
 H335 H 0.85942 0.38355 0.38892
 H336 H 0.83470 0.42761 0.36358
 H337 H 0.80165 0.43658 0.40033
 H338 H 0.75927 0.41476 0.43655
 H339 H 0.76253 0.32450 0.43478
 H340 H 0.80463 0.34628 0.39865
 C341 C 0.55783 0.46400 1.19195
 C342 C 0.57156 0.44803 1.17700
 C343 C 0.55626 0.43141 1.15282
 C344 C 0.52659 0.43073 1.14403
 C345 C 0.51298 0.44688 1.15890
 C346 C 0.52871 0.46405 1.18279
 C347 C 0.57340 0.41763 1.13612
 C348 C 0.55761 0.39360 1.11804
 C349 C 0.57542 0.38243 1.09930
 C350 C 0.55847 0.35077 1.08893
 C351 C 0.57376 0.34018 1.06973
 C352 C 0.60620 0.36128 1.06014
 C353 C 0.62325 0.39292 1.07068
 C354 C 0.60806 0.40341 1.09002
 H355 H 0.57072 0.47740 1.21010
 H356 H 0.59459 0.44918 1.18405
 H357 H 0.51451 0.41893 1.12513
 H358 H 0.49044 0.44643 1.15144
 H359 H 0.60004 0.42767 1.13905
 H360 H 0.53062 0.38127 1.11700
 H361 H 0.53320 0.33427 1.09555
 H362 H 0.55985 0.31570 1.06194
 H363 H 0.64821 0.40983 1.06367
 H364 H 0.62156 0.42830 1.09689
 C365 C 0.91290 0.48197 1.18327
 C366 C 0.88246 0.46901 1.16919
 C367 C 0.87625 0.44808 1.14688
 C368 C 0.90149 0.44103 1.13850
 C369 C 0.93183 0.45398 1.15250
 C370 C 0.93793 0.47458 1.17505
 C371 C 0.84399 0.43513 1.13200
 C372 C 0.83085 0.40704 1.11817
 C373 C 0.80033 0.39410 1.10086
 C374 C 0.78820 0.36289 1.08989
 C375 C 0.76170 0.35049 1.07133
 C376 C 0.74648 0.36897 1.06325
 C377 C 0.75768 0.39975 1.07496
 C378 C 0.78443 0.41230 1.09346
 H379 H 0.91703 0.49811 1.20034
 H380 H 0.86365 0.47521 1.17581
 H381 H 0.89825 0.42599 1.12082
 H382 H 0.95049 0.44764 1.14577
 H383 H 0.83084 0.44897 1.13309
 H384 H 0.84320 0.39240 1.11937
 H385 H 0.79984 0.34826 1.09517
 H386 H 0.75361 0.32661 1.06286
 H387 H 0.74658 0.41466 1.06905
 H388 H 0.79304 0.43658 1.10103
 C389 C 0.48444 0.05618 1.14903
 C390 C 0.49751 0.08416 1.13271
 C391 C 0.52775 0.11152 1.13968
 C392 C 0.54383 0.11093 1.16416
 C393 C 0.53074 0.08295 1.18049
 C394 C 0.50124 0.05508 1.17284
 C395 C 0.54157 0.13992 1.12087
 C396 C 0.57417 0.16174 1.11947
 C397 C 0.58820 0.18859 1.09906
 C398 C 0.62211 0.20241 1.09196
 C399 C 0.63598 0.22694 1.07203
 C400 C 0.61613 0.23818 1.05883
 C401 C 0.58244 0.22505 1.06657
 C402 C 0.56868 0.20073 1.08657
 H403 H 0.46135 0.03528 1.14288
 H404 H 0.48435 0.08415 1.11419
 H405 H 0.56654 0.13190 1.17078
 H406 H 0.54427 0.08280 1.19871
 H407 H 0.52442 0.14122 1.10624
 H408 H 0.59177 0.15865 1.13232
 H409 H 0.63780 0.19378 1.10150
 H410 H 0.66206 0.23670 1.06666
 H411 H 0.56662 0.23363 1.05721
 H412 H 0.54284 0.19179 1.09223
 C413 C 0.49345 0.57483 1.18485
 C414 C 0.48164 0.59201 1.16885
 C415 C 0.46044 0.57717 1.14643
 C416 C 0.45191 0.54498 1.13994
 C417 C 0.46362 0.52788 1.15588
 C418 C 0.48455 0.54255 1.17849
 C419 C 0.44873 0.59606 1.12949
 C420 C 0.42026 0.58181 1.11501
 C421 C 0.40840 0.59881 1.09590
 C422 C 0.37647 0.58075 1.08447
 C423 C 0.36475 0.59442 1.06477
 C424 C 0.38467 0.62666 1.05595
 C425 C 0.41634 0.64514 1.06782
 C426 C 0.42821 0.63136 1.08749
 H427 H 0.50992 0.58695 1.20190
 H428 H 0.48899 0.61692 1.17404
 H429 H 0.43669 0.53298 1.12227
 H430 H 0.45612 0.50298 1.15055
 H431 H 0.46378 0.62218 1.12961
 H432 H 0.40433 0.55586 1.11715
 H433 H 0.36063 0.55566 1.09047
 H434 H 0.34014 0.57952 1.05620
 H435 H 0.43235 0.67002 1.06139
 H436 H 0.45314 0.64615 1.09534
 C437 C 0.08747 0.51514 1.17914
 C438 C 0.11706 0.52786 1.16380
 C439 C 0.12232 0.54896 1.14157
 C440 C 0.09694 0.55650 1.13459
 C441 C 0.06744 0.54381 1.14989
 C442 C 0.06232 0.52300 1.17234
 C443 C 0.15374 0.56155 1.12541
 C444 C 0.16625 0.58923 1.11072
 C445 C 0.19639 0.60187 1.09289
 C446 C 0.20920 0.63340 1.08211
 C447 C 0.23579 0.64578 1.06353
 C448 C 0.25038 0.62690 1.05518
 C449 C 0.23823 0.59561 1.06647
 C450 C 0.21143 0.58313 1.08500
 H451 H 0.08408 0.49878 1.19606
 H452 H 0.13596 0.52127 1.16938
 H453 H 0.09938 0.57170 1.11705
 H454 H 0.04866 0.55051 1.14421
 H455 H 0.16709 0.54787 1.12646
 H456 H 0.15400 0.60395 1.11187
 H457 H 0.19817 0.64841 1.08771
 H458 H 0.24455 0.67001 1.05535
 H459 H 0.24877 0.58035 1.06035
 H460 H 0.20215 0.55852 1.09229
 C461 C 0.42835 0.90713 1.18535
 C462 C 0.41444 0.87818 1.17054
 C463 C 0.42853 0.87626 1.14551
 C464 C 0.45694 0.90401 1.13555
 C465 C 0.47078 0.93294 1.15031
 C466 C 0.45646 0.93491 1.17523
 C467 C 0.41189 0.84580 1.12954
 C468 C 0.42805 0.83745 1.11105
 C469 C 0.41162 0.80851 1.09323
 C470 C 0.43167 0.79747 1.08039
 C471 C 0.41799 0.77207 1.06162
 C472 C 0.38384 0.75715 1.05505
 C473 C 0.36352 0.76770 1.06831
 C474 C 0.37726 0.79320 1.08713
 H475 H 0.41651 0.90808 1.20431
 H476 H 0.39238 0.85729 1.17852
 H477 H 0.46798 0.90389 1.11595
 H478 H 0.49254 0.95391 1.14208
 H479 H 0.38573 0.82964 1.13370
 H480 H 0.45484 0.85219 1.10897
 H481 H 0.45820 0.80890 1.08459
 H482 H 0.43441 0.76456 1.05188
 H483 H 0.33717 0.75686 1.06359
 H484 H 0.36105 0.80149 1.09599
 C485 C 0.56632 0.46735 0.68176
 C486 C 0.58087 0.45179 0.66726
 C487 C 0.56622 0.43485 0.64306
 C488 C 0.53653 0.43366 0.63363
 C489 C 0.52215 0.44946 0.64800
 C490 C 0.53707 0.46672 0.67206
 C491 C 0.58384 0.42098 0.62708
 C492 C 0.56826 0.39590 0.60992
 C493 C 0.58625 0.38396 0.59215
 C494 C 0.56961 0.35166 0.58323
 C495 C 0.58495 0.34021 0.56486
 C496 C 0.61713 0.36105 0.55462
 C497 C 0.63394 0.39333 0.56379
 C498 C 0.61871 0.40468 0.58234
 H499 H 0.57859 0.48084 0.70005
 H500 H 0.60390 0.45335 0.67479
 H501 H 0.52498 0.42158 0.61467
 H502 H 0.49956 0.44855 0.64011
 H503 H 0.61055 0.43162 0.62998
 H504 H 0.54124 0.38315 0.60906
 H505 H 0.54450 0.33531 0.59029
 H506 H 0.57122 0.31527 0.55810
 H507 H 0.65869 0.41005 0.55623
 H508 H 0.63197 0.42997 0.58813
 C509 C 0.52329 0.08606 0.68549
 C510 C 0.53789 0.11455 0.66974
 C511 C 0.55541 0.11639 0.64556
 C512 C 0.55796 0.08903 0.63736
 C513 C 0.54306 0.06043 0.65297
 C514 C 0.52541 0.05858 0.67710
 C515 C 0.56872 0.14627 0.62849
 C516 C 0.59515 0.15584 0.61178
 C517 C 0.60725 0.18458 0.59341
 C518 C 0.64087 0.20048 0.58527
 C519 C 0.65272 0.22637 0.56659
 C520 C 0.63100 0.23657 0.55522
 C521 C 0.59735 0.22078 0.56352
 C522 C 0.58559 0.19510 0.58243
 H523 H 0.50947 0.08517 0.70382
 H524 H 0.53527 0.13517 0.67634
 H525 H 0.57049 0.08924 0.61847
 H526 H 0.54510 0.03961 0.64605
 H527 H 0.55677 0.16121 0.63039
 H528 H 0.60914 0.14270 0.61195
 H529 H 0.65799 0.19266 0.59325
 H530 H 0.67874 0.23784 0.56053
 H531 H 0.57994 0.22795 0.55509
 H532 H 0.55932 0.18288 0.58763
 C533 C 0.91237 0.48619 0.68427
 C534 C 0.88313 0.47246 0.66855
 C535 C 0.87919 0.45137 0.64685
 C536 C 0.90542 0.44479 0.64086
 C537 C 0.93450 0.45842 0.65655
 C538 C 0.93841 0.47934 0.67837
 C539 C 0.84834 0.43792 0.63002
 C540 C 0.83721 0.41018 0.61591
 C541 C 0.80835 0.39697 0.59679
 C542 C 0.79811 0.36619 0.58554
 C543 C 0.77293 0.35342 0.56581
 C544 C 0.75722 0.37112 0.55682
 C545 C 0.76677 0.40160 0.56852
 C546 C 0.79218 0.41452 0.58818
 H547 H 0.91484 0.50259 0.70071
 H548 H 0.86352 0.47831 0.67334
 H549 H 0.90403 0.42968 0.62372
 H550 H 0.95402 0.45250 0.65159
 H551 H 0.83454 0.45118 0.62983
 H552 H 0.84997 0.39603 0.61831
 H553 H 0.81007 0.35211 0.59168
 H554 H 0.76608 0.32978 0.55736
 H555 H 0.75523 0.41590 0.56195
 H556 H 0.79943 0.43849 0.59586
 C557 C 0.49803 0.57511 0.67482
 C558 C 0.48562 0.59214 0.65938
 C559 C 0.46527 0.57782 0.63642
 C560 C 0.45851 0.54646 0.62866
 C561 C 0.47081 0.52947 0.64409
 C562 C 0.49058 0.54347 0.66742
 C563 C 0.45228 0.59640 0.62058
 C564 C 0.42417 0.58186 0.60567
 C565 C 0.41057 0.59897 0.58850
 C566 C 0.37892 0.58037 0.57674
 C567 C 0.36548 0.59453 0.55911
 C568 C 0.38334 0.62781 0.55278
 C569 C 0.41478 0.64670 0.56490
 C570 C 0.42838 0.63246 0.58246
 H571 H 0.51368 0.58680 0.69240
 H572 H 0.49165 0.61645 0.66554
 H573 H 0.44405 0.53499 0.61052
 H574 H 0.46446 0.50509 0.63791
 H575 H 0.46579 0.62253 0.62223
 H576 H 0.40967 0.55564 0.60622
 H577 H 0.36461 0.55456 0.58092
 H578 H 0.34112 0.57926 0.55026
 H579 H 0.42926 0.67239 0.56032
 H580 H 0.45305 0.64776 0.59060
 C581 C 0.42465 0.91182 0.69061
 C582 C 0.40830 0.88235 0.67651
 C583 C 0.41958 0.87887 0.65067
 C584 C 0.44677 0.90587 0.63865
 C585 C 0.46300 0.93534 0.65253
 C586 C 0.45257 0.93901 0.67898
 C587 C 0.40208 0.84731 0.63625
 C588 C 0.41799 0.83743 0.61878
 C589 C 0.40168 0.80740 0.60213
 C590 C 0.42220 0.79719 0.58884
 C591 C 0.40879 0.77132 0.57050
 C592 C 0.37439 0.75495 0.56488
 C593 C 0.35354 0.76426 0.57896
 C594 C 0.36702 0.79030 0.59731
 H595 H 0.41437 0.91326 0.71020
 H596 H 0.38690 0.86208 0.68596
 H597 H 0.45558 0.90445 0.61836
 H598 H 0.48476 0.95467 0.64269
 H599 H 0.37595 0.83175 0.64092
 H600 H 0.44478 0.85211 0.61647
 H601 H 0.44895 0.80987 0.59211
 H602 H 0.42559 0.76475 0.56013
 H603 H 0.32695 0.75227 0.57498
 H604 H 0.35031 0.79764 0.60668
 C605 C 0.09117 0.55599 0.69374
 C606 C 0.12124 0.57082 0.67915
 C607 C 0.12331 0.56059 0.65264
 C608 C 0.09469 0.53502 0.64094
 C609 C 0.06450 0.52039 0.65532
 C610 C 0.06192 0.53087 0.68190
 C611 C 0.15471 0.57868 0.63689
 C612 C 0.16382 0.56524 0.61678
 C613 C 0.19320 0.58409 0.59895
 C614 C 0.20858 0.56807 0.58621
 C615 C 0.23459 0.58447 0.56745
 C616 C 0.24534 0.61714 0.56067
 C617 C 0.23022 0.63331 0.57372
 C618 C 0.20444 0.61699 0.59268
 H619 H 0.09070 0.56585 0.71364
 H620 H 0.14288 0.59080 0.68845
 H621 H 0.09517 0.52685 0.62031
 H622 H 0.04341 0.50043 0.64552
 H623 H 0.17088 0.60381 0.64230
 H624 H 0.14945 0.53937 0.61325
 H625 H 0.20015 0.54266 0.59052
 H626 H 0.24558 0.57125 0.55766
 H627 H 0.23786 0.65844 0.56890
 H628 H 0.19255 0.62989 0.60151
 C629 C 0.43618 0.52102 0.80959
 C630 C 0.41826 0.53294 0.82453
 C631 C 0.43303 0.55377 0.84688
 C632 C 0.46595 0.56205 0.85424
 C633 C 0.48373 0.55019 0.83940
 C634 C 0.46904 0.52936 0.81705
 C635 C 0.41327 0.56512 0.86316
 C636 C 0.42777 0.59305 0.87719
 C637 C 0.41048 0.60426 0.89658
 C638 C 0.42917 0.63522 0.90799
 C639 C 0.41559 0.64620 0.92825
 C640 C 0.38279 0.62650 0.93764
 C641 C 0.36355 0.59583 0.92571
 C642 C 0.37727 0.58469 0.90548
 H643 H 0.42410 0.50470 0.79265
 H644 H 0.39280 0.52585 0.81868
 H645 H 0.47788 0.57704 0.87191
 H646 H 0.50909 0.55723 0.84553
 H647 H 0.38644 0.55008 0.86329
 H648 H 0.45437 0.60884 0.87471
 H649 H 0.45477 0.65085 0.90162
 H650 H 0.43104 0.67008 0.93678
 H651 H 0.33819 0.58008 0.93255
 H652 H 0.36200 0.56052 0.89760
 C653 C 0.08068 0.58053 0.82139
 C654 C 0.11067 0.59808 0.83574
 C655 C 0.11899 0.58356 0.85746
 C656 C 0.09618 0.55152 0.86521
 C657 C 0.06634 0.53407 0.85095
 C658 C 0.05827 0.54826 0.82881
 C659 C 0.15093 0.60244 0.87232
 C660 C 0.16687 0.58804 0.88432
 C661 C 0.19713 0.60456 0.90172
 C662 C 0.21170 0.58607 0.91126
 C663 C 0.23814 0.59901 0.92981
 C664 C 0.25087 0.63094 0.93928
 C665 C 0.23723 0.65001 0.92903
 C666 C 0.21049 0.63694 0.91054
 H667 H 0.07492 0.59224 0.80464
 H668 H 0.12758 0.62289 0.82967
 H669 H 0.10107 0.53987 0.88250
 H670 H 0.04973 0.50919 0.85706
 H671 H 0.16143 0.62852 0.87272
 H672 H 0.15701 0.56220 0.88151
 H673 H 0.20204 0.56112 0.90485
 H674 H 0.24823 0.58372 0.93711
 H675 H 0.24645 0.67469 0.93601
 H676 H 0.19998 0.65209 0.90403
 C677 C 0.50007 0.94243 0.85096
 C678 C 0.49061 0.91416 0.86635
 C679 C 0.46515 0.88427 0.85718
 C680 C 0.45063 0.88277 0.83144
 C681 C 0.46042 0.91095 0.81574
 C682 C 0.48470 0.94158 0.82554
 C683 C 0.45406 0.85537 0.87517
 C684 C 0.42218 0.83177 0.87638
 C685 C 0.40998 0.80521 0.89701
 C686 C 0.37716 0.79231 0.90679
 C687 C 0.36518 0.76834 0.92721
 C688 C 0.38563 0.75628 0.93795
 C689 C 0.41815 0.76836 0.92743
 C690 C 0.43026 0.79266 0.90723
 H691 H 0.52004 0.96482 0.85894
 H692 H 0.50268 0.91581 0.88588
 H693 H 0.43147 0.85988 0.82347
 H694 H 0.44732 0.90867 0.79667
 H695 H 0.47190 0.85536 0.88981
 H696 H 0.40368 0.83366 0.86373
 H697 H 0.36096 0.80137 0.89906
 H698 H 0.33991 0.75932 0.93465
 H699 H 0.43445 0.75943 0.93514
 H700 H 0.45539 0.80145 0.89957
 C701 C 0.57705 0.48754 0.81498
 C702 C 0.59304 0.47427 0.83093
 C703 C 0.57618 0.45297 0.85276
 C704 C 0.54321 0.44578 0.85873
 C705 C 0.52729 0.45896 0.84285
 C706 C 0.54398 0.48003 0.82084
 C707 C 0.59386 0.43977 0.86973
 C708 C 0.57759 0.41157 0.88353
 C709 C 0.59337 0.39850 0.90283
 C710 C 0.57389 0.36667 0.91266
 C711 C 0.58624 0.35387 0.93261
 C712 C 0.61851 0.37264 0.94328
 C713 C 0.63844 0.40426 0.93301
 C714 C 0.62598 0.41717 0.91311
 H715 H 0.59068 0.50405 0.79837
 H716 H 0.61860 0.48056 0.82616
 H717 H 0.52972 0.43047 0.87598
 H718 H 0.50173 0.45252 0.84776
 H719 H 0.62081 0.45349 0.87027
 H720 H 0.55092 0.39690 0.88063
 H721 H 0.54868 0.35175 0.90521
 H722 H 0.57027 0.32936 0.93992
 H723 H 0.66337 0.41939 0.94090
 H724 H 0.64171 0.44200 0.90661
 C725 C 0.91579 0.43449 0.82187
 C726 C 0.88666 0.41559 0.83703
 C727 C 0.87790 0.42904 0.85912
 C728 C 0.89929 0.46161 0.86615
 C729 C 0.92825 0.48041 0.85104
 C730 C 0.93691 0.46712 0.82879
 C731 C 0.84730 0.40842 0.87526
 C732 C 0.83057 0.42094 0.88870
 C733 C 0.80179 0.40265 0.90743
 C734 C 0.78680 0.41962 0.91917
 C735 C 0.76135 0.40481 0.93854
 C736 C 0.75005 0.37247 0.94666
 C737 C 0.76429 0.35502 0.93443
 C738 C 0.79004 0.36996 0.91510
 H739 H 0.92208 0.42346 0.80506
 H740 H 0.87087 0.39044 0.83147
 H741 H 0.89417 0.47259 0.88364
 H742 H 0.94392 0.50552 0.85678
 H743 H 0.83856 0.38259 0.87557
 H744 H 0.83859 0.44654 0.88615
 H745 H 0.79522 0.44476 0.91372
 H746 H 0.75074 0.41890 0.94734
 H747 H 0.75611 0.33005 0.94030
 H748 H 0.80088 0.35590 0.90684
 C749 C 0.50733 0.08017 0.82193
 C750 C 0.51899 0.10894 0.83690
 C751 C 0.54479 0.11769 0.85614
 C752 C 0.55827 0.09673 0.86051
 C753 C 0.54652 0.06799 0.84569
 C754 C 0.52090 0.05933 0.82629
 C755 C 0.55582 0.14766 0.87246
 C756 C 0.58678 0.16429 0.88280
 C757 C 0.59808 0.19212 0.90191
 C758 C 0.62816 0.20185 0.91606
 C759 C 0.63917 0.22642 0.93561
 C760 C 0.62044 0.24213 0.94146
 C761 C 0.59092 0.23330 0.92661
 C762 C 0.57982 0.20859 0.90703
 H763 H 0.48728 0.07391 0.80734
 H764 H 0.50787 0.12442 0.83344
 H765 H 0.57733 0.10196 0.87582
 H766 H 0.55756 0.05248 0.84941
 H767 H 0.53757 0.15557 0.87612
 H768 H 0.60479 0.15635 0.87795
 H769 H 0.64290 0.18983 0.91245
 H770 H 0.66215 0.23271 0.94649
 H771 H 0.57602 0.24510 0.93045
 H772 H 0.55697 0.20261 0.89619
   
