data_POSCAR
  _audit_creation_date              2014-09-24
  _audit_creation_method            'ToBaCCo'
  _symmetry_space_group_name_H-M    'P1'
  _symmetry_Int_Tables_number       1
  _symmetry_cell_setting            triclinic
  loop_
  _symmetry_equiv_pos_as_xyz
 x,y,z
_cell_length_a 32.8682
_cell_length_b 33.4305
_cell_length_c 32.9946
_cell_angle_alpha 89.367600
_cell_angle_beta 89.399700
_cell_angle_gamma 90.487400
loop_
  _atom_site_label
  _atom_site_type_symbol
  _atom_site_fract_x
  _atom_site_fract_y
  _atom_site_fract_z
N1 N 0.14183 0.14650 0.25790
 N2 N 0.17867 0.13266 0.25152
 C3 C 0.19081 0.11268 0.28487
 C4 C 0.15978 0.11411 0.31361
 C5 C 0.12909 0.13562 0.29539
 H6 H 0.22002 0.09841 0.28803
 H7 H 0.09979 0.14302 0.30842
 Cu8 Cu 0.20710 0.14288 0.20023
 Cu9 Cu 0.11337 0.17758 0.21682
 Cu10 Cu 0.17660 0.21909 0.14228
 N11 N 0.23086 0.15215 0.14646
 N12 N 0.21900 0.18260 0.12406
 C13 C 0.24178 0.18450 0.08995
 C14 C 0.26943 0.15344 0.09097
 C15 C 0.26153 0.13340 0.12721
 H16 H 0.23895 0.20735 0.06670
 H17 H 0.27776 0.10793 0.13918
 N18 N 0.12240 0.24039 0.15559
 N19 N 0.09749 0.22322 0.18233
 C20 C 0.06269 0.24415 0.18406
 C21 C 0.06612 0.27614 0.15733
 C22 C 0.10426 0.27289 0.13978
 H23 H 0.03743 0.23748 0.20438
 H24 H 0.11781 0.29278 0.11725
 H25 H 0.14869 0.16967 0.16418
 H26 H 0.16768 0.20431 0.20382
 N27 N -0.13051 0.82722 0.21363
 N28 N -0.15630 0.85307 0.22884
 C29 C -0.13821 0.87256 0.25949
 C30 C -0.09919 0.85798 0.26355
 C31 C -0.09536 0.82930 0.23399
 H32 H -0.15245 0.89515 0.27792
 H33 H -0.06913 0.81086 0.22810
 Cu34 Cu -0.21130 0.85831 0.20774
 Cu35 Cu -0.14412 0.79205 0.16925
 Cu36 Cu -0.23869 0.80417 0.12700
 N37 N -0.26295 0.86658 0.18019
 N38 N -0.27249 0.84672 0.14740
 C39 C -0.30942 0.85812 0.13469
 C40 C -0.32407 0.88628 0.16124
 C41 C -0.29381 0.89114 0.18973
 H42 H -0.32506 0.84591 0.10886
 H43 H -0.29430 0.91085 0.21549
 N44 N -0.19896 0.76594 0.10615
 N45 N -0.16375 0.75962 0.12388
 C46 C -0.14494 0.72909 0.10537
 C47 C -0.16925 0.71622 0.07422
 C48 C -0.20312 0.74025 0.07532
 H49 H -0.11568 0.71714 0.11372
 H50 H -0.22936 0.73818 0.05594
 H51 H -0.18494 0.83160 0.14454
 H52 H -0.20551 0.79141 0.17918
 N53 N -0.13507 0.14474 -0.25395
 N54 N -0.15314 0.11366 -0.23668
 C55 C -0.16047 0.08596 -0.26513
 C56 C -0.14602 0.10080 -0.30195
 C57 C -0.12986 0.13797 -0.29372
 H58 H -0.17517 0.05734 -0.25943
 H59 H -0.11604 0.15879 -0.31520
 Cu60 Cu -0.16539 0.11304 -0.17848
 Cu61 Cu -0.12128 0.19155 -0.22311
 Cu62 Cu -0.17937 0.20859 -0.14093
 N63 N -0.19654 0.12418 -0.12864
 N64 N -0.20818 0.16050 -0.11858
 C65 C -0.23773 0.15732 -0.08981
 C66 C -0.24288 0.11708 -0.07997
 C67 C -0.21585 0.09718 -0.10482
 H68 H -0.25320 0.18232 -0.07617
 H69 H -0.21346 0.06513 -0.10821
 N70 N -0.13159 0.24255 -0.15486
 N71 N -0.10810 0.23371 -0.18599
 C72 C -0.07564 0.25824 -0.18719
 C73 C -0.07892 0.28453 -0.15555
 C74 C -0.11498 0.27415 -0.13562
 H75 H -0.05143 0.25707 -0.20960
 H76 H -0.12728 0.28746 -0.10843
 H77 H -0.13967 0.16542 -0.15594
 H78 H -0.18443 0.16926 -0.18993
 N79 N 0.11901 0.82831 -0.20641
 N80 N 0.14106 0.85953 -0.21785
 C81 C 0.12327 0.87767 -0.24959
 C82 C 0.08822 0.85671 -0.25848
 C83 C 0.08633 0.82557 -0.23053
 H84 H 0.13522 0.90382 -0.26538
 H85 H 0.06318 0.80247 -0.22827
 Cu86 Cu 0.19119 0.87429 -0.19107
 Cu87 Cu 0.13497 0.79402 -0.16126
 Cu88 Cu 0.22472 0.80991 -0.11621
 N89 N 0.24578 0.87798 -0.16747
 N90 N 0.25803 0.85426 -0.13787
 C91 C 0.29660 0.86385 -0.12847
 C92 C 0.30945 0.89442 -0.15405
 C93 C 0.27656 0.90278 -0.17841
 H94 H 0.31451 0.84887 -0.10565
 H95 H 0.27518 0.92495 -0.20247
 N96 N 0.18440 0.77329 -0.09339
 N97 N 0.15037 0.76498 -0.11228
 C98 C 0.13148 0.73422 -0.09297
 C99 C 0.15475 0.72329 -0.06010
 C100 C 0.18797 0.74877 -0.06107
 H101 H 0.10341 0.72024 -0.10248
 H102 H 0.21396 0.74789 -0.04125
 H103 H 0.17929 0.84622 -0.13503
 H104 H 0.20431 0.81639 -0.17587
 N105 N 0.14816 1.14343 0.77840
 N106 N 0.12453 1.17261 0.79056
 C107 C 0.09092 1.17315 0.76755
 C108 C 0.09374 1.14269 0.73959
 C109 C 0.13043 1.12445 0.74731
 H110 H 0.06634 1.19421 0.77070
 H111 H 0.14337 1.09939 0.73136
 Cu112 Cu 0.13967 1.20649 0.83585
 Cu113 Cu 0.19971 1.13176 0.80433
 Cu114 Cu 0.23354 1.20080 0.87423
 N115 N 0.15634 1.23953 0.88128
 N116 N 0.19233 1.23508 0.89771
 C117 C 0.19608 1.26037 0.92890
 C118 C 0.16082 1.28233 0.93173
 C119 C 0.13624 1.26859 0.90103
 H120 H 0.22305 1.26369 0.94710
 H121 H 0.10608 1.27897 0.89378
 N122 N 0.26803 1.15783 0.85327
 N123 N 0.25544 1.13214 0.82590
 C124 C 0.28648 1.10799 0.81595
 C125 C 0.31989 1.11879 0.83856
 C126 C 0.30714 1.15021 0.86209
 H127 H 0.28487 1.08424 0.79403
 H128 H 0.32527 1.16664 0.88354
 H129 H 0.19058 1.15943 0.86033
 H130 H 0.20940 1.19068 0.81664
 N131 N 0.82347 0.86483 0.75003
 N132 N 0.86062 0.85200 0.74336
 C133 C 0.87213 0.86207 0.70530
 C134 C 0.84037 0.88212 0.68728
 C135 C 0.81000 0.88348 0.71649
 H136 H 0.90114 0.85483 0.69155
 H137 H 0.78029 0.89678 0.71354
 Cu138 Cu 0.88957 0.82122 0.78389
 Cu139 Cu 0.79503 0.85541 0.80117
 Cu140 Cu 0.84673 0.80357 0.87534
 N141 N 0.90731 0.77761 0.81861
 N142 N 0.88922 0.76947 0.85351
 C143 C 0.90626 0.73680 0.87015
 C144 C 0.93685 0.72418 0.84439
 C145 C 0.93686 0.75076 0.81205
 H146 H 0.89741 0.72355 0.89901
 H147 H 0.95626 0.75012 0.78537
 N148 N 0.79512 0.83111 0.88603
 N149 N 0.77565 0.85125 0.85770
 C150 C 0.74202 0.86734 0.87412
 C151 C 0.74001 0.85639 0.91451
 C152 C 0.77406 0.83332 0.92117
 H153 H 0.72025 0.88532 0.85785
 H154 H 0.78279 0.81917 0.94937
 H155 H 0.84690 0.85283 0.83519
 H156 H 0.82597 0.80364 0.81810
 N157 N 0.17049 0.87169 1.24961
 N158 N 0.13685 0.85216 1.25934
 C159 C 0.12695 0.85995 1.29817
 C160 C 0.15616 0.88551 1.31341
 C161 C 0.18330 0.89238 1.28184
 H162 H 0.10049 0.84803 1.31408
 H163 H 0.21002 0.91146 1.28211
 Cu164 Cu 0.10934 0.81815 1.22063
 Cu165 Cu 0.19445 0.86988 1.19570
 Cu166 Cu 0.15653 0.79799 1.13174
 N167 N 0.09348 0.77295 1.18764
 N168 N 0.11302 0.76402 1.15398
 C169 C 0.09680 0.73034 1.13865
 C170 C 0.06519 0.71792 1.16384
 C171 C 0.06381 0.74565 1.19456
 H172 H 0.10673 0.71630 1.11091
 H173 H 0.04322 0.74560 1.22034
 N174 N 0.20020 0.83593 1.11539
 N175 N 0.21451 0.86345 1.13997
 C176 C 0.24472 0.88388 1.12101
 C177 C 0.24966 0.86853 1.08272
 C178 C 0.22096 0.83819 1.08000
 H179 H 0.26270 0.90743 1.13438
 H180 H 0.21641 0.81850 1.05463
 H181 H 0.14431 0.84956 1.16313
 H182 H 0.17576 0.81062 1.18934
 N183 N 0.86207 1.13377 1.21462
 N184 N 0.88591 1.16280 1.20093
 C185 C 0.91834 1.16601 1.22530
 C186 C 0.91450 1.13739 1.25569
 C187 C 0.87853 1.11744 1.24803
 H188 H 0.94260 1.18784 1.22160
 H189 H 0.86502 1.09333 1.26584
 Cu190 Cu 0.87207 1.19412 1.15303
 Cu191 Cu 0.81131 1.11971 1.18851
 Cu192 Cu 0.78259 1.17836 1.10685
 N193 N 0.85516 1.22641 1.10685
 N194 N 0.82156 1.21797 1.08732
 C195 C 0.81677 1.24457 1.05697
 C196 C 0.84859 1.27158 1.05806
 C197 C 0.87243 1.25944 1.09007
 H198 H 0.79075 1.24578 1.03722
 H199 H 0.89974 1.27403 1.10074
 N200 N 0.74720 1.13718 1.13145
 N201 N 0.75738 1.11568 1.16351
 C202 C 0.72496 1.09355 1.17575
 C203 C 0.69318 1.10165 1.14993
 C204 C 0.70831 1.12909 1.12218
 H205 H 0.72425 1.07376 1.20190
 H206 H 0.69155 1.14325 1.09800
 H207 H 0.82567 1.14147 1.13078
 H208 H 0.80138 1.17709 1.16691
 N209 N 0.56928 0.95391 0.95323
 N210 N 0.60723 0.94506 0.94355
 N211 N 0.47886 0.93119 0.93985
 N212 N 0.44631 0.91379 0.92453
 N213 N 0.49385 0.95795 0.91421
 N214 N 0.47214 0.95912 0.88084
 N215 N 0.55450 0.92794 0.97971
 N216 N 0.58203 0.90102 0.98924
 C217 C 0.61475 0.91222 0.96656
 C218 C 0.44301 0.93106 0.88747
 N219 N 0.42530 0.96230 1.04082
 N220 N 0.38635 0.95683 1.05010
 N221 N 0.51353 0.93140 1.05686
 N222 N 0.54387 0.91183 1.07383
 N223 N 0.50016 0.95937 1.08117
 N224 N 0.52062 0.95907 1.11532
 N225 N 0.43799 0.93401 1.01659
 N226 N 0.40810 0.90913 1.00801
 Mn227 Mn 0.49628 0.93068 0.99833
 C228 C 0.37611 0.92375 1.02889
 C229 C 0.54737 0.92906 1.11058
 N230 N 0.49958 1.04404 0.91220
 N231 N 0.47832 1.04476 0.87853
 N232 N 0.56432 1.06873 0.97556
 N233 N 0.59686 1.09016 0.98545
 N234 N 0.57477 1.03964 0.95125
 N235 N 0.61420 1.04016 0.94418
 N236 N 0.48770 1.07258 0.93663
 N237 N 0.45752 1.09286 0.92031
 Mn238 Mn 0.53456 0.99892 0.93238
 C239 C 0.45262 1.07562 0.88376
 C240 C 0.62763 1.07196 0.96515
 N241 N 0.50580 1.04521 1.07912
 N242 N 0.52644 1.04398 1.11317
 N243 N 0.44682 1.07606 1.01407
 N244 N 0.42090 1.10544 1.00794
 N245 N 0.43105 1.04924 1.03923
 N246 N 0.39436 1.06005 1.05139
 N247 N 0.52250 1.07115 1.05352
 N248 N 0.55510 1.08774 1.06954
 Mn249 Mn 0.46513 1.00405 1.06036
 Mn250 Mn 0.50547 1.07272 0.99498
 Cl251 Cl 0.50032 1.00167 0.99652
 C252 C 0.55668 1.07095 1.10697
 C253 C 0.38824 1.09484 1.03112
 N254 N -0.08742 0.46002 -0.00620
 N255 N -0.10675 0.42802 -0.01919
 N256 N -0.08022 0.54247 0.03511
 N257 N -0.09784 0.57355 0.05214
 N258 N -0.08520 0.54356 -0.00432
 N259 N -0.10679 0.57486 -0.01518
 N260 N -0.08180 0.45768 0.03311
 N261 N -0.09673 0.42359 0.04777
 C262 C -0.11258 0.40578 0.01477
 C263 C -0.11440 0.59324 0.02031
 N264 N 0.02818 0.53991 0.08230
 N265 N 0.04486 0.57169 0.09911
 N266 N -0.01291 0.45542 0.08641
 N267 N -0.02506 0.42257 0.10579
 N268 N 0.02672 0.45534 0.08093
 N269 N 0.04255 0.42234 0.09611
 N270 N -0.01140 0.53957 0.08827
 N271 N -0.02265 0.57081 0.10964
 Mn272 Mn -0.04698 0.49874 0.06119
 C273 C 0.01279 0.59041 0.11630
 C274 C 0.00996 0.40242 0.11178
 N275 N -0.03119 0.54525 -0.07339
 N276 N -0.04651 0.57791 -0.08986
 N277 N 0.00586 0.45989 -0.08041
 N278 N 0.01652 0.42711 -0.09962
 N279 N -0.03377 0.46081 -0.07506
 N280 N -0.05108 0.42861 -0.09026
 N281 N 0.00830 0.54401 -0.07950
 N282 N 0.02091 0.57554 -0.10070
 Mn283 Mn -0.05973 0.50253 -0.04004
 C284 C -0.01365 0.59629 -0.10696
 C285 C -0.01940 0.40813 -0.10573
 N286 N 0.08052 0.45673 0.01179
 N287 N 0.10115 0.42478 0.02281
 N288 N 0.07696 0.54198 -0.02639
 N289 N 0.09280 0.57526 -0.04194
 N290 N 0.08214 0.54070 0.01303
 N291 N 0.10209 0.57269 0.02525
 N292 N 0.07496 0.45726 -0.02756
 N293 N 0.09130 0.42540 -0.04434
 Mn294 Mn 0.05478 0.49821 0.04735
 Mn295 Mn 0.04191 0.50074 -0.05390
 Cl296 Cl -0.00250 0.50007 0.00368
 C297 C 0.10768 0.40562 -0.01253
 C298 C 0.10871 0.59378 -0.00939
 N299 N 1.01916 0.07004 0.55858
 N300 N 1.01267 0.09710 0.58660
 N301 N 1.08331 0.04350 0.49519
 N302 N 1.11705 0.04366 0.47314
 N303 N 1.05803 0.07069 0.48158
 N304 N 1.07387 0.08951 0.44958
 N305 N 1.04450 0.04275 0.57162
 N306 N 1.05651 0.05100 0.60881
 C307 C 1.03584 0.08476 0.61783
 C308 C 1.11097 0.07276 0.44519
 N309 N 1.05708 -0.06958 0.48122
 N310 N 1.07303 -0.08846 0.45001
 N311 N 1.04362 -0.04433 0.57110
 N312 N 1.05472 -0.05325 0.60853
 N313 N 1.01806 -0.07140 0.55767
 N314 N 1.01061 -0.09903 0.58559
 N315 N 1.08269 -0.04260 0.49483
 N316 N 1.11679 -0.04276 0.47337
 Mn317 Mn 1.06390 -0.00017 0.53359
 C318 C 1.11048 -0.07183 0.44595
 C319 C 1.03338 -0.08724 0.61719
 N320 N 0.97998 0.07168 0.44360
 N321 N 0.98812 0.09864 0.41517
 N322 N 0.91556 0.04257 0.50704
 N323 N 0.88336 0.03975 0.53117
 N324 N 0.94106 0.06984 0.52042
 N325 N 0.92667 0.08587 0.55404
 N326 N 0.95432 0.04461 0.43043
 N327 N 0.94391 0.05274 0.39263
 Mn328 Mn 0.99955 0.07100 0.50101
 C329 C 0.96563 0.08637 0.38356
 C330 C 0.89035 0.06731 0.55990
 N331 N 0.94038 -0.07068 0.51910
 N332 N 0.92412 -0.09099 0.54986
 N333 N 0.95372 -0.04210 0.42970
 N334 N 0.94133 -0.05020 0.39265
 N335 N 0.97929 -0.06937 0.44239
 N336 N 0.98557 -0.09629 0.41416
 N337 N 0.91497 -0.04352 0.50581
 N338 N 0.88056 -0.04518 0.52676
 Mn339 Mn 0.99872 -0.07066 0.50008
 Mn340 Mn 0.93428 0.00049 0.46788
 Cl341 Cl 0.99912 0.00015 0.50067
 C342 C 0.88659 -0.07516 0.55377
 C343 C 0.96200 -0.08379 0.38327
 C344 C 1.15915 0.09740 0.35258
 C345 C 1.19016 0.07501 0.36901
 C346 C 1.17647 0.06357 0.40655
 C347 C 1.13835 0.08007 0.41038
 O348 O 1.12767 0.10057 0.37771
 H349 H 1.21895 0.06724 0.35512
 H350 H 1.19204 0.04481 0.42826
 C351 C 0.93094 -0.13152 0.29445
 C352 C 0.96761 -0.15074 0.29907
 C353 C 0.98460 -0.13447 0.33258
 C354 C 0.95722 -0.10632 0.34570
 O355 O 0.92455 -0.10437 0.32268
 H356 H 0.97993 -0.17463 0.28096
 H357 H 1.01315 -0.14266 0.34634
 C358 C 0.85262 0.08189 0.65818
 C359 C 0.82721 0.05058 0.64821
 C360 C 0.83647 0.04234 0.60880
 C361 C 0.86703 0.06901 0.59797
 O362 O 0.87684 0.09312 0.62782
 H363 H 0.80492 0.03545 0.66741
 H364 H 0.82357 0.01882 0.59059
 C365 C 1.06032 -0.13531 0.70794
 C366 C 1.02650 -0.15832 0.69954
 C367 C 1.01117 -0.14239 0.66482
 C368 C 1.03673 -0.11083 0.65474
 O369 O 1.06660 -0.10635 0.68085
 H370 H 1.01505 -0.18423 0.71609
 H371 H 0.98503 -0.15304 0.64827
 C372 C 0.30042 1.14548 1.06293
 C373 C 0.30859 1.16812 1.02844
 C374 C 0.34245 1.15163 1.01147
 C375 C 0.35219 1.12000 1.03657
 O376 O 0.32675 1.11607 1.06776
 H377 H 0.29245 1.19406 1.01738
 H378 H 0.35845 1.16172 0.98435
 C379 C 0.34790 0.91210 0.84498
 C380 C 0.36109 0.94041 0.81690
 C381 C 0.39984 0.94978 0.82792
 C382 C 0.40712 0.92677 0.86196
 O383 O 0.37580 0.90377 0.87230
 H384 H 0.34448 0.95298 0.79172
 H385 H 0.41994 0.97163 0.81367
 C386 C 0.63819 0.90482 1.15957
 C387 C 0.62350 0.93121 1.18799
 C388 C 0.58634 0.94240 1.17414
 C389 C 0.58125 0.92220 1.13832
 O390 O 0.61256 0.89926 1.12941
 H391 H 0.63815 0.94138 1.21527
 H392 H 0.56578 0.96348 1.18795
 C393 C 0.72843 1.09847 0.94570
 C394 C 0.73423 1.06095 0.96236
 C395 C 0.69749 1.04949 0.97772
 C396 C 0.67138 1.08036 0.96894
 O397 O 0.69019 1.11052 0.94970
 H398 H 0.76148 1.04302 0.96121
 H399 H 0.68952 1.02015 0.98972
 C400 C 0.03664 0.30823 0.15026
 C401 C -0.00342 0.30749 0.16320
 C402 C -0.01928 0.34294 0.15018
 C403 C 0.01247 0.36263 0.13069
 O404 O 0.04634 0.34164 0.13055
 H405 H -0.01918 0.28390 0.17990
 H406 H -0.05011 0.35329 0.15451
 C407 C -0.04905 0.31581 -0.14564
 C408 C -0.00888 0.31530 -0.15829
 C409 C 0.00788 0.34979 -0.14434
 C410 C -0.02343 0.36893 -0.12468
 O411 O -0.05803 0.34837 -0.12515
 H412 H 0.00636 0.29247 -0.17565
 H413 H 0.03899 0.36006 -0.14844
 C414 C 0.14798 0.68903 -0.03270
 C415 C 0.16436 0.68544 0.00546
 C416 C 0.15120 0.64912 0.01978
 C417 C 0.12842 0.63320 -0.01105
 O418 O 0.12620 0.65737 -0.04286
 H419 H 0.18344 0.70680 0.02096
 H420 H 0.15781 0.63561 0.04892
 C421 C -0.16129 0.68306 0.04668
 C422 C -0.17854 0.67910 0.00902
 C423 C -0.16267 0.64484 -0.00627
 C424 C -0.13752 0.63030 0.02355
 O425 O -0.13642 0.65348 0.05567
 H426 H -0.19970 0.69906 -0.00566
 H427 H -0.16893 0.63177 -0.03544
 C428 C 1.06470 0.13284 0.70742
 C429 C 1.02883 0.15297 0.70106
 C430 C 1.01278 0.13663 0.66711
 C431 C 1.03985 0.10756 0.65543
 O432 O 1.07145 0.10506 0.67984
 H433 H 1.01633 0.17728 0.71847
 H434 H 0.98503 0.14535 0.65214
 C435 C 0.83946 -0.10154 0.64583
 C436 C 0.80714 -0.08125 0.62926
 C437 C 0.82003 -0.06974 0.59146
 C438 C 0.85909 -0.08401 0.58792
 O439 O 0.87099 -0.10333 0.62078
 H440 H 0.77806 -0.07487 0.64332
 H441 H 0.80339 -0.05224 0.56950
 C442 C 1.15692 -0.09677 0.35392
 C443 C 1.18742 -0.07200 0.36783
 C444 C 1.17471 -0.06036 0.40532
 C445 C 1.13756 -0.07903 0.41136
 O446 O 1.12665 -0.10112 0.38029
 H447 H 1.21506 -0.06273 0.35217
 H448 H 1.19002 -0.03979 0.42529
 C449 C 0.94145 0.13085 0.29030
 C450 C 0.97547 0.15375 0.29831
 C451 C 0.98970 0.13933 0.33419
 C452 C 0.96338 0.10867 0.34518
 O453 O 0.93407 0.10336 0.31864
 H454 H 0.98779 0.17860 0.28071
 H455 H 1.01569 0.15028 0.35075
 C456 C 0.15233 0.31477 -0.03983
 C457 C 0.16936 0.31780 -0.00195
 C458 C 0.15402 0.35209 0.01388
 C459 C 0.12939 0.36764 -0.01585
 O460 O 0.12808 0.34499 -0.04843
 H461 H 0.19026 0.29735 0.01240
 H462 H 0.16052 0.36465 0.04322
 C463 C -0.14662 0.30773 0.03298
 C464 C -0.16325 0.31254 -0.00494
 C465 C -0.15237 0.35024 -0.01702
 C466 C -0.13054 0.36563 0.01476
 O467 O -0.12674 0.33989 0.04510
 H468 H -0.18091 0.29104 -0.02180
 H469 H -0.15964 0.36489 -0.04542
 C470 C -0.03665 0.68955 -0.14983
 C471 C 0.00091 0.68509 -0.16818
 C472 C 0.01509 0.64942 -0.15397
 C473 C -0.01522 0.63471 -0.12860
 O474 O -0.04657 0.65903 -0.12584
 H475 H 0.01625 0.70559 -0.18897
 H476 H 0.04381 0.63558 -0.16147
 C477 C 0.03834 0.68301 0.15862
 C478 C 0.00057 0.67851 0.17681
 C479 C -0.01431 0.64304 0.16302
 C480 C 0.01575 0.62839 0.13797
 O481 O 0.04770 0.65261 0.13505
 H482 H -0.01455 0.69895 0.19710
 H483 H -0.04346 0.62939 0.17042
 C484 C 0.36039 1.10060 0.83815
 C485 C 0.37427 1.07501 0.80868
 C486 C 0.41202 1.06388 0.82092
 C487 C 0.41815 1.08330 0.85701
 O488 O 0.38696 1.10578 0.86751
 H489 H 0.35855 1.06521 0.78186
 H490 H 0.43221 1.04319 0.80598
 C491 C 0.28193 0.87945 1.05343
 C492 C 0.28767 0.86135 1.01647
 C493 C 0.32325 0.87700 1.00154
 C494 C 0.33628 0.90367 1.03035
 O495 O 0.31128 0.90532 1.06186
 H496 H 0.26906 0.83841 1.00281
 H497 H 0.33858 0.86903 0.97361
 C498 C 0.65134 1.08631 1.15148
 C499 C 0.63485 1.06249 1.18193
 C500 C 0.59587 1.05488 1.17019
 C501 C 0.59183 1.07459 1.13353
 O502 O 0.62534 1.09371 1.12218
 H503 H 0.64955 1.05163 1.20905
 H504 H 0.57343 1.03643 1.18588
 C505 C 0.70712 0.86608 0.94307
 C506 C 0.70125 0.84840 0.98069
 C507 C 0.66562 0.86379 0.99503
 C508 C 0.65292 0.88998 0.96526
 O509 O 0.67796 0.89144 0.93374
 H510 H 0.71998 0.82616 0.99532
 H511 H 0.65050 0.85655 1.02351
   
