data_POSCAR
  _audit_creation_date              2014-09-24
  _audit_creation_method            'ToBaCCo'
  _symmetry_space_group_name_H-M    'P1'
  _symmetry_Int_Tables_number       1
  _symmetry_cell_setting            triclinic
  loop_
  _symmetry_equiv_pos_as_xyz
 x,y,z
_cell_length_a 34.1875
_cell_length_b 34.1358
_cell_length_c 29.0764
_cell_angle_alpha 90.051200
_cell_angle_beta 89.504200
_cell_angle_gamma 118.578700
loop_
  _atom_site_label
  _atom_site_type_symbol
  _atom_site_fract_x
  _atom_site_fract_y
  _atom_site_fract_z
O1 O 0.01482 0.54988 0.05316
 O2 O -0.05425 0.44645 -0.01119
 O3 O 0.00314 0.46931 0.05623
 O4 O -0.04757 0.52515 -0.00909
 O5 O 0.00359 0.54390 -0.06313
 O6 O 0.05738 0.49147 0.00448
 O7 O -0.00012 0.46621 -0.06272
 O8 O 0.06614 0.57138 -0.00138
 Cu9 Cu -0.02628 0.49570 0.02750
 Cu10 Cu 0.03699 0.52026 -0.03594
 C11 C 0.05297 0.57775 0.03738
 C12 C -0.03892 0.43918 -0.04834
 C13 C 0.03947 0.47188 0.04213
 C14 C -0.03160 0.54335 -0.04775
 O15 O 0.56791 0.51455 -0.00821
 O16 O 0.46417 0.46912 0.05946
 O17 O 0.49056 0.43996 -0.00949
 O18 O 0.53429 0.54585 0.05473
 O19 O 0.50961 0.57362 0.00078
 O20 O 0.47149 0.47087 -0.06538
 O21 O 0.43564 0.49441 0.00671
 O22 O 0.54154 0.54377 -0.05896
 Cu23 Cu 0.51756 0.48982 0.02897
 Cu24 Cu 0.48507 0.52218 -0.03328
 C25 C 0.57297 0.53738 -0.04439
 C26 C 0.43232 0.47441 0.04467
 C27 C 0.47387 0.43765 -0.04902
 C28 C 0.52804 0.57732 0.03930
 O29 O 0.44515 0.94990 0.00919
 O30 O 0.55574 1.01433 -0.04532
 O31 O 0.52230 0.95209 0.01662
 O32 O 0.48146 1.01232 -0.05573
 O33 O 0.49480 1.06161 -0.00078
 O34 O 0.54276 1.00498 0.06898
 O35 O 0.57266 1.06759 0.00618
 O36 O 0.46471 1.00069 0.06371
 Cu37 Cu 0.49867 0.97645 -0.02383
 Cu38 Cu 0.52037 1.03863 0.04015
 C39 C 0.43638 0.96409 0.04623
 C40 C 0.58194 1.05304 -0.03022
 C41 C 0.54058 0.96881 0.05463
 C42 C 0.48323 1.04837 -0.04178
 O43 O 1.06151 0.56018 0.49600
 O44 O 0.99424 0.45116 0.55283
 O45 O 1.05159 0.47987 0.48529
 O46 O 1.00500 0.52992 0.56654
 O47 O 0.94845 0.51261 0.52004
 O48 O 0.99978 0.47067 0.43534
 O49 O 0.94060 0.43551 0.50271
 O50 O 1.00505 0.54709 0.45089
 Cu51 Cu 1.03390 0.50718 0.52971
 Cu52 Cu 0.96808 0.49010 0.47233
 C53 C 1.04483 0.57210 0.46346
 C54 C 0.95533 0.42537 0.53819
 C55 C 1.03502 0.46898 0.44542
 C56 C 0.96691 0.52620 0.55877
 O57 O 0.52579 0.52987 0.44178
 O58 O 0.47521 0.42130 0.50270
 O59 O 0.45176 0.45614 0.43440
 O60 O 0.55252 0.49138 0.50283
 O61 O 0.52638 0.51993 0.55533
 O62 O 0.42377 0.48269 0.48710
 O63 O 0.44908 0.44963 0.55551
 O64 O 0.49813 0.55643 0.49465
 Cu65 Cu 0.50393 0.47191 0.46516
 Cu66 Cu 0.47151 0.50470 0.52841
 C67 C 0.51911 0.56114 0.45721
 C68 C 0.45476 0.41788 0.54047
 C69 C 0.42118 0.46429 0.44831
 C70 C 0.55659 0.51124 0.54074
 O71 O 0.46565 -0.00765 0.45062
 O72 O 0.56632 0.05340 0.51962
 O73 O 0.54298 -0.00591 0.45600
 O74 O 0.48856 0.04878 0.51934
 O75 O 0.46452 -0.00523 0.57127
 O76 O 0.51338 -0.06260 0.50425
 O77 O 0.54160 -0.00277 0.56891
 O78 O 0.43802 -0.06160 0.50239
 Cu79 Cu 0.51813 0.02748 0.48110
 Cu80 Cu 0.48656 -0.03859 0.54177
 C81 C 0.43448 -0.04474 0.46470
 C82 C 0.57155 0.03548 0.55557
 C83 C 0.53775 -0.04359 0.46937
 C84 C 0.46846 0.03155 0.55692
 C85 C 0.31362 0.39148 0.22115
 C86 C 0.31340 0.39409 0.26826
 C87 C 0.27990 0.40427 0.28000
 N88 N 0.25917 0.40709 0.24178
 C89 C 0.27986 0.39949 0.20579
 C90 C 0.27468 0.41927 0.32380
 C91 C 0.23901 0.42762 0.33454
 C92 C 0.23851 0.45392 0.37062
 C93 C 0.19839 0.45411 0.36871
 C94 C 0.17531 0.42746 0.33182
 N95 N 0.20022 0.41115 0.31143
 C96 C 0.13182 0.41770 0.31854
 C97 C 0.11431 0.39874 0.27534
 C98 C 0.07057 0.38349 0.26202
 C99 C 0.07003 0.37914 0.21500
 C100 C 0.11323 0.39098 0.20141
 N101 N 0.14008 0.40265 0.23833
 C102 C 0.12943 0.40159 0.15590
 C103 C 0.17172 0.40769 0.14234
 C104 C 0.19331 0.42770 0.10152
 C105 C 0.23444 0.42981 0.10265
 C106 C 0.23681 0.41109 0.14415
 N107 N 0.19795 0.39650 0.16759
 C108 C 0.27463 0.40877 0.15969
 H109 H 0.33739 0.38663 0.20039
 H110 H 0.33706 0.39172 0.29104
 H111 H 0.18927 0.37867 0.19841
 H112 H 0.26465 0.47183 0.39521
 H113 H 0.18775 0.47222 0.39167
 H114 H 0.04278 0.37928 0.28346
 H115 H 0.04182 0.37099 0.19298
 H116 H 0.26010 0.44455 0.07641
 H117 H 0.19002 0.38729 0.28549
 H118 H 0.18117 0.44049 0.07425
 C119 C 0.55479 0.65743 0.27407
 C120 C 0.55471 0.65935 0.22698
 C121 C 0.57307 0.70409 0.21528
 N122 N 0.58477 0.72952 0.25358
 C123 C 0.57288 0.70099 0.28959
 C124 C 0.57920 0.72077 0.16984
 C125 C 0.59219 0.76576 0.15947
 C126 C 0.60601 0.78534 0.11648
 C127 C 0.60791 0.82654 0.11877
 C128 C 0.59499 0.83075 0.16304
 N129 N 0.58586 0.79376 0.18763
 C130 C 0.58633 0.86524 0.17802
 C131 C 0.57970 0.87205 0.22469
 C132 C 0.56322 0.89973 0.24029
 C133 C 0.56287 0.89767 0.28737
 C134 C 0.57938 0.86897 0.29895
 N135 N 0.58999 0.85366 0.26057
 C136 C 0.58619 0.85881 0.34434
 C137 C 0.59413 0.82277 0.35485
 C138 C 0.60669 0.81471 0.39754
 C139 C 0.60433 0.77329 0.39526
 C140 C 0.59094 0.75755 0.35110
 N141 N 0.58500 0.78793 0.32674
 C142 C 0.57822 0.71369 0.33634
 H143 H 0.54270 0.62736 0.29451
 H144 H 0.54217 0.63099 0.20408
 H145 H 0.56863 0.78194 0.29554
 H146 H 0.61218 0.77065 0.08614
 H147 H 0.61599 0.84990 0.09056
 H148 H 0.55227 0.91912 0.21991
 H149 H 0.55152 0.91516 0.31038
 H150 H 0.61022 0.75601 0.42332
 H151 H 0.56906 0.78502 0.21897
 H152 H 0.61491 0.83566 0.42772
 C153 C 0.11761 0.65592 0.22911
 C154 C 0.11716 0.65547 0.27634
 C155 C 0.14629 0.69848 0.29026
 N156 N 0.16387 0.72537 0.25321
 C157 C 0.14674 0.69936 0.21576
 C158 C 0.15490 0.71253 0.33656
 C159 C 0.18948 0.75464 0.35000
 C160 C 0.19423 0.77236 0.39380
 C161 C 0.23382 0.81171 0.39387
 C162 C 0.25215 0.81688 0.35012
 N163 N 0.22495 0.78193 0.32367
 C164 C 0.29457 0.85143 0.33676
 C165 C 0.30912 0.86071 0.29045
 C166 C 0.35219 0.89032 0.27641
 C167 C 0.35189 0.89135 0.22925
 C168 C 0.30868 0.86227 0.21605
 N169 N 0.28253 0.84394 0.25352
 C170 C 0.29369 0.85460 0.17012
 C171 C 0.25109 0.82075 0.15730
 C172 C 0.23269 0.81668 0.11411
 C173 C 0.19344 0.77702 0.11408
 C174 C 0.18896 0.75814 0.15731
 N175 N 0.22416 0.78503 0.18341
 C176 C 0.15609 0.71464 0.16970
 H177 H 0.09860 0.62752 0.20721
 H178 H 0.09779 0.62679 0.29802
 H179 H 0.23260 0.77622 0.21445
 H180 H 0.17187 0.75805 0.42290
 H181 H 0.24787 0.83365 0.42302
 H182 H 0.38083 0.90932 0.29787
 H183 H 0.38025 0.91128 0.20723
 H184 H 0.17140 0.76299 0.08511
 H185 H 0.23293 0.77425 0.29159
 H186 H 0.24673 0.83928 0.08521
 C187 C 0.80447 0.49586 0.79784
 C188 C 0.79509 0.48154 0.75332
 C189 C 0.82820 0.51430 0.72648
 N190 N 0.85686 0.54871 0.75238
 C191 C 0.84233 0.53715 0.79613
 C192 C 0.82716 0.51617 0.67845
 C193 C 0.79095 0.51887 0.65807
 C194 C 0.78213 0.51851 0.61157
 C195 C 0.74610 0.52636 0.60816
 C196 C 0.73393 0.53112 0.65267
 N197 N 0.76074 0.52542 0.68246
 C198 C 0.69804 0.53887 0.66517
 C199 C 0.68952 0.54742 0.71093
 C200 C 0.64914 0.54291 0.72644
 C201 C 0.65413 0.55337 0.77230
 C202 C 0.69770 0.56478 0.78336
 N203 N 0.71935 0.56160 0.74558
 C204 C 0.71625 0.57766 0.82789
 C205 C 0.76012 0.58760 0.83976
 C206 C 0.78069 0.60641 0.88107
 C207 C 0.82029 0.60477 0.88199
 C208 C 0.82193 0.58371 0.84186
 N209 N 0.78624 0.57524 0.81567
 C210 C 0.85288 0.56857 0.83102
 H211 H 0.78359 0.48016 0.82765
 H212 H 0.76622 0.45175 0.74149
 H213 H 0.77871 0.55836 0.78465
 H214 H 0.79961 0.51326 0.58307
 H215 H 0.73085 0.52858 0.57650
 H216 H 0.61886 0.53211 0.70700
 H217 H 0.62837 0.55243 0.79488
 H218 H 0.84365 0.61542 0.91009
 H219 H 0.75827 0.52515 0.71796
 H220 H 0.76783 0.61882 0.90831
 C221 C 0.40084 0.08380 0.78563
 C222 C 0.39519 0.07902 0.73886
 C223 C 0.40635 0.12088 0.72152
 N224 N 0.41862 0.15095 0.75585
 C225 C 0.41582 0.12856 0.79501
 C226 C 0.41313 0.13276 0.67464
 C227 C 0.41806 0.17396 0.65872
 C228 C 0.43519 0.19279 0.61607
 C229 C 0.43423 0.23263 0.61434
 C230 C 0.41647 0.23686 0.65596
 N231 N 0.40609 0.20067 0.68250
 C232 C 0.40908 0.27283 0.66828
 C233 C 0.40157 0.28093 0.71426
 C234 C 0.38658 0.31039 0.72780
 C235 C 0.39107 0.31424 0.77476
 C236 C 0.40949 0.28765 0.78813
 N237 N 0.41537 0.26696 0.75111
 C238 C 0.42668 0.28749 0.83222
 C239 C 0.44077 0.25598 0.84370
 C240 C 0.46994 0.26045 0.87869
 C241 C 0.47224 0.22125 0.88011
 C242 C 0.44437 0.19405 0.84598
 N243 N 0.42530 0.21543 0.82407
 C244 C 0.43561 0.15001 0.83657
 H245 H 0.39725 0.05800 0.80958
 H246 H 0.38610 0.04881 0.71952
 H247 H 0.39975 0.20149 0.80011
 H248 H 0.44747 0.17946 0.58918
 H249 H 0.44558 0.25592 0.58581
 H250 H 0.37496 0.32824 0.70587
 H251 H 0.38345 0.33563 0.79630
 H252 H 0.49214 0.21371 0.90358
 H253 H 0.38888 0.19320 0.71378
 H254 H 0.48758 0.28890 0.90096
 C255 C 0.90610 0.34048 0.76662
 C256 C 0.90513 0.33692 0.71969
 C257 C 0.87166 0.29462 0.70916
 N258 N 0.85314 0.27154 0.74827
 C259 C 0.87344 0.29985 0.78346
 C260 C 0.85821 0.27909 0.66380
 C261 C 0.82309 0.23636 0.65291
 C262 C 0.81405 0.21841 0.60905
 C263 C 0.77498 0.17866 0.61211
 C264 C 0.76104 0.17358 0.65770
 N265 N 0.79065 0.20884 0.68221
 C266 C 0.71990 0.13911 0.67444
 C267 C 0.70795 0.13114 0.72159
 C268 C 0.66608 0.10055 0.73788
 C269 C 0.66770 0.10346 0.78486
 C270 C 0.71041 0.13584 0.79591
 N271 N 0.73519 0.15210 0.75720
 C272 C 0.72515 0.15001 0.84128
 C273 C 0.76727 0.18587 0.85246
 C274 C 0.78350 0.19695 0.89679
 C275 C 0.82229 0.23690 0.89385
 C276 C 0.82877 0.24905 0.84778
 N277 N 0.79515 0.21771 0.82292
 C278 C 0.86266 0.29022 0.83066
 H279 H 0.92819 0.36974 0.78604
 H280 H 0.92658 0.36246 0.69579
 H281 H 0.78807 0.22127 0.78924
 H282 H 0.83315 0.23292 0.57793
 H283 H 0.75812 0.15660 0.58373
 H284 H 0.63712 0.07872 0.71804
 H285 H 0.64038 0.08417 0.80822
 H286 H 0.84272 0.25547 0.92254
 H287 H 0.78562 0.21678 0.71522
 H288 H 0.76819 0.17889 0.92819
 C289 C 0.09111 0.48115 0.10729
 C290 C 0.06277 0.45473 0.07162
 C291 C 0.05728 0.41190 0.06370
 C292 C 0.07898 0.39477 0.09110
 C293 C 0.10764 0.42066 0.12605
 C294 C 0.11516 0.46477 0.13333
 C295 C 0.09615 0.52365 0.11770
 C296 C 0.12645 0.55063 0.15067
 C297 C 0.15225 0.53579 0.17394
 C298 C 0.14634 0.49308 0.16599
 H299 H 0.07661 0.53621 0.10063
 H300 H 0.13000 0.58319 0.15820
 H301 H 0.17610 0.55703 0.19915
 H302 H 0.16659 0.48269 0.18551
 H303 H 0.03562 0.39145 0.03654
 H304 H 0.07348 0.36120 0.08506
 C305 C 0.51377 0.63803 0.07462
 C306 C 0.54159 0.61797 0.06742
 C307 C 0.58198 0.63460 0.09101
 C308 C 0.59477 0.66946 0.12216
 C309 C 0.56726 0.68845 0.13130
 C310 C 0.52672 0.67331 0.10717
 C311 C 0.47222 0.62249 0.05248
 C312 C 0.44480 0.64141 0.06165
 C313 C 0.45753 0.67566 0.09340
 C314 C 0.49783 0.69133 0.11626
 H315 H 0.45937 0.59493 0.02886
 H316 H 0.41310 0.62890 0.04449
 H317 H 0.43583 0.68985 0.10075
 H318 H 0.50575 0.71738 0.14134
 H319 H 0.60353 0.61978 0.08598
 H320 H 0.62563 0.68063 0.14070
 C321 C 0.37048 0.95499 0.09518
 C322 C 0.39411 0.93638 0.07131
 C323 C 0.38034 0.89075 0.07606
 C324 C 0.34634 0.86440 0.10668
 C325 C 0.32502 0.88284 0.13336
 C326 C 0.33592 0.92803 0.12680
 C327 C 0.38005 0.99963 0.08804
 C328 C 0.35704 1.01753 0.11248
 C329 C 0.32396 0.99138 0.14408
 C330 C 0.31325 0.94696 0.15117
 H331 H 0.40459 1.02081 0.06294
 H332 H 0.36475 1.05181 0.10666
 H333 H 0.30620 1.00547 0.16288
 H334 H 0.28684 0.92751 0.17548
 H335 H 0.39785 0.87591 0.05803
 H336 H 0.33796 0.82974 0.11124
 C337 C 0.92794 0.50375 0.63571
 C338 C 0.94064 0.53193 0.59638
 C339 C 0.91913 0.55716 0.58774
 C340 C 0.88448 0.55356 0.61613
 C341 C 0.86682 0.52114 0.65118
 C342 C 0.88864 0.49542 0.66078
 C343 C 0.95214 0.48193 0.64961
 C344 C 0.93715 0.45144 0.68571
 C345 C 0.89624 0.43936 0.70646
 C346 C 0.87174 0.46038 0.69355
 H347 H 0.98341 0.48870 0.63401
 H348 H 0.95724 0.43671 0.69696
 H349 H 0.88346 0.41376 0.73282
 H350 H 0.83927 0.44802 0.70900
 H351 H 0.92869 0.57919 0.55815
 H352 H 0.87026 0.57528 0.60934
 C353 C 0.40331 0.33687 0.56176
 C354 C 0.44120 0.37854 0.57000
 C355 C 0.46667 0.38446 0.60929
 C356 C 0.45544 0.34982 0.64035
 C357 C 0.41794 0.30823 0.63353
 C358 C 0.39134 0.30136 0.59403
 C359 C 0.37663 0.32996 0.52274
 C360 C 0.33891 0.28887 0.51561
 C361 C 0.32705 0.25424 0.54722
 C362 C 0.35284 0.26032 0.58621
 H363 H 0.38465 0.35620 0.49766
 H364 H 0.31866 0.28392 0.48552
 H365 H 0.29761 0.22254 0.54156
 H366 H 0.34229 0.23280 0.61019
 H367 H 0.49569 0.41633 0.61595
 H368 H 0.47628 0.35549 0.67016
 C369 C 0.63721 0.04102 0.60152
 C370 C 0.61225 0.06057 0.58298
 C371 C 0.62572 0.10564 0.59149
 C372 C 0.66165 0.13077 0.61978
 C373 C 0.68541 0.11172 0.64033
 C374 C 0.67393 0.06683 0.63077
 C375 C 0.62730 -0.00314 0.59095
 C376 C 0.65206 -0.02175 0.60987
 C377 C 0.68726 0.00321 0.63923
 C378 C 0.69834 0.04719 0.64955
 H379 H 0.60102 -0.02345 0.56746
 H380 H 0.64404 -0.05567 0.60150
 H381 H 0.70636 -0.01144 0.65373
 H382 H 0.72636 0.06577 0.67192
 H383 H 0.60726 0.12119 0.57736
 H384 H 0.67020 0.16509 0.62693
 C385 C 0.49239 0.08451 0.88200
 C386 C 0.47427 0.07480 0.92763
 C387 C 0.44886 0.09451 0.94346
 C388 C 0.43681 0.11889 0.91380
 C389 C 0.45254 0.12725 0.86833
 C390 C 0.48292 0.11258 0.85313
 C391 C 0.52259 0.07018 0.86541
 C392 C 0.54241 0.08287 0.82208
 C393 C 0.53389 0.11109 0.79462
 C394 C 0.50491 0.12628 0.81003
 H395 H 0.53272 0.05035 0.88578
 H396 H 0.56523 0.07142 0.81013
 H397 H 0.55017 0.12164 0.76140
 H398 H 0.50054 0.14943 0.78810
 H399 H 0.43581 0.08866 0.97835
 H400 H 0.41449 0.13087 0.92624
 C401 C 0.63438 0.59551 0.90448
 C402 C 0.61483 0.55416 0.92862
 C403 C 0.63348 0.52568 0.92389
 C404 C 0.66818 0.53548 0.89303
 C405 C 0.68546 0.57412 0.86597
 C406 C 0.66975 0.60527 0.87250
 C407 C 0.62010 0.62763 0.91165
 C408 C 0.63915 0.66754 0.88678
 C409 C 0.67287 0.67640 0.85469
 C410 C 0.68827 0.64569 0.84761
 H411 H 0.59494 0.62282 0.93709
 H412 H 0.62783 0.69183 0.89261
 H413 H 0.68749 0.70743 0.83554
 H414 H 0.71501 0.65397 0.82293
 H415 H 0.61938 0.49419 0.94227
 H416 H 0.68014 0.51150 0.88838
 C417 C 0.89345 0.39479 0.90251
 C418 C 0.93295 0.39992 0.92346
 C419 C 0.94797 0.36902 0.91423
 C420 C 0.92435 0.33304 0.88504
 C421 C 0.88532 0.32728 0.86396
 C422 C 0.86942 0.35811 0.87259
 C423 C 0.87817 0.42625 0.90915
 C424 C 0.84005 0.42146 0.88717
 C425 C 0.81631 0.38531 0.85835
 C426 C 0.83064 0.35380 0.85109
 H427 H 0.89562 0.45496 0.93095
 H428 H 0.82892 0.44597 0.89245
 H429 H 0.78675 0.38178 0.84136
 H430 H 0.81130 0.32632 0.82825
 H431 H 0.97848 0.37307 0.92949
 H432 H 0.93693 0.30988 0.87817
 C433 C 0.59630 0.95721 0.41663
 C434 C 0.55707 0.93447 0.44439
 C435 C 0.53473 0.88752 0.44475
 C436 C 0.54615 0.86355 0.41377
 C437 C 0.58144 0.88542 0.38262
 C438 C 0.60839 0.93230 0.38558
 C439 C 0.62522 1.00364 0.42056
 C440 C 0.66332 1.02503 0.39302
 C441 C 0.67414 1.00077 0.36178
 C442 C 0.64729 0.95479 0.35832
 H443 H 0.61997 1.02378 0.44596
 H444 H 0.68498 1.06058 0.39645
 H445 H 0.70395 1.01754 0.34076
 H446 H 0.65766 0.93692 0.33470
 H447 H 0.50554 0.86896 0.46629
 H448 H 0.52564 0.82763 0.41239
 C449 C 0.39067 0.48110 0.37683
 C450 C 0.38397 0.45519 0.41715
 C451 C 0.34152 0.42005 0.42729
 C452 C 0.30621 0.40919 0.39715
 C453 C 0.31222 0.43400 0.35680
 C454 C 0.35421 0.47148 0.34738
 C455 C 0.43288 0.51685 0.36533
 C456 C 0.43855 0.54392 0.32734
 C457 C 0.40251 0.53571 0.29972
 C458 C 0.36070 0.49972 0.30926
 H459 H 0.46177 0.52455 0.38574
 H460 H 0.47097 0.57168 0.31964
 H461 H 0.40710 0.55737 0.27079
 H462 H 0.33356 0.49461 0.28688
 H463 H 0.33602 0.40009 0.45803
 H464 H 0.27409 0.38083 0.40494
 C465 C 0.05658 0.64029 0.41669
 C466 C 0.07324 0.61344 0.43704
 C467 C 0.11717 0.62287 0.42733
 C468 C 0.14345 0.65602 0.39592
 C469 C 0.12670 0.68079 0.37309
 C470 C 0.08338 0.67381 0.38398
 C471 C 0.01423 0.63517 0.42850
 C472 C -0.00188 0.66124 0.40744
 C473 C 0.02388 0.69310 0.37466
 C474 C 0.06622 0.69959 0.36307
 H475 H -0.00641 0.61187 0.45476
 H476 H -0.03443 0.65689 0.41683
 H477 H 0.01117 0.71323 0.35850
 H478 H 0.08551 0.72517 0.33798
 H479 H 0.13060 0.60282 0.44234
 H480 H 0.17665 0.66129 0.38799
 C481 C 0.96215 0.58622 0.88481
 C482 C 0.94470 0.55949 0.92538
 C483 C 0.89955 0.54423 0.93688
 C484 C 0.87096 0.54925 0.90686
 C485 C 0.88636 0.57123 0.86479
 C486 C 0.93237 0.59115 0.85400
 C487 C 1.00834 0.60967 0.87464
 C488 C 1.02422 0.63443 0.83418
 C489 C 0.99485 0.63745 0.80346
 C490 C 0.94941 0.61651 0.81338
 H491 H 1.03307 0.61100 0.89829
 H492 H 1.05966 0.65198 0.82697
 H493 H 1.00746 0.65700 0.77228
 H494 H 0.92791 0.62120 0.78948
 H495 H 0.88483 0.52474 0.96774
 H496 H 0.83580 0.53366 0.91556
 C497 C 0.43386 0.35492 0.94178
 C498 C 0.45945 0.39905 0.92410
 C499 C 0.47082 0.40491 0.87720
 C500 C 0.46073 0.36868 0.84879
 C501 C 0.43561 0.32483 0.86493
 C502 C 0.42075 0.31769 0.91154
 C503 C 0.41779 0.34683 0.98770
 C504 C 0.39049 0.30354 1.00358
 C505 C 0.37759 0.26749 0.97405
 C506 C 0.39202 0.27436 0.92839
 H507 H 0.42482 0.37359 1.01155
 H508 H 0.37849 0.29802 1.03881
 H509 H 0.35572 0.23404 0.98642
 H510 H 0.37982 0.24544 0.90635
 H511 H 0.49020 0.43810 0.86277
 H512 H 0.47285 0.37505 0.81358
 C513 C 0.62917 0.12417 0.92514
 C514 C 0.62197 0.08226 0.94250
 C515 C 0.65029 0.06532 0.92863
 C516 C 0.68504 0.08869 0.89758
 C517 C 0.69203 0.12937 0.87912
 C518 C 0.66451 0.14780 0.89313
 C519 C 0.60072 0.14215 0.93675
 C520 C 0.60709 0.18222 0.91759
 C521 C 0.64186 0.20537 0.88665
 C522 C 0.67037 0.18848 0.87442
 H523 H 0.57283 0.12546 0.95998
 H524 H 0.58472 0.19523 0.92662
 H525 H 0.64661 0.23643 0.87183
 H526 H 0.69674 0.20742 0.84991
 H527 H 0.64469 0.03312 0.94107
 H528 H 0.70563 0.07420 0.88648
 C529 C 0.06509 0.47390 0.36634
 C530 C 0.05687 0.45648 0.41210
 C531 C 0.07418 0.42843 0.42563
 C532 C 0.09646 0.41500 0.39444
 C533 C 0.10543 0.43175 0.34942
 C534 C 0.09095 0.46267 0.33546
 C535 C 0.05184 0.50537 0.35160
 C536 C 0.06239 0.52397 0.30777
 C537 C 0.08820 0.51370 0.27829
 C538 C 0.10320 0.48417 0.29210
 H539 H 0.03424 0.51722 0.37356
 H540 H 0.05125 0.54731 0.29699
 H541 H 0.09710 0.52932 0.24483
 H542 H 0.12491 0.47898 0.26862
 H543 H 0.06894 0.41531 0.46040
 H544 H 0.10775 0.39192 0.40587
 C545 C 0.50482 0.62050 0.42007
 C546 C 0.53383 0.60250 0.42993
 C547 C 0.57684 0.62262 0.41076
 C548 C 0.59154 0.65984 0.38217
 C549 C 0.56353 0.67785 0.37166
 C550 C 0.51999 0.65853 0.39078
 C551 C 0.46022 0.60030 0.43638
 C552 C 0.43198 0.61760 0.42500
 C553 C 0.44712 0.65504 0.39696
 C554 C 0.49054 0.67528 0.37975
 H555 H 0.44584 0.57027 0.45684
 H556 H 0.39794 0.60151 0.43763
 H557 H 0.42495 0.66818 0.38804
 H558 H 0.50052 0.70386 0.35740
 H559 H 0.59910 0.60903 0.41757
 H560 H 0.62460 0.67404 0.36706
 C561 C 0.37395 0.95072 0.41052
 C562 C 0.39472 0.93011 0.43575
 C563 C 0.37891 0.88408 0.43126
 C564 C 0.34537 0.85897 0.40034
 C565 C 0.32610 0.87891 0.37327
 C566 C 0.33921 0.92473 0.37921
 C567 C 0.38621 0.99627 0.41608
 C568 C 0.36510 1.01565 0.39129
 C569 C 0.33139 0.99025 0.36064
 C570 C 0.31837 0.94518 0.35461
 H571 H 0.41158 1.01733 0.43995
 H572 H 0.37481 1.05056 0.39611
 H573 H 0.31505 1.00548 0.34163
 H574 H 0.29160 0.92643 0.33092
 H575 H 0.39413 0.86770 0.45030
 H576 H 0.33539 0.82389 0.39626
 C577 C 0.59799 0.96526 0.10748
 C578 C 0.55714 0.94425 0.08329
 C579 C 0.52990 0.89802 0.08738
 C580 C 0.54098 0.87291 0.11679
 C581 C 0.57978 0.89313 0.14291
 C582 C 0.60922 0.93941 0.13778
 C583 C 0.62842 1.01102 0.10161
 C584 C 0.66820 1.03099 0.12601
 C585 C 0.67869 1.00585 0.15621
 C586 C 0.64969 0.96041 0.16198
 H587 H 0.62237 1.03165 0.07763
 H588 H 0.69117 1.06613 0.12120
 H589 H 0.70968 1.02155 0.17491
 H590 H 0.65941 0.94183 0.18511
 H591 H 0.49875 0.88136 0.06895
 H592 H 0.51824 0.83753 0.12048
 C593 C 0.38930 0.48687 0.10843
 C594 C 0.39201 0.45931 0.07349
 C595 C 0.35640 0.41639 0.06699
 C596 C 0.31840 0.40032 0.09496
 C597 C 0.31490 0.42713 0.12951
 C598 C 0.34991 0.47124 0.13562
 C599 C 0.42502 0.52973 0.11704
 C600 C 0.42112 0.55751 0.14983
 C601 C 0.38162 0.54317 0.17459
 C602 C 0.34647 0.50030 0.16813
 H603 H 0.45613 0.54204 0.09849
 H604 H 0.44869 0.59047 0.15575
 H605 H 0.37827 0.56527 0.19909
 H606 H 0.31656 0.49044 0.18849
 H607 H 0.35837 0.39496 0.04058
 H608 H 0.29163 0.36672 0.08984
 C609 C 0.12904 0.63017 0.07195
 C610 C 0.08283 0.61650 0.06608
 C611 C 0.06311 0.63690 0.09250
 C612 C 0.08752 0.66947 0.12476
 C613 C 0.13242 0.68250 0.13209
 C614 C 0.15379 0.66338 0.10534
 C615 C 0.15089 0.60995 0.04781
 C616 C 0.19555 0.62270 0.05556
 C617 C 0.21950 0.65526 0.08781
 C618 C 0.19893 0.67525 0.11275
 H619 H 0.13417 0.58327 0.02368
 H620 H 0.21151 0.60668 0.03685
 H621 H 0.25406 0.66467 0.09399
 H622 H 0.21871 0.69962 0.13826
 H623 H 0.02805 0.62680 0.08880
 H624 H 0.07095 0.68389 0.14513
 C625 C 0.41091 0.05578 0.57683
 C626 C 0.45154 0.05572 0.58563
 C627 C 0.47748 0.07955 0.62297
 C628 C 0.46416 0.10392 0.65124
 C629 C 0.42436 0.10508 0.64316
 C630 C 0.39722 0.08085 0.60576
 C631 C 0.38328 0.03095 0.54035
 C632 C 0.34339 0.03142 0.53197
 C633 C 0.33013 0.05613 0.56005
 C634 C 0.35658 0.08049 0.59682
 H635 H 0.39210 0.01069 0.51851
 H636 H 0.32255 0.01230 0.50373
 H637 H 0.29904 0.05618 0.55349
 H638 H 0.34490 0.09882 0.61820
 H639 H 0.50859 0.07961 0.63005
 H640 H 0.48528 0.12238 0.67965
 C641 C 0.62385 0.56516 0.58659
 C642 C 0.59581 0.52189 0.56930
 C643 C 0.60429 0.48677 0.58046
 C644 C 0.63847 0.49326 0.61024
 C645 C 0.66573 0.53528 0.62918
 C646 C 0.65934 0.57198 0.61655
 C647 C 0.61802 0.60197 0.57410
 C648 C 0.64623 0.64443 0.59113
 C649 C 0.68085 0.65109 0.62044
 C650 C 0.68760 0.61536 0.63297
 H651 H 0.59212 0.59847 0.55070
 H652 H 0.64140 0.67238 0.58126
 H653 H 0.70278 0.68418 0.63330
 H654 H 0.71532 0.62209 0.65520
 H655 H 0.58312 0.45353 0.56736
 H656 H 0.64289 0.46494 0.61971
 C657 C 0.88424 0.37694 0.58294
 C658 C 0.92614 0.38465 0.56485
 C659 C 0.94280 0.35570 0.57687
 C660 C 0.91919 0.31988 0.60674
 C661 C 0.87845 0.31229 0.62584
 C662 C 0.86029 0.34042 0.61357
 C663 C 0.86655 0.40599 0.57345
 C664 C 0.82629 0.39889 0.59296
 C665 C 0.80282 0.36299 0.62245
 C666 C 0.81951 0.33399 0.63281
 H667 H 0.88362 0.43488 0.55162
 H668 H 0.81349 0.42170 0.58552
 H669 H 0.77170 0.35779 0.63770
 H670 H 0.80030 0.30673 0.65625
 H671 H 0.97500 0.36161 0.56394
 H672 H 0.93367 0.29904 0.61661
   
