data_POSCAR
  _audit_creation_date              2014-09-24
  _audit_creation_method            'ToBaCCo'
  _symmetry_space_group_name_H-M    'P1'
  _symmetry_Int_Tables_number       1
  _symmetry_cell_setting            triclinic
  loop_
  _symmetry_equiv_pos_as_xyz
 x,y,z
_cell_length_a 35.8180
_cell_length_b 35.9181
_cell_length_c 35.9003
_cell_angle_alpha 102.850900
_cell_angle_beta 76.652300
_cell_angle_gamma 76.964300
loop_
  _atom_site_label
  _atom_site_type_symbol
  _atom_site_fract_x
  _atom_site_fract_y
  _atom_site_fract_z
C1 C 0.50635 0.47948 0.00288
 C2 C 0.47775 0.50798 -0.00286
 C3 C 0.43764 0.50324 -0.00329
 C4 C 0.48487 0.54586 -0.00845
 C5 C 0.54447 0.48646 0.00806
 C6 C 0.50154 0.43958 0.00363
 C7 C 0.42265 0.50955 -0.03495
 C8 C 0.38408 0.50757 -0.03469
 C9 C 0.35986 0.49949 -0.00261
 C10 C 0.37470 0.49298 0.02904
 C11 C 0.41332 0.49498 0.02876
 C12 C 0.51780 0.54558 -0.03885
 C13 C 0.52387 0.58149 -0.04391
 C14 C 0.49691 0.61798 -0.01890
 C15 C 0.46383 0.61841 0.01110
 C16 C 0.45775 0.58257 0.01622
 C17 C 0.54428 0.51919 0.03816
 C18 C 0.58043 0.52506 0.04289
 C19 C 0.61705 0.49811 0.01783
 C20 C 0.61737 0.46525 -0.01190
 C21 C 0.58132 0.45938 -0.01668
 C22 C 0.50783 0.42458 0.03534
 C23 C 0.50587 0.38616 0.03528
 C24 C 0.49783 0.36218 0.00342
 C25 C 0.49134 0.37696 -0.02823
 C26 C 0.49330 0.41543 -0.02822
 H27 H 0.44080 0.51623 -0.05979
 H28 H 0.37309 0.51284 -0.05935
 H29 H 0.35630 0.48695 0.05424
 H30 H 0.42396 0.49086 0.05387
 H31 H 0.53863 0.51758 -0.05869
 H32 H 0.54946 0.58082 -0.06736
 H33 H 0.43206 0.58343 0.03964
 H34 H 0.51619 0.54000 0.05805
 H35 H 0.57982 0.55047 0.06613
 H36 H 0.64552 0.44415 -0.03139
 H37 H 0.58211 0.43385 -0.03989
 H38 H 0.51451 0.44259 0.06002
 H39 H 0.51112 0.37497 0.05983
 H40 H 0.48539 0.35855 -0.05319
 H41 H 0.48921 0.42606 -0.05338
 H42 H 0.44273 0.64646 0.03056
 C43 C -0.00231 0.52508 0.52811
 C44 C -0.00777 0.49649 0.49963
 C45 C -0.00892 0.45685 0.50489
 C46 C -0.01254 0.50300 0.46136
 C47 C 0.00255 0.56324 0.52125
 C48 C -0.00126 0.51994 0.56782
 C49 C 0.02307 0.43229 0.51277
 C50 C 0.02237 0.39424 0.51564
 C51 C -0.01013 0.38033 0.51039
 C52 C -0.04206 0.40469 0.50259
 C53 C -0.04142 0.44270 0.49974
 C54 C 0.01261 0.47553 0.42502
 C55 C 0.00782 0.48041 0.38875
 C56 C -0.02233 0.51266 0.38837
 C57 C -0.04768 0.54015 0.42447
 C58 C -0.04292 0.53527 0.46086
 C59 C -0.02263 0.59962 0.54852
 C60 C -0.01826 0.63577 0.54277
 C61 C 0.01150 0.63599 0.50985
 C62 C 0.03702 0.59983 0.48272
 C63 C 0.03270 0.56359 0.48847
 C64 C -0.03313 0.51157 0.59232
 C65 C -0.03212 0.50780 0.63004
 C66 C 0.00055 0.51268 0.64373
 C67 C 0.03224 0.52126 0.61956
 C68 C 0.03129 0.52500 0.58186
 H69 H 0.04878 0.44234 0.51602
 H70 H 0.04739 0.37548 0.52138
 H71 H -0.06725 0.39415 0.49829
 H72 H -0.06621 0.46108 0.49336
 H73 H 0.03603 0.45034 0.42480
 H74 H 0.02751 0.45893 0.36099
 H75 H -0.06311 0.55635 0.48859
 H76 H -0.04588 0.59998 0.57410
 H77 H -0.03810 0.66357 0.56400
 H78 H 0.06029 0.59967 0.45726
 H79 H 0.05293 0.53584 0.46753
 H80 H -0.05888 0.50836 0.58239
 H81 H -0.05694 0.50145 0.64865
 H82 H 0.05756 0.52529 0.62994
 H83 H 0.05599 0.53174 0.56352
 H84 H -0.07124 0.56510 0.42449
 C85 C 0.52632 -0.00318 0.47189
 C86 C 0.49737 -0.00813 0.50086
 C87 C 0.50346 -0.01197 0.53958
 C88 C 0.45769 -0.00951 0.49574
 C89 C 0.52154 -0.00287 0.43189
 C90 C 0.56445 0.00204 0.47858
 C91 C 0.53577 -0.04178 0.54090
 C92 C 0.54015 -0.04577 0.57769
 C93 C 0.51210 -0.02018 0.61347
 C94 C 0.47982 0.00946 0.61224
 C95 C 0.47546 0.01345 0.57555
 C96 C 0.44337 -0.04168 0.50174
 C97 C 0.40532 -0.04253 0.49893
 C98 C 0.38109 -0.01113 0.49033
 C99 C 0.39516 0.02105 0.48426
 C100 C 0.43325 0.02195 0.48709
 C101 C 0.52697 0.02908 0.41688
 C102 C 0.52355 0.02938 0.37895
 C103 C 0.51491 -0.00238 0.35547
 C104 C 0.50967 -0.03447 0.37012
 C105 C 0.51313 -0.03482 0.40808
 C106 C 0.56443 0.03264 0.51075
 C107 C 0.60066 0.03729 0.51641
 C108 C 0.63720 0.01161 0.48975
 C109 C 0.63733 -0.01860 0.45738
 C110 C 0.60118 -0.02326 0.45176
 H111 H 0.55725 -0.06218 0.51349
 H112 H 0.56517 -0.06897 0.57816
 H113 H 0.45783 0.02940 0.63964
 H114 H 0.45023 0.03645 0.57516
 H115 H 0.46165 -0.06606 0.50873
 H116 H 0.39463 -0.06746 0.50388
 H117 H 0.44343 0.04741 0.48316
 H118 H 0.53374 0.05385 0.43464
 H119 H 0.52783 0.05427 0.36786
 H120 H 0.50326 -0.05934 0.35209
 H121 H 0.50963 -0.06014 0.41874
 H122 H 0.53641 0.05296 0.53132
 H123 H 0.60010 0.06093 0.54147
 H124 H 0.66537 -0.03861 0.43645
 H125 H 0.60180 -0.04685 0.42664
 H126 H 0.37650 0.04565 0.47789
 O127 O 0.48127 -0.01377 -0.06195
 O128 O 0.47717 -0.00166 0.04377
 O129 O 0.47658 0.04526 -0.00242
 O130 O 0.48096 -0.06038 -0.01559
 O131 O 0.54722 -0.07709 -0.03256
 O132 O 0.54283 0.02879 -0.01946
 O133 O 0.54342 -0.01819 0.02671
 O134 O 0.54752 -0.03039 -0.07890
 Cu135 Cu 0.47233 -0.00596 -0.00733
 Cu136 Cu 0.55193 -0.02587 -0.02774
 C137 C 0.51508 -0.02391 -0.08823
 C138 C 0.50967 -0.00820 0.05303
 C139 C 0.50894 0.05485 -0.00902
 C140 C 0.51475 -0.08654 -0.02604
 O141 O -0.07674 0.54697 1.03119
 O142 O 0.02939 0.54276 1.01917
 O143 O -0.01654 0.54256 0.97218
 O144 O -0.03110 0.54799 1.07834
 O145 O -0.01446 0.48208 1.06254
 O146 O 0.00003 0.47664 0.95627
 O147 O 0.04589 0.47686 1.00329
 O148 O -0.06002 0.48106 1.01538
 Cu149 Cu -0.02539 0.55172 1.02679
 Cu150 Cu -0.00545 0.47252 1.00777
 C151 C -0.08622 0.51464 1.02507
 C152 C 0.05551 0.50908 1.00947
 C153 C -0.00614 0.50875 0.94635
 C154 C -0.02502 0.51595 1.08833
 O155 O 0.01897 -0.05612 0.46459
 O156 O 0.00629 0.04981 0.46988
 O157 O 0.06566 -0.00987 0.46445
 O158 O -0.04049 0.00364 0.46956
 O159 O -0.05701 0.01944 0.53557
 O160 O 0.04929 0.00598 0.53047
 O161 O -0.01019 0.06557 0.53589
 O162 O 0.00256 -0.04022 0.53061
 Cu163 Cu 0.01422 -0.00475 0.46045
 Cu164 Cu -0.00552 0.01425 0.53980
 C165 C 0.01276 -0.06600 0.49677
 C166 C -0.00374 0.07550 0.50376
 C167 C 0.07535 -0.00389 0.49661
 C168 C -0.06664 0.01364 0.50336
 C169 C -0.27543 0.51148 1.02855
 N170 N -0.25486 0.48945 1.04750
 N171 N -0.21839 0.49147 1.04853
 C172 C -0.20138 0.51560 1.03064
 N173 N -0.22199 0.53770 1.01177
 N174 N -0.25846 0.53568 1.01074
 C175 C -0.31381 0.50774 1.02570
 C176 C -0.34559 0.50379 1.02252
 C177 C -0.16126 0.51616 1.02988
 C178 C -0.12719 0.51588 1.02825
 C179 C 0.24875 0.50066 0.99979
 N180 N 0.22930 0.47984 1.02048
 N181 N 0.19150 0.48133 1.02168
 C182 C 0.17199 0.50369 1.00225
 N183 N 0.19146 0.52450 0.98155
 N184 N 0.22926 0.52300 0.98035
 C185 C 0.28927 0.49959 0.99897
 C186 C 0.32319 0.49924 0.99826
 C187 C 0.13107 0.50573 1.00410
 C188 C 0.09661 0.50737 1.00619
 C189 C 0.02033 -0.25602 0.49721
 N190 N 0.00128 -0.23877 0.47408
 N191 N 0.00142 -0.20205 0.47260
 C192 C 0.02060 -0.18149 0.49421
 N193 N 0.03973 -0.19878 0.51727
 N194 N 0.03959 -0.23550 0.51875
 C195 C 0.01829 -0.29462 0.50057
 C196 C 0.01567 -0.32654 0.50429
 C197 C 0.01892 -0.14119 0.49427
 C198 C 0.01660 -0.10701 0.49505
 C199 C -0.01074 0.26724 0.51155
 N200 N 0.01079 0.24723 0.53124
 N201 N 0.01116 0.20982 0.53018
 C202 C -0.00999 0.19131 0.50941
 N203 N -0.03156 0.21133 0.48975
 N204 N -0.03193 0.24874 0.49081
 C205 C -0.01048 0.30718 0.51191
 C206 C -0.01024 0.34060 0.51160
 C207 C -0.00873 0.15072 0.50750
 C208 C -0.00693 0.11645 0.50579
 C209 C 0.51907 -0.02936 -0.27909
 N210 N 0.54575 -0.01567 -0.26280
 N211 N 0.54572 -0.01612 -0.22577
 C212 C 0.51900 -0.03026 -0.20389
 N213 N 0.49237 -0.04402 -0.22021
 N214 N 0.49240 -0.04357 -0.25724
 C215 C 0.51772 -0.02702 -0.31817
 C216 C 0.51561 -0.02421 -0.35053
 C217 C 0.51786 -0.02908 -0.16341
 C218 C 0.51665 -0.02721 -0.12917
 C219 C 0.50895 -0.00173 0.24342
 N220 N 0.52556 0.02243 0.22521
 N221 N 0.52484 0.02218 0.18820
 C222 C 0.50745 -0.00222 0.16829
 N223 N 0.49081 -0.02635 0.18652
 N224 N 0.49152 -0.02610 0.22353
 C225 C 0.51050 -0.00203 0.28297
 C226 C 0.51226 -0.00228 0.31607
 C227 C 0.50770 -0.00339 0.12798
 C228 C 0.50836 -0.00510 0.09389
 C229 C 0.51109 -0.27513 -0.03022
 N230 N 0.48858 -0.25405 -0.04844
 N231 N 0.49081 -0.21773 -0.04948
 C232 C 0.51562 -0.20140 -0.03234
 N233 N 0.53819 -0.22252 -0.01419
 N234 N 0.53597 -0.25884 -0.01315
 C235 C 0.50707 -0.31331 -0.02722
 C236 C 0.50288 -0.34489 -0.02385
 C237 C 0.51629 -0.16141 -0.03142
 C238 C 0.51603 -0.12742 -0.02958
 C239 C 0.49957 0.24772 0.00133
 N240 N 0.52522 0.22688 0.01706
 N241 N 0.52693 0.18916 0.01585
 C242 C 0.50303 0.17113 -0.00113
 N243 N 0.47736 0.19198 -0.01684
 N244 N 0.47565 0.22970 -0.01562
 C245 C 0.49826 0.28814 0.00209
 C246 C 0.49769 0.32196 0.00267
 C247 C 0.50532 0.13027 -0.00314
 C248 C 0.50712 0.09587 -0.00543
 C249 C -0.25696 0.02110 0.50230
 N250 N -0.24059 0.00367 0.52695
 N251 N -0.20387 0.00397 0.52858
 C252 C -0.18240 0.02172 0.50561
 N253 N -0.19881 0.03924 0.48104
 N254 N -0.23553 0.03893 0.47940
 C255 C -0.29550 0.01875 0.49881
 C256 C -0.32736 0.01584 0.49499
 C257 C -0.14204 0.02004 0.50568
 C258 C -0.10777 0.01765 0.50500
 C259 C 0.26778 -0.01197 0.48915
 N260 N 0.24730 -0.02919 0.51359
 N261 N 0.20977 -0.02871 0.51460
 C262 C 0.19162 -0.01102 0.49116
 N263 N 0.21212 0.00617 0.46668
 N264 N 0.24965 0.00569 0.46568
 C265 C 0.30782 -0.01172 0.48880
 C266 C 0.34131 -0.01142 0.48912
 C267 C 0.15087 -0.00947 0.49301
 C268 C 0.11646 -0.00741 0.49466
 C269 C -0.03294 0.52094 1.27970
 N270 N -0.01928 0.54764 1.26323
 N271 N -0.01956 0.54762 1.22617
 C272 C -0.03347 0.52089 1.20447
 N273 N -0.04722 0.49426 1.22097
 N274 N -0.04695 0.49427 1.25803
 C275 C -0.03040 0.51933 1.31861
 C276 C -0.02725 0.51692 1.35075
 C277 C -0.03172 0.51951 1.16386
 C278 C -0.02922 0.51799 1.12948
 C279 C 0.00226 0.50646 0.75538
 N280 N 0.02386 0.52603 0.77450
 N281 N 0.02351 0.52547 0.81157
 C282 C 0.00160 0.50528 0.83061
 N283 N -0.01996 0.48566 0.81147
 N284 N -0.01962 0.48622 0.77440
 C285 C 0.00177 0.50802 0.71592
 C286 C 0.00121 0.50986 0.68293
 C287 C -0.00002 0.50590 0.87104
 C288 C -0.00226 0.50693 0.90529
   
