data_POSCAR
  _audit_creation_date              2014-09-24
  _audit_creation_method            'ToBaCCo'
  _symmetry_space_group_name_H-M    'P1'
  _symmetry_Int_Tables_number       1
  _symmetry_cell_setting            triclinic
  loop_
  _symmetry_equiv_pos_as_xyz
 x,y,z
_cell_length_a 57.3563
_cell_length_b 57.2779
_cell_length_c 21.3359
_cell_angle_alpha 89.871800
_cell_angle_beta 90.216400
_cell_angle_gamma 119.899400
loop_
  _atom_site_label
  _atom_site_type_symbol
  _atom_site_fract_x
  _atom_site_fract_y
  _atom_site_fract_z
C1 C 0.17900 0.50513 0.51515
 C2 C 0.18031 0.50636 0.45124
 C3 C 0.20536 0.51012 0.43453
 N4 N 0.21895 0.51044 0.48699
 C5 C 0.20308 0.50780 0.53633
 C6 C 0.21373 0.50917 0.37219
 C7 C 0.23790 0.50883 0.36009
 C8 C 0.24417 0.50054 0.30446
 C9 C 0.27056 0.50686 0.30877
 C10 C 0.27986 0.51892 0.36659
 N11 N 0.25988 0.51985 0.39782
 C12 C 0.30684 0.53098 0.38677
 C13 C 0.31422 0.53698 0.45033
 C14 C 0.34005 0.55394 0.47207
 C15 C 0.33875 0.55256 0.53629
 C16 C 0.31220 0.53445 0.55159
 N17 N 0.29719 0.52524 0.49886
 C18 C 0.30213 0.52574 0.61299
 C19 C 0.27443 0.51535 0.62685
 C20 C 0.26176 0.50197 0.68171
 C21 C 0.23554 0.49625 0.67785
 C22 C 0.23255 0.50578 0.62036
 N23 N 0.25636 0.51754 0.58966
 C24 C 0.20853 0.50464 0.59964
 H25 H 0.16147 0.50104 0.54225
 H26 H 0.16360 0.50277 0.42137
 H27 H 0.26063 0.52870 0.54854
 H28 H 0.23150 0.49125 0.26403
 H29 H 0.28175 0.50340 0.27280
 H30 H 0.35791 0.56614 0.44456
 H31 H 0.35542 0.56379 0.56802
 H32 H 0.22039 0.48601 0.71344
 H33 H 0.26244 0.53087 0.43851
 H34 H 0.27022 0.49653 0.72067
 C35 C 0.45310 -0.34063 0.45924
 C36 C 0.44443 -0.34441 0.52005
 C37 C 0.45760 -0.31935 0.54851
 N38 N 0.47343 -0.30020 0.50671
 C39 C 0.47096 -0.31328 0.45223
 C40 C 0.45666 -0.31448 0.61318
 C41 C 0.46031 -0.28943 0.63421
 C42 C 0.46427 -0.28067 0.69611
 C43 C 0.46585 -0.25597 0.69624
 C44 C 0.46326 -0.25004 0.63450
 N45 N 0.45973 -0.27054 0.59699
 C46 C 0.46375 -0.22632 0.61476
 C47 C 0.46896 -0.21697 0.55226
 C48 C 0.46739 -0.19509 0.52987
 C49 C 0.47720 -0.19057 0.46995
 C50 C 0.48401 -0.21017 0.45709
 N51 N 0.47905 -0.22622 0.50771
 C52 C 0.49741 -0.21121 0.40249
 C53 C 0.50221 -0.23267 0.38991
 C54 C 0.52102 -0.23170 0.34784
 C55 C 0.51818 -0.25705 0.34665
 C56 C 0.49712 -0.27310 0.38665
 N57 N 0.48777 -0.25791 0.41330
 C58 C 0.48641 -0.30108 0.39798
 H59 H 0.44689 -0.35624 0.42411
 H60 H 0.43026 -0.36347 0.54120
 H61 H 0.47070 -0.26508 0.44127
 H62 H 0.46625 -0.29060 0.73726
 H63 H 0.46909 -0.24353 0.73711
 H64 H 0.46064 -0.18310 0.55471
 H65 H 0.47966 -0.17415 0.44038
 H66 H 0.53067 -0.26262 0.32007
 H67 H 0.45497 -0.27250 0.54943
 H68 H 0.53553 -0.21446 0.32126
 C69 C 1.18333 0.67037 0.47908
 C70 C 1.18577 0.67171 0.54312
 C71 C 1.20289 0.69859 0.55815
 N72 N 1.21207 0.71337 0.50522
 C73 C 1.20005 0.69618 0.45702
 C74 C 1.20822 0.71001 0.61905
 C75 C 1.23065 0.73586 0.62985
 C76 C 1.23268 0.75312 0.67766
 C77 C 1.25723 0.77614 0.67100
 C78 C 1.27000 0.77202 0.62054
 N79 N 1.25332 0.74760 0.59492
 C80 C 1.29652 0.78984 0.59914
 C81 C 1.30397 0.78781 0.53730
 C82 C 1.33004 0.79672 0.51731
 C83 C 1.32881 0.79358 0.45353
 C84 C 1.30214 0.78359 0.43644
 N85 N 1.28686 0.77949 0.48797
 C86 C 1.29219 0.78008 0.37420
 C87 C 1.26480 0.76166 0.36134
 C88 C 1.25101 0.76083 0.30692
 C89 C 1.22521 0.73958 0.31327
 C90 C 1.22395 0.72813 0.37135
 N91 N 1.24813 0.74159 0.40015
 C92 C 1.20177 0.70444 0.39430
 H93 H 1.17076 0.65241 0.45210
 H94 H 1.17570 0.65480 0.57477
 H95 H 1.25366 0.73583 0.44142
 H96 H 1.21761 0.74991 0.71225
 H97 H 1.26425 0.79405 0.69931
 H98 H 1.34804 0.80452 0.54582
 H99 H 1.34569 0.79835 0.42320
 H100 H 1.20932 0.73310 0.27869
 H101 H 1.25802 0.73851 0.55854
 H102 H 1.25853 0.77416 0.26690
 C103 C 0.82413 0.52222 0.48147
 C104 C 0.82171 0.52222 0.54536
 C105 C 0.79438 0.50926 0.55832
 N106 N 0.78006 0.50167 0.50435
 C107 C 0.79824 0.50949 0.45737
 C108 C 0.78288 0.50395 0.61903
 C109 C 0.75649 0.49934 0.62936
 C110 C 0.74147 0.48766 0.68296
 C111 C 0.71764 0.48758 0.67588
 C112 C 0.71874 0.49956 0.61857
 N113 N 0.74232 0.50624 0.58988
 C114 C 0.69819 0.50391 0.59386
 C115 C 0.69398 0.50394 0.52829
 C116 C 0.67583 0.51001 0.49954
 C117 C 0.67641 0.50554 0.43680
 C118 C 0.69534 0.49757 0.42874
 N119 N 0.70602 0.49647 0.48459
 C120 C 0.70169 0.49069 0.37044
 C121 C 0.72518 0.48927 0.35964
 C122 C 0.73080 0.48018 0.30467
 C123 C 0.75648 0.48430 0.31078
 C124 C 0.76565 0.49553 0.36953
 N125 N 0.74653 0.49860 0.39884
 C126 C 0.79167 0.50418 0.39316
 H127 H 0.84283 0.53087 0.45574
 H128 H 0.83826 0.53120 0.57835
 H129 H 0.74918 0.50927 0.44010
 H130 H 0.74682 0.47947 0.72266
 H131 H 0.70110 0.47900 0.70871
 H132 H 0.66342 0.51711 0.52080
 H133 H 0.66462 0.50836 0.40098
 H134 H 0.76723 0.47969 0.27584
 H135 H 0.74931 0.51716 0.54839
 H136 H 0.71797 0.47197 0.26390
 C137 C 0.52619 0.19599 0.46948
 C138 C 0.53376 0.19948 0.53133
 C139 C 0.52516 0.21611 0.55716
 N140 N 0.51370 0.22383 0.51240
 C141 C 0.51428 0.21154 0.45885
 C142 C 0.52571 0.22226 0.62169
 C143 C 0.52378 0.24485 0.64171
 C144 C 0.51689 0.24840 0.70183
 C145 C 0.51776 0.27276 0.70252
 C146 C 0.52521 0.28365 0.64282
 N147 N 0.52867 0.26639 0.60586
 C148 C 0.52922 0.30920 0.62426
 C149 C 0.52952 0.31573 0.56003
 C150 C 0.54155 0.34153 0.53511
 C151 C 0.53532 0.33878 0.47241
 C152 C 0.51997 0.31140 0.46092
 N153 N 0.51665 0.29732 0.51437
 C154 C 0.50790 0.29967 0.40286
 C155 C 0.49883 0.27237 0.38924
 C156 C 0.48222 0.25805 0.33948
 C157 C 0.48032 0.23310 0.33966
 C158 C 0.49585 0.23296 0.38948
 N159 N 0.50703 0.25696 0.41935
 C160 C 0.50173 0.21230 0.40256
 H161 H 0.52924 0.18347 0.43647
 H162 H 0.54407 0.19041 0.55471
 H163 H 0.52202 0.26367 0.45347
 H164 H 0.51112 0.23464 0.74106
 H165 H 0.51281 0.28107 0.74241
 H166 H 0.55372 0.36038 0.55943
 H167 H 0.54159 0.35506 0.43905
 H168 H 0.46939 0.21721 0.30589
 H169 H 0.53615 0.27013 0.56029
 H170 H 0.47283 0.26498 0.30587
 C171 C 0.69896 0.15761 0.53055
 C172 C 0.69788 0.15848 0.46654
 C173 C 0.71427 0.18514 0.44951
 N174 N 0.72525 0.20066 0.50095
 C175 C 0.71572 0.18384 0.55078
 C176 C 0.71816 0.19487 0.38741
 C177 C 0.73909 0.22051 0.37012
 C178 C 0.74032 0.23330 0.31402
 C179 C 0.76490 0.25655 0.31285
 C180 C 0.77808 0.25714 0.36807
 N181 N 0.76210 0.23511 0.40279
 C182 C 0.80490 0.27661 0.38284
 C183 C 0.81613 0.27875 0.44316
 C184 C 0.84329 0.29342 0.45771
 C185 C 0.84535 0.29146 0.52138
 C186 C 0.81941 0.27536 0.54353
 N187 N 0.80160 0.26776 0.49572
 C188 C 0.81234 0.27011 0.60735
 C189 C 0.78625 0.25104 0.62828
 C190 C 0.77710 0.24919 0.68912
 C191 C 0.75158 0.22726 0.69110
 C192 C 0.74587 0.21588 0.63161
 N193 N 0.76720 0.23058 0.59367
 C194 C 0.72193 0.19195 0.61436
 H195 H 0.68903 0.13953 0.55873
 H196 H 0.68670 0.14135 0.43602
 H197 H 0.76979 0.22537 0.54867
 H198 H 0.72519 0.22641 0.27746
 H199 H 0.77236 0.27108 0.27504
 H200 H 0.85992 0.30439 0.42594
 H201 H 0.86383 0.30098 0.54829
 H202 H 0.73881 0.22058 0.73205
 H203 H 0.76773 0.22849 0.44238
 H204 H 0.78765 0.26217 0.72835
 O205 O 1.03229 0.55986 0.10779
 O206 O 1.06180 0.55990 0.03534
 C207 C 1.05625 0.56952 0.08420
 O208 O 0.97370 0.43994 0.11217
 O209 O 0.93755 0.43943 0.06437
 C210 C 0.94809 0.42987 0.10343
 O211 O 1.04725 0.48968 0.09735
 O212 O 1.06923 0.52637 0.03270
 C213 C 1.06890 0.51048 0.07644
 O214 O 0.95699 0.51481 0.11817
 O215 O 0.92960 0.47508 0.06709
 C216 C 0.93378 0.49354 0.10775
 Zr217 Zr 0.99496 0.52709 0.07694
 O218 O 0.99627 0.52942 0.17587
 O219 O 0.99122 0.56204 0.07332
 Zr220 Zr 1.00645 0.47438 0.07191
 O221 O 1.00895 0.47360 0.17082
 O222 O 1.01621 0.44336 0.06473
 O223 O 1.02449 0.51599 0.08101
 O224 O 0.97860 0.48621 0.09188
 O225 O 0.94684 0.51161 -0.10117
 O226 O 0.92417 0.47265 -0.03777
 C227 C 0.92346 0.48985 -0.08159
 O228 O 1.03642 0.48528 -0.13054
 O229 O 1.06379 0.52405 -0.07604
 C230 C 1.05958 0.50655 -0.11922
 O231 O 0.96266 0.43558 -0.10791
 O232 O 0.93235 0.43738 -0.04094
 C233 C 0.93861 0.42603 -0.08512
 O234 O 1.02048 0.55710 -0.12370
 O235 O 1.05648 0.55825 -0.07337
 C236 C 1.04609 0.56724 -0.11433
 Zr237 Zr 0.98739 0.52416 -0.07968
 O238 O 0.97974 0.52104 -0.17732
 O239 O 0.98331 0.55886 -0.07435
 Zr240 Zr 0.99878 0.47153 -0.08525
 O241 O 0.99139 0.46775 -0.18302
 O242 O 1.00873 0.44057 -0.08750
 Zr243 Zr 1.03594 0.52466 -0.01376
 Zr244 Zr 0.95763 0.47365 0.00614
 O245 O 0.96967 0.48282 -0.08797
 O246 O 1.01586 0.51283 -0.10071
 O247 O 0.96650 0.51409 0.00487
 O248 O 1.02639 0.48413 -0.01274
 O249 O 1.01347 0.54442 -0.00668
 O250 O 0.97985 0.45350 -0.00102
 H251 H 0.96880 0.47943 0.13192
 H252 H 1.04114 0.47996 -0.01674
 H253 H 0.95604 0.47455 -0.12169
 H254 H 1.02323 0.56437 -0.00815
 H255 H 1.00032 0.42726 0.04739
 H256 H 0.99562 0.42570 -0.06079
 H257 H 1.00333 0.48554 -0.20213
 H258 H 0.99475 0.52030 -0.19806
 H259 H 0.96790 0.55455 -0.04663
 H260 H 0.97240 0.55633 0.06166
 H261 H 1.00898 0.52355 0.18998
 H262 H 1.02159 0.49218 0.18485
 O263 O 0.43941 0.47969 0.11673
 O264 O 0.44344 0.51386 0.05289
 C265 C 0.43256 0.49709 0.09916
 O266 O 0.56026 0.53047 0.10958
 O267 O 0.55424 0.49236 0.05970
 C268 C 0.56727 0.51263 0.09725
 O269 O 0.51691 0.56286 0.10675
 O270 O 0.48030 0.55341 0.04522
 C271 C 0.49784 0.56731 0.08800
 O272 O 0.47808 0.44319 0.11903
 O273 O 0.51529 0.45091 0.06283
 C274 C 0.49715 0.43812 0.10514
 Zr275 Zr 0.46963 0.47258 0.08193
 O276 O 0.46951 0.47155 0.18104
 O277 O 0.43231 0.43613 0.07923
 Zr278 Zr 0.52672 0.53328 0.07730
 O279 O 0.52817 0.53371 0.17651
 O280 O 0.56071 0.57246 0.07436
 O281 O 0.48525 0.51414 0.08939
 O282 O 0.51090 0.49258 0.09382
 O283 O 0.47670 0.43806 -0.09989
 O284 O 0.51498 0.44861 -0.04386
 C285 C 0.49610 0.43389 -0.08362
 O286 O 0.51670 0.55704 -0.12219
 O287 O 0.48011 0.55043 -0.06481
 C288 C 0.49741 0.56185 -0.10960
 O289 O 0.55952 0.52491 -0.10737
 O290 O 0.55387 0.48956 -0.04592
 C291 C 0.56657 0.50777 -0.08817
 O292 O 0.43921 0.47530 -0.11699
 O293 O 0.44301 0.51134 -0.06166
 C294 C 0.43226 0.49319 -0.10521
 Zr295 Zr 0.46913 0.46924 -0.07460
 O296 O 0.46881 0.46370 -0.17266
 O297 O 0.43153 0.43335 -0.06659
 Zr298 Zr 0.52664 0.52975 -0.08007
 O299 O 0.52912 0.52718 -0.17856
 O300 O 0.56064 0.56901 -0.08067
 Zr301 Zr 0.47624 0.51975 -0.00351
 Zr302 Zr 0.51990 0.48288 0.00537
 O303 O 0.51039 0.48858 -0.08669
 O304 O 0.48505 0.51018 -0.09254
 O305 O 0.47822 0.45517 0.00666
 O306 O 0.51801 0.54663 -0.00465
 O307 O 0.45241 0.47759 0.00145
 O308 O 0.54419 0.52516 0.00095
 H309 H 0.51757 0.48800 0.13216
 H310 H 0.52457 0.56621 -0.00759
 H311 H 0.51679 0.48234 -0.12254
 H312 H 0.43261 0.46968 0.00112
 H313 H 0.57441 0.57158 0.04808
 H314 H 0.57545 0.56821 -0.05872
 H315 H 0.51138 0.52254 -0.19631
 H316 H 0.47475 0.48140 -0.19239
 H317 H 0.43458 0.41989 -0.04452
 H318 H 0.43571 0.42175 0.06436
 H319 H 0.47603 0.49017 0.19564
 H320 H 0.51152 0.53286 0.19191
 O321 O 0.47672 0.03675 0.11037
 O322 O 0.51277 0.06602 0.04484
 C323 C 0.49565 0.06241 0.09249
 O324 O 0.52185 -0.03855 0.11597
 O325 O 0.48503 -0.06899 0.05948
 C326 C 0.50362 -0.06302 0.10101
 O327 O 0.55654 0.03719 0.11393
 O328 O 0.55016 0.06555 0.04897
 C329 C 0.56214 0.06099 0.09507
 O330 O 0.43704 -0.03832 0.10939
 O331 O 0.44489 -0.06920 0.05932
 C332 C 0.43146 -0.06276 0.09771
 Zr333 Zr 0.46870 -0.00140 0.07645
 O334 O 0.46678 -0.00200 0.17553
 O335 O 0.43261 -0.00021 0.06705
 Zr336 Zr 0.52796 -0.00115 0.07921
 O337 O 0.53179 0.00051 0.17801
 O338 O 0.56517 -0.00002 0.07027
 O339 O 0.51003 0.02278 0.08739
 O340 O 0.48687 -0.02435 0.09204
 O341 O 0.43599 -0.04385 -0.10737
 O342 O 0.44483 -0.07166 -0.04662
 C343 C 0.43090 -0.06754 -0.08839
 O344 O 0.55689 0.03360 -0.11707
 O345 O 0.54970 0.06391 -0.06249
 C346 C 0.56209 0.05794 -0.10453
 O347 O 0.52279 -0.04150 -0.10231
 O348 O 0.48523 -0.07075 -0.04647
 C349 C 0.50441 -0.06550 -0.08597
 O350 O 0.47440 0.03127 -0.12177
 O351 O 0.51084 0.06273 -0.06587
 C352 C 0.49267 0.05583 -0.10934
 Zr353 Zr 0.46758 -0.00505 -0.08056
 O354 O 0.46464 -0.00990 -0.17908
 O355 O 0.43174 -0.00300 -0.07861
 Zr356 Zr 0.52746 -0.00374 -0.07804
 O357 O 0.52557 -0.00873 -0.17658
 O358 O 0.56597 -0.00025 -0.07590
 Zr359 Zr 0.51753 0.03730 -0.00549
 Zr360 Zr 0.47831 -0.04293 0.00354
 O361 O 0.48621 -0.02783 -0.08861
 O362 O 0.50902 0.01915 -0.09470
 O363 O 0.45184 -0.02746 0.00065
 O364 O 0.54352 0.02133 -0.00152
 O365 O 0.47557 0.02051 -0.00482
 O366 O 0.52038 -0.02658 0.00331
 H367 H 0.48091 -0.03576 0.13011
 H368 H 0.56319 0.03396 -0.00197
 H369 H 0.48020 -0.04059 -0.12428
 H370 H 0.46821 0.03290 -0.00626
 H371 H 0.57205 0.00124 0.11351
 H372 H 0.56539 -0.01318 -0.04422
 H373 H 0.52357 0.00601 -0.19521
 H374 H 0.48244 0.00297 -0.19663
 H375 H 0.41912 -0.01724 -0.04981
 H376 H 0.42674 0.00058 0.11024
 H377 H 0.48506 0.01081 0.19109
 H378 H 0.51362 -0.00629 0.19557
 C379 C 1.19698 0.50666 0.32073
 C380 C 1.18395 0.52169 0.31508
 C381 C 1.16351 0.51629 0.26630
 C382 C 1.15856 0.53696 0.24786
 C383 C 1.13770 0.53173 0.20596
 C384 C 1.12114 0.50555 0.18262
 C385 C 1.12617 0.48495 0.20091
 C386 C 1.14725 0.49025 0.24200
 C387 C 1.09705 0.49859 0.14425
 C388 C 1.09474 0.51694 0.10539
 H389 H 1.18902 0.53813 0.34738
 H390 H 1.17056 0.55707 0.26681
 H391 H 1.13389 0.54792 0.19414
 H392 H 1.11342 0.46456 0.18424
 H393 H 1.15003 0.47370 0.25670
 H394 H 1.08038 0.47812 0.14705
 H395 H 1.19632 0.49516 0.28006
 H396 H 1.11203 0.53661 0.09689
 C397 C 0.49213 0.68236 0.35924
 C398 C 0.49772 0.68579 0.29507
 C399 C 0.50298 0.66657 0.25992
 C400 C 0.49373 0.65964 0.19808
 C401 C 0.49696 0.64015 0.16585
 C402 C 0.50979 0.62742 0.19488
 C403 C 0.52022 0.63541 0.25555
 C404 C 0.51681 0.65470 0.28784
 C405 C 0.51282 0.60596 0.16362
 C406 C 0.49564 0.58960 0.11620
 H407 H 0.49502 0.70050 0.26897
 H408 H 0.48342 0.66885 0.17521
 H409 H 0.48952 0.63528 0.11829
 H410 H 0.53061 0.62632 0.27857
 H411 H 0.52499 0.66027 0.33474
 H412 H 0.52803 0.60172 0.18153
 H413 H 0.48989 0.66401 0.37964
 H414 H 0.47930 0.59244 0.10028
 C415 C 0.30914 -0.20469 0.32406
 C416 C 0.33119 -0.17879 0.33194
 C417 C 0.34921 -0.16211 0.28088
 C418 C 0.36503 -0.13435 0.29121
 C419 C 0.38267 -0.11756 0.24542
 C420 C 0.38493 -0.12812 0.18780
 C421 C 0.36980 -0.15603 0.17793
 C422 C 0.35193 -0.17295 0.22399
 C423 C 0.40360 -0.11018 0.13906
 C424 C 0.40885 -0.08377 0.13308
 H425 H 0.33422 -0.16910 0.37712
 H426 H 0.36377 -0.12554 0.33507
 H427 H 0.39488 -0.09631 0.25584
 H428 H 0.37164 -0.16467 0.13441
 H429 H 0.34071 -0.19439 0.21522
 H430 H 0.41367 -0.11756 0.10893
 H431 H 0.30333 -0.21201 0.27667
 H432 H 0.39713 -0.07735 0.16028
 C433 C 0.81287 0.50827 0.34784
 C434 C 0.82737 0.49480 0.35373
 C435 C 0.84854 0.49864 0.30886
 C436 C 0.85325 0.47727 0.29705
 C437 C 0.87336 0.48049 0.25526
 C438 C 0.88947 0.50538 0.22547
 C439 C 0.88518 0.52694 0.23847
 C440 C 0.86475 0.52357 0.27935
 C441 C 0.91169 0.50977 0.18340
 C442 C 0.91073 0.48944 0.14575
 H443 H 0.82214 0.48008 0.39086
 H444 H 0.84126 0.45801 0.32001
 H445 H 0.87672 0.46372 0.24757
 H446 H 0.89763 0.54640 0.21676
 H447 H 0.86210 0.54065 0.28892
 H448 H 0.92895 0.52988 0.18051
 H449 H 0.81532 0.52023 0.30641
 H450 H 0.89255 0.46998 0.14376
 C451 C 0.50497 0.31637 0.35347
 C452 C 0.49490 0.33354 0.36667
 C453 C 0.49152 0.35059 0.31925
 C454 C 0.50438 0.35648 0.26058
 C455 C 0.50124 0.37336 0.21810
 C456 C 0.48545 0.38501 0.23365
 C457 C 0.47243 0.37886 0.29192
 C458 C 0.47555 0.36199 0.33432
 C459 C 0.48216 0.40376 0.19130
 C460 C 0.49912 0.41714 0.14085
 H461 H 0.48850 0.33396 0.41419
 H462 H 0.51728 0.34857 0.24741
 H463 H 0.51120 0.37705 0.17331
 H464 H 0.46009 0.38746 0.30514
 H465 H 0.46550 0.35790 0.37922
 H466 H 0.46670 0.40862 0.20303
 H467 H 0.50864 0.31311 0.30549
 H468 H 0.51549 0.41370 0.12932
 C469 C 0.70058 0.17699 0.33711
 C470 C 0.67275 0.16546 0.33937
 C471 C 0.65498 0.14510 0.29347
 C472 C 0.63050 0.14338 0.27690
 C473 C 0.61291 0.12346 0.23539
 C474 C 0.61936 0.10461 0.21093
 C475 C 0.64364 0.10610 0.22831
 C476 C 0.66145 0.12631 0.26875
 C477 C 0.60036 0.08216 0.17090
 C478 C 0.58292 0.08445 0.12906
 H479 H 0.66383 0.17165 0.37575
 H480 H 0.62498 0.15742 0.29624
 H481 H 0.59394 0.12231 0.22414
 H482 H 0.64878 0.09150 0.21074
 H483 H 0.67986 0.12669 0.28217
 H484 H 0.60056 0.06336 0.17355
 H485 H 0.70994 0.17376 0.29659
 H486 H 0.58440 0.10384 0.12124
 C487 C 0.52713 0.20537 -0.33166
 C488 C 0.51581 0.17751 -0.33896
 C489 C 0.51616 0.15913 -0.29054
 C490 C 0.49979 0.13136 -0.30017
 C491 C 0.49911 0.11296 -0.25643
 C492 C 0.51463 0.12189 -0.20128
 C493 C 0.53165 0.14963 -0.19232
 C494 C 0.53247 0.16815 -0.23648
 C495 C 0.51405 0.10267 -0.15391
 C496 C 0.49223 0.07665 -0.14843
 H497 H 0.50404 0.16813 -0.38067
 H498 H 0.48746 0.12380 -0.34196
 H499 H 0.48672 0.09176 -0.26691
 H500 H 0.54424 0.15699 -0.15089
 H501 H 0.54607 0.18931 -0.22808
 H502 H 0.53122 0.10908 -0.12304
 H503 H 0.53453 0.21376 -0.28576
 H504 H 0.47441 0.07051 -0.17666
 C505 C 0.67985 0.50625 -0.36603
 C506 C 0.68543 0.51645 -0.30491
 C507 C 0.66545 0.51994 -0.26882
 C508 C 0.66267 0.51461 -0.20430
 C509 C 0.64282 0.51644 -0.17027
 C510 C 0.62573 0.52405 -0.20032
 C511 C 0.62952 0.53074 -0.26411
 C512 C 0.64909 0.52860 -0.29817
 C513 C 0.60379 0.52518 -0.16696
 C514 C 0.59024 0.50848 -0.11642
 H515 H 0.70459 0.52233 -0.28289
 H516 H 0.67544 0.50842 -0.18058
 H517 H 0.64102 0.51202 -0.12062
 H518 H 0.61691 0.53709 -0.28801
 H519 H 0.65145 0.53384 -0.34743
 H520 H 0.59646 0.53781 -0.18649
 H521 H 0.66033 0.50122 -0.38450
 H522 H 0.59610 0.49435 -0.09911
 C523 C 0.83331 0.28631 -0.34582
 C524 C 0.83315 0.30770 -0.31521
 C525 C 0.85527 0.32718 -0.27450
 C526 C 0.85012 0.34309 -0.23325
 C527 C 0.87070 0.36278 -0.19643
 C528 C 0.89703 0.36703 -0.20019
 C529 C 0.90222 0.35120 -0.24167
 C530 C 0.88160 0.33142 -0.27836
 C531 C 0.91977 0.38896 -0.16522
 C532 C 0.91645 0.40128 -0.11230
 H533 H 0.81579 0.31027 -0.32163
 H534 H 0.83011 0.34051 -0.23005
 H535 H 0.86596 0.37513 -0.16685
 H536 H 0.92241 0.35439 -0.24635
 H537 H 0.88665 0.32020 -0.31090
 H538 H 0.93991 0.39605 -0.18278
 H539 H 0.84993 0.28261 -0.34038
 H540 H 0.89676 0.39352 -0.09164
 C541 C 0.46052 -0.20977 -0.33643
 C542 C 0.48081 -0.18335 -0.32531
 C543 C 0.48049 -0.16587 -0.27462
 C544 C 0.50043 -0.13864 -0.27525
 C545 C 0.50137 -0.12111 -0.22882
 C546 C 0.48250 -0.13050 -0.17978
 C547 C 0.46236 -0.15769 -0.17923
 C548 C 0.46140 -0.17531 -0.22591
 C549 C 0.48253 -0.11199 -0.13131
 C550 C 0.50554 -0.08766 -0.11713
 H551 H 0.49812 -0.17493 -0.35609
 H552 H 0.51525 -0.13074 -0.31237
 H553 H 0.51654 -0.10010 -0.23275
 H554 H 0.44741 -0.16534 -0.14240
 H555 H 0.44580 -0.19616 -0.22298
 H556 H 0.46367 -0.11691 -0.10902
 H557 H 0.44335 -0.21966 -0.30575
 H558 H 0.52468 -0.08308 -0.13705
 C559 C 0.31948 0.52687 -0.33795
 C560 C 0.34188 0.52363 -0.34738
 C561 C 0.35824 0.52178 -0.29564
 C562 C 0.37240 0.50809 -0.30665
 C563 C 0.38773 0.50537 -0.25925
 C564 C 0.38933 0.51638 -0.19942
 C565 C 0.37601 0.53097 -0.18897
 C566 C 0.36048 0.53357 -0.23646
 C567 C 0.40574 0.51396 -0.14857
 C568 C 0.41158 0.49302 -0.14653
 H569 H 0.34575 0.51895 -0.39400
 H570 H 0.37147 0.49928 -0.35213
 H571 H 0.39867 0.49505 -0.27021
 H572 H 0.37748 0.54024 -0.14383
 H573 H 0.35062 0.54508 -0.22689
 H574 H 0.41362 0.52918 -0.11224
 H575 H 0.31355 0.52697 -0.29000
 H576 H 0.40216 0.47671 -0.17997
 C577 C 1.19096 0.69644 -0.32991
 C578 C 1.16334 0.67865 -0.33672
 C579 C 1.14556 0.66073 -0.28666
 C580 C 1.11773 0.64699 -0.29741
 C581 C 1.10010 0.62801 -0.25459
 C582 C 1.10990 0.62240 -0.19935
 C583 C 1.13777 0.63625 -0.18837
 C584 C 1.15548 0.65522 -0.23150
 C585 C 1.09193 0.60129 -0.15438
 C586 C 1.06405 0.59031 -0.15376
 H587 H 1.15396 0.67791 -0.38140
 H588 H 1.10958 0.65049 -0.34002
 H589 H 1.07898 0.61730 -0.26649
 H590 H 1.14592 0.63206 -0.14670
 H591 H 1.17683 0.66480 -0.22222
 H592 H 1.10101 0.59387 -0.12101
 H593 H 1.19897 0.70179 -0.28284
 H594 H 1.05458 0.59827 -0.18421
 C595 C 0.79785 0.50360 -0.32841
 C596 C 0.81603 0.49408 -0.33086
 C597 C 0.83300 0.49569 -0.27700
 C598 C 0.83902 0.47504 -0.26739
 C599 C 0.85709 0.47730 -0.22041
 C600 C 0.87009 0.50069 -0.18343
 C601 C 0.86385 0.52123 -0.19263
 C602 C 0.84518 0.51862 -0.23849
 C603 C 0.89215 0.50519 -0.14025
 C604 C 0.89426 0.48401 -0.11459
 H605 H 0.81691 0.48381 -0.37262
 H606 H 0.83002 0.45731 -0.29698
 H607 H 0.86183 0.46131 -0.21511
 H608 H 0.87386 0.53955 -0.16519
 H609 H 0.84126 0.53507 -0.24580
 H610 H 0.90801 0.52570 -0.13154
 H611 H 0.79333 0.50840 -0.28255
 H612 H 0.90831 0.48625 -0.09727
 C613 C 0.53229 0.32775 -0.32802
 C614 C 0.52364 0.34659 -0.33397
 C615 C 0.52355 0.36335 -0.28126
 C616 C 0.50499 0.37248 -0.28295
 C617 C 0.50373 0.38794 -0.23409
 C618 C 0.52112 0.39475 -0.18215
 C619 C 0.54037 0.38644 -0.18129
 C620 C 0.54151 0.37073 -0.23022
 C621 C 0.52030 0.41175 -0.13084
 C622 C 0.49655 0.41151 -0.11574
 H623 H 0.51321 0.34665 -0.37632
 H624 H 0.49125 0.36751 -0.32216
 H625 H 0.48944 0.39499 -0.23793
 H626 H 0.55441 0.39198 -0.14257
 H627 H 0.55669 0.36479 -0.22832
 H628 H 0.53889 0.42578 -0.10753
 H629 H 0.53847 0.32514 -0.28184
 H630 H 0.47787 0.39655 -0.13707
 C631 C 0.70453 0.17545 -0.33746
 C632 C 0.67656 0.16033 -0.34450
 C633 C 0.65861 0.14086 -0.29714
 C634 C 0.63225 0.13612 -0.29135
 C635 C 0.61418 0.11642 -0.25024
 C636 C 0.62200 0.10065 -0.21515
 C637 C 0.64828 0.10518 -0.22137
 C638 C 0.66657 0.12534 -0.26147
 C639 C 0.60261 0.07852 -0.17466
 C640 C 0.58291 0.08049 -0.14088
 H641 H 0.66726 0.16357 -0.38540
 H642 H 0.62557 0.14757 -0.31912
 H643 H 0.59384 0.11294 -0.24755
 H644 H 0.65461 0.09304 -0.19531
 H645 H 0.68658 0.12810 -0.26622
 H646 H 0.60447 0.06069 -0.16967
 H647 H 0.71264 0.17605 -0.29121
 H648 H 0.58296 0.09942 -0.14019
 C649 C 1.18697 0.49781 -0.35362
 C650 C 1.17812 0.51595 -0.34048
 C651 C 1.15412 0.50952 -0.30239
 C652 C 1.15013 0.53075 -0.28396
 C653 C 1.12719 0.52572 -0.25063
 C654 C 1.10767 0.49921 -0.23476
 C655 C 1.11133 0.47789 -0.25423
 C656 C 1.13436 0.48293 -0.28759
 C657 C 1.08326 0.49334 -0.19895
 C658 C 1.08310 0.51179 -0.15676
 H659 H 1.18898 0.53582 -0.36146
 H660 H 1.16472 0.55135 -0.29590
 H661 H 1.12463 0.54263 -0.23858
 H662 H 1.09639 0.45727 -0.24337
 H663 H 1.13619 0.46592 -0.30266
 H664 H 1.06562 0.47353 -0.20304
 H665 H 1.17850 0.47865 -0.32969
 H666 H 1.10142 0.53064 -0.14831
 C667 C 0.45288 0.66572 -0.34174
 C668 C 0.46102 0.64665 -0.35126
 C669 C 0.46177 0.62899 -0.30149
 C670 C 0.47815 0.61760 -0.31108
 C671 C 0.48114 0.60224 -0.26446
 C672 C 0.46791 0.59805 -0.20669
 C673 C 0.45029 0.60810 -0.19820
 C674 C 0.44723 0.62351 -0.24513
 C675 C 0.47175 0.58273 -0.15575
 C676 C 0.49513 0.58107 -0.15088
 H677 H 0.47091 0.64712 -0.39472
 H678 H 0.48907 0.62093 -0.35456
 H679 H 0.49375 0.59360 -0.27423
 H680 H 0.43926 0.60442 -0.15479
 H681 H 0.43353 0.63097 -0.23683
 H682 H 0.45588 0.57251 -0.12167
 H683 H 0.44655 0.66731 -0.29519
 H684 H 0.51178 0.59268 -0.18220
 C685 C 0.31589 -0.18855 -0.36417
 C686 C 0.31624 -0.18701 -0.29878
 C687 C 0.33533 -0.16223 -0.26453
 C688 C 0.34173 -0.16423 -0.20201
 C689 C 0.35995 -0.14125 -0.16876
 C690 C 0.37220 -0.11572 -0.19760
 C691 C 0.36487 -0.11362 -0.25920
 C692 C 0.34662 -0.13657 -0.29237
 C693 C 0.39275 -0.09104 -0.16534
 C694 C 0.40838 -0.09179 -0.11609
 H695 H 0.30356 -0.20487 -0.27157
 H696 H 0.33279 -0.18366 -0.17897
 H697 H 0.36414 -0.14368 -0.12049
 H698 H 0.37358 -0.09417 -0.28209
 H699 H 0.34127 -0.13403 -0.33955
 H700 H 0.39722 -0.07167 -0.18425
 H701 H 0.33274 -0.17230 -0.38840
 H702 H 0.40534 -0.11092 -0.09924
 C703 C 0.50815 -0.18810 0.35836
 C704 C 0.49062 -0.18235 0.32517
 C705 C 0.49866 -0.15746 0.28844
 C706 C 0.47858 -0.15571 0.25464
 C707 C 0.48440 -0.13235 0.22189
 C708 C 0.51064 -0.11005 0.22151
 C709 C 0.53073 -0.11149 0.25614
 C710 C 0.52488 -0.13501 0.28917
 C711 C 0.51689 -0.08512 0.18668
 C712 C 0.50255 -0.08632 0.13276
 H713 H 0.46928 -0.19661 0.32922
 H714 H 0.45811 -0.17242 0.25425
 H715 H 0.46805 -0.13168 0.19810
 H716 H 0.55100 -0.09445 0.25743
 H717 H 0.54083 -0.13522 0.31584
 H718 H 0.53272 -0.06585 0.20360
 H719 H 0.52968 -0.17604 0.35249
 H720 H 0.48827 -0.10587 0.11383
 C721 C 0.32767 0.53676 0.33862
 C722 C 0.34645 0.52826 0.34614
 C723 C 0.36358 0.52791 0.29479
 C724 C 0.37468 0.51108 0.30125
 C725 C 0.38982 0.50885 0.25310
 C726 C 0.39419 0.52341 0.19700
 C727 C 0.38415 0.54119 0.19145
 C728 C 0.36888 0.54340 0.23978
 C729 C 0.41009 0.52110 0.14532
 C730 C 0.41154 0.49775 0.13660
 H731 H 0.34652 0.51872 0.39003
 H732 H 0.37136 0.49932 0.34351
 H733 H 0.39834 0.49594 0.26052
 H734 H 0.38784 0.55313 0.14935
 H735 H 0.36150 0.55733 0.23379
 H736 H 0.42159 0.53835 0.11522
 H737 H 0.32530 0.54391 0.29343
 H738 H 0.39911 0.48012 0.16476
 C739 C 1.17821 0.68933 0.35312
 C740 C 1.17211 0.66467 0.32723
 C741 C 1.14795 0.64874 0.28821
 C742 C 1.14816 0.63082 0.24396
 C743 C 1.12557 0.61527 0.20675
 C744 C 1.10219 0.61721 0.21351
 C745 C 1.10167 0.63452 0.25904
 C746 C 1.12440 0.65031 0.29588
 C747 C 1.07777 0.60019 0.17612
 C748 C 1.07928 0.59183 0.11583
 H749 H 1.18598 0.65723 0.33448
 H750 H 1.16589 0.62890 0.23809
 H751 H 1.12627 0.60127 0.17385
 H752 H 1.08368 0.63587 0.26601
 H753 H 1.12323 0.66323 0.33115
 H754 H 1.05829 0.59353 0.19719
 H755 H 1.16640 0.69867 0.34104
 H756 H 1.09871 0.59999 0.09336
 C757 C 0.49235 0.18945 0.35829
 C758 C 0.51027 0.18559 0.32188
 C759 C 0.50210 0.16131 0.28294
 C760 C 0.51909 0.16248 0.23445
 C761 C 0.51294 0.13956 0.19919
 C762 C 0.48974 0.11476 0.21233
 C763 C 0.47267 0.11360 0.26065
 C764 C 0.47872 0.13660 0.29561
 C765 C 0.48365 0.08977 0.17845
 C766 C 0.49921 0.09022 0.12829
 H767 H 0.53132 0.20100 0.32267
 H768 H 0.53734 0.18118 0.22412
 H769 H 0.52669 0.14121 0.16256
 H770 H 0.45481 0.09473 0.27207
 H771 H 0.46550 0.13467 0.33374
 H772 H 0.46734 0.07061 0.19469
 H773 H 0.47090 0.17606 0.35370
 H774 H 0.49630 0.07562 0.11265
 C775 C 0.68241 0.48471 0.31847
 C776 C 0.68749 0.50366 0.27172
 C777 C 0.66597 0.50164 0.22982
 C778 C 0.66653 0.52529 0.21018
 C779 C 0.64529 0.52400 0.17502
 C780 C 0.62320 0.49893 0.15833
 C781 C 0.62338 0.47531 0.17509
 C782 C 0.64447 0.47661 0.21083
 C783 C 0.59979 0.49672 0.12366
 C784 C 0.59155 0.51583 0.12873
 H785 H 0.70672 0.52217 0.27184
 H786 H 0.68306 0.54481 0.22359
 H787 H 0.64626 0.54263 0.16100
 H788 H 0.60682 0.45578 0.16182
 H789 H 0.64387 0.45802 0.22370
 H790 H 0.58748 0.47847 0.09716
 H791 H 0.66231 0.46774 0.32425
 H792 H 0.60252 0.53320 0.15874
 C793 C 0.82164 0.29480 0.33158
 C794 C 0.83730 0.32260 0.33926
 C795 C 0.85361 0.34070 0.28802
 C796 C 0.87823 0.36359 0.30265
 C797 C 0.89428 0.38100 0.25532
 C798 C 0.88576 0.37610 0.19243
 C799 C 0.86071 0.35370 0.17794
 C800 C 0.84485 0.33595 0.22525
 C801 C 0.90241 0.39474 0.14227
 C802 C 0.93037 0.40722 0.14414
 H803 H 0.83873 0.33127 0.38517
 H804 H 0.88521 0.36782 0.35076
 H805 H 0.91316 0.39857 0.26810
 H806 H 0.85357 0.34977 0.12994
 H807 H 0.82558 0.31883 0.21283
 H808 H 0.89255 0.39868 0.10363
 H809 H 0.82030 0.28608 0.28581
 H810 H 0.93986 0.40134 0.18000
   
