data_POSCAR
  _audit_creation_date              2014-09-24
  _audit_creation_method            'ToBaCCo'
  _symmetry_space_group_name_H-M    'P1'
  _symmetry_Int_Tables_number       1
  _symmetry_cell_setting            triclinic
  loop_
  _symmetry_equiv_pos_as_xyz
 x,y,z
_cell_length_a 37.6650
_cell_length_b 9.5913
_cell_length_c 14.7423
_cell_angle_alpha 89.828100
_cell_angle_beta 89.923600
_cell_angle_gamma 91.144800
loop_
  _atom_site_label
  _atom_site_type_symbol
  _atom_site_fract_x
  _atom_site_fract_y
  _atom_site_fract_z
C1 C 0.84479 0.48285 0.41692
 C2 C 0.86174 0.50513 0.50066
 C3 C 0.84442 0.48015 0.58386
 C4 C 0.80674 0.46336 0.58353
 C5 C 0.78822 0.45440 0.49976
 C6 C 0.80712 0.46703 0.41638
 C7 C 0.78757 0.46832 0.33516
 C8 C 0.75143 0.43779 0.33426
 C9 C 0.73260 0.41434 0.41513
 C10 C 0.75073 0.42828 0.49922
 C11 C 0.78681 0.45978 0.66422
 C12 C 0.75064 0.42938 0.66401
 C13 C 0.73171 0.41264 0.58254
 C14 C 0.69494 0.37363 0.58104
 C15 C 0.67887 0.34863 0.49640
 C16 C 0.69632 0.37441 0.41426
 H17 H 0.79972 0.49482 0.27088
 H18 H 0.73868 0.43127 0.26880
 H19 H 0.79864 0.48210 0.72932
 H20 H 0.73840 0.41603 0.72955
 H21 H 0.89024 0.52151 0.50098
 H22 H 0.65089 0.32001 0.49350
 C23 C 0.15407 0.54355 0.58509
 C24 C 0.13603 0.54043 0.50206
 C25 C 0.15391 0.54367 0.41881
 C26 C 0.19150 0.54007 0.41811
 C27 C 0.21048 0.54328 0.50137
 C28 C 0.19178 0.54122 0.58505
 C29 C 0.21137 0.53771 0.66602
 C30 C 0.24819 0.55252 0.66574
 C31 C 0.26743 0.56355 0.58407
 C32 C 0.24826 0.55486 0.50072
 C33 C 0.21067 0.53380 0.33647
 C34 C 0.24738 0.54892 0.33546
 C35 C 0.26657 0.56403 0.41642
 C36 C 0.30337 0.59312 0.41550
 C37 C 0.32123 0.61192 0.49734
 C38 C 0.30472 0.59268 0.58209
 H39 H 0.19854 0.52483 0.73113
 H40 H 0.26084 0.55989 0.73107
 H41 H 0.19756 0.51827 0.27205
 H42 H 0.26038 0.55197 0.27006
 H43 H 0.10737 0.54838 0.50216
 H44 H 0.34965 0.63216 0.49407
 C45 C 0.19554 0.13675 -0.41912
 C46 C 0.18048 0.17168 -0.50313
 C47 C 0.19604 0.13789 -0.58671
 C48 C 0.23126 0.08672 -0.58641
 C49 C 0.24918 0.06736 -0.50230
 C50 C 0.23085 0.08634 -0.41853
 C51 C 0.24941 0.06354 -0.33721
 C52 C 0.28476 0.02605 -0.33745
 C53 C 0.30427 0.02075 -0.41834
 C54 C 0.28607 0.03480 -0.50192
 C55 C 0.25010 0.06288 -0.66719
 C56 C 0.28553 0.02623 -0.66612
 C57 C 0.30501 0.02364 -0.58502
 C58 C 0.34267 0.00886 -0.58419
 C59 C 0.35937 -0.01269 -0.50019
 C60 C 0.34156 0.00376 -0.41765
 H61 H 0.23784 0.08000 -0.27143
 H62 H 0.29672 0.00354 -0.27260
 H63 H 0.23862 0.07723 -0.73328
 H64 H 0.29727 0.00040 -0.73057
 H65 H 0.15369 0.21066 -0.50357
 H66 H 0.38791 -0.02344 -0.49814
 C67 C -0.34532 0.96974 -0.41883
 C68 C -0.36246 0.98372 -0.50300
 C69 C -0.34484 0.96400 -0.58620
 C70 C -0.30705 0.95492 -0.58526
 C71 C -0.28867 0.95052 -0.50114
 C72 C -0.30762 0.96224 -0.41808
 C73 C -0.28806 0.97121 -0.33692
 C74 C -0.25195 0.94612 -0.33514
 C75 C -0.23315 0.92174 -0.41537
 C76 C -0.25116 0.93099 -0.49981
 C77 C -0.28680 0.95520 -0.66557
 C78 C -0.25056 0.93135 -0.66452
 C79 C -0.23192 0.91764 -0.58261
 C80 C -0.19520 0.88414 -0.58008
 C81 C -0.17944 0.86132 -0.49513
 C82 C -0.19700 0.88595 -0.41361
 H83 H -0.30019 0.99924 -0.27334
 H84 H -0.23915 0.94478 -0.26963
 H85 H -0.29832 0.97580 -0.73103
 H86 H -0.23797 0.92056 -0.72967
 H87 H -0.39108 0.99139 -0.50341
 H88 H -0.15151 0.83650 -0.49149
 O89 O -0.06298 0.84027 0.17140
 O90 O -0.09279 0.99926 0.08517
 C91 C -0.09108 0.90958 0.15100
 O92 O 0.06613 1.20719 0.16116
 O93 O 0.09473 1.04191 0.07765
 C94 C 0.09397 1.13618 0.14039
 O95 O -0.02996 1.29344 0.17219
 O96 O -0.07658 1.21790 0.08386
 C97 C -0.06337 1.28957 0.15058
 O98 O 0.03087 0.72720 0.16282
 O99 O 0.07781 0.81500 0.07950
 C100 C 0.06437 0.73492 0.14223
 Zr101 Zr -0.01155 0.84846 0.11485
 O102 O -0.00942 0.83390 0.25804
 O103 O -0.02893 0.63852 0.10420
 Zr104 Zr 0.01342 1.19175 0.11189
 O105 O 0.01779 1.21933 0.25357
 O106 O 0.02534 1.40693 0.09446
 O107 O -0.02889 1.05150 0.13243
 O108 O 0.03008 0.98930 0.13043
 O109 O 0.02990 0.72268 -0.15850
 O110 O 0.07730 0.81317 -0.07848
 C111 C 0.06357 0.73150 -0.13947
 O112 O -0.03072 1.29237 -0.17151
 O113 O -0.07701 1.21678 -0.08132
 C114 C -0.06404 1.28837 -0.14881
 O115 O 0.06509 1.20283 -0.16600
 O116 O 0.09424 1.04021 -0.08119
 C117 C 0.09308 1.13270 -0.14535
 O118 O -0.06493 0.83683 -0.16326
 O119 O -0.09350 1.00116 -0.07860
 C120 C -0.09265 0.90876 -0.14248
 Zr121 Zr -0.01244 0.84631 -0.11147
 O122 O -0.01024 0.83616 -0.25482
 O123 O -0.03165 0.63779 -0.10731
 Zr124 Zr 0.01280 1.18880 -0.11352
 O125 O 0.01568 1.21109 -0.25597
 O126 O 0.02588 1.40344 -0.10101
 Zr127 Zr -0.05065 1.07236 0.00150
 Zr128 Zr 0.05176 0.96404 -0.00018
 O129 O 0.02928 0.98612 -0.13026
 O130 O -0.02982 1.04897 -0.13039
 O131 O 0.01713 0.78838 0.00146
 O132 O -0.01574 1.24644 -0.00052
 O133 O -0.04408 0.85505 0.00264
 O134 O 0.04627 1.18286 -0.00146
 H135 H 0.04446 0.97367 0.18557
 H136 H -0.02643 1.34003 -0.00078
 H137 H 0.04341 0.96909 -0.18568
 H138 H -0.06565 0.79415 0.00361
 H139 H 0.05099 1.41692 0.08076
 H140 H 0.05126 1.41202 -0.08416
 H141 H 0.00913 1.11922 -0.28177
 H142 H -0.02308 0.91728 -0.27888
 H143 H -0.01798 0.58974 -0.05991
 H144 H -0.03049 0.60274 0.16718
 H145 H -0.01851 0.92228 0.28245
 H146 H 0.01124 1.12872 0.28157
 O147 O 0.46939 0.20319 0.16933
 O148 O 0.42285 0.27646 0.08203
 C149 C 0.43592 0.20478 0.14832
 O150 O 0.53110 0.78033 0.15969
 O151 O 0.57783 0.70127 0.07503
 C152 C 0.56460 0.77766 0.13874
 O153 O 0.43599 0.65570 0.16568
 O154 O 0.40650 0.49031 0.08028
 C155 C 0.40789 0.58175 0.14476
 O156 O 0.56560 0.30219 0.15918
 O157 O 0.59432 0.47340 0.07640
 C158 C 0.59351 0.37748 0.13854
 Zr159 Zr 0.51285 0.31449 0.11071
 O160 O 0.51598 0.29013 0.25302
 O161 O 0.52760 0.10578 0.09198
 Zr162 Zr 0.48839 0.65317 0.11284
 O163 O 0.49137 0.65814 0.25623
 O164 O 0.46967 0.85942 0.11307
 O165 O 0.47058 0.44839 0.13057
 O166 O 0.53004 0.51843 0.12836
 O167 O 0.56453 0.30406 -0.16462
 O168 O 0.59431 0.47152 -0.08158
 C169 C 0.59278 0.37733 -0.14468
 O170 O 0.43677 0.65442 -0.17058
 O171 O 0.40663 0.49399 -0.08241
 C172 C 0.40843 0.58284 -0.14886
 O173 O 0.53066 0.78103 -0.16416
 O174 O 0.57776 0.69919 -0.08245
 C175 C 0.56423 0.77765 -0.14476
 O176 O 0.46842 0.20250 -0.17042
 O177 O 0.42237 0.27813 -0.08256
 C178 C 0.43506 0.20558 -0.14860
 Zr179 Zr 0.51204 0.31622 -0.11528
 O180 O 0.51564 0.30738 -0.25841
 O181 O 0.52400 0.10183 -0.10602
 Zr182 Zr 0.48806 0.65628 -0.11360
 O183 O 0.48775 0.68356 -0.25592
 O184 O 0.47123 0.86320 -0.09688
 Zr185 Zr 0.44906 0.42547 -0.00068
 Zr186 Zr 0.55173 0.54579 -0.00250
 O187 O 0.52929 0.52059 -0.13241
 O188 O 0.47002 0.45155 -0.13247
 O189 O 0.54547 0.32661 -0.00295
 O190 O 0.45612 0.64361 -0.00022
 O191 O 0.48357 0.25568 -0.00151
 O192 O 0.51749 0.71740 -0.00090
 H193 H 0.54469 0.53563 0.18306
 H194 H 0.43462 0.70155 -0.00026
 H195 H 0.54359 0.53772 -0.18789
 H196 H 0.47294 0.16029 -0.00118
 H197 H 0.48299 0.91063 0.06543
 H198 H 0.46879 0.90152 -0.15892
 H199 H 0.49258 0.59152 -0.28252
 H200 H 0.49530 0.35879 -0.28317
 H201 H 0.54786 0.09438 -0.07859
 H202 H 0.52875 0.06530 0.15371
 H203 H 0.51166 0.38268 0.27957
 H204 H 0.47771 0.57646 0.27964
 N205 N 0.35336 0.11212 0.26754
 C206 C 0.36504 0.03760 0.33976
 N207 N 0.40030 0.00867 0.34311
 N208 N 0.42268 0.05451 0.27918
 C209 C 0.41078 0.13098 0.20845
 N210 N 0.37562 0.15742 0.20322
 N211 N -0.14311 0.79749 0.34800
 C212 C -0.17242 0.87743 0.34350
 N213 N -0.17599 0.96249 0.27005
 N214 N -0.15107 0.96870 0.20546
 C215 C -0.12167 0.88940 0.21173
 N216 N -0.11844 0.80283 0.28371
 N217 N 0.64605 0.86395 0.26392
 C218 C 0.63363 0.93644 0.33606
 N219 N 0.59849 0.96736 0.33672
 N220 N 0.57691 0.92574 0.27022
 C221 C 0.58948 0.85179 0.19928
 N222 N 0.62456 0.82262 0.19706
 N223 N 0.14705 1.24180 0.33611
 C224 C 0.17431 1.15113 0.33510
 N225 N 0.17654 1.06278 0.26329
 N226 N 0.15233 1.06362 0.19718
 C227 C 0.12493 1.15353 0.20000
 N228 N 0.12302 1.24319 0.27035
 N229 N 0.67676 0.44578 -0.26756
 C230 C 0.67256 0.36237 -0.34158
 N231 N 0.64327 0.27766 -0.34487
 N232 N 0.61933 0.27652 -0.27870
 C233 C 0.62326 0.36093 -0.20586
 N234 N 0.65255 0.44566 -0.20118
 N235 N 0.14444 0.65757 -0.26661
 C236 C 0.13225 0.57065 -0.33258
 N237 N 0.09765 0.52725 -0.32923
 N238 N 0.07611 0.57047 -0.26380
 C239 C 0.08837 0.65829 -0.19853
 N240 N 0.12302 0.69981 -0.20071
 N241 N 0.35701 0.68480 -0.34671
 C242 C 0.32723 0.60306 -0.34119
 N243 N 0.32296 0.52052 -0.26643
 N244 N 0.34784 0.51796 -0.20179
 C245 C 0.37780 0.59874 -0.20933
 N246 N 0.38158 0.68311 -0.28245
 N247 N -0.09852 1.48611 -0.34127
 C248 C -0.13380 1.45201 -0.33960
 N249 N -0.14601 1.37308 -0.26896
 N250 N -0.12416 1.32847 -0.20461
 C251 C -0.08894 1.36011 -0.20836
 N252 N -0.07658 1.44104 -0.27740
 N253 N 0.59766 0.97046 -0.34291
 C254 C 0.63300 0.94310 -0.34117
 N255 N 0.64559 0.87235 -0.26829
 N256 N 0.62408 0.82880 -0.20183
 C257 C 0.58881 0.85395 -0.20522
 N258 N 0.57606 0.92682 -0.27665
 N259 N 0.14550 1.23627 -0.34371
 C260 C 0.17331 1.14829 -0.34148
 N261 N 0.17590 1.06146 -0.26862
 N262 N 0.15163 1.06168 -0.20246
 C263 C 0.12377 1.14937 -0.20630
 N264 N 0.12139 1.23698 -0.27795
 N265 N 0.35323 0.12662 -0.27297
 C266 C 0.36404 0.03410 -0.33634
 N267 N 0.39822 -0.00902 -0.33294
 N268 N 0.42056 0.03942 -0.26996
 C269 C 0.40953 0.13220 -0.20719
 N270 N 0.37535 0.17361 -0.20925
 N271 N -0.15112 0.77580 -0.32180
 C272 C -0.17510 0.87874 -0.33016
 N273 N -0.17347 0.98687 -0.27084
 N274 N -0.14859 0.99200 -0.20653
 C275 C -0.12414 0.89014 -0.19996
 N276 N -0.12614 0.78133 -0.25819
 N277 N 0.32597 0.49809 0.27113
 C278 C 0.32538 0.60370 0.33232
 N279 N 0.35043 0.70691 0.32597
 N280 N 0.37548 0.70397 0.26246
 C281 C 0.37650 0.59749 0.20246
 N282 N 0.35097 0.49550 0.20699
 N283 N -0.14547 1.37885 0.26927
 C284 C -0.13320 1.45516 0.34069
 N285 N -0.09774 1.48563 0.34367
 N286 N -0.07571 1.43969 0.28028
 C287 C -0.08815 1.36147 0.21042
 N288 N -0.12352 1.33339 0.20541
 N289 N 0.67372 0.46831 0.26885
 C290 C 0.67440 0.36308 0.33076
 N291 N 0.65008 0.25752 0.32335
 N292 N 0.62578 0.25746 0.25799
 C293 C 0.62481 0.36302 0.19687
 N294 N 0.64948 0.46797 0.20291
 N295 N 0.09775 0.52909 0.33245
 C296 C 0.13228 0.57278 0.33660
 N297 N 0.14474 0.66077 0.27104
 N298 N 0.12364 0.70376 0.20464
 C299 C 0.08906 0.66169 0.20156
 N300 N 0.07655 0.57295 0.26648
   
