data_POSCAR
  _audit_creation_date              2014-09-24
  _audit_creation_method            'ToBaCCo'
  _symmetry_space_group_name_H-M    'P1'
  _symmetry_Int_Tables_number       1
  _symmetry_cell_setting            triclinic
  loop_
  _symmetry_equiv_pos_as_xyz
 x,y,z
_cell_length_a 32.0400
_cell_length_b 31.0934
_cell_length_c 30.3883
_cell_angle_alpha 90.650700
_cell_angle_beta 90.022600
_cell_angle_gamma 90.295600
loop_
  _atom_site_label
  _atom_site_type_symbol
  _atom_site_fract_x
  _atom_site_fract_y
  _atom_site_fract_z
C1 C 0.27333 0.42589 0.00375
 C2 C 0.29581 0.41140 0.03973
 C3 C 0.32777 0.38171 0.03342
 C4 C 0.33550 0.36344 -0.00881
 C5 C 0.31161 0.37829 -0.04490
 C6 C 0.27983 0.40894 -0.03880
 C7 C 0.36524 0.32632 -0.01401
 C8 C 0.38244 0.31433 -0.05555
 C9 C 0.40588 0.27626 -0.06042
 C10 C 0.41613 0.25335 -0.02231
 C11 C 0.40059 0.26501 0.01897
 C12 C 0.37471 0.30066 0.02283
 H13 H 0.25081 0.45109 0.00987
 H14 H 0.34564 0.37274 0.06198
 H15 H 0.31559 0.36431 -0.07735
 H16 H 0.37661 0.33341 -0.08441
 H17 H 0.43829 0.22722 -0.02417
 H18 H 0.36128 0.30694 0.05481
 C19 C 0.72861 0.58235 -0.00612
 C20 C 0.71901 0.59516 0.03702
 C21 C 0.68789 0.62617 0.04374
 C22 C 0.66632 0.64446 0.00762
 C23 C 0.67751 0.63107 -0.03548
 C24 C 0.70954 0.60145 -0.04215
 C25 C 0.63353 0.67829 0.01472
 C26 C 0.62336 0.70784 -0.01886
 C27 C 0.59354 0.74035 -0.01218
 C28 C 0.57342 0.74282 0.02897
 C29 C 0.58313 0.71426 0.06260
 C30 C 0.61252 0.68193 0.05544
 H31 H 0.75188 0.55779 -0.01217
 H32 H 0.68198 0.63680 0.07713
 H33 H 0.66200 0.64348 -0.06420
 H34 H 0.63975 0.70716 -0.04993
 H35 H 0.54917 0.76619 0.03530
 H36 H 0.61816 0.65958 0.08174
 C37 C 0.72942 0.41363 1.02023
 C38 C 0.71564 0.40342 0.97775
 C39 C 0.68725 0.36941 0.97189
 C40 C 0.67656 0.34194 1.00739
 C41 C 0.69485 0.35086 1.04916
 C42 C 0.72071 0.38683 1.05549
 C43 C 0.64889 0.30290 1.00041
 C44 C 0.63062 0.28117 1.03655
 C45 C 0.60782 0.24274 1.03056
 C46 C 0.59962 0.22850 0.98735
 C47 C 0.61517 0.25042 0.95085
 C48 C 0.64050 0.28664 0.95753
 H49 H 0.74949 0.44141 1.02564
 H50 H 0.67510 0.36433 0.93916
 H51 H 0.69069 0.32958 1.07665
 H52 H 0.63406 0.29354 1.06972
 H53 H 0.57763 0.20255 0.98171
 H54 H 0.65330 0.30143 0.92857
 C55 C 0.27039 0.58618 0.98271
 C56 C 0.28848 0.60301 0.94493
 C57 C 0.31659 0.63740 0.94846
 C58 C 0.32521 0.65703 0.98988
 C59 C 0.30493 0.64034 1.02756
 C60 C 0.27755 0.60514 1.02410
 C61 C 0.35375 0.69557 0.99345
 C62 C 0.37263 0.70755 1.03412
 C63 C 0.39774 0.74470 1.03801
 C64 C 0.40693 0.76753 0.99953
 C65 C 0.38921 0.75635 0.95900
 C66 C 0.36227 0.72104 0.95614
 H67 H 0.24960 0.55870 0.97943
 H68 H 0.33123 0.64825 0.91856
 H69 H 0.30873 0.65531 1.05958
 H70 H 0.36808 0.68825 1.06309
 H71 H 0.43041 0.79257 0.99967
 H72 H 0.34811 0.71428 0.92457
 C73 C 0.00355 0.26461 0.42813
 C74 C 0.04200 0.28370 0.41853
 C75 C 0.04353 0.31881 0.39006
 C76 C 0.00711 0.33284 0.36774
 C77 C -0.03129 0.31202 0.37784
 C78 C -0.03316 0.27827 0.40789
 C79 C 0.00954 0.36579 0.33145
 C80 C -0.02727 0.38358 0.31302
 C81 C -0.02610 0.40662 0.27353
 C82 C 0.01308 0.41732 0.25581
 C83 C 0.05017 0.40335 0.27504
 C84 C 0.04838 0.37724 0.31217
 H85 H 0.00241 0.23862 0.45160
 H86 H 0.07361 0.33357 0.38485
 H87 H -0.06000 0.31994 0.36140
 H88 H -0.05747 0.37819 0.32768
 H89 H 0.01528 0.43853 0.22787
 H90 H 0.07763 0.36509 0.32422
 C91 C -0.00453 0.71559 0.55712
 C92 C 0.03231 0.70388 0.57813
 C93 C 0.03112 0.67225 0.61025
 C94 C -0.00684 0.65142 0.62172
 C95 C -0.04389 0.66410 0.59977
 C96 C -0.04294 0.69750 0.56904
 C97 C -0.00766 0.62087 0.65990
 C98 C -0.04467 0.61309 0.68435
 C99 C -0.04341 0.59169 0.72495
 C100 C -0.00438 0.57791 0.74078
 C101 C 0.03215 0.58368 0.71636
 C102 C 0.02999 0.60269 0.67516
 H103 H -0.00357 0.74081 0.53273
 H104 H 0.05977 0.66659 0.62791
 H105 H -0.07377 0.64988 0.60754
 H106 H -0.07429 0.62578 0.67377
 H107 H -0.00201 0.56027 0.77117
 H108 H 0.05848 0.60464 0.65627
 C109 C 1.00579 0.78352 0.36683
 C110 C 0.96939 0.77029 0.34574
 C111 C 0.96952 0.73321 0.31952
 C112 C 1.00565 0.70732 0.31627
 C113 C 1.04169 0.72005 0.34042
 C114 C 1.04259 0.75906 0.36460
 C115 C 1.00543 0.66800 0.28703
 C116 C 1.04271 0.65206 0.26773
 C117 C 1.04165 0.61812 0.23658
 C118 C 1.00271 0.60006 0.22546
 C119 C 0.96563 0.61534 0.24372
 C120 C 0.96720 0.64763 0.27587
 H121 H 1.00347 0.81121 0.38856
 H122 H 0.94129 0.72545 0.30162
 H123 H 1.06920 0.70003 0.34031
 H124 H 1.07246 0.66706 0.27517
 H125 H 1.00063 0.57198 0.20421
 H126 H 0.93820 0.65700 0.29131
 C127 C 0.98997 0.24868 0.60714
 C128 C 0.95288 0.26901 0.61918
 C129 C 0.95374 0.30145 0.65140
 C130 C 0.99101 0.31092 0.67491
 C131 C 1.02773 0.28823 0.66320
 C132 C 1.02736 0.25749 0.62921
 C133 C 0.99130 0.34280 0.71248
 C134 C 1.02901 0.36231 0.72701
 C135 C 1.03002 0.38946 0.76426
 C136 C 0.99200 0.40062 0.78422
 C137 C 0.95403 0.38324 0.76963
 C138 C 0.95393 0.35369 0.73466
 H139 H 0.98949 0.22583 0.57994
 H140 H 0.92501 0.31829 0.65814
 H141 H 1.05664 0.29309 0.68091
 H142 H 1.05796 0.35653 0.70974
 H143 H 0.99120 0.42606 0.80869
 H144 H 0.92434 0.33955 0.72531
 C145 C 0.39837 0.00355 0.25288
 C146 C 0.37957 0.04213 0.26563
 C147 C 0.35425 0.04328 0.30290
 C148 C 0.34832 0.00612 0.32866
 C149 C 0.36857 -0.03242 0.31538
 C150 C 0.39191 -0.03464 0.27622
 C151 C 0.31997 0.00723 0.36805
 C152 C 0.30059 -0.03095 0.38314
 C153 C 0.27188 -0.02976 0.41783
 C154 C 0.26252 0.00971 0.43796
 C155 C 0.27944 0.04799 0.42240
 C156 C 0.30933 0.04675 0.38892
 H157 H 0.42039 0.00473 0.22600
 H158 H 0.33895 0.07326 0.31071
 H159 H 0.36606 -0.06110 0.33500
 H160 H 0.30566 -0.06151 0.36679
 H161 H 0.24024 0.01112 0.46481
 H162 H 0.32293 0.07692 0.37886
 C163 C 0.60263 0.00112 0.74802
 C164 C 0.60840 0.03321 0.71696
 C165 C 0.63992 0.02913 0.68549
 C166 C 0.66511 -0.00803 0.68422
 C167 C 0.65714 -0.04145 0.71445
 C168 C 0.62678 -0.03650 0.74750
 C169 C 0.70063 -0.01099 0.65268
 C170 C 0.71258 -0.05096 0.63390
 C171 C 0.74826 -0.05384 0.60726
 C172 C 0.77086 -0.01633 0.59805
 C173 C 0.75891 0.02348 0.61506
 C174 C 0.72398 0.02631 0.64247
 H175 H 0.57708 0.00471 0.77116
 H176 H 0.64390 0.05423 0.66141
 H177 H 0.67603 -0.07024 0.71393
 H178 H 0.69452 -0.07978 0.64018
 H179 H 0.79747 -0.01773 0.57603
 H180 H 0.71609 0.05722 0.65689
 C181 C 0.43691 1.01341 0.71706
 C182 C 0.41550 0.97422 0.72065
 C183 C 0.37759 0.96842 0.69825
 C184 C 0.36036 1.00189 0.67290
 C185 C 0.38236 1.04146 0.67068
 C186 C 0.42008 1.04734 0.69327
 C187 C 0.31873 0.99622 0.65088
 C188 C 0.29315 1.03221 0.64263
 C189 C 0.25400 1.02766 0.62230
 C190 C 0.23976 0.98586 0.61184
 C191 C 0.26414 0.94953 0.62001
 C192 C 0.30404 0.95491 0.63812
 H193 H 0.46619 1.01822 0.73441
 H194 H 0.36080 0.93851 0.70265
 H195 H 0.37078 1.06788 0.65145
 H196 H 0.30314 1.06417 0.65245
 H197 H 0.21110 0.98087 0.59375
 H198 H 0.32344 0.92681 0.64183
 C199 C 0.55835 0.98815 0.27875
 C200 C 0.57090 0.95450 0.30560
 C201 C 0.60578 0.95971 0.33261
 C202 C 0.62959 0.99806 0.33194
 C203 C 0.61625 1.03197 0.30462
 C204 C 0.58132 1.02688 0.27684
 C205 C 0.66971 1.00100 0.35718
 C206 C 0.68619 1.04106 0.37161
 C207 C 0.72476 1.04324 0.39344
 C208 C 0.74547 1.00495 0.40362
 C209 C 0.72968 0.96485 0.39011
 C210 C 0.69238 0.96320 0.36638
 H211 H 0.53043 0.98349 0.25911
 H212 H 0.61410 0.93338 0.35378
 H213 H 0.63459 1.06120 0.30239
 H214 H 0.66935 1.07059 0.36605
 H215 H 0.77329 1.00649 0.42385
 H216 H 0.68175 0.93206 0.35467
 O217 O 0.89735 0.83157 0.43118
 O218 O 0.85389 0.88413 0.52882
 O219 O 0.90579 0.82310 0.51544
 O220 O 0.85032 0.89721 0.44519
 O221 O 0.79567 0.85360 0.44299
 O222 O 0.85329 0.77673 0.51418
 O223 O 0.79940 0.84027 0.52733
 O224 O 0.84448 0.78580 0.42914
 Cu225 Cu 0.88213 0.86328 0.48024
 Cu226 Cu 0.81774 0.80946 0.47805
 C227 C 0.87884 0.79943 0.41372
 C228 C 0.81917 0.87182 0.54441
 C229 C 0.88977 0.78770 0.52692
 C230 C 0.81346 0.88891 0.43279
 O231 O 0.14165 0.08511 0.54547
 O232 O 0.09628 0.15643 0.46471
 O233 O 0.15590 0.10097 0.46374
 O234 O 0.08547 0.14387 0.54771
 O235 O 0.13169 0.19412 0.56555
 O236 O 0.20335 0.15024 0.48078
 O237 O 0.14134 0.20794 0.48202
 O238 O 0.18954 0.13376 0.56302
 Cu239 Cu 0.11527 0.11675 0.50363
 Cu240 Cu 0.17131 0.17669 0.52446
 C241 C 0.17353 0.09644 0.56736
 C242 C 0.10985 0.19440 0.46016
 C243 C 0.19188 0.11733 0.45866
 C244 C 0.09613 0.17656 0.57047
 O245 O 0.15149 0.91252 0.48299
 O246 O 0.08908 0.83868 0.54750
 O247 O 0.14988 0.89186 0.56456
 O248 O 0.09570 0.85646 0.46501
 O249 O 0.14092 0.80396 0.45412
 O250 O 0.19868 0.84306 0.55314
 O251 O 0.13539 0.78709 0.53746
 O252 O 0.19882 0.86241 0.47018
 Cu253 Cu 0.11683 0.87964 0.51641
 Cu254 Cu 0.17336 0.81876 0.50315
 C255 C 0.18542 0.90060 0.46556
 C256 C 0.10048 0.80019 0.55245
 C257 C 0.18446 0.87505 0.57471
 C258 C 0.10852 0.82443 0.44272
 O259 O 0.83950 0.10169 0.45571
 O260 O 0.89215 0.15486 0.54759
 O261 O 0.83150 0.10175 0.54025
 O262 O 0.90128 0.15532 0.46356
 O263 O 0.85764 0.20983 0.45857
 O264 O 0.78701 0.15566 0.53817
 O265 O 0.84982 0.21060 0.54348
 O266 O 0.79317 0.15397 0.45272
 Cu267 Cu 0.87037 0.12304 0.50189
 Cu268 Cu 0.81731 0.18808 0.49740
 C269 C 0.80668 0.11763 0.43956
 C270 C 0.88079 0.19175 0.56082
 C271 C 0.79769 0.11913 0.55269
 C272 C 0.89230 0.19214 0.44905
 O273 O 0.53502 0.87073 0.93529
 O274 O 0.47611 0.93611 0.85814
 O275 O 0.45730 0.87850 0.91511
 O276 O 0.55375 0.92664 0.87372
 O277 O 0.55830 0.87624 0.82215
 O278 O 0.46300 0.82502 0.86701
 O279 O 0.47866 0.88419 0.80794
 O280 O 0.54198 0.81905 0.88542
 Cu281 Cu 0.50547 0.90790 0.90069
 Cu282 Cu 0.51132 0.84581 0.84059
 C283 C 0.54748 0.83351 0.92442
 C284 C 0.46741 0.92177 0.82005
 C285 C 0.44418 0.84315 0.89896
 C286 C 0.57095 0.91138 0.83939
 O287 O 0.53048 0.12511 0.08167
 O288 O 0.43827 0.08346 0.13792
 O289 O 0.45132 0.13478 0.07452
 O290 O 0.51689 0.06873 0.14393
 O291 O 0.52375 0.12134 0.19290
 O292 O 0.45461 0.18819 0.12307
 O293 O 0.44388 0.13478 0.18855
 O294 O 0.53495 0.17934 0.12904
 Cu295 Cu 0.48430 0.09768 0.10477
 Cu296 Cu 0.49014 0.16134 0.16339
 C297 C 0.54711 0.16030 0.09416
 C298 C 0.42577 0.10139 0.17315
 C299 C 0.44167 0.17250 0.08659
 C300 C 0.53022 0.08263 0.18067
 O301 O 0.46412 0.16155 0.86073
 O302 O 0.53971 0.10993 0.78851
 O303 O 0.54366 0.14909 0.86354
 O304 O 0.46069 0.11731 0.78791
 O305 O 0.47016 0.17652 0.74947
 O306 O 0.55089 0.21169 0.83060
 O307 O 0.55152 0.17120 0.75442
 O308 O 0.47033 0.22282 0.82523
 Cu309 Cu 0.50103 0.12863 0.82878
 Cu310 Cu 0.51113 0.20193 0.78619
 C311 C 0.45478 0.20083 0.85630
 C312 C 0.55855 0.13134 0.75923
 C313 C 0.56095 0.18568 0.86084
 C314 C 0.45268 0.14005 0.75476
 O315 O 0.48465 0.83767 0.11881
 O316 O 0.55280 0.87319 0.20795
 O317 O 0.55802 0.81597 0.14518
 O318 O 0.48064 0.89466 0.17966
 O319 O 0.45125 0.84824 0.22489
 O320 O 0.52801 0.76678 0.18675
 O321 O 0.52394 0.82586 0.25257
 O322 O 0.45430 0.78962 0.16146
 Cu323 Cu 0.52226 0.85989 0.15866
 Cu324 Cu 0.48686 0.80241 0.21111
 C325 C 0.45798 0.80801 0.12449
 C326 C 0.54869 0.85717 0.24581
 C327 C 0.55509 0.77762 0.15829
 C328 C 0.45332 0.88555 0.20824
 O329 O 0.89416 0.55203 0.85879
 O330 O 0.82933 0.48336 0.92639
 O331 O 0.89177 0.47140 0.87604
 O332 O 0.82771 0.56383 0.90696
 O333 O 0.78483 0.55024 0.85149
 O334 O 0.85111 0.45840 0.81858
 O335 O 0.78676 0.46909 0.87079
 O336 O 0.85376 0.54003 0.80100
 Cu337 Cu 0.86470 0.51945 0.89757
 Cu338 Cu 0.81477 0.50370 0.82949
 C339 C 0.88659 0.55641 0.81825
 C340 C 0.79764 0.46417 0.91074
 C341 C 0.88274 0.44940 0.84193
 C342 C 0.79444 0.57152 0.88595
 O343 O 0.17938 0.44412 0.09627
 O344 O 0.10484 0.52574 0.13236
 O345 O 0.16550 0.52339 0.07695
 O346 O 0.11361 0.44455 0.14546
 O347 O 0.15316 0.46271 0.20234
 O348 O 0.20836 0.54191 0.13102
 O349 O 0.14585 0.54485 0.18775
 O350 O 0.22169 0.46201 0.15101
 Cu351 Cu 0.13687 0.48262 0.10742
 Cu352 Cu 0.18659 0.50443 0.17375
 C353 C 0.21364 0.43986 0.11664
 C354 C 0.11215 0.54889 0.16619
 C355 C 0.19580 0.54561 0.09143
 C356 C 0.12312 0.44089 0.18561
 O357 O 0.83982 0.52248 0.08153
 O358 O 0.90823 0.45398 0.14456
 O359 O 0.84252 0.44052 0.09626
 O360 O 0.90117 0.53499 0.13414
 O361 O 0.86034 0.54121 0.19249
 O362 O 0.79926 0.44713 0.15246
 O363 O 0.86764 0.45960 0.20308
 O364 O 0.79699 0.53045 0.13795
 Cu365 Cu 0.87681 0.48706 0.10840
 Cu366 Cu 0.82643 0.49473 0.17721
 C367 C 0.80736 0.53869 0.09840
 C368 C 0.90117 0.44661 0.18471
 C369 C 0.81031 0.42837 0.11702
 C370 C 0.89163 0.55347 0.17016
 O371 O 0.17269 0.56662 0.89152
 O372 O 0.09979 0.47970 0.86443
 O373 O 0.16429 0.48743 0.91423
 O374 O 0.10575 0.55911 0.84401
 O375 O 0.14366 0.53921 0.78661
 O376 O 0.20462 0.46681 0.85899
 O377 O 0.13854 0.45967 0.80767
 O378 O 0.21352 0.54674 0.83640
 Cu379 Cu 0.13192 0.52528 0.88411
 Cu380 Cu 0.17941 0.50160 0.81656
 C381 C 0.20617 0.57057 0.86974
 C382 C 0.10593 0.45566 0.83109
 C383 C 0.19431 0.46530 0.89938
 C384 C 0.11310 0.55990 0.80315
 C385 C 0.28152 0.42509 0.08385
 C386 C 0.24435 0.41038 0.09732
 H387 H 0.29318 0.45558 0.09650
 H388 H 0.23154 0.38212 0.08083
 C389 C 0.74233 0.57621 0.07446
 C390 C 0.78281 0.56661 0.06965
 H391 H 0.72593 0.56827 0.10447
 H392 H 0.79878 0.57665 0.04001
 C393 C 0.73446 0.42607 0.93969
 C394 C 0.77525 0.43592 0.94100
 H395 H 0.71545 0.43462 0.91168
 H396 H 0.79368 0.42536 0.96875
 C397 C 0.27368 0.58631 0.90210
 C398 C 0.23739 0.60109 0.88677
 H399 H 0.28352 0.55417 0.89277
 H400 H 0.22543 0.63090 0.90060
 C401 C 0.08026 0.26413 0.43676
 C402 C 0.08614 0.22192 0.43031
 H403 H 0.09933 0.28234 0.45983
 H404 H 0.06566 0.20510 0.40736
 C405 C 0.07097 0.72840 0.56926
 C406 C 0.07038 0.77122 0.57340
 H407 H 0.09792 0.71190 0.55593
 H408 H 0.04278 0.78624 0.58729
 C409 C 0.93124 0.79456 0.35601
 C410 C 0.89979 0.77588 0.37770
 H411 H 0.93500 0.82918 0.35900
 H412 H 0.89560 0.74130 0.37600
 C413 C 0.91362 0.25437 0.59814
 C414 C 0.90625 0.21203 0.59529
 H415 H 0.89457 0.27715 0.58055
 H416 H 0.92631 0.19049 0.61344
 C417 C 0.39015 0.08156 0.24128
 C418 C 0.39240 0.07969 0.19737
 H419 H 0.40482 0.10775 0.25943
 H420 H 0.37727 0.05299 0.18035
 C421 C 0.57830 0.06866 0.71748
 C422 C 0.58872 0.10821 0.73140
 H423 H 0.54580 0.05891 0.72000
 H424 H 0.62088 0.11907 0.73089
 C425 C 0.43184 0.94045 0.74994
 C426 C 0.44604 0.95114 0.79003
 H427 H 0.43175 0.90722 0.73883
 H428 H 0.44301 0.98418 0.80140
 C429 C 0.54949 0.91270 0.30040
 C430 C 0.56983 0.87952 0.28213
 H431 H 0.51579 0.91383 0.29673
 H432 H 0.60363 0.88061 0.28081
 C433 C 0.42047 0.26167 0.89801
 C434 C 0.42796 0.21956 0.89074
 H435 H 0.42549 0.28447 0.87182
 H436 H 0.41706 0.19637 0.91457
 C437 C 0.58353 0.76844 0.95302
 C438 C 0.56515 0.80674 0.95950
 H439 H 0.59170 0.75901 0.91967
 H440 H 0.56155 0.81957 0.99251
 C441 C 0.41503 0.75705 0.07920
 C442 C 0.43220 0.79610 0.08640
 H443 H 0.41465 0.73420 0.10588
 H444 H 0.43006 0.82103 0.06208
 C445 C 0.59029 0.22123 0.06698
 C446 C 0.57804 0.17978 0.06466
 H447 H 0.58565 0.23905 0.09744
 H448 H 0.58685 0.16001 0.03664
 C449 C 0.23209 0.06474 0.60912
 C450 C 0.19225 0.06369 0.59550
 H451 H 0.24901 0.09500 0.60759
 H452 H 0.17310 0.03546 0.60044
 C453 C 0.74279 0.08479 0.40889
 C454 C 0.78415 0.09110 0.40709
 H455 H 0.72311 0.10681 0.42724
 H456 H 0.80296 0.06823 0.38869
 C457 C 0.76142 0.90514 0.58623
 C458 C 0.80220 0.89694 0.58133
 H459 H 0.73823 0.88574 0.56915
 H460 H 0.82459 0.91675 0.59921
 C461 C 0.24943 0.93096 0.43174
 C462 C 0.20878 0.93325 0.44142
 H463 H 0.26647 0.90128 0.43585
 H464 H 0.19223 0.96293 0.43528
 C465 C 0.06808 0.40774 0.77880
 C466 C 0.07260 0.42532 0.81915
 H467 H 0.09437 0.40829 0.75634
 H468 H 0.04864 0.42127 0.84386
 C469 C 0.07885 0.60112 0.21848
 C470 C 0.07886 0.57807 0.18069
 H471 H 0.10800 0.60618 0.23594
 H472 H 0.05155 0.57775 0.15972
 C473 C 0.93646 0.41902 0.25251
 C474 C 0.93503 0.42557 0.20890
 H475 H 0.90797 0.42171 0.27154
 H476 H 0.96181 0.41731 0.18882
 C477 C 0.91937 0.58320 0.74855
 C478 C 0.91956 0.57740 0.79229
 H479 H 0.88999 0.58128 0.73092
 H480 H 0.94738 0.58558 0.81091
 C481 C 0.72618 0.59132 0.91380
 C482 C 0.76567 0.60284 0.90537
 H483 H 0.71229 0.56425 0.89632
 H484 H 0.77983 0.62765 0.92596
 C485 C 0.25523 0.42259 0.92539
 C486 C 0.21735 0.44001 0.93160
 H487 H 0.26717 0.41896 0.89220
 H488 H 0.20263 0.43871 0.96360
 C489 C 0.25581 0.58803 0.06333
 C490 C 0.21634 0.57411 0.05992
 H491 H 0.27299 0.58441 0.09376
 H492 H 0.19947 0.57941 0.02953
 C493 C 0.74289 0.39582 0.09717
 C494 C 0.78465 0.39438 0.09647
 H495 H 0.72708 0.41569 0.12139
 H496 H 0.79947 0.37633 0.07004
 C497 C 0.91846 0.71784 0.55234
 C498 C 0.91563 0.76077 0.55520
 H499 H 0.89577 0.69890 0.53404
 H500 H 0.93936 0.77810 0.57387
 C501 C 0.92663 0.25703 0.41875
 C502 C 0.92480 0.21433 0.42367
 H503 H 0.89986 0.27687 0.42648
 H504 H 0.95177 0.19525 0.41460
 C505 C 0.06610 0.23568 0.61492
 C506 C 0.06483 0.19491 0.60028
 H507 H 0.09444 0.25460 0.61206
 H508 H 0.03658 0.17611 0.60472
 C509 C 0.07812 0.77139 0.38949
 C510 C 0.08345 0.81200 0.40429
 H511 H 0.10058 0.74708 0.39855
 H512 H 0.06429 0.83760 0.39166
 C513 C 0.61768 0.93021 0.77718
 C514 C 0.60157 0.93888 0.81712
 H515 H 0.62146 0.89709 0.76648
 H516 H 0.60411 0.97134 0.83035
 C517 C 0.41018 0.92616 0.26229
 C518 C 0.42497 0.92015 0.22127
 H519 H 0.41283 0.90018 0.28562
 H520 H 0.41991 0.94374 0.19603
 C521 C 0.57005 0.05976 0.24740
 C522 C 0.54961 0.05094 0.20972
 H523 H 0.57969 0.09262 0.25432
 H524 H 0.54559 0.01781 0.19909
 C525 C 0.44141 0.08939 0.69630
 C526 C 0.42515 0.12084 0.72131
 H527 H 0.47509 0.08860 0.69258
 H528 H 0.39220 0.11961 0.72924
 C529 C 0.56262 0.72032 0.10551
 C530 C 0.58094 0.74557 0.13580
 H531 H 0.52889 0.71708 0.10589
 H532 H 0.61373 0.75343 0.13183
 C533 C 0.41304 0.24048 0.05825
 C534 C 0.41728 0.19781 0.05554
 H535 H 0.42186 0.25786 0.08795
 H536 H 0.40673 0.18102 0.02606
 C537 C 0.60052 0.23843 0.90597
 C538 C 0.59074 0.19765 0.89566
 H539 H 0.59300 0.26402 0.88344
 H540 H 0.59966 0.17224 0.91784
 C541 C 0.40321 0.77943 0.91931
 C542 C 0.40927 0.82202 0.92140
 H543 H 0.41635 0.76057 0.89256
 H544 H 0.39519 0.84001 0.94830
 C545 C 0.75045 0.92448 0.40349
 C546 C 0.79186 0.92265 0.40832
 H547 H 0.73119 0.89707 0.41204
 H548 H 0.81087 0.94969 0.39814
 C549 C 0.24876 0.90694 0.60434
 C550 C 0.20850 0.89641 0.60989
 H551 H 0.26768 0.88954 0.58062
 H552 H 0.19037 0.91511 0.63332
 C553 C 0.26057 0.08859 0.43788
 C554 C 0.22029 0.09507 0.42835
 H555 H 0.27566 0.10640 0.46432
 H556 H 0.20564 0.07443 0.40370
 C557 C 0.78496 0.06067 0.60337
 C558 C 0.76992 0.09477 0.58219
 H559 H 0.81834 0.05498 0.60287
 H560 H 0.73666 0.10081 0.58132
 C561 C 0.92562 0.59604 0.22910
 C562 C 0.91983 0.58729 0.18627
 H563 H 0.90367 0.58477 0.25356
 H564 H 0.94220 0.59952 0.16265
 C565 C 0.91432 0.40052 0.78725
 C566 C 0.91183 0.41543 0.82866
 H567 H 0.88923 0.40645 0.76421
 H568 H 0.93648 0.40812 0.85180
 C569 C 0.07271 0.57043 0.73500
 C570 C 0.08296 0.58291 0.77588
 H571 H 0.09190 0.54780 0.71684
 H572 H 0.06279 0.60551 0.79297
 C573 C 0.09049 0.41685 0.25539
 C574 C 0.09582 0.41293 0.21187
 H575 H 0.11236 0.43525 0.27532
 H576 H 0.07317 0.39399 0.19334
   
