data_POSCAR
  _audit_creation_date              2014-09-24
  _audit_creation_method            'ToBaCCo'
  _symmetry_space_group_name_H-M    'P1'
  _symmetry_Int_Tables_number       1
  _symmetry_cell_setting            triclinic
  loop_
  _symmetry_equiv_pos_as_xyz
 x,y,z
_cell_length_a 33.8070
_cell_length_b 33.6275
_cell_length_c 33.8191
_cell_angle_alpha 89.920900
_cell_angle_beta 89.987600
_cell_angle_gamma 90.124600
loop_
  _atom_site_label
  _atom_site_type_symbol
  _atom_site_fract_x
  _atom_site_fract_y
  _atom_site_fract_z
N1 N 0.57827 0.68758 0.60816
 N2 N 0.56290 0.67149 0.64011
 C3 C 0.53123 0.69296 0.65134
 C4 C 0.52631 0.72392 0.62476
 C5 C 0.55671 0.71949 0.59773
 H6 H 0.51280 0.68637 0.67664
 H7 H 0.56304 0.73846 0.57268
 Cu8 Cu 0.58580 0.62394 0.66357
 Cu9 Cu 0.62559 0.66661 0.58290
 Cu10 Cu 0.66810 0.58333 0.62555
 N11 N 0.60926 0.57640 0.68650
 N12 N 0.64264 0.56206 0.67275
 C13 C 0.65383 0.53100 0.69518
 C14 C 0.62556 0.52490 0.72436
 C15 C 0.59757 0.55433 0.71767
 H16 H 0.68006 0.51353 0.68980
 H17 H 0.57129 0.56008 0.73490
 N18 N 0.68937 0.60900 0.57759
 N19 N 0.67350 0.64107 0.56167
 C20 C 0.69489 0.65172 0.52974
 C21 C 0.72551 0.62488 0.52511
 C22 C 0.72100 0.59815 0.55593
 H23 H 0.68837 0.67680 0.51084
 H24 H 0.73971 0.57294 0.56234
 H25 H 0.61799 0.60842 0.60107
 H26 H 0.64898 0.64109 0.63322
 N27 N 0.92234 0.31142 0.10826
 N28 N 0.93650 0.32626 0.14127
 C29 C 0.96789 0.30454 0.15278
 C30 C 0.97420 0.27464 0.12515
 C31 C 0.94455 0.28021 0.09726
 H32 H 0.98536 0.31076 0.17879
 H33 H 0.93886 0.26256 0.07120
 Cu34 Cu 0.91328 0.37368 0.16454
 Cu35 Cu 0.87540 0.33285 0.08248
 Cu36 Cu 0.83318 0.41654 0.12475
 N37 N 0.89012 0.42113 0.18780
 N38 N 0.85835 0.43735 0.17230
 C39 C 0.84804 0.46929 0.19383
 C40 C 0.87496 0.47361 0.22436
 C41 C 0.90134 0.44253 0.21955
 H42 H 0.82319 0.48839 0.18733
 H43 H 0.92653 0.43584 0.23806
 N44 N 0.81208 0.39105 0.07666
 N45 N 0.82778 0.35884 0.06093
 C46 C 0.80627 0.34814 0.02914
 C47 C 0.77577 0.37509 0.02439
 C48 C 0.78044 0.40192 0.05503
 H49 H 0.81255 0.32288 0.01047
 H50 H 0.76173 0.42712 0.06142
 H51 H 0.88330 0.39069 0.10126
 H52 H 0.85081 0.35827 0.13219
 N53 N 0.42136 0.18864 -0.10847
 N54 N 0.43623 0.17303 -0.14082
 C55 C 0.46802 0.19447 -0.15206
 C56 C 0.47352 0.22495 -0.12510
 C57 C 0.44335 0.22024 -0.09780
 H58 H 0.48623 0.18804 -0.17752
 H59 H 0.43754 0.23868 -0.07230
 Cu60 Cu 0.41292 0.12559 -0.16406
 Cu61 Cu 0.37424 0.16727 -0.08285
 Cu62 Cu 0.33225 0.08308 -0.12470
 N63 N 0.38963 0.07813 -0.18729
 N64 N 0.35762 0.06203 -0.17199
 C65 C 0.34721 0.03012 -0.19361
 C66 C 0.37432 0.02574 -0.22397
 C67 C 0.40089 0.05673 -0.21898
 H68 H 0.32215 0.01113 -0.18728
 H69 H 0.42621 0.06340 -0.23736
 N70 N 0.31093 0.10882 -0.07690
 N71 N 0.32652 0.14125 -0.06137
 C72 C 0.30481 0.15214 -0.02980
 C73 C 0.27428 0.12510 -0.02501
 C74 C 0.27915 0.09801 -0.05536
 H75 H 0.31098 0.17760 -0.01132
 H76 H 0.26047 0.07268 -0.06164
 H77 H 0.38226 0.10920 -0.10093
 H78 H 0.35018 0.14126 -0.13252
 N79 N 0.07717 0.81205 0.39252
 N80 N 0.06352 0.82645 0.35906
 C81 C 0.03254 0.80424 0.34722
 C82 C 0.02574 0.77473 0.37521
 C83 C 0.05477 0.78089 0.40362
 H84 H 0.01551 0.80996 0.32080
 H85 H 0.06016 0.76329 0.42984
 Cu86 Cu 0.08622 0.87419 0.33554
 Cu87 Cu 0.12429 0.83340 0.41795
 Cu88 Cu 0.16680 0.91697 0.37555
 N89 N 0.10972 0.92195 0.31288
 N90 N 0.14162 0.93814 0.32832
 C91 C 0.15194 0.97022 0.30685
 C92 C 0.12494 0.97465 0.27642
 C93 C 0.09853 0.94349 0.28121
 H94 H 0.17697 0.98925 0.31319
 H95 H 0.07336 0.93675 0.26268
 N96 N 0.18803 0.89129 0.42340
 N97 N 0.17217 0.85912 0.43926
 C98 C 0.19384 0.84824 0.47089
 C99 C 0.22464 0.87503 0.47535
 C100 C 0.21993 0.90197 0.44478
 H101 H 0.18747 0.82298 0.48964
 H102 H 0.23875 0.92716 0.43830
 H103 H 0.11645 0.89117 0.39876
 H104 H 0.14876 0.85869 0.36778
 C105 C 0.09447 0.15531 0.12557
 C106 C 0.12338 0.15470 0.09582
 C107 C 0.15289 0.12538 0.09569
 C108 C 0.15291 0.09625 0.12550
 C109 C 0.12399 0.09637 0.15536
 C110 C 0.09498 0.12619 0.15529
 H111 H 0.12288 0.17713 0.07278
 H112 H 0.17549 0.07343 0.12549
 H113 H 0.07269 0.12673 0.17832
 C114 C 0.40507 0.84516 0.62546
 C115 C 0.37559 0.84534 0.59619
 C116 C 0.34612 0.87469 0.59594
 C117 C 0.34631 0.90406 0.62542
 C118 C 0.37553 0.90430 0.65494
 C119 C 0.40480 0.87474 0.65474
 H120 H 0.37563 0.82260 0.57353
 H121 H 0.32364 0.92679 0.62541
 H122 H 0.42742 0.87475 0.67744
 C123 C 0.90549 0.65476 0.37444
 C124 C 0.87620 0.65434 0.40388
 C125 C 0.84664 0.62493 0.40408
 C126 C 0.84679 0.59559 0.37457
 C127 C 0.87599 0.59550 0.34500
 C128 C 0.90518 0.62529 0.34508
 H129 H 0.87644 0.67696 0.42667
 H130 H 0.82410 0.57278 0.37457
 H131 H 0.92773 0.62555 0.32231
 C132 C 0.59537 0.34604 -0.12572
 C133 C 0.59547 0.37587 -0.15482
 C134 C 0.62502 0.40524 -0.15527
 C135 C 0.65454 0.40482 -0.12610
 C136 C 0.65473 0.37538 -0.09661
 C137 C 0.62510 0.34604 -0.09670
 H138 H 0.57254 0.37623 -0.17722
 H139 H 0.67739 0.42747 -0.12638
 H140 H 0.62514 0.32316 -0.07411
 C141 C 0.02820 0.23944 0.15875
 C142 C 0.00399 0.24532 0.12527
 C143 C 0.01034 0.22103 0.09188
 C144 C 0.04002 0.19219 0.09190
 C145 C 0.06355 0.18628 0.12547
 C146 C 0.05729 0.20996 0.15895
 H147 H 0.02441 0.25691 0.18529
 H148 H -0.00697 0.22452 0.06524
 H149 H 0.04431 0.17404 0.06581
 H150 H 0.07524 0.20586 0.18518
 C151 C 0.48467 0.77452 0.58988
 C152 C 0.49532 0.75497 0.62503
 C153 C 0.47612 0.76536 0.66038
 C154 C 0.44696 0.79479 0.66057
 C155 C 0.43616 0.81413 0.62536
 C156 C 0.45527 0.80365 0.59000
 H157 H 0.49870 0.76698 0.56212
 H158 H 0.48395 0.75113 0.68800
 H159 H 0.43249 0.80211 0.68819
 H160 H 0.44775 0.81834 0.56250
 C161 C 0.98758 0.72296 0.40923
 C162 C 0.99608 0.74521 0.37489
 C163 C 0.97410 0.73721 0.34035
 C164 C 0.94506 0.70753 0.34008
 C165 C 0.93655 0.68585 0.37452
 C166 C 0.95787 0.69403 0.40912
 H167 H 1.00299 0.72844 0.43669
 H168 H 0.97979 0.75304 0.31307
 H169 H 0.92889 0.70179 0.31303
 H170 H 0.95182 0.67768 0.43606
 C171 C 0.51584 0.27492 -0.09006
 C172 C 0.50485 0.25576 -0.12528
 C173 C 0.52397 0.26639 -0.16066
 C174 C 0.55322 0.29584 -0.16085
 C175 C 0.56423 0.31494 -0.12559
 C176 C 0.54533 0.30411 -0.09019
 H177 H 0.50199 0.26709 -0.06226
 H178 H 0.51599 0.25234 -0.18832
 H179 H 0.56755 0.30341 -0.18850
 H180 H 0.55304 0.31859 -0.06266
 C181 C 0.15977 0.02533 0.23467
 C182 C 0.12460 0.00578 0.24545
 C183 C 0.08917 0.01635 0.22649
 C184 C 0.08889 0.04602 0.19749
 C185 C 0.12412 0.06534 0.18653
 C186 C 0.15955 0.05469 0.20540
 H187 H 0.18759 0.01762 0.24850
 H188 H 0.06155 0.00207 0.23442
 H189 H 0.06120 0.05356 0.18327
 H190 H 0.18704 0.06942 0.19779
 C191 C 0.65974 0.47326 -0.23757
 C192 C 0.62540 0.49546 -0.24592
 C193 C 0.59092 0.48744 -0.22382
 C194 C 0.59071 0.45786 -0.19474
 C195 C 0.62514 0.43628 -0.18633
 C196 C 0.65970 0.44439 -0.20782
 H197 H 0.68714 0.47866 -0.25318
 H198 H 0.56362 0.50312 -0.22949
 H199 H 0.56368 0.45209 -0.17850
 H200 H 0.68662 0.42802 -0.20191
 C201 C 0.33967 0.97493 0.73443
 C202 C 0.37475 0.99467 0.74506
 C203 C 0.41016 0.98444 0.72586
 C204 C 0.41049 0.95492 0.69677
 C205 C 0.37535 0.93536 0.68603
 C206 C 0.33994 0.94570 0.70511
 H207 H 0.31187 0.98240 0.74840
 H208 H 0.43772 0.99889 0.73361
 H209 H 0.43814 0.94772 0.68231
 H210 H 0.31250 0.93085 0.69761
 C211 C 0.84030 0.52447 0.26569
 C212 C 0.87537 0.50475 0.25527
 C213 C 0.91073 0.51513 0.27454
 C214 C 0.91102 0.54482 0.30347
 C215 C 0.87588 0.56436 0.31401
 C216 C 0.84053 0.55383 0.29488
 H217 H 0.81253 0.51688 0.25167
 H218 H 0.93829 0.50069 0.26695
 H219 H 0.93863 0.55217 0.31800
 H220 H 0.81309 0.56864 0.30224
 C221 C 0.22378 0.08974 0.01644
 C222 C 0.24312 0.12519 0.00577
 C223 C 0.23246 0.16072 0.02477
 C224 C 0.20297 0.16081 0.05375
 C225 C 0.18381 0.12532 0.06458
 C226 C 0.19455 0.08978 0.04568
 H227 H 0.23158 0.06184 0.00260
 H228 H 0.24656 0.18857 0.01697
 H229 H 0.19548 0.18857 0.06809
 H230 H 0.18003 0.06206 0.05327
 C231 C 0.76697 0.66028 0.47462
 C232 C 0.75641 0.62485 0.49405
 C233 C 0.77572 0.58941 0.48361
 C234 C 0.80488 0.58940 0.45428
 C235 C 0.81559 0.62488 0.43507
 C236 C 0.79640 0.66033 0.44558
 H237 H 0.75288 0.68812 0.48220
 H238 H 0.76799 0.56156 0.49773
 H239 H 0.81941 0.56171 0.44692
 H240 H 0.80387 0.68803 0.43098
 C241 C 0.73430 0.33978 -0.02602
 C242 C 0.74485 0.37517 -0.00662
 C243 C 0.72558 0.41064 -0.01709
 C244 C 0.69651 0.41074 -0.04648
 C245 C 0.68583 0.37532 -0.06571
 C246 C 0.70496 0.33982 -0.05514
 H247 H 0.74831 0.31191 -0.01837
 H248 H 0.73325 0.43845 -0.00293
 H249 H 0.68200 0.43846 -0.05386
 H250 H 0.69749 0.31216 -0.06974
 C251 C 0.27533 0.91030 0.51653
 C252 C 0.25585 0.87490 0.50606
 C253 C 0.26644 0.83937 0.52521
 C254 C 0.29591 0.83925 0.55420
 C255 C 0.31514 0.87472 0.56489
 C256 C 0.30453 0.91024 0.54578
 H257 H 0.26767 0.93820 0.50252
 H258 H 0.25230 0.81155 0.51748
 H259 H 0.30333 0.81150 0.56865
 H260 H 0.31915 0.93793 0.55321
   
