data_POSCAR
  _audit_creation_date              2014-09-24
  _audit_creation_method            'ToBaCCo'
  _symmetry_space_group_name_H-M    'P1'
  _symmetry_Int_Tables_number       1
  _symmetry_cell_setting            triclinic
  loop_
  _symmetry_equiv_pos_as_xyz
 x,y,z
_cell_length_a 60.5389
_cell_length_b 34.2047
_cell_length_c 27.4044
_cell_angle_alpha 90.092200
_cell_angle_beta 89.869800
_cell_angle_gamma 90.062700
loop_
  _atom_site_label
  _atom_site_type_symbol
  _atom_site_fract_x
  _atom_site_fract_y
  _atom_site_fract_z
C1 C 0.70924 0.28743 0.54691
 C2 C 0.69957 0.29830 0.50273
 C3 C 0.70944 0.28893 0.45813
 C4 C 0.72955 0.26803 0.45714
 C5 C 0.73961 0.25687 0.50173
 C6 C 0.72944 0.26663 0.54688
 C7 C 0.73975 0.25535 0.59062
 C8 C 0.75964 0.23498 0.59007
 C9 C 0.77000 0.22499 0.54576
 C10 C 0.75987 0.23598 0.50116
 C11 C 0.73985 0.25805 0.41283
 C12 C 0.75969 0.23749 0.41225
 C13 C 0.77001 0.22619 0.45597
 C14 C 0.79020 0.20541 0.45590
 C15 C 0.80002 0.19483 0.50003
 C16 C 0.79025 0.20437 0.54472
 H17 H 0.73250 0.26227 0.62574
 H18 H 0.76685 0.22707 0.62480
 H19 H 0.73264 0.26606 0.37815
 H20 H 0.76691 0.23055 0.37711
 H21 H 0.68409 0.31436 0.50295
 H22 H 0.81558 0.17901 0.49960
 C23 C 0.28956 0.70684 0.45529
 C24 C 0.29949 0.69706 0.49953
 C25 C 0.28968 0.70688 0.54404
 C26 C 0.26933 0.72703 0.54481
 C27 C 0.25905 0.73715 0.50009
 C28 C 0.26921 0.72702 0.45508
 C29 C 0.25877 0.73735 0.41119
 C30 C 0.23872 0.75725 0.41145
 C31 C 0.22836 0.76757 0.45561
 C32 C 0.23861 0.75745 0.50037
 C33 C 0.25900 0.73734 0.58898
 C34 C 0.23894 0.75722 0.58928
 C35 C 0.22843 0.76757 0.54538
 C36 C 0.20803 0.78775 0.54510
 C37 C 0.19814 0.79753 0.50074
 C38 C 0.20801 0.78772 0.45628
 H39 H 0.26604 0.73010 0.37620
 H40 H 0.23138 0.76451 0.37663
 H41 H 0.26637 0.73009 0.62377
 H42 H 0.23170 0.76445 0.62432
 H43 H 0.31515 0.68161 0.49932
 H44 H 0.18247 0.81299 0.50071
 C45 C 0.20850 0.21227 -0.45779
 C46 C 0.19853 0.20247 -0.50205
 C47 C 0.20831 0.21236 -0.54660
 C48 C 0.22869 0.23268 -0.54728
 C49 C 0.23898 0.24277 -0.50248
 C50 C 0.22885 0.23250 -0.45752
 C51 C 0.23932 0.24274 -0.41356
 C52 C 0.25938 0.26272 -0.41369
 C53 C 0.26969 0.27322 -0.45777
 C54 C 0.25942 0.26320 -0.50260
 C55 C 0.23906 0.24319 -0.59138
 C56 C 0.25909 0.26322 -0.59150
 C57 C 0.26957 0.27354 -0.54753
 C58 C 0.28993 0.29388 -0.54709
 C59 C 0.29985 0.30354 -0.50269
 C60 C 0.29004 0.29347 -0.45831
 H61 H 0.23208 0.23537 -0.37861
 H62 H 0.26674 0.26989 -0.37883
 H63 H 0.23173 0.23599 -0.62627
 H64 H 0.26633 0.27059 -0.62647
 H65 H 0.18286 0.18693 -0.50171
 H66 H 0.31552 0.31908 -0.50256
 C67 C -0.29190 0.71162 -0.45660
 C68 C -0.30180 0.70178 -0.50098
 C69 C -0.29199 0.71182 -0.54545
 C70 C -0.27166 0.73228 -0.54601
 C71 C -0.26144 0.74246 -0.50117
 C72 C -0.27158 0.73210 -0.45622
 C73 C -0.26113 0.74253 -0.41224
 C74 C -0.24116 0.76272 -0.41235
 C75 C -0.23085 0.77327 -0.45641
 C76 C -0.24105 0.76307 -0.50125
 C77 C -0.26128 0.74284 -0.59008
 C78 C -0.24129 0.76300 -0.59015
 C79 C -0.23088 0.77343 -0.54616
 C80 C -0.21056 0.79394 -0.54567
 C81 C -0.20073 0.80379 -0.50125
 C82 C -0.21058 0.79374 -0.45690
 H83 H -0.26835 0.73513 -0.37726
 H84 H -0.23385 0.77001 -0.37748
 H85 H -0.26855 0.73556 -0.62500
 H86 H -0.23404 0.77039 -0.62510
 H87 H -0.31743 0.68610 -0.50091
 H88 H -0.18512 0.81949 -0.50107
 O89 O -0.03072 0.93340 0.09019
 O90 O -0.05496 0.96816 0.04268
 C91 C -0.05048 0.94382 0.07742
 O92 O 0.03139 1.07092 0.08590
 O93 O 0.05575 1.03370 0.04131
 C94 C 0.05118 1.06026 0.07353
 O95 O -0.03065 1.06702 0.09005
 O96 O -0.05493 1.03213 0.04254
 C97 C -0.05042 1.05659 0.07724
 O98 O 0.03128 0.92914 0.08550
 O99 O 0.05570 0.96649 0.04120
 C100 C 0.05109 0.93987 0.07324
 Zr101 Zr 0.00037 0.95050 0.06127
 O102 O 0.00237 0.94709 0.13822
 O103 O -0.00079 0.88898 0.05467
 Zr104 Zr 0.00041 1.04980 0.06131
 O105 O 0.00266 1.05227 0.13830
 O106 O -0.00209 1.11150 0.05815
 O107 O -0.01912 1.00016 0.07102
 O108 O 0.01942 1.00015 0.07036
 O109 O 0.03146 0.92874 -0.08545
 O110 O 0.05579 0.96634 -0.04133
 C111 C 0.05125 0.93956 -0.07327
 O112 O -0.03048 1.06654 -0.09048
 O113 O -0.05486 1.03189 -0.04282
 C114 C -0.05028 1.05615 -0.07765
 O115 O 0.03155 1.07069 -0.08613
 O116 O 0.05581 1.03379 -0.04129
 C117 C 0.05131 1.06017 -0.07361
 O118 O -0.03055 0.93281 -0.08997
 O119 O -0.05487 0.96796 -0.04272
 C120 C -0.05033 0.94338 -0.07730
 Zr121 Zr 0.00048 0.95029 -0.06144
 O122 O 0.00294 0.94831 -0.13846
 O123 O -0.00179 0.88856 -0.05876
 Zr124 Zr 0.00053 1.04958 -0.06158
 O125 O 0.00297 1.05188 -0.13855
 O126 O -0.00203 1.11128 -0.05848
 Zr127 Zr -0.03233 1.00005 -0.00009
 Zr128 Zr 0.03339 1.00010 -0.00008
 O129 O 0.01957 0.99991 -0.07055
 O130 O -0.01900 0.99990 -0.07122
 O131 O 0.02029 0.94298 -0.00003
 O132 O -0.01887 1.05675 -0.00014
 O133 O -0.01898 0.94333 -0.00002
 O134 O 0.02034 1.05727 -0.00013
 H135 H 0.02911 1.00010 0.09943
 H136 H -0.02913 1.07930 -0.00019
 H137 H 0.02938 0.99982 -0.09954
 H138 H -0.02924 0.92074 0.00003
 H139 H 0.01148 1.12148 0.04225
 H140 H 0.01150 1.12136 -0.04262
 H141 H -0.00754 1.03243 -0.15175
 H142 H -0.00823 0.96650 -0.15163
 H143 H 0.01027 0.87916 -0.03748
 H144 H -0.00113 0.87872 0.08845
 H145 H -0.00751 0.96745 0.15159
 H146 H -0.00811 1.03327 0.15152
 O147 O 0.46949 0.43341 0.08928
 O148 O 0.44543 0.46802 0.04113
 C149 C 0.44978 0.44381 0.07609
 O150 O 0.53171 0.57085 0.08518
 O151 O 0.55620 0.53351 0.04112
 C152 C 0.55154 0.56016 0.07313
 O153 O 0.46966 0.56699 0.08840
 O154 O 0.44551 0.53197 0.04069
 C155 C 0.44992 0.55653 0.07535
 O156 O 0.53141 0.42911 0.08611
 O157 O 0.55605 0.46611 0.04196
 C158 C 0.55127 0.43981 0.07431
 Zr159 Zr 0.50067 0.45034 0.06081
 O160 O 0.50232 0.44713 0.13782
 O161 O 0.49955 0.38881 0.05439
 Zr162 Zr 0.50081 0.54964 0.06025
 O163 O 0.50280 0.55244 0.13725
 O164 O 0.49834 0.61133 0.05667
 O165 O 0.48120 0.50009 0.06992
 O166 O 0.51974 0.50000 0.06994
 O167 O 0.53230 0.42794 -0.08518
 O168 O 0.55650 0.46563 -0.04082
 C169 C 0.55205 0.43875 -0.07269
 O170 O 0.47047 0.56606 -0.09196
 O171 O 0.44590 0.53156 -0.04460
 C172 C 0.45062 0.55581 -0.07936
 O173 O 0.53248 0.56984 -0.08676
 O174 O 0.55658 0.53304 -0.04134
 C175 C 0.55220 0.55931 -0.07389
 O176 O 0.47030 0.43210 -0.09082
 O177 O 0.44583 0.46751 -0.04424
 C178 C 0.45048 0.44275 -0.07856
 Zr179 Zr 0.50124 0.44966 -0.06189
 O180 O 0.50397 0.44746 -0.13885
 O181 O 0.49891 0.38794 -0.05897
 Zr182 Zr 0.50136 0.54889 -0.06264
 O183 O 0.50406 0.55058 -0.13960
 O184 O 0.49889 0.61062 -0.06023
 Zr185 Zr 0.46823 0.49972 -0.00140
 Zr186 Zr 0.53398 0.49961 -0.00023
 O187 O 0.52041 0.49917 -0.07094
 O188 O 0.48181 0.49925 -0.07231
 O189 O 0.52083 0.44252 -0.00007
 O190 O 0.48176 0.55638 -0.00157
 O191 O 0.48155 0.44298 -0.00077
 O192 O 0.52096 0.55680 -0.00090
 H193 H 0.52930 0.50012 0.09922
 H194 H 0.47153 0.57898 -0.00188
 H195 H 0.53031 0.49893 -0.09976
 H196 H 0.47128 0.42040 -0.00077
 H197 H 0.51195 0.62123 0.04090
 H198 H 0.51229 0.62071 -0.04388
 H199 H 0.49326 0.53163 -0.15281
 H200 H 0.49285 0.46563 -0.15229
 H201 H 0.51087 0.37858 -0.03738
 H202 H 0.49906 0.37862 0.08820
 H203 H 0.49254 0.46778 0.15087
 H204 H 0.49197 0.53355 0.15044
 C205 C 0.30067 0.30460 0.41106
 C206 C 0.31078 0.31453 0.37520
 C207 C 0.32363 0.32694 0.33381
 C208 C 0.34208 0.30521 0.31929
 C209 C 0.35579 0.31892 0.28197
 C210 C 0.35126 0.35467 0.25871
 C211 C 0.33234 0.37581 0.27272
 C212 C 0.31863 0.36202 0.31009
 C213 C 0.36689 0.37074 0.22199
 C214 C 0.37237 0.41074 0.22239
 C215 C 0.38830 0.42545 0.19030
 C216 C 0.39893 0.40046 0.15733
 C217 C 0.39325 0.36081 0.15584
 C218 C 0.37732 0.34602 0.18791
 C219 C 0.41648 0.41521 0.12704
 C220 C 0.43154 0.42798 0.10302
 H221 H 0.34619 0.27817 0.33768
 H222 H 0.37039 0.30224 0.27256
 H223 H 0.32827 0.40318 0.25512
 H224 H 0.30441 0.37912 0.32113
 H225 H 0.36491 0.43043 0.24862
 H226 H 0.39267 0.45615 0.19196
 H227 H 0.40140 0.34121 0.13046
 H228 H 0.37326 0.31520 0.18632
 C229 C -0.19977 0.80462 0.41252
 C230 C -0.18960 0.81454 0.37673
 C231 C -0.17666 0.82697 0.33546
 C232 C -0.18151 0.86220 0.31193
 C233 C -0.16773 0.87598 0.27470
 C234 C -0.14886 0.85469 0.26062
 C235 C -0.14447 0.81881 0.28371
 C236 C -0.15827 0.80511 0.32090
 C237 C -0.13317 0.87071 0.22397
 C238 C -0.12282 0.84599 0.18979
 C239 C -0.10688 0.86073 0.15768
 C240 C -0.10112 0.90035 0.15927
 C241 C -0.11166 0.92534 0.19238
 C242 C -0.12759 0.91067 0.22449
 C243 C -0.08362 0.91510 0.12880
 C244 C -0.06862 0.92790 0.10461
 H245 H -0.19568 0.87940 0.32301
 H246 H -0.17170 0.90345 0.25723
 H247 H -0.12993 0.80201 0.27425
 H248 H -0.15426 0.77796 0.33915
 H249 H -0.12695 0.81520 0.18810
 H250 H -0.09881 0.84114 0.13219
 H251 H -0.10723 0.95601 0.19410
 H252 H -0.13500 0.93036 0.25081
 C253 C 0.69722 0.70137 0.41270
 C254 C 0.68720 0.69173 0.37665
 C255 C 0.67458 0.67970 0.33478
 C256 C 0.65544 0.70012 0.32203
 C257 C 0.64216 0.68676 0.28382
 C258 C 0.64783 0.65267 0.25787
 C259 C 0.66740 0.63287 0.27021
 C260 C 0.68067 0.64630 0.30846
 C261 C 0.63273 0.63672 0.22007
 C262 C 0.62858 0.59628 0.21752
 C263 C 0.61311 0.58143 0.18457
 C264 C 0.60160 0.60669 0.15363
 C265 C 0.60597 0.64686 0.15500
 C266 C 0.62145 0.66181 0.18796
 C267 C 0.58436 0.59142 0.12295
 C268 C 0.56954 0.57772 0.09911
 H269 H 0.65050 0.72586 0.34238
 H270 H 0.62705 0.70234 0.27575
 H271 H 0.67235 0.60680 0.25057
 H272 H 0.69544 0.63023 0.31807
 H273 H 0.63670 0.57625 0.24219
 H274 H 0.60973 0.55031 0.18408
 H275 H 0.59712 0.66669 0.13127
 H276 H 0.62447 0.69301 0.18866
 C277 C 0.19748 1.20187 0.41162
 C278 C 0.18741 1.19217 0.37566
 C279 C 0.17473 1.18005 0.33391
 C280 C 0.15557 1.20044 0.32125
 C281 C 0.14222 1.18699 0.28320
 C282 C 0.14785 1.15284 0.25731
 C283 C 0.16744 1.13307 0.26956
 C284 C 0.18077 1.14659 0.30766
 C285 C 0.13269 1.13683 0.21965
 C286 C 0.12854 1.09638 0.21721
 C287 C 0.11302 1.08147 0.18441
 C288 C 0.10145 1.10669 0.15354
 C289 C 0.10581 1.14687 0.15480
 C290 C 0.12135 1.16187 0.18760
 C291 C 0.08414 1.09140 0.12304
 C292 C 0.06926 1.07772 0.09934
 H293 H 0.15065 1.22622 0.34156
 H294 H 0.12709 1.20255 0.27520
 H295 H 0.17236 1.10697 0.24996
 H296 H 0.19556 1.13054 0.31720
 H297 H 0.13672 1.07638 0.24184
 H298 H 0.10965 1.05035 0.18400
 H299 H 0.09692 1.16667 0.13111
 H300 H 0.12437 1.19307 0.18820
 C301 C 0.69850 0.29754 -0.41097
 C302 C 0.68850 0.30692 -0.37469
 C303 C 0.67590 0.31872 -0.33261
 C304 C 0.65658 0.29854 -0.32022
 C305 C 0.64326 0.31184 -0.28194
 C306 C 0.64907 0.34564 -0.25555
 C307 C 0.66884 0.36515 -0.26748
 C308 C 0.68214 0.35178 -0.30581
 C309 C 0.63391 0.36165 -0.21779
 C310 C 0.63005 0.40216 -0.21493
 C311 C 0.61449 0.41712 -0.18217
 C312 C 0.60258 0.39189 -0.15174
 C313 C 0.60667 0.35165 -0.15339
 C314 C 0.62225 0.33659 -0.18615
 C315 C 0.58519 0.40727 -0.12146
 C316 C 0.57022 0.42107 -0.09804
 H317 H 0.65151 0.27307 -0.34095
 H318 H 0.62800 0.29649 -0.27418
 H319 H 0.67390 0.39096 -0.24749
 H320 H 0.69705 0.36766 -0.31514
 H321 H 0.63847 0.42218 -0.23926
 H322 H 0.61133 0.44829 -0.18148
 H323 H 0.59750 0.33185 -0.13006
 H324 H 0.62504 0.30534 -0.18709
 C325 C 0.19727 0.79817 -0.41291
 C326 C 0.18725 0.80778 -0.37676
 C327 C 0.17461 0.81979 -0.33480
 C328 C 0.15531 0.79959 -0.32225
 C329 C 0.14201 0.81296 -0.28397
 C330 C 0.14782 0.84684 -0.25773
 C331 C 0.16754 0.86640 -0.26987
 C332 C 0.18083 0.85297 -0.30820
 C333 C 0.13271 0.86281 -0.21983
 C334 C 0.12881 0.90330 -0.21692
 C335 C 0.11332 0.91820 -0.18392
 C336 C 0.10154 0.89294 -0.15331
 C337 C 0.10567 0.85271 -0.15501
 C338 C 0.12118 0.83771 -0.18801
 C339 C 0.08424 0.90826 -0.12271
 C340 C 0.06935 0.92199 -0.09900
 H341 H 0.15026 0.77403 -0.34282
 H342 H 0.12678 0.79756 -0.27607
 H343 H 0.17259 0.89229 -0.25002
 H344 H 0.19572 0.86887 -0.31766
 H345 H 0.13713 0.92335 -0.24136
 H346 H 0.11013 0.94937 -0.18318
 H347 H 0.09662 0.83288 -0.13154
 H348 H 0.12400 0.80647 -0.18897
 C349 C 0.30121 0.69582 -0.41200
 C350 C 0.31152 0.68604 -0.37649
 C351 C 0.32462 0.67377 -0.33557
 C352 C 0.34364 0.69472 -0.32303
 C353 C 0.35752 0.68106 -0.28614
 C354 C 0.35258 0.64611 -0.26134
 C355 C 0.33312 0.62576 -0.27341
 C356 C 0.31925 0.63950 -0.31034
 C357 C 0.36828 0.63003 -0.22497
 C358 C 0.37300 0.58975 -0.22418
 C359 C 0.38891 0.57489 -0.19237
 C360 C 0.40030 0.60001 -0.16089
 C361 C 0.39541 0.63999 -0.16060
 C362 C 0.37949 0.65493 -0.19240
 C363 C 0.41773 0.58494 -0.13070
 C364 C 0.43263 0.57192 -0.10661
 H365 H 0.34805 0.72112 -0.34260
 H366 H 0.37252 0.69710 -0.27824
 H367 H 0.32873 0.59903 -0.25459
 H368 H 0.30459 0.62299 -0.31985
 H369 H 0.36491 0.56989 -0.24925
 H370 H 0.39266 0.54391 -0.19306
 H371 H 0.40413 0.65969 -0.13636
 H372 H 0.37604 0.68598 -0.19174
 C373 C -0.19892 1.19345 -0.41375
 C374 C -0.18874 1.18345 -0.37813
 C375 C -0.17580 1.17110 -0.33699
 C376 C -0.18067 1.13591 -0.31328
 C377 C -0.16696 1.12234 -0.27596
 C378 C -0.14815 1.14379 -0.26197
 C379 C -0.14371 1.17959 -0.28529
 C380 C -0.15743 1.19308 -0.32257
 C381 C -0.13257 1.12807 -0.22509
 C382 C -0.12236 1.15304 -0.19104
 C383 C -0.10652 1.13858 -0.15871
 C384 C -0.10072 1.09899 -0.15992
 C385 C -0.11114 1.07376 -0.19288
 C386 C -0.12697 1.08815 -0.22523
 C387 C -0.08329 1.08453 -0.12926
 C388 C -0.06836 1.07192 -0.10494
 H389 H -0.19483 1.11861 -0.32424
 H390 H -0.17097 1.09492 -0.25833
 H391 H -0.12920 1.19651 -0.27592
 H392 H -0.15341 1.22021 -0.34094
 H393 H -0.12652 1.18381 -0.18964
 H394 H -0.09855 1.15836 -0.13333
 H395 H -0.10668 1.04310 -0.19430
 H396 H -0.13427 1.06826 -0.25142
 C397 C 0.69741 0.70095 -0.41464
 C398 C 0.68749 0.69117 -0.37844
 C399 C 0.67500 0.67901 -0.33636
 C400 C 0.65576 0.69913 -0.32332
 C401 C 0.64262 0.68568 -0.28485
 C402 C 0.64853 0.65181 -0.25890
 C403 C 0.66820 0.63231 -0.27155
 C404 C 0.68133 0.64583 -0.31007
 C405 C 0.63358 0.63577 -0.22077
 C406 C 0.62967 0.59527 -0.21799
 C407 C 0.61427 0.58032 -0.18484
 C408 C 0.60261 0.60555 -0.15392
 C409 C 0.60677 0.64578 -0.15548
 C410 C 0.62218 0.66082 -0.18863
 C411 C 0.58532 0.59024 -0.12327
 C412 C 0.57040 0.57662 -0.09955
 H413 H 0.65064 0.72470 -0.34364
 H414 H 0.62743 0.70102 -0.27655
 H415 H 0.67334 0.60643 -0.25192
 H416 H 0.69618 0.63000 -0.31990
 H417 H 0.63790 0.57525 -0.24267
 H418 H 0.61105 0.54915 -0.18422
 H419 H 0.59779 0.66558 -0.13179
 H420 H 0.62502 0.69207 -0.18948
 C421 C 0.19718 1.20116 -0.41345
 C422 C 0.18719 1.19150 -0.37732
 C423 C 0.17459 1.17948 -0.33535
 C424 C 0.15535 1.19971 -0.32259
 C425 C 0.14209 1.18637 -0.28425
 C426 C 0.14789 1.15250 -0.25818
 C427 C 0.16757 1.13291 -0.27053
 C428 C 0.18081 1.14631 -0.30891
 C429 C 0.13281 1.13656 -0.22024
 C430 C 0.12883 1.09608 -0.21750
 C431 C 0.11334 1.08122 -0.18450
 C432 C 0.10165 1.10651 -0.15372
 C433 C 0.10587 1.14673 -0.15525
 C434 C 0.12138 1.16169 -0.18825
 C435 C 0.08434 1.09125 -0.12313
 C436 C 0.06943 1.07760 -0.09940
 H437 H 0.15031 1.22527 -0.34303
 H438 H 0.12690 1.20179 -0.27618
 H439 H 0.17261 1.10703 -0.25079
 H440 H 0.19566 1.13041 -0.31853
 H441 H 0.13709 1.07602 -0.24207
 H442 H 0.11008 1.05006 -0.18389
 H443 H 0.09687 1.16658 -0.13165
 H444 H 0.12427 1.19292 -0.18909
 C445 C 0.30157 0.30433 -0.41421
 C446 C 0.31189 0.31391 -0.37856
 C447 C 0.32499 0.32590 -0.33743
 C448 C 0.31926 0.35932 -0.31074
 C449 C 0.33305 0.37280 -0.27343
 C450 C 0.35279 0.35302 -0.26242
 C451 C 0.35812 0.31893 -0.28873
 C452 C 0.34432 0.30553 -0.32600
 C453 C 0.36836 0.36885 -0.22549
 C454 C 0.37995 0.34362 -0.19413
 C455 C 0.39577 0.35841 -0.16188
 C456 C 0.40018 0.39856 -0.16047
 C457 C 0.38839 0.42399 -0.19070
 C458 C 0.37257 0.40928 -0.22296
 C459 C 0.41757 0.41356 -0.13001
 C460 C 0.43246 0.42656 -0.10579
 H461 H 0.30435 0.37537 -0.31938
 H462 H 0.32837 0.39886 -0.25346
 H463 H 0.37335 0.30337 -0.28169
 H464 H 0.34900 0.27981 -0.34668
 H465 H 0.37688 0.31243 -0.19480
 H466 H 0.40481 0.33847 -0.13864
 H467 H 0.39177 0.45511 -0.19010
 H468 H 0.36419 0.42942 -0.24706
 C469 C -0.19917 0.80490 -0.41276
 C470 C -0.18899 0.81475 -0.37704
 C471 C -0.17607 0.82708 -0.33579
 C472 C -0.18100 0.86218 -0.31183
 C473 C -0.16727 0.87584 -0.27452
 C474 C -0.14840 0.85457 -0.26078
 C475 C -0.14392 0.81883 -0.28430
 C476 C -0.15766 0.80524 -0.32158
 C477 C -0.13278 0.87048 -0.22401
 C478 C -0.12245 0.84562 -0.19014
 C479 C -0.10656 0.86028 -0.15794
 C480 C -0.10084 0.89991 -0.15911
 C481 C -0.11138 0.92502 -0.19188
 C482 C -0.12725 0.91045 -0.22409
 C483 C -0.08338 0.91458 -0.12861
 C484 C -0.06842 0.92737 -0.10442
 H485 H -0.19519 0.87936 -0.32263
 H486 H -0.17130 0.90321 -0.25672
 H487 H -0.12936 0.80206 -0.27511
 H488 H -0.15360 0.77819 -0.34014
 H489 H -0.12654 0.81482 -0.18879
 H490 H -0.09849 0.84059 -0.13271
 H491 H -0.10698 0.95572 -0.19327
 H492 H -0.13465 0.93024 -0.25015
 C493 C 0.30094 0.69573 0.41100
 C494 C 0.31112 0.68592 0.37518
 C495 C 0.32406 0.67363 0.33382
 C496 C 0.34281 0.69496 0.32025
 C497 C 0.35655 0.68135 0.28286
 C498 C 0.35172 0.64608 0.25858
 C499 C 0.33252 0.62533 0.27169
 C500 C 0.31880 0.63901 0.30912
 C501 C 0.36730 0.63009 0.22167
 C502 C 0.37235 0.58993 0.22105
 C503 C 0.38821 0.57522 0.18878
 C504 C 0.39921 0.60036 0.15665
 C505 C 0.39397 0.64020 0.15617
 C506 C 0.37810 0.65499 0.18843
 C507 C 0.41671 0.58552 0.12625
 C508 C 0.43172 0.57261 0.10221
 H509 H 0.34713 0.72163 0.33940
 H510 H 0.37136 0.69771 0.27417
 H511 H 0.32822 0.59833 0.25331
 H512 H 0.30435 0.62221 0.31942
 H513 H 0.36459 0.57009 0.24663
 H514 H 0.39224 0.54436 0.18967
 H515 H 0.40241 0.65992 0.13146
 H516 H 0.37440 0.68594 0.18763
 C517 C -0.19908 1.19516 0.41380
 C518 C -0.18899 1.18557 0.37775
 C519 C -0.17614 1.17347 0.33619
 C520 C -0.15739 1.19483 0.32264
 C521 C -0.14369 1.18130 0.28516
 C522 C -0.14853 1.14608 0.26078
 C523 C -0.16774 1.12532 0.27384
 C524 C -0.18143 1.13893 0.31136
 C525 C -0.13295 1.13011 0.22387
 C526 C -0.12790 1.08995 0.22324
 C527 C -0.11203 1.07525 0.19099
 C528 C -0.10102 1.10041 0.15890
 C529 C -0.10626 1.14024 0.15842
 C530 C -0.12214 1.15502 0.19066
 C531 C -0.08354 1.08556 0.12846
 C532 C -0.06855 1.07265 0.10432
 H533 H -0.15304 1.22143 0.34189
 H534 H -0.12887 1.19766 0.27649
 H535 H -0.17205 1.09837 0.25539
 H536 H -0.19588 1.12211 0.32166
 H537 H -0.13567 1.07009 0.24879
 H538 H -0.10801 1.04439 0.19186
 H539 H -0.09781 1.15997 0.13373
 H540 H -0.12585 1.18597 0.18988
 C541 C 0.69834 0.30159 0.41428
 C542 C 0.68844 0.31298 0.37893
 C543 C 0.67587 0.32755 0.33835
 C544 C 0.66756 0.30190 0.30300
 C545 C 0.65373 0.31591 0.26608
 C546 C 0.64798 0.35573 0.26431
 C547 C 0.65696 0.38140 0.29921
 C548 C 0.67077 0.36737 0.33597
 C549 C 0.63176 0.37021 0.22800
 C550 C 0.61537 0.39703 0.24229
 C551 C 0.59973 0.41021 0.20884
 C552 C 0.60016 0.39683 0.16060
 C553 C 0.61643 0.37023 0.14580
 C554 C 0.63214 0.35692 0.17934
 C555 C 0.58359 0.41043 0.12713
 C556 C 0.56911 0.42310 0.10153
 H557 H 0.67132 0.27098 0.30466
 H558 H 0.64691 0.29538 0.24003
 H559 H 0.65311 0.41230 0.29838
 H560 H 0.67710 0.38748 0.36317
 H561 H 0.61437 0.40726 0.27964
 H562 H 0.58715 0.43065 0.22075
 H563 H 0.61693 0.35974 0.10850
 H564 H 0.64467 0.33652 0.16719
 C565 C 0.19660 0.79878 0.41214
 C566 C 0.18657 0.80842 0.37618
 C567 C 0.17397 0.82044 0.33436
 C568 C 0.18025 0.85356 0.30779
 C569 C 0.16704 0.86696 0.26952
 C570 C 0.14731 0.84742 0.25742
 C571 C 0.14144 0.81360 0.28363
 C572 C 0.15467 0.80027 0.32186
 C573 C 0.13228 0.86335 0.21958
 C574 C 0.12080 0.83822 0.18774
 C575 C 0.10535 0.85319 0.15482
 C576 C 0.10123 0.89342 0.15321
 C577 C 0.11297 0.91872 0.18385
 C578 C 0.12840 0.90384 0.21677
 C579 C 0.08398 0.90871 0.12268
 C580 C 0.06913 0.92239 0.09899
 H581 H 0.19515 0.86942 0.31720
 H582 H 0.17214 0.89279 0.24968
 H583 H 0.12621 0.79823 0.27575
 H584 H 0.14958 0.77475 0.34240
 H585 H 0.12361 0.80698 0.18863
 H586 H 0.09632 0.83334 0.13132
 H587 H 0.10978 0.94989 0.18318
 H588 H 0.13669 0.92391 0.24123
   
