data_POSCAR
  _audit_creation_date              2014-09-24
  _audit_creation_method            'ToBaCCo'
  _symmetry_space_group_name_H-M    'P1'
  _symmetry_Int_Tables_number       1
  _symmetry_cell_setting            triclinic
  loop_
  _symmetry_equiv_pos_as_xyz
 x,y,z
_cell_length_a 15.8881
_cell_length_b 14.5526
_cell_length_c 14.5336
_cell_angle_alpha 90.029800
_cell_angle_beta 90.027500
_cell_angle_gamma 90.035600
loop_
  _atom_site_label
  _atom_site_type_symbol
  _atom_site_fract_x
  _atom_site_fract_y
  _atom_site_fract_z
C1 C 0.31525 0.41600 0.18109
 H2 H 0.27074 0.44867 0.22665
 C3 C 0.36991 0.47014 0.12902
 H4 H 0.36618 0.54432 0.13358
 C5 C 0.37603 0.28017 0.12032
 H6 H 0.37816 0.20589 0.11792
 C7 C 0.43177 0.33175 0.06706
 H8 H 0.47575 0.29658 0.02262
 N9 N 0.31872 0.32275 0.17517
 C10 C 0.18259 0.31662 0.41630
 H11 H 0.22727 0.27146 0.44921
 C12 C 0.12943 0.37062 0.47029
 H13 H 0.13416 0.36751 0.54458
 C14 C 0.12038 0.37511 0.28009
 H15 H 0.11736 0.37616 0.20572
 C16 C 0.06608 0.43023 0.33152
 H17 H 0.02197 0.47431 0.29613
 Zn18 Zn 0.24816 0.24751 0.24784
 N19 N 0.17772 0.32050 0.32291
 C20 C 0.37694 0.21735 0.37491
 N21 N 0.31944 0.17359 0.32105
 C22 C 0.31561 0.08027 0.31743
 C23 C 0.37000 0.02733 0.37101
 C24 C 0.43244 0.16698 0.42964
 C25 C 0.18106 0.17842 0.07952
 C26 C 0.12687 0.12507 0.02582
 C27 C 0.06530 0.06437 0.16503
 C28 C 0.12054 0.11898 0.21605
 N29 N 0.17741 0.17393 0.17292
 H30 H 0.37926 0.29166 0.37556
 H31 H 0.27086 0.04664 0.27276
 H32 H 0.36606 -0.04693 0.36820
 H33 H 0.47670 0.20299 0.47318
 H34 H 0.22548 0.22375 0.04635
 H35 H 0.13104 0.12907 -0.04849
 H36 H 0.02218 0.01993 0.20142
 H37 H 0.11849 0.11734 0.29044
 C38 C 0.07012 0.42758 0.42771
 C39 C 0.42918 0.42780 0.07182
 C40 C 0.06745 0.06792 0.06857
 C41 C 0.42936 0.07091 0.42735
 C42 C 0.81857 0.92000 0.17850
 H43 H 0.77399 0.95318 0.22363
 C44 C 0.87283 0.97355 0.12524
 H45 H 0.86857 1.04778 0.12910
 C46 C 0.87944 0.78358 0.11952
 H47 H 0.88160 0.70928 0.11804
 C48 C 0.93481 0.83446 0.06504
 H49 H 0.97816 0.79808 0.02087
 N50 N 0.82238 0.82672 0.17423
 C51 C 0.68467 0.81916 0.41649
 H52 H 0.72925 0.77381 0.44929
 C53 C 0.63002 0.87129 0.47057
 H54 H 0.63381 0.86696 0.54486
 C55 C 0.62373 0.87938 0.28034
 H56 H 0.62152 0.88153 0.20597
 C57 C 0.56801 0.93269 0.33186
 H58 H 0.52396 0.97692 0.29655
 Zn59 Zn 0.75163 0.75205 0.24787
 N60 N 0.68111 0.82478 0.32310
 C61 C 0.87945 0.71964 0.37568
 N62 N 0.82205 0.67700 0.32086
 C63 C 0.81724 0.58374 0.31656
 C64 C 0.87052 0.52967 0.37032
 C65 C 0.93388 0.66813 0.43058
 C66 C 0.68426 0.68227 0.08043
 C67 C 0.62990 0.62863 0.02741
 C68 C 0.56733 0.57047 0.16722
 C69 C 0.62279 0.62526 0.21767
 N70 N 0.68034 0.67892 0.17385
 H71 H 0.88245 0.79390 0.37702
 H72 H 0.77253 0.55097 0.27120
 H73 H 0.86583 0.45549 0.36690
 H74 H 0.97801 0.70338 0.47486
 H75 H 0.72908 0.72676 0.04678
 H76 H 0.63390 0.63122 -0.04694
 H77 H 0.52303 0.52709 0.20326
 H78 H 0.62045 0.62481 0.29207
 C79 C 0.57068 0.92824 0.42805
 C80 C 0.93253 0.93080 0.06844
 C81 C 0.57050 0.57249 0.07104
 C82 C 0.92990 0.57206 0.42749
 C83 C 0.81724 0.41663 0.68309
 H84 H 0.77258 0.44949 0.72834
 C85 C 0.87047 0.47056 0.62910
 H86 H 0.86580 0.54475 0.63227
 C87 C 0.87943 0.28061 0.62448
 H88 H 0.88245 0.20634 0.62343
 C89 C 0.93378 0.33198 0.56935
 H90 H 0.97789 0.29662 0.52522
 N91 N 0.82208 0.32336 0.67915
 C92 C 0.68426 0.31775 0.91973
 H93 H 0.72899 0.27320 0.95341
 C94 C 0.62982 0.37118 0.97273
 H95 H 0.63371 0.36840 1.04709
 C96 C 0.62300 0.37500 0.78246
 H97 H 0.62073 0.37561 0.70806
 C98 C 0.56745 0.42958 0.83289
 H99 H 0.52320 0.47299 0.79683
 Zn100 Zn 0.75183 0.24833 0.75236
 N101 N 0.68050 0.32135 0.82630
 C102 C 0.87958 0.21849 0.88058
 N103 N 0.82289 0.17418 0.82621
 C104 C 0.81902 0.08079 0.82194
 C105 C 0.87286 0.02632 0.87481
 C106 C 0.93530 0.16909 0.93552
 C107 C 0.68475 0.18106 0.58381
 C108 C 0.63003 0.12896 0.52967
 C109 C 0.56813 0.06736 0.66833
 C110 C 0.62393 0.12066 0.71990
 N111 N 0.68131 0.17534 0.67719
 H112 H 0.88098 0.29282 0.88144
 H113 H 0.77426 0.04790 0.77672
 H114 H 0.86788 -0.04782 0.87039
 H115 H 0.97841 0.20567 0.97990
 H116 H 0.72928 0.22652 0.55102
 H117 H 0.63375 0.13337 0.45539
 H118 H 0.52410 0.02305 0.70359
 H119 H 0.62177 0.11847 0.79427
 C120 C 0.57049 0.42733 0.92908
 C121 C 0.92980 0.42804 0.57209
 C122 C 0.57071 0.07191 0.57214
 C123 C 0.93298 0.06772 0.93170
 C124 C 0.31574 0.91951 0.68256
 H125 H 0.27095 0.95303 0.72718
 C126 C 0.37006 0.97256 0.62901
 H127 H 0.36607 1.04681 0.63178
 C128 C 0.37717 0.78255 0.62515
 H129 H 0.37953 0.70825 0.62451
 C130 C 0.43259 0.83303 0.57044
 H131 H 0.47685 0.79710 0.52693
 N132 N 0.31965 0.82620 0.67897
 C133 C 0.18169 0.82110 0.92044
 H134 H 0.22633 0.77603 0.95357
 C135 C 0.12746 0.87419 0.97419
 H136 H 0.13181 0.87028 1.04850
 C137 C 0.12064 0.88009 0.78397
 H138 H 0.11839 0.88164 0.70958
 C139 C 0.06529 0.93438 0.83504
 H140 H 0.02186 0.97846 0.79869
 Zn141 Zn 0.24847 0.75212 0.75205
 N142 N 0.17779 0.82547 0.82704
 C143 C 0.37639 0.71948 0.87953
 N144 N 0.31902 0.67688 0.82465
 C145 C 0.31543 0.58363 0.81873
 C146 C 0.37001 0.52951 0.87088
 C147 C 0.43203 0.66792 0.93288
 C148 C 0.18284 0.68317 0.58348
 C149 C 0.12960 0.62923 0.52940
 C150 C 0.06626 0.56944 0.66807
 C151 C 0.12063 0.62451 0.71960
 N152 N 0.17799 0.67918 0.67686
 H153 H 0.37861 0.79375 0.88190
 H154 H 0.27087 0.55096 0.77314
 H155 H 0.36618 0.45533 0.86634
 H156 H 0.47604 0.70310 0.97737
 H157 H 0.22754 0.72839 0.55065
 H158 H 0.13429 0.63243 0.45512
 H159 H 0.02213 0.52531 0.70340
 H160 H 0.11764 0.62338 0.79396
 C161 C 0.06769 0.93091 0.93150
 C162 C 0.42943 0.92909 0.57270
 C163 C 0.07026 0.57222 0.57189
 C164 C 0.42930 0.57186 0.92816
 Si165 Si 0.00016 -0.00082 0.00007
 Si166 Si 0.00003 0.49996 0.49975
 Si167 Si 0.50010 0.00006 0.50005
 Si168 Si 0.49976 0.49985 0.00005
   
