data_POSCAR
  _audit_creation_date              2014-09-24
  _audit_creation_method            'ToBaCCo'
  _symmetry_space_group_name_H-M    'P1'
  _symmetry_Int_Tables_number       1
  _symmetry_cell_setting            triclinic
  loop_
  _symmetry_equiv_pos_as_xyz
 x,y,z
_cell_length_a 48.5142
_cell_length_b 48.4520
_cell_length_c 45.0795
_cell_angle_alpha 90.088500
_cell_angle_beta 89.956300
_cell_angle_gamma 119.906100
loop_
  _atom_site_label
  _atom_site_type_symbol
  _atom_site_fract_x
  _atom_site_fract_y
  _atom_site_fract_z
O1 O 0.00249 0.52567 -0.03930
 O2 O 0.04025 0.49105 0.00669
 O3 O 0.00131 0.47183 -0.03881
 O4 O 0.04147 0.54493 0.00613
 O5 O 0.00040 0.52548 0.03676
 O6 O -0.03977 0.45237 -0.00820
 O7 O -0.00084 0.47158 0.03731
 O8 O -0.03858 0.50622 -0.00867
 Cu9 Cu 0.02553 0.51033 -0.01941
 Cu10 Cu -0.02384 0.48694 0.01740
 C11 C -0.02471 0.52120 -0.03209
 C12 C 0.02637 0.47606 0.03011
 C13 C -0.02631 0.45007 -0.03145
 C14 C 0.02799 0.54726 0.02935
 O15 O 0.54634 0.50519 -0.00669
 O16 O 0.47356 0.47185 0.03867
 O17 O 0.49319 0.45199 -0.00655
 O18 O 0.52677 0.52498 0.03858
 O19 O 0.50624 0.54543 0.00776
 O20 O 0.47275 0.47243 -0.03746
 O21 O 0.45309 0.49225 0.00774
 O22 O 0.52583 0.52566 -0.03750
 Cu23 Cu 0.51203 0.48643 0.01912
 Cu24 Cu 0.48740 0.51100 -0.01798
 C25 C 0.54806 0.52049 -0.03009
 C26 C 0.45134 0.47703 0.03119
 C27 C 0.47792 0.45018 -0.02998
 C28 C 0.52159 0.54723 0.03115
 O29 O 0.52536 0.99807 -0.03966
 O30 O 0.45264 0.95963 0.00563
 O31 O 0.47245 0.99868 -0.03975
 O32 O 0.50559 0.95914 0.00580
 O33 O 0.52636 1.00034 0.03641
 O34 O 0.49312 1.03978 -0.00903
 O35 O 0.47335 1.00073 0.03636
 O36 O 0.54610 1.03928 -0.00906
 Cu37 Cu 0.48692 0.97473 -0.02010
 Cu38 Cu 0.51182 1.02419 0.01676
 C39 C 0.54772 1.02544 -0.03236
 C40 C 0.45102 0.97336 0.02899
 C41 C 0.47777 1.02620 -0.03241
 C42 C 0.52099 0.97280 0.02915
 O43 O 1.04129 0.54730 0.49237
 O44 O 1.00228 0.47478 0.53795
 O45 O 1.04124 0.49400 0.49249
 O46 O 1.00228 0.52805 0.53779
 O47 O 0.96125 0.50749 0.50709
 O48 O 1.00014 0.47336 0.46189
 O49 O 0.96116 0.45416 0.50735
 O50 O 1.00027 0.52671 0.46166
 Cu51 Cu 1.02592 0.51311 0.51824
 Cu52 Cu 0.97656 0.48835 0.48140
 C53 C 1.02767 0.54896 0.46899
 C54 C 0.97485 0.45254 0.53071
 C55 C 1.02755 0.47851 0.46919
 C56 C 0.97489 0.52293 0.53041
 O57 O 0.45279 0.49431 0.49442
 O58 O 0.52543 0.52829 0.53982
 O59 O 0.50579 0.54760 0.49434
 O60 O 0.47244 0.47491 0.53983
 O61 O 0.49309 0.45441 0.50913
 O62 O 0.52652 0.52708 0.46374
 O63 O 0.54614 0.50775 0.50922
 O64 O 0.47347 0.47383 0.46371
 Cu65 Cu 0.48703 0.51334 0.52021
 Cu66 Cu 0.51189 0.48869 0.48337
 C67 C 0.45116 0.47896 0.47105
 C68 C 0.54776 0.52319 0.53253
 C69 C 0.52119 0.54929 0.47101
 C70 C 0.47770 0.45268 0.53248
 O71 O 0.54638 0.04067 0.50647
 O72 O 0.47359 0.00148 0.46111
 O73 O 0.49320 0.04076 0.50644
 O74 O 0.52682 0.00152 0.46104
 O75 O 0.50633 -0.03953 0.49171
 O76 O 0.47280 -0.00021 0.53722
 O77 O 0.45316 -0.03948 0.49190
 O78 O 0.52592 -0.00040 0.53713
 Cu79 Cu 0.51206 0.02525 0.48067
 Cu80 Cu 0.48749 -0.02404 0.51760
 C81 C 0.54812 0.02702 0.52980
 C82 C 0.45139 -0.02592 0.46853
 C83 C 0.47792 0.02720 0.52983
 C84 C 0.52164 -0.02593 0.46834
 C85 C 0.13710 0.44565 0.26589
 C86 C 0.13703 0.44541 0.23547
 C87 C 0.16043 0.43864 0.22671
 N88 N 0.17446 0.43434 0.25077
 C89 C 0.16055 0.43901 0.27477
 C90 C 0.16753 0.43530 0.19697
 C91 C 0.19295 0.43069 0.18830
 C92 C 0.19709 0.42208 0.15999
 C93 C 0.22568 0.42252 0.16003
 C94 C 0.23825 0.43143 0.18836
 N95 N 0.21819 0.43645 0.20537
 C96 C 0.26860 0.43704 0.19706
 C97 C 0.27906 0.44091 0.22679
 C98 C 0.30962 0.44917 0.23559
 C99 C 0.30965 0.44932 0.26604
 C100 C 0.27911 0.44116 0.27484
 N101 N 0.26042 0.43569 0.25082
 C102 C 0.26872 0.43760 0.30458
 C103 C 0.23842 0.43215 0.31329
 C104 C 0.22595 0.42363 0.34168
 C105 C 0.19741 0.42328 0.34169
 C106 C 0.19318 0.43155 0.31329
 N107 N 0.21833 0.43702 0.29621
 C108 C 0.16778 0.43612 0.30455
 H109 H 0.12147 0.44995 0.27984
 H110 H 0.12132 0.44950 0.22145
 H111 H 0.22345 0.44747 0.27540
 H112 H 0.18139 0.41651 0.14113
 H113 H 0.23625 0.41738 0.14120
 H114 H 0.32977 0.45445 0.22156
 H115 H 0.32983 0.45474 0.28007
 H116 H 0.18179 0.41800 0.36058
 H117 H 0.22336 0.44716 0.22608
 H118 H 0.23656 0.41870 0.36057
 C119 C 0.55108 0.86186 0.26493
 C120 C 0.55102 0.86166 0.23451
 C121 C 0.55773 0.83817 0.22581
 N122 N 0.56225 0.82434 0.24992
 C123 C 0.55781 0.83847 0.27388
 C124 C 0.56081 0.83084 0.19607
 C125 C 0.56556 0.80546 0.18742
 C126 C 0.57379 0.80111 0.15901
 C127 C 0.57386 0.77275 0.15916
 C128 C 0.56567 0.76051 0.18765
 N129 N 0.56052 0.78054 0.20464
 C130 C 0.56103 0.73054 0.19658
 C131 C 0.55789 0.72044 0.22640
 C132 C 0.55120 0.69035 0.23534
 C133 C 0.55115 0.69050 0.26577
 C134 C 0.55782 0.72068 0.27447
 N135 N 0.56232 0.73901 0.25036
 C136 C 0.56089 0.73107 0.30421
 C137 C 0.56561 0.76118 0.31286
 C138 C 0.57382 0.77375 0.34126
 C139 C 0.57386 0.80216 0.34111
 C140 C 0.56565 0.80621 0.31262
 N141 N 0.56054 0.78106 0.29563
 C142 C 0.56096 0.83152 0.30370
 H143 H 0.54690 0.87763 0.27883
 H144 H 0.54680 0.87725 0.22045
 H145 H 0.55030 0.77583 0.27474
 H146 H 0.57880 0.81655 0.14003
 H147 H 0.57893 0.76215 0.14031
 H148 H 0.54705 0.67041 0.22145
 H149 H 0.54696 0.67069 0.27982
 H150 H 0.57891 0.81782 0.35997
 H151 H 0.55027 0.77553 0.22553
 H152 H 0.57885 0.76333 0.36025
 C153 C 0.14021 0.69003 0.23363
 C154 C 0.14015 0.69010 0.26408
 C155 C 0.16238 0.72072 0.27287
 N156 N 0.17568 0.73935 0.24884
 C157 C 0.16246 0.72060 0.22482
 C158 C 0.16902 0.73126 0.30259
 C159 C 0.19380 0.76163 0.31122
 C160 C 0.19752 0.77438 0.33950
 C161 C 0.22575 0.80285 0.33951
 C162 C 0.23850 0.80672 0.31125
 N163 N 0.21892 0.78146 0.29422
 C164 C 0.26867 0.83179 0.30263
 C165 C 0.27909 0.83860 0.27291
 C166 C 0.30952 0.86121 0.26412
 C167 C 0.30951 0.86119 0.23367
 C168 C 0.27909 0.83856 0.22487
 N169 N 0.26049 0.82509 0.24889
 C170 C 0.26868 0.83168 0.19515
 C171 C 0.23855 0.80653 0.18649
 C172 C 0.22586 0.80252 0.15820
 C173 C 0.19769 0.77400 0.15818
 C174 C 0.19393 0.76136 0.18647
 N175 N 0.21898 0.78130 0.20351
 C176 C 0.16919 0.73100 0.19510
 H177 H 0.12547 0.66981 0.21960
 H178 H 0.12537 0.66995 0.27813
 H179 H 0.22445 0.77600 0.22418
 H180 H 0.18181 0.76399 0.35832
 H181 H 0.23599 0.81862 0.35834
 H182 H 0.32959 0.87624 0.27816
 H183 H 0.32959 0.87620 0.21964
 H184 H 0.18204 0.76350 0.13933
 H185 H 0.22442 0.77606 0.27358
 H186 H 0.23611 0.81823 0.13936
 C187 C 0.86861 0.56264 0.76428
 C188 C 0.86919 0.56426 0.73392
 C189 C 0.84257 0.56591 0.72539
 N190 N 0.82595 0.56551 0.74960
 C191 C 0.84168 0.56340 0.77342
 C192 C 0.83353 0.56621 0.69562
 C193 C 0.80564 0.56642 0.68660
 C194 C 0.79490 0.56217 0.65751
 C195 C 0.76665 0.56225 0.65782
 C196 C 0.76068 0.56653 0.68709
 N197 N 0.78498 0.56981 0.70438
 C198 C 0.73284 0.56649 0.69672
 C199 C 0.72400 0.56619 0.72667
 C200 C 0.69604 0.56485 0.73579
 C201 C 0.69540 0.56302 0.76614
 C202 C 0.72305 0.56340 0.77469
 N203 N 0.74047 0.56545 0.75052
 C204 C 0.73173 0.56234 0.80443
 C205 C 0.76038 0.56376 0.81340
 C206 C 0.77077 0.56740 0.84257
 C207 C 0.79914 0.56751 0.84226
 C208 C 0.80544 0.56392 0.81291
 N209 N 0.78149 0.56127 0.79553
 C210 C 0.83257 0.56259 0.80335
 H211 H 0.88608 0.56110 0.77802
 H212 H 0.88703 0.56389 0.71975
 H213 H 0.77831 0.55524 0.77327
 H214 H 0.80590 0.55868 0.63806
 H215 H 0.75186 0.55884 0.63864
 H216 H 0.67779 0.56490 0.72204
 H217 H 0.67672 0.56166 0.78026
 H218 H 0.81355 0.57010 0.86152
 H219 H 0.78815 0.57578 0.72666
 H220 H 0.75921 0.56990 0.86211
 C221 C 0.44853 0.13930 0.73470
 C222 C 0.44854 0.13910 0.76515
 C223 C 0.44026 0.16138 0.77420
 N224 N 0.43486 0.17486 0.75033
 C225 C 0.44024 0.16169 0.72616
 C226 C 0.43650 0.16789 0.80400
 C227 C 0.43111 0.19278 0.81288
 C228 C 0.42219 0.19643 0.84122
 C229 C 0.42220 0.22485 0.84149
 C230 C 0.43114 0.23779 0.81330
 N231 N 0.43659 0.21812 0.79609
 C232 C 0.43655 0.26818 0.80493
 C233 C 0.44027 0.27883 0.77529
 C234 C 0.44853 0.30949 0.76673
 C235 C 0.44846 0.30966 0.73628
 C236 C 0.44018 0.27911 0.72725
 N237 N 0.43484 0.26027 0.75113
 C238 C 0.43635 0.26880 0.69746
 C239 C 0.43097 0.23853 0.68858
 C240 C 0.42201 0.22596 0.66026
 C241 C 0.42204 0.19756 0.65999
 C242 C 0.43101 0.19357 0.68816
 N243 N 0.43647 0.21868 0.70537
 C244 C 0.43644 0.16859 0.69653
 H245 H 0.45392 0.12458 0.72050
 H246 H 0.45395 0.12420 0.77902
 H247 H 0.44738 0.22399 0.72599
 H248 H 0.41677 0.18054 0.85991
 H249 H 0.41681 0.23510 0.86042
 H250 H 0.45395 0.32961 0.78093
 H251 H 0.45383 0.32995 0.72240
 H252 H 0.41664 0.18192 0.64105
 H253 H 0.44749 0.22370 0.77546
 H254 H 0.41658 0.23643 0.64156
 C255 C 0.69513 0.13220 0.73382
 C256 C 0.69579 0.13113 0.76417
 C257 C 0.72370 0.15783 0.77322
 N258 N 0.74010 0.17494 0.74932
 C259 C 0.72270 0.15946 0.72519
 C260 C 0.73255 0.16649 0.80315
 C261 C 0.76033 0.19436 0.81270
 C262 C 0.76632 0.20468 0.84195
 C263 C 0.79449 0.23304 0.84218
 C264 C 0.80517 0.23948 0.81306
 N265 N 0.78455 0.21537 0.79535
 C266 C 0.83297 0.26758 0.80397
 C267 C 0.84193 0.27686 0.77418
 C268 C 0.86844 0.30514 0.76557
 C269 C 0.86782 0.30606 0.73520
 C270 C 0.84098 0.27830 0.72614
 N271 N 0.82534 0.26053 0.75001
 C272 C 0.83188 0.26983 0.69622
 C273 C 0.80484 0.24130 0.68675
 C274 C 0.79856 0.23126 0.65744
 C275 C 0.77028 0.20296 0.65721
 C276 C 0.75991 0.19632 0.68639
 N277 N 0.78094 0.22002 0.70418
 C278 C 0.73135 0.16908 0.69542
 H279 H 0.67648 0.11478 0.71974
 H280 H 0.67761 0.11287 0.77798
 H281 H 0.77774 0.22296 0.72642
 H282 H 0.75159 0.19332 0.86116
 H283 H 0.80549 0.24759 0.86160
 H284 H 0.88623 0.32343 0.77970
 H285 H 0.88521 0.32504 0.72141
 H286 H 0.75877 0.18880 0.63772
 H287 H 0.78769 0.21254 0.77307
 H288 H 0.81294 0.24302 0.63815
 C289 C 0.11251 0.44468 0.13312
 C290 C 0.10468 0.46895 0.13719
 C291 C 0.08595 0.47352 0.11567
 C292 C 0.07541 0.45399 0.09003
 C293 C 0.08317 0.42968 0.08598
 C294 C 0.10175 0.42498 0.10762
 C295 C 0.10923 0.40054 0.10311
 C296 C 0.09869 0.38132 0.07790
 C297 C 0.08055 0.38594 0.05674
 C298 C 0.07280 0.40982 0.06062
 C299 C 0.07823 0.49781 0.12036
 C300 C 0.08872 0.51700 0.14557
 C301 C 0.10729 0.51273 0.16647
 C302 C 0.11526 0.48905 0.16244
 C303 C 0.05725 0.45964 0.06770
 C304 C 0.04272 0.46603 0.04995
 C305 C 0.13175 0.44024 0.15516
 C306 C 0.14789 0.43744 0.17392
 H307 H 0.12326 0.39605 0.11896
 H308 H 0.10463 0.36274 0.07478
 H309 H 0.07242 0.37095 0.03720
 H310 H 0.05861 0.41251 0.04359
 H311 H 0.06400 0.50223 0.10469
 H312 H 0.08254 0.53539 0.14882
 H313 H 0.11556 0.52784 0.18593
 H314 H 0.12983 0.48674 0.17931
 C315 C 0.55174 0.66559 0.13314
 C316 C 0.57136 0.67438 0.10764
 C317 C 0.56685 0.65096 0.08615
 C318 C 0.54281 0.61890 0.09037
 C319 C 0.52338 0.61005 0.11603
 C320 C 0.52774 0.63349 0.13739
 C321 C 0.50773 0.62412 0.16266
 C322 C 0.48436 0.59247 0.16689
 C323 C 0.48031 0.56949 0.14617
 C324 C 0.49940 0.57805 0.12093
 C325 C 0.58664 0.66030 0.06078
 C326 C 0.61026 0.69191 0.05675
 C327 C 0.61470 0.71481 0.07776
 C328 C 0.59554 0.70628 0.10296
 C329 C 0.53741 0.59491 0.06824
 C330 C 0.53126 0.57383 0.05069
 C331 C 0.55604 0.68940 0.15506
 C332 C 0.55880 0.70849 0.17370
 H333 H 0.50987 0.64111 0.17939
 H334 H 0.46931 0.58573 0.18636
 H335 H 0.46216 0.54491 0.14958
 H336 H 0.49515 0.55929 0.10540
 H337 H 0.58409 0.64331 0.04387
 H338 H 0.62521 0.69867 0.03721
 H339 H 0.63309 0.73933 0.07452
 H340 H 0.59990 0.72491 0.11869
 C341 C 0.33258 0.88547 0.13055
 C342 C 0.33072 0.91005 0.11537
 C343 C 0.35396 0.92851 0.09369
 C344 C 0.37887 0.92221 0.08729
 C345 C 0.38053 0.89738 0.10225
 C346 C 0.35736 0.87901 0.12398
 C347 C 0.35964 0.85445 0.13877
 C348 C 0.38399 0.84810 0.13215
 C349 C 0.40654 0.86593 0.11078
 C350 C 0.40503 0.89038 0.09602
 C351 C 0.35170 0.95303 0.07888
 C352 C 0.32714 0.95914 0.08529
 C353 C 0.30440 0.94109 0.10648
 C354 C 0.30605 0.91679 0.12142
 C355 C 0.40323 0.94142 0.06578
 C356 C 0.42446 0.95660 0.04852
 C357 C 0.30928 0.86692 0.15310
 C358 C 0.29050 0.85113 0.17208
 H359 H 0.34264 0.83986 0.15554
 H360 H 0.38536 0.82923 0.14366
 H361 H 0.42539 0.86088 0.10568
 H362 H 0.42324 0.90364 0.07968
 H363 H 0.36883 0.96766 0.06221
 H364 H 0.32575 0.97799 0.07375
 H365 H 0.28537 0.94594 0.11137
 H366 H 0.28781 0.90337 0.13770
 C367 C 0.88725 0.55474 0.63162
 C368 C 0.90999 0.58054 0.61446
 C369 C 0.92839 0.57539 0.59292
 C370 C 0.92389 0.54446 0.58867
 C371 C 0.90096 0.51859 0.60568
 C372 C 0.88264 0.52376 0.62726
 C373 C 0.85998 0.49756 0.64409
 C374 C 0.85543 0.46710 0.63962
 C375 C 0.87320 0.46200 0.61841
 C376 C 0.89582 0.48736 0.60166
 C377 C 0.95102 0.60153 0.57608
 C378 C 0.95536 0.63194 0.58038
 C379 C 0.93738 0.63699 0.60144
 C380 C 0.91491 0.61167 0.61835
 C381 C 0.94294 0.53900 0.56714
 C382 C 0.95806 0.53278 0.54989
 C383 C 0.86865 0.55989 0.65389
 C384 C 0.85288 0.56328 0.67268
 H385 H 0.84552 0.50029 0.66084
 H386 H 0.83797 0.44734 0.65266
 H387 H 0.86948 0.43827 0.61493
 H388 H 0.90911 0.48214 0.58551
 H389 H 0.96554 0.59874 0.55944
 H390 H 0.97278 0.65169 0.56730
 H391 H 0.94084 0.66065 0.60469
 H392 H 0.90147 0.61675 0.63446
 C393 C 0.44689 0.33373 0.63372
 C394 C 0.47734 0.36107 0.63057
 C395 C 0.48232 0.38447 0.60902
 C396 C 0.45676 0.38051 0.59085
 C397 C 0.42637 0.35313 0.59392
 C398 C 0.42142 0.32963 0.61541
 C399 C 0.39085 0.30244 0.61807
 C400 C 0.36585 0.29857 0.60002
 C401 C 0.37068 0.32155 0.57903
 C402 C 0.40056 0.34858 0.57592
 C403 C 0.51305 0.41150 0.60615
 C404 C 0.53811 0.41524 0.62402
 C405 C 0.53318 0.39247 0.64525
 C406 C 0.50320 0.36566 0.64859
 C407 C 0.46201 0.40487 0.56927
 C408 C 0.46806 0.42610 0.55199
 C409 C 0.44198 0.31000 0.65588
 C410 C 0.43886 0.29091 0.67461
 H411 H 0.38596 0.28392 0.63407
 H412 H 0.34260 0.27762 0.60233
 H413 H 0.35118 0.31843 0.56506
 H414 H 0.40320 0.36580 0.55927
 H415 H 0.51813 0.42998 0.59005
 H416 H 0.56149 0.43593 0.62138
 H417 H 0.55269 0.39555 0.65916
 H418 H 0.50059 0.34859 0.66539
 C419 C 0.66638 0.11367 0.63207
 C420 C 0.67560 0.10586 0.60495
 C421 C 0.65219 0.08724 0.58342
 C422 C 0.61972 0.07654 0.58918
 C423 C 0.61046 0.08405 0.61647
 C424 C 0.63386 0.10272 0.63794
 C425 C 0.62403 0.11011 0.66495
 C426 C 0.59200 0.09924 0.67064
 C427 C 0.56910 0.08086 0.64972
 C428 C 0.57808 0.07337 0.62287
 C429 C 0.66196 0.07983 0.55644
 C430 C 0.69398 0.09049 0.55086
 C431 C 0.71688 0.10869 0.57190
 C432 C 0.70793 0.11636 0.59868
 C433 C 0.59571 0.05841 0.56698
 C434 C 0.57466 0.04376 0.54938
 C435 C 0.69020 0.13316 0.65391
 C436 C 0.70930 0.14943 0.67250
 H437 H 0.64093 0.12434 0.68195
 H438 H 0.58492 0.10512 0.69141
 H439 H 0.54425 0.07249 0.65422
 H440 H 0.55935 0.05911 0.60728
 H441 H 0.64499 0.06571 0.53943
 H442 H 0.70106 0.08459 0.53010
 H443 H 0.74171 0.11691 0.56745
 H444 H 0.72658 0.13054 0.61437
 C445 C 0.44726 0.11355 0.86765
 C446 C 0.42185 0.09220 0.88601
 C447 C 0.42686 0.07363 0.90743
 C448 C 0.45727 0.07660 0.91038
 C449 C 0.48276 0.09816 0.89216
 C450 C 0.47771 0.11661 0.87068
 C451 C 0.50352 0.13786 0.85261
 C452 C 0.53350 0.14098 0.85584
 C453 C 0.53851 0.12312 0.87700
 C454 C 0.51351 0.10182 0.89491
 C455 C 0.40111 0.05240 0.92549
 C456 C 0.37123 0.04960 0.92250
 C457 C 0.36633 0.06778 0.90158
 C458 C 0.39127 0.08888 0.88348
 C459 C 0.46260 0.05748 0.93189
 C460 C 0.46873 0.04229 0.94912
 C461 C 0.44226 0.13237 0.84554
 C462 C 0.43908 0.14833 0.82684
 H463 H 0.50085 0.15233 0.83586
 H464 H 0.55298 0.15740 0.84190
 H465 H 0.56190 0.12578 0.87955
 H466 H 0.51863 0.08840 0.91095
 H467 H 0.40381 0.03779 0.94208
 H468 H 0.35178 0.03325 0.93650
 H469 H 0.34308 0.06552 0.89936
 H470 H 0.38633 0.10253 0.86754
 C471 C 0.66660 0.55224 0.86786
 C472 C 0.67572 0.56922 0.89501
 C473 C 0.65224 0.56433 0.91650
 C474 C 0.61980 0.54252 0.91069
 C475 C 0.61065 0.52575 0.88340
 C476 C 0.63412 0.53058 0.86196
 C477 C 0.62440 0.51338 0.83494
 C478 C 0.59241 0.49213 0.82922
 C479 C 0.56945 0.48751 0.85012
 C480 C 0.57832 0.50398 0.87696
 C481 C 0.66191 0.58146 0.94351
 C482 C 0.69389 0.60286 0.94914
 C483 C 0.71686 0.60764 0.92813
 C484 C 0.70801 0.59108 0.90133
 C485 C 0.59572 0.53662 0.93282
 C486 C 0.57463 0.53024 0.95037
 C487 C 0.69048 0.55675 0.84601
 C488 C 0.70963 0.55974 0.82739
 H489 H 0.64136 0.51612 0.81796
 H490 H 0.58542 0.47917 0.80846
 H491 H 0.54462 0.47095 0.84560
 H492 H 0.55954 0.49942 0.89254
 H493 H 0.64489 0.57854 0.96050
 H494 H 0.70089 0.61579 0.96992
 H495 H 0.74166 0.62429 0.93262
 H496 H 0.72671 0.59562 0.88566
 C497 C 0.88658 0.33259 0.86812
 C498 C 0.88224 0.35914 0.87236
 C499 C 0.90049 0.38247 0.89407
 C500 C 0.92307 0.37917 0.91134
 C501 C 0.92727 0.35253 0.90723
 C502 C 0.90894 0.32914 0.88555
 C503 C 0.91355 0.30272 0.88182
 C504 C 0.93565 0.29950 0.89901
 C505 C 0.95358 0.32238 0.92018
 C506 C 0.94954 0.34865 0.92433
 C507 C 0.89564 0.40876 0.89797
 C508 C 0.87336 0.41186 0.88096
 C509 C 0.85565 0.38914 0.85963
 C510 C 0.85993 0.36304 0.85528
 C511 C 0.94215 0.40357 0.93293
 C512 C 0.95740 0.42487 0.95016
 C513 C 0.86804 0.30899 0.84573
 C514 C 0.85231 0.28990 0.82689
 H515 H 0.90015 0.28431 0.86563
 H516 H 0.93887 0.27913 0.89587
 H517 H 0.97071 0.31976 0.93347
 H518 H 0.96399 0.36583 0.94108
 H519 H 0.90889 0.42716 0.91420
 H520 H 0.86985 0.43202 0.88434
 H521 H 0.83845 0.39171 0.84640
 H522 H 0.84553 0.34599 0.83843
 C523 C 0.55150 0.88706 0.36716
 C524 C 0.57111 0.89787 0.39268
 C525 C 0.56653 0.91673 0.41418
 C526 C 0.54245 0.92473 0.40997
 C527 C 0.52303 0.91417 0.38430
 C528 C 0.52746 0.89514 0.36292
 C529 C 0.50746 0.88452 0.33765
 C530 C 0.48404 0.89278 0.33343
 C531 C 0.47993 0.91166 0.35417
 C532 C 0.49901 0.92216 0.37941
 C533 C 0.58631 0.92715 0.43956
 C534 C 0.60998 0.91919 0.44359
 C535 C 0.61447 0.90077 0.42257
 C536 C 0.59533 0.89017 0.39735
 C537 C 0.53697 0.94323 0.43213
 C538 C 0.53073 0.95808 0.44972
 C539 C 0.55586 0.86760 0.34523
 C540 C 0.55868 0.85131 0.32658
 H541 H 0.50965 0.86972 0.32091
 H542 H 0.46900 0.88448 0.31396
 H543 H 0.46175 0.91807 0.35077
 H544 H 0.49472 0.93664 0.39496
 H545 H 0.58372 0.94156 0.45648
 H546 H 0.62492 0.92737 0.46313
 H547 H 0.63289 0.89466 0.42580
 H548 H 0.59972 0.87592 0.38161
 C549 C 0.33286 0.44834 0.36923
 C550 C 0.35761 0.47958 0.37574
 C551 C 0.38075 0.48444 0.39753
 C552 C 0.37910 0.45802 0.41261
 C553 C 0.35422 0.42682 0.40628
 C554 C 0.33100 0.42196 0.38453
 C555 C 0.30636 0.39056 0.37855
 C556 C 0.30472 0.36468 0.39361
 C557 C 0.32743 0.36944 0.41486
 C558 C 0.35197 0.40011 0.42121
 C559 C 0.40522 0.51593 0.40370
 C560 C 0.40672 0.54183 0.38882
 C561 C 0.38420 0.53704 0.36738
 C562 C 0.35988 0.50634 0.36083
 C563 C 0.40344 0.46321 0.43418
 C564 C 0.42464 0.46925 0.45148
 C565 C 0.30957 0.44350 0.34663
 C566 C 0.29073 0.44033 0.32763
 H567 H 0.28814 0.38569 0.36221
 H568 H 0.28571 0.34081 0.38877
 H569 H 0.32605 0.34926 0.42650
 H570 H 0.36908 0.40266 0.43794
 H571 H 0.42341 0.52093 0.42009
 H572 H 0.42555 0.56573 0.39388
 H573 H 0.38556 0.55723 0.35579
 H574 H 0.34289 0.50387 0.34400
 C575 C 0.11554 0.66727 0.36726
 C576 C 0.09120 0.66933 0.38271
 C577 C 0.07281 0.64610 0.40443
 C578 C 0.07894 0.62102 0.41060
 C579 C 0.10356 0.61920 0.39540
 C580 C 0.12185 0.64235 0.37362
 C581 C 0.14619 0.63990 0.35858
 C582 C 0.15242 0.61541 0.36502
 C583 C 0.13468 0.59290 0.38644
 C584 C 0.11042 0.59456 0.40144
 C585 C 0.04854 0.64855 0.41951
 C586 C 0.04260 0.67329 0.41334
 C587 C 0.06059 0.69602 0.39212
 C588 C 0.08464 0.69418 0.37690
 C589 C 0.05976 0.59667 0.43213
 C590 C 0.04456 0.57546 0.44941
 C591 C 0.13400 0.69056 0.34466
 C592 C 0.14970 0.70936 0.32566
 H593 H 0.16071 0.65687 0.34176
 H594 H 0.17114 0.61392 0.35333
 H595 H 0.13964 0.57395 0.39141
 H596 H 0.09723 0.57637 0.41781
 H597 H 0.03396 0.63144 0.43622
 H598 H 0.02395 0.67483 0.42509
 H599 H 0.05589 0.71519 0.38741
 H600 H 0.09802 0.71241 0.36060
 C601 C 0.88890 0.55332 0.86583
 C602 C 0.89760 0.57107 0.89256
 C603 C 0.91639 0.56631 0.91391
 C604 C 0.92635 0.54385 0.90838
 C605 C 0.91795 0.52636 0.88149
 C606 C 0.89914 0.53108 0.86017
 C607 C 0.89087 0.51316 0.83354
 C608 C 0.90098 0.49129 0.82809
 C609 C 0.91947 0.48675 0.84887
 C610 C 0.92785 0.50393 0.87533
 C611 C 0.92468 0.58420 0.94052
 C612 C 0.91471 0.60620 0.94588
 C613 C 0.89635 0.61087 0.92501
 C614 C 0.88782 0.59356 0.89860
 C615 C 0.94447 0.53788 0.93051
 C616 C 0.95897 0.53132 0.94815
 C617 C 0.86914 0.55754 0.84424
 C618 C 0.85260 0.56028 0.82590
 H619 H 0.87652 0.51582 0.81666
 H620 H 0.89442 0.47778 0.80761
 H621 H 0.92724 0.46971 0.84456
 H622 H 0.94218 0.49943 0.89082
 H623 H 0.93896 0.58140 0.95739
 H624 H 0.92128 0.61972 0.96635
 H625 H 0.88867 0.62799 0.92928
 H626 H 0.87353 0.59802 0.88302
 C627 C 0.44744 0.33249 0.86965
 C628 C 0.47819 0.35918 0.87363
 C629 C 0.48323 0.38254 0.89533
 C630 C 0.45745 0.37917 0.91282
 C631 C 0.42677 0.35238 0.90899
 C632 C 0.42175 0.32894 0.88734
 C633 C 0.39088 0.30236 0.88390
 C634 C 0.36567 0.29904 0.90133
 C635 C 0.37057 0.32198 0.92247
 C636 C 0.40074 0.34841 0.92635
 C637 C 0.51425 0.40893 0.89900
 C638 C 0.53952 0.41210 0.88177
 C639 C 0.53453 0.38938 0.86040
 C640 C 0.50428 0.36318 0.85627
 C641 C 0.46274 0.40362 0.93437
 C642 C 0.46886 0.42497 0.95159
 C643 C 0.44241 0.30894 0.84718
 C644 C 0.43918 0.29003 0.82816
 H645 H 0.38593 0.28390 0.86775
 H646 H 0.34220 0.27856 0.89842
 H647 H 0.35091 0.31929 0.93595
 H648 H 0.40343 0.36562 0.94309
 H649 H 0.51938 0.42734 0.91524
 H650 H 0.56310 0.43232 0.88500
 H651 H 0.55422 0.39202 0.84699
 H652 H 0.50164 0.34613 0.83940
 C653 C 0.66667 0.11103 0.86578
 C654 C 0.67572 0.10384 0.89327
 C655 C 0.65212 0.08535 0.91467
 C656 C 0.61966 0.07420 0.90844
 C657 C 0.61059 0.08114 0.88081
 C658 C 0.63417 0.09966 0.85945
 C659 C 0.62453 0.10653 0.83211
 C660 C 0.59252 0.09527 0.82597
 C661 C 0.56945 0.07700 0.84679
 C662 C 0.57823 0.07002 0.87395
 C663 C 0.66171 0.07852 0.94203
 C664 C 0.69373 0.08967 0.94808
 C665 C 0.71681 0.10778 0.92717
 C666 C 0.70804 0.11486 0.90004
 C667 C 0.59548 0.05632 0.93055
 C668 C 0.57432 0.04190 0.94810
 C669 C 0.69068 0.13041 0.84408
 C670 C 0.71004 0.14668 0.82569
 H671 H 0.64158 0.12068 0.81520
 H672 H 0.58559 0.10076 0.80495
 H673 H 0.54460 0.06833 0.84194
 H674 H 0.55937 0.05584 0.88944
 H675 H 0.64460 0.06451 0.95896
 H676 H 0.70066 0.08422 0.96912
 H677 H 0.74164 0.11639 0.93200
 H678 H 0.72684 0.12903 0.88448
 C679 C 0.11323 0.44670 0.36822
 C680 C 0.10538 0.47091 0.36379
 C681 C 0.08673 0.47583 0.38518
 C682 C 0.07628 0.45672 0.41105
 C683 C 0.08408 0.43250 0.41546
 C684 C 0.10258 0.42745 0.39395
 C685 C 0.11010 0.40310 0.39884
 C686 C 0.09966 0.38431 0.42427
 C687 C 0.08159 0.38927 0.44530
 C688 C 0.07382 0.41307 0.44106
 C689 C 0.07898 0.50002 0.38012
 C690 C 0.08935 0.51878 0.35468
 C691 C 0.10785 0.51418 0.33391
 C692 C 0.11587 0.49058 0.33831
 C693 C 0.05804 0.46261 0.43315
 C694 C 0.04337 0.46914 0.45066
 C695 C 0.13231 0.44184 0.34626
 C696 C 0.14831 0.43869 0.32755
 H697 H 0.12407 0.39835 0.38310
 H698 H 0.10562 0.36578 0.42767
 H699 H 0.07354 0.37460 0.46501
 H700 H 0.05969 0.41604 0.45801
 H701 H 0.06481 0.50470 0.39568
 H702 H 0.08313 0.53710 0.35115
 H703 H 0.11604 0.52896 0.31428
 H704 H 0.13037 0.48801 0.32153
 C705 C 0.55126 0.66671 0.36824
 C706 C 0.52730 0.63456 0.36412
 C707 C 0.52288 0.61133 0.38566
 C708 C 0.54225 0.62043 0.41138
 C709 C 0.56622 0.65254 0.41549
 C710 C 0.57078 0.67576 0.39383
 C711 C 0.59489 0.70772 0.39841
 C712 C 0.61395 0.71651 0.42370
 C713 C 0.60948 0.69381 0.44487
 C714 C 0.58592 0.66215 0.44093
 C715 C 0.49893 0.57928 0.38089
 C716 C 0.47992 0.57047 0.35559
 C717 C 0.48403 0.59324 0.33468
 C718 C 0.50738 0.62495 0.33879
 C719 C 0.53686 0.59664 0.43365
 C720 C 0.53077 0.57573 0.45133
 C721 C 0.55566 0.69031 0.34611
 C722 C 0.55853 0.70923 0.32730
 H723 H 0.59927 0.72621 0.38255
 H724 H 0.63229 0.74107 0.42686
 H725 H 0.62435 0.70076 0.46447
 H726 H 0.58333 0.64532 0.45798
 H727 H 0.49464 0.56067 0.39657
 H728 H 0.46179 0.54586 0.35228
 H729 H 0.46904 0.58632 0.31517
 H730 H 0.50957 0.64177 0.32191
 C731 C 0.33266 0.88562 0.36725
 C732 C 0.35748 0.87919 0.37371
 C733 C 0.38070 0.89762 0.39540
 C734 C 0.37907 0.92248 0.41043
 C735 C 0.35411 0.92871 0.40417
 C736 C 0.33080 0.91020 0.38252
 C737 C 0.30608 0.91687 0.37660
 C738 C 0.30443 0.94116 0.39164
 C739 C 0.32722 0.95927 0.41279
 C740 C 0.35184 0.95322 0.41907
 C741 C 0.40523 0.89066 0.40153
 C742 C 0.40672 0.86618 0.38671
 C743 C 0.38413 0.84831 0.36537
 C744 C 0.35974 0.85462 0.35885
 C745 C 0.40352 0.94180 0.43186
 C746 C 0.42479 0.95711 0.44905
 C747 C 0.30933 0.86704 0.34471
 C748 C 0.29052 0.85124 0.32572
 H749 H 0.28780 0.90341 0.36035
 H750 H 0.28535 0.94596 0.38685
 H751 H 0.32583 0.97811 0.42441
 H752 H 0.36901 0.96790 0.43572
 H753 H 0.42348 0.90395 0.41785
 H754 H 0.42560 0.86115 0.39173
 H755 H 0.38548 0.82942 0.35381
 H756 H 0.34270 0.84000 0.34210
 C757 C 0.55112 0.88551 0.13199
 C758 C 0.57066 0.89598 0.10643
 C759 C 0.56605 0.91458 0.08473
 C760 C 0.54200 0.92267 0.08880
 C761 C 0.52260 0.91239 0.11449
 C762 C 0.52707 0.89363 0.13607
 C763 C 0.50713 0.88332 0.16138
 C764 C 0.48369 0.89161 0.16543
 C765 C 0.47952 0.91020 0.14448
 C766 C 0.49857 0.92042 0.11920
 C767 C 0.58576 0.92466 0.05930
 C768 C 0.60939 0.91662 0.05541
 C769 C 0.61393 0.89847 0.07663
 C770 C 0.59485 0.88821 0.10190
 C771 C 0.53660 0.94106 0.06651
 C772 C 0.53052 0.95590 0.04883
 C773 C 0.55555 0.86635 0.15415
 C774 C 0.55843 0.85032 0.17297
 H775 H 0.50937 0.86875 0.17829
 H776 H 0.46869 0.88355 0.18493
 H777 H 0.46133 0.91663 0.14774
 H778 H 0.49423 0.93468 0.10349
 H779 H 0.58313 0.93885 0.04222
 H780 H 0.62428 0.92454 0.03583
 H781 H 0.63233 0.89230 0.07351
 H782 H 0.59929 0.87416 0.11780
 C783 C 0.33276 0.44726 0.13254
 C784 C 0.35766 0.47843 0.12611
 C785 C 0.38084 0.48313 0.10439
 C786 C 0.37909 0.45661 0.08932
 C787 C 0.35405 0.42549 0.09556
 C788 C 0.33079 0.42080 0.11723
 C789 C 0.30599 0.38947 0.12312
 C790 C 0.30422 0.36350 0.10804
 C791 C 0.32698 0.36809 0.08688
 C792 C 0.35167 0.39869 0.08062
 C793 C 0.40544 0.51456 0.09827
 C794 C 0.40704 0.54055 0.11314
 C795 C 0.38451 0.53592 0.13452
 C796 C 0.36005 0.50529 0.14102
 C797 C 0.40350 0.46163 0.06787
 C798 C 0.42476 0.46751 0.05067
 C799 C 0.30943 0.44260 0.15507
 C800 C 0.29058 0.43957 0.17403
 H801 H 0.28773 0.38472 0.13939
 H802 H 0.28509 0.33968 0.11282
 H803 H 0.32549 0.34784 0.07523
 H804 H 0.36880 0.40111 0.06395
 H805 H 0.42365 0.51944 0.08193
 H806 H 0.42596 0.56440 0.10812
 H807 H 0.38595 0.55618 0.14612
 H808 H 0.34306 0.50294 0.15780
 C809 C 0.11608 0.66658 0.13044
 C810 C 0.09220 0.66884 0.11439
 C811 C 0.07391 0.64543 0.09271
 C812 C 0.07965 0.61997 0.08721
 C813 C 0.10382 0.61794 0.10300
 C814 C 0.12203 0.64127 0.12472
 C815 C 0.14592 0.63862 0.14034
 C816 C 0.15178 0.61375 0.13456
 C817 C 0.13410 0.59104 0.11320
 C818 C 0.11029 0.59291 0.09763
 C819 C 0.05009 0.64810 0.07703
 C820 C 0.04453 0.67322 0.08256
 C821 C 0.06243 0.69612 0.10373
 C822 C 0.08603 0.69407 0.11953
 C823 C 0.06047 0.59540 0.06579
 C824 C 0.04517 0.57401 0.04866
 C825 C 0.13442 0.69002 0.15301
 C826 C 0.15000 0.70895 0.17201
 H827 H 0.16037 0.65573 0.15713
 H828 H 0.17016 0.61212 0.14668
 H829 H 0.13879 0.57180 0.10874
 H830 H 0.09713 0.57456 0.08133
 H831 H 0.03560 0.63087 0.06033
 H832 H 0.02623 0.67492 0.07035
 H833 H 0.05802 0.71558 0.10793
 H834 H 0.09936 0.71245 0.13577
 C835 C 0.44714 0.11511 0.63173
 C836 C 0.47784 0.11900 0.62775
 C837 C 0.48282 0.10071 0.60597
 C838 C 0.45702 0.07849 0.58839
 C839 C 0.42639 0.07476 0.59224
 C840 C 0.42144 0.09316 0.61396
 C841 C 0.39062 0.08904 0.61741
 C842 C 0.36538 0.06733 0.59991
 C843 C 0.37022 0.04932 0.57869
 C844 C 0.40034 0.05289 0.57480
 C845 C 0.51379 0.10515 0.60230
 C846 C 0.53907 0.12707 0.61961
 C847 C 0.53415 0.14479 0.64105
 C848 C 0.50395 0.14090 0.64518
 C849 C 0.46225 0.05938 0.56672
 C850 C 0.46828 0.04417 0.54938
 C851 C 0.44218 0.13364 0.65425
 C852 C 0.43902 0.14934 0.67329
 H853 H 0.38571 0.10254 0.63362
 H854 H 0.34195 0.06447 0.60283
 H855 H 0.35054 0.03250 0.56515
 H856 H 0.40298 0.03840 0.55800
 H857 H 0.51886 0.09187 0.58601
 H858 H 0.56261 0.13029 0.61638
 H859 H 0.55385 0.16169 0.65452
 H860 H 0.50136 0.15530 0.66211
 C861 C 0.66681 0.55613 0.63423
 C862 C 0.67580 0.57244 0.60678
 C863 C 0.65216 0.56741 0.58544
 C864 C 0.61972 0.54608 0.59168
 C865 C 0.61070 0.52999 0.61926
 C866 C 0.63432 0.53497 0.64057
 C867 C 0.62475 0.51838 0.66787
 C868 C 0.59275 0.49761 0.67401
 C869 C 0.56964 0.49287 0.65325
 C870 C 0.57836 0.50872 0.62613
 C871 C 0.66170 0.58389 0.55813
 C872 C 0.69370 0.60477 0.55205
 C873 C 0.71681 0.60967 0.57291
 C874 C 0.70810 0.59375 0.60000
 C875 C 0.59550 0.53987 0.56962
 C876 C 0.57434 0.53322 0.55209
 C877 C 0.69086 0.56072 0.65589
 C878 C 0.71027 0.56379 0.67423
 H879 H 0.64183 0.52122 0.68473
 H880 H 0.58587 0.48513 0.69499
 H881 H 0.54481 0.47669 0.65811
 H882 H 0.55947 0.50409 0.61069
 H883 H 0.64456 0.58085 0.54124
 H884 H 0.70059 0.61720 0.53105
 H885 H 0.74164 0.62590 0.56807
 H886 H 0.72693 0.59832 0.61552
 C887 C 0.88798 0.33489 0.63330
 C888 C 0.89832 0.36742 0.63871
 C889 C 0.91704 0.39071 0.61720
 C890 C 0.92525 0.38133 0.59035
 C891 C 0.91517 0.34885 0.58506
 C892 C 0.89647 0.32555 0.60662
 C893 C 0.88660 0.29322 0.60082
 C894 C 0.89495 0.28416 0.57448
 C895 C 0.91322 0.30695 0.55341
 C896 C 0.92328 0.33897 0.55852
 C897 C 0.92708 0.42309 0.62312
 C898 C 0.91892 0.43218 0.64954
 C899 C 0.90050 0.40939 0.67052
 C900 C 0.89026 0.37736 0.66529
 C901 C 0.94344 0.40519 0.56809
 C902 C 0.95812 0.42613 0.55041
 C903 C 0.86833 0.31116 0.65511
 C904 C 0.85186 0.29205 0.67359
 H905 H 0.87239 0.27465 0.61656
 H906 H 0.88720 0.25932 0.57040
 H907 H 0.91965 0.29979 0.53298
 H908 H 0.93748 0.35585 0.54151
 H909 H 0.94134 0.44174 0.60747
 H910 H 0.92680 0.45704 0.65369
 H911 H 0.89411 0.41656 0.69096
 H912 H 0.87599 0.36054 0.68231
   
