data_POSCAR
  _audit_creation_date              2014-09-24
  _audit_creation_method            'ToBaCCo'
  _symmetry_space_group_name_H-M    'P1'
  _symmetry_Int_Tables_number       1
  _symmetry_cell_setting            triclinic
  loop_
  _symmetry_equiv_pos_as_xyz
 x,y,z
_cell_length_a 41.8536
_cell_length_b 43.0598
_cell_length_c 42.9271
_cell_angle_alpha 90.532900
_cell_angle_beta 90.516900
_cell_angle_gamma 89.348400
loop_
  _atom_site_label
  _atom_site_type_symbol
  _atom_site_fract_x
  _atom_site_fract_y
  _atom_site_fract_z
C1 C 0.20149 0.52601 1.04424
 H2 H 0.19829 0.54344 1.02645
 C3 C 0.18140 0.52595 1.07002
 H4 H 0.16250 0.54325 1.07085
 C5 C 0.22880 0.48125 1.06242
 H6 H 0.24724 0.46378 1.05930
 C7 C 0.20915 0.48013 1.08848
 H8 H 0.21400 0.46218 1.10536
 N9 N 0.22467 0.50396 1.04097
 C10 C 0.29839 0.54118 0.98148
 H11 H 0.30020 0.52261 0.96441
 C12 C 0.31959 0.56592 0.98066
 H13 H 0.33783 0.56605 0.96293
 C14 C 0.27339 0.56248 1.02627
 H15 H 0.25571 0.56082 1.04431
 C16 C 0.29403 0.58774 1.02623
 H17 H 0.29150 0.60560 1.04398
 Zn18 Zn 0.24970 0.50432 1.00454
 N19 N 0.27580 0.53993 1.00398
 C20 C 0.22395 0.52531 0.94681
 N21 N 0.22152 0.50394 0.96977
 C22 C 0.19801 0.48241 0.96919
 C23 C 0.17588 0.48162 0.94467
 C24 C 0.20245 0.52524 0.92174
 C25 C 0.30280 0.46962 1.02338
 C26 C 0.32523 0.44542 1.02291
 C27 C 0.29428 0.42032 0.98230
 C28 C 0.27265 0.44528 0.98320
 N29 N 0.27724 0.46922 1.00361
 H30 H 0.24246 0.54255 0.94787
 H31 H 0.19629 0.46602 0.98803
 H32 H 0.15701 0.46466 0.94503
 H33 H 0.20516 0.54214 0.90347
 H34 H 0.30595 0.48904 1.03923
 H35 H 0.34558 0.44617 1.03866
 H36 H 0.29056 0.40155 0.96575
 H37 H 0.25244 0.44559 0.96739
 C38 C 0.31764 0.58964 1.00329
 C39 C 0.18464 0.50257 1.09278
 C40 C 0.32112 0.42044 1.00212
 C41 C 0.17791 0.50324 0.92045
 C42 C 0.80005 0.52087 -0.03522
 H43 H 0.80277 0.53732 -0.01620
 C44 C 0.82126 0.52116 -0.06011
 H45 H 0.84047 0.53777 -0.05982
 C46 C 0.77245 0.47834 -0.05769
 H47 H 0.75358 0.46150 -0.05649
 C48 C 0.79301 0.47793 -0.08316
 H49 H 0.78932 0.46101 -0.10161
 N50 N 0.77621 0.49973 -0.03446
 C51 C 0.69898 0.53667 0.02234
 H52 H 0.69699 0.51808 0.03897
 C53 C 0.67674 0.56105 0.02244
 H54 H 0.65777 0.56129 0.03943
 C55 C 0.72583 0.55858 -0.02045
 H56 H 0.74461 0.55718 -0.03752
 C57 C 0.70432 0.58365 -0.02091
 H58 H 0.70669 0.60141 -0.03842
 Zn59 Zn 0.74964 0.50013 0.00097
 N60 N 0.72277 0.53575 0.00098
 C61 C 0.77515 0.52477 0.05724
 N62 N 0.77645 0.50050 0.03673
 C63 C 0.79810 0.47699 0.04035
 C64 C 0.81901 0.47685 0.06587
 C65 C 0.79606 0.52586 0.08276
 C66 C 0.69835 0.46487 -0.02056
 C67 C 0.67614 0.44093 -0.02087
 C68 C 0.70469 0.41725 0.02209
 C69 C 0.72604 0.44194 0.02196
 N70 N 0.72265 0.46504 0.00070
 H71 H 0.75829 0.54359 0.05358
 H72 H 0.79922 0.45840 0.02324
 H73 H 0.83622 0.45805 0.06841
 H74 H 0.79496 0.54541 0.09879
 H75 H 0.69594 0.48372 -0.03693
 H76 H 0.65674 0.44127 -0.03774
 H77 H 0.70746 0.39920 0.03934
 H78 H 0.74492 0.44278 0.03921
 C79 C 0.67916 0.58482 0.00048
 C80 C 0.81794 0.49948 -0.08458
 C81 C 0.67919 0.41678 0.00069
 C82 C 0.81821 0.50162 0.08730
 C83 C -0.02587 0.29640 0.45852
 H84 H -0.04393 0.29888 0.47628
 C85 C -0.02659 0.31583 0.43267
 H86 H -0.04511 0.33350 0.43180
 C87 C 0.02125 0.27162 0.44051
 H88 H 0.04006 0.25456 0.44380
 C89 C 0.02157 0.29058 0.41431
 H90 H 0.04022 0.28646 0.39747
 N91 N -0.00223 0.27484 0.46197
 C92 C -0.04097 0.20761 0.52623
 H93 H -0.02311 0.20879 0.54456
 C94 C -0.06578 0.18641 0.52819
 H95 H -0.06716 0.17185 0.54854
 C96 C -0.06030 0.22500 0.47729
 H97 H -0.05752 0.23948 0.45709
 C98 C -0.08534 0.20382 0.47812
 H99 H -0.10156 0.20226 0.45840
 Zn100 Zn -0.00169 0.25106 0.49879
 N101 N -0.03863 0.22633 0.50107
 C102 C -0.02307 0.28059 0.55453
 N103 N 0.00055 0.27917 0.53298
 C104 C 0.02553 0.29907 0.53423
 C105 C 0.02766 0.32128 0.55807
 C106 C -0.02185 0.30237 0.57880
 C107 C 0.03265 0.20027 0.47665
 C108 C 0.05646 0.17740 0.47565
 C109 C 0.08193 0.20186 0.52011
 C110 C 0.05745 0.22427 0.52034
 N111 N 0.03352 0.22310 0.49871
 H112 H -0.04328 0.26531 0.55264
 H113 H 0.04372 0.29779 0.51650
 H114 H 0.04786 0.33676 0.55878
 H115 H -0.04117 0.30348 0.59540
 H116 H 0.01315 0.19972 0.45994
 H117 H 0.05536 0.15952 0.45779
 H118 H 0.10054 0.20278 0.53777
 H119 H 0.05735 0.24218 0.53812
 C120 C -0.08806 0.18381 0.50363
 C121 C -0.00241 0.31355 0.40992
 C122 C 0.08144 0.17787 0.49770
 C123 C 0.00371 0.32317 0.58074
 C124 C 0.97570 0.69918 0.53735
 H125 H 0.95821 0.69790 0.51869
 C126 C 0.97445 0.67834 0.56200
 H127 H 0.95594 0.66098 0.56203
 C128 C 1.02200 0.72245 0.55897
 H129 H 1.04082 0.73929 0.55742
 C130 C 1.02170 0.70198 0.58405
 H131 H 1.04003 0.70372 0.60191
 N132 N 0.99909 0.72078 0.53634
 C133 C 0.96350 0.79493 0.47680
 H134 H 0.98331 0.79622 0.46088
 C135 C 0.93879 0.81689 0.47531
 H136 H 0.93956 0.83506 0.45806
 C137 C 0.93897 0.77029 0.51943
 H138 H 0.93954 0.75262 0.53712
 C139 C 0.91344 0.79149 0.51839
 H140 H 0.89449 0.78997 0.53530
 Zn141 Zn 0.99996 0.74640 0.50075
 N142 N 0.96334 0.77244 0.49882
 C143 C 0.97680 0.71925 0.44451
 N144 N 1.00120 0.71965 0.46564
 C145 C 1.02606 0.69919 0.46362
 C146 C 1.02715 0.67724 0.43955
 C147 C 0.97669 0.69737 0.42026
 C148 C 1.03756 0.79436 0.52504
 C149 C 1.06215 0.81602 0.52578
 C150 C 1.08291 0.79306 0.47845
 C151 C 1.05795 0.77181 0.47864
 N152 N 1.03593 0.77278 0.50176
 H153 H 0.95689 0.73526 0.44697
 H154 H 1.04493 0.69976 0.48100
 H155 H 1.04741 0.66146 0.43827
 H156 H 0.95647 0.69676 0.40439
 H157 H 1.01933 0.79508 0.54274
 H158 H 1.06260 0.83342 0.54414
 H159 H 1.10020 0.79189 0.45986
 H160 H 1.05585 0.75507 0.45988
 C161 C 0.91352 0.81541 0.49645
 C162 C 0.99773 0.67948 0.58573
 C163 C 1.08511 0.81571 0.50211
 C164 C 1.00197 0.67574 0.41769
 C165 C 0.46123 -0.02347 0.29103
 H166 H 0.47950 -0.04144 0.29169
 C167 C 0.43512 -0.02494 0.31092
 H168 H 0.43358 -0.04406 0.32702
 C169 C 0.44200 0.02402 0.27016
 H170 H 0.44510 0.04336 0.25467
 C171 C 0.41556 0.02357 0.28980
 H172 H 0.39818 0.04237 0.28881
 N173 N 0.46412 0.00064 0.27108
 C174 C 0.53115 -0.03805 0.20374
 H175 H 0.55029 -0.02150 0.20616
 C176 C 0.53399 -0.06275 0.18266
 H177 H 0.55627 -0.06509 0.17033
 C178 C 0.47990 -0.05467 0.21855
 H179 H 0.45843 -0.05087 0.23193
 C180 C 0.48150 -0.07956 0.19750
 H181 H 0.46056 -0.09385 0.19515
 Zn182 Zn 0.50155 0.00142 0.24675
 N183 N 0.50448 -0.03448 0.22119
 C184 C 0.55691 -0.02125 0.27840
 N185 N 0.53655 0.00334 0.27492
 C186 C 0.53920 0.02915 0.29316
 C187 C 0.56355 0.03132 0.31546
 C188 C 0.58128 -0.02031 0.30083
 C189 C 0.47655 0.03700 0.19840
 C190 C 0.47492 0.06079 0.17660
 C191 C 0.52355 0.08176 0.19853
 C192 C 0.52429 0.05749 0.21992
 N193 N 0.50082 0.03586 0.21964
 H194 H 0.55371 -0.04203 0.26449
 H195 H 0.52225 0.04811 0.29039
 H196 H 0.56551 0.05244 0.32916
 H197 H 0.59648 -0.04058 0.30384
 H198 H 0.45849 0.01922 0.19837
 H199 H 0.45521 0.06141 0.16009
 H200 H 0.54269 0.09847 0.19876
 H201 H 0.54400 0.05564 0.23621
 C202 C 0.50872 -0.08399 0.17856
 C203 C 0.41194 -0.00111 0.31060
 C204 C 0.49868 0.08354 0.17640
 C205 C 0.58487 0.00622 0.31985
 C206 C 0.54058 -0.02192 0.70524
 H207 H 0.52247 -0.03958 0.70331
 C208 C 0.56697 -0.02299 0.68563
 H209 H 0.56889 -0.04146 0.66845
 C210 C 0.55927 0.02430 0.72925
 H211 H 0.55593 0.04295 0.74593
 C212 C 0.58596 0.02425 0.70992
 H213 H 0.60324 0.04268 0.71227
 N214 N 0.53739 0.00126 0.72673
 C215 C 0.47401 -0.03852 0.79526
 H216 H 0.45532 -0.02096 0.79568
 C217 C 0.47257 -0.06390 0.81516
 H218 H 0.45274 -0.06554 0.83106
 C219 C 0.52339 -0.05664 0.77506
 H220 H 0.54350 -0.05342 0.75990
 C221 C 0.52287 -0.08243 0.79451
 H222 H 0.54235 -0.09916 0.79356
 Zn223 Zn 0.50019 0.00100 0.75141
 N224 N 0.49911 -0.03537 0.77571
 C225 C 0.44480 -0.02191 0.72053
 N226 N 0.46483 0.00259 0.72367
 C227 C 0.46161 0.02801 0.70535
 C228 C 0.43711 0.02977 0.68315
 C229 C 0.42032 -0.02138 0.69819
 C230 C 0.52374 0.03649 0.80095
 C231 C 0.52478 0.06067 0.82279
 C232 C 0.47595 0.08149 0.80049
 C233 C 0.47584 0.05688 0.77907
 N234 N 0.49975 0.03521 0.77944
 H235 H 0.44836 -0.04231 0.73466
 H236 H 0.47825 0.04692 0.70792
 H237 H 0.43474 0.05058 0.66934
 H238 H 0.40544 -0.04163 0.69540
 H239 H 0.54207 0.01857 0.80115
 H240 H 0.54392 0.06105 0.83992
 H241 H 0.45696 0.09875 0.79954
 H242 H 0.45646 0.05503 0.76242
 C243 C 0.49732 -0.08622 0.81509
 C244 C 0.59007 0.00034 0.68781
 C245 C 0.50070 0.08365 0.82271
 C246 C 0.41625 0.00467 0.67896
 Si247 Si 0.25018 -0.00348 0.49392
 Si248 Si 0.75055 -0.00034 0.50461
 Si249 Si 0.50042 0.25036 1.00106
 Si250 Si 0.49898 0.75431 -0.00378
 Si251 Si 1.00143 0.49451 0.25291
 Si252 Si -0.00144 0.50071 0.74883
 C253 C 0.15328 0.10531 0.49600
 C254 C 0.12079 0.09838 0.49172
 C255 C 0.09760 0.12191 0.49245
 C256 C 0.10626 0.15297 0.49760
 C257 C 0.13867 0.15994 0.50236
 C258 C 0.16196 0.13636 0.50151
 C259 C 0.17783 0.08010 0.49470
 C260 C 0.20401 0.07986 0.51550
 C261 C 0.22626 0.05536 0.51500
 C262 C 0.22263 0.03069 0.49378
 C263 C 0.19703 0.03117 0.47257
 C264 C 0.17487 0.05564 0.47295
 H265 H 0.07275 0.11573 0.48933
 H266 H 0.14607 0.18371 0.50610
 H267 H 0.24602 0.05566 0.53140
 H268 H 0.19399 0.01240 0.45586
 H269 H 0.18681 0.14252 0.50456
 H270 H 0.20688 0.09821 0.53267
 H271 H 0.11320 0.07464 0.48816
 H272 H 0.15539 0.05540 0.45619
 C273 C 0.60794 0.65752 -0.00381
 C274 C 0.59900 0.62632 -0.00125
 C275 C 0.62219 0.60282 0.00041
 C276 C 0.65479 0.61000 -0.00082
 C277 C 0.66379 0.64119 -0.00356
 C278 C 0.64055 0.66480 -0.00476
 C279 C 0.58309 0.68224 -0.00532
 C280 C 0.58520 0.70887 0.01374
 C281 C 0.56049 0.73104 0.01383
 C282 C 0.53360 0.72702 -0.00543
 C283 C 0.53198 0.70105 -0.02524
 C284 C 0.55641 0.67873 -0.02506
 H285 H 0.61462 0.57894 0.00223
 H286 H 0.68879 0.64730 -0.00441
 H287 H 0.56226 0.75100 0.02921
 H288 H 0.51142 0.69767 -0.04036
 H289 H 0.64800 0.68868 -0.00686
 H290 H 0.60547 0.71202 0.02926
 H291 H 0.57403 0.62013 -0.00018
 H292 H 0.55440 0.65859 -0.04023
 C293 C 0.84158 -0.11279 0.49969
 C294 C 0.83260 -0.14407 0.49804
 C295 C 0.85596 -0.16760 0.49702
 C296 C 0.88854 -0.16006 0.49688
 C297 C 0.89738 -0.12872 0.49789
 C298 C 0.87413 -0.10532 0.49956
 C299 C 0.81737 -0.08769 0.50212
 C300 C 0.81983 -0.06550 0.52613
 C301 C 0.79869 -0.04027 0.52729
 C302 C 0.77531 -0.03640 0.50405
 C303 C 0.77194 -0.05910 0.48066
 C304 C 0.79279 -0.08477 0.47980
 H305 H 0.84866 -0.19165 0.49618
 H306 H 0.92236 -0.12239 0.49806
 H307 H 0.80134 -0.02313 0.54574
 H308 H 0.75370 -0.05679 0.46279
 H309 H 0.88153 -0.08131 0.50065
 H310 H 0.83840 -0.06752 0.54376
 H311 H 0.80759 -0.15026 0.49821
 H312 H 0.79050 -0.10171 0.46114
 C313 C 0.39160 0.34716 0.99813
 C314 C 0.35899 0.34006 0.99985
 C315 C 0.33597 0.36386 1.00077
 C316 C 0.34525 0.39511 1.00059
 C317 C 0.37786 0.40215 0.99900
 C318 C 0.40079 0.37841 0.99757
 C319 C 0.41618 0.32221 0.99743
 C320 C 0.41582 0.29819 1.01934
 C321 C 0.44049 0.27602 1.02016
 C322 C 0.46548 0.27725 0.99869
 C323 C 0.46540 0.30068 0.97627
 C324 C 0.44104 0.32309 0.97572
 H325 H 0.31095 0.35790 1.00212
 H326 H 0.38557 0.42607 0.99859
 H327 H 0.44027 0.25846 1.03798
 H328 H 0.48462 0.30208 0.95963
 H329 H 0.42581 0.38445 0.99652
 H330 H 0.39706 0.29724 1.03651
 H331 H 0.35136 0.31612 1.00021
 H332 H 0.44173 0.34128 0.95849
 C333 C 0.84232 0.11056 0.50205
 C334 C 0.83438 0.14002 0.49022
 C335 C 0.85671 0.16402 0.49108
 C336 C 0.88744 0.15903 0.50379
 C337 C 0.89511 0.12966 0.51594
 C338 C 0.87282 0.10586 0.51527
 C339 C 0.81939 0.08447 0.50040
 C340 C 0.83054 0.05416 0.49414
 C341 C 0.80983 0.02909 0.49478
 C342 C 0.77746 0.03367 0.50171
 C343 C 0.76569 0.06401 0.50600
 C344 C 0.78654 0.08924 0.50569
 H345 H 0.84990 0.18645 0.48181
 H346 H 0.91865 0.12474 0.52544
 H347 H 0.81938 0.00618 0.48980
 H348 H 0.74056 0.06811 0.51042
 H349 H 0.87956 0.08366 0.52514
 H350 H 0.85542 0.04976 0.48876
 H351 H 0.81116 0.14437 0.47973
 H352 H 0.77712 0.11230 0.51044
 C353 C 0.38681 0.66318 0.00334
 C354 C 0.37390 0.65177 -0.02481
 C355 C 0.35106 0.62837 -0.02479
 C356 C 0.34068 0.61567 0.00337
 C357 C 0.35318 0.62744 0.03155
 C358 C 0.37593 0.65095 0.03153
 C359 C 0.41240 0.68685 0.00316
 C360 C 0.43838 0.68474 0.02404
 C361 C 0.46351 0.70574 0.02253
 C362 C 0.46317 0.72932 0.00024
 C363 C 0.43718 0.73167 -0.02047
 C364 C 0.41191 0.71082 -0.01887
 H365 H 0.34161 0.62013 -0.04688
 H366 H 0.34598 0.61797 0.05364
 H367 H 0.48384 0.70260 0.03796
 H368 H 0.43645 0.74904 -0.03842
 H369 H 0.38512 0.65947 0.05363
 H370 H 0.43994 0.66614 0.04079
 H371 H 0.38201 0.66036 -0.04696
 H372 H 0.39214 0.71327 -0.03513
 C373 C 0.15705 -0.11338 0.50015
 C374 C 0.14196 -0.12345 0.47253
 C375 C 0.11895 -0.14667 0.47316
 C376 C 0.11042 -0.16038 0.50144
 C377 C 0.12567 -0.15051 0.52905
 C378 C 0.14874 -0.12728 0.52841
 C379 C 0.18074 -0.08794 0.49948
 C380 C 0.18074 -0.06464 0.52263
 C381 C 0.20200 -0.03991 0.52116
 C382 C 0.22392 -0.03809 0.49675
 C383 C 0.22395 -0.06129 0.47359
 C384 C 0.20274 -0.08606 0.47503
 H385 H 0.10723 -0.15333 0.45157
 H386 H 0.11993 -0.16092 0.55114
 H387 H 0.20045 -0.02171 0.53858
 H388 H 0.23978 -0.06019 0.45393
 H389 H 0.16024 -0.12033 0.55003
 H390 H 0.16358 -0.06497 0.54134
 H391 H 0.14736 -0.11282 0.45046
 H392 H 0.20346 -0.10368 0.45689
 C393 C 0.60922 0.34466 1.00406
 C394 C 0.59973 0.37604 1.00363
 C395 C 0.62250 0.39941 1.00215
 C396 C 0.65521 0.39186 1.00160
 C397 C 0.66476 0.36049 1.00231
 C398 C 0.64192 0.33704 1.00318
 C399 C 0.58486 0.32010 1.00498
 C400 C 0.58527 0.29563 0.98312
 C401 C 0.56064 0.27394 0.98235
 C402 C 0.53568 0.27608 1.00386
 C403 C 0.53585 0.29984 1.02638
 C404 C 0.56012 0.32182 1.02682
 H405 H 0.61460 0.42345 1.00186
 H406 H 0.68987 0.35415 1.00180
 H407 H 0.56081 0.25611 0.96446
 H408 H 0.51666 0.30195 1.04306
 H409 H 0.64974 0.31299 1.00355
 H410 H 0.60398 0.29402 0.96589
 H411 H 0.57463 0.38243 1.00402
 H412 H 0.55943 0.34039 1.04400
 C413 C 0.49691 0.15547 1.10717
 C414 C 0.48902 0.12475 1.09918
 C415 C 0.48951 0.10153 1.12166
 C416 C 0.49798 0.10842 1.15268
 C417 C 0.50597 0.13911 1.16072
 C418 C 0.50542 0.16240 1.13820
 C419 C 0.49668 0.17995 1.08299
 C420 C 0.52091 0.20232 1.08227
 C421 C 0.52163 0.22419 1.05839
 C422 C 0.49807 0.22412 1.03500
 C423 C 0.47361 0.20224 1.03590
 C424 C 0.47280 0.18045 1.05974
 H425 H 0.48383 0.07801 1.11461
 H426 H 0.51224 0.14519 1.18451
 H427 H 0.54102 0.24056 1.05789
 H428 H 0.45537 0.20171 1.01784
 H429 H 0.51126 0.18590 1.14516
 H430 H 0.53989 0.20229 1.09957
 H431 H 0.48303 0.11850 1.07536
 H432 H 0.45358 0.16384 1.05986
 C433 C -0.00311 0.61063 0.65805
 C434 C 0.02588 0.62015 0.64510
 C435 C 0.02620 0.64289 0.62207
 C436 C -0.00246 0.65661 0.61143
 C437 C -0.03139 0.64753 0.62481
 C438 C -0.03171 0.62481 0.64786
 C439 C -0.00357 0.58525 0.68125
 C440 C -0.02721 0.56233 0.67959
 C441 C -0.02680 0.53759 0.70041
 C442 C -0.00292 0.53538 0.72337
 C443 C 0.02055 0.55827 0.72537
 C444 C 0.02020 0.58305 0.70454
 H445 H 0.04883 0.64903 0.61191
 H446 H -0.05381 0.65803 0.61747
 H447 H -0.04485 0.51985 0.69825
 H448 H 0.03949 0.55687 0.74261
 H449 H -0.05437 0.61836 0.65774
 H450 H -0.04551 0.56302 0.66161
 H451 H 0.04827 0.60935 0.65208
 H452 H 0.03858 0.60046 0.70659
 C453 C 0.49623 0.84031 -0.11745
 C454 C 0.52506 0.85451 -0.12538
 C455 C 0.52549 0.87788 -0.14770
 C456 C 0.49712 0.88753 -0.16270
 C457 C 0.46842 0.87271 -0.15536
 C458 C 0.46798 0.84939 -0.13294
 C459 C 0.49545 0.81747 -0.09182
 C460 C 0.47127 0.81931 -0.06936
 C461 C 0.47190 0.79963 -0.04372
 C462 C 0.49652 0.77757 -0.04014
 C463 C 0.52025 0.77506 -0.06288
 C464 C 0.51974 0.79487 -0.08852
 H465 H 0.54791 0.88915 -0.15242
 H466 H 0.44626 0.87922 -0.16689
 H467 H 0.45369 0.80230 -0.02609
 H468 H 0.53965 0.75841 -0.06055
 H469 H 0.44549 0.83855 -0.12759
 H470 H 0.45256 0.83681 -0.07095
 H471 H 0.54712 0.84835 -0.11347
 H472 H 0.53855 0.79278 -0.10560
 C473 C 1.00057 0.37911 0.33609
 C474 C 0.97145 0.37162 0.34989
 C475 C 0.97029 0.34962 0.37357
 C476 C 0.99831 0.33430 0.38428
 C477 C 1.02730 0.34116 0.36924
 C478 C 1.02836 0.36324 0.34564
 C479 C 1.00223 0.40486 0.31341
 C480 C 1.02701 0.42654 0.31563
 C481 C 1.02708 0.45249 0.29641
 C482 C 1.00230 0.45742 0.27481
 C483 C 0.97845 0.43506 0.27126
 C484 C 0.97828 0.40905 0.29058
 H485 H 0.94707 0.34449 0.38293
 H486 H 1.04983 0.33104 0.37663
 H487 H 1.04590 0.46937 0.29924
 H488 H 0.95967 0.43775 0.25404
 H489 H 1.05116 0.36834 0.33523
 H490 H 1.04567 0.42415 0.33311
 H491 H 0.94957 0.38348 0.34304
 H492 H 0.95926 0.39238 0.28789
 C493 C 0.51005 0.84600 0.10729
 C494 C 0.53065 0.87141 0.10611
 C495 C 0.53064 0.89400 0.12963
 C496 C 0.51010 0.89193 0.15552
 C497 C 0.49034 0.86553 0.15703
 C498 C 0.49027 0.84307 0.13328
 C499 C 0.50827 0.82351 0.08084
 C500 C 0.50391 0.79161 0.08592
 C501 C 0.50139 0.77087 0.06073
 C502 C 0.50304 0.78162 0.03005
 C503 C 0.50812 0.81329 0.02500
 C504 C 0.51044 0.83402 0.05004
 H505 H 0.54578 0.91379 0.12615
 H506 H 0.47510 0.86150 0.17673
 H507 H 0.49822 0.74650 0.06535
 H508 H 0.51043 0.82232 0.00175
 H509 H 0.47408 0.82373 0.13498
 H510 H 0.50272 0.78264 0.10935
 H511 H 0.54661 0.87416 0.08664
 H512 H 0.51343 0.85844 0.04519
 C513 C 0.00505 0.39369 0.65279
 C514 C 0.01422 0.40064 0.62222
 C515 C 0.01414 0.37769 0.59899
 C516 C 0.00481 0.34726 0.60573
 C517 C -0.00414 0.34022 0.63633
 C518 C -0.00399 0.36317 0.65960
 C519 C 0.00431 0.41839 0.67722
 C520 C -0.02078 0.42003 0.69881
 C521 C -0.02223 0.44410 0.72086
 C522 C 0.00144 0.46684 0.72181
 C523 C 0.02662 0.46519 0.70057
 C524 C 0.02816 0.44113 0.67857
 H525 H 0.02064 0.38398 0.57554
 H526 H -0.01102 0.31688 0.64234
 H527 H -0.04222 0.44521 0.73663
 H528 H 0.04496 0.48274 0.70080
 H529 H -0.01072 0.35695 0.68301
 H530 H -0.03980 0.40320 0.69807
 H531 H 0.02075 0.42403 0.61605
 H532 H 0.04800 0.44036 0.66255
 C533 C 0.50210 0.15684 0.89192
 C534 C 0.53052 0.14675 0.87767
 C535 C 0.53003 0.12328 0.85497
 C536 C 0.50110 0.10932 0.84606
 C537 C 0.47264 0.11969 0.86007
 C538 C 0.47313 0.14320 0.88271
 C539 C 0.50273 0.18079 0.91699
 C540 C 0.47889 0.20402 0.91854
 C541 C 0.47861 0.22556 0.94310
 C542 C 0.50221 0.22428 0.96642
 C543 C 0.52621 0.20140 0.96481
 C544 C 0.52658 0.17992 0.94025
 H545 H 0.55229 0.11618 0.84424
 H546 H 0.45004 0.10909 0.85409
 H547 H 0.45959 0.24274 0.94405
 H548 H 0.54434 0.19979 0.98292
 H549 H 0.45091 0.15012 0.89363
 H550 H 0.46036 0.20542 0.90083
 H551 H 0.55315 0.15714 0.88397
 H552 H 0.54497 0.16202 0.93997
 C553 C 0.99912 0.60282 0.34790
 C554 C 0.98723 0.63269 0.34109
 C555 C 0.98848 0.65649 0.36350
 C556 C 1.00146 0.65091 0.39332
 C557 C 1.01343 0.62105 0.39999
 C558 C 1.01251 0.59744 0.37754
 C559 C 0.99761 0.57717 0.32446
 C560 C 0.99200 0.54657 0.33401
 C561 C 0.99263 0.52204 0.31258
 C562 C 0.99876 0.52753 0.28109
 C563 C 1.00251 0.55813 0.27104
 C564 C 1.00234 0.58275 0.29257
 H565 H 0.97937 0.67928 0.35740
 H566 H 1.02311 0.61565 0.42279
 H567 H 0.98824 0.49885 0.32083
 H568 H 1.00643 0.56290 0.24665
 H569 H 1.02246 0.57492 0.38347
 H570 H 0.98707 0.54150 0.35814
 H571 H 0.97651 0.63762 0.31861
 H572 H 1.00674 0.60598 0.28434
 C573 C 1.11796 0.49775 0.16705
 C574 C 1.13469 0.47112 0.15714
 C575 C 1.15716 0.47278 0.13335
 C576 C 1.16342 0.50120 0.11845
 C577 C 1.14710 0.52804 0.12939
 C578 C 1.12481 0.52630 0.15332
 C579 C 1.09199 0.49553 0.19019
 C580 C 1.08814 0.51828 0.21362
 C581 C 1.06191 0.51753 0.23355
 C582 C 1.03894 0.49431 0.23002
 C583 C 1.04349 0.47080 0.20767
 C584 C 1.06973 0.47141 0.18787
 H585 H 1.16805 0.45117 0.12571
 H586 H 1.15176 0.55076 0.12006
 H587 H 1.05948 0.53538 0.25124
 H588 H 1.02610 0.45253 0.20479
 H589 H 1.11224 0.54726 0.16048
 H590 H 1.10527 0.53679 0.21630
 H591 H 1.13000 0.44879 0.16746
 H592 H 1.07189 0.45369 0.16993
 C593 C 0.66641 -0.00104 0.62126
 C594 C 0.65785 -0.02831 0.63672
 C595 C 0.63363 -0.02772 0.65890
 C596 C 0.61755 0.00018 0.66625
 C597 C 0.62693 0.02767 0.65171
 C598 C 0.65105 0.02706 0.62940
 C599 C 0.68955 -0.00219 0.59521
 C600 C 0.71114 0.02213 0.59064
 C601 C 0.73055 0.02239 0.56428
 C602 C 0.72841 -0.00147 0.54196
 C603 C 0.70833 -0.02662 0.54736
 C604 C 0.68889 -0.02690 0.57359
 H605 H 0.62726 -0.04916 0.67016
 H606 H 0.61472 0.04944 0.65665
 H607 H 0.74671 0.04149 0.56128
 H608 H 0.70672 -0.04550 0.53059
 H609 H 0.65672 0.04839 0.61761
 H610 H 0.71277 0.04111 0.60727
 H611 H 0.66962 -0.05022 0.63139
 H612 H 0.67241 -0.04587 0.57621
 C613 C -0.11341 0.49798 0.84084
 C614 C -0.12424 0.52630 0.85372
 C615 C -0.14691 0.52680 0.87742
 C616 C -0.15920 0.49899 0.88904
 C617 C -0.14880 0.47068 0.87579
 C618 C -0.12626 0.47019 0.85193
 C619 C -0.08791 0.49745 0.81688
 C620 C -0.06380 0.47441 0.81745
 C621 C -0.03874 0.47498 0.79621
 C622 C -0.03721 0.49855 0.77404
 C623 C -0.06136 0.52131 0.77296
 C624 C -0.08661 0.52067 0.79406
 H625 H -0.15474 0.54904 0.88672
 H626 H -0.15748 0.44879 0.88434
 H627 H -0.02005 0.45742 0.79762
 H628 H -0.06054 0.53995 0.75631
 H629 H -0.11879 0.44799 0.84228
 H630 H -0.06367 0.45651 0.83499
 H631 H -0.11461 0.54814 0.84605
 H632 H -0.10497 0.53852 0.79267
 C633 C 0.33693 -0.00302 0.37866
 C634 C 0.34551 -0.03007 0.36200
 C635 C 0.36931 -0.02931 0.33939
 C636 C 0.38499 -0.00147 0.33284
 C637 C 0.37573 0.02578 0.34878
 C638 C 0.35201 0.02501 0.37147
 C639 C 0.31376 -0.00431 0.40464
 C640 C 0.29196 0.02023 0.41004
 C641 C 0.27208 0.02007 0.43606
 C642 C 0.27353 -0.00466 0.45705
 C643 C 0.29457 -0.02957 0.45125
 C644 C 0.31448 -0.02943 0.42535
 H645 H 0.37559 -0.05057 0.32712
 H646 H 0.38766 0.04750 0.34455
 H647 H 0.25624 0.03969 0.44005
 H648 H 0.29639 -0.04868 0.46743
 H649 H 0.34636 0.04616 0.38419
 H650 H 0.29056 0.03974 0.39435
 H651 H 0.33397 -0.05191 0.36661
 H652 H 0.33133 -0.04844 0.42222
 C653 C 0.10782 0.50324 0.84598
 C654 C 0.12013 0.53130 0.85771
 C655 C 0.14295 0.53129 0.88167
 C656 C 0.15422 0.50320 0.89439
 C657 C 0.14228 0.47512 0.88232
 C658 C 0.11932 0.47514 0.85848
 C659 C 0.08250 0.50330 0.82143
 C660 C 0.08208 0.48034 0.79788
 C661 C 0.05746 0.47972 0.77565
 C662 C 0.03305 0.50224 0.77636
 C663 C 0.03350 0.52534 0.79953
 C664 C 0.05795 0.52589 0.82187
 H665 H 0.15131 0.55336 0.89062
 H666 H 0.15074 0.45306 0.89126
 H667 H 0.05742 0.46139 0.75827
 H668 H 0.01458 0.54267 0.80068
 H669 H 0.11010 0.45311 0.85028
 H670 H 0.10078 0.46280 0.79664
 H671 H 0.11212 0.55335 0.84836
 H672 H 0.05714 0.54355 0.83997
 C673 C 0.65551 0.00671 0.39400
 C674 C 0.66186 -0.00856 0.36558
 C675 C 0.63933 -0.00817 0.34130
 C676 C 0.60971 0.00717 0.34495
 C677 C 0.60362 0.02280 0.37322
 C678 C 0.62630 0.02283 0.39725
 C679 C 0.67864 0.00510 0.42053
 C680 C 0.66753 0.00371 0.45131
 C681 C 0.68891 0.00235 0.47636
 C682 C 0.72191 0.00155 0.47126
 C683 C 0.73328 0.00296 0.44072
 C684 C 0.71186 0.00479 0.41554
 H685 H 0.64515 -0.02002 0.31971
 H686 H 0.58099 0.03451 0.37721
 H687 H 0.67934 0.00195 0.49962
 H688 H 0.75873 0.00278 0.43636
 H689 H 0.62077 0.03542 0.41850
 H690 H 0.64220 0.00333 0.45615
 H691 H 0.68395 -0.02144 0.36228
 H692 H 0.72135 0.00636 0.39224
 C693 C 0.88843 0.50353 0.16077
 C694 C 0.88370 0.52946 0.14162
 C695 C 0.86013 0.52919 0.11837
 C696 C 0.84136 0.50273 0.11349
 C697 C 0.84578 0.47696 0.13294
 C698 C 0.86892 0.47749 0.15663
 C699 C 0.91508 0.50282 0.18355
 C700 C 0.90992 0.49513 0.21481
 C701 C 0.93564 0.49348 0.23583
 C702 C 0.96689 0.49827 0.22555
 C703 C 0.97190 0.50670 0.19451
 C704 C 0.94620 0.50906 0.17372
 H705 H 0.85725 0.54924 0.10351
 H706 H 0.83146 0.45638 0.12962
 H707 H 0.93120 0.48790 0.25994
 H708 H 0.99559 0.51157 0.18615
 H709 H 0.87238 0.45717 0.17101
 H710 H 0.88601 0.49060 0.22292
 H711 H 0.89850 0.54977 0.14447
 H712 H 0.95071 0.51510 0.14973
 C713 C 0.34558 0.00387 0.60479
 C714 C 0.37451 0.01976 0.60149
 C715 C 0.39720 0.02011 0.62551
 C716 C 0.39140 0.00511 0.65384
 C717 C 0.36208 -0.01005 0.65750
 C718 C 0.33955 -0.01083 0.63323
 C719 C 0.32236 0.00203 0.57833
 C720 C 0.28919 0.00200 0.58345
 C721 C 0.26767 0.00014 0.55836
 C722 C 0.27879 -0.00148 0.52765
 C723 C 0.31182 -0.00097 0.52253
 C724 C 0.33332 0.00035 0.54750
 H725 H 0.41961 0.03163 0.62148
 H726 H 0.35647 -0.02142 0.67913
 H727 H 0.24238 0.00071 0.56307
 H728 H 0.32143 -0.00141 0.49929
 H729 H 0.31770 -0.02353 0.63658
 H730 H 0.27979 0.00394 0.60680
 H731 H 0.37979 0.03195 0.58024
 H732 H 0.35862 -0.00022 0.54251
   
