data_POSCAR
  _audit_creation_date              2014-09-24
  _audit_creation_method            'ToBaCCo'
  _symmetry_space_group_name_H-M    'P1'
  _symmetry_Int_Tables_number       1
  _symmetry_cell_setting            triclinic
  loop_
  _symmetry_equiv_pos_as_xyz
 x,y,z
_cell_length_a 55.4161
_cell_length_b 55.0159
_cell_length_c 53.4918
_cell_angle_alpha 90.396000
_cell_angle_beta 90.204600
_cell_angle_gamma 89.812500
loop_
  _atom_site_label
  _atom_site_type_symbol
  _atom_site_fract_x
  _atom_site_fract_y
  _atom_site_fract_z
C1 C 0.28977 0.28444 0.23967
 H2 H 0.29100 0.28448 0.25986
 C3 C 0.30499 0.29930 0.22575
 H4 H 0.31762 0.31104 0.23545
 C5 C 0.27156 0.26922 0.20264
 H6 H 0.25877 0.25722 0.19365
 C7 C 0.28647 0.28370 0.18800
 H8 H 0.28498 0.28257 0.16784
 N9 N 0.27317 0.27011 0.22801
 C10 C 0.21311 0.25887 0.27911
 H11 H 0.21100 0.23939 0.27735
 C12 C 0.19676 0.27237 0.29343
 H13 H 0.18199 0.26309 0.30242
 C14 C 0.23445 0.29458 0.26863
 H15 H 0.24896 0.30327 0.25877
 C16 C 0.21867 0.30874 0.28292
 H17 H 0.22171 0.32813 0.28426
 Zn18 Zn 0.25286 0.25049 0.24791
 N19 N 0.23164 0.27006 0.26726
 C20 C 0.26784 0.22900 0.29365
 N21 N 0.27276 0.23141 0.26891
 C22 C 0.29225 0.22033 0.25841
 C23 C 0.30761 0.20596 0.27290
 C24 C 0.28254 0.21454 0.30876
 C25 C 0.21633 0.24053 0.21300
 C26 C 0.20137 0.22620 0.19793
 C27 C 0.22227 0.19051 0.21291
 C28 C 0.23683 0.20553 0.22769
 N29 N 0.23374 0.23006 0.22735
 H30 H 0.25238 0.23806 0.30170
 H31 H 0.29586 0.22273 0.23872
 H32 H 0.32323 0.19769 0.26418
 H33 H 0.27784 0.21235 0.32823
 H34 H 0.21411 0.26007 0.21328
 H35 H 0.18784 0.23491 0.18637
 H36 H 0.22482 0.17101 0.21367
 H37 H 0.25047 0.19752 0.23956
 C38 C 0.19949 0.29769 0.29561
 C39 C 0.30334 0.29918 0.19953
 C40 C 0.20424 0.20081 0.19776
 C41 C 0.30278 0.20274 0.29845
 C42 C 0.78994 0.78540 0.24287
 H43 H 0.79171 0.78554 0.26302
 C44 C 0.80462 0.80039 0.22854
 H45 H 0.81675 0.81245 0.23842
 C46 C 0.77094 0.76995 0.20650
 H47 H 0.75803 0.75779 0.19791
 C48 C 0.78523 0.78463 0.19139
 H49 H 0.78317 0.78266 0.17138
 N50 N 0.77336 0.77069 0.23176
 C51 C 0.71384 0.75878 0.28334
 H52 H 0.71074 0.73961 0.28024
 C53 C 0.69758 0.77224 0.29781
 H54 H 0.68215 0.76317 0.30581
 C55 C 0.73667 0.79411 0.27515
 H56 H 0.75159 0.80281 0.26601
 C57 C 0.72099 0.80821 0.28961
 H58 H 0.72457 0.82744 0.29183
 Zn59 Zn 0.75369 0.75049 0.25195
 N60 N 0.73306 0.76978 0.27247
 C61 C 0.76316 0.71608 0.28982
 N62 N 0.77356 0.73019 0.27210
 C63 C 0.79781 0.72949 0.26820
 C64 C 0.81260 0.71460 0.28274
 C65 C 0.77728 0.70084 0.30473
 C66 C 0.71450 0.74120 0.22002
 C67 C 0.69925 0.72723 0.20491
 C68 C 0.72467 0.69231 0.21280
 C69 C 0.73934 0.70691 0.22791
 N70 N 0.73403 0.73086 0.23121
 H71 H 0.74385 0.71644 0.29230
 H72 H 0.80578 0.74026 0.25363
 H73 H 0.83189 0.71470 0.27957
 H74 H 0.76857 0.68955 0.31849
 H75 H 0.71076 0.76032 0.22293
 H76 H 0.68385 0.73577 0.19603
 H77 H 0.72902 0.67322 0.21054
 H78 H 0.75501 0.69912 0.23695
 C79 C 0.70104 0.79735 0.30112
 C80 C 0.80252 0.80039 0.20219
 C81 C 0.70427 0.70244 0.20115
 C82 C 0.80240 0.70002 0.30134
 C83 C 0.78538 0.28367 0.73925
 H84 H 0.78630 0.28454 0.75944
 C85 C 0.80086 0.29787 0.72493
 H86 H 0.81341 0.30994 0.73430
 C87 C 0.76760 0.26700 0.70264
 H88 H 0.75489 0.25467 0.69401
 C89 C 0.78279 0.28081 0.68760
 H90 H 0.78159 0.27885 0.66748
 N91 N 0.76897 0.26887 0.72797
 C92 C 0.71170 0.25932 0.78290
 H93 H 0.71067 0.23970 0.78350
 C94 C 0.69631 0.27340 0.79774
 H95 H 0.68377 0.26442 0.81006
 C96 C 0.72960 0.29471 0.76627
 H97 H 0.74229 0.30300 0.75369
 C98 C 0.71447 0.30949 0.78067
 H99 H 0.71574 0.32903 0.77890
 Zn100 Zn 0.74886 0.24988 0.74860
 N101 N 0.72828 0.27010 0.76796
 C102 C 0.76638 0.23070 0.79460
 N103 N 0.76922 0.23101 0.76944
 C104 C 0.78714 0.21813 0.75830
 C105 C 0.80278 0.20375 0.77247
 C106 C 0.78136 0.21637 0.80954
 C107 C 0.71159 0.24008 0.71467
 C108 C 0.69612 0.22591 0.70001
 C109 C 0.71661 0.18999 0.71497
 C110 C 0.73163 0.20485 0.72941
 N111 N 0.72902 0.22942 0.72884
 H112 H 0.75227 0.24132 0.80327
 H113 H 0.78940 0.21916 0.73825
 H114 H 0.81721 0.19496 0.76236
 H115 H 0.77698 0.21599 0.82915
 H116 H 0.70969 0.25966 0.71485
 H117 H 0.68217 0.23476 0.68912
 H118 H 0.71930 0.17049 0.71535
 H119 H 0.74535 0.19668 0.74106
 C120 C 0.69770 0.29888 0.79690
 C121 C 0.79964 0.29660 0.69871
 C122 C 0.69854 0.20048 0.69999
 C123 C 0.80018 0.20218 0.79881
 C124 C 0.28651 0.78354 0.74162
 H125 H 0.28798 0.78402 0.76179
 C126 C 0.30170 0.79791 0.72714
 H127 H 0.31458 0.80970 0.73639
 C128 C 0.26762 0.76773 0.70521
 H129 H 0.25455 0.75570 0.69670
 C130 C 0.28249 0.78172 0.69002
 H131 H 0.28071 0.78019 0.66991
 N132 N 0.26965 0.76911 0.73052
 C133 C 0.21171 0.75954 0.78463
 H134 H 0.21000 0.73995 0.78445
 C135 C 0.19618 0.77365 0.79931
 H136 H 0.18277 0.76475 0.81069
 C137 C 0.23138 0.79485 0.77006
 H138 H 0.24480 0.80314 0.75833
 C139 C 0.21629 0.80964 0.78448
 H140 H 0.21833 0.82919 0.78364
 Zn141 Zn 0.24970 0.75004 0.75128
 N142 N 0.22914 0.77025 0.77070
 C143 C 0.26623 0.72964 0.79712
 N144 N 0.27013 0.73125 0.77211
 C145 C 0.28918 0.71982 0.76117
 C146 C 0.30513 0.70592 0.77546
 C147 C 0.28151 0.71562 0.81206
 C148 C 0.21203 0.73985 0.71787
 C149 C 0.19673 0.72549 0.70320
 C150 C 0.21848 0.68991 0.71713
 C151 C 0.23330 0.70495 0.73160
 N152 N 0.22997 0.72945 0.73154
 H153 H 0.25119 0.73905 0.80558
 H154 H 0.29205 0.72165 0.74127
 H155 H 0.32042 0.69742 0.76635
 H156 H 0.27758 0.71408 0.83179
 H157 H 0.20959 0.75937 0.71844
 H158 H 0.18239 0.73412 0.69269
 H159 H 0.22174 0.67050 0.71706
 H160 H 0.24751 0.69701 0.74279
 C161 C 0.19851 0.79907 0.79951
 C162 C 0.29973 0.79720 0.70095
 C163 C 0.19989 0.70014 0.70264
 C164 C 0.30135 0.70351 0.80131
 C165 C 0.01752 0.04608 0.01788
 H166 H 0.00452 0.05456 0.00568
 C167 C 0.03279 0.06080 0.03217
 H168 H 0.03111 0.08037 0.03086
 C169 C 0.03663 0.01067 0.03327
 H170 H 0.03864 -0.00884 0.03306
 C171 C 0.05233 0.02471 0.04784
 H172 H 0.06570 0.01573 0.05936
 N173 N 0.01922 0.02142 0.01910
 C174 C 0.01278 -0.04373 -0.02134
 H175 H -0.00200 -0.05133 -0.01088
 C176 C 0.02720 -0.05895 -0.03606
 H177 H 0.02358 -0.07827 -0.03643
 C178 C 0.03557 -0.00938 -0.03334
 H179 H 0.03862 0.01001 -0.03217
 C180 C 0.05043 -0.02392 -0.04830
 H181 H 0.06477 -0.01551 -0.05883
 Zn182 Zn -0.00194 0.00126 -0.00011
 N183 N 0.01723 -0.01945 -0.02022
 C184 C -0.02173 0.01731 -0.04617
 N185 N -0.02201 0.02069 -0.02096
 C186 C -0.03679 0.03754 -0.01022
 C187 C -0.05157 0.05222 -0.02497
 C188 C -0.03646 0.03142 -0.06163
 C189 C -0.01119 -0.03305 0.03811
 C190 C -0.02531 -0.04766 0.05346
 C191 C -0.06095 -0.03108 0.03382
 C192 C -0.04615 -0.01683 0.01881
 N193 N -0.02171 -0.01787 0.02126
 H194 H -0.01025 0.00352 -0.05436
 H195 H -0.03695 0.03967 0.00990
 H196 H -0.06263 0.06594 -0.01596
 H197 H -0.03621 0.02810 -0.08159
 H198 H 0.00818 -0.03437 0.03929
 H199 H -0.01651 -0.05992 0.06637
 H200 H -0.08034 -0.02971 0.03171
 H201 H -0.05434 -0.00523 0.00497
 C202 C 0.04636 -0.04908 -0.04976
 C203 C 0.05033 0.05015 0.04762
 C204 C -0.05056 -0.04680 0.05143
 C205 C -0.05157 0.04930 -0.05109
 C206 C 0.03409 0.53419 0.51102
 H207 H 0.03410 0.53571 0.49087
 C208 C 0.04849 0.54964 0.52550
 H209 H 0.05984 0.56277 0.51626
 C210 C 0.01941 0.51494 0.54738
 H211 H 0.00779 0.50165 0.55588
 C212 C 0.03344 0.53008 0.56258
 H213 H 0.03237 0.52826 0.58268
 N214 N 0.02023 0.51700 0.52208
 C215 C 0.01009 0.45816 0.46796
 H216 H -0.00927 0.45594 0.46905
 C217 C 0.02372 0.44265 0.45276
 H218 H 0.01474 0.42859 0.44198
 C219 C 0.04531 0.47930 0.48062
 H220 H 0.05376 0.49333 0.49176
 C221 C 0.05959 0.46440 0.46544
 H222 H 0.07892 0.46715 0.46503
 Zn223 Zn 0.00116 0.49668 0.50124
 N224 N 0.02097 0.47624 0.48128
 C225 C -0.01838 0.51406 0.45547
 N226 N -0.01798 0.51703 0.48073
 C227 C -0.03093 0.53500 0.49205
 C228 C -0.04542 0.55055 0.47790
 C229 C -0.03270 0.52914 0.44061
 C230 C -0.00817 0.45891 0.53480
 C231 C -0.02217 0.44333 0.54924
 C232 C -0.05791 0.46396 0.53431
 C233 C -0.04324 0.47910 0.52012
 N234 N -0.01883 0.47650 0.52080
 H235 H -0.00771 0.49991 0.44676
 H236 H -0.03000 0.53719 0.51214
 H237 H -0.05542 0.56486 0.48728
 H238 H -0.03318 0.52607 0.42061
 H239 H 0.01126 0.45699 0.53468
 H240 H -0.01334 0.42929 0.56006
 H241 H -0.07726 0.46667 0.53386
 H242 H -0.05143 0.49289 0.50858
 C243 C 0.04878 0.44587 0.45119
 C244 C 0.04838 0.54763 0.55167
 C245 C -0.04742 0.44577 0.54915
 C246 C -0.04655 0.54765 0.45180
 C247 C 0.53065 0.03541 0.50964
 H248 H 0.53049 0.03694 0.48948
 C249 C 0.54510 0.05092 0.52399
 H250 H 0.55633 0.06408 0.51465
 C251 C 0.51636 0.01608 0.54613
 H252 H 0.50491 0.00271 0.55473
 C253 C 0.53044 0.03129 0.56120
 H254 H 0.52955 0.02944 0.58131
 N255 N 0.51697 0.01815 0.52082
 C256 C 0.50716 -0.04177 0.46793
 H257 H 0.48785 -0.04434 0.46920
 C258 C 0.52102 -0.05745 0.45312
 H259 H 0.51225 -0.07196 0.44280
 C260 C 0.54205 -0.01967 0.47981
 H261 H 0.55030 -0.00522 0.49051
 C262 C 0.55653 -0.03475 0.46505
 H263 H 0.57581 -0.03167 0.46452
 Zn264 Zn 0.49787 -0.00240 0.50026
 N265 N 0.51776 -0.02312 0.48065
 C266 C 0.47639 0.01295 0.45460
 N267 N 0.47868 0.01764 0.47948
 C268 C 0.46767 0.03718 0.49023
 C269 C 0.45359 0.05290 0.47584
 C270 C 0.46222 0.02801 0.43957
 C271 C 0.48852 -0.04013 0.53375
 C272 C 0.47454 -0.05543 0.54851
 C273 C 0.43895 -0.03368 0.53490
 C274 C 0.45361 -0.01885 0.52035
 N275 N 0.47793 -0.02219 0.52019
 H276 H 0.48540 -0.00254 0.44634
 H277 H 0.46999 0.04064 0.51002
 H278 H 0.44544 0.06860 0.48475
 H279 H 0.46019 0.02352 0.41994
 H280 H 0.50789 -0.04257 0.53301
 H281 H 0.48331 -0.06978 0.55893
 H282 H 0.41968 -0.03042 0.53513
 H283 H 0.44551 -0.00463 0.50927
 C284 C 0.54601 -0.05383 0.45137
 C285 C 0.54523 0.04888 0.55016
 C286 C 0.44938 -0.05228 0.54926
 C287 C 0.45060 0.04838 0.45011
 C288 C 0.53603 0.53826 0.01029
 H289 H 0.53636 0.53899 -0.00991
 C290 C 0.55089 0.55359 0.02437
 H291 H 0.56260 0.56623 0.01486
 C292 C 0.51991 0.52120 0.04719
 H293 H 0.50769 0.50868 0.05602
 C294 C 0.53434 0.53634 0.06199
 H295 H 0.53335 0.53503 0.08215
 N296 N 0.52122 0.52220 0.02183
 C297 C 0.51018 0.46397 -0.03293
 H298 H 0.49069 0.46306 -0.03348
 C299 C 0.52387 0.44830 -0.04793
 H300 H 0.51471 0.43568 -0.06031
 C301 C 0.54567 0.48181 -0.01632
 H302 H 0.55417 0.49456 -0.00368
 C303 C 0.56004 0.46642 -0.03086
 H304 H 0.57947 0.46757 -0.02914
 Zn305 Zn 0.50168 0.50196 0.00144
 N306 N 0.52120 0.48069 -0.01797
 C307 C 0.48169 0.51898 -0.04451
 N308 N 0.48290 0.52249 -0.01935
 C309 C 0.47103 0.54127 -0.00814
 C310 C 0.45694 0.55719 -0.02229
 C311 C 0.46752 0.53424 -0.05932
 C312 C 0.49194 0.46503 0.03560
 C313 C 0.47786 0.44989 0.05042
 C314 C 0.44229 0.47098 0.03571
 C315 C 0.45705 0.48567 0.02111
 N316 N 0.48141 0.48259 0.02146
 H317 H 0.49155 0.50429 -0.05322
 H318 H 0.47260 0.54389 0.01186
 H319 H 0.44801 0.57222 -0.01295
 H320 H 0.46628 0.53056 -0.07918
 H321 H 0.51133 0.46277 0.03525
 H322 H 0.48659 0.43582 0.06128
 H323 H 0.42298 0.47402 0.03549
 H324 H 0.44899 0.49951 0.00951
 C325 C 0.54919 0.44958 -0.04721
 C326 C 0.55021 0.55268 0.05057
 C327 C 0.45265 0.45277 0.05064
 C328 C 0.45485 0.55370 -0.04827
 C329 C 0.15244 -0.15578 -0.15471
 C330 C 0.17719 -0.15071 -0.15687
 C331 C 0.19208 -0.16537 -0.17168
 C332 C 0.18261 -0.18549 -0.18467
 C333 C 0.15790 -0.19067 -0.18244
 C334 C 0.14297 -0.17597 -0.16766
 C335 C 0.13664 -0.14007 -0.13911
 N336 N 0.11257 -0.14437 -0.13755
 N337 N 0.09841 -0.13018 -0.12359
 C338 C 0.10772 -0.11107 -0.11058
 N339 N 0.13179 -0.10679 -0.11213
 N340 N 0.14593 -0.12097 -0.12609
 C341 C 0.09199 -0.09522 -0.09504
 C342 C 0.10186 -0.07594 -0.08101
 C343 C 0.08707 -0.06100 -0.06636
 C344 C 0.06205 -0.06495 -0.06540
 C345 C 0.05216 -0.08421 -0.07944
 C346 C 0.06695 -0.09917 -0.09408
 H347 H 0.18513 -0.13537 -0.14711
 H348 H 0.21111 -0.16111 -0.17273
 H349 H 0.15003 -0.20590 -0.19244
 H350 H 0.12399 -0.18040 -0.16647
 H351 H 0.12106 -0.07241 -0.08122
 H352 H 0.09529 -0.04654 -0.05550
 H353 H 0.03291 -0.08753 -0.07936
 H354 H 0.05871 -0.11378 -0.10471
 C355 C 0.15137 0.34118 0.34100
 C356 C 0.16060 0.35028 0.31850
 C357 C 0.17588 0.33607 0.30365
 C358 C 0.18255 0.31249 0.31104
 C359 C 0.17317 0.30334 0.33349
 C360 C 0.15767 0.31747 0.34822
 C361 C 0.13560 0.35650 0.35698
 N362 N 0.12259 0.34659 0.37580
 N363 N 0.10866 0.36047 0.39033
 C364 C 0.10726 0.38486 0.38674
 N365 N 0.12027 0.39475 0.36792
 N366 N 0.13410 0.38086 0.35332
 C367 C 0.09211 0.40040 0.40313
 C368 C 0.09514 0.42577 0.40341
 C369 C 0.08114 0.44046 0.41910
 C370 C 0.06360 0.43017 0.43462
 C371 C 0.06036 0.40486 0.43421
 C372 C 0.07458 0.39010 0.41874
 H373 H 0.15592 0.36838 0.31227
 H374 H 0.18233 0.34354 0.28624
 H375 H 0.17819 0.28543 0.33998
 H376 H 0.15099 0.30997 0.36552
 H377 H 0.10851 0.43428 0.39167
 H378 H 0.08384 0.45995 0.41889
 H379 H 0.04706 0.39647 0.44613
 H380 H 0.07176 0.37064 0.41892
 C381 C 0.65178 -0.15909 0.34503
 C382 C 0.66224 -0.14976 0.32323
 C383 C 0.67796 -0.16396 0.30891
 C384 C 0.68383 -0.18779 0.31613
 C385 C 0.67323 -0.19719 0.33787
 C386 C 0.65732 -0.18303 0.35210
 C387 C 0.63547 -0.14375 0.36042
 N388 N 0.62187 -0.15360 0.37883
 N389 N 0.60744 -0.13967 0.39279
 C390 C 0.60610 -0.11531 0.38900
 N391 N 0.61969 -0.10549 0.37059
 N392 N 0.63403 -0.11942 0.35657
 C393 C 0.59043 -0.09967 0.40476
 C394 C 0.59301 -0.07426 0.40443
 C395 C 0.57860 -0.05945 0.41958
 C396 C 0.56110 -0.06967 0.43520
 C397 C 0.55826 -0.09503 0.43536
 C398 C 0.57288 -0.10990 0.42041
 H399 H 0.65818 -0.13147 0.31711
 H400 H 0.68536 -0.15630 0.29200
 H401 H 0.67758 -0.21535 0.34417
 H402 H 0.64967 -0.19073 0.36886
 H403 H 0.60635 -0.06578 0.39264
 H404 H 0.58098 -0.03994 0.41890
 H405 H 0.54500 -0.10337 0.44738
 H406 H 0.57039 -0.12940 0.42106
 C407 C 0.65223 0.34381 -0.15631
 C408 C 0.67626 0.35039 -0.16104
 C409 C 0.69096 0.33580 -0.17613
 C410 C 0.68196 0.31433 -0.18703
 C411 C 0.65790 0.30775 -0.18234
 C412 C 0.64323 0.32228 -0.16710
 C413 C 0.63673 0.35935 -0.14025
 N414 N 0.61463 0.35167 -0.13278
 N415 N 0.60080 0.36568 -0.11827
 C416 C 0.60845 0.38800 -0.11069
 N417 N 0.63051 0.39567 -0.11820
 N418 N 0.64436 0.38164 -0.13263
 C419 C 0.59313 0.40367 -0.09456
 C420 C 0.59972 0.42789 -0.08966
 C421 C 0.58542 0.44273 -0.07442
 C422 C 0.56424 0.43369 -0.06354
 C423 C 0.55761 0.40947 -0.06846
 C424 C 0.57186 0.39465 -0.08384
 H425 H 0.68386 0.36675 -0.15290
 H426 H 0.70951 0.34120 -0.17897
 H427 H 0.65029 0.29152 -0.19071
 H428 H 0.62477 0.31673 -0.16396
 H429 H 0.61588 0.43552 -0.09774
 H430 H 0.59083 0.46142 -0.07143
 H431 H 0.54159 0.40183 -0.06012
 H432 H 0.56631 0.37604 -0.08713
 C433 C -0.15492 0.15694 -0.15702
 C434 C -0.16919 0.17501 -0.14589
 C435 C -0.18376 0.19016 -0.16041
 C436 C -0.18501 0.18764 -0.18685
 C437 C -0.17030 0.16918 -0.19769
 C438 C -0.15550 0.15432 -0.18306
 C439 C -0.13962 0.14084 -0.14151
 N440 N -0.12122 0.12791 -0.15183
 N441 N -0.10748 0.11343 -0.13783
 C442 C -0.11169 0.11115 -0.11296
 N443 N -0.13014 0.12402 -0.10265
 N444 N -0.14378 0.13861 -0.11662
 C445 C -0.09646 0.09507 -0.09735
 C446 C -0.10445 0.08754 -0.07376
 C447 C -0.09005 0.07248 -0.05893
 C448 C -0.06716 0.06485 -0.06718
 C449 C -0.05920 0.07240 -0.09084
 C450 C -0.07375 0.08720 -0.10581
 H451 H -0.16881 0.17779 -0.12583
 H452 H -0.19309 0.20439 -0.15036
 H453 H -0.17066 0.16491 -0.21739
 H454 H -0.14490 0.14030 -0.19220
 H455 H -0.12197 0.09309 -0.06681
 H456 H -0.09702 0.06664 -0.04108
 H457 H -0.04153 0.06725 -0.09765
 H458 H -0.06701 0.09283 -0.12383
 C459 C -0.15242 0.65387 0.34683
 C460 C -0.14755 0.65691 0.32127
 C461 C -0.16227 0.67173 0.30652
 C462 C -0.18216 0.68398 0.31699
 C463 C -0.18706 0.68090 0.34254
 C464 C -0.17240 0.66599 0.35727
 C465 C -0.13670 0.63823 0.36248
 N466 N -0.14275 0.63306 0.38645
 N467 N -0.12862 0.61901 0.40048
 C468 C -0.10779 0.60959 0.39118
 N469 N -0.10172 0.61478 0.36723
 N470 N -0.11589 0.62878 0.35318
 C471 C -0.09205 0.59392 0.40678
 C472 C -0.06925 0.58647 0.39812
 C473 C -0.05446 0.57161 0.41276
 C474 C -0.06214 0.56374 0.43637
 C475 C -0.08493 0.57122 0.44504
 C476 C -0.09968 0.58617 0.43045
 H477 H -0.13241 0.64773 0.31256
 H478 H -0.15821 0.67335 0.28682
 H479 H -0.20202 0.69034 0.35127
 H480 H -0.17662 0.66415 0.37691
 H481 H -0.06273 0.59222 0.38005
 H482 H -0.03686 0.56652 0.40568
 H483 H -0.09157 0.56519 0.46296
 H484 H -0.11717 0.59145 0.43766
 C485 C 0.34829 0.15702 0.34415
 C486 C 0.34425 0.15129 0.31886
 C487 C 0.32945 0.16604 0.30410
 C488 C 0.31861 0.18707 0.31417
 C489 C 0.32292 0.19290 0.33946
 C490 C 0.33743 0.17796 0.35430
 C491 C 0.36364 0.14117 0.35988
 N492 N 0.36224 0.14223 0.38521
 N493 N 0.37589 0.12780 0.39935
 C494 C 0.39161 0.11182 0.38876
 N495 N 0.39309 0.11084 0.36343
 N496 N 0.37933 0.12515 0.34928
 C497 C 0.40675 0.09575 0.40446
 C498 C 0.42746 0.08455 0.39457
 C499 C 0.44177 0.06939 0.40940
 C500 C 0.43552 0.06478 0.43439
 C501 C 0.41469 0.07594 0.44421
 C502 C 0.40058 0.09137 0.42947
 H503 H 0.35219 0.13516 0.31054
 H504 H 0.32621 0.16067 0.28487
 H505 H 0.31530 0.20918 0.34777
 H506 H 0.34038 0.18298 0.37368
 H507 H 0.43282 0.08774 0.37543
 H508 H 0.45792 0.06155 0.40131
 H509 H 0.40902 0.07248 0.46319
 H510 H 0.38460 0.09957 0.43758
 C511 C 0.34898 0.65966 -0.15333
 C512 C 0.33818 0.68071 -0.14340
 C513 C 0.32299 0.69506 -0.15815
 C514 C 0.31791 0.68848 -0.18309
 C515 C 0.32870 0.66730 -0.19293
 C516 C 0.34420 0.65318 -0.17829
 C517 C 0.36502 0.64444 -0.13769
 N518 N 0.38113 0.62891 -0.14837
 N519 N 0.39548 0.61513 -0.13429
 C520 C 0.39418 0.61616 -0.10895
 N521 N 0.37803 0.63165 -0.09827
 N522 N 0.36381 0.64557 -0.11235
 C523 C 0.40987 0.60056 -0.09333
 C524 C 0.40352 0.59530 -0.06857
 C525 C 0.41804 0.58010 -0.05400
 C526 C 0.43949 0.57011 -0.06372
 C527 C 0.44597 0.57573 -0.08843
 C528 C 0.43124 0.59061 -0.10311
 H529 H 0.34171 0.68630 -0.12428
 H530 H 0.31548 0.71148 -0.15004
 H531 H 0.32489 0.66134 -0.21186
 H532 H 0.35209 0.63693 -0.18641
 H533 H 0.38705 0.60254 -0.06057
 H534 H 0.41217 0.57585 -0.03526
 H535 H 0.46258 0.56885 -0.09642
 H536 H 0.43674 0.59454 -0.12206
 C537 C -0.15349 -0.15379 0.15718
 C538 C -0.17570 -0.16242 0.14819
 C539 C -0.19010 -0.17742 0.16287
 C540 C -0.18278 -0.18437 0.18716
 C541 C -0.16032 -0.17556 0.19596
 C542 C -0.14599 -0.16055 0.18122
 C543 C -0.13826 -0.13783 0.14156
 N544 N -0.11748 -0.12821 0.15077
 N545 N -0.10381 -0.11388 0.13674
 C546 C -0.11032 -0.10857 0.11289
 N547 N -0.13109 -0.11820 0.10368
 N548 N -0.14477 -0.13250 0.11771
 C549 C -0.09508 -0.09267 0.09722
 C550 C -0.10108 -0.08849 0.07206
 C551 C -0.08667 -0.07362 0.05725
 C552 C -0.06594 -0.06250 0.06725
 C553 C -0.05996 -0.06663 0.09243
 C554 C -0.07434 -0.08155 0.10723
 H555 H -0.18218 -0.15739 0.12981
 H556 H -0.20743 -0.18260 0.15524
 H557 H -0.15304 -0.18088 0.21388
 H558 H -0.12884 -0.15443 0.18867
 H559 H -0.11685 -0.09684 0.06368
 H560 H -0.09159 -0.07112 0.03782
 H561 H -0.04429 -0.05808 0.10079
 H562 H -0.06922 -0.08428 0.12657
 C563 C -0.15349 0.34038 0.65323
 C564 C -0.17759 0.33635 0.64611
 C565 C -0.19276 0.32219 0.66085
 C566 C -0.18417 0.31164 0.68304
 C567 C -0.16005 0.31562 0.69014
 C568 C -0.14490 0.32985 0.67544
 C569 C -0.13747 0.35555 0.63764
 N570 N -0.11491 0.36147 0.64557
 N571 N -0.10061 0.37525 0.63162
 C572 C -0.10824 0.38366 0.60911
 N573 N -0.13078 0.37769 0.60116
 N574 N -0.14508 0.36396 0.61513
 C575 C -0.09245 0.39919 0.59365
 C576 C -0.09965 0.40612 0.56949
 C577 C -0.08497 0.42104 0.55502
 C578 C -0.06277 0.42948 0.56438
 C579 C -0.05548 0.42242 0.58847
 C580 C -0.07013 0.40742 0.60292
 H581 H -0.18487 0.34428 0.62920
 H582 H -0.21134 0.31981 0.65504
 H583 H -0.15276 0.30746 0.70692
 H584 H -0.12640 0.33248 0.68144
 H585 H -0.11664 0.39999 0.56167
 H586 H -0.09093 0.42578 0.53638
 H587 H -0.03863 0.42885 0.59636
 H588 H -0.06405 0.40252 0.62147
 C589 C 0.34531 -0.15811 0.65502
 C590 C 0.32098 -0.16192 0.64861
 C591 C 0.30624 -0.17637 0.66350
 C592 C 0.31547 -0.18746 0.68513
 C593 C 0.33981 -0.18371 0.69152
 C594 C 0.35455 -0.16918 0.67667
 C595 C 0.36089 -0.14266 0.63926
 N596 N 0.38374 -0.13708 0.64653
 N597 N 0.39767 -0.12309 0.63241
 C598 C 0.38938 -0.11413 0.61038
 N599 N 0.36655 -0.11974 0.60310
 N600 N 0.35261 -0.13368 0.61724
 C601 C 0.40483 -0.09847 0.59469
 C602 C 0.39695 -0.09099 0.57093
 C603 C 0.41143 -0.07612 0.55619
 C604 C 0.43410 -0.06830 0.56486
 C605 C 0.44200 -0.07581 0.58859
 C606 C 0.42756 -0.09075 0.60331
 H607 H 0.31322 -0.15358 0.63215
 H608 H 0.28748 -0.17857 0.65825
 H609 H 0.34759 -0.19227 0.70785
 H610 H 0.37322 -0.16674 0.68212
 H611 H 0.37961 -0.09670 0.56362
 H612 H 0.40496 -0.07099 0.53784
 H613 H 0.45922 -0.06983 0.59598
 H614 H 0.43416 -0.09607 0.62156
 C615 C 0.34864 0.34554 0.15503
 C616 C 0.32443 0.34146 0.14830
 C617 C 0.30979 0.32651 0.16276
 C618 C 0.31899 0.31516 0.18426
 C619 C 0.34319 0.31923 0.19101
 C620 C 0.35783 0.33428 0.17659
 C621 C 0.36414 0.36141 0.13962
 N622 N 0.38680 0.36734 0.14723
 N623 N 0.40068 0.38162 0.13336
 C624 C 0.39251 0.39054 0.11126
 N625 N 0.36987 0.38459 0.10365
 N626 N 0.35598 0.37036 0.11753
 C627 C 0.40794 0.40643 0.09577
 C628 C 0.40034 0.41362 0.07182
 C629 C 0.41485 0.42857 0.05720
 C630 C 0.43727 0.43680 0.06620
 C631 C 0.44486 0.42963 0.09015
 C632 C 0.43039 0.41459 0.10475
 H633 H 0.31670 0.34994 0.13190
 H634 H 0.29112 0.32410 0.15725
 H635 H 0.35094 0.31051 0.20726
 H636 H 0.37641 0.33692 0.18227
 H637 H 0.38323 0.40757 0.06424
 H638 H 0.40863 0.43342 0.03868
 H639 H 0.46186 0.43592 0.09779
 H640 H 0.43676 0.40951 0.12315
 C641 C 0.15813 0.15523 0.15240
 C642 C 0.18291 0.15005 0.15468
 C643 C 0.19785 0.16484 0.16935
 C644 C 0.18839 0.18517 0.18206
 C645 C 0.16364 0.19037 0.17976
 C646 C 0.14869 0.17558 0.16512
 C647 C 0.14222 0.13953 0.13691
 N648 N 0.11834 0.14468 0.13449
 N649 N 0.10403 0.13060 0.12059
 C650 C 0.11296 0.11074 0.10851
 N651 N 0.13684 0.10558 0.11093
 N652 N 0.15116 0.11966 0.12483
 C653 C 0.09698 0.09512 0.09301
 C654 C 0.10614 0.07444 0.08064
 C655 C 0.09103 0.05980 0.06598
 C656 C 0.06643 0.06554 0.06330
 C657 C 0.05727 0.08617 0.07569
 C658 C 0.07234 0.10077 0.09038
 H659 H 0.19082 0.13459 0.14510
 H660 H 0.21690 0.16053 0.17048
 H661 H 0.15574 0.20569 0.18960
 H662 H 0.12970 0.18009 0.16386
 H663 H 0.12503 0.06956 0.08220
 H664 H 0.09870 0.04419 0.05642
 H665 H 0.03832 0.09088 0.07429
 H666 H 0.06462 0.11650 0.09968
 C667 C 0.15357 0.65456 0.65743
 C668 C 0.16114 0.67734 0.64870
 C669 C 0.17614 0.69209 0.66333
 C670 C 0.18388 0.68447 0.68709
 C671 C 0.17623 0.66174 0.69585
 C672 C 0.16130 0.64695 0.68119
 C673 C 0.13778 0.63882 0.64184
 N674 N 0.13239 0.61587 0.64912
 N675 N 0.11831 0.60168 0.63507
 C676 C 0.10897 0.60984 0.61315
 N677 N 0.11433 0.63281 0.60589
 N678 N 0.12845 0.64698 0.61991
 C679 C 0.09337 0.59400 0.59748
 C680 C 0.08183 0.60317 0.57606
 C681 C 0.06718 0.58819 0.56127
 C682 C 0.06379 0.56365 0.56749
 C683 C 0.07533 0.55449 0.58890
 C684 C 0.08990 0.56948 0.60375
 H685 H 0.15564 0.68374 0.63044
 H686 H 0.18199 0.70933 0.65586
 H687 H 0.18153 0.65548 0.71422
 H688 H 0.15572 0.62958 0.68857
 H689 H 0.08399 0.62199 0.57075
 H690 H 0.05827 0.59593 0.54512
 H691 H 0.07341 0.53559 0.59401
 H692 H 0.09860 0.56176 0.62003
 C693 C 0.65152 0.15536 0.65511
 C694 C 0.65979 0.17776 0.64603
 C695 C 0.67502 0.19236 0.66056
 C696 C 0.68227 0.18499 0.68456
 C697 C 0.67390 0.16266 0.69368
 C698 C 0.65876 0.14800 0.67911
 C699 C 0.63555 0.13973 0.63963
 N700 N 0.62982 0.11694 0.64712
 N701 N 0.61558 0.10282 0.63317
 C702 C 0.60642 0.11091 0.61115
 N703 N 0.61211 0.13373 0.60367
 N704 N 0.62639 0.14783 0.61760
 C705 C 0.59066 0.09513 0.59560
 C706 C 0.57898 0.10435 0.57428
 C707 C 0.56418 0.08941 0.55961
 C708 C 0.56078 0.06488 0.56585
 C709 C 0.57248 0.05567 0.58715
 C710 C 0.58719 0.07062 0.60188
 H711 H 0.65467 0.18394 0.62758
 H712 H 0.68142 0.20929 0.65282
 H713 H 0.67881 0.15661 0.71224
 H714 H 0.65263 0.13094 0.68677
 H715 H 0.58114 0.12317 0.56897
 H716 H 0.55515 0.09718 0.54354
 H717 H 0.57059 0.03677 0.59226
 H718 H 0.59600 0.06287 0.61808
 C719 C 0.65774 0.65802 0.15520
 C720 C 0.68297 0.65601 0.15327
 C721 C 0.69806 0.67038 0.16821
 C722 C 0.68826 0.68721 0.18527
 C723 C 0.66306 0.68934 0.18711
 C724 C 0.64797 0.67485 0.17232
 C725 C 0.64172 0.64262 0.13952
 N726 N 0.61755 0.64208 0.14363
 N727 N 0.60319 0.62814 0.12964
 C728 C 0.61236 0.61419 0.11087
 N729 N 0.63652 0.61477 0.10672
 N730 N 0.65090 0.62866 0.12076
 C731 C 0.59639 0.59860 0.09534
 C732 C 0.60535 0.58672 0.07393
 C733 C 0.59032 0.57196 0.05933
 C734 C 0.56605 0.56861 0.06591
 C735 C 0.55707 0.58044 0.08731
 C736 C 0.57204 0.59535 0.10181
 H737 H 0.69111 0.64324 0.14030
 H738 H 0.71742 0.66853 0.16621
 H739 H 0.65502 0.70199 0.20029
 H740 H 0.62862 0.67689 0.17428
 H741 H 0.62399 0.58882 0.06838
 H742 H 0.59779 0.56286 0.04308
 H743 H 0.53836 0.57838 0.09267
 H744 H 0.56454 0.60422 0.11817
   
