data_POSCAR
  _audit_creation_date              2014-09-24
  _audit_creation_method            'ToBaCCo'
  _symmetry_space_group_name_H-M    'P1'
  _symmetry_Int_Tables_number       1
  _symmetry_cell_setting            triclinic
  loop_
  _symmetry_equiv_pos_as_xyz
 x,y,z
_cell_length_a 50.5605
_cell_length_b 49.6356
_cell_length_c 58.2933
_cell_angle_alpha 90.034000
_cell_angle_beta 89.970400
_cell_angle_gamma 87.058300
loop_
  _atom_site_label
  _atom_site_type_symbol
  _atom_site_fract_x
  _atom_site_fract_y
  _atom_site_fract_z
C1 C -0.07257 0.30462 -0.00373
 C2 C -0.05925 0.30069 0.01734
 C3 C -0.03140 0.30063 0.01742
 C4 C -0.01687 0.30612 -0.00247
 C5 C -0.03102 0.31103 -0.02305
 C6 C -0.05874 0.30917 -0.02428
 C7 C 0.01298 0.30562 -0.00189
 C8 C 0.02786 0.30127 -0.02218
 C9 C 0.05560 0.30061 -0.02193
 C10 C 0.06888 0.30239 -0.00099
 C11 C 0.05482 0.30550 0.01962
 C12 C 0.02702 0.30837 0.01896
 H13 H -0.09383 0.30383 -0.00413
 H14 H -0.02104 0.29462 0.03290
 H15 H -0.02064 0.31725 -0.03816
 H16 H 0.01820 0.29831 -0.03842
 H17 H 0.09034 0.30084 -0.00068
 H18 H 0.01665 0.31201 0.03495
 C19 C 0.42464 0.79896 0.50096
 C20 C 0.43802 0.80273 0.52165
 C21 C 0.46550 0.80599 0.52123
 C22 C 0.48022 0.80307 0.50058
 C23 C 0.46609 0.79834 0.48021
 C24 C 0.43846 0.79710 0.48017
 C25 C 0.51010 0.80331 0.50036
 C26 C 0.52444 0.80621 0.47966
 C27 C 0.55224 0.80319 0.47917
 C28 C 0.56610 0.79969 0.49983
 C29 C 0.55257 0.79802 0.52067
 C30 C 0.52481 0.79909 0.52075
 H31 H 0.40332 0.79759 0.50105
 H32 H 0.47511 0.80998 0.53729
 H33 H 0.47625 0.79461 0.46416
 H34 H 0.51436 0.80999 0.46360
 H35 H 0.58756 0.79839 0.49968
 H36 H 0.51513 0.79557 0.53689
 C37 C 1.07076 0.70435 0.00195
 C38 C 1.05609 0.70766 0.02238
 C39 C 1.02842 0.70642 0.02118
 C40 C 1.01548 0.69993 0.00071
 C41 C 1.03099 0.69572 -0.01928
 C42 C 1.05857 0.69929 -0.01929
 C43 C 0.98574 0.69902 0.00016
 C44 C 0.97160 0.70360 -0.02045
 C45 C 0.94387 0.70353 -0.02105
 C46 C 0.92985 0.70056 -0.00056
 C47 C 0.94319 0.69698 0.02035
 C48 C 0.97101 0.69493 0.02043
 H49 H 1.09212 0.70369 0.00287
 H50 H 1.01684 0.71206 0.03614
 H51 H 1.02133 0.69086 -0.03507
 H52 H 0.98178 0.70815 -0.03615
 H53 H 0.90841 0.70089 -0.00085
 H54 H 0.98091 0.69096 0.03659
 C55 C 0.57403 0.20518 0.49772
 C56 C 0.56113 0.20063 0.51850
 C57 C 0.53366 0.19752 0.51844
 C58 C 0.51849 0.20142 0.49816
 C59 C 0.53208 0.20705 0.47770
 C60 C 0.55974 0.20811 0.47723
 C61 C 0.48869 0.20085 0.49851
 C62 C 0.47388 0.19748 0.47817
 C63 C 0.44599 0.19904 0.47840
 C64 C 0.43279 0.20180 0.49951
 C65 C 0.44692 0.20449 0.51994
 C66 C 0.47459 0.20482 0.51921
 H67 H 0.59538 0.20625 0.49752
 H68 H 0.52436 0.19280 0.53450
 H69 H 0.52143 0.21149 0.46201
 H70 H 0.48373 0.19425 0.46191
 H71 H 0.41138 0.20166 0.50008
 H72 H 0.48472 0.20907 0.53500
 C73 C 0.69440 -0.07142 -0.00142
 C74 C 0.69602 -0.05767 0.01963
 C75 C 0.69473 -0.02922 0.01926
 C76 C 0.68979 -0.01448 -0.00112
 C77 C 0.68677 -0.02920 -0.02166
 C78 C 0.69041 -0.05741 -0.02207
 C79 C 0.68922 0.01597 -0.00108
 C80 C 0.69357 0.03032 -0.02152
 C81 C 0.69359 0.05871 -0.02201
 C82 C 0.69088 0.07269 -0.00107
 C83 C 0.68792 0.05907 0.01973
 C84 C 0.68578 0.03098 0.01947
 H85 H 0.69514 -0.09322 -0.00200
 H86 H 0.69925 -0.01871 0.03483
 H87 H 0.68243 -0.01904 -0.03768
 H88 H 0.69868 0.01944 -0.03703
 H89 H 0.69012 0.09451 -0.00074
 H90 H 0.68218 0.02108 0.03555
 C91 C 0.18934 0.42666 0.49992
 C92 C 0.18719 0.44034 0.52090
 C93 C 0.18587 0.46872 0.52093
 C94 C 0.18905 0.48359 0.50043
 C95 C 0.19235 0.46896 0.47976
 C96 C 0.19177 0.44076 0.47931
 C97 C 0.18999 0.51395 0.50067
 C98 C 0.18645 0.52945 0.48036
 C99 C 0.18918 0.55753 0.48042
 C100 C 0.19319 0.57059 0.50135
 C101 C 0.19623 0.55595 0.52176
 C102 C 0.19541 0.52778 0.52117
 H103 H 0.18901 0.40485 0.49962
 H104 H 0.18299 0.47882 0.53719
 H105 H 0.19624 0.47904 0.46381
 H106 H 0.18215 0.51998 0.46423
 H107 H 0.19377 0.59237 0.50177
 H108 H 0.19983 0.51696 0.53686
 C109 C 0.32594 1.06719 -0.00169
 C110 C 0.32026 1.05500 0.01929
 C111 C 0.31500 1.02756 0.01984
 C112 C 0.31654 1.01154 -0.00012
 C113 C 0.32231 1.02443 -0.02107
 C114 C 0.32596 1.05240 -0.02229
 C115 C 0.31154 0.98181 0.00090
 C116 C 0.30466 0.96760 -0.01906
 C117 C 0.30113 0.93958 -0.01876
 C118 C 0.30208 0.92628 0.00256
 C119 C 0.30730 0.94008 0.02288
 C120 C 0.31326 0.96735 0.02180
 H121 H 0.32874 1.08866 -0.00192
 H122 H 0.30886 1.01925 0.03598
 H123 H 0.32502 1.01281 -0.03661
 H124 H 0.30299 0.97812 -0.03514
 H125 H 0.29770 0.90521 0.00369
 H126 H 0.31865 0.97708 0.03756
 C127 C 0.81382 0.56559 0.49824
 C128 C 0.81784 0.55188 0.51903
 C129 C 0.82168 0.52362 0.51883
 C130 C 0.81902 0.50861 0.49834
 C131 C 0.81428 0.52313 0.47781
 C132 C 0.81238 0.55140 0.47757
 C133 C 0.81923 0.47819 0.49854
 C134 C 0.82237 0.46285 0.47811
 C135 C 0.81911 0.43487 0.47799
 C136 C 0.81515 0.42159 0.49881
 C137 C 0.81313 0.43603 0.51941
 C138 C 0.81441 0.46416 0.51905
 H139 H 0.81179 0.58743 0.49816
 H140 H 0.82578 0.51366 0.53497
 H141 H 0.81088 0.51287 0.46184
 H142 H 0.82640 0.47241 0.46196
 H143 H 0.81360 0.39990 0.49896
 H144 H 0.81048 0.47482 0.53492
 O145 O 0.25099 0.20900 0.23342
 O146 O 0.22343 0.25790 0.27568
 O147 O 0.21190 0.24491 0.23362
 O148 O 0.26199 0.22146 0.27587
 O149 O 0.28896 0.25182 0.26349
 O150 O 0.23881 0.27506 0.22076
 O151 O 0.25030 0.28817 0.26293
 O152 O 0.27816 0.23922 0.22108
 Cu153 Cu 0.23440 0.23027 0.25589
 Cu154 Cu 0.26675 0.26659 0.24077
 C155 C 0.26913 0.21586 0.21985
 C156 C 0.23241 0.28131 0.27673
 C157 C 0.21681 0.26378 0.21979
 C158 C 0.28387 0.23286 0.27721
 O159 O 0.74919 0.78774 0.23642
 O160 O 0.77297 0.73588 0.27756
 O161 O 0.78660 0.75024 0.23627
 O162 O 0.73541 0.77359 0.27786
 O163 O 0.70795 0.74502 0.26328
 O164 O 0.75909 0.72182 0.22154
 O165 O 0.74542 0.70744 0.26288
 O166 O 0.72146 0.75935 0.22193
 Cu167 Cu 0.76378 0.76472 0.25853
 Cu168 Cu 0.73072 0.73056 0.24094
 C169 C 0.73156 0.78226 0.22188
 C170 C 0.76304 0.71289 0.27745
 C171 C 0.78149 0.73234 0.22155
 C172 C 0.71303 0.76304 0.27790
 O173 O 0.78998 0.24234 0.23186
 O174 O 0.74054 0.22507 0.27487
 O175 O 0.75110 0.21033 0.23270
 O176 O 0.77933 0.25725 0.27417
 O177 O 0.75207 0.29001 0.26147
 O178 O 0.72417 0.24333 0.21992
 O179 O 0.71335 0.25785 0.26207
 O180 O 0.76308 0.27550 0.21930
 Cu181 Cu 0.76798 0.23047 0.25468
 Cu182 Cu 0.73548 0.26997 0.23939
 C183 C 0.78487 0.26165 0.21801
 C184 C 0.71860 0.23867 0.27602
 C185 C 0.73299 0.21891 0.21903
 C186 C 0.77018 0.28157 0.27518
 O187 O 0.26876 0.76064 0.22525
 O188 O 0.24246 0.71321 0.26727
 O189 O 0.22978 0.72859 0.22566
 O190 O 0.28144 0.74518 0.26694
 O191 O 0.25507 0.77790 0.28104
 O192 O 0.20362 0.76167 0.23947
 O193 O 0.21602 0.74597 0.28117
 O194 O 0.24259 0.79343 0.23949
 Cu195 Cu 0.25825 0.73362 0.24487
 Cu196 Cu 0.22668 0.77299 0.26172
 C197 C 0.25993 0.78510 0.22500
 C198 C 0.22495 0.72157 0.28161
 C199 C 0.20805 0.74259 0.22522
 C200 C 0.27696 0.76415 0.28127
 O201 O 0.75267 0.21090 0.76449
 O202 O 0.77507 0.26041 0.72289
 O203 O 0.78764 0.24748 0.76500
 O204 O 0.73989 0.22422 0.72231
 O205 O 0.70988 0.25435 0.73517
 O206 O 0.75729 0.27709 0.77812
 O207 O 0.74503 0.29044 0.73585
 O208 O 0.72222 0.24071 0.77713
 Cu209 Cu 0.76683 0.23272 0.74240
 Cu210 Cu 0.73061 0.26865 0.75789
 C211 C 0.73375 0.21739 0.77806
 C212 C 0.76367 0.28378 0.72204
 C213 C 0.78052 0.26608 0.77904
 C214 C 0.71682 0.23562 0.72121
 O215 O 0.28906 0.74388 0.73764
 O216 O 0.24084 0.72006 0.77944
 O217 O 0.25395 0.70762 0.73725
 O218 O 0.27559 0.75657 0.77982
 O219 O 0.24597 0.78688 0.76665
 O220 O 0.22380 0.73770 0.72462
 O221 O 0.21097 0.75048 0.76690
 O222 O 0.25909 0.77384 0.72453
 Cu223 Cu 0.26788 0.72903 0.75982
 Cu224 Cu 0.23196 0.76524 0.74438
 C225 C 0.28225 0.76262 0.72367
 C226 C 0.21779 0.73145 0.78060
 C227 C 0.23534 0.71440 0.72347
 C228 C 0.26424 0.77998 0.78073
 O229 O 0.25360 0.28965 0.73669
 O230 O 0.28282 0.24392 0.78071
 O231 O 0.29505 0.25679 0.73835
 O232 O 0.24179 0.27687 0.77865
 O233 O 0.21848 0.24335 0.76641
 O234 O 0.27103 0.22445 0.72491
 O235 O 0.26036 0.21052 0.76688
 O236 O 0.22931 0.25704 0.72418
 Cu237 Cu 0.27077 0.27005 0.75988
 Cu238 Cu 0.24239 0.23054 0.74432
 C239 C 0.23651 0.28116 0.72283
 C240 C 0.27641 0.21952 0.78141
 C241 C 0.29191 0.23759 0.72436
 C242 C 0.22124 0.26327 0.77976
 O243 O 0.73758 0.77234 0.72001
 O244 O 0.78932 0.75141 0.76167
 O245 O 0.77677 0.73642 0.72019
 O246 O 0.75051 0.78750 0.76132
 O247 O 0.72419 0.75789 0.77600
 O248 O 0.75035 0.70680 0.73470
 O249 O 0.76296 0.72168 0.77613
 O250 O 0.71132 0.74268 0.73469
 Cu251 Cu 0.76618 0.76488 0.73931
 Cu252 Cu 0.73457 0.72929 0.75684
 C253 C 0.71571 0.76082 0.72003
 C254 C 0.78480 0.73324 0.77629
 C255 C 0.76781 0.71296 0.72019
 C256 C 0.73318 0.78135 0.77595
 C257 C 0.31373 0.10144 0.08158
 C258 C 0.32764 0.07619 0.08132
 C259 C 0.32993 0.06121 0.06106
 C260 C 0.31845 0.07122 0.04063
 C261 C 0.30473 0.09653 0.04083
 C262 C 0.30236 0.11146 0.06109
 C263 C 0.31054 0.11710 0.10319
 C264 C 0.31179 0.14531 0.10301
 C265 C 0.30728 0.16024 0.12305
 C266 C 0.30154 0.14731 0.14378
 C267 C 0.30094 0.11903 0.14409
 C268 C 0.30538 0.10409 0.12401
 C269 C 0.29498 0.16346 0.16465
 C270 C 0.27418 0.15643 0.17913
 C271 C 0.26641 0.17294 0.19760
 C272 C 0.27917 0.19692 0.20190
 C273 C 0.30056 0.20345 0.18793
 C274 C 0.30843 0.18687 0.16955
 H275 H 0.33692 0.06810 0.09676
 H276 H 0.34084 0.04185 0.06129
 H277 H 0.29528 0.10451 0.02543
 H278 H 0.29108 0.13060 0.06082
 H279 H 0.31608 0.15589 0.08732
 H280 H 0.30757 0.18201 0.12215
 H281 H 0.29686 0.10846 0.15984
 H282 H 0.30406 0.08240 0.12467
 H283 H 0.26321 0.13870 0.17567
 H284 H 0.24980 0.16740 0.20801
 H285 H 0.31093 0.22169 0.19092
 H286 H 0.32484 0.19256 0.15897
 C287 C 0.80910 0.59470 0.58324
 C288 C 0.79160 0.60019 0.56494
 C289 C 0.79484 0.58656 0.54412
 C290 C 0.81563 0.56700 0.54103
 C291 C 0.83332 0.56156 0.55926
 C292 C 0.83018 0.57542 0.58013
 C293 C 0.80500 0.60906 0.60542
 C294 C 0.82630 0.61992 0.61712
 C295 C 0.82189 0.63510 0.63716
 C296 C 0.79614 0.63945 0.64602
 C297 C 0.77500 0.62788 0.63465
 C298 C 0.77937 0.61292 0.61459
 C299 C 0.79092 0.65702 0.66636
 C300 C 0.77231 0.65016 0.68302
 C301 C 0.76549 0.66791 0.70095
 C302 C 0.77705 0.69300 0.70260
 C303 C 0.79636 0.69945 0.68641
 C304 C 0.80326 0.68164 0.66852
 H305 H 0.77538 0.61517 0.56671
 H306 H 0.78068 0.59095 0.53052
 H307 H 0.84958 0.54666 0.55733
 H308 H 0.84391 0.57072 0.59398
 H309 H 0.84624 0.61736 0.61039
 H310 H 0.83860 0.64358 0.64565
 H311 H 0.75490 0.63109 0.64087
 H312 H 0.76262 0.60452 0.60610
 H313 H 0.76274 0.63117 0.68199
 H314 H 0.75063 0.66225 0.71317
 H315 H 0.80566 0.71860 0.68719
 H316 H 0.81748 0.68762 0.65585
 C317 C 0.70291 0.89878 0.08248
 C318 C 0.69103 0.92493 0.08195
 C319 C 0.68915 0.93937 0.06142
 C320 C 0.69895 0.92801 0.04065
 C321 C 0.71117 0.90179 0.04147
 C322 C 0.71318 0.88750 0.06205
 C323 C 0.70446 0.88318 0.10419
 C324 C 0.70064 0.85534 0.10411
 C325 C 0.70285 0.84042 0.12434
 C326 C 0.70875 0.85299 0.14520
 C327 C 0.71208 0.88093 0.14539
 C328 C 0.71000 0.89586 0.12509
 C329 C 0.71263 0.83666 0.16638
 C330 C 0.73320 0.84189 0.18171
 C331 C 0.73858 0.82488 0.20038
 C332 C 0.72363 0.80218 0.20403
 C333 C 0.70237 0.79759 0.18928
 C334 C 0.69686 0.81471 0.17071
 H335 H 0.68249 0.93401 0.09733
 H336 H 0.67872 0.95895 0.06184
 H337 H 0.72019 0.89242 0.02644
 H338 H 0.72316 0.86767 0.06201
 H339 H 0.69594 0.84504 0.08836
 H340 H 0.70054 0.81887 0.12352
 H341 H 0.71639 0.89126 0.16121
 H342 H 0.71325 0.91724 0.12570
 H343 H 0.74591 0.85844 0.17873
 H344 H 0.75516 0.82890 0.21140
 H345 H 0.69035 0.78038 0.19177
 H346 H 0.68052 0.81048 0.15949
 C347 C 0.19104 0.39458 0.58397
 C348 C 0.17351 0.41741 0.58204
 C349 C 0.17200 0.43231 0.56160
 C350 C 0.18806 0.42470 0.54272
 C351 C 0.20572 0.40202 0.54485
 C352 C 0.20715 0.38716 0.56514
 C353 C 0.19311 0.37859 0.60553
 C354 C 0.19608 0.35030 0.60463
 C355 C 0.20033 0.33521 0.62463
 C356 C 0.20168 0.34801 0.64608
 C357 C 0.19785 0.37627 0.64709
 C358 C 0.19354 0.39140 0.62703
 C359 C 0.20852 0.33194 0.66700
 C360 C 0.22640 0.34143 0.68322
 C361 C 0.23484 0.32528 0.70173
 C362 C 0.22562 0.29922 0.70448
 C363 C 0.20702 0.29009 0.68873
 C364 C 0.19856 0.30626 0.67023
 H365 H 0.16073 0.42353 0.59622
 H366 H 0.15806 0.44956 0.56047
 H367 H 0.21888 0.39599 0.53089
 H368 H 0.22132 0.37009 0.56624
 H369 H 0.19548 0.33980 0.58836
 H370 H 0.20346 0.31353 0.62317
 H371 H 0.19848 0.38672 0.66337
 H372 H 0.19145 0.41317 0.62828
 H373 H 0.23470 0.36096 0.68112
 H374 H 0.24920 0.33293 0.71353
 H375 H 0.19940 0.27019 0.69041
 H376 H 0.18445 0.29852 0.65826
 C377 C 0.89831 0.28923 0.07934
 C378 C 0.88826 0.28041 0.05839
 C379 C 0.90208 0.28415 0.03799
 C380 C 0.92663 0.29654 0.03800
 C381 C 0.93667 0.30502 0.05931
 C382 C 0.92260 0.30159 0.07962
 C383 C 0.88340 0.28563 0.10085
 C384 C 0.87949 0.30711 0.11638
 C385 C 0.86475 0.30390 0.13639
 C386 C 0.85400 0.27903 0.14134
 C387 C 0.85826 0.25744 0.12597
 C388 C 0.87271 0.26075 0.10584
 C389 C 0.83768 0.27571 0.16210
 C390 C 0.84151 0.25266 0.17588
 C391 C 0.82493 0.24860 0.19459
 C392 C 0.80399 0.26737 0.19970
 C393 C 0.80059 0.29077 0.18625
 C394 C 0.81739 0.29497 0.16769
 H395 H 0.86952 0.27079 0.05776
 H396 H 0.89380 0.27624 0.02242
 H397 H 0.95492 0.31543 0.06037
 H398 H 0.93078 0.30852 0.09561
 H399 H 0.88742 0.32654 0.11282
 H400 H 0.86180 0.32079 0.14804
 H401 H 0.84995 0.23814 0.12930
 H402 H 0.87563 0.24384 0.09420
 H403 H 0.85720 0.23765 0.17203
 H404 H 0.82803 0.23035 0.20462
 H405 H 0.78465 0.30560 0.18979
 H406 H 0.81394 0.31282 0.15722
 C407 C 0.39623 0.79645 0.58588
 C408 C 0.39215 0.77844 0.56778
 C409 C 0.40553 0.78081 0.54700
 C410 C 0.42342 0.80122 0.54374
 C411 C 0.42751 0.81937 0.56178
 C412 C 0.41390 0.81710 0.58261
 C413 C 0.38206 0.79333 0.60800
 C414 C 0.37015 0.81577 0.61941
 C415 C 0.35533 0.81236 0.63943
 C416 C 0.35237 0.78646 0.64858
 C417 C 0.36489 0.76414 0.63745
 C418 C 0.37951 0.76753 0.61742
 C419 C 0.33547 0.78235 0.66907
 C420 C 0.34325 0.76318 0.68581
 C421 C 0.32633 0.75744 0.70394
 C422 C 0.30117 0.77071 0.70576
 C423 C 0.29375 0.79058 0.68948
 C424 C 0.31073 0.79637 0.67136
 H425 H 0.37842 0.76253 0.56965
 H426 H 0.40219 0.76631 0.53356
 H427 H 0.44109 0.83537 0.55972
 H428 H 0.41752 0.83120 0.59631
 H429 H 0.37166 0.83588 0.61249
 H430 H 0.34610 0.82997 0.64773
 H431 H 0.36277 0.74390 0.64387
 H432 H 0.38872 0.74988 0.60917
 H433 H 0.36235 0.75234 0.68473
 H434 H 0.33275 0.74212 0.71624
 H435 H 0.27451 0.80117 0.69037
 H436 H 0.30405 0.81107 0.65863
 C437 C 0.09479 0.71935 0.08616
 C438 C 0.10577 0.72858 0.06572
 C439 C 0.09311 0.72486 0.04476
 C440 C 0.06882 0.71204 0.04368
 C441 C 0.05774 0.70327 0.06449
 C442 C 0.07067 0.70671 0.08537
 C443 C 0.10875 0.72250 0.10821
 C444 C 0.11214 0.70061 0.12338
 C445 C 0.12645 0.70322 0.14369
 C446 C 0.13730 0.72785 0.14931
 C447 C 0.13338 0.74989 0.13438
 C448 C 0.11936 0.74720 0.11395
 C449 C 0.15373 0.73033 0.17012
 C450 C 0.15041 0.75308 0.18435
 C451 C 0.16741 0.75650 0.20288
 C452 C 0.18824 0.73738 0.20736
 C453 C 0.19102 0.71421 0.19352
 C454 C 0.17383 0.71066 0.17515
 H455 H 0.12442 0.73839 0.06591
 H456 H 0.10212 0.73293 0.02958
 H457 H 0.03965 0.69255 0.06475
 H458 H 0.06178 0.69945 0.10095
 H459 H 0.10429 0.68131 0.11924
 H460 H 0.12912 0.68597 0.15499
 H461 H 0.14179 0.76902 0.13822
 H462 H 0.11684 0.76440 0.10260
 H463 H 0.13489 0.76839 0.18092
 H464 H 0.16478 0.77458 0.21322
 H465 H 0.20686 0.69912 0.19658
 H466 H 0.17690 0.69303 0.16432
 C467 C 0.60388 0.20461 0.58237
 C468 C 0.58607 0.18415 0.57882
 C469 C 0.57223 0.18256 0.55805
 C470 C 0.57621 0.20121 0.54038
 C471 C 0.59432 0.22136 0.54391
 C472 C 0.60795 0.22305 0.56461
 C473 C 0.61806 0.20720 0.60452
 C474 C 0.62056 0.23277 0.61440
 C475 C 0.63508 0.23570 0.63453
 C476 C 0.64754 0.21313 0.64530
 C477 C 0.64468 0.18744 0.63567
 C478 C 0.62996 0.18449 0.61553
 C479 C 0.66423 0.21677 0.66597
 C480 C 0.68902 0.20284 0.66815
 C481 C 0.70581 0.20831 0.68648
 C482 C 0.69814 0.22779 0.70306
 C483 C 0.67292 0.24093 0.70133
 C484 C 0.65618 0.23549 0.68301
 H485 H 0.58247 0.16973 0.59225
 H486 H 0.55850 0.16674 0.55578
 H487 H 0.59759 0.23623 0.53076
 H488 H 0.62178 0.23881 0.56671
 H489 H 0.61135 0.25061 0.60646
 H490 H 0.63714 0.25578 0.64133
 H491 H 0.65389 0.16966 0.64367
 H492 H 0.62848 0.16456 0.60824
 H493 H 0.69588 0.18848 0.65520
 H494 H 0.72511 0.19783 0.68730
 H495 H 0.66630 0.25592 0.71386
 H496 H 0.63703 0.24624 0.68201
 C497 C 0.70103 0.10180 0.91535
 C498 C 0.69014 0.07638 0.91553
 C499 C 0.68802 0.06204 0.93601
 C500 C 0.69660 0.07281 0.95703
 C501 C 0.70790 0.09825 0.95653
 C502 C 0.71012 0.11242 0.93603
 C503 C 0.70291 0.11736 0.89375
 C504 C 0.69788 0.14546 0.89380
 C505 C 0.70078 0.16041 0.87380
 C506 C 0.70863 0.14760 0.85321
 C507 C 0.71305 0.11941 0.85300
 C508 C 0.71023 0.10444 0.87308
 C509 C 0.71341 0.16390 0.83242
 C510 C 0.73537 0.15758 0.81827
 C511 C 0.74141 0.17443 0.80003
 C512 C 0.72570 0.19804 0.79566
 C513 C 0.70317 0.20382 0.80925
 C514 C 0.69704 0.18687 0.82738
 H515 H 0.68259 0.06784 0.89989
 H516 H 0.67839 0.04308 0.93532
 H517 H 0.71609 0.10703 0.97177
 H518 H 0.71937 0.13162 0.93635
 H519 H 0.69179 0.15595 0.90937
 H520 H 0.69757 0.18212 0.87463
 H521 H 0.71885 0.10894 0.83735
 H522 H 0.71441 0.08283 0.87253
 H523 H 0.74855 0.14021 0.82184
 H524 H 0.75894 0.16947 0.78989
 H525 H 0.69054 0.22174 0.80617
 H526 H 0.67968 0.19199 0.83769
 C527 C 0.19038 0.60425 0.41791
 C528 C 0.17255 0.58358 0.42026
 C529 C 0.17198 0.56830 0.44049
 C530 C 0.18934 0.57333 0.45868
 C531 C 0.20746 0.59367 0.45601
 C532 C 0.20790 0.60897 0.43597
 C533 C 0.19106 0.62100 0.39681
 C534 C 0.19371 0.64897 0.39851
 C535 C 0.19643 0.66466 0.37886
 C536 C 0.19663 0.65278 0.35697
 C537 C 0.19329 0.62488 0.35519
 C538 C 0.19040 0.60917 0.37491
 C539 C 0.20166 0.66938 0.33632
 C540 C 0.21912 0.65963 0.31910
 C541 C 0.22603 0.67627 0.30091
 C542 C 0.21559 0.70304 0.29950
 C543 C 0.19730 0.71242 0.31623
 C544 C 0.19044 0.69580 0.33442
 H545 H 0.15874 0.57958 0.40663
 H546 H 0.15767 0.55291 0.44202
 H547 H 0.22163 0.59761 0.46937
 H548 H 0.22228 0.62431 0.43448
 H549 H 0.19398 0.65871 0.41514
 H550 H 0.19925 0.68601 0.38088
 H551 H 0.19313 0.61519 0.33855
 H552 H 0.18851 0.58764 0.37308
 H553 H 0.22830 0.63948 0.32017
 H554 H 0.24017 0.66840 0.28831
 H555 H 0.18876 0.73286 0.31561
 H556 H 0.17662 0.70377 0.34722
 C557 C 0.29192 0.89628 0.91892
 C558 C 0.30370 0.88363 0.93810
 C559 C 0.30618 0.89767 0.95867
 C560 C 0.29721 0.92502 0.96062
 C561 C 0.28508 0.93745 0.94121
 C562 C 0.28238 0.92321 0.92073
 C563 C 0.28956 0.88129 0.89713
 C564 C 0.26567 0.88257 0.88484
 C565 C 0.26312 0.86745 0.86482
 C566 C 0.28448 0.85090 0.85658
 C567 C 0.30858 0.85020 0.86863
 C568 C 0.31106 0.86515 0.88874
 C569 C 0.28120 0.83356 0.83612
 C570 C 0.29255 0.80711 0.83561
 C571 C 0.28786 0.79004 0.81717
 C572 C 0.27156 0.79897 0.79891
 C573 C 0.26088 0.82566 0.79905
 C574 C 0.26572 0.84280 0.81742
 H575 H 0.31104 0.86277 0.93720
 H576 H 0.31641 0.88721 0.97260
 H577 H 0.27675 0.95794 0.94182
 H578 H 0.27307 0.93339 0.90617
 H579 H 0.24872 0.89464 0.89108
 H580 H 0.24414 0.86810 0.85619
 H581 H 0.32555 0.83805 0.86253
 H582 H 0.32983 0.86417 0.89772
 H583 H 0.30427 0.79922 0.84986
 H584 H 0.29627 0.76953 0.81763
 H585 H 0.24837 0.83319 0.78515
 H586 H 0.25710 0.86322 0.81710
 C587 C 0.81158 0.39252 0.41387
 C588 C 0.83235 0.40995 0.41702
 C589 C 0.83512 0.42363 0.43788
 C590 C 0.81738 0.41979 0.45604
 C591 C 0.79695 0.40198 0.45292
 C592 C 0.79407 0.38857 0.43212
 C593 C 0.80765 0.37869 0.39162
 C594 C 0.78208 0.37755 0.38237
 C595 C 0.77785 0.36335 0.36214
 C596 C 0.79907 0.34982 0.35067
 C597 C 0.82476 0.35131 0.35967
 C598 C 0.82903 0.36576 0.37989
 C599 C 0.79397 0.33339 0.32995
 C600 C 0.80607 0.30744 0.32732
 C601 C 0.79905 0.29088 0.30909
 C602 C 0.77985 0.29998 0.29303
 C603 C 0.76863 0.32637 0.29513
 C604 C 0.77557 0.34285 0.31338
 H605 H 0.84607 0.41344 0.40320
 H606 H 0.85110 0.43715 0.43984
 H607 H 0.78276 0.39887 0.46647
 H608 H 0.77807 0.37502 0.43030
 H609 H 0.76526 0.38757 0.39090
 H610 H 0.75779 0.36234 0.35582
 H611 H 0.84152 0.34124 0.35111
 H612 H 0.84893 0.36621 0.38669
 H613 H 0.82016 0.29950 0.33991
 H614 H 0.80809 0.27066 0.30797
 H615 H 0.75388 0.33409 0.28302
 H616 H 0.76621 0.36290 0.31474
 C617 C 0.10071 0.29274 0.91565
 C618 C 0.07931 0.27632 0.91953
 C619 C 0.06450 0.27892 0.93974
 C620 C 0.07088 0.29792 0.95645
 C621 C 0.09206 0.31451 0.95246
 C622 C 0.10677 0.31200 0.93227
 C623 C 0.11711 0.28947 0.89464
 C624 C 0.14473 0.29100 0.89594
 C625 C 0.16033 0.28804 0.87629
 C626 C 0.14869 0.28339 0.85488
 C627 C 0.12110 0.28165 0.85352
 C628 C 0.10543 0.28472 0.87322
 C629 C 0.16559 0.27984 0.83424
 C630 C 0.16148 0.25898 0.81853
 C631 C 0.17904 0.25413 0.80029
 C632 C 0.20097 0.27009 0.79739
 C633 C 0.20437 0.29166 0.81255
 C634 C 0.18688 0.29646 0.83077
 H635 H 0.07439 0.26106 0.90719
 H636 H 0.04841 0.26570 0.94252
 H637 H 0.09709 0.32962 0.96491
 H638 H 0.12281 0.32529 0.92958
 H639 H 0.15437 0.29405 0.91225
 H640 H 0.18160 0.28888 0.87793
 H641 H 0.11162 0.27827 0.83719
 H642 H 0.08416 0.28374 0.87165
 H643 H 0.14531 0.24576 0.82089
 H644 H 0.17589 0.23736 0.78888
 H645 H 0.22096 0.30445 0.81072
 H646 H 0.19023 0.31297 0.84240
 C647 C 0.59443 0.79669 0.41486
 C648 C 0.60037 0.77871 0.43295
 C649 C 0.58682 0.78114 0.45376
 C650 C 0.56690 0.80158 0.45705
 C651 C 0.56091 0.81967 0.43901
 C652 C 0.57469 0.81736 0.41815
 C653 C 0.60892 0.79359 0.39275
 C654 C 0.61872 0.81603 0.38148
 C655 C 0.63400 0.81263 0.36152
 C656 C 0.63953 0.78675 0.35231
 C657 C 0.62907 0.76444 0.36327
 C658 C 0.61400 0.76781 0.38325
 C659 C 0.65711 0.78266 0.33199
 C660 C 0.65136 0.76368 0.31503
 C661 C 0.66910 0.75798 0.29705
 C662 C 0.69307 0.77106 0.29564
 C663 C 0.69839 0.79072 0.31216
 C664 C 0.68059 0.79649 0.33011
 H665 H 0.61569 0.76279 0.43105
 H666 H 0.59166 0.76669 0.46722
 H667 H 0.54573 0.83568 0.44110
 H668 H 0.56963 0.83143 0.40446
 H669 H 0.61523 0.83612 0.38847
 H670 H 0.64161 0.83023 0.35335
 H671 H 0.63319 0.74421 0.35678
 H672 H 0.60645 0.75017 0.39140
 H673 H 0.63326 0.75297 0.31583
 H674 H 0.66431 0.74281 0.28458
 H675 H 0.71666 0.80117 0.31158
 H676 H 0.68570 0.81103 0.34301
 C677 C 0.90096 0.71086 0.91534
 C678 C 0.89191 0.72508 0.93491
 C679 C 0.90604 0.72307 0.95545
 C680 C 0.92952 0.70677 0.95686
 C681 C 0.93886 0.69296 0.93717
 C682 C 0.92473 0.69500 0.91661
 C683 C 0.88527 0.71209 0.89387
 C684 C 0.89771 0.71431 0.87244
 C685 C 0.88270 0.71578 0.85229
 C686 C 0.85499 0.71489 0.85321
 C687 C 0.84262 0.71241 0.87464
 C688 C 0.85758 0.71102 0.89473
 C689 C 0.83876 0.71748 0.83209
 C690 C 0.81658 0.70188 0.82923
 C691 C 0.79964 0.70626 0.81057
 C692 C 0.80453 0.72630 0.79432
 C693 C 0.82739 0.74104 0.79659
 C694 C 0.84434 0.73667 0.81529
 H695 H 0.87391 0.73787 0.93430
 H696 H 0.89863 0.73435 0.97022
 H697 H 0.95675 0.68001 0.93784
 H698 H 0.93202 0.68358 0.90187
 H699 H 0.91901 0.71534 0.87128
 H700 H 0.89276 0.71753 0.83600
 H701 H 0.82127 0.71206 0.87593
 H702 H 0.84748 0.70896 0.91097
 H703 H 0.81206 0.68660 0.84169
 H704 H 0.78230 0.69442 0.80923
 H705 H 0.83169 0.75665 0.78436
 H706 H 0.86118 0.74912 0.81713
 C707 C 0.40061 0.20099 0.41553
 C708 C 0.39299 0.21745 0.43423
 C709 C 0.40775 0.21669 0.45446
 C710 C 0.43045 0.19929 0.45666
 C711 C 0.43820 0.18286 0.43788
 C712 C 0.42348 0.18378 0.41749
 C713 C 0.38462 0.20209 0.39413
 C714 C 0.39683 0.20319 0.37250
 C715 C 0.38151 0.20612 0.35254
 C716 C 0.35368 0.20770 0.35381
 C717 C 0.34156 0.20589 0.37542
 C718 C 0.35683 0.20317 0.39531
 C719 C 0.33717 0.21226 0.33292
 C720 C 0.31361 0.19879 0.33009
 C721 C 0.29678 0.20485 0.31158
 C722 C 0.30306 0.22459 0.29546
 C723 C 0.32709 0.23739 0.29782
 C724 C 0.34399 0.23125 0.31633
 H725 H 0.37580 0.23132 0.43308
 H726 H 0.40157 0.23016 0.46829
 H727 H 0.45542 0.16905 0.43904
 H728 H 0.42970 0.17073 0.40339
 H729 H 0.41820 0.20257 0.37107
 H730 H 0.39140 0.20724 0.33612
 H731 H 0.32020 0.20734 0.37702
 H732 H 0.34687 0.20209 0.41171
 H733 H 0.30800 0.18377 0.34240
 H734 H 0.27850 0.19450 0.31024
 H735 H 0.33253 0.25269 0.28571
 H736 H 0.36189 0.24213 0.31813
 C737 C 0.69670 0.89982 0.91355
 C738 C 0.71477 0.89418 0.93141
 C739 C 0.71236 0.90786 0.95227
 C740 C 0.69186 0.92762 0.95583
 C741 C 0.67363 0.93325 0.93804
 C742 C 0.67592 0.91932 0.91713
 C743 C 0.69989 0.88536 0.89133
 C744 C 0.67812 0.87452 0.88031
 C745 C 0.68171 0.85926 0.86020
 C746 C 0.70710 0.85484 0.85061
 C747 C 0.72870 0.86635 0.86133
 C748 C 0.72515 0.88137 0.88146
 C749 C 0.71150 0.83730 0.83013
 C750 C 0.72940 0.84427 0.81293
 C751 C 0.73567 0.82652 0.79487
 C752 C 0.72425 0.80133 0.79362
 C753 C 0.70555 0.79480 0.81033
 C754 C 0.69921 0.81262 0.82836
 H755 H 0.73078 0.87904 0.92926
 H756 H 0.72688 0.90330 0.96555
 H757 H 0.65758 0.94829 0.94035
 H758 H 0.66177 0.92412 0.90362
 H759 H 0.65846 0.87717 0.88760
 H760 H 0.66467 0.85080 0.85222
 H761 H 0.74854 0.86308 0.85454
 H762 H 0.74225 0.88973 0.88943
 H763 H 0.73890 0.86331 0.81364
 H764 H 0.75005 0.83226 0.78224
 H765 H 0.69638 0.77556 0.80987
 H766 H 0.68551 0.80658 0.84145
 C767 C 0.19725 0.39649 0.41586
 C768 C 0.21185 0.38757 0.43516
 C769 C 0.21029 0.40209 0.45566
 C770 C 0.19414 0.42588 0.45730
 C771 C 0.17983 0.43506 0.43792
 C772 C 0.18136 0.42050 0.41739
 C773 C 0.19866 0.38069 0.39426
 C774 C 0.20022 0.39366 0.37292
 C775 C 0.20286 0.37859 0.35271
 C776 C 0.20394 0.35025 0.35345
 C777 C 0.20172 0.33733 0.37476
 C778 C 0.19907 0.35238 0.39492
 C779 C 0.20892 0.33406 0.33235
 C780 C 0.19631 0.30979 0.32893
 C781 C 0.20320 0.29309 0.31035
 C782 C 0.22281 0.30035 0.29477
 C783 C 0.23455 0.32519 0.29760
 C784 C 0.22771 0.34184 0.31621
 H785 H 0.22470 0.36946 0.43435
 H786 H 0.22190 0.39481 0.47020
 H787 H 0.16701 0.45319 0.43880
 H788 H 0.16969 0.42772 0.40287
 H789 H 0.20010 0.41545 0.37189
 H790 H 0.20427 0.38910 0.33652
 H791 H 0.20282 0.31554 0.37594
 H792 H 0.19751 0.34183 0.41108
 H793 H 0.18143 0.30348 0.34088
 H794 H 0.19366 0.27416 0.30855
 H795 H 0.24975 0.33136 0.28591
 H796 H 0.23798 0.36027 0.31849
 C797 C 0.32573 0.09628 0.91482
 C798 C 0.31176 0.07257 0.91704
 C799 C 0.31323 0.05725 0.93717
 C800 C 0.32780 0.06570 0.95626
 C801 C 0.34251 0.08889 0.95375
 C802 C 0.34191 0.10356 0.93325
 C803 C 0.32226 0.11401 0.89406
 C804 C 0.32556 0.14197 0.89553
 C805 C 0.32074 0.15883 0.87663
 C806 C 0.31140 0.14860 0.85578
 C807 C 0.30856 0.12057 0.85414
 C808 C 0.31434 0.10354 0.87281
 C809 C 0.30374 0.16714 0.83629
 C810 C 0.30415 0.15796 0.81335
 C811 C 0.29533 0.17494 0.79544
 C812 C 0.28687 0.20176 0.79990
 C813 C 0.28719 0.21133 0.82249
 C814 C 0.29505 0.19416 0.84049
 H815 H 0.29859 0.06627 0.90369
 H816 H 0.30108 0.03996 0.93827
 H817 H 0.35501 0.09557 0.96748
 H818 H 0.35406 0.12081 0.93211
 H819 H 0.33119 0.15126 0.91145
 H820 H 0.32413 0.18003 0.87864
 H821 H 0.30118 0.11162 0.83865
 H822 H 0.31223 0.08215 0.87047
 H823 H 0.31127 0.13767 0.80907
 H824 H 0.29535 0.16722 0.77805
 H825 H 0.28032 0.23188 0.82634
 H826 H 0.29350 0.20208 0.85774
 C827 C 0.79993 0.59403 0.41402
 C828 C 0.78480 0.60129 0.43350
 C829 C 0.78888 0.58750 0.45416
 C830 C 0.80802 0.56606 0.45569
 C831 C 0.82304 0.55870 0.43618
 C832 C 0.81912 0.57264 0.41556
 C833 C 0.79577 0.60895 0.39225
 C834 C 0.81748 0.61719 0.37945
 C835 C 0.81347 0.63236 0.35945
 C836 C 0.78768 0.63933 0.35180
 C837 C 0.76601 0.63058 0.36434
 C838 C 0.77001 0.61561 0.38441
 C839 C 0.78322 0.65673 0.33141
 C840 C 0.76355 0.65108 0.31537
 C841 C 0.75769 0.66883 0.29729
 C842 C 0.77128 0.69269 0.29499
 C843 C 0.79160 0.69785 0.31059
 C844 C 0.79756 0.68000 0.32858
 H845 H 0.77005 0.61788 0.43282
 H846 H 0.77688 0.59341 0.46890
 H847 H 0.83804 0.54234 0.43698
 H848 H 0.83090 0.56654 0.40074
 H849 H 0.83754 0.61246 0.38522
 H850 H 0.83050 0.63874 0.35001
 H851 H 0.74592 0.63592 0.35896
 H852 H 0.75295 0.60928 0.39385
 H853 H 0.75244 0.63310 0.31702
 H854 H 0.74197 0.66424 0.28553
 H855 H 0.80244 0.71604 0.30926
 H856 H 0.81268 0.68494 0.34082
 C857 C 0.10378 0.69906 0.91861
 C858 C 0.08049 0.68492 0.91986
 C859 C 0.06570 0.68460 0.94021
 C860 C 0.07374 0.69856 0.96001
 C861 C 0.09724 0.71275 0.95836
 C862 C 0.11193 0.71293 0.93811
 C863 C 0.11950 0.69993 0.89706
 C864 C 0.14732 0.69822 0.89788
 C865 C 0.16227 0.70102 0.87796
 C866 C 0.14982 0.70560 0.85665
 C867 C 0.12198 0.70663 0.85571
 C868 C 0.10698 0.70375 0.87569
 C869 C 0.16596 0.71044 0.83583
 C870 C 0.15814 0.73087 0.82016
 C871 C 0.17455 0.73712 0.80177
 C872 C 0.19916 0.72310 0.79863
 C873 C 0.20652 0.70202 0.81380
 C874 C 0.19011 0.69576 0.83215
 H875 H 0.07390 0.67370 0.90517
 H876 H 0.04854 0.67250 0.94035
 H877 H 0.10394 0.72506 0.97230
 H878 H 0.12941 0.72465 0.93753
 H879 H 0.15756 0.69497 0.91403
 H880 H 0.18365 0.70041 0.87937
 H881 H 0.11179 0.70986 0.83954
 H882 H 0.08558 0.70532 0.87452
 H883 H 0.13979 0.74275 0.82262
 H884 H 0.16829 0.75350 0.79043
 H885 H 0.22526 0.69069 0.81181
 H886 H 0.19651 0.67960 0.84366
 C887 C 0.60237 0.21782 0.41414
 C888 C 0.58057 0.20143 0.41494
 C889 C 0.56642 0.19868 0.43532
 C890 C 0.57377 0.21233 0.45528
 C891 C 0.59515 0.22928 0.45429
 C892 C 0.60932 0.23196 0.43394
 C893 C 0.61839 0.21952 0.39297
 C894 C 0.64615 0.21850 0.39428
 C895 C 0.66141 0.22001 0.37444
 C896 C 0.64926 0.22262 0.35284
 C897 C 0.62148 0.22361 0.35148
 C898 C 0.60618 0.22196 0.37136
 C899 C 0.66568 0.22502 0.33197
 C900 C 0.65883 0.24443 0.31518
 C901 C 0.67560 0.24829 0.29655
 C902 C 0.69951 0.23276 0.29432
 C903 C 0.70580 0.21263 0.31064
 C904 C 0.68907 0.20882 0.32928
 H905 H 0.57495 0.19008 0.39999
 H906 H 0.55021 0.18524 0.43565
 H907 H 0.60094 0.24046 0.46927
 H908 H 0.62575 0.24513 0.43368
 H909 H 0.65609 0.21628 0.41067
 H910 H 0.68277 0.21955 0.37604
 H911 H 0.61162 0.22548 0.33503
 H912 H 0.58480 0.22296 0.36989
 H913 H 0.64101 0.25732 0.31692
 H914 H 0.67020 0.26397 0.28425
 H915 H 0.72400 0.20023 0.30936
 H916 H 0.69461 0.19341 0.34177
 C917 C 0.89945 0.30768 0.91223
 C918 C 0.88688 0.31795 0.93207
 C919 C 0.90073 0.31932 0.95276
 C920 C 0.92774 0.31059 0.95426
 C921 C 0.94053 0.30166 0.93383
 C922 C 0.92651 0.30000 0.91324
 C923 C 0.88398 0.30360 0.89095
 C924 C 0.88703 0.27921 0.87877
 C925 C 0.87118 0.27441 0.85971
 C926 C 0.85200 0.29399 0.85220
 C927 C 0.84946 0.31870 0.86407
 C928 C 0.86517 0.32339 0.88329
 C929 C 0.83409 0.28818 0.83268
 C930 C 0.80732 0.29745 0.83304
 C931 C 0.79013 0.29083 0.81536
 C932 C 0.79920 0.27455 0.79695
 C933 C 0.82602 0.26564 0.79633
 C934 C 0.84328 0.27248 0.81391
 H935 H 0.86604 0.32416 0.93179
 H936 H 0.89008 0.32768 0.96743
 H937 H 0.96099 0.29414 0.93384
 H938 H 0.93677 0.29221 0.89812
 H939 H 0.90108 0.26342 0.88449
 H940 H 0.87340 0.25497 0.85132
 H941 H 0.83529 0.33445 0.85855
 H942 H 0.86260 0.34250 0.89220
 H943 H 0.79938 0.30919 0.84736
 H944 H 0.76955 0.29790 0.81643
 H945 H 0.83367 0.25323 0.78230
 H946 H 0.86385 0.26540 0.81280
 C947 C 0.39621 0.78743 0.41690
 C948 C 0.41664 0.80550 0.41833
 C949 C 0.43049 0.80843 0.43882
 C950 C 0.42409 0.79346 0.45833
 C951 C 0.40376 0.77530 0.45687
 C952 C 0.38999 0.77227 0.43634
 C953 C 0.38108 0.78473 0.39534
 C954 C 0.37440 0.75920 0.38750
 C955 C 0.35923 0.75673 0.36768
 C956 C 0.35032 0.77976 0.35534
 C957 C 0.35735 0.80527 0.36297
 C958 C 0.37265 0.80773 0.38274
 C959 C 0.33278 0.77715 0.33520
 C960 C 0.31028 0.79466 0.33252
 C961 C 0.29253 0.79092 0.31459
 C962 C 0.29698 0.76964 0.29892
 C963 C 0.31997 0.75270 0.30114
 C964 C 0.33766 0.75638 0.31914
 H965 H 0.42199 0.81726 0.40355
 H966 H 0.44595 0.82272 0.43953
 H967 H 0.39860 0.76333 0.47158
 H968 H 0.37416 0.75840 0.43579
 H969 H 0.38088 0.74113 0.39674
 H970 H 0.35387 0.73684 0.36233
 H971 H 0.35092 0.82333 0.35369
 H972 H 0.37733 0.82768 0.38849
 H973 H 0.30588 0.81067 0.34478
 H974 H 0.27500 0.80432 0.31335
 H975 H 0.32399 0.73616 0.28931
 H976 H 0.35504 0.74281 0.32063
 C977 C 0.29893 0.89960 0.08778
 C978 C 0.27986 0.89768 0.07042
 C979 C 0.28278 0.91076 0.04947
 C980 C 0.30483 0.92617 0.04530
 C981 C 0.32393 0.92826 0.06264
 C982 C 0.32109 0.91493 0.08365
 C983 C 0.29546 0.88544 0.10996
 C984 C 0.31672 0.87071 0.12033
 C985 C 0.31276 0.85574 0.14030
 C986 C 0.28751 0.85541 0.15042
 C987 C 0.26647 0.87079 0.14037
 C988 C 0.27040 0.88559 0.12040
 C989 C 0.28262 0.83824 0.17076
 C990 C 0.26543 0.84763 0.18831
 C991 C 0.25878 0.83064 0.20631
 C992 C 0.26913 0.80383 0.20720
 C993 C 0.28710 0.79473 0.19011
 C994 C 0.29378 0.81175 0.17210
 H995 H 0.26274 0.88577 0.07296
 H996 H 0.26756 0.90907 0.03656
 H997 H 0.34115 0.93993 0.05985
 H998 H 0.33603 0.91688 0.09677
 H999 H 0.33623 0.87010 0.11261
 H1000 H 0.32941 0.84428 0.14776
 H1001 H 0.24672 0.87075 0.14755
 H1002 H 0.25370 0.89700 0.11296
 H1003 H 0.25683 0.86805 0.18796
 H1004 H 0.24501 0.83837 0.21925
 H1005 H 0.29543 0.77419 0.19027
 H1006 H 0.30689 0.80382 0.15874
 C1007 C 0.80031 0.39554 0.58333
 C1008 C 0.78602 0.38884 0.56364
 C1009 C 0.79026 0.40186 0.54284
 C1010 C 0.80878 0.42193 0.54136
 C1011 C 0.82304 0.42865 0.56105
 C1012 C 0.81891 0.41552 0.58182
 C1013 C 0.79590 0.38157 0.60533
 C1014 C 0.81745 0.37259 0.61901
 C1015 C 0.81329 0.35849 0.63931
 C1016 C 0.78748 0.35329 0.64639
 C1017 C 0.76592 0.36277 0.63294
 C1018 C 0.77009 0.37671 0.61259
 C1019 C 0.78300 0.33690 0.66712
 C1020 C 0.76225 0.34407 0.68231
 C1021 C 0.75659 0.32731 0.70072
 C1022 C 0.77148 0.30297 0.70420
 C1023 C 0.79282 0.29629 0.68945
 C1024 C 0.79856 0.31312 0.67113
 H1025 H 0.77176 0.37331 0.56428
 H1026 H 0.77883 0.39648 0.52797
 H1027 H 0.83756 0.44393 0.56031
 H1028 H 0.83005 0.42120 0.59678
 H1029 H 0.83756 0.37592 0.61372
 H1030 H 0.83024 0.35155 0.64945
 H1031 H 0.74584 0.35878 0.63786
 H1032 H 0.75312 0.38367 0.60248
 H1033 H 0.75016 0.36247 0.67976
 H1034 H 0.74005 0.33305 0.71181
 H1035 H 0.80469 0.27769 0.69169
 H1036 H 0.81452 0.30698 0.65957
 C1037 C 0.69127 0.10430 0.08292
 C1038 C 0.70784 0.10975 0.06435
 C1039 C 0.70667 0.09495 0.04409
 C1040 C 0.68873 0.07439 0.04170
 C1041 C 0.67233 0.06863 0.06039
 C1042 C 0.67365 0.08341 0.08085
 C1043 C 0.69278 0.12052 0.10426
 C1044 C 0.69368 0.10810 0.12593
 C1045 C 0.69758 0.12338 0.14576
 C1046 C 0.70039 0.15138 0.14430
 C1047 C 0.69858 0.16383 0.12268
 C1048 C 0.69484 0.14860 0.10292
 C1049 C 0.70659 0.16755 0.16492
 C1050 C 0.69519 0.19377 0.16781
 C1051 C 0.70314 0.21010 0.18581
 C1052 C 0.72269 0.20062 0.20139
 C1053 C 0.73333 0.17402 0.19906
 C1054 C 0.72535 0.15766 0.18104
 H1055 H 0.72205 0.12529 0.06561
 H1056 H 0.72014 0.09944 0.03032
 H1057 H 0.65821 0.05303 0.05909
 H1058 H 0.66060 0.07885 0.09490
 H1059 H 0.69228 0.08648 0.12745
 H1060 H 0.69866 0.11326 0.16220
 H1061 H 0.70095 0.18529 0.12090
 H1062 H 0.69393 0.15876 0.08648
 H1063 H 0.68040 0.20182 0.15589
 H1064 H 0.69439 0.23042 0.18719
 H1065 H 0.74841 0.16608 0.21077
 H1066 H 0.73469 0.13765 0.17917
 C1067 C 0.20623 0.59895 0.58503
 C1068 C 0.18997 0.57686 0.58417
 C1069 C 0.18706 0.56262 0.56372
 C1070 C 0.20038 0.57018 0.54375
 C1071 C 0.21710 0.59189 0.54477
 C1072 C 0.21997 0.60613 0.56518
 C1073 C 0.20844 0.61490 0.60638
 C1074 C 0.20813 0.64318 0.60538
 C1075 C 0.21055 0.65835 0.62535
 C1076 C 0.21334 0.64559 0.64678
 C1077 C 0.21343 0.61730 0.64783
 C1078 C 0.21092 0.60209 0.62782
 C1079 C 0.21708 0.66186 0.66774
 C1080 C 0.23632 0.65373 0.68405
 C1081 C 0.24161 0.67036 0.70266
 C1082 C 0.22775 0.69545 0.70533
 C1083 C 0.20776 0.70305 0.68953
 C1084 C 0.20249 0.68643 0.67094
 H1085 H 0.17894 0.57105 0.59915
 H1086 H 0.17382 0.54615 0.56337
 H1087 H 0.22801 0.59784 0.52976
 H1088 H 0.23304 0.62275 0.56547
 H1089 H 0.20590 0.65361 0.58913
 H1090 H 0.21076 0.68009 0.62395
 H1091 H 0.21539 0.60694 0.66414
 H1092 H 0.21137 0.58031 0.62907
 H1093 H 0.24802 0.63501 0.68192
 H1094 H 0.25714 0.66394 0.71453
 H1095 H 0.19661 0.72217 0.69118
 H1096 H 0.18724 0.69299 0.65884
 C1097 C 0.89974 0.70118 0.08409
 C1098 C 0.92009 0.68113 0.08086
 C1099 C 0.93420 0.67947 0.06014
 C1100 C 0.92793 0.69760 0.04218
 C1101 C 0.90731 0.71732 0.04538
 C1102 C 0.89343 0.71911 0.06606
 C1103 C 0.88515 0.70384 0.10618
 C1104 C 0.87965 0.72947 0.11581
 C1105 C 0.86464 0.73243 0.13585
 C1106 C 0.85464 0.70983 0.14673
 C1107 C 0.86053 0.68410 0.13735
 C1108 C 0.87578 0.68111 0.11734
 C1109 C 0.83722 0.71349 0.16718
 C1110 C 0.81387 0.69944 0.16908
 C1111 C 0.79614 0.70492 0.18714
 C1112 C 0.80143 0.72448 0.20376
 C1113 C 0.82530 0.73772 0.20235
 C1114 C 0.84296 0.73232 0.18426
 H1115 H 0.92542 0.66711 0.09452
 H1116 H 0.94992 0.66400 0.05812
 H1117 H 0.90223 0.73179 0.03199
 H1118 H 0.87765 0.73455 0.06793
 H1119 H 0.88686 0.74732 0.10773
 H1120 H 0.86022 0.75255 0.14247
 H1121 H 0.85326 0.66630 0.14546
 H1122 H 0.87961 0.66113 0.11024
 H1123 H 0.80879 0.68499 0.15609
 H1124 H 0.77794 0.69435 0.18772
 H1125 H 0.83007 0.75281 0.21490
 H1126 H 0.86097 0.74318 0.18345
 C1127 C 0.40627 0.21267 0.58458
 C1128 C 0.42897 0.19534 0.58242
 C1129 C 0.44218 0.19276 0.56144
 C1130 C 0.43284 0.20733 0.54216
 C1131 C 0.41008 0.22458 0.54428
 C1132 C 0.39696 0.22728 0.56531
 C1133 C 0.39218 0.21537 0.60680
 C1134 C 0.38301 0.24087 0.61476
 C1135 C 0.36895 0.24337 0.63533
 C1136 C 0.36367 0.22041 0.64830
 C1137 C 0.37317 0.19493 0.64051
 C1138 C 0.38738 0.19244 0.61999
 C1139 C 0.34713 0.22306 0.66923
 C1140 C 0.32668 0.20546 0.67299
 C1141 C 0.30932 0.20956 0.69144
 C1142 C 0.31214 0.23128 0.70657
 C1143 C 0.33332 0.24816 0.70339
 C1144 C 0.35059 0.24413 0.68486
 H1145 H 0.43667 0.18400 0.59704
 H1146 H 0.45957 0.17916 0.56020
 H1147 H 0.40259 0.23619 0.52974
 H1148 H 0.37934 0.24057 0.56645
 H1149 H 0.38668 0.25889 0.60505
 H1150 H 0.36160 0.26323 0.64078
 H1151 H 0.36950 0.17693 0.65025
 H1152 H 0.39408 0.17252 0.61417
 H1153 H 0.32341 0.18918 0.66110
 H1154 H 0.29321 0.19619 0.69344
 H1155 H 0.33606 0.26504 0.71477
 H1156 H 0.36642 0.25777 0.68252
 C1157 C 0.09719 0.29859 0.08374
 C1158 C 0.07745 0.31929 0.08065
 C1159 C 0.06349 0.32167 0.05989
 C1160 C 0.06933 0.30362 0.04177
 C1161 C 0.08919 0.28310 0.04490
 C1162 C 0.10290 0.28060 0.06560
 C1163 C 0.11195 0.29542 0.10569
 C1164 C 0.11701 0.26961 0.11510
 C1165 C 0.13242 0.26611 0.13483
 C1166 C 0.14324 0.28832 0.14568
 C1167 C 0.13775 0.31425 0.13656
 C1168 C 0.12213 0.31778 0.11683
 C1169 C 0.16095 0.28404 0.16586
 C1170 C 0.18457 0.29766 0.16769
 C1171 C 0.20243 0.29167 0.18556
 C1172 C 0.19701 0.27198 0.20200
 C1173 C 0.17292 0.25911 0.20062
 C1174 C 0.15513 0.26506 0.18277
 H1175 H 0.07256 0.33336 0.09440
 H1176 H 0.04834 0.33772 0.05792
 H1177 H 0.09390 0.26868 0.03137
 H1178 H 0.11821 0.26465 0.06734
 H1179 H 0.10920 0.25204 0.10704
 H1180 H 0.13649 0.24585 0.14124
 H1181 H 0.14563 0.33177 0.14465
 H1182 H 0.11867 0.33788 0.10989
 H1183 H 0.18973 0.31221 0.15482
 H1184 H 0.22079 0.30195 0.18613
 H1185 H 0.16801 0.24397 0.21307
 H1186 H 0.13691 0.25454 0.18204
 C1187 C 0.59621 0.78879 0.58369
 C1188 C 0.60343 0.77305 0.56442
 C1189 C 0.58924 0.77599 0.54396
 C1190 C 0.56745 0.79460 0.54243
 C1191 C 0.56007 0.81018 0.56175
 C1192 C 0.57440 0.80739 0.58216
 C1193 C 0.61158 0.78590 0.60523
 C1194 C 0.61898 0.80880 0.61735
 C1195 C 0.63440 0.80601 0.63718
 C1196 C 0.64248 0.78027 0.64534
 C1197 C 0.63466 0.75739 0.63343
 C1198 C 0.61943 0.76018 0.61354
 C1199 C 0.65985 0.77712 0.66570
 C1200 C 0.65523 0.75734 0.68224
 C1201 C 0.67288 0.75276 0.70038
 C1202 C 0.69562 0.76775 0.70230
 C1203 C 0.69975 0.78817 0.68619
 C1204 C 0.68199 0.79286 0.66810
 H1205 H 0.62031 0.75873 0.56509
 H1206 H 0.59519 0.76359 0.52937
 H1207 H 0.54344 0.82480 0.56093
 H1208 H 0.56832 0.81961 0.59682
 H1209 H 0.61333 0.82886 0.61121
 H1210 H 0.64005 0.82396 0.64612
 H1211 H 0.64085 0.73732 0.63920
 H1212 H 0.61378 0.74221 0.60462
 H1213 H 0.63811 0.74518 0.68094
 H1214 H 0.66907 0.73693 0.71254
 H1215 H 0.71708 0.80007 0.68721
 H1216 H 0.68613 0.80810 0.65549
   
