data_POSCAR
  _audit_creation_date              2014-09-24
  _audit_creation_method            'ToBaCCo'
  _symmetry_space_group_name_H-M    'P1'
  _symmetry_Int_Tables_number       1
  _symmetry_cell_setting            triclinic
  loop_
  _symmetry_equiv_pos_as_xyz
 x,y,z
_cell_length_a 18.3538
_cell_length_b 18.3466
_cell_length_c 18.3614
_cell_angle_alpha 89.954100
_cell_angle_beta 90.024700
_cell_angle_gamma 89.858700
loop_
  _atom_site_label
  _atom_site_type_symbol
  _atom_site_fract_x
  _atom_site_fract_y
  _atom_site_fract_z
C1 C 0.18109 0.17759 0.27213
 N2 N 0.24186 0.14811 0.24137
 C3 C 0.27160 0.17868 0.18084
 N4 N 0.24027 0.23888 0.15122
 C5 C 0.17974 0.26861 0.18152
 N6 N 0.15020 0.23791 0.24197
 C7 C 0.82076 0.82167 0.26928
 N8 N 0.85064 0.76112 0.23904
 C9 C 0.82080 0.73052 0.17883
 N10 N 0.76052 0.76098 0.14855
 C11 C 0.73009 0.82171 0.17826
 N12 N 0.76032 0.85198 0.23878
 C13 C 0.81929 0.17967 0.72958
 N14 N 0.75869 0.14982 0.75940
 C15 C 0.72789 0.17978 0.81963
 N16 N 0.75812 0.24004 0.85008
 C17 C 0.81877 0.27025 0.82040
 N18 N 0.84922 0.23994 0.76015
 C19 C 0.17737 0.81910 0.73020
 N20 N 0.14784 0.75861 0.76095
 C21 C 0.17816 0.72882 0.82156
 N22 N 0.23832 0.75982 0.85134
 C23 C 0.26802 0.82028 0.82093
 N24 N 0.23744 0.84983 0.76040
 C25 C 0.17770 0.17915 0.73021
 N26 N 0.23823 0.14937 0.76104
 C27 C 0.26844 0.17981 0.82117
 N28 N 0.23770 0.24027 0.85060
 C29 C 0.17722 0.27056 0.82044
 N30 N 0.14723 0.23992 0.76002
 C31 C 0.82093 0.81963 0.72792
 N32 N 0.85072 0.75928 0.75924
 C33 C 0.82032 0.72972 0.81988
 N34 N 0.75982 0.76081 0.84905
 C35 C 0.72973 0.82100 0.81813
 N36 N 0.76038 0.85037 0.75758
 C37 C 0.18073 0.82061 0.27148
 N38 N 0.15046 0.76042 0.24107
 C39 C 0.18044 0.73013 0.18062
 N40 N 0.24083 0.76031 0.15049
 C41 C 0.27125 0.82055 0.18066
 N42 N 0.24115 0.85047 0.24111
 C43 C 0.82045 0.17934 0.26882
 N44 N 0.76014 0.14950 0.23811
 C45 C 0.72998 0.18013 0.17773
 N46 N 0.76044 0.24083 0.14827
 C47 C 0.82067 0.27087 0.17881
 N48 N 0.85047 0.23990 0.23906
 N49 N 0.42239 0.87240 0.92163
 N50 N 0.36757 0.82685 0.91269
 N51 N 0.57493 0.92276 0.86904
 N52 N 0.62992 0.91343 0.82358
 N53 N 0.57561 0.87236 0.91985
 N54 N 0.63095 0.82734 0.91042
 N55 N 0.42158 0.92300 0.87104
 N56 N 0.36623 0.91333 0.82622
 C57 C 0.33312 0.85319 0.85301
 C58 C 0.66423 0.85363 0.85019
 N59 N 0.57564 1.13009 0.91940
 N60 N 0.63137 1.17452 0.90969
 N61 N 0.42118 1.08003 0.87101
 N62 N 0.36528 1.08971 0.82661
 N63 N 0.42232 1.13049 0.92158
 N64 N 0.36381 1.17801 0.91195
 N65 N 0.57440 1.07957 0.86891
 N66 N 0.63266 1.08921 0.82136
 Mn67 Mn 0.49798 1.00134 0.86912
 C68 C 0.66570 1.14881 0.84948
 C69 C 0.33070 1.14985 0.85237
 N70 N 0.57752 0.87234 1.07656
 N71 N 0.63556 0.82440 1.08673
 N72 N 0.42493 0.92273 1.12902
 N73 N 0.37021 0.91307 1.17465
 N74 N 0.42450 0.87234 1.07827
 N75 N 0.36963 0.82702 1.08789
 N76 N 0.57841 0.92263 1.12733
 N77 N 0.63378 0.91246 1.17229
 Mn78 Mn 0.50002 0.87153 0.99908
 C79 C 0.66825 0.85217 1.14671
 C80 C 0.33636 0.85315 1.14819
 N81 N 0.42440 1.13046 1.07831
 N82 N 0.36567 1.17748 1.08885
 N83 N 0.57826 1.07993 1.12721
 N84 N 0.63370 1.08988 1.17205
 N85 N 0.57740 1.13013 1.07627
 N86 N 0.63544 1.17783 1.08622
 N87 N 0.42458 1.08006 1.12905
 N88 N 0.36933 1.08929 1.17435
 Mn89 Mn 0.49996 1.13114 0.99890
 Mn90 Mn 0.50155 1.00134 1.12913
 Cl91 Cl 0.49987 1.00134 0.99909
 C92 C 0.33382 1.14916 1.14906
 C93 C 0.66815 1.14997 1.14625
 N94 N -0.12946 0.42376 0.07986
 N95 N -0.17413 0.36815 0.08929
 N96 N -0.07833 0.57695 0.12996
 N97 N -0.08808 0.63553 0.17709
 N98 N -0.12929 0.57752 0.07984
 N99 N -0.17400 0.63331 0.08931
 N100 N -0.07866 0.42413 0.13013
 N101 N -0.08840 0.36554 0.17727
 C102 C -0.14827 0.33310 0.14914
 C103 C -0.14807 0.66823 0.14906
 N104 N 0.12886 0.57597 0.07927
 N105 N 0.17424 0.63091 0.08845
 N106 N 0.07777 0.42298 0.13000
 N107 N 0.08718 0.36797 0.17549
 N108 N 0.12813 0.42257 0.07927
 N109 N 0.17331 0.36732 0.08881
 N110 N 0.07833 0.57632 0.12983
 N111 N 0.08788 0.63147 0.17491
 Mn112 Mn -0.00024 0.50013 0.13077
 C113 C 0.14789 0.66491 0.14833
 C114 C 0.14698 0.33385 0.14899
 N115 N -0.12971 0.57748 -0.07713
 N116 N -0.17742 0.63570 -0.08776
 N117 N -0.07954 0.42434 -0.12820
 N118 N -0.08904 0.36936 -0.17352
 N119 N -0.12991 0.42417 -0.07739
 N120 N -0.17513 0.36911 -0.08682
 N121 N -0.07933 0.57789 -0.12784
 N122 N -0.08929 0.63302 -0.17322
 Mn123 Mn -0.13055 0.50070 0.00129
 C124 C -0.14949 0.66791 -0.14798
 C125 C -0.14886 0.33551 -0.14698
 N126 N 0.12778 0.42311 -0.07755
 N127 N 0.17505 0.36465 -0.08797
 N128 N 0.07818 0.57696 -0.12794
 N129 N 0.08804 0.63244 -0.17277
 N130 N 0.12853 0.57601 -0.07720
 N131 N 0.17612 0.63413 -0.08713
 N132 N 0.07757 0.42320 -0.12845
 N133 N 0.08714 0.36793 -0.17372
 Mn134 Mn 0.12914 0.49937 0.00092
 Mn135 Mn -0.00079 0.50065 -0.12908
 Cl136 Cl -0.00064 0.50020 0.00091
 C137 C 0.14706 0.33264 -0.14819
 C138 C 0.14818 0.66686 -0.14707
 N139 N 1.07872 0.12749 0.57778
 N140 N 1.08821 0.17298 0.63279
 N141 N 1.13091 0.07674 0.42539
 N142 N 1.17882 0.08649 0.36738
 N143 N 1.08036 0.12741 0.42398
 N144 N 1.09043 0.17203 0.36832
 N145 N 1.12867 0.07622 0.57831
 N146 N 1.17579 0.08669 0.63677
 C147 C 1.14784 0.14728 0.66836
 C148 C 1.15090 0.14630 0.33422
 N149 N 1.07992 -0.12979 0.42295
 N150 N 1.08995 -0.17411 0.36717
 N151 N 1.12838 -0.08088 0.57784
 N152 N 1.17237 -0.09067 0.63396
 N153 N 1.07809 -0.13150 0.57598
 N154 N 1.08732 -0.17918 0.63431
 N155 N 1.13059 -0.07954 0.42484
 N156 N 1.17852 -0.08913 0.36691
 Mn157 Mn 1.13044 -0.00186 0.50172
 C158 C 1.15047 -0.14848 0.33344
 C159 C 1.14653 -0.15099 0.66795
 N160 N 0.92263 0.12771 0.42285
 N161 N 0.91314 0.17298 0.36772
 N162 N 0.87138 0.07705 0.57613
 N163 N 0.82587 0.08676 0.63095
 N164 N 0.92180 0.12777 0.57608
 N165 N 0.91208 0.17325 0.63091
 N166 N 0.87181 0.07739 0.42298
 N167 N 0.82650 0.08693 0.36793
 Mn168 Mn 1.00086 0.12856 0.50005
 C169 C 0.85301 0.14673 0.33406
 C170 C 0.85205 0.14693 0.66454
 N171 N 0.92189 -0.13128 0.57465
 N172 N 0.91203 -0.17880 0.63298
 N173 N 0.87174 -0.07940 0.42188
 N174 N 0.82654 -0.08873 0.36657
 N175 N 0.92286 -0.12951 0.42177
 N176 N 0.91259 -0.17659 0.36331
 N177 N 0.87134 -0.08061 0.57559
 N178 N 0.82663 -0.09027 0.63117
 Mn179 Mn 1.00068 -0.13133 0.49871
 Mn180 Mn 0.87062 -0.00137 0.49926
 Cl181 Cl 1.00060 -0.00143 0.49994
 C182 C 0.85224 -0.15057 0.66574
 C183 C 0.85227 -0.14845 0.33127
   
