data_POSCAR
  _audit_creation_date              2014-09-24
  _audit_creation_method            'ToBaCCo'
  _symmetry_space_group_name_H-M    'P1'
  _symmetry_Int_Tables_number       1
  _symmetry_cell_setting            triclinic
  loop_
  _symmetry_equiv_pos_as_xyz
 x,y,z
_cell_length_a 36.0284
_cell_length_b 35.9446
_cell_length_c 22.7806
_cell_angle_alpha 89.879100
_cell_angle_beta 90.197600
_cell_angle_gamma 88.883600
loop_
  _atom_site_label
  _atom_site_type_symbol
  _atom_site_fract_x
  _atom_site_fract_y
  _atom_site_fract_z
C1 C -0.10922 0.29028 -0.02248
 C2 C -0.10828 0.28980 0.03778
 C3 C -0.07936 0.26582 0.05407
 N4 N -0.06196 0.25259 0.00571
 C5 C -0.08047 0.26715 -0.04099
 C6 C -0.06982 0.25479 0.11209
 C7 C -0.03318 0.24148 0.12479
 C8 C -0.02245 0.22013 0.17308
 C9 C 0.01555 0.21614 0.17110
 C10 C 0.02721 0.23430 0.12089
 N11 N -0.00268 0.24952 0.09284
 C12 C 0.06462 0.23975 0.10452
 C13 C 0.07370 0.25143 0.04719
 C14 C 0.10601 0.26866 0.03003
 C15 C 0.10461 0.27169 -0.02986
 C16 C 0.07245 0.25455 -0.04792
 N17 N 0.05319 0.24299 -0.00060
 C18 C 0.06156 0.24748 -0.10662
 C19 C 0.02375 0.24053 -0.11910
 C20 C 0.01024 0.22162 -0.16755
 C21 C -0.02785 0.22437 -0.16525
 C22 C -0.03659 0.24463 -0.11532
 N23 N -0.00508 0.25365 -0.08679
 C24 C -0.07237 0.25773 -0.09966
 H25 H -0.12824 0.30662 -0.04940
 H26 H -0.12626 0.30613 0.06607
 H27 H -0.00332 0.27162 -0.05100
 H28 H -0.03987 0.20817 0.20641
 H29 H 0.03231 0.20177 0.20371
 H30 H 0.12813 0.27919 0.05666
 H31 H 0.12476 0.28583 -0.05642
 H32 H -0.04685 0.21268 -0.19679
 H33 H -0.00192 0.26765 0.05709
 H34 H 0.02595 0.20697 -0.20095
 C35 C 0.39263 0.77728 0.46412
 C36 C 0.39097 0.77406 0.52396
 C37 C 0.42526 0.76023 0.54249
 N38 N 0.44732 0.75392 0.49545
 C39 C 0.42725 0.76382 0.44743
 C40 C 0.43500 0.74969 0.60051
 C41 C 0.47259 0.74498 0.61838
 C42 C 0.48444 0.72980 0.67154
 C43 C 0.52234 0.73281 0.67356
 C44 C 0.53283 0.75026 0.62212
 N45 N 0.50239 0.75761 0.58874
 C46 C 0.56944 0.76083 0.60845
 C47 C 0.58036 0.76829 0.55002
 C48 C 0.61351 0.78397 0.53339
 C49 C 0.61547 0.78118 0.47352
 C50 C 0.58267 0.76538 0.45488
 N51 N 0.56135 0.75744 0.50190
 C52 C 0.57396 0.75472 0.39672
 C53 C 0.53696 0.74778 0.37881
 C54 C 0.52664 0.73226 0.32551
 C55 C 0.48857 0.73282 0.32356
 C56 C 0.47637 0.74922 0.37515
 N57 N 0.50599 0.75829 0.40858
 C58 C 0.43881 0.75725 0.38899
 H59 H 0.37053 0.78816 0.43643
 H60 H 0.36694 0.78148 0.54962
 H61 H 0.50505 0.77428 0.44661
 H62 H 0.46789 0.71840 0.70641
 H63 H 0.53999 0.72315 0.70918
 H64 H 0.63442 0.79614 0.56110
 H65 H 0.63865 0.79025 0.44789
 H66 H 0.47196 0.72225 0.28789
 H67 H 0.50170 0.77387 0.55087
 H68 H 0.54425 0.72218 0.29050
 C69 C 1.11341 0.76756 -0.03147
 C70 C 1.11390 0.76668 0.02869
 C71 C 1.08312 0.74691 0.04597
 N72 N 1.06343 0.73635 -0.00169
 C73 C 1.08233 0.74834 -0.04914
 C74 C 1.07298 0.73873 0.10455
 C75 C 1.03521 0.73324 0.11865
 C76 C 1.02210 0.71531 0.16831
 C77 C 0.98424 0.72083 0.16903
 C78 C 0.97519 0.74150 0.11945
 N79 N 1.00626 0.74834 0.08840
 C80 C 0.93957 0.75613 0.10601
 C81 C 0.92971 0.76640 0.04824
 C82 C 0.89889 0.78768 0.03180
 C83 C 0.89829 0.78806 -0.02849
 C84 C 0.92881 0.76706 -0.04657
 N85 N 0.94805 0.75407 0.00033
 C86 C 0.93766 0.75778 -0.10496
 C87 C 0.97325 0.74394 -0.12013
 C88 C 0.98177 0.72465 -0.17106
 C89 C 1.01970 0.71968 -0.17172
 C90 C 1.03335 0.73648 -0.12141
 N91 N 1.00473 0.75042 -0.08957
 C92 C 1.07126 0.74191 -0.10791
 H93 H 1.13274 0.78240 -0.05867
 H94 H 1.13364 0.78077 0.05627
 H95 H 1.00704 0.76748 -0.05281
 H96 H 1.03801 0.69996 0.20097
 H97 H 0.96555 0.71084 0.20238
 H98 H 0.87905 0.80172 0.06004
 H99 H 0.87792 0.80245 -0.05565
 H100 H 1.03531 0.70542 -0.20566
 H101 H 1.00816 0.76631 0.05257
 H102 H 0.96270 0.71523 -0.20443
 C103 C 0.60684 0.22894 0.47182
 C104 C 0.60696 0.22934 0.53194
 C105 C 0.57249 0.24310 0.54932
 N106 N 0.55190 0.25218 0.50145
 C107 C 0.57301 0.24403 0.45401
 C108 C 0.56117 0.25072 0.60758
 C109 C 0.52311 0.25385 0.62313
 C110 C 0.50977 0.26547 0.67737
 C111 C 0.47194 0.26170 0.67620
 C112 C 0.46295 0.24744 0.62164
 N113 N 0.49426 0.24267 0.58958
 C114 C 0.42682 0.23746 0.60373
 C115 C 0.41714 0.23431 0.54370
 C116 C 0.38410 0.22063 0.52235
 C117 C 0.38368 0.22729 0.46316
 C118 C 0.41732 0.24325 0.44936
 N119 N 0.43755 0.24773 0.49893
 C120 C 0.42795 0.25666 0.39344
 C121 C 0.46525 0.26510 0.38010
 C122 C 0.47694 0.28347 0.32993
 C123 C 0.51505 0.28247 0.33064
 C124 C 0.52581 0.26314 0.38073
 N125 N 0.49535 0.25282 0.41080
 C126 C 0.56280 0.25306 0.39559
 H127 H 0.62930 0.21844 0.44485
 H128 H 0.62996 0.21973 0.55846
 H129 H 0.49525 0.23449 0.44623
 H130 H 0.52534 0.27485 0.71496
 H131 H 0.45330 0.26878 0.71177
 H132 H 0.36221 0.20735 0.54643
 H133 H 0.36073 0.22085 0.43481
 H134 H 0.53271 0.29446 0.29758
 H135 H 0.49612 0.22889 0.54952
 H136 H 0.46019 0.29566 0.29522
 C137 C 0.77151 -0.09839 -0.02493
 C138 C 0.77183 -0.09843 0.03524
 C139 C 0.74916 -0.06893 0.05289
 N140 N 0.73566 -0.05038 0.00541
 C141 C 0.74874 -0.06882 -0.04221
 C142 C 0.74063 -0.05932 0.11166
 C143 C 0.73001 -0.02226 0.12613
 C144 C 0.71143 -0.01121 0.17664
 C145 C 0.71040 0.02700 0.17671
 C146 C 0.72762 0.03845 0.12558
 N147 N 0.73925 0.00821 0.09481
 C148 C 0.73557 0.07572 0.11086
 C149 C 0.74556 0.08582 0.05320
 C150 C 0.76202 0.11869 0.03645
 C151 C 0.76373 0.11834 -0.02358
 C152 C 0.74661 0.08616 -0.04199
 N153 N 0.73620 0.06601 0.00514
 C154 C 0.73881 0.07611 -0.10080
 C155 C 0.72972 0.03900 -0.11480
 C156 C 0.70946 0.02818 -0.16356
 C157 C 0.70934 -0.01001 -0.16328
 C158 C 0.72965 -0.02159 -0.11447
 N159 N 0.74116 0.00850 -0.08428
 C160 C 0.73975 -0.05889 -0.10075
 H161 H 0.78765 -0.11701 -0.05250
 H162 H 0.78825 -0.11713 0.06258
 H163 H 0.75938 0.00811 -0.04858
 H164 H 0.69984 -0.02867 0.21040
 H165 H 0.69879 0.04406 0.21134
 H166 H 0.77240 0.14069 0.06360
 H167 H 0.77680 0.13932 -0.05004
 H168 H 0.69558 -0.02717 -0.19532
 H169 H 0.75629 0.00830 0.05792
 H170 H 0.69578 0.04589 -0.19578
 C171 C 0.20129 0.37955 0.46587
 C172 C 0.20284 0.37917 0.52594
 C173 C 0.21876 0.41226 0.54313
 N174 N 0.22780 0.43229 0.49510
 C175 C 0.21755 0.41217 0.44785
 C176 C 0.22812 0.42243 0.60129
 C177 C 0.23348 0.46002 0.61821
 C178 C 0.24343 0.47118 0.67428
 C179 C 0.24513 0.50921 0.67350
 C180 C 0.23631 0.52077 0.61688
 N181 N 0.22793 0.49062 0.58405
 C182 C 0.23453 0.55851 0.59808
 C183 C 0.22832 0.56883 0.53876
 C184 C 0.21699 0.60375 0.51888
 C185 C 0.21763 0.60256 0.45881
 C186 C 0.23076 0.56749 0.44353
 N187 N 0.23677 0.54677 0.49245
 C188 C 0.23993 0.55561 0.38608
 C189 C 0.24526 0.51744 0.37294
 C190 C 0.26320 0.50350 0.32364
 C191 C 0.25886 0.46560 0.32424
 C192 C 0.23864 0.45735 0.37410
 N193 N 0.23081 0.48902 0.40393
 C194 C 0.22590 0.42168 0.38920
 H195 H 0.18951 0.35801 0.43895
 H196 H 0.19241 0.35703 0.55258
 H197 H 0.21275 0.49147 0.43940
 H198 H 0.24783 0.45407 0.71286
 H199 H 0.25113 0.52615 0.71137
 H200 H 0.20842 0.62778 0.54379
 H201 H 0.20895 0.62510 0.43012
 H202 H 0.26963 0.44633 0.29177
 H203 H 0.21684 0.49114 0.54194
 H204 H 0.27797 0.51888 0.29054
 C205 C 0.29875 1.10038 -0.03817
 C206 C 0.30233 1.10035 0.02150
 C207 C 0.28504 1.06873 0.04208
 N208 N 0.27197 1.04888 -0.00378
 C209 C 0.27938 1.06883 -0.05274
 C210 C 0.28210 1.05891 0.10241
 C211 C 0.27538 1.02161 0.12164
 C212 C 0.26952 1.01083 0.17953
 C213 C 0.26446 0.97329 0.17984
 C214 C 0.26530 0.96148 0.12205
 N215 N 0.27285 0.99100 0.08692
 C216 C 0.25669 0.92473 0.10386
 C217 C 0.25199 0.91397 0.04459
 C218 C 0.23267 0.88289 0.02699
 C219 C 0.23340 0.88237 -0.03298
 C220 C 0.25377 0.91276 -0.05046
 N221 N 0.26461 0.93238 -0.00290
 C222 C 0.26211 0.92235 -0.10923
 C223 C 0.27288 0.95890 -0.12421
 C224 C 0.29165 0.96832 -0.17507
 C225 C 0.29354 1.00630 -0.17624
 C226 C 0.27627 1.01925 -0.12581
 N227 N 0.26455 0.99017 -0.09334
 C228 C 0.27229 1.05726 -0.11094
 H229 H 0.31170 1.11990 -0.06753
 H230 H 0.31774 1.12046 0.04652
 H231 H 0.24826 0.99194 -0.05568
 H232 H 0.26754 1.02754 0.21863
 H233 H 0.25953 0.95728 0.21906
 H234 H 0.21798 0.86344 0.05432
 H235 H 0.21896 0.86270 -0.06018
 H236 H 0.30747 1.02238 -0.20946
 H237 H 0.27689 0.99010 0.04196
 H238 H 0.30345 0.94981 -0.20773
 C239 C 0.72393 0.40202 0.53574
 C240 C 0.72552 0.40141 0.47553
 C241 C 0.74617 0.43174 0.45885
 N242 N 0.75713 0.45089 0.50671
 C243 C 0.74372 0.43267 0.55379
 C244 C 0.75604 0.44102 0.40077
 C245 C 0.76862 0.47684 0.38629
 C246 C 0.78725 0.48597 0.33524
 C247 C 0.78995 0.52408 0.33451
 C248 C 0.77297 0.53712 0.38519
 N249 N 0.76054 0.50812 0.41694
 C250 C 0.76591 0.57496 0.39839
 C251 C 0.75887 0.58689 0.45653
 C252 C 0.74620 0.62193 0.47310
 C253 C 0.74718 0.62281 0.53322
 C254 C 0.75887 0.58772 0.55182
 N255 N 0.76625 0.56598 0.50475
 C256 C 0.76595 0.57671 0.61054
 C257 C 0.76999 0.53878 0.62691
 C258 C 0.78308 0.52594 0.68081
 C259 C 0.77899 0.48799 0.68122
 C260 C 0.76311 0.47858 0.62792
 N261 N 0.75789 0.50963 0.59498
 C262 C 0.75094 0.44267 0.61264
 H263 H 0.70922 0.38247 0.56282
 H264 H 0.71223 0.38136 0.44750
 H265 H 0.74276 0.51128 0.55602
 H266 H 0.79735 0.46724 0.30151
 H267 H 0.80254 0.54033 0.30014
 H268 H 0.73683 0.64470 0.44543
 H269 H 0.73978 0.64684 0.55917
 H270 H 0.78647 0.46960 0.71719
 H271 H 0.74299 0.50999 0.45310
 H272 H 0.79366 0.54202 0.71700
 O273 O 0.25796 0.18315 0.26126
 O274 O 0.23245 0.27816 0.30795
 O275 O 0.19537 0.22179 0.26322
 O276 O 0.29204 0.23759 0.30756
 O277 O 0.30392 0.26065 0.21971
 O278 O 0.20710 0.24496 0.17549
 O279 O 0.24328 0.29935 0.21861
 O280 O 0.26864 0.20410 0.17180
 Cu281 Cu 0.24276 0.22796 0.29376
 Cu282 Cu 0.25703 0.25388 0.18709
 C283 C 0.26806 0.17755 0.20869
 C284 C 0.23424 0.30500 0.27165
 C285 C 0.18472 0.23100 0.21196
 C286 C 0.31418 0.25240 0.27163
 O287 O 0.75907 0.81464 0.27495
 O288 O 0.77056 0.71604 0.31626
 O289 O 0.81398 0.76670 0.27430
 O290 O 0.71595 0.76426 0.31883
 O291 O 0.70047 0.74547 0.22990
 O292 O 0.79813 0.75016 0.18446
 O293 O 0.75528 0.69932 0.22621
 O294 O 0.74271 0.79790 0.18546
 Cu295 Cu 0.76647 0.76721 0.30504
 Cu296 Cu 0.74753 0.74692 0.19724
 C297 C 0.74927 0.82306 0.22296
 C298 C 0.76435 0.69089 0.27852
 C299 C 0.82273 0.75893 0.22176
 C300 C 0.69179 0.75316 0.28251
 O301 O 0.80408 0.24849 0.27569
 O302 O 0.70584 0.25125 0.32019
 O303 O 0.74933 0.20037 0.27629
 O304 O 0.75875 0.29853 0.32040
 O305 O 0.74139 0.31614 0.23137
 O306 O 0.73487 0.21843 0.18613
 O307 O 0.68947 0.26665 0.22963
 O308 O 0.78796 0.26659 0.18635
 Cu309 Cu 0.75656 0.24777 0.30697
 Cu310 Cu 0.73717 0.26898 0.19931
 C311 C 0.81278 0.25727 0.22357
 C312 C 0.68091 0.25880 0.28220
 C313 C 0.73963 0.19289 0.22404
 C314 C 0.75057 0.32405 0.28369
 O315 O 0.26373 0.78145 0.17886
 O316 O 0.26392 0.68219 0.22048
 O317 O 0.21524 0.72966 0.17854
 O318 O 0.31377 0.73583 0.22134
 O319 O 0.29676 0.75090 0.31140
 O320 O 0.19871 0.74314 0.26948
 O321 O 0.24909 0.69758 0.31134
 O322 O 0.24542 0.79635 0.26838
 Cu323 Cu 0.26621 0.73044 0.19092
 Cu324 Cu 0.24613 0.74845 0.29932
 C325 C 0.25338 0.80569 0.21616
 C326 C 0.25606 0.67300 0.27280
 C327 C 0.19021 0.73584 0.21667
 C328 C 0.32194 0.74497 0.27356
 O329 O 0.68495 0.26864 0.77889
 O330 O 0.78294 0.26728 0.82593
 O331 O 0.73674 0.31669 0.78094
 O332 O 0.73098 0.21792 0.82270
 O333 O 0.74985 0.20145 0.73420
 O334 O 0.75197 0.30001 0.69076
 O335 O 0.79992 0.25323 0.73546
 O336 O 0.70182 0.24915 0.69083
 Cu337 Cu 0.73222 0.26904 0.81130
 Cu338 Cu 0.75265 0.24910 0.70395
 C339 C 0.67681 0.25954 0.72668
 C340 C 0.80815 0.26077 0.78830
 C341 C 0.74459 0.32514 0.72831
 C342 C 0.73991 0.19288 0.78578
 O343 O 0.30972 0.73066 0.76636
 O344 O 0.21195 0.73101 0.81288
 O345 O 0.25855 0.68261 0.76589
 O346 O 0.26404 0.78037 0.81276
 O347 O 0.24636 0.79866 0.72420
 O348 O 0.24008 0.70108 0.67773
 O349 O 0.19455 0.74946 0.72426
 O350 O 0.29232 0.75021 0.67824
 Cu351 Cu 0.26265 0.72950 0.79866
 Cu352 Cu 0.24156 0.75179 0.69228
 C353 C 0.31752 0.73961 0.71400
 C354 C 0.18662 0.74033 0.77650
 C355 C 0.24910 0.67530 0.71350
 C356 C 0.25594 0.80617 0.77643
 O357 O 0.25194 0.29603 0.76834
 O358 O 0.25308 0.19818 0.81547
 O359 O 0.30073 0.24198 0.77041
 O360 O 0.20255 0.25051 0.81410
 O361 O 0.18501 0.23260 0.72576
 O362 O 0.28298 0.22961 0.67968
 O363 O 0.23811 0.18135 0.72539
 O364 O 0.23057 0.27995 0.68118
 Cu365 Cu 0.25344 0.24868 0.80117
 Cu366 Cu 0.23223 0.22909 0.69419
 C367 C 0.24142 0.30463 0.71674
 C368 C 0.24698 0.17299 0.77792
 C369 C 0.30850 0.23472 0.71729
 C370 C 0.17713 0.24235 0.77780
 O371 O 0.75142 0.70079 0.77743
 O372 O 0.74072 0.79897 0.82259
 O373 O 0.69591 0.75041 0.77776
 O374 O 0.79483 0.75090 0.82012
 O375 O 0.80926 0.76974 0.73083
 O376 O 0.71112 0.76613 0.68734
 O377 O 0.75394 0.81675 0.73230
 O378 O 0.76671 0.71904 0.68817
 Cu379 Cu 0.74392 0.74822 0.80836
 Cu380 Cu 0.76150 0.76967 0.70060
 C381 C 0.76176 0.69338 0.72547
 C382 C 0.74602 0.82457 0.78521
 C383 C 0.68675 0.75827 0.72522
 C384 C 0.81881 0.76095 0.78281
 N385 N 0.29357 0.11562 0.22748
 N386 N 0.29799 0.08336 0.20019
 C387 C 0.28534 0.08783 0.14468
 C388 C 0.27355 0.12474 0.13887
 N389 N 0.27898 0.14076 0.19134
 H390 H 0.25978 0.13794 0.10176
 N391 N 0.80265 0.63968 0.71641
 N392 N 0.80524 0.60889 0.68473
 C393 C 0.77281 0.60570 0.65552
 C394 C 0.75009 0.63553 0.67089
 N395 N 0.76969 0.65585 0.70899
 H396 H 0.72261 0.64265 0.65455
 N397 N 0.75151 0.88942 0.24283
 N398 N 0.74953 0.92144 0.21405
 C399 C 0.74345 0.91357 0.15685
 C400 C 0.74136 0.87520 0.15197
 N401 N 0.74661 0.86140 0.20630
 H402 H 0.73602 0.85879 0.11318
 N403 N 0.27446 0.36197 0.70462
 N404 N 0.27221 0.39285 0.67302
 C405 C 0.23940 0.39275 0.64412
 C406 C 0.22150 0.36039 0.65949
 N407 N 0.24434 0.34215 0.69700
 H408 H 0.19448 0.35094 0.64622
 N409 N 0.87916 0.25679 0.24425
 N410 N 0.91106 0.25644 0.21550
 C411 C 0.90314 0.25628 0.15742
 C412 C 0.86470 0.25661 0.15199
 N413 N 0.85105 0.25696 0.20683
 H414 H 0.84806 0.25468 0.11253
 N415 N 0.37402 0.70352 0.69970
 N416 N 0.40490 0.70479 0.66856
 C417 C 0.40530 0.73835 0.64184
 C418 C 0.37331 0.75769 0.65790
 N419 N 0.35474 0.73496 0.69378
 H420 H 0.36435 0.78552 0.64561
 N421 N 0.12415 0.74206 0.23644
 N422 N 0.09226 0.74321 0.20741
 C423 C 0.09998 0.73774 0.14999
 C424 C 0.13813 0.73265 0.14526
 N425 N 0.15195 0.73574 0.19986
 H426 H 0.15442 0.72695 0.10637
 N427 N 0.61897 0.29404 0.71495
 N428 N 0.58852 0.29311 0.68237
 C429 C 0.58960 0.26081 0.65218
 C430 C 0.62197 0.24185 0.66778
 N431 N 0.63937 0.26357 0.70668
 H432 H 0.63207 0.21493 0.65319
 N433 N 0.74737 0.12645 0.76729
 N434 N 0.74728 0.09466 0.79678
 C435 C 0.73967 0.10286 0.85345
 C436 C 0.73430 0.14108 0.85708
 N437 N 0.73968 0.15458 0.80283
 H438 H 0.72650 0.15764 0.89484
 N439 N 0.24136 0.60862 0.25190
 N440 N 0.23571 0.57727 0.28098
 C441 C 0.24422 0.58353 0.33789
 C442 C 0.25577 0.61993 0.34229
 N443 N 0.25327 0.63455 0.28807
 H444 H 0.26469 0.63470 0.38105
 N445 N 0.24967 0.87271 0.75922
 N446 N 0.25100 0.90430 0.78879
 C447 C 0.25903 0.89567 0.84529
 C448 C 0.26297 0.85725 0.84887
 N449 N 0.25681 0.84421 0.79451
 H450 H 0.27042 0.84035 0.88665
 N451 N 0.73935 0.39029 0.26819
 N452 N 0.74000 0.42182 0.29814
 C453 C 0.75205 0.41331 0.35283
 C454 C 0.75903 0.37538 0.35522
 N455 N 0.75067 0.36215 0.30169
 H456 H 0.76884 0.35897 0.39224
 N457 N 0.11065 0.24890 0.75947
 N458 N 0.07924 0.25057 0.78952
 C459 C 0.08795 0.24695 0.84711
 C460 C 0.12628 0.24269 0.85079
 N461 N 0.13914 0.24442 0.79565
 H462 H 0.14336 0.23684 0.88896
 N463 N 0.63908 0.71366 0.29616
 N464 N 0.60835 0.71261 0.32768
 C465 C 0.60465 0.74574 0.35508
 C466 C 0.63445 0.76725 0.33904
 N467 N 0.65508 0.74619 0.30240
 H468 H 0.64064 0.79540 0.35191
 N469 N 0.88372 0.77473 0.76494
 N470 N 0.91582 0.77448 0.79350
 C471 C 0.90905 0.76209 0.84834
 C472 C 0.87173 0.75449 0.85232
 N473 N 0.85699 0.76286 0.79957
 H474 H 0.85676 0.74394 0.88977
 N475 N 0.36344 0.29582 0.28916
 N476 N 0.39312 0.29841 0.32328
 C477 C 0.39891 0.26471 0.34834
 C478 C 0.37193 0.24126 0.32777
 N479 N 0.35039 0.26173 0.29136
 H480 H 0.36766 0.21239 0.33891
 N481 N 0.74753 0.89119 0.76670
 N482 N 0.74610 0.92288 0.79619
 C483 C 0.74165 0.91438 0.85357
 C484 C 0.74001 0.87592 0.85781
 N485 N 0.74387 0.86273 0.80291
 H486 H 0.73578 0.85904 0.89651
 N487 N 0.21504 0.36961 0.25616
 N488 N 0.21236 0.40109 0.28616
 C489 C 0.22293 0.39332 0.34188
 C490 C 0.23223 0.35586 0.34489
 N491 N 0.22663 0.34218 0.29085
 H492 H 0.24355 0.34036 0.38185
 N493 N 0.25237 0.10653 0.75778
 N494 N 0.26010 0.07522 0.78645
 C495 C 0.26507 0.08381 0.84375
 C496 C 0.25852 0.12184 0.84904
 N497 N 0.25141 0.13481 0.79472
 H498 H 0.25782 0.13876 0.88820
 N499 N 0.75079 0.62562 0.26448
 N500 N 0.75015 0.59447 0.29555
 C501 C 0.76473 0.60204 0.34878
 C502 C 0.77501 0.63891 0.34876
 N503 N 0.76543 0.65262 0.29579
 H504 H 0.78716 0.65465 0.38417
 N505 N 0.12042 0.74928 0.75934
 N506 N 0.08899 0.74994 0.78928
 C507 C 0.09754 0.74242 0.84598
 C508 C 0.13566 0.73667 0.84932
 N509 N 0.14868 0.74136 0.79465
 H510 H 0.15241 0.72927 0.88726
 N511 N 0.61599 0.24622 0.26267
 N512 N 0.58439 0.24347 0.29178
 C513 C 0.59130 0.25291 0.34811
 C514 C 0.62841 0.26186 0.35222
 N515 N 0.64269 0.25707 0.29831
 H516 H 0.64365 0.27119 0.39029
 N517 N 0.87381 0.26804 0.76814
 N518 N 0.90594 0.26798 0.79654
 C519 C 0.89862 0.26177 0.85381
 C520 C 0.86062 0.25819 0.85949
 N521 N 0.84634 0.26230 0.80520
 H522 H 0.84496 0.25201 0.89868
 N523 N 0.38553 0.76352 0.25530
 N524 N 0.41677 0.76817 0.28511
 C525 C 0.41063 0.75676 0.34075
 C526 C 0.37449 0.74466 0.34369
 N527 N 0.35989 0.74955 0.28989
 H528 H 0.36009 0.73321 0.38103
 N529 N 0.22760 0.86846 0.22545
 N530 N 0.22710 0.90043 0.19635
 C531 C 0.24968 0.89594 0.14962
 C532 C 0.26367 0.85986 0.15071
 N533 N 0.24939 0.84381 0.19872
 H534 H 0.28198 0.84648 0.11924
 N535 N 0.73102 0.39105 0.74343
 N536 N 0.73178 0.42276 0.71373
 C537 C 0.74576 0.41481 0.66018
 C538 C 0.75378 0.37709 0.65825
 N539 N 0.74408 0.36338 0.71081
 H540 H 0.76530 0.36113 0.62217
 N541 N 0.69729 0.14254 0.21095
 N542 N 0.69478 0.11179 0.17943
 C543 C 0.72834 0.10539 0.15500
 C544 C 0.75168 0.13329 0.17319
 N545 N 0.73127 0.15565 0.20819
 H546 H 0.78018 0.13785 0.16074
 N547 N 0.28049 0.61570 0.70333
 N548 N 0.27801 0.58496 0.67189
 C549 C 0.24609 0.58752 0.64075
 C550 C 0.22900 0.62124 0.65440
 N551 N 0.25140 0.63778 0.69336
 H552 H 0.20280 0.63266 0.63876
 N553 N 0.88814 0.77151 0.23839
 N554 N 0.91977 0.77131 0.20885
 C555 C 0.91189 0.75994 0.15382
 C556 C 0.87444 0.75287 0.15076
 N557 N 0.86070 0.76058 0.20418
 H558 H 0.85870 0.74312 0.11346
 N559 N 0.37342 0.21716 0.73261
 N560 N 0.40514 0.21680 0.70332
 C561 C 0.39809 0.23185 0.64992
 C562 C 0.36074 0.24160 0.64777
 N563 N 0.34649 0.23175 0.69979
 H564 H 0.34547 0.25532 0.61262
 N565 N 0.13037 0.19280 0.19896
 N566 N 0.09848 0.19407 0.16977
 C567 C 0.09503 0.22837 0.14571
 C568 C 0.12601 0.24813 0.16158
 N569 N 0.14728 0.22497 0.19425
 H570 H 0.13269 0.27656 0.15118
 N571 N 0.62113 0.77130 0.74268
 N572 N 0.58964 0.77337 0.71247
 C573 C 0.59735 0.76241 0.65703
 C574 C 0.63476 0.75321 0.65466
 N575 N 0.64847 0.75936 0.70857
 H576 H 0.65063 0.74296 0.61761
   
