data_POSCAR
  _audit_creation_date              2014-09-24
  _audit_creation_method            'ToBaCCo'
  _symmetry_space_group_name_H-M    'P1'
  _symmetry_Int_Tables_number       1
  _symmetry_cell_setting            triclinic
  loop_
  _symmetry_equiv_pos_as_xyz
 x,y,z
_cell_length_a 32.7448
_cell_length_b 32.7350
_cell_length_c 32.5860
_cell_angle_alpha 89.906300
_cell_angle_beta 90.000100
_cell_angle_gamma 89.745000
loop_
  _atom_site_label
  _atom_site_type_symbol
  _atom_site_fract_x
  _atom_site_fract_y
  _atom_site_fract_z
C1 C -0.11003 0.31692 -0.01122
 C2 C -0.09309 0.32512 0.02722
 C3 C -0.05068 0.32904 0.03139
 C4 C -0.02441 0.32230 -0.00241
 C5 C -0.04224 0.31315 -0.04082
 C6 C -0.08474 0.31130 -0.04530
 C7 C 0.02117 0.32235 0.00282
 C8 C 0.04740 0.32905 -0.03101
 C9 C 0.08982 0.32525 -0.02674
 C10 C 0.10681 0.31717 0.01171
 C11 C 0.08159 0.31156 0.04576
 C12 C 0.03910 0.31332 0.04129
 H13 H -0.14288 0.31364 -0.01438
 H14 H -0.03850 0.33650 0.06131
 H15 H -0.02345 0.30608 -0.06719
 H16 H 0.03529 0.33635 -0.06102
 H17 H 0.13965 0.31392 0.01490
 H18 H 0.02049 0.30623 0.06774
 C19 C 0.39084 0.81773 0.48814
 C20 C 0.40775 0.82597 0.52654
 C21 C 0.45013 0.82987 0.53076
 C22 C 0.47642 0.82314 0.49697
 C23 C 0.45859 0.81398 0.45856
 C24 C 0.41612 0.81209 0.45412
 C25 C 0.52200 0.82321 0.50219
 C26 C 0.54821 0.82992 0.46835
 C27 C 0.59063 0.82616 0.47260
 C28 C 0.60764 0.81809 0.51105
 C29 C 0.58243 0.81248 0.54511
 C30 C 0.53994 0.81423 0.54066
 H31 H 0.35804 0.81440 0.48499
 H32 H 0.46219 0.83727 0.56072
 H33 H 0.47728 0.80690 0.43214
 H34 H 0.53607 0.83719 0.43834
 H35 H 0.64048 0.81486 0.51422
 H36 H 0.52134 0.80718 0.56713
 C37 C 1.11003 0.68316 -0.01166
 C38 C 1.09308 0.67495 0.02681
 C39 C 1.05067 0.67101 0.03098
 C40 C 1.02441 0.67775 -0.00285
 C41 C 1.04225 0.68691 -0.04129
 C42 C 1.08475 0.68878 -0.04576
 C43 C 0.97883 0.67769 0.00235
 C44 C 0.95262 0.67089 -0.03144
 C45 C 0.91020 0.67467 -0.02722
 C46 C 0.89319 0.68282 0.01119
 C47 C 0.91840 0.68853 0.04521
 C48 C 0.96088 0.68678 0.04077
 H49 H 1.14287 0.68645 -0.01482
 H50 H 1.03847 0.66355 0.06091
 H51 H 1.02345 0.69398 -0.06769
 H52 H 0.96476 0.66354 -0.06141
 H53 H 0.86035 0.68606 0.01434
 H54 H 0.97949 0.69393 0.06719
 C55 C 0.60918 0.18226 0.48905
 C56 C 0.59226 0.17402 0.52747
 C57 C 0.54988 0.17010 0.53170
 C58 C 0.52359 0.17681 0.49788
 C59 C 0.54143 0.18597 0.45944
 C60 C 0.58390 0.18788 0.45500
 C61 C 0.47802 0.17670 0.50309
 C62 C 0.45181 0.17004 0.46926
 C63 C 0.40939 0.17378 0.47348
 C64 C 0.39237 0.18178 0.51192
 C65 C 0.41757 0.18735 0.54598
 C66 C 0.46006 0.18562 0.54153
 H67 H 0.64198 0.18561 0.48589
 H68 H 0.53783 0.16269 0.56168
 H69 H 0.52275 0.19303 0.43298
 H70 H 0.46396 0.16281 0.43926
 H71 H 0.35952 0.18499 0.51508
 H72 H 0.47865 0.19265 0.56800
 C73 C 0.68301 -0.10793 0.01197
 C74 C 0.68877 -0.08264 0.04595
 C75 C 0.68702 -0.04011 0.04131
 C76 C 0.67789 -0.02226 0.00279
 C77 C 0.67105 -0.04855 -0.03088
 C78 C 0.67481 -0.09096 -0.02650
 C79 C 0.67788 0.02330 -0.00265
 C80 C 0.68707 0.04107 -0.04114
 C81 C 0.68880 0.08359 -0.04578
 C82 C 0.68296 0.10892 -0.01181
 C83 C 0.67470 0.09203 0.02664
 C84 C 0.67097 0.04965 0.03102
 H85 H 0.68619 -0.14081 0.01513
 H86 H 0.69416 -0.02131 0.06760
 H87 H 0.66366 -0.03646 -0.06089
 H88 H 0.69427 0.02221 -0.06742
 H89 H 0.68613 0.14178 -0.01496
 H90 H 0.66354 0.03762 0.06102
 C91 C 0.18188 0.39177 0.51161
 C92 C 0.18734 0.41693 0.54568
 C93 C 0.18543 0.45943 0.54128
 C94 C 0.17642 0.47745 0.50284
 C95 C 0.16986 0.45128 0.46897
 C96 C 0.17380 0.40884 0.47317
 C97 C 0.17638 0.52307 0.49768
 C98 C 0.18529 0.54102 0.45923
 C99 C 0.18713 0.58351 0.45481
 C100 C 0.18173 0.60872 0.48890
 C101 C 0.17374 0.59170 0.52735
 C102 C 0.16986 0.54929 0.53156
 H103 H 0.18525 0.35893 0.51476
 H104 H 0.19240 0.47797 0.56777
 H105 H 0.16256 0.46344 0.43898
 H106 H 0.19222 0.52242 0.43272
 H107 H 0.18504 0.64154 0.48574
 H108 H 0.16263 0.53718 0.56156
 C109 C 0.31676 1.10787 0.01093
 C110 C 0.31124 1.08239 0.04485
 C111 C 0.31304 1.03992 0.04014
 C112 C 0.32204 1.02226 0.00159
 C113 C 0.32868 1.04871 -0.03210
 C114 C 0.32481 1.09114 -0.02765
 C115 C 0.32215 0.97671 -0.00386
 C116 C 0.31293 0.95903 -0.04233
 C117 C 0.31127 0.91651 -0.04695
 C118 C 0.31718 0.89110 -0.01296
 C119 C 0.32546 0.90790 0.02546
 C120 C 0.32915 0.95028 0.02981
 H121 H 0.31349 1.14070 0.01440
 H122 H 0.30605 1.02111 0.06650
 H123 H 0.33601 1.03666 -0.06212
 H124 H 0.30566 0.97794 -0.06861
 H125 H 0.31404 0.85825 -0.01608
 H126 H 0.33660 0.96222 0.05980
 C127 C 0.81826 0.60832 0.51107
 C128 C 0.81283 0.58315 0.54522
 C129 C 0.81472 0.54065 0.54093
 C130 C 0.82369 0.52264 0.50254
 C131 C 0.83022 0.54883 0.46859
 C132 C 0.82630 0.59126 0.47268
 C133 C 0.82370 0.47702 0.49751
 C134 C 0.81477 0.45908 0.45912
 C135 C 0.81290 0.41660 0.45483
 C136 C 0.81831 0.39138 0.48900
 C137 C 0.82632 0.40838 0.52740
 C138 C 0.83024 0.45079 0.53147
 H139 H 0.81491 0.64117 0.51413
 H140 H 0.80776 0.52210 0.56748
 H141 H 0.83749 0.53667 0.43862
 H142 H 0.80783 0.47769 0.43256
 H143 H 0.81497 0.35857 0.48595
 H144 H 0.83750 0.46289 0.56143
 O145 O 0.19145 0.24726 0.31416
 O146 O 0.23067 0.17424 0.23729
 O147 O 0.24788 0.19080 0.31412
 O148 O 0.17465 0.23019 0.23742
 O149 O 0.22021 0.27568 0.21722
 O150 O 0.29316 0.23639 0.29359
 O151 O 0.27605 0.21991 0.21711
 O152 O 0.23693 0.29264 0.29362
 Cu153 Cu 0.20660 0.20603 0.27794
 Cu154 Cu 0.26118 0.26075 0.25347
 C155 C 0.20781 0.28222 0.31699
 C156 C 0.25949 0.18514 0.21369
 C157 C 0.28280 0.20722 0.31697
 C158 C 0.18543 0.25912 0.21388
 O159 O 0.76924 0.82609 0.23629
 O160 O 0.80852 0.75298 0.31329
 O161 O 0.82527 0.77013 0.23651
 O162 O 0.75208 0.80943 0.31317
 O163 O 0.70679 0.76386 0.29277
 O164 O 0.77970 0.72466 0.21644
 O165 O 0.76303 0.70762 0.29288
 O166 O 0.72385 0.78043 0.21624
 Cu167 Cu 0.79334 0.79425 0.27700
 Cu168 Cu 0.73874 0.73956 0.25268
 C169 C 0.74040 0.81521 0.21275
 C170 C 0.79216 0.71802 0.31621
 C171 C 0.81447 0.74122 0.21305
 C172 C 0.71716 0.79300 0.31608
 O173 O 0.73141 0.32539 0.26305
 O174 O 0.69164 0.25306 0.18621
 O175 O 0.67553 0.26980 0.26320
 O176 O 0.74794 0.30910 0.18599
 O177 O 0.79351 0.26311 0.20588
 O178 O 0.72139 0.22392 0.28275
 O179 O 0.73742 0.20728 0.20610
 O180 O 0.77709 0.27932 0.28259
 Cu181 Cu 0.70703 0.29397 0.22249
 Cu182 Cu 0.76197 0.23878 0.24618
 C183 C 0.76047 0.31418 0.28631
 C184 C 0.70808 0.21803 0.18303
 C185 C 0.68660 0.24068 0.28650
 C186 C 0.78286 0.29245 0.18272
 O187 O 0.20653 0.73689 0.20524
 O188 O 0.27869 0.77606 0.28195
 O189 O 0.26270 0.79264 0.20523
 O190 O 0.22294 0.72070 0.28201
 O191 O 0.26857 0.67458 0.26266
 O192 O 0.30843 0.74680 0.18553
 O193 O 0.32450 0.73012 0.26260
 O194 O 0.25206 0.69084 0.18553
 Cu195 Cu 0.23809 0.76121 0.24544
 Cu196 Cu 0.29298 0.70594 0.22198
 C197 C 0.21715 0.70752 0.18220
 C198 C 0.31345 0.75926 0.28578
 C199 C 0.29203 0.78185 0.18221
 C200 C 0.23952 0.68583 0.28587
 O201 O 0.80918 0.24739 0.68750
 O202 O 0.76990 0.17455 0.76441
 O203 O 0.75315 0.19103 0.68742
 O204 O 0.82543 0.23050 0.76455
 O205 O 0.77934 0.27607 0.78411
 O206 O 0.70735 0.23671 0.70735
 O207 O 0.72400 0.22030 0.78400
 O208 O 0.76317 0.29285 0.70741
 Cu209 Cu 0.79405 0.20628 0.72384
 Cu210 Cu 0.73883 0.26109 0.74757
 C211 C 0.79254 0.28234 0.68431
 C212 C 0.74079 0.18550 0.78770
 C213 C 0.71812 0.20747 0.68422
 C214 C 0.81420 0.25946 0.78787
 O215 O 0.29268 0.76346 0.70668
 O216 O 0.22070 0.72411 0.78360
 O217 O 0.23688 0.70730 0.70696
 O218 O 0.27602 0.77991 0.78327
 O219 O 0.23011 0.82564 0.76351
 O220 O 0.19086 0.75275 0.68688
 O221 O 0.17460 0.76966 0.76386
 O222 O 0.24687 0.80911 0.68657
 Cu223 Cu 0.26121 0.73909 0.74700
 Cu224 Cu 0.20598 0.79387 0.72306
 C225 C 0.28191 0.79267 0.68343
 C226 C 0.18584 0.74071 0.78729
 C227 C 0.20751 0.71780 0.68382
 C228 C 0.25922 0.81471 0.78683
 O229 O 0.20639 0.26214 0.79404
 O230 O 0.27926 0.22285 0.71773
 O231 O 0.26269 0.20598 0.79427
 O232 O 0.22341 0.27859 0.71756
 O233 O 0.26878 0.32431 0.73751
 O234 O 0.30817 0.25140 0.81458
 O235 O 0.32482 0.26838 0.73769
 O236 O 0.25166 0.30778 0.81434
 Cu237 Cu 0.23835 0.23778 0.75401
 Cu238 Cu 0.29294 0.29255 0.77820
 C239 C 0.21674 0.29137 0.81726
 C240 C 0.31400 0.23945 0.71425
 C241 C 0.29180 0.21646 0.81759
 C242 C 0.23991 0.31339 0.71404
 O243 O 0.69174 0.74795 0.81387
 O244 O 0.73134 0.67533 0.73689
 O245 O 0.74840 0.69174 0.81371
 O246 O 0.67519 0.73114 0.73697
 O247 O 0.72064 0.77684 0.71702
 O248 O 0.79356 0.73754 0.79339
 O249 O 0.77661 0.72121 0.71692
 O250 O 0.73712 0.79354 0.79356
 Cu251 Cu 0.70709 0.70694 0.77753
 Cu252 Cu 0.76155 0.76191 0.75333
 C253 C 0.70802 0.78293 0.81687
 C254 C 0.76020 0.68638 0.71342
 C255 C 0.78327 0.70823 0.81663
 C256 C 0.68594 0.76016 0.71353
 C257 C 0.30141 0.10029 0.08397
 C258 C 0.29277 0.11696 0.11579
 C259 C 0.28205 0.13853 0.15169
 C260 C 0.27220 0.15878 0.18094
 C261 C 0.80290 0.60134 0.58416
 C262 C 0.79413 0.61816 0.61583
 C263 C 0.78320 0.63982 0.65159
 C264 C 0.77315 0.66008 0.68075
 C265 C 0.69822 0.90023 0.08293
 C266 C 0.70693 0.88353 0.11477
 C267 C 0.71774 0.86192 0.15069
 C268 C 0.72764 0.84162 0.17996
 C269 C 0.19730 0.39871 0.58466
 C270 C 0.20607 0.38186 0.61637
 C271 C 0.21699 0.36014 0.65217
 C272 C 0.22701 0.33980 0.68135
 C273 C 0.88235 0.32454 0.06101
 C274 C 0.86001 0.32125 0.09024
 C275 C 0.83333 0.31416 0.12351
 C276 C 0.81032 0.30556 0.15105
 C277 C 0.38173 0.82541 0.56217
 C278 C 0.35927 0.82193 0.59127
 C279 C 0.33247 0.81465 0.62439
 C280 C 0.30939 0.80591 0.65183
 C281 C 0.11763 0.67551 0.06059
 C282 C 0.13997 0.67877 0.08981
 C283 C 0.16666 0.68584 0.12306
 C284 C 0.18968 0.69443 0.15057
 C285 C 0.61828 0.17462 0.56310
 C286 C 0.64074 0.17813 0.59219
 C287 C 0.66754 0.18545 0.62528
 C288 C 0.69063 0.19422 0.65268
 C289 C 0.69833 0.10065 0.91727
 C290 C 0.70711 0.11731 0.88548
 C291 C 0.71800 0.13890 0.84962
 C292 C 0.72797 0.15916 0.82041
 C293 C 0.19698 0.60161 0.41578
 C294 C 0.20568 0.61828 0.38398
 C295 C 0.21654 0.63970 0.34804
 C296 C 0.22656 0.65976 0.31873
 C297 C 0.30171 0.89952 0.91614
 C298 C 0.29291 0.88290 0.88439
 C299 C 0.28201 0.86133 0.84859
 C300 C 0.27204 0.84107 0.81945
 C301 C 0.80302 0.39850 0.41587
 C302 C 0.79431 0.38183 0.38414
 C303 C 0.78343 0.36038 0.34829
 C304 C 0.77342 0.34030 0.31905
 C305 C 0.11589 0.32457 0.93766
 C306 C 0.13849 0.32096 0.90868
 C307 C 0.16554 0.31352 0.87577
 C308 C 0.18889 0.30467 0.84856
 C309 C 0.61666 0.82558 0.43697
 C310 C 0.63919 0.82210 0.40790
 C311 C 0.66613 0.81484 0.37485
 C312 C 0.68939 0.80615 0.34751
 C313 C 0.88414 0.67525 0.93718
 C314 C 0.86154 0.67878 0.90817
 C315 C 0.83448 0.68615 0.87523
 C316 C 0.81113 0.69495 0.84798
 C317 C 0.38336 0.17442 0.43785
 C318 C 0.36083 0.17795 0.40878
 C319 C 0.33388 0.18527 0.37574
 C320 C 0.31060 0.19402 0.34840
 C321 C 0.67530 0.88297 0.93795
 C322 C 0.67874 0.86048 0.90889
 C323 C 0.68601 0.83363 0.87580
 C324 C 0.69476 0.81050 0.84840
 C325 C 0.17460 0.38285 0.43755
 C326 C 0.17826 0.36031 0.40854
 C327 C 0.18573 0.33331 0.37560
 C328 C 0.19456 0.31001 0.34836
 C329 C 0.32417 0.11597 0.93873
 C330 C 0.32082 0.13855 0.90964
 C331 C 0.31365 0.16552 0.87655
 C332 C 0.30498 0.18876 0.84914
 C333 C 0.82547 0.61727 0.43698
 C334 C 0.82178 0.63984 0.40792
 C335 C 0.81429 0.66686 0.37492
 C336 C 0.80544 0.69019 0.34763
 C337 C 0.10180 0.69826 0.91730
 C338 C 0.11834 0.70701 0.88546
 C339 C 0.13970 0.71789 0.84949
 C340 C 0.15974 0.72786 0.82016
 C341 C 0.60195 0.19796 0.41601
 C342 C 0.61867 0.20680 0.38430
 C343 C 0.64022 0.21777 0.34848
 C344 C 0.66040 0.22780 0.31926
 C345 C 0.89822 0.30185 0.91779
 C346 C 0.88168 0.29312 0.88596
 C347 C 0.86033 0.28226 0.85001
 C348 C 0.84029 0.27230 0.82071
 C349 C 0.39808 0.80200 0.41516
 C350 C 0.38137 0.79315 0.38347
 C351 C 0.35983 0.78218 0.34768
 C352 C 0.33966 0.77214 0.31850
 C353 C 0.32501 0.88176 0.06104
 C354 C 0.32157 0.85924 0.09013
 C355 C 0.31424 0.83240 0.12324
 C356 C 0.30542 0.80931 0.15066
 C357 C 0.82553 0.38242 0.56313
 C358 C 0.82190 0.35998 0.59227
 C359 C 0.81450 0.33315 0.62540
 C360 C 0.80573 0.30999 0.65280
 C361 C 0.67516 0.11810 0.06218
 C362 C 0.67861 0.14059 0.09122
 C363 C 0.68592 0.16743 0.12424
 C364 C 0.69472 0.19053 0.15158
 C365 C 0.17454 0.61766 0.56300
 C366 C 0.17816 0.64011 0.59207
 C367 C 0.18556 0.66696 0.62510
 C368 C 0.19432 0.69013 0.65241
 C369 C 0.90020 0.69856 0.08414
 C370 C 0.88329 0.70738 0.11577
 C371 C 0.86145 0.71832 0.15145
 C372 C 0.84100 0.72834 0.18051
 C373 C 0.39938 0.19720 0.58496
 C374 C 0.38253 0.20589 0.61667
 C375 C 0.36080 0.21669 0.65245
 C376 C 0.34045 0.22663 0.68161
 C377 C 0.09976 0.30161 0.08475
 C378 C 0.11665 0.29286 0.11644
 C379 C 0.13847 0.28198 0.15218
 C380 C 0.15891 0.27199 0.18129
 C381 C 0.60060 0.80255 0.58412
 C382 C 0.61743 0.79382 0.61585
 C383 C 0.63914 0.78296 0.65167
 C384 C 0.65949 0.77300 0.68085
   
