data_POSCAR
  _audit_creation_date              2014-09-24
  _audit_creation_method            'ToBaCCo'
  _symmetry_space_group_name_H-M    'P1'
  _symmetry_Int_Tables_number       1
  _symmetry_cell_setting            triclinic
  loop_
  _symmetry_equiv_pos_as_xyz
 x,y,z
_cell_length_a 32.0374
_cell_length_b 30.4824
_cell_length_c 30.4664
_cell_angle_alpha 89.948500
_cell_angle_beta 90.015000
_cell_angle_gamma 89.968000
loop_
  _atom_site_label
  _atom_site_type_symbol
  _atom_site_fract_x
  _atom_site_fract_y
  _atom_site_fract_z
C1 C 0.31339 0.31059 0.23327
 H2 H 0.31508 0.31156 0.26872
 C3 C 0.34023 0.33655 0.20820
 H4 H 0.36218 0.35795 0.22467
 C5 C 0.28232 0.28168 0.16892
 H6 H 0.26026 0.25970 0.15367
 C7 C 0.30855 0.30710 0.14259
 H8 H 0.30629 0.30435 0.10724
 N9 N 0.28479 0.28430 0.21341
 C10 C 0.18599 0.26626 0.31027
 H11 H 0.18424 0.23082 0.31106
 C12 C 0.15902 0.29120 0.33620
 H13 H 0.13635 0.27467 0.35671
 C14 C 0.21698 0.33071 0.28147
 H15 H 0.23925 0.34604 0.25976
 C16 C 0.19057 0.35692 0.30680
 H17 H 0.19348 0.39226 0.30490
 Zn18 Zn 0.24982 0.24991 0.24984
 N19 N 0.21462 0.28623 0.28407
 C20 C 0.28234 0.21839 0.33088
 N21 N 0.28491 0.21572 0.28640
 C22 C 0.31369 0.18954 0.26666
 C23 C 0.34060 0.16372 0.29184
 C24 C 0.30862 0.19311 0.35732
 C25 C 0.18620 0.23314 0.18924
 C26 C 0.15939 0.20801 0.16333
 C27 C 0.19137 0.14252 0.19280
 C28 C 0.21756 0.16891 0.21817
 N29 N 0.21493 0.21337 0.21551
 H30 H 0.26013 0.24029 0.34604
 H31 H 0.31547 0.18853 0.23121
 H32 H 0.36268 0.14239 0.27546
 H33 H 0.30627 0.19589 0.39266
 H34 H 0.18438 0.26857 0.18823
 H35 H 0.13734 0.22442 0.14194
 H36 H 0.19375 0.10719 0.19559
 H37 H 0.23973 0.15374 0.24014
 C38 C 0.16123 0.33720 0.33481
 C39 C 0.33787 0.33517 0.16219
 C40 C 0.16191 0.16203 0.16475
 C41 C 0.33812 0.16513 0.33784
 C42 C 0.81369 0.81109 0.23285
 H43 H 0.81524 0.81230 0.26831
 C44 C 0.84052 0.83704 0.20777
 H45 H 0.86130 0.85889 0.22513
 C46 C 0.78272 0.78206 0.16873
 H47 H 0.76085 0.75979 0.15357
 C48 C 0.80885 0.80745 0.14229
 H49 H 0.80661 0.80299 0.10718
 N50 N 0.78514 0.78476 0.21314
 C51 C 0.68638 0.76665 0.31004
 H52 H 0.68468 0.73121 0.31082
 C53 C 0.65939 0.79155 0.33598
 H54 H 0.63675 0.77498 0.35650
 C55 C 0.71729 0.83115 0.28126
 H56 H 0.73955 0.84651 0.25955
 C57 C 0.69086 0.85732 0.30660
 H58 H 0.69374 0.89266 0.30472
 Zn59 Zn 0.75022 0.75037 0.24964
 N60 N 0.71499 0.78666 0.28385
 C61 C 0.78274 0.71890 0.33070
 N62 N 0.78535 0.71624 0.28622
 C63 C 0.81412 0.69004 0.26649
 C64 C 0.84097 0.66416 0.29169
 C65 C 0.80896 0.69357 0.35716
 C66 C 0.68666 0.73343 0.18901
 C67 C 0.65988 0.70822 0.16314
 C68 C 0.69186 0.64282 0.19282
 C69 C 0.71801 0.66929 0.21814
 N70 N 0.71537 0.71374 0.21536
 H71 H 0.76054 0.74082 0.34584
 H72 H 0.81592 0.68903 0.23105
 H73 H 0.86303 0.64280 0.27533
 H74 H 0.80658 0.69633 0.39250
 H75 H 0.68482 0.76886 0.18790
 H76 H 0.63784 0.72455 0.14169
 H77 H 0.69425 0.60750 0.19571
 H78 H 0.74016 0.65418 0.24018
 C79 C 0.66156 0.83755 0.33462
 C80 C 0.83849 0.83597 0.16142
 C81 C 0.66242 0.66224 0.16469
 C82 C 0.83843 0.66554 0.33770
 C83 C 0.81391 0.31048 0.73372
 H84 H 0.81564 0.31150 0.76917
 C85 C 0.84067 0.33649 0.70859
 H86 H 0.86258 0.35795 0.72501
 C87 C 0.78284 0.28144 0.66943
 H88 H 0.76081 0.25939 0.65424
 C89 C 0.80898 0.30690 0.64304
 H90 H 0.80669 0.30410 0.60770
 N91 N 0.78535 0.28411 0.71392
 C92 C 0.68668 0.26605 0.81093
 H93 H 0.68503 0.23061 0.81183
 C94 C 0.65967 0.29099 0.83681
 H95 H 0.63706 0.27446 0.85739
 C96 C 0.71748 0.33049 0.78191
 H97 H 0.73969 0.34582 0.76012
 C98 C 0.69103 0.35671 0.80718
 H99 H 0.69384 0.39204 0.80516
 Zn100 Zn 0.75044 0.24970 0.75041
 N101 N 0.71524 0.28601 0.78464
 C102 C 0.78311 0.21817 0.83131
 N103 N 0.78558 0.21554 0.78695
 C104 C 0.81433 0.18945 0.76731
 C105 C 0.84130 0.16362 0.79240
 C106 C 0.80936 0.19294 0.85781
 C107 C 0.68679 0.23291 0.68987
 C108 C 0.65999 0.20779 0.66394
 C109 C 0.69204 0.14229 0.69333
 C110 C 0.71822 0.16868 0.71871
 N111 N 0.71555 0.21314 0.71611
 H112 H 0.76113 0.24037 0.84643
 H113 H 0.81587 0.18824 0.73185
 H114 H 0.86169 0.14186 0.77448
 H115 H 0.80690 0.19815 0.89275
 H116 H 0.68494 0.26834 0.68890
 H117 H 0.63792 0.22420 0.64258
 H118 H 0.69446 0.10696 0.69606
 H119 H 0.74041 0.15350 0.74065
 C120 C 0.66175 0.33699 0.83527
 C121 C 0.83825 0.33507 0.66258
 C122 C 0.66256 0.16181 0.66530
 C123 C 0.83939 0.16437 0.83893
 C124 C 0.31344 0.81100 0.73346
 H125 H 0.31512 0.81203 0.76892
 C126 C 0.34028 0.83694 0.70837
 H127 H 0.36221 0.85837 0.72481
 C128 C 0.28242 0.78197 0.66914
 H129 H 0.26038 0.75995 0.65392
 C130 C 0.30864 0.80737 0.64278
 H131 H 0.30641 0.80455 0.60743
 N132 N 0.28487 0.78466 0.71363
 C133 C 0.18607 0.76657 0.81049
 H134 H 0.18437 0.73113 0.81131
 C135 C 0.15903 0.79149 0.83635
 H136 H 0.13636 0.77494 0.85686
 C137 C 0.21698 0.83104 0.78165
 H138 H 0.23924 0.84638 0.75993
 C139 C 0.19050 0.85723 0.80691
 H140 H 0.19335 0.89257 0.80497
 Zn141 Zn 0.24993 0.75026 0.75008
 N142 N 0.21469 0.78655 0.78430
 C143 C 0.28245 0.71866 0.83111
 N144 N 0.28505 0.71609 0.78663
 C145 C 0.31385 0.68997 0.76685
 C146 C 0.34075 0.66409 0.79199
 C147 C 0.30872 0.69333 0.85752
 C148 C 0.18634 0.73338 0.68946
 C149 C 0.15958 0.70820 0.66353
 C150 C 0.19162 0.64277 0.69308
 C151 C 0.21776 0.66921 0.71845
 N152 N 0.21508 0.71367 0.71576
 H153 H 0.26021 0.74052 0.84630
 H154 H 0.31564 0.68903 0.73140
 H155 H 0.36283 0.64280 0.77557
 H156 H 0.30634 0.69602 0.89286
 H157 H 0.18448 0.76881 0.68842
 H158 H 0.13754 0.72456 0.64211
 H159 H 0.19405 0.60745 0.69589
 H160 H 0.23992 0.65408 0.74046
 C161 C 0.16115 0.83749 0.83490
 C162 C 0.33795 0.83549 0.66235
 C163 C 0.16217 0.66222 0.66498
 C164 C 0.33823 0.66539 0.83799
 Si165 Si -0.00043 0.00024 -0.00021
 Si166 Si 0.00012 0.50004 0.50011
 Si167 Si 0.50036 0.00010 0.50012
 Si168 Si 0.50026 0.49993 0.00007
 C169 C 0.08050 -0.08327 -0.08486
 C170 C 0.09796 -0.12181 -0.06791
 C171 C 0.12403 -0.14769 -0.09403
 C172 C 0.13304 -0.13530 -0.13752
 C173 C 0.11521 -0.09654 -0.15430
 C174 C 0.08911 -0.07073 -0.12811
 C175 C 0.05409 -0.05640 -0.05774
 C176 C 0.03218 -0.03384 -0.03488
 H177 H 0.09160 -0.13173 -0.03441
 H178 H 0.13770 -0.17700 -0.07998
 H179 H 0.12109 -0.08642 -0.18780
 H180 H 0.07568 -0.04100 -0.14159
 C181 C 0.08088 0.41649 0.41532
 C182 C 0.09829 0.37789 0.43218
 C183 C 0.12426 0.35199 0.40597
 C184 C 0.13322 0.36443 0.36248
 C185 C 0.11544 0.40325 0.34579
 C186 C 0.08944 0.42907 0.37207
 C187 C 0.05456 0.44337 0.44252
 C188 C 0.03270 0.46594 0.46542
 H189 H 0.09198 0.36793 0.46568
 H190 H 0.13790 0.32262 0.41995
 H191 H 0.12128 0.41340 0.31229
 H192 H 0.07604 0.45885 0.35866
 C193 C 0.58115 -0.08332 0.41523
 C194 C 0.59861 -0.12191 0.43206
 C195 C 0.62461 -0.14775 0.40581
 C196 C 0.63353 -0.13527 0.36232
 C197 C 0.61569 -0.09646 0.34568
 C198 C 0.58968 -0.07069 0.37198
 C199 C 0.55481 -0.05650 0.44246
 C200 C 0.53293 -0.03397 0.46539
 H201 H 0.59233 -0.13190 0.46555
 H202 H 0.63829 -0.17711 0.41977
 H203 H 0.62151 -0.08628 0.31218
 H204 H 0.57624 -0.04092 0.35860
 C205 C 0.58116 0.41631 -0.08452
 C206 C 0.59867 0.37783 -0.06752
 C207 C 0.62473 0.35192 -0.09363
 C208 C 0.63366 0.36423 -0.13716
 C209 C 0.61576 0.40293 -0.15399
 C210 C 0.58969 0.42877 -0.12782
 C211 C 0.55477 0.44321 -0.05742
 C212 C 0.53286 0.46581 -0.03458
 H213 H 0.59238 0.36797 -0.03399
 H214 H 0.63844 0.32264 -0.07954
 H215 H 0.62158 0.41298 -0.18753
 H216 H 0.57621 0.45846 -0.14133
 C217 C -0.08175 0.08539 -0.08302
 C218 C -0.11803 0.10329 -0.06523
 C219 C -0.14417 0.12957 -0.09092
 C220 C -0.13477 0.13880 -0.13560
 C221 C -0.09748 0.12010 -0.15265
 C222 C -0.07152 0.09389 -0.12667
 C223 C -0.05518 0.05806 -0.05647
 C224 C -0.03315 0.03506 -0.03411
 H225 H -0.12650 0.09649 -0.03147
 H226 H -0.17271 0.14034 -0.07550
 H227 H -0.08648 0.12689 -0.18543
 H228 H -0.04316 0.08049 -0.14068
 C229 C -0.08137 0.58496 0.41728
 C230 C -0.12325 0.59076 0.42891
 C231 C -0.14931 0.61702 0.40311
 C232 C -0.13379 0.63784 0.36523
 C233 C -0.09160 0.63181 0.35383
 C234 C -0.06559 0.60555 0.37972
 C235 C -0.05472 0.55773 0.44383
 C236 C -0.03264 0.53480 0.46620
 H237 H -0.13582 0.57485 0.45785
 H238 H -0.18175 0.62052 0.41243
 H239 H -0.07859 0.64783 0.32520
 H240 H -0.03317 0.60134 0.37048
 C241 C 0.41867 0.08489 0.41738
 C242 C 0.37679 0.09058 0.42908
 C243 C 0.35062 0.11673 0.40329
 C244 C 0.36602 0.13754 0.36536
 C245 C 0.40821 0.13163 0.35389
 C246 C 0.43434 0.10548 0.37977
 C247 C 0.44543 0.05775 0.44390
 C248 C 0.46757 0.03486 0.46625
 H249 H 0.36431 0.07466 0.45806
 H250 H 0.31819 0.12014 0.41266
 H251 H 0.42113 0.14765 0.32522
 H252 H 0.46674 0.10136 0.37047
 C253 C 0.41865 0.58483 -0.08265
 C254 C 0.43436 0.60553 -0.12018
 C255 C 0.40828 0.63179 -0.14599
 C256 C 0.36609 0.63771 -0.13454
 C257 C 0.35064 0.61679 -0.09669
 C258 C 0.37677 0.59053 -0.07096
 C259 C 0.44537 0.55761 -0.05617
 C260 C 0.46749 0.53468 -0.03384
 H261 H 0.46677 0.60141 -0.12946
 H262 H 0.42123 0.64789 -0.17460
 H263 H 0.31820 0.62021 -0.08733
 H264 H 0.36425 0.57454 -0.04204
 C265 C -0.08204 -0.08434 0.08271
 C266 C -0.07014 -0.09574 0.12530
 C267 C -0.09611 -0.12194 0.15124
 C268 C -0.13483 -0.13750 0.13507
 C269 C -0.14612 -0.12554 0.09172
 C270 C -0.12003 -0.09929 0.06601
 C271 C -0.05541 -0.05714 0.05615
 C272 C -0.03331 -0.03429 0.03376
 H273 H -0.04056 -0.08460 0.13845
 H274 H -0.08463 -0.13109 0.18332
 H275 H -0.17588 -0.13469 0.07774
 H276 H -0.12973 -0.09031 0.03313
 C277 C -0.08155 0.41563 0.58311
 C278 C -0.06582 0.39517 0.62078
 C279 C -0.09184 0.36893 0.64665
 C280 C -0.13398 0.36281 0.63512
 C281 C -0.14946 0.38352 0.59715
 C282 C -0.12340 0.40975 0.57136
 C283 C -0.05486 0.44274 0.55654
 C284 C -0.03274 0.46555 0.53412
 H285 H -0.03344 0.39942 0.63011
 H286 H -0.07886 0.35300 0.67536
 H287 H -0.18186 0.37994 0.58772
 H288 H -0.13592 0.42556 0.54234
 C289 C 0.41848 -0.08424 0.58299
 C290 C 0.43409 -0.10471 0.62071
 C291 C 0.40796 -0.13085 0.64654
 C292 C 0.36583 -0.13688 0.63492
 C293 C 0.35048 -0.11617 0.59689
 C294 C 0.37665 -0.09002 0.57114
 C295 C 0.44528 -0.05718 0.55646
 C296 C 0.46746 -0.03441 0.53409
 H297 H 0.46647 -0.10052 0.63011
 H298 H 0.42084 -0.14679 0.67529
 H299 H 0.31808 -0.11967 0.58740
 H300 H 0.36422 -0.07420 0.54208
 C301 C 0.41838 0.41559 0.08292
 C302 C 0.43401 0.39505 0.12060
 C303 C 0.40788 0.36886 0.14640
 C304 C 0.36574 0.36286 0.13479
 C305 C 0.35038 0.38364 0.09681
 C306 C 0.37654 0.40983 0.07109
 C307 C 0.44517 0.44267 0.05642
 C308 C 0.46735 0.46545 0.03405
 H309 H 0.46638 0.39920 0.12998
 H310 H 0.42078 0.35286 0.17511
 H311 H 0.31797 0.38016 0.08733
 H312 H 0.36409 0.42571 0.04207
 C313 C 0.08148 0.08269 0.08441
 C314 C 0.12336 0.07096 0.09015
 C315 C 0.14949 0.09668 0.11634
 C316 C 0.13406 0.13458 0.13713
 C317 C 0.09188 0.14607 0.13116
 C318 C 0.06579 0.12026 0.10498
 C319 C 0.05473 0.05623 0.05727
 C320 C 0.03255 0.03397 0.03442
 H321 H 0.13586 0.04201 0.07426
 H322 H 0.18192 0.08729 0.11979
 H323 H 0.07893 0.17471 0.14716
 H324 H 0.03338 0.12958 0.10083
 C325 C 0.08194 0.58269 0.58462
 C326 C 0.12383 0.57104 0.59041
 C327 C 0.14990 0.59683 0.61659
 C328 C 0.13439 0.63471 0.63734
 C329 C 0.09219 0.64613 0.63133
 C330 C 0.06617 0.62025 0.60514
 C331 C 0.05525 0.55616 0.55750
 C332 C 0.03309 0.53383 0.53467
 H333 H 0.13639 0.54210 0.57455
 H334 H 0.18234 0.58750 0.62008
 H335 H 0.07919 0.67476 0.64730
 H336 H 0.03375 0.62951 0.60096
 C337 C 0.58223 0.08252 0.58480
 C338 C 0.62411 0.07082 0.59054
 C339 C 0.65021 0.09653 0.61678
 C340 C 0.63474 0.13437 0.63764
 C341 C 0.59255 0.14583 0.63168
 C342 C 0.56649 0.12004 0.60544
 C343 C 0.55551 0.05608 0.55761
 C344 C 0.53333 0.03383 0.53474
 H345 H 0.63664 0.04192 0.57459
 H346 H 0.68266 0.08716 0.62023
 H347 H 0.57956 0.17442 0.64773
 H348 H 0.53408 0.12932 0.60130
 C349 C 0.58210 0.58262 0.08451
 C350 C 0.56636 0.62024 0.10496
 C351 C 0.59242 0.64615 0.13108
 C352 C 0.63460 0.63470 0.13711
 C353 C 0.65007 0.59675 0.11645
 C354 C 0.62397 0.57093 0.09033
 C355 C 0.55538 0.55606 0.05744
 C356 C 0.53321 0.53373 0.03463
 H357 H 0.53396 0.62952 0.10076
 H358 H 0.57944 0.67483 0.14699
 H359 H 0.68251 0.58739 0.11996
 H360 H 0.63650 0.54194 0.07453
   
