data_POSCAR
  _audit_creation_date              2014-09-24
  _audit_creation_method            'ToBaCCo'
  _symmetry_space_group_name_H-M    'P1'
  _symmetry_Int_Tables_number       1
  _symmetry_cell_setting            triclinic
  loop_
  _symmetry_equiv_pos_as_xyz
 x,y,z
_cell_length_a 50.6335
_cell_length_b 46.4102
_cell_length_c 44.4817
_cell_angle_alpha 93.711000
_cell_angle_beta 85.698500
_cell_angle_gamma 90.424100
loop_
  _atom_site_label
  _atom_site_type_symbol
  _atom_site_fract_x
  _atom_site_fract_y
  _atom_site_fract_z
N1 N 0.18863 1.27006 0.16624
 N2 N 0.16954 1.26886 0.18778
 C3 C 0.15020 1.28728 0.18276
 C4 C 0.15759 1.30112 0.15660
 C5 C 0.18233 1.28966 0.14697
 H6 H 0.13206 1.29000 0.19704
 H7 H 0.19438 1.29406 0.12669
 Cu8 Cu 0.17117 1.24217 0.21935
 Cu9 Cu 0.21893 1.24405 0.16318
 Cu10 Cu 0.22272 1.19790 0.22135
 N11 N 0.16871 1.20844 0.24303
 N12 N 0.18922 1.19162 0.24461
 C13 C 0.18236 1.17037 0.26289
 C14 C 0.15580 1.17366 0.27299
 C15 C 0.14792 1.19824 0.25976
 H16 H 0.19564 1.15331 0.26742
 H17 H 0.12860 1.20822 0.26201
 N18 N 0.24975 1.19922 0.18712
 N19 N 0.24791 1.21614 0.16463
 C20 C 0.26715 1.20911 0.14292
 C21 C 0.28177 1.18660 0.15205
 C22 C 0.27027 1.18106 0.18032
 H23 H 0.26960 1.21878 0.12142
 H24 H 0.27512 1.16358 0.19386
 H25 H 0.20138 1.21124 0.18749
 H26 H 0.21962 1.24014 0.20840
 N27 N 0.78835 0.76791 0.17632
 N28 N 0.80568 0.76700 0.19680
 C29 C 0.82400 0.74680 0.18766
 C30 C 0.81792 0.73450 0.15980
 C31 C 0.79507 0.74839 0.15338
 H32 H 0.84121 0.74249 0.19964
 H33 H 0.78441 0.74506 0.13325
 Cu34 Cu 0.80437 0.79433 0.23188
 Cu35 Cu 0.75911 0.79524 0.18061
 Cu36 Cu 0.77066 0.85580 0.22757
 N37 N 0.81113 0.82853 0.25768
 N38 N 0.79860 0.85278 0.25501
 C39 C 0.80887 0.87377 0.27290
 C40 C 0.82916 0.86218 0.28770
 C41 C 0.82977 0.83317 0.27752
 H42 H 0.80224 0.89591 0.27437
 H43 H 0.84362 0.81690 0.28264
 N44 N 0.74306 0.85418 0.19850
 N45 N 0.73820 0.83088 0.18116
 C46 C 0.71876 0.83672 0.16342
 C47 C 0.71106 0.86518 0.16979
 C48 C 0.72687 0.87549 0.19222
 H49 H 0.71160 0.82176 0.14621
 H50 H 0.72680 0.89705 0.20295
 H51 H 0.78597 0.82443 0.19607
 H52 H 0.76005 0.81313 0.22498
 N53 N 0.80168 1.23597 -0.16485
 N54 N 0.82084 1.23829 -0.18619
 C55 C 0.83843 1.25816 -0.17686
 C56 C 0.82994 1.26878 -0.14796
 C57 C 0.80652 1.25418 -0.14109
 H58 H 0.85664 1.26351 -0.18961
 H59 H 0.79402 1.25644 -0.12028
 Cu60 Cu 0.82237 1.21320 -0.22284
 Cu61 Cu 0.77230 1.20900 -0.16925
 Cu62 Cu 0.77367 1.16626 -0.23647
 N63 N 0.82793 1.18038 -0.25199
 N64 N 0.80845 1.16266 -0.25807
 C65 C 0.81726 1.14231 -0.27926
 C66 C 0.84407 1.14706 -0.28654
 C67 C 0.85004 1.17162 -0.26864
 H68 H 0.80512 1.12474 -0.28760
 H69 H 0.86892 1.18251 -0.26767
 N70 N 0.74496 1.16453 -0.20427
 N71 N 0.74444 1.18054 -0.17860
 C72 C 0.72370 1.17229 -0.16035
 C73 C 0.71084 1.14972 -0.17505
 C74 C 0.72485 1.14543 -0.20287
 H75 H 0.71926 1.18074 -0.13731
 H76 H 0.72144 1.12876 -0.22028
 H77 H 0.79263 1.17905 -0.19876
 H78 H 0.77389 1.20789 -0.21513
 N79 N 0.19393 0.73897 -0.17579
 N80 N 0.17982 0.74059 -0.19924
 C81 C 0.15880 0.72277 -0.19637
 C82 C 0.15991 0.70906 -0.16974
 C83 C 0.18256 0.71980 -0.15736
 H84 H 0.14352 0.72057 -0.21209
 H85 H 0.18938 0.71529 -0.13570
 Cu86 Cu 0.18909 0.76734 -0.23015
 Cu87 Cu 0.22400 0.76440 -0.16895
 Cu88 Cu 0.23402 0.81949 -0.21745
 N89 N 0.19165 0.80110 -0.25379
 N90 N 0.20877 0.82179 -0.24820
 C91 C 0.20471 0.84370 -0.26567
 C92 C 0.18389 0.83641 -0.28342
 C93 C 0.17629 0.80895 -0.27526
 H94 H 0.21593 0.86359 -0.26498
 H95 H 0.15990 0.79616 -0.28298
 N96 N 0.25727 0.81331 -0.18483
 N97 N 0.25318 0.79258 -0.16603
 C98 C 0.27066 0.79558 -0.14466
 C99 C 0.28663 0.81923 -0.15038
 C100 C 0.27765 0.82982 -0.17612
 H101 H 0.27127 0.78206 -0.12583
 H102 H 0.28452 0.84912 -0.18666
 H103 H 0.20727 0.79737 -0.19002
 H104 H 0.23331 0.77534 -0.21289
 C105 C 0.46902 0.97170 -0.01394
 C106 C 0.48199 0.99239 0.00409
 C107 C 0.46721 1.01255 0.02314
 C108 C 0.43945 1.01227 0.02406
 C109 C 0.42664 0.99127 0.00620
 C110 C 0.44126 0.97094 -0.01285
 C111 C 0.51106 0.99374 0.00203
 C112 C 0.52432 1.01262 -0.01738
 C113 C 0.55205 1.01374 -0.01989
 C114 C 0.56639 0.99640 -0.00228
 C115 C 0.55332 0.97799 0.01784
 C116 C 0.52554 0.97638 0.01953
 H117 H 0.48053 0.95629 -0.02880
 H118 H 0.47733 1.02888 0.03657
 H119 H 0.51309 1.02605 -0.03085
 H120 H 0.51517 0.96226 0.03494
 H121 H 0.40520 0.99106 0.00676
 H122 H 0.58784 0.99750 -0.00404
 C123 C -0.02700 0.46830 0.98850
 C124 C -0.00955 0.48441 1.00600
 C125 C 0.00610 0.47050 1.02530
 C126 C 0.00376 0.44060 1.02784
 C127 C -0.01408 0.42468 1.01060
 C128 C -0.02926 0.43831 0.99052
 C129 C -0.00857 0.51597 1.00492
 C130 C -0.02733 0.53297 1.02257
 C131 C -0.02738 0.56306 1.02097
 C132 C -0.00856 0.57596 1.00124
 C133 C 0.01066 0.55914 0.98383
 C134 C 0.01059 0.52906 0.98587
 H135 H -0.03902 0.47921 0.97359
 H136 H 0.01961 0.48299 1.03879
 H137 H -0.04204 0.52272 1.03736
 H138 H 0.02509 0.51580 0.97229
 H139 H -0.01547 0.40149 1.01210
 H140 H -0.00825 0.59924 1.00025
 C141 C 1.00642 -0.03461 0.46638
 C142 C 1.02651 -0.01878 0.48002
 C143 C 1.04365 -0.00146 0.46269
 C144 C 1.04033 0.00085 0.43190
 C145 C 1.01994 -0.01475 0.41853
 C146 C 1.00304 -0.03267 0.43556
 C147 C 1.02777 -0.01768 0.51297
 C148 C 1.04578 -0.03483 0.52620
 C149 C 1.04764 -0.03247 0.55762
 C150 C 1.03146 -0.01264 0.57559
 C151 C 1.01297 0.00414 0.56254
 C152 C 1.01123 0.00145 0.53117
 H153 H 0.99292 -0.04760 0.47997
 H154 H 1.05878 0.01123 0.47348
 H155 H 1.05842 -0.04978 0.51208
 H156 H 0.99732 0.01463 0.52079
 H157 H 1.01735 -0.01315 0.39472
 H158 H 1.03255 -0.01108 0.59988
 C159 C 0.13928 0.35427 1.10225
 C160 C 0.11218 0.35931 1.11090
 C161 C 0.10061 0.34449 1.13548
 C162 C 0.11591 0.32623 1.15118
 C163 C 0.14274 0.32098 1.14205
 C164 C 0.15412 0.33536 1.11738
 C165 C 0.07363 0.34745 1.14395
 C166 C 0.05756 0.36382 1.12774
 C167 C 0.06804 0.37865 1.10279
 C168 C 0.09603 0.37776 1.09540
 C169 C 0.10691 0.39550 1.07298
 C170 C 0.09091 0.41241 1.05723
 C171 C 0.06343 0.41170 1.06250
 C172 C 0.05152 0.39455 1.08510
 C173 C 0.02349 0.39325 1.08831
 C174 C 0.00815 0.40842 1.06990
 C175 C 0.02011 0.42572 1.04815
 C176 C 0.04775 0.42760 1.04479
 H177 H 0.14946 0.36384 1.08320
 H178 H 0.10634 0.31524 1.16978
 H179 H 0.17470 0.33228 1.10953
 H180 H 0.06468 0.33645 1.16295
 H181 H 0.03697 0.36497 1.13579
 H182 H 0.12792 0.39730 1.06750
 H183 H 0.10015 0.42570 1.04021
 H184 H 0.01281 0.37989 1.10403
 H185 H -0.01323 0.40654 1.07256
 H186 H 0.05703 0.44060 1.02752
 C187 C -0.15070 0.69396 1.08971
 C188 C -0.13285 0.67516 1.10172
 C189 C -0.13302 0.67505 1.13361
 C190 C -0.14921 0.69425 1.15235
 C191 C -0.16606 0.71335 1.14000
 C192 C -0.16701 0.71262 1.10859
 C193 C -0.11690 0.65593 1.14670
 C194 C -0.10057 0.63672 1.12891
 C195 C -0.09916 0.63636 1.09705
 C196 C -0.11496 0.65652 1.08326
 C197 C -0.11175 0.65800 1.05158
 C198 C -0.09393 0.64031 1.03392
 C199 C -0.07907 0.61991 1.04689
 C200 C -0.08190 0.61709 1.07854
 C201 C -0.06734 0.59496 1.09026
 C202 C -0.05007 0.57730 1.07146
 C203 C -0.04658 0.58110 1.04048
 C204 C -0.06127 0.60233 1.02829
 H205 H -0.15278 0.69460 1.06585
 H206 H -0.14877 0.69420 1.17668
 H207 H -0.17997 0.72701 1.09842
 H208 H -0.11693 0.65575 1.17107
 H209 H -0.08858 0.62300 1.14094
 H210 H -0.12215 0.67334 1.03971
 H211 H -0.09184 0.64257 1.00975
 H212 H -0.06907 0.59043 1.11377
 H213 H -0.03900 0.56086 1.08130
 H214 H -0.05900 0.60496 1.00418
 C215 C -0.14632 0.30821 0.92226
 C216 C -0.12723 0.32767 0.91023
 C217 C -0.12378 0.32837 0.87835
 C218 C -0.13787 0.30930 0.85960
 C219 C -0.15607 0.28961 0.87194
 C220 C -0.16045 0.28961 0.90338
 C221 C -0.10615 0.34795 0.86524
 C222 C -0.09171 0.36697 0.88301
 C223 C -0.09390 0.36680 0.91484
 C224 C -0.11150 0.34635 0.92865
 C225 C -0.11224 0.34472 0.96030
 C226 C -0.09642 0.36236 0.97789
 C227 C -0.07963 0.38277 0.96489
 C228 C -0.07852 0.38582 0.93329
 C229 C -0.06197 0.40784 0.92155
 C230 C -0.04650 0.42509 0.94025
 C231 C -0.04690 0.42106 0.97118
 C232 C -0.06373 0.40005 0.98340
 H233 H -0.15101 0.30691 0.94615
 H234 H -0.13475 0.30994 0.83528
 H235 H -0.17448 0.27474 0.91357
 H236 H -0.10345 0.34860 0.84088
 H237 H -0.07835 0.38106 0.87092
 H238 H -0.12434 0.32936 0.97223
 H239 H -0.09736 0.35996 1.00203
 H240 H -0.06060 0.41249 0.89808
 H241 H -0.03370 0.44130 0.93033
 H242 H -0.06451 0.39723 1.00746
 C243 C 0.09399 0.67451 0.85265
 C244 C 0.10063 0.65577 0.87484
 C245 C 0.12777 0.65337 0.88017
 C246 C 0.14697 0.67049 0.86531
 C247 C 0.13984 0.68976 0.84436
 C248 C 0.11332 0.69112 0.83772
 C249 C 0.13564 0.63415 0.90057
 C250 C 0.11718 0.61726 0.91608
 C251 C 0.08982 0.61944 0.91237
 C252 C 0.08136 0.63951 0.89193
 C253 C 0.05391 0.64339 0.89003
 C254 C 0.03534 0.62835 0.90750
 C255 C 0.04325 0.60832 0.92702
 C256 C 0.07056 0.60292 0.92919
 C257 C 0.07736 0.58124 0.94826
 C258 C 0.05789 0.56667 0.96535
 C259 C 0.03109 0.57322 0.96414
 C260 C 0.02389 0.59382 0.94465
 H261 H 0.07409 0.67676 0.84613
 H262 H 0.16756 0.66877 0.87008
 H263 H 0.10726 0.70565 0.82145
 H264 H 0.15636 0.63216 0.90466
 H265 H 0.12500 0.60334 0.93168
 H266 H 0.04601 0.65872 0.87593
 H267 H 0.01449 0.63252 0.90571
 H268 H 0.09750 0.57482 0.95037
 H269 H 0.06386 0.55065 0.98014
 H270 H 0.00309 0.59852 0.94318
 C271 C 1.09687 0.14157 0.31401
 C272 C 1.10794 0.11814 0.32748
 C273 C 1.13578 0.11464 0.32368
 C274 C 1.15146 0.13290 0.30561
 C275 C 1.14012 0.15565 0.29161
 C276 C 1.11265 0.15991 0.29659
 C277 C 1.14790 0.09293 0.33794
 C278 C 1.13306 0.07470 0.35621
 C279 C 1.10521 0.07694 0.36033
 C280 C 1.09238 0.09834 0.34482
 C281 C 1.06442 0.09877 0.34649
 C282 C 1.04947 0.07942 0.36321
 C283 C 1.06165 0.05930 0.37950
 C284 C 1.08968 0.05805 0.37885
 C285 C 1.10089 0.03810 0.39708
 C286 C 1.08489 0.01980 0.41441
 C287 C 1.05731 0.02053 0.41396
 C288 C 1.04583 0.04041 0.39653
 H289 H 1.07609 0.14671 0.31689
 H290 H 1.17264 0.12940 0.30298
 H291 H 1.10287 0.17722 0.28670
 H292 H 1.16920 0.09009 0.33512
 H293 H 1.14402 0.05841 0.36613
 H294 H 1.05337 0.11331 0.33434
 H295 H 1.02806 0.08037 0.36353
 H296 H 1.12190 0.03644 0.39891
 H297 H 1.09412 0.00474 0.42798
 H298 H 1.02443 0.04148 0.39666
 C299 C 1.16548 -0.09924 0.67665
 C300 C 1.14508 -0.11020 0.65905
 C301 C 1.13959 -0.14016 0.65909
 C302 C 1.15257 -0.15771 0.67792
 C303 C 1.17191 -0.14627 0.69647
 C304 C 1.17866 -0.11696 0.69480
 C305 C 1.12098 -0.15250 0.64054
 C306 C 1.10750 -0.13574 0.62198
 C307 C 1.11148 -0.10559 0.62195
 C308 C 1.13000 -0.09250 0.64149
 C309 C 1.13205 -0.06208 0.64377
 C310 C 1.11653 -0.04501 0.62766
 C311 C 1.09894 -0.05747 0.60793
 C312 C 1.09677 -0.08795 0.60396
 C313 C 1.07979 -0.09941 0.58221
 C314 C 1.06459 -0.08131 0.56652
 C315 C 1.06568 -0.05134 0.57205
 C316 C 1.08319 -0.03952 0.59243
 H317 H 1.17199 -0.07708 0.67665
 H318 H 1.14756 -0.18044 0.67774
 H319 H 1.19371 -0.10712 0.70812
 H320 H 1.11675 -0.17544 0.64035
 H321 H 1.09321 -0.14697 0.60875
 H322 H 1.14474 -0.05064 0.65888
 H323 H 1.11830 -0.02173 0.63074
 H324 H 1.07793 -0.12223 0.57661
 H325 H 1.05134 -0.09082 0.55059
 H326 H 1.08443 -0.01625 0.59628
 C327 C 0.86387 -0.07771 0.32846
 C328 C 0.88381 -0.09235 0.34201
 C329 C 0.88360 -0.12292 0.33918
 C330 C 0.86539 -0.13788 0.32151
 C331 C 0.84648 -0.12298 0.30686
 C332 C 0.84562 -0.09273 0.31138
 C333 C 0.90173 -0.13848 0.35378
 C334 C 0.92020 -0.12438 0.37111
 C335 C 0.92183 -0.09395 0.37381
 C336 C 0.90382 -0.07770 0.35827
 C337 C 0.90701 -0.04743 0.35854
 C338 C 0.92694 -0.03344 0.37358
 C339 C 0.94410 -0.04883 0.38959
 C340 C 0.94144 -0.07920 0.39068
 C341 C 0.95858 -0.09344 0.40867
 C342 C 0.97814 -0.07823 0.42371
 C343 C 0.98139 -0.04852 0.42115
 C344 C 0.96412 -0.03391 0.40434
 H345 H 0.86158 -0.05461 0.33089
 H346 H 0.86609 -0.16123 0.31941
 H347 H 0.83120 -0.08014 0.30125
 H348 H 0.90165 -0.16188 0.35181
 H349 H 0.93363 -0.13807 0.38127
 H350 H 0.89499 -0.03390 0.34633
 H351 H 0.92892 -0.01023 0.37266
 H352 H 0.95723 -0.11622 0.41187
 H353 H 0.99116 -0.08984 0.43691
 H354 H 0.96624 -0.01075 0.40289
 C355 C 0.86863 0.09040 0.65493
 C356 C 0.89636 0.09476 0.65346
 C357 C 0.90630 0.11700 0.67288
 C358 C 0.88895 0.13471 0.69198
 C359 C 0.86141 0.13009 0.69331
 C360 C 0.85163 0.10760 0.67453
 C361 C 0.93355 0.12127 0.67350
 C362 C 0.95129 0.10342 0.65589
 C363 C 0.94243 0.08091 0.63620
 C364 C 0.91453 0.07741 0.63393
 C365 C 0.90572 0.05699 0.61192
 C366 C 0.92344 0.03987 0.59349
 C367 C 0.95058 0.04184 0.59665
 C368 C 0.96053 0.06206 0.61832
 C369 C 0.98818 0.06209 0.62154
 C370 C 1.00506 0.04325 0.60357
 C371 C 0.99508 0.02401 0.58167
 C372 C 0.96782 0.02346 0.57831
 H373 H 0.85940 0.07336 0.64182
 H374 H 0.89727 0.15149 0.70649
 H375 H 0.83064 0.10311 0.67455
 H376 H 0.94131 0.13837 0.68815
 H377 H 0.97196 0.10830 0.65770
 H378 H 0.88515 0.05417 0.60780
 H379 H 0.91575 0.02462 0.57679
 H380 H 0.99734 0.07592 0.63817
 H381 H 1.02608 0.04388 0.60664
 H382 H 0.95994 0.00816 0.56176
 C383 C 0.32077 1.15023 0.08437
 C384 C 0.33812 1.13192 0.09777
 C385 C 0.33805 1.13395 0.12972
 C386 C 0.31998 1.15212 0.14730
 C387 C 0.30213 1.16909 0.13359
 C388 C 0.30315 1.16840 0.10202
 C389 C 0.35578 1.11760 0.14400
 C390 C 0.37357 1.09905 0.12734
 C391 C 0.37385 1.09548 0.09554
 C392 C 0.35537 1.11168 0.08059
 C393 C 0.35407 1.10639 0.04912
 C394 C 0.37022 1.08609 0.03273
 C395 C 0.38874 1.07066 0.04678
 C396 C 0.39139 1.07555 0.07823
 C397 C 0.41151 1.06019 0.09090
 C398 C 0.42741 1.04010 0.07323
 C399 C 0.42368 1.03453 0.04257
 C400 C 0.40452 1.05012 0.02944
 H401 H 0.32035 1.15122 0.06029
 H402 H 0.31979 1.15298 0.17172
 H403 H 0.28977 1.18137 0.09070
 H404 H 0.35591 1.11913 0.16842
 H405 H 0.38631 1.08701 0.14024
 H406 H 0.34005 1.11690 0.03646
 H407 H 0.36814 1.08240 0.00870
 H408 H 0.41566 1.06336 0.11428
 H409 H 0.44236 1.02845 0.08370
 H410 H 0.40201 1.04630 0.00550
 C411 C 0.66984 1.08384 -0.15691
 C412 C 0.65223 1.09448 -0.13254
 C413 C 0.65263 1.12456 -0.12459
 C414 C 0.67144 1.14255 -0.13888
 C415 C 0.68961 1.13130 -0.16186
 C416 C 0.68814 1.10201 -0.17126
 C417 C 0.63454 1.13647 -0.10211
 C418 C 0.61620 1.11917 -0.08692
 C419 C 0.61577 1.08892 -0.09297
 C420 C 0.63452 1.07631 -0.11566
 C421 C 0.63580 1.04592 -0.11980
 C422 C 0.61961 1.02839 -0.10218
 C423 C 0.60096 1.04032 -0.08038
 C424 C 0.59803 1.07072 -0.07614
 C425 C 0.57760 1.08151 -0.05492
 C426 C 0.56203 1.06290 -0.03749
 C427 C 0.56639 1.03313 -0.04053
 C428 C 0.58553 1.02192 -0.06236
 H429 H 0.66993 1.06162 -0.16557
 H430 H 0.67202 1.16538 -0.13199
 H431 H 0.70175 1.09278 -0.18918
 H432 H 0.63463 1.15948 -0.09606
 H433 H 0.60328 1.13010 -0.06956
 H434 H 0.64998 1.03485 -0.13566
 H435 H 0.62185 1.00516 -0.10559
 H436 H 0.57308 1.10417 -0.05131
 H437 H 0.54704 1.07187 -0.02091
 H438 H 0.58853 0.99875 -0.06509
 C439 C 0.32213 0.84391 -0.08136
 C440 C 0.34198 0.86254 -0.09331
 C441 C 0.34466 0.86441 -0.12508
 C442 C 0.32686 0.84987 -0.14359
 C443 C 0.30656 0.83266 -0.13114
 C444 C 0.30480 0.82926 -0.10002
 C445 C 0.36481 0.88111 -0.13825
 C446 C 0.38229 0.89641 -0.12059
 C447 C 0.37986 0.89629 -0.08876
 C448 C 0.35902 0.87952 -0.07487
 C449 C 0.35522 0.88121 -0.04302
 C450 C 0.37091 0.89889 -0.02533
 C451 C 0.39146 0.91504 -0.03848
 C452 C 0.39686 0.91331 -0.07029
 C453 C 0.41894 0.92901 -0.08221
 C454 C 0.43385 0.94688 -0.06342
 C455 C 0.42726 0.94976 -0.03228
 C456 C 0.40636 0.93338 -0.01989
 H457 H 0.31947 0.84005 -0.05771
 H458 H 0.32879 0.85206 -0.16777
 H459 H 0.28946 0.81588 -0.08981
 H460 H 0.36704 0.88250 -0.16254
 H461 H 0.39696 0.90909 -0.13263
 H462 H 0.33952 0.86995 -0.03096
 H463 H 0.36677 0.90006 -0.00101
 H464 H 0.42528 0.92795 -0.10592
 H465 H 0.45012 0.95920 -0.07339
 H466 H 0.40156 0.93514 0.00434
 C467 C 0.67577 0.92778 0.13997
 C468 C 0.65638 0.91392 0.12273
 C469 C 0.65456 0.88341 0.12260
 C470 C 0.67227 0.86764 0.13807
 C471 C 0.69178 0.88176 0.15433
 C472 C 0.69307 0.91194 0.15539
 C473 C 0.63520 0.86872 0.10692
 C474 C 0.61758 0.88356 0.09112
 C475 C 0.61889 0.91387 0.08991
 C476 C 0.63889 0.92925 0.10562
 C477 C 0.64117 0.95936 0.10311
 C478 C 0.62467 0.97399 0.08588
 C479 C 0.60496 0.95945 0.07075
 C480 C 0.60131 0.92930 0.07291
 C481 C 0.58026 0.91599 0.05780
 C482 C 0.56435 0.93184 0.04049
 C483 C 0.56893 0.96132 0.03756
 C484 C 0.58901 0.97502 0.05313
 H485 H 0.67812 0.95087 0.14225
 H486 H 0.67071 0.84432 0.13752
 H487 H 0.70787 0.92355 0.16773
 H488 H 0.63366 0.84540 0.10680
 H489 H 0.60348 0.87043 0.07944
 H490 H 0.65603 0.97237 0.11361
 H491 H 0.62748 0.99705 0.08429
 H492 H 0.57547 0.89343 0.05889
 H493 H 0.54879 0.92087 0.02878
 H494 H 0.59224 0.99802 0.05151
   
