data_POSCAR
  _audit_creation_date              2014-09-24
  _audit_creation_method            'ToBaCCo'
  _symmetry_space_group_name_H-M    'P1'
  _symmetry_Int_Tables_number       1
  _symmetry_cell_setting            triclinic
  loop_
  _symmetry_equiv_pos_as_xyz
 x,y,z
_cell_length_a 29.9747
_cell_length_b 29.9799
_cell_length_c 30.0131
_cell_angle_alpha 93.409800
_cell_angle_beta 87.417500
_cell_angle_gamma 81.677300
loop_
  _atom_site_label
  _atom_site_type_symbol
  _atom_site_fract_x
  _atom_site_fract_y
  _atom_site_fract_z
O1 O 0.55917 0.50023 0.03595
 O2 O 0.43584 0.50452 0.03519
 O3 O 0.50407 0.44045 0.03576
 O4 O 0.49099 0.56445 0.03518
 O5 O 0.49887 0.55881 -0.03848
 O6 O 0.50499 0.43554 -0.03794
 O7 O 0.43988 0.50302 -0.03839
 O8 O 0.56404 0.49159 -0.03771
 Cu9 Cu 0.49705 0.50296 0.04292
 Cu10 Cu 0.50241 0.49667 -0.04553
 C11 C 0.58276 0.49485 -0.00073
 C12 C 0.41654 0.50487 -0.00169
 C13 C 0.50588 0.41686 -0.00105
 C14 C 0.49357 0.58277 -0.00177
 O15 O -0.03488 0.56815 0.50329
 O16 O -0.03804 0.44548 0.49721
 O17 O -0.03545 0.50760 0.56138
 O18 O -0.03740 0.50657 0.43888
 O19 O 0.03696 0.49136 0.43359
 O20 O 0.03905 0.49593 0.55619
 O21 O 0.03645 0.43270 0.49418
 O22 O 0.03942 0.55523 0.49580
 Cu23 Cu -0.04391 0.50818 0.50066
 Cu24 Cu 0.04544 0.49259 0.49436
 C25 C 0.00280 0.58283 0.50026
 C26 C -0.00130 0.41813 0.49529
 C27 C 0.00213 0.50214 0.57976
 C28 C -0.00055 0.49855 0.41526
 O29 O 0.49119 0.03592 0.56771
 O30 O 0.49222 0.03864 0.44507
 O31 O 0.43116 0.03412 0.50849
 O32 O 0.55295 0.04037 0.50485
 O33 O 0.56762 -0.03405 0.49733
 O34 O 0.44587 -0.04031 0.50136
 O35 O 0.50731 -0.03576 0.43838
 O36 O 0.50681 -0.03836 0.56105
 Cu37 Cu 0.49048 0.04472 0.50714
 Cu38 Cu 0.50831 -0.04458 0.49896
 C39 C 0.49885 -0.00166 0.58553
 C40 C 0.49991 0.00190 0.42073
 C41 C 0.41768 -0.00415 0.50554
 C42 C 0.58113 0.00420 0.50037
 O43 O 0.46128 0.00469 -0.05721
 O44 O 0.46242 0.01032 0.06575
 O45 O 0.46428 0.06811 0.00444
 O46 O 0.45933 -0.05377 0.00389
 O47 O 0.53375 -0.06778 -0.00237
 O48 O 0.53874 0.05426 0.00133
 O49 O 0.53676 -0.00540 0.06097
 O50 O 0.53576 -0.00882 -0.06193
 Cu51 Cu 0.45436 0.00867 0.00474
 Cu52 Cu 0.54372 -0.00826 -0.00093
 C53 C 0.49833 -0.00273 -0.08059
 C54 C 0.49978 0.00311 0.08441
 C55 C 0.50233 0.08204 0.00301
 C56 C 0.49571 -0.08165 0.00037
 O57 O -0.06681 0.53516 1.00220
 O58 O 0.05558 0.53926 0.99844
 O59 O -0.00514 0.53802 0.93915
 O60 O -0.00669 0.53650 1.06162
 O61 O 0.00552 0.46196 1.05581
 O62 O 0.01060 0.46363 0.93324
 O63 O 0.06891 0.46473 0.99503
 O64 O -0.05333 0.46071 0.99430
 Cu65 Cu -0.00705 0.54472 1.00094
 Cu66 Cu 0.00922 0.45527 0.99396
 C67 C -0.08101 0.49725 0.99851
 C68 C 0.08313 0.50267 0.99663
 C69 C 0.00320 0.50109 0.91523
 C70 C -0.00108 0.49898 1.07969
 O71 O 0.00723 -0.06553 0.46592
 O72 O -0.00158 0.05821 0.46327
 O73 O 0.06449 -0.00834 0.46663
 O74 O -0.05901 0.00045 0.46299
 O75 O -0.06550 0.00962 0.53660
 O76 O 0.05812 -0.00265 0.54036
 O77 O -0.00581 0.06477 0.53702
 O78 O -0.00144 -0.05851 0.53954
 Cu79 Cu 0.00338 -0.00441 0.45730
 Cu80 Cu -0.00431 0.00391 0.54577
 C81 C 0.00388 -0.08312 0.50317
 C82 C -0.00452 0.08258 0.49971
 C83 C 0.08243 -0.00702 0.50414
 C84 C -0.08338 0.00661 0.49919
 C85 C -0.27335 0.49246 0.99991
 C86 C -0.29303 0.47634 0.96172
 C87 C -0.33978 0.47696 0.96148
 C88 C -0.36765 0.49307 0.99968
 C89 C -0.34777 0.50840 1.03813
 C90 C -0.30115 0.50841 1.03812
 C91 C -0.22405 0.49342 0.99970
 C92 C -0.20748 0.53252 1.01562
 C93 C -0.16104 0.53381 1.01500
 C94 C -0.13017 0.49577 0.99907
 C95 C -0.14675 0.45649 0.98350
 C96 C -0.19327 0.45547 0.98348
 H97 H -0.35412 0.46486 0.93140
 H98 H -0.36835 0.52111 1.06804
 H99 H -0.14929 0.56452 1.02729
 H100 H -0.12378 0.42671 0.97091
 H101 H -0.28672 0.52068 1.06809
 H102 H -0.23054 0.56235 1.02795
 H103 H -0.27233 0.46414 0.93175
 H104 H -0.20522 0.42483 0.97129
 C105 C 0.27492 0.50772 0.99765
 C106 C 0.29999 0.51208 0.95797
 C107 C 0.34678 0.51109 0.95808
 C108 C 0.36937 0.50676 0.99816
 C109 C 0.34368 0.50355 1.03806
 C110 C 0.29709 0.50345 1.03765
 C111 C 0.22581 0.50661 0.99724
 C112 C 0.20756 0.46998 1.01384
 C113 C 0.16122 0.46847 1.01308
 C114 C 0.13218 0.50411 0.99668
 C115 C 0.15043 0.54103 0.98051
 C116 C 0.19698 0.54199 0.98027
 H117 H 0.36516 0.51383 0.92668
 H118 H 0.35960 0.50015 1.06962
 H119 H 0.14800 0.43972 1.02592
 H120 H 0.12877 0.56885 0.96754
 H121 H 0.27824 0.50024 1.06865
 H122 H 0.22931 0.44227 1.02689
 H123 H 0.28344 0.51525 0.92673
 H124 H 0.21045 0.57060 0.96742
 C125 C 0.00580 -0.27612 0.50403
 C126 C 0.04568 -0.30674 0.49505
 C127 C 0.04488 -0.35331 0.49439
 C128 C 0.00389 -0.37034 0.50174
 C129 C -0.03607 -0.33932 0.51046
 C130 C -0.03499 -0.29279 0.51202
 C131 C 0.00654 -0.22684 0.50447
 C132 C -0.01381 -0.19804 0.54063
 C133 C -0.01383 -0.15138 0.54066
 C134 C 0.00566 -0.13261 0.50407
 C135 C 0.02600 -0.16148 0.46790
 C136 C 0.02684 -0.20822 0.46832
 H137 H 0.07638 -0.37590 0.48754
 H138 H -0.06830 -0.35085 0.51639
 H139 H -0.02989 -0.12991 0.56889
 H140 H 0.04139 -0.14794 0.43933
 H141 H -0.06622 -0.26974 0.51871
 H142 H -0.02949 -0.21173 0.56896
 H143 H 0.07757 -0.29456 0.48898
 H144 H 0.04250 -0.22979 0.43997
 C145 C -0.00448 0.27515 0.49561
 C146 C -0.04180 0.30416 0.48215
 C147 C -0.04093 0.35072 0.48218
 C148 C -0.00235 0.36892 0.49481
 C149 C 0.03521 0.33971 0.50757
 C150 C 0.03399 0.29334 0.50836
 C151 C -0.00565 0.22603 0.49683
 C152 C 0.00661 0.20361 0.53518
 C153 C 0.00616 0.15715 0.53633
 C154 C -0.00576 0.13203 0.49883
 C155 C -0.01801 0.15448 0.46041
 C156 C -0.01839 0.20117 0.45959
 H157 H -0.07031 0.37243 0.47208
 H158 H 0.06533 0.35279 0.51762
 H159 H 0.01592 0.14075 0.56633
 H160 H -0.02746 0.13598 0.43108
 H161 H 0.06327 0.27156 0.51858
 H162 H 0.01628 0.22216 0.56439
 H163 H -0.07191 0.29087 0.47237
 H164 H -0.02777 0.21775 0.42958
 C165 C 0.49784 -0.00402 -0.27336
 C166 C 0.48557 0.03667 -0.29353
 C167 C 0.48627 0.03752 -0.34007
 C168 C 0.49850 -0.00255 -0.36762
 C169 C 0.51038 -0.04340 -0.34711
 C170 C 0.51046 -0.04399 -0.30054
 C171 C 0.49764 -0.00459 -0.22403
 C172 C 0.53535 -0.02577 -0.20328
 C173 C 0.53566 -0.02508 -0.15665
 C174 C 0.49790 -0.00392 -0.12993
 C175 C 0.45990 0.01661 -0.15078
 C176 C 0.45994 0.01664 -0.19737
 H177 H 0.47685 0.06967 -0.35434
 H178 H 0.52004 -0.07498 -0.36697
 H179 H 0.56536 -0.04129 -0.14150
 H180 H 0.43039 0.03329 -0.13105
 H181 H 0.51983 -0.07583 -0.28566
 H182 H 0.56491 -0.04212 -0.22316
 H183 H 0.47603 0.06799 -0.27323
 H184 H 0.43038 0.03297 -0.21265
 C185 C 0.50065 0.00433 0.27735
 C186 C 0.48249 0.04292 0.30472
 C187 C 0.48257 0.04231 0.35129
 C188 C 0.50026 0.00287 0.37143
 C189 C 0.51820 -0.03578 0.34400
 C190 C 0.51865 -0.03496 0.29746
 C191 C 0.50066 0.00488 0.22797
 C192 C 0.53949 -0.01328 0.20128
 C193 C 0.53938 -0.01331 0.15470
 C194 C 0.50022 0.00427 0.13379
 C195 C 0.46137 0.02246 0.16052
 C196 C 0.46169 0.02303 0.20714
 H197 H 0.46845 0.07260 0.37153
 H198 H 0.53215 -0.06665 0.35849
 H199 H 0.56982 -0.02762 0.13505
 H200 H 0.43071 0.03634 0.14541
 H201 H 0.53249 -0.06529 0.27714
 H202 H 0.57009 -0.02713 0.21652
 H203 H 0.46870 0.07374 0.29004
 H204 H 0.43120 0.03691 0.22693
 C205 C 0.49000 -0.27348 -0.00215
 C206 C 0.50561 -0.30156 -0.04043
 C207 C 0.50589 -0.34817 -0.04054
 C208 C 0.49117 -0.36768 -0.00213
 C209 C 0.47526 -0.33953 0.03609
 C210 C 0.47436 -0.29278 0.03596
 C211 C 0.49111 -0.22431 -0.00171
 C212 C 0.45325 -0.19331 0.01413
 C213 C 0.45451 -0.14686 0.01437
 C214 C 0.49392 -0.13066 -0.00052
 C215 C 0.53185 -0.16177 -0.01608
 C216 C 0.53034 -0.20813 -0.01696
 H217 H 0.51842 -0.36901 -0.07046
 H218 H 0.46361 -0.35363 0.06612
 H219 H 0.42482 -0.12365 0.02666
 H220 H 0.56264 -0.15027 -0.02785
 H221 H 0.46243 -0.27178 0.06595
 H222 H 0.42256 -0.20506 0.02583
 H223 H 0.51750 -0.28736 -0.07031
 H224 H 0.56007 -0.23143 -0.02897
 C225 C 0.50880 0.27332 0.00019
 C226 C 0.49574 0.29607 -0.03775
 C227 C 0.49580 0.34258 -0.03847
 C228 C 0.50817 0.36733 -0.00096
 C229 C 0.52151 0.34449 0.03692
 C230 C 0.52221 0.29779 0.03732
 C231 C 0.50732 0.22436 0.00130
 C232 C 0.54462 0.19505 0.01433
 C233 C 0.54318 0.14866 0.01468
 C234 C 0.50409 0.13098 0.00285
 C235 C 0.46661 0.16049 -0.00961
 C236 C 0.46836 0.20668 -0.01073
 H237 H 0.48524 0.35931 -0.06806
 H238 H 0.53133 0.36274 0.06624
 H239 H 0.57250 0.12667 0.02452
 H240 H 0.43610 0.14778 -0.01905
 H241 H 0.53218 0.28091 0.06701
 H242 H 0.57506 0.20801 0.02357
 H243 H 0.48557 0.27776 -0.06687
 H244 H 0.43908 0.22875 -0.02055
 C245 C -0.27634 0.00998 0.49668
 C246 C -0.29255 -0.02948 0.48127
 C247 C -0.33886 -0.03132 0.48256
 C248 C -0.36992 0.00648 0.49872
 C249 C -0.35371 0.04618 0.51357
 C250 C -0.30730 0.04779 0.51289
 C251 C -0.22718 0.01119 0.49659
 C252 C -0.20782 0.02731 0.53495
 C253 C -0.16109 0.02619 0.53569
 C254 C -0.13294 0.00953 0.49785
 C255 C -0.15248 -0.00558 0.45913
 C256 C -0.19914 -0.00506 0.45863
 H257 H -0.35036 -0.06233 0.47077
 H258 H -0.37687 0.07580 0.52627
 H259 H -0.14698 0.03816 0.56596
 H260 H -0.13164 -0.01868 0.42950
 H261 H -0.29556 0.07866 0.52473
 H262 H -0.22874 0.03969 0.56473
 H263 H -0.26930 -0.05919 0.46900
 H264 H -0.21337 -0.01736 0.42856
 C265 C 0.27523 -0.01000 0.50790
 C266 C 0.29128 0.02927 0.52407
 C267 C 0.33758 0.03114 0.52324
 C268 C 0.36875 -0.00647 0.50683
 C269 C 0.35268 -0.04600 0.49125
 C270 C 0.30630 -0.04761 0.49142
 C271 C 0.22610 -0.01125 0.50754
 C272 C 0.20693 -0.02647 0.46869
 C273 C 0.16023 -0.02543 0.46764
 C274 C 0.13194 -0.00981 0.50567
 C275 C 0.15131 0.00439 0.54485
 C276 C 0.19792 0.00400 0.54566
 H277 H 0.34899 0.06202 0.53558
 H278 H 0.37594 -0.07545 0.47831
 H279 H 0.14625 -0.03668 0.43702
 H280 H 0.13034 0.01671 0.57463
 H281 H 0.29465 -0.07833 0.47900
 H282 H 0.22800 -0.03809 0.43880
 H283 H 0.26793 0.05882 0.53658
 H284 H 0.21201 0.01560 0.57609
 C285 C -0.00228 0.49730 1.27209
 C286 C -0.04086 0.51585 1.29892
 C287 C -0.04047 0.51581 1.34545
 C288 C -0.00128 0.49778 1.36603
 C289 C 0.03734 0.47933 1.33913
 C290 C 0.03674 0.47884 1.29260
 C291 C -0.00258 0.49754 1.22284
 C292 C 0.01460 0.45845 1.19581
 C293 C 0.01462 0.45877 1.14929
 C294 C -0.00199 0.49838 1.12891
 C295 C -0.01910 0.53751 1.15600
 C296 C -0.01966 0.53700 1.20253
 H297 H -0.07071 0.53033 1.36532
 H298 H 0.06800 0.46512 1.35404
 H299 H 0.02810 0.42813 1.12927
 H300 H -0.03220 0.56850 1.14123
 H301 H 0.06701 0.46467 1.27260
 H302 H 0.02764 0.42753 1.21074
 H303 H -0.07145 0.52998 1.28384
 H304 H -0.03276 0.56766 1.22269
 C305 C 0.00402 0.50300 0.72287
 C306 C -0.03557 0.51991 0.70239
 C307 C -0.03621 0.51954 0.65587
 C308 C 0.00290 0.50279 0.62897
 C309 C 0.04263 0.48631 0.64952
 C310 C 0.04309 0.48613 0.69604
 C311 C 0.00441 0.50270 0.77211
 C312 C 0.02313 0.46374 0.79232
 C313 C 0.02267 0.46315 0.83885
 C314 C 0.00402 0.50174 0.86602
 C315 C -0.01421 0.54087 0.84573
 C316 C -0.01428 0.54123 0.79922
 H317 H -0.06730 0.53253 0.64098
 H318 H 0.07325 0.47309 0.62964
 H319 H 0.03704 0.43255 0.85354
 H320 H -0.02889 0.57108 0.86581
 H321 H 0.07410 0.47322 0.71111
 H322 H 0.03743 0.43350 0.77208
 H323 H -0.06621 0.53276 0.72240
 H324 H -0.02859 0.57178 0.78438
   
