data_POSCAR
  _audit_creation_date              2014-09-24
  _audit_creation_method            'ToBaCCo'
  _symmetry_space_group_name_H-M    'P1'
  _symmetry_Int_Tables_number       1
  _symmetry_cell_setting            triclinic
  loop_
  _symmetry_equiv_pos_as_xyz
 x,y,z
_cell_length_a 62.3860
_cell_length_b 62.5078
_cell_length_c 55.8604
_cell_angle_alpha 90.031500
_cell_angle_beta 89.993300
_cell_angle_gamma 89.772600
loop_
  _atom_site_label
  _atom_site_type_symbol
  _atom_site_fract_x
  _atom_site_fract_y
  _atom_site_fract_z
C1 C 0.06666 0.29842 0.01254
 C2 C 0.06676 0.29837 -0.01202
 C3 C 0.04594 0.29401 -0.01924
 N4 N 0.03321 0.29133 0.00009
 C5 C 0.04579 0.29413 0.01954
 C6 C 0.03941 0.29088 -0.04322
 C7 C 0.01783 0.28790 -0.05030
 C8 C 0.01140 0.28092 -0.07277
 C9 C -0.01062 0.28106 -0.07285
 C10 C -0.01714 0.28814 -0.05042
 N11 N 0.00032 0.29244 -0.03689
 C12 C -0.03875 0.29142 -0.04351
 C13 C -0.04540 0.29467 -0.01958
 C14 C -0.06623 0.29935 -0.01250
 C15 C -0.06628 0.29940 0.01206
 C16 C -0.04548 0.29480 0.01921
 N17 N -0.03281 0.29180 -0.00015
 C18 C -0.03895 0.29177 0.04316
 C19 C -0.01743 0.28865 0.05029
 C20 C -0.01107 0.28186 0.07285
 C21 C 0.01097 0.28171 0.07293
 C22 C 0.01751 0.28840 0.05041
 N23 N 0.00009 0.29281 0.03682
 C24 C 0.03909 0.29121 0.04344
 H25 H 0.08045 0.30097 0.02393
 H26 H 0.08066 0.30086 -0.02327
 H27 H 0.00017 0.30034 0.02027
 H28 H 0.02154 0.27631 -0.08765
 H29 H -0.02070 0.27658 -0.08780
 H30 H -0.08004 0.30207 -0.02386
 H31 H -0.08012 0.30216 0.02335
 H32 H 0.02103 0.27726 0.08792
 H33 H 0.00029 0.30018 -0.02045
 H34 H -0.02125 0.27754 0.08776
 C35 C 0.43226 0.79692 0.48714
 C36 C 0.43221 0.79717 0.51170
 C37 C 0.45316 0.79337 0.51889
 N38 N 0.46592 0.79069 0.49956
 C39 C 0.45323 0.79297 0.48013
 C40 C 0.45980 0.79083 0.54288
 C41 C 0.48141 0.78833 0.55001
 C42 C 0.48795 0.78196 0.57266
 C43 C 0.50999 0.78228 0.57268
 C44 C 0.51634 0.78886 0.55005
 N45 N 0.49881 0.79273 0.53645
 C46 C 0.53786 0.79203 0.54299
 C47 C 0.54446 0.79497 0.51905
 C48 C 0.56523 0.79961 0.51196
 C49 C 0.56527 0.79952 0.48740
 C50 C 0.54452 0.79480 0.48028
 N51 N 0.53189 0.79191 0.49966
 C52 C 0.53801 0.79160 0.45635
 C53 C 0.51654 0.78817 0.44928
 C54 C 0.51030 0.78112 0.42679
 C55 C 0.48826 0.78065 0.42676
 C56 C 0.48160 0.78742 0.44923
 N57 N 0.49894 0.79219 0.46274
 C58 C 0.45996 0.78992 0.45623
 H59 H 0.41838 0.79906 0.47575
 H60 H 0.41828 0.79954 0.52297
 H61 H 0.49873 0.79986 0.47922
 H62 H 0.47790 0.77759 0.58766
 H63 H 0.52017 0.77822 0.58771
 H64 H 0.57900 0.80246 0.52330
 H65 H 0.57907 0.80227 0.47608
 H66 H 0.47828 0.77592 0.41183
 H67 H 0.49868 0.80007 0.51980
 H68 H 0.52055 0.77681 0.41190
 C69 C 1.06610 0.70208 -0.01317
 C70 C 1.06620 0.70208 0.01137
 C71 C 1.04547 0.70698 0.01861
 N72 N 1.03279 0.71006 -0.00073
 C73 C 1.04531 0.70696 -0.02020
 C74 C 1.03899 0.71013 0.04261
 C75 C 1.01745 0.71341 0.04973
 C76 C 1.01107 0.72043 0.07223
 C77 C 0.98904 0.72063 0.07230
 C78 C 0.98251 0.71374 0.04986
 N79 N 0.99992 0.70917 0.03631
 C80 C 0.96092 0.71090 0.04294
 C81 C 0.95421 0.70784 0.01907
 C82 C 0.93335 0.70347 0.01210
 C83 C 0.93326 0.70335 -0.01246
 C84 C 0.95406 0.70767 -0.01968
 N85 N 0.96679 0.71052 -0.00039
 C86 C 0.96057 0.71055 -0.04366
 C87 C 0.98209 0.71346 -0.05081
 C88 C 0.98841 0.72025 -0.07337
 C89 C 1.01045 0.72014 -0.07352
 C90 C 1.01704 0.71327 -0.05104
 N91 N 0.99963 0.70904 -0.03741
 C92 C 1.03864 0.71008 -0.04413
 H93 H 1.07984 0.69912 -0.02457
 H94 H 1.08002 0.69913 0.02263
 H95 H 0.99969 0.70141 -0.02092
 H96 H 1.02124 0.72486 0.08712
 H97 H 0.97899 0.72526 0.08724
 H98 H 0.91958 0.70093 0.02352
 H99 H 0.91939 0.70071 -0.02371
 H100 H 1.02048 0.72452 -0.08854
 H101 H 0.99983 0.70145 0.01985
 H102 H 0.97822 0.72473 -0.08823
 C103 C 0.56809 0.20885 0.48909
 C104 C 0.56801 0.20816 0.51361
 C105 C 0.54669 0.20776 0.52066
 N106 N 0.53383 0.20810 0.50121
 C107 C 0.54681 0.20883 0.48187
 C108 C 0.53965 0.20809 0.54472
 C109 C 0.51791 0.20837 0.55210
 C110 C 0.51129 0.21174 0.57553
 C111 C 0.48929 0.21160 0.57544
 C112 C 0.48291 0.20818 0.55196
 N113 N 0.50048 0.20578 0.53793
 C114 C 0.46123 0.20773 0.54438
 C115 C 0.45436 0.20778 0.52025
 C116 C 0.43309 0.20841 0.51302
 C117 C 0.43319 0.20953 0.48851
 C118 C 0.45451 0.20946 0.48148
 N119 N 0.46736 0.20835 0.50092
 C120 C 0.46156 0.21004 0.45742
 C121 C 0.48327 0.20906 0.45004
 C122 C 0.48982 0.20644 0.42648
 C123 C 0.51184 0.20615 0.42657
 C124 C 0.51826 0.20864 0.45019
 N125 N 0.50073 0.21068 0.46432
 C126 C 0.53993 0.20915 0.45775
 H127 H 0.58223 0.20932 0.47787
 H128 H 0.58209 0.20817 0.52494
 H129 H 0.50068 0.21472 0.48228
 H130 H 0.52126 0.21439 0.59110
 H131 H 0.47916 0.21415 0.59092
 H132 H 0.41894 0.20833 0.52423
 H133 H 0.41913 0.21026 0.47719
 H134 H 0.52195 0.20416 0.41098
 H135 H 0.50056 0.20125 0.52011
 H136 H 0.47979 0.20469 0.41079
 C137 C 0.72240 -0.06594 -0.01366
 C138 C 0.72271 -0.06619 0.01088
 C139 C 0.71750 -0.04563 0.01836
 N140 N 0.71387 -0.03295 -0.00083
 C141 C 0.71703 -0.04524 -0.02044
 C142 C 0.71502 -0.03925 0.04250
 C143 C 0.71145 -0.01784 0.04976
 C144 C 0.70519 -0.01158 0.07258
 C145 C 0.70501 0.01042 0.07280
 C146 C 0.71117 0.01704 0.05012
 N147 N 0.71515 -0.00028 0.03626
 C148 C 0.71441 0.03856 0.04336
 C149 C 0.71706 0.04543 0.01948
 C150 C 0.72207 0.06615 0.01269
 C151 C 0.72204 0.06644 -0.01186
 C152 C 0.71698 0.04587 -0.01930
 N153 N 0.71377 0.03314 -0.00008
 C154 C 0.71418 0.03950 -0.04339
 C155 C 0.71065 0.01810 -0.05061
 C156 C 0.70404 0.01190 -0.07330
 C157 C 0.70395 -0.01010 -0.07355
 C158 C 0.71052 -0.01680 -0.05101
 N159 N 0.71465 0.00049 -0.03722
 C160 C 0.71398 -0.03838 -0.04433
 H161 H 0.72559 -0.07950 -0.02520
 H162 H 0.72618 -0.07997 0.02197
 H163 H 0.72224 0.00028 -0.02070
 H164 H 0.70142 -0.02182 0.08762
 H165 H 0.70108 0.02041 0.08803
 H166 H 0.72524 0.07970 0.02421
 H167 H 0.72516 0.08026 -0.02297
 H168 H 0.69982 -0.02003 -0.08873
 H169 H 0.72250 -0.00012 0.01961
 H170 H 0.69997 0.02217 -0.08824
 C171 C 0.21237 0.43155 0.48766
 C172 C 0.21300 0.43159 0.51219
 C173 C 0.21277 0.45286 0.51931
 N174 N 0.21200 0.46572 0.49989
 C175 C 0.21180 0.45280 0.48050
 C176 C 0.21290 0.45983 0.54340
 C177 C 0.21202 0.48148 0.55089
 C178 C 0.20933 0.48795 0.57448
 C179 C 0.20907 0.50992 0.57448
 C180 C 0.21158 0.51641 0.55089
 N181 N 0.21370 0.49895 0.53670
 C182 C 0.21188 0.53806 0.54340
 C183 C 0.21142 0.54497 0.51930
 C184 C 0.21096 0.56621 0.51215
 C185 C 0.21017 0.56619 0.48763
 C186 C 0.21022 0.54492 0.48050
 N187 N 0.21093 0.53204 0.49990
 C188 C 0.21058 0.53796 0.45641
 C189 C 0.21151 0.51631 0.44894
 C190 C 0.21520 0.50987 0.42551
 C191 C 0.21562 0.48791 0.42551
 C192 C 0.21218 0.48138 0.44894
 N193 N 0.20925 0.49882 0.46302
 C194 C 0.21207 0.45971 0.45641
 H195 H 0.21252 0.41745 0.47640
 H196 H 0.21354 0.41752 0.52347
 H197 H 0.20454 0.49877 0.48078
 H198 H 0.20753 0.47789 0.59011
 H199 H 0.20701 0.51996 0.59011
 H200 H 0.21112 0.58031 0.52341
 H201 H 0.20983 0.58026 0.47635
 H202 H 0.21851 0.47791 0.41001
 H203 H 0.21769 0.49897 0.51873
 H204 H 0.21770 0.51994 0.41001
 C205 C 0.27784 1.06537 0.01128
 C206 C 0.27796 1.06534 -0.01326
 C207 C 0.28297 1.04463 -0.02035
 N208 N 0.28607 1.03211 -0.00092
 C209 C 0.28277 1.04467 0.01846
 C210 C 0.28584 1.03795 -0.04433
 C211 C 0.28911 1.01640 -0.05127
 C212 C 0.29567 1.00984 -0.07388
 C213 C 0.29547 0.98784 -0.07387
 C214 C 0.28878 0.98149 -0.05126
 N215 N 0.28485 0.99902 -0.03768
 C216 C 0.28510 0.96005 -0.04430
 C217 C 0.28204 0.95352 -0.02031
 C218 C 0.27658 0.93298 -0.01318
 C219 C 0.27633 0.93306 0.01138
 C220 C 0.28166 0.95363 0.01847
 N221 N 0.28532 0.96602 -0.00091
 C222 C 0.28426 0.96024 0.04245
 C223 C 0.28795 0.98163 0.04946
 C224 C 0.29427 0.98791 0.07220
 C225 C 0.29461 1.00991 0.07222
 C226 C 0.28845 1.01650 0.04949
 N227 N 0.28434 0.99913 0.03580
 C228 C 0.28536 1.03804 0.04249
 H229 H 0.27466 1.07911 0.02257
 H230 H 0.27491 1.07906 -0.02460
 H231 H 0.27697 0.99926 0.01915
 H232 H 0.29990 1.01987 -0.08893
 H233 H 0.29951 0.97767 -0.08891
 H234 H 0.27329 0.91931 -0.02448
 H235 H 0.27281 0.91948 0.02270
 H236 H 0.29864 1.01993 0.08737
 H237 H 0.27723 0.99915 -0.02118
 H238 H 0.29800 0.97772 0.08730
 C239 C 0.78789 0.43272 0.51164
 C240 C 0.78901 0.43285 0.48713
 C241 C 0.78908 0.45415 0.48016
 N242 N 0.78811 0.46694 0.49963
 C243 C 0.78736 0.45394 0.51893
 C244 C 0.78900 0.46123 0.45612
 C245 C 0.78841 0.48294 0.44884
 C246 C 0.78485 0.48959 0.42547
 C247 C 0.78493 0.51155 0.42565
 C248 C 0.78854 0.51787 0.44912
 N249 N 0.79105 0.50030 0.46306
 C250 C 0.78933 0.53948 0.45673
 C251 C 0.78955 0.54626 0.48088
 C252 C 0.78973 0.56748 0.48820
 C253 C 0.78868 0.56734 0.51271
 C254 C 0.78792 0.54605 0.51966
 N255 N 0.78848 0.53326 0.50015
 C256 C 0.78702 0.53898 0.54369
 C257 C 0.78709 0.51728 0.55104
 C258 C 0.78888 0.51064 0.57466
 C259 C 0.78873 0.48867 0.57449
 C260 C 0.78686 0.48235 0.55076
 N261 N 0.78553 0.49991 0.53665
 C262 C 0.78651 0.46074 0.54307
 H263 H 0.78754 0.41857 0.52281
 H264 H 0.78949 0.41883 0.47576
 H265 H 0.78226 0.50005 0.51852
 H266 H 0.78214 0.47966 0.40989
 H267 H 0.78230 0.52171 0.41023
 H268 H 0.79034 0.58162 0.47706
 H269 H 0.78851 0.58136 0.52410
 H270 H 0.79012 0.47852 0.59011
 H271 H 0.79588 0.50015 0.48080
 H272 H 0.79040 0.52058 0.59043
 O273 O 0.23854 0.26556 0.21836
 O274 O 0.28475 0.25250 0.25677
 O275 O 0.26795 0.23591 0.21826
 O276 O 0.25537 0.28206 0.25689
 O277 O 0.23468 0.26154 0.27928
 O278 O 0.24725 0.21538 0.24064
 O279 O 0.26406 0.23197 0.27916
 O280 O 0.21784 0.24503 0.24073
 Cu281 Cu 0.26374 0.26106 0.23529
 Cu282 Cu 0.23886 0.23640 0.26219
 C283 C 0.22041 0.25745 0.22302
 C284 C 0.28218 0.24014 0.27454
 C285 C 0.25966 0.21788 0.22287
 C286 C 0.24301 0.27956 0.27469
 O287 O 0.75505 0.78500 0.24237
 O288 O 0.76755 0.73924 0.28151
 O289 O 0.78402 0.75504 0.24243
 O290 O 0.73850 0.76918 0.28142
 O291 O 0.71725 0.74862 0.25971
 O292 O 0.76278 0.73447 0.22072
 O293 O 0.74630 0.71866 0.25982
 O294 O 0.73380 0.76446 0.22064
 Cu295 Cu 0.76341 0.76419 0.26413
 Cu296 Cu 0.73788 0.73948 0.23804
 C297 C 0.74244 0.78242 0.22480
 C298 C 0.75896 0.72126 0.27735
 C299 C 0.78106 0.74247 0.22491
 C300 C 0.72022 0.76120 0.27722
 O301 O 0.74580 0.28299 0.25847
 O302 O 0.73295 0.23674 0.22028
 O303 O 0.71703 0.25300 0.25948
 O304 O 0.76174 0.26669 0.21930
 O305 O 0.78354 0.24639 0.24081
 O306 O 0.73884 0.23270 0.28098
 O307 O 0.75476 0.21643 0.24178
 O308 O 0.76761 0.26269 0.27997
 Cu309 Cu 0.73718 0.26190 0.23721
 Cu310 Cu 0.76338 0.23751 0.26306
 C311 C 0.75882 0.28062 0.27572
 C312 C 0.74175 0.21881 0.22452
 C313 C 0.72041 0.24060 0.27706
 C314 C 0.78017 0.25878 0.22322
 O315 O 0.21609 0.75184 0.24004
 O316 O 0.26170 0.76500 0.27919
 O317 O 0.24516 0.78151 0.24044
 O318 O 0.23253 0.73547 0.27892
 O319 O 0.25371 0.71489 0.25695
 O320 O 0.26633 0.76099 0.21839
 O321 O 0.28286 0.74446 0.25715
 O322 O 0.23727 0.73128 0.21805
 Cu323 Cu 0.23673 0.76053 0.26187
 Cu324 Cu 0.26217 0.73583 0.23540
 C325 C 0.21902 0.73942 0.22236
 C326 C 0.27994 0.75683 0.27487
 C327 C 0.25778 0.77900 0.22285
 C328 C 0.24109 0.71745 0.27454
 O329 O 0.76748 0.26257 0.72062
 O330 O 0.75469 0.21712 0.76001
 O331 O 0.73802 0.23327 0.72113
 O332 O 0.78414 0.24645 0.75953
 O333 O 0.76339 0.26750 0.78145
 O334 O 0.71729 0.25433 0.74307
 O335 O 0.73395 0.23818 0.78193
 O336 O 0.74674 0.28362 0.74256
 Cu337 Cu 0.76317 0.23772 0.73811
 Cu338 Cu 0.73825 0.26303 0.76446
 C339 C 0.75919 0.28074 0.72487
 C340 C 0.74225 0.22001 0.77769
 C341 C 0.71990 0.24166 0.72554
 C342 C 0.78152 0.25913 0.77704
 O343 O 0.28186 0.74611 0.74057
 O344 O 0.23642 0.73284 0.77986
 O345 O 0.25242 0.71678 0.74054
 O346 O 0.26586 0.76217 0.77981
 O347 O 0.24475 0.78324 0.75837
 O348 O 0.23132 0.73787 0.71912
 O349 O 0.21530 0.75391 0.75844
 O350 O 0.26078 0.76719 0.71913
 Cu351 Cu 0.26126 0.73734 0.76235
 Cu352 Cu 0.23590 0.76267 0.73660
 C353 C 0.27898 0.75883 0.72317
 C354 C 0.21822 0.74122 0.77587
 C355 C 0.23969 0.71969 0.72312
 C356 C 0.25750 0.78034 0.77577
 O357 O 0.21667 0.24534 0.75974
 O358 O 0.26257 0.23213 0.72090
 O359 O 0.24643 0.21611 0.76001
 O360 O 0.23285 0.26144 0.72065
 O361 O 0.25358 0.28255 0.74231
 O362 O 0.26717 0.23724 0.78164
 O363 O 0.28331 0.25326 0.74253
 O364 O 0.23740 0.26646 0.78139
 Cu365 Cu 0.23753 0.23663 0.73814
 Cu366 Cu 0.26245 0.26202 0.76415
 C367 C 0.21932 0.25806 0.77719
 C368 C 0.28066 0.24051 0.72511
 C369 C 0.25903 0.21904 0.77752
 C370 C 0.24100 0.27963 0.72478
 O371 O 0.73695 0.76848 0.71906
 O372 O 0.78270 0.75506 0.75802
 O373 O 0.76646 0.73895 0.71894
 O374 O 0.75318 0.78452 0.75812
 O375 O 0.73228 0.76361 0.77981
 O376 O 0.74555 0.71805 0.74063
 O377 O 0.76179 0.73415 0.77970
 O378 O 0.71605 0.74756 0.74074
 Cu379 Cu 0.76193 0.76386 0.73634
 Cu380 Cu 0.73681 0.73873 0.76240
 C381 C 0.71879 0.76022 0.72328
 C382 C 0.77994 0.74244 0.77552
 C383 C 0.75818 0.72083 0.72311
 C384 C 0.74057 0.78173 0.77565
 C385 C 0.28500 0.05344 0.05998
 C386 C 0.28444 0.06719 0.07513
 C387 C 0.28342 0.08385 0.09286
 C388 C 0.28455 0.10529 0.08581
 C389 C 0.28283 0.12158 0.10285
 C390 C 0.27992 0.11664 0.12721
 C391 C 0.27900 0.09502 0.13414
 C392 C 0.28074 0.07873 0.11706
 C393 C 0.27736 0.13400 0.14516
 C394 C 0.26198 0.13232 0.16349
 C395 C 0.25897 0.14903 0.17980
 C396 C 0.27131 0.16761 0.17807
 C397 C 0.28685 0.16933 0.16011
 C398 C 0.28988 0.15264 0.14377
 C399 C 0.26755 0.18519 0.19421
 C400 C 0.26411 0.20005 0.20745
 H401 H 0.28651 0.10941 0.06710
 H402 H 0.28330 0.13805 0.09689
 H403 H 0.27702 0.09070 0.15278
 H404 H 0.27985 0.06218 0.12270
 H405 H 0.25190 0.11831 0.16484
 H406 H 0.24682 0.14758 0.19356
 H407 H 0.29650 0.18364 0.15862
 H408 H 0.30203 0.15430 0.13006
 C409 C 0.78643 0.55524 0.56221
 C410 C 0.78568 0.56900 0.57732
 C411 C 0.78445 0.58571 0.59498
 C412 C 0.79434 0.60539 0.59071
 C413 C 0.79233 0.62203 0.60729
 C414 C 0.78032 0.61921 0.62838
 C415 C 0.77070 0.59924 0.63268
 C416 C 0.77274 0.58262 0.61606
 C417 C 0.77735 0.63719 0.64547
 C418 C 0.77782 0.63362 0.67035
 C419 C 0.77448 0.65054 0.68634
 C420 C 0.77062 0.67121 0.67769
 C421 C 0.77026 0.67494 0.65301
 C422 C 0.77361 0.65807 0.63699
 C423 C 0.76657 0.68856 0.69405
 C424 C 0.76290 0.70323 0.70747
 H425 H 0.80345 0.60794 0.57444
 H426 H 0.80017 0.63710 0.60363
 H427 H 0.76114 0.59665 0.64859
 H428 H 0.76493 0.56748 0.61948
 H429 H 0.78090 0.61778 0.67742
 H430 H 0.77481 0.64748 0.70543
 H431 H 0.76718 0.69086 0.64612
 H432 H 0.77282 0.66129 0.61797
 C433 C 0.71608 0.94526 0.05985
 C434 C 0.71739 0.93147 0.07486
 C435 C 0.71945 0.91475 0.09242
 C436 C 0.70855 0.91613 0.11427
 C437 C 0.71090 0.89993 0.13136
 C438 C 0.72425 0.88218 0.12680
 C439 C 0.73502 0.88092 0.10471
 C440 C 0.73263 0.89710 0.08766
 C441 C 0.72709 0.86508 0.14499
 C442 C 0.74745 0.85598 0.14898
 C443 C 0.75012 0.83957 0.16569
 C444 C 0.73253 0.83201 0.17866
 C445 C 0.71224 0.84107 0.17501
 C446 C 0.70952 0.85754 0.15830
 C447 C 0.73540 0.81469 0.19534
 C448 C 0.73832 0.80003 0.20898
 H449 H 0.69835 0.92976 0.11815
 H450 H 0.70257 0.90145 0.14829
 H451 H 0.74515 0.86732 0.10051
 H452 H 0.74108 0.89585 0.07077
 H453 H 0.76134 0.86166 0.13929
 H454 H 0.76591 0.83272 0.16843
 H455 H 0.69850 0.83530 0.18492
 H456 H 0.69363 0.86407 0.15546
 C457 C 0.21349 0.44350 0.56181
 C458 C 0.21425 0.42971 0.57687
 C459 C 0.21547 0.41302 0.59452
 C460 C 0.21843 0.41810 0.61869
 C461 C 0.22036 0.40179 0.63570
 C462 C 0.21937 0.38018 0.62872
 C463 C 0.21616 0.37527 0.60439
 C464 C 0.21425 0.39159 0.58743
 C465 C 0.22218 0.36281 0.64659
 C466 C 0.20972 0.34412 0.64535
 C467 C 0.21294 0.32748 0.66169
 C468 C 0.22862 0.32929 0.67948
 C469 C 0.24094 0.34790 0.68102
 C470 C 0.23775 0.36456 0.66471
 C471 C 0.23256 0.31183 0.69570
 C472 C 0.23622 0.29715 0.70909
 H473 H 0.21937 0.43465 0.62437
 H474 H 0.22254 0.40609 0.65432
 H475 H 0.21563 0.35880 0.59839
 H476 H 0.21207 0.38749 0.56874
 H477 H 0.19744 0.34240 0.63180
 H478 H 0.20331 0.31314 0.66034
 H479 H 0.25320 0.34942 0.69464
 H480 H 0.24781 0.37859 0.66593
 C481 C 0.94453 0.29060 0.06136
 C482 C 0.93063 0.28934 0.07628
 C483 C 0.91385 0.28749 0.09382
 C484 C 0.89368 0.29651 0.08938
 C485 C 0.87709 0.29398 0.10595
 C486 C 0.88046 0.28235 0.12720
 C487 C 0.90089 0.27356 0.13161
 C488 C 0.91745 0.27611 0.11501
 C489 C 0.86265 0.27902 0.14443
 C490 C 0.86633 0.27997 0.16927
 C491 C 0.84961 0.27635 0.18543
 C492 C 0.82902 0.27174 0.17700
 C493 C 0.82517 0.27088 0.15234
 C494 C 0.84184 0.27450 0.13616
 C495 C 0.81189 0.26749 0.19357
 C496 C 0.79745 0.26367 0.20723
 H497 H 0.89073 0.30537 0.07303
 H498 H 0.86164 0.30118 0.10218
 H499 H 0.90392 0.26429 0.14764
 H500 H 0.93299 0.26897 0.11856
 H501 H 0.88210 0.28365 0.17619
 H502 H 0.85277 0.27706 0.20449
 H503 H 0.80931 0.26721 0.14563
 H504 H 0.83855 0.27334 0.11717
 C505 C 0.44335 0.78955 0.56114
 C506 C 0.42953 0.78825 0.57614
 C507 C 0.41284 0.78643 0.59379
 C508 C 0.41786 0.78059 0.61732
 C509 C 0.40154 0.77817 0.63426
 C510 C 0.37998 0.78156 0.62786
 C511 C 0.37514 0.78762 0.60421
 C512 C 0.39147 0.79002 0.58730
 C513 C 0.36254 0.77832 0.64559
 C514 C 0.34482 0.79230 0.64638
 C515 C 0.32810 0.78880 0.66257
 C516 C 0.32887 0.77131 0.67818
 C517 C 0.34653 0.75744 0.67770
 C518 C 0.36326 0.76090 0.66154
 C519 C 0.31133 0.76727 0.69427
 C520 C 0.29658 0.76358 0.70756
 H521 H 0.43436 0.77779 0.62254
 H522 H 0.40580 0.77374 0.65239
 H523 H 0.35868 0.79006 0.59863
 H524 H 0.38741 0.79444 0.56910
 H525 H 0.34393 0.80599 0.63455
 H526 H 0.31452 0.79965 0.66281
 H527 H 0.34724 0.74379 0.68963
 H528 H 0.37653 0.74969 0.66115
 C529 C 0.05461 0.71108 0.05984
 C530 C 0.06846 0.71212 0.07485
 C531 C 0.08513 0.71365 0.09253
 C532 C 0.08198 0.72601 0.11314
 C533 C 0.09846 0.72811 0.12994
 C534 C 0.11833 0.71788 0.12630
 C535 C 0.12124 0.70529 0.10564
 C536 C 0.10474 0.70322 0.08888
 C537 C 0.13611 0.72073 0.14368
 C538 C 0.15725 0.72363 0.13556
 C539 C 0.17393 0.72686 0.15184
 C540 C 0.16975 0.72723 0.17644
 C541 C 0.14881 0.72421 0.18474
 C542 C 0.13208 0.72098 0.16847
 C543 C 0.18691 0.73119 0.19305
 C544 C 0.20147 0.73480 0.20664
 H545 H 0.06688 0.73423 0.11608
 H546 H 0.09581 0.73812 0.14549
 H547 H 0.13624 0.69699 0.10248
 H548 H 0.10733 0.69359 0.07299
 H549 H 0.16084 0.72384 0.11659
 H550 H 0.19007 0.72928 0.14522
 H551 H 0.14539 0.72444 0.20375
 H552 H 0.11603 0.71856 0.17529
 C553 C 0.55594 0.20990 0.56313
 C554 C 0.56962 0.21185 0.57820
 C555 C 0.58611 0.21469 0.59591
 C556 C 0.59728 0.23402 0.59699
 C557 C 0.61341 0.23691 0.61402
 C558 C 0.61861 0.22047 0.63022
 C559 C 0.60728 0.20107 0.62900
 C560 C 0.59112 0.19822 0.61194
 C561 C 0.63592 0.22355 0.64813
 C562 C 0.65062 0.20700 0.65310
 C563 C 0.66736 0.21023 0.66935
 C564 C 0.66958 0.22998 0.68088
 C565 C 0.65489 0.24644 0.67627
 C566 C 0.63817 0.24326 0.66003
 C567 C 0.68723 0.23363 0.69694
 C568 C 0.70210 0.23709 0.71014
 H569 H 0.59360 0.24684 0.58459
 H570 H 0.62205 0.25190 0.61425
 H571 H 0.61076 0.18820 0.64139
 H572 H 0.58254 0.18319 0.61127
 H573 H 0.64947 0.19174 0.64402
 H574 H 0.67871 0.19741 0.67270
 H575 H 0.65646 0.26179 0.68511
 H576 H 0.62694 0.25621 0.65684
 C577 C 0.71470 0.05505 0.93931
 C578 C 0.71545 0.06897 0.92440
 C579 C 0.71673 0.08593 0.90707
 C580 C 0.71378 0.10716 0.91434
 C581 C 0.71592 0.12381 0.89785
 C582 C 0.72110 0.11945 0.87381
 C583 C 0.72373 0.09803 0.86658
 C584 C 0.72159 0.08138 0.88313
 C585 C 0.72423 0.13723 0.85653
 C586 C 0.71660 0.13565 0.83288
 C587 C 0.71983 0.15236 0.81663
 C588 C 0.73074 0.17081 0.82380
 C589 C 0.73835 0.17253 0.84727
 C590 C 0.73513 0.15588 0.86354
 C591 C 0.73440 0.18795 0.80712
 C592 C 0.73780 0.20250 0.79349
 H593 H 0.70999 0.11085 0.93283
 H594 H 0.71349 0.14010 0.90390
 H595 H 0.72797 0.09417 0.84828
 H596 H 0.72400 0.06500 0.87734
 H597 H 0.70796 0.12160 0.82703
 H598 H 0.71385 0.15088 0.79850
 H599 H 0.74690 0.18670 0.85298
 H600 H 0.74149 0.15745 0.88148
 C601 C 0.21158 0.55432 0.43805
 C602 C 0.21272 0.56814 0.42307
 C603 C 0.21449 0.58490 0.40556
 C604 C 0.21434 0.60629 0.41292
 C605 C 0.21690 0.62264 0.39613
 C606 C 0.21967 0.61780 0.37171
 C607 C 0.21950 0.59624 0.36444
 C608 C 0.21696 0.57989 0.38129
 C609 C 0.22316 0.63517 0.35403
 C610 C 0.21339 0.63449 0.33133
 C611 C 0.21677 0.65093 0.31477
 C612 C 0.22997 0.66821 0.32069
 C613 C 0.23978 0.66898 0.34319
 C614 C 0.23642 0.65260 0.35975
 C615 C 0.23351 0.68523 0.30383
 C616 C 0.23680 0.69979 0.29018
 H617 H 0.21242 0.61034 0.43166
 H618 H 0.21665 0.63908 0.40223
 H619 H 0.22183 0.59199 0.34583
 H620 H 0.21718 0.56337 0.37544
 H621 H 0.20293 0.62140 0.32650
 H622 H 0.20905 0.65020 0.29742
 H623 H 0.25008 0.68224 0.34792
 H624 H 0.24443 0.65343 0.37691
 C625 C 0.28467 0.94463 0.93824
 C626 C 0.28401 0.93083 0.92316
 C627 C 0.28286 0.91405 0.90559
 C628 C 0.28156 0.91900 0.88120
 C629 C 0.27969 0.90263 0.86426
 C630 C 0.27909 0.88107 0.87153
 C631 C 0.28062 0.87629 0.89608
 C632 C 0.28248 0.89267 0.91297
 C633 C 0.27636 0.86366 0.85370
 C634 C 0.28768 0.84425 0.85608
 C635 C 0.28444 0.82756 0.83981
 C636 C 0.26990 0.83005 0.82093
 C637 C 0.25875 0.84937 0.81824
 C638 C 0.26196 0.86608 0.83449
 C639 C 0.26592 0.81259 0.80476
 C640 C 0.26226 0.79789 0.79141
 H641 H 0.28185 0.93551 0.87530
 H642 H 0.27879 0.90681 0.84548
 H643 H 0.27989 0.85990 0.90228
 H644 H 0.28335 0.88868 0.93183
 H645 H 0.29906 0.84198 0.87049
 H646 H 0.29315 0.81267 0.84206
 H647 H 0.24737 0.85143 0.80377
 H648 H 0.25278 0.88069 0.83235
 C649 C 0.78804 0.44499 0.43760
 C650 C 0.78697 0.43129 0.42245
 C651 C 0.78540 0.41470 0.40470
 C652 C 0.78862 0.39333 0.41125
 C653 C 0.78642 0.37707 0.39425
 C654 C 0.78093 0.38199 0.37044
 C655 C 0.77789 0.40355 0.36399
 C656 C 0.78012 0.41980 0.38102
 C657 C 0.77789 0.36463 0.35261
 C658 C 0.76078 0.36550 0.33621
 C659 C 0.75741 0.34877 0.32005
 C660 C 0.77111 0.33099 0.31999
 C661 C 0.78835 0.33010 0.33600
 C662 C 0.79173 0.34680 0.35221
 C663 C 0.76707 0.31338 0.30404
 C664 C 0.76344 0.29849 0.29096
 H665 H 0.79258 0.38921 0.42957
 H666 H 0.78855 0.36062 0.39986
 H667 H 0.77389 0.40786 0.34575
 H668 H 0.77759 0.43630 0.37577
 H669 H 0.74968 0.37886 0.33629
 H670 H 0.74397 0.34958 0.30780
 H671 H 0.79906 0.31641 0.33609
 H672 H 0.80519 0.34579 0.36439
 C673 C 0.05503 0.28953 0.93955
 C674 C 0.06886 0.28809 0.92456
 C675 C 0.08552 0.28608 0.90688
 C676 C 0.10690 0.28955 0.91329
 C677 C 0.12320 0.28701 0.89634
 C678 C 0.11830 0.28092 0.87270
 C679 C 0.09672 0.27761 0.86639
 C680 C 0.08045 0.28017 0.88339
 C681 C 0.13569 0.27761 0.85489
 C682 C 0.13499 0.26023 0.83889
 C683 C 0.15169 0.25671 0.82266
 C684 C 0.16928 0.27052 0.82214
 C685 C 0.17003 0.28799 0.83780
 C686 C 0.15335 0.29153 0.85407
 C687 C 0.18681 0.26643 0.80600
 C688 C 0.20160 0.26275 0.79271
 H689 H 0.11101 0.29401 0.93147
 H690 H 0.13966 0.28937 0.90184
 H691 H 0.09242 0.27315 0.84829
 H692 H 0.06394 0.27745 0.87825
 H693 H 0.12176 0.24907 0.83930
 H694 H 0.15101 0.24308 0.81070
 H695 H 0.18357 0.29880 0.83754
 H696 H 0.15423 0.30520 0.86593
 C697 C 0.55452 0.79058 0.43814
 C698 C 0.56843 0.78951 0.42320
 C699 C 0.58524 0.78796 0.40565
 C700 C 0.58267 0.77488 0.38553
 C701 C 0.59931 0.77277 0.36891
 C702 C 0.61877 0.78369 0.37225
 C703 C 0.62109 0.79698 0.39242
 C704 C 0.60443 0.79907 0.40901
 C705 C 0.63673 0.78083 0.35506
 C706 C 0.65794 0.77884 0.36336
 C707 C 0.67479 0.77550 0.34728
 C708 C 0.67070 0.77415 0.32270
 C709 C 0.64969 0.77630 0.31422
 C710 C 0.63281 0.77963 0.33029
 C711 C 0.68802 0.76997 0.30631
 C712 C 0.70266 0.76615 0.29286
 H713 H 0.56792 0.76613 0.38283
 H714 H 0.59713 0.76219 0.35375
 H715 H 0.63575 0.80581 0.39534
 H716 H 0.60657 0.80924 0.42454
 H717 H 0.66146 0.77938 0.38233
 H718 H 0.69098 0.77374 0.35404
 H719 H 0.64635 0.77528 0.29523
 H720 H 0.61670 0.78136 0.32332
 C721 C 0.94406 0.71176 0.93815
 C722 C 0.93023 0.71302 0.92314
 C723 C 0.91360 0.71484 0.90542
 C724 C 0.89231 0.71064 0.91164
 C725 C 0.87601 0.71307 0.89467
 C726 C 0.88082 0.71979 0.87124
 C727 C 0.90232 0.72378 0.86511
 C728 C 0.91859 0.72131 0.88211
 C729 C 0.86342 0.72307 0.85345
 C730 C 0.86373 0.74085 0.83802
 C731 C 0.84704 0.74431 0.82177
 C732 C 0.82984 0.73004 0.82067
 C733 C 0.82947 0.71219 0.83578
 C734 C 0.84614 0.70872 0.85207
 C735 C 0.81234 0.73405 0.80447
 C736 C 0.79759 0.73772 0.79112
 H737 H 0.88827 0.70572 0.92967
 H738 H 0.85960 0.71016 0.90003
 H739 H 0.90656 0.72870 0.84715
 H740 H 0.93504 0.72457 0.87711
 H741 H 0.87665 0.75235 0.83887
 H742 H 0.84743 0.75824 0.81024
 H743 H 0.81624 0.70103 0.83506
 H744 H 0.84557 0.69475 0.86351
 C745 C 0.44530 0.21142 0.43892
 C746 C 0.43167 0.21303 0.42372
 C747 C 0.41527 0.21549 0.40582
 C748 C 0.41086 0.19888 0.38977
 C749 C 0.39482 0.20139 0.37247
 C750 C 0.38303 0.22058 0.37101
 C751 C 0.38761 0.23717 0.38724
 C752 C 0.40361 0.23462 0.40451
 C753 C 0.36587 0.22332 0.35282
 C754 C 0.36331 0.24294 0.34081
 C755 C 0.34671 0.24579 0.32431
 C756 C 0.33245 0.22910 0.31957
 C757 C 0.33500 0.20942 0.33119
 C758 C 0.35163 0.20652 0.34769
 C759 C 0.31484 0.23247 0.30334
 C760 C 0.29998 0.23573 0.29002
 H761 H 0.41983 0.18402 0.39060
 H762 H 0.39182 0.18842 0.36007
 H763 H 0.37860 0.25201 0.38682
 H764 H 0.40683 0.24755 0.41691
 H765 H 0.37418 0.25607 0.34411
 H766 H 0.34488 0.26108 0.31540
 H767 H 0.32399 0.19642 0.32773
 H768 H 0.35304 0.19131 0.35684
 C769 C 0.71425 0.94639 0.93799
 C770 C 0.71474 0.93275 0.92273
 C771 C 0.71568 0.91613 0.90494
 C772 C 0.70645 0.89621 0.90961
 C773 C 0.70824 0.87966 0.89289
 C774 C 0.71934 0.88281 0.87126
 C775 C 0.72828 0.90302 0.86656
 C776 C 0.72647 0.91956 0.88332
 C777 C 0.72213 0.86493 0.85401
 C778 C 0.72066 0.86851 0.82919
 C779 C 0.72384 0.85170 0.81302
 C780 C 0.72851 0.83112 0.82145
 C781 C 0.72989 0.82738 0.84609
 C782 C 0.72672 0.84414 0.86227
 C783 C 0.73238 0.81388 0.80491
 C784 C 0.73594 0.79928 0.79137
 H785 H 0.69805 0.89340 0.92629
 H786 H 0.70093 0.86438 0.89688
 H787 H 0.73715 0.90588 0.85022
 H788 H 0.73377 0.93490 0.87959
 H789 H 0.71694 0.88428 0.82229
 H790 H 0.72274 0.85476 0.79397
 H791 H 0.73363 0.81154 0.85279
 H792 H 0.72830 0.84093 0.88123
 C793 C 0.21385 0.44337 0.43806
 C794 C 0.21570 0.42964 0.42302
 C795 C 0.21833 0.41308 0.40536
 C796 C 0.20305 0.41033 0.38729
 C797 C 0.20569 0.39414 0.37022
 C798 C 0.22370 0.38053 0.37100
 C799 C 0.23896 0.38345 0.38925
 C800 C 0.23627 0.39960 0.40630
 C801 C 0.22658 0.36327 0.35299
 C802 C 0.24698 0.35886 0.34341
 C803 C 0.24984 0.34223 0.32698
 C804 C 0.23237 0.32977 0.31987
 C805 C 0.21196 0.33414 0.32911
 C806 C 0.20906 0.35081 0.34553
 C807 C 0.23561 0.31219 0.30360
 C808 C 0.23875 0.29734 0.29024
 H809 H 0.18912 0.42071 0.38638
 H810 H 0.19379 0.39244 0.35624
 H811 H 0.25282 0.37304 0.39056
 H812 H 0.24815 0.40154 0.42027
 H813 H 0.26073 0.36835 0.34853
 H814 H 0.26571 0.33900 0.31992
 H815 H 0.19834 0.32454 0.32381
 H816 H 0.19321 0.35365 0.35280
 C817 C 0.28566 0.05333 0.93817
 C818 C 0.28523 0.06709 0.92305
 C819 C 0.28437 0.08379 0.90537
 C820 C 0.29540 0.10295 0.90917
 C821 C 0.29374 0.11961 0.89258
 C822 C 0.28098 0.11733 0.87197
 C823 C 0.27021 0.09789 0.86814
 C824 C 0.27189 0.08125 0.88476
 C825 C 0.27837 0.13539 0.85492
 C826 C 0.27778 0.13171 0.83007
 C827 C 0.27455 0.14868 0.81415
 C828 C 0.27187 0.16952 0.82284
 C829 C 0.27266 0.17337 0.84750
 C830 C 0.27589 0.15645 0.86344
 C831 C 0.26772 0.18689 0.80658
 C832 C 0.26391 0.20152 0.79318
 H833 H 0.30510 0.10508 0.92507
 H834 H 0.30245 0.13427 0.89587
 H835 H 0.26004 0.09574 0.85263
 H836 H 0.26319 0.06652 0.88172
 H837 H 0.27989 0.11572 0.82295
 H838 H 0.27399 0.14552 0.79508
 H839 H 0.27050 0.18943 0.85443
 H840 H 0.27596 0.15977 0.88246
 C841 C 0.78838 0.55597 0.43850
 C842 C 0.78730 0.56993 0.42366
 C843 C 0.78567 0.58687 0.40633
 C844 C 0.77968 0.58238 0.38272
 C845 C 0.77726 0.59900 0.36618
 C846 C 0.78076 0.62037 0.37309
 C847 C 0.78704 0.62466 0.39680
 C848 C 0.78945 0.60803 0.41329
 C849 C 0.77740 0.63815 0.35584
 C850 C 0.76731 0.65721 0.36324
 C851 C 0.76392 0.67390 0.34704
 C852 C 0.77054 0.67180 0.32322
 C853 C 0.78061 0.65292 0.31565
 C854 C 0.78401 0.63618 0.33185
 C855 C 0.76678 0.68902 0.30662
 C856 C 0.76336 0.70363 0.29305
 H857 H 0.77661 0.56606 0.37719
 H858 H 0.77218 0.59520 0.34815
 H859 H 0.79014 0.64090 0.40259
 H860 H 0.79411 0.61168 0.43153
 H861 H 0.76173 0.65910 0.38148
 H862 H 0.75602 0.68840 0.35306
 H863 H 0.78583 0.65115 0.29726
 H864 H 0.79201 0.62180 0.32567
 C865 C 0.05414 0.71107 0.93849
 C866 C 0.06790 0.71220 0.92339
 C867 C 0.08450 0.71387 0.90562
 C868 C 0.08117 0.72620 0.88505
 C869 C 0.09760 0.72854 0.86824
 C870 C 0.11762 0.71859 0.87184
 C871 C 0.12070 0.70600 0.89244
 C872 C 0.10425 0.70368 0.90922
 C873 C 0.13538 0.72177 0.85449
 C874 C 0.15645 0.72499 0.86266
 C875 C 0.17312 0.72847 0.84642
 C876 C 0.16898 0.72877 0.82180
 C877 C 0.14810 0.72546 0.81346
 C878 C 0.13139 0.72199 0.82969
 C879 C 0.18615 0.73287 0.80522
 C880 C 0.20070 0.73654 0.79164
 H881 H 0.06596 0.73423 0.88215
 H882 H 0.09481 0.73855 0.85273
 H883 H 0.13582 0.69790 0.89556
 H884 H 0.10698 0.69408 0.92508
 H885 H 0.15999 0.72525 0.88163
 H886 H 0.18920 0.73113 0.85308
 H887 H 0.14472 0.72563 0.79444
 H888 H 0.11538 0.71933 0.82284
 C889 C 0.55635 0.20978 0.43939
 C890 C 0.57019 0.21065 0.42436
 C891 C 0.58692 0.21211 0.40674
 C892 C 0.60745 0.20430 0.41192
 C893 C 0.62401 0.20662 0.39529
 C894 C 0.62026 0.21684 0.37323
 C895 C 0.59948 0.22436 0.36804
 C896 C 0.58293 0.22202 0.38472
 C897 C 0.63807 0.22015 0.35598
 C898 C 0.63474 0.21769 0.33122
 C899 C 0.65144 0.22133 0.31502
 C900 C 0.67165 0.22748 0.32336
 C901 C 0.67516 0.22984 0.34796
 C902 C 0.65851 0.22620 0.36417
 C903 C 0.68873 0.23179 0.30674
 C904 C 0.70313 0.23567 0.29305
 H905 H 0.61070 0.19660 0.42892
 H906 H 0.63975 0.20040 0.39967
 H907 H 0.59614 0.23252 0.35136
 H908 H 0.56712 0.22821 0.38058
 H909 H 0.61927 0.21281 0.32438
 H910 H 0.64856 0.21943 0.29602
 H911 H 0.69071 0.23470 0.35460
 H912 H 0.66151 0.22855 0.38308
 C913 C 0.94573 0.29023 0.93917
 C914 C 0.93197 0.28892 0.92409
 C915 C 0.91539 0.28701 0.90633
 C916 C 0.92039 0.27992 0.88322
 C917 C 0.90415 0.27739 0.86621
 C918 C 0.88267 0.28193 0.87212
 C919 C 0.87786 0.28924 0.89535
 C920 C 0.89412 0.29174 0.91233
 C921 C 0.86529 0.27861 0.85434
 C922 C 0.84815 0.29323 0.85258
 C923 C 0.83147 0.28970 0.83634
 C924 C 0.83170 0.27155 0.82166
 C925 C 0.84878 0.25704 0.82311
 C926 C 0.86548 0.26053 0.83932
 C927 C 0.81414 0.26748 0.80560
 C928 C 0.79931 0.26381 0.79240
 H929 H 0.93682 0.27621 0.87840
 H930 H 0.90840 0.27198 0.84841
 H931 H 0.86147 0.29257 0.90057
 H932 H 0.89008 0.29712 0.93022
 H933 H 0.84768 0.30743 0.86368
 H934 H 0.81833 0.30105 0.83536
 H935 H 0.84906 0.24288 0.81192
 H936 H 0.87828 0.24884 0.84047
 C937 C 0.44355 0.78797 0.43802
 C938 C 0.42969 0.78602 0.42315
 C939 C 0.41291 0.78328 0.40577
 C940 C 0.39538 0.77026 0.41115
 C941 C 0.37909 0.76732 0.39433
 C942 C 0.38011 0.77740 0.37184
 C943 C 0.39775 0.79057 0.36663
 C944 C 0.41406 0.79346 0.38350
 C945 C 0.36284 0.77407 0.35394
 C946 C 0.35508 0.79124 0.34009
 C947 C 0.33850 0.78809 0.32362
 C948 C 0.32953 0.76776 0.32074
 C949 C 0.33727 0.75057 0.33429
 C950 C 0.35381 0.75368 0.35076
 C951 C 0.31217 0.76447 0.30420
 C952 C 0.29751 0.76124 0.29064
 H953 H 0.39430 0.76236 0.42838
 H954 H 0.36557 0.75735 0.39902
 H955 H 0.39909 0.79836 0.34939
 H956 H 0.42760 0.80353 0.37913
 H957 H 0.36156 0.80716 0.34232
 H958 H 0.33258 0.80152 0.31327
 H959 H 0.33047 0.73476 0.33216
 H960 H 0.35964 0.74009 0.36090
 C961 C 0.28316 0.94405 0.06097
 C962 C 0.28184 0.93036 0.07608
 C963 C 0.27973 0.91379 0.09377
 C964 C 0.26096 0.90165 0.09465
 C965 C 0.25880 0.88537 0.11158
 C966 C 0.27543 0.88099 0.12790
 C967 C 0.29426 0.89327 0.12688
 C968 C 0.29638 0.90959 0.10992
 C969 C 0.27309 0.86354 0.14573
 C970 C 0.29032 0.84964 0.15076
 C971 C 0.28778 0.83273 0.16690
 C972 C 0.26805 0.82955 0.17826
 C973 C 0.25093 0.84346 0.17361
 C974 C 0.25341 0.86034 0.15748
 C975 C 0.26507 0.81175 0.19423
 C976 C 0.26204 0.79680 0.20741
 H977 H 0.24803 0.90469 0.08214
 H978 H 0.24425 0.87599 0.11167
 H979 H 0.30724 0.89042 0.13936
 H980 H 0.31097 0.91892 0.10939
 H981 H 0.30558 0.85154 0.14180
 H982 H 0.30112 0.82200 0.17030
 H983 H 0.23559 0.84116 0.18233
 H984 H 0.23995 0.87094 0.15425
 C985 C 0.78573 0.44429 0.56135
 C986 C 0.78484 0.43047 0.57636
 C987 C 0.78349 0.41381 0.59404
 C988 C 0.78057 0.41897 0.61821
 C989 C 0.77864 0.40273 0.63527
 C990 C 0.77962 0.38109 0.62835
 C991 C 0.78273 0.37609 0.60402
 C992 C 0.78464 0.39236 0.58701
 C993 C 0.77694 0.36378 0.64630
 C994 C 0.78948 0.34504 0.64506
 C995 C 0.78641 0.32845 0.66148
 C996 C 0.77082 0.33037 0.67937
 C997 C 0.75843 0.34903 0.68093
 C998 C 0.76147 0.36564 0.66453
 C999 C 0.76709 0.31297 0.69569
 C1000 C 0.76366 0.29830 0.70914
 H1001 H 0.77967 0.43554 0.62384
 H1002 H 0.77650 0.40708 0.65388
 H1003 H 0.78324 0.35961 0.59807
 H1004 H 0.78678 0.38820 0.56832
 H1005 H 0.80170 0.34323 0.63143
 H1006 H 0.79610 0.31408 0.66012
 H1007 H 0.74624 0.35065 0.69464
 H1008 H 0.75137 0.37972 0.66578
 C1009 C 0.71486 0.05464 0.06204
 C1010 C 0.71553 0.06827 0.07729
 C1011 C 0.71666 0.08485 0.09509
 C1012 C 0.71517 0.10631 0.08815
 C1013 C 0.71701 0.12255 0.10521
 C1014 C 0.72042 0.11755 0.12947
 C1015 C 0.72171 0.09591 0.13630
 C1016 C 0.71984 0.07967 0.11920
 C1017 C 0.72314 0.13487 0.14741
 C1018 C 0.73892 0.13320 0.16532
 C1019 C 0.74212 0.14991 0.18155
 C1020 C 0.72959 0.16848 0.18014
 C1021 C 0.71364 0.17018 0.16262
 C1022 C 0.71042 0.15349 0.14636
 C1023 C 0.73356 0.18607 0.19614
 C1024 C 0.73716 0.20095 0.20926
 H1025 H 0.71283 0.11049 0.06951
 H1026 H 0.71627 0.13904 0.09932
 H1027 H 0.72409 0.09154 0.15487
 H1028 H 0.72102 0.06310 0.12474
 H1029 H 0.74916 0.11920 0.16640
 H1030 H 0.75457 0.14848 0.19498
 H1031 H 0.70383 0.18448 0.16138
 H1032 H 0.69797 0.15514 0.13297
 C1033 C 0.21223 0.55444 0.56179
 C1034 C 0.21283 0.56831 0.57679
 C1035 C 0.21391 0.58514 0.59432
 C1036 C 0.20580 0.60547 0.58891
 C1037 C 0.20773 0.62215 0.60544
 C1038 C 0.21785 0.61871 0.62764
 C1039 C 0.22569 0.59812 0.63304
 C1040 C 0.22374 0.58147 0.61646
 C1041 C 0.22074 0.63664 0.64479
 C1042 C 0.21815 0.63342 0.66956
 C1043 C 0.22144 0.65024 0.68568
 C1044 C 0.22735 0.67046 0.67726
 C1045 C 0.22982 0.67385 0.65266
 C1046 C 0.22653 0.65709 0.63652
 C1047 C 0.23134 0.68766 0.69380
 C1048 C 0.23499 0.70221 0.70736
 H1049 H 0.19816 0.60849 0.57181
 H1050 H 0.20128 0.63773 0.60088
 H1051 H 0.23380 0.59502 0.64982
 H1052 H 0.23017 0.56581 0.62077
 H1053 H 0.21347 0.61795 0.67645
 H1054 H 0.21946 0.64744 0.70469
 H1055 H 0.23448 0.68941 0.64595
 H1056 H 0.22896 0.66001 0.61762
 C1057 C 0.94455 0.71241 0.06128
 C1058 C 0.93089 0.71396 0.07645
 C1059 C 0.91450 0.71614 0.09442
 C1060 C 0.91186 0.73560 0.10647
 C1061 C 0.89565 0.73795 0.12355
 C1062 C 0.88185 0.72084 0.12882
 C1063 C 0.88472 0.70129 0.11670
 C1064 C 0.90095 0.69897 0.09961
 C1065 C 0.86432 0.72352 0.14659
 C1066 C 0.84389 0.71491 0.14220
 C1067 C 0.82721 0.71805 0.15856
 C1068 C 0.83072 0.72978 0.17953
 C1069 C 0.85105 0.73820 0.18420
 C1070 C 0.86775 0.73509 0.16786
 C1071 C 0.81330 0.73381 0.19584
 C1072 C 0.79862 0.73755 0.20926
 H1073 H 0.92221 0.74902 0.10251
 H1074 H 0.89366 0.75330 0.13230
 H1075 H 0.87452 0.68775 0.12056
 H1076 H 0.90288 0.68383 0.09040
 H1077 H 0.84066 0.70618 0.12585
 H1078 H 0.81151 0.71156 0.15471
 H1079 H 0.85395 0.74731 0.20037
 H1080 H 0.88336 0.74167 0.17189
 C1081 C 0.44479 0.20887 0.56270
 C1082 C 0.43098 0.21012 0.57775
 C1083 C 0.41433 0.21195 0.59545
 C1084 C 0.41952 0.21619 0.61935
 C1085 C 0.40325 0.21869 0.63637
 C1086 C 0.38158 0.21698 0.62967
 C1087 C 0.37657 0.21251 0.60562
 C1088 C 0.39285 0.21004 0.58864
 C1089 C 0.36423 0.22031 0.64752
 C1090 C 0.34579 0.20742 0.64723
 C1091 C 0.32914 0.21108 0.66350
 C1092 C 0.33070 0.22763 0.68028
 C1093 C 0.34907 0.24039 0.68090
 C1094 C 0.36574 0.23675 0.66465
 C1095 C 0.31320 0.23191 0.69641
 C1096 C 0.29841 0.23571 0.70965
 H1097 H 0.43611 0.21771 0.62480
 H1098 H 0.40763 0.22187 0.65479
 H1099 H 0.36005 0.21139 0.59983
 H1100 H 0.38867 0.20688 0.57015
 H1101 H 0.34426 0.19447 0.63446
 H1102 H 0.31499 0.20109 0.66289
 H1103 H 0.35040 0.25332 0.69373
 H1104 H 0.37959 0.24713 0.66512
 C1105 C 0.05550 0.28983 0.06176
 C1106 C 0.06928 0.28841 0.07681
 C1107 C 0.08591 0.28638 0.09453
 C1108 C 0.08107 0.27871 0.11742
 C1109 C 0.09737 0.27602 0.13435
 C1110 C 0.11874 0.28097 0.12858
 C1111 C 0.12339 0.28890 0.10558
 C1112 C 0.10707 0.29155 0.08868
 C1113 C 0.13620 0.27747 0.14626
 C1114 C 0.15303 0.29228 0.14847
 C1115 C 0.16979 0.28861 0.16459
 C1116 C 0.16997 0.27011 0.17870
 C1117 C 0.15322 0.25539 0.17680
 C1118 C 0.13643 0.25904 0.16072
 C1119 C 0.18763 0.26593 0.19464
 C1120 C 0.20253 0.26218 0.20773
 H1121 H 0.06473 0.27470 0.12214
 H1122 H 0.09324 0.27017 0.15200
 H1123 H 0.13970 0.29259 0.10048
 H1124 H 0.11100 0.29742 0.07097
 H1125 H 0.15318 0.30673 0.13780
 H1126 H 0.18267 0.30012 0.16594
 H1127 H 0.15326 0.24097 0.18754
 H1128 H 0.12388 0.24720 0.15921
 C1129 C 0.55431 0.79103 0.56126
 C1130 C 0.56814 0.78989 0.57629
 C1131 C 0.58479 0.78819 0.59399
 C1132 C 0.60610 0.79213 0.58763
 C1133 C 0.62243 0.78973 0.60456
 C1134 C 0.61764 0.78331 0.62810
 C1135 C 0.59612 0.77962 0.63438
 C1136 C 0.57982 0.78204 0.61741
 C1137 C 0.63508 0.77999 0.64583
 C1138 C 0.63458 0.76239 0.66152
 C1139 C 0.65131 0.75887 0.67771
 C1140 C 0.66873 0.77288 0.67848
 C1141 C 0.66929 0.79055 0.66312
 C1142 C 0.65258 0.79410 0.64690
 C1143 C 0.68629 0.76877 0.69455
 C1144 C 0.70109 0.76503 0.70779
 H1145 H 0.61013 0.79680 0.56950
 H1146 H 0.63885 0.79242 0.59908
 H1147 H 0.59190 0.77494 0.65243
 H1148 H 0.56336 0.77897 0.62252
 H1149 H 0.62150 0.75107 0.66090
 H1150 H 0.65077 0.74508 0.68944
 H1151 H 0.68269 0.80151 0.66358
 H1152 H 0.65330 0.80792 0.63526
   
