data_POSCAR
  _audit_creation_date              2014-09-24
  _audit_creation_method            'ToBaCCo'
  _symmetry_space_group_name_H-M    'P1'
  _symmetry_Int_Tables_number       1
  _symmetry_cell_setting            triclinic
  loop_
  _symmetry_equiv_pos_as_xyz
 x,y,z
_cell_length_a 34.7447
_cell_length_b 36.8822
_cell_length_c 34.9939
_cell_angle_alpha 90.051200
_cell_angle_beta 89.526600
_cell_angle_gamma 89.509000
loop_
  _atom_site_label
  _atom_site_type_symbol
  _atom_site_fract_x
  _atom_site_fract_y
  _atom_site_fract_z
C1 C 1.21819 0.26826 0.31289
 H2 H 1.23079 0.24395 0.32482
 C3 C 1.19696 0.29172 0.33646
 H4 H 1.19361 0.28551 0.36655
 C5 C 1.20661 0.30593 0.25926
 H6 H 1.21068 0.31128 0.22911
 C7 C 1.18488 0.32994 0.28174
 H8 H 1.17182 0.35364 0.26877
 N9 N 1.22310 0.27601 0.27516
 C10 C 1.23922 0.19697 0.18314
 H11 H 1.27025 0.19563 0.18048
 C12 C 1.21643 0.17637 0.15881
 H13 H 1.22994 0.15884 0.13768
 C14 C 1.18371 0.22082 0.21435
 H15 H 1.17105 0.23795 0.23623
 C16 C 1.15986 0.20071 0.19057
 H17 H 1.12891 0.20245 0.19422
 Zn18 Zn 1.25442 0.24631 0.24320
 N19 N 1.22265 0.21866 0.21028
 C20 C 1.28616 0.17849 0.26751
 N21 N 1.28533 0.21488 0.27387
 C22 C 1.30562 0.22958 0.30300
 C23 C 1.32692 0.20760 0.32752
 C24 C 1.30770 0.15549 0.29094
 C25 C 1.28244 0.27911 0.17509
 C26 C 1.30373 0.30387 0.15367
 C27 C 1.33226 0.32547 0.21204
 C28 C 1.31037 0.30037 0.23238
 N29 N 1.28613 0.27766 0.21379
 H30 H 1.26953 0.16689 0.24476
 H31 H 1.30439 0.25840 0.30815
 H32 H 1.34364 0.22058 0.34957
 H33 H 1.30648 0.12659 0.28562
 H34 H 1.26213 0.26199 0.16074
 H35 H 1.30011 0.30526 0.12299
 H36 H 1.35092 0.34386 0.22717
 H37 H 1.31191 0.29996 0.26310
 C38 C 1.17626 0.17837 0.16229
 C39 C 1.18059 0.32330 0.32100
 C40 C 1.32860 0.32756 0.17234
 C41 C 1.32746 0.16962 0.32269
 C42 C 0.69599 -0.23854 0.30509
 H43 H 0.69627 -0.26754 0.30970
 C44 C 0.67322 -0.21614 0.32850
 H45 H 0.65595 -0.22790 0.35113
 C46 C 0.71909 -0.18755 0.27100
 H47 H 0.73730 -0.17624 0.24902
 C48 C 0.69647 -0.16432 0.29334
 H49 H 0.69724 -0.13538 0.28815
 N50 N 0.71868 -0.22396 0.27722
 C51 C 0.74047 -0.30046 0.18453
 H52 H 0.77050 -0.29500 0.17891
 C53 C 0.72057 -0.32401 0.16068
 H54 H 0.73543 -0.33724 0.13711
 C55 C 0.68412 -0.28961 0.22164
 H56 H 0.66986 -0.27606 0.24518
 C57 C 0.66318 -0.31302 0.19859
 H58 H 0.63300 -0.31761 0.20469
 Zn59 Zn 0.75160 -0.25433 0.24712
 N60 N 0.72229 -0.28442 0.21482
 C61 C 0.80432 -0.31071 0.26337
 N62 N 0.78300 -0.28343 0.27936
 C63 C 0.78475 -0.27633 0.31750
 C64 C 0.80840 -0.29721 0.34110
 C65 C 0.82836 -0.33219 0.28591
 C66 C 0.76733 -0.20759 0.18585
 C67 C 0.78887 -0.18292 0.16454
 C68 C 0.84354 -0.19594 0.20474
 C69 C 0.82091 -0.22022 0.22544
 N70 N 0.78336 -0.22501 0.21613
 H71 H 0.80303 -0.31566 0.23303
 H72 H 0.76840 -0.25406 0.32965
 H73 H 0.80974 -0.29124 0.37137
 H74 H 0.84543 -0.35362 0.27281
 H75 H 0.73741 -0.21201 0.17909
 H76 H 0.77555 -0.16831 0.14123
 H77 H 0.87319 -0.19165 0.21281
 H78 H 0.83300 -0.23438 0.24962
 C79 C 0.68172 -0.33095 0.16823
 C80 C 0.67397 -0.17852 0.32307
 C81 C 0.82712 -0.17629 0.17462
 C82 C 0.83079 -0.32523 0.32515
 C83 C 0.71356 0.27023 -0.18709
 H84 H 0.72863 0.24761 -0.17427
 C85 C 0.69057 0.29295 -0.16432
 H86 H 0.68819 0.28803 -0.13389
 C87 C 0.69848 0.30481 -0.24222
 H88 H 0.70200 0.30929 -0.27258
 C89 C 0.67539 0.32828 -0.22047
 H90 H 0.66113 0.35105 -0.23403
 N91 N 0.71733 0.27673 -0.22522
 C92 C 0.73849 0.19116 -0.30926
 H93 H 0.76960 0.19038 -0.31075
 C94 C 0.71718 0.16674 -0.33084
 H95 H 0.73184 0.14721 -0.34907
 C96 C 0.68130 0.21666 -0.28282
 H97 H 0.66741 0.23591 -0.26382
 C98 C 0.65891 0.19257 -0.30373
 H99 H 0.62785 0.19333 -0.30083
 Zn100 Zn 0.75040 0.24755 -0.25572
 N101 N 0.72039 0.21554 -0.28584
 C102 C 0.77998 0.18324 -0.22207
 N103 N 0.78342 0.21998 -0.22322
 C104 C 0.80885 0.23732 -0.20026
 C105 C 0.83245 0.21756 -0.17548
 C106 C 0.80328 0.16248 -0.19809
 C107 C 0.78155 0.27329 -0.32627
 C108 C 0.80081 0.29757 -0.35010
 C109 C 0.81462 0.33432 -0.29497
 C110 C 0.79559 0.30894 -0.27212
 N111 N 0.77940 0.27912 -0.28795
 H112 H 0.75877 0.16984 -0.23928
 H113 H 0.81049 0.26652 -0.20070
 H114 H 0.85226 0.23168 -0.15708
 H115 H 0.80032 0.13327 -0.19769
 H116 H 0.76766 0.25025 -0.33886
 H117 H 0.80066 0.29230 -0.38055
 H118 H 0.82851 0.35687 -0.28103
 H119 H 0.79310 0.31352 -0.24169
 C120 C 0.67700 0.16719 -0.32782
 C121 C 0.67168 0.32254 -0.18106
 C122 C 0.81701 0.32948 -0.33499
 C123 C 0.83018 0.17961 -0.17473
 C124 C 1.19286 -0.23924 -0.19090
 H125 H 1.19673 -0.26770 -0.18493
 C126 C 1.16790 -0.21859 -0.16796
 H127 H 1.15302 -0.23117 -0.14417
 C128 C 1.20715 -0.18784 -0.22890
 H129 H 1.22186 -0.17598 -0.25307
 C130 C 1.18258 -0.16622 -0.20663
 H131 H 1.17904 -0.13774 -0.21337
 N132 N 1.21232 -0.22358 -0.22044
 C133 C 1.23703 -0.31275 -0.29835
 H134 H 1.26792 -0.31544 -0.29569
 C135 C 1.21641 -0.33855 -0.31885
 H136 H 1.23144 -0.36117 -0.33215
 C137 C 1.17954 -0.28028 -0.28372
 H138 H 1.16534 -0.25752 -0.26993
 C139 C 1.15788 -0.30529 -0.30409
 H140 H 1.12700 -0.30164 -0.30610
 Zn141 Zn 1.24677 -0.25200 -0.25097
 N142 N 1.21832 -0.28457 -0.28101
 C143 C 1.26482 -0.30881 -0.20084
 N144 N 1.27997 -0.27974 -0.21938
 C145 C 1.31812 -0.27195 -0.21685
 C146 C 1.34226 -0.29300 -0.19403
 C147 C 1.28800 -0.33069 -0.17787
 C148 C 1.27589 -0.22498 -0.32143
 C149 C 1.29709 -0.20156 -0.34467
 C150 C 1.31851 -0.17040 -0.28797
 C151 C 1.29680 -0.19423 -0.26586
 N152 N 1.27618 -0.22096 -0.28276
 H153 H 1.23487 -0.31553 -0.20457
 H154 H 1.33019 -0.24971 -0.23272
 H155 H 1.37257 -0.28662 -0.19221
 H156 H 1.27572 -0.35384 -0.16333
 H157 H 1.25899 -0.24611 -0.33432
 H158 H 1.29648 -0.20460 -0.37544
 H159 H 1.33459 -0.14904 -0.27430
 H160 H 1.29609 -0.19128 -0.23510
 C161 C 1.17628 -0.33522 -0.32124
 C162 C 1.16270 -0.18166 -0.17582
 C163 C 1.31853 -0.17395 -0.32775
 C164 C 1.32704 -0.32250 -0.17406
 C165 C 0.26889 0.20359 0.69219
 H166 H 0.23833 0.20594 0.68692
 C167 C 0.29213 0.18278 0.66782
 H168 H 0.27952 0.16892 0.64374
 C169 C 0.32276 0.21863 0.73012
 H170 H 0.33461 0.23278 0.75427
 C171 C 0.34699 0.19776 0.70667
 H172 H 0.37741 0.19574 0.71293
 N173 N 0.28439 0.22076 0.72279
 C174 C 0.19727 0.23047 0.81275
 H175 H 0.19739 0.25933 0.81833
 C176 C 0.17270 0.20792 0.83363
 H177 H 0.15372 0.21991 0.85494
 C178 C 0.22139 0.18029 0.77748
 H179 H 0.24074 0.16944 0.75598
 C180 C 0.19722 0.15687 0.79742
 H181 H 0.19915 0.12808 0.79147
 Zn182 Zn 0.25048 0.24808 0.75427
 N183 N 0.22020 0.21650 0.78459
 C184 C 0.17959 0.27587 0.72646
 N185 N 0.21848 0.27585 0.72169
 C186 C 0.23544 0.29491 0.69292
 C187 C 0.21307 0.31532 0.66772
 C188 C 0.15620 0.29605 0.70207
 C189 C 0.29911 0.26469 0.81594
 C190 C 0.31970 0.28727 0.84038
 C191 C 0.29689 0.33897 0.80443
 C192 C 0.27666 0.31554 0.78089
 N193 N 0.27832 0.27911 0.78677
 H194 H 0.16656 0.26029 0.74913
 H195 H 0.26642 0.29417 0.68958
 H196 H 0.22681 0.33037 0.64490
 H197 H 0.12529 0.29618 0.70638
 H198 H 0.29964 0.23564 0.82018
 H199 H 0.33618 0.27563 0.86354
 H200 H 0.29568 0.36790 0.79917
 H201 H 0.25969 0.32659 0.75794
 C202 C 0.17118 0.17064 0.82497
 C203 C 0.33156 0.17970 0.67519
 C204 C 0.31831 0.32488 0.83482
 C205 C 0.17295 0.31569 0.67205
 C206 C 0.76972 0.69887 0.69267
 H207 H 0.73874 0.69799 0.68998
 C208 C 0.79286 0.67525 0.67117
 H209 H 0.77968 0.65617 0.65183
 C210 C 0.82462 0.72416 0.72196
 H211 H 0.83686 0.74324 0.74179
 C212 C 0.84887 0.70138 0.70061
 H213 H 0.87975 0.70309 0.70402
 N214 N 0.78577 0.72173 0.71846
 C215 C 0.69689 0.73078 0.80688
 H216 H 0.69401 0.75986 0.81012
 C217 C 0.67286 0.70771 0.82773
 H218 H 0.65127 0.71947 0.84661
 C219 C 0.72813 0.68052 0.77774
 H220 H 0.75037 0.66980 0.75915
 C221 C 0.70469 0.65656 0.79776
 H222 H 0.70974 0.62769 0.79450
 Zn223 Zn 0.75195 0.74895 0.75027
 N224 N 0.72284 0.71693 0.78136
 C225 C 0.67999 0.77430 0.72152
 N226 N 0.71898 0.77640 0.71812
 C227 C 0.73568 0.79854 0.69180
 C228 C 0.71302 0.82126 0.66912
 C229 C 0.65629 0.79662 0.69951
 C230 C 0.80288 0.76536 0.81008
 C231 C 0.82294 0.78759 0.83535
 C232 C 0.79508 0.83993 0.80429
 C233 C 0.77542 0.81680 0.77985
 N234 N 0.77977 0.78022 0.78293
 H235 H 0.66712 0.75582 0.74168
 H236 H 0.76671 0.79926 0.68924
 H237 H 0.72659 0.83965 0.64913
 H238 H 0.62533 0.79560 0.70320
 H239 H 0.80556 0.73618 0.81218
 H240 H 0.84114 0.77551 0.85694
 H241 H 0.79158 0.86900 0.80130
 H242 H 0.75648 0.82822 0.75867
 C243 C 0.67528 0.66995 0.82193
 C244 C 0.83286 0.67567 0.67593
 C245 C 0.81870 0.82534 0.83281
 C246 C 0.67295 0.82089 0.67359
 C247 C 0.76126 0.19708 0.20194
 H248 H 0.73022 0.19511 0.20125
 C249 C 0.78393 0.17364 0.17977
 H250 H 0.77040 0.15347 0.16196
 C251 C 0.81692 0.22527 0.22662
 H252 H 0.82966 0.24503 0.24536
 C253 C 0.84069 0.20218 0.20507
 H254 H 0.87168 0.20433 0.20707
 N255 N 0.77795 0.22250 0.22446
 C256 C 0.67585 0.22025 0.28204
 H257 H 0.66124 0.23778 0.26205
 C258 C 0.65459 0.19545 0.30351
 H259 H 0.62366 0.19419 0.30023
 C260 C 0.73393 0.19889 0.30954
 H261 H 0.76498 0.20005 0.31115
 C262 C 0.71377 0.17378 0.33164
 H263 H 0.72926 0.15553 0.35037
 Zn264 Zn 0.74463 0.25247 0.25398
 N265 N 0.71481 0.22152 0.28540
 C266 C 0.68776 0.30426 0.23860
 N267 N 0.71286 0.28054 0.22174
 C268 C 0.71720 0.27910 0.18307
 C269 C 0.69579 0.30222 0.15977
 C270 C 0.66570 0.32779 0.21634
 C271 C 0.77016 0.28578 0.32252
 C272 C 0.79086 0.31087 0.34384
 C273 C 0.81623 0.33567 0.28499
 C274 C 0.79497 0.31017 0.26477
 N275 N 0.77299 0.28555 0.28372
 H276 H 0.68547 0.30529 0.26943
 H277 H 0.73804 0.26085 0.17024
 H278 H 0.69990 0.30143 0.12906
 H279 H 0.64624 0.34701 0.22997
 H280 H 0.75180 0.26664 0.33702
 H281 H 0.78884 0.31053 0.37474
 H282 H 0.83439 0.35456 0.26968
 H283 H 0.79622 0.30971 0.23388
 C284 C 0.67373 0.17166 0.32827
 C285 C 0.82405 0.17608 0.18141
 C286 C 0.81417 0.33617 0.32500
 C287 C 0.67013 0.32713 0.17655
 C288 C 0.27004 0.70226 0.19095
 H289 H 0.23914 0.69925 0.18939
 C290 C 0.29392 0.68267 0.16611
 H291 H 0.28142 0.66424 0.14564
 C292 C 0.32406 0.72971 0.21971
 H293 H 0.33570 0.74823 0.24045
 C294 C 0.34904 0.71062 0.19532
 H295 H 0.37983 0.71434 0.19756
 N296 N 0.28533 0.72499 0.21734
 C297 C 0.20143 0.72951 0.31108
 H298 H 0.19946 0.75833 0.31634
 C299 C 0.18170 0.70557 0.33505
 H300 H 0.16375 0.71611 0.35802
 C301 C 0.22829 0.68034 0.27606
 H302 H 0.24709 0.67028 0.25376
 C303 C 0.20905 0.65551 0.29928
 H304 H 0.21275 0.62671 0.29421
 Zn305 Zn 0.25079 0.75043 0.25037
 N306 N 0.22373 0.71669 0.28179
 C307 C 0.18540 0.79585 0.23611
 N308 N 0.21625 0.77857 0.21985
 C309 C 0.22498 0.78335 0.18217
 C310 C 0.20277 0.80645 0.15957
 C311 C 0.16253 0.81943 0.21453
 C312 C 0.30221 0.76784 0.30961
 C313 C 0.32268 0.79064 0.33393
 C314 C 0.29400 0.84216 0.30225
 C315 C 0.27457 0.81840 0.27829
 N316 N 0.27862 0.78199 0.28257
 H317 H 0.17915 0.79239 0.26611
 H318 H 0.25007 0.77036 0.16975
 H319 H 0.21050 0.81049 0.12983
 H320 H 0.13871 0.83376 0.22803
 H321 H 0.30497 0.73872 0.31239
 H322 H 0.34029 0.77825 0.35580
 H323 H 0.29146 0.87094 0.29659
 H324 H 0.25657 0.82920 0.25591
 C325 C 0.18555 0.66810 0.32921
 C326 C 0.33388 0.68696 0.16807
 C327 C 0.31794 0.82871 0.33155
 C328 C 0.17174 0.82545 0.17602
 N329 N 1.06781 0.03718 0.03789
 N330 N 1.09464 0.06180 0.04306
 N331 N 1.03960 -0.03728 0.06803
 N332 N 1.04921 -0.05914 0.09634
 N333 N 1.06553 -0.03885 0.04053
 N334 N 1.09341 -0.06177 0.04948
 N335 N 1.04196 0.03886 0.06542
 N336 N 1.05044 0.06470 0.08994
 C337 C 1.08304 0.07925 0.07531
 C338 C 1.08266 -0.07446 0.08420
 N339 N 0.92880 -0.03346 0.04602
 N340 N 0.90131 -0.05617 0.05590
 N341 N 0.95916 0.04200 0.06929
 N342 N 0.95091 0.06400 0.09801
 N343 N 0.93135 0.04253 0.04404
 N344 N 0.90348 0.06484 0.05518
 N345 N 0.95651 -0.03390 0.07135
 N346 N 0.94852 -0.05677 0.09921
 Mn347 Mn 0.99934 0.00239 0.06878
 C348 C 0.91411 -0.07056 0.08906
 C349 C 0.91626 0.07824 0.08873
 N350 N 1.06226 -0.04141 -0.04181
 N351 N 1.08758 -0.06727 -0.04970
 N352 N 1.03723 0.03481 -0.06974
 N353 N 1.04508 0.05743 -0.09785
 N354 N 1.06500 0.03466 -0.04453
 N355 N 1.09261 0.05708 -0.05499
 N356 N 1.03449 -0.04126 -0.06705
 N357 N 1.04026 -0.06697 -0.09276
 Mn358 Mn 1.06550 -0.00210 -0.00201
 C359 C 1.07309 -0.08351 -0.08114
 C360 C 1.07970 0.07111 -0.08833
 N361 N 0.92891 0.04067 -0.03872
 N362 N 0.90455 0.06763 -0.04536
 N363 N 0.95140 -0.03758 -0.06393
 N364 N 0.94042 -0.06090 -0.09027
 N365 N 0.92582 -0.03565 -0.03618
 N366 N 0.89705 -0.05786 -0.04276
 N367 N 0.95468 0.03836 -0.06626
 N368 N 0.94860 0.06354 -0.09227
 Mn369 Mn 0.92838 0.00358 0.00375
 Mn370 Mn 0.99445 -0.00149 -0.06706
 Cl371 Cl 0.99690 0.00058 0.00090
 C372 C 0.91766 0.08211 -0.07861
 C373 C 0.90642 -0.07343 -0.07665
 N374 N 0.96622 0.56088 0.54201
 N375 N 0.94529 0.58904 0.55323
 N376 N 1.04502 0.52970 0.56744
 N377 N 1.06732 0.53709 0.59675
 N378 N 1.04661 0.55590 0.54204
 N379 N 1.06995 0.58168 0.55358
 N380 N 0.96439 0.53473 0.56743
 N381 N 0.94194 0.54444 0.59634
 C382 C 0.93014 0.57834 0.58709
 C383 C 1.08289 0.56947 0.58759
 N384 N 1.03885 0.42757 0.53629
 N385 N 1.06046 0.39904 0.54423
 N386 N 0.95962 0.45670 0.56418
 N387 N 0.93343 0.44960 0.59060
 N388 N 0.95807 0.43291 0.53636
 N389 N 0.93052 0.40926 0.54300
 N390 N 1.04012 0.45140 0.56416
 N391 N 1.06246 0.43946 0.59188
 Mn392 Mn 1.00232 0.49312 0.56604
 C393 C 1.07508 0.40680 0.57895
 C394 C 0.91475 0.42040 0.57663
 N395 N 1.04767 0.55877 0.45969
 N396 N 1.07441 0.58316 0.45294
 N397 N 0.96596 0.53983 0.43155
 N398 N 0.94331 0.55136 0.40389
 N399 N 0.96703 0.56377 0.45936
 N400 N 0.94513 0.59210 0.45129
 N401 N 1.04664 0.53490 0.43186
 N402 N 1.07271 0.54257 0.40544
 Mn403 Mn 1.00686 0.56001 0.50072
 C404 C 1.09047 0.57230 0.41945
 C405 C 0.93037 0.58391 0.41672
 N406 N 0.95917 0.43602 0.45429
 N407 N 0.93216 0.41258 0.44582
 N408 N 1.04190 0.45671 0.42861
 N409 N 1.06800 0.44874 0.40221
 N410 N 1.03981 0.43069 0.45410
 N411 N 1.06437 0.40433 0.44569
 N412 N 0.96110 0.46159 0.42829
 N413 N 0.93544 0.45596 0.40128
 Mn414 Mn 0.99896 0.43154 0.49522
 Mn415 Mn 1.00391 0.49825 0.42969
 Cl416 Cl 1.00302 0.49576 0.49794
 C417 C 0.91699 0.42563 0.41308
 C418 C 1.08232 0.41627 0.41365
 N419 N 0.56737 0.03225 0.54123
 N420 N 0.59643 0.05322 0.55071
 N421 N 0.53690 -0.04279 0.56793
 N422 N 0.54551 -0.06478 0.59639
 N423 N 0.56411 -0.04373 0.54164
 N424 N 0.59182 -0.06648 0.55158
 N425 N 0.54059 0.03311 0.56795
 N426 N 0.55064 0.05477 0.59609
 C427 C 0.58543 0.06723 0.58492
 C428 C 0.57969 -0.07958 0.58566
 N429 N 0.42721 -0.03638 0.54145
 N430 N 0.39805 -0.05761 0.54996
 N431 N 0.45813 0.03754 0.56805
 N432 N 0.45178 0.06214 0.59479
 N433 N 0.43199 0.03978 0.54126
 N434 N 0.40724 0.06624 0.54897
 N435 N 0.45364 -0.03825 0.56799
 N436 N 0.44289 -0.06063 0.59545
 Mn437 Mn 0.49728 -0.00272 0.56821
 C438 C 0.40817 -0.07257 0.58370
 C439 C 0.42043 0.08028 0.58214
 N440 N 0.56436 -0.04437 0.45944
 N441 N 0.59244 -0.06708 0.45036
 N442 N 0.54125 0.03230 0.43164
 N443 N 0.55115 0.05440 0.40371
 N444 N 0.56776 0.03167 0.45822
 N445 N 0.59647 0.05330 0.44885
 N446 N 0.53824 -0.04357 0.43247
 N447 N 0.54841 -0.06548 0.40412
 Mn448 Mn 0.56613 -0.00596 0.50009
 C449 C 0.58219 -0.08013 0.41589
 C450 C 0.58557 0.06738 0.41483
 N451 N 0.43213 0.03884 0.45874
 N452 N 0.40607 0.06373 0.45038
 N453 N 0.45447 -0.03948 0.43284
 N454 N 0.44413 -0.06247 0.40587
 N455 N 0.42761 -0.03701 0.45941
 N456 N 0.39845 -0.05825 0.45128
 N457 N 0.45836 0.03662 0.43162
 N458 N 0.45077 0.06007 0.40409
 Mn459 Mn 0.42946 0.00141 0.50023
 Mn460 Mn 0.49807 -0.00364 0.43183
 Cl461 Cl 0.49777 -0.00277 0.50005
 C462 C 0.41853 0.07741 0.41667
 C463 C 0.40923 -0.07413 0.41800
 N464 N 0.57078 0.53751 0.03457
 N465 N 0.60049 0.55815 0.04283
 N466 N 0.54127 0.46378 0.06525
 N467 N 0.55059 0.44250 0.09411
 N468 N 0.56748 0.46165 0.03801
 N469 N 0.59516 0.43883 0.04764
 N470 N 0.54463 0.53950 0.06186
 N471 N 0.55582 0.56148 0.08923
 C472 C 0.59042 0.57321 0.07677
 C473 C 0.58411 0.42694 0.08256
 N474 N 0.43094 0.46863 0.04168
 N475 N 0.40258 0.44695 0.05150
 N476 N 0.46208 0.54406 0.06395
 N477 N 0.45658 0.57054 0.08886
 N478 N 0.43497 0.54444 0.03810
 N479 N 0.41019 0.57101 0.04486
 N480 N 0.45810 0.46802 0.06752
 N481 N 0.44882 0.44594 0.09576
 Mn482 Mn 0.50149 0.50377 0.06494
 C483 C 0.41411 0.43298 0.08528
 C484 C 0.42445 0.58763 0.07615
 N485 N 0.56586 0.45810 -0.04437
 N486 N 0.59377 0.43533 -0.05404
 N487 N 0.54164 0.53359 -0.07395
 N488 N 0.55010 0.55576 -0.10228
 N489 N 0.56877 0.53401 -0.04803
 N490 N 0.59645 0.55646 -0.05810
 N491 N 0.53841 0.45769 -0.07002
 N492 N 0.54708 0.43458 -0.09772
 Mn493 Mn 0.56848 0.49786 -0.00498
 C494 C 0.58140 0.42049 -0.08702
 C495 C 0.58430 0.56988 -0.09196
 N496 N 0.43345 0.54096 -0.04397
 N497 N 0.40856 0.56714 -0.05154
 N498 N 0.45500 0.46198 -0.06758
 N499 N 0.44372 0.43833 -0.09347
 N500 N 0.42922 0.46492 -0.04008
 N501 N 0.40008 0.44312 -0.04629
 N502 N 0.45891 0.53769 -0.07170
 N503 N 0.45179 0.56126 -0.09915
 Mn504 Mn 0.43184 0.50480 -0.00108
 Mn505 Mn 0.49848 0.49763 -0.07113
 Cl506 Cl 0.50013 0.50094 -0.00306
 C507 C 0.42078 0.57984 -0.08575
 C508 C 0.40939 0.42673 -0.07970
 C509 C 1.10573 0.10622 0.13537
 C510 C 1.12824 0.12987 0.15636
 C511 C 1.15149 0.15544 0.13808
 C512 C 1.15080 0.15815 0.09766
 C513 C 1.12765 0.13409 0.07612
 C514 C 1.10567 0.10724 0.09531
 C515 C 1.12643 0.13873 0.03620
 N516 N 1.14758 0.16502 0.01924
 N517 N 1.16952 0.18727 0.03941
 C518 C 1.17170 0.18488 0.07798
 H519 H 1.08900 0.08619 0.15068
 H520 H 1.12822 0.12759 0.18723
 H521 H 1.10830 0.12248 0.01826
 H522 H 1.18927 0.20428 0.09287
 C523 C 1.13784 0.61019 0.59684
 C524 C 1.16077 0.63281 0.61873
 C525 C 1.15350 0.63751 0.65783
 C526 C 1.12318 0.61802 0.67548
 C527 C 1.09907 0.59569 0.65304
 C528 C 1.10694 0.59147 0.61331
 C529 C 1.06714 0.57956 0.67120
 N530 N 1.06158 0.58361 0.70937
 N531 N 1.08545 0.60294 0.73065
 C532 C 1.11603 0.62023 0.71507
 H533 H 1.14407 0.60755 0.56656
 H534 H 1.18379 0.64755 0.60481
 H535 H 1.04605 0.56430 0.65574
 H536 H 1.13451 0.63539 0.73383
 C537 C 0.62851 0.11980 0.59060
 C538 C 0.65032 0.14417 0.61161
 C539 C 0.65402 0.14029 0.65120
 C540 C 0.63655 0.11055 0.66986
 C541 C 0.61475 0.08541 0.64846
 C542 C 0.60984 0.09085 0.60857
 C543 C 0.59988 0.05496 0.66770
 N544 N 0.60543 0.05094 0.70577
 N545 N 0.62517 0.07499 0.72592
 C546 C 0.64102 0.10454 0.70929
 H547 H 0.62554 0.12404 0.56013
 H548 H 0.66401 0.16656 0.59697
 H549 H 0.58473 0.03379 0.65296
 H550 H 0.65737 0.12276 0.72697
 C551 C 0.63124 0.62708 0.08462
 C552 C 0.65310 0.65042 0.10684
 C553 C 0.66064 0.64235 0.14517
 C554 C 0.64762 0.60925 0.16093
 C555 C 0.62551 0.58544 0.13834
 C556 C 0.61633 0.59518 0.10025
 C557 C 0.61425 0.55213 0.15443
 N558 N 0.62397 0.54386 0.19086
 N559 N 0.64441 0.56642 0.21219
 C560 C 0.65668 0.59871 0.19848
 H561 H 0.62486 0.63453 0.05539
 H562 H 0.66336 0.67545 0.09435
 H563 H 0.59856 0.53221 0.13831
 H564 H 0.67385 0.61555 0.21689
 C565 C 0.87717 -0.12705 0.09447
 C566 C 0.85639 -0.15268 0.11508
 C567 C 0.84943 -0.14815 0.15427
 C568 C 0.86280 -0.11652 0.17289
 C569 C 0.88412 -0.09046 0.15193
 C570 C 0.89183 -0.09628 0.11249
 C571 C 0.89557 -0.05870 0.17096
 N572 N 0.88669 -0.05386 0.20842
 N573 N 0.86681 -0.07836 0.22808
 C574 C 0.85438 -0.10936 0.21161
 H575 H 0.88235 -0.13157 0.06425
 H576 H 0.84589 -0.17645 0.10038
 H577 H 0.91075 -0.03726 0.15645
 H578 H 0.83753 -0.12771 0.22885
 C579 C 0.88245 0.36248 0.59015
 C580 C 0.85831 0.34014 0.61121
 C581 C 0.83580 0.35365 0.64190
 C582 C 0.83477 0.39218 0.64753
 C583 C 0.85953 0.41505 0.62564
 C584 C 0.88490 0.39960 0.59789
 C585 C 0.85629 0.45288 0.63082
 N586 N 0.82994 0.46684 0.65559
 N587 N 0.80591 0.44573 0.67497
 C588 C 0.80689 0.40918 0.67128
 H589 H 0.90082 0.35003 0.56859
 H590 H 0.86031 0.31136 0.60525
 H591 H 0.87302 0.47184 0.61439
 H592 H 0.78470 0.39406 0.68579
 C593 C 0.40130 -0.12639 0.62484
 C594 C 0.37978 -0.15124 0.64575
 C595 C 0.33975 -0.14771 0.64850
 C596 C 0.32098 -0.11820 0.63055
 C597 C 0.34288 -0.09243 0.60977
 C598 C 0.38345 -0.09721 0.60622
 C599 C 0.32332 -0.06206 0.59472
 N600 N 0.28461 -0.05883 0.59892
 N601 N 0.26406 -0.08356 0.61754
 C602 C 0.28090 -0.11302 0.63363
 H603 H 0.43221 -0.13024 0.62285
 H604 H 0.39444 -0.17348 0.65986
 H605 H 0.33817 -0.04030 0.58052
 H606 H 0.26284 -0.13189 0.64898
 C607 C 0.40965 0.37854 0.12586
 C608 C 0.38907 0.35283 0.14656
 C609 C 0.34909 0.35587 0.15069
 C610 C 0.32953 0.38612 0.13491
 C611 C 0.35048 0.41255 0.11416
 C612 C 0.39083 0.40800 0.10876
 C613 C 0.33032 0.44329 0.10083
 N614 N 0.29185 0.44647 0.10690
 N615 N 0.27215 0.42129 0.12577
 C616 C 0.28965 0.39136 0.14012
 H617 H 0.44048 0.37493 0.12245
 H618 H 0.40437 0.33005 0.15898
 H619 H 0.34462 0.46534 0.08652
 H620 H 0.27227 0.37225 0.15590
 C621 C 0.85730 0.11272 -0.09797
 C622 C 0.83623 0.13554 -0.12178
 C623 C 0.85464 0.15761 -0.14877
 C624 C 0.89545 0.15747 -0.15081
 C625 C 0.91702 0.13497 -0.12572
 C626 C 0.89757 0.11118 -0.10023
 C627 C 0.95745 0.13744 -0.12691
 N628 N 0.97484 0.15908 -0.15302
 N629 N 0.95463 0.17860 -0.17789
 C630 C 0.91562 0.17846 -0.17778
 H631 H 0.84180 0.09503 -0.07865
 H632 H 0.80510 0.13545 -0.11965
 H633 H 0.97550 0.12307 -0.10694
 H634 H 0.90091 0.19466 -0.19889
 C635 C 0.87426 0.59417 0.37530
 C636 C 0.85014 0.61599 0.35335
 C637 C 0.85725 0.65309 0.34916
 C638 C 0.88996 0.66838 0.36674
 C639 C 0.91471 0.64614 0.38900
 C640 C 0.90618 0.60878 0.39383
 C641 C 0.94807 0.66195 0.40416
 N642 N 0.95533 0.69757 0.39821
 N643 N 0.93186 0.71843 0.37773
 C644 C 0.89962 0.70506 0.36163
 H645 H 0.86768 0.56563 0.37818
 H646 H 0.82553 0.60386 0.33966
 H647 H 0.96904 0.64645 0.41992
 H648 H 0.88225 0.72315 0.34453
 C649 C 0.39213 0.09651 0.35459
 C650 C 0.36812 0.11765 0.33187
 C651 C 0.34730 0.14748 0.34704
 C652 C 0.34935 0.15376 0.38740
 C653 C 0.37498 0.13282 0.41014
 C654 C 0.39597 0.10358 0.39360
 C655 C 0.37833 0.14164 0.44909
 N656 N 0.35458 0.16681 0.46504
 N657 N 0.32778 0.18380 0.44472
 C658 C 0.32398 0.17780 0.40676
 H659 H 0.40753 0.07398 0.34149
 H660 H 0.36790 0.11159 0.30158
 H661 H 0.39955 0.12886 0.46707
 H662 H 0.30039 0.19117 0.39245
 C663 C 0.38310 0.59550 -0.14256
 C664 C 0.35965 0.61882 -0.16342
 C665 C 0.35224 0.65420 -0.15064
 C666 C 0.36911 0.66648 -0.11630
 C667 C 0.39291 0.64265 -0.09503
 C668 C 0.39933 0.60681 -0.10815
 C669 C 0.41004 0.65577 -0.06157
 N670 N 0.40306 0.69032 -0.04998
 N671 N 0.37998 0.71247 -0.06947
 C672 C 0.36265 0.70172 -0.10211
 H673 H 0.38781 0.56809 -0.15286
 H674 H 0.34708 0.60919 -0.18974
 H675 H 0.42917 0.63902 -0.04475
 H676 H 0.34405 0.72080 -0.11661
 C677 C 1.13427 -0.10882 -0.10578
 C678 C 1.15581 -0.13187 -0.12922
 C679 C 1.13797 -0.15865 -0.15097
 C680 C 1.09749 -0.16264 -0.14858
 C681 C 1.07545 -0.13932 -0.12439
 C682 C 1.09410 -0.11154 -0.10355
 C683 C 1.03554 -0.14517 -0.12151
 N684 N 1.01891 -0.17147 -0.14268
 N685 N 1.03943 -0.19245 -0.16636
 C686 C 1.07809 -0.18893 -0.17007
 H687 H 1.14915 -0.08788 -0.09013
 H688 H 1.18676 -0.12862 -0.13063
 H689 H 1.01739 -0.12967 -0.10225
 H690 H 1.09322 -0.20668 -0.18979
 C691 C 1.10268 0.35685 0.38790
 C692 C 1.12606 0.33450 0.36541
 C693 C 1.15783 0.34846 0.34563
 C694 C 1.16697 0.38570 0.34985
 C695 C 1.14293 0.40861 0.37262
 C696 C 1.11005 0.39402 0.39119
 C697 C 1.15357 0.44511 0.37707
 N698 N 1.18573 0.45769 0.35955
 N699 N 1.20822 0.43623 0.33824
 C700 C 1.20011 0.40070 0.33298
 H701 H 1.07789 0.34510 0.40204
 H702 H 1.11881 0.30609 0.36281
 H703 H 1.13728 0.46367 0.39490
 H704 H 1.22004 0.38448 0.31622
 C705 C 0.58976 -0.13202 0.37159
 C706 C 0.61187 -0.15645 0.35012
 C707 C 0.65204 -0.15375 0.34872
 C708 C 0.67035 -0.12605 0.36982
 C709 C 0.64784 -0.10026 0.39040
 C710 C 0.60713 -0.10404 0.39215
 C711 C 0.66708 -0.07100 0.40754
 N712 N 0.70604 -0.06958 0.40666
 N713 N 0.72719 -0.09514 0.38948
 C714 C 0.71073 -0.12331 0.37112
 H715 H 0.55879 -0.13518 0.37240
 H716 H 0.59747 -0.17740 0.33404
 H717 H 0.65185 -0.04871 0.42090
 H718 H 0.72943 -0.14333 0.35788
 C719 C 0.59073 0.36306 -0.12240
 C720 C 0.61271 0.33915 -0.14467
 C721 C 0.64971 0.34855 -0.15711
 C722 C 0.66491 0.38271 -0.14701
 C723 C 0.64257 0.40708 -0.12444
 C724 C 0.60539 0.39676 -0.11160
 C725 C 0.65800 0.44141 -0.11635
 N726 N 0.69378 0.44996 -0.12899
 N727 N 0.71511 0.42668 -0.14933
 C728 C 0.70194 0.39339 -0.15877
 H729 H 0.56226 0.35499 -0.11306
 H730 H 0.60075 0.31314 -0.15240
 H731 H 0.64193 0.46175 -0.10058
 H732 H 0.72051 0.37564 -0.17542
 C733 C 1.12017 0.12546 -0.09467
 C734 C 1.14120 0.15059 -0.11576
 C735 C 1.14532 0.14732 -0.15566
 C736 C 1.12501 0.11911 -0.17459
 C737 C 1.10480 0.09275 -0.15289
 C738 C 1.10201 0.09638 -0.11256
 C739 C 1.08849 0.06333 -0.17255
 N740 N 1.08894 0.06253 -0.21126
 N741 N 1.10472 0.08900 -0.23169
 C742 C 1.12238 0.11733 -0.21477
 H743 H 1.11822 0.12871 -0.06393
 H744 H 1.15605 0.17162 -0.10025
 H745 H 1.07571 0.04070 -0.15784
 H746 H 1.13354 0.13848 -0.23297
 C747 C 1.11473 0.59623 0.35797
 C748 C 1.13709 0.61983 0.33631
 C749 C 1.16438 0.64204 0.35365
 C750 C 1.17072 0.63888 0.39348
 C751 C 1.14812 0.61461 0.41560
 C752 C 1.11890 0.59404 0.39771
 C753 C 1.15642 0.61112 0.45476
 N754 N 1.18469 0.63118 0.47056
 N755 N 1.20552 0.65420 0.44988
 C756 C 1.19966 0.65861 0.41191
 H757 H 1.09286 0.58062 0.34363
 H758 H 1.13224 0.62157 0.30581
 H759 H 1.14156 0.59206 0.47287
 H760 H 1.21809 0.67708 0.39647
 C761 C 0.62727 0.12113 0.40972
 C762 C 0.64826 0.14652 0.38889
 C763 C 0.65210 0.14346 0.34917
 C764 C 0.63581 0.11340 0.33018
 C765 C 0.61477 0.08730 0.35138
 C766 C 0.60955 0.09195 0.39143
 C767 C 0.60093 0.05675 0.33175
 N768 N 0.60679 0.05342 0.29355
 N769 N 0.62591 0.07827 0.27363
 C770 C 0.64075 0.10801 0.29061
 H771 H 0.62406 0.12480 0.44031
 H772 H 0.66105 0.16912 0.40379
 H773 H 0.58637 0.03497 0.34628
 H774 H 0.65671 0.12684 0.27307
 C775 C 0.62142 0.62618 -0.09876
 C776 C 0.64225 0.65136 -0.11994
 C777 C 0.64996 0.64591 -0.15908
 C778 C 0.63360 0.61512 -0.17744
 C779 C 0.61337 0.58898 -0.15550
 C780 C 0.60693 0.59495 -0.11593
 C781 C 0.60060 0.55742 -0.17406
 N782 N 0.60462 0.55402 -0.21244
 N783 N 0.62058 0.57995 -0.23351
 C784 C 0.63480 0.61043 -0.21746
 H785 H 0.61660 0.63113 -0.06856
 H786 H 0.65410 0.67435 -0.10492
 H787 H 0.58767 0.53526 -0.15862
 H788 H 0.64618 0.63094 -0.23632
 C789 C 0.90042 -0.12629 -0.11949
 C790 C 0.87954 -0.15124 -0.14066
 C791 C 0.83927 -0.15019 -0.14070
 C792 C 0.81963 -0.12403 -0.11791
 C793 C 0.84080 -0.09768 -0.09737
 C794 C 0.88181 -0.09927 -0.09776
 C795 C 0.81981 -0.07007 -0.07835
 N796 N 0.78080 -0.07066 -0.07765
 N797 N 0.76116 -0.09665 -0.09498
 C798 C 0.77920 -0.12332 -0.11503
 H799 H 0.93157 -0.12801 -0.12032
 H800 H 0.89501 -0.17102 -0.15794
 H801 H 0.83350 -0.04751 -0.06468
 H802 H 0.76172 -0.14380 -0.12837
 C803 C 0.89030 0.36725 0.39272
 C804 C 0.86575 0.34567 0.37163
 C805 C 0.83846 0.36115 0.34733
 C806 C 0.83524 0.39947 0.34505
 C807 C 0.86026 0.42167 0.36679
 C808 C 0.88856 0.40520 0.39037
 C809 C 0.85495 0.45951 0.36506
 N810 N 0.82717 0.47390 0.34255
 N811 N 0.80403 0.45311 0.32198
 C812 C 0.80696 0.41644 0.32261
 H813 H 0.91147 0.35394 0.41057
 H814 H 0.86853 0.31645 0.37382
 H815 H 0.87186 0.47790 0.38186
 H816 H 0.78678 0.40098 0.30599
 C817 C 0.39847 -0.13226 0.38497
 C818 C 0.37557 -0.15693 0.36557
 C819 C 0.33730 -0.14830 0.35526
 C820 C 0.32149 -0.11450 0.36862
 C821 C 0.34542 -0.08904 0.38734
 C822 C 0.38408 -0.09831 0.39579
 C823 C 0.32962 -0.05495 0.39719
 N824 N 0.29158 -0.04832 0.39241
 N825 N 0.26827 -0.07344 0.37854
 C826 C 0.28172 -0.10632 0.36709
 H827 H 0.42789 -0.13981 0.39158
 H828 H 0.38929 -0.18193 0.35627
 H829 H 0.34699 -0.03347 0.40871
 H830 H 0.26094 -0.12601 0.35782
 C831 C 0.40170 0.37208 -0.11949
 C832 C 0.37985 0.34682 -0.13918
 C833 C 0.33969 0.34975 -0.13999
 C834 C 0.32107 0.37825 -0.11967
 C835 C 0.34329 0.40479 -0.10070
 C836 C 0.38412 0.40117 -0.10011
 C837 C 0.32358 0.43460 -0.08421
 N838 N 0.28458 0.43601 -0.08435
 N839 N 0.26380 0.40995 -0.10019
 C840 C 0.28067 0.38116 -0.11782
 H841 H 0.43274 0.36891 -0.11950
 H842 H 0.39449 0.32526 -0.15472
 H843 H 0.33837 0.45730 -0.07196
 H844 H 0.26232 0.36077 -0.13009
 C845 C 1.08946 -0.12897 0.12467
 C846 C 1.11083 -0.15310 0.14685
 C847 C 1.15005 -0.14737 0.15335
 C848 C 1.16774 -0.11587 0.13827
 C849 C 1.14603 -0.09136 0.11556
 C850 C 1.10671 -0.09854 0.10811
 C851 C 1.16423 -0.05970 0.10236
 N852 N 1.20159 -0.05353 0.11089
 N853 N 1.22194 -0.07658 0.13206
 C854 C 1.20629 -0.10736 0.14620
 H855 H 1.05931 -0.13447 0.11980
 H856 H 1.09679 -0.17678 0.15860
 H857 H 1.14911 -0.03933 0.08607
 H858 H 1.22402 -0.12447 0.16403
 C859 C 1.12920 0.39663 0.62290
 C860 C 1.15337 0.37475 0.64469
 C861 C 1.14845 0.33714 0.64584
 C862 C 1.11895 0.32117 0.62391
 C863 C 1.09350 0.34350 0.60258
 C864 C 1.09930 0.38165 0.60156
 C865 C 1.06246 0.32667 0.58412
 N866 N 1.05905 0.29008 0.58484
 N867 N 1.08424 0.26910 0.60305
 C868 C 1.11405 0.28334 0.62256
 H869 H 1.13396 0.42563 0.62267
 H870 H 1.17572 0.38737 0.66138
 H871 H 1.04031 0.34191 0.56976
 H872 H 1.13367 0.26492 0.63666
 C873 C 0.62105 -0.13387 0.59232
 C874 C 0.64347 -0.15801 0.61338
 C875 C 0.64866 -0.15289 0.65261
 C876 C 0.63171 -0.12233 0.67088
 C877 C 0.60923 -0.09744 0.64941
 C878 C 0.60319 -0.10389 0.60985
 C879 C 0.59503 -0.06618 0.66816
 N880 N 0.60184 -0.06113 0.70588
 N881 N 0.62224 -0.08489 0.72611
 C882 C 0.63753 -0.11520 0.70992
 H883 H 0.61728 -0.13886 0.56207
 H884 H 0.65671 -0.18104 0.59902
 H885 H 0.57937 -0.04520 0.65333
 H886 H 0.65447 -0.13313 0.72764
 C887 C 0.58907 0.37441 0.12576
 C888 C 0.60975 0.35016 0.14833
 C889 C 0.64952 0.35379 0.15267
 C890 C 0.66874 0.38310 0.13496
 C891 C 0.64769 0.40804 0.11225
 C892 C 0.60760 0.40293 0.10691
 C893 C 0.66741 0.43803 0.09698
 N894 N 0.70563 0.44186 0.10316
 N895 N 0.72546 0.41806 0.12389
 C896 C 0.70835 0.38894 0.14013
 H897 H 0.55840 0.37051 0.12246
 H898 H 0.59469 0.32811 0.16218
 H899 H 0.65292 0.45899 0.08097
 H900 H 0.72579 0.37097 0.15732
 C901 C 0.87395 0.13172 0.09756
 C902 C 0.85197 0.15555 0.11984
 C903 C 0.84844 0.15047 0.15933
 C904 C 0.86671 0.12033 0.17668
 C905 C 0.88866 0.09566 0.15399
 C906 C 0.89299 0.10207 0.11410
 C907 C 0.90407 0.06466 0.17199
 N908 N 0.89900 0.05975 0.21009
 N909 N 0.87921 0.08339 0.23144
 C910 C 0.86279 0.11340 0.21605
 H911 H 0.87645 0.13669 0.06713
 H912 H 0.83767 0.17827 0.10620
 H913 H 0.91930 0.04376 0.15633
 H914 H 0.84647 0.13131 0.23468
 C915 C 0.88014 0.62575 0.59394
 C916 C 0.85642 0.64893 0.61513
 C917 C 0.85779 0.64932 0.65509
 C918 C 0.88342 0.62535 0.67410
 C919 C 0.90874 0.60266 0.65250
 C920 C 0.90623 0.60226 0.61192
 C921 C 0.93632 0.58206 0.67257
 N922 N 0.93630 0.58210 0.71130
 N923 N 0.91090 0.60156 0.73146
 C924 C 0.88445 0.62308 0.71424
 H925 H 0.87795 0.62609 0.56307
 H926 H 0.83701 0.66703 0.60014
 H927 H 0.95849 0.56647 0.65826
 H928 H 0.86442 0.63802 0.73217
 C929 C 0.39086 0.09958 0.64307
 C930 C 0.36935 0.12351 0.66559
 C931 C 0.35627 0.15653 0.65068
 C932 C 0.36637 0.16631 0.61282
 C933 C 0.38844 0.14198 0.58993
 C934 C 0.39980 0.10796 0.60500
 C935 C 0.39953 0.15316 0.55312
 N936 N 0.38877 0.18635 0.54018
 N937 N 0.36755 0.20898 0.56145
 C938 C 0.35592 0.20009 0.59729
 H939 H 0.39973 0.07383 0.65518
 H940 H 0.36208 0.11587 0.69465
 H941 H 0.41727 0.13617 0.53484
 H942 H 0.33920 0.21971 0.61350
 C943 C 0.40719 0.61712 0.13736
 C944 C 0.38524 0.64089 0.15963
 C945 C 0.35963 0.66543 0.14272
 C946 C 0.35793 0.66762 0.10234
 C947 C 0.38049 0.64354 0.07951
 C948 C 0.40425 0.61707 0.09740
 C949 C 0.37901 0.64753 0.03954
 N950 N 0.35583 0.67313 0.02382
 N951 N 0.33442 0.69542 0.04526
 C952 C 0.33485 0.69371 0.08392
 H953 H 0.42538 0.59749 0.15170
 H954 H 0.38711 0.63911 0.19047
 H955 H 0.39668 0.63138 0.02051
 H956 H 0.31761 0.71313 0.09983
   
