data_POSCAR
  _audit_creation_date              2014-09-24
  _audit_creation_method            'ToBaCCo'
  _symmetry_space_group_name_H-M    'P1'
  _symmetry_Int_Tables_number       1
  _symmetry_cell_setting            triclinic
  loop_
  _symmetry_equiv_pos_as_xyz
 x,y,z
_cell_length_a 46.2664
_cell_length_b 46.1378
_cell_length_c 46.6142
_cell_angle_alpha 89.975200
_cell_angle_beta 89.933900
_cell_angle_gamma 89.952800
loop_
  _atom_site_label
  _atom_site_type_symbol
  _atom_site_fract_x
  _atom_site_fract_y
  _atom_site_fract_z
N1 N 0.30095 0.37871 1.36352
 N2 N 0.30257 0.35769 1.38255
 C3 C 0.28048 0.36030 1.40127
 C4 C 0.26443 0.38419 1.39338
 C5 C 0.27783 0.39542 1.36943
 H6 H 0.27620 0.34586 1.41906
 H7 H 0.27112 0.41412 1.35711
 Cu8 Cu 0.33310 0.32874 1.38053
 Cu9 Cu 0.32856 0.38257 1.33217
 Cu10 Cu 0.38349 0.33144 1.32863
 N11 N 0.36419 0.30038 1.37858
 N12 N 0.38385 0.30156 1.35818
 C13 C 0.40248 0.27935 1.36142
 C14 C 0.39392 0.26362 1.38508
 C15 C 0.36964 0.27735 1.39553
 H16 H 0.42064 0.27483 1.34748
 H17 H 0.35682 0.27086 1.41386
 N18 N 0.37944 0.36332 1.30074
 N19 N 0.35853 0.38280 1.30209
 C20 C 0.36137 0.40137 1.27995
 C21 C 0.38512 0.39309 1.26412
 C22 C 0.39613 0.36900 1.27770
 H23 H 0.34715 0.41942 1.27546
 H24 H 0.41473 0.35645 1.27110
 H25 H 0.33948 0.33922 1.32962
 H26 H 0.36257 0.36252 1.35293
 N27 N 1.19727 0.62087 0.86362
 N28 N 1.19492 0.64113 0.88334
 C29 C 1.21702 0.63853 0.90199
 C30 C 1.23385 0.61545 0.89338
 C31 C 1.22086 0.60468 0.86905
 H32 H 1.22079 0.65246 0.92025
 H33 H 1.22818 0.58663 0.85615
 Cu34 Cu 1.16363 0.66932 0.88245
 Cu35 Cu 1.16994 0.61731 0.83214
 Cu36 Cu 1.11486 0.66812 0.82884
 N37 N 1.13308 0.69820 0.87963
 N38 N 1.11409 0.69764 0.85864
 C39 C 1.09589 0.72027 0.86146
 C40 C 1.10404 0.73563 0.88546
 C41 C 1.12765 0.72126 0.89653
 H42 H 1.07836 0.72538 0.84697
 H43 H 1.14010 0.72739 0.91519
 N44 N 1.11923 0.63660 0.80067
 N45 N 1.14023 0.61723 0.80192
 C46 C 1.13760 0.59884 0.77962
 C47 C 1.11389 0.60713 0.76380
 C48 C 1.10268 0.63104 0.77755
 H49 H 1.15193 0.58089 0.77506
 H50 H 1.08402 0.64352 0.77102
 H51 H 1.15893 0.66079 0.83105
 H52 H 1.13523 0.63640 0.85276
 N53 N 0.69900 -0.11930 0.13661
 N54 N 0.69728 -0.14028 0.11757
 C55 C 0.71935 -0.13774 0.09884
 C56 C 0.73553 -0.11397 0.10669
 C57 C 0.72218 -0.10272 0.13066
 H58 H 0.72355 -0.15215 0.08103
 H59 H 0.72899 -0.08408 0.14298
 Cu60 Cu 0.66665 -0.16907 0.11959
 Cu61 Cu 0.67144 -0.11532 0.16800
 Cu62 Cu 0.61629 -0.16612 0.17147
 N63 N 0.63544 -0.19723 0.12153
 N64 N 0.61578 -0.19594 0.14192
 C65 C 0.59708 -0.21806 0.13872
 C66 C 0.60559 -0.23385 0.11510
 C67 C 0.62992 -0.22026 0.10462
 H68 H 0.57894 -0.22252 0.15270
 H69 H 0.64275 -0.22686 0.08634
 N70 N 0.62047 -0.13433 0.19938
 N71 N 0.64148 -0.11499 0.19809
 C72 C 0.63871 -0.09647 0.22029
 C73 C 0.61490 -0.10464 0.23607
 C74 C 0.60379 -0.12862 0.22242
 H75 H 0.65304 -0.07855 0.22484
 H76 H 0.58513 -0.14106 0.22898
 H77 H 0.66034 -0.15860 0.17049
 H78 H 0.63737 -0.13510 0.14719
 N79 N -0.19933 1.11941 -0.36347
 N80 N -0.19778 1.14053 -0.38239
 C81 C -0.21990 1.13800 -0.40102
 C82 C -0.23592 1.11408 -0.39323
 C83 C -0.22244 1.10274 -0.36940
 H84 H -0.22424 1.15253 -0.41871
 H85 H -0.22911 1.08399 -0.35715
 Cu86 Cu -0.16734 1.16952 -0.38034
 Cu87 Cu -0.17169 1.11542 -0.33223
 Cu88 Cu -0.11683 1.16651 -0.32869
 N89 N -0.13626 1.19781 -0.37839
 N90 N -0.11654 1.19649 -0.35810
 C91 C -0.09792 1.21868 -0.36132
 C92 C -0.10654 1.23454 -0.38486
 C93 C -0.13085 1.22092 -0.39526
 H94 H -0.07971 1.22309 -0.34746
 H95 H -0.14369 1.22751 -0.41351
 N96 N -0.12079 1.13453 -0.30092
 N97 N -0.14168 1.11507 -0.30224
 C98 C -0.13885 1.09650 -0.28009
 C99 C -0.11511 1.10477 -0.26430
 C100 C -0.10412 1.12885 -0.27791
 H101 H -0.15311 1.07852 -0.27554
 H102 H -0.08559 1.14143 -0.27128
 H103 H -0.16081 1.15877 -0.32952
 H104 H -0.13776 1.13557 -0.35308
 N105 N 0.69874 0.61798 0.63657
 N106 N 0.69650 0.63817 0.61675
 C107 C 0.71856 0.63536 0.59804
 C108 C 0.73526 0.61222 0.60670
 C109 C 0.72224 0.60163 0.63114
 H110 H 0.72241 0.64921 0.57971
 H111 H 0.72950 0.58362 0.64413
 Cu112 Cu 0.66543 0.66660 0.61761
 Cu113 Cu 0.67145 0.61479 0.66821
 Cu114 Cu 0.61676 0.66605 0.67140
 N115 N 0.63509 0.69570 0.62037
 N116 N 0.61614 0.69540 0.64143
 C117 C 0.59802 0.71807 0.63843
 C118 C 0.60617 0.73321 0.61426
 C119 C 0.62969 0.71863 0.60326
 H120 H 0.58047 0.72331 0.65287
 H121 H 0.64205 0.72450 0.58443
 N122 N 0.62093 0.63467 0.69976
 N123 N 0.64178 0.61512 0.69856
 C124 C 0.63903 0.59688 0.72100
 C125 C 0.61540 0.60547 0.73685
 C126 C 0.60438 0.62939 0.72298
 H127 H 0.65322 0.57885 0.72564
 H128 H 0.58583 0.64206 0.72948
 H129 H 0.63686 0.63402 0.64762
 H130 H 0.66078 0.65833 0.66908
 N131 N 0.80161 0.38257 0.13664
 N132 N 0.80382 0.36249 0.11672
 C133 C 0.78166 0.36532 0.09818
 C134 C 0.76492 0.38836 0.10705
 C135 C 0.77803 0.39887 0.13145
 H136 H 0.77777 0.35156 0.07981
 H137 H 0.77078 0.41680 0.14455
 Cu138 Cu 0.83500 0.33417 0.11722
 Cu139 Cu 0.82907 0.38573 0.16807
 Cu140 Cu 0.88396 0.33467 0.17062
 N141 N 0.86545 0.30515 0.11965
 N142 N 0.88451 0.30545 0.14056
 C143 C 0.90261 0.28279 0.13745
 C144 C 0.89435 0.26765 0.11336
 C145 C 0.87076 0.28223 0.10252
 H146 H 0.92019 0.27750 0.15181
 H147 H 0.85826 0.27632 0.08383
 N148 N 0.87985 0.36590 0.19911
 N149 N 0.85892 0.38537 0.19818
 C150 C 0.86174 0.40349 0.22069
 C151 C 0.88551 0.39489 0.23629
 C152 C 0.89653 0.37111 0.22221
 H153 H 0.84752 0.42145 0.22553
 H154 H 0.91517 0.35847 0.22850
 H155 H 0.86359 0.36675 0.14711
 H156 H 0.83990 0.34224 0.16868
 N157 N 0.30293 0.12033 0.86413
 N158 N 0.30503 0.14067 0.88379
 C159 C 0.28285 0.13801 0.90239
 C160 C 0.26624 0.11480 0.89382
 C161 C 0.27943 0.10403 0.86955
 H162 H 0.27886 0.15202 0.92056
 H163 H 0.27227 0.08593 0.85666
 Cu164 Cu 0.33609 0.16908 0.88282
 Cu165 Cu 0.33033 0.11691 0.83263
 Cu166 Cu 0.38494 0.16815 0.82917
 N167 N 0.36642 0.19815 0.87995
 N168 N 0.38543 0.19769 0.85894
 C169 C 0.40352 0.22036 0.86182
 C170 C 0.39530 0.23568 0.88585
 C171 C 0.37175 0.22118 0.89689
 H172 H 0.42111 0.22551 0.84739
 H173 H 0.35933 0.22718 0.91564
 N174 N 0.38087 0.13656 0.80103
 N175 N 0.36007 0.11701 0.80237
 C176 C 0.36285 0.09862 0.78007
 C177 C 0.38645 0.10710 0.76415
 C178 C 0.39743 0.13113 0.77784
 H179 H 0.34868 0.08056 0.77557
 H180 H 0.41594 0.14377 0.77122
 H181 H 0.36484 0.13632 0.85316
 H182 H 0.34094 0.16046 0.83142
 N183 N 0.19871 0.87881 0.36221
 N184 N 0.19732 0.85760 0.38104
 C185 C 0.21940 0.86026 0.39971
 C186 C 0.23522 0.88434 0.39202
 C187 C 0.22166 0.89565 0.36822
 H188 H 0.22383 0.84572 0.41737
 H189 H 0.22818 0.91452 0.35605
 Cu190 Cu 0.16710 0.82839 0.37890
 Cu191 Cu 0.17103 0.88273 0.33100
 Cu192 Cu 0.11648 0.83133 0.32731
 N193 N 0.13612 0.79997 0.37689
 N194 N 0.11638 0.80125 0.35663
 C195 C 0.09783 0.77900 0.35989
 C196 C 0.10649 0.76312 0.38340
 C197 C 0.13078 0.77685 0.39375
 H198 H 0.07958 0.77456 0.34609
 H199 H 0.14362 0.77031 0.41201
 N200 N 0.12024 0.86343 0.29964
 N201 N 0.14102 0.88300 0.30103
 C202 C 0.13805 0.90167 0.27898
 C203 C 0.11434 0.89335 0.26318
 C204 C 0.10351 0.86913 0.27667
 H205 H 0.15221 0.91976 0.27450
 H206 H 0.08504 0.85648 0.27001
 H207 H 0.13726 0.86228 0.35182
 H208 H 0.16043 0.83933 0.32814
 Zn209 Zn 0.00485 1.03640 -0.01727
 Zn210 Zn -0.02252 0.97782 -0.02280
 Zn211 Zn 0.03584 0.98395 0.00432
 Zn212 Zn -0.01660 1.00565 0.03497
 O213 O 0.00037 1.00093 -0.00022
 O214 O -0.01385 1.03900 -0.05073
 O215 O -0.00440 0.94542 -0.03434
 O216 O 0.06484 1.00592 -0.00894
 O217 O -0.03426 0.99575 -0.05493
 O218 O 0.04184 1.04481 -0.02503
 O219 O 0.03875 0.95016 -0.01424
 O220 O 0.00527 0.99235 0.06382
 O221 O -0.05479 0.96613 -0.00477
 O222 O 0.04414 0.97616 0.04105
 O223 O -0.05026 0.98686 0.03788
 O224 O -0.02448 1.04279 0.04307
 O225 O -0.00861 1.06559 0.00428
 C226 C -0.02937 1.02107 -0.06435
 C227 C 0.02096 0.93618 -0.02956
 C228 C 0.06493 1.03065 -0.02078
 C229 C 0.02995 0.98041 0.06394
 C230 C -0.06410 0.97118 0.02033
 C231 C -0.02042 1.06583 0.02882
 Zn232 Zn 0.49495 -0.03604 0.48312
 Zn233 Zn 0.51632 -0.00533 0.53530
 Zn234 Zn 0.52216 0.02261 0.47754
 Zn235 Zn 0.46380 0.01627 0.50481
 O236 O 0.49933 -0.00060 0.50017
 O237 O 0.50844 -0.06524 0.50464
 O238 O 0.54996 0.01348 0.53812
 O239 O 0.53393 0.00477 0.44535
 O240 O 0.52424 -0.04246 0.54342
 O241 O 0.51369 -0.03856 0.44964
 O242 O 0.55443 0.03432 0.49548
 O243 O 0.46082 0.05012 0.48631
 O244 O 0.49446 0.00794 0.56420
 O245 O 0.50395 0.05501 0.46611
 O246 O 0.45550 0.02401 0.54158
 O247 O 0.43486 -0.00574 0.49155
 O248 O 0.45800 -0.04451 0.47536
 C249 C 0.52023 -0.06550 0.52917
 C250 C 0.56377 0.02922 0.52055
 C251 C 0.52912 -0.02056 0.43596
 C252 C 0.47858 0.06418 0.47098
 C253 C 0.46976 0.01983 0.56441
 C254 C 0.43487 -0.03043 0.47964
 Zn255 Zn 1.03642 0.51512 0.50510
 Zn256 Zn 0.98400 0.49362 0.53585
 Zn257 Zn 0.97804 0.52107 0.47789
 Zn258 Zn 1.00553 0.46253 0.48388
 O259 O 1.00097 0.49811 0.50065
 O260 O 1.04470 0.52314 0.54179
 O261 O 0.95028 0.51236 0.53860
 O262 O 0.99609 0.55345 0.46622
 O263 O 1.00581 0.50714 0.56461
 O264 O 1.03924 0.54883 0.48636
 O265 O 0.94567 0.53279 0.49579
 O266 O 0.98690 0.45973 0.45041
 O267 O 0.97620 0.45655 0.54423
 O268 O 0.96645 0.50296 0.44582
 O269 O 0.99209 0.43346 0.50562
 O270 O 1.04254 0.45408 0.47618
 O271 O 1.06547 0.49310 0.49195
 C272 C 1.03047 0.51907 0.56469
 C273 C 0.93637 0.52787 0.52092
 C274 C 1.02143 0.56273 0.47097
 C275 C 0.97142 0.47759 0.43660
 C276 C 0.98027 0.43341 0.53017
 C277 C 1.06559 0.46830 0.48027
 Zn278 Zn 0.49464 0.53765 0.98419
 Zn279 Zn 0.46367 0.48511 1.00557
 Zn280 Zn 0.52216 0.47909 0.97853
 Zn281 Zn 0.51593 0.50673 1.03636
 O282 O 0.49912 0.50213 1.00113
 O283 O 0.45767 0.54603 0.97632
 O284 O 0.46096 0.45131 0.98701
 O285 O 0.53391 0.49711 0.94642
 O286 O 0.43468 0.50706 0.99222
 O287 O 0.51349 0.54038 0.95076
 O288 O 0.50420 0.44664 0.96699
 O289 O 0.54967 0.48805 1.03926
 O290 O 0.45520 0.47724 1.04228
 O291 O 0.55447 0.46748 0.99654
 O292 O 0.49400 0.49328 1.06512
 O293 O 0.52362 0.54383 1.04463
 O294 O 0.50791 0.56681 1.00589
 C295 C 0.43460 0.53181 0.98042
 C296 C 0.47885 0.43734 0.97175
 C297 C 0.52904 0.52246 0.93708
 C298 C 0.56367 0.47249 1.02167
 C299 C 0.46933 0.48137 1.06519
 C300 C 0.51957 0.56694 1.03048
 C301 C 1.19173 0.41383 0.42947
 N302 N 1.19062 0.44104 0.44043
 N303 N 1.16604 0.45136 0.45133
 C304 C 1.14184 0.43480 0.45160
 N305 N 1.14296 0.40758 0.44068
 N306 N 1.16754 0.39725 0.42978
 C307 C 1.21795 0.40305 0.41691
 C308 C 1.23985 0.39413 0.40601
 C309 C 1.11511 0.44632 0.46234
 C310 C 1.09256 0.45622 0.47083
 C311 C 0.30833 0.58576 0.92966
 N312 N 0.30924 0.55913 0.94196
 N313 N 0.33389 0.54893 0.95277
 C314 C 0.35836 0.56505 0.95162
 N315 N 0.35744 0.59170 0.93935
 N316 N 0.33279 0.60190 0.92854
 C317 C 0.28200 0.59639 0.91727
 C318 C 0.25997 0.60516 0.90653
 C319 C 0.38511 0.55365 0.96236
 C320 C 0.40766 0.54382 0.97089
 C321 C -0.19033 0.91603 0.06992
 N322 N -0.18963 0.94260 0.05747
 N323 N -0.16503 0.95297 0.04670
 C324 C -0.14039 0.93708 0.04803
 N325 N -0.14110 0.91049 0.06042
 N326 N -0.16571 0.90012 0.07120
 C327 C -0.21658 0.90530 0.08242
 C328 C -0.23850 0.89644 0.09331
 C329 C -0.11365 0.94876 0.03754
 C330 C -0.09108 0.95884 0.02933
 C331 C 0.68993 0.08417 0.57015
 N332 N 0.68937 0.05793 0.55706
 N333 N 0.66478 0.04762 0.54626
 C334 C 0.64002 0.06327 0.54819
 N335 N 0.64060 0.08953 0.56123
 N336 N 0.66518 0.09983 0.57204
 C337 C 0.71618 0.09484 0.58264
 C338 C 0.73810 0.10367 0.59348
 C339 C 0.61330 0.05162 0.53769
 C340 C 0.59074 0.04156 0.52949
 C341 C 0.42911 0.19069 0.41568
 N342 N 0.43968 0.18968 0.44279
 N343 N 0.45034 0.16503 0.45332
 C344 C 0.45076 0.14067 0.43706
 N345 N 0.44021 0.14169 0.40994
 N346 N 0.42956 0.16633 0.39941
 C347 C 0.41686 0.21700 0.40462
 C348 C 0.40623 0.23898 0.39541
 C349 C 0.46125 0.11388 0.44877
 C350 C 0.46949 0.09125 0.45880
 C351 C 0.92896 0.30733 0.58468
 N352 N 0.93023 0.33143 0.60128
 N353 N 0.94117 0.35600 0.59085
 C354 C 0.95118 0.35719 0.56352
 N355 N 0.94993 0.33308 0.54693
 N356 N 0.93900 0.30852 0.55736
 C357 C 0.91653 0.28110 0.59568
 C358 C 0.90580 0.25917 0.60484
 C359 C 0.96205 0.38388 0.55199
 C360 C 0.97068 0.40643 0.54213
 C361 C 0.07005 0.80954 -0.08492
 N362 N 0.08114 0.83529 -0.09361
 N363 N 0.07068 0.86008 -0.08322
 C364 C 0.04881 0.85987 -0.06383
 N365 N 0.03769 0.83412 -0.05515
 N366 N 0.04815 0.80932 -0.06555
 C367 C 0.08185 0.78287 -0.09562
 C368 C 0.09212 0.76060 -0.10453
 C369 C 0.03826 0.88657 -0.05199
 C370 C 0.03001 0.90915 -0.04186
 C371 C 0.57041 0.69306 1.08512
 N372 N 0.55225 0.69349 1.06230
 N373 N 0.54144 0.66887 1.05191
 C374 C 0.54845 0.64309 1.06406
 N375 N 0.56658 0.64267 1.08689
 N376 N 0.57738 0.66729 1.09727
 C377 C 0.58265 0.71946 1.09589
 C378 C 0.59329 0.74148 1.10492
 C379 C 0.53760 0.61648 1.05236
 C380 C 0.52904 0.59395 1.04243
 C381 C 0.41554 0.42971 1.19045
 N382 N 0.39790 0.43324 1.16749
 N383 N 0.40813 0.44426 1.14307
 C384 C 0.43629 0.45210 1.14089
 N385 N 0.45392 0.44859 1.16386
 N386 N 0.44369 0.43757 1.18828
 C387 C 0.40473 0.41714 1.21649
 C388 C 0.39575 0.40630 1.23828
 C389 C 0.44757 0.46303 1.11432
 C390 C 0.45733 0.47171 1.09192
 C391 C 0.58427 -0.06871 0.30996
 N392 N 0.60158 -0.06614 0.33329
 N393 N 0.59112 -0.05566 0.35784
 C394 C 0.56304 -0.04741 0.35980
 N395 N 0.54575 -0.04994 0.33646
 N396 N 0.55620 -0.06042 0.31191
 C397 C 0.59525 -0.08091 0.28382
 C398 C 0.60430 -0.09155 0.26197
 C399 C 0.55146 -0.03724 0.38652
 C400 C 0.54143 -0.02927 0.40906
 C401 C -0.08476 1.06911 -0.19021
 N402 N -0.10053 1.07085 -0.16572
 N403 N -0.09007 1.06044 -0.14116
 C404 C -0.06354 1.04795 -0.14035
 N405 N -0.04778 1.04617 -0.16484
 N406 N -0.05824 1.05659 -0.18940
 C407 C -0.09562 1.08120 -0.21643
 C408 C -0.10458 1.09176 -0.23834
 C409 C -0.05180 1.03780 -0.11369
 C410 C -0.04170 1.02984 -0.09120
 C411 C 1.08390 0.57081 0.68991
 N412 N 1.05686 0.55955 0.68873
 N413 N 1.04672 0.54857 0.66430
 C414 C 1.06333 0.54848 0.64031
 N415 N 1.09039 0.55971 0.64148
 N416 N 1.10052 0.57070 0.66592
 C417 C 1.09455 0.58329 0.71602
 C418 C 1.10340 0.59404 0.73787
 C419 C 1.05207 0.53753 0.61378
 C420 C 1.04236 0.52881 0.59140
 C421 C 0.80977 0.58242 0.57040
 N422 N 0.81065 0.55589 0.55791
 N423 N 0.83533 0.54566 0.54713
 C424 C 0.85986 0.56167 0.54849
 N425 N 0.85897 0.58822 0.56095
 N426 N 0.83429 0.59844 0.57173
 C427 C 0.78342 0.59304 0.58281
 C428 C 0.76139 0.60183 0.59357
 C429 C 0.88668 0.55014 0.53801
 C430 C 0.90932 0.54016 0.52982
 C431 C 0.69030 0.41818 1.07114
 N432 N 0.68947 0.44454 1.05827
 N433 N 0.66478 0.45474 1.04755
 C434 C 0.64018 0.43887 1.04934
 N435 N 0.64102 0.41249 1.06217
 N436 N 0.66571 0.40229 1.07289
 C437 C 0.71669 0.40758 1.08345
 C438 C 0.73875 0.39877 1.09409
 C439 C 0.61335 0.45035 1.03886
 C440 C 0.59072 0.46029 1.03065
 C441 C 0.19150 1.08503 -0.07044
 N442 N 0.19079 1.05889 -0.05714
 N443 N 0.16607 1.04860 -0.04658
 C444 C 0.14130 1.06416 -0.04897
 N445 N 0.14201 1.09032 -0.06223
 N446 N 0.16674 1.10061 -0.07280
 C447 C 0.21793 1.09570 -0.08260
 C448 C 0.24003 1.10450 -0.09318
 C449 C 0.11449 1.05264 -0.03849
 C450 C 0.09190 1.04273 -0.03014
 C451 C 0.30909 -0.08522 0.42881
 N452 N 0.33352 -0.10148 0.42851
 N453 N 0.35803 -0.09108 0.43940
 C454 C 0.35885 -0.06410 0.45092
 N455 N 0.33441 -0.04785 0.45124
 N456 N 0.30990 -0.05826 0.44036
 C457 C 0.28294 -0.09607 0.41627
 C458 C 0.26110 -0.10506 0.40538
 C459 C 0.38548 -0.05250 0.46166
 C460 C 0.40797 -0.04254 0.47017
 C461 C 0.57099 -0.19232 0.58266
 N462 N 0.55551 -0.17428 0.59977
 N463 N 0.54484 -0.14957 0.58938
 C464 C 0.54932 -0.14218 0.56156
 N465 N 0.56477 -0.16024 0.54445
 N466 N 0.57543 -0.18494 0.55484
 C467 C 0.58301 -0.21864 0.59393
 C468 C 0.59342 -0.24066 0.60326
 C469 C 0.53849 -0.11527 0.55046
 C470 C 0.52986 -0.09258 0.54089
 C471 C 1.07063 0.68896 0.41491
 N472 N 1.06956 0.66470 0.39852
 N473 N 1.05892 0.64012 0.40920
 C474 C 1.04900 0.63906 0.43657
 N475 N 1.05003 0.66333 0.45294
 N476 N 1.06068 0.68791 0.44227
 C477 C 1.08287 0.71520 0.40370
 C478 C 1.09349 0.73712 0.39439
 C479 C 1.03857 0.61232 0.44842
 C480 C 1.03040 0.58974 0.45859
 C481 C -0.07068 1.19278 0.08246
 N482 N -0.06142 1.19109 0.05489
 N483 N -0.05080 1.16631 0.04461
 C484 C -0.04910 1.14250 0.06159
 N485 N -0.05835 1.14419 0.08916
 N486 N -0.06897 1.16896 0.09944
 C487 C -0.08271 1.21926 0.09334
 C488 C -0.09306 1.24140 0.10247
 C489 C -0.03846 1.11561 0.05028
 C490 C -0.02995 1.09293 0.04060
 C491 C 0.43034 0.31044 0.91676
 N492 N 0.43069 0.33474 0.90037
 N493 N 0.44116 0.35948 0.91081
 C494 C 0.45162 0.36067 0.93796
 N495 N 0.45129 0.33637 0.95434
 N496 N 0.44082 0.31163 0.94390
 C497 C 0.41835 0.28400 0.90578
 C498 C 0.40798 0.26190 0.89666
 C499 C 0.46190 0.38755 0.94957
 C500 C 0.46998 0.41023 0.95955
 C501 C 0.58479 0.57034 0.81117
 N502 N 0.55824 0.55792 0.81200
 N503 N 0.54770 0.54761 0.83658
 C504 C 0.56339 0.54938 0.86108
 N505 N 0.58995 0.56176 0.86024
 N506 N 0.60050 0.57208 0.83566
 C507 C 0.59576 0.58229 0.78490
 C508 C 0.60480 0.59269 0.76293
 C509 C 0.55159 0.53926 0.88775
 C510 C 0.54143 0.53129 0.91024
 C511 C 0.41645 0.07103 0.69005
 N512 N 0.44369 0.06024 0.68860
 N513 N 0.45379 0.04933 0.66409
 C514 C 0.43694 0.04884 0.64030
 N515 N 0.40969 0.05958 0.64176
 N516 N 0.39959 0.07050 0.66627
 C517 C 0.40583 0.08344 0.71625
 C518 C 0.39697 0.09412 0.73816
 C519 C 0.44817 0.03800 0.61367
 C520 C 0.45787 0.02940 0.59122
 C521 C 0.08427 0.92936 0.18912
 N522 N 0.06211 0.94861 0.18944
 N523 N 0.05184 0.95945 0.16496
 C524 C 0.06345 0.95136 0.13946
 N525 N 0.08563 0.93214 0.13916
 N526 N 0.09590 0.92131 0.16362
 C527 C 0.09489 0.91710 0.21537
 C528 C 0.10378 0.90644 0.23727
 C529 C 0.05184 0.96226 0.11304
 C530 C 0.04194 0.97087 0.09069
 C531 C 0.91700 0.42935 0.31043
 N532 N 0.94431 0.42277 0.31870
 N533 N 0.95482 0.43301 0.34329
 C534 C 0.93833 0.45016 0.36035
 N535 N 0.91101 0.45678 0.35208
 N536 N 0.90050 0.44652 0.32748
 C537 C 0.90559 0.41773 0.28424
 C538 C 0.89628 0.40753 0.26232
 C539 C 0.94954 0.46054 0.38714
 C540 C 0.95932 0.46867 0.40970
   
