data_POSCAR
  _audit_creation_date              2014-09-24
  _audit_creation_method            'ToBaCCo'
  _symmetry_space_group_name_H-M    'P1'
  _symmetry_Int_Tables_number       1
  _symmetry_cell_setting            triclinic
  loop_
  _symmetry_equiv_pos_as_xyz
 x,y,z
_cell_length_a 37.8924
_cell_length_b 38.1377
_cell_length_c 24.0811
_cell_angle_alpha 89.800600
_cell_angle_beta 90.209500
_cell_angle_gamma 90.699300
loop_
  _atom_site_label
  _atom_site_type_symbol
  _atom_site_fract_x
  _atom_site_fract_y
  _atom_site_fract_z
O1 O -0.02128 0.24044 0.05765
 O2 O 0.03404 0.25131 -0.06736
 O3 O -0.03406 0.24496 -0.04849
 O4 O 0.04691 0.24711 0.03893
 O5 O 0.05024 0.18956 0.03093
 O6 O -0.03015 0.18732 -0.05381
 O7 O 0.03614 0.19372 -0.07465
 O8 O -0.01629 0.18293 0.05121
 Cu9 Cu 0.00603 0.25185 -0.00408
 Cu10 Cu 0.01047 0.18269 -0.01228
 C11 C -0.02828 0.20969 0.07536
 C12 C 0.04442 0.22410 -0.09244
 C13 C -0.04591 0.21553 -0.06558
 C14 C 0.06232 0.21839 0.04950
 O15 O 0.46945 0.76501 0.54837
 O16 O 0.53256 0.78971 0.43686
 O17 O 0.46281 0.79315 0.45004
 O18 O 0.53818 0.76823 0.53800
 O19 O 0.53504 0.71434 0.50479
 O20 O 0.45880 0.73908 0.41804
 O21 O 0.52741 0.73608 0.40342
 O22 O 0.46747 0.71103 0.51531
 Cu23 Cu 0.50085 0.78456 0.49616
 Cu24 Cu 0.49682 0.71994 0.45665
 C25 C 0.45811 0.73344 0.55079
 C26 C 0.54156 0.76636 0.40223
 C27 C 0.44727 0.77024 0.42043
 C28 C 0.54962 0.73713 0.53603
 O29 O 0.97045 0.73427 -0.05573
 O30 O 1.03052 0.71299 0.06177
 O31 O 0.96143 0.71792 0.04816
 O32 O 1.03866 0.72074 -0.04487
 O33 O 1.04603 0.77700 -0.02670
 O34 O 0.96732 0.77473 0.06334
 O35 O 1.03505 0.76963 0.07932
 O36 O 0.97982 0.79058 -0.03963
 Cu37 Cu 0.99958 0.71583 0.00064
 Cu38 Cu 1.00780 0.78342 0.02090
 C39 C 0.96489 0.76644 -0.06720
 C40 C 1.04311 0.73825 0.09038
 C41 C 0.95071 0.74584 0.07064
 C42 C 1.05587 0.74920 -0.05120
 O43 O 0.53379 0.21388 0.56005
 O44 O 0.47145 0.22778 0.44434
 O45 O 0.54020 0.22823 0.45494
 O46 O 0.46412 0.21706 0.55042
 O47 O 0.46599 0.27391 0.56710
 O48 O 0.53982 0.28519 0.47148
 O49 O 0.47230 0.28464 0.46143
 O50 O 0.53442 0.27082 0.57635
 Cu51 Cu 0.50229 0.21591 0.50110
 Cu52 Cu 0.50319 0.28424 0.52111
 C53 C 0.54530 0.24014 0.58708
 C54 C 0.46134 0.25861 0.43315
 C55 C 0.55269 0.25898 0.44699
 C56 C 0.45176 0.24398 0.57422
 O57 O 0.75084 0.03545 -0.06135
 O58 O 0.75572 -0.03886 0.03797
 O59 O 0.74573 0.03068 0.04381
 O60 O 0.74619 -0.03278 -0.07108
 O61 O 0.80438 -0.03339 -0.06798
 O62 O 0.80400 0.03311 0.04269
 O63 O 0.81368 -0.03256 0.04089
 O64 O 0.80915 0.03665 -0.06330
 Cu65 Cu 0.74431 -0.00243 -0.01182
 Cu66 Cu 0.81315 0.00067 -0.01353
 C67 C 0.77978 0.04900 -0.07841
 C68 C 0.78579 -0.04817 0.05652
 C69 C 0.77461 0.04319 0.06229
 C70 C 0.77527 -0.04484 -0.08794
 O71 O 0.24813 0.46665 0.56504
 O72 O 0.24451 0.53991 0.46299
 O73 O 0.23863 0.47039 0.45988
 O74 O 0.23716 0.53473 0.57294
 O75 O 0.29517 0.53989 0.56887
 O76 O 0.29688 0.47388 0.45774
 O77 O 0.30277 0.54002 0.45972
 O78 O 0.30629 0.47118 0.56386
 Cu79 Cu 0.23689 0.50337 0.51515
 Cu80 Cu 0.30570 0.50698 0.51379
 C81 C 0.27843 0.45612 0.58075
 C82 C 0.27351 0.55176 0.44323
 C83 C 0.26782 0.46112 0.43944
 C84 C 0.26570 0.54891 0.58948
 O85 O 0.25447 0.96793 -0.03421
 O86 O 0.25905 1.04482 0.05989
 O87 O 0.26450 0.97442 0.07068
 O88 O 0.26532 1.03476 -0.04861
 O89 O 0.20721 1.03747 -0.04570
 O90 O 0.20634 0.97633 0.07296
 O91 O 0.20078 1.04530 0.06064
 O92 O 0.19635 0.97222 -0.03476
 Cu93 Cu 0.26632 1.00599 0.01284
 Cu94 Cu 0.19747 1.00783 0.01475
 C95 C 0.22408 0.95713 -0.05043
 C96 C 0.23010 1.05824 0.07567
 C97 C 0.23538 0.96423 0.09119
 C98 C 0.23654 1.04622 -0.06804
 O99 O 0.73788 0.45884 0.44092
 O100 O 0.73518 0.53762 0.53055
 O101 O 0.73181 0.46985 0.54712
 O102 O 0.74546 0.52753 0.42519
 O103 O 0.68776 0.53017 0.41333
 O104 O 0.67414 0.47298 0.53469
 O105 O 0.67740 0.53954 0.51823
 O106 O 0.68028 0.46266 0.42843
 Cu107 Cu 0.74347 0.49811 0.48681
 Cu108 Cu 0.67422 0.50147 0.47208
 C109 C 0.70912 0.44713 0.42021
 C110 C 0.70552 0.55182 0.53956
 C111 C 0.70056 0.46184 0.56179
 C112 C 0.71886 0.53934 0.39933
 C113 C 0.25741 0.21114 0.14812
 C114 C 0.22431 0.22264 0.13046
 C115 C 0.21033 0.25465 0.14790
 C116 C 0.23099 0.27668 0.18285
 C117 C 0.26489 0.26551 0.20073
 C118 C 0.27818 0.23275 0.18295
 C119 C 0.31153 0.22202 0.20154
 C120 C 0.33144 0.24278 0.23740
 C121 C 0.31865 0.27496 0.25653
 C122 C 0.28527 0.28675 0.23749
 C123 C 0.21848 0.30914 0.20149
 C124 C 0.23870 0.33020 0.23693
 C125 C 0.27197 0.31937 0.25594
 C126 C 0.29243 0.34020 0.29282
 C127 C 0.32496 0.32770 0.31168
 C128 C 0.33843 0.29564 0.29422
 H129 H 0.32255 0.19727 0.18888
 H130 H 0.35707 0.23327 0.24984
 H131 H 0.19280 0.31857 0.18919
 H132 H 0.22785 0.35504 0.24946
 H133 H 0.20927 0.20629 0.10198
 H134 H 0.33921 0.34241 0.34320
 C135 C 0.70862 0.66912 0.26759
 C136 C 0.67368 0.68000 0.27438
 C137 C 0.66257 0.71324 0.25810
 C138 C 0.68681 0.73650 0.23227
 C139 C 0.72241 0.72612 0.22481
 C140 C 0.73346 0.69248 0.24305
 C141 C 0.76883 0.68295 0.23527
 C142 C 0.79292 0.70586 0.21005
 C143 C 0.78254 0.73911 0.19104
 C144 C 0.74693 0.74940 0.19876
 C145 C 0.67628 0.76946 0.21272
 C146 C 0.70030 0.79238 0.18802
 C147 C 0.73567 0.78287 0.18024
 C148 C 0.76004 0.80603 0.15459
 C149 C 0.79489 0.79530 0.14689
 C150 C 0.80677 0.76249 0.16493
 H151 H 0.77822 0.65752 0.24825
 H152 H 0.81984 0.69719 0.20577
 H153 H 0.64923 0.77791 0.21587
 H154 H 0.69061 0.81769 0.17514
 H155 H 0.65491 0.66277 0.29515
 H156 H 0.81277 0.81227 0.12388
 C157 C 0.83395 0.22041 0.20270
 C158 C 0.82377 0.18703 0.18423
 C159 C 0.79194 0.17109 0.20045
 C160 C 0.76904 0.18953 0.23605
 C161 C 0.77890 0.22354 0.25507
 C162 C 0.81139 0.23903 0.23813
 C163 C 0.82063 0.27267 0.25730
 C164 C 0.79820 0.29111 0.29174
 C165 C 0.76585 0.27647 0.30904
 C166 C 0.75607 0.24231 0.29068
 C167 C 0.73671 0.17487 0.25344
 C168 C 0.71423 0.19333 0.28807
 C169 C 0.72337 0.22704 0.30730
 C170 C 0.70047 0.24622 0.34181
 C171 C 0.71075 0.27984 0.35956
 C172 C 0.74272 0.29538 0.34331
 H173 H 0.84536 0.28516 0.24593
 H174 H 0.80653 0.31713 0.30433
 H175 H 0.72842 0.14889 0.24053
 H176 H 0.68945 0.18088 0.29925
 H177 H 0.84029 0.17389 0.15431
 H178 H 0.69393 0.29395 0.38789
 C179 C 0.15989 0.79419 0.24006
 C180 C 0.17304 0.82613 0.22005
 C181 C 0.20910 0.83485 0.22240
 C182 C 0.23296 0.81026 0.24527
 C183 C 0.21971 0.77835 0.26827
 C184 C 0.18296 0.77064 0.26662
 C185 C 0.17021 0.73981 0.29190
 C186 C 0.19314 0.71601 0.31597
 C187 C 0.22976 0.72226 0.31618
 C188 C 0.24326 0.75379 0.29226
 C189 C 0.26961 0.81667 0.24612
 C190 C 0.29282 0.79201 0.26792
 C191 C 0.28023 0.76054 0.29153
 C192 C 0.30345 0.73511 0.31344
 C193 C 0.28965 0.70417 0.33622
 C194 C 0.25326 0.69742 0.33858
 H195 H 0.14225 0.73383 0.29361
 H196 H 0.18174 0.69236 0.33359
 H197 H 0.28084 0.84071 0.22961
 H198 H 0.32078 0.79792 0.26601
 H199 H 0.15497 0.84363 0.19905
 H200 H 0.30776 0.68544 0.35424
 C201 C 0.80241 0.24573 0.84779
 C202 C 0.78877 0.21315 0.86508
 C203 C 0.75398 0.20267 0.85358
 C204 C 0.73123 0.22620 0.82611
 C205 C 0.74473 0.25891 0.80664
 C206 C 0.78045 0.26863 0.81723
 C207 C 0.79338 0.30070 0.79613
 C208 C 0.77186 0.32271 0.76501
 C209 C 0.73644 0.31370 0.75396
 C210 C 0.72253 0.28177 0.77597
 C211 C 0.69550 0.21772 0.81687
 C212 C 0.67343 0.24075 0.78892
 C213 C 0.68657 0.27244 0.76687
 C214 C 0.66474 0.29531 0.73628
 C215 C 0.67889 0.32634 0.71454
 C216 C 0.71448 0.33584 0.72186
 H217 H 0.82050 0.30891 0.80264
 H218 H 0.78328 0.34714 0.75030
 H219 H 0.68409 0.19325 0.83142
 H220 H 0.64596 0.23324 0.78446
 H221 H 0.80517 0.19585 0.88961
 H222 H 0.66203 0.34222 0.68844
 C223 C 0.32532 0.73235 0.70089
 C224 C 0.31335 0.69883 0.68591
 C225 C 0.28225 0.68399 0.70768
 C226 C 0.26104 0.70431 0.74342
 C227 C 0.27324 0.73801 0.76029
 C228 C 0.30575 0.75171 0.73974
 C229 C 0.31805 0.78442 0.75880
 C230 C 0.29857 0.80379 0.79609
 C231 C 0.26591 0.79133 0.81579
 C232 C 0.25283 0.75825 0.79752
 C233 C 0.22821 0.69196 0.76305
 C234 C 0.20741 0.71254 0.79761
 C235 C 0.21923 0.74571 0.81565
 C236 C 0.19842 0.76706 0.85062
 C237 C 0.21282 0.79883 0.86993
 C238 C 0.24576 0.81146 0.85258
 H239 H 0.34316 0.79533 0.74571
 H240 H 0.30933 0.82894 0.80872
 H241 H 0.21806 0.66639 0.75135
 H242 H 0.18206 0.70202 0.81035
 H243 H 0.32768 0.68440 0.65474
 H244 H 0.19819 0.81406 0.89979
 C245 C 0.21627 0.16730 0.78704
 C246 C 0.18185 0.17840 0.79754
 C247 C 0.16940 0.21070 0.77889
 C248 C 0.19216 0.23336 0.74924
 C249 C 0.22723 0.22286 0.73797
 C250 C 0.23940 0.18976 0.75702
 C251 C 0.27425 0.18010 0.74541
 C252 C 0.29688 0.20259 0.71634
 C253 C 0.28549 0.23554 0.69744
 C254 C 0.25030 0.24579 0.70837
 C255 C 0.18069 0.26623 0.73062
 C256 C 0.20328 0.28871 0.70194
 C257 C 0.23815 0.27904 0.69017
 C258 C 0.26133 0.30207 0.66168
 C259 C 0.29602 0.29162 0.65152
 C260 C 0.30849 0.25884 0.66889
 H261 H 0.28436 0.15499 0.75861
 H262 H 0.32358 0.19393 0.70931
 H263 H 0.15405 0.27495 0.73809
 H264 H 0.19307 0.31393 0.68962
 H265 H 0.16486 0.16247 0.82382
 H266 H 0.31326 0.30882 0.62772
 C267 C 0.73977 0.69687 0.64460
 C268 C 0.70844 0.71262 0.62728
 C269 C 0.69794 0.74538 0.64710
 C270 C 0.72085 0.76422 0.68330
 C271 C 0.75304 0.74883 0.70087
 C272 C 0.76236 0.71499 0.68169
 C273 C 0.79382 0.69991 0.70070
 C274 C 0.81590 0.71765 0.73744
 C275 C 0.80735 0.75113 0.75710
 C276 C 0.77583 0.76714 0.73819
 C277 C 0.71241 0.79777 0.70297
 C278 C 0.73525 0.81611 0.73822
 C279 C 0.76698 0.80125 0.75675
 C280 C 0.79025 0.81959 0.79297
 C281 C 0.82083 0.80291 0.81192
 C282 C 0.82969 0.76904 0.79486
 H283 H 0.80172 0.67405 0.68776
 H284 H 0.83999 0.70480 0.74978
 H285 H 0.68809 0.81039 0.69132
 H286 H 0.72758 0.84209 0.75092
 H287 H 0.69228 0.69932 0.59647
 H288 H 0.83718 0.81595 0.84276
 C289 C 0.22930 0.08965 0.11049
 C290 C 0.25488 0.11400 0.11099
 C291 C 0.24765 0.14818 0.13641
 C292 C 0.26896 0.17601 0.12988
 H293 H 0.27915 0.11008 0.08827
 H294 H 0.22279 0.15148 0.15795
 H295 H 0.20454 0.09501 0.13113
 H296 H 0.29429 0.17331 0.10972
 C297 C 0.70265 0.58310 0.57441
 C298 C 0.73008 0.60368 0.58789
 C299 C 0.72364 0.63680 0.61702
 C300 C 0.74840 0.66185 0.62178
 H301 H 0.75650 0.59731 0.57444
 H302 H 0.69731 0.64157 0.63264
 H303 H 0.67627 0.59081 0.58629
 H304 H 0.77491 0.65702 0.60722
 C305 C 0.78916 0.92357 0.09277
 C306 C 0.76278 0.90121 0.10452
 C307 C 0.77052 0.86880 0.13522
 C308 C 0.74938 0.84060 0.13176
 H309 H 0.73664 0.90494 0.08713
 H310 H 0.79528 0.86713 0.15776
 H311 H 0.81541 0.91797 0.10841
 H312 H 0.72467 0.84247 0.10924
 C313 C 0.28245 0.42546 0.61720
 C314 C 0.25938 0.39875 0.61805
 C315 C 0.26913 0.36555 0.64530
 C316 C 0.24953 0.33643 0.63952
 H317 H 0.23497 0.40025 0.59459
 H318 H 0.29372 0.36442 0.66842
 H319 H 0.30758 0.42273 0.63841
 H320 H 0.22464 0.33762 0.61732
 C321 C 0.94832 0.20397 0.12288
 C322 C 0.92532 0.22789 0.13960
 C323 C 0.89614 0.21693 0.17591
 C324 C 0.86697 0.23598 0.18016
 H325 H 0.92529 0.25384 0.12104
 H326 H 0.89667 0.19092 0.19427
 H327 H 0.94676 0.17759 0.13978
 H328 H 0.86627 0.26215 0.16252
 C329 C 0.43347 0.72176 0.59416
 C330 C 0.41204 0.74344 0.62081
 C331 C 0.38418 0.72881 0.65688
 C332 C 0.35643 0.74786 0.67173
 H333 H 0.41313 0.77138 0.61245
 H334 H 0.38546 0.70142 0.66884
 H335 H 0.43056 0.69371 0.60057
 H336 H 0.35572 0.77527 0.65985
 C337 C 0.06940 0.73179 0.13433
 C338 C 0.07827 0.75731 0.16994
 C339 C 0.11229 0.75769 0.19954
 C340 C 0.12231 0.78630 0.22786
 H341 H 0.06235 0.78073 0.17171
 H342 H 0.13103 0.73708 0.19149
 H343 H 0.08448 0.70785 0.13294
 H344 H 0.10388 0.80768 0.23195
 C345 C 0.57330 0.23522 0.62878
 C346 C 0.58316 0.26118 0.66272
 C347 C 0.61717 0.26059 0.69234
 C348 C 0.62724 0.28815 0.72284
 H349 H 0.56770 0.28491 0.66427
 H350 H 0.63572 0.23994 0.68349
 H351 H 0.58816 0.21112 0.62793
 H352 H 0.60905 0.30962 0.72807
 C353 C 0.78033 0.08025 0.88583
 C354 C 0.75544 0.10474 0.88764
 C355 C 0.76241 0.13920 0.86184
 C356 C 0.74241 0.16712 0.87192
 H357 H 0.73204 0.10076 0.91277
 H358 H 0.78611 0.14256 0.83712
 H359 H 0.80449 0.08561 0.86316
 H360 H 0.71835 0.16413 0.89571
 C361 C 0.27439 0.57942 0.40090
 C362 C 0.24996 0.60414 0.39652
 C363 C 0.25707 0.63452 0.36029
 C364 C 0.24072 0.66500 0.36709
 H365 H 0.22704 0.60374 0.42335
 H366 H 0.27834 0.63283 0.33042
 H367 H 0.29828 0.58172 0.37639
 H368 H 0.21919 0.66671 0.39642
 C369 C 0.21997 0.92800 0.91561
 C370 C 0.24593 0.90611 0.90296
 C371 C 0.23674 0.87329 0.87430
 C372 C 0.25824 0.84588 0.87394
 H373 H 0.27265 0.91070 0.91771
 H374 H 0.21056 0.87052 0.85629
 H375 H 0.19328 0.92150 0.90222
 H376 H 0.28468 0.84833 0.89093
 C377 C 0.70789 0.41465 0.38756
 C378 C 0.73387 0.39129 0.38710
 C379 C 0.72762 0.35675 0.36141
 C380 C 0.75136 0.33116 0.36395
 H381 H 0.75848 0.39663 0.40874
 H382 H 0.70228 0.35155 0.34178
 H383 H 0.68312 0.40828 0.36699
 H384 H 0.77710 0.33629 0.38209
 C385 C 0.06647 0.22755 0.86158
 C386 C 0.07617 0.19943 0.83223
 C387 C 0.10672 0.19840 0.79478
 C388 C 0.13384 0.22120 0.79726
 H389 H 0.06327 0.17431 0.83945
 H390 H 0.10999 0.17421 0.77197
 H391 H 0.07702 0.25331 0.85167
 H392 H 0.13180 0.24553 0.81986
 C393 C 0.57093 0.77324 0.36344
 C394 C 0.58035 0.74904 0.32637
 C395 C 0.61579 0.74873 0.30138
 C396 C 0.62524 0.72156 0.26992
 H397 H 0.56318 0.72652 0.31925
 H398 H 0.63529 0.76816 0.31409
 H399 H 0.58766 0.79607 0.37041
 H400 H 0.60580 0.70121 0.26101
 C401 C 0.94143 0.77650 0.89127
 C402 C 0.91874 0.75465 0.86608
 C403 C 0.89070 0.76955 0.83106
 C404 C 0.86076 0.75190 0.82074
 H405 H 0.91845 0.72686 0.87576
 H406 H 0.89338 0.79654 0.81725
 H407 H 0.93951 0.80440 0.88279
 H408 H 0.85825 0.72487 0.83431
 C409 C 0.43570 0.26399 0.38803
 C410 C 0.42768 0.29628 0.37031
 C411 C 0.39844 0.30458 0.33206
 C412 C 0.37119 0.28288 0.32113
 H413 H 0.44246 0.31860 0.38624
 H414 H 0.39768 0.33133 0.31686
 H415 H 0.42281 0.24107 0.37064
 H416 H 0.37119 0.25611 0.33599
 C417 C 0.77506 0.92623 0.87136
 C418 C 0.80518 0.91241 0.85288
 C419 C 0.80803 0.87955 0.82071
 C420 C 0.78243 0.85508 0.81526
 H421 H 0.83004 0.92494 0.86384
 H422 H 0.83409 0.87393 0.80491
 H423 H 0.74980 0.91502 0.85949
 H424 H 0.75614 0.85988 0.83048
 C425 C 0.26804 0.43460 0.39515
 C426 C 0.29663 0.43011 0.36356
 C427 C 0.30211 0.40055 0.32521
 C428 C 0.27970 0.37345 0.31728
 H429 H 0.31901 0.44777 0.36873
 H430 H 0.32810 0.39951 0.30668
 H431 H 0.24473 0.41831 0.39002
 H432 H 0.25311 0.37394 0.33324
 C433 C 0.23728 0.06914 0.88651
 C434 C 0.20759 0.07891 0.86060
 C435 C 0.20535 0.10653 0.81778
 C436 C 0.22771 0.13404 0.81385
 H437 H 0.18264 0.06672 0.87199
 H438 H 0.18081 0.10706 0.79458
 H439 H 0.26260 0.07909 0.87234
 H440 H 0.25235 0.13427 0.83668
 C441 C 0.72402 0.56559 0.35480
 C442 C 0.69716 0.57507 0.32190
 C443 C 0.69670 0.60646 0.28574
 C444 C 0.71841 0.63437 0.29108
 H445 H 0.67260 0.56027 0.32378
 H446 H 0.67396 0.60854 0.25856
 H447 H 0.74946 0.57862 0.35177
 H448 H 0.74141 0.63320 0.31771
 C449 C 0.08620 0.74959 0.91552
 C450 C 0.10375 0.77948 0.90405
 C451 C 0.13713 0.78236 0.87273
 C452 C 0.16194 0.75748 0.86925
 H453 H 0.09313 0.80421 0.91786
 H454 H 0.14321 0.80840 0.85709
 H455 H 0.09538 0.72504 0.89871
 H456 H 0.15665 0.73122 0.88443
 C457 C 0.58257 0.26546 0.40962
 C458 C 0.60562 0.24097 0.39502
 C459 C 0.63769 0.25185 0.36492
 C460 C 0.66622 0.23168 0.36200
 H461 H 0.60238 0.21411 0.40915
 H462 H 0.63900 0.27831 0.34829
 H463 H 0.58749 0.29250 0.39748
 H464 H 0.66503 0.20500 0.37754
 C465 C 0.92151 0.21284 0.90126
 C466 C 0.89920 0.23928 0.89327
 C467 C 0.86491 0.23218 0.86616
 C468 C 0.83895 0.25566 0.86517
 H469 H 0.90506 0.26508 0.90991
 H470 H 0.85999 0.20618 0.84954
 H471 H 0.91452 0.18704 0.88555
 H472 H 0.84402 0.28197 0.88033
 C473 C 0.41415 0.77962 0.39194
 C474 C 0.39691 0.75715 0.35881
 C475 C 0.35967 0.76260 0.34317
 C476 C 0.34242 0.73830 0.31346
 H477 H 0.40921 0.73266 0.34753
 H478 H 0.34530 0.78404 0.36155
 H479 H 0.40204 0.80428 0.40268
 H480 H 0.35688 0.71589 0.29845
 C481 C 0.23527 0.93681 0.13454
 C482 C 0.20579 0.92829 0.16222
 C483 C 0.20170 0.89749 0.19911
 C484 C 0.22090 0.86819 0.19542
 H485 H 0.18250 0.94414 0.15664
 H486 H 0.17887 0.89759 0.22604
 H487 H 0.25944 0.92268 0.14195
 H488 H 0.24353 0.86743 0.16825
 C489 C 0.69399 0.43923 0.61033
 C490 C 0.71891 0.41978 0.63445
 C491 C 0.70879 0.39439 0.67795
 C492 C 0.72864 0.36654 0.69004
 H493 H 0.74575 0.42043 0.61903
 H494 H 0.68303 0.39694 0.69684
 H495 H 0.66693 0.43682 0.62450
 H496 H 0.75456 0.36463 0.67156
 C497 C 0.77393 0.07062 0.10532
 C498 C 0.80352 0.08101 0.13145
 C499 C 0.80696 0.11183 0.16826
 C500 C 0.78246 0.13661 0.17523
 H501 H 0.82779 0.06719 0.12354
 H502 H 0.83284 0.11585 0.18659
 H503 H 0.74896 0.08288 0.11386
 H504 H 0.75616 0.13322 0.15848
 C505 C 0.26446 0.57737 0.63082
 C506 C 0.29407 0.59024 0.65392
 C507 C 0.29693 0.62301 0.68631
 C508 C 0.27231 0.64804 0.68895
 H509 H 0.31880 0.57718 0.64616
 H510 H 0.32285 0.62854 0.70362
 H511 H 0.23914 0.58886 0.63965
 H512 H 0.24601 0.64356 0.67275
 C513 C 0.91771 0.74468 0.10321
 C514 C 0.90587 0.77295 0.12998
 C515 C 0.87035 0.77637 0.15486
 C516 C 0.84378 0.75275 0.15125
 H517 H 0.92230 0.79639 0.13113
 H518 H 0.86513 0.80158 0.17355
 H519 H 0.90234 0.72063 0.10229
 H520 H 0.84821 0.72698 0.13436
 C521 C 0.41942 0.24100 0.60803
 C522 C 0.40738 0.26885 0.63585
 C523 C 0.37188 0.27209 0.66035
 C524 C 0.34508 0.24921 0.65363
 H525 H 0.42361 0.29240 0.63799
 H526 H 0.36681 0.29666 0.68115
 H527 H 0.40450 0.21668 0.60648
 H528 H 0.34912 0.22412 0.63407
 C529 C 0.09463 0.21723 0.08349
 C530 C 0.11488 0.24516 0.09574
 C531 C 0.14868 0.23956 0.12488
 C532 C 0.17433 0.26399 0.12792
 H533 H 0.10781 0.27112 0.08141
 H534 H 0.15365 0.21359 0.14146
 H535 H 0.10322 0.19141 0.09639
 H536 H 0.16949 0.29029 0.11285
 C537 C 0.58045 0.72695 0.56936
 C538 C 0.60331 0.75036 0.59069
 C539 C 0.63558 0.73822 0.61858
 C540 C 0.66356 0.75940 0.62714
 H541 H 0.59937 0.77821 0.58450
 H542 H 0.63707 0.71071 0.62974
 H543 H 0.58576 0.69917 0.57334
 H544 H 0.66166 0.78694 0.61664
   
