data_POSCAR
  _audit_creation_date              2014-09-24
  _audit_creation_method            'ToBaCCo'
  _symmetry_space_group_name_H-M    'P1'
  _symmetry_Int_Tables_number       1
  _symmetry_cell_setting            triclinic
  loop_
  _symmetry_equiv_pos_as_xyz
 x,y,z
_cell_length_a 30.6985
_cell_length_b 48.5536
_cell_length_c 36.6604
_cell_angle_alpha 89.996200
_cell_angle_beta 89.988900
_cell_angle_gamma 89.730100
loop_
  _atom_site_label
  _atom_site_type_symbol
  _atom_site_fract_x
  _atom_site_fract_y
  _atom_site_fract_z
B1 B -0.02574 -0.02465 0.01688
 B2 B 0.02643 -0.02155 0.02954
 B3 B 0.01397 -0.03030 -0.01341
 B4 B -0.03157 -0.01319 -0.02620
 B5 B -0.04682 0.00682 0.01002
 B6 B -0.01072 0.00125 0.04478
 B7 B 0.03371 0.02339 -0.01241
 B8 B -0.01844 0.02032 -0.02502
 B9 B -0.00594 0.02904 0.01795
 B10 B 0.03956 0.01195 0.03072
 B11 B 0.05483 -0.00803 -0.00551
 B12 B 0.01867 -0.00252 -0.04027
 B13 B 0.51893 0.48638 0.54054
 B14 B 0.46673 0.48522 0.52702
 B15 B 0.48907 0.51531 0.53893
 B16 B 0.54141 0.51565 0.52487
 B17 B 0.55124 0.48496 0.50347
 B18 B 0.50459 0.46605 0.50540
 B19 B 0.48751 0.51229 0.46565
 B20 B 0.53976 0.51346 0.47909
 B21 B 0.51728 0.48332 0.46724
 B22 B 0.46506 0.48307 0.48139
 B23 B 0.45528 0.51370 0.50264
 B24 B 0.50187 0.53265 0.50084
 B25 B 0.52549 0.02538 0.51692
 B26 B 0.47321 0.02234 0.52932
 B27 B 0.48604 0.03106 0.48642
 B28 B 0.53163 0.01389 0.47388
 B29 B 0.54655 -0.00611 0.51020
 B30 B 0.51019 -0.00049 0.54476
 B31 B 0.46616 -0.02262 0.48738
 B32 B 0.51842 -0.01960 0.47502
 B33 B 0.50556 -0.02830 0.51794
 B34 B 0.46000 -0.01115 0.53046
 B35 B 0.44506 0.00884 0.49414
 B36 B 0.48147 0.00327 0.45956
 B37 B -0.01917 0.51432 0.04069
 B38 B 0.03305 0.51554 0.02718
 B39 B 0.01073 0.48541 0.03901
 B40 B -0.04159 0.48506 0.02493
 B41 B -0.05145 0.51578 0.00361
 B42 B -0.00483 0.53472 0.00560
 B43 B 0.01236 0.48854 -0.03425
 B44 B -0.03990 0.48732 -0.02084
 B45 B -0.01747 0.51749 -0.03261
 B46 B 0.03474 0.51775 -0.01845
 B47 B 0.04456 0.48710 0.00274
 B48 B -0.00201 0.46812 0.00087
 B49 B 0.03205 0.46888 0.48169
 B50 B -0.02068 0.47281 0.47058
 B51 B -0.00630 0.46433 0.51338
 B52 B 0.04020 0.48090 0.52428
 B53 B 0.05430 0.50020 0.48711
 B54 B 0.01651 0.49470 0.45370
 B55 B -0.02472 0.51840 0.51166
 B56 B 0.02789 0.51458 0.52271
 B57 B 0.01354 0.52297 0.47982
 B58 B -0.03287 0.50645 0.46908
 B59 B -0.04698 0.48719 0.50623
 B60 B -0.00915 0.49259 0.53962
 B61 B 0.48688 -0.01681 -0.03831
 B62 B 0.53954 -0.01662 -0.02598
 B63 B 0.51408 0.01305 -0.03632
 B64 B 0.46226 0.01143 -0.02113
 B65 B 0.45593 -0.01989 -0.00065
 B66 B 0.50415 -0.03731 -0.00415
 B67 B 0.51827 0.00862 0.03681
 B68 B 0.46554 0.00842 0.02451
 B69 B 0.49104 -0.02121 0.03484
 B70 B 0.54282 -0.01961 0.01963
 B71 B 0.54916 0.01170 -0.00085
 B72 B 0.50092 0.02913 0.00271
 B73 B 0.46777 0.53175 -0.01827
 B74 B 0.52044 0.52776 -0.02951
 B75 B 0.50624 0.53624 0.01333
 B76 B 0.45972 0.51972 0.02434
 B77 B 0.44544 0.50045 -0.01281
 B78 B 0.48314 0.50592 -0.04631
 B79 B 0.52449 0.48216 0.01153
 B80 B 0.47193 0.48603 0.02271
 B81 B 0.48613 0.47763 -0.02020
 B82 B 0.53255 0.49411 -0.03105
 B83 B 0.54682 0.51334 0.00607
 B84 B 0.50908 0.50798 0.03955
 B85 B 0.01273 0.01750 0.46165
 B86 B -0.03989 0.01730 0.47412
 B87 B -0.01443 -0.01237 0.46378
 B88 B 0.03743 -0.01070 0.47885
 B89 B 0.04379 0.02065 0.49923
 B90 B -0.00446 0.03803 0.49581
 B91 B -0.01839 -0.00785 0.53692
 B92 B 0.03430 -0.00764 0.52448
 B93 B 0.00879 0.02199 0.53480
 B94 B -0.04304 0.02034 0.51973
 B95 B -0.04940 -0.01100 0.49934
 B96 B -0.00113 -0.02839 0.50283
 B97 B 0.75845 0.27502 0.25648
 B98 B 0.70575 0.26793 0.26414
 B99 B 0.72337 0.27285 0.22146
 B100 B 0.77388 0.25973 0.21719
 B101 B 0.78760 0.24568 0.25854
 B102 B 0.74500 0.25114 0.28794
 B103 B 0.71618 0.21851 0.23254
 B104 B 0.76869 0.22585 0.22431
 B105 B 0.75132 0.22046 0.26713
 B106 B 0.70065 0.23389 0.27179
 B107 B 0.68702 0.24773 0.23052
 B108 B 0.72932 0.24235 0.20110
 B109 B 0.74861 0.78032 0.76708
 B110 B 0.73116 0.77494 0.72430
 B111 B 0.78371 0.78221 0.73246
 B112 B 0.79923 0.76682 0.77171
 B113 B 0.75485 0.74964 0.78791
 B114 B 0.71224 0.75514 0.75856
 B115 B 0.77635 0.72787 0.72143
 B116 B 0.79401 0.73279 0.76409
 B117 B 0.74129 0.72577 0.75649
 B118 B 0.72587 0.74106 0.71720
 B119 B 0.77047 0.75838 0.70105
 B120 B 0.81277 0.75296 0.73044
 B121 B 0.26189 0.22787 0.73979
 B122 B 0.20886 0.23469 0.73262
 B123 B 0.22730 0.23003 0.77512
 B124 B 0.27748 0.24344 0.77877
 B125 B 0.29020 0.25737 0.73720
 B126 B 0.24732 0.25153 0.70830
 B127 B 0.21834 0.28423 0.76380
 B128 B 0.27123 0.27727 0.77147
 B129 B 0.25304 0.28235 0.72887
 B130 B 0.20275 0.26864 0.72481
 B131 B 0.19011 0.25489 0.76632
 B132 B 0.23270 0.26063 0.79521
 B133 B 0.23760 0.77285 0.23979
 B134 B 0.29066 0.76612 0.23255
 B135 B 0.27227 0.77075 0.27506
 B136 B 0.22214 0.75727 0.27880
 B137 B 0.20941 0.74331 0.23725
 B138 B 0.25223 0.74921 0.20829
 B139 B 0.28140 0.71656 0.26377
 B140 B 0.22849 0.72344 0.27151
 B141 B 0.24665 0.71838 0.22888
 B142 B 0.29688 0.73216 0.22474
 B143 B 0.30953 0.74594 0.26622
 B144 B 0.26702 0.74015 0.29518
 B145 B 0.26364 0.72762 0.75720
 B146 B 0.28015 0.73532 0.71507
 B147 B 0.22692 0.73021 0.72353
 B148 B 0.21502 0.74277 0.76517
 B149 B 0.26222 0.75641 0.78227
 B150 B 0.30259 0.75161 0.75095
 B151 B 0.24074 0.78470 0.72034
 B152 B 0.22427 0.77668 0.76275
 B153 B 0.27709 0.78215 0.75397
 B154 B 0.28942 0.76939 0.71233
 B155 B 0.24245 0.75581 0.69518
 B156 B 0.20168 0.76081 0.72651
 B157 B 0.22275 0.21853 0.25405
 B158 B 0.27560 0.22398 0.26269
 B159 B 0.25900 0.21593 0.22033
 B160 B 0.21032 0.23125 0.21242
 B161 B 0.19728 0.24907 0.25103
 B162 B 0.23773 0.24428 0.28227
 B163 B 0.27289 0.27040 0.22340
 B164 B 0.21962 0.26532 0.21507
 B165 B 0.23628 0.27304 0.25715
 B166 B 0.28490 0.25788 0.26502
 B167 B 0.29810 0.23981 0.22636
 B168 B 0.25724 0.24479 0.19511
 B169 B 0.77877 0.71950 0.24360
 B170 B 0.72631 0.72649 0.23419
 B171 B 0.74257 0.72158 0.27744
 B172 B 0.79274 0.73531 0.28292
 B173 B 0.80715 0.74882 0.24173
 B174 B 0.76589 0.74299 0.21158
 B175 B 0.73428 0.77604 0.26577
 B176 B 0.78703 0.76927 0.27460
 B177 B 0.77042 0.77367 0.23152
 B178 B 0.72042 0.76027 0.22646
 B179 B 0.70588 0.74653 0.26775
 B180 B 0.74749 0.75253 0.29792
 B181 B 0.72954 0.22706 0.73174
 B182 B 0.71296 0.23148 0.77483
 B183 B 0.76572 0.22473 0.76596
 B184 B 0.77952 0.24048 0.72662
 B185 B 0.73403 0.25774 0.71176
 B186 B 0.69281 0.25191 0.74196
 B187 B 0.75737 0.27918 0.77759
 B188 B 0.77361 0.27426 0.73432
 B189 B 0.72117 0.28123 0.74378
 B190 B 0.70722 0.26544 0.78312
 B191 B 0.75250 0.24824 0.79810
 B192 B 0.79409 0.25424 0.76789
 C193 C 0.06758 0.44227 0.87779
 N194 N 0.08960 0.46377 0.89250
 N195 N 0.07119 0.47946 0.91813
 C196 C 0.03013 0.47423 0.93002
 N197 N 0.00806 0.45296 0.91490
 N198 N 0.02626 0.43741 0.88912
 C199 C 0.08961 0.42244 0.85370
 N200 N 0.06696 0.40125 0.83893
 N201 N 0.08746 0.38123 0.82088
 C202 C 0.13144 0.38154 0.81710
 N203 N 0.15409 0.40296 0.83134
 N204 N 0.13353 0.42307 0.84929
 C205 C 0.15413 0.35788 0.80069
 N206 N 0.19827 0.35600 0.80149
 N207 N 0.21846 0.33343 0.78934
 C208 C 0.19531 0.31193 0.77592
 N209 N 0.15122 0.31400 0.77476
 N210 N 0.13102 0.33650 0.78697
 C211 C 0.43256 0.55864 0.37766
 N212 N 0.41059 0.53706 0.39220
 N213 N 0.42891 0.52136 0.41785
 C214 C 0.46986 0.52667 0.42994
 N215 N 0.49190 0.54803 0.41499
 N216 N 0.47378 0.56359 0.38918
 C217 C 0.41054 0.57848 0.35358
 N218 N 0.43314 0.59973 0.33890
 N219 N 0.41260 0.61974 0.32088
 C220 C 0.36864 0.61938 0.31704
 N221 N 0.34604 0.59789 0.33119
 N222 N 0.36663 0.57779 0.34911
 C223 C 0.34588 0.64302 0.30067
 N224 N 0.30173 0.64479 0.30132
 N225 N 0.28146 0.66733 0.28917
 C226 C 0.30455 0.68891 0.27590
 N227 N 0.34866 0.68696 0.27491
 N228 N 0.36894 0.66449 0.28711
 C229 C 0.92776 0.94416 0.62351
 N230 N 0.96952 0.94019 0.61257
 N231 N 0.98720 0.95640 0.58740
 C232 C 0.96421 0.97753 0.57254
 N233 N 0.92264 0.98185 0.58403
 N234 N 0.90475 0.96549 0.60907
 C235 C 0.90662 0.92351 0.64679
 N236 N 0.86273 0.92360 0.65155
 N237 N 0.84314 0.90284 0.66870
 C238 C 0.86675 0.88123 0.68171
 N239 N 0.91068 0.88144 0.67757
 N240 N 0.93021 0.90213 0.66036
 C241 C 0.84518 0.85693 0.69723
 N242 N 0.86924 0.83511 0.70885
 N243 N 0.84997 0.81219 0.72035
 C244 C 0.80589 0.81012 0.72056
 N245 N 0.78181 0.83205 0.70927
 N246 N 0.80107 0.85503 0.69778
 C247 C 0.57245 0.05661 0.12325
 N248 N 0.59538 0.03525 0.10878
 N249 N 0.57740 0.01890 0.08378
 C250 C 0.53581 0.02327 0.07235
 N251 N 0.51292 0.04443 0.08722
 N252 N 0.53069 0.06062 0.11235
 C253 C 0.59364 0.07721 0.14656
 N254 N 0.57000 0.09848 0.16038
 N255 N 0.58951 0.11915 0.17765
 C256 C 0.63345 0.11943 0.18162
 N257 N 0.65712 0.09794 0.16836
 N258 N 0.63756 0.07719 0.15113
 C259 C 0.65495 0.14373 0.19722
 N260 N 0.69906 0.14563 0.19799
 N261 N 0.71824 0.16861 0.20953
 C262 C 0.69409 0.19056 0.22066
 N263 N 0.65001 0.18850 0.22023
 N264 N 0.63082 0.16557 0.20869
 C265 C 0.86960 0.06421 0.41027
 N266 N 0.86954 0.06586 0.44719
 N267 N 0.89597 0.04999 0.46693
 C268 C 0.92345 0.03179 0.45060
 N269 N 0.92264 0.02960 0.41368
 N270 N 0.89618 0.04551 0.39387
 C271 C 0.84519 0.08453 0.38862
 N272 N 0.84793 0.08465 0.35166
 N273 N 0.82966 0.10488 0.33234
 C274 C 0.80817 0.12580 0.34926
 N275 N 0.80491 0.12547 0.38618
 N276 N 0.82310 0.10522 0.40548
 C277 C 0.79134 0.14929 0.32822
 N278 N 0.77396 0.17155 0.34540
 N279 N 0.76108 0.19354 0.32641
 C280 C 0.76517 0.19408 0.28954
 N281 N 0.78217 0.17170 0.27242
 N282 N 0.79512 0.14975 0.29136
 C283 C 0.37546 0.43667 0.58721
 N284 N 0.39875 0.45652 0.60443
 N285 N 0.42580 0.47262 0.58570
 C286 C 0.43050 0.46943 0.54911
 N287 N 0.40645 0.44997 0.53192
 N288 N 0.37946 0.43391 0.55057
 C289 C 0.34989 0.41660 0.60794
 N290 N 0.33142 0.39490 0.59057
 N291 N 0.31197 0.37501 0.60942
 C292 C 0.31022 0.37612 0.64636
 N293 N 0.32805 0.39805 0.66375
 N294 N 0.34763 0.41792 0.64488
 C295 C 0.29244 0.35297 0.66721
 N296 N 0.29047 0.35406 0.70413
 N297 N 0.27735 0.33229 0.72320
 C298 C 0.26597 0.30859 0.70614
 N299 N 0.26746 0.30761 0.66916
 N300 N 0.28046 0.32941 0.65004
 C301 C 0.63008 0.93649 0.91012
 N302 N 0.63018 0.93488 0.94704
 N303 N 0.60371 0.95073 0.96678
 C304 C 0.57614 0.96887 0.95045
 N305 N 0.57688 0.97102 0.91352
 N306 N 0.60338 0.95513 0.89371
 C307 C 0.65462 0.91622 0.88850
 N308 N 0.65217 0.91619 0.85153
 N309 N 0.67060 0.89600 0.83222
 C310 C 0.69196 0.87504 0.84919
 N311 N 0.69493 0.87529 0.88612
 N312 N 0.67659 0.89550 0.90540
 C313 C 0.70887 0.85157 0.82816
 N314 N 0.72590 0.82921 0.84537
 N315 N 0.73871 0.80720 0.82639
 C316 C 0.73490 0.80673 0.78950
 N317 N 0.71829 0.82921 0.77235
 N318 N 0.70541 0.85119 0.79128
 C319 C 0.12444 0.56401 0.08732
 N320 N 0.12033 0.56683 0.05070
 N321 N 0.09329 0.55080 0.03207
 C322 C 0.06929 0.53131 0.04927
 N323 N 0.07410 0.52806 0.08583
 N324 N 0.10120 0.54414 0.10455
 C325 C 0.15005 0.58406 0.10803
 N326 N 0.15247 0.58269 0.14496
 N327 N 0.17206 0.60256 0.16382
 C328 C 0.18973 0.62454 0.14643
 N329 N 0.18783 0.62570 0.10950
 N330 N 0.16838 0.60581 0.09066
 C331 C 0.20746 0.64770 0.16726
 N332 N 0.21911 0.67134 0.15010
 N333 N 0.23204 0.69316 0.16920
 C334 C 0.23378 0.69213 0.20616
 N335 N 0.22273 0.66836 0.22322
 N336 N 0.20968 0.64657 0.20417
 C337 C 0.45032 0.91867 0.11268
 N338 N 0.48782 0.91530 0.09363
 N339 N 0.50213 0.93513 0.07167
 C340 C 0.47952 0.95909 0.06773
 N341 N 0.44232 0.96257 0.08722
 N342 N 0.42822 0.94286 0.10957
 C343 C 0.43166 0.89559 0.13325
 N344 N 0.39982 0.90009 0.15823
 N345 N 0.38064 0.87901 0.17492
 C346 C 0.39205 0.85263 0.16687
 N347 N 0.42395 0.84809 0.14192
 N348 N 0.44352 0.86921 0.12553
 C349 C 0.36900 0.82968 0.18436
 N350 N 0.36916 0.80391 0.16975
 N351 N 0.34558 0.78382 0.18479
 C352 C 0.32130 0.78879 0.21510
 N353 N 0.32203 0.81442 0.22988
 N354 N 0.34512 0.83448 0.21476
 C355 C 0.55854 0.42398 0.38844
 N356 N 0.58356 0.44646 0.39510
 N357 N 0.56979 0.46616 0.41775
 C358 C 0.53009 0.46441 0.43389
 N359 N 0.50473 0.44227 0.42630
 N360 N 0.51867 0.42243 0.40412
 C361 C 0.57579 0.40052 0.36766
 N362 N 0.56074 0.37467 0.37405
 N363 N 0.57824 0.35298 0.35711
 C364 C 0.61110 0.35645 0.33282
 N365 N 0.62577 0.38233 0.32614
 N366 N 0.60872 0.40395 0.34347
 C367 C 0.63149 0.33286 0.31438
 N368 N 0.65353 0.33702 0.28293
 N369 N 0.67482 0.31640 0.26702
 C370 C 0.67547 0.29082 0.28194
 N371 N 0.65294 0.28648 0.31331
 N372 N 0.63108 0.30714 0.32915
 C373 C 0.94110 0.57684 0.88868
 N374 N 0.91607 0.55438 0.89542
 N375 N 0.92990 0.53467 0.91805
 C376 C 0.96965 0.53642 0.93409
 N377 N 0.99499 0.55855 0.92644
 N378 N 0.98100 0.57839 0.90426
 C379 C 0.92382 0.60027 0.86784
 N380 N 0.93916 0.62610 0.87387
 N381 N 0.92167 0.64775 0.85685
 C382 C 0.88852 0.64427 0.83287
 N383 N 0.87354 0.61841 0.82656
 N384 N 0.89059 0.59683 0.84396
 C385 C 0.86814 0.66783 0.81435
 N386 N 0.84550 0.66355 0.78324
 N387 N 0.82424 0.68416 0.76730
 C388 C 0.82420 0.70986 0.78187
 N389 N 0.84734 0.71432 0.81289
 N390 N 0.86917 0.69366 0.82875
 C391 C 0.04967 0.08223 0.61237
 N392 N 0.07163 0.05797 0.60946
 N393 N 0.05748 0.03823 0.58719
 C394 C 0.02037 0.04175 0.56760
 N395 N -0.00210 0.06577 0.57134
 N396 N 0.01227 0.08564 0.59321
 C397 C 0.06832 0.10533 0.63290
 N398 N 0.05685 0.13170 0.62480
 N399 N 0.07630 0.15283 0.64126
 C400 C 0.10766 0.14828 0.66668
 N401 N 0.11869 0.12191 0.67508
 N402 N 0.09965 0.10082 0.65831
 C403 C 0.13055 0.17124 0.68426
 N404 N 0.15342 0.16660 0.71523
 N405 N 0.17646 0.18665 0.73042
 C406 C 0.17811 0.21210 0.71518
 N407 N 0.15481 0.21692 0.68429
 N408 N 0.13129 0.19684 0.66917
 C409 C 0.10693 0.40736 0.42651
 N410 N 0.12592 0.43105 0.43774
 N411 N 0.10319 0.44955 0.45676
 C412 C 0.06085 0.44492 0.46553
 N413 N 0.04248 0.42073 0.45552
 N414 N 0.06502 0.40236 0.43618
 C415 C 0.12928 0.38894 0.40092
 N416 N 0.10558 0.37168 0.37984
 N417 N 0.12486 0.35619 0.35461
 C418 C 0.16859 0.35726 0.34960
 N419 N 0.19255 0.37432 0.37093
 N420 N 0.17312 0.39014 0.39592
 C421 C 0.18888 0.33930 0.32230
 N422 N 0.23142 0.33166 0.32472
 N423 N 0.24758 0.31233 0.30257
 C424 C 0.22191 0.30035 0.27694
 N425 N 0.17985 0.30870 0.27396
 N426 N 0.16365 0.32778 0.29617
 C427 C 0.39293 0.59346 0.92691
 N428 N 0.37390 0.56976 0.93808
 N429 N 0.39663 0.55119 0.95699
 C430 C 0.43900 0.55576 0.96570
 N431 N 0.45741 0.57995 0.95575
 N432 N 0.43488 0.59839 0.93653
 C433 C 0.37061 0.61193 0.90138
 N434 N 0.39436 0.62917 0.88027
 N435 N 0.37511 0.64466 0.85503
 C436 C 0.33138 0.64361 0.85000
 N437 N 0.30738 0.62659 0.87138
 N438 N 0.32677 0.61078 0.89640
 C439 C 0.31114 0.66153 0.82262
 N440 N 0.26853 0.66904 0.82486
 N441 N 0.25237 0.68831 0.80262
 C442 C 0.27810 0.70034 0.77706
 N443 N 0.32023 0.69211 0.77426
 N444 N 0.33643 0.67309 0.79656
 C445 C 0.60394 0.08708 0.56709
 N446 N 0.61596 0.06021 0.56829
 N447 N 0.59217 0.04121 0.55150
 C448 C 0.55559 0.04839 0.53291
 N449 N 0.54398 0.07533 0.53116
 N450 N 0.56775 0.09434 0.54800
 C451 C 0.62726 0.10761 0.58865
 N452 N 0.61173 0.13372 0.59059
 N453 N 0.63033 0.15198 0.61253
 C454 C 0.66515 0.14488 0.63334
 N455 N 0.68122 0.11885 0.63111
 N456 N 0.66246 0.10048 0.60916
 C457 C 0.68293 0.16505 0.65888
 N458 N 0.71989 0.16025 0.67841
 N459 N 0.73486 0.17921 0.70159
 C460 C 0.71301 0.20337 0.70615
 N461 N 0.67610 0.20788 0.68671
 N462 N 0.66137 0.18914 0.66357
 C463 C 0.89543 0.91351 0.06638
 N464 N 0.93176 0.90630 0.04742
 N465 N 0.95567 0.92537 0.03081
 C466 C 0.94408 0.95231 0.03268
 N467 N 0.90736 0.95943 0.05113
 N468 N 0.88343 0.94038 0.06769
 C469 C 0.87201 0.89292 0.08778
 N470 N 0.83685 0.90004 0.10835
 N471 N 0.81814 0.88167 0.13031
 C472 C 0.83420 0.85564 0.13250
 N473 N 0.86894 0.84853 0.11158
 N474 N 0.88751 0.86681 0.08963
 C475 C 0.81659 0.83551 0.15818
 N476 N 0.83822 0.81145 0.16293
 N477 N 0.82366 0.79279 0.18626
 C478 C 0.78687 0.79734 0.20584
 N479 N 0.76494 0.82146 0.20123
 N480 N 0.77975 0.84035 0.17786
 C481 C 0.91788 0.07594 0.90069
 N482 N 0.89506 0.06267 0.92704
 N483 N 0.91494 0.04546 0.94997
 C484 C 0.95849 0.04090 0.94759
 N485 N 0.98134 0.05403 0.92106
 N486 N 0.96144 0.07130 0.89809
 C487 C 0.89548 0.09545 0.87620
 N488 N 0.91756 0.10985 0.85036
 N489 N 0.89695 0.12829 0.82944
 C490 C 0.85353 0.13292 0.83360
 N491 N 0.83156 0.11832 0.85920
 N492 N 0.85208 0.09994 0.88002
 C493 C 0.83059 0.15462 0.81300
 N494 N 0.78890 0.16096 0.82188
 N495 N 0.76848 0.18193 0.80591
 C496 C 0.78843 0.19725 0.77995
 N497 N 0.83019 0.19081 0.77074
 N498 N 0.85089 0.16983 0.78694
 C499 C 0.09085 0.57313 0.59288
 N500 N 0.10943 0.56531 0.56089
 N501 N 0.09044 0.54665 0.53963
 C502 C 0.05170 0.53542 0.54919
 N503 N 0.03348 0.54285 0.58156
 N504 N 0.05271 0.56133 0.60305
 C505 C 0.11061 0.59527 0.61464
 N506 N 0.09968 0.59942 0.65019
 N507 N 0.11702 0.62021 0.66905
 C508 C 0.14540 0.63778 0.65280
 N509 N 0.15615 0.63357 0.61732
 N510 N 0.13932 0.61266 0.59869
 C511 C 0.16361 0.66163 0.67217
 N512 N 0.17830 0.68331 0.65254
 N513 N 0.19656 0.70472 0.66900
 C514 C 0.20150 0.70526 0.70578
 N515 N 0.18634 0.68370 0.72568
 N516 N 0.16747 0.66229 0.70915
 C517 C 0.58233 0.92476 0.40085
 N518 N 0.60504 0.93790 0.42737
 N519 N 0.58510 0.95511 0.45029
 C520 C 0.54160 0.95980 0.44770
 N521 N 0.51888 0.94682 0.42097
 N522 N 0.53883 0.92956 0.39803
 C523 C 0.60475 0.90525 0.37636
 N524 N 0.58266 0.89087 0.35052
 N525 N 0.60324 0.87244 0.32957
 C526 C 0.64667 0.86779 0.33370
 N527 N 0.66865 0.88237 0.35931
 N528 N 0.64815 0.90074 0.38017
 C529 C 0.66956 0.84613 0.31299
 N530 N 0.71142 0.83995 0.32150
 N531 N 0.73181 0.81901 0.30543
 C532 C 0.71163 0.80354 0.27976
 N533 N 0.66971 0.80983 0.27091
 N534 N 0.64907 0.83079 0.28719
 C535 C 0.40914 0.42740 0.09281
 N536 N 0.44750 0.43899 0.10280
 N537 N 0.46668 0.45752 0.08134
 C538 C 0.44817 0.46520 0.04919
 N539 N 0.40923 0.45417 0.03982
 N540 N 0.39028 0.43547 0.06104
 C541 C 0.38940 0.40524 0.11451
 N542 N 0.36048 0.38798 0.09859
 N543 N 0.34357 0.36708 0.11720
 C544 C 0.35446 0.36276 0.15262
 N545 N 0.38307 0.38019 0.16883
 N546 N 0.40049 0.40096 0.15000
 C547 C 0.33616 0.33894 0.17197
 N548 N 0.33255 0.33821 0.20896
 N549 N 0.31367 0.31681 0.22550
 C550 C 0.29827 0.29533 0.20559
 N551 N 0.30293 0.29594 0.16879
 N552 N 0.32119 0.31735 0.15232
 C553 C 0.55055 0.60652 0.07238
 N554 N 0.56740 0.60047 0.03907
 N555 N 0.55152 0.57977 0.01941
 C556 C 0.51798 0.56444 0.03213
 N557 N 0.50036 0.57097 0.06503
 N558 N 0.51626 0.59167 0.08477
 C559 C 0.57252 0.62648 0.09610
 N560 N 0.55859 0.63109 0.13079
 N561 N 0.58132 0.64717 0.15328
 C562 C 0.61895 0.65901 0.14189
 N563 N 0.63251 0.65460 0.10714
 N564 N 0.60979 0.63863 0.08470
 C565 C 0.64584 0.67563 0.16657
 N566 N 0.68537 0.68438 0.15510
 N567 N 0.71040 0.69949 0.17674
 C568 C 0.69715 0.70638 0.21086
 N569 N 0.65743 0.69774 0.22244
 N570 N 0.63231 0.68245 0.20074
 C571 C 0.05729 0.89748 0.93082
 N572 N 0.07651 0.90536 0.96244
 N573 N 0.06111 0.92675 0.98123
 C574 C 0.02577 0.94097 0.96924
 N575 N 0.00584 0.93263 0.93810
 N576 N 0.02125 0.91123 0.91927
 C577 C 0.07844 0.87687 0.90741
 N578 N 0.06169 0.87051 0.87417
 N579 N 0.08347 0.85405 0.85140
 C580 C 0.12291 0.84354 0.86098
 N581 N 0.13935 0.84964 0.89436
 N582 N 0.11757 0.86602 0.91712
 C583 C 0.14841 0.82670 0.83541
 N584 N 0.18921 0.81840 0.84452
 N585 N 0.21289 0.80337 0.82150
 C586 C 0.19686 0.79621 0.78836
 N587 N 0.15590 0.80437 0.77926
 N588 N 0.13218 0.81951 0.80230
 C589 C 0.44308 0.10325 0.43042
 N590 N 0.42418 0.09566 0.46232
 N591 N 0.43952 0.07428 0.48116
 C592 C 0.47446 0.05978 0.46896
 N593 N 0.49410 0.06783 0.43754
 N594 N 0.47876 0.08922 0.41865
 C595 C 0.42192 0.12386 0.40702
 N596 N 0.43840 0.13000 0.37362
 N597 N 0.41658 0.14649 0.35090
 C598 C 0.37738 0.15724 0.36072
 N599 N 0.36122 0.15134 0.39427
 N600 N 0.38304 0.13493 0.41697
 C601 C 0.35179 0.17407 0.33523
 N602 N 0.31110 0.18248 0.34452
 N603 N 0.28729 0.19747 0.32154
 C604 C 0.30311 0.20449 0.28826
 N605 N 0.34398 0.19624 0.27900
 N606 N 0.36781 0.18113 0.30199
 C607 C 0.94977 0.39392 0.57236
 N608 N 0.98394 0.40885 0.58479
 N609 N 0.99975 0.42959 0.56507
 C610 C 0.98213 0.43609 0.53216
 N611 N 0.94873 0.42067 0.51939
 N612 N 0.93294 0.39993 0.53904
 C613 C 0.92776 0.37397 0.59610
 N614 N 0.89043 0.36189 0.58472
 N615 N 0.86760 0.34601 0.60719
 C616 C 0.88112 0.34161 0.64195
 N617 N 0.91882 0.35337 0.65331
 N618 N 0.94165 0.36937 0.63079
 C619 C 0.85415 0.32506 0.66665
 N620 N 0.86763 0.31828 0.70084
 N621 N 0.84247 0.30301 0.72256
 C622 C 0.80276 0.29437 0.71097
 N623 N 0.78955 0.30123 0.67684
 N624 N 0.81462 0.31631 0.65518
 C625 C 0.92739 0.56098 0.12910
 N626 N 0.90465 0.53979 0.11437
 N627 N 0.92240 0.52399 0.08852
 C628 C 0.96354 0.52877 0.07648
 N629 N 0.98634 0.54972 0.09165
 N630 N 0.96876 0.56540 0.11759
 C631 C 0.90617 0.58094 0.15355
 N632 N 0.92918 0.60242 0.16716
 N633 N 0.90927 0.62249 0.18557
 C634 C 0.86554 0.62192 0.19096
 N635 N 0.84257 0.60020 0.17791
 N636 N 0.86252 0.58007 0.15954
 C637 C 0.84325 0.64565 0.20763
 N638 N 0.79911 0.64671 0.20962
 N639 N 0.77896 0.66932 0.22171
 C640 C 0.80214 0.69171 0.23219
 N641 N 0.84629 0.69046 0.23065
 N642 N 0.86645 0.66789 0.21857
 C643 C 0.57232 0.43950 0.62878
 N644 N 0.53104 0.43502 0.61711
 N645 N 0.51347 0.45076 0.59124
 C646 C 0.53618 0.47184 0.57630
 N647 N 0.57724 0.47668 0.58849
 N648 N 0.59498 0.46082 0.61427
 C649 C 0.59354 0.41951 0.65318
 N650 N 0.63712 0.42052 0.65943
 N651 N 0.65709 0.40041 0.67785
 C652 C 0.63419 0.37859 0.69069
 N653 N 0.59052 0.37788 0.68502
 N654 N 0.57060 0.39792 0.66656
 C655 C 0.65651 0.35493 0.70749
 N656 N 0.63338 0.33261 0.71826
 N657 N 0.65359 0.31010 0.73046
 C658 C 0.69773 0.30898 0.73232
 N659 N 0.72084 0.33146 0.72202
 N660 N 0.70064 0.35401 0.70981
 C661 C 0.06626 0.06538 0.37476
 N662 N 0.02570 0.07070 0.38769
 N663 N 0.00794 0.05456 0.41291
 C664 C 0.02967 0.03224 0.42595
 N665 N 0.06999 0.02658 0.41250
 N666 N 0.08791 0.04281 0.38729
 C667 C 0.08788 0.08562 0.35110
 N668 N 0.13030 0.08248 0.34132
 N669 N 0.15094 0.10237 0.32322
 C670 C 0.12995 0.12615 0.31436
 N671 N 0.08741 0.12909 0.32370
 N672 N 0.06681 0.10923 0.34174
 C673 C 0.15336 0.14911 0.29714
 N674 N 0.13278 0.17351 0.29121
 N675 N 0.15431 0.19490 0.27752
 C676 C 0.19729 0.19275 0.26928
 N677 N 0.21779 0.16826 0.27489
 N678 N 0.19628 0.14685 0.28866
 C679 C 0.43320 0.93533 0.87488
 N680 N 0.41154 0.95788 0.88746
 N681 N 0.42950 0.97409 0.91266
 C682 C 0.46984 0.96844 0.92605
 N683 N 0.49156 0.94612 0.91298
 N684 N 0.47377 0.93000 0.88776
 C685 C 0.41160 0.91510 0.85121
 N686 N 0.43280 0.89158 0.84166
 N687 N 0.41225 0.87171 0.82360
 C688 C 0.36964 0.87455 0.81446
 N689 N 0.34852 0.89824 0.82351
 N690 N 0.36910 0.91814 0.84163
 C691 C 0.34634 0.85158 0.79717
 N692 N 0.30345 0.85384 0.78857
 N693 N 0.28201 0.83243 0.77472
 C694 C 0.30254 0.80795 0.76914
 N695 N 0.34549 0.80581 0.77750
 N696 N 0.36696 0.82720 0.79126
 C697 C 0.12654 0.94666 0.58831
 N698 N 0.09823 0.96424 0.60482
 N699 N 0.07117 0.97975 0.58506
 C700 C 0.07127 0.97820 0.54808
 N701 N 0.10047 0.96117 0.53164
 N702 N 0.12762 0.94573 0.55134
 C703 C 0.15153 0.92651 0.60975
 N704 N 0.17789 0.90800 0.59275
 N705 N 0.19635 0.88750 0.61138
 C706 C 0.18901 0.88466 0.64769
 N707 N 0.16327 0.90344 0.66485
 N708 N 0.14486 0.92399 0.64621
 C709 C 0.20538 0.86033 0.66726
 N710 N 0.19406 0.85582 0.70254
 N711 N 0.20579 0.83261 0.71931
 C712 C 0.22921 0.81302 0.70148
 N713 N 0.24094 0.81769 0.66632
 N714 N 0.22919 0.84088 0.64951
 C715 C 0.62811 0.56347 0.41802
 N716 N 0.62533 0.56570 0.45480
 N717 N 0.59958 0.54902 0.47375
 C718 C 0.57567 0.52939 0.45674
 N719 N 0.57937 0.52664 0.42001
 N720 N 0.60512 0.54339 0.40097
 C721 C 0.65175 0.58437 0.39701
 N722 N 0.65105 0.58419 0.35999
 N723 N 0.66863 0.60480 0.34112
 C724 C 0.68740 0.62638 0.35857
 N725 N 0.68865 0.62636 0.39557
 N726 N 0.67111 0.60575 0.41442
 C727 C 0.70354 0.65014 0.33789
 N728 N 0.71935 0.67263 0.35540
 N729 N 0.73182 0.69476 0.33666
 C730 C 0.72881 0.69523 0.29972
 N731 N 0.71325 0.67266 0.28229
 N732 N 0.70078 0.65056 0.30098
 C733 C 0.37330 0.05402 0.08851
 N734 N 0.37213 0.05494 0.05154
 N735 N 0.39931 0.03957 0.03179
 C736 C 0.42865 0.02261 0.04818
 N737 N 0.42888 0.02108 0.08516
 N738 N 0.40178 0.03653 0.10498
 C739 C 0.34815 0.07407 0.11001
 N740 N 0.35492 0.07664 0.14645
 N741 N 0.33638 0.09714 0.16510
 C742 C 0.31042 0.11581 0.14798
 N743 N 0.30295 0.11290 0.11170
 N744 N 0.32154 0.09244 0.09305
 C745 C 0.29407 0.14016 0.16750
 N746 N 0.27024 0.15958 0.14972
 N747 N 0.25858 0.18283 0.16645
 C748 C 0.27044 0.18757 0.20155
 N749 N 0.29388 0.16802 0.21941
 N750 N 0.30552 0.14475 0.20273
 C751 C 0.87178 0.43735 0.91802
 N752 N 0.87449 0.43513 0.95481
 N753 N 0.90025 0.45179 0.97377
 C754 C 0.92423 0.47139 0.95677
 N755 N 0.92060 0.47414 0.92003
 N756 N 0.89486 0.45740 0.90099
 C757 C 0.84810 0.41647 0.89701
 N758 N 0.84908 0.41656 0.85999
 N759 N 0.83149 0.39595 0.84113
 C760 C 0.81243 0.37447 0.85859
 N761 N 0.81089 0.37460 0.89558
 N762 N 0.82845 0.39520 0.91442
 C763 C 0.79630 0.35070 0.83793
 N764 N 0.78006 0.32833 0.85545
 N765 N 0.76763 0.30618 0.83673
 C766 C 0.77111 0.30557 0.79983
 N767 N 0.78708 0.32802 0.78239
 N768 N 0.79951 0.35014 0.80104
 C769 C 0.55590 0.07488 0.88889
 N770 N 0.51723 0.07726 0.90649
 N771 N 0.50248 0.05674 0.92711
 C772 C 0.52579 0.03305 0.93111
 N773 N 0.56412 0.03052 0.91292
 N774 N 0.57865 0.05091 0.89186
 C775 C 0.57483 0.09873 0.87000
 N776 N 0.60743 0.09519 0.84547
 N777 N 0.62644 0.11687 0.83006
 C778 C 0.61417 0.14293 0.83902
 N779 N 0.58161 0.14653 0.86365
 N780 N 0.56218 0.12479 0.87874
 C781 C 0.63658 0.16649 0.82231
 N782 N 0.63635 0.19197 0.83786
 N783 N 0.65933 0.21254 0.82321
 C784 C 0.68300 0.20835 0.79234
 N785 N 0.68223 0.18302 0.77668
 N786 N 0.65981 0.16251 0.79138
 C787 C 0.43972 0.57422 0.61447
 N788 N 0.41493 0.55258 0.60389
 N789 N 0.43155 0.53275 0.58297
 C790 C 0.47378 0.53355 0.57215
 N791 N 0.49899 0.55478 0.58373
 N792 N 0.48233 0.57471 0.60460
 C793 C 0.41889 0.59823 0.63171
 N794 N 0.44170 0.62152 0.63915
 N795 N 0.42135 0.64414 0.65115
 C796 C 0.37743 0.64430 0.65570
 N797 N 0.35487 0.62095 0.64859
 N798 N 0.37515 0.59840 0.63678
 C799 C 0.35373 0.66902 0.66785
 N800 N 0.30965 0.66866 0.66827
 N801 N 0.28720 0.69004 0.68093
 C802 C 0.30759 0.71283 0.69351
 N803 N 0.35188 0.71343 0.69266
 N804 N 0.37458 0.69196 0.67981
 C805 C 0.05988 0.42641 0.11455
 N806 N 0.08466 0.44810 0.10410
 N807 N 0.06810 0.46794 0.08317
 C808 C 0.02594 0.46711 0.07222
 N809 N 0.00072 0.44585 0.08368
 N810 N 0.01732 0.42590 0.10455
 C811 C 0.08070 0.40240 0.13179
 N812 N 0.05791 0.37909 0.13920
 N813 N 0.07827 0.35648 0.15122
 C814 C 0.12218 0.35634 0.15581
 N815 N 0.14472 0.37971 0.14871
 N816 N 0.12443 0.40225 0.13689
 C817 C 0.14593 0.33164 0.16799
 N818 N 0.18999 0.33218 0.16884
 N819 N 0.21249 0.31081 0.18147
 C820 C 0.19218 0.28785 0.19357
 N821 N 0.14790 0.28707 0.19231
 N822 N 0.12515 0.30854 0.17951
 C823 C 0.94378 0.92580 0.38896
 N824 N 0.92109 0.94980 0.39186
 N825 N 0.93558 0.97017 0.41297
 C826 C 0.97381 0.96759 0.43128
 N827 N 0.99704 0.94386 0.42738
 N828 N 0.98234 0.92336 0.40671
 C829 C 0.92491 0.90197 0.37002
 N830 N 0.93729 0.87590 0.37897
 N831 N 0.91792 0.85418 0.36382
 C832 C 0.88569 0.85779 0.33891
 N833 N 0.87369 0.88385 0.32971
 N834 N 0.89264 0.90553 0.34519
 C835 C 0.86334 0.83422 0.32216
 N836 N 0.84076 0.83809 0.29088
 N837 N 0.81838 0.81758 0.27614
 C838 C 0.81703 0.79237 0.29211
 N839 N 0.84003 0.78830 0.32335
 N840 N 0.86296 0.80887 0.33803
 C841 C 0.90123 0.58246 0.56273
 N842 N 0.88721 0.55604 0.56349
 N843 N 0.90964 0.53633 0.54650
 C844 C 0.94682 0.54231 0.52810
 N845 N 0.96056 0.56880 0.52698
 N846 N 0.93813 0.58853 0.54397
 C847 C 0.87873 0.60383 0.58385
 N848 N 0.89494 0.62972 0.58487
 N849 N 0.87655 0.64881 0.60589
 C850 C 0.84129 0.64278 0.62669
 N851 N 0.82467 0.61694 0.62544
 N852 N 0.84316 0.59777 0.60439
 C853 C 0.82322 0.66392 0.65095
 N854 N 0.78698 0.65952 0.67149
 N855 N 0.77182 0.67917 0.69369
 C856 C 0.79268 0.70372 0.69620
 N857 N 0.82877 0.70791 0.67564
 N858 N 0.84373 0.68845 0.65349
 C859 C 0.59839 0.41810 0.06270
 N860 N 0.56167 0.41200 0.04373
 N861 N 0.53929 0.43173 0.02669
 C862 C 0.55292 0.45824 0.02797
 N863 N 0.58990 0.46425 0.04660
 N864 N 0.61228 0.44455 0.06363
 C865 C 0.62092 0.39675 0.08380
 N866 N 0.65620 0.40291 0.10463
 N867 N 0.67479 0.38373 0.12561
 C868 C 0.65857 0.35779 0.12650
 N869 N 0.62360 0.35165 0.10541
 N870 N 0.60511 0.37075 0.08446
 C871 C 0.67669 0.33666 0.15072
 N872 N 0.65651 0.31200 0.15294
 N873 N 0.67141 0.29258 0.17518
 C874 C 0.70709 0.29695 0.19615
 N875 N 0.72765 0.32162 0.19395
 N876 N 0.71254 0.34123 0.17165
 C877 C 0.38895 0.91494 0.43755
 N878 N 0.37859 0.94192 0.43337
 N879 N 0.40191 0.96122 0.44999
 C880 C 0.43635 0.95427 0.47137
 N881 N 0.44631 0.92726 0.47600
 N882 N 0.42300 0.90793 0.45936
 C883 C 0.36636 0.89386 0.41642
 N884 N 0.37995 0.86732 0.41819
 N885 N 0.36229 0.84837 0.39672
 C886 C 0.33041 0.85521 0.37271
 N887 N 0.31626 0.88171 0.37123
 N888 N 0.33404 0.90074 0.39272
 C889 C 0.31398 0.83426 0.34768
 N890 N 0.28040 0.83930 0.32437
 N891 N 0.26694 0.81979 0.30135
 C892 C 0.28704 0.79481 0.30074
 N893 N 0.32050 0.78999 0.32403
 N894 N 0.33370 0.80929 0.34703
 C895 C 0.11107 0.08584 0.93791
 N896 N 0.12114 0.05885 0.93341
 N897 N 0.09779 0.03954 0.95001
 C898 C 0.06361 0.04651 0.97167
 N899 N 0.05395 0.07352 0.97664
 N900 N 0.07730 0.09286 0.96002
 C901 C 0.13368 0.10693 0.91679
 N902 N 0.12066 0.13356 0.91907
 N903 N 0.13829 0.15253 0.89758
 C904 C 0.16954 0.14559 0.87302
 N905 N 0.18312 0.11900 0.87104
 N906 N 0.16539 0.09997 0.89255
 C907 C 0.18586 0.16656 0.84795
 N908 N 0.21875 0.16133 0.82402
 N909 N 0.23211 0.18082 0.80094
 C910 C 0.21258 0.20599 0.80087
 N911 N 0.17981 0.21100 0.82478
 N912 N 0.16671 0.19171 0.84784
 C913 C 0.08956 0.92269 0.10390
 N914 N 0.04642 0.92841 0.10744
 N915 N 0.02673 0.94574 0.08444
 C916 C 0.04935 0.95784 0.05694
 N917 N 0.09253 0.95227 0.05367
 N918 N 0.11221 0.93499 0.07663
 C919 C 0.11158 0.90303 0.12836
 N920 N 0.15453 0.89742 0.12365
 N921 N 0.17459 0.87884 0.14446
 C922 C 0.15259 0.86514 0.17091
 N923 N 0.10964 0.87090 0.17595
 N924 N 0.08950 0.88954 0.15505
 C925 C 0.17485 0.84322 0.19158
 N926 N 0.15438 0.82879 0.21831
 N927 N 0.17440 0.80765 0.23472
 C928 C 0.21560 0.80027 0.22504
 N929 N 0.23574 0.81480 0.19838
 N930 N 0.21599 0.83592 0.18219
 C931 C 0.91074 0.41977 0.39650
 N932 N 0.89178 0.42840 0.42799
 N933 N 0.91317 0.44466 0.45106
 C934 C 0.95448 0.45279 0.44368
 N935 N 0.97315 0.44454 0.41185
 N936 N 0.95182 0.42819 0.38880
 C937 C 0.88719 0.40121 0.37170
 N938 N 0.90675 0.39044 0.34159
 N939 N 0.88559 0.37271 0.32019
 C940 C 0.84404 0.36524 0.32810
 N941 N 0.82450 0.37624 0.35800
 N942 N 0.84562 0.39387 0.37936
 C943 C 0.82104 0.34424 0.30659
 N944 N 0.78113 0.33581 0.31756
 N945 N 0.76116 0.31523 0.30064
 C946 C 0.77981 0.30237 0.27169
 N947 N 0.81971 0.31093 0.26039
 N948 N 0.83992 0.33156 0.27747
 C949 C 0.40973 0.07811 0.60353
 N950 N 0.38720 0.06583 0.57618
 N951 N 0.40697 0.04857 0.55325
 C952 C 0.45014 0.04298 0.55664
 N953 N 0.47263 0.05505 0.58422
 N954 N 0.45285 0.07237 0.60718
 C955 C 0.38764 0.09776 0.62799
 N956 N 0.40976 0.11133 0.65457
 N957 N 0.38961 0.12996 0.67550
 C958 C 0.34660 0.13560 0.67062
 N959 N 0.32455 0.12182 0.64428
 N960 N 0.34463 0.10327 0.62343
 C961 C 0.32437 0.15747 0.69140
 N962 N 0.28298 0.16456 0.68248
 N963 N 0.26329 0.18566 0.69878
 C964 C 0.28376 0.20040 0.72505
 N965 N 0.32519 0.19322 0.73427
 N966 N 0.34512 0.17210 0.71778
 C967 C 0.58891 0.58089 0.89642
 N968 N 0.60791 0.57222 0.92787
 N969 N 0.58657 0.55591 0.95092
 C970 C 0.54526 0.54778 0.94356
 N971 N 0.52655 0.55606 0.91176
 N972 N 0.54784 0.57244 0.88873
 C973 C 0.61242 0.59952 0.87168
 N974 N 0.59304 0.61010 0.84137
 N975 N 0.61420 0.62785 0.82001
 C976 C 0.65557 0.63556 0.82816
 N977 N 0.67493 0.62476 0.85826
 N978 N 0.65382 0.60710 0.87957
 C979 C 0.67859 0.65659 0.80669
 N980 N 0.71823 0.66526 0.81798
 N981 N 0.73822 0.68583 0.80106
 C982 C 0.71987 0.69845 0.77180
 N983 N 0.68022 0.68967 0.76019
 N984 N 0.65998 0.66904 0.77728
 C985 C 0.44588 0.40541 0.92227
 N986 N 0.43242 0.40988 0.95705
 N987 N 0.44684 0.43146 0.97583
 C988 C 0.47538 0.44934 0.96066
 N989 N 0.48969 0.44444 0.92617
 N990 N 0.47525 0.42287 0.90732
 C991 C 0.42518 0.38395 0.90012
 N992 N 0.43519 0.38084 0.86422
 N993 N 0.41310 0.36320 0.84343
 C994 C 0.38007 0.34819 0.85781
 N995 N 0.37051 0.35109 0.89375
 N996 N 0.39259 0.36863 0.91450
 C997 C 0.35332 0.33004 0.83504
 N998 N 0.31757 0.31809 0.84967
 N999 N 0.29219 0.30208 0.82950
 C1000 C 0.30134 0.29741 0.79382
 N1001 N 0.33741 0.30915 0.77912
 N1002 N 0.36283 0.32535 0.79934
 C1003 C 0.95041 0.10203 0.07186
 N1004 N 0.93489 0.09541 0.03834
 N1005 N 0.95049 0.07366 0.02042
 C1006 C 0.98235 0.05779 0.03524
 N1007 N 0.99867 0.06484 0.06837
 N1008 N 0.98304 0.08658 0.08635
 C1009 C 0.92836 0.12322 0.09369
 N1010 N 0.94036 0.12814 0.12877
 N1011 N 0.91705 0.14517 0.14971
 C1012 C 0.88080 0.15771 0.13632
 N1013 N 0.86924 0.15304 0.10114
 N1014 N 0.89253 0.13611 0.08025
 C1015 C 0.85295 0.17500 0.15948
 N1016 N 0.81457 0.18452 0.14617
 N1017 N 0.78836 0.19981 0.16681
 C1018 C 0.79930 0.20609 0.20167
 N1019 N 0.83794 0.19677 0.21502
 N1020 N 0.86419 0.18131 0.19435
 C1021 C 0.54903 0.89879 0.57213
 N1022 N 0.51680 0.91448 0.58679
 N1023 N 0.50117 0.93619 0.56873
 C1024 C 0.51709 0.94296 0.53536
 N1025 N 0.54852 0.92683 0.52037
 N1026 N 0.56412 0.90511 0.53836
 C1027 C 0.57117 0.87765 0.59400
 N1028 N 0.60673 0.86456 0.58039
 N1029 N 0.63011 0.84766 0.60127
 C1030 C 0.61892 0.84324 0.63659
 N1031 N 0.58293 0.85598 0.65015
 N1032 N 0.55954 0.87298 0.62923
 C1033 C 0.64685 0.82594 0.65970
 N1034 N 0.63585 0.81979 0.69467
 N1035 N 0.66213 0.80428 0.71526
 C1036 C 0.70055 0.79475 0.70172
 N1037 N 0.71125 0.80088 0.66675
 N1038 N 0.68502 0.81622 0.64620
 C1039 C 0.05367 0.59521 0.42221
 N1040 N 0.06679 0.59090 0.45711
 N1041 N 0.05237 0.56931 0.47591
 C1042 C 0.02418 0.55128 0.46063
 N1043 N 0.01021 0.55601 0.42601
 N1044 N 0.02464 0.57758 0.40714
 C1045 C 0.07439 0.61668 0.40007
 N1046 N 0.06457 0.61971 0.36413
 N1047 N 0.08669 0.63736 0.34336
 C1048 C 0.11957 0.65246 0.35780
 N1049 N 0.12895 0.64963 0.39379
 N1050 N 0.10683 0.63208 0.41452
 C1051 C 0.14637 0.67062 0.33505
 N1052 N 0.18193 0.68273 0.34977
 N1053 N 0.20734 0.69875 0.32962
 C1054 C 0.19841 0.70327 0.29387
 N1055 N 0.16253 0.69137 0.27908
 N1056 N 0.13708 0.67516 0.29928
   
