data_POSCAR
  _audit_creation_date              2014-09-24
  _audit_creation_method            'ToBaCCo'
  _symmetry_space_group_name_H-M    'P1'
  _symmetry_Int_Tables_number       1
  _symmetry_cell_setting            triclinic
  loop_
  _symmetry_equiv_pos_as_xyz
 x,y,z
_cell_length_a 30.5595
_cell_length_b 30.0418
_cell_length_c 30.2506
_cell_angle_alpha 91.269300
_cell_angle_beta 86.842000
_cell_angle_gamma 88.835200
loop_
  _atom_site_label
  _atom_site_type_symbol
  _atom_site_fract_x
  _atom_site_fract_y
  _atom_site_fract_z
C1 C 0.19292 0.54368 1.05774
 H2 H 0.19935 0.57477 1.04148
 C3 C 0.16736 0.54348 1.09745
 H4 H 0.15328 0.57467 1.11075
 C5 C 0.20080 0.46509 1.05801
 H6 H 0.21376 0.43459 1.04223
 C7 C 0.17549 0.46331 1.09763
 H8 H 0.17009 0.43119 1.11230
 N9 N 0.20950 0.50486 1.03929
 C10 C 0.28902 0.57610 0.94353
 H11 H 0.27511 0.56384 0.91374
 C12 C 0.31949 0.61024 0.94069
 H13 H 0.32925 0.62335 0.90865
 C14 C 0.29618 0.57205 1.02090
 H15 H 0.28771 0.55656 1.05203
 C16 C 0.32629 0.60635 1.01962
 H17 H 0.34106 0.61678 1.04979
 Zn18 Zn 0.24521 0.50406 0.98640
 N19 N 0.27893 0.55682 0.98306
 C20 C 0.22744 0.49143 0.89571
 N21 N 0.20941 0.49864 0.93749
 C22 C 0.16521 0.50207 0.94547
 C23 C 0.13735 0.49900 0.91066
 C24 C 0.20067 0.48735 0.85997
 C25 C 0.31010 0.45412 1.02393
 C26 C 0.34234 0.42113 1.02702
 C27 C 0.31985 0.38802 0.95859
 C28 C 0.28730 0.42125 0.95729
 N29 N 0.28434 0.45455 0.98870
 H30 H 0.26266 0.48863 0.89012
 H31 H 0.15143 0.50773 0.97881
 H32 H 0.10224 0.50254 0.91734
 H33 H 0.21526 0.48135 0.82687
 H34 H 0.30620 0.47999 1.04927
 H35 H 0.36382 0.42216 1.05432
 H36 H 0.32370 0.36310 0.93217
 H37 H 0.26535 0.42084 0.93059
 C38 C 0.33913 0.62508 0.97898
 C39 C 0.15903 0.50294 1.11868
 C40 C 0.34867 0.38890 0.99299
 C41 C 0.15513 0.49211 0.86733
 C42 C 0.83157 0.52522 -0.02350
 H43 H 0.82516 0.55420 -0.00207
 C44 C 0.86386 0.52642 -0.05777
 H45 H 0.88095 0.55713 -0.06364
 C46 C 0.81588 0.45055 -0.04264
 H47 H 0.79730 0.42092 -0.03629
 C48 C 0.84941 0.44960 -0.07594
 H49 H 0.85616 0.41921 -0.09524
 N50 N 0.80747 0.48812 -0.01741
 C51 C 0.69107 0.54105 0.05968
 H52 H 0.68899 0.51768 0.08638
 C53 C 0.65760 0.57315 0.05591
 H54 H 0.62964 0.57424 0.07953
 C55 C 0.72787 0.56574 -0.00597
 H56 H 0.75376 0.56163 -0.03146
 C57 C 0.69570 0.59863 -0.01053
 H58 H 0.69760 0.61972 -0.03914
 Zn59 Zn 0.76508 0.48789 0.03040
 N60 N 0.72498 0.53740 0.02852
 C61 C 0.79274 0.52323 0.11247
 N62 N 0.79696 0.48923 0.08195
 C63 C 0.82883 0.45718 0.08384
 C64 C 0.85910 0.45927 0.11654
 C65 C 0.82256 0.52667 0.14579
 C66 C 0.70540 0.43275 -0.00756
 C67 C 0.67657 0.39758 -0.01057
 C68 C 0.70596 0.36682 0.05507
 C69 C 0.73382 0.40302 0.05726
 N70 N 0.73239 0.43546 0.02662
 H71 H 0.76784 0.54891 0.10962
 H72 H 0.83199 0.43115 0.05851
 H73 H 0.88567 0.43483 0.11643
 H74 H 0.82060 0.55501 0.16862
 H75 H 0.70501 0.45905 -0.03140
 H76 H 0.65327 0.39722 -0.03630
 H77 H 0.70559 0.34232 0.08081
 H78 H 0.75518 0.40599 0.08438
 C79 C 0.65931 0.60153 0.01973
 C80 C 0.87397 0.48791 -0.08385
 C81 C 0.67584 0.36498 0.02179
 C82 C 0.85665 0.49489 0.14717
 C83 C -0.04409 0.30918 0.43602
 H84 H -0.07379 0.31171 0.45719
 C85 C -0.03774 0.33861 0.40133
 H86 H -0.06279 0.36365 0.39590
 C87 C 0.02608 0.27583 0.41969
 H88 H 0.05132 0.25211 0.42764
 C89 C 0.03443 0.30567 0.38564
 H90 H 0.06593 0.30442 0.36732
 N91 N -0.01239 0.27862 0.44460
 C92 C -0.07980 0.18183 0.52891
 H93 H -0.05747 0.17947 0.55534
 C94 C -0.11548 0.15348 0.52778
 H95 H -0.12030 0.12884 0.55310
 C96 C -0.09914 0.21451 0.46191
 H97 H -0.09202 0.23696 0.43530
 C98 C -0.13562 0.18748 0.46000
 H99 H -0.15622 0.18949 0.43207
 Zn100 Zn -0.02003 0.24507 0.49671
 N101 N -0.07189 0.21113 0.49588
 C102 C -0.05602 0.28794 0.57670
 N103 N -0.02314 0.28690 0.54441
 C104 C 0.00920 0.31733 0.54393
 C105 C 0.00970 0.35024 0.57703
 C106 C -0.05665 0.32033 0.61072
 C107 C 0.03645 0.17258 0.47095
 C108 C 0.07319 0.14423 0.47240
 C109 C 0.09385 0.18423 0.53792
 C110 C 0.05662 0.21167 0.53540
 N111 N 0.02915 0.20591 0.50184
 H112 H -0.08169 0.26377 0.57616
 H113 H 0.03471 0.31592 0.51764
 H114 H 0.03569 0.37426 0.57627
 H115 H -0.08261 0.32080 0.63659
 H116 H 0.01395 0.16843 0.44486
 H117 H 0.07892 0.11803 0.44746
 H118 H 0.11567 0.18930 0.56452
 H119 H 0.04995 0.23771 0.56017
 C120 C -0.14314 0.15554 0.49240
 C121 C 0.00270 0.33835 0.37702
 C122 C 0.10262 0.15044 0.50583
 C123 C -0.02359 0.35207 0.61076
 C124 C 0.97322 0.69738 0.55986
 H125 H 0.94953 0.69923 0.53463
 C126 C 0.96985 0.66465 0.59158
 H127 H 0.94337 0.64124 0.59111
 C128 C 1.03762 0.72480 0.59039
 H129 H 1.06450 0.74760 0.58903
 C130 C 1.03535 0.69258 0.62299
 H131 H 1.06024 0.69082 0.64707
 N132 N 1.00659 0.72663 0.55988
 C133 C 0.95359 0.83182 0.48227
 H134 H 0.97852 0.83271 0.45549
 C135 C 0.91605 0.85870 0.48137
 H136 H 0.91216 0.88072 0.45391
 C137 C 0.92831 0.80205 0.55080
 H138 H 0.93350 0.78016 0.57796
 C139 C 0.89048 0.82901 0.55159
 H140 H 0.86681 0.82816 0.57954
 Zn141 Zn 1.00853 0.76579 0.51238
 N142 N 0.95852 0.80349 0.51608
 C143 C 0.97459 0.72975 0.43386
 N144 N 1.00856 0.72917 0.46116
 C145 C 1.04161 0.69820 0.45595
 C146 C 1.04087 0.66544 0.42277
 C147 C 0.97261 0.69755 0.40016
 C148 C 1.06552 0.82845 0.54659
 C149 C 1.10146 0.85645 0.54588
 C150 C 1.12280 0.82808 0.47226
 C151 C 1.08670 0.80043 0.47447
 N152 N 1.05900 0.80101 0.51129
 H153 H 0.94788 0.75359 0.43946
 H154 H 1.06761 0.69801 0.47881
 H155 H 1.06641 0.63984 0.41983
 H156 H 0.94464 0.69696 0.37967
 H157 H 1.04243 0.82894 0.57503
 H158 H 1.10610 0.87873 0.57380
 H159 H 1.14421 0.82801 0.44251
 H160 H 1.08027 0.77941 0.44626
 C161 C 0.88377 0.85701 0.51606
 C162 C 1.00115 0.66220 0.62347
 C163 C 1.13039 0.85638 0.50829
 C164 C 1.00553 0.66452 0.39528
 C165 C 0.43926 0.02495 0.29258
 H166 H 0.46004 0.05327 0.28721
 C167 C 0.40345 0.02838 0.32313
 H168 H 0.39671 0.05942 0.34138
 C169 C 0.42435 -0.05083 0.27721
 H170 H 0.43348 -0.08190 0.26011
 C171 C 0.38830 -0.04894 0.30790
 H172 H 0.36946 -0.07852 0.31410
 N173 N 0.44899 -0.01414 0.27032
 C174 C 0.54370 -0.08797 0.18496
 H175 H 0.57191 -0.08095 0.20380
 C176 C 0.54745 -0.11929 0.14978
 H177 H 0.57800 -0.13778 0.14334
 C178 C 0.46959 -0.07271 0.17056
 H179 H 0.43972 -0.05338 0.17786
 C180 C 0.47170 -0.10405 0.13574
 H181 H 0.44302 -0.10857 0.11672
 Zn182 Zn 0.50146 -0.01511 0.23415
 N183 N 0.50533 -0.06492 0.19414
 C184 C 0.55477 -0.05310 0.29657
 N185 N 0.54752 -0.01519 0.27405
 C186 C 0.56878 0.02287 0.28388
 C187 C 0.60116 0.02279 0.31459
 C188 C 0.58572 -0.05415 0.32895
 C189 C 0.46344 0.05219 0.18467
 C190 C 0.46243 0.08983 0.15842
 C191 C 0.54088 0.09447 0.16227
 C192 C 0.54066 0.05528 0.18609
 N193 N 0.50212 0.03631 0.19884
 H194 H 0.53584 -0.08231 0.28994
 H195 H 0.55991 0.05388 0.26914
 H196 H 0.61836 0.05320 0.32111
 H197 H 0.59037 -0.08427 0.34730
 H198 H 0.43338 0.03525 0.19332
 H199 H 0.43156 0.10098 0.14611
 H200 H 0.57186 0.11009 0.15433
 H201 H 0.57138 0.04025 0.19469
 C202 C 0.51157 -0.12650 0.12352
 C203 C 0.37766 -0.00890 0.33119
 C204 C 0.50130 0.11267 0.14841
 C205 C 0.61035 -0.01619 0.33731
 C206 C 0.56081 -0.03952 0.71467
 H207 H 0.55864 -0.06695 0.73711
 C208 C 0.59515 -0.03892 0.68211
 H209 H 0.61944 -0.06575 0.67976
 C210 C 0.53139 0.02812 0.68882
 H211 H 0.50620 0.05402 0.69157
 C212 C 0.56489 0.02982 0.65566
 H213 H 0.56550 0.05705 0.63276
 N214 N 0.53002 -0.00601 0.71767
 C215 C 0.45143 -0.08446 0.80287
 H216 H 0.42208 -0.08075 0.78480
 C217 C 0.45602 -0.12055 0.83114
 H218 H 0.43020 -0.14463 0.83426
 C219 C 0.52065 -0.05771 0.82109
 H220 H 0.54583 -0.03311 0.81694
 C221 C 0.52683 -0.09336 0.84893
 H222 H 0.55754 -0.09635 0.86482
 Zn223 Zn 0.48188 -0.00442 0.76026
 N224 N 0.48395 -0.05433 0.79791
 C225 C 0.42402 -0.03748 0.69943
 N226 N 0.43071 -0.00235 0.72724
 C227 C 0.40637 0.03604 0.72559
 C228 C 0.37495 0.04067 0.69402
 C229 C 0.39300 -0.03419 0.66732
 C230 C 0.52339 0.07023 0.79677
 C231 C 0.52731 0.10655 0.82583
 C232 C 0.45272 0.09575 0.85353
 C233 C 0.45066 0.05888 0.82491
 N234 N 0.48543 0.04729 0.79676
 H235 H 0.44467 -0.06708 0.70045
 H236 H 0.41329 0.06431 0.74649
 H237 H 0.35758 0.07219 0.69132
 H238 H 0.38963 -0.06141 0.64375
 H239 H 0.55122 0.05949 0.77530
 H240 H 0.55828 0.12335 0.82672
 H241 H 0.42462 0.10469 0.87554
 H242 H 0.42131 0.03933 0.82514
 C243 C 0.49432 -0.12550 0.85453
 C244 C 0.59736 -0.00381 0.65234
 C245 C 0.49147 0.12008 0.85431
 C246 C 0.36903 0.00571 0.66375
 Si247 Si 0.25697 0.01250 0.50044
 Si248 Si 0.73490 -0.00503 0.49288
 Si249 Si 0.50685 0.25955 1.00778
 Si250 Si 0.51098 0.73201 -0.02989
 Si251 Si 1.01474 0.50462 0.26561
 Si252 Si 0.00129 0.50264 0.74965
 C253 C 0.17069 0.04677 0.52056
 C254 C 0.13551 0.07686 0.52023
 C255 C 0.14180 0.12080 0.50771
 C256 C 0.18493 0.13525 0.49746
 C257 C 0.22096 0.10448 0.49786
 C258 C 0.21338 0.05886 0.50667
 C259 C 0.26320 0.12060 0.48868
 N260 N 0.26884 0.16392 0.47853
 N261 N 0.23502 0.19237 0.47705
 C262 C 0.19328 0.17952 0.48605
 H263 H 0.16384 0.01358 0.53159
 H264 H 0.10290 0.06565 0.52969
 H265 H 0.29173 0.09935 0.48945
 H266 H 0.16708 0.20404 0.48425
 C267 C 0.57534 0.69625 0.02490
 C268 C 0.60888 0.66697 0.03631
 C269 C 0.62082 0.62961 0.00941
 C270 C 0.59713 0.62038 -0.02856
 C271 C 0.56384 0.65052 -0.04082
 C272 C 0.55339 0.68939 -0.01410
 C273 C 0.54162 0.63997 -0.07922
 N274 N 0.55176 0.60200 -0.10291
 N275 N 0.58254 0.57352 -0.09093
 C276 C 0.60539 0.58126 -0.05455
 H277 H 0.56744 0.72520 0.04601
 H278 H 0.62639 0.67411 0.06573
 H279 H 0.51559 0.66071 -0.09037
 H280 H 0.62932 0.55636 -0.04604
 C281 C 0.81999 -0.03638 0.50912
 C282 C 0.85356 -0.06708 0.51407
 C283 C 0.84523 -0.11246 0.51615
 C284 C 0.80135 -0.12696 0.51587
 C285 C 0.76666 -0.09527 0.51162
 C286 C 0.77654 -0.04964 0.50570
 C287 C 0.72362 -0.11091 0.51104
 N288 N 0.71607 -0.15507 0.51409
 N289 N 0.74861 -0.18474 0.51734
 C290 C 0.79095 -0.17227 0.51801
 H291 H 0.82893 -0.00191 0.50800
 H292 H 0.88676 -0.05527 0.51543
 H293 H 0.69593 -0.08878 0.50741
 H294 H 0.81596 -0.19798 0.51990
 C295 C 0.41994 0.28546 0.99565
 C296 C 0.38341 0.31361 0.99346
 C297 C 0.38821 0.35964 0.99125
 C298 C 0.43073 0.37742 0.98723
 C299 C 0.46820 0.34889 0.98941
 C300 C 0.46233 0.30244 0.99719
 C301 C 0.50949 0.36833 0.98183
 N302 N 0.51286 0.41256 0.97497
 N303 N 0.47771 0.43916 0.97407
 C304 C 0.43683 0.42309 0.97950
 H305 H 0.41469 0.25008 0.99887
 H306 H 0.35104 0.29948 0.99498
 H307 H 0.53935 0.34951 0.97890
 H308 H 0.40962 0.44615 0.97657
 C309 C 0.75857 0.08366 0.51464
 C310 C 0.78761 0.11887 0.51636
 C311 C 0.82404 0.12063 0.48633
 C312 C 0.82992 0.08764 0.45222
 C313 C 0.79998 0.05227 0.44999
 C314 C 0.76569 0.04859 0.48357
 C315 C 0.80711 0.02046 0.41541
 N316 N 0.84201 0.02323 0.38608
 N317 N 0.87074 0.05565 0.38902
 C318 C 0.86610 0.08771 0.42118
 H319 H 0.73167 0.08287 0.53935
 H320 H 0.78238 0.14427 0.54220
 H321 H 0.78555 -0.00658 0.41119
 H322 H 0.89107 0.11255 0.42219
 C323 C 0.45488 0.66121 -0.01076
 C324 C 0.41681 0.63695 -0.00861
 C325 C 0.37785 0.65422 -0.02400
 C326 C 0.37740 0.69779 -0.04119
 C327 C 0.41661 0.72283 -0.04336
 C328 C 0.45622 0.70361 -0.02926
 C329 C 0.41421 0.76663 -0.05849
 N330 N 0.37566 0.78370 -0.07143
 N331 N 0.33920 0.76014 -0.06981
 C332 C 0.33869 0.71789 -0.05494
 H333 H 0.48335 0.64606 0.00279
 H334 H 0.41790 0.60395 0.00512
 H335 H 0.44225 0.78781 -0.05949
 H336 H 0.30792 0.70073 -0.05342
 C337 C 0.19363 -0.04449 0.47097
 C338 C 0.16341 -0.07832 0.47323
 C339 C 0.16605 -0.11123 0.50493
 C340 C 0.20234 -0.11242 0.53204
 C341 C 0.23411 -0.07855 0.52874
 C342 C 0.22707 -0.04192 0.50084
 C343 C 0.27232 -0.08410 0.55197
 N344 N 0.27658 -0.11895 0.57927
 N345 N 0.24562 -0.14926 0.58420
 C346 C 0.20876 -0.14735 0.56133
 H347 H 0.18901 -0.01843 0.44736
 H348 H 0.13659 -0.07774 0.45124
 H349 H 0.29979 -0.06264 0.54724
 H350 H 0.18536 -0.17366 0.56547
 C351 C 0.59727 0.27609 0.99066
 C352 C 0.63543 0.30062 0.99300
 C353 C 0.63846 0.33460 1.02508
 C354 C 0.60324 0.34275 1.05678
 C355 C 0.56449 0.31787 1.05450
 C356 C 0.56076 0.28570 1.01959
 C357 C 0.52981 0.32825 1.08580
 N358 N 0.53370 0.36086 1.11688
 N359 N 0.56990 0.38443 1.11867
 C360 C 0.60462 0.37678 1.08957
 H361 H 0.59565 0.25094 0.96469
 H362 H 0.66221 0.29417 0.96859
 H363 H 0.49945 0.31139 1.08577
 H364 H 0.63263 0.39774 1.09233
 C365 C 0.53497 0.18899 1.05624
 C366 C 0.53422 0.15458 1.08590
 C367 C 0.50157 0.15275 1.12004
 C368 C 0.46996 0.18820 1.12505
 C369 C 0.46900 0.22220 1.09283
 C370 C 0.50166 0.22186 1.05729
 C371 C 0.43613 0.25554 1.09861
 N372 N 0.40745 0.25577 1.13441
 N373 N 0.40943 0.22501 1.16522
 C374 C 0.43992 0.19160 1.16202
 H375 H 0.56087 0.18811 1.03024
 H376 H 0.55895 0.12834 1.08106
 H377 H 0.43377 0.28264 1.07652
 H378 H 0.44089 0.16873 1.18899
 C379 C 0.00669 0.54797 0.66965
 C380 C 0.00825 0.58312 0.64075
 C381 C -0.00120 0.62650 0.65602
 C382 C -0.01477 0.63452 0.70090
 C383 C -0.01792 0.59836 0.73044
 C384 C -0.00450 0.55460 0.71512
 C385 C -0.03569 0.60780 0.77345
 N386 N -0.04678 0.65016 0.78663
 N387 N -0.04203 0.68407 0.75939
 C388 C -0.02665 0.67767 0.71687
 H389 H 0.01669 0.51545 0.65621
 H390 H 0.01793 0.57651 0.60618
 H391 H -0.04300 0.58231 0.79621
 H392 H -0.02446 0.70628 0.69586
 C393 C 0.50901 0.75214 -0.11847
 C394 C 0.49637 0.79155 -0.13879
 C395 C 0.50331 0.83377 -0.11967
 C396 C 0.52619 0.83586 -0.08052
 C397 C 0.55700 0.79081 -0.07076
 C398 C 0.53538 0.75256 -0.08200
 C399 C 0.59528 0.78994 -0.03160
 N400 N 0.59854 0.83510 -0.00266
 N401 N 0.56171 0.88459 -0.01395
 C402 C 0.52759 0.88282 -0.05101
 H403 H 0.49485 0.72134 -0.12929
 H404 H 0.47853 0.78879 -0.16864
 H405 H 0.61415 0.76042 -0.02452
 H406 H 0.50752 0.91170 -0.05772
 C407 C 0.99134 0.41556 0.28467
 C408 C 0.98631 0.37893 0.31176
 C409 C 1.01228 0.37318 0.34807
 C410 C 1.04484 0.40492 0.35656
 C411 C 1.04920 0.44277 0.32939
 C412 C 1.02023 0.44948 0.29470
 C413 C 1.08144 0.47356 0.33922
 N414 N 1.10644 0.46788 0.37433
 N415 N 1.10122 0.43344 0.40078
 C416 C 1.07115 0.40205 0.39340
 H417 H 0.97109 0.41789 0.25666
 H418 H 0.96176 0.35473 0.30430
 H419 H 1.08729 0.50191 0.31939
 H420 H 1.06787 0.37573 0.41694
 C421 C 0.47951 0.78333 0.04460
 C422 C 0.48137 0.81332 0.08069
 C423 C 0.51431 0.84502 0.08562
 C424 C 0.54484 0.85124 0.04989
 C425 C 0.53193 0.82446 -0.00152
 C426 C 0.50529 0.78574 0.00503
 C427 C 0.59895 0.85682 -0.06686
 N428 N 0.63013 0.88938 -0.03885
 N429 N 0.62569 0.90130 0.01105
 C430 C 0.59129 0.88768 0.05235
 H431 H 0.45709 0.75606 0.04858
 H432 H 0.45784 0.80856 0.10825
 H433 H 0.60718 0.84736 -0.10139
 H434 H 0.59669 0.90384 0.08361
 C435 C 0.01842 0.42011 0.70433
 C436 C 0.01334 0.38654 0.67282
 C437 C -0.02263 0.38673 0.64625
 C438 C -0.05477 0.42129 0.65216
 C439 C -0.05008 0.45537 0.68487
 C440 C -0.01254 0.45504 0.71094
 C441 C -0.08270 0.48930 0.68918
 N442 N -0.11684 0.48921 0.66242
 N443 N -0.12067 0.45769 0.63137
 C444 C -0.09079 0.42388 0.62521
 H445 H 0.04774 0.41887 0.72257
 H446 H 0.03842 0.36054 0.66839
 H447 H -0.08186 0.51577 0.71379
 H448 H -0.09538 0.39965 0.59905
 C449 C 0.48758 0.17795 0.96586
 C450 C 0.48377 0.14659 0.93210
 C451 C 0.49569 0.15622 0.88818
 C452 C 0.51117 0.19932 0.87830
 C453 C 0.51666 0.23105 0.91325
 C454 C 0.50556 0.21990 0.95791
 C455 C 0.53214 0.27315 0.90183
 N456 N 0.54071 0.28315 0.85879
 N457 N 0.53456 0.25390 0.82616
 C458 C 0.51988 0.21249 0.83440
 H459 H 0.47533 0.16873 0.99843
 H460 H 0.47114 0.11424 0.94056
 H461 H 0.53754 0.29823 0.92647
 H462 H 0.51444 0.19068 0.80647
 C463 C 1.00706 0.59541 0.29046
 C464 C 1.00721 0.63189 0.31959
 C465 C 1.00067 0.62614 0.36512
 C466 C 0.98888 0.58400 0.38128
 C467 C 0.98726 0.54717 0.35141
 C468 C 1.00169 0.55219 0.30628
 C469 C 0.96923 0.50769 0.36782
 N470 N 0.95803 0.50419 0.41157
 N471 N 0.96246 0.53796 0.44005
 C472 C 0.97719 0.57786 0.42639
 H473 H 1.01476 0.60081 0.25575
 H474 H 1.01441 0.66447 0.30672
 H475 H 0.96149 0.48042 0.34638
 H476 H 0.97855 0.60461 0.45075
 C477 C 1.06866 0.46990 0.19670
 C478 C 1.10037 0.46875 0.16210
 C479 C 1.13229 0.50164 0.15840
 C480 C 1.13488 0.53317 0.19403
 C481 C 1.10216 0.53450 0.22955
 C482 C 1.06723 0.50373 0.22933
 C483 C 1.10657 0.56601 0.26402
 N484 N 1.14130 0.59333 0.26356
 N485 N 1.17251 0.59109 0.23117
 C486 C 1.17083 0.56164 0.19684
 H487 H 1.04318 0.44534 0.19619
 H488 H 1.09738 0.44375 0.13614
 H489 H 1.08438 0.56816 0.29256
 H490 H 1.19838 0.55994 0.17288
 C491 C 0.65130 -0.01160 0.53774
 C492 C 0.62027 -0.01151 0.57312
 C493 C 0.63220 -0.00316 0.61633
 C494 C 0.67651 0.00553 0.62404
 C495 C 0.70836 0.00591 0.58786
 C496 C 0.69545 -0.00221 0.54384
 C497 C 0.75199 0.01445 0.59745
 N498 N 0.76262 0.02239 0.63979
 N499 N 0.73266 0.02239 0.67342
 C500 C 0.69000 0.01436 0.66700
 H501 H 0.64020 -0.02038 0.50554
 H502 H 0.58657 -0.01881 0.56676
 H503 H 0.77780 0.01562 0.57195
 H504 H 0.66704 0.01507 0.69553
 C505 C -0.07382 0.47535 0.80063
 C506 C -0.10217 0.47112 0.83774
 C507 C -0.09191 0.48868 0.87906
 C508 C -0.05103 0.50951 0.88295
 C509 C -0.02417 0.51787 0.84433
 C510 C -0.03555 0.50010 0.80234
 C511 C 0.01259 0.54474 0.84937
 N512 N 0.02431 0.55737 0.89027
 N513 N 0.00139 0.54562 0.92665
 C514 C -0.03577 0.52207 0.92441
 H515 H -0.08280 0.45931 0.77040
 H516 H -0.13283 0.45440 0.83380
 H517 H 0.03148 0.55701 0.82132
 H518 H -0.05282 0.51308 0.95507
 C519 C 0.32033 -0.02808 0.44174
 C520 C 0.34792 -0.03358 0.40384
 C521 C 0.34276 -0.00672 0.36725
 C522 C 0.30677 0.02390 0.36766
 C523 C 0.27849 0.02942 0.40649
 C524 C 0.28721 0.00501 0.44465
 C525 C 0.24182 0.05830 0.40698
 N526 N 0.23537 0.08138 0.36838
 N527 N 0.26281 0.07650 0.33104
 C528 C 0.29794 0.04843 0.33012
 H529 H 0.32653 -0.04838 0.46995
 H530 H 0.37487 -0.05758 0.40390
 H531 H 0.22415 0.08128 0.38802
 H532 H 0.31819 0.04491 0.29973
 C533 C 0.06050 0.45852 0.80123
 C534 C 0.09357 0.45767 0.83095
 C535 C 0.12555 0.49034 0.83029
 C536 C 0.12666 0.52190 0.79616
 C537 C 0.09426 0.52108 0.76423
 C538 C 0.05833 0.49197 0.76972
 C539 C 0.09910 0.54989 0.72859
 N540 N 0.13135 0.58022 0.72720
 N541 N 0.15947 0.58344 0.75908
 C542 C 0.15820 0.55541 0.79357
 H543 H 0.03421 0.43510 0.80562
 H544 H 0.09266 0.43289 0.85645
 H545 H 0.07947 0.54701 0.70066
 H546 H 0.18186 0.55976 0.81843
 C547 C 0.67069 0.02104 0.43655
 C548 C 0.64136 0.01898 0.40314
 C549 C 0.64359 -0.01589 0.37159
 C550 C 0.67766 -0.04857 0.37307
 C551 C 0.70709 -0.04727 0.40811
 C552 C 0.70240 -0.01261 0.44132
 C553 C 0.74120 -0.07953 0.40679
 N554 N 0.74513 -0.11083 0.37381
 N555 N 0.71769 -0.11188 0.34124
 C556 C 0.68453 -0.08156 0.33943
 H557 H 0.66719 0.04867 0.46022
 H558 H 0.61612 0.04476 0.40241
 H559 H 0.76649 -0.07899 0.42966
 H560 H 0.66472 -0.08306 0.31101
 C561 C 0.92678 0.49146 0.24541
 C562 C 0.89098 0.48796 0.21903
 C563 C 0.89369 0.50241 0.17546
 C564 C 0.93197 0.52352 0.15900
 C565 C 0.96805 0.52826 0.18622
 C566 C 0.96668 0.50848 0.22874
 C567 C 1.00317 0.55403 0.17000
 N568 N 1.00356 0.57035 0.12857
 N569 N 0.97077 0.56358 0.10226
 C570 C 0.93490 0.54093 0.11610
 H571 H 0.92347 0.47941 0.27882
 H572 H 0.86130 0.47293 0.23237
 H573 H 1.02953 0.56321 0.18998
 H574 H 0.90876 0.53742 0.09367
 C575 C 0.27332 0.01439 0.59063
 C576 C 0.29792 0.01043 0.62790
 C577 C 0.34354 0.01330 0.62428
 C578 C 0.36453 0.02375 0.58305
 C579 C 0.33954 0.02866 0.54510
 C580 C 0.29358 0.02077 0.54848
 C581 C 0.36185 0.04207 0.50580
 N582 N 0.40579 0.04778 0.50421
 N583 N 0.42922 0.04162 0.53940
 C584 C 0.41012 0.02999 0.57877
 H585 H 0.23827 0.00962 0.59439
 H586 H 0.28138 0.00353 0.65953
 H587 H 0.34526 0.04972 0.47659
 H588 H 0.43074 0.02632 0.60644
   
