data_POSCAR
  _audit_creation_date              2014-09-24
  _audit_creation_method            'ToBaCCo'
  _symmetry_space_group_name_H-M    'P1'
  _symmetry_Int_Tables_number       1
  _symmetry_cell_setting            triclinic
  loop_
  _symmetry_equiv_pos_as_xyz
 x,y,z
_cell_length_a 34.6815
_cell_length_b 34.5687
_cell_length_c 34.5309
_cell_angle_alpha 89.938700
_cell_angle_beta 90.005600
_cell_angle_gamma 89.939400
loop_
  _atom_site_label
  _atom_site_type_symbol
  _atom_site_fract_x
  _atom_site_fract_y
  _atom_site_fract_z
C1 C 0.18747 1.23639 0.18770
 N2 N 0.21962 1.21985 0.17239
 C3 C 0.23555 1.18781 0.18870
 N4 N 0.21888 1.17216 0.22067
 C5 C 0.18671 1.18818 0.23651
 N6 N 0.17128 1.22028 0.21976
 C7 C 0.81423 0.76284 0.18803
 N8 N 0.78192 0.77876 0.17237
 C9 C 0.76538 0.81063 0.18830
 N10 N 0.78158 0.82675 0.22025
 C11 C 0.81389 0.81135 0.23644
 N12 N 0.82994 0.77939 0.22006
 C13 C 0.81144 1.23618 -0.18806
 N14 N 0.77949 1.22004 -0.17205
 C15 C 0.76317 1.18801 -0.18781
 N16 N 0.77931 1.17200 -0.21987
 C17 C 0.81134 1.18765 -0.23633
 N18 N 0.82718 1.21977 -0.22012
 C19 C 0.18703 0.76436 -0.18884
 N20 N 0.17122 0.78099 -0.22083
 C21 C 0.18700 0.81316 -0.23706
 N22 N 0.21914 0.82868 -0.22076
 C23 C 0.23545 0.81249 -0.18885
 N24 N 0.21918 0.78041 -0.17306
 C25 C 0.55873 1.05240 -0.01048
 H26 H 0.55945 1.05220 0.02084
 C27 C 0.58523 1.07468 -0.03117
 H28 H 0.60637 1.09184 -0.01578
 C29 C 0.53117 1.02925 -0.06890
 H30 H 0.51064 1.01085 -0.08349
 C31 C 0.55720 1.05110 -0.09072
 H32 H 0.55642 1.04974 -0.12205
 N33 N 0.53233 1.03038 -0.02950
 C34 C 0.44110 1.01026 0.05498
 H35 H 0.44046 0.97897 0.05489
 C36 C 0.41456 1.03093 0.07723
 H37 H 0.39344 1.01556 0.09449
 C38 C 0.46849 1.06862 0.03152
 H39 H 0.48895 1.08319 0.01300
 C40 C 0.44241 1.09041 0.05334
 H41 H 0.44308 1.12170 0.05183
 Zn42 Zn 0.49986 0.99875 0.00107
 N43 N 0.46742 1.02926 0.03281
 C44 C 0.53149 0.96821 0.07090
 N45 N 0.53242 0.96702 0.03150
 C46 C 0.55872 0.94493 0.01235
 C47 C 0.58537 0.92267 0.03292
 C48 C 0.55768 0.94637 0.09259
 C49 C 0.44088 0.98757 -0.05259
 C50 C 0.41428 0.96708 -0.07489
 C51 C 0.44215 0.90741 -0.05133
 C52 C 0.46829 0.92904 -0.02945
 N53 N 0.46725 0.96840 -0.03057
 H54 H 0.51104 0.98666 0.08557
 H55 H 0.55925 0.94509 -0.01898
 H56 H 0.60646 0.90548 0.01743
 H57 H 0.55712 0.94780 0.12393
 H58 H 0.44026 1.01886 -0.05238
 H59 H 0.39316 0.98258 -0.09206
 H60 H 0.44282 0.87611 -0.04999
 H61 H 0.48879 0.91434 -0.01105
 C62 C 0.41511 1.07135 0.07626
 C63 C 0.58454 1.07389 -0.07164
 C64 C 0.41484 0.92665 -0.07413
 C65 C 0.58495 0.92354 0.07339
 C66 C -0.01002 0.55931 1.05296
 H67 H 0.02116 0.55999 1.05276
 C68 C -0.03059 0.58590 1.07529
 H69 H -0.01525 0.60707 1.09250
 C70 C -0.06823 0.53177 1.02974
 H71 H -0.08277 0.51122 1.01130
 C72 C -0.08992 0.55789 1.05165
 H73 H -0.12111 0.55716 1.05028
 N74 N -0.02900 0.53288 1.03089
 C75 C 0.05504 0.44121 1.01069
 H76 H 0.05493 0.44058 0.97937
 C77 C 0.07719 0.41452 1.03138
 H78 H 0.09435 0.39331 1.01599
 C79 C 0.03174 0.46869 1.06912
 H80 H 0.01333 0.48924 1.08371
 C81 C 0.05347 0.44247 1.09093
 H82 H 0.05199 0.44313 1.12226
 Zn83 Zn 0.00140 0.50027 0.99920
 N84 N 0.03299 0.46764 1.02973
 C85 C 0.07092 0.53188 0.96863
 N86 N 0.03169 0.53292 0.96747
 C87 C 0.01262 0.55936 0.94538
 C88 C 0.03309 0.58605 0.92309
 C89 C 0.09252 0.55811 0.94676
 C90 C -0.05209 0.44121 0.98790
 C91 C -0.07436 0.41463 0.96733
 C92 C -0.05092 0.44264 0.90765
 C93 C -0.02907 0.46876 0.92935
 N94 N -0.03015 0.46765 0.96876
 H95 H 0.08554 0.51131 0.98708
 H96 H -0.01857 0.55998 0.94557
 H97 H 0.01767 0.60725 0.90589
 H98 H 0.12372 0.55745 0.94815
 H99 H -0.05185 0.44054 1.01922
 H100 H -0.09147 0.39346 0.98281
 H101 H -0.04963 0.44338 0.87632
 H102 H -0.01074 0.48932 0.91468
 C103 C 0.07625 0.41506 1.07185
 C104 C -0.07089 0.58527 1.07450
 C105 C -0.07364 0.41527 0.92686
 C106 C 0.07339 0.58552 0.92392
 C107 C 1.05229 -0.01049 0.55908
 H108 H 1.05206 0.02080 0.55977
 C109 C 1.07452 -0.03114 0.58574
 H110 H 1.09161 -0.01576 0.60698
 C111 C 1.02928 -0.06887 0.53142
 H112 H 1.01097 -0.08346 0.51080
 C113 C 1.05109 -0.09065 0.55761
 H114 H 1.04978 -0.12195 0.55686
 N115 N 1.03037 -0.02952 0.53256
 C116 C 1.01030 0.05481 0.44075
 H117 H 0.97911 0.05469 0.44003
 C118 C 1.03090 0.07708 0.41412
 H119 H 1.01558 0.09430 0.39286
 C120 C 1.06846 0.03146 0.46843
 H121 H 1.08299 0.01299 0.48904
 C122 C 1.09019 0.05330 0.44226
 H123 H 1.12138 0.05184 0.44302
 Zn124 Zn 0.99883 0.00098 0.49984
 N125 N 1.02924 0.03270 0.46726
 C126 C 0.96831 0.07074 0.53141
 N127 N 0.96716 0.03138 0.53244
 C128 C 0.94515 0.01226 0.55886
 C129 C 0.92291 0.03282 0.58553
 C130 C 0.94649 0.09242 0.55762
 C131 C 0.98774 -0.05265 0.44067
 C132 C 0.96733 -0.07499 0.41400
 C133 C 0.90784 -0.05151 0.44189
 C134 C 0.92937 -0.02959 0.46811
 N135 N 0.96861 -0.03066 0.46710
 H136 H 0.98670 0.08539 0.51087
 H137 H 0.94534 -0.01903 0.55948
 H138 H 0.90577 0.01736 0.60671
 H139 H 0.94787 0.12372 0.55697
 H140 H 1.01893 -0.05240 0.44008
 H141 H 0.98281 -0.09215 0.39284
 H142 H 0.87664 -0.05022 0.44255
 H143 H 0.91470 -0.01121 0.48865
 C144 C 1.07120 0.07617 0.41478
 C145 C 1.07379 -0.07157 0.58508
 C146 C 0.92703 -0.07429 0.41453
 C147 C 0.92373 0.07325 0.58500
 C148 C 0.13411 0.33141 1.13191
 C149 C 0.16826 0.31585 1.11705
 C150 C 0.18633 0.28489 1.13581
 C151 C 0.17039 0.26881 1.16982
 C152 C 0.13632 0.28537 1.18488
 C153 C 0.11838 0.31633 1.16600
 C154 C 0.11434 0.36171 1.11130
 C155 C 0.09725 0.38641 1.09356
 H156 H 0.18065 0.32728 1.09061
 H157 H 0.21249 0.27330 1.12319
 H158 H 0.12304 0.27416 1.21096
 H159 H 0.09189 0.32814 1.17773
 C160 C -0.13049 0.66838 1.13340
 C161 C -0.16480 0.68326 1.11819
 C162 C -0.18350 0.71403 1.13656
 C163 C -0.16804 0.73060 1.17053
 C164 C -0.13379 0.71471 1.18595
 C165 C -0.11521 0.68394 1.16746
 C166 C -0.11008 0.63828 1.11319
 C167 C -0.09248 0.61373 1.09580
 H168 H -0.17683 0.67144 1.09177
 H169 H -0.20977 0.72510 1.12368
 H170 H -0.12087 0.72631 1.21202
 H171 H -0.08861 0.67265 1.17945
 C172 C -0.13268 0.33222 0.86747
 C173 C -0.16685 0.31714 0.88280
 C174 C -0.18546 0.28639 0.86437
 C175 C -0.17003 0.27019 0.83032
 C176 C -0.13601 0.28606 0.81476
 C177 C -0.11747 0.31682 0.83326
 C178 C -0.11238 0.36230 0.88774
 C179 C -0.09494 0.38683 0.90528
 H180 H -0.17883 0.32878 0.90933
 H181 H -0.21158 0.27497 0.87715
 H182 H -0.12332 0.27438 0.78861
 H183 H -0.09097 0.32821 0.82120
 C184 C 0.13253 0.66918 0.86533
 C185 C 0.16668 0.68421 0.88066
 C186 C 0.18513 0.71522 0.86243
 C187 C 0.16958 0.73188 0.82850
 C188 C 0.13551 0.71584 0.81296
 C189 C 0.11718 0.68484 0.83131
 C190 C 0.11233 0.63886 0.88542
 C191 C 0.09486 0.61415 0.90272
 H192 H 0.17877 0.67233 0.90706
 H193 H 0.21128 0.72639 0.87540
 H194 H 0.12252 0.72750 0.78692
 H195 H 0.09068 0.67344 0.81923
 C196 C 1.13104 0.13443 0.33133
 C197 C 1.11604 0.16854 0.31557
 C198 C 1.13475 0.18674 0.28468
 C199 C 1.16885 0.17097 0.26887
 C200 C 1.18405 0.13695 0.28564
 C201 C 1.16522 0.11887 0.31653
 C202 C 1.11051 0.11450 0.36156
 C203 C 1.09283 0.09730 0.38620
 H204 H 1.08953 0.18079 0.32679
 H205 H 1.12203 0.21286 0.27292
 H206 H 1.21020 0.12380 0.27465
 H207 H 1.17705 0.09241 0.32851
 C208 C 1.13248 -0.13140 0.66834
 C209 C 1.16662 -0.11633 0.68364
 C210 C 1.18508 -0.13497 0.71445
 C211 C 1.16952 -0.16907 0.73065
 C212 C 1.13545 -0.18434 0.71435
 C213 C 1.11712 -0.16558 0.68354
 C214 C 1.11234 -0.11092 0.63819
 C215 C 1.09501 -0.09324 0.61360
 H216 H 1.17872 -0.08983 0.67211
 H217 H 1.21122 -0.12219 0.72584
 H218 H 1.12247 -0.21050 0.72566
 H219 H 1.09064 -0.17746 0.67193
 C220 C 0.86815 -0.13352 0.33119
 C221 C 0.88374 -0.16750 0.31580
 C222 C 0.86549 -0.18616 0.28494
 C223 C 0.83127 -0.17098 0.26878
 C224 C 0.81548 -0.13708 0.28517
 C225 C 0.83385 -0.11854 0.31603
 C226 C 0.88824 -0.11315 0.36138
 C227 C 0.90563 -0.09566 0.38599
 H228 H 0.91034 -0.17931 0.32730
 H229 H 0.87867 -0.21216 0.27349
 H230 H 0.78921 -0.12438 0.27388
 H231 H 0.82157 -0.09218 0.32771
 C232 C 0.86535 0.13271 0.66861
 C233 C 0.88075 0.16684 0.68379
 C234 C 0.86259 0.18544 0.71476
 C235 C 0.82864 0.17005 0.73123
 C236 C 0.81303 0.13600 0.71504
 C237 C 0.83132 0.11753 0.68408
 C238 C 0.88535 0.11237 0.63831
 C239 C 0.90259 0.09481 0.61362
 H240 H 0.90715 0.17881 0.67205
 H241 H 0.87561 0.21156 0.72606
 H242 H 0.78698 0.12314 0.72656
 H243 H 0.81919 0.09105 0.67256
 C244 C 0.33185 1.13132 0.13439
 C245 C 0.31612 1.11623 0.16851
 C246 C 0.28528 1.13497 0.18662
 C247 C 0.26965 1.16910 0.17075
 C248 C 0.28617 1.18441 0.13679
 C249 C 0.31701 1.16560 0.11875
 C250 C 0.36202 1.11076 0.11452
 C251 C 0.38661 1.09305 0.09735
 H252 H 0.32732 1.08964 0.18081
 H253 H 0.27335 1.12237 0.21271
 H254 H 0.27494 1.21061 0.12377
 H255 H 0.32891 1.17748 0.09228
 C256 C 0.66738 1.13265 -0.13154
 C257 C 0.68269 1.16687 -0.11640
 C258 C 0.71336 1.18532 -0.13507
 C259 C 0.72925 1.16968 -0.16917
 C260 C 0.71315 1.13560 -0.18453
 C261 C 0.68247 1.11723 -0.16579
 C262 C 0.63737 1.11249 -0.11104
 C263 C 0.61291 1.09514 -0.09335
 H264 H 0.67129 1.17901 -0.08984
 H265 H 0.72497 1.21148 -0.12243
 H266 H 0.72458 1.12276 -0.21071
 H267 H 0.67089 1.09069 -0.17771
 C268 C 0.33168 0.86756 -0.13315
 C269 C 0.31640 0.83335 -0.11789
 C270 C 0.28558 0.81498 -0.13638
 C271 C 0.26953 0.83070 -0.17040
 C272 C 0.28561 0.86476 -0.18588
 C273 C 0.31643 0.88305 -0.16733
 C274 C 0.36181 0.88771 -0.11286
 C275 C 0.38637 0.90516 -0.09543
 H276 H 0.32793 0.82117 -0.09138
 H277 H 0.27399 0.78882 -0.12366
 H278 H 0.27406 0.87767 -0.21201
 H279 H 0.32797 0.90959 -0.17933
 C280 C 0.66859 0.86522 0.13280
 C281 C 0.68375 0.88073 0.16696
 C282 C 0.71475 0.86259 0.18547
 C283 C 0.73111 0.82868 0.16994
 C284 C 0.71514 0.81294 0.13594
 C285 C 0.68414 0.83115 0.11751
 C286 C 0.63827 0.88520 0.11250
 C287 C 0.61357 0.90242 0.09495
 H288 H 0.67199 0.90716 0.17899
 H289 H 0.72624 0.87550 0.21158
 H290 H 0.72693 0.78689 0.12318
 H291 H 0.67268 0.81896 0.09100
   
