data_POSCAR
  _audit_creation_date              2014-09-24
  _audit_creation_method            'ToBaCCo'
  _symmetry_space_group_name_H-M    'P1'
  _symmetry_Int_Tables_number       1
  _symmetry_cell_setting            triclinic
  loop_
  _symmetry_equiv_pos_as_xyz
 x,y,z
_cell_length_a 27.0609
_cell_length_b 26.8942
_cell_length_c 63.1553
_cell_angle_alpha 85.126700
_cell_angle_beta 92.839800
_cell_angle_gamma 119.757700
loop_
  _atom_site_label
  _atom_site_type_symbol
  _atom_site_fract_x
  _atom_site_fract_y
  _atom_site_fract_z
C1 C 0.02063 0.11223 0.52468
 H2 H 0.06047 0.11237 0.52361
 C3 C 0.01758 0.15143 0.53682
 H4 H 0.05514 0.18113 0.54533
 C5 C -0.07663 0.07292 0.51481
 H6 H -0.11284 0.04280 0.50589
 C7 C -0.08173 0.11133 0.52698
 H8 H -0.12211 0.11045 0.52741
 N9 N -0.02595 0.07401 0.51401
 C10 C 0.00622 -0.06615 0.50559
 H11 H 0.00704 -0.06507 0.48844
 C12 C 0.00740 -0.11115 0.51797
 H13 H 0.01029 -0.14410 0.51029
 C14 C -0.00113 -0.02587 0.53643
 H15 H -0.00661 0.00614 0.54357
 C16 C 0.00051 -0.06968 0.54940
 H17 H -0.00325 -0.07054 0.56644
 Zn18 Zn -0.01219 0.02733 0.49724
 N19 N 0.00134 -0.02507 0.51494
 C20 C 0.10029 0.07548 0.48032
 N21 N 0.05153 0.07835 0.48047
 C22 C 0.04668 0.12109 0.46920
 C23 C 0.09191 0.16333 0.45710
 C24 C 0.14675 0.11693 0.46828
 C25 C -0.12416 -0.05847 0.48823
 C26 C -0.16662 -0.09957 0.47578
 C27 C -0.10609 -0.05416 0.44524
 C28 C -0.06529 -0.01389 0.45825
 N29 N -0.07433 -0.01739 0.47939
 H30 H 0.10341 0.04158 0.48969
 H31 H 0.00746 0.12243 0.46976
 H32 H 0.08688 0.19667 0.44810
 H33 H 0.18560 0.11462 0.46845
 H34 H -0.12970 -0.06130 0.50522
 H35 H -0.20358 -0.13326 0.48405
 H36 H -0.09672 -0.04804 0.42849
 H37 H -0.02526 0.01874 0.45146
 C38 C 0.00380 -0.11361 0.54018
 C39 C -0.03397 0.15153 0.53802
 C40 C -0.15756 -0.09986 0.45385
 C41 C 0.14292 0.16183 0.45661
 C42 C 1.13500 0.05885 0.13887
 H43 H 1.13569 0.09933 0.13924
 C44 C 1.17484 0.05545 0.12685
 H45 H 1.20560 0.09341 0.11771
 C46 C 1.09350 -0.03977 0.15039
 H47 H 1.06220 -0.07640 0.15987
 C48 C 1.13259 -0.04519 0.13843
 H49 H 1.13107 -0.08625 0.13878
 N50 N 1.09538 0.01174 0.15028
 C51 C 0.95758 0.04777 0.15778
 H52 H 0.95758 0.04953 0.17484
 C53 C 0.91353 0.04818 0.14537
 H54 H 0.87996 0.05071 0.15301
 C55 C 0.99867 0.03713 0.12742
 H56 H 1.03063 0.03068 0.12054
 C57 C 0.95554 0.03738 0.11445
 H58 H 0.95586 0.03280 0.09759
 Zn59 Zn 1.04731 0.02509 0.16674
 N60 N 0.99841 0.04128 0.14872
 C61 C 1.09422 0.13646 0.18312
 N62 N 1.09611 0.08683 0.18320
 C63 C 1.13629 0.07955 0.19458
 C64 C 1.17674 0.12302 0.20658
 C65 C 1.13392 0.18120 0.19506
 C66 C 0.95807 -0.08704 0.17566
 C67 C 0.91467 -0.13130 0.18806
 C68 C 0.95807 -0.07795 0.21902
 C69 C 1.00052 -0.03479 0.20605
 N70 N 0.99926 -0.03958 0.18474
 H71 H 1.06244 0.14160 0.17366
 H72 H 1.13695 0.03975 0.19420
 H73 H 1.20797 0.11600 0.21568
 H74 H 1.13239 0.22073 0.19473
 H75 H 0.95727 -0.08910 0.15860
 H76 H 0.88080 -0.16753 0.18041
 H77 H 0.95920 -0.07278 0.23588
 H78 H 1.03276 0.00372 0.21295
 C79 C 0.91135 0.04135 0.12348
 C80 C 1.17418 0.00303 0.12658
 C81 C 0.91354 -0.12629 0.20997
 C82 C 1.17611 0.17480 0.20687
 C83 C 0.03091 0.91632 0.86404
 H84 H -0.00821 0.87570 0.86345
 C85 C 0.07671 0.91975 0.87619
 H86 H 0.07220 0.88166 0.88521
 C87 C 0.08373 1.01523 0.85291
 H88 H 0.08635 1.05196 0.84351
 C89 C 0.13076 1.02068 0.86499
 H90 H 0.16949 1.06186 0.86483
 N91 N 0.03508 0.96355 0.85275
 C92 C -0.14116 0.92401 0.84480
 H93 H -0.14726 0.92124 0.82779
 C94 C -0.18306 0.92308 0.85722
 H95 H -0.22069 0.91976 0.84919
 C96 C -0.08132 0.93810 0.87492
 H97 H -0.04104 0.94560 0.88176
 C98 C -0.12166 0.93783 0.88788
 H99 H -0.11206 0.94199 0.90468
 Zn100 Zn -0.02950 0.95006 0.83593
 N101 N -0.09107 0.93255 0.85373
 C102 C -0.09357 0.83978 0.81809
 N103 N -0.04319 0.88960 0.81913
 C104 C 0.00350 0.89843 0.80868
 C105 C 0.00099 0.85630 0.79662
 C106 C -0.09816 0.79641 0.80592
 C107 C -0.01069 1.06212 0.82746
 C108 C -0.01073 1.10769 0.81507
 C109 C -0.02315 1.05666 0.78379
 C110 C -0.02304 1.01208 0.79676
 N111 N -0.01743 1.01528 0.81819
 H112 H -0.12990 0.83342 0.82679
 H113 H 0.04305 0.93837 0.80992
 H114 H 0.03868 0.86439 0.78836
 H115 H -0.13826 0.75670 0.80526
 H116 H -0.00766 1.06296 0.84459
 H117 H -0.00741 1.14365 0.82281
 H118 H -0.02811 1.05303 0.76677
 H119 H -0.02956 0.97406 0.78970
 C120 C -0.17300 0.93232 0.87910
 C121 C 0.12760 0.97232 0.87670
 C122 C -0.01812 1.10479 0.79293
 C123 C -0.05016 0.80438 0.79521
 O124 O 0.57650 0.02804 -0.02196
 O125 O 0.48839 0.03725 0.01885
 O126 O 0.58716 0.04215 0.01857
 O127 O 0.48236 0.03271 -0.02217
 O128 O 0.43483 -0.06156 -0.01648
 O129 O 0.54300 -0.05224 0.02365
 O130 O 0.44437 -0.05701 0.02452
 O131 O 0.52871 -0.06639 -0.01696
 Cu132 Cu 0.53819 0.04441 -0.00221
 Cu133 Cu 0.48323 -0.06868 0.00421
 C134 C 0.56738 -0.02112 -0.02642
 C135 C 0.45107 -0.00869 0.02862
 C136 C 0.58370 -0.00305 0.02794
 C137 C 0.44026 -0.01562 -0.02615
 O138 O -0.08152 0.40581 0.68605
 O139 O -0.07632 0.51587 0.64520
 O140 O -0.08238 0.41594 0.64465
 O141 O -0.08563 0.50073 0.68646
 O142 O 0.00821 0.54775 0.68794
 O143 O 0.01139 0.46041 0.64642
 O144 O 0.01745 0.56022 0.64689
 O145 O 0.01228 0.45303 0.68767
 Cu146 Cu -0.09081 0.45504 0.66542
 Cu147 Cu 0.02161 0.50988 0.66738
 C148 C -0.03500 0.41089 0.69380
 C149 C -0.02803 0.55717 0.63917
 C150 C -0.03530 0.42299 0.63848
 C151 C -0.03958 0.53901 0.69427
 O152 O 0.58692 0.55363 0.35528
 O153 O 0.49624 0.45591 0.31449
 O154 O 0.59501 0.54965 0.31470
 O155 O 0.49263 0.45496 0.35555
 O156 O 0.44477 0.50161 0.35014
 O157 O 0.55067 0.59994 0.30999
 O158 O 0.45200 0.50617 0.30911
 O159 O 0.53874 0.60012 0.35068
 Cu160 Cu 0.54730 0.49874 0.33551
 Cu161 Cu 0.49201 0.55684 0.32948
 C162 C 0.57804 0.59366 0.35993
 C163 C 0.45840 0.46448 0.30485
 C164 C 0.59107 0.59134 0.30550
 C165 C 0.45075 0.46125 0.35968
 C166 C -0.03812 0.27197 0.57768
 C167 C -0.08331 0.21498 0.57795
 C168 C -0.08291 0.17620 0.56463
 C169 C -0.03715 0.19350 0.55087
 C170 C 0.00724 0.25079 0.55020
 C171 C 0.00672 0.28958 0.56341
 C172 C -0.03695 0.31242 0.59261
 C173 C 0.01433 0.35094 0.60244
 C174 C 0.01517 0.38765 0.61704
 C175 C -0.03530 0.38646 0.62222
 C176 C -0.08641 0.34852 0.61218
 C177 C -0.08721 0.31202 0.59753
 H178 H -0.11737 0.13217 0.56562
 H179 H 0.04258 0.26555 0.53947
 H180 H 0.05517 0.41616 0.62456
 H181 H -0.12602 0.34676 0.61573
 H182 H 0.04153 0.33343 0.56247
 H183 H 0.05368 0.35178 0.59924
 H184 H -0.11816 0.19982 0.58893
 H185 H -0.12723 0.28357 0.59001
 C186 C 0.77039 0.75025 0.24801
 C187 C 0.79289 0.73195 0.23274
 C188 C 0.83934 0.77186 0.22037
 C189 C 0.86448 0.83086 0.22311
 C190 C 0.84170 0.84909 0.23828
 C191 C 0.79523 0.80928 0.25057
 C192 C 0.72239 0.70802 0.26172
 C193 C 0.67865 0.71870 0.26685
 C194 C 0.63522 0.68030 0.28071
 C195 C 0.63476 0.63053 0.28979
 C196 C 0.67789 0.61936 0.28430
 C197 C 0.72113 0.65760 0.27042
 H198 H 0.85604 0.75652 0.20885
 H199 H 0.85947 0.89431 0.24052
 H200 H 0.60255 0.69005 0.28458
 H201 H 0.67883 0.58141 0.29100
 H202 H 0.77932 0.82471 0.26236
 H203 H 0.67811 0.75686 0.26017
 H204 H 0.77434 0.68675 0.23028
 H205 H 0.75453 0.64849 0.26698
 C206 C 0.26626 -0.02061 -0.08456
 C207 C 0.25333 0.02412 -0.08511
 C208 C 0.20913 0.02252 -0.09801
 C209 C 0.17675 -0.02395 -0.11057
 C210 C 0.19037 -0.06810 -0.11033
 C211 C 0.23461 -0.06644 -0.09749
 C212 C 0.31184 -0.01996 -0.07026
 C213 C 0.30442 -0.07067 -0.05905
 C214 C 0.34652 -0.06963 -0.04502
 C215 C 0.39687 -0.01783 -0.04186
 C216 C 0.40466 0.03265 -0.05335
 C217 C 0.36268 0.03158 -0.06739
 H218 H 0.19918 0.05680 -0.09769
 H219 H 0.16681 -0.10397 -0.12014
 H220 H 0.33914 -0.10919 -0.03635
 H221 H 0.44310 0.07326 -0.05138
 H222 H 0.24421 -0.10097 -0.09774
 H223 H 0.26543 -0.11097 -0.06071
 H224 H 0.27640 0.05966 -0.07512
 H225 H 0.37011 0.07117 -0.07605
 C226 C -0.00924 0.74298 0.58045
 C227 C -0.03981 0.73392 0.56120
 C228 C -0.03463 0.78055 0.54788
 C229 C 0.00077 0.83708 0.55367
 C230 C 0.03143 0.84606 0.57290
 C231 C 0.02664 0.79955 0.58610
 C232 C -0.01450 0.69385 0.59470
 C233 C 0.03422 0.69576 0.60431
 C234 C 0.02961 0.65088 0.61842
 C235 C -0.02392 0.60301 0.62337
 C236 C -0.07273 0.60058 0.61351
 C237 C -0.06803 0.64551 0.59924
 H238 H -0.05926 0.77237 0.53326
 H239 H 0.05920 0.88916 0.57771
 H240 H 0.06813 0.65414 0.62566
 H241 H -0.11454 0.56430 0.61699
 H242 H 0.05031 0.80779 0.60094
 H243 H 0.07606 0.73208 0.60089
 H244 H -0.06743 0.69080 0.55639
 H245 H -0.10633 0.64315 0.59214
 C246 C 0.30088 0.30509 0.24562
 C247 C 0.24406 0.29339 0.24497
 C248 C 0.20377 0.25207 0.23202
 C249 C 0.21938 0.22138 0.21953
 C250 C 0.27640 0.23393 0.21984
 C251 C 0.31668 0.27532 0.23272
 C252 C 0.34314 0.34721 0.26007
 C253 C 0.38324 0.33612 0.27132
 C254 C 0.42154 0.37471 0.28554
 C255 C 0.42045 0.42513 0.28887
 C256 C 0.38103 0.43668 0.27734
 C257 C 0.34290 0.39823 0.26310
 H258 H 0.16003 0.24285 0.23228
 H259 H 0.28988 0.21167 0.21009
 H260 H 0.45120 0.36445 0.29424
 H261 H 0.37926 0.47531 0.27944
 H262 H 0.36029 0.28411 0.23254
 H263 H 0.38408 0.29686 0.26955
 H264 H 0.23032 0.31501 0.25493
 H265 H 0.31322 0.40850 0.25443
 C266 C 0.71290 -0.04553 -0.08369
 C267 C 0.77083 -0.02032 -0.07839
 C268 C 0.80795 -0.02823 -0.09042
 C269 C 0.78846 -0.06132 -0.10837
 C270 C 0.72995 -0.08622 -0.11364
 C271 C 0.69274 -0.07876 -0.10137
 C272 C 0.67365 -0.03824 -0.07036
 C273 C 0.62161 -0.08582 -0.06384
 C274 C 0.58662 -0.07991 -0.04991
 C275 C 0.60264 -0.02616 -0.04237
 C276 C 0.65381 0.02183 -0.04947
 C277 C 0.68912 0.01578 -0.06323
 H278 H 0.85247 -0.00592 -0.08595
 H279 H 0.71191 -0.11336 -0.12679
 H280 H 0.54734 -0.11770 -0.04479
 H281 H 0.66729 0.06378 -0.04395
 H282 H 0.64809 -0.09882 -0.10578
 H283 H 0.60887 -0.12800 -0.06895
 H284 H 0.78749 0.00526 -0.06475
 H285 H 0.72879 0.05327 -0.06820
 C286 C 0.29684 -0.00399 0.08777
 C287 C 0.24005 -0.04903 0.08852
 C288 C 0.20047 -0.04747 0.10147
 C289 C 0.21675 -0.00073 0.11388
 C290 C 0.27375 0.04369 0.11346
 C291 C 0.31333 0.04207 0.10057
 C292 C 0.33833 -0.00451 0.07335
 C293 C 0.37783 0.04617 0.06198
 C294 C 0.41534 0.04520 0.04777
 C295 C 0.41404 -0.00650 0.04459
 C296 C 0.37525 -0.05693 0.05625
 C297 C 0.33791 -0.05593 0.07048
 H298 H 0.15672 -0.08197 0.10128
 H299 H 0.28777 0.07979 0.12315
 H300 H 0.44454 0.08472 0.03896
 H301 H 0.37334 -0.09746 0.05427
 H302 H 0.35695 0.07685 0.10068
 H303 H 0.37878 0.08637 0.06364
 H304 H 0.22578 -0.08476 0.07863
 H305 H 0.30870 -0.09549 0.07925
 C306 C 0.72723 0.76485 0.41691
 C307 C 0.70893 0.77580 0.43544
 C308 C 0.74682 0.82057 0.44773
 C309 C 0.80448 0.85679 0.44171
 C310 C 0.82171 0.84516 0.42272
 C311 C 0.78390 0.79992 0.41071
 C312 C 0.68725 0.71795 0.40366
 C313 C 0.70340 0.68091 0.39569
 C314 C 0.66715 0.63914 0.38202
 C315 C 0.61439 0.63416 0.37585
 C316 C 0.59776 0.67040 0.38423
 C317 C 0.63368 0.71163 0.39809
 H318 H 0.72922 0.82766 0.46140
 H319 H 0.86527 0.86837 0.41738
 H320 H 0.68113 0.61188 0.37582
 H321 H 0.55725 0.66746 0.37982
 H322 H 0.79907 0.79252 0.39640
 H323 H 0.74433 0.68463 0.39992
 H324 H 0.66514 0.74947 0.44048
 H325 H 0.62039 0.73988 0.40390
 C326 C -0.03092 0.23705 0.75348
 C327 C -0.06638 0.17887 0.74978
 C328 C -0.06236 0.13611 0.76265
 C329 C -0.02275 0.15047 0.77952
 C330 C 0.01205 0.20861 0.78345
 C331 C 0.00802 0.25140 0.77057
 C332 C -0.03285 0.28261 0.73900
 C333 C 0.01789 0.33219 0.73265
 C334 C 0.01683 0.37399 0.71827
 C335 C -0.03503 0.36732 0.70983
 C336 C -0.08598 0.31820 0.71641
 C337 C -0.08489 0.27623 0.73084
 H338 H -0.09051 0.09167 0.75943
 H339 H 0.04313 0.22110 0.79625
 H340 H 0.05692 0.41124 0.71353
 H341 H -0.12661 0.31188 0.71024
 H342 H 0.03548 0.29582 0.77398
 H343 H 0.05871 0.33804 0.73835
 H344 H -0.09640 0.16640 0.73663
 H345 H -0.12477 0.23877 0.73563
 C346 C 0.76613 0.01994 0.08545
 C347 C 0.79099 -0.01427 0.08298
 C348 C 0.83813 -0.00704 0.09527
 C349 C 0.86158 0.03455 0.11035
 C350 C 0.83642 0.06842 0.11299
 C351 C 0.78929 0.06132 0.10062
 C352 C 0.71739 0.01355 0.07174
 C353 C 0.71557 0.06231 0.06289
 C354 C 0.67159 0.05669 0.04900
 C355 C 0.62825 0.00215 0.04365
 C356 C 0.62929 -0.04675 0.05287
 C357 C 0.67347 -0.04109 0.06674
 H358 H 0.85591 -0.03451 0.09311
 H359 H 0.85361 0.10089 0.12444
 H360 H 0.67210 0.09528 0.04219
 H361 H 0.59647 -0.08934 0.04911
 H362 H 0.77074 0.08799 0.10301
 H363 H 0.74909 0.10497 0.06622
 H364 H 0.77457 -0.04604 0.07127
 H365 H 0.67336 -0.07949 0.07353
 C366 C 0.27979 0.29300 0.41803
 C367 C 0.24858 0.30724 0.43099
 C368 C 0.20492 0.26480 0.44378
 C369 C 0.19148 0.20712 0.44394
 C370 C 0.22345 0.19296 0.43135
 C371 C 0.26706 0.23543 0.41850
 C372 C 0.32466 0.33776 0.40377
 C373 C 0.37544 0.33712 0.40082
 C374 C 0.41668 0.37783 0.38679
 C375 C 0.40822 0.42030 0.37540
 C376 C 0.35796 0.42170 0.37863
 C377 C 0.31659 0.38082 0.39264
 H378 H 0.18166 0.27714 0.45361
 H379 H 0.21362 0.14880 0.43097
 H380 H 0.45508 0.37572 0.38476
 H381 H 0.35006 0.45369 0.37003
 H382 H 0.28979 0.22290 0.40848
 H383 H 0.38338 0.30514 0.40941
 H384 H 0.25805 0.35130 0.43132
 H385 H 0.27762 0.38208 0.39436
 C386 C -0.05075 0.68155 0.75559
 C387 C -0.09612 0.69327 0.75455
 C388 C -0.09710 0.73164 0.76794
 C389 C -0.05253 0.75940 0.78249
 C390 C -0.00815 0.74640 0.78398
 C391 C -0.00735 0.70781 0.77075
 C392 C -0.04765 0.64368 0.74048
 C393 C 0.00485 0.65708 0.73184
 C394 C 0.00770 0.62259 0.71713
 C395 C -0.04193 0.57412 0.71061
 C396 C -0.09433 0.56033 0.71940
 C397 C -0.09714 0.59462 0.73420
 H398 H -0.13154 0.74131 0.76635
 H399 H 0.02628 0.76653 0.79533
 H400 H 0.04865 0.63454 0.71057
 H401 H -0.13335 0.52305 0.71480
 H402 H 0.02748 0.69875 0.77232
 H403 H 0.04369 0.69507 0.73606
 H404 H -0.12991 0.67431 0.74290
 H405 H -0.13809 0.58255 0.74078
   
