data_POSCAR
  _audit_creation_date              2014-09-24
  _audit_creation_method            'ToBaCCo'
  _symmetry_space_group_name_H-M    'P1'
  _symmetry_Int_Tables_number       1
  _symmetry_cell_setting            triclinic
  loop_
  _symmetry_equiv_pos_as_xyz
 x,y,z
_cell_length_a 31.1818
_cell_length_b 26.4271
_cell_length_c 30.0413
_cell_angle_alpha 90.957300
_cell_angle_beta 90.286200
_cell_angle_gamma 89.820400
loop_
  _atom_site_label
  _atom_site_type_symbol
  _atom_site_fract_x
  _atom_site_fract_y
  _atom_site_fract_z
C1 C 0.12781 0.12116 0.18176
 C2 C 0.12363 0.15007 0.14296
 C3 C 0.15628 0.14949 0.11134
 C4 C 0.19326 0.11966 0.11791
 C5 C 0.19750 0.09307 0.15689
 C6 C 0.16503 0.09375 0.18852
 C7 C 0.10691 0.12369 0.22246
 N8 N 0.13178 0.10033 0.25329
 C9 C 0.16703 0.08168 0.23254
 C10 C 0.23973 0.07987 0.16151
 N11 N 0.26164 0.09643 0.12584
 C12 C 0.23353 0.12008 0.09833
 C13 C 0.15082 0.19207 0.08604
 N14 N 0.11624 0.21836 0.10115
 C15 C 0.09917 0.19272 0.13549
 H16 H 0.07883 0.14635 0.23011
 H17 H 0.19388 0.06350 0.24884
 H18 H 0.25389 0.06185 0.19020
 H19 H 0.24258 0.14123 0.06930
 H20 H 0.17418 0.20695 0.06315
 H21 H 0.07543 0.20831 0.15812
 C22 C -0.12735 0.88496 0.19384
 C23 C -0.12485 0.85433 0.15506
 C24 C -0.15866 0.85376 0.12450
 C25 C -0.19537 0.88379 0.13230
 C26 C -0.19816 0.91196 0.17133
 C27 C -0.16437 0.91245 0.20197
 C28 C -0.10396 0.88532 0.23333
 N29 N -0.12706 0.91048 0.26500
 C30 C -0.16385 0.92714 0.24588
 C31 C -0.24001 0.92694 0.17625
 N32 N -0.26311 0.90959 0.14081
 C33 C -0.23604 0.88366 0.11329
 C34 C -0.15404 0.81045 0.09873
 N35 N -0.11898 0.78456 0.11274
 C36 C -0.10081 0.81131 0.14681
 H37 H -0.07505 0.86380 0.23977
 H38 H -0.18981 0.94614 0.26325
 H39 H -0.25292 0.94721 0.20480
 H40 H -0.24595 0.86213 0.08404
 H41 H -0.17838 0.79473 0.07673
 H42 H -0.07642 0.79638 0.16884
 C43 C -0.13146 0.11199 -0.18641
 C44 C -0.12991 0.14006 -0.14616
 C45 C -0.16305 0.13587 -0.11541
 C46 C -0.19753 0.10275 -0.12409
 C47 C -0.19883 0.07610 -0.16400
 C48 C -0.16636 0.08116 -0.19511
 C49 C -0.11128 0.11914 -0.22685
 N50 N -0.13471 0.09556 -0.25926
 C51 C -0.16803 0.07200 -0.23997
 C52 C -0.23968 0.05867 -0.17018
 N53 N -0.26378 0.07338 -0.13494
 C54 C -0.23825 0.09962 -0.10594
 C55 C -0.16130 0.17838 -0.08830
 N56 N -0.12837 0.20797 -0.10139
 C57 C -0.10876 0.18467 -0.13631
 H58 H -0.08530 0.14520 -0.23293
 H59 H -0.19373 0.05277 -0.25767
 H60 H -0.25151 0.03937 -0.19982
 H61 H -0.24957 0.11990 -0.07663
 H62 H -0.18613 0.19062 -0.06540
 H63 H -0.08572 0.20281 -0.15762
 C64 C 0.13441 0.87752 -0.19192
 C65 C 0.12229 0.83825 -0.16373
 C66 C 0.14935 0.82370 -0.12965
 C67 C 0.18930 0.84680 -0.12416
 C68 C 0.20161 0.88577 -0.15149
 C69 C 0.17384 0.90107 -0.18607
 C70 C 0.11674 0.89489 -0.23096
 N71 N 0.14460 0.92757 -0.24966
 C72 C 0.17953 0.93176 -0.22231
 C73 C 0.24409 0.89636 -0.14109
 N74 N 0.25772 0.86327 -0.10968
 C75 C 0.22426 0.83305 -0.09928
 C76 C 0.13296 0.78033 -0.11184
 N77 N 0.09721 0.76735 -0.13496
 C78 C 0.09032 0.80236 -0.16684
 H79 H 0.08707 0.88194 -0.24614
 H80 H 0.20801 0.95359 -0.22906
 H81 H 0.26438 0.92334 -0.15762
 H82 H 0.22532 0.80221 -0.07605
 H83 H 0.14837 0.75698 -0.08711
 H84 H 0.06591 0.79967 -0.19252
 C85 C 0.16295 1.09640 0.80904
 C86 C 0.19367 1.08816 0.84198
 C87 C 0.18957 1.11127 0.88330
 C88 C 0.15501 1.14396 0.89148
 C89 C 0.12401 1.15219 0.85890
 C90 C 0.12761 1.12714 0.81722
 C91 C 0.16630 1.08964 0.76399
 N92 N 0.13340 1.11402 0.74409
 C93 C 0.10886 1.13633 0.77618
 C94 C 0.10285 1.19650 0.87099
 N95 N 0.12149 1.21577 0.90860
 C96 C 0.15248 1.18311 0.92175
 C97 C 0.22923 1.10903 0.90371
 N98 N 0.25696 1.08607 0.87535
 C99 C 0.23558 1.07286 0.83772
 H100 H 0.19229 1.07043 0.74683
 H101 H 0.08263 1.16223 0.76985
 H102 H 0.08016 1.21680 0.85045
 H103 H 0.17499 1.18979 0.94872
 H104 H 0.23860 1.12902 0.93398
 H105 H 0.25065 1.05893 0.80749
 C106 C 0.82949 0.90723 0.80642
 C107 C 0.79899 0.89501 0.83895
 C108 C 0.80767 0.85650 0.86858
 C109 C 0.84652 0.82978 0.86605
 C110 C 0.87617 0.84176 0.83383
 C111 C 0.86817 0.88141 0.80465
 C112 C 0.82693 0.93546 0.76826
 N113 N 0.86334 0.92783 0.74404
 C114 C 0.88889 0.89537 0.76647
 C115 C 0.90521 0.80263 0.83143
 N116 N 0.89420 0.76742 0.86170
 C117 C 0.85898 0.78427 0.88384
 C118 C 0.77011 0.84593 0.89031
 N119 N 0.73910 0.87746 0.87541
 C120 C 0.75619 0.90759 0.84397
 H121 H 0.79946 0.95751 0.75792
 H122 H 0.91859 0.87939 0.75394
 H123 H 0.93059 0.79862 0.80717
 H124 H 0.84090 0.76237 0.90741
 H125 H 0.76485 0.81503 0.91286
 H126 H 0.73800 0.93354 0.82365
 C127 C 0.17207 0.90416 1.19568
 C128 C 0.20014 0.89293 1.16041
 C129 C 0.18821 0.85810 1.12759
 C130 C 0.14766 0.83514 1.12896
 C131 C 0.11964 0.84758 1.16314
 C132 C 0.13175 0.88245 1.19650
 C133 C 0.17909 0.92577 1.23717
 N134 N 0.14392 0.91801 1.26284
 C135 C 0.11451 0.89250 1.23787
 C136 C 0.08787 0.81170 1.16270
 N137 N 0.09572 0.77780 1.12934
 C138 C 0.13187 0.79208 1.10806
 C139 C 0.22440 0.84697 1.10306
 N140 N 0.25738 0.87515 1.11935
 C141 C 0.24306 0.90320 1.15444
 H142 H 0.20879 0.94281 1.24853
 H143 H 0.08470 0.87750 1.25038
 H144 H 0.06361 0.80727 1.18801
 H145 H 0.14846 0.76923 1.08329
 H146 H 0.22716 0.81848 1.07690
 H147 H 0.26318 0.92626 1.17607
 C148 C 0.83733 1.07825 1.18536
 C149 C 0.80579 1.08056 1.15224
 C150 C 0.81055 1.11305 1.11692
 C151 C 0.84682 1.14418 1.11484
 C152 C 0.87812 1.14196 1.14789
 C153 C 0.87367 1.10804 1.18309
 C154 C 0.83484 1.06062 1.22793
 N155 N 0.86891 1.07829 1.25171
 C156 C 0.89334 1.10658 1.22440
 C157 C 0.90103 1.18639 1.14609
 N158 N 0.88470 1.21504 1.11304
 C159 C 0.85187 1.18949 1.09361
 C160 C 0.77080 1.11764 1.09700
 N161 N 0.74252 1.08910 1.11952
 C162 C 0.76342 1.06643 1.15333
 H163 H 0.80823 1.03964 1.24128
 H164 H 0.92046 1.12926 1.23515
 H165 H 0.92335 1.20012 1.17121
 H166 H 0.82908 1.20610 1.07072
 H167 H 0.76202 1.14444 1.07162
 H168 H 0.74794 1.04584 1.17963
 O169 O 0.55813 0.89379 0.92295
 O170 O 0.60599 0.94364 0.96196
 C171 C 0.59684 0.90873 0.93273
 O172 O 0.43863 1.07388 0.91738
 O173 O 0.39128 1.03125 0.96130
 C174 C 0.40018 1.06193 0.92951
 O175 O 0.55769 1.06349 0.91087
 O176 O 0.60563 1.02592 0.95825
 C177 C 0.59630 1.05165 0.92320
 O178 O 0.43688 0.88900 0.92996
 O179 O 0.39055 0.94472 0.96432
 C180 C 0.39859 0.90527 0.93972
 Zr181 Zr 0.49766 0.92081 0.94615
 O182 O 0.49242 0.92035 0.87577
 O183 O 0.49805 0.84080 0.94321
 Zr184 Zr 0.49853 1.04886 0.94191
 O185 O 0.49421 1.05327 0.87189
 O186 O 0.50483 1.12863 0.94504
 O187 O 0.53581 0.98353 0.93504
 O188 O 0.46081 0.98462 0.93585
 O189 O 0.43836 0.90004 1.07893
 O190 O 0.39120 0.94915 1.03963
 C191 C 0.39984 0.91384 1.06768
 O192 O 0.55966 1.07849 1.08000
 O193 O 0.60621 1.03148 1.03716
 C194 C 0.59791 1.06405 1.06859
 O195 O 0.43975 1.08350 1.07706
 O196 O 0.39147 1.03594 1.03653
 C197 C 0.40099 1.06971 1.06669
 O198 O 0.55841 0.91261 1.08888
 O199 O 0.60617 0.94890 1.04126
 C200 C 0.59706 0.92422 1.07685
 Zr201 Zr 0.49862 0.92803 1.05800
 O202 O 0.49249 0.92628 1.12801
 O203 O 0.50515 0.84823 1.05747
 Zr204 Zr 0.49953 1.05652 1.05321
 O205 O 0.49647 1.06815 1.12294
 O206 O 0.50436 1.13569 1.04455
 Zr207 Zr 0.56268 0.98745 0.99964
 Zr208 Zr 0.43452 0.98966 1.00023
 O209 O 0.46225 0.99310 1.06427
 O210 O 0.53669 0.99244 1.06433
 O211 O 0.45978 0.91541 1.00265
 O212 O 0.53717 1.06118 0.99695
 O213 O 0.53597 0.91459 1.00254
 O214 O 0.46027 1.06322 0.99738
 H215 H 0.44127 0.98238 0.90979
 H216 H 0.55768 1.08969 0.99551
 H217 H 0.44371 0.99403 1.09096
 H218 H 0.55627 0.88580 1.00443
 H219 H 0.47679 1.14294 0.95417
 H220 H 0.47595 1.14803 1.03462
 H221 H 0.51322 1.04066 1.13670
 H222 H 0.50657 0.95707 1.14001
 H223 H 0.48022 0.83416 1.04095
 H224 H 0.51232 0.82871 0.97048
 H225 H 0.51930 0.93447 0.86382
 H226 H 0.49827 1.01844 0.86018
 O227 O 0.07294 0.42258 -0.06997
 O228 O 0.02801 0.36803 -0.03437
 C229 C 0.06148 0.37770 -0.05790
 O230 O 0.05622 0.57051 0.08532
 O231 O 0.02321 0.62511 0.03737
 C232 C 0.04617 0.61557 0.07238
 O233 O 0.06842 0.42986 0.07749
 O234 O 0.02781 0.37141 0.03910
 C235 C 0.05856 0.38369 0.06632
 O236 O 0.05898 0.56283 -0.08722
 O237 O 0.02404 0.62136 -0.04312
 C238 C 0.04788 0.60887 -0.07680
 Zr239 Zr 0.04398 0.49378 -0.05612
 O240 O 0.11123 0.50457 -0.05583
 O241 O 0.04630 0.47992 -0.12571
 Zr242 Zr 0.04287 0.49948 0.05555
 O243 O 0.11021 0.50930 0.05226
 O244 O 0.04847 0.49536 0.12552
 O245 O 0.05187 0.45167 0.00106
 O246 O 0.05114 0.54159 -0.00115
 O247 O -0.07729 0.56198 -0.09094
 O248 O -0.04591 0.62078 -0.04414
 C249 C -0.06760 0.60814 -0.07940
 O250 O -0.08827 0.42862 0.07782
 O251 O -0.04715 0.37093 0.03898
 C252 C -0.07646 0.38269 0.06775
 O253 O -0.08654 0.57018 0.07762
 O254 O -0.04808 0.62495 0.03491
 C255 C -0.07581 0.61537 0.06569
 O256 O -0.08918 0.42173 -0.07661
 O257 O -0.04787 0.36743 -0.03574
 C258 C -0.07857 0.37681 -0.06365
 Zr259 Zr -0.06445 0.49333 -0.05767
 O260 O -0.13188 0.50299 -0.05522
 O261 O -0.07010 0.48203 -0.12725
 Zr262 Zr -0.06565 0.49855 0.05394
 O263 O -0.13339 0.50322 0.05021
 O264 O -0.06816 0.49695 0.12432
 Zr265 Zr -0.01044 0.42041 0.00064
 Zr266 Zr -0.01118 0.57221 -0.00249
 O267 O -0.07312 0.54065 -0.00316
 O268 O -0.07321 0.45048 -0.00093
 O269 O -0.01032 0.53744 -0.06643
 O270 O -0.01099 0.45544 0.06409
 O271 O -0.00986 0.44884 -0.06436
 O272 O -0.01198 0.54401 0.06277
 H273 H 0.07526 0.56593 -0.00135
 H274 H -0.01048 0.43407 0.09088
 H275 H -0.09780 0.56429 -0.00477
 H276 H -0.00923 0.42418 -0.08957
 H277 H 0.02031 0.50535 0.13779
 H278 H -0.05007 0.52493 0.13595
 H279 H -0.14394 0.47145 0.03619
 H280 H -0.14404 0.47269 -0.04114
 H281 H -0.04315 0.49420 -0.14040
 H282 H 0.02752 0.50507 -0.14015
 H283 H 0.12359 0.48077 -0.03416
 H284 H 0.12300 0.47695 0.04179
 O285 O 0.92194 0.09367 0.43453
 O286 O 0.96683 0.04834 0.38828
 C287 C 0.93321 0.07609 0.39571
 O288 O 1.08238 0.11608 0.56020
 O289 O 1.04080 0.07670 0.61197
 C290 C 1.07208 0.10591 0.60089
 O291 O 1.07778 0.11129 0.43606
 O292 O 1.04063 0.05783 0.38881
 C293 C 1.06904 0.09252 0.39685
 O294 O 0.91807 0.10069 0.55822
 O295 O 0.96410 0.06950 0.61105
 C296 C 0.92943 0.09285 0.59914
 Zr297 Zr 0.94874 0.07988 0.49811
 O298 O 0.94967 0.15996 0.49733
 O299 O 0.88107 0.08216 0.49458
 Zr300 Zr 1.05452 0.09105 0.49942
 O301 O 1.04110 0.16964 0.49981
 O302 O 1.12042 0.10890 0.49620
 O303 O 1.00134 0.09111 0.45730
 O304 O 1.00049 0.09822 0.53821
 O305 O 0.92613 -0.05725 0.56752
 O306 O 0.96798 -0.01126 0.61622
 C307 C 0.93526 -0.03989 0.60711
 O308 O 1.09300 -0.06298 0.44689
 O309 O 1.04889 -0.02759 0.39434
 C310 C 1.08235 -0.05348 0.40595
 O311 O 1.09554 -0.04334 0.57028
 O312 O 1.04724 -0.00482 0.61733
 C313 C 1.08286 -0.02881 0.60962
 O314 O 0.93632 -0.08019 0.44541
 O315 O 0.97344 -0.03562 0.39329
 C316 C 0.94464 -0.06817 0.40463
 Zr317 Zr 0.95874 -0.04837 0.50640
 O318 O 0.97267 -0.12553 0.51775
 O319 O 0.89363 -0.07014 0.50326
 Zr320 Zr 1.06478 -0.03708 0.50737
 O321 O 1.06168 -0.11632 0.51446
 O322 O 1.13242 -0.04248 0.50678
 Zr323 Zr 1.00740 0.01478 0.43592
 Zr324 Zr 1.00584 0.02772 0.56955
 O325 O 1.01198 -0.04803 0.54765
 O326 O 1.01297 -0.05646 0.46658
 O327 O 0.94466 0.01882 0.54036
 O328 O 1.06832 0.02429 0.46569
 O329 O 0.94589 0.01107 0.46460
 O330 O 1.06780 0.03161 0.54196
 H331 H 0.99817 0.12871 0.55775
 H332 H 1.09495 0.02582 0.44797
 H333 H 1.01371 -0.07382 0.57119
 H334 H 0.91937 0.00646 0.44677
 H335 H 1.13617 0.07776 0.50413
 H336 H 1.14324 -0.00739 0.50609
 H337 H 1.09177 -0.12791 0.51739
 H338 H 0.97898 -0.14135 0.48840
 H339 H 0.87682 -0.03863 0.49967
 H340 H 0.87103 0.04838 0.50358
 H341 H 0.95452 0.17004 0.46617
 H342 H 1.03450 0.17910 0.46878
 C343 C 1.12670 0.10254 0.29817
 C344 C 1.16059 0.10144 0.32794
 C345 C 1.14236 0.10396 0.36872
 C346 C 1.09874 0.10479 0.36110
 O347 O 1.08887 0.10417 0.31809
 H348 H 1.19454 0.09925 0.32091
 H349 H 1.15880 0.10116 0.40042
 C350 C 0.88112 -0.08820 0.30954
 C351 C 0.84925 -0.08579 0.34122
 C352 C 0.87011 -0.08468 0.38083
 C353 C 0.91324 -0.08475 0.37079
 O354 O 0.92027 -0.08714 0.32720
 H355 H 0.81488 -0.08501 0.33618
 H356 H 0.85555 -0.07976 0.41326
 C357 C 0.86996 0.10095 0.69623
 C358 C 0.83632 0.09860 0.66619
 C359 C 0.85473 0.10233 0.62560
 C360 C 0.89822 0.10503 0.63378
 O361 O 0.90768 0.10491 0.67679
 H362 H 0.80253 0.09386 0.67291
 H363 H 0.83872 0.09838 0.59368
 C364 C 1.13964 -0.05192 0.70921
 C365 C 1.17162 -0.02704 0.68667
 C366 C 1.15447 -0.01683 0.64600
 C367 C 1.11317 -0.03517 0.64687
 O368 O 1.10383 -0.05644 0.68525
 H369 H 1.20386 -0.01846 0.69780
 H370 H 1.16991 0.00257 0.61900
 C371 C 0.30505 1.09563 1.12227
 C372 C 0.33241 1.09567 1.15858
 C373 C 0.37234 1.09208 1.14118
 C374 C 0.36649 1.08820 1.09573
 O375 O 0.32552 1.09090 1.08387
 H376 H 0.32428 1.09780 1.19354
 H377 H 0.40205 1.08836 1.15963
 C378 C 0.29841 0.85846 0.90656
 C379 C 0.31377 0.81573 0.92748
 C380 C 0.35503 0.82670 0.93886
 C381 C 0.36158 0.87540 0.92496
 O382 O 0.32732 0.89503 0.90529
 H383 H 0.29710 0.78076 0.93378
 H384 H 0.37693 0.80325 0.95760
 C385 C 0.69347 0.91304 1.13658
 C386 C 0.66620 0.92269 1.17187
 C387 C 0.62621 0.92297 1.15384
 C388 C 0.63186 0.91488 1.10881
 O389 O 0.67278 0.90858 1.09800
 H390 H 0.67425 0.92849 1.20664
 H391 H 0.59656 0.93143 1.17105
 C392 C 0.69296 1.06833 0.86743
 C393 C 0.66680 1.05963 0.83079
 C394 C 0.62650 1.05710 0.84731
 C395 C 0.63110 1.06307 0.89270
 O396 O 0.67143 1.07025 0.90526
 H397 H 0.67575 1.05607 0.79614
 H398 H 0.59742 1.04873 0.82880
 C399 C 0.11167 0.27193 0.09664
 C400 C 0.14198 0.30573 0.11210
 C401 C 0.12507 0.35217 0.10411
 C402 C 0.08578 0.34316 0.08414
 O403 O 0.07734 0.29417 0.07965
 H404 H 0.17247 0.29729 0.12769
 H405 H 0.13996 0.38839 0.11111
 C406 C -0.12716 0.26156 -0.09406
 C407 C -0.15998 0.29318 -0.10686
 C408 C -0.14529 0.34070 -0.09819
 C409 C -0.10472 0.33441 -0.08048
 O410 O -0.09333 0.28615 -0.07816
 H411 H -0.19047 0.28267 -0.12159
 H412 H -0.16231 0.37586 -0.10354
 C413 C 0.07748 0.71870 -0.13268
 C414 C 0.06863 0.68894 -0.16966
 C415 C 0.05776 0.64307 -0.15320
 C416 C 0.06017 0.64870 -0.10753
 O417 O 0.07237 0.69458 -0.09481
 H418 H 0.07171 0.69886 -0.20429
 H419 H 0.04860 0.60957 -0.17212
 C420 C -0.11574 0.73065 0.10893
 C421 C -0.13988 0.69875 0.13435
 C422 C -0.12781 0.65137 0.12135
 C423 C -0.09720 0.65794 0.08887
 O424 O -0.08962 0.70640 0.08117
 H425 H -0.16336 0.70909 0.15933
 H426 H -0.13992 0.61609 0.13397
 C427 C 1.12926 0.11979 0.69951
 C428 C 1.16341 0.11849 0.67041
 C429 C 1.14551 0.12089 0.62927
 C430 C 1.10181 0.12170 0.63616
 O431 O 1.09173 0.12162 0.67895
 H432 H 1.19719 0.11495 0.67816
 H433 H 1.16214 0.11679 0.59786
 C434 C 0.87123 -0.05594 0.70209
 C435 C 0.84060 -0.03499 0.67457
 C436 C 0.86070 -0.02900 0.63493
 C437 C 0.90222 -0.04551 0.64136
 O438 O 0.90896 -0.06187 0.68219
 H439 H 0.80740 -0.02646 0.68183
 H440 H 0.84711 -0.01306 0.60503
 C441 C 1.14032 -0.07245 0.30735
 C442 C 1.17434 -0.06083 0.33526
 C443 C 1.15699 -0.05719 0.37671
 C444 C 1.11367 -0.06578 0.37101
 O445 O 1.10333 -0.07493 0.32885
 H446 H 1.20774 -0.05607 0.32678
 H447 H 1.17349 -0.04635 0.40717
 C448 C 0.87414 0.07484 0.29649
 C449 C 0.84185 0.06134 0.32527
 C450 C 0.85957 0.06529 0.36649
 C451 C 0.90148 0.07967 0.35992
 O452 O 0.91070 0.08540 0.31734
 H453 H 0.80919 0.05059 0.31751
 H454 H 0.84456 0.05569 0.39763
 C455 C 0.11618 0.26361 -0.07483
 C456 C 0.14543 0.28771 -0.04694
 C457 C 0.12974 0.33518 -0.04077
 C458 C 0.09195 0.33643 -0.06452
 O459 O 0.08320 0.29300 -0.08518
 H460 H 0.17502 0.27319 -0.03318
 H461 H 0.14305 0.36476 -0.01955
 C462 C -0.11186 0.26879 0.11207
 C463 C -0.13434 0.30062 0.14027
 C464 C -0.12443 0.34812 0.12692
 C465 C -0.09672 0.34129 0.09159
 O466 O -0.08910 0.29298 0.08232
 H467 H -0.15565 0.29018 0.16689
 H468 H -0.13584 0.38347 0.14129
 C469 C -0.08874 0.72030 -0.13484
 C470 C -0.06310 0.69735 -0.16676
 C471 C -0.05555 0.65002 -0.15139
 C472 C -0.07622 0.64812 -0.11105
 O473 O -0.09635 0.69072 -0.10068
 H474 H -0.05182 0.71263 -0.19774
 H475 H -0.03544 0.62114 -0.16654
 C476 C 0.07748 0.72817 0.12674
 C477 C 0.06806 0.70042 0.16387
 C478 C 0.05603 0.65429 0.14781
 C479 C 0.05846 0.65758 0.10214
 O480 O 0.07172 0.70244 0.08895
 H481 H 0.07102 0.71198 0.19847
 H482 H 0.04622 0.62204 0.16700
 C483 C 0.30242 1.08923 0.87894
 C484 C 0.32816 1.10983 0.84686
 C485 C 0.36880 1.10502 0.86301
 C486 C 0.36438 1.08150 0.90344
 O487 O 0.32401 1.07207 0.91335
 H488 H 0.31833 1.12595 0.81553
 H489 H 0.39820 1.11550 0.84652
 C490 C 0.30142 0.86947 1.10707
 C491 C 0.32397 0.82486 1.11076
 C492 C 0.36468 0.83620 1.09794
 C493 C 0.36351 0.88667 1.08686
 O494 O 0.32505 0.90713 1.09248
 H495 H 0.31218 0.78880 1.12192
 H496 H 0.39173 0.81052 1.09573
 C497 C 0.69707 1.09367 1.11631
 C498 C 0.67217 1.11751 1.14808
 C499 C 0.63108 1.11157 1.13327
 C500 C 0.63442 1.08417 1.09391
 O501 O 0.67456 1.07324 1.08346
 H502 H 0.68279 1.13627 1.17845
 H503 H 0.60212 1.12410 1.14989
 C504 C 0.69435 0.87173 0.88421
 C505 C 0.67085 0.83020 0.87061
 C506 C 0.63054 0.83889 0.88650
 C507 C 0.63290 0.88466 0.90916
 O508 O 0.67172 0.90485 0.90779
 H509 H 0.68191 0.79768 0.85150
 H510 H 0.60292 0.81447 0.88273
   
