data_POSCAR
  _audit_creation_date              2014-09-24
  _audit_creation_method            'ToBaCCo'
  _symmetry_space_group_name_H-M    'P1'
  _symmetry_Int_Tables_number       1
  _symmetry_cell_setting            triclinic
  loop_
  _symmetry_equiv_pos_as_xyz
 x,y,z
_cell_length_a 48.8146
_cell_length_b 46.0066
_cell_length_c 46.1333
_cell_angle_alpha 84.441900
_cell_angle_beta 95.109100
_cell_angle_gamma 95.308300
loop_
  _atom_site_label
  _atom_site_type_symbol
  _atom_site_fract_x
  _atom_site_fract_y
  _atom_site_fract_z
C1 C 0.28159 0.29672 0.24565
 H2 H 0.28405 0.29609 0.26924
 C3 C 0.29996 0.31471 0.22891
 H4 H 0.31641 0.32816 0.23971
 C5 C 0.25749 0.27941 0.20295
 H6 H 0.24145 0.26504 0.19290
 C7 C 0.27521 0.29733 0.18535
 H8 H 0.27252 0.29666 0.16186
 N9 N 0.26089 0.27952 0.23254
 C10 C 0.20023 0.26064 0.29739
 H11 H 0.19926 0.23695 0.30026
 C12 C 0.18384 0.27573 0.31310
 H13 H 0.17060 0.26345 0.32841
 C14 C 0.21896 0.30529 0.27407
 H15 H 0.23232 0.31672 0.25848
 C16 C 0.20286 0.32124 0.28922
 H17 H 0.20402 0.34487 0.28501
 Zn18 Zn 0.23889 0.25393 0.25754
 N19 N 0.21758 0.27556 0.27860
 C20 C 0.26445 0.23156 0.31259
 N21 N 0.26370 0.23225 0.28298
 C22 C 0.28174 0.21805 0.26986
 C23 C 0.30126 0.20194 0.28658
 C24 C 0.28367 0.21558 0.33022
 C25 C 0.19529 0.23947 0.21570
 C26 C 0.17797 0.22109 0.19828
 C27 C 0.19921 0.17953 0.22385
 C28 C 0.21621 0.19869 0.24059
 N29 N 0.21447 0.22812 0.23579
 H30 H 0.25037 0.24354 0.32261
 H31 H 0.28085 0.21922 0.24626
 H32 H 0.31511 0.19040 0.27564
 H33 H 0.28417 0.21541 0.35375
 H34 H 0.19396 0.26293 0.21271
 H35 H 0.16363 0.23067 0.18161
 H36 H 0.20103 0.15620 0.22802
 H37 H 0.23086 0.18994 0.25734
 C38 C 0.18507 0.30648 0.30917
 C39 C 0.29693 0.31506 0.19835
 C40 C 0.18012 0.19067 0.20194
 C41 C 0.30244 0.20055 0.31720
 C42 C 0.78904 0.79956 0.24060
 H43 H 0.79251 0.80116 0.26391
 C44 C 0.80604 0.81664 0.22159
 H45 H 0.82275 0.83061 0.23117
 C46 C 0.76420 0.77723 0.20110
 H47 H 0.74818 0.76153 0.19313
 C48 C 0.78066 0.79382 0.18128
 H49 H 0.77567 0.79116 0.15835
 N50 N 0.76850 0.78045 0.23015
 C51 C 0.71086 0.76503 0.29839
 H52 H 0.70963 0.74136 0.30165
 C53 C 0.69508 0.78068 0.31423
 H54 H 0.68158 0.76883 0.32953
 C55 C 0.72927 0.80906 0.27362
 H56 H 0.74232 0.82004 0.25751
 C57 C 0.71384 0.82558 0.28896
 H58 H 0.71567 0.84922 0.28486
 Zn59 Zn 0.74774 0.75646 0.25758
 N60 N 0.72770 0.77936 0.27874
 C61 C 0.77546 0.73690 0.31229
 N62 N 0.77332 0.73559 0.28283
 C63 C 0.79021 0.71976 0.26993
 C64 C 0.80975 0.70376 0.28680
 C65 C 0.79477 0.72120 0.33004
 C66 C 0.70221 0.74092 0.21870
 C67 C 0.68393 0.72219 0.20262
 C68 C 0.70549 0.68097 0.22846
 C69 C 0.72347 0.70048 0.24386
 N70 N 0.72202 0.72989 0.23821
 H71 H 0.76232 0.75018 0.32209
 H72 H 0.78826 0.71938 0.24642
 H73 H 0.82251 0.69075 0.27608
 H74 H 0.79629 0.72259 0.35343
 H75 H 0.70120 0.76440 0.21500
 H76 H 0.66915 0.73153 0.18627
 H77 H 0.70712 0.65766 0.23322
 H78 H 0.73868 0.69203 0.26016
 C79 C 0.69645 0.81140 0.30961
 C80 C 0.80231 0.81395 0.19119
 C81 C 0.68574 0.69175 0.20705
 C82 C 0.81219 0.70426 0.31732
 C83 C 0.78319 0.29714 0.74913
 H84 H 0.78608 0.29537 0.77274
 C85 C 0.80183 0.31513 0.73271
 H86 H 0.81891 0.32748 0.74382
 C87 C 0.75771 0.28267 0.70598
 H88 H 0.74101 0.26939 0.69556
 C89 C 0.77570 0.30061 0.68872
 H90 H 0.77253 0.30102 0.66516
 N91 N 0.76162 0.28140 0.73563
 C92 C 0.70052 0.26196 0.79998
 H93 H 0.69804 0.23828 0.80098
 C94 C 0.68458 0.27689 0.81634
 H95 H 0.66971 0.26451 0.82980
 C96 C 0.72220 0.30683 0.78022
 H97 H 0.73660 0.31846 0.76584
 C98 C 0.70670 0.32263 0.79619
 H99 H 0.70981 0.34632 0.79432
 Zn100 Zn 0.73896 0.25564 0.75983
 N101 N 0.71898 0.27704 0.78250
 C102 C 0.76361 0.22913 0.81341
 N103 N 0.76290 0.23170 0.78380
 C104 C 0.78058 0.21810 0.76972
 C105 C 0.79996 0.20101 0.78536
 C106 C 0.78255 0.21201 0.83007
 C107 C 0.69440 0.24562 0.71800
 C108 C 0.67599 0.22922 0.69970
 C109 C 0.69541 0.18525 0.72215
 C110 C 0.71367 0.20251 0.73974
 N111 N 0.71324 0.23218 0.73695
 H112 H 0.74984 0.24076 0.82426
 H113 H 0.77952 0.22053 0.74609
 H114 H 0.81240 0.18970 0.77263
 H115 H 0.78288 0.21190 0.85352
 H116 H 0.69411 0.26920 0.71667
 H117 H 0.66148 0.24028 0.68430
 H118 H 0.69652 0.16173 0.72412
 H119 H 0.72832 0.19214 0.75541
 C120 C 0.68751 0.30767 0.81450
 C121 C 0.79821 0.31696 0.70209
 C122 C 0.67658 0.19865 0.70149
 C123 C 0.80165 0.19755 0.81634
 C124 C 0.28823 0.79970 0.73906
 H125 H 0.29132 0.80126 0.76239
 C126 C 0.30560 0.81673 0.72038
 H127 H 0.32212 0.83128 0.72958
 C128 C 0.26384 0.77760 0.69902
 H129 H 0.24800 0.76188 0.69075
 C130 C 0.28065 0.79425 0.67957
 H131 H 0.27699 0.79160 0.65645
 N132 N 0.26777 0.78068 0.72817
 C133 C 0.20856 0.76438 0.79474
 H134 H 0.20733 0.74069 0.79760
 C135 C 0.19230 0.77966 0.81037
 H136 H 0.17841 0.76751 0.82510
 C137 C 0.22754 0.80882 0.77121
 H138 H 0.24106 0.82008 0.75569
 C139 C 0.21164 0.82498 0.78640
 H140 H 0.21354 0.84866 0.78276
 Zn141 Zn 0.24668 0.75650 0.75517
 N142 N 0.22592 0.77908 0.77583
 C143 C 0.27336 0.73736 0.81050
 N144 N 0.27199 0.73595 0.78108
 C145 C 0.28948 0.72033 0.76877
 C146 C 0.30894 0.70472 0.78624
 C147 C 0.29253 0.72204 0.82883
 C148 C 0.20183 0.74052 0.71569
 C149 C 0.18375 0.72162 0.69961
 C150 C 0.20539 0.68064 0.72583
 C151 C 0.22318 0.70032 0.74122
 N152 N 0.22155 0.72969 0.73543
 H153 H 0.25973 0.75047 0.81982
 H154 H 0.28813 0.71986 0.74529
 H155 H 0.32225 0.69192 0.77600
 H156 H 0.29346 0.72353 0.85218
 H157 H 0.20066 0.76397 0.71189
 H158 H 0.16898 0.73079 0.68314
 H159 H 0.20711 0.65736 0.73076
 H160 H 0.23832 0.69204 0.75769
 C161 C 0.19374 0.81040 0.80634
 C162 C 0.30203 0.81400 0.69017
 C163 C 0.18567 0.69120 0.70427
 C164 C 0.31062 0.70539 0.81673
 C165 C 0.02568 -0.02922 -0.03663
 C166 C 0.04391 -0.01212 -0.01421
 C167 C 0.02985 0.00305 0.00266
 C168 C -0.00156 -0.00029 -0.00444
 C169 C 0.00472 -0.04853 -0.01869
 C170 C -0.00941 -0.03354 -0.00167
 C171 C 0.00818 -0.00632 -0.05408
 C172 C -0.00592 0.00896 -0.03732
 H173 H 0.06623 -0.01138 -0.01269
 H174 H -0.01314 0.01199 0.00923
 H175 H 0.00161 -0.07207 -0.01930
 H176 H 0.00488 -0.00417 -0.07764
 C177 C 0.02424 0.46623 0.47473
 C178 C 0.04291 0.48419 0.49627
 C179 C 0.02919 0.50084 0.51206
 C180 C -0.00229 0.49782 0.50507
 C181 C 0.00367 0.44825 0.49424
 C182 C -0.01025 0.46470 0.50998
 C183 C 0.00726 0.48868 0.45621
 C184 C -0.00655 0.50544 0.47183
 H185 H 0.06512 0.48362 0.49879
 H186 H -0.01340 0.51097 0.51838
 H187 H 0.00148 0.42458 0.49710
 H188 H 0.00603 0.49057 0.43256
 C189 C 0.52909 -0.02618 0.46549
 C190 C 0.54668 -0.00713 0.48671
 C191 C 0.53193 0.00775 0.50309
 C192 C 0.50053 0.00217 0.49693
 C193 C 0.50939 -0.04598 0.48456
 C194 C 0.49433 -0.03135 0.50105
 C195 C 0.51004 -0.00508 0.44748
 C196 C 0.49532 0.00994 0.46387
 H197 H 0.56904 -0.00524 0.48818
 H198 H 0.48866 0.01475 0.51004
 H199 H 0.50748 -0.06960 0.48459
 H200 H 0.50668 -0.00353 0.42393
 C201 C 0.52389 0.47026 -0.02569
 C202 C 0.54261 0.48804 -0.00422
 C203 C 0.52898 0.50395 0.01238
 C204 C 0.49745 0.50074 0.00586
 C205 C 0.50327 0.45173 -0.00678
 C206 C 0.48964 0.46749 0.00992
 C207 C 0.50626 0.49274 -0.04358
 C208 C 0.49279 0.50913 -0.02724
 H209 H 0.56489 0.48838 -0.00289
 H210 H 0.48637 0.51339 0.01967
 H211 H 0.49939 0.42819 -0.00696
 H212 H 0.50320 0.49435 -0.06715
 C213 C 0.14346 -0.14131 -0.14639
 C214 C 0.14769 -0.13272 -0.17585
 C215 C 0.16402 -0.14833 -0.19114
 C216 C 0.17653 -0.17289 -0.17735
 C217 C 0.17236 -0.18146 -0.14788
 C218 C 0.15602 -0.16587 -0.13258
 C219 C 0.12604 -0.12480 -0.13021
 N220 N 0.12109 -0.13359 -0.10204
 N221 N 0.10541 -0.11876 -0.08756
 C222 C 0.09400 -0.09447 -0.10060
 N223 N 0.09896 -0.08569 -0.12876
 N224 N 0.11462 -0.10053 -0.14324
 C225 C 0.07655 -0.07790 -0.08452
 C226 C 0.06577 -0.05214 -0.09776
 C227 C 0.04938 -0.03640 -0.08268
 C228 C 0.04280 -0.04633 -0.05406
 C229 C 0.05434 -0.07169 -0.04059
 C230 C 0.07077 -0.08740 -0.05567
 H231 H 0.13827 -0.11398 -0.18723
 H232 H 0.16650 -0.14141 -0.21394
 H233 H 0.18202 -0.20005 -0.13651
 H234 H 0.15331 -0.17306 -0.10989
 H235 H 0.07024 -0.04384 -0.11976
 H236 H 0.04257 -0.01617 -0.09353
 H237 H 0.05074 -0.07934 -0.01820
 H238 H 0.07904 -0.10693 -0.04460
 C239 C 0.13521 0.35499 0.35677
 C240 C 0.16237 0.36570 0.35141
 C241 C 0.17852 0.34992 0.33609
 C242 C 0.16789 0.32311 0.32564
 C243 C 0.14071 0.31240 0.33098
 C244 C 0.12458 0.32812 0.34641
 C245 C 0.11816 0.37169 0.37318
 N246 N 0.09299 0.36013 0.38106
 N247 N 0.07783 0.37504 0.39607
 C248 C 0.08716 0.40219 0.40378
 N249 N 0.11229 0.41378 0.39582
 N250 N 0.12746 0.39885 0.38086
 C251 C 0.07055 0.41860 0.42097
 C252 C 0.07917 0.44759 0.42677
 C253 C 0.06396 0.46276 0.44367
 C254 C 0.04008 0.44917 0.45592
 C255 C 0.03081 0.42057 0.44891
 C256 C 0.04597 0.40544 0.43187
 H257 H 0.17130 0.38621 0.35922
 H258 H 0.19951 0.35858 0.33277
 H259 H 0.13174 0.29204 0.32286
 H260 H 0.10371 0.31928 0.35003
 H261 H 0.09770 0.45867 0.41822
 H262 H 0.07103 0.48521 0.44732
 H263 H 0.01171 0.40972 0.45610
 H264 H 0.03841 0.38333 0.42734
 C265 C 0.64732 -0.13906 0.35695
 C266 C 0.66018 -0.16332 0.37102
 C267 C 0.67614 -0.17935 0.35570
 C268 C 0.67962 -0.17149 0.32596
 C269 C 0.66681 -0.14722 0.31191
 C270 C 0.65086 -0.13120 0.32721
 C271 C 0.63024 -0.12213 0.37311
 N272 N 0.61814 -0.09845 0.35963
 N273 N 0.60268 -0.08330 0.37404
 C274 C 0.59863 -0.09117 0.40259
 N275 N 0.61074 -0.11484 0.41610
 N276 N 0.62622 -0.12999 0.40168
 C277 C 0.58120 -0.07441 0.41853
 C278 C 0.57658 -0.08280 0.44790
 C279 C 0.55990 -0.06714 0.46273
 C280 C 0.54691 -0.04297 0.44849
 C281 C 0.55245 -0.03400 0.41936
 C282 C 0.56912 -0.04967 0.40454
 H283 H 0.65799 -0.16996 0.39392
 H284 H 0.68603 -0.19770 0.36724
 H285 H 0.66875 -0.14086 0.28892
 H286 H 0.64119 -0.11272 0.31563
 H287 H 0.58589 -0.10147 0.45954
 H288 H 0.55713 -0.07397 0.48548
 H289 H 0.54452 -0.01460 0.40784
 H290 H 0.57268 -0.04219 0.38210
 C291 C 0.63801 0.35580 -0.13719
 C292 C 0.64364 0.36572 -0.16602
 C293 C 0.65961 0.35008 -0.18164
 C294 C 0.67040 0.32414 -0.16884
 C295 C 0.66472 0.31412 -0.14006
 C296 C 0.64871 0.32977 -0.12441
 C297 C 0.62115 0.37257 -0.12064
 N298 N 0.61485 0.36271 -0.09310
 N299 N 0.59973 0.37787 -0.07829
 C300 C 0.59029 0.40356 -0.09036
 N301 N 0.59660 0.41339 -0.11789
 N302 N 0.61169 0.39823 -0.13270
 C303 C 0.57345 0.42050 -0.07396
 C304 C 0.56475 0.44761 -0.08617
 C305 C 0.54883 0.46363 -0.07085
 C306 C 0.54055 0.45264 -0.04311
 C307 C 0.55023 0.42600 -0.03049
 C308 C 0.56619 0.41000 -0.04581
 H309 H 0.63564 0.38558 -0.17663
 H310 H 0.66323 0.35812 -0.20394
 H311 H 0.67299 0.29440 -0.12947
 H312 H 0.64485 0.32152 -0.10223
 H313 H 0.57047 0.45672 -0.10753
 H314 H 0.54360 0.48486 -0.08073
 H315 H 0.54564 0.41754 -0.00858
 H316 H 0.57295 0.38945 -0.03548
 C317 C -0.13926 0.14619 -0.13575
 C318 C -0.13563 0.15757 -0.16456
 C319 C -0.15506 0.17457 -0.18033
 C320 C -0.17908 0.18111 -0.16789
 C321 C -0.18215 0.16985 -0.13849
 C322 C -0.16268 0.15261 -0.12286
 C323 C -0.11879 0.12745 -0.11959
 N324 N -0.12355 0.11321 -0.09307
 N325 N -0.10538 0.09573 -0.07911
 C326 C -0.08167 0.09182 -0.09107
 N327 N -0.07688 0.10623 -0.11747
 N328 N -0.09503 0.12363 -0.13142
 C329 C -0.06176 0.07165 -0.07625
 C330 C -0.03681 0.06897 -0.08841
 C331 C -0.01855 0.04900 -0.07547
 C332 C -0.02478 0.03113 -0.05006
 C333 C -0.04939 0.03420 -0.03745
 C334 C -0.06771 0.05426 -0.05041
 H335 H -0.11763 0.15339 -0.17513
 H336 H -0.15002 0.18356 -0.20189
 H337 H -0.20023 0.17269 -0.12753
 H338 H -0.16619 0.14404 -0.10068
 H339 H -0.03140 0.08216 -0.10814
 H340 H 0.00050 0.04753 -0.08540
 H341 H -0.05493 0.02051 -0.01807
 H342 H -0.08676 0.05572 -0.04049
 C343 C -0.12952 0.65146 0.36891
 C344 C -0.15556 0.65416 0.37871
 C345 C -0.17430 0.67167 0.36225
 C346 C -0.16742 0.68690 0.33562
 C347 C -0.14115 0.68473 0.32617
 C348 C -0.12245 0.66722 0.34259
 C349 C -0.11017 0.63169 0.38551
 N350 N -0.08601 0.62726 0.37478
 N351 N -0.06907 0.60868 0.38908
 C352 C -0.07553 0.59374 0.41477
 N353 N -0.09959 0.59834 0.42563
 N354 N -0.11655 0.61689 0.41130
 C355 C -0.05716 0.57219 0.43007
 C356 C -0.06331 0.55749 0.45716
 C357 C -0.04665 0.53624 0.47093
 C358 C -0.02358 0.52896 0.45786
 C359 C -0.01705 0.54423 0.43109
 C360 C -0.03363 0.56555 0.41739
 H361 H -0.16172 0.64232 0.39886
 H362 H -0.19447 0.67264 0.36998
 H363 H -0.13503 0.69659 0.30602
 H364 H -0.10251 0.66585 0.33447
 H365 H -0.08119 0.56214 0.46767
 H366 H -0.05234 0.52517 0.49148
 H367 H 0.00097 0.53987 0.42071
 H368 H -0.02810 0.57660 0.39665
 C369 C 0.36222 0.14872 0.36744
 C370 C 0.36946 0.16701 0.34259
 C371 C 0.35020 0.18418 0.32670
 C372 C 0.32321 0.18351 0.33520
 C373 C 0.31611 0.16581 0.36045
 C374 C 0.33540 0.14856 0.37639
 C375 C 0.38238 0.12935 0.38323
 N376 N 0.37577 0.11140 0.40721
 N377 N 0.39368 0.09335 0.42068
 C378 C 0.41893 0.09246 0.41070
 N379 N 0.42555 0.11054 0.38685
 N380 N 0.40769 0.12858 0.37342
 C381 C 0.43866 0.07179 0.42494
 C382 C 0.46373 0.06954 0.41283
 C383 C 0.48208 0.04955 0.42555
 C384 C 0.47588 0.03137 0.45076
 C385 C 0.45105 0.03380 0.46319
 C386 C 0.43257 0.05375 0.45036
 H387 H 0.38996 0.16789 0.33516
 H388 H 0.35645 0.19799 0.30765
 H389 H 0.29540 0.16468 0.36742
 H390 H 0.32913 0.13475 0.39542
 H391 H 0.46918 0.08310 0.39333
 H392 H 0.50127 0.04850 0.41575
 H393 H 0.44561 0.01985 0.48245
 H394 H 0.41345 0.05489 0.46026
 C395 C 0.36911 0.65425 -0.12996
 C396 C 0.34263 0.65623 -0.12090
 C397 C 0.32381 0.67322 -0.13792
 C398 C 0.33103 0.68859 -0.16436
 C399 C 0.35770 0.68716 -0.17305
 C400 C 0.37650 0.67020 -0.15608
 C401 C 0.38860 0.63494 -0.11292
 N402 N 0.41323 0.63129 -0.12304
 N403 N 0.43029 0.61302 -0.10850
 C404 C 0.42352 0.59759 -0.08316
 N405 N 0.39899 0.60142 -0.07286
 N406 N 0.38189 0.61969 -0.08745
 C407 C 0.44201 0.57619 -0.06784
 C408 C 0.43585 0.56111 -0.04091
 C409 C 0.45262 0.53982 -0.02736
 C410 C 0.47570 0.53284 -0.04060
 C411 C 0.48230 0.54861 -0.06709
 C412 C 0.46569 0.56997 -0.08053
 H413 H 0.33623 0.64423 -0.10093
 H414 H 0.30333 0.67366 -0.13076
 H415 H 0.36406 0.69917 -0.19303
 H416 H 0.39676 0.66938 -0.16364
 H417 H 0.41789 0.56550 -0.03040
 H418 H 0.44699 0.52846 -0.00691
 H419 H 0.50039 0.54452 -0.07753
 H420 H 0.47125 0.58132 -0.10112
 C421 C -0.14405 -0.13745 0.13222
 C422 C -0.15875 -0.16374 0.12487
 C423 C -0.17640 -0.17954 0.14405
 C424 C -0.18005 -0.16961 0.17141
 C425 C -0.16526 -0.14296 0.17848
 C426 C -0.14760 -0.12720 0.15920
 C427 C -0.12490 -0.12112 0.11196
 N428 N -0.10955 -0.09640 0.11944
 N429 N -0.09201 -0.08210 0.10138
 C430 C -0.08910 -0.09190 0.07506
 N431 N -0.10454 -0.11654 0.06755
 N432 N -0.12204 -0.13083 0.08560
 C433 C -0.06920 -0.07642 0.05513
 C434 C -0.06651 -0.08668 0.02787
 C435 C -0.04728 -0.07265 0.00936
 C436 C -0.03027 -0.04802 0.01765
 C437 C -0.03314 -0.03750 0.04470
 C438 C -0.05238 -0.05154 0.06325
 H439 H -0.15635 -0.17247 0.10436
 H440 H -0.18607 -0.20026 0.13758
 H441 H -0.16783 -0.13340 0.19845
 H442 H -0.13680 -0.10685 0.16547
 H443 H -0.07920 -0.10567 0.02080
 H444 H -0.04591 -0.08100 -0.01156
 H445 H -0.02007 -0.01881 0.05188
 H446 H -0.05384 -0.04307 0.08410
 C447 C -0.14322 0.36718 0.64855
 C448 C -0.17173 0.36867 0.64169
 C449 C -0.19076 0.35258 0.65921
 C450 C -0.18167 0.33493 0.68413
 C451 C -0.15320 0.33389 0.69134
 C452 C -0.13417 0.34973 0.67367
 C453 C -0.12304 0.38307 0.62923
 N454 N -0.09622 0.37685 0.63212
 N455 N -0.07824 0.39042 0.61418
 C456 C -0.08627 0.41089 0.59266
 N457 N -0.11305 0.41729 0.58991
 N458 N -0.13107 0.40362 0.60777
 C459 C -0.06643 0.42532 0.57217
 C460 C -0.07313 0.45002 0.55337
 C461 C -0.05467 0.46307 0.53348
 C462 C -0.02936 0.45151 0.53171
 C463 C -0.02252 0.42700 0.55063
 C464 C -0.04079 0.41413 0.57075
 H465 H -0.17940 0.38188 0.62249
 H466 H -0.21260 0.35396 0.65331
 H467 H -0.14563 0.32024 0.71027
 H468 H -0.11236 0.34815 0.67963
 H469 H -0.09268 0.45924 0.55394
 H470 H -0.06054 0.48172 0.51898
 H471 H -0.00293 0.41788 0.54997
 H472 H -0.03497 0.39514 0.58490
 C473 C 0.35756 -0.13734 0.63174
 C474 C 0.34780 -0.16649 0.62761
 C475 C 0.32979 -0.18216 0.64650
 C476 C 0.32095 -0.16907 0.66994
 C477 C 0.33060 -0.13988 0.67403
 C478 C 0.34872 -0.12420 0.65517
 C479 C 0.37702 -0.12096 0.61185
 N480 N 0.38842 -0.09369 0.61704
 N481 N 0.40621 -0.07923 0.59936
 C482 C 0.41332 -0.09141 0.57571
 N483 N 0.40184 -0.11862 0.57048
 N484 N 0.38410 -0.13308 0.58817
 C485 C 0.43349 -0.07562 0.55625
 C486 C 0.43955 -0.08770 0.53097
 C487 C 0.45903 -0.07325 0.51298
 C488 C 0.47312 -0.04640 0.51988
 C489 C 0.46668 -0.03410 0.54489
 C490 C 0.44714 -0.04852 0.56288
 H491 H 0.35428 -0.17738 0.60991
 H492 H 0.32315 -0.20475 0.64301
 H493 H 0.32393 -0.12904 0.69167
 H494 H 0.35573 -0.10176 0.65893
 H495 H 0.42924 -0.10838 0.52499
 H496 H 0.46273 -0.08309 0.49348
 H497 H 0.47699 -0.01357 0.55104
 H498 H 0.44297 -0.03854 0.58216
 C499 C 0.35525 0.36548 0.14467
 C500 C 0.32672 0.36592 0.13716
 C501 C 0.30775 0.34965 0.15464
 C502 C 0.31691 0.33296 0.18018
 C503 C 0.34538 0.33291 0.18796
 C504 C 0.36435 0.34886 0.17032
 C505 C 0.37544 0.38172 0.12560
 N506 N 0.40231 0.37570 0.12860
 N507 N 0.42039 0.38974 0.11104
 C508 C 0.41240 0.41053 0.08983
 N509 N 0.38556 0.41671 0.08694
 N510 N 0.36744 0.40254 0.10441
 C511 C 0.43243 0.42562 0.06990
 C512 C 0.42628 0.45140 0.05253
 C513 C 0.44505 0.46527 0.03335
 C514 C 0.47009 0.45343 0.03082
 C515 C 0.47631 0.42776 0.04824
 C516 C 0.45777 0.41410 0.06771
 H517 H 0.31904 0.37845 0.11752
 H518 H 0.28589 0.35021 0.14827
 H519 H 0.35299 0.31999 0.20739
 H520 H 0.38617 0.34811 0.17677
 H521 H 0.40697 0.46088 0.05375
 H522 H 0.43963 0.48480 0.02001
 H523 H 0.49565 0.41834 0.04694
 H524 H 0.46314 0.39427 0.08073
 C525 C 0.13184 0.13279 0.14500
 C526 C 0.12019 0.15672 0.15444
 C527 C 0.13571 0.17544 0.17304
 C528 C 0.16326 0.17069 0.18254
 C529 C 0.17485 0.14678 0.17302
 C530 C 0.15934 0.12804 0.15460
 C531 C 0.11569 0.11298 0.12505
 N532 N 0.12622 0.08837 0.11838
 N533 N 0.11207 0.07074 0.10010
 C534 C 0.08679 0.07695 0.08762
 N535 N 0.07618 0.10152 0.09434
 N536 N 0.09032 0.11915 0.11271
 C537 C 0.07151 0.05758 0.06667
 C538 C 0.04678 0.06544 0.05113
 C539 C 0.03308 0.04758 0.03057
 C540 C 0.04378 0.02149 0.02516
 C541 C 0.06821 0.01338 0.04108
 C542 C 0.08192 0.03121 0.06154
 H543 H 0.09903 0.16095 0.14756
 H544 H 0.12605 0.19345 0.18023
 H545 H 0.19616 0.14281 0.17942
 H546 H 0.16907 0.10997 0.14762
 H547 H 0.03822 0.08563 0.05447
 H548 H 0.01452 0.05466 0.01838
 H549 H 0.07672 -0.00686 0.03784
 H550 H 0.10078 0.02433 0.07326
 C551 C 0.13492 0.63207 0.65057
 C552 C 0.12401 0.65664 0.65959
 C553 C 0.14031 0.67569 0.67726
 C554 C 0.16791 0.67066 0.68619
 C555 C 0.17872 0.64603 0.67720
 C556 C 0.16243 0.62694 0.65973
 C557 C 0.11802 0.61203 0.63141
 N558 N 0.12767 0.58665 0.62558
 N559 N 0.11292 0.56885 0.60789
 C560 C 0.08788 0.57566 0.59517
 N561 N 0.07814 0.60100 0.60106
 N562 N 0.09288 0.61880 0.61885
 C563 C 0.07201 0.55609 0.57480
 C564 C 0.04781 0.56455 0.55857
 C565 C 0.03368 0.54646 0.53845
 C566 C 0.04345 0.51955 0.53417
 C567 C 0.06728 0.51082 0.55085
 C568 C 0.08140 0.52888 0.57086
 H569 H 0.10286 0.66116 0.65305
 H570 H 0.13121 0.69424 0.68410
 H571 H 0.20003 0.64177 0.68316
 H572 H 0.17159 0.60835 0.65305
 H573 H 0.04002 0.58539 0.56102
 H574 H 0.01555 0.55393 0.52570
 H575 H 0.07502 0.48993 0.54856
 H576 H 0.09980 0.52149 0.58315
 C577 C 0.62665 0.14528 0.64193
 C578 C 0.62865 0.13675 0.67210
 C579 C 0.64454 0.15428 0.69152
 C580 C 0.65843 0.18086 0.68123
 C581 C 0.65582 0.18979 0.65120
 C582 C 0.64023 0.17211 0.63173
 C583 C 0.61127 0.12588 0.62112
 N584 N 0.61509 0.13009 0.59216
 N585 N 0.60207 0.11207 0.57354
 C586 C 0.58457 0.08915 0.58305
 N587 N 0.58056 0.08507 0.61198
 N588 N 0.59371 0.10301 0.63064
 C589 C 0.57068 0.06868 0.56241
 C590 C 0.54814 0.04919 0.57043
 C591 C 0.53537 0.02959 0.55103
 C592 C 0.54511 0.02878 0.52345
 C593 C 0.56760 0.04825 0.51539
 C594 C 0.58014 0.06812 0.53458
 H595 H 0.61846 0.11621 0.68066
 H596 H 0.64605 0.14702 0.71460
 H597 H 0.66652 0.21007 0.64267
 H598 H 0.63902 0.17937 0.60865
 H599 H 0.54032 0.04910 0.59168
 H600 H 0.51828 0.01465 0.55786
 H601 H 0.57531 0.04830 0.49408
 H602 H 0.59748 0.08279 0.52773
 C603 C 0.63500 0.63333 0.15256
 C604 C 0.66249 0.62810 0.16168
 C605 C 0.67876 0.64693 0.17944
 C606 C 0.66795 0.67141 0.18876
 C607 C 0.64036 0.67654 0.17988
 C608 C 0.62408 0.65774 0.16193
 C609 C 0.61814 0.61359 0.13305
 N610 N 0.59286 0.62031 0.12086
 N611 N 0.57815 0.60280 0.10277
 C612 C 0.58807 0.57779 0.09619
 N613 N 0.61325 0.57103 0.10853
 N614 N 0.62796 0.58854 0.12653
 C615 C 0.57220 0.55851 0.07552
 C616 C 0.58196 0.53176 0.07061
 C617 C 0.56775 0.51396 0.05042
 C618 C 0.54344 0.52248 0.03454
 C619 C 0.53335 0.54896 0.03974
 C620 C 0.54758 0.56681 0.06004
 H621 H 0.67167 0.60964 0.15476
 H622 H 0.70006 0.64261 0.18536
 H623 H 0.63128 0.69498 0.18695
 H624 H 0.60295 0.66233 0.15543
 H625 H 0.60070 0.52452 0.08229
 H626 H 0.57577 0.49340 0.04737
 H627 H 0.51486 0.55631 0.02762
 H628 H 0.53951 0.58730 0.06324
   
