data_POSCAR
  _audit_creation_date              2014-09-24
  _audit_creation_method            'ToBaCCo'
  _symmetry_space_group_name_H-M    'P1'
  _symmetry_Int_Tables_number       1
  _symmetry_cell_setting            triclinic
  loop_
  _symmetry_equiv_pos_as_xyz
 x,y,z
_cell_length_a 26.0586
_cell_length_b 26.0581
_cell_length_c 26.0373
_cell_angle_alpha 89.945300
_cell_angle_beta 90.161100
_cell_angle_gamma 90.000000
loop_
  _atom_site_label
  _atom_site_type_symbol
  _atom_site_fract_x
  _atom_site_fract_y
  _atom_site_fract_z
O1 O -0.13261 0.06927 0.00125
 O2 O 0.13146 0.06936 -0.00211
 O3 O -0.00231 0.13190 0.06894
 O4 O 0.00103 0.13213 -0.07008
 O5 O 0.00095 0.06961 -0.13272
 O6 O -0.00223 0.06921 0.13167
 O7 O 0.06886 0.13201 -0.00222
 O8 O -0.06995 0.13191 0.00131
 Zr9 Zr -0.00057 0.09022 -0.00055
 O10 O 0.04594 0.04660 -0.04709
 O11 O -0.04702 0.04637 0.04600
 C12 C -0.11735 0.11668 0.00222
 C13 C 0.11628 0.11680 -0.00301
 C14 C -0.00316 0.11665 0.11641
 C15 C 0.00181 0.11713 -0.11766
 H16 H 0.06774 0.06811 0.06792
 O17 O 0.04578 0.04623 0.04598
 H18 H -0.06899 0.06824 -0.06890
 O19 O -0.04706 0.04632 -0.04693
 O20 O 0.13132 -0.06943 0.00157
 O21 O -0.13278 -0.06962 -0.00231
 O22 O 0.06898 -0.00212 0.13173
 O23 O 0.06869 0.00174 -0.13258
 O24 O -0.07019 -0.00178 -0.13266
 O25 O -0.06981 0.00173 0.13161
 O26 O 0.00113 -0.13231 0.06934
 O27 O -0.00270 -0.13201 -0.06970
 O28 O 0.00126 -0.06973 0.13191
 O29 O -0.00269 -0.06933 -0.13245
 O30 O 0.13147 -0.00198 0.06907
 O31 O -0.13255 0.00176 0.06885
 O32 O -0.13270 -0.00196 -0.07011
 O33 O 0.13136 0.00166 -0.06977
 O34 O 0.06870 -0.13211 0.00166
 O35 O -0.07023 -0.13223 -0.00211
 Zr36 Zr 0.08961 -0.00005 -0.00038
 Zr37 Zr -0.09090 -0.00015 -0.00056
 Zr38 Zr -0.00050 -0.00022 0.08994
 Zr39 Zr -0.00072 0.00007 -0.09082
 Zr40 Zr -0.00074 -0.09041 -0.00025
 O41 O -0.04721 -0.04659 -0.04705
 O42 O 0.04598 -0.04669 0.04624
 C43 C 0.11611 -0.11684 0.00256
 C44 C -0.11775 -0.11715 -0.00304
 C45 C 0.11634 -0.00299 0.11649
 C46 C 0.11615 0.00254 -0.11727
 C47 C -0.11765 -0.00277 -0.11761
 C48 C -0.11723 0.00268 0.11631
 C49 C 0.00204 -0.11727 0.11691
 C50 C -0.00364 -0.11673 -0.11714
 H51 H -0.06888 -0.06844 0.06793
 O52 O -0.04701 -0.04654 0.04602
 H53 H 0.06744 -0.06830 -0.06857
 O54 O 0.04556 -0.04641 -0.04669
 O55 O 0.36807 0.56994 0.00205
 O56 O 0.63222 0.57015 -0.00123
 O57 O 0.49843 0.63267 0.07005
 O58 O 0.50198 0.63251 -0.06890
 O59 O 0.50181 0.56988 -0.13157
 O60 O 0.49850 0.57005 0.13270
 O61 O 0.56958 0.63276 -0.00122
 O62 O 0.43071 0.63259 0.00222
 Zr63 Zr 0.50014 0.59088 0.00055
 O64 O 0.54649 0.54711 -0.04606
 O65 O 0.45356 0.54711 0.04696
 C66 C 0.38330 0.61734 0.00302
 C67 C 0.61704 0.61760 -0.00212
 C68 C 0.49764 0.61758 0.11762
 C69 C 0.50287 0.61723 -0.11630
 H70 H 0.56852 0.56889 0.06893
 O71 O 0.54659 0.54699 0.04699
 H72 H 0.43175 0.56886 -0.06795
 O73 O 0.45368 0.54695 -0.04599
 O74 O 0.63206 0.43122 0.00251
 O75 O 0.36794 0.43114 -0.00154
 O76 O 0.56974 0.49871 0.13271
 O77 O 0.56924 0.50236 -0.13165
 O78 O 0.43030 0.49892 -0.13190
 O79 O 0.43080 0.50240 0.13249
 O80 O 0.50198 0.36860 0.06986
 O81 O 0.49818 0.36849 -0.06898
 O82 O 0.50212 0.43116 0.13258
 O83 O 0.49805 0.43110 -0.13174
 O84 O 0.63224 0.49875 0.07014
 O85 O 0.36810 0.50235 0.06968
 O86 O 0.36781 0.49893 -0.06935
 O87 O 0.63200 0.50248 -0.06890
 O88 O 0.56937 0.36862 0.00242
 O89 O 0.43058 0.36852 -0.00140
 Zr90 Zr 0.59038 0.50067 0.00058
 Zr91 Zr 0.40975 0.50056 0.00025
 Zr92 Zr 0.50021 0.50062 0.09084
 Zr93 Zr 0.49986 0.50052 -0.08991
 Zr94 Zr 0.49999 0.41035 0.00043
 O95 O 0.45331 0.45397 -0.04628
 O96 O 0.54664 0.45410 0.04707
 C97 C 0.61678 0.38382 0.00339
 C98 C 0.38314 0.38371 -0.00237
 C99 C 0.61722 0.49783 0.11767
 C100 C 0.61670 0.50331 -0.11639
 C101 C 0.38279 0.49812 -0.11690
 C102 C 0.38336 0.50326 0.11716
 C103 C 0.50300 0.38378 0.11729
 C104 C 0.49725 0.38366 -0.11648
 H105 H 0.43189 0.43233 0.06867
 O106 O 0.45377 0.45426 0.04679
 H107 H 0.56821 0.43236 -0.06775
 O108 O 0.54636 0.45427 -0.04586
 O109 O -0.13231 0.56971 0.50157
 O110 O 0.13180 0.56947 0.49836
 O111 O -0.00207 0.63207 0.56924
 O112 O 0.00143 0.63237 0.43024
 O113 O 0.00139 0.56977 0.36761
 O114 O -0.00193 0.56943 0.63202
 O115 O 0.06918 0.63214 0.49810
 O116 O -0.06973 0.63229 0.50153
 Zr117 Zr -0.00026 0.59045 0.49981
 O118 O 0.04632 0.54670 0.45346
 O119 O -0.04661 0.54664 0.54649
 C120 C -0.11726 0.61724 0.50239
 C121 C 0.11658 0.61687 0.49732
 C122 C -0.00295 0.61681 0.61669
 C123 C 0.00225 0.61724 0.38274
 H124 H 0.06809 0.56836 0.56835
 O125 O 0.04616 0.54646 0.54642
 H126 H -0.06862 0.56851 0.43145
 O127 O -0.04669 0.54659 0.45341
 O128 O 0.13192 0.43067 0.50207
 O129 O -0.13218 0.43079 0.49799
 O130 O 0.06954 0.49837 0.63244
 O131 O 0.06913 0.50210 0.36798
 O132 O -0.06984 0.49837 0.36770
 O133 O -0.06942 0.50184 0.63212
 O134 O 0.00162 0.36790 0.56964
 O135 O -0.00206 0.36815 0.43063
 O136 O 0.00173 0.43045 0.63234
 O137 O -0.00216 0.43081 0.36788
 O138 O 0.13207 0.49842 0.56984
 O139 O -0.13214 0.50201 0.56933
 O140 O -0.13237 0.49837 0.43033
 O141 O 0.13180 0.50196 0.43083
 O142 O 0.06930 0.36804 0.50198
 O143 O -0.06952 0.36816 0.49811
 Zr144 Zr 0.09011 0.50009 0.50023
 Zr145 Zr -0.09049 0.50022 0.49987
 Zr146 Zr -0.00001 0.49999 0.59044
 Zr147 Zr -0.00031 0.50026 0.40957
 Zr148 Zr -0.00012 0.40985 0.50012
 O149 O -0.04673 0.45369 0.45342
 O150 O 0.04653 0.45346 0.54682
 C151 C 0.11673 0.38323 0.50291
 C152 C -0.11692 0.38339 0.49711
 C153 C 0.11698 0.49758 0.61732
 C154 C 0.11656 0.50294 0.38333
 C155 C -0.11725 0.49747 0.38288
 C156 C -0.11686 0.50283 0.61683
 C157 C 0.00251 0.38300 0.61715
 C158 C -0.00303 0.38338 0.38315
 H159 H -0.06835 0.43186 0.56827
 O160 O -0.04648 0.45377 0.54637
 H161 H 0.06799 0.43194 0.43186
 O162 O 0.04610 0.45384 0.45372
 O163 O 0.36840 0.06889 0.50162
 O164 O 0.63249 0.06885 0.49828
 O165 O 0.49877 0.13157 0.56944
 O166 O 0.50222 0.13147 0.43061
 O167 O 0.50216 0.06890 0.36790
 O168 O 0.49884 0.06895 0.63218
 O169 O 0.56980 0.13145 0.49819
 O170 O 0.43102 0.13153 0.50168
 Zr171 Zr 0.50043 0.08972 0.50003
 O172 O 0.54692 0.04597 0.45353
 O173 O 0.45391 0.04608 0.54659
 C174 C 0.38359 0.11633 0.50252
 C175 C 0.61721 0.11624 0.49730
 C176 C 0.49793 0.11638 0.61693
 C177 C 0.50310 0.11629 0.38318
 H178 H 0.56885 0.06773 0.56839
 O179 O 0.54694 0.04581 0.54644
 H180 H 0.43212 0.06774 0.43159
 O181 O 0.45407 0.04582 0.45353
 O182 O 0.63269 -0.07006 0.50196
 O183 O 0.36854 -0.06990 0.49805
 O184 O 0.57002 -0.00233 0.63225
 O185 O 0.56968 0.00142 0.36795
 O186 O 0.43091 -0.00239 0.36783
 O187 O 0.43116 0.00119 0.63211
 O188 O 0.50261 -0.13247 0.56939
 O189 O 0.49869 -0.13266 0.43042
 O190 O 0.50258 -0.06981 0.63204
 O191 O 0.49857 -0.06997 0.36774
 O192 O 0.63260 -0.00245 0.56967
 O193 O 0.36848 0.00116 0.56931
 O194 O 0.36840 -0.00236 0.43047
 O195 O 0.63243 0.00139 0.43070
 O196 O 0.57008 -0.13270 0.50182
 O197 O 0.43117 -0.13256 0.49806
 Zr198 Zr 0.59081 -0.00060 0.50012
 Zr199 Zr 0.41024 -0.00051 0.49993
 Zr200 Zr 0.50058 -0.00047 0.59035
 Zr201 Zr 0.50038 -0.00056 0.40965
 Zr202 Zr 0.50061 -0.09085 0.49991
 O203 O 0.45390 -0.04708 0.45337
 O204 O 0.54708 -0.04707 0.54664
 C205 C 0.61753 -0.11752 0.50277
 C206 C 0.38377 -0.11730 0.49714
 C207 C 0.61742 -0.00330 0.61709
 C208 C 0.61711 0.00236 0.38324
 C209 C 0.38355 -0.00329 0.38306
 C210 C 0.38370 0.00203 0.61681
 C211 C 0.50357 -0.11717 0.61678
 C212 C 0.49774 -0.11744 0.38292
 H213 H 0.43241 -0.06881 0.56821
 O214 O 0.45429 -0.04691 0.54630
 H215 H 0.56876 -0.06881 0.43171
 O216 O 0.54689 -0.04693 0.45360
 C217 C 0.22979 0.23030 -0.00529
 N218 N 0.17934 0.24328 -0.00515
 N219 N 0.14318 0.20713 -0.00463
 C220 C 0.15615 0.15665 -0.00423
 N221 N 0.20662 0.14368 -0.00448
 N222 N 0.24277 0.17984 -0.00500
 C223 C 0.26966 0.27017 -0.00518
 N224 N 0.32012 0.25721 -0.00479
 N225 N 0.35627 0.29337 -0.00408
 C226 C 0.34329 0.34384 -0.00374
 N227 N 0.29282 0.35679 -0.00424
 N228 N 0.25667 0.32063 -0.00494
 C229 C 0.23022 -0.27005 0.49446
 N230 N 0.17981 -0.25690 0.49469
 N231 N 0.14357 -0.29293 0.49540
 C232 C 0.15644 -0.34341 0.49592
 N233 N 0.20685 -0.35655 0.49557
 N234 N 0.24309 -0.32052 0.49486
 C235 C 0.27012 -0.23038 0.49442
 N236 N 0.32053 -0.24353 0.49476
 N237 N 0.35678 -0.20750 0.49541
 C238 C 0.34391 -0.15701 0.49575
 N239 N 0.29349 -0.14388 0.49529
 N240 N 0.25725 -0.17991 0.49464
 C241 C 0.77059 0.77121 -0.00515
 N242 N 0.75765 0.82169 -0.00506
 N243 N 0.79381 0.85786 -0.00459
 C244 C 0.84436 0.84498 -0.00418
 N245 N 0.85724 0.79443 -0.00441
 N246 N 0.82106 0.75827 -0.00488
 C247 C 0.73065 0.73127 -0.00498
 N248 N 0.74361 0.68079 -0.00460
 N249 N 0.70745 0.64461 -0.00387
 C250 C 0.65696 0.65754 -0.00349
 N251 N 0.64401 0.70803 -0.00396
 N252 N 0.68017 0.74421 -0.00469
 C253 C 0.76997 0.26977 0.49431
 N254 N 0.75683 0.32018 0.49455
 N255 N 0.79288 0.35642 0.49522
 C256 C 0.84336 0.34354 0.49568
 N257 N 0.85648 0.29312 0.49532
 N258 N 0.82043 0.25689 0.49465
 C259 C 0.73029 0.22987 0.49436
 N260 N 0.74343 0.17947 0.49474
 N261 N 0.70739 0.14323 0.49548
 C262 C 0.65691 0.15610 0.49586
 N263 N 0.64378 0.20652 0.49536
 N264 N 0.67982 0.24275 0.49463
 C265 C 0.76955 0.23027 0.00556
 N266 N 0.75642 0.17987 0.00510
 N267 N 0.79246 0.14364 0.00422
 C268 C 0.84293 0.15652 0.00374
 N269 N 0.85606 0.20694 0.00430
 N270 N 0.82002 0.24316 0.00519
 C271 C 0.72987 0.27017 0.00579
 N272 N 0.74302 0.32058 0.00562
 N273 N 0.70698 0.35683 0.00510
 C274 C 0.65649 0.34395 0.00473
 N275 N 0.64336 0.29353 0.00503
 N276 N 0.67941 0.25730 0.00555
 C277 C 0.77112 -0.27112 0.50501
 N278 N 0.75817 -0.32159 0.50472
 N279 N 0.79433 -0.35776 0.50405
 C280 C 0.84488 -0.34489 0.50362
 N281 N 0.85776 -0.29434 0.50403
 N282 N 0.82160 -0.25818 0.50470
 C283 C 0.73119 -0.23118 0.50510
 N284 N 0.74414 -0.18069 0.50491
 N285 N 0.70797 -0.14452 0.50439
 C286 C 0.65747 -0.15746 0.50404
 N287 N 0.64454 -0.20795 0.50433
 N288 N 0.68071 -0.24412 0.50486
 C289 C 0.23023 0.26970 0.50530
 N290 N 0.17977 0.25673 0.50503
 N291 N 0.14362 0.29289 0.50449
 C292 C 0.15659 0.34336 0.50419
 N293 N 0.20706 0.35633 0.50457
 N294 N 0.24321 0.32016 0.50511
 C295 C 0.27009 0.22983 0.50521
 N296 N 0.32055 0.24281 0.50494
 N297 N 0.35670 0.20666 0.50427
 C298 C 0.34373 0.15618 0.50382
 N299 N 0.29326 0.14322 0.50419
 N300 N 0.25711 0.17937 0.50487
 C301 C 0.22976 0.77009 0.00556
 N302 N 0.17936 0.75694 0.00522
 N303 N 0.14311 0.79297 0.00447
 C304 C 0.15597 0.84345 0.00403
 N305 N 0.20639 0.85659 0.00449
 N306 N 0.24263 0.82056 0.00523
 C307 C 0.26967 0.73042 0.00563
 N308 N 0.32008 0.74357 0.00539
 N309 N 0.35632 0.70754 0.00478
 C310 C 0.34345 0.65706 0.00435
 N311 N 0.29304 0.64392 0.00470
 N312 N 0.25680 0.67996 0.00532
 C313 C -0.00577 0.23008 0.22987
 N314 N -0.00545 0.17963 0.24291
 N315 N -0.00482 0.14348 0.20676
 C316 C -0.00448 0.15647 0.15625
 N317 N -0.00491 0.20694 0.14322
 N318 N -0.00554 0.24308 0.17937
 C319 C -0.00576 0.26992 0.26971
 N320 N -0.00552 0.32038 0.25666
 N321 N -0.00487 0.35653 0.29280
 C322 C -0.00441 0.34355 0.34332
 N323 N -0.00476 0.29308 0.35636
 N324 N -0.00542 0.25693 0.32021
 C325 C 0.49501 0.26998 0.77013
 N326 N 0.49527 0.25708 0.82067
 N327 N 0.49576 0.29328 0.85677
 C328 C 0.49601 0.34375 0.84369
 N329 N 0.49565 0.35664 0.79314
 N330 N 0.49516 0.32043 0.75704
 C331 C 0.49515 0.23004 0.73031
 N332 N 0.49542 0.24295 0.67978
 N333 N 0.49613 0.20675 0.64368
 C334 C 0.49660 0.15629 0.65676
 N335 N 0.49623 0.14339 0.70731
 N336 N 0.49552 0.17959 0.74341
 C337 C -0.00635 0.76994 0.76961
 N338 N -0.00607 0.75693 0.82010
 N339 N -0.00545 0.79308 0.85621
 C340 C -0.00507 0.84351 0.84312
 N341 N -0.00548 0.85651 0.79262
 N342 N -0.00611 0.82036 0.75651
 C343 C -0.00621 0.73016 0.72989
 N344 N -0.00587 0.74316 0.67940
 N345 N -0.00503 0.70701 0.64330
 C346 C -0.00447 0.65658 0.65641
 N347 N -0.00493 0.64359 0.70691
 N348 N -0.00577 0.67974 0.74300
 C349 C 0.49520 -0.27087 0.22928
 N350 N 0.49550 -0.32135 0.24226
 N351 N 0.49610 -0.35750 0.20609
 C352 C 0.49645 -0.34458 0.15550
 N353 N 0.49602 -0.29403 0.14258
 N354 N 0.49542 -0.25789 0.17877
 C355 C 0.49520 -0.23098 0.26923
 N356 N 0.49541 -0.18049 0.25625
 N357 N 0.49601 -0.14435 0.29244
 C358 C 0.49642 -0.15733 0.34298
 N359 N 0.49611 -0.20783 0.35594
 N360 N 0.49551 -0.24397 0.31975
 C361 C 0.00448 0.77099 0.22881
 N362 N 0.00416 0.75807 0.17829
 N363 N 0.00356 0.79425 0.14205
 C364 C 0.00324 0.84481 0.15488
 N365 N 0.00368 0.85766 0.20547
 N366 N 0.00428 0.82148 0.24170
 C367 C 0.00451 0.73100 0.26885
 N368 N 0.00433 0.74391 0.31937
 N369 N 0.00381 0.70773 0.35561
 C370 C 0.00344 0.65723 0.34271
 N371 N 0.00372 0.64432 0.29217
 N372 N 0.00425 0.68051 0.25594
 C373 C 0.50633 -0.26978 0.77018
 N374 N 0.50586 -0.32020 0.75725
 N375 N 0.50496 -0.35625 0.79349
 C376 C 0.50446 -0.34312 0.84391
 N377 N 0.50505 -0.29268 0.85684
 N378 N 0.50596 -0.25663 0.82059
 C379 C 0.50647 -0.23016 0.73034
 N380 N 0.50621 -0.17973 0.74326
 N381 N 0.50553 -0.14368 0.70702
 C382 C 0.50507 -0.15682 0.65659
 N383 N 0.50547 -0.20726 0.64367
 N384 N 0.50615 -0.24331 0.67992
 C385 C 0.50592 0.27000 0.23040
 N386 N 0.50555 0.25720 0.17989
 N387 N 0.50484 0.29349 0.14385
 C388 C 0.50446 0.34388 0.15702
 N389 N 0.50495 0.35668 0.20754
 N390 N 0.50566 0.32039 0.24359
 C391 C 0.50593 0.23005 0.27007
 N392 N 0.50568 0.24286 0.32058
 N393 N 0.50498 0.20657 0.35662
 C394 C 0.50450 0.15618 0.34345
 N395 N 0.50487 0.14337 0.29293
 N396 N 0.50556 0.17966 0.25688
 C397 C 0.00441 0.22902 0.77071
 N398 N 0.00406 0.17857 0.75770
 N399 N 0.00338 0.14231 0.79385
 C400 C 0.00301 0.15508 0.84446
 N401 N 0.00347 0.20561 0.85740
 N402 N 0.00415 0.24185 0.82125
 C403 C 0.00455 0.26907 0.73079
 N404 N 0.00442 0.31953 0.74380
 N405 N 0.00399 0.35579 0.70765
 C406 C 0.00367 0.34298 0.65710
 N407 N 0.00390 0.29251 0.64409
 N408 N 0.00433 0.25625 0.68024
 C409 C 0.23000 -0.00601 0.22987
 N410 N 0.24286 -0.00564 0.17940
 N411 N 0.20662 -0.00488 0.14325
 C412 C 0.15621 -0.00447 0.15628
 N413 N 0.14336 -0.00497 0.20677
 N414 N 0.17961 -0.00572 0.24292
 C415 C 0.26990 -0.00606 0.26966
 N416 N 0.25703 -0.00579 0.32013
 N417 N 0.29328 -0.00513 0.35628
 C418 C 0.34368 -0.00469 0.34325
 N419 N 0.35654 -0.00509 0.29277
 N420 N 0.32029 -0.00575 0.25661
 C421 C 0.27091 0.49563 0.77123
 N422 N 0.32137 0.49592 0.75832
 N423 N 0.35761 0.49655 0.79455
 C424 C 0.34483 0.49695 0.84514
 N425 N 0.29430 0.49656 0.85797
 N426 N 0.25807 0.49592 0.82173
 C427 C 0.23088 0.49553 0.73120
 N428 N 0.18042 0.49570 0.74411
 N429 N 0.14417 0.49615 0.70788
 C430 C 0.15700 0.49645 0.65735
 N431 N 0.20748 0.49618 0.64445
 N432 N 0.24372 0.49573 0.68069
 C433 C 0.77080 -0.00576 0.77071
 N434 N 0.82121 -0.00534 0.75778
 N435 N 0.85740 -0.00456 0.79400
 C436 C 0.84453 -0.00413 0.84453
 N437 N 0.79403 -0.00469 0.85740
 N438 N 0.75786 -0.00548 0.82116
 C439 C 0.73094 -0.00587 0.73080
 N440 N 0.68051 -0.00562 0.74372
 N441 N 0.64433 -0.00503 0.70748
 C442 C 0.65727 -0.00465 0.65701
 N443 N 0.70771 -0.00502 0.64410
 N444 N 0.74389 -0.00561 0.68033
 C445 C -0.27100 0.49498 0.22933
 N446 N -0.25815 0.49531 0.17884
 N447 N -0.29438 0.49604 0.14264
 C448 C -0.34488 0.49649 0.15554
 N449 N -0.35767 0.49601 0.20610
 N450 N -0.32143 0.49528 0.24229
 C451 C -0.23103 0.49490 0.26924
 N452 N -0.24388 0.49515 0.31973
 N453 N -0.20764 0.49575 0.35592
 C454 C -0.15720 0.49613 0.34296
 N455 N -0.14436 0.49576 0.29245
 N456 N -0.18061 0.49517 0.25626
 C457 C 0.22993 0.00475 0.76962
 N458 N 0.17949 0.00456 0.75638
 N459 N 0.14324 0.00406 0.79238
 C460 C 0.15608 0.00373 0.84296
 N461 N 0.20654 0.00402 0.85618
 N462 N 0.24278 0.00452 0.82019
 C463 C 0.26993 0.00465 0.72991
 N464 N 0.32037 0.00434 0.74315
 N465 N 0.35662 0.00368 0.70716
 C466 C 0.34377 0.00331 0.65657
 N467 N 0.29332 0.00372 0.64335
 N468 N 0.25708 0.00437 0.67935
 C469 C 0.26991 0.50581 0.23039
 N470 N 0.25692 0.50556 0.17986
 N471 N 0.29308 0.50496 0.14379
 C472 C 0.34354 0.50458 0.15693
 N473 N 0.35651 0.50494 0.20747
 N474 N 0.32036 0.50554 0.24354
 C475 C 0.23005 0.50575 0.27014
 N476 N 0.24302 0.50541 0.32067
 N477 N 0.20686 0.50472 0.35673
 C478 C 0.15640 0.50433 0.34358
 N479 N 0.14344 0.50479 0.29304
 N480 N 0.17960 0.50548 0.25698
 C481 C 0.76976 0.00545 0.22983
 N482 N 0.75657 0.00517 0.17936
 N483 N 0.79258 0.00451 0.14316
 C484 C 0.84308 0.00410 0.15613
 N485 N 0.85625 0.00450 0.20662
 N486 N 0.82024 0.00516 0.24281
 C487 C 0.73010 0.00540 0.26970
 N488 N 0.74329 0.00505 0.32018
 N489 N 0.70728 0.00430 0.35638
 C490 C 0.65678 0.00386 0.34341
 N491 N 0.64361 0.00433 0.29292
 N492 N 0.67962 0.00508 0.25672
 C493 C -0.27000 0.50574 0.77012
 N494 N -0.32048 0.50550 0.75708
 N495 N -0.35657 0.50494 0.79323
 C496 C -0.34352 0.50460 0.84375
 N497 N -0.29302 0.50497 0.85679
 N498 N -0.25693 0.50552 0.82064
 C499 C -0.23020 0.50565 0.73027
 N500 N -0.17972 0.50530 0.74333
 N501 N -0.14362 0.50460 0.70719
 C502 C -0.15667 0.50421 0.65666
 N503 N -0.20716 0.50467 0.64362
 N504 N -0.24325 0.50537 0.67975
   
