data_POSCAR
  _audit_creation_date              2014-09-24
  _audit_creation_method            'ToBaCCo'
  _symmetry_space_group_name_H-M    'P1'
  _symmetry_Int_Tables_number       1
  _symmetry_cell_setting            triclinic
  loop_
  _symmetry_equiv_pos_as_xyz
 x,y,z
_cell_length_a 20.7886
_cell_length_b 21.9228
_cell_length_c 45.8443
_cell_angle_alpha 92.767900
_cell_angle_beta 90.325400
_cell_angle_gamma 122.770300
loop_
  _atom_site_label
  _atom_site_type_symbol
  _atom_site_fract_x
  _atom_site_fract_y
  _atom_site_fract_z
C1 C -0.04943 -0.07082 0.49316
 C2 C 0.01143 -0.03114 0.51360
 C3 C 0.03084 -0.06656 0.53295
 C4 C -0.01037 -0.14315 0.53212
 C5 C -0.07174 -0.18221 0.51113
 C6 C -0.09252 -0.14728 0.49147
 C7 C 0.05525 0.04851 0.51427
 C8 C 0.03349 0.08688 0.53250
 C9 C 0.06963 0.16239 0.53113
 C10 C 0.12901 0.19878 0.51157
 C11 C 0.15150 0.16073 0.49323
 C12 C 0.11404 0.08523 0.49475
 H13 H -0.06059 -0.04034 0.47847
 H14 H 0.07823 -0.03295 0.54827
 H15 H -0.01186 0.05737 0.54753
 H16 H 0.12801 0.05428 0.47999
 H17 H -0.10431 -0.24099 0.51014
 H18 H 0.15702 0.25696 0.51022
 C19 C 1.04686 -0.02453 0.14157
 C20 C 1.00970 -0.00730 0.16271
 C21 C 1.05225 0.05074 0.18342
 C22 C 1.13236 0.09296 0.18299
 C23 C 1.16908 0.07472 0.16190
 C24 C 1.12762 0.01560 0.14096
 C25 C 0.92561 -0.05000 0.16308
 C26 C 0.88789 -0.09792 0.18527
 C27 C 0.80783 -0.13730 0.18605
 C28 C 0.76597 -0.12944 0.16406
 C29 C 0.80306 -0.08201 0.14170
 C30 C 0.88317 -0.04183 0.14146
 H31 H 1.01131 -0.06938 0.12597
 H32 H 1.02242 0.06214 0.19989
 H33 H 0.92090 -0.10337 0.20214
 H34 H 0.91250 -0.00474 0.12440
 H35 H 1.23101 0.10758 0.16195
 H36 H 0.70405 -0.16006 0.16446
 C37 C 0.07946 1.02402 0.84264
 C38 C 0.02028 1.00394 0.82205
 C39 C -0.00324 0.94554 0.80168
 C40 C 0.03162 0.90585 0.80189
 C41 C 0.09016 0.92558 0.82300
 C42 C 0.11568 0.98522 0.84355
 C43 C -0.02120 1.04082 0.82355
 C44 C -0.00031 1.09906 0.80620
 C45 C -0.03784 1.13628 0.80854
 C46 C -0.09710 1.11344 0.82835
 C47 C -0.11980 1.05407 0.84588
 C48 C -0.08028 1.01843 0.84315
 H49 H 0.09342 1.06774 0.85859
 H50 H -0.05047 0.92980 0.78644
 H51 H 0.04445 1.11431 0.79077
 H52 H -0.09259 0.97445 0.85656
 H53 H 0.11688 0.89470 0.82291
 H54 H -0.12580 1.14245 0.82989
 O55 O 0.59117 0.08541 -0.03229
 O56 O 0.47345 0.07564 0.02728
 O57 O 0.59374 0.06950 0.02293
 O58 O 0.45132 0.05719 -0.03105
 O59 O 0.39847 -0.06144 -0.03545
 O60 O 0.52955 -0.05036 0.01985
 O61 O 0.40481 -0.04423 0.02277
 O62 O 0.53469 -0.03395 -0.03549
 Cu63 Cu 0.53136 0.08248 -0.00320
 Cu64 Cu 0.46006 -0.05873 -0.00676
 C65 C 0.58440 0.02878 -0.04409
 C66 C 0.41907 0.01533 0.03533
 C67 C 0.58495 0.01013 0.03042
 C68 C 0.40222 -0.00513 -0.04324
 O69 O 0.08264 0.49486 0.64442
 O70 O 0.05024 0.59591 0.70080
 O71 O 0.04122 0.47087 0.69946
 O72 O 0.05260 0.59566 0.64412
 O73 O -0.07118 0.51885 0.63462
 O74 O -0.08431 0.40637 0.69231
 O75 O -0.07466 0.52862 0.69121
 O76 O -0.04168 0.41600 0.63755
 Cu77 Cu 0.06770 0.54504 0.67321
 Cu78 Cu -0.07899 0.46043 0.66276
 C79 C 0.02724 0.43760 0.63170
 C80 C -0.01645 0.58101 0.70556
 C81 C -0.02501 0.41773 0.70560
 C82 C -0.00874 0.57677 0.62960
 O83 O 0.48761 0.38732 0.30885
 O84 O 0.60738 0.51025 0.36906
 O85 O 0.47084 0.39806 0.36480
 O86 O 0.61190 0.52160 0.31149
 O87 O 0.54932 0.57672 0.31005
 O88 O 0.41679 0.46104 0.36282
 O89 O 0.55403 0.57381 0.36635
 O90 O 0.42501 0.44212 0.30583
 Cu91 Cu 0.55059 0.44966 0.33822
 Cu92 Cu 0.48020 0.51790 0.33551
 C93 C 0.43546 0.39201 0.29709
 C94 C 0.60171 0.56225 0.37843
 C95 C 0.42043 0.41069 0.37331
 C96 C 0.60367 0.57081 0.30184
 C97 C 0.08171 0.31605 0.57463
 C98 C 0.00713 0.28474 0.58459
 N99 N -0.04638 0.21407 0.57674
 C100 C -0.02855 0.17315 0.55960
 C101 C 0.04661 0.20420 0.54984
 N102 N 0.09949 0.27537 0.55757
 N103 N 0.13562 0.38639 0.58249
 C104 C 0.11870 0.42686 0.60019
 C105 C 0.04430 0.39571 0.61062
 N106 N -0.01006 0.32515 0.60235
 H107 H -0.07304 0.11744 0.55338
 H108 H 0.16328 0.48271 0.60627
 C109 C 0.74432 0.72006 0.23993
 C110 C 0.68330 0.72095 0.25229
 N111 N 0.66618 0.76906 0.24383
 C112 C 0.70667 0.81604 0.22311
 C113 C 0.76709 0.81489 0.21007
 N114 N 0.78519 0.76722 0.21908
 N115 N 0.76008 0.67069 0.24850
 C116 C 0.71712 0.62197 0.26871
 C117 C 0.65541 0.62260 0.28078
 N118 N 0.64083 0.67263 0.27220
 H119 H 0.69161 0.85384 0.21680
 H120 H 0.73046 0.58297 0.27500
 C121 C 0.24578 -0.03605 -0.11050
 C122 C 0.28214 0.02795 -0.09235
 N123 N 0.26452 0.07835 -0.09611
 C124 C 0.21147 0.06729 -0.11687
 C125 C 0.17358 0.00219 -0.13505
 N126 N 0.19338 -0.04694 -0.13123
 N127 N 0.26198 -0.08728 -0.10677
 C128 C 0.31263 -0.07776 -0.08546
 C129 C 0.34923 -0.01386 -0.06697
 N130 N 0.33347 0.03805 -0.07102
 H131 H 0.20119 0.11007 -0.11920
 H132 H 0.32413 -0.11989 -0.08302
 C133 C -0.02739 0.70291 0.56764
 C134 C 0.03080 0.73662 0.58949
 N135 N 0.07664 0.81024 0.59173
 C136 C 0.06651 0.85175 0.57337
 C137 C 0.00667 0.81811 0.55151
 N138 N -0.03771 0.74402 0.54950
 N139 N -0.07448 0.62959 0.56536
 C140 C -0.06696 0.58819 0.58438
 C141 C -0.00987 0.62147 0.60688
 N142 N 0.03851 0.69531 0.60875
 H143 H 0.10491 0.90985 0.57642
 H144 H -0.10624 0.52975 0.58227
 C145 C 0.29754 0.22794 0.23167
 C146 C 0.27055 0.26781 0.24563
 N147 N 0.19864 0.25053 0.23878
 C148 C 0.15250 0.19499 0.21879
 C149 C 0.17936 0.15441 0.20495
 N150 N 0.25173 0.17282 0.21184
 N151 N 0.36880 0.24411 0.23839
 C152 C 0.41435 0.29793 0.25877
 C153 C 0.38766 0.33774 0.27327
 N154 N 0.31615 0.32202 0.26617
 H155 H 0.09609 0.18357 0.21356
 H156 H 0.47082 0.30905 0.26377
 C157 C 0.74057 0.06461 -0.10970
 C158 C 0.70907 0.00212 -0.09386
 N159 N 0.73297 -0.04396 -0.09871
 C160 C 0.78769 -0.02998 -0.11832
 C161 C 0.82094 0.03386 -0.13407
 N162 N 0.79479 0.07849 -0.12922
 N163 N 0.71827 0.11176 -0.10479
 C164 C 0.66647 0.09984 -0.08434
 C165 C 0.63530 0.03783 -0.06798
 N166 N 0.65683 -0.01026 -0.07334
 H167 H 0.80318 -0.06941 -0.12150
 H168 H 0.65032 0.13891 -0.08071
 C169 C 0.28889 0.03428 0.10105
 C170 C 0.25319 -0.02389 0.07995
 N171 N 0.17591 -0.06987 0.07959
 C172 C 0.13259 -0.05998 0.09912
 C173 C 0.16814 -0.00041 0.12025
 N174 N 0.24597 0.04423 0.12038
 N175 N 0.36575 0.08152 0.10139
 C176 C 0.40871 0.07405 0.08116
 C177 C 0.37338 0.01673 0.05947
 N178 N 0.29607 -0.03166 0.05952
 H179 H 0.07162 -0.09873 0.09771
 H180 H 0.46989 0.11343 0.08165
 C181 C 0.75845 0.69360 0.44742
 C182 C 0.73179 0.72369 0.42823
 N183 N 0.76151 0.79618 0.43085
 C184 C 0.81753 0.84018 0.45140
 C185 C 0.84638 0.81048 0.47043
 N186 N 0.81423 0.73723 0.46776
 N187 N 0.73031 0.62155 0.44483
 C188 C 0.67751 0.57819 0.42346
 C189 C 0.65162 0.60809 0.40361
 N190 N 0.67880 0.68040 0.40667
 H191 H 0.83785 0.89708 0.45249
 H192 H 0.65689 0.52095 0.42167
 C193 C -0.06163 0.26234 0.76539
 C194 C 0.01085 0.30640 0.75378
 N195 N 0.06730 0.29537 0.76068
 C196 C 0.05429 0.24187 0.77838
 C197 C -0.01890 0.19681 0.78970
 N198 N -0.07457 0.20914 0.78292
 N199 N -0.11864 0.27221 0.75847
 C200 C -0.10698 0.32356 0.74005
 C201 C -0.03494 0.36724 0.72784
 N202 N 0.02281 0.35801 0.73523
 H203 H 0.10086 0.23532 0.78370
 H204 H -0.15402 0.32951 0.73471
 C205 C 0.73244 -0.00139 0.09077
 C206 C 0.66618 -0.06397 0.07854
 N207 N 0.64727 -0.13043 0.08630
 C208 C 0.69125 -0.13742 0.10611
 C209 C 0.75738 -0.07508 0.11881
 N210 N 0.77687 -0.00822 0.11060
 N211 N 0.75014 0.06504 0.08301
 C212 C 0.70435 0.07152 0.06364
 C213 C 0.63785 0.00860 0.05146
 N214 N 0.62102 -0.05743 0.05930
 H215 H 0.67469 -0.19121 0.11190
 H216 H 0.71965 0.12495 0.05784
 C217 C 0.26346 0.29464 0.43840
 C218 C 0.31298 0.27375 0.42849
 N219 N 0.30966 0.21629 0.44012
 C220 C 0.25887 0.17873 0.46105
 C221 C 0.20914 0.19978 0.47096
 N222 N 0.21336 0.25759 0.45926
 N223 N 0.26567 0.35139 0.42693
 C224 C 0.31529 0.38863 0.40593
 C225 C 0.36566 0.36858 0.39582
 N226 N 0.36335 0.31130 0.40745
 H227 H 0.25810 0.13365 0.47005
 H228 H 0.31547 0.43386 0.39735
 C229 C -0.00198 0.73185 0.76923
 C230 C -0.02706 0.73033 0.74055
 N231 N -0.03590 0.78436 0.73267
 C232 C -0.02001 0.84028 0.75205
 C233 C 0.00711 0.84304 0.78065
 N234 N 0.01476 0.78800 0.78842
 N235 N 0.00943 0.67940 0.77698
 C236 C -0.00130 0.62634 0.75715
 C237 C -0.02414 0.62578 0.72821
 N238 N -0.03690 0.67775 0.72056
 H239 H -0.02569 0.88337 0.74475
 H240 H 0.01115 0.58676 0.76354
   
