data_POSCAR
  _audit_creation_date              2014-09-24
  _audit_creation_method            'ToBaCCo'
  _symmetry_space_group_name_H-M    'P1'
  _symmetry_Int_Tables_number       1
  _symmetry_cell_setting            triclinic
  loop_
  _symmetry_equiv_pos_as_xyz
 x,y,z
_cell_length_a 22.6390
_cell_length_b 22.6133
_cell_length_c 22.6325
_cell_angle_alpha 89.912900
_cell_angle_beta 89.910000
_cell_angle_gamma 90.050400
loop_
  _atom_site_label
  _atom_site_type_symbol
  _atom_site_fract_x
  _atom_site_fract_y
  _atom_site_fract_z
C1 C 0.00088 0.49968 0.25078
 C2 C -0.00086 0.50028 0.74909
 C3 C 0.24939 -0.00037 0.49912
 C4 C 0.75059 0.00029 0.50076
 C5 C 0.50060 0.24971 1.00015
 C6 C 0.49952 0.75016 0.99969
 B7 B 0.99953 1.06026 0.03705
 B8 B 1.03694 1.00026 0.06030
 B9 B 0.96260 0.99975 0.06006
 B10 B 0.93964 1.03679 -0.00026
 B11 B 0.99986 1.06023 -0.03731
 B12 B 1.06002 1.03761 0.00010
 B13 B 1.00058 0.93971 -0.03708
 B14 B 0.96316 0.99972 -0.06032
 B15 B 1.03751 1.00022 -0.06009
 B16 B 1.06048 0.96318 0.00024
 B17 B 1.00025 0.93974 0.03728
 B18 B 0.94009 0.96235 -0.00013
 B19 B 0.56011 0.50016 0.46252
 B20 B 0.56025 0.50033 0.53689
 B21 B 0.53690 0.56038 0.49956
 B22 B 0.49973 0.53701 0.43955
 B23 B 0.50006 0.46258 0.43984
 B24 B 0.53743 0.43987 0.50001
 B25 B 0.43989 0.49968 0.53729
 B26 B 0.43975 0.49952 0.46292
 B27 B 0.46310 0.43947 0.50025
 B28 B 0.50027 0.46284 0.56026
 B29 B 0.49994 0.53727 0.55997
 B30 B 0.46257 0.55997 0.49979
 C31 C 1.00158 1.44606 0.21454
 C32 C 1.00230 1.39923 0.18913
 C33 C 1.00323 1.34122 0.16315
 C34 C 0.97822 1.33113 0.10751
 C35 C 0.97717 1.27388 0.08414
 C36 C 1.00097 1.22661 0.11641
 C37 C 1.02634 1.23679 0.17181
 C38 C 1.02741 1.29396 0.19514
 C39 C 0.99999 1.16793 0.09220
 C40 C 0.99946 1.11958 0.07007
 H41 H 0.95921 1.36728 0.08251
 H42 H 0.95765 1.26642 0.04109
 H43 H 1.04508 1.20058 0.19697
 H44 H 1.04666 1.30127 0.23833
 C45 C 1.00226 0.55342 0.21460
 C46 C 1.00334 0.60031 0.18917
 C47 C 1.00455 0.65832 0.16304
 C48 C 1.03343 0.70446 0.19260
 C49 C 1.03237 0.76178 0.16946
 C50 C 1.00229 0.77324 0.11671
 C51 C 0.97376 0.72708 0.08684
 C52 C 0.97480 0.66969 0.11001
 C53 C 1.00134 0.83203 0.09262
 C54 C 1.00069 0.88043 0.07047
 H55 H 1.05627 0.69619 0.23383
 H56 H 1.05475 0.79712 0.19274
 H57 H 0.95056 0.73553 0.04584
 H58 H 0.95207 0.63445 0.08696
 C59 C 0.99772 1.44661 -0.21460
 C60 C 0.99659 1.39975 -0.18912
 C61 C 0.99533 1.34173 -0.16300
 C62 C 0.96806 1.29522 -0.19348
 C63 C 0.96911 1.23791 -0.17030
 C64 C 0.99758 1.22684 -0.11658
 C65 C 1.02445 1.27337 -0.08577
 C66 C 1.02341 1.33075 -0.10898
 C67 C 0.99863 1.16802 -0.09254
 C68 C 0.99937 1.11959 -0.07045
 H69 H 0.94648 1.30319 -0.23545
 H70 H 0.94800 1.20228 -0.19431
 H71 H 1.04638 1.26523 -0.04401
 H72 H 1.04488 1.36630 -0.08519
 C73 C 0.99857 0.55399 -0.21480
 C74 C 0.99801 0.60090 -0.18952
 C75 C 0.99727 0.65897 -0.16368
 C76 C 0.97603 0.70678 -0.19694
 C77 C 0.97706 0.76391 -0.17350
 C78 C 0.99944 0.77349 -0.11672
 C79 C 1.02037 0.72570 -0.08324
 C80 C 1.01936 0.66849 -0.10671
 C81 C 1.00027 0.83211 -0.09237
 C82 C 1.00070 0.88042 -0.07015
 H83 H 0.95906 0.69991 -0.24114
 H84 H 0.96060 0.80053 -0.19964
 H85 H 1.03762 0.73271 -0.03916
 H86 H 1.03607 0.63190 -0.08071
 C87 C 1.21172 1.00001 0.44657
 C88 C 1.18496 1.00048 0.40054
 C89 C 1.15723 1.00121 0.34343
 C90 C 1.15606 1.05369 0.31043
 C91 C 1.13412 1.05351 0.25272
 C92 C 1.11357 1.00079 0.22769
 C93 C 1.11394 0.94846 0.26091
 C94 C 1.13590 0.94863 0.31864
 C95 C 1.09071 1.00063 0.16852
 C96 C 1.06946 1.00049 0.11983
 H97 H 1.17299 1.09446 0.32896
 H98 H 1.13358 1.09429 0.22751
 H99 H 1.09769 0.90756 0.24205
 H100 H 1.13714 0.90770 0.34355
 C101 C 1.21455 0.99949 -0.44629
 C102 C 1.19010 0.99940 -0.39892
 C103 C 1.16497 0.99934 -0.34051
 C104 C 1.20256 0.99792 -0.29134
 C105 C 1.17903 0.99812 -0.23422
 C106 C 1.11779 0.99978 -0.22604
 C107 C 1.08010 1.00111 -0.27514
 C108 C 1.10366 1.00091 -0.33234
 C109 C 1.09337 1.00008 -0.16743
 C110 C 1.07095 1.00026 -0.11920
 H111 H 1.25005 0.99671 -0.29721
 H112 H 1.20850 0.99702 -0.19655
 H113 H 1.03261 1.00236 -0.26918
 H114 H 1.07421 1.00202 -0.37001
 C115 C 0.78563 1.00040 0.44629
 C116 C 0.81019 1.00053 0.39897
 C117 C 0.83536 1.00073 0.34058
 C118 C 0.79831 1.00875 0.29163
 C119 C 0.82178 1.00838 0.23449
 C120 C 0.88243 0.99993 0.22606
 C121 C 0.91959 0.99202 0.27495
 C122 C 0.89608 0.99237 0.33217
 C123 C 0.90680 0.99972 0.16744
 C124 C 0.92918 0.99964 0.11919
 H125 H 0.75127 1.01518 0.29768
 H126 H 0.79274 1.01464 0.19699
 H127 H 0.96664 0.98556 0.26880
 H128 H 0.92509 0.98607 0.36968
 C129 C 0.78802 1.00062 -0.44652
 C130 C 0.81444 1.00124 -0.40030
 C131 C 0.84163 1.00234 -0.34293
 C132 C 0.82916 1.04901 -0.30419
 C133 C 0.85135 1.04822 -0.24660
 C134 C 0.88590 1.00062 -0.22744
 C135 C 0.89903 0.95427 -0.26634
 C136 C 0.87679 0.95505 -0.32398
 C137 C 0.90910 0.99998 -0.16841
 C138 C 0.93056 0.99967 -0.11981
 H139 H 0.80159 1.08554 -0.31825
 H140 H 0.84129 1.08444 -0.21695
 H141 H 0.92612 0.91748 -0.25200
 H142 H 0.88629 0.91851 -0.35339
 C143 C 1.44618 1.21460 0.00018
 C144 C 1.39889 1.19000 0.00041
 C145 C 1.34053 1.16479 0.00091
 C146 C 1.33162 1.10510 -0.01292
 C147 C 1.27439 1.08168 -0.01318
 C148 C 1.22595 1.11790 0.00027
 C149 C 1.23489 1.17750 0.01419
 C150 C 1.29205 1.20088 0.01448
 C151 C 1.16732 1.09355 0.00021
 C152 C 1.11908 1.07115 0.00017
 H153 H 1.36874 1.07684 -0.02359
 H154 H 1.26787 1.03544 -0.02388
 H155 H 1.19776 1.20581 0.02475
 H156 H 1.29846 1.24715 0.02512
 C157 C 0.55336 1.21226 -0.00053
 C158 C 0.59959 1.18581 -0.00140
 C159 C 0.65695 1.15854 -0.00271
 C160 C 0.67598 1.12336 0.04457
 C161 C 0.73359 1.10103 0.04515
 C162 C 0.77241 1.11406 -0.00140
 C163 C 0.75319 1.14863 -0.04898
 C164 C 0.69562 1.17092 -0.04957
 C165 C 0.83145 1.09081 -0.00090
 C166 C 0.88007 1.06934 -0.00056
 H167 H 0.64663 1.11393 0.08126
 H168 H 0.74797 1.07395 0.08195
 H169 H 0.78276 1.15863 -0.08534
 H170 H 0.68152 1.19851 -0.08609
 C171 C 1.44674 0.78759 0.00030
 C172 C 1.40049 0.81401 0.00110
 C173 C 1.34309 0.84122 0.00239
 C174 C 1.32404 0.87638 -0.04489
 C175 C 1.26642 0.89870 -0.04544
 C176 C 1.22762 0.88568 0.00113
 C177 C 1.24686 0.85107 0.04867
 C178 C 1.30444 0.82879 0.04923
 C179 C 1.16861 0.90903 0.00073
 C180 C 1.12002 0.93058 0.00048
 H181 H 1.35338 0.88583 -0.08158
 H182 H 1.25202 0.92577 -0.08224
 H183 H 1.21730 0.84104 0.08504
 H184 H 1.31855 0.80119 0.08575
 C185 C 0.55395 0.78526 -0.00014
 C186 C 0.60126 0.80981 -0.00008
 C187 C 0.65967 0.83492 -0.00013
 C188 C 0.66795 0.89617 0.00395
 C189 C 0.72516 0.91966 0.00400
 C190 C 0.77418 0.88199 0.00000
 C191 C 0.76588 0.82081 -0.00407
 C192 C 0.70875 0.79735 -0.00413
 C193 C 0.83281 0.90637 -0.00008
 C194 C 0.88103 0.92880 -0.00015
 H195 H 0.63036 0.92561 0.00710
 H196 H 0.73120 0.96710 0.00712
 H197 H 0.80347 0.79135 -0.00720
 H198 H 0.70281 0.74991 -0.00727
 C199 C 0.94637 0.49994 0.28574
 C200 C 0.89905 0.50027 0.31028
 C201 C 0.84067 0.50075 0.33544
 C202 C 0.79180 0.50888 0.29834
 C203 C 0.73467 0.50878 0.32180
 C204 C 0.72616 0.50052 0.38250
 C205 C 0.77498 0.49250 0.41973
 C206 C 0.83220 0.49258 0.39623
 C207 C 0.66753 0.50045 0.40683
 C208 C 0.61927 0.50035 0.42917
 H209 H 0.79790 0.51517 0.25125
 H210 H 0.69723 0.51509 0.29270
 H211 H 0.76878 0.48615 0.46681
 H212 H 0.86963 0.48620 0.42529
 C213 C 0.05349 0.49922 0.28836
 C214 C 0.09957 0.49864 0.31500
 C215 C 0.15675 0.49773 0.34256
 C216 C 0.19148 0.44655 0.33942
 C217 C 0.24918 0.44691 0.36134
 C218 C 0.27247 0.49856 0.38619
 C219 C 0.23752 0.54953 0.39010
 C220 C 0.17980 0.54917 0.36816
 C221 C 0.33161 0.49889 0.40906
 C222 C 0.38028 0.49915 0.43034
 H223 H 0.17427 0.40671 0.31920
 H224 H 0.27572 0.40716 0.35854
 H225 H 0.25504 0.58956 0.40970
 H226 H 0.15354 0.58914 0.37029
 C227 C 0.94651 0.50072 0.71154
 C228 C 0.90043 0.50127 0.68490
 C229 C 0.84326 0.50210 0.65730
 C230 C 0.80898 0.55364 0.65927
 C231 C 0.75128 0.55328 0.63734
 C232 C 0.72754 0.50129 0.61364
 C233 C 0.76204 0.44995 0.61089
 C234 C 0.81976 0.45030 0.63285
 C235 C 0.66840 0.50097 0.59076
 C236 C 0.61973 0.50069 0.56947
 H237 H 0.82652 0.59378 0.67860
 H238 H 0.72508 0.59332 0.63924
 H239 H 0.74418 0.40964 0.59220
 H240 H 0.84567 0.41006 0.63162
 C241 C 0.05363 0.49987 0.71409
 C242 C 0.10093 0.49945 0.68953
 C243 C 0.15930 0.49889 0.66433
 C244 C 0.20811 0.48966 0.70126
 C245 C 0.26524 0.48980 0.67781
 C246 C 0.27382 0.49921 0.61728
 C247 C 0.22506 0.50831 0.58022
 C248 C 0.16784 0.50819 0.60372
 C249 C 0.33245 0.49934 0.59295
 C250 C 0.38072 0.49947 0.57063
 H251 H 0.20196 0.48251 0.74823
 H252 H 0.30264 0.48264 0.70678
 H253 H 0.23131 0.51554 0.53327
 H254 H 0.13046 0.51546 0.57479
 C255 C 0.49865 0.71334 0.05300
 C256 C 0.49769 0.68752 0.09966
 C257 C 0.49631 0.66113 0.15752
 C258 C 0.46115 0.68660 0.20170
 C259 C 0.46203 0.66381 0.25913
 C260 C 0.49821 0.61553 0.27266
 C261 C 0.53302 0.58965 0.22842
 C262 C 0.53216 0.61249 0.17092
 C263 C 0.49891 0.59176 0.33157
 C264 C 0.49937 0.56991 0.38008
 H265 H 0.43356 0.72449 0.19188
 H266 H 0.43477 0.68394 0.29295
 H267 H 0.56094 0.55206 0.23845
 H268 H 0.55978 0.59269 0.13722
 C269 C 0.49856 0.71448 0.94571
 C270 C 0.49783 0.68952 0.89867
 C271 C 0.49704 0.66403 0.84047
 C272 C 0.48150 0.69948 0.79207
 C273 C 0.48222 0.67609 0.73495
 C274 C 0.49856 0.61712 0.72599
 C275 C 0.51386 0.58149 0.77436
 C276 C 0.51315 0.60491 0.83156
 C277 C 0.49923 0.59283 0.66737
 C278 C 0.49968 0.57056 0.61912
 H279 H 0.46915 0.74531 0.79848
 H280 H 0.47020 0.70393 0.69787
 H281 H 0.52649 0.53575 0.76781
 H282 H 0.52540 0.57716 0.86861
 C283 C 0.50166 0.28544 0.05408
 C284 C 0.50240 0.31041 0.10112
 C285 C 0.50317 0.33591 0.15931
 C286 C 0.51859 0.30043 0.20774
 C287 C 0.51783 0.32382 0.26485
 C288 C 0.50154 0.38281 0.27380
 C289 C 0.48635 0.41846 0.22540
 C290 C 0.48712 0.39504 0.16821
 C291 C 0.50081 0.40707 0.33242
 C292 C 0.50033 0.42932 0.38068
 H293 H 0.53090 0.25458 0.20135
 H294 H 0.52975 0.29596 0.30196
 H295 H 0.47376 0.46421 0.23194
 H296 H 0.47493 0.42280 0.13114
 C297 C 0.50135 0.28646 0.94679
 C298 C 0.50225 0.31222 0.90010
 C299 C 0.50360 0.33858 0.84223
 C300 C 0.53847 0.31289 0.79795
 C301 C 0.53760 0.33572 0.74053
 C302 C 0.50172 0.38426 0.72711
 C303 C 0.46718 0.41033 0.77145
 C304 C 0.46803 0.38747 0.82893
 C305 C 0.50105 0.40806 0.66823
 C306 C 0.50062 0.42993 0.61972
 H307 H 0.56584 0.27482 0.80768
 H308 H 0.56465 0.31543 0.70663
 H309 H 0.43949 0.44812 0.76151
 H310 H 0.44063 0.40744 0.86272
 C311 C 0.71453 0.94649 0.50184
 C312 C 0.68917 0.89957 0.50268
 C313 C 0.66315 0.84153 0.50361
 C314 C 0.69543 0.79409 0.52697
 C315 C 0.67201 0.73690 0.52587
 C316 C 0.61623 0.72690 0.50126
 C317 C 0.58369 0.77435 0.47824
 C318 C 0.60714 0.83161 0.47934
 C319 C 0.59195 0.66821 0.50023
 C320 C 0.56981 0.61982 0.49963
 H321 H 0.73890 0.80126 0.54562
 H322 H 0.69739 0.70055 0.54397
 H323 H 0.54037 0.76702 0.45929
 H324 H 0.58193 0.86791 0.46094
 C325 C 0.71423 0.05383 0.50159
 C326 C 0.68880 0.10065 0.50246
 C327 C 0.66285 0.15867 0.50364
 C328 C 0.60952 0.17001 0.47447
 C329 C 0.58648 0.22740 0.47356
 C330 C 0.61679 0.27356 0.50163
 C331 C 0.66984 0.26213 0.53112
 C332 C 0.69285 0.20481 0.53205
 C333 C 0.59281 0.33233 0.50085
 C334 C 0.57070 0.38069 0.50033
 H335 H 0.58612 0.13475 0.45212
 H336 H 0.54523 0.23584 0.45083
 H337 H 0.69346 0.29747 0.55314
 H338 H 0.73429 0.19654 0.55448
 C339 C 0.28541 0.94587 0.49787
 C340 C 0.31072 0.89898 0.49687
 C341 C 0.33670 0.84098 0.49574
 C342 C 0.30632 0.79456 0.46818
 C343 C 0.32944 0.73728 0.46922
 C344 C 0.38298 0.72618 0.49795
 C345 C 0.41365 0.77261 0.52517
 C346 C 0.39050 0.82995 0.52414
 C347 C 0.40708 0.66745 0.49884
 C348 C 0.42926 0.61913 0.49944
 H349 H 0.26451 0.80258 0.44636
 H350 H 0.30554 0.70172 0.44787
 H351 H 0.45526 0.76442 0.54732
 H352 H 0.41420 0.86543 0.54582
 C353 C 0.28577 0.05322 0.49818
 C354 C 0.31124 0.10007 0.49735
 C355 C 0.33722 0.15813 0.49636
 C356 C 0.30475 0.20556 0.47322
 C357 C 0.32809 0.26277 0.47427
 C358 C 0.38399 0.27283 0.49859
 C359 C 0.41674 0.22539 0.52135
 C360 C 0.39335 0.16810 0.52032
 C361 C 0.40817 0.33157 0.49959
 C362 C 0.43023 0.37999 0.50018
 H363 H 0.26118 0.19835 0.45481
 H364 H 0.30255 0.29911 0.45635
 H365 H 0.46015 0.23277 0.54006
 H366 H 0.41872 0.13181 0.53854
   
