data_POSCAR
  _audit_creation_date              2014-09-24
  _audit_creation_method            'ToBaCCo'
  _symmetry_space_group_name_H-M    'P1'
  _symmetry_Int_Tables_number       1
  _symmetry_cell_setting            triclinic
  loop_
  _symmetry_equiv_pos_as_xyz
 x,y,z
_cell_length_a 31.1507
_cell_length_b 25.0166
_cell_length_c 32.8733
_cell_angle_alpha 86.846500
_cell_angle_beta 90.147300
_cell_angle_gamma 86.915800
loop_
  _atom_site_label
  _atom_site_type_symbol
  _atom_site_fract_x
  _atom_site_fract_y
  _atom_site_fract_z
C1 C 0.58509 0.62139 0.67722
 C2 C 0.54586 0.65173 0.67719
 C3 C 0.52801 0.67450 0.64069
 C4 C 0.54950 0.66669 0.60375
 C5 C 0.58895 0.63701 0.60332
 C6 C 0.60672 0.61374 0.64010
 C7 C 0.60414 0.60091 0.71391
 C8 C 0.64455 0.57353 0.71392
 C9 C 0.66563 0.56476 0.67706
 C10 C 0.64705 0.58495 0.63998
 C11 C 0.66922 0.57988 0.60309
 C12 C 0.65209 0.60473 0.56675
 C13 C 0.61196 0.63259 0.56701
 H14 H 0.52942 0.65863 0.70561
 H15 H 0.53622 0.68513 0.57554
 H16 H 0.58847 0.60819 0.74267
 H17 H 0.69726 0.54437 0.67748
 H18 H 0.70079 0.55945 0.60300
 H19 H 0.59938 0.65226 0.53892
 C20 C 0.94021 0.39105 0.16715
 C21 C 0.98254 0.38075 0.15412
 C22 C 0.99050 0.35934 0.11623
 C23 C 0.95620 0.34695 0.09139
 C24 C 0.91361 0.35713 0.10388
 C25 C 0.90555 0.37942 0.14189
 C26 C 0.93195 0.41459 0.20428
 C27 C 0.88945 0.42620 0.21665
 C28 C 0.85515 0.41404 0.19177
 C29 C 0.86288 0.39179 0.15404
 C30 C 0.82880 0.38391 0.12746
 C31 C 0.83667 0.36246 0.08957
 C32 C 0.87898 0.34789 0.07823
 H33 H 1.00936 0.39057 0.17293
 H34 H 0.96277 0.33090 0.06192
 H35 H 0.95850 0.42419 0.22347
 H36 H 0.82251 0.42395 0.20125
 H37 H 0.79607 0.39546 0.13572
 H38 H 0.88499 0.33232 0.04854
 C39 C 0.41490 0.12051 -0.18598
 C40 C 0.45324 0.14754 -0.18746
 C41 C 0.47284 0.16188 -0.15153
 C42 C 0.45338 0.15040 -0.11371
 C43 C 0.41446 0.12466 -0.11173
 C44 C 0.39566 0.10849 -0.14791
 C45 C 0.39447 0.10726 -0.22193
 C46 C 0.35534 0.08212 -0.22003
 C47 C 0.33701 0.06868 -0.18229
 C48 C 0.35667 0.08217 -0.14616
 C49 C 0.33661 0.07280 -0.10855
 C50 C 0.35366 0.09188 -0.07308
 C51 C 0.39299 0.11694 -0.07452
 H52 H 0.46799 0.15758 -0.21651
 H53 H 0.46784 0.16303 -0.08605
 H54 H 0.40814 0.11804 -0.25137
 H55 H 0.30636 0.05002 -0.18126
 H56 H 0.30606 0.05397 -0.10711
 H57 H 0.40623 0.13133 -0.04689
 C58 C 0.04098 0.89959 0.33208
 C59 C -0.00109 0.88975 0.34439
 C60 C -0.00889 0.86895 0.38391
 C61 C 0.02515 0.85832 0.41156
 C62 C 0.06738 0.86800 0.39974
 C63 C 0.07552 0.88781 0.35961
 C64 C 0.04897 0.92258 0.29321
 C65 C 0.09091 0.93292 0.28118
 C66 C 0.12553 0.91913 0.30794
 C67 C 0.11802 0.89732 0.34738
 C68 C 0.15191 0.88745 0.37549
 C69 C 0.14359 0.87040 0.41587
 C70 C 0.10142 0.85983 0.42769
 H71 H -0.02780 0.89848 0.32341
 H72 H 0.01861 0.84287 0.44226
 H73 H 0.02251 0.93366 0.27241
 H74 H 0.15791 0.92799 0.29884
 H75 H 0.18450 0.89579 0.36673
 H76 H 0.09511 0.84608 0.45884
 N77 N 0.14603 0.24021 0.09103
 N78 N 0.11261 0.21513 0.10519
 C79 C 0.07861 0.25047 0.10729
 C80 C 0.09191 0.30004 0.09357
 C81 C 0.13461 0.29251 0.08357
 H82 H 0.04707 0.24100 0.11832
 H83 H 0.15582 0.32259 0.07202
 Cu84 Cu 0.11733 0.13931 0.12141
 Cu85 Cu 0.20202 0.20319 0.08432
 Cu86 Cu 0.20315 0.06473 0.09246
 N87 N 0.13228 0.06926 0.14764
 N88 N 0.16683 0.04054 0.13737
 C89 C 0.17165 -0.00345 0.16291
 C90 C 0.13790 -0.00200 0.18993
 C91 C 0.11347 0.04443 0.17966
 H92 H 0.19822 -0.03309 0.16252
 H93 H 0.08575 0.06047 0.19562
 N94 N 0.24731 0.10379 0.06277
 N95 N 0.24865 0.15654 0.06234
 C96 C 0.28105 0.17198 0.03811
 C97 C 0.30026 0.12686 0.02228
 C98 C 0.27814 0.08419 0.03819
 H99 H 0.28701 0.21313 0.02908
 H100 H 0.28233 0.04273 0.03055
 H101 H 0.17198 0.13715 0.06850
 H102 H 0.19591 0.13364 0.12078
 N103 N 0.37428 0.81071 0.59251
 N104 N 0.38214 0.81894 0.63118
 C105 C 0.41694 0.78820 0.64389
 C106 C 0.43134 0.75965 0.61142
 C107 C 0.40405 0.77468 0.57936
 H108 H 0.43125 0.78786 0.67392
 H109 H 0.40559 0.76030 0.54894
 Cu110 Cu 0.34863 0.87198 0.66182
 Cu111 Cu 0.32432 0.84465 0.56193
 Cu112 Cu 0.25886 0.92323 0.61595
 N113 N 0.32312 0.94211 0.67485
 N114 N 0.28874 0.96294 0.65525
 C115 C 0.27944 1.01270 0.66732
 C116 C 0.30926 1.02300 0.69635
 C117 C 0.33659 0.97763 0.70090
 H118 H 0.25310 1.03925 0.65579
 H119 H 0.36465 0.97155 0.72040
 N120 N 0.23889 0.89232 0.56720
 N121 N 0.26523 0.86377 0.54461
 C122 C 0.24462 0.85264 0.51021
 C123 C 0.20310 0.87465 0.51243
 C124 C 0.20029 0.89932 0.54874
 H125 H 0.25876 0.83066 0.48570
 H126 H 0.17303 0.92271 0.55990
 H127 H 0.33488 0.90047 0.60485
 H128 H 0.30456 0.84075 0.62114
 N129 N 0.85718 0.73032 0.40839
 N130 N 0.89363 0.71278 0.39238
 C131 C 0.92053 0.75313 0.38890
 C132 C 0.89930 0.79803 0.40345
 C133 C 0.85929 0.78263 0.41544
 H134 H 0.95259 0.75017 0.37636
 H135 H 0.83383 0.80725 0.42847
 Cu136 Cu 0.90155 0.63980 0.37551
 Cu137 Cu 0.80990 0.68374 0.41881
 Cu138 Cu 0.83346 0.54842 0.40928
 N139 N 0.89640 0.57313 0.34863
 N140 N 0.86839 0.53803 0.36066
 C141 C 0.86850 0.49868 0.33420
 C142 C 0.89866 0.51007 0.30465
 C143 C 0.91593 0.55711 0.31458
 H144 H 0.84773 0.46534 0.33592
 H145 H 0.93908 0.57951 0.29722
 N146 N 0.78640 0.57542 0.44355
 N147 N 0.77548 0.62714 0.44439
 C148 C 0.74318 0.63401 0.47098
 C149 C 0.73397 0.58427 0.48786
 C150 C 0.76197 0.54785 0.47026
 H151 H 0.73015 0.67245 0.48011
 H152 H 0.76553 0.50512 0.47742
 H153 H 0.85325 0.62107 0.43198
 H154 H 0.82543 0.62151 0.38154
 N155 N 0.63450 0.25752 -0.10947
 N156 N 0.61709 0.28780 -0.13986
 C157 C 0.58031 0.26694 -0.15149
 C158 C 0.57466 0.22151 -0.12669
 C159 C 0.60924 0.21655 -0.10031
 H160 H 0.55846 0.28486 -0.17462
 H161 H 0.61496 0.18657 -0.07564
 Cu162 Cu 0.64224 0.35416 -0.15903
 Cu163 Cu 0.68747 0.27585 -0.08278
 Cu164 Cu 0.69603 0.41302 -0.08694
 N165 N 0.66262 0.42594 -0.16875
 N166 N 0.68403 0.44848 -0.14027
 C167 C 0.69451 0.49763 -0.15411
 C168 C 0.67879 0.50603 -0.19318
 C169 C 0.65851 0.46015 -0.20191
 H170 H 0.71218 0.52502 -0.13701
 H171 H 0.64243 0.45217 -0.22996
 N172 N 0.72384 0.36439 -0.04435
 N173 N 0.72399 0.31160 -0.04500
 C174 C 0.75092 0.28944 -0.01582
 C175 C 0.76733 0.33061 0.00451
 C176 C 0.74980 0.37753 -0.01411
 H177 H 0.75793 0.24689 -0.00998
 H178 H 0.75749 0.41794 -0.00788
 H179 H 0.65666 0.34851 -0.08571
 H180 H 0.70692 0.34480 -0.11639
 N181 N 0.02999 0.35388 0.10312
 N182 N 0.06728 0.34992 0.09084
 N183 N 0.48928 0.70793 0.64207
 N184 N 0.46871 0.72427 0.60989
 N185 N 0.95192 0.85955 0.39513
 N186 N 0.91506 0.85032 0.40576
 N187 N 0.51133 0.19067 -0.15421
 N188 N 0.53772 0.19012 -0.12458
 N189 N 0.09696 -0.03748 0.24335
 N190 N 0.13306 -0.03654 0.22543
 N191 N 0.66456 0.56177 -0.25149
 N192 N 0.68367 0.55329 -0.21874
 N193 N 0.33349 1.07623 0.74669
 N194 N 0.31143 1.07223 0.71601
 N195 N 0.88049 0.45271 0.25344
 N196 N 0.90737 0.48294 0.26827
 N197 N 0.32823 0.08991 -0.03693
 N198 N 0.32803 0.12725 -0.01219
 N199 N 0.67709 0.60828 0.53037
 N200 N 0.70747 0.57444 0.52256
 N201 N 0.80193 0.36157 0.06113
 N202 N 0.80028 0.32615 0.03495
 N203 N 0.17777 0.86770 0.44522
 N204 N 0.16997 0.87618 0.48234
   
