data_POSCAR
  _audit_creation_date              2014-09-24
  _audit_creation_method            'ToBaCCo'
  _symmetry_space_group_name_H-M    'P1'
  _symmetry_Int_Tables_number       1
  _symmetry_cell_setting            triclinic
  loop_
  _symmetry_equiv_pos_as_xyz
 x,y,z
_cell_length_a 24.5976
_cell_length_b 24.6126
_cell_length_c 24.5572
_cell_angle_alpha 89.962000
_cell_angle_beta 90.163900
_cell_angle_gamma 89.372500
loop_
  _atom_site_label
  _atom_site_type_symbol
  _atom_site_fract_x
  _atom_site_fract_y
  _atom_site_fract_z
O1 O 0.28212 1.06064 0.42834
 O2 O 0.31864 0.96078 0.53527
 O3 O 0.30858 0.95574 0.43247
 O4 O 0.29311 1.06326 0.53724
 O5 O 0.20744 1.03952 0.54694
 O6 O 0.22131 0.93636 0.43865
 O7 O 0.23199 0.93904 0.54353
 O8 O 0.19575 1.03966 0.43862
 Cu9 Cu 0.30904 1.01341 0.48172
 Cu10 Cu 0.20517 0.98751 0.49226
 C11 C 0.23257 1.06612 0.41452
 C12 C 0.28148 0.93278 0.55712
 C13 C 0.26817 0.92681 0.41911
 C14 C 0.24806 1.06715 0.56230
 O15 O 0.67535 -0.05587 0.47805
 O16 O 0.68387 0.04948 0.57786
 O17 O 0.67732 0.05215 0.47449
 O18 O 0.70803 -0.05379 0.57908
 O19 O 0.79501 -0.03824 0.56490
 O20 O 0.76503 0.05887 0.45702
 O21 O 0.77082 0.06301 0.55960
 O22 O 0.76295 -0.05047 0.45967
 Cu23 Cu 0.67807 -0.00343 0.52830
 Cu24 Cu 0.78215 0.00714 0.50757
 C25 C 0.71659 -0.07225 0.45242
 C26 C 0.72690 0.07610 0.58415
 C27 C 0.71661 0.07495 0.44969
 C28 C 0.75799 -0.06224 0.59086
 O29 O 0.30087 0.47421 0.92075
 O30 O 0.27151 0.55046 1.04674
 O31 O 0.30109 0.45132 1.02682
 O32 O 0.27509 0.57244 0.94414
 O33 O 0.18812 0.55109 0.93825
 O34 O 0.21484 0.42807 1.02076
 O35 O 0.18487 0.52846 1.03915
 O36 O 0.21463 0.45081 0.91472
 Cu37 Cu 0.29612 0.51344 0.98530
 Cu38 Cu 0.19205 0.48635 0.97736
 C39 C 0.26239 0.45120 0.89536
 C40 C 0.22266 0.55372 1.06320
 C41 C 0.26243 0.42025 1.03974
 C42 C 0.22715 0.58285 0.92790
 O43 O 0.45145 0.26594 1.05343
 O44 O 0.56481 0.30734 0.96657
 O45 O 0.45374 0.30193 0.95137
 O46 O 0.55360 0.26300 1.05676
 O47 O 0.55598 0.18023 1.02194
 O48 O 0.46126 0.22151 0.91220
 O49 O 0.56645 0.22619 0.92797
 O50 O 0.44891 0.18687 1.01087
 Cu51 Cu 0.50406 0.29350 1.00824
 Cu52 Cu 0.50855 0.19555 0.96473
 C53 C 0.43009 0.21986 1.04614
 C54 C 0.58668 0.27292 0.93487
 C55 C 0.43935 0.26819 0.91498
 C56 C 0.57233 0.21466 1.05673
 O57 O 0.46249 0.67713 -0.05328
 O58 O 0.55610 0.66589 0.06028
 O59 O 0.45254 0.65928 0.05164
 O60 O 0.56455 0.69879 -0.04136
 O61 O 0.54847 0.78444 -0.01944
 O62 O 0.43654 0.74609 0.06923
 O63 O 0.54135 0.75190 0.08223
 O64 O 0.44499 0.76329 -0.03402
 Cu65 Cu 0.51042 0.66685 0.00217
 Cu66 Cu 0.49171 0.77012 0.02620
 C67 C 0.43773 0.72127 -0.06325
 C68 C 0.56373 0.70584 0.09153
 C69 C 0.42595 0.69644 0.07644
 C70 C 0.57505 0.74917 -0.04622
 O71 O 1.04479 0.42078 0.27551
 O72 O 0.94359 0.52170 0.32248
 O73 O 0.93840 0.42058 0.28962
 O74 O 1.04859 0.51740 0.31517
 O75 O 1.03700 0.55209 0.23287
 O76 O 0.92314 0.45946 0.20979
 O77 O 0.93646 0.55515 0.23902
 O78 O 1.03141 0.45019 0.19154
 Cu79 Cu 0.99469 0.46636 0.30896
 Cu80 Cu 0.98289 0.50524 0.20899
 C81 C 1.05518 0.41870 0.22501
 C82 C 0.92362 0.55604 0.28890
 C83 C 0.91031 0.42550 0.24646
 C84 C 1.06089 0.55179 0.27888
 O85 O -0.04461 0.47783 0.67176
 O86 O 0.04747 0.59021 0.68591
 O87 O 0.06520 0.48380 0.66173
 O88 O -0.04881 0.57295 0.70983
 O89 O -0.02791 0.54874 0.79411
 O90 O 0.07930 0.45750 0.74652
 O91 O 0.07197 0.56263 0.76823
 O92 O -0.02686 0.45046 0.75574
 Cu93 Cu 0.00519 0.53164 0.67312
 Cu94 Cu 0.02652 0.50174 0.77406
 C95 C -0.05377 0.44669 0.71151
 C96 C 0.07336 0.59733 0.72974
 C97 C 0.09126 0.45513 0.69659
 C98 C -0.05629 0.57682 0.76114
 O99 O 0.42216 0.93320 0.26847
 O100 O 0.53431 1.02795 0.29230
 O101 O 0.42583 1.04162 0.26978
 O102 O 0.51722 0.92554 0.29666
 O103 O 0.54455 0.92742 0.21085
 O104 O 0.43426 1.02462 0.18208
 O105 O 0.54326 1.03762 0.20352
 O106 O 0.44712 0.92667 0.18202
 Cu107 Cu 0.47244 0.98539 0.29068
 Cu108 Cu 0.49653 0.98174 0.18619
 C109 C 0.41773 0.91169 0.22149
 C110 C 0.55823 1.04847 0.25162
 C111 C 0.40968 1.04796 0.22110
 C112 C 0.54557 0.90618 0.25812
 O113 O 1.05700 0.29972 0.53783
 O114 O 0.94087 0.31921 0.44420
 O115 O 0.95188 0.30084 0.54574
 O116 O 1.04962 0.31624 0.43371
 O117 O 1.04350 0.22913 0.41314
 O118 O 0.95005 0.21263 0.52856
 O119 O 0.93841 0.23104 0.42746
 O120 O 1.05829 0.21253 0.51629
 Cu121 Cu 1.00042 0.31805 0.49134
 Cu122 Cu 0.99787 0.21229 0.47029
 C123 C 1.07853 0.25283 0.54122
 C124 C 0.91812 0.27842 0.42245
 C125 C 0.93274 0.25403 0.55430
 C126 C 1.06414 0.27543 0.40532
 O127 O -0.04095 0.72202 0.57247
 O128 O 0.04501 0.72898 0.44984
 O129 O 0.06410 0.71970 0.55058
 O130 O -0.05913 0.73328 0.46681
 O131 O -0.05403 0.82259 0.47403
 O132 O 0.06764 0.80895 0.56006
 O133 O 0.04806 0.81846 0.45811
 O134 O -0.03635 0.81123 0.58093
 Cu135 Cu 0.00091 0.71686 0.50976
 Cu136 Cu 0.00564 0.82443 0.51989
 C137 C -0.05206 0.76543 0.59815
 C138 C 0.06162 0.77494 0.43374
 C139 C 0.08784 0.76193 0.56773
 C140 C -0.07554 0.78057 0.45378
 O141 O 0.72098 0.43028 1.05124
 O142 O 0.72406 0.55804 0.97265
 O143 O 0.74081 0.45470 0.95079
 O144 O 0.71701 0.53290 1.07784
 O145 O 0.80572 0.53447 1.09233
 O146 O 0.82912 0.46552 0.96306
 O147 O 0.81148 0.56656 0.99115
 O148 O 0.81039 0.43325 1.05976
 Cu149 Cu 0.71670 0.49421 1.01166
 Cu150 Cu 0.82282 0.50096 1.02802
 C151 C 0.76555 0.40895 1.06678
 C152 C 0.76798 0.58422 0.96898
 C153 C 0.78982 0.44581 0.93652
 C154 C 0.75773 0.54551 1.10725
 O155 O 0.45043 1.06874 0.72557
 O156 O 0.55899 0.96686 0.71046
 O157 O 0.45565 0.96468 0.73118
 O158 O 0.55335 1.07655 0.71702
 O159 O 0.56892 1.07476 0.80564
 O160 O 0.47185 0.96407 0.81986
 O161 O 0.57440 0.96638 0.79909
 O162 O 0.46140 1.06597 0.81491
 Cu163 Cu 0.50475 1.01892 0.71180
 Cu164 Cu 0.52185 1.01847 0.81851
 C165 C 0.43574 1.08301 0.77291
 C166 C 0.58306 0.94724 0.75181
 C167 C 0.44612 0.94676 0.77878
 C168 C 0.57564 1.09621 0.75934
 C169 C 0.22946 0.19741 0.25911
 C170 C 0.19912 0.24653 0.25700
 C171 C 0.20389 0.28167 0.21170
 C172 C 0.24521 0.27216 0.17307
 C173 C 0.27568 0.22361 0.17528
 C174 C 0.26651 0.18523 0.21687
 C175 C 0.72990 0.78134 0.31246
 C176 C 0.77713 0.74939 0.31917
 C177 C 0.78204 0.69931 0.29171
 C178 C 0.74314 0.68489 0.25200
 C179 C 0.69781 0.71913 0.24238
 C180 C 0.69073 0.76641 0.27351
 C181 C 0.74975 0.22902 0.71261
 C182 C 0.79550 0.26118 0.70279
 C183 C 0.80912 0.30231 0.74000
 C184 C 0.77977 0.30783 0.78927
 C185 C 0.73295 0.27598 0.79840
 C186 C 0.71721 0.23781 0.75868
 C187 C 0.27551 0.80530 0.71264
 C188 C 0.30584 0.80276 0.76157
 C189 C 0.29402 0.76219 0.79997
 C190 C 0.24476 0.73398 0.79700
 C191 C 0.21183 0.74026 0.75072
 C192 C 0.22958 0.77224 0.70691
 C193 C 0.23250 0.26106 0.67355
 C194 C 0.23370 0.31125 0.70152
 C195 C 0.26704 0.31666 0.74807
 C196 C 0.29849 0.27217 0.76746
 C197 C 0.29618 0.22143 0.74035
 C198 C 0.26350 0.21605 0.69308
 C199 C 0.80756 0.75612 0.74295
 C200 C 0.76695 0.79661 0.73431
 C201 C 0.72108 0.79826 0.76891
 C202 C 0.71886 0.76424 0.81532
 C203 C 0.76013 0.72497 0.82436
 C204 C 0.80296 0.71864 0.78632
 C205 C 0.20377 0.74260 0.29372
 C206 C 0.24986 0.77491 0.28498
 C207 C 0.28520 0.76255 0.24144
 C208 C 0.27734 0.71512 0.21019
 C209 C 0.23098 0.68310 0.21858
 C210 C 0.19576 0.69533 0.26237
 C211 C 0.76217 0.25576 0.29789
 C212 C 0.76597 0.28443 0.24826
 C213 C 0.73770 0.26607 0.20183
 C214 C 0.70435 0.22002 0.20499
 C215 C 0.70031 0.19137 0.25461
 C216 C 0.72821 0.20997 0.30135
 N217 N 0.16778 0.13606 0.30479
 N218 N 0.16673 0.10186 0.34636
 C219 C 0.21681 0.10162 0.36875
 C220 C 0.24890 0.13691 0.33932
 N221 N 0.21660 0.15752 0.29976
 H222 H 0.29093 0.14715 0.34655
 N223 N 0.67028 0.81027 0.38475
 N224 N 0.66566 0.84811 0.42248
 C225 C 0.70855 0.88113 0.41673
 C226 C 0.73964 0.86276 0.37375
 N227 N 0.71409 0.81831 0.35484
 H228 H 0.77576 0.88095 0.35722
 N229 N 0.68541 0.19923 0.64464
 N230 N 0.67828 0.15892 0.61014
 C231 C 0.72193 0.12581 0.61529
 C232 C 0.75620 0.14644 0.65430
 N233 N 0.73136 0.19215 0.67185
 H234 H 0.79446 0.12991 0.66904
 N235 N 0.33854 0.82846 0.64009
 N236 N 0.34179 0.86210 0.59812
 C237 C 0.29583 0.89236 0.59842
 C238 C 0.26436 0.87654 0.64179
 N239 N 0.29301 0.83741 0.66744
 H240 H 0.22458 0.89168 0.65342
 N241 N 0.29812 0.18192 0.08820
 N242 N 0.33925 0.17830 0.05368
 C243 C 0.38067 0.20608 0.07594
 C244 C 0.36377 0.22682 0.12534
 N245 N 0.31212 0.21063 0.13149
 H246 H 0.38603 0.25260 0.15305
 N247 N 0.36974 0.70077 0.81158
 N248 N 0.40878 0.68888 0.84673
 C249 C 0.40200 0.72262 0.88938
 C250 C 0.35717 0.75547 0.87982
 N251 N 0.33813 0.74001 0.83088
 H252 H 0.33997 0.78677 0.90569
 N253 N 0.63589 0.65230 0.20481
 N254 N 0.60039 0.64743 0.16468
 C255 C 0.59694 0.69626 0.14001
 C256 C 0.63146 0.73149 0.16611
 N257 N 0.65544 0.70216 0.20602
 H258 H 0.64024 0.77320 0.15564
 N259 N 0.72466 0.28148 0.89739
 N260 N 0.68641 0.28322 0.93524
 C261 C 0.63832 0.28498 0.90885
 C262 C 0.64813 0.28367 0.85393
 N263 N 0.70252 0.28157 0.84815
 H264 H 0.61815 0.28327 0.82179
 N265 N 0.12969 0.31595 0.15589
 N266 N 0.08917 0.35174 0.15758
 C267 C 0.09449 0.37872 0.20486
 C268 C 0.13979 0.35906 0.23176
 N269 N 0.16103 0.32004 0.19961
 H270 H 0.15541 0.37227 0.27059
 N271 N 0.82587 0.37646 0.67808
 N272 N 0.86193 0.41463 0.66841
 C273 C 0.90145 0.40861 0.70608
 C274 C 0.88890 0.36522 0.73904
 N275 N 0.84098 0.34667 0.72048
 H276 H 0.91286 0.34837 0.77205
 N277 N 0.11514 0.73424 0.73191
 N278 N 0.07733 0.69702 0.72560
 C279 C 0.10121 0.64871 0.73652
 C280 C 0.15496 0.65701 0.74921
 N281 N 0.16194 0.71111 0.74579
 H282 H 0.18633 0.62692 0.75751
 N283 N 0.82505 0.63756 0.35635
 N284 N 0.86240 0.59842 0.35744
 C285 C 0.88436 0.59681 0.30732
 C286 C 0.85978 0.63621 0.27555
 N287 N 0.82327 0.66098 0.30780
 H288 H 0.86581 0.64431 0.23265
 N289 N 0.21523 0.22901 0.58125
 N290 N 0.17461 0.22353 0.54633
 C291 C 0.13044 0.24605 0.56978
 C292 C 0.14529 0.26609 0.62014
 N293 N 0.19868 0.25420 0.62596
 H294 H 0.11961 0.28609 0.64988
 N295 N 0.90481 0.77049 0.73584
 N296 N 0.94319 0.77379 0.69835
 C297 C 0.91940 0.76276 0.65020
 C298 C 0.86500 0.75280 0.65901
 N299 N 0.85767 0.75810 0.71312
 H300 H 0.83365 0.74451 0.62923
 N301 N 0.13605 0.81106 0.31610
 N302 N 0.09766 0.82137 0.35235
 C303 C 0.09698 0.77847 0.38631
 C304 C 0.13644 0.74163 0.37025
 N305 N 0.16023 0.76384 0.32642
 H306 H 0.14810 0.70405 0.39006
 N307 N 0.79234 0.32269 0.36408
 N308 N 0.83548 0.33144 0.39522
 C309 C 0.86621 0.28578 0.39347
 C310 C 0.83993 0.24830 0.36129
 N311 N 0.79400 0.27287 0.34370
 H312 H 0.85458 0.20861 0.34878
 N313 N 0.31798 0.39645 0.77333
 N314 N 0.31954 0.43167 0.81407
 C315 C 0.27347 0.42509 0.84275
 C316 C 0.24306 0.38549 0.81768
 N317 N 0.27233 0.36840 0.77452
 H318 H 0.20702 0.36620 0.83339
 N319 N 0.79948 0.28252 0.12793
 N320 N 0.80978 0.32180 0.09276
 C321 C 0.76614 0.35528 0.09277
 C322 C 0.72820 0.33475 0.12844
 N323 N 0.75081 0.28939 0.14997
 H324 H 0.69160 0.35477 0.14290
 N325 N 0.78922 0.71784 0.91862
 N326 N 0.79332 0.68101 0.95783
 C327 C 0.76876 0.63594 0.93934
 C328 C 0.74956 0.64606 0.88731
 N329 N 0.76321 0.69770 0.87602
 H330 H 0.73055 0.61799 0.85941
 N331 N 0.16581 0.65230 0.15159
 N332 N 0.16148 0.61809 0.11037
 C333 C 0.20853 0.58990 0.10831
 C334 C 0.24179 0.60761 0.14985
 N335 N 0.21329 0.64636 0.17656
 H336 H 0.28255 0.59371 0.15885
 N337 N 0.32553 0.16253 0.81515
 N338 N 0.36507 0.12712 0.82608
 C339 C 0.39063 0.11711 0.77864
 C340 C 0.36504 0.14694 0.73808
 N341 N 0.32503 0.17529 0.76268
 H342 H 0.37723 0.15112 0.69598
 N343 N 0.31548 0.82471 0.17176
 N344 N 0.34993 0.86491 0.16456
 C345 C 0.37730 0.87009 0.21172
 C346 C 0.35935 0.83154 0.24781
 N347 N 0.32084 0.80362 0.22113
 H348 H 0.37406 0.82417 0.28859
 N349 N 0.68987 0.09698 0.28143
 N350 N 0.65252 0.05883 0.28335
 C351 C 0.60737 0.08005 0.26033
 C352 C 0.61811 0.13250 0.24380
 N353 N 0.67020 0.14159 0.25812
 H354 H 0.59066 0.16132 0.22449
 N355 N 0.63704 0.81673 0.72046
 N356 N 0.60090 0.85631 0.71329
 C357 C 0.61664 0.89819 0.74474
 C358 C 0.66381 0.88307 0.77177
 N359 N 0.67517 0.83200 0.75512
 H360 H 0.68731 0.90650 0.80055
 N361 N 0.82512 0.86400 0.69214
 N362 N 0.82442 0.90143 0.65352
 C363 C 0.77369 0.90270 0.63277
 C364 C 0.74325 0.86426 0.65977
 N365 N 0.77712 0.84050 0.69646
 H366 H 0.70189 0.85302 0.65102
 N367 N 0.31272 0.33579 0.14190
 N368 N 0.31952 0.37479 0.10559
 C369 C 0.27256 0.37927 0.07752
 C370 C 0.23672 0.34127 0.09750
 N371 N 0.26341 0.31511 0.13798
 H372 H 0.19607 0.33331 0.08318
 N373 N 0.20461 0.14007 0.67631
 N374 N 0.19753 0.10176 0.63925
 C375 C 0.24239 0.10081 0.60786
 C376 C 0.27806 0.13934 0.62795
 N377 N 0.25263 0.16319 0.67062
 H378 H 0.31588 0.15246 0.61004
 N379 N 0.30806 0.80087 0.36013
 N380 N 0.31526 0.84089 0.39531
 C381 C 0.27701 0.87892 0.38438
 C382 C 0.24581 0.86084 0.34110
 N383 N 0.26706 0.81210 0.32678
 H384 H 0.21176 0.88141 0.32189
 N385 N 0.66517 0.18737 0.37312
 N386 N 0.65895 0.14935 0.41075
 C387 C 0.70652 0.12198 0.41394
 C388 C 0.74266 0.14541 0.37794
 N389 N 0.71518 0.18611 0.35311
 H390 H 0.78305 0.13115 0.36737
 N391 N 0.66698 0.82278 0.87622
 N392 N 0.62882 0.82001 0.91390
 C393 C 0.61532 0.76728 0.91856
 C394 C 0.64650 0.73759 0.88209
 N395 N 0.67802 0.77400 0.85623
 H396 H 0.64551 0.69435 0.87430
 N397 N 0.18781 0.30272 0.33719
 N398 N 0.15177 0.31348 0.37572
 C399 C 0.10898 0.28099 0.36660
 C400 C 0.12002 0.24950 0.32122
 N401 N 0.16953 0.26468 0.30401
 H402 H 0.09479 0.21878 0.30279
 N403 N 0.67420 0.15438 0.13648
 N404 N 0.63757 0.15123 0.09684
 C405 C 0.61245 0.20019 0.09420
 C406 C 0.63502 0.23354 0.13301
 N407 N 0.67335 0.20357 0.15837
 H408 H 0.62396 0.27511 0.14271
 N409 N 0.30919 0.30063 0.86193
 N410 N 0.34631 0.30292 0.90086
 C411 C 0.39232 0.28127 0.88038
 C412 C 0.38212 0.26534 0.82722
 N413 N 0.32956 0.27855 0.81718
 H414 H 0.40968 0.24530 0.79923
 N415 N 0.35444 0.65504 0.19366
 N416 N 0.39365 0.64690 0.15760
 C417 C 0.38480 0.68260 0.11687
 C418 C 0.33893 0.71300 0.12910
 N419 N 0.32108 0.69441 0.17726
 H420 H 0.32153 0.74629 0.10594
 N421 N 0.86422 0.66223 0.84198
 N422 N 0.90144 0.62346 0.83643
 C423 C 0.90568 0.61313 0.78272
 C424 C 0.86934 0.64667 0.75544
 N425 N 0.84420 0.67691 0.79402
 H426 H 0.86191 0.64872 0.71203
 N427 N 0.28965 0.10260 0.16917
 N428 N 0.33113 0.06815 0.16613
 C429 C 0.36252 0.07734 0.21005
 C430 C 0.33869 0.11822 0.24056
 N431 N 0.29335 0.13331 0.21326
 H432 H 0.35572 0.13871 0.27553
 N433 N 0.17150 0.62485 0.32637
 N434 N 0.13598 0.58527 0.33228
 C435 C 0.10152 0.58896 0.28968
 C436 C 0.11605 0.63287 0.25824
 N437 N 0.16018 0.65404 0.28237
 H438 H 0.09591 0.64798 0.22205
 N439 N 0.77546 0.38015 0.22574
 N440 N 0.81311 0.41797 0.22263
 C441 C 0.85981 0.39508 0.24043
 C442 C 0.84968 0.34182 0.25479
 N443 N 0.79640 0.33406 0.24464
 H444 H 0.87827 0.31161 0.26984
 N445 N 0.19855 0.37762 0.63471
 N446 N 0.16014 0.41594 0.63129
 C447 C 0.13591 0.41822 0.68047
 C448 C 0.16052 0.38025 0.71388
 N449 N 0.19955 0.35601 0.68419
 H450 H 0.14955 0.36986 0.75516
 N451 N 0.84933 0.81355 0.33508
 N452 N 0.88744 0.82474 0.37136
 C453 C 0.88362 0.78712 0.41096
 C454 C 0.84205 0.75226 0.39790
 N455 N 0.82162 0.77035 0.35026
 H456 H 0.82803 0.71779 0.42102
 N457 N 0.79896 0.24699 0.60452
 N458 N 0.83473 0.24240 0.56475
 C459 C 0.88403 0.24925 0.58734
 C460 C 0.87758 0.25909 0.64224
 N461 N 0.82363 0.25646 0.65150
 H462 H 0.90875 0.26715 0.67227
 N463 N 0.21130 0.71735 0.62811
 N464 N 0.17207 0.71153 0.59172
 C465 C 0.13975 0.75578 0.59604
 C466 C 0.16071 0.78944 0.63547
 N467 N 0.20538 0.76383 0.65464
 H468 H 0.14196 0.82543 0.65285
 N469 N 0.74715 0.58578 0.24583
 N470 N 0.74892 0.54735 0.20803
 C471 C 0.74997 0.57293 0.15948
 C472 C 0.75030 0.62811 0.16849
 N473 N 0.74819 0.63446 0.22288
 H474 H 0.75192 0.66047 0.13867
 N475 N 0.17744 0.70169 0.86174
 N476 N 0.17021 0.66075 0.89593
 C477 C 0.21723 0.63227 0.89655
 C478 C 0.25346 0.65673 0.86210
 N479 N 0.22713 0.69996 0.84097
 H480 H 0.29342 0.64203 0.85095
 N481 N 0.84737 0.34684 0.84918
 N482 N 0.85192 0.38437 0.88728
 C483 C 0.80280 0.40861 0.89193
 C484 C 0.76778 0.38487 0.85515
 N485 N 0.79744 0.34654 0.82914
 H486 H 0.72475 0.39285 0.84958
 N487 N 0.59509 0.77564 0.29534
 N488 N 0.55585 0.81278 0.29347
 C489 C 0.57660 0.85639 0.26802
 C490 C 0.62977 0.84525 0.25427
 N491 N 0.63956 0.79442 0.27210
 H492 H 0.65884 0.87168 0.23493
 N493 N 0.62238 0.22976 0.73444
 N494 N 0.58491 0.19180 0.73062
 C495 C 0.60551 0.14714 0.75508
 C496 C 0.65670 0.15902 0.77484
 N497 N 0.66560 0.21123 0.76119
 H498 H 0.68579 0.13168 0.79392
 N499 N 0.33879 0.86638 0.82831
 N500 N 0.37591 0.90413 0.83521
 C501 C 0.40297 0.90769 0.78790
 C502 C 0.38153 0.87089 0.75166
 N503 N 0.34134 0.84564 0.77860
 H504 H 0.39618 0.86218 0.71133
   
