data_POSCAR
  _audit_creation_date              2014-09-24
  _audit_creation_method            'ToBaCCo'
  _symmetry_space_group_name_H-M    'P1'
  _symmetry_Int_Tables_number       1
  _symmetry_cell_setting            triclinic
  loop_
  _symmetry_equiv_pos_as_xyz
 x,y,z
_cell_length_a 36.9987
_cell_length_b 37.1298
_cell_length_c 38.1842
_cell_angle_alpha 84.716500
_cell_angle_beta 95.819100
_cell_angle_gamma 94.546200
loop_
  _atom_site_label
  _atom_site_type_symbol
  _atom_site_fract_x
  _atom_site_fract_y
  _atom_site_fract_z
C1 C 0.30695 0.28558 0.23382
 H2 H 0.31841 0.26793 0.25540
 C3 C 0.33040 0.30652 0.21241
 H4 H 0.35948 0.30440 0.21786
 C5 C 0.25582 0.31149 0.20194
 H6 H 0.22692 0.31449 0.19863
 C7 C 0.27830 0.33283 0.17972
 H8 H 0.26607 0.35082 0.15868
 N9 N 0.27021 0.28750 0.22775
 C10 C 0.18579 0.26618 0.30094
 H11 H 0.18110 0.23705 0.30091
 C12 C 0.16512 0.28536 0.32052
 H13 H 0.14479 0.27066 0.33585
 C14 C 0.21886 0.32044 0.28169
 H15 H 0.24003 0.33396 0.26674
 C16 C 0.19874 0.34070 0.30077
 H17 H 0.20428 0.36983 0.29972
 Zn18 Zn 0.23923 0.25617 0.25651
 N19 N 0.21207 0.28388 0.28211
 C20 C 0.27124 0.22760 0.32387
 N21 N 0.26901 0.22593 0.28824
 C22 C 0.28865 0.20275 0.27362
 C23 C 0.31190 0.18034 0.29487
 C24 C 0.29419 0.20546 0.34622
 C25 C 0.18539 0.24031 0.19975
 C26 C 0.16331 0.21783 0.17772
 C27 C 0.18193 0.16606 0.21622
 C28 C 0.20386 0.18948 0.23729
 N29 N 0.20622 0.22588 0.22824
 H30 H 0.25560 0.24637 0.33496
 H31 H 0.28636 0.20193 0.24523
 H32 H 0.32708 0.16197 0.28262
 H33 H 0.29614 0.20746 0.37447
 H34 H 0.18600 0.26921 0.19366
 H35 H 0.14825 0.22993 0.15439
 H36 H 0.18071 0.13723 0.22398
 H37 H 0.21892 0.17836 0.26097
 C38 C 0.17150 0.32317 0.32065
 C39 C 0.31615 0.33005 0.18443
 C40 C 0.16191 0.18005 0.18546
 C41 C 0.31514 0.18168 0.33167
 C42 C 0.79451 0.82006 0.23199
 H43 H 0.79517 0.82665 0.25907
 C44 C 0.81494 0.84198 0.20836
 H45 H 0.82952 0.86595 0.21807
 C46 C 0.77311 0.78114 0.18769
 H47 H 0.75785 0.75666 0.17999
 C48 C 0.79365 0.80172 0.16338
 H49 H 0.79368 0.79149 0.13782
 N50 N 0.77335 0.79086 0.22111
 C51 C 0.69709 0.76991 0.30236
 H52 H 0.69829 0.74083 0.30706
 C53 C 0.67536 0.78805 0.32176
 H54 H 0.66020 0.77277 0.34168
 C55 C 0.71581 0.82510 0.27087
 H56 H 0.73085 0.83937 0.25045
 C57 C 0.69455 0.84436 0.28979
 H58 H 0.69372 0.87339 0.28388
 Zn59 Zn 0.74650 0.76120 0.25401
 N60 N 0.71732 0.78862 0.27799
 C61 C 0.78329 0.74016 0.32158
 N62 N 0.78075 0.73703 0.28617
 C63 C 0.80298 0.71605 0.27197
 C64 C 0.82801 0.69592 0.29369
 C65 C 0.80803 0.72047 0.34433
 C66 C 0.69139 0.73860 0.20281
 C67 C 0.66965 0.71392 0.18291
 C68 C 0.69442 0.66507 0.22188
 C69 C 0.71608 0.69066 0.24065
 N70 N 0.71492 0.72662 0.23031
 H71 H 0.76608 0.75772 0.33230
 H72 H 0.80058 0.71432 0.24369
 H73 H 0.84449 0.67839 0.28187
 H74 H 0.80957 0.72308 0.37246
 H75 H 0.69058 0.76740 0.19550
 H76 H 0.65265 0.72411 0.15997
 H77 H 0.69590 0.63660 0.23059
 H78 H 0.73395 0.68169 0.26338
 C79 C 0.67420 0.82584 0.31581
 C80 C 0.81495 0.83327 0.17303
 C81 C 0.67145 0.67648 0.19197
 C82 C 0.83053 0.69766 0.33045
 C83 C 0.80671 0.29456 0.73247
 H84 H 0.81775 0.27651 0.75396
 C85 C 0.83050 0.31604 0.71185
 H86 H 0.85955 0.31413 0.71786
 C87 C 0.75586 0.32006 0.69951
 H88 H 0.72665 0.32151 0.69489
 C89 C 0.77870 0.34188 0.67800
 H90 H 0.76671 0.35954 0.65653
 N91 N 0.77004 0.29595 0.72530
 C92 C 0.68455 0.27033 0.79740
 H93 H 0.68088 0.24118 0.79813
 C94 C 0.66378 0.28884 0.81746
 H95 H 0.64437 0.27354 0.83346
 C96 C 0.71551 0.32542 0.77726
 H97 H 0.73603 0.33966 0.76199
 C98 C 0.69525 0.34501 0.79682
 H99 H 0.69997 0.37423 0.79569
 Zn100 Zn 0.73851 0.26276 0.75138
 N101 N 0.70984 0.28872 0.77774
 C102 C 0.76851 0.23060 0.81782
 N103 N 0.76725 0.23115 0.78212
 C104 C 0.78703 0.20894 0.76664
 C105 C 0.81050 0.18610 0.78707
 C106 C 0.79098 0.20746 0.83948
 C107 C 0.70711 0.23996 0.68468
 C108 C 0.68625 0.21690 0.66243
 C109 C 0.66840 0.17961 0.71381
 C110 C 0.68946 0.20353 0.73512
 N111 N 0.70813 0.23324 0.72041
 H112 H 0.75267 0.24866 0.82963
 H113 H 0.78489 0.20942 0.73812
 H114 H 0.82469 0.16835 0.77316
 H115 H 0.79217 0.20944 0.86764
 H116 H 0.72287 0.26277 0.67309
 H117 H 0.68561 0.22309 0.63411
 H118 H 0.65455 0.15570 0.72612
 H119 H 0.69192 0.19758 0.76344
 C120 C 0.66902 0.32672 0.81740
 C121 C 0.81658 0.33938 0.68353
 C122 C 0.66672 0.18607 0.67690
 C123 C 0.81346 0.18500 0.82444
 C124 C 0.29840 0.81107 0.73830
 H125 H 0.30301 0.81376 0.76640
 C126 C 0.32099 0.83112 0.71524
 H127 H 0.34310 0.84897 0.72593
 C128 C 0.26540 0.78274 0.69065
 H129 H 0.24458 0.76316 0.68102
 C130 C 0.28694 0.80250 0.66670
 H131 H 0.28137 0.79851 0.63889
 N132 N 0.27124 0.78742 0.72573
 C133 C 0.19356 0.76910 0.80551
 H134 H 0.19235 0.73980 0.80922
 C135 C 0.17209 0.78832 0.82416
 H136 H 0.15472 0.77360 0.84259
 C137 C 0.21815 0.82375 0.77718
 H138 H 0.23578 0.83738 0.75849
 C139 C 0.19716 0.84408 0.79534
 H140 H 0.19881 0.87332 0.79036
 Zn141 Zn 0.24384 0.75836 0.75870
 N142 N 0.21624 0.78697 0.78285
 C143 C 0.27919 0.73552 0.82629
 N144 N 0.27753 0.73331 0.79079
 C145 C 0.30032 0.71293 0.77658
 C146 C 0.32517 0.69262 0.79836
 C147 C 0.30370 0.71561 0.84910
 C148 C 0.18576 0.73684 0.70954
 C149 C 0.16402 0.71259 0.68912
 C150 C 0.19152 0.66310 0.72489
 C151 C 0.21326 0.68830 0.74406
 N152 N 0.21100 0.72443 0.73529
 H153 H 0.26144 0.75252 0.83704
 H154 H 0.29861 0.71193 0.74823
 H155 H 0.34220 0.67566 0.78649
 H156 H 0.30459 0.71756 0.87730
 H157 H 0.18382 0.76573 0.70369
 H158 H 0.14599 0.72330 0.66723
 H159 H 0.19410 0.63450 0.73225
 H160 H 0.23229 0.67885 0.76563
 C161 C 0.17379 0.82635 0.81925
 C162 C 0.31558 0.82672 0.67886
 C163 C 0.16738 0.67507 0.69610
 C164 C 0.32690 0.69354 0.83519
 C165 C 0.02986 -0.03067 -0.03470
 C166 C 0.05291 -0.00781 -0.00778
 C167 C 0.03313 0.01220 0.01048
 C168 C -0.00815 0.00713 0.00059
 C169 C 0.00279 -0.05363 -0.01239
 C170 C -0.01713 -0.03392 0.00579
 C171 C 0.00667 -0.00365 -0.05782
 C172 C -0.01330 0.01630 -0.03967
 H173 H 0.08219 -0.00779 -0.00310
 H174 H -0.02434 0.02263 0.01607
 H175 H 0.00053 -0.08300 -0.01000
 H176 H 0.00512 -0.00202 -0.08637
 C177 C 0.03467 0.46906 0.47107
 C178 C 0.05858 0.49043 0.49861
 C179 C 0.03972 0.51037 0.51781
 C180 C -0.00167 0.50687 0.50798
 C181 C 0.00723 0.44625 0.49308
 C182 C -0.01183 0.46575 0.51255
 C183 C 0.01235 0.49742 0.44894
 C184 C -0.00657 0.51742 0.46793
 H185 H 0.08770 0.48908 0.50355
 H186 H -0.01683 0.52297 0.52381
 H187 H 0.00398 0.41699 0.49366
 H188 H 0.01139 0.50084 0.42039
 C189 C 0.53310 -0.03658 0.46907
 C190 C 0.55622 -0.01266 0.49482
 C191 C 0.53650 0.00687 0.51363
 C192 C 0.49496 -0.00021 0.50565
 C193 C 0.50820 -0.06036 0.49290
 C194 C 0.48760 -0.04168 0.51161
 C195 C 0.50799 -0.01083 0.44661
 C196 C 0.48811 0.00832 0.46550
 H197 H 0.58555 -0.01253 0.49927
 H198 H 0.47874 0.01569 0.52068
 H199 H 0.50816 -0.08963 0.49578
 H200 H 0.50601 -0.00839 0.41801
 C201 C 0.53306 0.46652 -0.02624
 C202 C 0.55715 0.48761 0.00136
 C203 C 0.53842 0.50715 0.02104
 C204 C 0.49694 0.50345 0.01172
 C205 C 0.50602 0.44321 -0.00419
 C206 C 0.48708 0.46223 0.01586
 C207 C 0.51035 0.49494 -0.04775
 C208 C 0.49155 0.51448 -0.02822
 H209 H 0.58634 0.48656 0.00581
 H210 H 0.48192 0.51925 0.02796
 H211 H 0.50291 0.41399 -0.00404
 H212 H 0.50908 0.49881 -0.07630
 C213 C 0.10891 -0.11402 -0.12154
 C214 C 0.14528 -0.10148 -0.12675
 C215 C 0.16608 -0.12075 -0.14643
 C216 C 0.15136 -0.15273 -0.16091
 C217 C 0.11530 -0.16503 -0.15579
 C218 C 0.09432 -0.14603 -0.13641
 C219 C 0.08779 -0.09289 -0.09998
 C220 C 0.05118 -0.10244 -0.09408
 C221 C 0.03294 -0.08232 -0.07323
 C222 C 0.05071 -0.05247 -0.05693
 C223 C 0.08666 -0.04163 -0.06437
 C224 C 0.10531 -0.06173 -0.08527
 C225 C 0.16083 -0.07005 -0.11196
 C226 C 0.14132 -0.05066 -0.09161
 H227 H 0.18866 -0.06042 -0.11595
 H228 H 0.15471 -0.02666 -0.08054
 H229 H 0.19410 -0.11127 -0.14979
 H230 H 0.10312 -0.18939 -0.16703
 H231 H 0.00458 -0.09016 -0.07004
 H232 H 0.10024 -0.01721 -0.05450
 H233 H 0.06689 -0.15705 -0.13324
 H234 H 0.03596 -0.12518 -0.10549
 C235 C 0.10966 0.38392 0.38209
 C236 C 0.14730 0.39298 0.37980
 C237 C 0.16716 0.37313 0.35979
 C238 C 0.15019 0.34417 0.34166
 C239 C 0.11286 0.33531 0.34388
 C240 C 0.09284 0.35480 0.36381
 C241 C 0.08958 0.40563 0.40413
 C242 C 0.05208 0.39920 0.40788
 C243 C 0.03486 0.41980 0.42920
 C244 C 0.05446 0.44708 0.44799
 C245 C 0.09153 0.45478 0.44285
 C246 C 0.10918 0.43408 0.42167
 C247 C 0.16499 0.42169 0.39761
 C248 C 0.14635 0.44182 0.41802
 H249 H 0.19379 0.42868 0.39581
 H250 H 0.16137 0.46370 0.43135
 H251 H 0.19610 0.37992 0.35881
 H252 H 0.09891 0.31343 0.32981
 H253 H 0.00590 0.41432 0.43100
 H254 H 0.10695 0.47724 0.45468
 H255 H 0.06429 0.34660 0.36451
 H256 H 0.03547 0.37849 0.39455
 C257 C 0.61064 -0.11723 0.37864
 C258 C 0.64600 -0.10314 0.37123
 C259 C 0.66629 -0.12152 0.35028
 C260 C 0.65215 -0.15423 0.33689
 C261 C 0.61720 -0.16822 0.34440
 C262 C 0.59666 -0.15004 0.36494
 C263 C 0.58996 -0.09686 0.40127
 C264 C 0.55406 -0.10766 0.40885
 C265 C 0.53619 -0.08815 0.43054
 C266 C 0.55370 -0.05772 0.44606
 C267 C 0.58886 -0.04570 0.43703
 C268 C 0.60708 -0.06508 0.41511
 C269 C 0.66112 -0.07111 0.38516
 C270 C 0.64217 -0.05260 0.40678
 H271 H 0.68820 -0.06033 0.37954
 H272 H 0.65523 -0.02811 0.41714
 H273 H 0.69353 -0.11080 0.34511
 H274 H 0.60558 -0.19328 0.33415
 H275 H 0.50830 -0.09692 0.43499
 H276 H 0.60207 -0.02087 0.44639
 H277 H 0.57010 -0.16233 0.36997
 H278 H 0.53907 -0.13084 0.39805
 C279 C 0.60751 0.38483 -0.11858
 C280 C 0.64478 0.39499 -0.12191
 C281 C 0.66453 0.37606 -0.14285
 C282 C 0.64778 0.34691 -0.16084
 C283 C 0.61080 0.33697 -0.15762
 C284 C 0.59091 0.35557 -0.13679
 C285 C 0.58757 0.40554 -0.09556
 C286 C 0.55040 0.39801 -0.09079
 C287 C 0.53330 0.41775 -0.06863
 C288 C 0.55273 0.44521 -0.04998
 C289 C 0.58940 0.45403 -0.05611
 C290 C 0.60694 0.43421 -0.07815
 C291 C 0.66226 0.42386 -0.10419
 C292 C 0.64374 0.44307 -0.08284
 H293 H 0.69077 0.43170 -0.10678
 H294 H 0.65857 0.46512 -0.06962
 H295 H 0.69322 0.38366 -0.14462
 H296 H 0.59704 0.31490 -0.17155
 H297 H 0.50454 0.41149 -0.06617
 H298 H 0.60454 0.47670 -0.04438
 H299 H 0.56264 0.34654 -0.13532
 H300 H 0.53394 0.37710 -0.10399
 C301 C -0.11412 0.11684 -0.11339
 C302 C -0.10740 0.12986 -0.14821
 C303 C -0.13174 0.15216 -0.16875
 C304 C -0.16285 0.16335 -0.15512
 C305 C -0.16805 0.15155 -0.11955
 C306 C -0.14441 0.12852 -0.09927
 C307 C -0.08831 0.09156 -0.09304
 C308 C -0.09441 0.07409 -0.05957
 C309 C -0.06997 0.04999 -0.04221
 C310 C -0.03859 0.04297 -0.05750
 C311 C -0.03212 0.06071 -0.09062
 C312 C -0.05697 0.08411 -0.10871
 C313 C -0.07601 0.12111 -0.16231
 C314 C -0.05103 0.09926 -0.14276
 H315 H -0.07052 0.13151 -0.18886
 H316 H -0.02709 0.09344 -0.15483
 H317 H -0.12469 0.16242 -0.19482
 H318 H -0.19158 0.15805 -0.10740
 H319 H -0.07637 0.03615 -0.01718
 H320 H -0.00780 0.05614 -0.10269
 H321 H -0.15040 0.12016 -0.07254
 H322 H -0.11832 0.07794 -0.04676
 C323 C -0.09914 0.62637 0.39631
 C324 C -0.08732 0.64507 0.36503
 C325 C -0.10983 0.66916 0.34438
 C326 C -0.14444 0.67474 0.35404
 C327 C -0.15574 0.65683 0.38548
 C328 C -0.13345 0.63304 0.40639
 C329 C -0.07498 0.59952 0.41666
 C330 C -0.08437 0.57906 0.44779
 C331 C -0.06179 0.55306 0.46471
 C332 C -0.02932 0.54666 0.45114
 C333 C -0.01911 0.56780 0.42083
 C334 C -0.04162 0.59393 0.40352
 C335 C -0.05347 0.63906 0.35408
 C336 C -0.03115 0.61401 0.37287
 H337 H -0.04434 0.65352 0.33024
 H338 H -0.00547 0.60993 0.36296
 H339 H -0.10054 0.68330 0.32045
 H340 H -0.18244 0.66034 0.39341
 H341 H -0.07047 0.53726 0.48788
 H342 H 0.00640 0.56385 0.41053
 H343 H -0.14395 0.61968 0.42992
 H344 H -0.10924 0.58228 0.45928
 C345 C 0.38801 0.11103 0.39510
 C346 C 0.39869 0.13058 0.36376
 C347 C 0.37511 0.15409 0.34385
 C348 C 0.34060 0.15852 0.35437
 C349 C 0.33034 0.13990 0.38587
 C350 C 0.35366 0.11643 0.40601
 C351 C 0.41359 0.08508 0.41480
 C352 C 0.40548 0.06366 0.44587
 C353 C 0.42985 0.03909 0.46251
 C354 C 0.46282 0.03520 0.44860
 C355 C 0.47144 0.05688 0.41811
 C356 C 0.44720 0.08154 0.40114
 C357 C 0.43262 0.12625 0.35211
 C358 C 0.45636 0.10229 0.37041
 H359 H 0.44083 0.14137 0.32821
 H360 H 0.48217 0.09967 0.36008
 H361 H 0.38360 0.16893 0.31991
 H362 H 0.30378 0.14275 0.39448
 H363 H 0.42242 0.02246 0.48585
 H364 H 0.49720 0.05463 0.40753
 H365 H 0.34410 0.10249 0.42973
 H366 H 0.38035 0.06515 0.45753
 C367 C 0.39781 0.62277 -0.09894
 C368 C 0.40977 0.64223 -0.12980
 C369 C 0.38702 0.66609 -0.15044
 C370 C 0.35200 0.67068 -0.14122
 C371 C 0.34049 0.65199 -0.11022
 C372 C 0.36303 0.62841 -0.08930
 C373 C 0.42230 0.59621 -0.07861
 C374 C 0.41289 0.57510 -0.04781
 C375 C 0.43580 0.54929 -0.03105
 C376 C 0.46859 0.54375 -0.04446
 C377 C 0.47886 0.56562 -0.07431
 C378 C 0.45606 0.59156 -0.09146
 C379 C 0.44404 0.63720 -0.14038
 C380 C 0.46664 0.61236 -0.12168
 H381 H 0.45328 0.65224 -0.16390
 H382 H 0.49262 0.60900 -0.13134
 H383 H 0.39646 0.68085 -0.17402
 H384 H 0.31349 0.65473 -0.10264
 H385 H 0.42714 0.53289 -0.00817
 H386 H 0.50462 0.56230 -0.08444
 H387 H 0.35238 0.61439 -0.06613
 H388 H 0.38776 0.57765 -0.03652
 C389 C -0.11986 -0.10617 0.09843
 C390 C -0.11295 -0.10127 0.13478
 C391 C -0.13442 -0.12107 0.15928
 C392 C -0.16401 -0.14532 0.14826
 C393 C -0.17192 -0.14770 0.11150
 C394 C -0.15022 -0.12878 0.08717
 C395 C -0.09463 -0.08686 0.07345
 C396 C -0.09633 -0.09382 0.03762
 C397 C -0.07128 -0.07627 0.01572
 C398 C -0.04442 -0.05096 0.02878
 C399 C -0.04261 -0.04338 0.06419
 C400 C -0.06686 -0.06190 0.08684
 C401 C -0.08459 -0.07662 0.14651
 C402 C -0.06258 -0.05676 0.12294
 H403 H -0.07949 -0.07239 0.17433
 H404 H -0.04117 -0.03788 0.13332
 H405 H -0.12659 -0.11821 0.18697
 H406 H -0.19559 -0.16341 0.10074
 H407 H -0.07281 -0.08251 -0.01158
 H408 H -0.02127 -0.02432 0.07442
 H409 H -0.15807 -0.13186 0.05957
 H410 H -0.11610 -0.11342 0.02624
 C411 C -0.11196 0.39750 0.61146
 C412 C -0.10529 0.36192 0.62599
 C413 C -0.12860 0.34339 0.64943
 C414 C -0.15860 0.35975 0.65919
 C415 C -0.16495 0.39518 0.64507
 C416 C -0.14202 0.41384 0.62154
 C417 C -0.08667 0.41603 0.58597
 C418 C -0.09126 0.45105 0.56935
 C419 C -0.06707 0.46697 0.54565
 C420 C -0.03762 0.44857 0.53775
 C421 C -0.03271 0.41373 0.55447
 C422 C -0.05699 0.39734 0.57813
 C423 C -0.07545 0.34492 0.61705
 C424 C -0.05171 0.36232 0.59379
 H425 H -0.07029 0.31771 0.62827
 H426 H -0.02900 0.34798 0.58779
 H427 H -0.12367 0.31581 0.65963
 H428 H -0.18758 0.40868 0.65247
 H429 H -0.07195 0.49364 0.53325
 H430 H -0.00965 0.39933 0.54953
 H431 H -0.14829 0.44100 0.61167
 H432 H -0.11345 0.46657 0.57405
 C433 C 0.38689 -0.11845 0.60489
 C434 C 0.37836 -0.10071 0.63393
 C435 C 0.35490 -0.11843 0.65785
 C436 C 0.34038 -0.15413 0.65375
 C437 C 0.35003 -0.17192 0.62555
 C438 C 0.37278 -0.15442 0.60143
 C439 C 0.41143 -0.09853 0.57959
 C440 C 0.41929 -0.11293 0.54862
 C441 C 0.44331 -0.09404 0.52652
 C442 C 0.46046 -0.06030 0.53460
 C443 C 0.45151 -0.04496 0.56460
 C444 C 0.42701 -0.06368 0.58695
 C445 C 0.39373 -0.06565 0.63916
 C446 C 0.41795 -0.04776 0.61649
 H447 H 0.38741 -0.05205 0.66148
 H448 H 0.42957 -0.02094 0.62205
 H449 H 0.34780 -0.10431 0.67952
 H450 H 0.34039 -0.19983 0.62231
 H451 H 0.44823 -0.10601 0.50280
 H452 H 0.46400 -0.01882 0.57110
 H453 H 0.37939 -0.16982 0.58064
 H454 H 0.40703 -0.13862 0.54077
 C455 C 0.38721 0.39056 0.11338
 C456 C 0.39403 0.35469 0.12690
 C457 C 0.37075 0.33529 0.14987
 C458 C 0.34066 0.35106 0.16017
 C459 C 0.33413 0.38674 0.14700
 C460 C 0.35700 0.40626 0.12392
 C461 C 0.41254 0.41008 0.08844
 C462 C 0.40787 0.44551 0.07285
 C463 C 0.43205 0.46230 0.04952
 C464 C 0.46155 0.44438 0.04099
 C465 C 0.46664 0.40921 0.05684
 C466 C 0.44237 0.39195 0.08007
 C467 C 0.42403 0.33831 0.11747
 C468 C 0.44778 0.35659 0.09473
 H469 H 0.42930 0.31088 0.12792
 H470 H 0.47062 0.34270 0.08830
 H471 H 0.37585 0.30756 0.15937
 H472 H 0.31147 0.39984 0.15488
 H473 H 0.42708 0.48923 0.03784
 H474 H 0.48979 0.39517 0.05149
 H475 H 0.35060 0.43357 0.11480
 H476 H 0.38560 0.46066 0.07805
 C477 C 0.10167 0.10937 0.11284
 C478 C 0.13501 0.09945 0.13134
 C479 C 0.15421 0.12246 0.15504
 C480 C 0.14063 0.15535 0.16117
 C481 C 0.10714 0.16473 0.14341
 C482 C 0.08791 0.14214 0.11958
 C483 C 0.08273 0.08456 0.08679
 C484 C 0.05032 0.09262 0.06580
 C485 C 0.03426 0.06898 0.04134
 C486 C 0.04990 0.03663 0.03721
 C487 C 0.08195 0.02817 0.05828
 C488 C 0.09857 0.05192 0.08263
 C489 C 0.14917 0.06673 0.12600
 C490 C 0.13120 0.04335 0.10239
 H491 H 0.17460 0.05904 0.14032
 H492 H 0.14334 0.01836 0.09920
 H493 H 0.18025 0.11502 0.16817
 H494 H 0.09560 0.18955 0.14809
 H495 H 0.00994 0.07659 0.02502
 H496 H 0.09406 0.00300 0.05581
 H497 H 0.06236 0.15085 0.10679
 H498 H 0.03721 0.11724 0.06744
 C499 C 0.11269 0.59990 0.62459
 C500 C 0.09589 0.63135 0.63080
 C501 C 0.11307 0.65506 0.65504
 C502 C 0.14766 0.64872 0.67240
 C503 C 0.16439 0.61777 0.66555
 C504 C 0.14718 0.59362 0.64226
 C505 C 0.09365 0.57538 0.59842
 C506 C 0.10706 0.54238 0.59206
 C507 C 0.08921 0.52119 0.56641
 C508 C 0.05758 0.53231 0.54619
 C509 C 0.04330 0.56457 0.55317
 C510 C 0.06082 0.58588 0.57933
 C511 C 0.06255 0.63946 0.61206
 C512 C 0.04571 0.61755 0.58647
 H513 H 0.04969 0.66361 0.61665
 H514 H 0.02036 0.62545 0.57216
 H515 H 0.09957 0.67866 0.66006
 H516 H 0.19149 0.61255 0.67747
 H517 H 0.10020 0.49582 0.56265
 H518 H 0.01897 0.57364 0.53778
 H519 H 0.16184 0.57076 0.63780
 H520 H 0.13115 0.53224 0.60672
 C521 C 0.60700 0.11001 0.60944
 C522 C 0.64089 0.12710 0.60073
 C523 C 0.66004 0.15174 0.62279
 C524 C 0.64595 0.16014 0.65360
 C525 C 0.61225 0.14338 0.66210
 C526 C 0.59299 0.11866 0.64039
 C527 C 0.58772 0.08344 0.58529
 C528 C 0.55418 0.06443 0.59169
 C529 C 0.53758 0.03973 0.56846
 C530 C 0.55390 0.03325 0.53829
 C531 C 0.58712 0.05236 0.53155
 C532 C 0.60415 0.07703 0.55475
 C533 C 0.65560 0.11950 0.57008
 C534 C 0.63756 0.09513 0.54752
 H535 H 0.68151 0.13265 0.56338
 H536 H 0.65012 0.09021 0.52413
 H537 H 0.68633 0.16398 0.61619
 H538 H 0.60050 0.14968 0.68546
 H539 H 0.51221 0.02528 0.57460
 H540 H 0.59973 0.04834 0.50793
 H541 H 0.56722 0.10676 0.64828
 H542 H 0.54041 0.06801 0.61456
 C543 C 0.61417 0.59912 0.12427
 C544 C 0.59835 0.63155 0.12916
 C545 C 0.61650 0.65612 0.15203
 C546 C 0.65096 0.64949 0.16950
 C547 C 0.66663 0.61743 0.16420
 C548 C 0.64853 0.59254 0.14212
 C549 C 0.59422 0.57383 0.09929
 C550 C 0.60696 0.54024 0.09378
 C551 C 0.58839 0.51843 0.06900
 C552 C 0.55665 0.52944 0.04894
 C553 C 0.54294 0.56221 0.05518
 C554 C 0.56131 0.58429 0.08029
 C555 C 0.56497 0.63968 0.11053
 C556 C 0.54709 0.61680 0.08630
 H557 H 0.55283 0.66454 0.11418
 H558 H 0.52172 0.62471 0.07203
 H559 H 0.60383 0.68058 0.15599
 H560 H 0.69353 0.61187 0.17643
 H561 H 0.59898 0.49274 0.06566
 H562 H 0.51851 0.57114 0.03984
 H563 H 0.66238 0.56879 0.13882
 H564 H 0.63116 0.53021 0.10829
   
