data_POSCAR
  _audit_creation_date              2014-09-24
  _audit_creation_method            'ToBaCCo'
  _symmetry_space_group_name_H-M    'P1'
  _symmetry_Int_Tables_number       1
  _symmetry_cell_setting            triclinic
  loop_
  _symmetry_equiv_pos_as_xyz
 x,y,z
_cell_length_a 51.2288
_cell_length_b 44.2284
_cell_length_c 37.5989
_cell_angle_alpha 90.782200
_cell_angle_beta 89.971400
_cell_angle_gamma 85.270900
loop_
  _atom_site_label
  _atom_site_type_symbol
  _atom_site_fract_x
  _atom_site_fract_y
  _atom_site_fract_z
C1 C 1.23423 0.23475 0.19616
 C2 C 1.25842 0.24523 0.17770
 C3 C 1.27385 0.26123 0.19932
 C4 C 1.26343 0.26529 0.23787
 C5 C 1.24484 0.21704 0.22844
 C6 C 1.26033 0.23271 0.25010
 C7 C 1.22020 0.26380 0.21189
 C8 C 1.23513 0.27964 0.23413
 H9 H 1.26293 0.24014 0.15001
 H10 H 1.27578 0.27831 0.25572
 H11 H 1.24169 0.19339 0.23238
 H12 H 1.19952 0.27006 0.20803
 C13 C 0.72933 -0.26729 0.18714
 C14 C 0.74330 -0.24209 0.16973
 C15 C 0.75830 -0.22671 0.19262
 C16 C 0.75764 -0.23794 0.23142
 C17 C 0.75126 -0.28732 0.20509
 C18 C 0.76583 -0.27223 0.22864
 C19 C 0.71387 -0.25177 0.21794
 C20 C 0.72839 -0.23633 0.24109
 H21 H 0.74226 -0.23775 0.14147
 H22 H 0.76963 -0.22551 0.25040
 H23 H 0.75409 -0.31166 0.20105
 H24 H 0.69294 -0.25294 0.22099
 C25 C 0.73658 0.22999 -0.32296
 C26 C 0.74574 0.25828 -0.33509
 C27 C 0.75839 0.27491 -0.30785
 C28 C 0.75822 0.26031 -0.27282
 C29 C 0.75949 0.21359 -0.30725
 C30 C 0.77105 0.22975 -0.27881
 C31 C 0.71923 0.23828 -0.29319
 C32 C 0.73070 0.25543 -0.26571
 H33 H 0.74550 0.26459 -0.36287
 H34 H 0.76747 0.27328 -0.25139
 H35 H 0.76596 0.19027 -0.31396
 H36 H 0.69907 0.23249 -0.29218
 C37 C 1.24096 -0.27225 -0.29742
 C38 C 1.25105 -0.24459 -0.31534
 C39 C 1.26475 -0.22706 -0.29317
 C40 C 1.26670 -0.23859 -0.25468
 C41 C 1.26534 -0.28897 -0.28107
 C42 C 1.27874 -0.27154 -0.25846
 C43 C 1.22503 -0.25932 -0.26551
 C44 C 1.23820 -0.24143 -0.24335
 H45 H 1.24864 -0.24027 -0.34348
 H46 H 1.27760 -0.22432 -0.23634
 H47 H 1.27111 -0.31274 -0.28621
 H48 H 1.20450 -0.26279 -0.26197
 C49 C 0.23316 0.23367 0.80539
 C50 C 0.25595 0.24366 0.82354
 C51 C 0.27164 0.26167 0.80201
 C52 C 0.26134 0.26636 0.76592
 C53 C 0.21833 0.26283 0.79195
 C54 C 0.23278 0.27988 0.77089
 C55 C 0.24376 0.21728 0.77160
 C56 C 0.25872 0.23412 0.75097
 H57 H 0.26068 0.23789 0.85082
 H58 H 0.27310 0.28030 0.74872
 H59 H 0.19769 0.26862 0.79688
 H60 H 0.24084 0.19375 0.76571
 C61 C 0.72631 0.72786 0.81255
 C62 C 0.74399 0.74693 0.83080
 C63 C 0.75842 0.76474 0.80719
 C64 C 0.75228 0.75982 0.76942
 C65 C 0.70978 0.74833 0.79078
 C66 C 0.72378 0.76626 0.76711
 C67 C 0.74271 0.70959 0.78727
 C68 C 0.75695 0.72696 0.76323
 H69 H 0.74588 0.74786 0.85950
 H70 H 0.76322 0.77352 0.75089
 H71 H 0.68856 0.74993 0.79238
 H72 H 0.74465 0.68501 0.78692
 C73 C 0.73619 0.22179 0.31892
 C74 C 0.74900 0.24876 0.33486
 C75 C 0.75993 0.26628 0.31031
 C76 C 0.75656 0.25532 0.27148
 C77 C 0.71646 0.23550 0.29192
 C78 C 0.72688 0.25298 0.26702
 C79 C 0.75750 0.20474 0.29609
 C80 C 0.76786 0.22197 0.27080
 H81 H 0.75035 0.25268 0.36328
 H82 H 0.76525 0.26962 0.25129
 H83 H 0.69605 0.23076 0.29192
 H84 H 0.76222 0.18048 0.29757
 C85 C 0.22940 0.72947 0.29549
 C86 C 0.24281 0.75347 0.31686
 C87 C 0.25823 0.77034 0.29672
 C88 C 0.25869 0.76176 0.25680
 C89 C 0.21467 0.74721 0.26596
 C90 C 0.22977 0.76406 0.24577
 C91 C 0.25162 0.71085 0.27613
 C92 C 0.26699 0.72750 0.25576
 H93 H 0.24078 0.75622 0.34541
 H94 H 0.27102 0.77550 0.24016
 H95 H 0.19376 0.74718 0.26184
 H96 H 0.25447 0.68637 0.27792
 O97 O 1.03144 0.05780 0.05426
 O98 O 1.06182 0.02515 0.02531
 C99 C 1.05536 0.04788 0.04662
 O100 O 0.96035 -0.04548 0.06217
 O101 O 0.93119 -0.01851 0.02581
 C102 C 0.93680 -0.03774 0.05110
 O103 O 1.03318 -0.04773 0.06667
 O104 O 1.06260 -0.02576 0.03111
 C105 C 1.05685 -0.04300 0.05712
 O106 O 0.95890 0.06686 0.04598
 O107 O 0.93035 0.03586 0.01981
 C108 C 0.93551 0.05963 0.03837
 Zr109 Zr 0.99560 0.04327 0.03581
 O110 O 0.99298 0.04344 0.09190
 O111 O 0.99637 0.09099 0.03650
 Zr112 Zr 0.99671 -0.03193 0.04462
 O113 O 0.99308 -0.02447 0.10023
 O114 O 1.00005 -0.07944 0.05195
 O115 O 1.01968 0.00469 0.04783
 O116 O 0.97277 0.00807 0.04593
 O117 O 0.96137 0.05197 -0.07476
 O118 O 0.93161 0.03063 -0.03911
 C119 C 0.93769 0.04804 -0.06488
 O120 O 1.03559 -0.06012 -0.06140
 O121 O 1.06378 -0.03154 -0.03068
 C122 C 1.05891 -0.05339 -0.05245
 O123 O 0.96261 -0.05661 -0.06171
 O124 O 0.93230 -0.02364 -0.03306
 C125 C 0.93872 -0.04678 -0.05383
 O126 O 1.03412 0.04542 -0.07339
 O127 O 1.06306 0.01940 -0.03594
 C128 C 1.05762 0.03769 -0.06209
 Zr129 Zr 0.99753 0.03467 -0.05362
 O130 O 1.00059 0.02921 -0.10961
 O131 O 0.99823 0.08226 -0.05859
 Zr132 Zr 0.99845 -0.04078 -0.04473
 O133 O 0.99751 -0.04543 -0.10081
 O134 O 1.00164 -0.08852 -0.03898
 Zr135 Zr 1.03634 -0.00140 -0.00331
 Zr136 Zr 0.95761 0.00418 -0.00575
 O137 O 0.97502 -0.00199 -0.05629
 O138 O 1.02165 -0.00544 -0.05535
 O139 O 0.97322 0.04665 -0.01045
 O140 O 1.02042 -0.04360 0.00128
 O141 O 1.01914 0.04310 -0.00881
 O142 O 0.97432 -0.04070 -0.00011
 H143 H 0.96019 0.01108 0.06597
 H144 H 1.03229 -0.06231 0.00365
 H145 H 0.96338 -0.00334 -0.07716
 H146 H 1.03034 0.06024 -0.01046
 H147 H 0.98794 -0.08825 0.03498
 H148 H 0.98638 -0.09389 -0.02497
 H149 H 1.01068 -0.03263 -0.11059
 H150 H 0.98603 0.01774 -0.11820
 H151 H 0.98295 0.09206 -0.04552
 H152 H 0.99723 0.09724 0.01145
 H153 H 0.99197 0.06504 0.09945
 H154 H 1.00769 -0.01259 0.10786
 O155 O 1.03214 0.55850 0.56249
 O156 O 1.06225 0.52539 0.53365
 C157 C 1.05600 0.54837 0.55468
 O158 O 0.96078 0.45556 0.57184
 O159 O 0.93162 0.48229 0.53523
 C160 C 0.93720 0.46338 0.56082
 O161 O 1.03368 0.45422 0.57682
 O162 O 1.06304 0.47465 0.53976
 C163 C 1.05736 0.45880 0.56711
 O164 O 0.95925 0.56669 0.55638
 O165 O 0.93066 0.53627 0.52927
 C166 C 0.93582 0.55966 0.54857
 Zr167 Zr 0.99612 0.54391 0.54438
 O168 O 0.99400 0.54522 0.60050
 O169 O 0.99772 0.59151 0.54275
 Zr170 Zr 0.99724 0.46834 0.55328
 O171 O 0.99376 0.47372 0.60914
 O172 O 1.00103 0.42052 0.55795
 O173 O 1.02009 0.50516 0.55628
 O174 O 0.97348 0.50854 0.55480
 O175 O 0.96127 0.55187 0.43362
 O176 O 0.93166 0.53104 0.46993
 C177 C 0.93759 0.54804 0.44362
 O178 O 1.03544 0.44194 0.44463
 O179 O 1.06390 0.46902 0.47674
 C180 C 1.05885 0.44874 0.45299
 O181 O 0.96252 0.44421 0.44703
 O182 O 0.93235 0.47771 0.47517
 C183 C 0.93864 0.45451 0.45439
 O184 O 1.03416 0.54458 0.43418
 O185 O 1.06328 0.51971 0.47238
 C186 C 1.05771 0.53718 0.44555
 Zr187 Zr 0.99755 0.53533 0.45531
 O188 O 0.99932 0.53282 0.39905
 O189 O 0.99888 0.58303 0.45281
 Zr190 Zr 0.99853 0.45953 0.46424
 O191 O 0.99698 0.45273 0.40850
 O192 O 1.00224 0.41207 0.47230
 Zr193 Zr 1.03670 0.49891 0.50513
 Zr194 Zr 0.95789 0.50474 0.50333
 O195 O 0.97527 0.49849 0.45275
 O196 O 1.02146 0.49507 0.45329
 O197 O 0.97330 0.54732 0.49850
 O198 O 1.02100 0.45667 0.50988
 O199 O 1.01955 0.54353 0.49969
 O200 O 0.97443 0.45975 0.50888
 H201 H 0.96118 0.51156 0.57514
 H202 H 1.03332 0.43831 0.51205
 H203 H 0.96381 0.49719 0.43169
 H204 H 1.03084 0.56058 0.49780
 H205 H 0.98644 0.41245 0.54457
 H206 H 0.98582 0.40650 0.48340
 H207 H 1.00776 0.46773 0.39764
 H208 H 0.98843 0.51668 0.39087
 H209 H 0.98178 0.59269 0.46104
 H210 H 0.98863 0.59848 0.52081
 H211 H 0.99301 0.56697 0.60747
 H212 H 1.00545 0.48940 0.61649
 O213 O 0.53242 0.05586 0.55830
 O214 O 0.56182 0.02140 0.53030
 C215 C 0.55606 0.04519 0.55018
 O216 O 0.45901 -0.04541 0.57019
 O217 O 0.43030 -0.01840 0.53328
 C218 C 0.43558 -0.03703 0.55918
 O219 O 0.53186 -0.04895 0.57451
 O220 O 0.56173 -0.02959 0.53737
 C221 C 0.55565 -0.04518 0.56469
 O222 O 0.45954 0.06506 0.55336
 O223 O 0.43038 0.03531 0.52650
 C224 C 0.43598 0.05876 0.54526
 Zr225 Zr 0.49600 0.04136 0.54160
 O226 O 0.49260 0.04474 0.59770
 O227 O 0.49835 0.08881 0.53875
 Zr228 Zr 0.49562 -0.03392 0.55130
 O229 O 0.49252 -0.02938 0.60727
 O230 O 0.49663 -0.08174 0.55366
 O231 O 0.51930 0.00220 0.55401
 O232 O 0.47269 0.00678 0.55242
 O233 O 0.46144 0.05397 0.43603
 O234 O 0.43132 0.02995 0.46814
 C235 C 0.43760 0.04966 0.44503
 O236 O 0.53349 -0.06435 0.44581
 O237 O 0.56238 -0.03598 0.47541
 C238 C 0.55701 -0.05791 0.45406
 O239 O 0.46055 -0.05857 0.44630
 O240 O 0.43095 -0.02361 0.47324
 C241 C 0.43685 -0.04741 0.45329
 O242 O 0.53428 0.04274 0.43374
 O243 O 0.56275 0.01488 0.47011
 C244 C 0.55764 0.03413 0.44490
 Zr245 Zr 0.49727 0.03142 0.45205
 O246 O 0.49515 0.02056 0.39714
 O247 O 0.49917 0.07728 0.43797
 Zr248 Zr 0.49679 -0.04353 0.46230
 O249 O 0.49516 -0.04879 0.40629
 O250 O 0.49847 -0.09111 0.46880
 Zr251 Zr 0.53571 -0.00489 0.50280
 Zr252 Zr 0.45701 0.00293 0.50102
 O253 O 0.47391 -0.00424 0.45022
 O254 O 0.52084 -0.00910 0.45079
 O255 O 0.47362 0.04475 0.49555
 O256 O 0.51910 -0.04656 0.50814
 O257 O 0.51910 0.03992 0.49664
 O258 O 0.47268 -0.04224 0.50707
 H259 H 0.46050 0.01033 0.57280
 H260 H 0.53077 -0.06540 0.51089
 H261 H 0.46205 -0.00473 0.42944
 H262 H 0.53023 0.05710 0.49468
 H263 H 0.49695 -0.08673 0.57928
 H264 H 0.48585 -0.09509 0.48777
 H265 H 0.51014 -0.03904 0.39616
 H266 H 0.51313 0.01424 0.38880
 H267 H 0.49976 0.08896 0.46050
 H268 H 0.48775 0.09594 0.51805
 H269 H 0.50950 0.03665 0.60796
 H270 H 0.50449 -0.01410 0.61481
 O271 O 0.46269 0.44186 -0.06600
 O272 O 0.48838 0.40857 -0.03183
 C273 C 0.47113 0.41470 -0.05667
 O274 O 0.54691 0.52958 -0.05917
 O275 O 0.51913 0.56314 -0.02720
 C276 C 0.53828 0.55678 -0.04944
 O277 O 0.55413 0.44595 -0.06257
 O278 O 0.53433 0.41036 -0.03033
 C279 C 0.55149 0.41826 -0.05328
 O280 O 0.45235 0.52580 -0.06216
 O281 O 0.47213 0.56135 -0.02873
 C282 C 0.45578 0.55357 -0.05301
 Zr283 Zr 0.47057 0.48428 -0.04440
 O284 O 0.46998 0.48689 -0.10058
 O285 O 0.42977 0.47943 -0.04327
 Zr286 Zr 0.53525 0.48717 -0.04421
 O287 O 0.53045 0.48729 -0.10002
 O288 O 0.57616 0.48854 -0.05034
 O289 O 0.50591 0.45808 -0.05158
 O290 O 0.50028 0.51266 -0.05044
 O291 O 0.45061 0.52560 0.06181
 O292 O 0.47135 0.56134 0.03121
 C293 C 0.45388 0.55338 0.05362
 O294 O 0.55367 0.44612 0.06306
 O295 O 0.53388 0.41039 0.02990
 C296 C 0.55088 0.41838 0.05321
 O297 O 0.54636 0.52994 0.06248
 O298 O 0.51912 0.56329 0.03061
 C299 C 0.53813 0.55708 0.05294
 O300 O 0.46255 0.44216 0.06583
 O301 O 0.48836 0.40866 0.03103
 C302 C 0.47120 0.41496 0.05615
 Zr303 Zr 0.47038 0.48445 0.04520
 O304 O 0.47032 0.48861 0.10138
 O305 O 0.42974 0.47885 0.04557
 Zr306 Zr 0.53508 0.48749 0.04572
 O307 O 0.53183 0.49038 0.10188
 O308 O 0.57634 0.48705 0.04930
 Zr309 Zr 0.50774 0.43992 0.00005
 Zr310 Zr 0.49816 0.53180 0.00117
 O311 O 0.49991 0.51297 0.05227
 O312 O 0.50569 0.45841 0.05214
 O313 O 0.46236 0.51131 0.00067
 O314 O 0.54291 0.46152 0.00047
 O315 O 0.46832 0.45763 0.00007
 O316 O 0.53774 0.51434 0.00108
 H317 H 0.49934 0.52631 -0.07116
 H318 H 0.56015 0.44962 0.00044
 H319 H 0.49847 0.52698 0.07310
 H320 H 0.45435 0.44341 -0.00006
 H321 H 0.58390 0.48638 -0.02638
 H322 H 0.58209 0.50098 0.03103
 H323 H 0.52838 0.47010 0.11066
 H324 H 0.48298 0.47256 0.11068
 H325 H 0.42126 0.49383 0.02905
 H326 H 0.42110 0.49774 -0.03152
 H327 H 0.48434 0.47258 -0.10982
 H328 H 0.54812 0.48897 -0.11016
 C329 C 1.18531 0.17968 0.13862
 N330 N 1.17579 0.20693 0.15222
 N331 N 1.19146 0.22484 0.16907
 C332 C 1.21732 0.21628 0.17304
 N333 N 1.22701 0.18922 0.15879
 N334 N 1.21129 0.17123 0.14183
 C335 C 1.16712 0.15916 0.12334
 N336 N 1.17568 0.13196 0.10844
 N337 N 1.15859 0.11306 0.09634
 C338 C 1.13241 0.12068 0.09910
 N339 N 1.12399 0.14785 0.11392
 N340 N 1.14100 0.16672 0.12578
 C341 C 1.11305 0.10034 0.08659
 N342 N 1.08735 0.10756 0.09386
 N343 N 1.06922 0.09023 0.08183
 C344 C 1.07602 0.06497 0.06201
 N345 N 1.10178 0.05748 0.05489
 N346 N 1.12003 0.07484 0.06711
 C347 C 1.19197 0.67417 0.64305
 N348 N 1.18550 0.70425 0.64849
 N349 N 1.20164 0.72133 0.66586
 C350 C 1.22483 0.70898 0.67868
 N351 N 1.23157 0.67898 0.67254
 N352 N 1.21547 0.66190 0.65496
 C353 C 1.17278 0.65500 0.62742
 N354 N 1.17928 0.62530 0.61927
 N355 N 1.16118 0.60767 0.60728
 C356 C 1.13591 0.61908 0.60345
 N357 N 1.12951 0.64876 0.61149
 N358 N 1.14760 0.66639 0.62317
 C359 C 1.11547 0.59985 0.59164
 N360 N 1.08990 0.61011 0.59515
 N361 N 1.07107 0.59324 0.58417
 C362 C 1.07705 0.56548 0.56912
 N363 N 1.10265 0.55510 0.56562
 N364 N 1.12155 0.57192 0.57691
 C365 C 0.69244 0.17915 0.61066
 N366 N 0.68536 0.20899 0.61690
 N367 N 0.70059 0.22588 0.63614
 C368 C 0.72342 0.21351 0.65022
 N369 N 0.73095 0.18392 0.64250
 N370 N 0.71579 0.16708 0.62309
 C371 C 0.67337 0.15936 0.59626
 N372 N 0.68016 0.12943 0.58989
 N373 N 0.66196 0.11062 0.58176
 C374 C 0.63631 0.12106 0.58030
 N375 N 0.62962 0.15103 0.58613
 N376 N 0.64781 0.16984 0.59395
 C377 C 0.61587 0.10037 0.57405
 N378 N 0.59051 0.10988 0.58089
 N379 N 0.57162 0.09162 0.57475
 C380 C 0.57736 0.06315 0.56157
 N381 N 0.60278 0.05348 0.55497
 N382 N 0.62176 0.07170 0.56143
 C383 C 0.67388 0.68590 0.13054
 N384 N 0.69439 0.67056 0.14696
 N385 N 0.71282 0.68531 0.16290
 C386 C 0.71157 0.71607 0.16307
 N387 N 0.69134 0.73147 0.14585
 N388 N 0.67287 0.71667 0.12975
 C389 C 0.65206 0.66915 0.11759
 N390 N 0.63200 0.68259 0.09817
 N391 N 0.61176 0.66705 0.08856
 C392 C 0.61077 0.63774 0.09860
 N393 N 0.63083 0.62452 0.11792
 N394 N 0.65105 0.63986 0.12715
 C395 C 0.58897 0.61962 0.08897
 N396 N 0.58715 0.59286 0.10549
 N397 N 0.56963 0.57411 0.09515
 C398 C 0.55304 0.58125 0.06789
 N399 N 0.55428 0.60844 0.05173
 N400 N 0.57191 0.62741 0.06223
 C401 C 0.80623 -0.16105 0.15611
 N402 N 0.78669 -0.17053 0.13547
 N403 N 0.77127 -0.19105 0.14731
 C404 C 0.77465 -0.20283 0.18035
 N405 N 0.79402 -0.19310 0.20118
 N406 N 0.80956 -0.17267 0.18925
 C407 C 0.82415 -0.13964 0.14208
 N408 N 0.84623 -0.13397 0.16006
 N409 N 0.86313 -0.11587 0.14645
 C410 C 0.85856 -0.10258 0.11444
 N411 N 0.83634 -0.10799 0.09658
 N412 N 0.81950 -0.12624 0.11012
 C413 C 0.87812 -0.08402 0.09877
 N414 N 0.87305 -0.06826 0.06839
 N415 N 0.89140 -0.05273 0.05356
 C416 C 0.91554 -0.05254 0.06849
 N417 N 0.92050 -0.06820 0.09890
 N418 N 0.90214 -0.08351 0.11383
 C419 C 0.80336 0.34393 0.66380
 N420 N 0.78601 0.33304 0.64071
 N421 N 0.77106 0.31134 0.65039
 C422 C 0.77260 0.29972 0.68367
 N423 N 0.78952 0.31119 0.70717
 N424 N 0.80473 0.33277 0.69735
 C425 C 0.82149 0.36579 0.65142
 N426 N 0.84330 0.37109 0.67028
 N427 N 0.86079 0.38879 0.65727
 C428 C 0.85707 0.40200 0.62502
 N429 N 0.83508 0.39706 0.60645
 N430 N 0.81770 0.37921 0.61933
 C431 C 0.87727 0.41975 0.60948
 N432 N 0.87258 0.43553 0.57904
 N433 N 0.89140 0.45012 0.56392
 C434 C 0.91569 0.44927 0.57855
 N435 N 0.92030 0.43361 0.60905
 N436 N 0.90145 0.41924 0.62429
 C437 C 0.30575 -0.15573 0.66966
 N438 N 0.30970 -0.16630 0.70312
 N439 N 0.29617 -0.18848 0.71523
 C440 C 0.27831 -0.20107 0.69426
 N441 N 0.27421 -0.19029 0.66088
 N442 N 0.28765 -0.16801 0.64882
 C443 C 0.32230 -0.13320 0.65535
 N444 N 0.31791 -0.12163 0.62240
 N445 N 0.33435 -0.10323 0.60829
 C446 C 0.35584 -0.09590 0.62658
 N447 N 0.36000 -0.10716 0.65969
 N448 N 0.34351 -0.12539 0.67385
 C449 C 0.37558 -0.07837 0.60996
 N450 N 0.39951 -0.07764 0.62517
 N451 N 0.41834 -0.06386 0.60919
 C452 C 0.41392 -0.05006 0.57751
 N453 N 0.38985 -0.05035 0.56243
 N454 N 0.37103 -0.06441 0.57832
 C455 C 0.34362 0.29382 0.16297
 N456 N 0.33474 0.30054 0.19646
 N457 N 0.31266 0.29005 0.20816
 C458 C 0.29854 0.27260 0.18674
 N459 N 0.30752 0.26582 0.15331
 N460 N 0.32960 0.27622 0.14165
 C461 C 0.36722 0.30671 0.14936
 N462 N 0.37613 0.29996 0.11588
 N463 N 0.39633 0.31338 0.10264
 C464 C 0.40837 0.33405 0.12242
 N465 N 0.39968 0.34044 0.15604
 N466 N 0.37956 0.32698 0.16930
 C467 C 0.42831 0.35196 0.10665
 N468 N 0.43562 0.37680 0.12432
 N469 N 0.45071 0.39577 0.10866
 C470 C 0.45945 0.39050 0.07488
 N471 N 0.45282 0.36515 0.05742
 N472 N 0.43747 0.34623 0.07304
 C473 C 0.82208 0.18168 -0.21201
 N474 N 0.81719 0.17126 -0.24515
 N475 N 0.80125 0.18738 -0.26683
 C476 C 0.78978 0.21488 -0.25662
 N477 N 0.79523 0.22584 -0.22368
 N478 N 0.81100 0.20941 -0.20163
 C479 C 0.83861 0.16221 -0.18832
 N480 N 0.83784 0.16586 -0.15235
 N481 N 0.85196 0.14649 -0.13154
 C482 C 0.86728 0.12292 -0.14606
 N483 N 0.86806 0.11953 -0.18193
 N484 N 0.85386 0.13862 -0.20260
 C485 C 0.88399 0.10198 -0.12425
 N486 N 0.90403 0.08493 -0.14009
 N487 N 0.92038 0.06682 -0.12102
 C488 C 0.91704 0.06449 -0.08545
 N489 N 0.89671 0.08111 -0.06945
 N490 N 0.88044 0.09962 -0.08857
 C491 C 0.81720 0.67653 0.29540
 N492 N 0.81430 0.66841 0.26079
 N493 N 0.79855 0.68527 0.23942
 C494 C 0.78538 0.71125 0.25158
 N495 N 0.78859 0.71975 0.28608
 N496 N 0.80417 0.70264 0.30765
 C497 C 0.83390 0.65676 0.31882
 N498 N 0.83209 0.65909 0.35486
 N499 N 0.84699 0.64036 0.37553
 C500 C 0.86427 0.61874 0.36085
 N501 N 0.86606 0.61656 0.32488
 N502 N 0.85105 0.63501 0.30430
 C503 C 0.88205 0.59892 0.38286
 N504 N 0.90402 0.58504 0.36789
 N505 N 0.92112 0.56816 0.38734
 C506 C 0.91676 0.56394 0.42243
 N507 N 0.89454 0.57737 0.43751
 N508 N 0.87750 0.59468 0.41805
 C509 C 0.30568 0.18693 0.32793
 N510 N 0.28322 0.17600 0.31625
 N511 N 0.26827 0.19120 0.29245
 C512 C 0.27514 0.21798 0.27957
 N513 N 0.29727 0.22931 0.29193
 N514 N 0.31233 0.21400 0.31559
 C515 C 0.32383 0.16827 0.35035
 N516 N 0.34873 0.17583 0.35506
 N517 N 0.36615 0.15731 0.37207
 C518 C 0.35932 0.13060 0.38512
 N519 N 0.33428 0.12325 0.38103
 N520 N 0.31688 0.14171 0.36378
 C521 C 0.37926 0.10940 0.40128
 N522 N 0.37264 0.08452 0.41893
 N523 N 0.39113 0.06516 0.43281
 C524 C 0.41685 0.06985 0.42902
 N525 N 0.42337 0.09464 0.41124
 N526 N 0.40495 0.11405 0.39768
 C527 C 0.34222 0.68946 -0.20025
 N528 N 0.32992 0.71646 -0.18958
 N529 N 0.31014 0.72948 -0.20860
 C530 C 0.30190 0.71584 -0.23872
 N531 N 0.31447 0.68910 -0.24945
 N532 N 0.33423 0.67623 -0.23065
 C533 C 0.36245 0.67307 -0.17853
 N534 N 0.37328 0.64583 -0.19042
 N535 N 0.38978 0.62896 -0.17020
 C536 C 0.39624 0.63857 -0.13722
 N537 N 0.38583 0.66613 -0.12534
 N538 N 0.36915 0.68310 -0.14567
 C539 C 0.41252 0.61776 -0.11465
 N540 N 0.42269 0.62647 -0.08304
 N541 N 0.43678 0.60636 -0.06303
 C542 C 0.44077 0.57687 -0.07383
 N543 N 0.43058 0.56843 -0.10532
 N544 N 0.41684 0.58843 -0.12533
 C545 C 1.19564 -0.18970 -0.16590
 N546 N 1.21882 -0.18076 -0.17783
 N547 N 1.23318 -0.19788 -0.20132
 C548 C 1.22477 -0.22440 -0.21375
 N549 N 1.20194 -0.23352 -0.20111
 N550 N 1.18771 -0.21656 -0.17764
 C551 C 1.17770 -0.16975 -0.14384
 N552 N 1.15360 -0.17858 -0.13643
 N553 N 1.13583 -0.15987 -0.11982
 C554 C 1.14143 -0.13158 -0.10982
 N555 N 1.16573 -0.12276 -0.11658
 N556 N 1.18356 -0.14152 -0.13346
 C557 C 1.12060 -0.11075 -0.09423
 N558 N 1.12556 -0.08382 -0.07886
 N559 N 1.10601 -0.06528 -0.06539
 C560 C 1.08086 -0.07293 -0.06732
 N561 N 1.07605 -0.09974 -0.08282
 N562 N 1.09551 -0.11830 -0.09590
 C563 C 1.19429 0.34488 0.29915
 N564 N 1.18654 0.33970 0.26530
 N565 N 1.20053 0.32026 0.24415
 C566 C 1.22295 0.30515 0.25581
 N567 N 1.23128 0.31098 0.28938
 N568 N 1.21718 0.33053 0.31070
 C569 C 1.17623 0.36300 0.32320
 N570 N 1.18284 0.37022 0.35714
 N571 N 1.16518 0.38469 0.37894
 C572 C 1.14026 0.39204 0.36764
 N573 N 1.13386 0.38494 0.33375
 N574 N 1.15147 0.37082 0.31199
 C575 C 1.11971 0.40621 0.39134
 N576 N 1.09426 0.40489 0.38200
 N577 N 1.07512 0.41792 0.40223
 C578 C 1.08058 0.43306 0.43256
 N579 N 1.10609 0.43449 0.44210
 N580 N 1.12534 0.42110 0.42193
 C581 C 0.68933 -0.18846 0.32472
 N582 N 0.68038 -0.21411 0.31097
 N583 N 0.69345 -0.22971 0.28528
 C584 C 0.71612 -0.22044 0.27231
 N585 N 0.72558 -0.19514 0.28662
 N586 N 0.71233 -0.17932 0.31233
 C587 C 0.67260 -0.16994 0.34984
 N588 N 0.67866 -0.14206 0.36124
 N589 N 0.66161 -0.12444 0.38087
 C590 C 0.63792 -0.13409 0.38953
 N591 N 0.63217 -0.16208 0.37856
 N592 N 0.64916 -0.17964 0.35917
 C593 C 0.61763 -0.11426 0.40784
 N594 N 0.59271 -0.12247 0.40849
 N595 N 0.57360 -0.10443 0.42335
 C596 C 0.57865 -0.07751 0.43839
 N597 N 0.60364 -0.06927 0.43810
 N598 N 0.62281 -0.08728 0.42288
 C599 C 0.68483 0.29008 -0.18232
 N600 N 0.67605 0.26942 -0.20530
 N601 N 0.69123 0.25795 -0.23168
 C602 C 0.71591 0.26646 -0.23619
 N603 N 0.72500 0.28664 -0.21259
 N604 N 0.70964 0.29842 -0.18630
 C605 C 0.66666 0.30524 -0.15617
 N606 N 0.67220 0.33169 -0.14039
 N607 N 0.65431 0.34746 -0.12036
 C608 C 0.63029 0.33733 -0.11510
 N609 N 0.62494 0.31049 -0.13016
 N610 N 0.64279 0.29481 -0.15044
 C611 C 0.60982 0.35704 -0.09693
 N612 N 0.58685 0.34672 -0.08592
 N613 N 0.56802 0.36576 -0.07142
 C614 C 0.57144 0.39583 -0.06817
 N615 N 0.59439 0.40587 -0.07912
 N616 N 0.61320 0.38692 -0.09307
 C617 C 1.18546 0.17374 -0.14434
 N618 N 1.21186 0.16748 -0.14537
 N619 N 1.22716 0.18709 -0.15971
 C620 C 1.21663 0.21377 -0.17320
 N621 N 1.19029 0.22015 -0.17129
 N622 N 1.17504 0.20057 -0.15718
 C623 C 1.16790 0.15131 -0.13239
 N624 N 1.14200 0.15559 -0.13993
 N625 N 1.12571 0.13520 -0.13061
 C626 C 1.13461 0.10975 -0.11325
 N627 N 1.16055 0.10539 -0.10547
 N628 N 1.17698 0.12575 -0.11513
 C629 C 1.11586 0.08827 -0.10241
 N630 N 1.12209 0.06646 -0.07801
 N631 N 1.10387 0.04917 -0.06613
 C632 C 1.07889 0.05293 -0.07851
 N633 N 1.07294 0.07426 -0.10345
 N634 N 1.09105 0.09157 -0.11514
 C635 C 1.18188 0.67076 0.34845
 N636 N 1.17148 0.69119 0.32481
 N637 N 1.18634 0.71042 0.30932
 C638 C 1.21226 0.71013 0.31674
 N639 N 1.22266 0.69007 0.34108
 N640 N 1.20772 0.67072 0.35671
 C641 C 1.16524 0.64832 0.36270
 N642 N 1.17378 0.62826 0.38808
 N643 N 1.15810 0.60793 0.40004
 C644 C 1.13352 0.60684 0.38671
 N645 N 1.12518 0.62681 0.36130
 N646 N 1.14072 0.64711 0.34955
 C647 C 1.11529 0.58580 0.40022
 N648 N 1.09114 0.58573 0.38550
 N649 N 1.07329 0.56902 0.39911
 C650 C 1.07890 0.55157 0.42790
 N651 N 1.10326 0.55110 0.44234
 N652 N 1.12119 0.56790 0.42868
 C653 C 0.69367 0.16610 0.38267
 N654 N 0.71625 0.15467 0.36694
 N655 N 0.73078 0.17264 0.34861
 C656 C 0.72331 0.20269 0.34547
 N657 N 0.70136 0.21431 0.36267
 N658 N 0.68674 0.19632 0.38077
 C659 C 0.67496 0.14570 0.39593
 N660 N 0.64941 0.15593 0.39946
 N661 N 0.63142 0.13681 0.40638
 C662 C 0.63832 0.10677 0.41015
 N663 N 0.66395 0.09649 0.40730
 N664 N 0.68195 0.11563 0.39994
 C665 C 0.61801 0.08609 0.41617
 N666 N 0.62361 0.05876 0.43162
 N667 N 0.60447 0.04122 0.43926
 C668 C 0.57922 0.05015 0.43101
 N669 N 0.57380 0.07712 0.41475
 N670 N 0.59284 0.09477 0.40750
 C671 C 0.67412 0.68097 -0.13010
 N672 N 0.69137 0.66607 -0.15287
 N673 N 0.70926 0.68071 -0.16960
 C674 C 0.71076 0.71096 -0.16429
 N675 N 0.69399 0.72568 -0.14040
 N676 N 0.67601 0.71097 -0.12359
 C677 C 0.65215 0.66518 -0.11668
 N678 N 0.63470 0.67808 -0.09250
 N679 N 0.61403 0.66361 -0.08260
 C680 C 0.60998 0.63606 -0.09711
 N681 N 0.62743 0.62340 -0.12120
 N682 N 0.64807 0.63763 -0.13077
 C683 C 0.58803 0.61881 -0.08672
 N684 N 0.58411 0.59314 -0.10528
 N685 N 0.56681 0.57459 -0.09431
 C686 C 0.55254 0.58098 -0.06443
 N687 N 0.55575 0.60720 -0.04621
 N688 N 0.57322 0.62590 -0.05726
 C689 C 0.80828 -0.17381 -0.15508
 N690 N 0.80651 -0.17950 -0.19055
 N691 N 0.79033 -0.19930 -0.20291
 C692 C 0.77557 -0.21446 -0.18022
 N693 N 0.77755 -0.20881 -0.14474
 N694 N 0.79347 -0.18880 -0.13242
 C695 C 0.82633 -0.15238 -0.14119
 N696 N 0.82359 -0.14110 -0.10749
 N697 N 0.84048 -0.12250 -0.09436
 C698 C 0.86091 -0.11475 -0.11435
 N699 N 0.86362 -0.12598 -0.14808
 N700 N 0.84655 -0.14431 -0.16134
 C701 C 0.88053 -0.09583 -0.09927
 N702 N 0.90462 -0.09619 -0.11433
 N703 N 0.92297 -0.08029 -0.09989
 C704 C 0.91786 -0.06313 -0.07011
 N705 N 0.89366 -0.06243 -0.05522
 N706 N 0.87536 -0.07866 -0.06943
 C707 C 0.80617 0.33497 0.34421
 N708 N 0.80972 0.32207 0.31135
 N709 N 0.79441 0.30096 0.29991
 C710 C 0.77516 0.29179 0.32107
 N711 N 0.77147 0.30498 0.35373
 N712 N 0.78658 0.32623 0.36501
 C713 C 0.82437 0.35624 0.35831
 N714 N 0.81901 0.37169 0.38929
 N715 N 0.83636 0.38918 0.40357
 C716 C 0.85984 0.39161 0.38756
 N717 N 0.86511 0.37632 0.35646
 N718 N 0.84769 0.35904 0.34204
 C719 C 0.87988 0.40900 0.40446
 N720 N 0.90506 0.40522 0.39301
 N721 N 0.92360 0.41983 0.40901
 C722 C 0.91769 0.43896 0.43694
 N723 N 0.89244 0.44300 0.44828
 N724 N 0.87389 0.42813 0.43244
 C725 C 0.30488 -0.16540 0.34065
 N726 N 0.30879 -0.17570 0.30674
 N727 N 0.29359 -0.19571 0.29263
 C728 C 0.27406 -0.20639 0.31198
 N729 N 0.27006 -0.19596 0.34587
 N730 N 0.28515 -0.17577 0.35994
 C731 C 0.32283 -0.14491 0.35666
 N732 N 0.31763 -0.13131 0.38881
 N733 N 0.33479 -0.11401 0.40389
 C734 C 0.35784 -0.10996 0.38745
 N735 N 0.36292 -0.12347 0.35530
 N736 N 0.34571 -0.14050 0.34012
 C737 C 0.37778 -0.09277 0.40456
 N738 N 0.40277 -0.09615 0.39239
 N739 N 0.42140 -0.08155 0.40806
 C740 C 0.41574 -0.06276 0.43631
 N741 N 0.39067 -0.05909 0.44844
 N742 N 0.37201 -0.07401 0.43293
 C743 C 0.33974 0.29468 -0.16091
 N744 N 0.33121 0.30065 -0.19449
 N745 N 0.30926 0.28992 -0.20656
 C746 C 0.29486 0.27290 -0.18549
 N747 N 0.30348 0.26691 -0.15190
 N748 N 0.32545 0.27758 -0.13984
 C749 C 0.36343 0.30761 -0.14721
 N750 N 0.37221 0.30170 -0.11370
 N751 N 0.39277 0.31491 -0.10074
 C752 C 0.40533 0.33449 -0.12087
 N753 N 0.39669 0.34009 -0.15448
 N754 N 0.37622 0.32685 -0.16744
 C755 C 0.42595 0.35207 -0.10566
 N756 N 0.43383 0.37603 -0.12374
 N757 N 0.44971 0.39477 -0.10867
 C758 C 0.45875 0.39011 -0.07510
 N759 N 0.45152 0.36562 -0.05723
 N760 N 0.43537 0.34694 -0.07225
 C761 C 1.19049 -0.17932 0.17192
 N762 N 1.21344 -0.17146 0.18613
 N763 N 1.22702 -0.19014 0.20833
 C764 C 1.21799 -0.21715 0.21705
 N765 N 1.19554 -0.22518 0.20189
 N766 N 1.18211 -0.20669 0.17981
 C767 C 1.17281 -0.15788 0.15216
 N768 N 1.14784 -0.16483 0.14675
 N769 N 1.13040 -0.14513 0.13179
 C770 C 1.13722 -0.11768 0.12137
 N771 N 1.16236 -0.11068 0.12613
 N772 N 1.17987 -0.13041 0.14156
 C773 C 1.11697 -0.09628 0.10633
 N774 N 1.12286 -0.07304 0.08530
 N775 N 1.10375 -0.05532 0.07013
 C776 C 1.07820 -0.06007 0.07592
 N777 N 1.07248 -0.08293 0.09744
 N778 N 1.09148 -0.10073 0.11224
 C779 C 1.19156 0.34896 0.71380
 N780 N 1.18374 0.34138 0.74670
 N781 N 1.19770 0.32051 0.76536
 C782 C 1.22020 0.30637 0.75208
 N783 N 1.22855 0.31450 0.71950
 N784 N 1.21445 0.33543 0.70065
 C785 C 1.17382 0.36918 0.69216
 N786 N 1.17979 0.37643 0.65824
 N787 N 1.16229 0.39263 0.63831
 C788 C 1.13818 0.40192 0.65154
 N789 N 1.13244 0.39488 0.68549
 N790 N 1.14990 0.37891 0.70537
 C791 C 1.11775 0.41772 0.62943
 N792 N 1.09261 0.42054 0.64119
 N793 N 1.07357 0.43373 0.62130
 C794 C 1.07889 0.44488 0.58890
 N795 N 1.10410 0.44235 0.57712
 N796 N 1.12319 0.42887 0.59697
 C797 C 0.68230 -0.17006 0.70580
 N798 N 0.67025 -0.18702 0.72947
 N799 N 0.68391 -0.20752 0.74881
 C800 C 0.71031 -0.21199 0.74566
 N801 N 0.72259 -0.19500 0.72188
 N802 N 0.70879 -0.17442 0.70213
 C803 C 0.66597 -0.14778 0.68524
 N804 N 0.67490 -0.13384 0.65613
 N805 N 0.65864 -0.11514 0.63715
 C806 C 0.63305 -0.10976 0.64684
 N807 N 0.62443 -0.12348 0.67606
 N808 N 0.64053 -0.14210 0.69480
 C809 C 0.61394 -0.09108 0.62574
 N810 N 0.58856 -0.08844 0.63637
 N811 N 0.57028 -0.07337 0.61703
 C812 C 0.57662 -0.06021 0.58623
 N813 N 0.60209 -0.06247 0.57555
 N814 N 0.62049 -0.07774 0.59498
 C815 C 0.68016 0.29031 0.18461
 N816 N 0.67171 0.26823 0.20529
 N817 N 0.68680 0.25628 0.23114
 C818 C 0.71092 0.26587 0.23738
 N819 N 0.71960 0.28763 0.21632
 N820 N 0.70441 0.29976 0.19052
 C821 C 0.66240 0.30543 0.15856
 N822 N 0.66862 0.33138 0.14307
 N823 N 0.65135 0.34699 0.12253
 C824 C 0.62729 0.33719 0.11647
 N825 N 0.62123 0.31085 0.13129
 N826 N 0.63849 0.29529 0.15204
 C827 C 0.60751 0.35685 0.09768
 N828 N 0.58434 0.34696 0.08656
 N829 N 0.56609 0.36611 0.07165
 C830 C 0.57033 0.39584 0.06806
 N831 N 0.59350 0.40545 0.07905
 N832 N 0.61173 0.38637 0.09342
 C833 C 0.81078 0.18102 0.18581
 N834 N 0.79687 0.16443 0.20782
 N835 N 0.78367 0.17757 0.23509
 C836 C 0.78375 0.20784 0.24142
 N837 N 0.79754 0.22459 0.21925
 N838 N 0.81104 0.21134 0.19207
 C839 C 0.82606 0.16570 0.15688
 N840 N 0.84580 0.17909 0.14094
 N841 N 0.86118 0.16372 0.11717
 C842 C 0.85719 0.13458 0.10825
 N843 N 0.83710 0.12146 0.12364
 N844 N 0.82187 0.13673 0.14759
 C845 C 0.87612 0.11641 0.08588
 N846 N 0.87128 0.08809 0.07454
 N847 N 0.88981 0.07023 0.05790
 C848 C 0.91389 0.08002 0.05244
 N849 N 0.91854 0.10847 0.06331
 N850 N 0.89998 0.12638 0.07959
 C851 C 0.80381 0.68392 0.68561
 N852 N 0.78813 0.66823 0.70621
 N853 N 0.77312 0.68236 0.73116
 C854 C 0.77292 0.71283 0.73648
 N855 N 0.78843 0.72868 0.71552
 N856 N 0.80376 0.71443 0.69071
 C857 C 0.82128 0.66747 0.65958
 N858 N 0.84238 0.68013 0.64620
 N859 N 0.85935 0.66398 0.62506
 C860 C 0.85570 0.63471 0.61627
 N861 N 0.83435 0.62227 0.62914
 N862 N 0.81753 0.63831 0.65051
 C863 C 0.87565 0.61605 0.59577
 N864 N 0.87087 0.58808 0.58313
 N865 N 0.88973 0.57030 0.56700
 C866 C 0.91412 0.57978 0.56329
 N867 N 0.91878 0.60780 0.57570
 N868 N 0.89990 0.62565 0.59148
 C869 C 0.30284 0.19261 0.66751
 N870 N 0.28125 0.18030 0.67976
 N871 N 0.26671 0.19414 0.70544
 C872 C 0.27311 0.22088 0.71979
 N873 N 0.29436 0.23360 0.70695
 N874 N 0.30902 0.21965 0.68135
 C875 C 0.32065 0.17530 0.64267
 N876 N 0.34466 0.18466 0.63564
 N877 N 0.36201 0.16720 0.61654
 C878 C 0.35599 0.13980 0.60368
 N879 N 0.33180 0.13068 0.61009
 N880 N 0.31447 0.14810 0.62933
 C881 C 0.37616 0.11940 0.58600
 N882 N 0.37040 0.09238 0.57159
 N883 N 0.38930 0.07310 0.55790
 C884 C 0.41462 0.08008 0.55853
 N885 N 0.42026 0.10717 0.57267
 N886 N 0.40140 0.12647 0.58609
 C887 C 0.32708 0.68462 0.19294
 N888 N 0.31322 0.66876 0.21585
 N889 N 0.29441 0.68262 0.23590
 C890 C 0.28862 0.71300 0.23397
 N891 N 0.30257 0.72910 0.21117
 N892 N 0.32152 0.71515 0.19095
 C893 C 0.34716 0.66793 0.17072
 N894 N 0.36221 0.68171 0.14697
 N895 N 0.37999 0.66527 0.12708
 C896 C 0.38316 0.63458 0.13037
 N897 N 0.36808 0.62113 0.15409
 N898 N 0.35051 0.63741 0.17381
 C899 C 0.40202 0.61500 0.10919
 N900 N 0.40239 0.58471 0.11383
 N901 N 0.41898 0.56573 0.09581
 C902 C 0.43606 0.57607 0.07229
 N903 N 0.43588 0.60653 0.06733
 N904 N 0.41906 0.62575 0.08554
   
