data_POSCAR
  _audit_creation_date              2014-09-24
  _audit_creation_method            'ToBaCCo'
  _symmetry_space_group_name_H-M    'P1'
  _symmetry_Int_Tables_number       1
  _symmetry_cell_setting            triclinic
  loop_
  _symmetry_equiv_pos_as_xyz
 x,y,z
_cell_length_a 56.1107
_cell_length_b 56.1386
_cell_length_c 18.2152
_cell_angle_alpha 90.117000
_cell_angle_beta 89.995800
_cell_angle_gamma 89.012900
loop_
  _atom_site_label
  _atom_site_type_symbol
  _atom_site_fract_x
  _atom_site_fract_y
  _atom_site_fract_z
C1 C -0.01867 0.25421 0.03603
 C2 C -0.01817 0.25538 -0.04163
 C3 C 0.00372 0.25620 -0.07856
 C4 C 0.02508 0.25616 -0.03867
 C5 C 0.02452 0.25564 0.03888
 C6 C 0.00269 0.25454 0.07581
 H7 H 0.00238 0.25387 0.13534
 H8 H 0.00414 0.25679 -0.13811
 C9 C 0.47456 0.75615 0.53764
 C10 C 0.47448 0.75097 0.46182
 C11 C 0.49604 0.74800 0.42400
 C12 C 0.51767 0.75001 0.46156
 C13 C 0.51776 0.75491 0.53755
 C14 C 0.49619 0.75801 0.57532
 H15 H 0.49625 0.76183 0.63370
 H16 H 0.49599 0.74416 0.36563
 C17 C 1.01806 0.74878 0.03523
 C18 C 1.01740 0.75138 -0.04189
 C19 C 0.99554 0.75178 -0.07882
 C20 C 0.97425 0.74981 -0.03931
 C21 C 0.97487 0.74751 0.03787
 C22 C 0.99676 0.74694 0.07481
 H23 H 0.99717 0.74513 0.13409
 H24 H 0.99512 0.75363 -0.13810
 C25 C 0.52544 0.23968 0.54226
 C26 C 0.52524 0.24468 0.46638
 C27 C 0.50353 0.24788 0.42948
 C28 C 0.48202 0.24614 0.46795
 C29 C 0.48222 0.24103 0.54377
 C30 C 0.50393 0.23785 0.58068
 H31 H 0.50409 0.23406 0.63903
 H32 H 0.50338 0.25177 0.37119
 C33 C 0.75335 -0.02691 0.04265
 C34 C 0.74857 -0.02654 -0.03352
 C35 C 0.74712 -0.00481 -0.07090
 C36 C 0.75030 0.01657 -0.03277
 C37 C 0.75504 0.01622 0.04327
 C38 C 0.75656 -0.00550 0.08073
 H39 H 0.76016 -0.00569 0.13926
 H40 H 0.74350 -0.00452 -0.12939
 C41 C 0.24671 0.48318 0.54019
 C42 C 0.24546 0.48269 0.46282
 C43 C 0.24398 0.50405 0.42336
 C44 C 0.24415 0.52589 0.46065
 C45 C 0.24620 0.52637 0.53785
 C46 C 0.24727 0.50501 0.57740
 H47 H 0.24856 0.50538 0.63679
 H48 H 0.24275 0.50368 0.36396
 C49 C 0.25664 1.02627 0.04198
 C50 C 0.25058 1.02713 -0.03345
 C51 C 0.24694 1.00593 -0.07232
 C52 C 0.24924 0.98396 -0.03660
 C53 C 0.25528 0.98310 0.03852
 C54 C 0.25894 1.00423 0.07754
 H55 H 0.26350 1.00349 0.13539
 H56 H 0.24232 1.00649 -0.13014
 C57 C 0.75222 0.51664 0.53511
 C58 C 0.74679 0.51696 0.45950
 C59 C 0.74431 0.49556 0.42101
 C60 C 0.74719 0.47382 0.45758
 C61 C 0.75260 0.47344 0.53321
 C62 C 0.75507 0.49487 0.57179
 H63 H 0.75920 0.49461 0.62994
 H64 H 0.74021 0.49583 0.36283
 O65 O 0.24582 0.27988 0.33951
 O66 O 0.25063 0.21609 0.29302
 O67 O 0.28007 0.24804 0.34037
 O68 O 0.21630 0.24798 0.29213
 O69 O 0.22532 0.25721 0.17759
 O70 O 0.28903 0.25726 0.22577
 O71 O 0.25961 0.22533 0.17846
 O72 O 0.25480 0.28909 0.22492
 Cu73 Cu 0.24728 0.24705 0.32775
 Cu74 Cu 0.25807 0.25814 0.19014
 C75 C 0.24957 0.29526 0.29007
 C76 C 0.25597 0.20995 0.22793
 C77 C 0.29531 0.25270 0.29121
 C78 C 0.21006 0.25264 0.22672
 O79 O 0.75091 0.71823 0.33259
 O80 O 0.75058 0.78208 0.28731
 O81 O 0.71866 0.75187 0.33093
 O82 O 0.78277 0.74831 0.28920
 O83 O 0.77450 0.73972 0.17351
 O84 O 0.71036 0.74327 0.21528
 O85 O 0.74230 0.77350 0.17164
 O86 O 0.74263 0.70963 0.21690
 Cu87 Cu 0.75154 0.75102 0.32160
 Cu88 Cu 0.74159 0.74069 0.18262
 C89 C 0.74670 0.70317 0.28245
 C90 C 0.74660 0.78855 0.22172
 C91 C 0.70370 0.74792 0.28036
 C92 C 0.78945 0.74351 0.22425
 O93 O 0.79018 0.24355 0.27952
 O94 O 0.72658 0.23997 0.32765
 O95 O 0.75925 0.20955 0.28302
 O96 O 0.75748 0.27374 0.32412
 O97 O 0.74775 0.28139 0.20877
 O98 O 0.74953 0.21716 0.16767
 O99 O 0.71685 0.24758 0.21230
 O100 O 0.78045 0.25117 0.16417
 Cu101 Cu 0.75937 0.24089 0.31514
 Cu102 Cu 0.74767 0.25004 0.17656
 C103 C 0.79605 0.24795 0.21374
 C104 C 0.71098 0.24343 0.27824
 C105 C 0.75478 0.20253 0.21834
 C106 C 0.75216 0.28838 0.27354
 O107 O 0.25290 0.78069 0.16090
 O108 O 0.24924 0.71712 0.20852
 O109 O 0.21917 0.74921 0.15992
 O110 O 0.28277 0.74840 0.20966
 O111 O 0.27334 0.75815 0.32386
 O112 O 0.20973 0.75897 0.27408
 O113 O 0.23979 0.72688 0.32270
 O114 O 0.24347 0.79044 0.27507
 Cu115 Cu 0.25194 0.74793 0.17319
 Cu116 Cu 0.24059 0.75965 0.31033
 C117 C 0.24891 0.79629 0.21005
 C118 C 0.24400 0.71127 0.27371
 C119 C 0.20371 0.75408 0.20873
 C120 C 0.28877 0.75300 0.27524
 O121 O 0.71844 0.24818 0.77815
 O122 O 0.78224 0.25087 0.82457
 O123 O 0.75051 0.28119 0.77520
 O124 O 0.74999 0.21800 0.82855
 O125 O 0.75931 0.20761 0.71481
 O126 O 0.75984 0.27088 0.66140
 O127 O 0.79155 0.24051 0.71080
 O128 O 0.72777 0.23783 0.66437
 Cu129 Cu 0.74937 0.25062 0.81307
 Cu130 Cu 0.76058 0.23816 0.67644
 C131 C 0.71234 0.24245 0.71350
 C132 C 0.79766 0.24619 0.77545
 C133 C 0.75528 0.28672 0.70941
 C134 C 0.75445 0.20213 0.78060
 O135 O 0.24058 0.79269 0.70830
 O136 O 0.24118 0.72882 0.66156
 O137 O 0.20901 0.75943 0.70719
 O138 O 0.27287 0.76223 0.66256
 O139 O 0.28186 0.75336 0.77763
 O140 O 0.21802 0.75057 0.82227
 O141 O 0.25017 0.71997 0.77664
 O142 O 0.24959 0.78381 0.82336
 Cu143 Cu 0.24003 0.76165 0.67326
 Cu144 Cu 0.25085 0.75100 0.81150
 C145 C 0.24486 0.79902 0.77382
 C146 C 0.24576 0.71362 0.71125
 C147 C 0.20275 0.75467 0.77236
 C148 C 0.28814 0.75831 0.71261
 O149 O 0.25806 0.22756 0.83920
 O150 O 0.25868 0.29123 0.79054
 O151 O 0.22657 0.26198 0.83815
 O152 O 0.29037 0.25657 0.79163
 O153 O 0.28094 0.24757 0.67714
 O154 O 0.21720 0.25297 0.72360
 O155 O 0.24928 0.28219 0.67606
 O156 O 0.24867 0.21859 0.72464
 Cu157 Cu 0.25942 0.26030 0.82634
 Cu158 Cu 0.24813 0.24948 0.68879
 C159 C 0.25310 0.21234 0.79018
 C160 C 0.25398 0.29745 0.72515
 C161 C 0.21112 0.25818 0.78884
 C162 C 0.29641 0.25105 0.72660
 O163 O 0.74398 0.70888 0.78140
 O164 O 0.74068 0.77257 0.82982
 O165 O 0.71032 0.74167 0.78199
 O166 O 0.77419 0.74022 0.82892
 O167 O 0.78306 0.74957 0.71435
 O168 O 0.71927 0.75103 0.66750
 O169 O 0.74960 0.78194 0.71529
 O170 O 0.75289 0.71825 0.66691
 Cu171 Cu 0.74136 0.73979 0.81699
 Cu172 Cu 0.75207 0.75105 0.67945
 C173 C 0.74907 0.70281 0.71607
 C174 C 0.74471 0.78800 0.78077
 C175 C 0.70402 0.74681 0.71696
 C176 C 0.78938 0.74490 0.77966
 C177 C 0.26182 0.13923 0.17530
 C178 C 0.27361 0.13228 0.10973
 C179 C 0.27512 0.10781 0.08997
 C180 C 0.26425 0.09050 0.13480
 C181 C 0.25292 0.09737 0.20107
 C182 C 0.25177 0.12181 0.22154
 C183 C 0.24018 0.12828 0.28784
 C184 C 0.23002 0.11109 0.33258
 C185 C 0.23112 0.08720 0.31243
 C186 C 0.24240 0.08031 0.24742
 C187 C 0.28706 0.10129 0.02427
 C188 C 0.29673 0.11848 -0.02145
 C189 C 0.29493 0.14244 -0.00267
 C190 C 0.28363 0.14936 0.06227
 C191 C 0.26241 0.06623 0.10810
 C192 C 0.26005 0.04691 0.08030
 C193 C 0.25974 0.16429 0.19447
 C194 C 0.25799 0.18513 0.20992
 H195 H 0.23884 0.14664 0.30577
 H196 H 0.22125 0.11634 0.38315
 H197 H 0.22321 0.07391 0.34739
 H198 H 0.24292 0.06151 0.23411
 H199 H 0.28888 0.08287 0.00723
 H200 H 0.30552 0.11319 -0.07196
 H201 H 0.30233 0.15575 -0.03860
 H202 H 0.28271 0.16822 0.07454
 C203 C 0.75409 0.63203 0.66320
 C204 C 0.76640 0.62485 0.59878
 C205 C 0.76824 0.60029 0.58024
 C206 C 0.75718 0.58309 0.62510
 C207 C 0.74506 0.59024 0.68976
 C208 C 0.74357 0.61478 0.70905
 C209 C 0.73123 0.62150 0.77382
 C210 C 0.72062 0.60447 0.81814
 C211 C 0.72202 0.58050 0.79914
 C212 C 0.73408 0.57336 0.73571
 C213 C 0.78076 0.59354 0.51577
 C214 C 0.79065 0.61059 0.46999
 C215 C 0.78853 0.63463 0.48754
 C216 C 0.77667 0.64177 0.55132
 C217 C 0.75624 0.55854 0.60027
 C218 C 0.75474 0.53886 0.57423
 C219 C 0.75216 0.65714 0.68203
 C220 C 0.75067 0.67800 0.69755
 H221 H 0.72961 0.63994 0.79081
 H222 H 0.71123 0.60993 0.86748
 H223 H 0.71375 0.56735 0.83374
 H224 H 0.73480 0.55450 0.72328
 H225 H 0.78284 0.57506 0.49966
 H226 H 0.79986 0.60512 0.42036
 H227 H 0.79610 0.64782 0.45153
 H228 H 0.77550 0.66068 0.56264
 C229 C 0.75121 0.85901 0.16835
 C230 C 0.74062 0.87691 0.21315
 C231 C 0.74276 0.90130 0.19384
 C232 C 0.75559 0.90763 0.13016
 C233 C 0.76663 0.88974 0.08622
 C234 C 0.76416 0.86535 0.10480
 C235 C 0.77449 0.84775 0.05829
 C236 C 0.78699 0.85409 -0.00462
 C237 C 0.78969 0.87796 -0.02224
 C238 C 0.77977 0.89565 0.02263
 C239 C 0.73174 0.91887 0.23879
 C240 C 0.71901 0.91253 0.30125
 C241 C 0.71694 0.88868 0.32024
 C242 C 0.72758 0.87100 0.27689
 C243 C 0.75546 0.93216 0.10525
 C244 C 0.75473 0.95185 0.07903
 C245 C 0.74899 0.83409 0.18776
 C246 C 0.74758 0.81332 0.20348
 H247 H 0.77287 0.82894 0.06967
 H248 H 0.79461 0.84041 -0.03987
 H249 H 0.79941 0.88281 -0.07118
 H250 H 0.78236 0.91396 0.00655
 H251 H 0.73295 0.93765 0.22631
 H252 H 0.71070 0.92620 0.33511
 H253 H 0.70702 0.88385 0.36880
 H254 H 0.72544 0.85269 0.29379
 C255 C 0.25136 0.36807 0.67029
 C256 C 0.26499 0.38505 0.70871
 C257 C 0.26316 0.40956 0.68965
 C258 C 0.24757 0.41696 0.63276
 C259 C 0.23366 0.40000 0.59510
 C260 C 0.23592 0.37545 0.61291
 C261 C 0.22277 0.35872 0.57190
 C262 C 0.20764 0.36608 0.51535
 C263 C 0.20502 0.39014 0.49902
 C264 C 0.21773 0.40698 0.53849
 C265 C 0.27720 0.42617 0.72801
 C266 C 0.29259 0.41878 0.78386
 C267 C 0.29435 0.39482 0.80261
 C268 C 0.28076 0.37806 0.76564
 C269 C 0.24740 0.44148 0.60761
 C270 C 0.24724 0.46108 0.58066
 C271 C 0.25287 0.34306 0.69029
 C272 C 0.25363 0.32225 0.70645
 H273 H 0.22416 0.33980 0.58264
 H274 H 0.19786 0.35303 0.48418
 H275 H 0.19320 0.39578 0.45519
 H276 H 0.21508 0.42548 0.52363
 H277 H 0.27636 0.44500 0.71541
 H278 H 0.30319 0.43171 0.81275
 H279 H 0.30635 0.38917 0.84599
 H280 H 0.28281 0.35962 0.78194
 C281 C 0.86675 0.24960 0.15945
 C282 C 0.88296 0.26299 0.20172
 C283 C 0.90756 0.26288 0.18294
 C284 C 0.91582 0.24924 0.12244
 C285 C 0.89967 0.23551 0.08093
 C286 C 0.87501 0.23604 0.09867
 C287 C 0.85907 0.22308 0.05422
 C288 C 0.86727 0.20986 -0.00575
 C289 C 0.89145 0.20896 -0.02224
 C290 C 0.90754 0.22149 0.02065
 C291 C 0.92337 0.27665 0.22527
 C292 C 0.91513 0.29012 0.28472
 C293 C 0.89109 0.29018 0.30324
 C294 C 0.87511 0.27680 0.26241
 C295 C 0.94038 0.25094 0.09819
 C296 C 0.96007 0.25252 0.07231
 C297 C 0.84166 0.24947 0.17892
 C298 C 0.82082 0.24898 0.19489
 H299 H 0.84010 0.22317 0.06495
 H300 H 0.85481 0.20021 -0.03951
 H301 H 0.89776 0.19863 -0.06879
 H302 H 0.92617 0.22023 0.00557
 H303 H 0.94224 0.27708 0.21307
 H304 H 0.92747 0.30054 0.31662
 H305 H 0.88479 0.30067 0.34947
 H306 H 0.85657 0.27748 0.27880
 C307 C 0.35904 0.76203 0.66313
 C308 C 0.37629 0.75156 0.71038
 C309 C 0.40086 0.75231 0.69172
 C310 C 0.40802 0.76365 0.62628
 C311 C 0.39082 0.77482 0.58027
 C312 C 0.36623 0.77369 0.59816
 C313 C 0.34930 0.78399 0.54953
 C314 C 0.35648 0.79520 0.48524
 C315 C 0.38056 0.79667 0.46835
 C316 C 0.39761 0.78672 0.51527
 C317 C 0.41777 0.74141 0.73907
 C318 C 0.41062 0.73012 0.80326
 C319 C 0.38659 0.72942 0.82163
 C320 C 0.36954 0.73998 0.77591
 C321 C 0.43258 0.76172 0.60184
 C322 C 0.45226 0.75945 0.57610
 C323 C 0.33390 0.76064 0.68093
 C324 C 0.31300 0.75954 0.69542
 H325 H 0.33036 0.78335 0.56036
 H326 H 0.34329 0.80281 0.44837
 H327 H 0.38606 0.80540 0.41835
 H328 H 0.41612 0.78829 0.49969
 H329 H 0.43667 0.74161 0.72717
 H330 H 0.42379 0.72190 0.83896
 H331 H 0.38112 0.72063 0.87156
 H332 H 0.35107 0.73894 0.79247
 C333 C 0.13301 0.75133 0.15533
 C334 C 0.11558 0.76318 0.19893
 C335 C 0.09102 0.76137 0.18087
 C336 C 0.08405 0.74758 0.11973
 C337 C 0.10147 0.73541 0.07679
 C338 C 0.12604 0.73764 0.09385
 C339 C 0.14316 0.72626 0.04803
 C340 C 0.13620 0.71291 -0.01264
 C341 C 0.11217 0.71034 -0.02852
 C342 C 0.09493 0.72132 0.01570
 C343 C 0.07394 0.77364 0.22456
 C344 C 0.08091 0.78729 0.28458
 C345 C 0.10492 0.78902 0.30238
 C346 C 0.12213 0.77714 0.26023
 C347 C 0.05933 0.74765 0.09625
 C348 C 0.03947 0.74807 0.07095
 C349 C 0.15807 0.75284 0.17425
 C350 C 0.17891 0.75365 0.18994
 H351 H 0.16208 0.72770 0.05817
 H352 H 0.14954 0.70449 -0.04744
 H353 H 0.10684 0.69994 -0.07565
 H354 H 0.07646 0.71881 0.00101
 H355 H 0.05506 0.77275 0.21295
 H356 H 0.06762 0.79655 0.31748
 H357 H 0.11024 0.79964 0.34905
 H358 H 0.14058 0.77909 0.27607
 C359 C 0.64149 0.23738 0.66410
 C360 C 0.62415 0.24825 0.71037
 C361 C 0.59955 0.24669 0.69267
 C362 C 0.59243 0.23416 0.62913
 C363 C 0.60973 0.22267 0.58409
 C364 C 0.63434 0.22458 0.60101
 C365 C 0.65133 0.21385 0.55332
 C366 C 0.64421 0.20148 0.49089
 C367 C 0.62013 0.19929 0.47496
 C368 C 0.60301 0.20963 0.52100
 C369 C 0.58256 0.25798 0.73907
 C370 C 0.58967 0.27043 0.80137
 C371 C 0.61372 0.27192 0.81880
 C372 C 0.63084 0.26099 0.77402
 C373 C 0.56774 0.23522 0.60534
 C374 C 0.54792 0.23688 0.58017
 C375 C 0.66664 0.23939 0.68134
 C376 C 0.68752 0.24091 0.69586
 H377 H 0.67028 0.21504 0.56345
 H378 H 0.65744 0.19355 0.45468
 H379 H 0.61467 0.18967 0.42639
 H380 H 0.58450 0.20746 0.50624
 H381 H 0.56365 0.25720 0.72791
 H382 H 0.57644 0.27894 0.83635
 H383 H 0.61915 0.28160 0.86728
 H384 H 0.64932 0.26267 0.78982
 C385 C 0.75096 0.13193 0.83858
 C386 C 0.73841 0.12555 0.90284
 C387 C 0.73636 0.10115 0.92208
 C388 C 0.74751 0.08332 0.87820
 C389 C 0.76007 0.08969 0.81403
 C390 C 0.76173 0.11406 0.79399
 C391 C 0.77444 0.12001 0.72967
 C392 C 0.78523 0.10237 0.68645
 C393 C 0.78364 0.07854 0.70617
 C394 C 0.77123 0.07217 0.76921
 C395 C 0.72349 0.09520 0.98615
 C396 C 0.71345 0.11285 1.03091
 C397 C 0.71581 0.13672 1.01275
 C398 C 0.72801 0.14310 0.94932
 C399 C 0.74786 0.05879 0.90317
 C400 C 0.74871 0.03904 0.92899
 C401 C 0.75257 0.15682 0.81804
 C402 C 0.75362 0.17751 0.80096
 H403 H 0.77623 0.13830 0.71220
 H404 H 0.79490 0.10723 0.63744
 H405 H 0.79205 0.06492 0.67240
 H406 H 0.77040 0.05340 0.78224
 H407 H 0.72122 0.07689 1.00273
 H408 H 0.70396 0.10798 1.08023
 H409 H 0.70814 0.15038 1.04800
 H410 H 0.72935 0.16191 0.93750
 C411 C 0.24084 0.64072 0.32806
 C412 C 0.22789 0.63379 0.39097
 C413 C 0.22667 0.60931 0.40997
 C414 C 0.23915 0.59196 0.36754
 C415 C 0.25199 0.59887 0.30447
 C416 C 0.25275 0.62331 0.28445
 C417 C 0.26577 0.62979 0.22123
 C418 C 0.27773 0.61262 0.17912
 C419 C 0.27703 0.58873 0.19887
 C420 C 0.26433 0.58183 0.26081
 C421 C 0.21329 0.60279 0.47248
 C422 C 0.20207 0.62000 0.51624
 C423 C 0.20368 0.64398 0.49850
 C424 C 0.21629 0.65089 0.43638
 C425 C 0.24061 0.56753 0.39339
 C426 C 0.24217 0.54799 0.42044
 C427 C 0.24197 0.66573 0.30846
 C428 C 0.24288 0.68653 0.29248
 H429 H 0.26688 0.64815 0.20374
 H430 H 0.28762 0.61789 0.13095
 H431 H 0.28635 0.57547 0.16597
 H432 H 0.26420 0.56304 0.27387
 H433 H 0.21153 0.58437 0.48858
 H434 H 0.19223 0.61471 0.56447
 H435 H 0.19508 0.65730 0.53297
 H436 H 0.21695 0.66975 0.42471
 C437 C 0.24208 0.86971 0.82867
 C438 C 0.25273 0.88690 0.78293
 C439 C 0.25222 0.91132 0.80377
 C440 C 0.24094 0.91841 0.86994
 C441 C 0.22963 0.90131 0.91453
 C442 C 0.23048 0.87685 0.89434
 C443 C 0.21994 0.85998 0.94142
 C444 C 0.20881 0.86708 1.00646
 C445 C 0.20770 0.89104 1.02571
 C446 C 0.21786 0.90804 0.98034
 C447 C 0.26328 0.92814 0.75782
 C448 C 0.27448 0.92105 0.69287
 C449 C 0.27495 0.89718 0.67237
 C450 C 0.26424 0.88022 0.71670
 C451 C 0.24305 0.94268 0.89638
 C452 C 0.24553 0.96207 0.92353
 C453 C 0.24325 0.84467 0.80863
 C454 C 0.24410 0.82384 0.79248
 H455 H 0.22032 0.84114 0.92879
 H456 H 0.20101 0.85392 1.04210
 H457 H 0.19905 0.89648 1.07632
 H458 H 0.21656 0.92645 0.99775
 H459 H 0.26328 0.94692 0.77141
 H460 H 0.28282 0.93416 0.65825
 H461 H 0.28367 0.89177 0.62186
 H462 H 0.26510 0.86187 0.69850
 C463 C 0.74655 0.35912 0.32482
 C464 C 0.75681 0.37668 0.27959
 C465 C 0.75496 0.40111 0.29974
 C466 C 0.74275 0.40781 0.36471
 C467 C 0.73185 0.39031 0.40876
 C468 C 0.73404 0.36586 0.38930
 C469 C 0.72390 0.34860 0.43592
 C470 C 0.71186 0.35533 0.49979
 C471 C 0.70943 0.37927 0.51829
 C472 C 0.71918 0.39663 0.47336
 C473 C 0.76564 0.41834 0.25436
 C474 C 0.77778 0.41162 0.19064
 C475 C 0.77957 0.38772 0.17084
 C476 C 0.76925 0.37037 0.21462
 C477 C 0.74351 0.43220 0.39083
 C478 C 0.74485 0.45172 0.41790
 C479 C 0.74895 0.33413 0.30549
 C480 C 0.75064 0.31327 0.29038
 H481 H 0.72529 0.32975 0.42385
 H482 H 0.70439 0.34189 0.53509
 H483 H 0.70007 0.38442 0.56797
 H484 H 0.71684 0.41502 0.49015
 H485 H 0.76462 0.43714 0.26744
 H486 H 0.78581 0.42502 0.15642
 H487 H 0.78902 0.38259 0.12130
 H488 H 0.77116 0.35201 0.19705
 C489 C 0.14033 0.25872 0.84273
 C490 C 0.12343 0.27267 0.80326
 C491 C 0.09879 0.27139 0.82086
 C492 C 0.09118 0.25602 0.87733
 C493 C 0.10808 0.24190 0.91635
 C494 C 0.13275 0.24360 0.89996
 C495 C 0.14937 0.23017 0.94209
 C496 C 0.14182 0.21536 0.99851
 C497 C 0.11767 0.21331 1.01354
 C498 C 0.10092 0.22626 0.97280
 C499 C 0.08227 0.28572 0.78137
 C500 C 0.08987 0.30087 0.72590
 C501 C 0.11394 0.30208 0.70853
 C502 C 0.13061 0.28816 0.74656
 C503 C 0.06639 0.25620 0.90036
 C504 C 0.04650 0.25630 0.92552
 C505 C 0.16543 0.25936 0.82342
 C506 C 0.18630 0.25921 0.80755
 H507 H 0.16835 0.23110 0.93234
 H508 H 0.15479 0.20538 1.03057
 H509 H 0.11188 0.20174 1.05727
 H510 H 0.08234 0.22402 0.98655
 H511 H 0.06335 0.28529 0.79275
 H512 H 0.07699 0.31172 0.69619
 H513 H 0.11974 0.31388 0.66539
 H514 H 0.14915 0.28976 0.73124
 C515 C 0.63290 0.74640 0.33238
 C516 C 0.62594 0.73350 0.39535
 C517 C 0.60144 0.73219 0.41418
 C518 C 0.58409 0.74430 0.37102
 C519 C 0.59102 0.75703 0.30780
 C520 C 0.61551 0.75803 0.28828
 C521 C 0.62203 0.77098 0.22502
 C522 C 0.60485 0.78262 0.18231
 C523 C 0.58091 0.78166 0.20149
 C524 C 0.57397 0.76904 0.26351
 C525 C 0.59490 0.71911 0.47722
 C526 C 0.61211 0.70810 0.52131
 C527 C 0.63610 0.70965 0.50343
 C528 C 0.64304 0.72207 0.44104
 C529 C 0.55960 0.74560 0.39630
 C530 C 0.53995 0.74729 0.42264
 C531 C 0.65793 0.74756 0.31302
 C532 C 0.67880 0.74806 0.29765
 H533 H 0.64044 0.77227 0.20799
 H534 H 0.61015 0.79245 0.13409
 H535 H 0.56763 0.79073 0.16811
 H536 H 0.55513 0.76871 0.27613
 H537 H 0.57647 0.71742 0.49349
 H538 H 0.60680 0.69845 0.56988
 H539 H 0.64942 0.70119 0.53809
 H540 H 0.66192 0.72275 0.42941
 C541 C 0.86015 0.74704 0.83228
 C542 C 0.87062 0.76928 0.84751
 C543 C 0.89516 0.77028 0.86634
 C544 C 0.90899 0.74900 0.87083
 C545 C 0.89859 0.72680 0.85465
 C546 C 0.87411 0.72582 0.83517
 C547 C 0.86408 0.70341 0.81950
 C548 C 0.87786 0.68255 0.82308
 C549 C 0.90179 0.68350 0.84226
 C550 C 0.91214 0.70532 0.85794
 C551 C 0.90530 0.79271 0.88075
 C552 C 0.89156 0.81359 0.87692
 C553 C 0.86748 0.81260 0.85945
 C554 C 0.85705 0.79075 0.84477
 C555 C 0.93330 0.74972 0.89773
 C556 C 0.95292 0.74996 0.92455
 C557 C 0.83503 0.74600 0.81375
 C558 C 0.81417 0.74531 0.79829
 H559 H 0.84553 0.70175 0.80436
 H560 H 0.86990 0.66556 0.81093
 H561 H 0.91242 0.66725 0.84494
 H562 H 0.93085 0.70516 0.87233
 H563 H 0.92392 0.79437 0.89503
 H564 H 0.89959 0.83060 0.88820
 H565 H 0.85684 0.82885 0.85717
 H566 H 0.83827 0.79091 0.83121
 C567 C 0.36615 0.25374 0.34405
 C568 C 0.37366 0.26563 0.40842
 C569 C 0.39828 0.26614 0.42646
 C570 C 0.41520 0.25417 0.38115
 C571 C 0.40771 0.24245 0.31656
 C572 C 0.38312 0.24228 0.29781
 C573 C 0.37606 0.23031 0.23312
 C574 C 0.39280 0.21881 0.18832
 C575 C 0.41684 0.21895 0.20676
 C576 C 0.42431 0.23060 0.27012
 C577 C 0.40537 0.27828 0.49086
 C578 C 0.38858 0.28909 0.53702
 C579 C 0.36448 0.28828 0.51995
 C580 C 0.35701 0.27681 0.45627
 C581 C 0.43980 0.25201 0.40522
 C582 C 0.45957 0.24959 0.43035
 C583 C 0.34099 0.25325 0.32550
 C584 C 0.32011 0.25294 0.30998
 H585 H 0.35756 0.22967 0.21655
 H586 H 0.38709 0.20974 0.13904
 H587 H 0.42977 0.21000 0.17176
 H588 H 0.44320 0.23031 0.28210
 H589 H 0.42391 0.27936 0.50658
 H590 H 0.39431 0.29801 0.58657
 H591 H 0.35149 0.29657 0.55624
 H592 H 0.33806 0.27668 0.44531
 C593 C 0.74233 0.85866 0.83559
 C594 C 0.73029 0.86610 0.90019
 C595 C 0.72937 0.89064 0.91934
 C596 C 0.74117 0.90749 0.87512
 C597 C 0.75317 0.90006 0.81053
 C598 C 0.75369 0.87557 0.79052
 C599 C 0.76597 0.86855 0.72593
 C600 C 0.77745 0.88524 0.68250
 C601 C 0.77698 0.90918 0.70221
 C602 C 0.76499 0.91661 0.76545
 C603 C 0.71701 0.89768 0.98382
 C604 C 0.70647 0.88091 1.02915
 C605 C 0.70777 0.85686 1.01114
 C606 C 0.71939 0.84945 0.94724
 C607 C 0.74305 0.93188 0.90063
 C608 C 0.74528 0.95139 0.92713
 C609 C 0.74316 0.83360 0.81586
 C610 C 0.74383 0.81277 0.79976
 H611 H 0.76690 0.85012 0.70848
 H612 H 0.78681 0.87956 0.63335
 H613 H 0.78594 0.92207 0.66835
 H614 H 0.76503 0.93543 0.77847
 H615 H 0.71558 0.91618 1.00029
 H616 H 0.69743 0.88659 1.07886
 H617 H 0.69974 0.84387 1.04688
 H618 H 0.71991 0.83054 0.93556
 C619 C 0.24736 0.36615 0.34255
 C620 C 0.23265 0.38241 0.30313
 C621 C 0.23296 0.40711 0.32052
 C622 C 0.24812 0.41542 0.37673
 C623 C 0.26302 0.39917 0.41562
 C624 C 0.26229 0.37443 0.39945
 C625 C 0.27647 0.35843 0.44152
 C626 C 0.29110 0.36666 0.49756
 C627 C 0.29221 0.39090 0.51234
 C628 C 0.27848 0.40705 0.47176
 C629 C 0.21789 0.42298 0.28115
 C630 C 0.20295 0.41470 0.22593
 C631 C 0.20267 0.39056 0.20879
 C632 C 0.21732 0.37452 0.24678
 C633 C 0.24694 0.44020 0.39966
 C634 C 0.24606 0.46010 0.42466
 C635 C 0.24755 0.34099 0.32380
 C636 C 0.24822 0.32009 0.30837
 H637 H 0.27626 0.33940 0.43201
 H638 H 0.30168 0.35416 0.52955
 H639 H 0.30365 0.39723 0.55580
 H640 H 0.27997 0.42572 0.48540
 H641 H 0.21755 0.44192 0.29247
 H642 H 0.19153 0.42708 0.19626
 H643 H 0.19102 0.38422 0.16588
 H644 H 0.21641 0.35590 0.23173
 C645 C 0.24930 0.14183 0.84438
 C646 C 0.23754 0.13517 0.90977
 C647 C 0.23568 0.11069 0.92822
 C648 C 0.24615 0.09303 0.88216
 C649 C 0.25777 0.09968 0.81659
 C650 C 0.25930 0.12415 0.79751
 C651 C 0.27112 0.13036 0.73183
 C652 C 0.28115 0.11289 0.68632
 C653 C 0.27967 0.08897 0.70507
 C654 C 0.26815 0.08234 0.76945
 C655 C 0.22371 0.10448 0.99370
 C656 C 0.21433 0.12195 1.04042
 C657 C 0.21645 0.14589 1.02289
 C658 C 0.22780 0.15253 0.95822
 C659 C 0.24694 0.06840 0.90629
 C660 C 0.24833 0.04859 0.93148
 C661 C 0.25100 0.16684 0.82523
 C662 C 0.25215 0.18762 0.80932
 H663 H 0.27279 0.14873 0.71504
 H664 H 0.29013 0.11796 0.63627
 H665 H 0.28749 0.07548 0.66952
 H666 H 0.26738 0.06351 0.78167
 H667 H 0.22165 0.08609 1.00985
 H668 H 0.20553 0.11687 1.09076
 H669 H 0.20928 0.15940 1.05959
 H670 H 0.22900 0.17139 0.94699
 C671 C 0.74375 0.63253 0.33465
 C672 C 0.73145 0.62565 0.39886
 C673 C 0.72988 0.60114 0.41704
 C674 C 0.74116 0.58371 0.37198
 C675 C 0.75327 0.59057 0.30750
 C676 C 0.75452 0.61507 0.28865
 C677 C 0.76686 0.62153 0.22412
 C678 C 0.77766 0.60427 0.17952
 C679 C 0.77645 0.58031 0.19804
 C680 C 0.76442 0.57344 0.26129
 C681 C 0.71738 0.59466 0.48133
 C682 C 0.70722 0.61194 0.52720
 C683 C 0.70905 0.63593 0.50994
 C684 C 0.72090 0.64281 0.44639
 C685 C 0.74234 0.55915 0.39637
 C686 C 0.74403 0.53941 0.42180
 C687 C 0.74520 0.65756 0.31586
 C688 C 0.74611 0.67838 0.30048
 H689 H 0.76833 0.63994 0.20751
 H690 H 0.78703 0.60952 0.13035
 H691 H 0.78486 0.56697 0.16320
 H692 H 0.76387 0.55458 0.27333
 H693 H 0.71551 0.57623 0.49717
 H694 H 0.69802 0.60667 0.57666
 H695 H 0.70126 0.64930 0.54598
 H696 H 0.72184 0.66170 0.43530
 C697 C 0.13200 0.75535 0.82551
 C698 C 0.11526 0.74280 0.78278
 C699 C 0.09074 0.74351 0.80236
 C700 C 0.08312 0.75688 0.86419
 C701 C 0.09980 0.76988 0.90593
 C702 C 0.12436 0.76880 0.88725
 C703 C 0.14084 0.78103 0.93184
 C704 C 0.13323 0.79407 0.99291
 C705 C 0.10915 0.79546 1.01049
 C706 C 0.09254 0.78365 0.96749
 C707 C 0.07436 0.73055 0.75961
 C708 C 0.08199 0.71728 0.69903
 C709 C 0.10597 0.71662 0.67973
 C710 C 0.12249 0.72919 0.72094
 C711 C 0.05875 0.75533 0.88999
 C712 C 0.03932 0.75365 0.91733
 C713 C 0.15706 0.75459 0.80594
 C714 C 0.17791 0.75437 0.79030
 H715 H 0.15976 0.78052 0.92037
 H716 H 0.14609 0.80316 1.02672
 H717 H 0.10332 0.80561 1.05798
 H718 H 0.07402 0.78526 0.98346
 H719 H 0.05552 0.73063 0.77238
 H720 H 0.06922 0.70748 0.66687
 H721 H 0.11180 0.70628 0.63261
 H722 H 0.14096 0.72808 0.70394
 C723 C 0.64046 0.24517 0.33533
 C724 C 0.63350 0.25796 0.39913
 C725 C 0.60902 0.25973 0.41868
 C726 C 0.59168 0.24816 0.37545
 C727 C 0.59863 0.23537 0.31174
 C728 C 0.62309 0.23393 0.29148
 C729 C 0.62962 0.22095 0.22767
 C730 C 0.61248 0.20970 0.18518
 C731 C 0.58857 0.21108 0.20509
 C732 C 0.58163 0.22375 0.26763
 C733 C 0.60250 0.27276 0.48245
 C734 C 0.61970 0.28325 0.52656
 C735 C 0.64366 0.28122 0.50799
 C736 C 0.65058 0.26886 0.44487
 C737 C 0.56717 0.24759 0.40081
 C738 C 0.54750 0.24655 0.42717
 C739 C 0.66544 0.24387 0.31454
 C740 C 0.68622 0.24331 0.29771
 H741 H 0.64799 0.21932 0.21008
 H742 H 0.61778 0.19983 0.13655
 H743 H 0.57533 0.20231 0.17190
 H744 H 0.56282 0.22440 0.28084
 H745 H 0.58409 0.27480 0.49933
 H746 H 0.61440 0.29285 0.57568
 H747 H 0.65698 0.28927 0.54267
 H748 H 0.66945 0.26778 0.43276
 C749 C 0.86829 0.25148 0.82765
 C750 C 0.88613 0.23959 0.78567
 C751 C 0.91054 0.24177 0.80505
 C752 C 0.91698 0.25599 0.86583
 C753 C 0.89918 0.26839 0.90664
 C754 C 0.87476 0.26576 0.88838
 C755 C 0.85724 0.27731 0.93243
 C756 C 0.86369 0.29125 0.99235
 C757 C 0.88760 0.29424 1.00927
 C758 C 0.90521 0.28307 0.96693
 C759 C 0.92802 0.22942 0.76313
 C760 C 0.92159 0.21538 0.70338
 C761 C 0.89772 0.21327 0.68430
 C762 C 0.88012 0.22518 0.72484
 C763 C 0.94146 0.25600 0.89167
 C764 C 0.96097 0.25574 0.91945
 C765 C 0.84332 0.24918 0.80844
 C766 C 0.82249 0.24763 0.79318
 H767 H 0.83841 0.27556 0.92145
 H768 H 0.85007 0.29981 1.02575
 H769 H 0.89253 0.30513 1.05578
 H770 H 0.92355 0.28592 0.98245
 H771 H 0.94681 0.23059 0.77589
 H772 H 0.93519 0.20610 0.67171
 H773 H 0.89282 0.20233 0.63789
 H774 H 0.86179 0.22291 0.70811
 C775 C 0.35925 0.74940 0.33189
 C776 C 0.37672 0.75958 0.28608
 C777 C 0.40116 0.75822 0.30635
 C778 C 0.40799 0.74655 0.37200
 C779 C 0.39056 0.73585 0.41693
 C780 C 0.36609 0.73758 0.39736
 C781 C 0.34892 0.72764 0.44475
 C782 C 0.35575 0.71622 0.50945
 C783 C 0.37971 0.71422 0.52806
 C784 C 0.39700 0.72379 0.48238
 C785 C 0.41829 0.76879 0.26027
 C786 C 0.41146 0.78033 0.19575
 C787 C 0.38756 0.78164 0.17582
 C788 C 0.37031 0.77143 0.22030
 C789 C 0.43247 0.74743 0.39731
 C790 C 0.45213 0.74878 0.42340
 C791 C 0.33426 0.75098 0.31163
 C792 C 0.31349 0.75206 0.29495
 H793 H 0.33005 0.72873 0.43263
 H794 H 0.34237 0.70889 0.54533
 H795 H 0.38494 0.70534 0.57839
 H796 H 0.41540 0.72181 0.49932
 H797 H 0.43709 0.76815 0.27343
 H798 H 0.42479 0.78828 0.16100
 H799 H 0.38234 0.79062 0.12565
 H800 H 0.35194 0.77297 0.20260
 C801 C 0.25494 0.86687 0.15891
 C802 C 0.24546 0.88458 0.20670
 C803 C 0.24745 0.90907 0.18845
 C804 C 0.25903 0.91572 0.12283
 C805 C 0.26908 0.89804 0.07601
 C806 C 0.26672 0.87354 0.09355
 C807 C 0.27599 0.85618 0.04428
 C808 C 0.28737 0.86284 -0.02033
 C809 C 0.29000 0.88680 -0.03693
 C810 C 0.28110 0.90426 0.01063
 C811 C 0.23756 0.92644 0.23648
 C812 C 0.22607 0.91980 0.30090
 C813 C 0.22415 0.89586 0.31886
 C814 C 0.23370 0.87837 0.27250
 C815 C 0.25860 0.94043 0.09946
 C816 C 0.25747 0.96036 0.07506
 C817 C 0.25259 0.84183 0.17695
 C818 C 0.25080 0.82103 0.19196
 H819 H 0.27440 0.83732 0.05484
 H820 H 0.29417 0.84934 -0.05770
 H821 H 0.29884 0.89189 -0.08720
 H822 H 0.28355 0.92266 -0.00476
 H823 H 0.23872 0.94529 0.22494
 H824 H 0.21863 0.93332 0.33711
 H825 H 0.21521 0.89080 0.36899
 H826 H 0.23172 0.85998 0.28877
 C827 C 0.75711 0.35730 0.65458
 C828 C 0.74610 0.37448 0.70113
 C829 C 0.74687 0.39906 0.68282
 C830 C 0.75877 0.40633 0.61840
 C831 C 0.77020 0.38918 0.57262
 C832 C 0.76907 0.36458 0.59020
 C833 C 0.77975 0.34772 0.54196
 C834 C 0.79130 0.35496 0.47830
 C835 C 0.79274 0.37904 0.46167
 C836 C 0.78244 0.39603 0.50826
 C837 C 0.73545 0.41587 0.72955
 C838 C 0.72365 0.40862 0.79278
 C839 C 0.72295 0.38460 0.81084
 C840 C 0.73402 0.36764 0.76575
 C841 C 0.75734 0.43102 0.59504
 C842 C 0.75550 0.45089 0.57044
 C843 C 0.75628 0.33219 0.67321
 C844 C 0.75574 0.31138 0.68928
 H845 H 0.77913 0.32878 0.55260
 H846 H 0.79919 0.34182 0.44169
 H847 H 0.80172 0.38459 0.41213
 H848 H 0.78401 0.41454 0.49289
 H849 H 0.73562 0.43477 0.71790
 H850 H 0.71503 0.42172 0.82798
 H851 H 0.71377 0.37906 0.86003
 H852 H 0.73294 0.34917 0.78203
 C853 C 0.75913 0.13143 0.17023
 C854 C 0.77186 0.12386 0.10702
 C855 C 0.77335 0.09924 0.08916
 C856 C 0.76153 0.08241 0.13343
 C857 C 0.74913 0.08994 0.19721
 C858 C 0.74800 0.11453 0.21586
 C859 C 0.73538 0.12165 0.27973
 C860 C 0.72418 0.10496 0.32383
 C861 C 0.72523 0.08092 0.30543
 C862 C 0.73753 0.07339 0.24284
 C863 C 0.78626 0.09207 0.02584
 C864 C 0.79693 0.10879 -0.01943
 C865 C 0.79517 0.13290 -0.00254
 C866 C 0.78291 0.14044 0.06008
 C867 C 0.76002 0.05793 0.10853
 C868 C 0.75807 0.03835 0.08232
 C869 C 0.75734 0.15662 0.18784
 C870 C 0.75602 0.17757 0.20197
 H871 H 0.73404 0.14015 0.29623
 H872 H 0.71461 0.11071 0.37252
 H873 H 0.71649 0.06802 0.33986
 H874 H 0.73796 0.05450 0.23084
 H875 H 0.78810 0.07352 0.01030
 H876 H 0.80646 0.10300 -0.06814
 H877 H 0.80336 0.14583 -0.03811
 H878 H 0.78207 0.15939 0.07096
 C879 C 0.24748 0.64268 0.65951
 C880 C 0.26054 0.63478 0.59731
 C881 C 0.26192 0.61009 0.58026
 C882 C 0.24952 0.59351 0.62398
 C883 C 0.23641 0.60141 0.68599
 C884 C 0.23546 0.62606 0.70402
 C885 C 0.22218 0.63355 0.76621
 C886 C 0.21013 0.61716 0.80925
 C887 C 0.21103 0.59307 0.79148
 C888 C 0.22399 0.58518 0.73058
 C889 C 0.27540 0.60260 0.51841
 C890 C 0.28656 0.61907 0.47343
 C891 C 0.28482 0.64325 0.48932
 C892 C 0.27211 0.65111 0.55073
 C893 C 0.24855 0.56880 0.60066
 C894 C 0.24749 0.54895 0.57569
 C895 C 0.24660 0.66785 0.67793
 C896 C 0.24610 0.68876 0.69312
 H897 H 0.22090 0.65211 0.78212
 H898 H 0.20004 0.62319 0.85660
 H899 H 0.20164 0.58041 0.82509
 H900 H 0.22424 0.56626 0.71903
 H901 H 0.27728 0.58398 0.50371
 H902 H 0.29649 0.61303 0.42573
 H903 H 0.29339 0.65599 0.45394
 H904 H 0.27132 0.67010 0.56090
 C905 C 0.86038 0.74405 0.17367
 C906 C 0.86914 0.76419 0.13632
 C907 C 0.89358 0.76503 0.11637
 C908 C 0.90908 0.74563 0.13330
 C909 C 0.90041 0.72565 0.17155
 C910 C 0.87598 0.72487 0.19194
 C911 C 0.86768 0.70467 0.22990
 C912 C 0.88308 0.68576 0.24717
 C913 C 0.90696 0.68651 0.22710
 C914 C 0.91563 0.70619 0.18968
 C915 C 0.90194 0.78541 0.07935
 C916 C 0.88661 0.80442 0.06277
 C917 C 0.86264 0.80349 0.08148
 C918 C 0.85391 0.78366 0.11786
 C919 C 0.93340 0.74566 0.10640
 C920 C 0.95288 0.74619 0.07873
 C921 C 0.83530 0.74312 0.19264
 C922 C 0.81439 0.74295 0.20746
 H923 H 0.84924 0.70328 0.24659
 H924 H 0.87644 0.67044 0.27626
 H925 H 0.91885 0.67178 0.24063
 H926 H 0.93435 0.70602 0.17538
 H927 H 0.92041 0.78696 0.06323
 H928 H 0.89336 0.81997 0.03517
 H929 H 0.85077 0.81824 0.06801
 H930 H 0.83514 0.78382 0.13150
 C931 C 0.36704 0.24330 0.67409
 C932 C 0.38481 0.25305 0.71985
 C933 C 0.40925 0.25066 0.70009
 C934 C 0.41578 0.23840 0.63504
 C935 C 0.39805 0.22801 0.59044
 C936 C 0.37360 0.23077 0.60943
 C937 C 0.35616 0.22116 0.56219
 C938 C 0.36271 0.20906 0.49824
 C939 C 0.38663 0.20602 0.48027
 C940 C 0.40418 0.21526 0.52579
 C941 C 0.42668 0.26086 0.74602
 C942 C 0.42016 0.27303 0.80988
 C943 C 0.39627 0.27533 0.82932
 C944 C 0.37872 0.26551 0.78500
 C945 C 0.44030 0.23852 0.60959
 C946 C 0.45996 0.23932 0.58310
 C947 C 0.34202 0.24623 0.69321
 C948 C 0.32121 0.24853 0.70865
 H949 H 0.33732 0.22303 0.57386
 H950 H 0.34914 0.20200 0.46244
 H951 H 0.39164 0.19661 0.43053
 H952 H 0.42255 0.21246 0.50939
 H953 H 0.44549 0.25943 0.73325
 H954 H 0.43372 0.28069 0.84450
 H955 H 0.39130 0.28480 0.87899
 H956 H 0.36038 0.26780 0.80235
 C957 C 0.13937 0.25480 0.17193
 C958 C 0.13175 0.26988 0.11399
 C959 C 0.10718 0.27154 0.09564
 C960 C 0.09046 0.25746 0.13352
 C961 C 0.09808 0.24237 0.19130
 C962 C 0.12260 0.24110 0.21081
 C963 C 0.12980 0.22584 0.26873
 C964 C 0.11325 0.21213 0.30604
 C965 C 0.08929 0.21332 0.28678
 C966 C 0.08168 0.22827 0.23015
 C967 C 0.09994 0.28706 0.03832
 C968 C 0.11658 0.29994 -0.00133
 C969 C 0.14066 0.29795 0.01570
 C970 C 0.14825 0.28326 0.07300
 C971 C 0.06602 0.25685 0.10763
 C972 C 0.04652 0.25623 0.08009
 C973 C 0.16442 0.25361 0.19180
 C974 C 0.18525 0.25298 0.20796
 H975 H 0.14824 0.22429 0.28569
 H976 H 0.11907 0.20051 0.35013
 H977 H 0.07651 0.20264 0.31594
 H978 H 0.06284 0.22874 0.21743
 H979 H 0.08140 0.28925 0.02313
 H980 H 0.11075 0.31141 -0.04577
 H981 H 0.15353 0.30790 -0.01549
 H982 H 0.16716 0.28241 0.08444
 C983 C 0.63325 0.75247 0.66496
 C984 C 0.62645 0.76561 0.60186
 C985 C 0.60194 0.76827 0.58348
 C986 C 0.58442 0.75720 0.62709
 C987 C 0.59120 0.74422 0.69043
 C988 C 0.61569 0.74190 0.70959
 C989 C 0.62204 0.72874 0.77302
 C990 C 0.60469 0.71813 0.81619
 C991 C 0.58075 0.72037 0.79735
 C992 C 0.57398 0.73324 0.73522
 C993 C 0.59557 0.78164 0.52043
 C994 C 0.61293 0.79160 0.47583
 C995 C 0.63691 0.78868 0.49318
 C996 C 0.64369 0.77596 0.55561
 C997 C 0.55986 0.75719 0.60219
 C998 C 0.54014 0.75651 0.57618
 C999 C 0.65829 0.74996 0.68394
 C1000 C 0.67916 0.74827 0.69920
 H1001 H 0.64043 0.72647 0.78983
 H1002 H 0.60985 0.70811 0.86452
 H1003 H 0.56734 0.71210 0.83108
 H1004 H 0.55513 0.73460 0.72290
 H1005 H 0.57715 0.78438 0.50456
 H1006 H 0.60773 0.80149 0.42727
 H1007 H 0.65034 0.79630 0.45810
 H1008 H 0.66257 0.77421 0.56685
   
