data_POSCAR
  _audit_creation_date              2014-09-24
  _audit_creation_method            'ToBaCCo'
  _symmetry_space_group_name_H-M    'P1'
  _symmetry_Int_Tables_number       1
  _symmetry_cell_setting            triclinic
  loop_
  _symmetry_equiv_pos_as_xyz
 x,y,z
_cell_length_a 33.2547
_cell_length_b 33.1108
_cell_length_c 38.9562
_cell_angle_alpha 90.327000
_cell_angle_beta 90.021800
_cell_angle_gamma 121.293600
loop_
  _atom_site_label
  _atom_site_type_symbol
  _atom_site_fract_x
  _atom_site_fract_y
  _atom_site_fract_z
C1 C -0.00117 0.47154 1.34356
 C2 C 0.04077 0.49854 1.32515
 C3 C 0.03855 0.49617 1.28911
 C4 C -0.00337 0.46378 1.27160
 C5 C -0.04440 0.43540 1.29119
 C6 C -0.04439 0.44128 1.32708
 C7 C -0.00442 0.46189 1.23296
 C8 C -0.04669 0.44646 1.21455
 C9 C -0.04671 0.44928 1.17865
 C10 C -0.00406 0.47003 1.16092
 C11 C 0.03811 0.48457 1.17830
 C12 C 0.03752 0.47851 1.21392
 H13 H -0.00029 0.47466 1.37130
 H14 H 0.06989 0.51868 1.27470
 H15 H -0.07677 0.41068 1.27835
 H16 H -0.07965 0.43403 1.22767
 H17 H -0.00377 0.47385 1.13328
 H18 H 0.07041 0.48856 1.22649
 C19 C 0.52429 0.52045 1.33951
 C20 C 0.51180 0.55047 1.32358
 C21 C 0.51887 0.55763 1.28793
 C22 C 0.53446 0.53264 1.26805
 C23 C 0.54855 0.50450 1.28520
 C24 C 0.54538 0.49953 1.32114
 C25 C 0.53354 0.53393 1.22947
 C26 C 0.56257 0.52348 1.20943
 C27 C 0.55827 0.52027 1.17355
 C28 C 0.52821 0.53188 1.15725
 C29 C 0.50027 0.54376 1.17626
 C30 C 0.50163 0.54315 1.21218
 H31 H 0.52044 0.51591 1.36707
 H32 H 0.50982 0.58068 1.27523
 H33 H 0.55913 0.48388 1.27051
 H34 H 0.58735 0.51604 1.22136
 H35 H 0.52564 0.53054 1.12946
 H36 H 0.47756 0.54979 1.22616
 C37 C 0.47032 1.00087 1.33956
 C38 C 0.44065 0.95845 1.32222
 C39 C 0.43190 0.95914 1.28712
 C40 C 0.45580 1.00167 1.26829
 C41 C 0.48420 1.04428 1.28685
 C42 C 0.49047 1.04453 1.32270
 C43 C 0.45457 1.00118 1.22950
 C44 C 0.47029 1.04319 1.21051
 C45 C 0.47681 1.04389 1.17486
 C46 C 0.46405 1.00188 1.15743
 C47 C 0.44491 0.95922 1.17499
 C48 C 0.44137 0.95915 1.21087
 H49 H 0.47571 0.99959 1.36689
 H50 H 0.40783 0.92587 1.27472
 H51 H 0.50435 1.07715 1.27336
 H52 H 0.47942 1.07606 1.22303
 H53 H 0.46828 1.00232 1.12980
 H54 H 0.43016 0.92622 1.22374
 C55 C 1.00523 0.51658 0.65788
 C56 C 0.96275 0.49242 0.67550
 C57 C 0.96178 0.49974 0.71077
 C58 C 1.00323 0.53252 0.72870
 C59 C 1.04520 0.55954 0.70959
 C60 C 1.04712 0.55058 0.67429
 C61 C 1.00340 0.53556 0.76732
 C62 C 1.04517 0.55006 0.78625
 C63 C 1.04469 0.54802 0.82223
 C64 C 1.00197 0.52948 0.83953
 C65 C 0.96021 0.51555 0.82169
 C66 C 0.96124 0.52015 0.78584
 H67 H 1.00482 0.50987 0.63056
 H68 H 0.92881 0.47816 0.72395
 H69 H 1.07678 0.58580 0.72257
 H70 H 1.07805 0.56098 0.77344
 H71 H 1.00128 0.52667 0.86728
 H72 H 0.92865 0.50987 0.77268
 C73 C 0.46810 0.47018 0.65946
 C74 C 0.48866 0.44875 0.67711
 C75 C 0.48577 0.44609 0.71303
 C76 C 0.46017 0.46235 0.73151
 C77 C 0.43662 0.48036 0.71259
 C78 C 0.44201 0.48590 0.67693
 C79 C 0.46019 0.46295 0.77015
 C80 C 0.45114 0.49446 0.78854
 C81 C 0.45209 0.49574 0.82450
 C82 C 0.46540 0.46817 0.84241
 C83 C 0.47661 0.43838 0.82498
 C84 C 0.47180 0.43403 0.78919
 H85 H 0.47144 0.47371 0.63179
 H86 H 0.50532 0.43300 0.72611
 H87 H 0.41515 0.49162 0.72524
 H88 H 0.44342 0.51834 0.77547
 H89 H 0.46825 0.47084 0.87018
 H90 H 0.47900 0.40931 0.77664
 C91 C 0.53645 0.00116 0.65921
 C92 C 0.56628 0.04347 0.67657
 C93 C 0.57570 0.04265 0.71153
 C94 C 0.55196 0.00005 0.73034
 C95 C 0.52327 -0.04240 0.71169
 C96 C 0.51659 -0.04247 0.67596
 C97 C 0.55265 0.00035 0.76920
 C98 C 0.53404 -0.04214 0.78812
 C99 C 0.52355 -0.04370 0.82339
 C100 C 0.53709 -0.00095 0.84048
 C101 C 0.56106 0.04215 0.82333
 C102 C 0.56742 0.04259 0.78783
 H103 H 0.53056 0.00251 0.63197
 H104 H 0.59992 0.07593 0.72377
 H105 H 0.50284 -0.07539 0.72490
 H106 H 0.52474 -0.07461 0.77516
 H107 H 0.53098 -0.00075 0.86780
 H108 H 0.58198 0.07624 0.77527
 O109 O 0.39518 0.65026 0.96658
 O110 O 0.39139 0.72484 0.95186
 C111 C 0.37434 0.75093 0.94962
 O112 O 0.34195 0.74615 0.96939
 O113 O 0.26349 0.66261 0.96285
 C114 C 0.23947 0.61765 0.96165
 O115 O 0.24605 0.59145 0.98217
 O116 O 0.32168 0.58825 0.97020
 C117 C 0.36279 0.60876 0.95782
 O118 O 0.40850 0.67686 1.03307
 O119 O 0.40643 0.75282 1.01921
 C120 C 0.37996 0.76020 1.03889
 O121 O 0.33525 0.73629 1.03718
 O122 O 0.25224 0.65800 1.03074
 C123 C 0.24719 0.62647 1.05156
 O124 O 0.27200 0.60793 1.04975
 O125 O 0.34654 0.60322 1.03695
 C126 C 0.38776 0.63586 1.04589
 Cr127 Cr 0.39792 0.69997 0.99296
 Cr128 Cr 0.29939 0.69950 1.00003
 Cr129 Cr 0.29780 0.60019 1.00946
 O130 O 0.33197 0.66627 1.00084
 O131 O 0.59675 0.33187 0.95755
 O132 O 0.59390 0.25282 0.97161
 C133 C 0.62253 0.24574 0.95488
 O134 O 0.66672 0.26995 0.95966
 O135 O 0.74699 0.34874 0.97122
 C136 C 0.75449 0.38373 0.95304
 O137 O 0.73156 0.40436 0.95686
 O138 O 0.65454 0.40584 0.96852
 C139 C 0.61799 0.37596 0.95194
 O140 O 0.59600 0.34909 1.02491
 O141 O 0.59667 0.27199 1.03909
 C142 C 0.61702 0.24914 1.04453
 O143 O 0.65268 0.25616 1.02754
 O144 O 0.73065 0.33717 1.03909
 C145 C 0.75474 0.38171 1.04297
 O146 O 0.74849 0.40976 1.02478
 O147 O 0.66941 0.40736 1.03641
 C148 C 0.62534 0.38619 1.04136
 Cr149 Cr 0.59835 0.30274 0.99828
 Cr150 Cr 0.69806 0.30422 0.99933
 Cr151 Cr 0.69969 0.40431 0.99669
 O152 O 0.66534 0.33709 0.99808
 O153 O 0.65076 0.40561 0.52377
 O154 O 0.72809 0.40771 0.53973
 C155 C 0.75058 0.38802 0.54851
 O156 O 0.74631 0.35201 0.53291
 O157 O 0.66728 0.27359 0.54584
 C158 C 0.62321 0.24842 0.54994
 O159 O 0.59427 0.25281 0.53139
 O160 O 0.59678 0.33296 0.54066
 C161 C 0.61648 0.37758 0.54281
 O162 O 0.66629 0.39755 0.45688
 O163 O 0.74714 0.40476 0.47317
 C164 C 0.75508 0.37509 0.45868
 O165 O 0.73122 0.33125 0.46481
 O166 O 0.65342 0.25124 0.47841
 C167 C 0.61791 0.24262 0.46020
 O168 O 0.59701 0.26546 0.46317
 O169 O 0.59367 0.34258 0.47252
 C170 C 0.62193 0.37716 0.45383
 Cr171 Cr 0.69700 0.40153 0.49839
 Cr172 Cr 0.69839 0.30321 0.50529
 Cr173 Cr 0.59777 0.29963 0.50188
 O174 O 0.66448 0.33474 0.50176
 O175 O 0.33742 0.60402 0.54262
 O176 O 0.25711 0.59687 0.52736
 C177 C 0.24895 0.62623 0.54205
 O178 O 0.27228 0.67017 0.53584
 O179 O 0.34981 0.75062 0.52148
 C180 C 0.38527 0.75924 0.53967
 O181 O 0.40602 0.73633 0.53680
 O182 O 0.41005 0.65991 0.52811
 C183 C 0.38158 0.62547 0.54683
 O184 O 0.35261 0.59606 0.47569
 O185 O 0.27384 0.59304 0.46085
 C186 C 0.24949 0.61140 0.45417
 O187 O 0.25632 0.64927 0.46823
 O188 O 0.33546 0.72803 0.45427
 C189 C 0.37960 0.75309 0.45003
 O190 O 0.40858 0.74855 0.46846
 O191 O 0.40717 0.66902 0.45971
 C192 C 0.38779 0.62448 0.45749
 Cr193 Cr 0.30649 0.59997 0.50150
 Cr194 Cr 0.30472 0.69837 0.49505
 Cr195 Cr 0.40556 0.70223 0.49825
 O196 O 0.33881 0.66682 0.49811
 C197 C 0.44970 0.56789 0.39407
 C198 C 0.45042 0.60890 0.38430
 N199 N 0.47113 0.63005 0.35426
 C200 C 0.49106 0.61202 0.33347
 C201 C 0.49134 0.57112 0.34350
 N202 N 0.47054 0.55063 0.37387
 N203 N 0.42787 0.54561 0.42347
 C204 C 0.40677 0.56267 0.44375
 C205 C 0.40835 0.60450 0.43460
 N206 N 0.43037 0.62682 0.40500
 H207 H 0.50805 0.63091 0.31029
 H208 H 0.38991 0.54436 0.46722
 C209 C 0.43403 0.86858 0.38196
 C210 C 0.38596 0.83385 0.38125
 N211 N 0.35674 0.83919 0.35985
 C212 C 0.37339 0.87799 0.33949
 C213 C 0.42128 0.91359 0.34117
 N214 N 0.45034 0.90763 0.36232
 N215 N 0.46352 0.86343 0.40297
 C216 C 0.44708 0.82544 0.42386
 C217 C 0.39862 0.79126 0.42436
 N218 N 0.36918 0.79623 0.40273
 H219 H 0.34930 0.88179 0.32309
 H220 H 0.47152 0.82288 0.44073
 C221 C 0.12633 0.53639 0.39492
 C222 C 0.16633 0.57554 0.38090
 N223 N 0.16442 0.58891 0.34836
 C224 C 0.12444 0.56481 0.32911
 C225 C 0.08365 0.52577 0.34334
 N226 N 0.08631 0.51321 0.37614
 N227 N 0.12814 0.52172 0.42697
 C228 C 0.16825 0.54479 0.44587
 C229 C 0.20798 0.58477 0.43238
 N230 N 0.20626 0.59952 0.40013
 H231 H 0.12453 0.57759 0.30365
 H232 H 0.16888 0.53264 0.47148
 C233 C 0.56376 0.43755 0.39104
 C234 C 0.59996 0.43185 0.37832
 N235 N 0.61593 0.44637 0.34596
 C236 C 0.59774 0.46673 0.32590
 C237 C 0.56258 0.47442 0.33916
 N238 N 0.54677 0.45915 0.37157
 N239 N 0.54649 0.42205 0.42289
 C240 C 0.56406 0.40134 0.44284
 C241 C 0.60147 0.39691 0.43082
 N242 N 0.61876 0.41238 0.39868
 H243 H 0.61273 0.47901 0.30076
 H244 H 0.54988 0.38968 0.46832
 C245 C 0.55643 0.12410 0.39399
 C246 C 0.56107 0.16672 0.38347
 N247 N 0.54464 0.16908 0.35211
 C248 C 0.52328 0.13064 0.33089
 C249 C 0.51650 0.08689 0.34196
 N250 N 0.53372 0.08543 0.37343
 N251 N 0.57397 0.12176 0.42485
 C252 C 0.59553 0.16011 0.44595
 C253 C 0.59852 0.20238 0.43621
 N254 N 0.58120 0.20473 0.40504
 H255 H 0.50947 0.13398 0.30666
 H256 H 0.60874 0.15716 0.47063
 C257 C 0.87552 0.42645 0.39653
 C258 C 0.83345 0.38567 0.38663
 N259 N 0.83212 0.36340 0.35685
 C260 C 0.87089 0.38018 0.33646
 C261 C 0.91378 0.42073 0.34676
 N262 N 0.91428 0.44226 0.37684
 N263 N 0.87697 0.45022 0.42538
 C264 C 0.83808 0.43489 0.44505
 C265 C 0.79605 0.39324 0.43592
 N266 N 0.79468 0.36931 0.40685
 H267 H 0.86821 0.36083 0.31329
 H268 H 0.84031 0.45433 0.46813
 C269 C 0.56966 0.44558 1.10830
 C270 C 0.61716 0.45924 1.11100
 N271 N 0.64486 0.49212 1.13498
 C272 C 0.62715 0.51209 1.15615
 C273 C 0.57982 0.49918 1.15269
 N274 N 0.55243 0.46604 1.12885
 N275 N 0.54140 0.41231 1.08503
 C276 C 0.55847 0.39207 1.06396
 C277 C 0.60632 0.40620 1.06579
 N278 N 0.63470 0.43962 1.08942
 H279 H 0.64991 0.53840 1.17487
 H280 H 0.53498 0.36591 1.04542
 C281 C 0.86953 0.44039 1.11207
 C282 C 0.83117 0.39433 1.11695
 N283 N 0.83208 0.36826 1.14341
 C284 C 0.86995 0.38594 1.16486
 C285 C 0.90916 0.43135 1.15909
 N286 N 0.90772 0.45748 1.13283
 N287 N 0.86862 0.46686 1.08603
 C288 C 0.83128 0.44920 1.06428
 C289 C 0.79344 0.40246 1.06820
 N290 N 0.79424 0.37611 1.09466
 H291 H 0.87028 0.36409 1.18529
 H292 H 0.83188 0.47101 1.04346
 C293 C 0.55751 0.13439 1.11339
 C294 C 0.54289 0.16724 1.11408
 N295 N 0.50826 0.16056 1.13614
 C296 C 0.48726 0.12217 1.15715
 C297 C 0.50086 0.08847 1.15544
 N298 N 0.53592 0.09582 1.13366
 N299 N 0.59228 0.14082 1.09189
 C300 C 0.61292 0.17840 1.07053
 C301 C 0.59755 0.21082 1.07008
 N302 N 0.56284 0.20453 1.09212
 H303 H 0.45929 0.11720 1.17411
 H304 H 0.64019 0.18204 1.05338
 C305 C 0.46702 0.60609 1.11491
 C306 C 0.41763 0.57904 1.11574
 N307 N 0.39600 0.54266 1.13827
 C308 C 0.42159 0.53178 1.15956
 C309 C 0.47097 0.55784 1.15766
 N310 N 0.49232 0.59447 1.13539
 N311 N 0.48903 0.64281 1.09298
 C312 C 0.46401 0.65362 1.07145
 C313 C 0.41450 0.62586 1.07119
 N314 N 0.39235 0.58907 1.09354
 H315 H 0.40366 0.50208 1.17678
 H316 H 0.48280 0.68290 1.05398
 C317 C 0.12973 0.56637 1.11761
 C318 C 0.16374 0.55358 1.12035
 N319 N 0.15702 0.51950 1.14297
 C320 C 0.11756 0.49736 1.16270
 C321 C 0.08278 0.50912 1.15911
 N322 N 0.09004 0.54362 1.13668
 N323 N 0.13636 0.60063 1.09539
 C324 C 0.17514 0.62222 1.07519
 C325 C 0.20859 0.60836 1.07675
 N326 N 0.20212 0.57441 1.09961
 H327 H 0.11278 0.47000 1.18026
 H328 H 0.17888 0.64880 1.05725
 C329 C 0.43846 0.87644 1.10744
 C330 C 0.39396 0.83645 1.11350
 N331 N 0.36842 0.83602 1.14083
 C332 C 0.38507 0.87416 1.16212
 C333 C 0.42880 0.91506 1.15532
 N334 N 0.45453 0.91497 1.12812
 N335 N 0.46420 0.87666 1.08031
 C336 C 0.44712 0.83890 1.05860
 C337 C 0.40173 0.79953 1.06377
 N338 N 0.37638 0.79928 1.09133
 H339 H 0.36349 0.87329 1.18323
 H340 H 0.46808 0.84033 1.03686
 C341 C 0.56024 0.43693 0.60938
 C342 C 0.55311 0.39204 0.61604
 N343 N 0.52726 0.36757 0.64373
 C344 C 0.50774 0.38573 0.66478
 C345 C 0.51359 0.43005 0.65745
 N346 N 0.53994 0.45452 0.62987
 N347 N 0.58647 0.46185 0.58209
 C348 C 0.60574 0.44382 0.56088
 C349 C 0.59775 0.39832 0.56680
 N350 N 0.57155 0.37345 0.59441
 H351 H 0.48648 0.36507 0.68624
 H352 H 0.62617 0.46444 0.53912
 C353 C 0.57060 0.13305 0.61779
 C354 C 0.61851 0.16823 0.61828
 N355 N 0.64837 0.16331 0.63925
 C356 C 0.63251 0.12442 0.65939
 C357 C 0.58480 0.08836 0.65790
 N358 N 0.55507 0.09394 0.63721
 N359 N 0.54053 0.13777 0.59711
 C360 C 0.55627 0.17579 0.57631
 C361 C 0.60457 0.21036 0.57560
 N362 N 0.63455 0.20583 0.59692
 H363 H 0.65710 0.12094 0.67543
 H364 H 0.53146 0.17804 0.55965
 C365 C 0.85135 0.45107 0.62838
 C366 C 0.84819 0.41402 0.60846
 N367 N 0.88001 0.40059 0.61324
 C368 C 0.91551 0.42323 0.63651
 C369 C 0.91951 0.46113 0.65585
 N370 N 0.88696 0.47387 0.65149
 N371 N 0.82052 0.46556 0.62278
 C372 C 0.78706 0.44519 0.59784
 C373 C 0.78438 0.40874 0.57728
 N374 N 0.81488 0.39375 0.58346
 H375 H 0.94143 0.41297 0.63903
 H376 H 0.76326 0.45784 0.59382
 C377 C 0.43608 0.56735 0.61543
 C378 C 0.38853 0.55377 0.61703
 N379 N 0.35958 0.51973 0.63951
 C380 C 0.37599 0.49827 0.66013
 C381 C 0.42322 0.51067 0.65755
 N382 N 0.45209 0.54519 0.63532
 N383 N 0.46530 0.60159 0.59336
 C384 C 0.44901 0.62246 0.57226
 C385 C 0.40097 0.60776 0.57267
 N386 N 0.37186 0.57381 0.59534
 H387 H 0.35215 0.47079 0.67748
 H388 H 0.47310 0.64908 0.55449
 C389 C 0.44820 0.87783 0.60552
 C390 C 0.44401 0.83530 0.61571
 N391 N 0.46165 0.83306 0.64657
 C392 C 0.48378 0.87158 0.66761
 C393 C 0.49005 0.91523 0.65684
 N394 N 0.47167 0.91661 0.62587
 N395 N 0.42949 0.88001 0.57514
 C396 C 0.40724 0.84154 0.55419
 C397 C 0.40479 0.79942 0.56359
 N398 N 0.42322 0.79725 0.59428
 H399 H 0.49858 0.86839 0.69141
 H400 H 0.39316 0.84434 0.52985
 C401 C 0.12921 0.56911 0.60548
 C402 C 0.16949 0.61215 0.61453
 N403 N 0.16925 0.63435 0.64395
 C404 C 0.13056 0.61545 0.66464
 C405 C 0.08936 0.57260 0.65504
 N406 N 0.09058 0.55110 0.62547
 N407 N 0.12920 0.54553 0.57700
 C408 C 0.16782 0.56317 0.55685
 C409 C 0.20810 0.60695 0.56508
 N410 N 0.20807 0.63073 0.59384
 H411 H 0.13185 0.63489 0.68739
 H412 H 0.16672 0.54358 0.53419
 C413 C 0.39344 0.52877 0.88967
 C414 C 0.41733 0.57817 0.88665
 N415 N 0.45053 0.59968 0.86186
 C416 C 0.46124 0.57401 0.84031
 C417 C 0.43840 0.52476 0.84423
 N418 N 0.40496 0.50349 0.86884
 N419 N 0.35964 0.50681 0.91376
 C420 C 0.34868 0.53196 0.93529
 C421 C 0.37329 0.58158 0.93319
 N422 N 0.40722 0.60366 0.90879
 H423 H 0.48833 0.59192 0.82114
 H424 H 0.32175 0.51338 0.95446
 C425 C 0.12560 0.55682 0.89157
 C426 C 0.16552 0.60138 0.88536
 N427 N 0.16661 0.62610 0.85731
 C428 C 0.12921 0.60861 0.83546
 C429 C 0.08834 0.56487 0.84240
 N430 N 0.08780 0.53995 0.87032
 N431 N 0.12467 0.53184 0.91939
 C432 C 0.16164 0.54972 0.94164
 C433 C 0.20093 0.59520 0.93631
 N434 N 0.20191 0.61981 0.90806
 H435 H 0.13058 0.62958 0.81377
 H436 H 0.15964 0.52931 0.96388
 C437 C 0.44617 0.87214 0.88782
 C438 C 0.44587 0.83098 0.87881
 N439 N 0.47072 0.83142 0.85101
 C440 C 0.49590 0.87117 0.83181
 C441 C 0.49766 0.91332 0.84149
 N442 N 0.47243 0.91204 0.86948
 N443 N 0.42037 0.87179 0.91485
 C444 C 0.39474 0.83217 0.93378
 C445 C 0.39589 0.79125 0.92592
 N446 N 0.42154 0.79164 0.89844
 H447 H 0.51589 0.86999 0.81038
 H448 H 0.37534 0.83333 0.95569
 C449 C 0.55804 0.43001 0.88461
 C450 C 0.54148 0.38144 0.88454
 N451 N 0.50481 0.35208 0.86366
 C452 C 0.48372 0.36916 0.84320
 C453 C 0.49942 0.41760 0.84434
 N454 N 0.53643 0.44668 0.86493
 N455 N 0.59488 0.45978 0.90486
 C456 C 0.61576 0.44322 0.92560
 C457 C 0.59849 0.39438 0.92672
 N458 N 0.56170 0.36451 0.90590
 H459 H 0.45431 0.34515 0.82704
 H460 H 0.64471 0.46800 0.94179
 C461 C 0.87010 0.43954 0.88515
 C462 C 0.83681 0.45328 0.88226
 N463 N 0.84314 0.48570 0.85820
 C464 C 0.88155 0.50533 0.83727
 C465 C 0.91566 0.49267 0.84109
 N466 N 0.90867 0.45980 0.86491
 N467 N 0.86402 0.40691 0.90866
 C468 C 0.82632 0.38756 0.92986
 C469 C 0.79336 0.40205 0.92801
 N470 N 0.79935 0.43464 0.90401
 H471 H 0.88620 0.53158 0.81869
 H472 H 0.82293 0.36198 0.94861
 C473 C 0.56721 0.12820 0.88764
 C474 C 0.61378 0.16594 0.88400
 N475 N 0.64142 0.16368 0.85935
 C476 C 0.62475 0.12510 0.83846
 C477 C 0.57863 0.08657 0.84289
 N478 N 0.55097 0.08929 0.86741
 N479 N 0.53925 0.13055 0.91186
 C480 C 0.55585 0.16875 0.93297
 C481 C 0.60297 0.20603 0.93026
 N482 N 0.63084 0.20372 0.90564
 H483 H 0.64777 0.12379 0.81944
 H484 H 0.53282 0.16930 0.95235
   
