data_POSCAR
  _audit_creation_date              2014-09-24
  _audit_creation_method            'ToBaCCo'
  _symmetry_space_group_name_H-M    'P1'
  _symmetry_Int_Tables_number       1
  _symmetry_cell_setting            triclinic
  loop_
  _symmetry_equiv_pos_as_xyz
 x,y,z
_cell_length_a 32.8324
_cell_length_b 31.6322
_cell_length_c 30.5989
_cell_angle_alpha 89.934400
_cell_angle_beta 90.458100
_cell_angle_gamma 90.217700
loop_
  _atom_site_label
  _atom_site_type_symbol
  _atom_site_fract_x
  _atom_site_fract_y
  _atom_site_fract_z
C1 C 1.17146 0.25770 0.28202
 H2 H 1.16385 0.23250 0.25958
 C3 C 1.14141 0.27345 0.30935
 H4 H 1.11078 0.26080 0.30696
 C5 C 1.22074 0.30350 0.31372
 H6 H 1.25197 0.31437 0.31579
 C7 C 1.19124 0.32097 0.34102
 H8 H 1.19988 0.34539 0.36411
 N9 N 1.21020 0.27307 0.28426
 C10 C 1.21948 0.17832 0.19535
 H11 H 1.23831 0.15778 0.21516
 C12 C 1.19271 0.16091 0.16431
 H13 H 1.19161 0.12695 0.16041
 C14 C 1.19774 0.24740 0.17677
 H15 H 1.19917 0.28108 0.18262
 C16 C 1.17069 0.23147 0.14562
 H17 H 1.15178 0.25360 0.12791
 Zn18 Zn 1.24963 0.24791 0.24744
 N19 N 1.22065 0.22086 0.20165
 C20 C 1.25394 0.17983 0.30260
 N21 N 1.27844 0.20840 0.28259
 C22 C 1.31922 0.20932 0.29082
 C23 C 1.33668 0.18047 0.32037
 C24 C 1.26986 0.15082 0.33231
 C25 C 1.26889 0.32998 0.21919
 C26 C 1.28724 0.36001 0.19233
 C27 C 1.33557 0.30723 0.16966
 C28 C 1.31583 0.27786 0.19659
 N29 N 1.28300 0.28962 0.22058
 H30 H 1.22156 0.17998 0.29584
 H31 H 1.33814 0.23294 0.27539
 H32 H 1.36909 0.18243 0.32663
 H33 H 1.24876 0.12875 0.34678
 H34 H 1.24172 0.33844 0.23670
 H35 H 1.27473 0.39160 0.19091
 H36 H 1.36080 0.29711 0.14969
 H37 H 1.32551 0.24521 0.19673
 C38 C 1.16719 0.18760 0.13954
 C39 C 1.15111 0.30562 0.33906
 C40 C 1.32043 0.34857 0.16644
 C41 C 1.31184 0.15084 0.34231
 C42 C 0.68386 -0.21524 0.30030
 H43 H 0.67048 -0.24624 0.29682
 C44 C 0.66415 -0.18484 0.32579
 H45 H 0.63568 -0.19286 0.34140
 C46 C 0.73841 -0.16788 0.28718
 H47 H 0.76820 -0.16174 0.27387
 C48 C 0.72000 -0.13688 0.31249
 H49 H 0.73536 -0.10682 0.31678
 N50 N 0.72058 -0.20648 0.28189
 C51 C 0.73741 -0.28957 0.17591
 H52 H 0.76262 -0.27045 0.16507
 C53 C 0.72027 -0.31850 0.14685
 H54 H 0.73213 -0.32053 0.11399
 C55 C 0.69246 -0.31151 0.23174
 H56 H 0.68289 -0.31003 0.26538
 C57 C 0.67372 -0.34044 0.20318
 H58 H 0.64933 -0.36053 0.21486
 Zn59 Zn 0.75319 -0.24934 0.25566
 N60 N 0.72365 -0.28653 0.21765
 C61 C 0.79208 -0.25733 0.33592
 N62 N 0.77909 -0.28008 0.30082
 C63 C 0.79072 -0.32092 0.29505
 C64 C 0.81819 -0.33968 0.32438
 C65 C 0.81927 -0.27481 0.36597
 C66 C 0.78582 -0.19239 0.19336
 C67 C 0.81586 -0.17565 0.16622
 C68 C 0.86434 -0.22396 0.19858
 C69 C 0.83367 -0.23910 0.22575
 N70 N 0.79518 -0.22352 0.22245
 H71 H 0.78296 -0.22475 0.33948
 H72 H 0.78075 -0.33800 0.26626
 H73 H 0.82872 -0.37146 0.31810
 H74 H 0.82964 -0.25562 0.39311
 H75 H 0.75483 -0.18112 0.19075
 H76 H 0.80788 -0.15124 0.14288
 H77 H 0.89467 -0.23708 0.20129
 H78 H 0.84050 -0.26418 0.24857
 C79 C 0.68823 -0.34452 0.16038
 C80 C 0.68289 -0.14547 0.33306
 C81 C 0.85549 -0.19203 0.16828
 C82 C 0.83385 -0.31596 0.35958
 C83 C 0.68487 0.29102 -0.21086
 H84 H 0.66853 0.26321 -0.22170
 C85 C 0.66539 0.32046 -0.18387
 H86 H 0.63418 0.31486 -0.17428
 C87 C 0.74585 0.33102 -0.20784
 H88 H 0.77739 0.33512 -0.21652
 C89 C 0.72764 0.36113 -0.18141
 H90 H 0.74555 0.38816 -0.17118
 N91 N 0.72474 0.29639 -0.22163
 C92 C 0.73134 0.21558 -0.32829
 H93 H 0.75318 0.23739 -0.34182
 C94 C 0.71275 0.18640 -0.35600
 H95 H 0.72079 0.18604 -0.39027
 C96 C 0.69445 0.18922 -0.26782
 H97 H 0.68825 0.18975 -0.23317
 C98 C 0.67421 0.15993 -0.29491
 H99 H 0.65237 0.13808 -0.28105
 Zn100 Zn 0.75562 0.25349 -0.25006
 N101 N 0.72298 0.21591 -0.28477
 C102 C 0.78310 0.18236 -0.19758
 N103 N 0.78614 0.22444 -0.20649
 C104 C 0.81460 0.24891 -0.18618
 C105 C 0.84125 0.23171 -0.15559
 C106 C 0.80940 0.16366 -0.16680
 C107 C 0.79325 0.31816 -0.30273
 C108 C 0.82415 0.33401 -0.32936
 C109 C 0.85722 0.26599 -0.32557
 C110 C 0.82631 0.25191 -0.29825
 N111 N 0.79524 0.27794 -0.28721
 H112 H 0.76088 0.16315 -0.21469
 H113 H 0.81774 0.28177 -0.19489
 H114 H 0.86417 0.25217 -0.14129
 H115 H 0.80665 0.13019 -0.16006
 H116 H 0.76755 0.33792 -0.29487
 H117 H 0.82151 0.36609 -0.34127
 H118 H 0.88158 0.24431 -0.33286
 H119 H 0.82694 0.21989 -0.28581
 C120 C 0.68429 0.15779 -0.33936
 C121 C 0.68730 0.35553 -0.16787
 C122 C 0.85675 0.30773 -0.34153
 C123 C 0.83902 0.18857 -0.14536
 C124 C 1.16921 -0.24316 -0.21518
 H125 H 1.16240 -0.26902 -0.23712
 C126 C 1.13878 -0.22801 -0.18799
 H127 H 1.10858 -0.24177 -0.18995
 C128 C 1.21704 -0.19490 -0.18485
 H129 H 1.24788 -0.18282 -0.18326
 C130 C 1.18714 -0.17805 -0.15769
 H131 H 1.19507 -0.15286 -0.13522
 N132 N 1.20735 -0.22620 -0.21363
 C133 C 1.21967 -0.31947 -0.30450
 H134 H 1.23949 -0.33975 -0.28555
 C135 C 1.19369 -0.33700 -0.33617
 H136 H 1.19404 -0.37082 -0.34140
 C137 C 1.19498 -0.25086 -0.32061
 H138 H 1.19502 -0.21736 -0.31358
 C139 C 1.16867 -0.26693 -0.35236
 H140 H 1.14874 -0.24519 -0.36931
 Zn141 Zn 1.24719 -0.25016 -0.25053
 N142 N 1.21900 -0.27717 -0.29668
 C143 C 1.25382 -0.32022 -0.19773
 N144 N 1.27681 -0.28913 -0.21587
 C145 C 1.31710 -0.28502 -0.20590
 C146 C 1.33564 -0.31303 -0.17636
 C147 C 1.27101 -0.34878 -0.16835
 C148 C 1.26534 -0.16781 -0.27902
 C149 C 1.28361 -0.13788 -0.30604
 C150 C 1.33283 -0.19031 -0.32744
 C151 C 1.31319 -0.21957 -0.30038
 N152 N 1.27998 -0.20794 -0.27695
 H153 H 1.22171 -0.32238 -0.20565
 H154 H 1.33460 -0.25933 -0.21966
 H155 H 1.36748 -0.30875 -0.16806
 H156 H 1.25181 -0.37331 -0.15489
 H157 H 1.23784 -0.15956 -0.26197
 H158 H 1.27074 -0.10647 -0.30805
 H159 H 1.35836 -0.20039 -0.34698
 H160 H 1.32322 -0.25209 -0.29973
 C161 C 1.16714 -0.31065 -0.36000
 C162 C 1.14753 -0.19486 -0.15911
 C163 C 1.31721 -0.14925 -0.33137
 C164 C 1.31230 -0.34511 -0.15670
 C165 C 0.25342 0.17665 0.70216
 H166 H 0.22107 0.17538 0.70846
 C167 C 0.27039 0.14862 0.67246
 H168 H 0.25070 0.12532 0.65736
 C169 C 0.31748 0.20938 0.71433
 H170 H 0.33541 0.23396 0.72978
 C171 C 0.33581 0.18194 0.68440
 H172 H 0.36792 0.18553 0.67753
 N173 N 0.27688 0.20625 0.72245
 C174 C 0.19458 0.24457 0.82556
 H175 H 0.19782 0.27831 0.82094
 C176 C 0.16599 0.22922 0.85490
 H177 H 0.14859 0.25229 0.87263
 C178 C 0.21341 0.17510 0.80587
 H179 H 0.23180 0.15415 0.78644
 C180 C 0.18474 0.15816 0.83477
 H181 H 0.18204 0.12417 0.83699
 Zn182 Zn 0.24713 0.24505 0.75670
 N183 N 0.21676 0.21768 0.80087
 C184 C 0.22113 0.30071 0.68911
 N185 N 0.20908 0.27064 0.71817
 C186 C 0.16996 0.25636 0.71883
 C187 C 0.14104 0.27284 0.69009
 C188 C 0.19282 0.31891 0.66042
 C189 C 0.26483 0.32697 0.78595
 C190 C 0.28284 0.35739 0.81279
 C191 C 0.33224 0.30554 0.83613
 C192 C 0.31276 0.27571 0.80926
 N193 N 0.27964 0.28687 0.78485
 H194 H 0.25266 0.31075 0.68848
 H195 H 0.16118 0.23150 0.74111
 H196 H 0.11005 0.26106 0.69113
 H197 H 0.20260 0.34302 0.63760
 H198 H 0.23746 0.33493 0.76805
 H199 H 0.26990 0.38880 0.81386
 H200 H 0.35788 0.29598 0.85625
 H201 H 0.32305 0.24327 0.80925
 C202 C 0.15951 0.18533 0.85910
 C203 C 0.31198 0.15142 0.66250
 C204 C 0.31650 0.34664 0.83885
 C205 C 0.15233 0.30462 0.66066
 C206 C 0.78254 0.72373 0.66277
 H207 H 0.75676 0.74166 0.65104
 C208 C 0.81009 0.70759 0.63263
 H209 H 0.80552 0.71368 0.59811
 C210 C 0.81990 0.69343 0.72137
 H211 H 0.82410 0.68817 0.75590
 C212 C 0.84741 0.67551 0.69218
 H213 H 0.87260 0.65689 0.70459
 N214 N 0.78818 0.71728 0.70643
 C215 C 0.68524 0.71489 0.79848
 H216 H 0.67644 0.74776 0.80010
 C217 C 0.66498 0.68480 0.82425
 H218 H 0.64038 0.69505 0.84502
 C219 C 0.72961 0.66237 0.77168
 H220 H 0.75473 0.65336 0.75130
 C221 C 0.71197 0.63203 0.79866
 H222 H 0.72360 0.60008 0.79757
 Zn223 Zn 0.75170 0.74439 0.74621
 N224 N 0.71724 0.70330 0.77314
 C225 C 0.68159 0.78669 0.70751
 N226 N 0.72270 0.78641 0.71371
 C227 C 0.74684 0.81558 0.69391
 C228 C 0.73015 0.84679 0.66727
 C229 C 0.66348 0.81741 0.68056
 C230 C 0.80203 0.74394 0.82040
 C231 C 0.83025 0.75956 0.85070
 C232 C 0.81729 0.82992 0.82371
 C233 C 0.78909 0.81291 0.79405
 N234 N 0.78340 0.77032 0.79146
 H235 H 0.66288 0.76262 0.72247
 H236 H 0.77954 0.81407 0.69822
 H237 H 0.75068 0.86940 0.65272
 H238 H 0.63084 0.81661 0.67556
 H239 H 0.79552 0.71044 0.81950
 H240 H 0.84496 0.73746 0.87260
 H241 H 0.82238 0.86370 0.82370
 H242 H 0.77268 0.83395 0.77259
 C243 C 0.67972 0.64308 0.82624
 C244 C 0.84299 0.68330 0.64736
 C245 C 0.83934 0.80299 0.85167
 C246 C 0.68793 0.84792 0.65968
 C247 C 0.78462 0.22862 0.16471
 H248 H 0.76146 0.24994 0.15295
 C249 C 0.81232 0.21208 0.13506
 H250 H 0.81053 0.22138 0.10102
 C251 C 0.81484 0.18960 0.22247
 H252 H 0.81591 0.18077 0.25647
 C253 C 0.84239 0.17133 0.19361
 H254 H 0.86474 0.14906 0.20581
 N255 N 0.78710 0.21842 0.20792
 C256 C 0.69142 0.22187 0.30723
 H257 H 0.68912 0.25535 0.31390
 C258 C 0.67069 0.19271 0.33347
 H259 H 0.65214 0.20387 0.36015
 C260 C 0.72054 0.16627 0.26622
 H261 H 0.74026 0.15593 0.24033
 C262 C 0.70136 0.13617 0.29235
 H263 H 0.70641 0.10288 0.28623
 Zn264 Zn 0.75247 0.24715 0.24812
 N265 N 0.71651 0.20818 0.27504
 C266 C 0.68364 0.29092 0.21055
 N267 N 0.72472 0.29039 0.21666
 C268 C 0.74905 0.31963 0.19725
 C269 C 0.73262 0.35065 0.17025
 C270 C 0.66578 0.32138 0.18318
 C271 C 0.80521 0.24451 0.32054
 C272 C 0.83431 0.25960 0.35017
 C273 C 0.81985 0.33050 0.32565
 C274 C 0.79088 0.31401 0.29666
 N275 N 0.78557 0.27147 0.29298
 H276 H 0.66485 0.26702 0.22578
 H277 H 0.78173 0.31801 0.20174
 H278 H 0.75324 0.37316 0.15568
 H279 H 0.63319 0.32056 0.17790
 H280 H 0.79861 0.21107 0.31930
 H281 H 0.84987 0.23711 0.37092
 H282 H 0.82450 0.36433 0.32644
 H283 H 0.77343 0.33546 0.27664
 C284 C 0.67690 0.14933 0.32702
 C285 C 0.84189 0.18353 0.14962
 C286 C 0.84306 0.30308 0.35195
 C287 C 0.69051 0.35148 0.16202
 C288 C 0.25759 0.67898 0.20019
 H289 H 0.22504 0.67857 0.20538
 C290 C 0.27458 0.65032 0.17126
 H291 H 0.25475 0.62713 0.15617
 C292 C 0.32182 0.71115 0.21281
 H293 H 0.33985 0.73577 0.22806
 C294 C 0.34019 0.68306 0.18353
 H295 H 0.37240 0.68619 0.17699
 N296 N 0.28106 0.70872 0.22035
 C297 C 0.21527 0.67912 0.30020
 H298 H 0.23157 0.65846 0.27857
 C299 C 0.18717 0.66166 0.32923
 H300 H 0.18205 0.62789 0.32864
 C301 C 0.20237 0.74767 0.32737
 H302 H 0.20863 0.78123 0.32682
 C303 C 0.17432 0.73160 0.35709
 H304 H 0.15965 0.75343 0.37899
 Zn305 Zn 0.25114 0.74894 0.25337
 N306 N 0.22079 0.72176 0.29823
 C307 C 0.18061 0.79673 0.22855
 N308 N 0.21348 0.77496 0.21372
 C309 C 0.21963 0.76986 0.17007
 C310 C 0.19145 0.78523 0.13973
 C311 C 0.15243 0.81396 0.19918
 C312 C 0.31708 0.78048 0.30571
 C313 C 0.33616 0.81093 0.33222
 C314 C 0.28632 0.86180 0.30776
 C315 C 0.26985 0.83126 0.28002
 N316 N 0.28424 0.79102 0.28059
 H317 H 0.17604 0.80090 0.26310
 H318 H 0.24631 0.75363 0.15851
 H319 H 0.19640 0.78026 0.10516
 H320 H 0.12637 0.83106 0.21138
 H321 H 0.32743 0.74807 0.30660
 H322 H 0.36152 0.80149 0.35280
 H323 H 0.27314 0.89311 0.30737
 H324 H 0.24400 0.83939 0.25985
 C325 C 0.16511 0.68820 0.35716
 C326 C 0.31625 0.65255 0.16173
 C327 C 0.31942 0.85174 0.33514
 C328 C 0.15747 0.80747 0.15434
 O329 O 0.92465 -0.06482 -0.07538
 O330 O 0.96410 -0.11065 -0.03532
 C331 C 0.93590 -0.10260 -0.06393
 O332 O 1.07294 0.05491 -0.07606
 O333 O 1.03362 0.10065 -0.03663
 C334 C 1.06236 0.09276 -0.06413
 O335 O 1.06823 -0.06424 -0.08088
 O336 O 1.03163 -0.11048 -0.03853
 C337 C 1.05747 -0.10209 -0.06910
 O338 O 0.92115 0.05410 -0.07138
 O339 O 0.96255 0.10029 -0.03375
 C340 C 0.93241 0.09196 -0.05999
 Zr341 Zr 0.94571 -0.00521 -0.05232
 O342 O 0.94222 -0.00118 -0.12131
 O343 O 0.88164 -0.00744 -0.04634
 Zr344 Zr 1.04852 -0.00478 -0.05719
 O345 O 1.04151 0.00031 -0.12587
 O346 O 1.11232 -0.00904 -0.06474
 O347 O 0.99675 -0.04282 -0.06311
 O348 O 0.99680 0.03188 -0.06284
 O349 O 0.92735 0.05446 0.07753
 O350 O 0.96571 0.10069 0.03699
 C351 C 0.93763 0.09231 0.06521
 O352 O 1.07398 -0.06370 0.07802
 O353 O 1.03585 -0.11008 0.03689
 C354 C 1.06346 -0.10160 0.06601
 O355 O 1.07852 0.05512 0.07190
 O356 O 1.03737 0.10090 0.03378
 C357 C 1.06767 0.09284 0.05981
 O358 O 0.93185 -0.06430 0.08291
 O359 O 0.96810 -0.11071 0.04066
 C360 C 0.94267 -0.10217 0.07161
 Zr361 Zr 0.95113 -0.00502 0.05840
 O362 O 0.95877 -0.00675 0.12726
 O363 O 0.88711 -0.00755 0.06479
 Zr364 Zr 1.05364 -0.00448 0.05387
 O365 O 1.05501 0.00045 0.12286
 O366 O 1.11791 -0.00932 0.05266
 Zr367 Zr 0.99981 -0.06768 0.00081
 Zr368 Zr 0.99983 0.05755 0.00042
 O369 O 1.00269 0.03241 0.06394
 O370 O 1.00278 -0.04255 0.06449
 O371 O 0.94056 0.03215 0.00321
 O372 O 1.05863 -0.04105 -0.00184
 O373 O 0.94097 -0.04184 0.00349
 O374 O 1.05917 0.03254 -0.00213
 H375 H 0.99576 0.05161 -0.08800
 H376 H 1.08270 -0.05982 -0.00270
 H377 H 1.00393 0.05248 0.08874
 H378 H 0.91700 -0.06091 0.00470
 H379 H 1.12483 0.00713 -0.04046
 H380 H 1.12813 0.01298 0.03286
 H381 H 1.03691 -0.02191 0.13447
 H382 H 0.96084 0.02257 0.13830
 H383 H 0.87553 0.00374 0.03722
 H384 H 0.87051 -0.00728 -0.07654
 H385 H 0.95927 -0.02410 -0.13319
 H386 H 1.03017 -0.02680 -0.13662
 O387 O 0.92929 0.43484 0.42281
 O388 O 0.96880 0.38941 0.46324
 C389 C 0.94073 0.39719 0.43446
 O390 O 1.07639 0.55559 0.42337
 O391 O 1.03670 0.60132 0.46250
 C392 C 1.06551 0.59335 0.43514
 O393 O 1.07278 0.43652 0.41866
 O394 O 1.03621 0.39014 0.46085
 C395 C 1.06212 0.39861 0.43037
 O396 O 0.92459 0.55363 0.42696
 O397 O 0.96561 0.60034 0.46434
 C398 C 0.93555 0.59163 0.43814
 Zr399 Zr 0.94969 0.49461 0.44587
 O400 O 0.94719 0.49873 0.37684
 O401 O 0.88555 0.49176 0.45071
 Zr402 Zr 1.05258 0.49581 0.44236
 O403 O 1.04682 0.50076 0.37355
 O404 O 1.11659 0.49187 0.43644
 O405 O 1.00111 0.45741 0.43580
 O406 O 1.00062 0.53207 0.43595
 O407 O 0.92936 0.55434 0.57538
 O408 O 0.96763 0.60084 0.53505
 C409 C 0.93928 0.59227 0.56293
 O410 O 1.07716 0.43690 0.57738
 O411 O 1.03862 0.39035 0.53682
 C412 C 1.06585 0.39892 0.56633
 O413 O 1.08082 0.55612 0.57134
 O414 O 1.03954 0.60155 0.53290
 C415 C 1.06973 0.59373 0.55913
 O416 O 0.93399 0.43544 0.58042
 O417 O 0.97171 0.38969 0.53910
 C418 C 0.94527 0.39764 0.56917
 Zr419 Zr 0.95390 0.49499 0.55673
 O420 O 0.96168 0.49321 0.62556
 O421 O 0.88989 0.49243 0.56305
 Zr422 Zr 1.05654 0.49625 0.55334
 O423 O 1.05707 0.50122 0.62233
 O424 O 1.12085 0.49195 0.55318
 Zr425 Zr 1.00363 0.43273 0.49979
 Zr426 Zr 1.00274 0.55789 0.49918
 O427 O 1.00516 0.53282 0.56278
 O428 O 1.00575 0.45789 0.56349
 O429 O 0.94365 0.53196 0.50132
 O430 O 1.06234 0.45960 0.49783
 O431 O 0.94460 0.45812 0.50167
 O432 O 1.06232 0.53332 0.49741
 H433 H 0.99964 0.55172 0.41073
 H434 H 1.08642 0.44083 0.49732
 H435 H 1.00593 0.55294 0.58756
 H436 H 0.92067 0.43896 0.50247
 H437 H 1.12855 0.51000 0.45952
 H438 H 1.13111 0.51390 0.53299
 H439 H 1.03977 0.47809 0.63377
 H440 H 0.96159 0.52251 0.63681
 H441 H 0.87839 0.50166 0.53464
 H442 H 0.87486 0.49182 0.42032
 H443 H 0.96390 0.47542 0.36520
 H444 H 1.03471 0.47401 0.36276
 O445 O 0.55629 0.07483 0.58169
 O446 O 0.60055 0.03795 0.53846
 C447 C 0.59272 0.06444 0.56956
 O448 O 0.44311 -0.07597 0.57846
 O449 O 0.39794 -0.03614 0.53846
 C450 C 0.40643 -0.06467 0.56749
 O451 O 0.55741 -0.07209 0.58053
 O452 O 0.60108 -0.03312 0.53815
 C453 C 0.59367 -0.06060 0.56854
 O454 O 0.44191 0.07791 0.57761
 O455 O 0.39726 0.03699 0.53771
 C456 C 0.40534 0.06626 0.56610
 Zr457 Zr 0.49911 0.05495 0.55592
 O458 O 0.49596 0.05784 0.62489
 O459 O 0.50075 0.12152 0.55034
 Zr460 Zr 0.49984 -0.05213 0.55612
 O461 O 0.49664 -0.05238 0.62520
 O462 O 0.50446 -0.11888 0.55486
 O463 O 0.53590 0.00178 0.56425
 O464 O 0.46436 0.00109 0.56428
 O465 O 0.43966 0.07813 0.42489
 O466 O 0.39628 0.03683 0.46515
 C467 C 0.40338 0.06610 0.43649
 O468 O 0.55499 -0.07179 0.42005
 O469 O 0.59991 -0.03289 0.46159
 C470 C 0.59158 -0.05999 0.43106
 O471 O 0.44094 -0.07715 0.42581
 O472 O 0.39678 -0.03574 0.46445
 C473 C 0.40450 -0.06502 0.43611
 O474 O 0.55369 0.07577 0.41973
 O475 O 0.59936 0.03732 0.46056
 C476 C 0.59041 0.06423 0.42999
 Zr477 Zr 0.49746 0.05501 0.44575
 O478 O 0.49204 0.05586 0.37677
 O479 O 0.50091 0.12183 0.44750
 Zr480 Zr 0.49823 -0.05222 0.44584
 O481 O 0.49240 -0.05236 0.37688
 O482 O 0.50348 -0.11892 0.44655
 Zr483 Zr 0.55953 0.00207 0.50033
 Zr484 Zr 0.43823 0.00076 0.50127
 O485 O 0.46259 0.00101 0.43792
 O486 O 0.53391 0.00178 0.43689
 O487 O 0.46182 0.06271 0.50115
 O488 O 0.53461 -0.05936 0.50066
 O489 O 0.53402 0.06297 0.50055
 O490 O 0.46259 -0.06080 0.50129
 H491 H 0.44652 0.00111 0.59025
 H492 H 0.55321 -0.08396 0.50042
 H493 H 0.44393 0.00087 0.41231
 H494 H 0.55259 0.08775 0.50034
 H495 H 0.48008 -0.13001 0.53947
 H496 H 0.48107 -0.13019 0.46461
 H497 H 0.51475 -0.03480 0.36508
 H498 H 0.51333 0.03704 0.36511
 H499 H 0.47971 0.13175 0.46785
 H500 H 0.50086 0.13252 0.58064
 H501 H 0.51475 0.03616 0.63652
 H502 H 0.51968 -0.03522 0.63644
 O503 O 0.56036 0.57383 0.08063
 O504 O 0.60422 0.53689 0.03692
 C505 C 0.59667 0.56335 0.06812
 O506 O 0.44630 0.42331 0.07714
 O507 O 0.40116 0.46385 0.03787
 C508 C 0.40963 0.43485 0.06646
 O509 O 0.56088 0.42800 0.07918
 O510 O 0.60445 0.46710 0.03674
 C511 C 0.59710 0.43971 0.06722
 O512 O 0.44568 0.57764 0.07747
 O513 O 0.40080 0.53705 0.03751
 C514 C 0.40906 0.56619 0.06598
 Zr515 Zr 0.50268 0.55448 0.05556
 O516 O 0.49980 0.55663 0.12459
 O517 O 0.50459 0.62111 0.05094
 Zr518 Zr 0.50302 0.44726 0.05497
 O519 O 0.49982 0.44605 0.12403
 O520 O 0.50772 0.38054 0.05309
 O521 O 0.53913 0.50107 0.06341
 O522 O 0.46778 0.50062 0.06366
 O523 O 0.44316 0.57913 -0.07458
 O524 O 0.39954 0.53754 -0.03472
 C525 C 0.40691 0.56730 -0.06274
 O526 O 0.55760 0.42845 -0.08178
 O527 O 0.60241 0.46637 -0.03925
 C528 C 0.59418 0.43966 -0.07014
 O529 O 0.44366 0.42416 -0.07625
 O530 O 0.39981 0.46429 -0.03575
 C531 C 0.40737 0.43545 -0.06458
 O532 O 0.55786 0.57651 -0.07960
 O533 O 0.60286 0.53566 -0.04046
 C534 C 0.59447 0.56358 -0.07027
 Zr535 Zr 0.50095 0.55540 -0.05476
 O536 O 0.49550 0.55571 -0.12375
 O537 O 0.50441 0.62221 -0.05369
 Zr538 Zr 0.50106 0.44807 -0.05553
 O539 O 0.49533 0.44820 -0.12449
 O540 O 0.50584 0.38133 -0.05472
 Zr541 Zr 0.56230 0.50172 -0.00065
 Zr542 Zr 0.44152 0.50087 0.00073
 O543 O 0.46564 0.50161 -0.06277
 O544 O 0.53696 0.50201 -0.06414
 O545 O 0.46544 0.56274 0.00089
 O546 O 0.53747 0.44030 -0.00072
 O547 O 0.53742 0.56282 0.00010
 O548 O 0.46563 0.43921 0.00009
 H549 H 0.44996 0.50053 0.08964
 H550 H 0.55613 0.41576 -0.00103
 H551 H 0.44676 0.50179 -0.08820
 H552 H 0.55617 0.58743 -0.00000
 H553 H 0.48347 0.36958 0.03734
 H554 H 0.48259 0.37015 -0.03783
 H555 H 0.51672 0.46716 -0.13601
 H556 H 0.51860 0.53937 -0.13547
 H557 H 0.48500 0.63211 -0.03137
 H558 H 0.50511 0.63170 0.08140
 H559 H 0.51949 0.53567 0.13594
 H560 H 0.52217 0.46406 0.13544
 N561 N 1.08744 0.16864 0.06022
 N562 N 1.11407 0.19342 0.08023
 C563 C 1.13592 0.17015 0.10904
 C564 C 1.12250 0.12844 0.10675
 C565 C 1.09167 0.12905 0.07561
 H566 H 1.13293 0.10151 0.12551
 H567 H 1.06696 0.17884 0.03616
 H568 H 1.11694 0.22564 0.07361
 N569 N 1.08921 0.66956 0.55908
 N570 N 1.11538 0.69460 0.57944
 C571 C 1.13675 0.67159 0.60886
 C572 C 1.12361 0.62984 0.60666
 C573 C 1.09334 0.63012 0.57493
 H574 H 1.13376 0.60315 0.62596
 H575 H 1.06914 0.67947 0.53450
 H576 H 1.11833 0.72680 0.57267
 N577 N 0.66654 0.07947 0.57822
 N578 N 0.69050 0.10396 0.60207
 C579 C 0.66772 0.12471 0.63147
 C580 C 0.62721 0.11288 0.62611
 C581 C 0.62786 0.08437 0.59156
 H582 H 0.60098 0.12490 0.64323
 H583 H 0.67656 0.06065 0.55244
 H584 H 0.72192 0.10681 0.59772
 N585 N 0.67058 0.57829 0.07654
 N586 N 0.69458 0.60261 0.10057
 C587 C 0.67175 0.62336 0.12997
 C588 C 0.63126 0.61161 0.12445
 C589 C 0.63191 0.58324 0.08987
 H590 H 0.60502 0.62338 0.14175
 H591 H 0.68061 0.55938 0.05083
 H592 H 0.72606 0.60500 0.09655
 N593 N 0.93967 -0.17733 0.09562
 N594 N 0.91710 -0.20086 0.12173
 C595 C 0.88724 -0.17667 0.13833
 C596 C 0.89112 -0.13593 0.12233
 C597 C 0.92479 -0.13773 0.09552
 H598 H 0.87239 -0.10876 0.12947
 H599 H 0.96502 -0.18823 0.07863
 H600 H 0.92188 -0.23302 0.12746
 N601 N 0.93917 0.32286 0.58394
 N602 N 0.91455 0.29726 0.60981
 C603 C 0.88779 0.32243 0.63068
 C604 C 0.89540 0.36436 0.61909
 C605 C 0.92757 0.36316 0.59003
 H606 H 0.87974 0.39238 0.63010
 H607 H 0.96226 0.31189 0.56362
 H608 H 0.91603 0.26433 0.60994
 N609 N 0.33344 -0.06926 0.58727
 N610 N 0.31022 -0.09064 0.61455
 C611 C 0.33331 -0.11933 0.63582
 C612 C 0.37317 -0.11607 0.62126
 C613 C 0.37186 -0.08371 0.59063
 H614 H 0.39944 -0.13389 0.63213
 H615 H 0.32308 -0.04467 0.56729
 H616 H 0.27897 -0.08574 0.61801
 N617 N 0.33663 0.42982 0.08631
 N618 N 0.31344 0.40792 0.11319
 C619 C 0.33654 0.37884 0.13390
 C620 C 0.37640 0.38240 0.11935
 C621 C 0.37507 0.41537 0.08935
 H622 H 0.40269 0.36443 0.12988
 H623 H 0.32624 0.45476 0.06683
 H624 H 0.28221 0.41277 0.11683
 N625 N 0.91588 0.16821 -0.06362
 N626 N 0.89100 0.19348 -0.08521
 C627 C 0.86838 0.17027 -0.11345
 C628 C 0.87922 0.12799 -0.10900
 C629 C 0.90962 0.12828 -0.07723
 H630 H 0.86766 0.10105 -0.12705
 H631 H 0.93687 0.17841 -0.04005
 H632 H 0.88981 0.22606 -0.08010
 N633 N 0.92030 0.66808 0.43056
 N634 N 0.89325 0.69229 0.41069
 C635 C 0.86722 0.66759 0.38768
 C636 C 0.87851 0.62562 0.39318
 C637 C 0.91223 0.62746 0.42069
 H638 H 0.86424 0.59770 0.37945
 H639 H 0.94399 0.67943 0.45035
 H640 H 0.89360 0.72525 0.41229
 N641 N 0.33091 0.07339 0.42591
 N642 N 0.30496 0.09674 0.39913
 C643 C 0.32793 0.12236 0.37376
 C644 C 0.36903 0.11569 0.38427
 C645 C 0.36942 0.08474 0.41669
 H646 H 0.39544 0.13052 0.36982
 H647 H 0.32130 0.05079 0.44856
 H648 H 0.27333 0.09436 0.40064
 N649 N 0.33278 0.58060 -0.07012
 N650 N 0.30793 0.60333 -0.09466
 C651 C 0.33010 0.62606 -0.12337
 C652 C 0.37117 0.61749 -0.11628
 C653 C 0.37136 0.58833 -0.08237
 H654 H 0.39713 0.62981 -0.13380
 H655 H 0.32324 0.56012 -0.04538
 H656 H 0.27636 0.60332 -0.09103
 N657 N 1.06171 -0.17796 -0.08951
 N658 N 1.08530 -0.20238 -0.11334
 C659 C 1.11538 -0.17854 -0.13037
 C660 C 1.11058 -0.13702 -0.11706
 C661 C 1.07608 -0.13808 -0.09137
 H662 H 1.12926 -0.10990 -0.12518
 H663 H 1.03610 -0.18852 -0.07257
 H664 H 1.08097 -0.23488 -0.11728
 N665 N 1.06583 0.32292 0.40929
 N666 N 1.08906 0.29849 0.38508
 C667 C 1.11941 0.32212 0.36829
 C668 C 1.11517 0.36355 0.38219
 C669 C 1.08068 0.36264 0.40796
 H670 H 1.13411 0.39053 0.37426
 H671 H 1.04005 0.31250 0.42601
 H672 H 1.08426 0.26612 0.38062
 N673 N 0.66505 -0.06499 0.41342
 N674 N 0.68887 -0.08682 0.38734
 C675 C 0.66592 -0.11454 0.36434
 C676 C 0.62544 -0.11002 0.37650
 C677 C 0.62634 -0.07809 0.40759
 H678 H 0.59917 -0.12734 0.36448
 H679 H 0.67539 -0.04166 0.43498
 H680 H 0.72048 -0.08325 0.38638
 N681 N 0.66806 0.43129 -0.08297
 N682 N 0.69243 0.40962 -0.10853
 C683 C 0.66973 0.38508 -0.13543
 C684 C 0.62875 0.39149 -0.12617
 C685 C 0.62922 0.42118 -0.09275
 H686 H 0.60244 0.37683 -0.14143
 H687 H 0.67814 0.45238 -0.05892
 H688 H 0.72414 0.41116 -0.10639
 N689 N 1.07495 0.16765 -0.06942
 N690 N 1.10269 0.19395 -0.09032
 C691 C 1.12792 0.16951 -0.11417
 C692 C 1.11649 0.12717 -0.10867
 C693 C 1.08343 0.12755 -0.08060
 H694 H 1.13015 0.09941 -0.12293
 H695 H 1.05208 0.17809 -0.04853
 H696 H 1.10255 0.22672 -0.08689
 N697 N 1.07872 0.67024 0.42686
 N698 N 1.10515 0.69521 0.40718
 C699 C 1.13185 0.67119 0.38489
 C700 C 1.12149 0.62888 0.39075
 C701 C 1.08771 0.62983 0.41747
 H702 H 1.13630 0.60115 0.37781
 H703 H 1.05492 0.68095 0.44637
 H704 H 1.10404 0.72811 0.40887
 N705 N 0.66102 0.06342 0.40154
 N706 N 0.68326 0.08500 0.37345
 C707 C 0.66124 0.11785 0.35834
 C708 C 0.62310 0.11706 0.37750
 C709 C 0.62424 0.08180 0.40452
 H710 H 0.59798 0.13851 0.37195
 H711 H 0.67073 0.03608 0.41762
 H712 H 0.71317 0.07745 0.36519
 N713 N 0.66368 0.56049 -0.09577
 N714 N 0.68700 0.58131 -0.12699
 C715 C 0.66471 0.61357 -0.14328
 C716 C 0.62649 0.61330 -0.12358
 C717 C 0.62698 0.57927 -0.09460
 H718 H 0.60126 0.63435 -0.13017
 H719 H 0.67301 0.53366 -0.07851
 H720 H 0.71730 0.57402 -0.13368
 N721 N 0.92492 -0.17953 -0.07585
 N722 N 0.89939 -0.20438 -0.09739
 C723 C 0.87218 -0.18024 -0.11932
 C724 C 0.88128 -0.13794 -0.11130
 C725 C 0.91482 -0.13902 -0.08363
 H726 H 0.86572 -0.11014 -0.12334
 H727 H 0.94890 -0.19035 -0.05622
 H728 H 0.90140 -0.23728 -0.09721
 N729 N 0.92993 0.32020 0.42270
 N730 N 0.90400 0.29536 0.40166
 C731 C 0.87655 0.31958 0.38018
 C732 C 0.88589 0.36183 0.38792
 C733 C 0.91979 0.36070 0.41494
 H734 H 0.87019 0.38968 0.37625
 H735 H 0.95408 0.30938 0.44208
 H736 H 0.90581 0.26245 0.40203
 N737 N 0.33404 -0.06550 0.41330
 N738 N 0.31058 -0.08741 0.38266
 C739 C 0.33367 -0.11867 0.36603
 C740 C 0.37234 -0.11687 0.38510
 C741 C 0.37147 -0.08275 0.41377
 H742 H 0.39830 -0.13655 0.37772
 H743 H 0.32442 -0.03869 0.43019
 H744 H 0.27991 -0.08119 0.37620
 N745 N 0.33378 0.42950 -0.08299
 N746 N 0.31006 0.40677 -0.10896
 C747 C 0.33293 0.37759 -0.12935
 C748 C 0.37311 0.38195 -0.11564
 C749 C 0.37227 0.41546 -0.08644
 H750 H 0.39931 0.36412 -0.12625
 H751 H 0.32370 0.45467 -0.06389
 H752 H 0.27868 0.41117 -0.11224
 N753 N 1.08708 -0.17597 0.06622
 N754 N 1.11263 -0.19972 0.08887
 C755 C 1.12713 -0.17694 0.12276
 C756 C 1.11040 -0.13685 0.12162
 C757 C 1.08536 -0.13753 0.08502
 H758 H 1.11676 -0.11056 0.14326
 H759 H 1.07221 -0.18563 0.03759
 H760 H 1.12009 -0.23084 0.08099
 N761 N 1.06942 0.32310 0.58642
 N762 N 1.09189 0.29830 0.61145
 C763 C 1.12190 0.32160 0.62976
 C764 C 1.11832 0.36321 0.61595
 C765 C 1.08444 0.36272 0.58868
 H766 H 1.13704 0.39004 0.62516
 H767 H 1.04389 0.31298 0.56866
 H768 H 1.08671 0.26595 0.61558
 N769 N 0.66787 -0.07063 0.57971
 N770 N 0.69260 -0.09445 0.60325
 C771 C 0.67028 -0.11999 0.62929
 C772 C 0.62918 -0.11172 0.62156
 C773 C 0.62917 -0.08025 0.58989
 H774 H 0.60294 -0.12658 0.63633
 H775 H 0.67759 -0.04851 0.55661
 H776 H 0.72420 -0.09329 0.60033
 N777 N 0.67127 0.43016 0.07904
 N778 N 0.69582 0.40727 0.10376
 C779 C 0.67325 0.38260 0.13045
 C780 C 0.63226 0.39039 0.12191
 C781 C 0.63252 0.42069 0.08913
 H782 H 0.60589 0.37605 0.13694
 H783 H 0.68113 0.45158 0.05533
 H784 H 0.72745 0.40841 0.10122
 N785 N 0.91611 0.16746 0.06624
 N786 N 0.89013 0.19125 0.08774
 C787 C 0.87263 0.16763 0.11912
 C788 C 0.88797 0.12695 0.11750
 C789 C 0.91525 0.12819 0.08326
 H790 H 0.87964 0.10008 0.13751
 H791 H 0.93350 0.17791 0.03991
 H792 H 0.88476 0.22314 0.08105
 N793 N 0.91355 0.66599 0.56050
 N794 N 0.88739 0.68961 0.58200
 C795 C 0.87304 0.66721 0.61606
 C796 C 0.89060 0.62743 0.61616
 C797 C 0.91595 0.62795 0.58018
 H798 H 0.88490 0.60152 0.63845
 H799 H 0.92865 0.67554 0.53223
 H800 H 0.87969 0.72055 0.57342
 N801 N 0.33146 0.07982 0.57369
 N802 N 0.30696 0.10188 0.59878
 C803 C 0.32947 0.12347 0.62846
 C804 C 0.37046 0.11486 0.62136
 C805 C 0.37019 0.08686 0.58646
 H806 H 0.39667 0.12646 0.63941
 H807 H 0.32158 0.06032 0.54816
 H808 H 0.27538 0.10222 0.59477
 N809 N 0.33533 0.58027 0.07346
 N810 N 0.31097 0.60268 0.09836
 C811 C 0.33360 0.62417 0.12802
 C812 C 0.37452 0.61513 0.12110
 C813 C 0.37407 0.58699 0.08632
 H814 H 0.40079 0.62663 0.13912
 H815 H 0.32534 0.56082 0.04793
 H816 H 0.27942 0.60337 0.09416
   
