data_POSCAR
  _audit_creation_date              2014-09-24
  _audit_creation_method            'ToBaCCo'
  _symmetry_space_group_name_H-M    'P1'
  _symmetry_Int_Tables_number       1
  _symmetry_cell_setting            triclinic
  loop_
  _symmetry_equiv_pos_as_xyz
 x,y,z
_cell_length_a 36.0494
_cell_length_b 35.0414
_cell_length_c 29.5278
_cell_angle_alpha 90.180800
_cell_angle_beta 90.088400
_cell_angle_gamma 122.384900
loop_
  _atom_site_label
  _atom_site_type_symbol
  _atom_site_fract_x
  _atom_site_fract_y
  _atom_site_fract_z
O1 O 0.00033 0.56263 0.05208
 O2 O -0.05615 0.45516 -0.01144
 O3 O -0.00418 0.48661 0.05877
 O4 O -0.05092 0.53163 -0.02026
 O5 O 0.00703 0.55741 -0.06437
 O6 O 0.05430 0.51404 0.01505
 O7 O 0.00205 0.48103 -0.05527
 O8 O 0.05774 0.58895 0.00698
 Cu9 Cu -0.03363 0.50658 0.02414
 Cu10 Cu 0.03596 0.53790 -0.02896
 C11 C 0.03907 0.59361 0.04103
 C12 C -0.03660 0.44986 -0.04428
 C13 C 0.03356 0.49358 0.05069
 C14 C -0.03025 0.55147 -0.05626
 O15 O 0.52955 0.50457 -0.03160
 O16 O 0.44315 0.44961 0.05368
 O17 O 0.45781 0.42653 -0.02776
 O18 O 0.51318 0.52980 0.04356
 O19 O 0.47383 0.55286 0.00993
 O20 O 0.42201 0.45258 -0.06339
 O21 O 0.40430 0.47219 0.01820
 O22 O 0.49367 0.53112 -0.06625
 Cu23 Cu 0.48899 0.47453 0.01322
 Cu24 Cu 0.44416 0.50412 -0.02869
 C25 C 0.52681 0.52738 -0.06322
 C26 C 0.40977 0.45270 0.05156
 C27 C 0.43263 0.42361 -0.05976
 C28 C 0.50284 0.55902 0.03849
 O29 O 0.50988 1.05370 -0.00849
 O30 O 0.53900 0.97646 0.04200
 O31 O 0.57814 1.04714 -0.00919
 O32 O 0.47466 0.98996 0.05287
 O33 O 0.44135 0.94086 -0.00284
 O34 O 0.54634 0.99877 -0.06581
 O35 O 0.50517 0.92815 -0.01432
 O36 O 0.47655 1.00444 -0.06410
 Cu37 Cu 0.52836 1.02141 0.02505
 Cu38 Cu 0.48907 0.96354 -0.04252
 C39 C 0.48810 1.04183 -0.04535
 C40 C 0.52709 0.93921 0.02211
 C41 C 0.58026 1.03279 -0.04784
 C42 C 0.44053 0.95572 0.03627
 O43 O 1.06662 0.58947 0.51283
 O44 O 1.01176 0.47830 0.56812
 O45 O 1.06361 0.51546 0.49834
 O46 O 1.01393 0.55321 0.58184
 O47 O 0.95702 0.52987 0.53629
 O48 O 1.00501 0.48858 0.45456
 O49 O 0.95356 0.45447 0.52439
 O50 O 1.00993 0.56446 0.46654
 Cu51 Cu 1.04460 0.53643 0.54499
 Cu52 Cu 0.97553 0.50699 0.49106
 C53 C 1.04822 0.59542 0.47933
 C54 C 0.97316 0.44757 0.55598
 C55 C 1.04304 0.49600 0.46198
 C56 C 0.97696 0.54798 0.57326
 O57 O 0.50359 0.53828 0.56120
 O58 O 0.41289 0.47865 0.47760
 O59 O 0.43035 0.46091 0.55969
 O60 O 0.48324 0.55919 0.48462
 O61 O 0.51998 0.53311 0.45092
 O62 O 0.46477 0.43263 0.52514
 O63 O 0.44974 0.45312 0.44309
 O64 O 0.53802 0.50983 0.52701
 Cu65 Cu 0.45354 0.51158 0.52404
 Cu66 Cu 0.49621 0.47904 0.48300
 C67 C 0.53615 0.53358 0.55836
 C68 C 0.41701 0.45728 0.44500
 C69 C 0.43988 0.43107 0.55664
 C70 C 0.51084 0.56331 0.45532
 O71 O 0.60363 0.08414 0.48011
 O72 O 0.49601 0.01422 0.42633
 O73 O 0.52961 0.07866 0.48819
 O74 O 0.56877 0.01400 0.42762
 O75 O 0.54329 -0.03622 0.48268
 O76 O 0.50942 0.03035 0.54465
 O77 O 0.47226 -0.03425 0.48293
 O78 O 0.58274 0.03406 0.53506
 Cu79 Cu 0.55121 0.05225 0.44970
 Cu80 Cu 0.52445 -0.00633 0.51697
 C81 C 0.61177 0.07097 0.51649
 C82 C 0.46590 -0.02168 0.44484
 C83 C 0.51450 0.06614 0.52797
 C84 C 0.56286 -0.02207 0.44520
 C85 C 0.27440 0.38012 0.22646
 C86 C 0.27518 0.37995 0.27303
 C87 C 0.25489 0.40200 0.28756
 N88 N 0.24178 0.41559 0.25140
 C89 C 0.25374 0.40237 0.21397
 C90 C 0.25027 0.41101 0.33339
 C91 C 0.22202 0.42543 0.34721
 C92 C 0.22217 0.44176 0.39013
 C93 C 0.18811 0.44849 0.39152
 C94 C 0.16836 0.43721 0.34907
 N95 N 0.18897 0.42257 0.32246
 C96 C 0.13066 0.43807 0.33697
 C97 C 0.11486 0.43248 0.29211
 C98 C 0.07630 0.42954 0.27961
 C99 C 0.07535 0.42936 0.23317
 C100 C 0.11337 0.43226 0.21878
 N101 N 0.13751 0.43441 0.25486
 C102 C 0.12743 0.43784 0.17336
 C103 C 0.16501 0.43777 0.15926
 C104 C 0.18370 0.45037 0.11656
 C105 C 0.21793 0.44384 0.11565
 C106 C 0.21898 0.42648 0.15747
 N107 N 0.18648 0.42276 0.18382
 C108 C 0.24770 0.41191 0.16885
 H109 H 0.28717 0.36511 0.20442
 H110 H 0.28872 0.36485 0.29376
 H111 H 0.17651 0.40618 0.21468
 H112 H 0.24412 0.44774 0.41808
 H113 H 0.17890 0.45971 0.42112
 H114 H 0.05191 0.42881 0.30154
 H115 H 0.05012 0.42851 0.21245
 H116 H 0.23925 0.45072 0.08697
 H117 H 0.17825 0.40684 0.29113
 H118 H 0.17370 0.46250 0.08840
 C119 C 0.54270 0.65606 0.22121
 C120 C 0.54282 0.65625 0.26760
 C121 C 0.56589 0.70115 0.28102
 N122 N 0.58062 0.72846 0.24442
 C123 C 0.56654 0.70091 0.20769
 C124 C 0.57371 0.71607 0.32650
 C125 C 0.58738 0.76070 0.33933
 C126 C 0.60301 0.77963 0.38184
 C127 C 0.60745 0.82122 0.38184
 C128 C 0.59482 0.82665 0.33921
 N129 N 0.58276 0.78971 0.31354
 C130 C 0.59110 0.86316 0.32599
 C131 C 0.58656 0.87148 0.28018
 C132 C 0.57268 0.89937 0.26523
 C133 C 0.57612 0.90085 0.21909
 C134 C 0.59098 0.87300 0.20731
 N135 N 0.59754 0.85518 0.24464
 C136 C 0.59960 0.86576 0.16274
 C137 C 0.60249 0.82852 0.15013
 C138 C 0.61638 0.82285 0.10835
 C139 C 0.60952 0.78018 0.10818
 C140 C 0.59184 0.76117 0.14998
 N141 N 0.58778 0.79091 0.17529
 C142 C 0.57601 0.71600 0.16223
 H143 H 0.52614 0.62609 0.20016
 H144 H 0.52677 0.62665 0.28899
 H145 H 0.57046 0.78360 0.20543
 H146 H 0.60956 0.76463 0.41025
 H147 H 0.61811 0.84450 0.41017
 H148 H 0.56090 0.91665 0.28524
 H149 H 0.56776 0.91956 0.19669
 H150 H 0.61601 0.76461 0.08016
 H151 H 0.56675 0.78217 0.28243
 H152 H 0.62903 0.84648 0.08049
 C153 C 0.11553 0.66898 0.23987
 C154 C 0.11700 0.67052 0.28627
 C155 C 0.14690 0.71513 0.29838
 N156 N 0.16376 0.74086 0.26087
 C157 C 0.14467 0.71264 0.22506
 C158 C 0.15750 0.73174 0.34337
 C159 C 0.19519 0.77415 0.35448
 C160 C 0.20292 0.79555 0.39615
 C161 C 0.24472 0.83353 0.39469
 C162 C 0.26145 0.83406 0.35228
 N163 N 0.23100 0.79783 0.32798
 C164 C 0.30485 0.86564 0.33808
 C165 C 0.31839 0.87037 0.29251
 C166 C 0.36175 0.89453 0.27838
 C167 C 0.36090 0.89186 0.23203
 C168 C 0.31702 0.86673 0.21927
 N169 N 0.29109 0.85366 0.25635
 C170 C 0.30142 0.85766 0.17404
 C171 C 0.25713 0.82598 0.16265
 C172 C 0.23872 0.82203 0.12028
 C173 C 0.19646 0.78496 0.12186
 C174 C 0.19028 0.76724 0.16513
 N175 N 0.22736 0.79256 0.18981
 C176 C 0.15289 0.72606 0.17917
 H177 H 0.09596 0.63887 0.21949
 H178 H 0.09875 0.64177 0.30840
 H179 H 0.23388 0.78386 0.22107
 H180 H 0.18095 0.78458 0.42486
 H181 H 0.26116 0.85754 0.42204
 H182 H 0.39100 0.91178 0.29931
 H183 H 0.38947 0.90657 0.21040
 H184 H 0.17328 0.77188 0.09398
 H185 H 0.23631 0.78677 0.29742
 H186 H 0.25436 0.84317 0.09102
 C187 C 0.85459 0.52684 0.73482
 C188 C 0.85371 0.52749 0.78130
 C189 C 0.83279 0.54965 0.79322
 N190 N 0.82095 0.56257 0.75562
 C191 C 0.83423 0.54868 0.71987
 C192 C 0.82537 0.55851 0.83798
 C193 C 0.79390 0.56954 0.84799
 C194 C 0.79024 0.58624 0.88926
 C195 C 0.75191 0.58588 0.88763
 C196 C 0.73326 0.56902 0.84539
 N197 N 0.75933 0.55968 0.82126
 C198 C 0.69053 0.55681 0.83240
 C199 C 0.67656 0.54840 0.78670
 C200 C 0.63331 0.52497 0.77187
 C201 C 0.63456 0.52514 0.72543
 C202 C 0.67853 0.54857 0.71344
 N203 N 0.70413 0.56275 0.75093
 C204 C 0.69485 0.55712 0.66869
 C205 C 0.73782 0.56822 0.65856
 C206 C 0.75846 0.58431 0.61716
 C207 C 0.79644 0.58397 0.61863
 C208 C 0.79797 0.56770 0.66090
 N209 N 0.76238 0.55868 0.68519
 C210 C 0.82866 0.55646 0.67409
 H211 H 0.86776 0.51105 0.71455
 H212 H 0.86608 0.51231 0.80358
 H213 H 0.75212 0.54061 0.71527
 H214 H 0.81211 0.59618 0.91813
 H215 H 0.73849 0.59542 0.91500
 H216 H 0.60380 0.50825 0.79214
 H217 H 0.60622 0.50859 0.70325
 H218 H 0.81958 0.59329 0.59118
 H219 H 0.75054 0.54108 0.79133
 H220 H 0.74665 0.59387 0.58833
 C221 C 0.38392 0.28535 0.72423
 C222 C 0.38451 0.28531 0.77089
 C223 C 0.41247 0.27142 0.78371
 N224 N 0.42852 0.26256 0.74646
 C225 C 0.41139 0.27130 0.71006
 C226 C 0.42485 0.26886 0.82873
 C227 C 0.44406 0.24375 0.83936
 C228 C 0.46578 0.24723 0.87957
 C229 C 0.47446 0.21352 0.87896
 C230 C 0.45832 0.19070 0.83823
 N231 N 0.43999 0.20938 0.81422
 C232 C 0.45699 0.15106 0.82593
 C233 C 0.45080 0.13559 0.78068
 C234 C 0.44523 0.09507 0.76643
 C235 C 0.44496 0.09553 0.72001
 C236 C 0.45146 0.13675 0.70739
 N237 N 0.45478 0.16100 0.74450
 C238 C 0.45850 0.15347 0.66268
 C239 C 0.45690 0.19161 0.65108
 C240 C 0.47211 0.21500 0.61073
 C241 C 0.46243 0.24796 0.61144
 C242 C 0.44135 0.24371 0.65219
 N243 N 0.43827 0.20936 0.67625
 C244 C 0.42247 0.26874 0.66456
 H245 H 0.36494 0.29409 0.70325
 H246 H 0.36588 0.29385 0.79270
 H247 H 0.42008 0.19568 0.70569
 H248 H 0.47396 0.27105 0.90700
 H249 H 0.49019 0.20622 0.90582
 H250 H 0.44249 0.06819 0.78694
 H251 H 0.44133 0.06888 0.69815
 H252 H 0.46995 0.27212 0.58474
 H253 H 0.42076 0.19581 0.78519
 H254 H 0.48836 0.20888 0.58348
 C255 C 0.68276 0.10317 0.72178
 C256 C 0.67734 0.10524 0.76735
 C257 C 0.71898 0.13312 0.78569
 N258 N 0.74960 0.14888 0.75268
 C259 C 0.72742 0.13070 0.71361
 C260 C 0.72864 0.14220 0.83234
 C261 C 0.76945 0.17872 0.84806
 C262 C 0.78463 0.18454 0.89226
 C263 C 0.82371 0.22590 0.89412
 C264 C 0.83100 0.24432 0.85108
 N265 N 0.79787 0.21527 0.82326
 C266 C 0.86529 0.28848 0.83925
 C267 C 0.87553 0.30347 0.79407
 C268 C 0.90034 0.34840 0.78126
 C269 C 0.90291 0.34871 0.73497
 C270 C 0.88049 0.30389 0.72099
 N271 N 0.86368 0.27627 0.75728
 C272 C 0.87682 0.28881 0.67565
 C273 C 0.84736 0.24336 0.66276
 C274 C 0.84864 0.22421 0.62208
 C275 C 0.81199 0.18095 0.62093
 C276 C 0.78919 0.17518 0.66070
 N277 N 0.81114 0.21322 0.68608
 C278 C 0.74690 0.13769 0.67067
 H279 H 0.65666 0.08443 0.69730
 H280 H 0.64610 0.08847 0.78467
 H281 H 0.79897 0.22045 0.71450
 H282 H 0.76893 0.16163 0.92035
 H283 H 0.84390 0.24109 0.92399
 H284 H 0.91423 0.37794 0.80296
 H285 H 0.91905 0.37874 0.71426
 H286 H 0.80250 0.15703 0.59333
 H287 H 0.79209 0.22247 0.79085
 H288 H 0.87304 0.24005 0.59567
 C289 C 0.05379 0.47869 0.08376
 C290 C 0.09736 0.49740 0.08498
 C291 C 0.12013 0.48667 0.11931
 C292 C 0.10236 0.44639 0.13936
 H293 H 0.11808 0.52432 0.06164
 H294 H 0.15403 0.51264 0.12662
 H295 H 0.03294 0.45458 0.10928
 H296 H 0.06869 0.41970 0.13246
 C297 C 0.52326 0.60026 0.06640
 C298 C 0.55734 0.61256 0.09423
 C299 C 0.57476 0.65091 0.12650
 C300 C 0.56509 0.68294 0.12493
 H301 H 0.57115 0.59173 0.09620
 H302 H 0.59483 0.65137 0.15410
 H303 H 0.50817 0.61981 0.06467
 H304 H 0.54868 0.68574 0.09565
 C305 C 0.39991 0.93207 0.06321
 C306 C 0.39645 0.94951 0.10234
 C307 C 0.35985 0.92554 0.13470
 C308 C 0.33287 0.88052 0.13628
 H309 H 0.42250 0.98321 0.11239
 H310 H 0.35797 0.94581 0.16129
 H311 H 0.37333 0.89960 0.05107
 H312 H 0.33369 0.85925 0.11020
 C313 C 0.95698 0.56235 0.60734
 C314 C 0.91598 0.55296 0.60312
 C315 C 0.89518 0.56382 0.63959
 C316 C 0.85246 0.54902 0.63743
 H317 H 0.89675 0.53523 0.57329
 H318 H 0.91450 0.58286 0.66888
 H319 H 0.97576 0.57918 0.63767
 H320 H 0.83408 0.53154 0.60710
 C321 C 0.42483 0.39709 0.59282
 C322 C 0.42785 0.36085 0.59006
 C323 C 0.42365 0.33466 0.63089
 C324 C 0.41530 0.29276 0.62720
 H325 H 0.43651 0.35219 0.55819
 H326 H 0.43167 0.35158 0.66348
 H327 H 0.41427 0.40424 0.62435
 H328 H 0.40813 0.27752 0.59374
 C329 C 0.65494 0.10019 0.53778
 C330 C 0.66903 0.08612 0.57169
 C331 C 0.70807 0.11864 0.59803
 C332 C 0.71955 0.10516 0.63465
 H333 H 0.64969 0.05115 0.58245
 H334 H 0.72399 0.15444 0.59100
 H335 H 0.67482 0.13496 0.52653
 H336 H 0.70165 0.06948 0.64285
 C337 C 0.47698 0.07215 0.93271
 C338 C 0.44503 0.05640 0.90141
 C339 C 0.43549 0.08500 0.87353
 C340 C 0.46614 0.12711 0.86118
 H341 H 0.42461 0.02035 0.89515
 H342 H 0.40326 0.06870 0.85791
 H343 H 0.49553 0.10759 0.94201
 H344 H 0.49902 0.14392 0.87516
 C345 C 0.56184 0.54842 0.90250
 C346 C 0.59638 0.54392 0.90468
 C347 C 0.62888 0.55888 0.86810
 C348 C 0.65881 0.54742 0.86932
 H349 H 0.59958 0.52632 0.93309
 H350 H 0.62722 0.57726 0.83954
 H351 H 0.55813 0.56564 0.87409
 H352 H 0.66060 0.53038 0.89908
 C353 C 0.94112 0.40795 0.92872
 C354 C 0.89962 0.37412 0.93678
 C355 C 0.87415 0.33450 0.90653
 C356 C 0.89216 0.32172 0.87510
 H357 H 0.88188 0.37708 0.96473
 H358 H 0.83869 0.31634 0.90911
 H359 H 0.95889 0.40678 0.89987
 H360 H 0.92741 0.33931 0.87151
 C361 C 0.57712 0.95262 0.42362
 C362 C 0.60019 0.96564 0.38511
 C363 C 0.61074 0.93685 0.35857
 C364 C 0.58866 0.89160 0.36179
 H365 H 0.61094 0.99848 0.37097
 H366 H 0.63378 0.95320 0.33105
 H367 H 0.56878 0.92118 0.43939
 H368 H 0.56571 0.87401 0.38897
 C369 C 0.38589 0.44009 0.40667
 C370 C 0.34553 0.43241 0.40923
 C371 C 0.31956 0.42520 0.36780
 C372 C 0.27614 0.40634 0.37001
 H373 H 0.33249 0.43410 0.44173
 H374 H 0.33677 0.43946 0.33626
 H375 H 0.39768 0.43597 0.37439
 H376 H 0.26013 0.39298 0.40229
 C377 C 0.07327 0.63784 0.45380
 C378 C 0.05880 0.64402 0.41435
 C379 C 0.08673 0.68042 0.38199
 C380 C 0.13070 0.70219 0.38140
 H381 H 0.02550 0.61970 0.40339
 H382 H 0.07008 0.68567 0.35443
 H383 H 0.10581 0.66261 0.46618
 H384 H 0.14833 0.69764 0.40830
 C385 C 0.95142 0.56589 0.91164
 C386 C 0.91063 0.55736 0.91491
 C387 C 0.89083 0.56788 0.87714
 C388 C 0.84793 0.55230 0.87685
 H389 H 0.89060 0.53987 0.94422
 H390 H 0.91099 0.58674 0.84841
 H391 H 0.97045 0.58252 0.88153
 H392 H 0.82843 0.53485 0.90644
 C393 C 0.41880 0.39070 0.90636
 C394 C 0.42829 0.35869 0.90655
 C395 C 0.42404 0.33320 0.86493
 C396 C 0.41827 0.29228 0.86740
 H397 H 0.44230 0.35321 0.93649
 H398 H 0.42989 0.35012 0.83271
 H399 H 0.40240 0.39354 0.87691
 H400 H 0.41304 0.27724 0.90066
 C401 C 0.62044 0.05575 0.92974
 C402 C 0.62715 0.04255 0.88965
 C403 C 0.66801 0.06955 0.86338
 C404 C 0.69397 0.11479 0.86622
 H405 H 0.60165 0.01093 0.87462
 H406 H 0.67391 0.05194 0.83694
 H407 H 0.64709 0.08567 0.94612
 H408 H 0.68874 0.13315 0.89229
 C409 C 0.06232 0.48329 0.42918
 C410 C 0.10466 0.49614 0.43131
 C411 C 0.12651 0.48613 0.39530
 C412 C 0.10702 0.44690 0.37256
 H413 H 0.12548 0.51810 0.45847
 H414 H 0.16084 0.51123 0.38915
 H415 H 0.04281 0.46468 0.39982
 H416 H 0.07281 0.42136 0.37859
 C417 C 0.53179 0.60283 0.42513
 C418 C 0.52298 0.63546 0.42820
 C419 C 0.53852 0.67353 0.39626
 C420 C 0.56593 0.68234 0.36163
 H421 H 0.50102 0.63337 0.45446
 H422 H 0.52456 0.69406 0.40044
 H423 H 0.55328 0.60357 0.39923
 H424 H 0.57915 0.66152 0.35533
 C425 C 0.42402 0.95134 0.42022
 C426 C 0.39037 0.91136 0.43457
 C427 C 0.35080 0.88187 0.40648
 C428 C 0.33826 0.89683 0.37152
 H429 H 0.39331 0.89772 0.46627
 H430 H 0.33244 0.84604 0.41384
 H431 H 0.42264 0.96422 0.38747
 H432 H 0.35577 0.93243 0.36358
 C433 C 0.53745 0.90744 0.04151
 C434 C 0.56894 0.91998 0.07241
 C435 C 0.57424 0.88604 0.09549
 C436 C 0.60394 0.89853 0.12841
 H437 H 0.58921 0.95514 0.08266
 H438 H 0.55051 0.85042 0.08935
 H439 H 0.51812 0.87250 0.03035
 H440 H 0.62584 0.93418 0.13610
 C441 C 0.37958 0.43657 0.09050
 C442 C 0.33977 0.43055 0.08920
 C443 C 0.31532 0.42454 0.13143
 C444 C 0.27211 0.40742 0.13048
 H445 H 0.32617 0.43269 0.05723
 H446 H 0.33363 0.43795 0.16274
 H447 H 0.39186 0.43222 0.12236
 H448 H 0.25505 0.39498 0.09836
 C449 C 0.06437 0.63452 0.06906
 C450 C 0.05126 0.63800 0.11049
 C451 C 0.08023 0.67347 0.14358
 C452 C 0.12410 0.69423 0.14313
 H453 H 0.01854 0.61271 0.12187
 H454 H 0.06464 0.67956 0.17158
 H455 H 0.09634 0.66047 0.05663
 H456 H 0.14030 0.68806 0.11589
 C457 C 0.50412 0.09403 0.55601
 C458 C 0.50824 0.09421 0.60115
 C459 C 0.49988 0.12122 0.63288
 C460 C 0.46929 0.13129 0.62647
 H461 H 0.52056 0.07493 0.61623
 H462 H 0.51711 0.12949 0.66501
 H463 H 0.49596 0.11626 0.53970
 H464 H 0.45194 0.12357 0.59447
 C465 C 0.57129 0.55437 0.59284
 C466 C 0.60482 0.54817 0.59180
 C467 C 0.63639 0.56223 0.62944
 C468 C 0.66519 0.54924 0.62989
 H469 H 0.60751 0.52960 0.56390
 H470 H 0.63462 0.58094 0.65775
 H471 H 0.56814 0.57250 0.62085
 H472 H 0.66733 0.53186 0.60051
 C473 C 0.94960 0.40386 0.57957
 C474 C 0.96855 0.39314 0.61201
 C475 C 0.94452 0.35370 0.64246
 C476 C 0.90155 0.32198 0.63909
 H477 H 1.00307 0.41633 0.61956
 H478 H 0.96279 0.35284 0.67119
 H479 H 0.91524 0.38161 0.57127
 H480 H 0.88300 0.31975 0.60934
   
