data_POSCAR
  _audit_creation_date              2014-09-24
  _audit_creation_method            'ToBaCCo'
  _symmetry_space_group_name_H-M    'P1'
  _symmetry_Int_Tables_number       1
  _symmetry_cell_setting            triclinic
  loop_
  _symmetry_equiv_pos_as_xyz
 x,y,z
_cell_length_a 53.3796
_cell_length_b 11.1803
_cell_length_c 12.5709
_cell_angle_alpha 80.146900
_cell_angle_beta 90.953000
_cell_angle_gamma 84.299400
loop_
  _atom_site_label
  _atom_site_type_symbol
  _atom_site_fract_x
  _atom_site_fract_y
  _atom_site_fract_z
C1 C 0.73612 0.33654 0.57387
 C2 C 0.73391 0.33340 0.46114
 C3 C 0.75470 0.34945 0.39644
 C4 C 0.77795 0.37054 0.43855
 C5 C 0.77980 0.38690 0.54889
 C6 C 0.75944 0.36027 0.61654
 H7 H 0.76082 0.37005 0.70070
 H8 H 0.75305 0.33560 0.31337
 C9 C 0.22262 0.62283 0.58007
 C10 C 0.22345 0.60224 0.47293
 C11 C 0.24601 0.60660 0.41905
 C12 C 0.26796 0.63549 0.46803
 C13 C 0.26729 0.65909 0.57689
 C14 C 0.24412 0.65244 0.62984
 H15 H 0.24210 0.67603 0.70952
 H16 H 0.24628 0.59075 0.33627
 C17 C 0.28136 0.13247 -0.53293
 C18 C 0.28037 0.14392 -0.42316
 C19 C 0.25726 0.13868 -0.37241
 C20 C 0.23457 0.12806 -0.42844
 C21 C 0.23538 0.12154 -0.54169
 C22 C 0.25916 0.12104 -0.58970
 H23 H 0.26073 0.10905 -0.67318
 H24 H 0.25681 0.15139 -0.28880
 C25 C -0.23638 0.86033 -0.56555
 C26 C -0.23613 0.87731 -0.45668
 C27 C -0.25812 0.87141 -0.39854
 C28 C -0.28076 0.84185 -0.44212
 C29 C -0.28140 0.82384 -0.55273
 C30 C -0.25926 0.83895 -0.61181
 H31 H -0.25995 0.83839 -0.69784
 H32 H -0.25683 0.88229 -0.31455
 N33 N 0.02275 0.90833 -0.19393
 N34 N 0.04409 0.89155 -0.24376
 N35 N -0.03270 0.87185 -0.12904
 N36 N -0.05573 0.83843 -0.13479
 N37 N -0.03009 0.96659 -0.20425
 N38 N -0.05120 1.00015 -0.26205
 N39 N 0.02000 0.81269 -0.11985
 N40 N 0.03919 0.72825 -0.11851
 C41 C 0.05396 0.77816 -0.19682
 C42 C -0.06689 0.91846 -0.21944
 N43 N -0.03085 0.90059 0.17756
 N44 N -0.05214 0.90886 0.22954
 N45 N 0.01997 0.77230 0.11276
 N46 N 0.03984 0.69024 0.11954
 N47 N 0.02174 0.84113 0.18687
 N48 N 0.04268 0.80780 0.24545
 N49 N -0.03256 0.83095 0.10398
 N50 N -0.05479 0.78938 0.10485
 Mn51 Mn -0.00638 0.82050 -0.00798
 C52 C -0.06679 0.83772 0.18385
 C53 C 0.05367 0.71301 0.20375
 N54 N -0.02365 1.21945 -0.20605
 N55 N -0.04443 1.25664 -0.26595
 N56 N 0.03110 1.22989 -0.12283
 N57 N 0.05410 1.26328 -0.11971
 N58 N 0.02898 1.16229 -0.19763
 N59 N 0.05037 1.14937 -0.24760
 N60 N -0.02170 1.28698 -0.13104
 N61 N -0.04113 1.37117 -0.13767
 Mn62 Mn -0.00047 1.06421 -0.20181
 C63 C -0.05486 1.35221 -0.22318
 C64 C 0.06567 1.21522 -0.19987
 N65 N 0.02959 1.09319 0.18420
 N66 N 0.05171 1.06121 0.23656
 N67 N -0.02188 1.24612 0.10025
 N68 N -0.04231 1.32426 0.09515
 N69 N -0.02346 1.15233 0.17760
 N70 N -0.04481 1.16538 0.22769
 N71 N 0.03094 1.18960 0.10915
 N72 N 0.05367 1.22550 0.10937
 Mn73 Mn -0.00073 0.99653 0.18307
 Mn74 Mn 0.00462 1.23936 -0.01104
 Cl75 Cl -0.00073 1.03011 -0.00948
 C76 C 0.06649 1.14603 0.18946
 C77 C -0.05624 1.27360 0.17644
 N78 N 0.53198 0.37945 -0.17694
 N79 N 0.55386 0.39125 -0.22348
 N80 N 0.48069 0.27755 -0.10806
 N81 N 0.46028 0.21901 -0.10912
 N82 N 0.47897 0.37277 -0.18635
 N83 N 0.45749 0.38061 -0.24177
 N84 N 0.53392 0.28335 -0.09962
 N85 N 0.55715 0.22839 -0.09199
 C86 C 0.56938 0.29571 -0.17040
 C87 C 0.44622 0.28275 -0.19492
 N88 N 0.47897 0.31556 0.19744
 N89 N 0.45854 0.30004 0.25338
 N90 N 0.53359 0.24868 0.13219
 N91 N 0.55685 0.19473 0.13547
 N92 N 0.53144 0.32331 0.20259
 N93 N 0.55314 0.32241 0.25423
 N94 N 0.48093 0.24279 0.12564
 N95 N 0.46191 0.17520 0.13169
 Mn96 Mn 0.50725 0.26146 0.01247
 C97 C 0.44821 0.21160 0.21234
 C98 C 0.56872 0.24086 0.21270
 N99 N 0.47176 0.63417 -0.19502
 N100 N 0.45018 0.64054 -0.25002
 N101 N 0.52169 0.71361 -0.11376
 N102 N 0.54174 0.77266 -0.10880
 N103 N 0.52458 0.64003 -0.18486
 N104 N 0.54676 0.64730 -0.22903
 N105 N 0.46949 0.70598 -0.12249
 N106 N 0.44657 0.76240 -0.12672
 Mn107 Mn 0.50184 0.50675 -0.18730
 C108 C 0.43483 0.72313 -0.20799
 C109 C 0.55711 0.73131 -0.18166
 N110 N 0.52406 0.58376 0.19484
 N111 N 0.54546 0.58091 0.24999
 N112 N 0.46859 0.66862 0.10999
 N113 N 0.44529 0.72214 0.10572
 N114 N 0.47141 0.57420 0.18887
 N115 N 0.45017 0.56180 0.24009
 N116 N 0.52128 0.67975 0.11769
 N117 N 0.54069 0.74416 0.11880
 Mn118 Mn 0.50153 0.44888 0.19716
 Mn119 Mn 0.49516 0.69319 -0.00228
 Cl120 Cl 0.50142 0.47753 0.00487
 C121 C 0.55530 0.68327 0.20339
 C122 C 0.43409 0.65539 0.18829
 C123 C 0.34570 0.19794 0.36469
 C124 C 0.35220 0.09426 0.32211
 C125 C 0.33598 0.00562 0.31766
 C126 C 0.31227 0.02263 0.36163
 C127 C 0.30541 0.12599 0.41021
 C128 C 0.32205 0.21750 0.40784
 O129 O 0.36410 0.26998 0.36168
 C130 C 0.38253 0.21008 0.31607
 C131 C 0.37614 0.10234 0.29032
 C132 C 0.39251 0.02529 0.24185
 C133 C 0.41639 0.06152 0.21638
 C134 C 0.42346 0.17215 0.24217
 C135 C 0.40635 0.24686 0.29377
 H136 H 0.34157 -0.07431 0.28292
 H137 H 0.29937 -0.04575 0.36006
 H138 H 0.31707 0.29898 0.44170
 H139 H 0.38696 -0.05915 0.22421
 H140 H 0.42934 0.00339 0.17730
 H141 H 0.41125 0.33194 0.31401
 C142 C -0.17057 0.90001 0.32690
 C143 C -0.16841 0.80960 0.26536
 C144 C -0.18804 0.74286 0.24698
 C145 C -0.21052 0.76505 0.29920
 C146 C -0.21320 0.85358 0.36847
 C147 C -0.19320 0.92726 0.37627
 O148 O -0.14914 0.94928 0.33696
 C149 C -0.13315 0.88729 0.28112
 C150 C -0.14417 0.80117 0.23563
 C151 C -0.13105 0.72353 0.17611
 C152 C -0.10545 0.73560 0.16161
 C153 C -0.09346 0.82396 0.20686
 C154 C -0.10753 0.90070 0.26818
 H155 H -0.18581 0.67279 0.19748
 H156 H -0.22520 0.70682 0.29069
 H157 H -0.19473 1.00170 0.42078
 H158 H -0.14027 0.65631 0.14184
 H159 H -0.09500 0.67621 0.11458
 H160 H -0.09891 0.96907 0.30344
 C161 C 0.65188 0.80658 0.35504
 C162 C 0.65610 0.73375 0.27838
 C163 C 0.68001 0.69004 0.25268
 C164 C 0.70047 0.71943 0.31070
 C165 C 0.69706 0.79643 0.39035
 C166 C 0.67206 0.84456 0.40821
 O167 O 0.62755 0.83315 0.37097
 C168 C 0.61625 0.77542 0.30272
 C169 C 0.63295 0.71461 0.24316
 C170 C 0.62537 0.64791 0.16686
 C171 C 0.59947 0.64176 0.15273
 C172 C 0.58197 0.69985 0.21583
 C173 C 0.59035 0.76909 0.29090
 H174 H 0.68280 0.63045 0.19355
 H175 H 0.71893 0.67727 0.29591
 H176 H 0.66821 0.90955 0.46196
 H177 H 0.63890 0.60126 0.12081
 H178 H 0.59300 0.58953 0.09450
 H179 H 0.57720 0.81433 0.33952
 C180 C 0.17129 1.06345 0.36177
 C181 C 0.17042 1.13298 0.26042
 C182 C 0.19071 1.19030 0.21689
 C183 C 0.21247 1.18140 0.28254
 C184 C 0.21397 1.11484 0.39046
 C185 C 0.19331 1.04873 0.42709
 O186 O 0.14904 1.02627 0.39091
 C187 C 0.13380 1.07513 0.30628
 C188 C 0.14614 1.14103 0.22457
 C189 C 0.13386 1.20893 0.13251
 C190 C 0.10770 1.21001 0.12406
 C191 C 0.09421 1.14167 0.20560
 C192 C 0.10755 1.07225 0.29822
 H193 H 0.18928 1.24695 0.13762
 H194 H 0.22735 1.23517 0.25121
 H195 H 0.19376 0.99325 0.50635
 H196 H 0.14397 1.26228 0.07061
 H197 H 0.09798 1.26464 0.05319
 H198 H 0.09781 1.02116 0.36293
 C199 C 0.67105 0.35575 -0.32541
 C200 C 0.67339 0.26549 -0.23584
 C201 C 0.69668 0.20223 -0.19932
 C202 C 0.71799 0.22963 -0.26072
 C203 C 0.71560 0.31838 -0.35702
 C204 C 0.69199 0.38701 -0.38392
 O205 O 0.64749 0.40334 -0.35017
 C206 C 0.63443 0.34153 -0.27483
 C207 C 0.64929 0.25680 -0.20188
 C208 C 0.63913 0.18231 -0.11661
 C209 C 0.61274 0.19465 -0.10741
 C210 C 0.59707 0.28014 -0.18302
 C211 C 0.60826 0.35452 -0.26774
 H212 H 0.69826 0.13139 -0.12841
 H213 H 0.73596 0.17720 -0.23662
 H214 H 0.68995 0.46510 -0.44730
 H215 H 0.65104 0.11689 -0.05921
 H216 H 0.60458 0.13789 -0.04113
 H217 H 0.59692 0.42003 -0.32723
 C218 C 0.15923 0.71128 -0.31433
 C219 C 0.15208 0.59841 -0.27218
 C220 C 0.16791 0.49100 -0.26860
 C221 C 0.19165 0.49997 -0.31436
 C222 C 0.19916 0.61535 -0.35941
 C223 C 0.18309 0.72250 -0.35567
 O224 O 0.14098 0.80134 -0.31612
 C225 C 0.12187 0.74417 -0.27423
 C226 C 0.12769 0.62001 -0.24514
 C227 C 0.11024 0.54257 -0.20115
 C228 C 0.08585 0.59546 -0.18609
 C229 C 0.07936 0.72315 -0.21659
 C230 C 0.09768 0.79829 -0.26150
 H231 H 0.16189 0.40350 -0.23468
 H232 H 0.20398 0.41760 -0.31699
 H233 H 0.18848 0.81109 -0.38985
 H234 H 0.11525 0.44519 -0.17893
 H235 H 0.07199 0.53712 -0.15138
 H236 H 0.09336 0.89615 -0.28452
 C237 C 0.33002 0.75585 -0.35663
 C238 C 0.33177 0.71278 -0.24770
 C239 C 0.31253 0.65967 -0.19111
 C240 C 0.29095 0.64501 -0.25018
 C241 C 0.28846 0.68646 -0.36439
 C242 C 0.30797 0.75055 -0.41548
 O243 O 0.35161 0.78881 -0.39733
 C244 C 0.36737 0.76481 -0.31179
 C245 C 0.35593 0.71993 -0.21802
 C246 C 0.36905 0.67834 -0.12046
 C247 C 0.39508 0.68299 -0.11932
 C248 C 0.40738 0.72810 -0.21451
 C249 C 0.39344 0.76967 -0.31251
 H250 H 0.31471 0.62324 -0.10562
 H251 H 0.27722 0.59249 -0.20674
 H252 H 0.30666 0.79274 -0.49915
 H253 H 0.35972 0.63923 -0.04894
 H254 H 0.40595 0.64567 -0.04557
 H255 H 0.40262 0.80146 -0.38670
 C256 C -0.16302 1.42650 -0.29222
 C257 C -0.15245 1.50964 -0.36741
 C258 C -0.16491 1.56701 -0.46263
 C259 C -0.18876 1.53354 -0.48355
 C260 C -0.19947 1.44021 -0.41284
 C261 C -0.18719 1.39359 -0.31094
 O262 O -0.14652 1.36921 -0.21546
 C263 C -0.12517 1.41596 -0.24395
 C264 C -0.12787 1.50314 -0.33610
 C265 C -0.10750 1.55124 -0.38956
 C266 C -0.08325 1.50516 -0.34792
 C267 C -0.08002 1.41369 -0.25474
 C268 C -0.10119 1.37084 -0.20015
 H269 H -0.15614 1.63108 -0.52117
 H270 H -0.19833 1.57461 -0.55871
 H271 H -0.19451 1.32233 -0.25432
 H272 H -0.11013 1.61696 -0.46390
 H273 H -0.06702 1.53676 -0.39047
 H274 H -0.09898 1.29737 -0.13119
 C275 C 0.66140 0.73487 -0.31135
 C276 C 0.65679 0.81910 -0.24440
 C277 C 0.67282 0.90686 -0.23394
 C278 C 0.69393 0.91142 -0.29848
 C279 C 0.69901 0.82730 -0.37088
 C280 C 0.68319 0.73251 -0.37072
 O281 O 0.64205 0.67151 -0.32209
 C282 C 0.62489 0.71729 -0.26082
 C283 C 0.63316 0.80625 -0.20995
 C284 C 0.61780 0.87171 -0.14722
 C285 C 0.59271 0.84597 -0.13786
 C286 C 0.58350 0.75727 -0.19231
 C287 C 0.59993 0.69139 -0.25386
 H288 H 0.66839 0.97443 -0.18324
 H289 H 0.70530 0.98603 -0.29705
 H290 H 0.68667 0.66445 -0.42158
 H291 H 0.62486 0.94066 -0.10768
 H292 H 0.58043 0.89629 -0.08947
 H293 H 0.59333 0.62462 -0.29744
 C294 C 0.16808 1.20170 -0.35394
 C295 C 0.16844 1.13247 -0.25246
 C296 C 0.18999 1.06434 -0.20353
 C297 C 0.21200 1.06536 -0.26268
 C298 C 0.21221 1.13360 -0.36940
 C299 C 0.18992 1.20684 -0.41290
 O300 O 0.14538 1.25605 -0.38733
 C301 C 0.13109 1.21995 -0.30494
 C302 C 0.14438 1.14480 -0.22010
 C303 C 0.13315 1.09404 -0.12644
 C304 C 0.10711 1.12155 -0.12018
 C305 C 0.09304 1.19803 -0.20662
 C306 C 0.10509 1.24781 -0.30060
 H307 H 0.18973 1.00995 -0.12365
 H308 H 0.22862 1.00832 -0.22682
 H309 H 0.18930 1.26397 -0.49139
 H310 H 0.14396 1.03410 -0.06132
 H311 H 0.09770 1.08062 -0.04946
 H312 H 0.09455 1.30510 -0.36807
 C313 C 0.34648 0.14752 -0.30604
 C314 C 0.34393 0.26144 -0.27778
 C315 C 0.32123 0.33546 -0.28717
 C316 C 0.30023 0.29185 -0.32987
 C317 C 0.30227 0.17640 -0.36311
 C318 C 0.32566 0.10166 -0.34853
 O319 O 0.37019 0.09531 -0.29496
 C320 C 0.38279 0.17870 -0.25941
 C321 C 0.36745 0.28193 -0.24836
 C322 C 0.37651 0.38434 -0.21953
 C323 C 0.40251 0.38103 -0.20126
 C324 C 0.41893 0.27614 -0.21071
 C325 C 0.40895 0.17236 -0.23917
 H326 H 0.31995 0.42518 -0.26534
 H327 H 0.28262 0.35043 -0.34186
 H328 H 0.32779 0.01427 -0.37498
 H329 H 0.36400 0.46473 -0.21350
 H330 H 0.41001 0.46038 -0.17991
 H331 H 0.42116 0.09200 -0.24897
 C332 C -0.17119 0.85281 -0.32764
 C333 C -0.16952 0.97380 -0.32365
 C334 C -0.18962 1.06341 -0.35014
 C335 C -0.21204 1.02879 -0.38872
 C336 C -0.21367 0.90641 -0.40089
 C337 C -0.19349 0.81598 -0.36511
 O338 O -0.14963 0.78299 -0.30005
 C339 C -0.13395 0.86238 -0.27994
 C340 C -0.14525 0.98039 -0.29469
 C341 C -0.13209 1.07988 -0.28809
 C342 C -0.10623 1.05706 -0.26353
 C343 C -0.09415 0.93625 -0.24468
 C344 C -0.10821 0.83700 -0.25222
 H345 H -0.18790 1.15687 -0.34350
 H346 H -0.22766 1.09777 -0.41452
 H347 H -0.19500 0.72162 -0.36979
 H348 H -0.14131 1.17193 -0.30447
 H349 H -0.09555 1.13351 -0.25896
 H350 H -0.09925 0.74431 -0.24064
 C351 C 0.33437 0.59716 0.36626
 C352 C 0.33157 0.67975 0.27110
 C353 C 0.30868 0.74488 0.23420
 C354 C 0.28790 0.72652 0.29921
 C355 C 0.29022 0.64344 0.39870
 C356 C 0.31368 0.57444 0.43084
 O357 O 0.35818 0.55225 0.39014
 C358 C 0.37059 0.60803 0.30840
 C359 C 0.35512 0.68644 0.23328
 C360 C 0.36420 0.75907 0.14424
 C361 C 0.39033 0.74976 0.13143
 C362 C 0.40677 0.66880 0.20688
 C363 C 0.39667 0.59732 0.29706
 H364 H 0.30710 0.81116 0.16016
 H365 H 0.27013 0.78043 0.27415
 H366 H 0.31601 0.51126 0.50664
 H367 H 0.35167 0.82222 0.08756
 H368 H 0.39774 0.80680 0.06329
 H369 H 0.40875 0.53646 0.35725
 C370 C -0.15621 1.31216 0.35274
 C371 C -0.15812 1.37227 0.24765
 C372 C -0.18098 1.42533 0.19821
 C373 C -0.20253 1.42044 0.26107
 C374 C -0.20081 1.36481 0.37219
 C375 C -0.17719 1.30643 0.41636
 O376 O -0.13294 1.26627 0.38482
 C377 C -0.11976 1.29934 0.29836
 C378 C -0.13416 1.36538 0.21227
 C379 C -0.12384 1.41138 0.11457
 C380 C -0.09771 1.38665 0.10510
 C381 C -0.08275 1.31481 0.19179
 C382 C -0.09397 1.27183 0.29000
 H383 H -0.18211 1.47152 0.11499
 H384 H -0.22017 1.46680 0.22467
 H385 H -0.17492 1.25961 0.49885
 H386 H -0.13545 1.46390 0.04799
 H387 H -0.08931 1.41974 0.02930
 H388 H -0.08301 1.21675 0.35746
 C389 C 0.66971 0.33181 0.33315
 C390 C 0.67127 0.21592 0.30917
 C391 C 0.69304 0.13517 0.33063
 C392 C 0.71334 0.17340 0.38428
 C393 C 0.71189 0.29272 0.40960
 C394 C 0.69044 0.37522 0.37571
 O395 O 0.64681 0.39034 0.31793
 C396 C 0.63356 0.30976 0.28336
 C397 C 0.64770 0.20286 0.27311
 C398 C 0.63731 0.10718 0.23667
 C399 C 0.61115 0.12021 0.21478
 C400 C 0.59616 0.22680 0.23174
 C401 C 0.60766 0.32328 0.26492
 H402 H 0.69411 0.04534 0.30944
 H403 H 0.73026 0.11125 0.40520
 H404 H 0.68960 0.46970 0.38436
 H405 H 0.64896 0.02624 0.22473
 H406 H 0.60255 0.04690 0.18695
 H407 H 0.59673 0.40626 0.27742
 C408 C 0.15811 0.67100 0.35169
 C409 C 0.15423 0.56214 0.32022
 C410 C 0.17303 0.46500 0.32978
 C411 C 0.19647 0.47988 0.37614
 C412 C 0.20023 0.58990 0.41262
 C413 C 0.18111 0.68809 0.39611
 O414 O 0.13792 0.75122 0.33902
 C415 C 0.12084 0.69201 0.29870
 C416 C 0.12970 0.57611 0.28491
 C417 C 0.11446 0.49898 0.24418
 C418 C 0.08920 0.54400 0.21574
 C419 C 0.07985 0.66266 0.23150
 C420 C 0.09599 0.73702 0.27344
 H421 H 0.16949 0.38038 0.30495
 H422 H 0.21137 0.40528 0.38693
 H423 H 0.18384 0.77430 0.42045
 H424 H 0.12174 0.40775 0.23523
 H425 H 0.07693 0.48638 0.18350
 H426 H 0.08948 0.82846 0.28529
   
