data_POSCAR
  _audit_creation_date              2014-09-24
  _audit_creation_method            'ToBaCCo'
  _symmetry_space_group_name_H-M    'P1'
  _symmetry_Int_Tables_number       1
  _symmetry_cell_setting            triclinic
  loop_
  _symmetry_equiv_pos_as_xyz
 x,y,z
_cell_length_a 27.3722
_cell_length_b 28.1774
_cell_length_c 27.4289
_cell_angle_alpha 89.927300
_cell_angle_beta 90.648700
_cell_angle_gamma 90.880100
loop_
  _atom_site_label
  _atom_site_type_symbol
  _atom_site_fract_x
  _atom_site_fract_y
  _atom_site_fract_z
C1 C 0.15411 0.16051 0.21432
 C2 C 0.13277 0.19891 0.18925
 C3 C 0.15543 0.21902 0.14835
 C4 C 0.19769 0.19858 0.13009
 C5 C 0.22062 0.16139 0.15488
 C6 C 0.19741 0.14145 0.19572
 H7 H 0.09852 0.21335 0.20135
 H8 H 0.21464 0.21438 0.09831
 H9 H 0.21405 0.11150 0.21389
 C10 C -0.17173 0.81508 0.24392
 C11 C -0.21048 0.83741 0.21956
 C12 C -0.22883 0.81983 0.17534
 C13 C -0.20834 0.77927 0.15483
 C14 C -0.17081 0.75493 0.17965
 C15 C -0.15231 0.77374 0.22371
 H16 H -0.22437 0.87068 0.23314
 H17 H -0.22090 0.76740 0.11922
 H18 H -0.12288 0.75591 0.24272
 C19 C -0.16123 0.17589 -0.23241
 C20 C -0.18776 0.15188 -0.19567
 C21 C -0.21089 0.17709 -0.15770
 C22 C -0.20408 0.22650 -0.15615
 C23 C -0.17008 0.24950 -0.18642
 C24 C -0.14999 0.22417 -0.22494
 H25 H -0.19377 0.11396 -0.19865
 H26 H -0.22484 0.24720 -0.13106
 H27 H -0.12441 0.24216 -0.24882
 C28 C 0.16785 0.83636 -0.22487
 C29 C 0.14872 0.79613 -0.20095
 C30 C 0.17289 0.77732 -0.15996
 C31 C 0.21514 0.80036 -0.14204
 C32 C 0.23508 0.83937 -0.16661
 C33 C 0.21229 0.85653 -0.20876
 H34 H 0.11466 0.78012 -0.21372
 H35 H 0.23178 0.78883 -0.10806
 H36 H 0.22656 0.88848 -0.22596
 C37 C 0.17300 1.17715 0.76903
 C38 C 0.21428 1.15616 0.79133
 C39 C 0.23320 1.17187 0.83683
 C40 C 0.21243 1.21286 0.85707
 C41 C 0.17637 1.23861 0.83163
 C42 C 0.15672 1.22029 0.78781
 H43 H 0.23130 1.12711 0.77260
 H44 H 0.22427 1.22529 0.89266
 H45 H 0.12658 1.23828 0.77019
 C46 C 0.84125 0.84549 0.78025
 C47 C 0.80261 0.86654 0.80552
 C48 C 0.78515 0.84709 0.84893
 C49 C 0.80948 0.80895 0.87034
 C50 C 0.85050 0.78893 0.84828
 C51 C 0.86463 0.80622 0.80219
 H52 H 0.78603 0.89865 0.79191
 H53 H 0.79555 0.79427 0.90408
 H54 H 0.89460 0.78948 0.78385
 C55 C 0.16624 0.82956 1.23378
 C56 C 0.15950 0.78100 1.22242
 C57 C 0.18051 0.76076 1.18122
 C58 C 0.21592 0.78677 1.15560
 C59 C 0.22651 0.83445 1.16754
 C60 C 0.20051 0.85571 1.20560
 H61 H 0.13705 0.75812 1.24490
 H62 H 0.23418 0.77015 1.12544
 H63 H 0.20634 0.89328 1.21176
 C64 C 0.87048 1.14361 1.19497
 C65 C 0.83059 1.12017 1.17199
 C66 C 0.81090 1.13416 1.12645
 C67 C 0.83078 1.17576 1.10610
 C68 C 0.86821 1.20271 1.12967
 C69 C 0.88717 1.18664 1.17465
 H70 H 0.81370 1.09185 1.19228
 H71 H 0.81530 1.18937 1.07314
 H72 H 0.91719 1.20601 1.19183
 O73 O 0.57669 0.92369 0.92628
 O74 O 0.63013 0.96554 0.97579
 C75 C 0.62047 0.93443 0.94207
 O76 O 0.44611 1.09632 0.92249
 O77 O 0.38952 1.05048 0.96308
 C78 C 0.40150 1.08349 0.93201
 O79 O 0.58383 1.08683 0.92423
 O80 O 0.63349 1.04260 0.97390
 C81 C 0.62676 1.07324 0.93937
 O82 O 0.43787 0.92521 0.92107
 O83 O 0.38580 0.96951 0.96552
 C84 C 0.39401 0.93866 0.93237
 Zr85 Zr 0.50756 0.94748 0.94965
 O86 O 0.50642 0.94547 0.87252
 O87 O 0.50737 0.87236 0.95173
 Zr88 Zr 0.51233 1.06759 0.94956
 O89 O 0.50934 1.06819 0.87241
 O90 O 0.52113 1.14238 0.95048
 O91 O 0.55370 1.00669 0.94219
 O92 O 0.46827 1.00836 0.93893
 O93 O 0.43483 0.91973 1.09279
 O94 O 0.38379 0.96531 1.04569
 C95 C 0.39173 0.93189 1.07745
 O96 O 0.57233 1.09414 1.10375
 O97 O 0.62597 1.04787 1.06187
 C98 C 0.61597 1.08086 1.09358
 O99 O 0.43724 1.09309 1.09355
 O100 O 0.38472 1.04839 1.04603
 C101 C 0.39371 1.08014 1.07901
 O102 O 0.57302 0.92324 1.10153
 O103 O 0.62790 0.96615 1.05692
 C104 C 0.61774 0.93483 1.08966
 Zr105 Zr 0.50440 0.94740 1.07315
 O106 O 0.49692 0.95055 1.14985
 O107 O 0.50706 0.87249 1.07629
 Zr108 Zr 0.50654 1.06750 1.07288
 O109 O 0.50064 1.06601 1.14974
 O110 O 0.51162 1.14257 1.07185
 Zr111 Zr 0.58014 1.00647 1.01474
 Zr112 Zr 0.43526 1.00834 1.00790
 O113 O 0.46270 1.00762 1.07986
 O114 O 0.54900 1.00709 1.08455
 O115 O 0.46227 0.93870 1.00944
 O116 O 0.55171 1.07536 1.01325
 O117 O 0.54771 0.93815 1.01315
 O118 O 0.46601 1.07737 1.00899
 H119 H 0.44815 1.00904 0.90883
 H120 H 0.57293 1.10378 1.01364
 H121 H 0.43944 1.00720 1.10728
 H122 H 0.56842 0.90964 1.01408
 H123 H 0.49375 1.15531 0.96928
 H124 H 0.48387 1.15447 1.05218
 H125 H 0.52698 1.04575 1.16271
 H126 H 0.52785 0.96360 1.16364
 H127 H 0.48675 0.86027 1.04890
 H128 H 0.47578 0.86152 0.96534
 H129 H 0.53354 0.96608 0.86110
 H130 H 0.53502 1.04681 0.86076
 O131 O 0.09724 0.44578 -0.08830
 O132 O 0.04539 0.38968 -0.05622
 C133 C 0.08296 0.40193 -0.08179
 O134 O 0.09209 0.55700 0.09385
 O135 O 0.04844 0.61512 0.05523
 C136 C 0.08185 0.60130 0.08581
 O137 O 0.08883 0.42474 0.07280
 O138 O 0.04137 0.37908 0.02097
 C139 C 0.07526 0.38423 0.05404
 O140 O 0.09428 0.57911 -0.07703
 O141 O 0.04926 0.62583 -0.02644
 C142 C 0.08252 0.61988 -0.05911
 Zr143 Zr 0.06695 0.51021 -0.06220
 O144 O 0.14369 0.51390 -0.06856
 O145 O 0.06254 0.51458 -0.13926
 Zr146 Zr 0.06274 0.49412 0.06070
 O147 O 0.13876 0.49249 0.07396
 O148 O 0.05239 0.48061 0.13591
 O149 O 0.07380 0.46093 -0.00610
 O150 O 0.07534 0.54220 0.00520
 O151 O -0.07810 0.58298 -0.08384
 O152 O -0.03348 0.62710 -0.02869
 C153 C -0.06499 0.62317 -0.06417
 O154 O -0.08730 0.42378 0.06916
 O155 O -0.04090 0.37963 0.01764
 C156 C -0.07445 0.38345 0.05010
 O157 O -0.08489 0.55670 0.08993
 O158 O -0.03555 0.61440 0.05597
 C159 C -0.07105 0.60064 0.08411
 O160 O -0.08728 0.45256 -0.09937
 O161 O -0.04119 0.39404 -0.06438
 C162 C -0.07564 0.40863 -0.09358
 Zr163 Zr -0.05551 0.51305 -0.06684
 O164 O -0.13198 0.51906 -0.07529
 O165 O -0.04699 0.51853 -0.14334
 Zr166 Zr -0.06005 0.49443 0.05549
 O167 O -0.13729 0.49642 0.05249
 O168 O -0.06189 0.48032 0.13128
 Zr169 Zr 0.00192 0.43332 -0.01357
 Zr170 Zr 0.00561 0.57314 0.00730
 O171 O -0.06567 0.54446 0.00020
 O172 O -0.06861 0.46219 -0.01244
 O173 O 0.00734 0.55537 -0.06740
 O174 O 0.00044 0.45216 0.06064
 O175 O 0.00488 0.47138 -0.07941
 O176 O 0.00202 0.53549 0.07377
 H177 H 0.10548 0.56186 0.00852
 H178 H -0.00046 0.42689 0.08579
 H179 H -0.09407 0.56570 0.00193
 H180 H 0.00574 0.45296 -0.11015
 H181 H 0.04590 0.51127 0.15199
 H182 H -0.04149 0.50489 0.14777
 H183 H -0.14878 0.47160 0.02937
 H184 H -0.14632 0.51181 -0.04321
 H185 H -0.03325 0.55043 -0.15056
 H186 H 0.05311 0.54731 -0.14793
 H187 H 0.15730 0.50661 -0.03599
 H188 H 0.15417 0.48842 0.04191
 O189 O 1.08555 -0.09206 0.44171
 O190 O 1.04332 -0.05017 0.38356
 C191 C 1.07392 -0.08253 0.39688
 O192 O 0.91009 -0.07401 0.57258
 O193 O 0.95859 -0.02866 0.62370
 C194 C 0.92370 -0.05947 0.61542
 O195 O 0.91418 -0.08822 0.43854
 O196 O 0.96034 -0.04910 0.38140
 C197 C 0.92648 -0.07943 0.39397
 O198 O 1.08533 -0.07896 0.57725
 O199 O 1.04270 -0.02880 0.62573
 C200 C 1.07277 -0.06330 0.61986
 Zr201 Zr 1.06341 -0.05774 0.50629
 O202 O 1.07031 -0.13212 0.51220
 O203 O 1.14033 -0.04898 0.51139
 Zr204 Zr 0.93968 -0.05739 0.50409
 O205 O 0.94133 -0.13187 0.51463
 O206 O 0.86256 -0.06092 0.50084
 O207 O 1.00138 -0.07075 0.46286
 O208 O 1.00091 -0.06292 0.54791
 O209 O 1.09371 0.09082 0.56156
 O210 O 1.04724 0.05099 0.61801
 C211 C 1.08167 0.08103 0.60614
 O212 O 0.92215 0.08481 0.42136
 O213 O 0.96380 0.03236 0.37386
 C214 C 0.93402 0.06715 0.37920
 O215 O 0.91646 0.09100 0.56038
 O216 O 0.96161 0.05172 0.61806
 C217 C 0.92904 0.08243 0.60544
 O218 O 1.08405 0.08558 0.42464
 O219 O 1.04214 0.03338 0.37465
 C220 C 1.07098 0.06964 0.38186
 Zr221 Zr 1.06585 0.06106 0.49552
 O222 O 1.07418 0.13570 0.49446
 O223 O 1.14268 0.05518 0.49035
 Zr224 Zr 0.94174 0.06200 0.49356
 O225 O 0.93649 0.13644 0.48623
 O226 O 0.86455 0.05767 0.48749
 Zr227 Zr 1.00262 -0.00430 0.42771
 Zr228 Zr 1.00229 0.00789 0.57233
 O229 O 1.00396 0.07379 0.53594
 O230 O 1.00403 0.06720 0.45110
 O231 O 1.07381 0.00516 0.54481
 O232 O 0.93178 -0.00109 0.45646
 O233 O 1.07357 -0.00189 0.45806
 O234 O 0.93099 0.00600 0.54216
 H235 H 0.99917 -0.08933 0.57173
 H236 H 0.90321 -0.00226 0.43400
 H237 H 1.00503 0.10322 0.55565
 H238 H 1.10148 -0.00325 0.43544
 H239 H 0.85055 -0.03099 0.51464
 H240 H 0.85142 0.04981 0.52003
 H241 H 0.96620 0.15073 0.50113
 H242 H 1.04397 0.14823 0.47967
 H243 H 1.15484 0.04216 0.52167
 H244 H 1.15416 -0.05297 0.47851
 H245 H 1.03771 -0.14492 0.52072
 H246 H 0.95903 -0.14579 0.48695
 C247 C 1.11198 0.16831 0.29471
 C248 C 1.13284 0.14057 0.25684
 C249 C 1.13173 0.09070 0.26169
 C250 C 1.11087 0.06854 0.30184
 C251 C 1.08939 0.09506 0.33852
 C252 C 1.08755 0.14511 0.33398
 C253 C 1.11735 0.21835 0.29664
 C254 C 1.09341 0.24478 0.33177
 C255 C 1.06453 0.22209 0.36631
 C256 C 1.06178 0.17273 0.36773
 H257 H 1.14081 0.23766 0.27193
 H258 H 1.09714 0.28308 0.33204
 H259 H 1.04502 0.24278 0.39279
 H260 H 1.03887 0.15645 0.39504
 H261 H 1.14609 0.06811 0.23350
 H262 H 1.11182 0.03017 0.30442
 C263 C 0.82351 -0.14258 0.32302
 C264 C 0.85076 -0.16283 0.28460
 C265 C 0.90154 -0.15467 0.28334
 C266 C 0.92485 -0.12555 0.31756
 C267 C 0.89889 -0.10530 0.35552
 C268 C 0.84737 -0.11194 0.35726
 C269 C 0.77325 -0.15320 0.32908
 C270 C 0.74625 -0.13032 0.36455
 C271 C 0.76862 -0.09656 0.39460
 C272 C 0.81858 -0.08724 0.39096
 H273 H 0.75446 -0.17941 0.30666
 H274 H 0.70765 -0.13828 0.36822
 H275 H 0.74723 -0.07766 0.42103
 H276 H 0.83399 -0.05958 0.41375
 H277 H 0.92310 -0.16825 0.25369
 H278 H 0.96348 -0.11809 0.31391
 C279 C 0.85827 0.17543 0.67863
 C280 C 0.85583 0.15243 0.72510
 C281 C 0.87426 0.10624 0.72901
 C282 C 0.89744 0.08471 0.68996
 C283 C 0.90447 0.10858 0.64551
 C284 C 0.88615 0.15530 0.64035
 C285 C 0.83177 0.21714 0.66842
 C286 C 0.83864 0.24215 0.62515
 C287 C 0.87161 0.22607 0.59105
 C288 C 0.89519 0.18316 0.59845
 H289 H 0.80516 0.23060 0.69352
 H290 H 0.81892 0.27457 0.61847
 H291 H 0.87839 0.24654 0.55833
 H292 H 0.92124 0.17297 0.57153
 H293 H 0.87318 0.08708 0.76322
 H294 H 0.91070 0.04898 0.69496
 C295 C 1.09736 -0.11570 0.74912
 C296 C 1.14097 -0.14037 0.73879
 C297 C 1.16133 -0.13670 0.69254
 C298 C 1.13808 -0.11188 0.65562
 C299 C 1.09438 -0.08757 0.66354
 C300 C 1.07420 -0.08812 0.71172
 C301 C 1.07845 -0.11499 0.79699
 C302 C 1.03775 -0.08843 0.80813
 C303 C 1.01552 -0.06126 0.77240
 C304 C 1.03351 -0.06061 0.72512
 H305 H 1.09541 -0.13401 0.82676
 H306 H 1.02385 -0.08837 0.84492
 H307 H 0.98411 -0.04021 0.78139
 H308 H 1.01416 -0.03801 0.70052
 H309 H 1.19543 -0.15404 0.68461
 H310 H 1.15542 -0.11115 0.62031
 C311 C 0.30496 1.13204 1.17093
 C312 C 0.26593 1.14439 1.13856
 C313 C 0.27209 1.13789 1.08817
 C314 C 0.31392 1.11757 1.07002
 C315 C 0.35113 1.10239 1.10134
 C316 C 0.34643 1.10836 1.15239
 C317 C 0.30521 1.14482 1.22085
 C318 C 0.34176 1.12920 1.25252
 C319 C 0.37909 1.10118 1.23518
 C320 C 0.38161 1.09088 1.18563
 H321 H 0.27778 1.16762 1.23584
 H322 H 0.34088 1.13859 1.29075
 H323 H 0.40673 1.08806 1.26009
 H324 H 0.41100 1.06871 1.17396
 H325 H 0.24334 1.14654 1.06232
 H326 H 0.31692 1.11300 1.03092
 C327 C 0.26246 0.90602 0.88808
 C328 C 0.27386 0.86773 0.85728
 C329 C 0.32223 0.85512 0.85042
 C330 C 0.35989 0.87938 0.87438
 C331 C 0.35070 0.91737 0.90608
 C332 C 0.30075 0.93197 0.91240
 C333 C 0.21318 0.91875 0.89502
 C334 C 0.20131 0.95703 0.92410
 C335 C 0.23802 0.98365 0.94653
 C336 C 0.28682 0.97176 0.94078
 H337 H 0.18318 0.89946 0.87783
 H338 H 0.16347 0.96652 0.92865
 H339 H 0.22868 1.01427 0.96815
 H340 H 0.31179 0.99642 0.95754
 H341 H 0.33085 0.82561 0.82690
 H342 H 0.39674 0.86738 0.86848
 C343 C 0.74730 0.89051 1.12458
 C344 C 0.73417 0.84801 1.14884
 C345 C 0.68492 0.83591 1.15422
 C346 C 0.64843 0.86516 1.13591
 C347 C 0.65961 0.90832 1.11228
 C348 C 0.71026 0.92193 1.10755
 C349 C 0.79711 0.90251 1.11767
 C350 C 0.81073 0.94501 1.09559
 C351 C 0.77529 0.97679 1.08101
 C352 C 0.72591 0.96603 1.08759
 H353 H 0.82600 0.87901 1.12908
 H354 H 0.84900 0.95369 1.09054
 H355 H 0.78615 1.01046 1.06508
 H356 H 0.70148 0.99402 1.07826
 H357 H 0.67459 0.80373 1.17343
 H358 H 0.61085 0.85344 1.14016
 C359 C 0.74467 1.16243 0.92539
 C360 C 0.75259 1.15209 0.87464
 C361 C 0.72144 1.11883 0.85013
 C362 C 0.68299 1.09332 0.87116
 C363 C 0.67129 1.09742 0.91984
 C364 C 0.69873 1.12845 0.94941
 C365 C 0.77474 1.20985 0.95392
 C366 C 0.76364 1.23416 1.01006
 C367 C 0.71915 1.21052 1.04748
 C368 C 0.67674 1.13854 1.00509
 H369 H 0.80596 1.22540 0.93632
 H370 H 0.78574 1.26392 1.02270
 H371 H 0.71359 1.22656 1.08316
 H372 H 0.64701 1.11684 1.01611
 H373 H 0.72510 1.11354 0.81127
 H374 H 0.66098 1.07005 0.84805
 C375 C 0.16686 0.30290 0.11610
 C376 C 0.13633 0.26262 0.12506
 C377 C 0.08775 0.26253 0.10842
 C378 C 0.06904 0.30151 0.08361
 C379 C 0.09874 0.34121 0.07350
 C380 C 0.14879 0.34095 0.08738
 C381 C 0.21491 0.30658 0.13543
 C382 C 0.24577 0.34425 0.12254
 C383 C 0.22951 0.37891 0.09037
 C384 C 0.18154 0.37739 0.07284
 H385 H 0.22904 0.28070 0.16084
 H386 H 0.28269 0.34616 0.13705
 H387 H 0.25402 0.40734 0.07927
 H388 H 0.17076 0.40435 0.04703
 H389 H 0.06406 0.23204 0.11476
 H390 H 0.03071 0.30106 0.07320
 C391 C -0.17787 0.33388 -0.15353
 C392 C -0.14935 0.29700 -0.17302
 C393 C -0.09818 0.30195 -0.17191
 C394 C -0.07543 0.33946 -0.14760
 C395 C -0.10276 0.37285 -0.12271
 C396 C -0.15463 0.37077 -0.12588
 C397 C -0.22897 0.33474 -0.16065
 C398 C -0.25708 0.36858 -0.13744
 C399 C -0.23485 0.40209 -0.10691
 C400 C -0.18418 0.40327 -0.10100
 H401 H -0.24741 0.30933 -0.18433
 H402 H -0.29634 0.36843 -0.14267
 H403 H -0.25695 0.42757 -0.08800
 H404 H -0.16882 0.42945 -0.07637
 H405 H -0.07514 0.27465 -0.18656
 H406 H -0.03593 0.34121 -0.14640
 C407 C 0.18052 0.69693 -0.11837
 C408 C 0.15190 0.73620 -0.13310
 C409 C 0.10269 0.73788 -0.11942
 C410 C 0.08124 0.70100 -0.09304
 C411 C 0.10868 0.66191 -0.07839
 C412 C 0.15937 0.66102 -0.08848
 C413 C 0.22946 0.69191 -0.13330
 C414 C 0.25798 0.65506 -0.11540
 C415 C 0.23843 0.62244 -0.08261
 C416 C 0.18962 0.62524 -0.06920
 H417 H 0.24611 0.71597 -0.15917
 H418 H 0.29559 0.65209 -0.12665
 H419 H 0.26103 0.59457 -0.06785
 H420 H 0.17611 0.59974 -0.04296
 H421 H 0.08047 0.76787 -0.12965
 H422 H 0.04251 0.70231 -0.08540
 C423 C -0.17539 0.67465 0.13589
 C424 C -0.14786 0.71212 0.15806
 C425 C -0.09659 0.71013 0.15764
 C426 C -0.07276 0.67325 0.13463
 C427 C -0.09892 0.63769 0.10976
 C428 C -0.15088 0.63891 0.10912
 C429 C -0.22676 0.67156 0.13996
 C430 C -0.25368 0.63731 0.11421
 C431 C -0.23010 0.60555 0.08408
 C432 C -0.17929 0.60628 0.08140
 H433 H -0.24660 0.69513 0.16335
 H434 H -0.29307 0.63581 0.11716
 H435 H -0.25125 0.57991 0.06300
 H436 H -0.16284 0.58170 0.05671
 H437 H -0.07447 0.73812 0.17412
 H438 H -0.03338 0.67291 0.13564
 C439 C 1.13951 0.10396 0.73052
 C440 C 1.14763 0.15383 0.72999
 C441 C 1.13182 0.17912 0.68844
 C442 C 1.11159 0.15526 0.64781
 C443 C 1.10860 0.10543 0.64656
 C444 C 1.12634 0.07966 0.68706
 C445 C 1.14116 0.07758 0.77410
 C446 C 1.14383 0.02830 0.77283
 C447 C 1.14347 0.00514 0.72816
 C448 C 1.13205 0.03010 0.68562
 H449 H 1.14081 0.09523 0.80909
 H450 H 1.14803 0.00832 0.80631
 H451 H 1.15092 -0.03224 0.72689
 H452 H 1.12937 0.01105 0.65154
 H453 H 1.13614 0.21734 0.68668
 H454 H 1.09826 0.17581 0.61717
 C455 C 0.82749 -0.11187 0.70073
 C456 C 0.85860 -0.13429 0.73598
 C457 C 0.90931 -0.13354 0.72752
 C458 C 0.92898 -0.10930 0.68816
 C459 C 0.89977 -0.08226 0.65730
 C460 C 0.84850 -0.08353 0.66299
 C461 C 0.77624 -0.11944 0.69978
 C462 C 0.74646 -0.09511 0.66694
 C463 C 0.76698 -0.06370 0.63351
 C464 C 0.81756 -0.05814 0.63113
 H465 H 0.75869 -0.14494 0.72359
 H466 H 0.70725 -0.10073 0.66740
 H467 H 0.74365 -0.04445 0.60851
 H468 H 0.83218 -0.03411 0.60399
 H469 H 0.93490 -0.15004 0.75239
 H470 H 0.96759 -0.11226 0.68125
 C471 C 1.09345 -0.16501 0.28964
 C472 C 1.14056 -0.14890 0.27315
 C473 C 1.16355 -0.11146 0.29948
 C474 C 1.14188 -0.09114 0.33995
 C475 C 1.09796 -0.10916 0.35800
 C476 C 1.07502 -0.14823 0.33478
 C477 C 1.06207 -0.19459 0.26129
 C478 C 1.02026 -0.21538 0.28124
 C479 C 1.00721 -0.20493 0.32884
 C480 C 1.03320 -0.17021 0.35490
 H481 H 1.06906 -0.20134 0.22334
 H482 H 0.99772 -0.23940 0.25955
 H483 H 0.97495 -0.22138 0.34440
 H484 H 1.01991 -0.16013 0.39040
 H485 H 1.19948 -0.09813 0.29011
 H486 H 1.15992 -0.06124 0.35776
 C487 C 0.89216 0.07435 0.24680
 C488 C 0.89074 0.12434 0.23883
 C489 C 0.90493 0.15436 0.27787
 C490 C 0.91691 0.13581 0.32394
 C491 C 0.91319 0.08694 0.33322
 C492 C 0.89781 0.05631 0.29484
 C493 C 0.88924 0.04147 0.20778
 C494 C 0.88127 -0.00662 0.21658
 C495 C 0.87790 -0.02293 0.26417
 C496 C 0.88739 0.00781 0.30310
 H497 H 0.89194 0.05284 0.17020
 H498 H 0.87643 -0.03106 0.18643
 H499 H 0.86859 -0.05965 0.27055
 H500 H 0.88518 -0.00609 0.33969
 H501 H 0.90507 0.19256 0.27368
 H502 H 0.92936 0.15980 0.35247
 C503 C 0.18473 0.32179 -0.13082
 C504 C 0.15559 0.28257 -0.14713
 C505 C 0.10481 0.28433 -0.14208
 C506 C 0.08271 0.32352 -0.12166
 C507 C 0.11031 0.36250 -0.10449
 C508 C 0.16215 0.36111 -0.10748
 C509 C 0.23584 0.32300 -0.13729
 C510 C 0.26448 0.35986 -0.11796
 C511 C 0.24294 0.39611 -0.09186
 C512 C 0.19238 0.39682 -0.08648
 H513 H 0.25421 0.29572 -0.15744
 H514 H 0.30369 0.35997 -0.12272
 H515 H 0.26552 0.42398 -0.07583
 H516 H 0.17778 0.42500 -0.06481
 H517 H 0.08180 0.25471 -0.15366
 H518 H 0.04333 0.32301 -0.11879
 C519 C -0.10764 0.25142 0.05809
 C520 C -0.11537 0.24622 0.10897
 C521 C -0.11046 0.28678 0.13876
 C522 C -0.10055 0.33159 0.11885
 C523 C -0.09584 0.33783 0.06842
 C524 C -0.10176 0.29754 0.03758
 C525 C -0.10276 0.21150 0.02729
 C526 C -0.09877 0.21693 -0.02289
 C527 C -0.09977 0.26196 -0.04334
 C528 C -0.10153 0.30191 -0.01357
 H529 H -0.10135 0.17581 0.04171
 H530 H -0.09605 0.18605 -0.04608
 H531 H -0.09881 0.26570 -0.08237
 H532 H -0.10348 0.33619 -0.03063
 H533 H -0.11575 0.28425 0.17776
 H534 H -0.09528 0.36146 0.14328
 C535 C -0.11569 0.74948 -0.07740
 C536 C -0.12452 0.75096 -0.12873
 C537 C -0.11090 0.71162 -0.15679
 C538 C -0.09227 0.67089 -0.13502
 C539 C -0.08687 0.66729 -0.08430
 C540 C -0.10001 0.70655 -0.05493
 C541 C -0.11990 0.79044 -0.04795
 C542 C -0.11579 0.78761 0.00256
 C543 C -0.10672 0.74430 0.02470
 C544 C -0.09878 0.70417 -0.00359
 H545 H -0.12589 0.82512 -0.06362
 H546 H -0.12025 0.81905 0.02463
 H547 H -0.10508 0.74208 0.06393
 H548 H -0.09272 0.67128 0.01510
 H549 H -0.11687 0.71107 -0.19588
 H550 H -0.08225 0.64160 -0.15824
 C551 C 0.18578 0.67657 0.14568
 C552 C 0.15848 0.71635 0.16036
 C553 C 0.10811 0.71656 0.15066
 C554 C 0.08468 0.67884 0.12728
 C555 C 0.11036 0.63915 0.11195
 C556 C 0.16198 0.63846 0.11972
 C557 C 0.23629 0.67395 0.15585
 C558 C 0.26356 0.63646 0.13819
 C559 C 0.24120 0.60121 0.10990
 C560 C 0.19105 0.60221 0.10048
 H561 H 0.25507 0.70079 0.17749
 H562 H 0.30240 0.63514 0.14584
 H563 H 0.26285 0.57294 0.09509
 H564 H 0.17593 0.57512 0.07690
 H565 H 0.08660 0.74708 0.15990
 H566 H 0.04597 0.68127 0.12014
 C567 C 0.28534 1.09766 0.85672
 C568 C 0.27559 1.14710 0.86216
 C569 C 0.30981 1.17445 0.88957
 C570 C 0.35077 1.15387 0.91173
 C571 C 0.36138 1.10607 0.90406
 C572 C 0.33085 1.07909 0.87261
 C573 C 0.25085 1.06529 0.83722
 C574 C 0.26454 1.02033 0.82174
 C575 C 0.31238 1.00586 0.82859
 C576 C 0.34470 1.03389 0.85609
 H577 H 0.21325 1.07451 0.83483
 H578 H 0.23813 0.99657 0.80461
 H579 H 0.32347 0.97149 0.81550
 H580 H 0.38057 1.02027 0.86366
 H581 H 0.30519 1.21222 0.89420
 H582 H 0.37448 1.17552 0.93482
 C583 C 0.27222 0.85975 1.09007
 C584 C 0.26575 0.86187 1.14142
 C585 C 0.30032 0.88755 1.16959
 C586 C 0.34058 0.91001 1.14824
 C587 C 0.34882 0.90635 1.09815
 C588 C 0.31561 0.87927 1.06906
 C589 C 0.23673 0.83864 1.05885
 C590 C 0.24690 0.83036 1.00996
 C591 C 0.29196 0.84388 0.99118
 C592 C 0.32554 0.86935 1.01990
 H593 H 0.20110 0.82798 1.07192
 H594 H 0.22009 0.81255 0.98681
 H595 H 0.30063 0.83509 0.95399
 H596 H 0.35994 0.87981 1.00395
 H597 H 0.29667 0.88960 1.20881
 H598 H 0.36588 0.93007 1.17119
 C599 C 0.73484 1.13193 1.07015
 C600 C 0.76471 1.11029 1.10597
 C601 C 0.74052 1.07728 1.13628
 C602 C 0.68986 1.07448 1.14028
 C603 C 0.65849 1.10582 1.11640
 C604 C 0.67837 1.14550 1.09120
 C605 C 0.75440 1.15106 1.01320
 C606 C 0.68963 1.20813 0.97396
 C607 C 0.64042 1.21384 1.01164
 C608 C 0.63710 1.18440 1.06600
 H609 H 0.79019 1.13981 1.00074
 H610 H 0.68935 1.22772 0.93954
 H611 H 0.61036 1.23585 1.00022
 H612 H 0.60269 1.18731 1.08463
 H613 H 0.76086 1.05124 1.15667
 H614 H 0.67445 1.04414 1.15942
 C615 C 0.69989 0.83932 0.88422
 C616 C 0.74166 0.86738 0.87254
 C617 C 0.74281 0.91568 0.88471
 C618 C 0.70353 0.93648 0.90780
 C619 C 0.66212 0.90949 0.92033
 C620 C 0.66094 0.86000 0.91040
 C621 C 0.69568 0.79118 0.87009
 C622 C 0.65613 0.76318 0.88485
 C623 C 0.62021 0.78238 0.91397
 C624 C 0.62255 0.83021 0.92683
 H625 H 0.72260 0.77474 0.84735
 H626 H 0.65370 0.72623 0.87419
 H627 H 0.59027 0.76016 0.92650
 H628 H 0.59467 0.84311 0.95065
 H629 H 0.77448 0.93755 0.87618
 H630 H 0.70526 0.97421 0.91542
   
