data_POSCAR
  _audit_creation_date              2014-09-24
  _audit_creation_method            'ToBaCCo'
  _symmetry_space_group_name_H-M    'P1'
  _symmetry_Int_Tables_number       1
  _symmetry_cell_setting            triclinic
  loop_
  _symmetry_equiv_pos_as_xyz
 x,y,z
_cell_length_a 42.9481
_cell_length_b 44.7296
_cell_length_c 43.8837
_cell_angle_alpha 87.388000
_cell_angle_beta 87.968500
_cell_angle_gamma 87.149700
loop_
  _atom_site_label
  _atom_site_type_symbol
  _atom_site_fract_x
  _atom_site_fract_y
  _atom_site_fract_z
N1 N 0.16916 1.23865 0.15477
 N2 N 0.14991 1.23573 0.17857
 C3 C 0.12722 1.25758 0.17682
 C4 C 0.13252 1.27504 0.15054
 C5 C 0.15950 1.26252 0.13714
 H6 H 0.10754 1.25998 0.19274
 H7 H 0.17050 1.26921 0.11554
 Cu8 Cu 0.15472 1.20198 0.20786
 Cu9 Cu 0.20325 1.20946 0.14656
 Cu10 Cu 0.21210 1.14901 0.19846
 N11 N 0.15994 1.16808 0.23691
 N12 N 0.18238 1.14740 0.23302
 C13 C 0.17926 1.12534 0.25467
 C14 C 0.15340 1.13249 0.27300
 C15 C 0.14174 1.15990 0.26121
 H16 H 0.19392 1.10499 0.25622
 H17 H 0.12083 1.17225 0.26875
 N18 N 0.23978 1.15466 0.16203
 N19 N 0.23630 1.17759 0.14220
 C20 C 0.25706 1.17392 0.11877
 C21 C 0.27442 1.14754 0.12412
 C22 C 0.26292 1.13588 0.15177
 H23 H 0.25872 1.18872 0.09866
 H24 H 0.26986 1.11466 0.16288
 H25 H 0.18288 1.17318 0.16889
 H26 H 0.20926 1.19493 0.19144
 N27 N 0.83831 0.76347 0.16617
 N28 N 0.86077 0.76319 0.18579
 C29 C 0.88193 0.74096 0.17940
 C30 C 0.87228 0.72660 0.15450
 C31 C 0.84445 0.74141 0.14660
 H32 H 0.90341 0.73614 0.19120
 H33 H 0.83039 0.73729 0.12743
 Cu34 Cu 0.86131 0.79326 0.21629
 Cu35 Cu 0.80419 0.79397 0.16597
 Cu36 Cu 0.80494 0.84754 0.22088
 N37 N 0.86182 0.82334 0.24682
 N38 N 0.83939 0.84433 0.24881
 C39 C 0.84586 0.86288 0.27082
 C40 C 0.87403 0.85300 0.28310
 C41 C 0.88342 0.82787 0.26741
 H42 H 0.83172 0.88265 0.27649
 H43 H 0.90485 0.81445 0.27029
 N44 N 0.77218 0.84700 0.19055
 N45 N 0.77187 0.82669 0.16965
 C46 C 0.74808 0.83377 0.15100
 C47 C 0.73282 0.85980 0.16065
 C48 C 0.74864 0.86750 0.18572
 H49 H 0.74322 0.82174 0.13104
 H50 H 0.74412 0.88740 0.19856
 H51 H 0.82837 0.82704 0.18475
 H52 H 0.80531 0.80258 0.21166
 N53 N 0.82096 1.25053 -0.14821
 N54 N 0.84143 1.25230 -0.17111
 C55 C 0.86058 1.27450 -0.16645
 C56 C 0.85166 1.28718 -0.13919
 C57 C 0.82635 1.27147 -0.12823
 H58 H 0.88023 1.28040 -0.18121
 H59 H 0.81333 1.27441 -0.10697
 Cu60 Cu 0.84274 1.22420 -0.20378
 Cu61 Cu 0.79037 1.21990 -0.14483
 Cu62 Cu 0.79327 1.16760 -0.20068
 N63 N 0.84499 1.19332 -0.23372
 N64 N 0.82551 1.17151 -0.23267
 C65 C 0.83345 1.15265 -0.25503
 C66 C 0.85954 1.16315 -0.27076
 C67 C 0.86612 1.18900 -0.25670
 H68 H 0.82192 1.13222 -0.25857
 H69 H 0.88554 1.20300 -0.26221
 N70 N 0.76230 1.16734 -0.16645
 N71 N 0.76129 1.18731 -0.14516
 C72 C 0.73929 1.18011 -0.12385
 C73 C 0.72583 1.15444 -0.13205
 C74 C 0.74090 1.14690 -0.15922
 H75 H 0.73415 1.19194 -0.10318
 H76 H 0.73751 1.12732 -0.17203
 H77 H 0.81762 1.18843 -0.16845
 H78 H 0.78883 1.21227 -0.19089
 N79 N 0.18892 0.75952 -0.15400
 N80 N 0.16766 0.75619 -0.17424
 C81 C 0.15062 0.73269 -0.16525
 C82 C 0.16188 0.72072 -0.13791
 C83 C 0.18614 0.73828 -0.13147
 H84 H 0.13072 0.72571 -0.17704
 H85 H 0.19996 0.73637 -0.11129
 Cu86 Cu 0.16239 0.78396 -0.20929
 Cu87 Cu 0.21693 0.79242 -0.15708
 Cu88 Cu 0.20525 0.84531 -0.21599
 N89 N 0.15415 0.81592 -0.23994
 N90 N 0.17134 0.83944 -0.24291
 C91 C 0.16008 0.85819 -0.26519
 C92 C 0.13420 0.84581 -0.27662
 C93 C 0.13115 0.81900 -0.26009
 H94 H 0.16936 0.87968 -0.27161
 H95 H 0.11306 0.80329 -0.26213
 N96 N 0.23838 0.84751 -0.18646
 N97 N 0.24290 0.82731 -0.16399
 C98 C 0.26580 0.83599 -0.14662
 C99 C 0.27603 0.86299 -0.15877
 C100 C 0.25821 0.86959 -0.18395
 H101 H 0.27350 0.82417 -0.12601
 H102 H 0.25895 0.88963 -0.19865
 H103 H 0.18525 0.82130 -0.17934
 H104 H 0.21509 0.80070 -0.20360
 C105 C 0.47086 0.96503 -0.02879
 C106 C 0.48703 0.98327 -0.01030
 C107 C 0.47048 1.00304 0.00893
 C108 C 0.43780 1.00501 0.00961
 C109 C 0.42174 0.98654 -0.00896
 C110 C 0.43814 0.96667 -0.02846
 C111 C 0.52132 0.98196 -0.01109
 C112 C 0.53761 1.00157 -0.03091
 C113 C 0.57024 1.00176 -0.03062
 C114 C 0.58645 0.98160 -0.01062
 C115 C 0.57030 0.96203 0.00958
 C116 C 0.53768 0.96212 0.00893
 H117 H 0.48381 0.94967 -0.04352
 H118 H 0.48314 1.01699 0.02328
 H119 H 0.52481 1.01703 -0.04618
 H120 H 0.52494 0.94718 0.02440
 H121 H 0.39656 0.98672 -0.00726
 H122 H 0.61168 0.98054 -0.01136
 C123 C -0.03123 0.46997 0.97789
 C124 C -0.00868 0.48491 0.99283
 C125 C 0.01331 0.46851 1.01052
 C126 C 0.01254 0.43725 1.01394
 C127 C -0.00992 0.42242 0.99854
 C128 C -0.03203 0.43865 0.98062
 C129 C -0.00825 0.51778 0.99037
 C130 C -0.02968 0.53515 1.00776
 C131 C -0.02828 0.56641 1.00700
 C132 C -0.00594 0.58021 0.98765
 C133 C 0.01574 0.56301 0.97021
 C134 C 0.01435 0.53173 0.97163
 H135 H -0.04808 0.48275 0.96408
 H136 H 0.03068 0.48020 1.02205
 H137 H -0.04686 0.52421 1.02251
 H138 H 0.03095 0.51819 0.95833
 H139 H -0.00938 0.39820 0.99953
 H140 H -0.00597 0.60440 0.98551
 C141 C 0.96862 -0.01064 0.47084
 C142 C 0.98811 0.00721 0.48646
 C143 C 1.00845 0.02604 0.47007
 C144 C 1.00967 0.02700 0.43809
 C145 C 0.98995 0.00910 0.42262
 C146 C 0.96972 -0.01016 0.43884
 C147 C 0.98800 0.00553 0.51999
 C148 C 1.01022 -0.01316 0.53510
 C149 C 1.01040 -0.01503 0.56706
 C150 C 0.98889 0.00305 0.58377
 C151 C 0.96701 0.02243 0.56879
 C152 C 0.96622 0.02300 0.53685
 H153 H 0.95305 -0.02529 0.48364
 H154 H 1.02352 0.03975 0.48228
 H155 H 1.02707 -0.02656 0.52193
 H156 H 0.94926 0.03762 0.52503
 H157 H 0.98961 0.01089 0.39797
 H158 H 0.98931 0.00218 0.60842
 C159 C 0.11271 0.29837 1.13932
 C160 C 0.11889 0.31455 1.11195
 C161 C 0.09592 0.33608 1.09754
 C162 C 0.10651 0.35770 1.07595
 C163 C 0.08536 0.37703 1.06029
 C164 C 0.05306 0.37491 1.06582
 C165 C 0.04249 0.35329 1.08741
 C166 C 0.06362 0.33410 1.10316
 C167 C 0.02975 0.39328 1.04819
 C168 C 0.03598 0.42047 1.03281
 H169 H 0.14138 0.31138 1.10034
 H170 H 0.13125 0.35936 1.07086
 H171 H 0.09441 0.39282 1.04322
 H172 H 0.01773 0.35093 1.09178
 H173 H 0.05444 0.31713 1.11885
 H174 H 0.00632 0.38539 1.04814
 H175 H 0.09147 0.30355 1.15244
 H176 H 0.05791 0.43065 1.03593
 C177 C -0.10958 0.70296 1.13855
 C178 C -0.12016 0.68953 1.11304
 C179 C -0.10004 0.66868 1.09484
 C180 C -0.11377 0.64769 1.07736
 C181 C -0.09526 0.62842 1.05918
 C182 C -0.06260 0.63005 1.05801
 C183 C -0.04899 0.65133 1.07516
 C184 C -0.06742 0.67042 1.09339
 C185 C -0.04195 0.61123 1.03818
 C186 C -0.05022 0.58428 1.02655
 H187 H -0.14397 0.69417 1.10626
 H188 H -0.13889 0.64628 1.07771
 H189 H -0.10668 0.61290 1.04562
 H190 H -0.02394 0.65338 1.07428
 H191 H -0.05601 0.68702 1.10560
 H192 H -0.01838 0.61830 1.03387
 H193 H -0.08682 0.69638 1.14712
 H194 H -0.07215 0.57485 1.03370
 C195 C -0.13225 0.31076 0.87550
 C196 C -0.14016 0.31925 0.90512
 C197 C -0.12209 0.34028 0.92169
 C198 C -0.12244 0.33780 0.95368
 C199 C -0.10458 0.35624 0.97019
 C200 C -0.08652 0.37800 0.95511
 C201 C -0.08677 0.38109 0.92307
 C202 C -0.10445 0.36243 0.90652
 C203 C -0.06622 0.39554 0.97331
 C204 C -0.05501 0.42323 0.96339
 H205 H -0.15871 0.30816 0.91774
 H206 H -0.13597 0.32103 0.96592
 H207 H -0.10469 0.35334 0.99484
 H208 H -0.07271 0.39726 0.91063
 H209 H -0.10420 0.36547 0.88192
 H210 H -0.06042 0.38647 0.99582
 H211 H -0.11245 0.32013 0.86325
 H212 H -0.06402 0.43449 0.94295
 C213 C 0.14908 0.69689 0.88236
 C214 C 0.12474 0.67977 0.87399
 C215 C 0.10833 0.65896 0.89552
 C216 C 0.09088 0.63663 0.88384
 C217 C 0.07311 0.61809 0.90338
 C218 C 0.07231 0.62171 0.93507
 C219 C 0.08991 0.64391 0.94674
 C220 C 0.10778 0.66232 0.92726
 C221 C 0.05154 0.60467 0.95630
 C222 C 0.03928 0.57742 0.94979
 H223 H 0.11713 0.68178 0.85070
 H224 H 0.09056 0.63387 0.85946
 H225 H 0.05919 0.60180 0.89343
 H226 H 0.08933 0.64742 0.97103
 H227 H 0.12008 0.67983 0.93714
 H228 H 0.04592 0.61396 0.97830
 H229 H 0.15895 0.69324 0.90464
 H230 H 0.04790 0.56571 0.92991
 C231 C 1.14084 0.11404 0.29634
 C232 C 1.11396 0.12221 0.31348
 C233 C 1.09787 0.10110 0.33493
 C234 C 1.07809 0.11254 0.35820
 C235 C 1.06100 0.09333 0.37763
 C236 C 1.06320 0.06222 0.37394
 C237 C 1.08286 0.05081 0.35059
 C238 C 1.10010 0.06997 0.33131
 C239 C 1.04381 0.04130 0.39245
 C240 C 1.03089 0.04749 0.42127
 H241 H 1.10412 0.14493 0.31126
 H242 H 1.07556 0.13647 0.36110
 H243 H 1.04537 0.10305 0.39476
 H244 H 1.08455 0.02697 0.34697
 H245 H 1.11422 0.06035 0.31300
 H246 H 1.04032 0.01970 0.38326
 H247 H 1.15241 0.09231 0.30076
 H248 H 1.03760 0.06710 0.43253
 C249 C 1.11383 -0.14198 0.70151
 C250 C 1.11869 -0.11485 0.68539
 C251 C 1.09541 -0.09983 0.66505
 C252 C 1.10544 -0.07931 0.64207
 C253 C 1.08388 -0.06317 0.62378
 C254 C 1.05174 -0.06709 0.62840
 C255 C 1.04172 -0.08756 0.65141
 C256 C 1.06328 -0.10388 0.66950
 C257 C 1.02805 -0.04875 0.61126
 C258 C 1.03390 -0.03512 0.58250
 H259 H 1.14053 -0.10411 0.68735
 H260 H 1.13004 -0.07547 0.63851
 H261 H 1.09243 -0.04697 0.60686
 H262 H 1.01706 -0.09064 0.65570
 H263 H 1.05459 -0.11878 0.68760
 H264 H 1.00474 -0.04664 0.62143
 H265 H 1.09347 -0.15426 0.69715
 H266 H 1.05566 -0.04038 0.57025
 C267 C 0.89122 -0.13394 0.30491
 C268 C 0.88068 -0.10831 0.31998
 C269 C 0.90067 -0.09242 0.34007
 C270 C 0.88669 -0.07468 0.36282
 C271 C 0.90492 -0.05822 0.38115
 C272 C 0.93756 -0.05903 0.37681
 C273 C 0.95146 -0.07655 0.35386
 C274 C 0.93329 -0.09315 0.33573
 C275 C 0.95768 -0.04062 0.39429
 C276 C 0.94921 -0.02942 0.42277
 H277 H 0.85690 -0.09962 0.31736
 H278 H 0.86156 -0.07339 0.36627
 H279 H 0.89328 -0.04428 0.39799
 H280 H 0.97650 -0.07716 0.34972
 H281 H 0.94483 -0.10572 0.31774
 H282 H 0.98081 -0.03676 0.38475
 H283 H 0.91388 -0.14428 0.31001
 H284 H 0.92798 -0.03631 0.43448
 C285 C 0.87753 0.14993 0.70591
 C286 C 0.86987 0.12345 0.69285
 C287 C 0.89113 0.10727 0.67126
 C288 C 0.87870 0.08813 0.65085
 C289 C 0.89834 0.07127 0.63133
 C290 C 0.93090 0.07305 0.63215
 C291 C 0.94331 0.09201 0.65273
 C292 C 0.92370 0.10903 0.67202
 C293 C 0.95263 0.05417 0.61346
 C294 C 0.94476 0.04205 0.58614
 H295 H 0.84744 0.11418 0.69834
 H296 H 0.85371 0.08602 0.65020
 H297 H 0.88798 0.05624 0.61640
 H298 H 0.96833 0.09340 0.65413
 H299 H 0.93421 0.12273 0.68815
 H300 H 0.97634 0.05072 0.62097
 H301 H 0.89850 0.16076 0.69803
 H302 H 0.92263 0.04860 0.57615
 C303 C 0.29748 1.13375 0.10273
 C304 C 0.31501 1.10756 0.11037
 C305 C 0.33557 1.09137 0.08816
 C306 C 0.35960 1.07176 0.09902
 C307 C 0.37837 1.05482 0.07886
 C308 C 0.37327 1.05704 0.04733
 C309 C 0.34912 1.07651 0.03650
 C310 C 0.33050 1.09359 0.05662
 C311 C 0.39125 1.03811 0.02544
 C312 C 0.42102 1.02544 0.03090
 H313 H 0.31395 1.09856 0.13369
 H314 H 0.36367 1.06930 0.12325
 H315 H 0.39612 1.03939 0.08820
 H316 H 0.34441 1.07828 0.01237
 H317 H 0.31158 1.10769 0.04743
 H318 H 0.38100 1.03494 0.00370
 H319 H 0.30040 1.14458 0.08034
 H320 H 0.43317 1.03172 0.05065
 C321 C 0.70305 1.13756 -0.11329
 C322 C 0.69004 1.11179 -0.12294
 C323 C 0.67002 1.09296 -0.10262
 C324 C 0.64846 1.07501 -0.11542
 C325 C 0.63002 1.05622 -0.09679
 C326 C 0.63310 1.05486 -0.06493
 C327 C 0.65500 1.07247 -0.05223
 C328 C 0.67322 1.09137 -0.07080
 C329 C 0.61530 1.03426 -0.04440
 C330 C 0.58692 1.02283 -0.05163
 H331 H 0.69424 1.10534 -0.14626
 H332 H 0.64596 1.07546 -0.13992
 H333 H 0.61406 1.04230 -0.10749
 H334 H 0.65820 1.07144 -0.02782
 H335 H 0.69037 1.10403 -0.06017
 H336 H 0.62431 1.02905 -0.02194
 H337 H 0.69667 1.14572 -0.09097
 H338 H 0.57556 1.03092 -0.07224
 C339 C 0.29848 0.88271 -0.14638
 C340 C 0.31610 0.87429 -0.12101
 C341 C 0.33631 0.89495 -0.10637
 C342 C 0.36064 0.88296 -0.08835
 C343 C 0.37932 0.90176 -0.07307
 C344 C 0.37382 0.93304 -0.07537
 C345 C 0.34928 0.94500 -0.09313
 C346 C 0.33074 0.92623 -0.10854
 C347 C 0.39177 0.95366 -0.05814
 C348 C 0.42163 0.94649 -0.04754
 H349 H 0.31547 0.85151 -0.11164
 H350 H 0.36506 0.85893 -0.08589
 H351 H 0.39735 0.89163 -0.05883
 H352 H 0.34422 0.96898 -0.09485
 H353 H 0.31156 0.93631 -0.12132
 H354 H 0.38133 0.97582 -0.05459
 H355 H 0.30088 0.90453 -0.15764
 H356 H 0.43396 0.92609 -0.05445
 C357 C 0.70797 0.87827 0.14567
 C358 C 0.69330 0.86943 0.11991
 C359 C 0.67201 0.88980 0.10190
 C360 C 0.65032 0.87761 0.08338
 C361 C 0.63114 0.89627 0.06476
 C362 C 0.63355 0.92754 0.06417
 C363 C 0.65538 0.93966 0.08255
 C364 C 0.67436 0.92107 0.10127
 C365 C 0.61531 0.94806 0.04341
 C366 C 0.58712 0.94112 0.03113
 H367 H 0.69758 0.84679 0.11251
 H368 H 0.64844 0.85357 0.08308
 H369 H 0.61523 0.88605 0.05025
 H370 H 0.65803 0.96364 0.08214
 H371 H 0.69151 0.93129 0.11438
 H372 H 0.62394 0.97018 0.03859
 H373 H 0.70169 0.89982 0.15497
 H374 H 0.57605 0.92079 0.03886
   
