data_POSCAR
  _audit_creation_date              2014-09-24
  _audit_creation_method            'ToBaCCo'
  _symmetry_space_group_name_H-M    'P1'
  _symmetry_Int_Tables_number       1
  _symmetry_cell_setting            triclinic
  loop_
  _symmetry_equiv_pos_as_xyz
 x,y,z
_cell_length_a 23.2364
_cell_length_b 23.2552
_cell_length_c 23.1308
_cell_angle_alpha 81.222100
_cell_angle_beta 96.040300
_cell_angle_gamma 87.309400
loop_
  _atom_site_label
  _atom_site_type_symbol
  _atom_site_fract_x
  _atom_site_fract_y
  _atom_site_fract_z
C1 C 0.60193 0.38270 -0.05756
 C2 C 0.64153 0.42237 -0.04538
 C3 C 0.61611 0.45791 -0.01085
 N4 N 0.56203 0.44219 -0.00270
 C5 C 0.55349 0.39594 -0.03076
 C6 C 0.64315 0.50173 0.01614
 C7 C 0.60893 0.54579 0.03503
 C8 C 0.62638 0.57619 0.08029
 C9 C 0.58211 0.61693 0.08215
 C10 C 0.53958 0.61130 0.03704
 N11 N 0.55509 0.56626 0.01000
 C12 C 0.48813 0.64779 0.02067
 C13 C 0.43488 0.61977 0.01753
 C14 C 0.38202 0.64210 0.03032
 C15 C 0.34333 0.60006 0.02546
 C16 C 0.37389 0.55210 0.01229
 N17 N 0.43011 0.56366 0.00906
 C18 C 0.34971 0.49807 0.00720
 C19 C 0.38252 0.44602 0.00337
 C20 C 0.36219 0.39044 0.01222
 C21 C 0.40622 0.35219 0.00420
 C22 C 0.45192 0.38516 -0.01122
 N23 N 0.43729 0.44233 -0.01131
 C24 C 0.50442 0.36269 -0.02769
 H25 H 0.60809 0.34803 -0.08308
 H26 H 0.68414 0.42464 -0.06017
 H27 H 0.46114 0.47712 -0.02640
 H28 H 0.66658 0.56929 0.10937
 H29 H 0.58139 0.64743 0.11307
 H30 H 0.37266 0.68253 0.04618
 H31 H 0.29855 0.60330 0.03426
 H32 H 0.40427 0.30535 0.00916
 H33 H 0.53267 0.55419 -0.02737
 H34 H 0.32027 0.37771 0.02370
 C35 C -0.04271 0.58888 0.64823
 C36 C -0.03765 0.63530 0.60542
 C37 C -0.01337 0.61350 0.56016
 N38 N -0.00557 0.55470 0.57340
 C39 C -0.02396 0.53956 0.62705
 C40 C 0.00269 0.64757 0.50843
 C41 C 0.01796 0.62165 0.46000
 C42 C 0.05187 0.64646 0.41801
 C43 C 0.05314 0.61008 0.37661
 C44 C 0.02059 0.56364 0.39466
 N45 N -0.00042 0.57074 0.44580
 C46 C 0.00895 0.51764 0.36257
 C47 C -0.01070 0.46436 0.38863
 C48 C -0.02965 0.42054 0.35836
 C49 C -0.03778 0.37399 0.40002
 C50 C -0.02466 0.39127 0.45448
 N51 N -0.00788 0.44648 0.44729
 C52 C -0.02257 0.35459 0.50939
 C53 C -0.01530 0.37493 0.56429
 C54 C -0.00566 0.33936 0.61873
 C55 C -0.00486 0.37527 0.66075
 C56 C -0.01413 0.43202 0.63110
 N57 N -0.02110 0.43128 0.57233
 C58 C -0.02126 0.48207 0.65838
 H59 H -0.05935 0.59169 0.68967
 H60 H -0.05124 0.67990 0.60776
 H61 H -0.03537 0.46650 0.53993
 H62 H 0.07352 0.68673 0.41727
 H63 H 0.07568 0.61697 0.33774
 H64 H -0.03587 0.42146 0.31119
 H65 H -0.05089 0.33202 0.39081
 H66 H 0.00028 0.36071 0.70779
 H67 H -0.03084 0.54589 0.46633
 H68 H -0.00119 0.29224 0.62767
 C69 C 0.36364 -0.02873 0.58793
 C70 C 0.40803 -0.02958 0.63219
 C71 C 0.45467 -0.00645 0.60592
 N72 N 0.44080 0.00711 0.54711
 C73 C 0.38495 -0.00573 0.53621
 C74 C 0.50761 0.00655 0.63570
 C75 C 0.55795 0.01134 0.60611
 C76 C 0.60546 0.04230 0.62110
 C77 C 0.64574 0.03286 0.58356
 C78 C 0.62183 -0.00370 0.54673
 N79 N 0.56784 -0.01564 0.56000
 C80 C 0.64921 -0.02572 0.50205
 C81 C 0.61466 -0.04198 0.45374
 C82 C 0.63277 -0.07838 0.41601
 C83 C 0.58832 -0.07649 0.37167
 C84 C 0.54435 -0.03968 0.38428
 N85 N 0.56016 -0.01917 0.43479
 C86 C 0.49335 -0.01985 0.34647
 C87 C 0.44396 0.00242 0.36843
 C88 C 0.39691 0.03496 0.33531
 C89 C 0.35652 0.04276 0.37352
 C90 C 0.38034 0.01497 0.42878
 N91 N 0.43367 -0.00904 0.42527
 C92 C 0.35232 0.00827 0.48046
 H93 H 0.32064 -0.04321 0.59320
 H94 H 0.40607 -0.04504 0.67846
 H95 H 0.45907 -0.03721 0.45869
 H96 H 0.61034 0.06971 0.65490
 H97 H 0.68731 0.05190 0.58277
 H98 H 0.67391 -0.10321 0.41964
 H99 H 0.58851 -0.09916 0.33415
 H100 H 0.31452 0.06611 0.36185
 H101 H 0.54113 -0.04478 0.54197
 H102 H 0.39193 0.05117 0.28855
 O103 O 0.45735 0.01854 -0.10011
 O104 O 0.44999 0.00482 0.05939
 O105 O 0.45766 0.09173 -0.02742
 O106 O 0.45103 -0.06774 -0.01617
 O107 O 0.54641 -0.07833 0.00199
 O108 O 0.55327 0.08113 -0.01197
 O109 O 0.54567 -0.00304 0.07432
 O110 O 0.55287 0.00608 -0.08423
 Cu111 Cu 0.44430 0.01294 -0.02219
 Cu112 Cu 0.55912 0.00041 -0.00322
 C113 C 0.50636 0.01464 -0.11929
 C114 C 0.49678 -0.00171 0.09406
 C115 C 0.50672 0.11365 -0.02312
 C116 C 0.49761 -0.10030 -0.00523
 O117 O -0.08743 0.54742 1.00357
 O118 O 0.06957 0.54647 0.99157
 O119 O -0.02238 0.53589 0.91957
 O120 O 0.00366 0.55829 1.07480
 O121 O 0.01108 0.46286 1.10334
 O122 O -0.00930 0.44069 0.94847
 O123 O 0.07796 0.45178 1.02467
 O124 O -0.07928 0.45187 1.02978
 Cu125 Cu -0.01006 0.55659 0.99427
 Cu126 Cu 0.00028 0.44210 1.02903
 C127 C -0.11006 0.49969 1.01923
 C128 C 0.10054 0.49902 1.00726
 C129 C -0.01879 0.48438 0.90773
 C130 C 0.01181 0.51430 1.11543
 O131 O -0.00151 -0.06967 0.44784
 O132 O -0.01788 0.08850 0.45024
 O133 O 0.06869 0.01503 0.43981
 O134 O -0.08641 0.00382 0.45112
 O135 O -0.06978 -0.01329 0.54813
 O136 O 0.08670 0.00204 0.53678
 O137 O 0.00013 0.07182 0.54734
 O138 O 0.01843 -0.08468 0.54462
 Cu139 Cu -0.01058 0.01130 0.43744
 Cu140 Cu 0.01078 -0.00764 0.55393
 C141 C 0.01000 -0.10419 0.49633
 C142 C -0.01180 0.10673 0.49947
 C143 C 0.10410 0.01102 0.48606
 C144 C -0.10471 -0.00783 0.50108
 C145 C -0.26630 0.55252 1.02084
 C146 C -0.29544 0.50077 1.02619
 C147 C -0.26032 0.44801 1.04122
 C148 C -0.19968 0.44761 1.04131
 C149 C -0.17246 0.49990 1.02643
 C150 C -0.20664 0.55208 1.02050
 C151 C -0.21082 0.60522 0.97468
 C152 C -0.27624 0.60583 0.97512
 H153 H -0.27974 0.40672 1.05103
 H154 H -0.17471 0.40610 1.05004
 H155 H -0.19629 0.59618 0.93247
 H156 H -0.19145 0.64286 0.99202
 H157 H -0.29971 0.59724 0.93317
 H158 H -0.29441 0.64377 0.99275
 C159 C 0.26011 0.46263 1.05012
 C160 C 0.28570 0.49604 1.00546
 C161 C 0.24868 0.52727 0.95753
 C162 C 0.18801 0.52875 0.95777
 C163 C 0.16343 0.49785 1.00533
 C164 C 0.20046 0.46252 1.04953
 C165 C 0.20446 0.45981 1.11482
 C166 C 0.26996 0.45996 1.11516
 H167 H 0.26682 0.55221 0.92109
 H168 H 0.16049 0.55454 0.92141
 H169 H 0.18992 0.41808 1.13705
 H170 H 0.18470 0.49971 1.12787
 H171 H 0.29311 0.41825 1.13741
 H172 H 0.28830 0.50005 1.12814
 C173 C 0.02437 -0.26533 0.55342
 C174 C 0.00389 -0.29099 0.50483
 C175 C -0.01759 -0.25252 0.45262
 C176 C -0.01451 -0.19176 0.44905
 C177 C 0.01006 -0.16768 0.49756
 C178 C 0.02685 -0.20559 0.55016
 C179 C 0.08299 -0.21192 0.58914
 C180 C 0.08009 -0.27751 0.59278
 H181 H -0.03707 -0.26932 0.41448
 H182 H -0.03134 -0.16380 0.40839
 H183 H 0.07844 -0.19661 0.63177
 H184 H 0.11942 -0.19423 0.56585
 H185 H 0.07373 -0.29991 0.63744
 H186 H 0.11480 -0.29801 0.57157
 C187 C 0.02748 0.25503 0.52612
 C188 C -0.02288 0.29096 0.50927
 C189 C -0.07282 0.26371 0.48908
 C190 C -0.06973 0.20330 0.48469
 C191 C -0.01700 0.16908 0.50171
 C192 C 0.03000 0.19724 0.52331
 C193 C 0.09356 0.18942 0.54170
 C194 C 0.09076 0.25524 0.54487
 H195 H -0.11348 0.28925 0.47543
 H196 H -0.10820 0.18354 0.46839
 H197 H 0.11812 0.17763 0.50602
 H198 H 0.10416 0.16130 0.58527
 H199 H 0.11368 0.28117 0.51099
 H200 H 0.09992 0.26522 0.59029
 C201 C 0.55944 -0.00003 -0.26485
 C202 C 0.50993 0.01689 -0.30528
 C203 C 0.46263 0.04452 -0.28401
 C204 C 0.46215 0.04595 -0.22354
 C205 C 0.50936 0.02081 -0.18298
 C206 C 0.55925 0.00204 -0.20536
 C207 C 0.59627 -0.05340 -0.18802
 C208 C 0.59654 -0.05569 -0.25332
 H209 H 0.42502 0.06330 -0.31370
 H210 H 0.42389 0.06446 -0.20845
 H211 H 0.57313 -0.08913 -0.16467
 H212 H 0.63954 -0.04627 -0.16579
 H213 H 0.57354 -0.09272 -0.26798
 H214 H 0.63998 -0.04991 -0.26862
 C215 C 0.54239 -0.00165 0.25477
 C216 C 0.49394 -0.01966 0.28212
 C217 C 0.44768 -0.03878 0.24673
 C218 C 0.44799 -0.03298 0.18510
 C219 C 0.49521 -0.00931 0.15814
 C220 C 0.54340 0.00271 0.19466
 C221 C 0.57639 0.05648 0.19209
 C222 C 0.57550 0.05127 0.25828
 H223 H 0.41057 -0.05619 0.26633
 H224 H 0.41111 -0.04605 0.15862
 H225 H 0.55060 0.09552 0.16710
 H226 H 0.62055 0.04938 0.17906
 H227 H 0.54950 0.08740 0.27162
 H228 H 0.61907 0.04062 0.28344
 C229 C 0.54190 -0.26220 0.02795
 C230 C 0.49023 -0.28955 0.01380
 C231 C 0.44183 -0.25083 -0.01169
 C232 C 0.44341 -0.18996 -0.01573
 C233 C 0.49487 -0.16437 0.00075
 C234 C 0.54385 -0.20159 0.02222
 C235 C 0.60077 -0.20153 -0.00189
 C236 C 0.59894 -0.26693 0.00321
 H237 H 0.40307 -0.26629 -0.03241
 H238 H 0.40490 -0.16283 -0.03485
 H239 H 0.63565 -0.18770 0.02874
 H240 H 0.59797 -0.17893 -0.04819
 H241 H 0.63428 -0.28994 0.03575
 H242 H 0.59478 -0.28252 -0.04008
 C243 C 0.55661 0.26319 -0.00787
 C244 C 0.51008 0.30061 -0.03711
 C245 C 0.46739 0.27593 -0.07213
 C246 C 0.46678 0.21485 -0.06896
 C247 C 0.50997 0.17754 -0.03234
 C248 C 0.55699 0.20333 -0.00610
 C249 C 0.58550 0.19195 0.05584
 C250 C 0.58528 0.25766 0.05364
 H251 H 0.43211 0.30341 -0.09818
 H252 H 0.43127 0.19684 -0.09302
 H253 H 0.62978 0.17056 0.05928
 H254 H 0.55681 0.17078 0.08710
 H255 H 0.62942 0.27424 0.05530
 H256 H 0.55669 0.27445 0.08380
 C257 C -0.26321 -0.01716 0.45096
 C258 C -0.28932 -0.02781 0.50323
 C259 C -0.25114 -0.03992 0.55632
 C260 C -0.19077 -0.03453 0.55631
 C261 C -0.16700 -0.01694 0.50325
 C262 C -0.20420 -0.01193 0.45096
 C263 C -0.21227 0.03544 0.39888
 C264 C -0.27712 0.02965 0.39873
 H265 H -0.26785 -0.05255 0.59806
 H266 H -0.16322 -0.04231 0.59784
 H267 H -0.19497 0.02163 0.35978
 H268 H -0.19803 0.07793 0.40971
 H269 H -0.29692 0.01244 0.35953
 H270 H -0.30068 0.06876 0.40933
 C271 C 0.25157 -0.00544 0.43455
 C272 C 0.28791 0.01746 0.47637
 C273 C 0.26085 0.04816 0.51553
 C274 C 0.20056 0.04724 0.51823
 C275 C 0.16595 0.01747 0.48034
 C276 C 0.19203 -0.00474 0.43590
 C277 C 0.18893 -0.06336 0.41727
 C278 C 0.25427 -0.06396 0.41579
 H279 H 0.28666 0.06975 0.54649
 H280 H 0.18141 0.06798 0.55114
 H281 H 0.16436 -0.06109 0.37299
 H282 H 0.17550 -0.09697 0.45200
 H283 H 0.26727 -0.06189 0.37067
 H284 H 0.27884 -0.09780 0.44974
 C285 C -0.00647 0.56970 1.25773
 C286 C 0.02086 0.52430 1.29988
 C287 C 0.05707 0.48283 1.27996
 C288 C 0.05701 0.48149 1.21927
 C289 C 0.02204 0.52260 1.17747
 C290 C -0.00558 0.56913 1.19783
 C291 C -0.06671 0.59424 1.18386
 C292 C -0.06753 0.59485 1.24945
 H293 H 0.08135 0.44854 1.31122
 H294 H 0.08134 0.44623 1.20525
 H295 H -0.09654 0.56340 1.16623
 H296 H -0.06951 0.63862 1.15745
 H297 H -0.09776 0.56431 1.26995
 H298 H -0.07066 0.63956 1.26080
 C299 C 0.02425 0.45317 0.76291
 C300 C -0.02459 0.47376 0.72315
 C301 C -0.07605 0.48773 0.74696
 C302 C -0.07522 0.48950 0.80787
 C303 C -0.02348 0.47507 0.84604
 C304 C 0.02463 0.45310 0.82294
 C305 C 0.08615 0.46938 0.82914
 C306 C 0.08559 0.46934 0.76330
 H307 H -0.11562 0.50138 0.71801
 H308 H -0.11407 0.50457 0.82460
 H309 H 0.11549 0.43407 0.85640
 H310 H 0.09056 0.51333 0.84185
 H311 H 0.11445 0.43387 0.75265
 H312 H 0.08959 0.51326 0.73777
   
