data_POSCAR
  _audit_creation_date              2014-09-24
  _audit_creation_method            'ToBaCCo'
  _symmetry_space_group_name_H-M    'P1'
  _symmetry_Int_Tables_number       1
  _symmetry_cell_setting            triclinic
  loop_
  _symmetry_equiv_pos_as_xyz
 x,y,z
_cell_length_a 62.0671
_cell_length_b 62.1089
_cell_length_c 54.3295
_cell_angle_alpha 90.000300
_cell_angle_beta 89.993500
_cell_angle_gamma 120.057900
loop_
  _atom_site_label
  _atom_site_type_symbol
  _atom_site_fract_x
  _atom_site_fract_y
  _atom_site_fract_z
O1 O 0.03091 0.49413 0.00521
 O2 O -0.00060 0.52040 -0.03100
 O3 O 0.03103 0.53601 0.00547
 O4 O -0.00080 0.47851 -0.03120
 O5 O -0.03192 0.46290 -0.00478
 O6 O -0.00012 0.52039 0.03192
 O7 O -0.03175 0.50478 -0.00456
 O8 O -0.00024 0.47850 0.03166
 Cu9 Cu 0.01826 0.50882 -0.01552
 Cu10 Cu -0.01912 0.49008 0.01622
 C11 C 0.02083 0.48198 0.02475
 C12 C -0.02168 0.51690 -0.02411
 C13 C 0.02100 0.53797 0.02509
 C14 C -0.02196 0.46089 -0.02445
 O15 O 0.50596 0.53647 0.00509
 O16 O 0.47993 0.47862 -0.03103
 O17 O 0.46414 0.49455 0.00532
 O18 O 0.52172 0.52051 -0.03131
 O19 O 0.53744 0.50521 -0.00482
 O20 O 0.47986 0.47923 0.03184
 O21 O 0.49566 0.46330 -0.00452
 O22 O 0.52168 0.52115 0.03160
 Cu23 Cu 0.49137 0.50908 -0.01563
 Cu24 Cu 0.51024 0.49070 0.01618
 C25 C 0.51809 0.53864 0.02466
 C26 C 0.48353 0.46113 -0.02409
 C27 C 0.46221 0.48261 0.02496
 C28 C 0.53940 0.51712 -0.02453
 O29 O 0.52122 1.00142 -0.03037
 O30 O 0.46333 0.96980 0.00577
 O31 O 0.47946 1.00151 -0.03061
 O32 O 0.50510 0.96967 0.00598
 O33 O 0.52061 1.00072 0.03251
 O34 O 0.49497 1.03257 -0.00414
 O35 O 0.47883 1.00087 0.03228
 O36 O 0.53674 1.03249 -0.00385
 Cu37 Cu 0.49072 0.98249 -0.01495
 Cu38 Cu 0.50934 1.01976 0.01686
 C39 C 0.53881 1.02248 -0.02343
 C40 C 0.46123 0.97982 0.02533
 C41 C 0.48300 1.02264 -0.02383
 C42 C 0.51708 0.97964 0.02562
 O43 O 0.96886 0.50579 0.50440
 O44 O 1.00041 0.47982 0.46775
 O45 O 0.96870 0.46391 0.50417
 O46 O 1.00056 0.52170 0.46795
 O47 O 1.03166 0.53709 0.49439
 O48 O 0.99983 0.47931 0.53063
 O49 O 1.03154 0.49523 0.49422
 O50 O 0.99999 0.52119 0.53086
 Cu51 Cu 0.98152 0.49127 0.48342
 Cu52 Cu 1.01887 0.50975 0.51517
 C53 C 0.97891 0.51774 0.52403
 C54 C 1.02148 0.48325 0.47459
 C55 C 0.97870 0.46179 0.52373
 C56 C 1.02171 0.53926 0.47479
 O57 O 0.46339 0.49427 0.49451
 O58 O 0.52111 0.52042 0.53091
 O59 O 0.50521 0.53617 0.49447
 O60 O 0.47933 0.47850 0.53089
 O61 O 0.49495 0.46305 0.50440
 O62 O 0.52083 0.52071 0.46798
 O63 O 0.53672 0.50496 0.50443
 O64 O 0.47900 0.47881 0.46802
 Cu65 Cu 0.49069 0.50889 0.51534
 Cu66 Cu 0.50944 0.49034 0.48355
 C67 C 0.46139 0.48224 0.47491
 C68 C 0.53872 0.51698 0.52403
 C69 C 0.51727 0.53824 0.47486
 C70 C 0.48290 0.46098 0.52401
 O71 O 0.50533 -0.03106 0.49413
 O72 O 0.47900 0.00044 0.53025
 O73 O 0.46339 -0.03128 0.49388
 O74 O 0.52095 0.00069 0.53049
 O75 O 0.53650 0.03175 0.50396
 O76 O 0.47891 -0.00026 0.46738
 O77 O 0.49455 0.03151 0.50374
 O78 O 0.52088 -0.00001 0.46760
 Cu79 Cu 0.49061 -0.01841 0.51484
 Cu80 Cu 0.50926 0.01885 0.48301
 C81 C 0.51744 -0.02103 0.47456
 C82 C 0.48246 0.02148 0.52332
 C83 C 0.46132 -0.02139 0.47420
 C84 C 0.53850 0.02181 0.52362
 C85 C 0.15443 0.44019 0.26194
 C86 C 0.15442 0.44006 0.23669
 C87 C 0.17046 0.43177 0.22950
 N88 N 0.18015 0.42672 0.24948
 C89 C 0.17047 0.43198 0.26933
 C90 C 0.17513 0.42801 0.20488
 C91 C 0.19436 0.42326 0.19811
 C92 C 0.19656 0.41465 0.17522
 C93 C 0.21874 0.41469 0.17528
 C94 C 0.22947 0.42332 0.19819
 N95 N 0.21447 0.42845 0.21200
 C96 C 0.25344 0.42811 0.20508
 C97 C 0.26173 0.43180 0.22975
 C98 C 0.28602 0.44005 0.23709
 C99 C 0.28599 0.44010 0.26234
 C100 C 0.26167 0.43189 0.26958
 N101 N 0.24685 0.42670 0.24964
 C102 C 0.25332 0.42831 0.29423
 C103 C 0.22937 0.42363 0.30104
 C104 C 0.21862 0.41518 0.32398
 C105 C 0.19648 0.41524 0.32392
 C106 C 0.19433 0.42371 0.30095
 N107 N 0.21442 0.42873 0.28710
 C108 C 0.17515 0.42846 0.29403
 H109 H 0.14390 0.44580 0.27350
 H110 H 0.14389 0.44554 0.22499
 H111 H 0.21920 0.43816 0.27041
 H112 H 0.18370 0.40928 0.15993
 H113 H 0.22630 0.40935 0.16004
 H114 H 0.30213 0.44556 0.22549
 H115 H 0.30207 0.44565 0.27399
 H116 H 0.18362 0.41000 0.33920
 H117 H 0.21921 0.43800 0.22863
 H118 H 0.22613 0.40991 0.33931
 C119 C 0.55900 0.71370 0.26212
 C120 C 0.55901 0.71377 0.23688
 C121 C 0.56724 0.73808 0.22966
 N122 N 0.57238 0.75286 0.24962
 C123 C 0.56723 0.73796 0.26949
 C124 C 0.57089 0.74647 0.20502
 C125 C 0.57558 0.77041 0.19824
 C126 C 0.58408 0.78120 0.17532
 C127 C 0.58405 0.80333 0.17539
 C128 C 0.57554 0.80545 0.19836
 N129 N 0.57045 0.78534 0.21217
 C130 C 0.57082 0.82465 0.20530
 C131 C 0.56725 0.82928 0.23000
 C132 C 0.55907 0.84533 0.23739
 C133 C 0.55916 0.84531 0.26264
 C134 C 0.56739 0.82923 0.26982
 N135 N 0.57245 0.81956 0.24984
 C136 C 0.57111 0.82452 0.29445
 C137 C 0.57580 0.80528 0.30121
 C138 C 0.58438 0.80303 0.32409
 C139 C 0.58430 0.78085 0.32402
 C140 C 0.57569 0.77016 0.30109
 N141 N 0.57060 0.78519 0.28729
 C142 C 0.57087 0.74621 0.29418
 H143 H 0.55347 0.69758 0.27370
 H144 H 0.55349 0.69773 0.22519
 H145 H 0.56107 0.78048 0.27065
 H146 H 0.58939 0.77371 0.15999
 H147 H 0.58933 0.81621 0.16014
 H148 H 0.55351 0.85590 0.22583
 H149 H 0.55368 0.85585 0.27434
 H150 H 0.58961 0.77326 0.33926
 H151 H 0.56100 0.78056 0.22885
 H152 H 0.58976 0.81586 0.33940
 C153 C 0.15468 0.71365 0.26304
 C154 C 0.15459 0.71362 0.23779
 C155 C 0.17055 0.73793 0.23046
 N156 N 0.18027 0.75281 0.25035
 C157 C 0.17070 0.73797 0.27029
 C158 C 0.17511 0.74624 0.20579
 C159 C 0.19420 0.77026 0.19891
 C160 C 0.19620 0.78098 0.17602
 C161 C 0.21830 0.80324 0.17597
 C162 C 0.22917 0.80548 0.19882
 N163 N 0.21434 0.78533 0.21271
 C164 C 0.25314 0.82479 0.20558
 C165 C 0.26161 0.82946 0.23019
 C166 C 0.28595 0.84557 0.23736
 C167 C 0.28610 0.84553 0.26261
 C168 C 0.26185 0.82941 0.27002
 N169 N 0.24688 0.81970 0.25018
 C170 C 0.25367 0.82468 0.29472
 C171 C 0.22974 0.80543 0.30165
 C172 C 0.21909 0.80321 0.32463
 C173 C 0.19693 0.78102 0.32468
 C174 C 0.19466 0.77030 0.30174
 N175 N 0.21471 0.78531 0.28780
 C176 C 0.17544 0.74632 0.29494
 H177 H 0.14422 0.69756 0.27470
 H178 H 0.14405 0.69751 0.22619
 H179 H 0.21941 0.78059 0.27111
 H180 H 0.18328 0.77338 0.16080
 H181 H 0.22571 0.81612 0.16069
 H182 H 0.30197 0.85617 0.22565
 H183 H 0.30227 0.85610 0.27415
 H184 H 0.18413 0.77346 0.34001
 H185 H 0.21922 0.78062 0.22931
 H186 H 0.22668 0.81607 0.33990
 C187 C 0.71317 0.55788 0.73743
 C188 C 0.71313 0.55788 0.76268
 C189 C 0.73742 0.56613 0.77001
 N190 N 0.75230 0.57128 0.75012
 C191 C 0.73749 0.56612 0.73018
 C192 C 0.74571 0.56979 0.79468
 C193 C 0.76969 0.57460 0.80156
 C194 C 0.78041 0.58321 0.82448
 C195 C 0.80261 0.58329 0.82452
 C196 C 0.80483 0.57472 0.80162
 N197 N 0.78472 0.56952 0.78773
 C198 C 0.82409 0.57004 0.79483
 C199 C 0.82881 0.56638 0.77019
 C200 C 0.84494 0.55821 0.76295
 C201 C 0.84496 0.55817 0.73771
 C202 C 0.82885 0.56632 0.73036
 N203 N 0.81911 0.57145 0.75024
 C204 C 0.82419 0.56990 0.70568
 C205 C 0.80495 0.57458 0.69878
 C206 C 0.80278 0.58309 0.67584
 C207 C 0.78060 0.58306 0.67580
 C208 C 0.76983 0.57452 0.69872
 N209 N 0.78481 0.56944 0.71263
 C210 C 0.74586 0.56977 0.70553
 H211 H 0.69710 0.55233 0.72577
 H212 H 0.69701 0.55234 0.77428
 H213 H 0.78005 0.55997 0.72930
 H214 H 0.77283 0.58852 0.83974
 H215 H 0.81546 0.58866 0.83981
 H216 H 0.85551 0.55275 0.77462
 H217 H 0.85556 0.55267 0.72611
 H218 H 0.77307 0.58835 0.66050
 H219 H 0.78000 0.56001 0.77109
 H220 H 0.81566 0.58841 0.66057
 C221 C 0.41834 0.27477 0.76273
 C222 C 0.41831 0.27478 0.73748
 C223 C 0.42508 0.25760 0.73017
 N224 N 0.42922 0.24711 0.75005
 C225 C 0.42512 0.25759 0.76998
 C226 C 0.42945 0.25347 0.70558
 C227 C 0.43325 0.23372 0.69850
 C228 C 0.44285 0.23206 0.67598
 C229 C 0.44280 0.20990 0.67596
 C230 C 0.43318 0.19862 0.69847
 N231 N 0.42724 0.21318 0.71204
 C232 C 0.42929 0.17502 0.70552
 C233 C 0.42496 0.16650 0.73010
 C234 C 0.41816 0.14253 0.73738
 C235 C 0.41824 0.14255 0.76262
 C236 C 0.42508 0.16652 0.76991
 N237 N 0.42916 0.18113 0.75001
 C238 C 0.42954 0.17507 0.79448
 C239 C 0.43342 0.19867 0.80154
 C240 C 0.44313 0.20998 0.82402
 C241 C 0.44313 0.23211 0.82403
 C242 C 0.43343 0.23373 0.80157
 N243 N 0.42739 0.21319 0.78803
 C244 C 0.42956 0.25345 0.79454
 H245 H 0.41420 0.28635 0.77441
 H246 H 0.41415 0.28637 0.72584
 H247 H 0.41749 0.20825 0.77158
 H248 H 0.44931 0.24545 0.66111
 H249 H 0.44922 0.20296 0.66107
 H250 H 0.41394 0.12677 0.72572
 H251 H 0.41409 0.12680 0.77428
 H252 H 0.44963 0.24551 0.83890
 H253 H 0.41741 0.20826 0.72853
 H254 H 0.44963 0.20306 0.83886
 C255 C 0.72462 0.14366 0.76277
 C256 C 0.72454 0.14364 0.73752
 C257 C 0.74173 0.16760 0.73020
 N258 N 0.75231 0.18224 0.75008
 C259 C 0.74186 0.16763 0.77001
 C260 C 0.74582 0.17611 0.70562
 C261 C 0.76559 0.19970 0.69852
 C262 C 0.76721 0.21097 0.67602
 C263 C 0.78939 0.23310 0.67597
 C264 C 0.80074 0.23476 0.69844
 N265 N 0.78619 0.21424 0.71201
 C266 C 0.82439 0.25448 0.70543
 C267 C 0.83299 0.25864 0.72999
 C268 C 0.85701 0.27582 0.73721
 C269 C 0.85708 0.27586 0.76245
 C270 C 0.83310 0.25870 0.76979
 N271 N 0.81840 0.24819 0.74993
 C272 C 0.82462 0.25460 0.79439
 C273 C 0.80101 0.23487 0.80151
 C274 C 0.78978 0.23324 0.82404
 C275 C 0.76761 0.21110 0.82409
 C276 C 0.76589 0.19979 0.80159
 N277 N 0.78641 0.21432 0.78800
 C278 C 0.74610 0.17618 0.79458
 H279 H 0.71305 0.12791 0.77445
 H280 H 0.71289 0.12788 0.72589
 H281 H 0.79128 0.20937 0.77151
 H282 H 0.75377 0.20404 0.66119
 H283 H 0.79632 0.24648 0.66109
 H284 H 0.87276 0.28738 0.72551
 H285 H 0.87288 0.28745 0.77407
 H286 H 0.75424 0.20417 0.83899
 H287 H 0.79114 0.20932 0.72846
 H288 H 0.79677 0.24665 0.83889
 C289 C 0.03667 0.45188 0.07705
 C290 C 0.06042 0.45675 0.07016
 C291 C 0.07081 0.46897 0.04794
 C292 C 0.05770 0.47670 0.03287
 C293 C 0.03401 0.47235 0.03988
 C294 C 0.02352 0.45960 0.06201
 C295 C 0.07464 0.45035 0.08645
 C296 C 0.08683 0.44565 0.10039
 C297 C 0.10140 0.44088 0.11704
 C298 C 0.11408 0.43743 0.13151
 C299 C 0.12949 0.43409 0.14911
 C300 C 0.11877 0.41495 0.16656
 C301 C 0.13366 0.41263 0.18448
 C302 C 0.15939 0.42951 0.18513
 C303 C 0.17009 0.44840 0.16733
 C304 C 0.15520 0.45068 0.14942
 H305 H 0.02850 0.44251 0.09426
 H306 H 0.08922 0.47290 0.04247
 H307 H 0.06631 0.48647 0.01596
 H308 H 0.00534 0.45596 0.06794
 H309 H 0.09889 0.40206 0.16652
 H310 H 0.12513 0.39794 0.19805
 H311 H 0.18989 0.46160 0.16762
 H312 H 0.16367 0.46559 0.13606
 C313 C 0.53061 0.60144 0.04788
 C314 C 0.54282 0.60337 0.07012
 C315 C 0.54787 0.58463 0.07701
 C316 C 0.54033 0.56381 0.06194
 C317 C 0.52757 0.56144 0.03979
 C318 C 0.52305 0.58064 0.03279
 C319 C 0.54904 0.62393 0.08644
 C320 C 0.55361 0.64077 0.10041
 C321 C 0.55824 0.66004 0.11709
 C322 C 0.56159 0.67611 0.13159
 C323 C 0.56487 0.69481 0.14923
 C324 C 0.58406 0.70334 0.16663
 C325 C 0.58635 0.72052 0.18457
 C326 C 0.56938 0.72922 0.18528
 C327 C 0.55042 0.72091 0.16755
 C328 C 0.54818 0.70377 0.14962
 H329 H 0.52653 0.61580 0.04242
 H330 H 0.55724 0.58590 0.09422
 H331 H 0.54410 0.54937 0.06787
 H332 H 0.51327 0.57939 0.01587
 H333 H 0.59703 0.69647 0.16654
 H334 H 0.60110 0.72679 0.19810
 H335 H 0.53715 0.72739 0.16788
 H336 H 0.53321 0.69723 0.13629
 C337 C 0.39818 0.92976 0.04849
 C338 C 0.39634 0.94008 0.07074
 C339 C 0.41523 0.96382 0.07765
 C340 C 0.43611 0.97703 0.06261
 C341 C 0.43838 0.96659 0.04045
 C342 C 0.41904 0.94292 0.03342
 C343 C 0.37573 0.92580 0.08705
 C344 C 0.35884 0.91356 0.10100
 C345 C 0.33953 0.89893 0.11767
 C346 C 0.32343 0.88618 0.13216
 C347 C 0.30472 0.87068 0.14977
 C348 C 0.29567 0.84501 0.15002
 C349 C 0.27855 0.83004 0.16794
 C350 C 0.27033 0.84062 0.18582
 C351 C 0.27911 0.86631 0.18525
 C352 C 0.29628 0.88129 0.16731
 H353 H 0.38371 0.91136 0.04301
 H354 H 0.41403 0.97195 0.09488
 H355 H 0.45066 0.99519 0.06856
 H356 H 0.42021 0.93436 0.01649
 H357 H 0.30214 0.83663 0.13658
 H358 H 0.27201 0.81027 0.16817
 H359 H 0.27292 0.87475 0.19889
 H360 H 0.30321 0.90114 0.16733
 C361 C 0.92876 0.53022 0.54786
 C362 C 0.93913 0.54220 0.57017
 C363 C 0.96293 0.54712 0.57692
 C364 C 0.97615 0.53968 0.56163
 C365 C 0.96567 0.52715 0.53940
 C366 C 0.94194 0.52275 0.53254
 C367 C 0.92486 0.54832 0.58670
 C368 C 0.91264 0.55282 0.60082
 C369 C 0.89805 0.55737 0.61765
 C370 C 0.88536 0.56065 0.63226
 C371 C 0.86993 0.56385 0.64996
 C372 C 0.88061 0.58302 0.66738
 C373 C 0.86569 0.58530 0.68531
 C374 C 0.83998 0.56834 0.68601
 C375 C 0.82933 0.54939 0.66827
 C376 C 0.84425 0.54716 0.65035
 H377 H 0.91031 0.52624 0.54250
 H378 H 0.97110 0.55631 0.59419
 H379 H 0.99436 0.54333 0.56746
 H380 H 0.93334 0.51315 0.51557
 H381 H 0.90046 0.59600 0.66728
 H382 H 0.87418 0.60005 0.69883
 H383 H 0.80955 0.53614 0.66859
 H384 H 0.83581 0.53221 0.63701
 C385 C 0.47064 0.39839 0.54765
 C386 C 0.45849 0.39657 0.56991
 C387 C 0.45337 0.41530 0.57665
 C388 C 0.46079 0.43600 0.56144
 C389 C 0.47350 0.43827 0.53927
 C390 C 0.47808 0.41907 0.53240
 C391 C 0.45247 0.37621 0.58643
 C392 C 0.44807 0.35959 0.60063
 C393 C 0.44365 0.34066 0.61768
 C394 C 0.44050 0.32498 0.63260
 C395 C 0.43748 0.30686 0.65083
 C396 C 0.41800 0.28219 0.64901
 C397 C 0.41530 0.26474 0.66684
 C398 C 0.43206 0.27187 0.68662
 C399 C 0.45159 0.29660 0.68829
 C400 C 0.45425 0.31399 0.67050
 H401 H 0.47478 0.38404 0.54230
 H402 H 0.44406 0.41413 0.59388
 H403 H 0.45698 0.45044 0.56727
 H404 H 0.48782 0.42023 0.51548
 H405 H 0.40494 0.27647 0.63384
 H406 H 0.40017 0.24572 0.66528
 H407 H 0.46476 0.30236 0.70335
 H408 H 0.46941 0.33301 0.67206
 C409 C 0.58400 0.03811 0.57645
 C410 C 0.60276 0.06199 0.56974
 C411 C 0.60102 0.07231 0.54745
 C412 C 0.58039 0.05900 0.53213
 C413 C 0.56117 0.03519 0.53896
 C414 C 0.56335 0.02477 0.56117
 C415 C 0.62308 0.07637 0.58631
 C416 C 0.63967 0.08860 0.60056
 C417 C 0.65857 0.10311 0.61766
 C418 C 0.67424 0.11564 0.63261
 C419 C 0.69237 0.13073 0.65086
 C420 C 0.71705 0.13599 0.64900
 C421 C 0.73452 0.15074 0.66684
 C422 C 0.72739 0.16031 0.68667
 C423 C 0.70264 0.15502 0.68838
 C424 C 0.68523 0.14029 0.67058
 H425 H 0.58511 0.02997 0.59371
 H426 H 0.61540 0.09082 0.54211
 H427 H 0.57928 0.06757 0.51517
 H428 H 0.54889 0.00650 0.56698
 H429 H 0.72278 0.12871 0.63380
 H430 H 0.75356 0.15469 0.66525
 H431 H 0.69688 0.16238 0.70348
 H432 H 0.66620 0.13639 0.67217
 C433 C 0.45400 0.03805 0.92411
 C434 C 0.45904 0.06187 0.93081
 C435 C 0.47110 0.07225 0.95308
 C436 C 0.47856 0.05907 0.96839
 C437 C 0.47415 0.03528 0.96159
 C438 C 0.46143 0.02481 0.93935
 C439 C 0.45299 0.07614 0.91422
 C440 C 0.44854 0.08826 0.89993
 C441 C 0.44405 0.10262 0.88277
 C442 C 0.44082 0.11501 0.86775
 C443 C 0.43771 0.12995 0.84940
 C444 C 0.41827 0.13517 0.85125
 C445 C 0.41550 0.14981 0.83334
 C446 C 0.43216 0.15930 0.81345
 C447 C 0.45163 0.15404 0.81175
 C448 C 0.45436 0.13942 0.82962
 H449 H 0.44472 0.02987 0.90687
 H450 H 0.47514 0.09071 0.95841
 H451 H 0.48820 0.06780 0.98533
 H452 H 0.45758 0.00657 0.93343
 H453 H 0.40530 0.12797 0.86650
 H454 H 0.40042 0.15375 0.83493
 H455 H 0.46472 0.16135 0.79661
 H456 H 0.46949 0.13554 0.82803
 C457 C 0.58387 0.54626 0.92341
 C458 C 0.60278 0.54143 0.93018
 C459 C 0.60114 0.52945 0.95248
 C460 C 0.58044 0.52187 0.96776
 C461 C 0.56093 0.52608 0.96089
 C462 C 0.56313 0.53871 0.93862
 C463 C 0.62324 0.54766 0.91370
 C464 C 0.64000 0.55224 0.89959
 C465 C 0.65919 0.55689 0.88277
 C466 C 0.67521 0.56026 0.86816
 C467 C 0.69386 0.56354 0.85045
 C468 C 0.70296 0.54697 0.85009
 C469 C 0.72012 0.54927 0.83215
 C470 C 0.72834 0.56817 0.81436
 C471 C 0.71948 0.58501 0.81503
 C472 C 0.70227 0.58266 0.83298
 H473 H 0.58493 0.55548 0.90615
 H474 H 0.61567 0.52558 0.95788
 H475 H 0.57958 0.51230 0.98472
 H476 H 0.54864 0.54240 0.93265
 H477 H 0.69652 0.53206 0.86346
 H478 H 0.72673 0.53610 0.83185
 H479 H 0.72568 0.59972 0.80148
 H480 H 0.69531 0.59555 0.83306
 C481 C 0.92839 0.39931 0.95249
 C482 C 0.93876 0.39763 0.93022
 C483 C 0.96260 0.41645 0.92351
 C484 C 0.97586 0.43714 0.93874
 C485 C 0.96540 0.43939 0.96097
 C486 C 0.94158 0.41997 0.96779
 C487 C 0.92444 0.37728 0.91366
 C488 C 0.91224 0.36068 0.89942
 C489 C 0.89775 0.34177 0.88233
 C490 C 0.88522 0.32610 0.86739
 C491 C 0.87011 0.30799 0.84913
 C492 C 0.86052 0.31514 0.82944
 C493 C 0.84576 0.29774 0.81165
 C494 C 0.84047 0.27301 0.81333
 C495 C 0.85007 0.26587 0.83313
 C496 C 0.86485 0.28332 0.85096
 H497 H 0.90991 0.38486 0.95784
 H498 H 0.97077 0.41535 0.90626
 H499 H 0.99412 0.45156 0.93280
 H500 H 0.93286 0.42087 0.98473
 H501 H 0.86443 0.33415 0.82787
 H502 H 0.83837 0.30350 0.79657
 H503 H 0.84611 0.24685 0.83470
 H504 H 0.87215 0.27760 0.86615
 C505 C 0.53043 0.92899 0.45142
 C506 C 0.54264 0.93933 0.42919
 C507 C 0.54751 0.96306 0.42227
 C508 C 0.53982 0.97623 0.43730
 C509 C 0.52707 0.96578 0.45945
 C510 C 0.52272 0.94211 0.46648
 C511 C 0.54900 0.92509 0.41290
 C512 C 0.55368 0.91289 0.39896
 C513 C 0.55841 0.89830 0.38231
 C514 C 0.56182 0.88560 0.36783
 C515 C 0.56512 0.87018 0.35024
 C516 C 0.58429 0.88086 0.33280
 C517 C 0.58658 0.86597 0.31487
 C518 C 0.56964 0.84027 0.31420
 C519 C 0.55071 0.82961 0.33197
 C520 C 0.54847 0.84450 0.34989
 H521 H 0.52649 0.91059 0.45691
 H522 H 0.55687 0.97121 0.40505
 H523 H 0.54346 0.99439 0.43135
 H524 H 0.51295 0.93353 0.48340
 H525 H 0.59724 0.90072 0.33286
 H526 H 0.60131 0.87446 0.30132
 H527 H 0.53746 0.80983 0.33167
 H528 H 0.53352 0.83606 0.36324
 C529 C 0.41560 0.45238 0.42240
 C530 C 0.39671 0.45723 0.42924
 C531 C 0.39848 0.46936 0.45149
 C532 C 0.41927 0.47701 0.46665
 C533 C 0.43861 0.47268 0.45969
 C534 C 0.43642 0.46002 0.43752
 C535 C 0.37614 0.45089 0.41287
 C536 C 0.35929 0.44621 0.39888
 C537 C 0.33999 0.44146 0.38217
 C538 C 0.32389 0.43801 0.36765
 C539 C 0.30515 0.43464 0.35001
 C540 C 0.29615 0.45129 0.34955
 C541 C 0.27896 0.44894 0.33162
 C542 C 0.27063 0.42992 0.31397
 C543 C 0.27938 0.41300 0.31475
 C544 C 0.29661 0.41539 0.33269
 H545 H 0.41446 0.44308 0.40517
 H546 H 0.38399 0.47328 0.45693
 H547 H 0.42038 0.48672 0.48358
 H548 H 0.45097 0.45640 0.43162
 H549 H 0.30270 0.46630 0.36281
 H550 H 0.27244 0.46218 0.33123
 H551 H 0.27310 0.39820 0.30129
 H552 H 0.30351 0.40245 0.33284
 C553 C 0.07131 0.60110 0.45222
 C554 C 0.06095 0.60298 0.43003
 C555 C 0.03715 0.58419 0.42319
 C556 C 0.02390 0.56334 0.43823
 C557 C 0.03435 0.56090 0.46039
 C558 C 0.05814 0.58028 0.46732
 C559 C 0.07523 0.62356 0.41370
 C560 C 0.08744 0.64042 0.39971
 C561 C 0.10199 0.65970 0.38299
 C562 C 0.11464 0.67578 0.36844
 C563 C 0.12999 0.69449 0.35077
 C564 C 0.11921 0.70292 0.33341
 C565 C 0.13404 0.72013 0.31545
 C566 C 0.15976 0.72899 0.31467
 C567 C 0.17051 0.72077 0.33236
 C568 C 0.15569 0.70359 0.35031
 H569 H 0.08976 0.61553 0.45765
 H570 H 0.02898 0.58545 0.40601
 H571 H 0.00567 0.54895 0.43221
 H572 H 0.06685 0.57923 0.48421
 H573 H 0.09934 0.69595 0.33356
 H574 H 0.12547 0.72633 0.30196
 H575 H 0.19031 0.72737 0.33198
 H576 H 0.16420 0.69713 0.36360
 C577 C 0.96250 0.54686 0.92345
 C578 C 0.93868 0.54188 0.93022
 C579 C 0.92825 0.52965 0.95243
 C580 C 0.94138 0.52202 0.96760
 C581 C 0.96513 0.52647 0.96070
 C582 C 0.97567 0.53924 0.93858
 C583 C 0.92445 0.54815 0.91382
 C584 C 0.91228 0.55276 0.89977
 C585 C 0.89774 0.55743 0.88299
 C586 C 0.88508 0.56079 0.86841
 C587 C 0.86969 0.56404 0.85071
 C588 C 0.84400 0.54738 0.85031
 C589 C 0.82914 0.54962 0.83234
 C590 C 0.83984 0.56853 0.81457
 C591 C 0.86555 0.58546 0.81528
 C592 C 0.88042 0.58319 0.83326
 H593 H 0.97071 0.55623 0.90626
 H594 H 0.90979 0.52563 0.95781
 H595 H 0.93273 0.51223 0.98449
 H596 H 0.99389 0.54296 0.93273
 H597 H 0.83553 0.53246 0.86366
 H598 H 0.80935 0.53638 0.83201
 H599 H 0.87407 0.60018 0.80173
 H600 H 0.90029 0.59613 0.83337
 C601 C 0.45370 0.41519 0.92355
 C602 C 0.45889 0.39651 0.93031
 C603 C 0.47118 0.39844 0.95249
 C604 C 0.47869 0.41919 0.96765
 C605 C 0.47405 0.43834 0.96076
 C606 C 0.46119 0.43596 0.93867
 C607 C 0.45281 0.37610 0.91384
 C608 C 0.44836 0.35945 0.89966
 C609 C 0.44390 0.34052 0.88261
 C610 C 0.44071 0.32485 0.86767
 C611 C 0.43767 0.30675 0.84940
 C612 C 0.41820 0.28208 0.85123
 C613 C 0.41547 0.26466 0.83336
 C614 C 0.43219 0.27182 0.81353
 C615 C 0.45170 0.29656 0.81186
 C616 C 0.45439 0.31393 0.82969
 H617 H 0.44428 0.41393 0.90637
 H618 H 0.47537 0.38413 0.95785
 H619 H 0.48855 0.42046 0.98452
 H620 H 0.45733 0.45036 0.93282
 H621 H 0.40518 0.27633 0.86643
 H622 H 0.40036 0.24563 0.83492
 H623 H 0.46484 0.30234 0.79676
 H624 H 0.46954 0.33295 0.82812
 C625 C 0.58463 0.03849 0.92409
 C626 C 0.60341 0.06235 0.93082
 C627 C 0.60160 0.07273 0.95304
 C628 C 0.58087 0.05952 0.96826
 C629 C 0.56161 0.03574 0.96139
 C630 C 0.56388 0.02524 0.93927
 C631 C 0.62380 0.07668 0.91429
 C632 C 0.64040 0.08888 0.90005
 C633 C 0.65929 0.10335 0.88293
 C634 C 0.67492 0.11585 0.86793
 C635 C 0.69295 0.13091 0.84960
 C636 C 0.71764 0.13613 0.85130
 C637 C 0.73501 0.15085 0.83337
 C638 C 0.72778 0.16041 0.81362
 C639 C 0.70303 0.15516 0.81208
 C640 C 0.68571 0.14046 0.82996
 H641 H 0.58580 0.03032 0.90688
 H642 H 0.61599 0.09123 0.95838
 H643 H 0.57969 0.06813 0.98515
 H644 H 0.54940 0.00699 0.93343
 H645 H 0.72344 0.12886 0.86644
 H646 H 0.75404 0.15478 0.83483
 H647 H 0.69720 0.16252 0.79704
 H648 H 0.66669 0.13658 0.82850
 C649 C 0.03729 0.45349 0.42193
 C650 C 0.06104 0.45829 0.42875
 C651 C 0.07145 0.47039 0.45101
 C652 C 0.05836 0.47804 0.46621
 C653 C 0.03467 0.47374 0.45930
 C654 C 0.02416 0.46113 0.43710
 C655 C 0.07520 0.45189 0.41237
 C656 C 0.08732 0.44714 0.39837
 C657 C 0.10179 0.44228 0.38168
 C658 C 0.11440 0.43874 0.36719
 C659 C 0.12972 0.43523 0.34960
 C660 C 0.11891 0.41596 0.33230
 C661 C 0.13372 0.41343 0.31443
 C662 C 0.15946 0.43023 0.31368
 C663 C 0.17025 0.44926 0.33132
 C664 C 0.15544 0.45175 0.34918
 H665 H 0.02909 0.44421 0.40470
 H666 H 0.08985 0.47427 0.45642
 H667 H 0.06698 0.48771 0.48316
 H668 H 0.00598 0.45753 0.43124
 H669 H 0.09902 0.40312 0.33242
 H670 H 0.12512 0.39862 0.30098
 H671 H 0.19006 0.46241 0.33096
 H672 H 0.16398 0.46677 0.36243
 C673 C 0.52979 0.60096 0.45135
 C674 C 0.54199 0.60280 0.42912
 C675 C 0.54700 0.58401 0.42232
 C676 C 0.53945 0.56324 0.43747
 C677 C 0.52672 0.56097 0.45962
 C678 C 0.52222 0.58021 0.46653
 C679 C 0.54827 0.62333 0.41274
 C680 C 0.55291 0.64016 0.39872
 C681 C 0.55764 0.65942 0.38200
 C682 C 0.56108 0.67551 0.36746
 C683 C 0.56446 0.69424 0.34983
 C684 C 0.58364 0.70269 0.33241
 C685 C 0.58605 0.71995 0.31451
 C686 C 0.56921 0.72881 0.31384
 C687 C 0.55025 0.72056 0.33157
 C688 C 0.54789 0.70335 0.34947
 H689 H 0.52575 0.61537 0.45675
 H690 H 0.55636 0.58521 0.40512
 H691 H 0.54320 0.54877 0.43161
 H692 H 0.51246 0.57904 0.48345
 H693 H 0.59652 0.69572 0.33249
 H694 H 0.60080 0.72617 0.30099
 H695 H 0.53709 0.72718 0.33127
 H696 H 0.53293 0.69688 0.36280
 C697 C 0.39951 0.92901 0.45150
 C698 C 0.39770 0.93932 0.42925
 C699 C 0.41656 0.96307 0.42238
 C700 C 0.43739 0.97633 0.43747
 C701 C 0.43974 0.96594 0.45970
 C702 C 0.42030 0.94219 0.46665
 C703 C 0.37710 0.92505 0.41293
 C704 C 0.36020 0.91285 0.39897
 C705 C 0.34084 0.89828 0.38232
 C706 C 0.32468 0.88562 0.36785
 C707 C 0.30585 0.87024 0.35028
 C708 C 0.29672 0.84456 0.34987
 C709 C 0.27943 0.82970 0.33202
 C710 C 0.27111 0.84041 0.31437
 C711 C 0.27998 0.86611 0.31511
 C712 C 0.29732 0.88097 0.33297
 H713 H 0.38503 0.91060 0.45697
 H714 H 0.41536 0.97120 0.40516
 H715 H 0.45182 0.99453 0.43143
 H716 H 0.42129 0.93351 0.48359
 H717 H 0.30325 0.83608 0.36312
 H718 H 0.27281 0.80992 0.33167
 H719 H 0.27371 0.87465 0.30166
 H720 H 0.30431 0.90083 0.33308
 C721 C 0.52969 0.92946 0.04898
 C722 C 0.54174 0.93972 0.07129
 C723 C 0.54659 0.96344 0.07823
 C724 C 0.53905 0.97669 0.06312
 C725 C 0.52648 0.96632 0.04088
 C726 C 0.52212 0.94266 0.03384
 C727 C 0.54806 0.92544 0.08758
 C728 C 0.55273 0.91321 0.10148
 C729 C 0.55750 0.89858 0.11804
 C730 C 0.56098 0.88586 0.13244
 C731 C 0.56440 0.87041 0.14991
 C732 C 0.58366 0.88107 0.16725
 C733 C 0.58609 0.86614 0.18504
 C734 C 0.56920 0.84043 0.18568
 C735 C 0.55018 0.82979 0.16800
 C736 C 0.54779 0.84472 0.15022
 H737 H 0.52577 0.91108 0.04346
 H738 H 0.55584 0.97153 0.09550
 H739 H 0.54268 0.99484 0.06908
 H740 H 0.51249 0.93415 0.01685
 H741 H 0.59657 0.90093 0.16721
 H742 H 0.60089 0.87462 0.19851
 H743 H 0.53696 0.81001 0.16828
 H744 H 0.53277 0.83629 0.13695
 C745 C 0.39923 0.46956 0.04838
 C746 C 0.39752 0.45752 0.07067
 C747 C 0.41650 0.45282 0.07757
 C748 C 0.43733 0.46050 0.06245
 C749 C 0.43946 0.47306 0.04022
 C750 C 0.42004 0.47726 0.03322
 C751 C 0.37690 0.45110 0.08701
 C752 C 0.35999 0.44634 0.10095
 C753 C 0.34060 0.44150 0.11758
 C754 C 0.32441 0.43798 0.13202
 C755 C 0.30555 0.43454 0.14955
 C756 C 0.29705 0.41536 0.16695
 C757 C 0.27972 0.41292 0.18480
 C758 C 0.27082 0.42973 0.18542
 C759 C 0.27910 0.44866 0.16767
 C760 C 0.29639 0.45106 0.14984
 H761 H 0.38468 0.47337 0.04290
 H762 H 0.41541 0.44359 0.09484
 H763 H 0.45194 0.45699 0.06838
 H764 H 0.42109 0.48688 0.01624
 H765 H 0.30406 0.40251 0.16693
 H766 H 0.27348 0.39818 0.19833
 H767 H 0.27246 0.46181 0.16794
 H768 H 0.30289 0.46601 0.13652
 C769 C 0.07116 0.60074 0.04872
 C770 C 0.06075 0.60248 0.07095
 C771 C 0.03695 0.58359 0.07774
 C772 C 0.02377 0.56283 0.06257
 C773 C 0.03427 0.56067 0.04040
 C774 C 0.05802 0.58000 0.03351
 C775 C 0.07496 0.62304 0.08734
 C776 C 0.08711 0.63990 0.10134
 C777 C 0.10162 0.65922 0.11804
 C778 C 0.11424 0.67535 0.13255
 C779 C 0.12958 0.69415 0.15016
 C780 C 0.11878 0.70244 0.16764
 C781 C 0.13362 0.71974 0.18552
 C782 C 0.15938 0.72883 0.18612
 C783 C 0.17016 0.72076 0.16830
 C784 C 0.15532 0.70349 0.15042
 H785 H 0.08961 0.61522 0.04332
 H786 H 0.02875 0.58471 0.09495
 H787 H 0.00554 0.54829 0.06841
 H788 H 0.06663 0.57891 0.01658
 H789 H 0.09887 0.69528 0.16763
 H790 H 0.12503 0.72583 0.19911
 H791 H 0.19000 0.72754 0.16854
 H792 H 0.16387 0.69716 0.13704
 C793 C 0.46998 0.07166 0.54692
 C794 C 0.45775 0.06124 0.56913
 C795 C 0.45261 0.03737 0.57581
 C796 C 0.46010 0.02415 0.56061
 C797 C 0.47292 0.03469 0.53851
 C798 C 0.47749 0.05848 0.53168
 C799 C 0.45173 0.07554 0.58570
 C800 C 0.44735 0.08771 0.59997
 C801 C 0.44298 0.10216 0.61713
 C802 C 0.43989 0.11464 0.63215
 C803 C 0.43696 0.12969 0.65050
 C804 C 0.45376 0.13920 0.67016
 C805 C 0.45121 0.15391 0.68805
 C806 C 0.43175 0.15921 0.68650
 C807 C 0.41495 0.14968 0.66673
 C808 C 0.41754 0.13496 0.64880
 H809 H 0.47414 0.09017 0.54162
 H810 H 0.44324 0.02916 0.59301
 H811 H 0.45629 0.00589 0.56641
 H812 H 0.48732 0.06713 0.51481
 H813 H 0.46888 0.13528 0.67162
 H814 H 0.46441 0.16124 0.70309
 H815 H 0.39988 0.15365 0.66526
 H816 H 0.40446 0.12771 0.63365
 C817 C 0.58435 0.54666 0.57669
 C818 C 0.60321 0.54173 0.56992
 C819 C 0.60149 0.52964 0.54766
 C820 C 0.58077 0.52208 0.53242
 C821 C 0.56145 0.52649 0.53930
 C822 C 0.56362 0.53913 0.56149
 C823 C 0.62367 0.54792 0.58639
 C824 C 0.64042 0.55247 0.60048
 C825 C 0.65959 0.55708 0.61730
 C826 C 0.67558 0.56041 0.63191
 C827 C 0.69420 0.56366 0.64965
 C828 C 0.70320 0.54701 0.65008
 C829 C 0.72031 0.54926 0.66806
 C830 C 0.72856 0.56819 0.68580
 C831 C 0.71980 0.58511 0.68507
 C832 C 0.70265 0.58281 0.66708
 H833 H 0.58546 0.55593 0.59393
 H834 H 0.61594 0.52565 0.54228
 H835 H 0.57968 0.51239 0.51548
 H836 H 0.54908 0.54280 0.56733
 H837 H 0.69672 0.53207 0.63673
 H838 H 0.72684 0.53604 0.66841
 H839 H 0.72603 0.59984 0.69860
 H840 H 0.69576 0.59576 0.66695
 C841 C 0.96253 0.41598 0.57622
 C842 C 0.93863 0.39727 0.56948
 C843 C 0.92826 0.39913 0.54727
 C844 C 0.94154 0.41985 0.53206
 C845 C 0.96537 0.43903 0.53893
 C846 C 0.97585 0.43672 0.56104
 C847 C 0.92424 0.37690 0.58600
 C848 C 0.91199 0.36029 0.60021
 C849 C 0.89745 0.34140 0.61728
 C850 C 0.88490 0.32575 0.63223
 C851 C 0.86977 0.30768 0.65051
 C852 C 0.86026 0.31491 0.67021
 C853 C 0.84551 0.29757 0.68805
 C854 C 0.84017 0.27281 0.68641
 C855 C 0.84967 0.26560 0.66660
 C856 C 0.86444 0.28299 0.64871
 H857 H 0.97070 0.41477 0.59342
 H858 H 0.90973 0.38480 0.54193
 H859 H 0.93294 0.42106 0.51517
 H860 H 0.99413 0.45114 0.56687
 H861 H 0.86422 0.33394 0.67176
 H862 H 0.83820 0.30340 0.70314
 H863 H 0.84567 0.24656 0.66506
 H864 H 0.87168 0.27720 0.63352
   
