data_POSCAR
  _audit_creation_date              2014-09-24
  _audit_creation_method            'ToBaCCo'
  _symmetry_space_group_name_H-M    'P1'
  _symmetry_Int_Tables_number       1
  _symmetry_cell_setting            triclinic
  loop_
  _symmetry_equiv_pos_as_xyz
 x,y,z
_cell_length_a 44.1166
_cell_length_b 44.1210
_cell_length_c 9.0513
_cell_angle_alpha 89.999500
_cell_angle_beta 89.998400
_cell_angle_gamma 89.999500
loop_
  _atom_site_label
  _atom_site_type_symbol
  _atom_site_fract_x
  _atom_site_fract_y
  _atom_site_fract_z
O1 O 0.28345 0.22013 0.15955
 O2 O 0.22565 0.27907 0.09889
 O3 O 0.28338 0.27914 0.15902
 O4 O 0.22570 0.22003 0.09940
 O5 O 0.21530 0.22012 0.33839
 O6 O 0.27299 0.27922 0.39804
 O7 O 0.21525 0.27915 0.33791
 O8 O 0.27305 0.22020 0.39857
 Cu9 Cu 0.25560 0.24958 0.10517
 Cu10 Cu 0.24308 0.24967 0.39227
 C11 C 0.28803 0.21024 0.28923
 C12 C 0.21069 0.28906 0.20826
 C13 C 0.28794 0.28914 0.28852
 C14 C 0.21075 0.21010 0.20892
 O15 O 0.77331 0.21984 0.10004
 O16 O 0.71549 0.27879 0.16005
 O17 O 0.77322 0.27886 0.09992
 O18 O 0.71555 0.21977 0.16013
 O19 O 0.72593 0.21979 0.39914
 O20 O 0.78361 0.27889 0.33894
 O21 O 0.72588 0.27882 0.39908
 O22 O 0.78369 0.21987 0.33907
 Cu23 Cu 0.74333 0.24931 0.10599
 Cu24 Cu 0.75584 0.24934 0.39311
 C25 C 0.78829 0.20993 0.20951
 C26 C 0.71092 0.28876 0.28961
 C27 C 0.78816 0.28884 0.20935
 C28 C 0.71099 0.20982 0.28972
 O29 O 0.77423 0.77907 0.90101
 O30 O 0.71632 0.72020 0.84099
 O31 O 0.77408 0.72005 0.90101
 O32 O 0.71648 0.77922 0.84105
 O33 O 0.72684 0.77920 0.60200
 O34 O 0.78444 0.72003 0.66198
 O35 O 0.72669 0.72018 0.60194
 O36 O 0.78459 0.77905 0.66196
 Cu37 Cu 0.74422 0.74963 0.89507
 Cu38 Cu 0.75670 0.74961 0.60793
 C39 C 0.78919 0.78899 0.79153
 C40 C 0.71172 0.71027 0.71140
 C41 C 0.78900 0.71006 0.79154
 C42 C 0.71192 0.78919 0.71150
 O43 O 0.28377 0.77993 0.84047
 O44 O 0.22585 0.72103 0.89969
 O45 O 0.28361 0.72092 0.83976
 O46 O 0.22602 0.78007 0.90047
 O47 O 0.21566 0.78022 0.66145
 O48 O 0.27324 0.72107 0.60071
 O49 O 0.21549 0.72120 0.66064
 O50 O 0.27341 0.78009 0.60142
 Cu51 Cu 0.25587 0.75047 0.89415
 Cu52 Cu 0.24339 0.75066 0.60701
 C53 C 0.28838 0.78993 0.71102
 C54 C 0.21089 0.71118 0.79008
 C55 C 0.28816 0.71102 0.71006
 C56 C 0.21111 0.79013 0.79112
 O57 O 1.03042 -0.03406 0.09066
 O58 O 0.97124 0.02357 0.15001
 O59 O 0.97140 -0.03419 0.09050
 O60 O 1.03027 0.02372 0.15016
 O61 O 1.03028 0.03400 -0.08897
 O62 O 0.97139 -0.02391 -0.14864
 O63 O 0.97125 0.03385 -0.08913
 O64 O 1.03042 -0.02377 -0.14848
 Cu65 Cu 1.00083 -0.00629 0.14439
 Cu66 Cu 1.00084 0.00609 -0.14285
 C67 C 1.04039 -0.03866 -0.03885
 C68 C 0.96126 0.03844 0.04036
 C69 C 0.96146 -0.03884 -0.03905
 C70 C 1.04020 0.03865 0.04059
 O71 O 0.47010 0.47629 0.34988
 O72 O 0.52918 0.53396 0.41027
 O73 O 0.52912 0.47621 0.35035
 O74 O 0.47015 0.53404 0.40981
 O75 O 0.47006 0.52368 0.64887
 O76 O 0.52903 0.46586 0.58941
 O77 O 0.52909 0.52360 0.64933
 O78 O 0.47001 0.46593 0.58894
 Cu79 Cu 0.49965 0.50618 0.35603
 Cu80 Cu 0.49954 0.49371 0.64320
 C81 C 0.46010 0.46136 0.45930
 C82 C 0.53910 0.53853 0.53991
 C83 C 0.53902 0.46126 0.45992
 C84 C 0.46016 0.53863 0.53929
 O85 O 0.02875 0.52398 -0.15067
 O86 O -0.03022 0.46617 -0.09085
 O87 O -0.03028 0.52395 -0.15020
 O88 O 0.02879 0.46620 -0.09129
 O89 O 0.02886 0.47646 0.14787
 O90 O -0.03021 0.53420 0.08896
 O91 O -0.03016 0.47642 0.14831
 O92 O 0.02881 0.53423 0.08849
 Cu93 Cu -0.00075 0.49403 -0.14482
 Cu94 Cu -0.00067 0.50638 0.14247
 C95 C 0.03872 0.53888 -0.04110
 C96 C -0.04013 0.46152 0.03875
 C97 C -0.04021 0.53884 -0.04049
 C98 C 0.03879 0.46157 0.03816
 O99 O 0.47102 0.96621 0.41154
 O100 O 0.53002 1.02396 0.35111
 O101 O 0.53004 0.96622 0.41132
 O102 O 0.47098 1.02393 0.35133
 O103 O 0.47101 1.03434 0.59034
 O104 O 0.53008 0.97663 0.65033
 O105 O 0.53005 1.03437 0.59011
 O106 O 0.47104 0.97662 0.65054
 Cu107 Cu 0.50051 0.99402 0.35728
 Cu108 Cu 0.50055 1.00656 0.64438
 C109 C 0.46108 0.96166 0.54115
 C110 C 0.53998 1.03893 0.46048
 C111 C 0.54001 0.96167 0.54088
 C112 C 0.46102 1.03888 0.46080
 C113 C 1.14775 0.14625 0.14639
 N114 N 1.15440 0.12058 0.07062
 N115 N 1.13331 0.09935 0.05020
 C116 C 1.10495 0.10316 0.10499
 N117 N 1.09831 0.12884 0.18076
 N118 N 1.11939 0.15006 0.20118
 C119 C 1.17043 0.16912 0.16841
 C120 C 1.18943 0.18838 0.18724
 C121 C 1.08221 0.08037 0.08260
 C122 C 1.06305 0.06128 0.06358
 C123 C 0.64717 0.64556 0.64681
 N124 N 0.65514 0.61644 0.61847
 N125 N 0.63394 0.59535 0.59780
 C126 C 0.60413 0.60273 0.60491
 N127 N 0.59616 0.63185 0.63326
 N128 N 0.61737 0.65294 0.65392
 C129 C 0.66998 0.66828 0.66921
 C130 C 0.68908 0.68742 0.68828
 C131 C 0.58129 0.58005 0.58235
 C132 C 0.56205 0.56105 0.56315
 C133 C -0.14768 0.35392 0.14458
 N134 N -0.11930 0.34610 0.10137
 N135 N -0.09821 0.36731 0.08084
 C136 C -0.10486 0.39698 0.10294
 N137 N -0.13324 0.40480 0.14615
 N138 N -0.15433 0.38358 0.16669
 C139 C -0.17034 0.33106 0.16706
 C140 C -0.18933 0.31180 0.18619
 C141 C -0.08214 0.41980 0.08072
 C142 C -0.06299 0.43889 0.06177
 C143 C 0.35296 0.85463 0.64706
 N144 N 0.34626 0.88440 0.66508
 N145 N 0.36749 0.90549 0.64465
 C146 C 0.39606 0.89743 0.60566
 N147 N 0.40276 0.86765 0.58765
 N148 N 0.38153 0.84657 0.60807
 C149 C 0.33014 0.83191 0.66931
 C150 C 0.31103 0.81277 0.68820
 C151 C 0.41891 0.92011 0.58340
 C152 C 0.43815 0.93911 0.56435
 C153 C -0.14799 0.64626 -0.14509
 N154 N -0.12019 0.65391 -0.09310
 N155 N -0.09906 0.63273 -0.07274
 C156 C -0.10509 0.60327 -0.10378
 N157 N -0.13289 0.59561 -0.15576
 N158 N -0.15402 0.61680 -0.17613
 C159 C -0.17069 0.66909 -0.16751
 C160 C -0.18969 0.68834 -0.18660
 C161 C -0.08231 0.58049 -0.08185
 C162 C -0.06312 0.56142 -0.06317
 C163 C 0.35265 1.14564 0.35464
 N164 N 0.38038 1.15349 0.40675
 N165 N 0.40165 1.13247 0.42739
 C166 C 0.39584 1.10296 0.39649
 N167 N 0.36811 1.09510 0.34437
 N168 N 0.34683 1.11612 0.32373
 C169 C 0.32980 1.16830 0.33195
 C170 C 0.31068 1.18742 0.31263
 C171 C 0.41875 1.08034 0.41877
 C172 C 0.43804 1.06138 0.43776
 C173 C 1.14828 -0.14591 -0.14498
 N174 N 1.13929 -0.12800 -0.25861
 N175 N 1.11817 -0.10682 -0.23786
 C176 C 1.10542 -0.10291 -0.10285
 N177 N 1.11442 -0.12081 0.01078
 N178 N 1.13553 -0.14200 -0.00997
 C179 C 1.17089 -0.16882 -0.16754
 C180 C 1.18984 -0.18812 -0.18679
 C181 C 1.08259 -0.08020 -0.08062
 C182 C 1.06335 -0.06119 -0.06172
 C183 C 0.64676 0.35385 0.35404
 N184 N 0.63677 0.37080 0.23890
 N185 N 0.61566 0.39200 0.25954
 C186 C 0.60391 0.39688 0.39595
 N187 N 0.61391 0.37993 0.51110
 N188 N 0.63501 0.35874 0.49046
 C189 C 0.66940 0.33096 0.33169
 C190 C 0.68838 0.31170 0.31266
 C191 C 0.58111 0.41961 0.41814
 C192 C 0.56191 0.43866 0.43703
 C193 C 0.85363 -0.14618 -0.14411
 N194 N 0.88209 -0.15412 -0.10274
 N195 N 0.90325 -0.13297 -0.08240
 C196 C 0.89660 -0.10326 -0.10287
 N197 N 0.86814 -0.09532 -0.14423
 N198 N 0.84697 -0.11646 -0.16458
 C199 C 0.83087 -0.16896 -0.16640
 C200 C 0.81181 -0.18814 -0.18540
 C201 C 0.91940 -0.08051 -0.08080
 C202 C 0.93859 -0.06145 -0.06196
 C203 C 0.35225 0.35408 0.35306
 N204 N 0.34649 0.38345 0.31885
 N205 N 0.36764 0.40460 0.33942
 C206 C 0.39519 0.39701 0.39477
 N207 N 0.40094 0.36764 0.42897
 N208 N 0.37979 0.34649 0.40840
 C209 C 0.32952 0.33128 0.33058
 C210 C 0.31049 0.31207 0.31152
 C211 C 0.41797 0.41976 0.41703
 C212 C 0.43718 0.43880 0.43609
 C213 C 0.14650 0.64627 -0.14653
 N214 N 0.15328 0.62025 -0.07393
 N215 N 0.13215 0.59906 -0.05362
 C216 C 0.10360 0.60327 -0.10534
 N217 N 0.09682 0.62929 -0.17793
 N218 N 0.11795 0.65047 -0.19824
 C219 C 0.16923 0.66908 -0.16845
 C220 C 0.18828 0.68829 -0.18717
 C221 C 0.08081 0.58052 -0.08306
 C222 C 0.06162 0.56147 -0.06410
 C223 C 0.64788 1.14611 0.35297
 N224 N 0.65279 1.12292 0.44838
 N225 N 0.63164 1.10178 0.46917
 C226 C 0.60495 1.10318 0.39514
 N227 N 0.60004 1.12637 0.29972
 N228 N 0.62119 1.14751 0.27894
 C229 C 0.67061 1.16891 0.33069
 C230 C 0.68964 1.18813 0.31163
 C231 C 0.58212 1.08049 0.41790
 C232 C 0.56290 1.06148 0.43719
 C233 C 0.14657 0.35419 0.14361
 N234 N 0.13670 0.36088 0.00550
 N235 N 0.11560 0.38208 -0.01510
 C236 C 0.10374 0.39723 0.10178
 N237 N 0.11362 0.39054 0.23988
 N238 N 0.13472 0.36934 0.26048
 C239 C 0.16920 0.33128 0.16590
 C240 C 0.18817 0.31201 0.18499
 C241 C 0.08093 0.41996 0.07964
 C242 C 0.06171 0.43900 0.06086
 C243 C 0.64775 0.85429 0.64753
 N244 N 0.65222 0.87683 0.54797
 N245 N 0.63111 0.89803 0.52738
 C246 C 0.60491 0.89733 0.60576
 N247 N 0.60046 0.87480 0.70532
 N248 N 0.62156 0.85360 0.72590
 C249 C 0.67043 0.83143 0.66959
 C250 C 0.68942 0.81216 0.68847
 C251 C 0.58213 0.92007 0.58317
 C252 C 0.56293 0.93910 0.56402
 C253 C 0.85288 0.14526 0.14497
 N254 N 0.88044 0.15299 0.09033
 N255 N 0.90170 0.13194 0.07002
 C256 C 0.89605 0.10253 0.10380
 N257 N 0.86849 0.09480 0.15843
 N258 N 0.84722 0.11584 0.17874
 C259 C 0.83003 0.16795 0.16734
 C260 C 0.81092 0.18708 0.18639
 C261 C 0.91896 0.07989 0.08186
 C262 C 0.93826 0.06093 0.06314
 C263 C 0.35238 0.64602 0.64475
 N264 N 0.37984 0.65355 0.58818
 N265 N 0.40098 0.63238 0.56763
 C266 C 0.39530 0.60306 0.60309
 N267 N 0.36784 0.59553 0.65965
 N268 N 0.34670 0.61670 0.68020
 C269 C 0.32968 0.66884 0.66739
 C270 C 0.31068 0.68807 0.68668
 C271 C 0.41808 0.58029 0.58099
 C272 C 0.43727 0.56123 0.56216
   
