data_POSCAR
  _audit_creation_date              2014-09-24
  _audit_creation_method            'ToBaCCo'
  _symmetry_space_group_name_H-M    'P1'
  _symmetry_Int_Tables_number       1
  _symmetry_cell_setting            triclinic
  loop_
  _symmetry_equiv_pos_as_xyz
 x,y,z
_cell_length_a 27.8702
_cell_length_b 27.8344
_cell_length_c 26.6209
_cell_angle_alpha 90.037100
_cell_angle_beta 89.925500
_cell_angle_gamma 120.067600
loop_
  _atom_site_label
  _atom_site_type_symbol
  _atom_site_fract_x
  _atom_site_fract_y
  _atom_site_fract_z
O1 O 0.00573 0.54866 -0.06438
 O2 O 0.06808 0.48664 0.01562
 O3 O 0.00573 0.45578 -0.06509
 O4 O 0.06784 0.57942 0.01631
 O5 O -0.00735 0.54134 0.06394
 O6 O -0.06943 0.41771 -0.01744
 O7 O -0.00709 0.44859 0.06328
 O8 O -0.06946 0.51059 -0.01675
 Cu9 Cu 0.04443 0.52144 -0.02919
 Cu10 Cu -0.04592 0.47568 0.02806
 C11 C -0.04278 0.53924 -0.05460
 C12 C 0.04147 0.45810 0.05354
 C13 C -0.04279 0.41636 -0.05558
 C14 C 0.04113 0.58080 0.05437
 O15 O 0.45189 0.45739 -0.06427
 O16 O 0.51366 0.58182 0.01607
 O17 O 0.54471 0.55041 -0.06471
 O18 O 0.42075 0.48884 0.01617
 O19 O 0.45832 0.45146 0.06393
 O20 O 0.58228 0.51301 -0.01701
 O21 O 0.55124 0.54442 0.06378
 O22 O 0.48944 0.41998 -0.01651
 Cu23 Cu 0.47901 0.52343 -0.02900
 Cu24 Cu 0.52416 0.47849 0.02836
 C25 C 0.46107 0.41812 -0.05445
 C26 C 0.54192 0.58361 0.05408
 C27 C 0.58392 0.54113 -0.05512
 C28 C 0.41904 0.46058 0.05419
 O29 O 0.54266 0.99403 -0.06422
 O30 O 0.41831 0.93165 0.01612
 O31 O 0.44987 0.99398 -0.06470
 O32 O 0.51122 0.93190 0.01657
 O33 O 0.54854 1.00722 0.06408
 O34 O 0.48717 1.06927 -0.01718
 O35 O 0.45564 1.00695 0.06365
 O36 O 0.57999 1.06936 -0.01672
 Cu37 Cu 0.47672 0.95529 -0.02885
 Cu38 Cu 0.52157 1.04580 0.02825
 C39 C 0.58186 1.04262 -0.05456
 C40 C 0.41649 0.95832 0.05403
 C41 C 0.45910 1.04256 -0.05524
 C42 C 0.53939 0.95869 0.05455
 O43 O 0.93161 0.51334 0.51612
 O44 O 0.99374 0.45143 0.43538
 O45 O 0.93179 0.42052 0.51630
 O46 O 0.99382 0.54435 0.43519
 O47 O 1.06906 0.58225 0.48260
 O48 O 1.00706 0.45843 0.56368
 O49 O 1.06901 0.48933 0.48276
 O50 O 1.00685 0.55121 0.56353
 Cu51 Cu 0.95515 0.47862 0.47097
 Cu52 Cu 1.04559 0.52416 0.52792
 C53 C 0.95829 0.54177 0.55403
 C54 C 1.04226 0.46077 0.44493
 C55 C 0.95856 0.41903 0.55419
 C56 C 1.04237 0.58371 0.44462
 O57 O 0.41873 0.48732 0.48366
 O58 O 0.54252 0.54944 0.56444
 O59 O 0.51147 0.58045 0.48366
 O60 O 0.44998 0.45614 0.56422
 O61 O 0.48784 0.41889 0.51651
 O62 O 0.54937 0.54321 0.43601
 O63 O 0.58041 0.51219 0.51678
 O64 O 0.45662 0.45011 0.43595
 Cu65 Cu 0.47685 0.52209 0.52880
 Cu66 Cu 0.52238 0.47734 0.47151
 C67 C 0.41725 0.45915 0.44562
 C68 C 0.58189 0.54041 0.55479
 C69 C 0.53993 0.58234 0.44569
 C70 C 0.45943 0.41701 0.55451
 O71 O 0.45732 0.00567 0.43574
 O72 O 0.58147 0.06818 0.51614
 O73 O 0.55019 0.00587 0.43530
 O74 O 0.48850 0.06779 0.51654
 O75 O 0.45111 -0.00755 0.56404
 O76 O 0.51282 -0.06944 0.48281
 O77 O 0.54408 -0.00714 0.56366
 O78 O 0.41992 -0.06967 0.48323
 Cu79 Cu 0.52316 0.04447 0.47114
 Cu80 Cu 0.47824 -0.04605 0.52822
 C81 C 0.41811 -0.04294 0.44539
 C82 C 0.58323 0.04152 0.55405
 C83 C 0.54098 -0.04269 0.44476
 C84 C 0.46025 0.04098 0.55452
 C85 C 0.36842 0.44090 0.22408
 C86 C 0.36817 0.44070 0.27560
 C87 C 0.31442 0.42450 0.29040
 N88 N 0.28175 0.41397 0.24963
 C89 C 0.31480 0.42478 0.20901
 C90 C 0.29640 0.41890 0.34082
 C91 C 0.24335 0.40872 0.35539
 C92 C 0.22205 0.39530 0.40373
 C93 C 0.17273 0.39550 0.40366
 C94 C 0.16526 0.40901 0.35526
 N95 N 0.20840 0.41685 0.32618
 C96 C 0.12265 0.41944 0.34050
 C97 C 0.11034 0.42464 0.28999
 C98 C 0.07276 0.44062 0.27490
 C99 C 0.07274 0.44030 0.22338
 C100 C 0.11033 0.42417 0.20859
 N101 N 0.13257 0.41380 0.24939
 C102 C 0.12271 0.41848 0.15818
 C103 C 0.16567 0.40843 0.14362
 C104 C 0.17354 0.39496 0.09529
 C105 C 0.22312 0.39528 0.09537
 C106 C 0.24415 0.40891 0.14375
 N107 N 0.20881 0.41670 0.17281
 C108 C 0.29723 0.41944 0.15851
 H109 H 0.40412 0.45198 0.20046
 H110 H 0.40366 0.45164 0.29939
 H111 H 0.21764 0.43469 0.20815
 H112 H 0.24086 0.38770 0.43604
 H113 H 0.14618 0.38807 0.43588
 H114 H 0.04813 0.45170 0.29850
 H115 H 0.04811 0.45112 0.19958
 H116 H 0.24225 0.38785 0.06316
 H117 H 0.21752 0.43480 0.29083
 H118 H 0.14709 0.38725 0.06299
 C119 C 0.55952 0.63268 0.27567
 C120 C 0.55979 0.63288 0.22414
 C121 C 0.57577 0.68662 0.20934
 N122 N 0.58607 0.71934 0.25013
 C123 C 0.57535 0.68632 0.29074
 C124 C 0.58140 0.70462 0.15892
 C125 C 0.59142 0.75767 0.14438
 C126 C 0.60497 0.77902 0.09606
 C127 C 0.60459 0.82831 0.09614
 C128 C 0.59084 0.83572 0.14451
 N129 N 0.58304 0.79256 0.17357
 C130 C 0.58018 0.87826 0.15925
 C131 C 0.57466 0.89050 0.20974
 C132 C 0.55839 0.92793 0.22479
 C133 C 0.55845 0.92791 0.27632
 C134 C 0.57475 0.89045 0.29114
 N135 N 0.58545 0.86833 0.25037
 C136 C 0.58031 0.87811 0.34156
 C137 C 0.59065 0.83533 0.35613
 C138 C 0.60410 0.82761 0.40446
 C139 C 0.60412 0.77814 0.40439
 C140 C 0.59071 0.75702 0.35600
 N141 N 0.58273 0.79221 0.32692
 C142 C 0.58052 0.70396 0.34125
 H143 H 0.54856 0.59699 0.29928
 H144 H 0.54908 0.59736 0.20035
 H145 H 0.56483 0.78325 0.29158
 H146 H 0.61277 0.76026 0.06377
 H147 H 0.61206 0.85488 0.06394
 H148 H 0.54728 0.95248 0.20116
 H149 H 0.54738 0.95243 0.30010
 H150 H 0.61163 0.75913 0.43661
 H151 H 0.56498 0.78337 0.20888
 H152 H 0.61157 0.85408 0.43677
 C153 C 0.07173 0.63062 0.22465
 C154 C 0.07175 0.63069 0.27618
 C155 C 0.10936 0.68447 0.29105
 N156 N 0.13157 0.71733 0.25031
 C157 C 0.10931 0.68437 0.20965
 C158 C 0.12178 0.70236 0.34149
 C159 C 0.16473 0.75546 0.35609
 C160 C 0.17261 0.77663 0.40448
 C161 C 0.22219 0.82604 0.40441
 C162 C 0.24323 0.83370 0.35597
 N163 N 0.20788 0.79057 0.32687
 C164 C 0.29633 0.87645 0.34119
 C165 C 0.31391 0.88893 0.29067
 C166 C 0.36754 0.92661 0.27554
 C167 C 0.36729 0.92677 0.22402
 C168 C 0.31352 0.88916 0.20927
 N169 N 0.28085 0.86678 0.25009
 C170 C 0.29549 0.87692 0.15888
 C171 C 0.24240 0.83397 0.14436
 C172 C 0.22108 0.82626 0.09608
 C173 C 0.17173 0.77662 0.09615
 C174 C 0.16425 0.75538 0.14447
 N175 N 0.20742 0.79067 0.17352
 C176 C 0.12161 0.70216 0.15917
 H177 H 0.04708 0.59495 0.20099
 H178 H 0.04713 0.59507 0.29993
 H179 H 0.21654 0.78169 0.20878
 H180 H 0.14615 0.75768 0.43680
 H181 H 0.24133 0.85254 0.43666
 H182 H 0.40325 0.95121 0.29911
 H183 H 0.40279 0.95151 0.20018
 H184 H 0.14515 0.75758 0.06396
 H185 H 0.21671 0.78157 0.29146
 H186 H 0.23990 0.85287 0.06381
 C187 C 0.92676 0.55928 0.77575
 C188 C 0.92693 0.55962 0.72423
 C189 C 0.88940 0.57579 0.70945
 N190 N 0.86705 0.58615 0.75025
 C191 C 0.88914 0.57527 0.79084
 C192 C 0.87720 0.58155 0.65904
 C193 C 0.83441 0.59184 0.64455
 C194 C 0.82681 0.60559 0.59629
 C195 C 0.77734 0.60547 0.59642
 C196 C 0.75609 0.59166 0.64476
 N197 N 0.79120 0.58358 0.67376
 C198 C 0.70296 0.58113 0.65948
 C199 C 0.68506 0.57543 0.70995
 C200 C 0.63134 0.55919 0.72491
 C201 C 0.63125 0.55901 0.77643
 C202 C 0.68491 0.57513 0.79135
 N203 N 0.71785 0.58596 0.75064
 C204 C 0.70263 0.58042 0.84181
 C205 C 0.75566 0.59064 0.85638
 C206 C 0.77678 0.60393 0.90476
 C207 C 0.82619 0.60393 0.90463
 C208 C 0.83391 0.59064 0.85618
 N209 N 0.79082 0.58277 0.82712
 C210 C 0.87667 0.58042 0.84136
 H211 H 0.95131 0.54818 0.79934
 H212 H 0.95162 0.54882 0.70042
 H213 H 0.78189 0.56497 0.79170
 H214 H 0.85338 0.61336 0.56401
 H215 H 0.75841 0.61314 0.56425
 H216 H 0.59579 0.54826 0.70121
 H217 H 0.59562 0.54790 0.80015
 H218 H 0.85265 0.61132 0.93686
 H219 H 0.78215 0.56540 0.70901
 H220 H 0.75779 0.61132 0.93711
 C221 C 0.44128 0.07170 0.72472
 C222 C 0.44135 0.07177 0.77624
 C223 C 0.42527 0.10939 0.79120
 N224 N 0.41458 0.13156 0.75051
 C225 C 0.42515 0.10926 0.70980
 C226 C 0.41991 0.12184 0.84167
 C227 C 0.40971 0.16471 0.85630
 C228 C 0.39634 0.17254 0.90468
 C229 C 0.39639 0.22204 0.90461
 C230 C 0.40977 0.24309 0.85619
 N231 N 0.41766 0.20782 0.82708
 C232 C 0.42006 0.29617 0.84143
 C233 C 0.42537 0.31386 0.79095
 C234 C 0.44143 0.36757 0.77593
 C235 C 0.44125 0.36744 0.72441
 C236 C 0.42510 0.31366 0.70956
 N237 N 0.41460 0.28086 0.75030
 C238 C 0.41948 0.29571 0.65913
 C239 C 0.40920 0.24256 0.64456
 C240 C 0.39558 0.22121 0.59626
 C241 C 0.39560 0.17174 0.59632
 C242 C 0.40923 0.16424 0.64466
 N243 N 0.41729 0.20750 0.67372
 C244 C 0.41961 0.12152 0.65934
 H245 H 0.45221 0.04703 0.70099
 H246 H 0.45235 0.04719 0.79993
 H247 H 0.43534 0.21660 0.70900
 H248 H 0.38887 0.14610 0.93699
 H249 H 0.38895 0.24113 0.93686
 H250 H 0.45248 0.40327 0.79958
 H251 H 0.45214 0.40301 0.70066
 H252 H 0.38799 0.14512 0.56412
 H253 H 0.43552 0.21672 0.79169
 H254 H 0.38795 0.24008 0.56399
 C255 C 0.63234 0.07310 0.77564
 C256 C 0.63250 0.07297 0.72412
 C257 C 0.68623 0.11064 0.70923
 N258 N 0.71897 0.13303 0.74996
 C259 C 0.68598 0.11082 0.79063
 C260 C 0.70419 0.12293 0.65879
 C261 C 0.75728 0.16588 0.64420
 C262 C 0.77862 0.17360 0.59588
 C263 C 0.82801 0.22321 0.59593
 C264 C 0.83548 0.24442 0.64427
 N265 N 0.79227 0.20915 0.67336
 C266 C 0.87812 0.29764 0.65895
 C267 C 0.89038 0.31550 0.70940
 C268 C 0.92790 0.36929 0.72433
 C269 C 0.92786 0.36930 0.77586
 C270 C 0.89029 0.31552 0.79080
 N271 N 0.86813 0.28259 0.75011
 C272 C 0.87788 0.29770 0.84127
 C273 C 0.83502 0.24454 0.85589
 C274 C 0.82718 0.22335 0.90426
 C275 C 0.77770 0.17383 0.90422
 C276 C 0.75668 0.16614 0.85582
 N277 N 0.79194 0.20933 0.82671
 C278 C 0.70363 0.12329 0.84111
 H279 H 0.59667 0.04845 0.79932
 H280 H 0.59698 0.04823 0.70038
 H281 H 0.78306 0.21829 0.79134
 H282 H 0.75980 0.14702 0.56362
 H283 H 0.85461 0.24225 0.56370
 H284 H 0.95253 0.40494 0.70062
 H285 H 0.95243 0.40496 0.79956
 H286 H 0.75862 0.14729 0.93647
 H287 H 0.78317 0.21813 0.70866
 H288 H 0.85360 0.24235 0.93655
 C289 C 0.06834 0.43975 0.08810
 C290 C 0.09236 0.42810 0.11908
 C291 C 0.56019 0.62885 0.08875
 C292 C 0.57181 0.66455 0.11980
 C293 C 0.37125 0.93142 0.08870
 C294 C 0.33554 0.90736 0.11975
 C295 C 0.93151 0.56014 0.58880
 C296 C 0.90754 0.57184 0.61989
 C297 C 0.44105 0.37168 0.58910
 C298 C 0.42929 0.33588 0.62006
 C299 C 0.62842 0.06844 0.58871
 C300 C 0.66411 0.09249 0.61972
 C301 C 0.44187 0.06786 0.91173
 C302 C 0.42994 0.09166 0.88071
 C303 C 0.62658 0.55838 0.91190
 C304 C 0.66238 0.57034 0.88088
 C305 C 0.93189 0.37376 0.91136
 C306 C 0.90807 0.33797 0.88031
 C307 C 0.55830 0.93205 0.41172
 C308 C 0.57027 0.90827 0.38066
 C309 C 0.37211 0.44061 0.41093
 C310 C 0.33645 0.42876 0.37991
 C311 C 0.06768 0.62634 0.41160
 C312 C 0.09153 0.66213 0.38056
 C313 C 0.93054 0.55800 0.91104
 C314 C 0.90675 0.57013 0.88024
 C315 C 0.44235 0.37260 0.91116
 C316 C 0.43026 0.33659 0.88035
 C317 C 0.62730 0.06932 0.91096
 C318 C 0.66324 0.09315 0.88007
 C319 C 0.06884 0.44200 0.41035
 C320 C 0.09258 0.42982 0.37943
 C321 C 0.55844 0.62770 0.41112
 C322 C 0.57040 0.66359 0.38020
 C323 C 0.37271 0.93035 0.41093
 C324 C 0.33677 0.90654 0.38009
 C325 C 0.55795 0.93211 0.08929
 C326 C 0.56997 0.90836 0.12028
 C327 C 0.37364 0.44187 0.08873
 C328 C 0.33768 0.42974 0.11959
 C329 C 0.06771 0.62600 0.08915
 C330 C 0.09148 0.66181 0.12017
 C331 C 0.44165 0.06754 0.58928
 C332 C 0.42968 0.09133 0.62031
 C333 C 0.62705 0.55906 0.58947
 C334 C 0.66277 0.57106 0.62048
 C335 C 0.93200 0.37378 0.58891
 C336 C 0.90825 0.33796 0.61992
   
