data_POSCAR
  _audit_creation_date              2014-09-24
  _audit_creation_method            'ToBaCCo'
  _symmetry_space_group_name_H-M    'P1'
  _symmetry_Int_Tables_number       1
  _symmetry_cell_setting            triclinic
  loop_
  _symmetry_equiv_pos_as_xyz
 x,y,z
_cell_length_a 22.8845
_cell_length_b 22.8845
_cell_length_c 22.8849
_cell_angle_alpha 90.000000
_cell_angle_beta 90.000000
_cell_angle_gamma 90.002400
loop_
  _atom_site_label
  _atom_site_type_symbol
  _atom_site_fract_x
  _atom_site_fract_y
  _atom_site_fract_z
N1 N 0.25000 0.25000 0.25000
 N2 N 0.75000 -0.25000 0.25000
 N3 N 0.74999 0.24999 0.75000
 N4 N 0.25001 -0.24999 0.75000
 N5 N 0.75000 -0.25000 0.75000
 N6 N 0.25000 0.25000 0.75000
 N7 N 0.25001 -0.24999 0.25000
 N8 N 0.74999 0.24999 0.25000
 O9 O 0.29828 0.05681 0.44302
 O10 O 0.29828 -0.05680 0.55698
 O11 O 0.29828 -0.05680 0.44302
 O12 O 0.29828 0.05681 0.55698
 O13 O 0.20173 0.05699 0.55680
 O14 O 0.20173 -0.05698 0.44320
 O15 O 0.20173 -0.05698 0.55680
 O16 O 0.20173 0.05699 0.44320
 Cu17 Cu 0.30798 0.00001 0.50000
 Cu18 Cu 0.19202 0.00000 0.50000
 C19 C 0.25000 0.07625 0.42376
 C20 C 0.25001 -0.07624 0.57624
 C21 C 0.25001 -0.07624 0.42376
 C22 C 0.25000 0.07625 0.57624
 O23 O 0.70172 0.05680 0.55698
 O24 O 0.70172 -0.05681 0.44302
 O25 O 0.70172 -0.05681 0.55698
 O26 O 0.70172 0.05680 0.44302
 O27 O 0.79827 0.05698 0.44320
 O28 O 0.79827 -0.05699 0.55680
 O29 O 0.79827 -0.05699 0.44320
 O30 O 0.79827 0.05698 0.55680
 Cu31 Cu 0.69202 -0.00001 0.50000
 Cu32 Cu 0.80798 -0.00000 0.50000
 C33 C 0.74999 0.07624 0.57624
 C34 C 0.75000 -0.07625 0.42376
 C35 C 0.75000 -0.07625 0.57624
 C36 C 0.74999 0.07624 0.42376
 O37 O 0.44301 0.29827 0.05680
 O38 O 0.55698 0.29827 -0.05680
 O39 O 0.44301 0.29827 -0.05680
 O40 O 0.55698 0.29827 0.05680
 O41 O 0.55680 0.20172 0.05698
 O42 O 0.44319 0.20172 -0.05698
 O43 O 0.55680 0.20172 -0.05698
 O44 O 0.44319 0.20172 0.05698
 Cu45 Cu 0.50000 0.30798 -0.00000
 Cu46 Cu 0.49999 0.19202 0.00000
 C47 C 0.42375 0.25000 0.07624
 C48 C 0.57624 0.24999 -0.07624
 C49 C 0.42375 0.25000 -0.07624
 C50 C 0.57624 0.24999 0.07624
 O51 O 0.55699 0.70173 0.05680
 O52 O 0.44302 0.70173 -0.05680
 O53 O 0.55699 0.70173 -0.05680
 O54 O 0.44302 0.70173 0.05680
 O55 O 0.44320 0.79828 0.05698
 O56 O 0.55681 0.79828 -0.05698
 O57 O 0.44320 0.79828 -0.05698
 O58 O 0.55681 0.79828 0.05698
 Cu59 Cu 0.50000 0.69202 -0.00000
 Cu60 Cu 0.50001 0.80798 0.00000
 C61 C 0.57625 0.75000 0.07624
 C62 C 0.42376 0.75001 -0.07624
 C63 C 0.57625 0.75000 -0.07624
 C64 C 0.42376 0.75001 0.07624
 O65 O 0.05680 0.44302 0.29827
 O66 O -0.05680 0.55698 0.29827
 O67 O -0.05681 0.44301 0.29827
 O68 O 0.05681 0.55699 0.29827
 O69 O 0.05699 0.55681 0.20173
 O70 O -0.05699 0.44319 0.20173
 O71 O -0.05698 0.55680 0.20173
 O72 O 0.05698 0.44320 0.20173
 Cu73 Cu 0.00000 0.50000 0.30798
 Cu74 Cu 0.00000 0.50000 0.19202
 C75 C 0.07624 0.42376 0.25000
 C76 C -0.07624 0.57624 0.25000
 C77 C -0.07625 0.42375 0.25000
 C78 C 0.07625 0.57625 0.25000
 O79 O 0.05681 0.55699 0.70173
 O80 O -0.05681 0.44301 0.70173
 O81 O -0.05680 0.55698 0.70173
 O82 O 0.05680 0.44302 0.70173
 O83 O 0.05698 0.44320 0.79827
 O84 O -0.05698 0.55680 0.79827
 O85 O -0.05699 0.44319 0.79827
 O86 O 0.05699 0.55681 0.79827
 Cu87 Cu 0.00000 0.50000 0.69202
 Cu88 Cu 0.00000 0.50000 0.80798
 C89 C 0.07625 0.57625 0.75000
 C90 C -0.07625 0.42375 0.75000
 C91 C -0.07624 0.57624 0.75000
 C92 C 0.07624 0.42376 0.75000
 N93 N 0.31220 0.30081 0.18033
 C94 C 0.29451 0.25000 0.20548
 N95 N 0.31966 0.19920 0.18780
 N96 N 0.36074 0.19919 0.14656
 C97 C 0.37841 0.25000 0.12158
 N98 N 0.35343 0.30081 0.13925
 N99 N 0.68034 0.80080 0.18780
 C100 C 0.70549 0.75000 0.20548
 N101 N 0.68780 0.69920 0.18033
 N102 N 0.64657 0.69919 0.13925
 C103 C 0.62159 0.75000 0.12158
 N104 N 0.63926 0.80081 0.14656
 N105 N 0.68780 0.30080 -0.18034
 C106 C 0.70548 0.24999 -0.20548
 N107 N 0.68033 0.19919 -0.18780
 N108 N 0.63924 0.19918 -0.14656
 C109 C 0.62158 0.24999 -0.12158
 N110 N 0.64656 0.30080 -0.13925
 N111 N 0.31967 0.80081 -0.18780
 C112 C 0.29452 0.75001 -0.20548
 N113 N 0.31220 0.69920 -0.18034
 N114 N 0.35344 0.69920 -0.13925
 C115 C 0.37842 0.75001 -0.12158
 N116 N 0.36076 0.80082 -0.14656
 N117 N 0.18780 0.31967 0.19920
 C118 C 0.20548 0.29452 0.25000
 N119 N 0.18033 0.31220 0.30080
 N120 N 0.13925 0.35344 0.30081
 C121 C 0.12158 0.37842 0.25000
 N122 N 0.14656 0.36075 0.19919
 N123 N 0.18780 0.68034 0.80080
 C124 C 0.20549 0.70549 0.75000
 N125 N 0.18034 0.68780 0.69920
 N126 N 0.13925 0.64656 0.69919
 C127 C 0.12159 0.62159 0.75000
 N128 N 0.14656 0.63926 0.80081
 N129 N -0.18780 0.68033 0.19920
 C130 C -0.20548 0.70548 0.25000
 N131 N -0.18033 0.68780 0.30080
 N132 N -0.13925 0.64656 0.30081
 C133 C -0.12158 0.62158 0.25000
 N134 N -0.14656 0.63925 0.19919
 N135 N -0.18780 0.31966 0.80080
 C136 C -0.20549 0.29451 0.75000
 N137 N -0.18034 0.31220 0.69920
 N138 N -0.13925 0.35344 0.69919
 C139 C -0.12159 0.37841 0.75000
 N140 N -0.14656 0.36075 0.80081
 N141 N 0.30080 0.18034 0.31220
 C142 C 0.25000 0.20549 0.29452
 N143 N 0.19920 0.18781 0.31967
 N144 N 0.19919 0.14657 0.36075
 C145 C 0.25000 0.12159 0.37842
 N146 N 0.30081 0.13926 0.35344
 N147 N 0.80080 0.18780 0.68034
 C148 C 0.74999 0.20548 0.70548
 N149 N 0.69919 0.18033 0.68780
 N150 N 0.69918 0.13924 0.64656
 C151 C 0.74999 0.12158 0.62158
 N152 N 0.80081 0.14656 0.63925
 N153 N 0.19920 -0.18780 0.68034
 C154 C 0.25001 -0.20547 0.70548
 N155 N 0.30081 -0.18033 0.68780
 N156 N 0.30082 -0.13924 0.64656
 C157 C 0.25001 -0.12158 0.62158
 N158 N 0.19920 -0.14656 0.63925
 N159 N 0.80080 -0.18781 0.31967
 C160 C 0.75000 -0.20549 0.29452
 N161 N 0.69920 -0.18034 0.31220
 N162 N 0.69919 -0.13926 0.35344
 C163 C 0.75000 -0.12159 0.37842
 N164 N 0.80081 -0.14657 0.36075
 N165 N 0.68034 0.80080 -0.18780
 C166 C 0.70549 0.75000 -0.20548
 N167 N 0.68780 0.69920 -0.18033
 N168 N 0.64656 0.69919 -0.13925
 C169 C 0.62159 0.75000 -0.12158
 N170 N 0.63926 0.80081 -0.14656
 N171 N 0.31220 0.30081 -0.18033
 C172 C 0.29451 0.25000 -0.20548
 N173 N 0.31966 0.19920 -0.18780
 N174 N 0.36074 0.19919 -0.14656
 C175 C 0.37841 0.25000 -0.12158
 N176 N 0.35344 0.30081 -0.13925
 N177 N 0.31967 0.80081 0.18780
 C178 C 0.29453 0.75001 0.20548
 N179 N 0.31220 0.69920 0.18034
 N180 N 0.35344 0.69920 0.13925
 C181 C 0.37842 0.75001 0.12158
 N182 N 0.36076 0.80082 0.14656
 N183 N 0.68033 0.19919 0.18780
 C184 C 0.70547 0.24999 0.20548
 N185 N 0.68780 0.30080 0.18034
 N186 N 0.64656 0.30080 0.13925
 C187 C 0.62158 0.24999 0.12158
 N188 N 0.63924 0.19918 0.14656
 N189 N -0.18033 0.68780 0.69920
 C190 C -0.20548 0.70548 0.75000
 N191 N -0.18780 0.68033 0.80080
 N192 N -0.14656 0.63925 0.80081
 C193 C -0.12158 0.62158 0.75000
 N194 N -0.13925 0.64656 0.69919
 N195 N -0.18780 0.31966 0.19920
 C196 C -0.20549 0.29451 0.25000
 N197 N -0.18034 0.31219 0.30080
 N198 N -0.13925 0.35344 0.30081
 C199 C -0.12159 0.37841 0.25000
 N200 N -0.14656 0.36075 0.19919
 N201 N 0.18780 0.31967 0.80080
 C202 C 0.20548 0.29452 0.75000
 N203 N 0.18033 0.31220 0.69920
 N204 N 0.13925 0.35344 0.69919
 C205 C 0.12158 0.37842 0.75000
 N206 N 0.14656 0.36075 0.80081
 N207 N 0.18781 0.68034 0.19920
 C208 C 0.20549 0.70549 0.25000
 N209 N 0.18034 0.68781 0.30080
 N210 N 0.13925 0.64656 0.30081
 C211 C 0.12159 0.62159 0.25000
 N212 N 0.14656 0.63925 0.19919
 N213 N 0.80080 -0.18780 0.68033
 C214 C 0.75000 -0.20549 0.70548
 N215 N 0.69920 -0.18034 0.68780
 N216 N 0.69919 -0.13926 0.64656
 C217 C 0.75000 -0.12159 0.62158
 N218 N 0.80081 -0.14656 0.63925
 N219 N 0.30081 -0.18033 0.31220
 C220 C 0.25001 -0.20547 0.29452
 N221 N 0.19920 -0.18780 0.31966
 N222 N 0.19920 -0.14656 0.36075
 C223 C 0.25001 -0.12158 0.37842
 N224 N 0.30082 -0.13924 0.35344
 N225 N 0.80080 0.18780 0.31966
 C226 C 0.74999 0.20547 0.29452
 N227 N 0.69919 0.18033 0.31220
 N228 N 0.69918 0.13924 0.35344
 C229 C 0.74999 0.12158 0.37842
 N230 N 0.80080 0.14656 0.36075
 N231 N 0.19920 0.18780 0.68033
 C232 C 0.25000 0.20549 0.70548
 N233 N 0.30080 0.18034 0.68780
 N234 N 0.30081 0.13926 0.64656
 C235 C 0.25000 0.12159 0.62158
 N236 N 0.19919 0.14656 0.63925
   
