data_POSCAR
  _audit_creation_date              2014-09-24
  _audit_creation_method            'ToBaCCo'
  _symmetry_space_group_name_H-M    'P1'
  _symmetry_Int_Tables_number       1
  _symmetry_cell_setting            triclinic
  loop_
  _symmetry_equiv_pos_as_xyz
 x,y,z
_cell_length_a 22.2171
_cell_length_b 21.8270
_cell_length_c 21.7639
_cell_angle_alpha 87.821500
_cell_angle_beta 88.656100
_cell_angle_gamma 90.775000
loop_
  _atom_site_label
  _atom_site_type_symbol
  _atom_site_fract_x
  _atom_site_fract_y
  _atom_site_fract_z
C1 C 0.00857 0.48776 0.26531
 C2 C -0.00181 0.50264 0.74465
 C3 C 0.24539 -0.00478 0.49047
 C4 C 0.75346 0.01342 0.49969
 C5 C 0.49547 0.23696 1.01472
 C6 C 0.48984 0.75994 0.99701
 B7 B 0.99952 1.05670 0.02961
 B8 B 0.99579 1.05291 -0.05032
 B9 B 1.05882 1.02967 -0.01398
 B10 B 1.03753 0.99144 0.05338
 B11 B 0.96094 0.99051 0.05881
 B12 B 0.93227 1.03064 -0.00531
 B13 B 0.99488 0.92714 -0.04313
 B14 B 0.99784 0.92800 0.03462
 B15 B 0.93468 0.95047 -0.00112
 B16 B 0.95588 0.98903 -0.06825
 B17 B 1.03198 0.99015 -0.07301
 B18 B 1.05820 0.95206 -0.00953
 B19 B 0.56836 0.51376 0.47331
 B20 B 0.56295 0.50710 0.55096
 B21 B 0.53966 0.57206 0.51385
 B22 B 0.50670 0.55233 0.44797
 B23 B 0.50962 0.47313 0.44159
 B24 B 0.54454 0.44638 0.50912
 B25 B 0.43961 0.50238 0.54589
 B26 B 0.44328 0.50934 0.46786
 B27 B 0.46557 0.44076 0.50557
 B28 B 0.50094 0.46418 0.57095
 B29 B 0.49859 0.54123 0.57380
 B30 B 0.46376 0.56904 0.51050
 C31 C 0.99454 1.43001 0.23085
 C32 C 1.03448 1.38197 0.22151
 C33 C 1.01740 1.32617 0.18892
 C34 C 1.06266 1.29182 0.16098
 C35 C 1.04811 1.23873 0.13016
 C36 C 0.98781 1.21866 0.12723
 C37 C 0.94268 1.25250 0.15587
 C38 C 0.95721 1.30554 0.18662
 C39 C 0.97070 1.16265 0.09545
 C40 C 1.01314 1.12616 0.06753
 H41 H 1.08052 1.38609 0.23616
 H42 H 1.10939 1.30636 0.16262
 H43 H 1.08409 1.21351 0.10877
 H44 H 0.89601 1.23760 0.15482
 H45 H 0.92124 1.32942 0.20946
 H46 H 0.92351 1.14933 0.09467
 H47 H 0.95108 1.42782 0.20952
 H48 H 0.99605 1.09303 0.04992
 C49 C 1.01418 0.54135 0.21857
 C50 C 1.01959 0.60222 0.23585
 C51 C 1.02266 0.65576 0.19154
 C52 C 1.01134 0.71423 0.21348
 C53 C 1.01267 0.76594 0.17350
 C54 C 1.02522 0.76030 0.11028
 C55 C 1.03854 0.70222 0.08858
 C56 C 1.03727 0.65043 0.12862
 C57 C 1.02659 0.81408 0.06648
 C58 C 0.99540 0.86769 0.07772
 H59 H 1.01891 0.61100 0.28454
 H60 H 1.00112 0.71995 0.26182
 H61 H 1.00469 0.81020 0.19264
 H62 H 1.04959 0.69682 0.04034
 H63 H 1.04852 0.60678 0.10991
 H64 H 1.05141 0.81034 0.02348
 H65 H 1.01244 0.53153 0.17030
 H66 H 0.96549 0.86866 0.11750
 C67 C 0.99389 1.44613 -0.21272
 C68 C 0.98239 1.38781 -0.23444
 C69 C 0.97858 1.33167 -0.19412
 C70 C 0.98609 1.27456 -0.22050
 C71 C 0.98310 1.22048 -0.18401
 C72 C 0.97248 1.22256 -0.12013
 C73 C 0.96304 1.27950 -0.09405
 C74 C 0.96603 1.33356 -0.13053
 C75 C 0.96971 1.16666 -0.07958
 C76 C 0.99686 1.11193 -0.09473
 H77 H 0.97784 1.38306 -0.28351
 H78 H 0.99458 1.27178 -0.26953
 H79 H 0.98827 1.17738 -0.20632
 H80 H 0.95367 1.28221 -0.04514
 H81 H 0.95756 1.37639 -0.10873
 H82 H 0.94805 1.16996 -0.03487
 H83 H 1.00465 1.45058 -0.16486
 H84 H 1.02204 1.10921 -0.13756
 C85 C 1.00166 0.56013 -0.21831
 C86 C 1.00902 0.61831 -0.24674
 C87 C 1.01527 0.67505 -0.21228
 C88 C 1.04415 0.72630 -0.24124
 C89 C 1.05078 0.78079 -0.21026
 C90 C 1.02768 0.78537 -0.15014
 C91 C 0.99906 0.73399 -0.12085
 C92 C 0.99250 0.67951 -0.15177
 C93 C 1.03427 0.84404 -0.11929
 C94 C 0.99233 0.86324 -0.07569
 H95 H 1.01373 0.62177 -0.29644
 H96 H 1.06196 0.72405 -0.28786
 H97 H 1.07323 0.81976 -0.23360
 H98 H 0.98215 0.73541 -0.07390
 H99 H 0.96879 0.64155 -0.12828
 H100 H 1.07091 0.87394 -0.13482
 H101 H 1.00039 0.55553 -0.16863
 H102 H 0.95433 0.83351 -0.06444
 C103 C 1.20162 0.99485 0.43787
 C104 C 1.22144 0.98935 0.37684
 C105 C 1.18085 0.98405 0.32412
 C106 C 1.20487 0.99465 0.26437
 C107 C 1.16889 0.98829 0.21313
 C108 C 1.10788 0.97098 0.22061
 C109 C 1.08403 0.95914 0.28017
 C110 C 1.12000 0.96573 0.33152
 C111 C 1.06885 0.96319 0.16723
 C112 C 1.07811 0.99672 0.11195
 H113 H 1.26955 0.98898 0.36735
 H114 H 1.25182 1.00768 0.25728
 H115 H 1.18935 0.99570 0.16778
 H116 H 1.03737 0.94487 0.28699
 H117 H 1.10017 0.95507 0.37655
 H118 H 1.03010 0.93299 0.17318
 H119 H 1.15409 1.00032 0.44776
 H120 H 1.11234 1.03231 0.10982
 C121 C 1.21131 0.99524 -0.44801
 C122 C 1.24091 0.99901 -0.39224
 C123 C 1.20930 0.99891 -0.33141
 C124 C 1.14831 1.01468 -0.32479
 C125 C 1.12033 1.01462 -0.26654
 C126 C 1.15271 0.99887 -0.21359
 C127 C 1.21385 0.98457 -0.22013
 C128 C 1.24181 0.98455 -0.27838
 C129 C 1.12493 0.99879 -0.15103
 C130 C 1.06318 0.99111 -0.13949
 H131 H 1.28970 1.00037 -0.39335
 H132 H 1.12222 1.02855 -0.36411
 H133 H 1.07383 1.02841 -0.26329
 H134 H 1.24000 0.97299 -0.18003
 H135 H 1.28899 0.97300 -0.28204
 H136 H 1.15483 1.00173 -0.11280
 H137 H 1.16297 0.98860 -0.44737
 H138 H 1.03380 0.98383 -0.17744
 C139 C 0.79596 1.01716 0.44397
 C140 C 0.77612 1.02938 0.38441
 C141 C 0.81704 1.02980 0.32975
 C142 C 0.79342 1.01624 0.27259
 C143 C 0.83098 1.01483 0.22030
 C144 C 0.89304 1.02737 0.22422
 C145 C 0.91631 1.04323 0.28084
 C146 C 0.87879 1.04427 0.33325
 C147 C 0.93379 1.02625 0.16969
 C148 C 0.92297 0.98833 0.12109
 H149 H 0.72839 1.03543 0.37749
 H150 H 0.74584 1.00608 0.26851
 H151 H 0.81112 1.00480 0.17680
 H152 H 0.96375 1.05428 0.28462
 H153 H 0.89818 1.05721 0.37609
 H154 H 0.97433 1.05423 0.16913
 H155 H 0.84258 1.00486 0.44985
 H156 H 0.88588 0.95578 0.12491
 C157 C 0.78980 1.00659 -0.44219
 C158 C 0.76341 0.99798 -0.38362
 C159 C 0.79982 0.98406 -0.32888
 C160 C 0.78096 1.00476 -0.27146
 C161 C 0.81559 0.99341 -0.21950
 C162 C 0.86934 0.96028 -0.22399
 C163 C 0.88667 0.93709 -0.28078
 C164 C 0.85249 0.94914 -0.33288
 C165 C 0.90792 0.94959 -0.17032
 C166 C 0.91459 0.99377 -0.12648
 H167 H 0.71514 1.00256 -0.37780
 H168 H 0.73994 1.03067 -0.26705
 H169 H 0.80003 1.01021 -0.17583
 H170 H 0.92736 0.91062 -0.28507
 H171 H 0.86705 0.93056 -0.37609
 H172 H 0.93488 0.90889 -0.16863
 H173 H 0.83851 1.00733 -0.44617
 H174 H 0.89244 1.03716 -0.13375
 C175 C 1.44200 1.19392 0.00824
 C176 C 1.38277 1.21452 0.00701
 C177 C 1.32982 1.17296 0.00432
 C178 C 1.27452 1.19758 -0.01306
 C179 C 1.22299 1.16034 -0.01444
 C180 C 1.22592 1.09733 0.00146
 C181 C 1.28109 1.07289 0.01949
 C182 C 1.33247 1.11018 0.02119
 C183 C 1.17251 1.05615 0.00319
 C184 C 1.11738 1.07151 -0.02186
 H185 H 1.37501 1.26342 0.00713
 H186 H 1.27106 1.24599 -0.02522
 H187 H 1.18118 1.18174 -0.02667
 H188 H 1.28435 1.02478 0.03306
 H189 H 1.37347 1.08962 0.03723
 H190 H 1.17707 1.01186 0.02615
 H191 H 1.45020 1.14575 0.00230
 H192 H 1.11266 1.11421 -0.04780
 C193 C 0.55275 1.19962 0.01410
 C194 C 0.61005 1.22567 0.00437
 C195 C 0.66321 1.18715 -0.00545
 C196 C 0.71972 1.20642 0.01443
 C197 C 0.77020 1.16978 0.00590
 C198 C 0.76486 1.11386 -0.02378
 C199 C 0.70872 1.09568 -0.04530
 C200 C 0.65831 1.13184 -0.03615
 C201 C 0.81645 1.07327 -0.03255
 C202 C 0.86860 1.07926 0.00040
 H203 H 0.61580 1.27505 0.00385
 H204 H 0.72455 1.24931 0.03742
 H205 H 0.81324 1.18525 0.02236
 H206 H 0.70371 1.05305 -0.06874
 H207 H 0.61568 1.11678 -0.05386
 H208 H 0.81137 1.03478 -0.06207
 H209 H 0.54934 1.15041 0.02247
 H210 H 0.89662 1.05023 -0.00516
 C211 C 1.43178 0.79588 -0.00182
 C212 C 1.37570 0.76806 -0.00996
 C213 C 1.31852 0.79996 0.00139
 C214 C 1.26864 0.78684 -0.03441
 C215 C 1.21398 0.81628 -0.02439
 C216 C 1.20809 0.85844 0.02254
 C217 C 1.25723 0.86991 0.05982
 C218 C 1.31223 0.84135 0.04906
 C219 C 1.15123 0.89084 0.03318
 C220 C 1.11789 0.91355 -0.01581
 H221 H 1.37376 0.72180 -0.02624
 H222 H 1.27223 0.75432 -0.07066
 H223 H 1.17618 0.80554 -0.05282
 H224 H 1.25329 0.90180 0.09662
 H225 H 1.34938 0.85085 0.07873
 H226 H 1.13818 0.90030 0.07987
 H227 H 1.43320 0.84301 0.01208
 H228 H 1.13463 0.90589 -0.06174
 C229 C 0.54399 0.80283 -0.00065
 C230 C 0.60255 0.78033 -0.00102
 C231 C 0.65680 0.81953 0.00351
 C232 C 0.71087 0.80014 -0.02318
 C233 C 0.76365 0.83487 -0.01872
 C234 C 0.76382 0.88917 0.01427
 C235 C 0.70948 0.90871 0.04078
 C236 C 0.65640 0.87425 0.03557
 C237 C 0.81885 0.92758 0.01985
 C238 C 0.87632 0.90776 0.00424
 H239 H 0.60891 0.73178 -0.00714
 H240 H 0.71213 0.75824 -0.04832
 H241 H 0.80361 0.81900 -0.04206
 H242 H 0.70816 0.95060 0.06591
 H243 H 0.61561 0.88982 0.05779
 H244 H 0.81369 0.97258 0.03789
 H245 H 0.53727 0.85175 0.00163
 H246 H 0.88261 0.85981 -0.00297
 C247 C 0.95582 0.49754 0.30963
 C248 C 0.89725 0.50761 0.28950
 C249 C 0.84291 0.50495 0.33057
 C250 C 0.78891 0.52888 0.30837
 C251 C 0.73562 0.52370 0.34381
 C252 C 0.73524 0.49428 0.40247
 C253 C 0.78909 0.47006 0.42459
 C254 C 0.84240 0.47531 0.38920
 C255 C 0.67936 0.48541 0.44038
 C256 C 0.62950 0.52318 0.43466
 H257 H 0.89078 0.51608 0.24074
 H258 H 0.78775 0.55093 0.26298
 H259 H 0.69470 0.54120 0.32423
 H260 H 0.78981 0.44647 0.46929
 H261 H 0.88234 0.45433 0.40740
 H262 H 0.67932 0.45013 0.47648
 H263 H 0.96337 0.49304 0.35854
 H264 H 0.63182 0.56217 0.40256
 C265 C 0.06498 0.47949 0.30345
 C266 C 0.12131 0.50678 0.28927
 C267 C 0.17540 0.49738 0.32730
 C268 C 0.23216 0.51426 0.30179
 C269 C 0.28427 0.50706 0.33602
 C270 C 0.28065 0.48311 0.39690
 C271 C 0.22417 0.46579 0.42242
 C272 C 0.17197 0.47341 0.38838
 C273 C 0.33485 0.47516 0.43447
 C274 C 0.38494 0.51413 0.42738
 H275 H 0.12699 0.53455 0.24723
 H276 H 0.23627 0.53281 0.25497
 H277 H 0.32732 0.51945 0.31437
 H278 H 0.22031 0.44737 0.46931
 H279 H 0.12932 0.46137 0.41078
 H280 H 0.33291 0.44099 0.47170
 H281 H 0.06095 0.44689 0.34205
 H282 H 0.38257 0.55269 0.39514
 C283 C 0.94307 0.50601 0.70493
 C284 C 0.88539 0.51502 0.72944
 C285 C 0.83169 0.51986 0.69079
 C286 C 0.77459 0.50761 0.71766
 C287 C 0.72298 0.51158 0.68229
 C288 C 0.72777 0.52795 0.61918
 C289 C 0.78465 0.54193 0.59279
 C290 C 0.83611 0.53810 0.62811
 C291 C 0.67477 0.53315 0.57984
 C292 C 0.62007 0.50317 0.59345
 H293 H 0.87943 0.51697 0.77889
 H294 H 0.76993 0.49473 0.76612
 H295 H 0.67965 0.50284 0.70485
 H296 H 0.78933 0.55583 0.54455
 H297 H 0.87894 0.55055 0.60618
 H298 H 0.68048 0.55982 0.53728
 H299 H 0.94827 0.49806 0.65634
 H300 H 0.61693 0.47211 0.63307
 C301 C 0.05434 0.49880 0.70409
 C302 C 0.11206 0.50572 0.72699
 C303 C 0.16665 0.51034 0.68687
 C304 C 0.22269 0.49785 0.71240
 C305 C 0.27537 0.50332 0.67623
 C306 C 0.27285 0.52160 0.61365
 C307 C 0.21703 0.53573 0.58851
 C308 C 0.16435 0.53011 0.62464
 C309 C 0.32756 0.52829 0.57413
 C310 C 0.37929 0.49487 0.58541
 H311 H 0.11716 0.50871 0.77619
 H312 H 0.22573 0.48392 0.76053
 H313 H 0.31790 0.49444 0.69783
 H314 H 0.21418 0.55108 0.54074
 H315 H 0.12230 0.54269 0.60389
 H316 H 0.32576 0.55828 0.53354
 H317 H 0.04963 0.48915 0.65601
 H318 H 0.37921 0.46106 0.62299
 C319 C 0.48932 0.71684 0.05332
 C320 C 0.48539 0.73836 0.11292
 C321 C 0.48566 0.69761 0.16879
 C322 C 0.50077 0.72250 0.22499
 C323 C 0.50161 0.68546 0.27877
 C324 C 0.48741 0.62254 0.27715
 C325 C 0.47096 0.59802 0.22125
 C326 C 0.46988 0.63504 0.16765
 C327 C 0.48597 0.58155 0.33272
 C328 C 0.51266 0.59557 0.38786
 H329 H 0.48447 0.78746 0.11862
 H330 H 0.51200 0.77081 0.22728
 H331 H 0.51227 0.70671 0.32132
 H332 H 0.45854 0.54997 0.21908
 H333 H 0.45553 0.61442 0.12597
 H334 H 0.46279 0.53807 0.32943
 H335 H 0.49423 0.66825 0.04700
 H336 H 0.54146 0.63550 0.38923
 C337 C 0.49586 0.72304 0.93938
 C338 C 0.48472 0.74687 0.88042
 C339 C 0.49810 0.71137 0.82542
 C340 C 0.45844 0.71318 0.77626
 C341 C 0.46957 0.67831 0.72469
 C342 C 0.52128 0.64200 0.72109
 C343 C 0.56213 0.64214 0.76915
 C344 C 0.55044 0.67608 0.82117
 C345 C 0.53434 0.60529 0.66696
 C346 C 0.48880 0.57606 0.63580
 H347 H 0.46313 0.79085 0.87474
 H348 H 0.41833 0.74078 0.77827
 H349 H 0.43821 0.68048 0.68735
 H350 H 0.60271 0.61526 0.76676
 H351 H 0.58272 0.67530 0.85769
 H352 H 0.58089 0.59930 0.65345
 H353 H 0.51543 0.67789 0.94351
 H354 H 0.44302 0.57844 0.65355
 C355 C 0.48653 0.27077 0.07390
 C356 C 0.52358 0.26712 0.12487
 C357 C 0.51117 0.30300 0.17981
 C358 C 0.55938 0.32424 0.21397
 C359 C 0.54881 0.35993 0.26498
 C360 C 0.48957 0.37426 0.28307
 C361 C 0.44137 0.35166 0.24984
 C362 C 0.45195 0.31628 0.19875
 C363 C 0.47654 0.41073 0.33725
 C364 C 0.52189 0.43628 0.37096
 H365 H 0.56428 0.24051 0.12366
 H366 H 0.60531 0.31400 0.20055
 H367 H 0.58697 0.37602 0.29023
 H368 H 0.39536 0.36127 0.26355
 H369 H 0.41365 0.29876 0.17472
 H370 H 0.43009 0.41561 0.35251
 H371 H 0.44869 0.30149 0.07553
 H372 H 0.50956 0.45437 0.40563
 C373 C 0.49706 0.28339 0.96109
 C374 C 0.50664 0.26603 0.90059
 C375 C 0.50848 0.30969 0.84685
 C376 C 0.50386 0.28645 0.78795
 C377 C 0.50554 0.32578 0.73581
 C378 C 0.51162 0.38958 0.74164
 C379 C 0.51763 0.41268 0.80045
 C380 C 0.51629 0.37331 0.85255
 C381 C 0.51388 0.43336 0.68802
 C382 C 0.49698 0.41840 0.62916
 H383 H 0.51169 0.21768 0.89233
 H384 H 0.49894 0.23756 0.78221
 H385 H 0.50302 0.30549 0.69145
 H386 H 0.52353 0.46149 0.80616
 H387 H 0.52238 0.39319 0.89671
 H388 H 0.52943 0.47938 0.69585
 H389 H 0.48770 0.33072 0.97022
 H390 H 0.47904 0.37331 0.62122
 C391 C 0.71130 0.95884 0.49299
 C392 C 0.72562 0.89871 0.51056
 C393 C 0.68329 0.84623 0.50518
 C394 C 0.70621 0.78669 0.50749
 C395 C 0.66781 0.73589 0.50367
 C396 C 0.60534 0.74361 0.49825
 C397 C 0.58232 0.80303 0.49543
 C398 C 0.62072 0.85391 0.49956
 C399 C 0.56385 0.69053 0.49399
 C400 C 0.57666 0.63380 0.52152
 H401 H 0.76996 0.88961 0.52818
 H402 H 0.75410 0.77945 0.51178
 H403 H 0.68737 0.69072 0.50403
 H404 H 0.53438 0.81002 0.49115
 H405 H 0.60080 0.89881 0.49949
 H406 H 0.52240 0.69702 0.46982
 H407 H 0.67030 0.96676 0.46818
 H408 H 0.61352 0.63215 0.55263
 C409 C 0.71566 0.07067 0.50234
 C410 C 0.73962 0.13007 0.49649
 C411 C 0.70037 0.18412 0.49056
 C412 C 0.71982 0.24068 0.51194
 C413 C 0.68306 0.29212 0.50685
 C414 C 0.62643 0.28786 0.47950
 C415 C 0.60803 0.23190 0.45611
 C416 C 0.64443 0.18044 0.46176
 C417 C 0.58646 0.34112 0.47295
 C418 C 0.58531 0.38763 0.51483
 H419 H 0.78802 0.13690 0.49607
 H420 H 0.76326 0.24490 0.53309
 H421 H 0.69951 0.33524 0.52337
 H422 H 0.56511 0.22787 0.43384
 H423 H 0.62907 0.13812 0.44259
 H424 H 0.55531 0.34163 0.43580
 H425 H 0.66746 0.06522 0.51006
 H426 H 0.61319 0.38373 0.55482
 C427 C 0.28365 0.93811 0.48780
 C428 C 0.26030 0.87917 0.50070
 C429 C 0.29649 0.82382 0.49154
 C430 C 0.28831 0.77272 0.53204
 C431 C 0.32273 0.72020 0.52469
 C432 C 0.36514 0.71767 0.47590
 C433 C 0.37167 0.76785 0.43406
 C434 C 0.33802 0.82071 0.44201
 C435 C 0.40209 0.66295 0.46698
 C436 C 0.42443 0.62873 0.51648
 H437 H 0.21517 0.87366 0.52023
 H438 H 0.25584 0.77380 0.56989
 H439 H 0.31551 0.68138 0.55661
 H440 H 0.40348 0.76640 0.39564
 H441 H 0.34387 0.85868 0.40885
 H442 H 0.41489 0.65233 0.42053
 H443 H 0.32985 0.94264 0.47100
 H444 H 0.41420 0.64313 0.56251
 C445 C 0.28563 0.05208 0.48272
 C446 C 0.26538 0.11113 0.49370
 C447 C 0.30541 0.16590 0.48677
 C448 C 0.29569 0.21563 0.52465
 C449 C 0.33365 0.26740 0.51996
 C450 C 0.38158 0.27063 0.47650
 C451 C 0.39035 0.22154 0.43766
 C452 C 0.35275 0.16967 0.44269
 C453 C 0.42225 0.32469 0.46949
 C454 C 0.42113 0.37215 0.51011
 H455 H 0.22011 0.11673 0.51202
 H456 H 0.25915 0.21401 0.55855
 H457 H 0.32525 0.30486 0.55009
 H458 H 0.42647 0.22330 0.40327
 H459 H 0.36035 0.13310 0.41134
 H460 H 0.45369 0.32705 0.43082
 H461 H 0.33177 0.04677 0.46694
 H462 H 0.44736 0.40354 0.49878
   
