data_POSCAR
  _audit_creation_date              2014-09-24
  _audit_creation_method            'ToBaCCo'
  _symmetry_space_group_name_H-M    'P1'
  _symmetry_Int_Tables_number       1
  _symmetry_cell_setting            triclinic
  loop_
  _symmetry_equiv_pos_as_xyz
 x,y,z
_cell_length_a 43.3022
_cell_length_b 45.3986
_cell_length_c 43.2542
_cell_angle_alpha 90.201600
_cell_angle_beta 90.005900
_cell_angle_gamma 89.823000
loop_
  _atom_site_label
  _atom_site_type_symbol
  _atom_site_fract_x
  _atom_site_fract_y
  _atom_site_fract_z
Si1 Si 0.25103 0.25274 0.24930
 Si2 Si 0.75112 0.75266 0.24964
 Si3 Si 0.75167 0.24808 0.74923
 Si4 Si 0.25176 0.74820 0.74934
 C5 C 0.04628 0.04424 0.01105
 H6 H 0.04713 0.04524 -0.01392
 C7 C 0.06416 0.06351 0.02873
 H8 H 0.07884 0.07922 0.01708
 C9 C 0.02565 0.02269 0.05634
 H10 H 0.01025 0.00710 0.06705
 C11 C 0.04310 0.04157 0.07492
 H12 H 0.04110 0.03996 0.09981
 N13 N 0.02780 0.02411 0.02501
 C14 C 0.01571 -0.04585 -0.04333
 H15 H -0.00923 -0.04709 -0.04397
 C16 C 0.03339 -0.06487 -0.06163
 H17 H 0.02177 -0.08066 -0.07637
 C18 C 0.06091 -0.02384 -0.02298
 H19 H 0.07159 -0.00813 -0.00757
 C20 C 0.07950 -0.04244 -0.04087
 H21 H 0.10436 -0.04053 -0.03915
 Zn22 Zn 0.00384 -0.00076 -0.00071
 N23 N 0.02962 -0.02558 -0.02483
 C24 C -0.01838 0.02208 -0.05779
 N25 N -0.02029 0.02390 -0.02646
 C26 C -0.03883 0.04418 -0.01249
 C27 C -0.05710 0.06312 -0.03015
 C28 C -0.03623 0.04060 -0.07636
 C29 C -0.00805 -0.04540 0.04216
 C30 C -0.02583 -0.06422 0.06034
 C31 C -0.07183 -0.04204 0.03889
 C32 C -0.05316 -0.02364 0.02114
 N33 N -0.02187 -0.02535 0.02338
 H34 H -0.00294 0.00637 -0.06852
 H35 H -0.03950 0.04549 0.01248
 H36 H -0.07187 0.07891 -0.01849
 H37 H -0.03447 0.03863 -0.10125
 H38 H 0.01689 -0.04664 0.04309
 H39 H -0.01430 -0.07984 0.07531
 H40 H -0.09667 -0.04016 0.03684
 H41 H -0.06376 -0.00814 0.00551
 C42 C 0.06577 -0.06323 -0.06066
 C43 C 0.06279 0.06228 0.06115
 C44 C -0.05821 -0.06260 0.05896
 C45 C -0.05606 0.06140 -0.06257
 C46 C 0.03776 0.54943 0.51361
 H47 H 0.03541 0.55304 0.48901
 C48 C 0.05579 0.56849 0.53141
 H49 H 0.06739 0.58669 0.52026
 C50 C 0.02531 0.52132 0.55791
 H51 H 0.01311 0.50319 0.56830
 C52 C 0.04342 0.53960 0.57651
 H53 H 0.04498 0.53515 0.60104
 N54 N 0.02318 0.52624 0.52698
 C55 C 0.01192 0.45434 0.46138
 H56 H -0.01259 0.45040 0.46375
 C57 C 0.02992 0.43558 0.44310
 H58 H 0.01901 0.41726 0.43135
 C59 C 0.05580 0.48301 0.47405
 H60 H 0.06586 0.50133 0.48640
 C61 C 0.07459 0.46505 0.45568
 H62 H 0.09903 0.46982 0.45409
 Zn63 Zn -0.00089 0.50144 0.50121
 N64 N 0.02503 0.47753 0.47634
 C65 C -0.02495 0.52280 0.44459
 N66 N -0.02575 0.52577 0.47587
 C67 C -0.04349 0.54679 0.48967
 C68 C -0.06183 0.56556 0.47187
 C69 C -0.04289 0.54111 0.42590
 C70 C -0.01182 0.45474 0.54213
 C71 C -0.02928 0.43530 0.55991
 C72 C -0.07558 0.45959 0.54190
 C73 C -0.05723 0.47859 0.52453
 N74 N -0.02593 0.47611 0.52524
 H75 H -0.01033 0.50628 0.43403
 H76 H -0.04336 0.54893 0.51459
 H77 H -0.07586 0.58206 0.48337
 H78 H -0.04193 0.53828 0.40105
 H79 H 0.01309 0.45285 0.54178
 H80 H -0.01752 0.41859 0.57332
 H81 H -0.10044 0.46211 0.54109
 H82 H -0.06811 0.49521 0.51041
 C83 C 0.06169 0.44091 0.43998
 C84 C 0.05900 0.56352 0.56328
 C85 C -0.06164 0.43764 0.56003
 C86 C -0.06173 0.56284 0.43949
 C87 C 0.53536 0.04809 0.51334
 H88 H 0.53283 0.05176 0.48877
 C89 C 0.55338 0.06721 0.53108
 H90 H 0.56479 0.08550 0.51992
 C91 C 0.52340 0.01977 0.55763
 H92 H 0.51140 0.00152 0.56803
 C93 C 0.54152 0.03809 0.57616
 H94 H 0.54329 0.03357 0.60066
 N95 N 0.52102 0.02477 0.52673
 C96 C 0.51015 -0.04721 0.46116
 H97 H 0.48566 -0.05130 0.46351
 C98 C 0.52830 -0.06585 0.44290
 H99 H 0.51754 -0.08423 0.43113
 C100 C 0.55381 -0.01825 0.47388
 H101 H 0.56374 0.00013 0.48624
 C102 C 0.57275 -0.03609 0.45553
 H103 H 0.59715 -0.03115 0.45397
 Zn104 Zn 0.49704 -0.00012 0.50099
 N105 N 0.52308 -0.02393 0.47614
 C106 C 0.47298 0.02119 0.44434
 N107 N 0.47212 0.02414 0.47563
 C108 C 0.45438 0.04517 0.48942
 C109 C 0.43614 0.06401 0.47160
 C110 C 0.45514 0.03958 0.42564
 C111 C 0.48624 -0.04684 0.54194
 C112 C 0.46885 -0.06624 0.55983
 C113 C 0.42248 -0.04198 0.54194
 C114 C 0.44077 -0.02303 0.52445
 N115 N 0.47207 -0.02549 0.52506
 H116 H 0.48759 0.00466 0.43379
 H117 H 0.45448 0.04729 0.51434
 H118 H 0.42215 0.08055 0.48309
 H119 H 0.45616 0.03679 0.40079
 H120 H 0.51115 -0.04873 0.54151
 H121 H 0.48067 -0.08291 0.57324
 H122 H 0.39762 -0.03946 0.54123
 H123 H 0.42984 -0.00643 0.51035
 C124 C 0.56004 -0.06030 0.43980
 C125 C 0.55686 0.06215 0.56291
 C126 C 0.43649 -0.06388 0.56009
 C127 C 0.43635 0.06135 0.43922
 C128 C 0.54464 0.54603 0.01104
 H129 H 0.54548 0.54706 -0.01393
 C130 C 0.56263 0.56521 0.02873
 H131 H 0.57736 0.58089 0.01709
 C132 C 0.52401 0.52447 0.05632
 H133 H 0.50858 0.50890 0.06702
 C134 C 0.54156 0.54325 0.07491
 H135 H 0.53960 0.54159 0.09979
 N136 N 0.52613 0.52592 0.02499
 C137 C 0.51415 0.45592 -0.04330
 H138 H 0.48921 0.45470 -0.04400
 C139 C 0.53186 0.43684 -0.06148
 H140 H 0.52027 0.42103 -0.07622
 C141 C 0.55932 0.47793 -0.02285
 H142 H 0.56997 0.49366 -0.00744
 C143 C 0.57794 0.45927 -0.04063
 H144 H 0.60279 0.46114 -0.03883
 Zn145 Zn 0.50220 0.50103 -0.00073
 N146 N 0.52802 0.47621 -0.02479
 C147 C 0.48005 0.52380 -0.05785
 N148 N 0.47803 0.52562 -0.02652
 C149 C 0.45936 0.54583 -0.01262
 C150 C 0.44109 0.56472 -0.03036
 C151 C 0.46221 0.54226 -0.07648
 C152 C 0.49052 0.45633 0.04207
 C153 C 0.47286 0.43739 0.06023
 C154 C 0.42672 0.45944 0.03894
 C155 C 0.44528 0.47798 0.02122
 N156 N 0.47657 0.47638 0.02338
 H157 H 0.49559 0.50814 -0.06851
 H158 H 0.45859 0.54715 0.01235
 H159 H 0.42622 0.58046 -0.01875
 H160 H 0.46408 0.54029 -0.10136
 H161 H 0.51547 0.45518 0.04294
 H162 H 0.48449 0.42177 0.07511
 H163 H 0.40186 0.46123 0.03695
 H164 H 0.43458 0.49349 0.00565
 C165 C 0.56425 0.43844 -0.06041
 C166 C 0.56133 0.56390 0.06115
 C167 C 0.44047 0.43887 0.05890
 C168 C 0.44226 0.56299 -0.06278
 C169 C 0.19375 -0.19316 -0.19142
 N170 N 0.18040 -0.21325 -0.21050
 N171 N 0.19771 -0.23077 -0.22824
 C172 C 0.22895 -0.22882 -0.22752
 N173 N 0.24233 -0.20875 -0.20851
 N174 N 0.22503 -0.19122 -0.19076
 C175 C 0.17467 -0.17388 -0.17183
 N176 N 0.18801 -0.15384 -0.15270
 N177 N 0.17071 -0.13635 -0.13493
 C178 C 0.13943 -0.13825 -0.13563
 N179 N 0.12609 -0.15829 -0.15475
 N180 N 0.14340 -0.17579 -0.17252
 C181 C 0.12035 -0.11891 -0.11609
 N182 N 0.08909 -0.12072 -0.11689
 N183 N 0.07179 -0.10310 -0.09926
 C184 C 0.08505 -0.08298 -0.08013
 N185 N 0.11637 -0.08125 -0.07937
 N186 N 0.13368 -0.09886 -0.09700
 C187 C 0.19133 0.31191 0.31007
 N188 N 0.21506 0.32331 0.29349
 N189 N 0.23246 0.30600 0.27564
 C190 C 0.22685 0.27667 0.27388
 N191 N 0.20326 0.26520 0.29052
 N192 N 0.18573 0.28254 0.30823
 C193 C 0.17205 0.33105 0.32959
 N194 N 0.14578 0.32064 0.34268
 N195 N 0.12820 0.33809 0.36023
 C196 C 0.13636 0.36653 0.36549
 N197 N 0.16269 0.37690 0.35249
 N198 N 0.18017 0.35950 0.33478
 C199 C 0.11702 0.38577 0.38485
 N200 N 0.12720 0.41278 0.39361
 N201 N 0.10968 0.43024 0.41119
 C202 C 0.08122 0.42145 0.42055
 N203 N 0.07105 0.39442 0.41167
 N204 N 0.08865 0.37688 0.39424
 C205 C 0.69098 -0.18845 0.31027
 N206 N 0.71469 -0.17692 0.29376
 N207 N 0.73225 -0.19415 0.27595
 C208 C 0.72682 -0.22350 0.27420
 N209 N 0.70325 -0.23510 0.29078
 N210 N 0.68557 -0.21785 0.30844
 C211 C 0.67151 -0.16941 0.32971
 N212 N 0.64526 -0.17999 0.34272
 N213 N 0.62750 -0.16265 0.36020
 C214 C 0.63543 -0.13416 0.36546
 N215 N 0.66173 -0.12362 0.35255
 N216 N 0.67939 -0.14090 0.33491
 C217 C 0.61589 -0.11504 0.38476
 N218 N 0.62584 -0.08796 0.39354
 N219 N 0.60815 -0.07063 0.41109
 C220 C 0.57974 -0.07962 0.42039
 N221 N 0.56980 -0.10671 0.41148
 N222 N 0.58756 -0.12413 0.39409
 C223 C 0.69243 0.30785 -0.19021
 N224 N 0.72373 0.30953 -0.18922
 N225 N 0.74104 0.29201 -0.20696
 C226 C 0.72766 0.27223 -0.22627
 N227 N 0.69643 0.27051 -0.22732
 N228 N 0.67910 0.28802 -0.20959
 C229 C 0.67334 0.32718 -0.17070
 N230 N 0.64205 0.32550 -0.17170
 N231 N 0.62472 0.34308 -0.15404
 C232 C 0.63804 0.36297 -0.13474
 N233 N 0.66932 0.36464 -0.13373
 N234 N 0.68665 0.34707 -0.15138
 C235 C 0.61892 0.38242 -0.11536
 N236 N 0.63222 0.40240 -0.09617
 N237 N 0.61487 0.42013 -0.07870
 C238 C 0.58355 0.41858 -0.07971
 N239 N 0.57032 0.39852 -0.09895
 N240 N 0.58765 0.38080 -0.11642
 C241 C -0.18699 0.18999 -0.19088
 N242 N -0.20680 0.20958 -0.17767
 N243 N -0.22475 0.22663 -0.19515
 C244 C -0.22350 0.22468 -0.22641
 N245 N -0.20374 0.20515 -0.23965
 N246 N -0.18579 0.18809 -0.22219
 C247 C -0.16726 0.17109 -0.17168
 N248 N -0.14763 0.15141 -0.18497
 N249 N -0.12980 0.13416 -0.16760
 C250 C -0.13094 0.13595 -0.13628
 N251 N -0.15055 0.15564 -0.12298
 N252 N -0.16839 0.17290 -0.14036
 C253 C -0.11140 0.11679 -0.11716
 N254 N -0.11253 0.11849 -0.08585
 N255 N -0.09491 0.10097 -0.06854
 C256 C -0.07549 0.08106 -0.08184
 N257 N -0.07441 0.07945 -0.11320
 N258 N -0.09201 0.09696 -0.13052
 C259 C -0.18958 0.69305 0.30987
 N260 N -0.18833 0.69099 0.27856
 N261 N -0.20568 0.70849 0.26096
 C262 C -0.22486 0.72862 0.27406
 N263 N -0.22616 0.73072 0.30532
 N264 N -0.20881 0.71324 0.32293
 C265 C -0.17049 0.67372 0.32926
 N266 N -0.17150 0.67591 0.36055
 N267 N -0.15420 0.65834 0.37812
 C268 C -0.13527 0.63792 0.36503
 N269 N -0.13426 0.63573 0.33373
 N270 N -0.15155 0.65331 0.31617
 C271 C -0.11622 0.61850 0.38436
 N272 N -0.09758 0.59789 0.37122
 N273 N -0.08031 0.58025 0.38872
 C274 C -0.08097 0.58251 0.42005
 N275 N -0.09965 0.60318 0.43313
 N276 N -0.11694 0.62083 0.41564
 C277 C 0.31011 0.19291 0.30951
 N278 N 0.29096 0.21317 0.32257
 N279 N 0.27372 0.23075 0.30496
 C280 C 0.27506 0.22869 0.27371
 N281 N 0.29416 0.20850 0.26060
 N282 N 0.31140 0.19090 0.27820
 C283 C 0.32900 0.17340 0.32889
 N284 N 0.34781 0.15289 0.31581
 N285 N 0.36487 0.13511 0.33338
 C286 C 0.36375 0.13721 0.36468
 N287 N 0.34496 0.15774 0.37777
 N288 N 0.32788 0.17551 0.36020
 C289 C 0.38254 0.11757 0.38403
 N290 N 0.38169 0.11980 0.41531
 N291 N 0.39875 0.10197 0.43282
 C292 C 0.41732 0.08119 0.41975
 N293 N 0.41809 0.07902 0.38842
 N294 N 0.40105 0.09685 0.37090
 C295 C 0.31167 0.69136 -0.19170
 N296 N 0.29177 0.71091 -0.17858
 N297 N 0.27388 0.72795 -0.19613
 C298 C 0.27529 0.72605 -0.22741
 N299 N 0.29514 0.70653 -0.24054
 N300 N 0.31303 0.68948 -0.22300
 C301 C 0.33133 0.67248 -0.17240
 N302 N 0.35106 0.65283 -0.18560
 N303 N 0.36883 0.63560 -0.16814
 C304 C 0.36753 0.63738 -0.13683
 N305 N 0.34782 0.65704 -0.12362
 N306 N 0.33004 0.67428 -0.14109
 C307 C 0.38702 0.61826 -0.11762
 N308 N 0.38574 0.61996 -0.08631
 N309 N 0.40332 0.60248 -0.06892
 C310 C 0.42286 0.58261 -0.08212
 N311 N 0.42408 0.58100 -0.11348
 N312 N 0.40652 0.59847 -0.13088
 C313 C -0.18805 -0.19000 0.18883
 N314 N -0.21930 -0.18805 0.18720
 N315 N -0.23703 -0.20489 0.20498
 C316 C -0.22413 -0.22426 0.22502
 N317 N -0.19293 -0.22626 0.22671
 N318 N -0.17517 -0.20941 0.20892
 C319 C -0.16856 -0.17131 0.16928
 N320 N -0.13729 -0.17312 0.17085
 N321 N -0.11967 -0.15604 0.15317
 C322 C -0.13268 -0.13653 0.13328
 N323 N -0.16394 -0.13474 0.13171
 N324 N -0.18155 -0.15182 0.14938
 C325 C -0.11333 -0.11755 0.11390
 N326 N -0.12645 -0.09792 0.09425
 N327 N -0.10895 -0.08056 0.07678
 C328 C -0.07764 -0.08212 0.07825
 N329 N -0.06457 -0.10182 0.09794
 N330 N -0.08206 -0.11920 0.11542
 C331 C -0.18899 0.30602 0.68766
 N332 N -0.22028 0.30782 0.68658
 N333 N -0.23761 0.29070 0.70449
 C334 C -0.22425 0.27121 0.72408
 N335 N -0.19301 0.26935 0.72520
 N336 N -0.17566 0.28645 0.70727
 C337 C -0.16992 0.32517 0.66818
 N338 N -0.13863 0.32334 0.66910
 N339 N -0.12136 0.34094 0.65164
 C340 C -0.13475 0.36102 0.63266
 N341 N -0.16604 0.36282 0.63173
 N342 N -0.18331 0.34521 0.64916
 C343 C -0.11576 0.38067 0.61366
 N344 N -0.12923 0.40117 0.59527
 N345 N -0.11205 0.41918 0.57823
 C346 C -0.08072 0.41741 0.57886
 N347 N -0.06731 0.39681 0.59726
 N348 N -0.08448 0.37880 0.61434
 C349 C 0.30969 -0.19493 0.68894
 N350 N 0.32309 -0.21449 0.70850
 N351 N 0.30583 -0.23161 0.72647
 C352 C 0.27457 -0.22980 0.72547
 N353 N 0.26115 -0.21027 0.70595
 N354 N 0.27840 -0.19314 0.68799
 C355 C 0.32867 -0.17582 0.66933
 N356 N 0.31521 -0.15582 0.65032
 N357 N 0.33240 -0.13829 0.63272
 C358 C 0.36369 -0.14012 0.63349
 N359 N 0.37716 -0.16015 0.65247
 N360 N 0.35997 -0.17768 0.67008
 C361 C 0.38259 -0.12057 0.61428
 N362 N 0.41387 -0.12248 0.61478
 N363 N 0.43098 -0.10457 0.59752
 C364 C 0.41749 -0.08403 0.57910
 N365 N 0.38616 -0.08221 0.57864
 N366 N 0.36905 -0.10013 0.59587
 C367 C 0.31156 0.31025 0.18836
 N368 N 0.32455 0.29084 0.20839
 N369 N 0.30690 0.27392 0.22621
 C370 C 0.27568 0.27582 0.22458
 N371 N 0.26267 0.29517 0.20460
 N372 N 0.28030 0.31209 0.18679
 C373 C 0.33093 0.32908 0.16883
 N374 N 0.31779 0.34858 0.14903
 N375 N 0.33528 0.36582 0.13142
 C376 C 0.36655 0.36419 0.13295
 N377 N 0.37970 0.34467 0.15273
 N378 N 0.36220 0.32743 0.17035
 C379 C 0.38576 0.38337 0.11364
 N380 N 0.41703 0.38189 0.11512
 N381 N 0.43439 0.39945 0.09770
 C382 C 0.42118 0.41917 0.07814
 N383 N 0.38986 0.42056 0.07671
 N384 N 0.37249 0.40302 0.09410
 C385 C 0.18993 0.19431 0.18955
 N386 N 0.18833 0.19306 0.22087
 N387 N 0.20610 0.21032 0.23831
 C388 C 0.22606 0.22943 0.22503
 N389 N 0.22770 0.23075 0.19376
 N390 N 0.20992 0.21350 0.17631
 C391 C 0.17059 0.17502 0.17035
 N392 N 0.17224 0.17615 0.13903
 N393 N 0.15490 0.15843 0.12164
 C394 C 0.13530 0.13893 0.13494
 N395 N 0.13363 0.13783 0.16626
 N396 N 0.15096 0.15555 0.18364
 C397 C 0.11638 0.11921 0.11580
 N398 N 0.09708 0.09949 0.12914
 N399 N 0.08005 0.08147 0.11179
 C400 C 0.08164 0.08245 0.08043
 N401 N 0.10098 0.10225 0.06716
 N402 N 0.11802 0.12027 0.08449
 C403 C 0.19120 0.69116 0.69128
 N404 N 0.20762 0.67954 0.71506
 N405 N 0.22583 0.69656 0.73231
 C406 C 0.22814 0.72580 0.72648
 N407 N 0.21162 0.73748 0.70284
 N408 N 0.19355 0.72044 0.68546
 C409 C 0.17125 0.67233 0.67221
 N410 N 0.15820 0.68283 0.64590
 N411 N 0.14026 0.66564 0.62854
 C412 C 0.13456 0.63739 0.63697
 N413 N 0.14752 0.62694 0.66334
 N414 N 0.16561 0.64407 0.68060
 C415 C 0.11480 0.61839 0.61790
 N416 N 0.10579 0.59163 0.62839
 N417 N 0.08794 0.57431 0.61111
 C418 C 0.07856 0.58298 0.58257
 N419 N 0.08767 0.60976 0.57208
 N420 N 0.10537 0.62717 0.58945
 C421 C 0.68966 0.18985 0.69017
 N422 N 0.70649 0.17818 0.71364
 N423 N 0.72475 0.19521 0.73082
 C424 C 0.72667 0.22451 0.72523
 N425 N 0.70980 0.23626 0.70189
 N426 N 0.69168 0.21920 0.68457
 C427 C 0.66963 0.17101 0.67121
 N428 N 0.65618 0.18159 0.64514
 N429 N 0.63813 0.16440 0.62788
 C430 C 0.63274 0.13606 0.63619
 N431 N 0.64610 0.12553 0.66232
 N432 N 0.66429 0.14266 0.67946
 C433 C 0.61287 0.11706 0.61724
 N434 N 0.60414 0.09019 0.62768
 N435 N 0.58621 0.07286 0.61049
 C436 C 0.57646 0.08163 0.58211
 N437 N 0.58530 0.10852 0.57168
 N438 N 0.60308 0.12594 0.58895
 C439 C 0.68988 0.69451 0.18974
 N440 N 0.70994 0.71366 0.17654
 N441 N 0.72779 0.73080 0.19404
 C442 C 0.72618 0.72939 0.22531
 N443 N 0.70617 0.71029 0.23853
 N444 N 0.68832 0.69315 0.22105
 C445 C 0.67038 0.67540 0.17050
 N446 N 0.65064 0.65601 0.18376
 N447 N 0.63311 0.63850 0.16634
 C448 C 0.63469 0.63973 0.13503
 N449 N 0.65440 0.65915 0.12176
 N450 N 0.67194 0.67666 0.13918
 C451 C 0.61553 0.62025 0.11586
 N452 N 0.61706 0.62143 0.08455
 N453 N 0.59982 0.60360 0.06720
 C454 C 0.58037 0.58389 0.08045
 N455 N 0.57888 0.58280 0.11181
 N456 N 0.59611 0.60062 0.12917
   
