data_POSCAR
  _audit_creation_date              2014-09-24
  _audit_creation_method            'ToBaCCo'
  _symmetry_space_group_name_H-M    'P1'
  _symmetry_Int_Tables_number       1
  _symmetry_cell_setting            triclinic
  loop_
  _symmetry_equiv_pos_as_xyz
 x,y,z
_cell_length_a 34.6273
_cell_length_b 34.0305
_cell_length_c 25.2347
_cell_angle_alpha 89.728100
_cell_angle_beta 89.919400
_cell_angle_gamma 118.754900
loop_
  _atom_site_label
  _atom_site_type_symbol
  _atom_site_fract_x
  _atom_site_fract_y
  _atom_site_fract_z
O1 O 0.05563 0.48639 0.00832
 O2 O 0.00908 0.54456 -0.07070
 O3 O 0.06044 0.56468 0.01163
 O4 O 0.00382 0.46571 -0.07425
 O5 O -0.05511 0.44062 -0.02302
 O6 O 0.00294 0.53731 0.06547
 O7 O -0.04826 0.51854 -0.01659
 O8 O -0.00318 0.45764 0.06006
 Cu9 Cu 0.03809 0.51794 -0.03650
 Cu10 Cu -0.03158 0.48568 0.02712
 C11 C 0.03450 0.46255 0.04796
 C12 C -0.02791 0.54087 -0.05748
 C13 C 0.04152 0.56764 0.05345
 C14 C -0.03599 0.43716 -0.06440
 O15 O 0.52921 0.58388 -0.00980
 O16 O 0.49118 0.47034 -0.06253
 O17 O 0.45419 0.51499 -0.02352
 O18 O 0.56712 0.54421 -0.06228
 O19 O 0.57538 0.51608 0.01301
 O20 O 0.46404 0.49239 0.05518
 O21 O 0.49458 0.44570 0.01766
 O22 O 0.53909 0.56006 0.06797
 Cu23 Cu 0.51010 0.53083 -0.04752
 Cu24 Cu 0.52153 0.50235 0.04550
 C25 C 0.53877 0.59056 0.03909
 C26 C 0.48522 0.43848 -0.03101
 C27 C 0.44013 0.49958 0.02248
 C28 C 0.58996 0.53346 -0.03234
 O29 O 0.44624 0.92040 -0.01937
 O30 O 0.55485 0.99619 -0.07276
 O31 O 0.52441 0.94046 0.00310
 O32 O 0.47545 0.99005 -0.08810
 O33 O 0.48842 1.04246 -0.02910
 O34 O 0.53716 0.99402 0.06074
 O35 O 0.56321 1.04863 -0.01543
 O36 O 0.45333 0.97050 0.04054
 Cu37 Cu 0.49848 0.95769 -0.05121
 Cu38 Cu 0.50927 1.01779 0.02047
 C39 C 0.43214 0.93116 0.02123
 C40 C 0.57776 1.03490 -0.05350
 C41 C 0.53931 0.95926 0.04760
 C42 C 0.47535 1.02605 -0.07474
 O43 O 1.05868 0.54538 0.47937
 O44 O 1.00170 0.44264 0.56009
 O45 O 1.05469 0.46862 0.47739
 O46 O 1.00522 0.52116 0.56110
 O47 O 0.94721 0.49462 0.50861
 O48 O 0.99733 0.44310 0.42402
 O49 O 0.94466 0.41773 0.50622
 O50 O 1.00084 0.52125 0.42677
 Cu51 Cu 1.03565 0.49681 0.52517
 Cu52 Cu 0.96680 0.46668 0.46100
 C53 C 1.03986 0.55031 0.43870
 C54 C 0.96317 0.41296 0.54732
 C55 C 1.03511 0.44809 0.43553
 C56 C 0.96744 0.51620 0.54960
 O57 O 0.53286 0.56927 0.46886
 O58 O 0.49143 0.45112 0.50245
 O59 O 0.45935 0.49551 0.45038
 O60 O 0.55972 0.52464 0.52936
 O61 O 0.52584 0.53236 0.59964
 O62 O 0.42776 0.50539 0.52150
 O63 O 0.45804 0.45850 0.57339
 O64 O 0.49998 0.57828 0.53921
 Cu65 Cu 0.51404 0.50947 0.48053
 Cu66 Cu 0.47456 0.51944 0.56538
 C67 C 0.52333 0.59390 0.49759
 C68 C 0.46905 0.43495 0.54431
 C69 C 0.42680 0.49642 0.47279
 C70 C 0.55896 0.53217 0.57863
 O71 O 0.53291 0.07751 0.49851
 O72 O 0.42743 -0.00302 0.44269
 O73 O 0.45221 0.04964 0.52036
 O74 O 0.50908 0.01012 0.42790
 O75 O 0.49965 -0.04247 0.48585
 O76 O 0.44489 -0.00269 0.57786
 O77 O 0.42244 -0.05531 0.49895
 O78 O 0.53008 0.02713 0.55604
 Cu79 Cu 0.48208 0.03805 0.46581
 Cu80 Cu 0.47556 -0.02205 0.53588
 C81 C 0.54890 0.06711 0.53774
 C82 C 0.40680 -0.04260 0.46084
 C83 C 0.43867 0.02981 0.56492
 C84 C 0.51197 -0.02467 0.44042
 O85 O 0.17586 0.41990 0.18624
 O86 O 0.24490 0.40274 0.28625
 O87 O 0.17642 0.41690 0.29016
 O88 O 0.24248 0.40274 0.18466
 O89 O 0.28757 0.47579 0.18489
 O90 O 0.22273 0.48962 0.29113
 O91 O 0.28968 0.47583 0.28657
 O92 O 0.22230 0.49261 0.18719
 Cu93 Cu 0.20490 0.40322 0.23678
 Cu94 Cu 0.25978 0.49080 0.23742
 C95 C 0.18795 0.45946 0.16941
 C96 C 0.27960 0.43665 0.30261
 C97 C 0.18876 0.45566 0.30903
 C98 C 0.27688 0.43684 0.16781
 O99 O 0.56013 0.83298 0.31623
 O100 O 0.58971 0.76117 0.23599
 O101 O 0.56972 0.82490 0.21459
 O102 O 0.57232 0.76348 0.33533
 O103 O 0.50170 0.71584 0.32389
 O104 O 0.49906 0.77644 0.20550
 O105 O 0.51908 0.71385 0.22378
 O106 O 0.48960 0.78396 0.30757
 Cu107 Cu 0.58002 0.80069 0.27659
 Cu108 Cu 0.49536 0.74292 0.26410
 C109 C 0.51993 0.82031 0.32637
 C110 C 0.55950 0.72543 0.21617
 C111 C 0.53361 0.81050 0.18940
 C112 C 0.53712 0.72863 0.34948
 O113 O 0.25599 0.81930 0.21468
 O114 O 0.18735 0.72215 0.29971
 O115 O 0.25702 0.79944 0.31434
 O116 O 0.19001 0.73736 0.19859
 O117 O 0.23651 0.71141 0.18376
 O118 O 0.30148 0.77104 0.29929
 O119 O 0.23249 0.69447 0.28538
 O120 O 0.30103 0.79162 0.19971
 Cu121 Cu 0.21810 0.77245 0.25800
 Cu122 Cu 0.27230 0.73940 0.24033
 C123 C 0.29037 0.82226 0.19308
 C124 C 0.19839 0.69204 0.30748
 C125 C 0.29058 0.79532 0.32653
 C126 C 0.20198 0.71338 0.17187
 O127 O 0.76990 0.59620 0.78297
 O128 O 0.83293 0.56356 0.69115
 O129 O 0.77186 0.58701 0.68081
 O130 O 0.83337 0.57483 0.79344
 O131 O 0.78356 0.50341 0.80110
 O132 O 0.71961 0.51725 0.69432
 O133 O 0.78060 0.49311 0.69808
 O134 O 0.72185 0.52478 0.79596
 Cu135 Cu 0.80726 0.58758 0.73638
 Cu136 Cu 0.74657 0.50241 0.74804
 C137 C 0.73522 0.56595 0.80517
 C138 C 0.81681 0.52260 0.67833
 C139 C 0.73450 0.55434 0.66958
 C140 C 0.81899 0.53688 0.81606
 O141 O 0.40347 0.24946 0.72943
 O142 O 0.43364 0.17880 0.81159
 O143 O 0.44226 0.26131 0.81883
 O144 O 0.40623 0.17509 0.71340
 O145 O 0.47296 0.21217 0.67840
 O146 O 0.50809 0.29598 0.78111
 O147 O 0.50126 0.21415 0.77941
 O148 O 0.47037 0.28320 0.69442
 Cu149 Cu 0.41489 0.21217 0.77228
 Cu150 Cu 0.49503 0.25299 0.73143
 C151 C 0.43174 0.27869 0.69857
 C152 C 0.47261 0.18466 0.80994
 C153 C 0.48097 0.29476 0.81551
 C154 C 0.43381 0.18048 0.67687
 O155 O 0.81365 0.26764 0.79916
 O156 O 0.73888 0.17407 0.71379
 O157 O 0.80962 0.25264 0.69755
 O158 O 0.74095 0.19268 0.81366
 O159 O 0.70086 0.22647 0.80084
 O160 O 0.76773 0.28438 0.68474
 O161 O 0.69808 0.20700 0.70119
 O162 O 0.77244 0.30022 0.78704
 Cu163 Cu 0.77998 0.21848 0.75701
 Cu164 Cu 0.73097 0.25800 0.74171
 C165 C 0.80518 0.29934 0.80852
 C166 C 0.70536 0.17419 0.69368
 C167 C 0.80016 0.27896 0.67156
 C168 C 0.70924 0.19959 0.82689
 C169 C 0.05461 0.44190 0.08180
 C170 C 0.09798 0.45643 0.08021
 C171 C 0.12022 0.44202 0.11937
 C172 C 0.16314 0.46832 0.12828
 H173 H 0.11830 0.48250 0.05211
 H174 H 0.10137 0.41199 0.14292
 H175 H 0.03442 0.41765 0.11165
 H176 H 0.18061 0.49972 0.10665
 C177 C 0.54517 0.63264 0.06293
 C178 C 0.55748 0.64327 0.11328
 C179 C 0.55059 0.67766 0.14026
 C180 C 0.57142 0.69644 0.18516
 H181 H 0.56928 0.62413 0.13611
 H182 H 0.52661 0.68638 0.12427
 H183 H 0.53491 0.65306 0.04007
 H184 H 0.59757 0.69037 0.19954
 C185 C 0.39266 0.89556 0.04725
 C186 C 0.37581 0.90058 0.09272
 C187 C 0.34379 0.86034 0.12196
 C188 C 0.31869 0.86221 0.16097
 H189 H 0.38764 0.93347 0.10999
 H190 H 0.34138 0.82827 0.11188
 H191 H 0.37941 0.86225 0.03057
 H192 H 0.31877 0.89345 0.16936
 C193 C 0.94670 0.53492 0.58515
 C194 C 0.90291 0.51732 0.58813
 C195 C 0.88196 0.53374 0.62658
 C196 C 0.83953 0.50842 0.63972
 H197 H 0.88204 0.48890 0.56356
 H198 H 0.90157 0.56594 0.64533
 H199 H 0.96753 0.56142 0.61203
 H200 H 0.82092 0.47531 0.62269
 C201 C 0.45956 0.38963 0.56044
 C202 C 0.43911 0.37026 0.60565
 C203 C 0.44327 0.33221 0.62724
 C204 C 0.42036 0.30932 0.66967
 H205 H 0.42332 0.38506 0.62928
 H206 H 0.46797 0.32495 0.61039
 H207 H 0.47462 0.37387 0.53711
 H208 H 0.39433 0.31502 0.68538
 C209 C 0.58809 0.10345 0.56301
 C210 C 0.61041 0.09771 0.60272
 C211 C 0.64459 0.13740 0.63035
 C212 C 0.67403 0.13513 0.66263
 H213 H 0.60249 0.06432 0.61599
 H214 H 0.64520 0.16930 0.62457
 H215 H 0.59773 0.13727 0.54959
 H216 H 0.67498 0.10389 0.66673
 C217 C 0.46177 0.04807 0.88882
 C218 C 0.47158 0.09106 0.89502
 C219 C 0.45879 0.11490 0.85577
 C220 C 0.48549 0.15835 0.84517
 H221 H 0.49152 0.11014 0.92825
 H222 H 0.42762 0.09683 0.83533
 H223 H 0.44568 0.03086 0.85272
 H224 H 0.51816 0.17511 0.86232
 C225 C 0.63015 0.53802 0.94975
 C226 C 0.64863 0.55814 0.90368
 C227 C 0.68372 0.55177 0.87879
 C228 C 0.70870 0.57863 0.83961
 H229 H 0.63550 0.57649 0.88163
 H230 H 0.68674 0.52252 0.88982
 H231 H 0.64551 0.52233 0.97279
 H232 H 0.70761 0.60923 0.83047
 C233 C 0.94108 0.40260 0.89956
 C234 C 0.89708 0.37799 0.90056
 C235 C 0.87301 0.34409 0.85984
 C236 C 0.83217 0.33479 0.84629
 H237 H 0.87800 0.38467 0.92980
 H238 H 0.88895 0.32734 0.84039
 H239 H 0.95930 0.39801 0.86738
 H240 H 0.81782 0.35395 0.86358
 C241 C 0.52724 0.95567 0.40314
 C242 C 0.52047 0.91366 0.40955
 C243 C 0.53268 0.89074 0.36887
 C244 C 0.50788 0.84650 0.36238
 H245 H 0.50270 0.89416 0.44407
 H246 H 0.56153 0.90986 0.34429
 H247 H 0.54147 0.97338 0.36635
 H248 H 0.47734 0.82857 0.38449
 C249 C 0.38853 0.49065 0.44215
 C250 C 0.37239 0.46330 0.40083
 C251 C 0.33793 0.46512 0.36862
 C252 C 0.30954 0.43082 0.33927
 H253 H 0.38524 0.44098 0.39008
 H254 H 0.33620 0.49613 0.36864
 H255 H 0.37298 0.51026 0.45436
 H256 H 0.30900 0.39875 0.34128
 C257 C 0.06400 0.58936 0.40380
 C258 C 0.10757 0.60744 0.39741
 C259 C 0.13191 0.64462 0.36002
 C260 C 0.17218 0.65417 0.34329
 H261 H 0.12541 0.59341 0.41859
 H262 H 0.11659 0.66387 0.34562
 H263 H 0.04552 0.60104 0.37990
 H264 H 0.18637 0.63342 0.35606
 C265 C 0.95163 0.56066 0.90821
 C266 C 0.90824 0.54576 0.91009
 C267 C 0.88568 0.55775 0.86898
 C268 C 0.84294 0.53052 0.86019
 H269 H 0.88828 0.52066 0.93934
 H270 H 0.90443 0.58650 0.84346
 H271 H 0.97133 0.58375 0.87712
 H272 H 0.82538 0.50040 0.88407
 C273 C 0.46822 0.39278 0.94883
 C274 C 0.48309 0.38591 0.90307
 C275 C 0.46873 0.34072 0.88224
 C276 C 0.49489 0.33487 0.84809
 H277 H 0.50784 0.41445 0.88108
 H278 H 0.43662 0.31334 0.89273
 H279 H 0.44642 0.36463 0.97356
 H280 H 0.52728 0.36279 0.83965
 C281 C 0.62086 0.06414 0.92251
 C282 C 0.63928 0.10864 0.92492
 C283 C 0.67598 0.13661 0.88931
 C284 C 0.68052 0.17561 0.87181
 H285 H 0.62364 0.12408 0.94773
 H286 H 0.69555 0.12279 0.87209
 H287 H 0.63490 0.04894 0.89659
 H288 H 0.65865 0.18761 0.88657
 C289 C 0.05575 0.43244 0.40036
 C290 C 0.09860 0.44455 0.40419
 C291 C 0.12162 0.43421 0.36197
 C292 C 0.16425 0.46210 0.35262
 H293 H 0.11818 0.46616 0.43613
 H294 H 0.10321 0.40567 0.33646
 H295 H 0.03740 0.41335 0.36624
 H296 H 0.18135 0.49231 0.37600
 C297 C 0.53666 0.64001 0.48009
 C298 C 0.56787 0.66047 0.44293
 C299 C 0.57207 0.69877 0.41089
 C300 C 0.53635 0.70092 0.39470
 H301 H 0.58893 0.64642 0.43193
 H302 H 0.60362 0.72010 0.39226
 H303 H 0.51752 0.65542 0.49401
 H304 H 0.50415 0.67652 0.40934
 C305 C 0.36525 0.92618 0.43533
 C306 C 0.35254 0.88260 0.43151
 C307 C 0.31795 0.85466 0.39372
 C308 C 0.31833 0.81923 0.37192
 H309 H 0.37149 0.86895 0.45087
 H310 H 0.29538 0.86589 0.37930
 H311 H 0.34832 0.94029 0.41247
 H312 H 0.34285 0.80998 0.38443
 C313 C 0.55781 0.94010 0.08576
 C314 C 0.54680 0.89678 0.08494
 C315 C 0.55699 0.87582 0.13007
 C316 C 0.53050 0.83256 0.14075
 H317 H 0.52562 0.87551 0.05377
 H318 H 0.58306 0.89639 0.15731
 H319 H 0.57641 0.96061 0.11889
 H320 H 0.50262 0.81333 0.11511
 C321 C 0.39677 0.49286 0.03903
 C322 C 0.37308 0.46321 0.07647
 C323 C 0.33564 0.46493 0.10147
 C324 C 0.30639 0.43088 0.13084
 H325 H 0.38332 0.43979 0.09161
 H326 H 0.33411 0.49600 0.09934
 H327 H 0.38514 0.51453 0.02191
 H328 H 0.30646 0.39906 0.13098
 C329 C 0.06472 0.60579 0.08962
 C330 C 0.10759 0.63476 0.08391
 C331 C 0.13218 0.66833 0.12480
 C332 C 0.17597 0.68654 0.12687
 H333 H 0.12572 0.63136 0.05076
 H334 H 0.11445 0.67497 0.15585
 H335 H 0.04697 0.60818 0.12379
 H336 H 0.19292 0.67705 0.09763
 C337 C 0.41782 0.04595 0.60363
 C338 C 0.41289 0.08181 0.59382
 C339 C 0.40678 0.10668 0.63758
 C340 C 0.42166 0.15050 0.63148
 H341 H 0.42028 0.09692 0.55461
 H342 H 0.39782 0.09155 0.67671
 H343 H 0.41140 0.03141 0.64311
 H344 H 0.43458 0.16598 0.59322
 C345 C 0.59482 0.53749 0.61374
 C346 C 0.63384 0.54358 0.59681
 C347 C 0.66361 0.53972 0.63532
 C348 C 0.70719 0.55967 0.62871
 H349 H 0.64291 0.54957 0.55527
 H350 H 0.64921 0.52063 0.67136
 H351 H 0.58768 0.53377 0.65591
 H352 H 0.72271 0.58189 0.59528
 C353 C 0.93895 0.37389 0.58239
 C354 C 0.89530 0.34842 0.57848
 C355 C 0.86926 0.31618 0.62029
 C356 C 0.82670 0.30440 0.62578
 H357 H 0.87781 0.35480 0.54687
 H358 H 0.88551 0.30563 0.64933
 H359 H 0.95627 0.36908 0.61540
 H360 H 0.81177 0.31784 0.59845
   
