data_POSCAR
  _audit_creation_date              2014-09-24
  _audit_creation_method            'ToBaCCo'
  _symmetry_space_group_name_H-M    'P1'
  _symmetry_Int_Tables_number       1
  _symmetry_cell_setting            triclinic
  loop_
  _symmetry_equiv_pos_as_xyz
 x,y,z
_cell_length_a 55.9358
_cell_length_b 34.4042
_cell_length_c 20.0342
_cell_angle_alpha 89.639000
_cell_angle_beta 89.959700
_cell_angle_gamma 89.978100
loop_
  _atom_site_label
  _atom_site_type_symbol
  _atom_site_fract_x
  _atom_site_fract_y
  _atom_site_fract_z
C1 C 0.74613 0.24163 0.52527
 C2 C 0.75044 0.24904 0.45939
 C3 C 0.77195 0.23338 0.42544
 C4 C 0.73385 0.27275 0.41774
 C5 C 0.72320 0.25291 0.55733
 C6 C 0.76437 0.22250 0.56844
 C7 C 0.78770 0.25861 0.39243
 C8 C 0.80800 0.24414 0.36048
 C9 C 0.81290 0.20392 0.35971
 C10 C 0.79678 0.17869 0.39307
 C11 C 0.77655 0.19335 0.42517
 C12 C 0.72695 0.31024 0.43731
 C13 C 0.71126 0.33210 0.39778
 C14 C 0.70223 0.31700 0.33789
 C15 C 0.70979 0.27992 0.31736
 C16 C 0.72543 0.25807 0.35697
 C17 C 0.70116 0.24125 0.53050
 C18 C 0.67972 0.25401 0.55889
 C19 C 0.67995 0.27862 0.61449
 C20 C 0.70205 0.28863 0.64326
 C21 C 0.72345 0.27588 0.61487
 C22 C 0.75848 0.18901 0.60514
 C23 C 0.77572 0.17029 0.64434
 C24 C 0.79919 0.18468 0.64779
 C25 C 0.80484 0.21908 0.61265
 C26 C 0.78757 0.23776 0.57349
 H27 H 0.78438 0.28963 0.39202
 H28 H 0.81982 0.26467 0.33581
 H29 H 0.79945 0.14768 0.39592
 H30 H 0.76442 0.17340 0.44993
 H31 H 0.73371 0.32256 0.48317
 H32 H 0.70602 0.36079 0.41429
 H33 H 0.73086 0.22948 0.34039
 H34 H 0.70058 0.22273 0.48702
 H35 H 0.66294 0.24534 0.53652
 H36 H 0.70292 0.30621 0.68776
 H37 H 0.74025 0.28464 0.63700
 H38 H 0.74061 0.17698 0.60250
 H39 H 0.77077 0.14416 0.67146
 H40 H 0.82235 0.23215 0.61577
 H41 H 0.79230 0.26422 0.54707
 H42 H 0.70399 0.26778 0.27044
 C43 C 0.24318 0.72807 0.45898
 C44 C 0.24231 0.73132 0.52673
 C45 C 0.22418 0.75581 0.56103
 C46 C 0.25956 0.71040 0.57020
 C47 C 0.26193 0.70497 0.42475
 C48 C 0.22584 0.74823 0.41471
 C49 C 0.22108 0.79521 0.54430
 C50 C 0.20318 0.81716 0.57510
 C51 C 0.18855 0.80050 0.62452
 C52 C 0.19210 0.76133 0.64245
 C53 C 0.20979 0.73930 0.61112
 C54 C 0.27415 0.73186 0.61293
 C55 C 0.29107 0.71387 0.65346
 C56 C 0.29450 0.67041 0.65396
 C57 C 0.27756 0.64977 0.60826
 C58 C 0.26109 0.66980 0.56886
 C59 C 0.25517 0.67566 0.38028
 C60 C 0.27240 0.65555 0.34377
 C61 C 0.29677 0.66437 0.35076
 C62 C 0.30354 0.69388 0.39543
 C63 C 0.28624 0.71397 0.43207
 C64 C 0.20110 0.74292 0.42223
 C65 C 0.18512 0.76302 0.38099
 C66 C 0.19370 0.78841 0.33106
 C67 C 0.21842 0.79233 0.32191
 C68 C 0.23435 0.77256 0.36351
 H69 H 0.23231 0.80882 0.50683
 H70 H 0.20079 0.84726 0.56038
 H71 H 0.18080 0.74724 0.67916
 H72 H 0.21189 0.70899 0.62487
 H73 H 0.27266 0.76326 0.61405
 H74 H 0.30208 0.73184 0.68514
 H75 H 0.24938 0.65340 0.53649
 H76 H 0.23646 0.66862 0.37339
 H77 H 0.26665 0.63325 0.30939
 H78 H 0.32201 0.70253 0.40084
 H79 H 0.29176 0.73725 0.46477
 H80 H 0.19420 0.72333 0.46013
 H81 H 0.16616 0.75817 0.38771
 H82 H 0.22543 0.81135 0.28328
 H83 H 0.25338 0.77669 0.35639
 H84 H 0.27834 0.61839 0.60520
 C85 C 0.24961 0.25932 -0.46281
 C86 C 0.24797 0.25640 -0.53044
 C87 C 0.26862 0.26642 -0.57359
 C88 C 0.22579 0.24247 -0.56354
 C89 C 0.23082 0.24336 -0.41833
 C90 C 0.27083 0.27692 -0.43016
 C91 C 0.26686 0.29788 -0.61767
 C92 C 0.28665 0.31134 -0.65300
 C93 C 0.31123 0.29232 -0.64617
 C94 C 0.31064 0.25695 -0.60101
 C95 C 0.29005 0.24573 -0.56701
 C96 C 0.20368 0.26030 -0.55110
 C97 C 0.18274 0.24575 -0.57974
 C98 C 0.18333 0.21287 -0.62125
 C99 C 0.20581 0.19601 -0.63547
 C100 C 0.22673 0.21079 -0.60704
 C101 C 0.22456 0.20399 -0.42140
 C102 C 0.20673 0.18899 -0.37987
 C103 C 0.19483 0.21318 -0.33381
 C104 C 0.20138 0.25264 -0.33093
 C105 C 0.21936 0.26747 -0.37227
 C106 C 0.28404 0.25528 -0.38350
 C107 C 0.30450 0.27103 -0.35425
 C108 C 0.31195 0.30894 -0.37023
 C109 C 0.29853 0.33079 -0.41657
 C110 C 0.27807 0.31497 -0.44588
 H111 H 0.25006 0.31331 -0.62265
 H112 H 0.28446 0.33654 -0.68495
 H113 H 0.32695 0.24061 -0.59299
 H114 H 0.29096 0.22100 -0.53337
 H115 H 0.20262 0.28530 -0.51865
 H116 H 0.16594 0.25993 -0.56825
 H117 H 0.24367 0.19694 -0.61795
 H118 H 0.23344 0.18488 -0.45633
 H119 H 0.20220 0.15872 -0.38584
 H120 H 0.19263 0.27218 -0.29641
 H121 H 0.22407 0.29794 -0.36912
 H122 H 0.27876 0.22587 -0.37071
 H123 H 0.31456 0.25352 -0.31898
 H124 H 0.30396 0.35972 -0.43148
 H125 H 0.26798 0.33228 -0.48132
 H126 H 0.20773 0.17171 -0.66883
 C127 C -0.24971 0.75684 -0.45834
 C128 C -0.25011 0.75621 -0.52634
 C129 C -0.22972 0.77160 -0.56624
 C130 C -0.27087 0.73996 -0.56294
 C131 C -0.26603 0.73207 -0.41746
 C132 C -0.23285 0.78246 -0.42192
 C133 C -0.23353 0.79855 -0.61793
 C134 C -0.21420 0.81387 -0.65395
 C135 C -0.19055 0.80204 -0.63939
 C136 C -0.18705 0.77425 -0.58846
 C137 C -0.20634 0.75918 -0.55253
 C138 C -0.29416 0.75207 -0.54749
 C139 C -0.31377 0.73585 -0.58003
 C140 C -0.31064 0.70728 -0.62923
 C141 C -0.28708 0.69583 -0.64559
 C142 C -0.26747 0.71224 -0.61297
 C143 C -0.26859 0.69231 -0.43098
 C144 C -0.28329 0.66894 -0.39112
 C145 C -0.29552 0.68448 -0.33594
 C146 C -0.29262 0.72446 -0.32216
 C147 C -0.27806 0.74780 -0.36250
 C148 C -0.21909 0.76756 -0.36915
 C149 C -0.20356 0.79173 -0.33406
 C150 C -0.20145 0.83131 -0.35137
 C151 C -0.21571 0.84635 -0.40298
 C152 C -0.23128 0.82219 -0.43793
 H153 H -0.25147 0.80836 -0.62947
 H154 H -0.21816 0.83510 -0.69223
 H155 H -0.16924 0.76420 -0.57585
 H156 H -0.20303 0.73785 -0.51362
 H157 H -0.29715 0.77396 -0.50977
 H158 H -0.33150 0.74563 -0.56618
 H159 H -0.24961 0.70262 -0.62571
 H160 H -0.25899 0.67921 -0.47206
 H161 H -0.28491 0.63842 -0.40336
 H162 H -0.30145 0.73850 -0.28097
 H163 H -0.27623 0.77836 -0.35084
 H164 H -0.22036 0.73716 -0.35524
 H165 H -0.19355 0.77935 -0.29295
 H166 H -0.21465 0.87682 -0.41665
 H167 H -0.24222 0.83451 -0.47731
 H168 H -0.28335 0.67399 -0.68256
 O169 O -0.04098 0.93709 0.10207
 O170 O -0.06229 0.97650 0.03116
 C171 C -0.06091 0.95020 0.07754
 O172 O 0.03226 1.06718 0.13026
 O173 O 0.05915 1.02710 0.07790
 C174 C 0.05381 1.05408 0.12009
 O175 O -0.03494 1.07052 0.11417
 O176 O -0.05932 1.04114 0.03733
 C177 C -0.05578 1.06338 0.08830
 O178 O 0.02499 0.92470 0.12004
 O179 O 0.05576 0.95981 0.07378
 C180 C 0.04748 0.93244 0.11221
 Zr181 Zr -0.00527 0.95220 0.07805
 O182 O -0.00765 0.95011 0.18353
 O183 O -0.01080 0.89143 0.07280
 Zr184 Zr -0.00065 1.05005 0.08548
 O185 O -0.00301 1.04977 0.19090
 O186 O 0.00096 1.11139 0.08203
 O187 O -0.02465 1.00355 0.08672
 O188 O 0.01696 0.99808 0.10175
 O189 O 0.03704 0.93129 -0.11060
 O190 O 0.06153 0.96258 -0.03645
 C191 C 0.05781 0.93799 -0.08402
 O192 O -0.02293 1.07763 -0.12994
 O193 O -0.05363 1.04456 -0.07925
 C194 C -0.04544 1.06989 -0.12166
 O195 O 0.04291 1.07254 -0.09801
 O196 O 0.06436 1.03011 -0.03249
 C197 C 0.06286 1.05881 -0.07449
 O198 O -0.02868 0.94301 -0.14050
 O199 O -0.05657 0.97924 -0.08414
 C200 C -0.05038 0.95472 -0.12999
 Zr201 Zr 0.00319 0.95607 -0.08875
 O202 O 0.01091 0.95764 -0.19219
 O203 O -0.00217 0.89519 -0.09263
 Zr204 Zr 0.00738 1.05385 -0.08097
 O205 O 0.01524 1.05612 -0.18432
 O206 O 0.00778 1.11528 -0.07571
 Zr207 Zr -0.03422 1.00750 -0.01499
 Zr208 Zr 0.03634 0.99819 0.01176
 O209 O 0.02640 1.00263 -0.08927
 O210 O -0.01518 1.00798 -0.10592
 O211 O 0.01967 0.94362 0.00207
 O212 O -0.01710 1.06161 -0.00484
 O213 O -0.02192 0.94968 -0.01372
 O214 O 0.02485 1.05652 0.01071
 H215 H 0.02573 0.99585 0.14456
 H216 H -0.02690 1.08560 -0.00690
 H217 H 0.03896 1.00226 -0.12417
 H218 H -0.03358 0.92828 -0.01936
 H219 H -0.00073 1.12018 0.12880
 H220 H 0.01814 1.12239 -0.03767
 H221 H 0.00225 1.04243 -0.20797
 H222 H -0.00012 0.97661 -0.21305
 H223 H 0.01028 0.88276 -0.06471
 H224 H 0.00274 0.88030 0.04753
 H225 H -0.02156 0.96604 0.19694
 H226 H -0.01571 1.03111 0.20327
 O227 O 0.46663 0.43298 0.10544
 O228 O 0.44230 0.47554 0.04864
 C229 C 0.44576 0.44719 0.09020
 O230 O 0.54139 0.56150 0.12156
 O231 O 0.56523 0.52531 0.05247
 C232 C 0.56214 0.54990 0.10025
 O233 O 0.47457 0.56566 0.13363
 O234 O 0.44608 0.53959 0.06482
 C235 C 0.45257 0.55979 0.11623
 O236 O 0.53338 0.42035 0.09465
 O237 O 0.56148 0.45861 0.04251
 C238 C 0.55529 0.42925 0.07975
 Zr239 Zr 0.50112 0.44893 0.06920
 O240 O 0.50375 0.43930 0.17341
 O241 O 0.49666 0.38901 0.05030
 Zr242 Zr 0.50654 0.54623 0.08874
 O243 O 0.51005 0.53888 0.19326
 O244 O 0.50674 0.60741 0.09974
 O245 O 0.48270 0.49958 0.09337
 O246 O 0.52453 0.49389 0.09003
 O247 O 0.53309 0.43650 -0.13488
 O248 O 0.56120 0.46626 -0.06916
 C249 C 0.55505 0.44302 -0.11667
 O250 O 0.47283 0.58351 -0.11019
 O251 O 0.44511 0.54749 -0.05222
 C252 C 0.45100 0.57476 -0.09402
 O253 O 0.53972 0.57854 -0.10622
 O254 O 0.56451 0.53309 -0.05826
 C255 C 0.56069 0.56431 -0.09347
 O256 O 0.46626 0.44968 -0.13747
 O257 O 0.44220 0.48383 -0.06581
 C258 C 0.44547 0.46160 -0.11697
 Zr259 Zr 0.50075 0.46093 -0.09791
 O260 O 0.50310 0.46826 -0.20271
 O261 O 0.49536 0.40044 -0.10911
 Zr262 Zr 0.50552 0.55811 -0.07873
 O263 O 0.50790 0.56396 -0.18382
 O264 O 0.50578 0.61929 -0.06851
 Zr265 Zr 0.46798 0.50855 -0.00237
 Zr266 Zr 0.53898 0.49892 -0.00661
 O267 O 0.52384 0.50770 -0.10167
 O268 O 0.48183 0.51326 -0.10003
 O269 O 0.52189 0.44472 -0.01682
 O270 O 0.48566 0.56210 0.00788
 O271 O 0.47975 0.45089 -0.01455
 O272 O 0.52764 0.55693 0.00508
 H273 H 0.53543 0.48982 0.12841
 H274 H 0.47595 0.58599 0.01315
 H275 H 0.53453 0.50902 -0.14108
 H276 H 0.46779 0.42979 -0.01851
 H277 H 0.52101 0.61758 0.07625
 H278 H 0.51850 0.62579 -0.03619
 H279 H 0.49311 0.55300 -0.20313
 H280 H 0.49057 0.48704 -0.21615
 H281 H 0.50626 0.38715 -0.07747
 H282 H 0.49609 0.37607 0.09460
 H283 H 0.49225 0.45698 0.19523
 H284 H 0.49676 0.52201 0.20832
 C285 C 0.33534 0.30702 0.31977
 C286 C 0.33680 0.34173 0.28426
 C287 C 0.35949 0.35634 0.25592
 C288 C 0.36018 0.39432 0.23036
 C289 C 0.38120 0.40935 0.20308
 C290 C 0.40200 0.38639 0.19960
 C291 C 0.40148 0.34862 0.22646
 C292 C 0.38041 0.33362 0.25427
 C293 C 0.42434 0.40126 0.16884
 C294 C 0.42414 0.43072 0.12075
 H295 H 0.32106 0.35990 0.27956
 H296 H 0.34441 0.41261 0.23198
 H297 H 0.38105 0.43916 0.18569
 H298 H 0.41731 0.33050 0.22507
 H299 H 0.38048 0.30423 0.27392
 H300 H 0.44116 0.38773 0.18238
 H301 H 0.32254 0.30070 0.33601
 H302 H 0.40728 0.44246 0.10352
 C303 C -0.17021 0.81697 0.32768
 C304 C -0.17040 0.84457 0.27587
 C305 C -0.14818 0.86060 0.24588
 C306 C -0.14895 0.87619 0.18099
 C307 C -0.12839 0.89178 0.15128
 C308 C -0.10662 0.89249 0.18641
 C309 C -0.10589 0.87708 0.25137
 C310 C -0.12642 0.86163 0.28109
 C311 C -0.08425 0.90822 0.15708
 C312 C -0.08357 0.93434 0.10345
 H313 H -0.18707 0.85408 0.25409
 H314 H -0.16548 0.87590 0.15283
 H315 H -0.12963 0.90253 0.10059
 H316 H -0.08939 0.87742 0.27966
 H317 H -0.12517 0.85125 0.33202
 H318 H -0.06757 0.90019 0.18098
 H319 H -0.15301 0.80587 0.34356
 H320 H -0.09998 0.94478 0.08118
 C321 C 0.66880 0.69121 0.34119
 C322 C 0.66882 0.66310 0.29091
 C323 C 0.64662 0.64605 0.26340
 C324 C 0.64726 0.62991 0.19932
 C325 C 0.62687 0.61300 0.17177
 C326 C 0.60540 0.61135 0.20833
 C327 C 0.60470 0.62760 0.27232
 C328 C 0.62513 0.64448 0.29994
 C329 C 0.58341 0.59377 0.18063
 C330 C 0.58390 0.56559 0.13095
 H331 H 0.68536 0.65404 0.26802
 H332 H 0.66357 0.63075 0.17011
 H333 H 0.62797 0.60194 0.12146
 H334 H 0.58838 0.62669 0.30145
 H335 H 0.62405 0.65549 0.35029
 H336 H 0.56635 0.60259 0.20128
 H337 H 0.65164 0.70182 0.35826
 H338 H 0.60083 0.55458 0.11301
 C339 C 0.16155 1.19844 0.35328
 C340 C 0.15909 1.16317 0.31926
 C341 C 0.13607 1.14831 0.29285
 C342 C 0.13399 1.10833 0.28081
 C343 C 0.11326 1.09301 0.25254
 C344 C 0.09415 1.11747 0.23439
 C345 C 0.09586 1.15734 0.24816
 C346 C 0.11667 1.17274 0.27672
 C347 C 0.07266 1.10211 0.19994
 C348 C 0.07403 1.06984 0.15824
 H349 H 0.17422 1.14387 0.31476
 H350 H 0.14854 1.08878 0.29319
 H351 H 0.11231 1.06193 0.24506
 H352 H 0.08136 1.17679 0.23492
 H353 H 0.11771 1.20381 0.28403
 H354 H 0.05600 1.11804 0.20343
 H355 H 0.14546 1.21487 0.36352
 H356 H 0.09120 1.05615 0.15004
 C357 C 0.65701 0.29332 -0.35854
 C358 C 0.65540 0.32896 -0.32577
 C359 C 0.63309 0.34558 -0.29788
 C360 C 0.63341 0.38459 -0.27795
 C361 C 0.61342 0.40140 -0.24813
 C362 C 0.59262 0.37942 -0.23684
 C363 C 0.59191 0.34076 -0.25863
 C364 C 0.61202 0.32379 -0.28840
 C365 C 0.57178 0.39632 -0.20181
 C366 C 0.57481 0.42398 -0.15197
 H367 H 0.67132 0.34671 -0.32235
 H368 H 0.64928 0.40218 -0.28509
 H369 H 0.61433 0.43169 -0.23410
 H370 H 0.57601 0.32335 -0.25080
 H371 H 0.61105 0.29353 -0.30220
 H372 H 0.55405 0.38542 -0.21274
 H373 H 0.64097 0.27702 -0.36933
 H374 H 0.59273 0.43201 -0.13700
 C375 C 0.16905 0.82396 -0.34598
 C376 C 0.15975 0.81678 -0.28233
 C377 C 0.13922 0.83851 -0.25445
 C378 C 0.13690 0.84163 -0.18494
 C379 C 0.11737 0.86101 -0.15692
 C380 C 0.09957 0.87725 -0.19808
 C381 C 0.10162 0.87339 -0.26753
 C382 C 0.12131 0.85443 -0.29557
 C383 C 0.07837 0.89718 -0.17019
 C384 C 0.07877 0.91687 -0.10951
 H385 H 0.16845 0.79562 -0.25034
 H386 H 0.15027 0.82903 -0.15220
 H387 H 0.11600 0.86242 -0.10311
 H388 H 0.08797 0.88518 -0.30021
 H389 H 0.12212 0.85150 -0.34926
 H390 H 0.06235 0.89852 -0.20054
 H391 H 0.16248 0.84859 -0.37444
 H392 H 0.09528 0.91895 -0.08163
 C393 C 0.31495 0.64661 -0.30021
 C394 C 0.33329 0.66592 -0.26755
 C395 C 0.35190 0.64510 -0.22916
 C396 C 0.37171 0.66594 -0.20580
 C397 C 0.38999 0.64703 -0.17095
 C398 C 0.38874 0.60681 -0.15867
 C399 C 0.36860 0.58614 -0.18033
 C400 C 0.35039 0.60500 -0.21569
 C401 C 0.40798 0.58579 -0.12311
 C402 C 0.43185 0.59747 -0.12576
 H403 H 0.33469 0.69721 -0.27247
 H404 H 0.37316 0.69692 -0.21496
 H405 H 0.40491 0.66407 -0.15314
 H406 H 0.36716 0.55518 -0.17088
 H407 H 0.33523 0.58815 -0.23250
 H408 H 0.40348 0.55865 -0.09836
 H409 H 0.30482 0.65944 -0.32277
 H410 H 0.43694 0.62254 -0.15543
 C411 C -0.18306 1.16344 -0.31057
 C412 C -0.15829 1.16799 -0.31683
 C413 C -0.14052 1.14655 -0.27565
 C414 C -0.11732 1.16170 -0.27019
 C415 C -0.09986 1.14238 -0.23266
 C416 C -0.10513 1.10695 -0.20038
 C417 C -0.12835 1.09177 -0.20588
 C418 C -0.14584 1.11116 -0.24330
 C419 C -0.08726 1.08543 -0.15965
 C420 C -0.06260 1.09179 -0.16315
 H421 H -0.15128 1.18856 -0.35282
 H422 H -0.11273 1.18890 -0.29455
 H423 H -0.08246 1.15577 -0.22851
 H424 H -0.13292 1.06452 -0.18165
 H425 H -0.16326 1.09782 -0.24761
 H426 H -0.09383 1.06269 -0.12675
 H427 H -0.19000 1.14291 -0.27436
 H428 H -0.05534 1.11275 -0.19807
 C429 C 0.68976 0.65950 -0.29781
 C430 C 0.67680 0.67048 -0.24106
 C431 C 0.65951 0.64457 -0.20673
 C432 C 0.64073 0.66168 -0.17103
 C433 C 0.62318 0.63874 -0.14091
 C434 C 0.62411 0.59802 -0.14551
 C435 C 0.64359 0.58068 -0.17784
 C436 C 0.66113 0.60372 -0.20856
 C437 C 0.60465 0.57361 -0.11798
 C438 C 0.58099 0.58620 -0.12079
 H439 H 0.67765 0.69991 -0.22301
 H440 H 0.63930 0.69302 -0.16769
 H441 H 0.60884 0.65297 -0.11420
 H442 H 0.64489 0.54932 -0.18086
 H443 H 0.67586 0.58943 -0.23333
 H444 H 0.60873 0.54470 -0.09952
 H445 H 0.68787 0.62987 -0.31489
 H446 H 0.57693 0.61355 -0.14538
 C447 C 0.17631 1.19987 -0.29195
 C448 C 0.16971 1.16085 -0.28423
 C449 C 0.14871 1.14841 -0.24469
 C450 C 0.14822 1.11057 -0.21830
 C451 C 0.12817 1.09703 -0.18375
 C452 C 0.10809 1.12114 -0.17526
 C453 C 0.10851 1.15888 -0.20212
 C454 C 0.12862 1.17250 -0.23637
 C455 C 0.08593 1.10696 -0.14308
 C456 C 0.08542 1.07577 -0.09829
 H457 H 0.18068 1.13804 -0.30485
 H458 H 0.16332 1.09126 -0.22506
 H459 H 0.12824 1.06732 -0.16585
 H460 H 0.09309 1.17774 -0.19725
 H461 H 0.12804 1.20137 -0.25800
 H462 H 0.06935 1.12163 -0.15547
 H463 H 0.16683 1.22124 -0.26252
 H464 H 0.10191 1.06267 -0.08115
 C465 C 0.33412 0.32403 -0.33926
 C466 C 0.33935 0.36360 -0.33359
 C467 C 0.36142 0.37825 -0.30147
 C468 C 0.36139 0.41568 -0.27406
 C469 C 0.38176 0.43029 -0.24257
 C470 C 0.40270 0.40773 -0.23820
 C471 C 0.40300 0.37087 -0.26776
 C472 C 0.38258 0.35617 -0.29894
 C473 C 0.42452 0.42187 -0.20420
 C474 C 0.42390 0.44915 -0.15296
 H475 H 0.32613 0.38482 -0.34881
 H476 H 0.34546 0.43356 -0.27649
 H477 H 0.38109 0.45941 -0.22258
 H478 H 0.41903 0.35321 -0.26613
 H479 H 0.38359 0.32778 -0.32167
 H480 H 0.44144 0.40848 -0.21695
 H481 H 0.34608 0.30304 -0.31658
 H482 H 0.40694 0.46068 -0.13619
 C483 C -0.18483 0.85767 -0.31633
 C484 C -0.16421 0.84434 -0.28441
 C485 C -0.14651 0.87021 -0.25270
 C486 C -0.12324 0.85614 -0.24325
 C487 C -0.10585 0.87925 -0.21349
 C488 C -0.11137 0.91713 -0.19241
 C489 C -0.13481 0.93093 -0.20009
 C490 C -0.15226 0.90777 -0.23022
 C491 C -0.09328 0.94167 -0.15932
 C492 C -0.06892 0.93723 -0.17181
 H493 H -0.15974 0.81378 -0.28712
 H494 H -0.11847 0.82708 -0.25901
 H495 H -0.08827 0.86693 -0.20580
 H496 H -0.13959 0.95970 -0.18292
 H497 H -0.17022 0.91913 -0.23460
 H498 H -0.09924 0.96311 -0.12358
 H499 H -0.18797 0.88862 -0.32071
 H500 H -0.06302 0.91796 -0.21103
 C501 C 0.31423 0.64363 0.30809
 C502 C 0.33880 0.64264 0.32045
 C503 C 0.35629 0.62350 0.27575
 C504 C 0.37888 0.61387 0.30130
 C505 C 0.39624 0.59703 0.26053
 C506 C 0.39149 0.58993 0.19273
 C507 C 0.36879 0.59898 0.16729
 C508 C 0.35140 0.61591 0.20810
 C509 C 0.40971 0.57294 0.14782
 C510 C 0.43418 0.57738 0.15886
 H511 H 0.34560 0.65497 0.36619
 H512 H 0.38310 0.61927 0.35319
 H513 H 0.41323 0.58926 0.28264
 H514 H 0.36468 0.59371 0.11529
 H515 H 0.33446 0.62376 0.18587
 H516 H 0.40371 0.55797 0.10345
 H517 H 0.30716 0.62738 0.26648
 H518 H 0.44034 0.59462 0.20042
 C519 C -0.16728 1.19149 0.32731
 C520 C -0.16084 1.15251 0.31786
 C521 C -0.13903 1.14094 0.28125
 C522 C -0.13898 1.10551 0.24706
 C523 C -0.11875 1.09346 0.21204
 C524 C -0.09800 1.11655 0.21095
 C525 C -0.09777 1.15142 0.24682
 C526 C -0.11812 1.16368 0.28144
 C527 C -0.07620 1.10398 0.17532
 C528 C -0.07716 1.08039 0.11906
 H529 H -0.17270 1.12921 0.33238
 H530 H -0.15472 1.08715 0.24720
 H531 H -0.11928 1.06566 0.18710
 H532 H -0.08183 1.16929 0.24780
 H533 H -0.11727 1.19050 0.30925
 H534 H -0.05902 1.11393 0.19339
 H535 H -0.15573 1.21326 0.30487
 H536 H -0.09431 1.07297 0.09762
 C537 C 0.68542 0.34093 0.29777
 C538 C 0.66942 0.32511 0.25170
 C539 C 0.65175 0.34852 0.21376
 C540 C 0.63144 0.32989 0.18821
 C541 C 0.61406 0.35089 0.15323
 C542 C 0.61668 0.39113 0.14281
 C543 C 0.63744 0.40953 0.16601
 C544 C 0.65480 0.38853 0.20132
 C545 C 0.59819 0.41452 0.10803
 C546 C 0.57403 0.40438 0.10871
 H547 H 0.66844 0.29386 0.24667
 H548 H 0.62887 0.29898 0.19594
 H549 H 0.59875 0.33540 0.13397
 H550 H 0.64006 0.44037 0.15763
 H551 H 0.67060 0.40368 0.21807
 H552 H 0.60345 0.44208 0.08601
 H553 H 0.68450 0.37166 0.30861
 H554 H 0.56828 0.37863 0.13553
 C555 C 0.17747 0.81076 0.28716
 C556 C 0.15495 0.82329 0.30798
 C557 C 0.13854 0.84698 0.26634
 C558 C 0.11470 0.85063 0.28706
 C559 C 0.09845 0.87260 0.24985
 C560 C 0.10570 0.89137 0.19063
 C561 C 0.12968 0.88867 0.17078
 C562 C 0.14597 0.86670 0.20807
 C563 C 0.08892 0.91464 0.14966
 C564 C 0.06429 0.90852 0.15078
 H565 H 0.14888 0.81543 0.35758
 H566 H 0.10858 0.83639 0.33233
 H567 H 0.08037 0.87524 0.26845
 H568 H 0.13580 0.90346 0.12601
 H569 H 0.16430 0.86590 0.19121
 H570 H 0.09626 0.93634 0.11600
 H571 H 0.18419 0.81893 0.23850
 H572 H 0.05681 0.88526 0.18075
   
