data_POSCAR
  _audit_creation_date              2014-09-24
  _audit_creation_method            'ToBaCCo'
  _symmetry_space_group_name_H-M    'P1'
  _symmetry_Int_Tables_number       1
  _symmetry_cell_setting            triclinic
  loop_
  _symmetry_equiv_pos_as_xyz
 x,y,z
_cell_length_a 50.6412
_cell_length_b 53.5542
_cell_length_c 51.5085
_cell_angle_alpha 91.464900
_cell_angle_beta 89.446400
_cell_angle_gamma 94.884400
loop_
  _atom_site_label
  _atom_site_type_symbol
  _atom_site_fract_x
  _atom_site_fract_y
  _atom_site_fract_z
C1 C 0.26396 0.45599 0.99392
 C2 C 0.24581 0.45628 1.01790
 C3 C 0.23185 0.47692 1.02052
 C4 C 0.23719 0.49547 0.99824
 C5 C 0.24538 0.45913 0.97097
 C6 C 0.23149 0.47982 0.97307
 C7 C 0.28113 0.48096 0.99558
 C8 C 0.26735 0.50157 0.99798
 H9 H 0.24365 0.44076 1.03101
 H10 H 0.22634 0.51255 0.99972
 H11 H 0.24295 0.44633 0.95450
 H12 H 0.30259 0.48203 0.99543
 C13 C 0.73418 0.55118 0.00511
 C14 C 0.75472 0.55110 0.02694
 C15 C 0.76986 0.53121 0.02560
 C16 C 0.76336 0.51330 0.00226
 C17 C 0.75091 0.54996 -0.01987
 C18 C 0.76608 0.53014 -0.02152
 C19 C 0.71851 0.52550 0.00632
 C20 C 0.73357 0.50571 0.00474
 H21 H 0.75754 0.56553 0.04192
 H22 H 0.77555 0.49705 0.00101
 H23 H 0.75158 0.56431 -0.03435
 H24 H 0.69705 0.52326 0.00723
 C25 C 0.04859 0.23208 0.49938
 C26 C 0.04548 0.24494 0.47513
 C27 C 0.02227 0.25861 0.47398
 C28 C 0.00596 0.25593 0.49759
 C29 C 0.04694 0.25237 0.52079
 C30 C 0.02469 0.26495 0.51995
 C31 C 0.02278 0.21522 0.50206
 C32 C 0.00042 0.22753 0.50139
 H33 H 0.05693 0.24125 0.45794
 H34 H -0.01244 0.26560 0.49819
 H35 H 0.06269 0.25702 0.53460
 H36 H 0.02231 0.19504 0.50354
 C37 C 0.95579 0.76163 0.49734
 C38 C 0.95516 0.74050 0.47659
 C39 C 0.97688 0.72709 0.47638
 C40 C 0.99742 0.73599 0.49721
 C41 C 0.95976 0.74806 0.52283
 C42 C 0.98140 0.73447 0.52279
 C43 C 0.98196 0.77726 0.49270
 C44 C 1.00370 0.76410 0.49258
 H45 H 0.93859 0.73621 0.46364
 H46 H 1.01514 0.72516 0.49696
 H47 H 0.94561 0.74736 0.53866
 H48 H 0.98315 0.79737 0.49028
 C49 C 0.50820 0.05025 0.22195
 C50 C 0.48543 0.04987 0.24200
 C51 C 0.48430 0.02987 0.25794
 C52 C 0.50625 0.01214 0.25243
 C53 C 0.53301 0.04929 0.23874
 C54 C 0.53218 0.02936 0.25477
 C55 C 0.50491 0.02613 0.20850
 C56 C 0.50370 0.00486 0.22491
 H57 H 0.47290 0.06507 0.24504
 H58 H 0.50487 -0.00357 0.26595
 H59 H 0.54945 0.06357 0.23831
 H60 H 0.50545 0.02469 0.18751
 C61 C 0.49757 -0.04088 0.77709
 C62 C 0.47239 -0.04062 0.76061
 C63 C 0.47207 -0.02026 0.74529
 C64 C 0.49709 -0.00194 0.74773
 C65 C 0.52012 -0.03863 0.75697
 C66 C 0.52001 -0.01832 0.74159
 C67 C 0.49965 -0.01575 0.79198
 C68 C 0.49917 0.00469 0.77691
 H69 H 0.45748 -0.05625 0.75887
 H70 H 0.49667 0.01460 0.73529
 H71 H 0.53446 -0.05242 0.75467
 H72 H 0.50152 -0.01450 0.81291
 C73 C 0.29296 0.01867 0.46985
 H74 H 0.29434 0.03165 0.48632
 C75 C 0.31079 0.02190 0.44916
 H76 H 0.32558 0.03773 0.44968
 C77 C 0.27176 -0.01765 0.44932
 H78 H 0.25686 -0.03332 0.44971
 C79 C 0.28928 -0.01519 0.42824
 H80 H 0.28764 -0.02909 0.41258
 N81 N 0.27378 -0.00071 0.46948
 C82 C 0.21391 0.02426 0.52334
 H83 H 0.21223 0.00878 0.53652
 C84 C 0.19799 0.04412 0.52699
 H85 H 0.18429 0.04394 0.54327
 C86 C 0.23382 0.04314 0.48606
 H87 H 0.24735 0.04245 0.46979
 C88 C 0.21832 0.06340 0.48901
 H89 H 0.22014 0.07810 0.47491
 Zn90 Zn 0.25148 -0.00404 0.49906
 N91 N 0.23151 0.02418 0.50324
 C92 C 0.27522 0.01098 0.54742
 N93 N 0.27389 -0.00660 0.52784
 C94 C 0.29023 -0.02548 0.52713
 C95 C 0.30877 -0.02730 0.54671
 C96 C 0.29355 0.00992 0.56737
 C97 C 0.20903 -0.03258 0.47615
 C98 C 0.18955 -0.05243 0.47294
 C99 C 0.20742 -0.07230 0.50970
 C100 C 0.22657 -0.05200 0.51224
 N101 N 0.22706 -0.03270 0.49550
 H102 H 0.26263 0.02626 0.54726
 H103 H 0.28905 -0.03896 0.51109
 H104 H 0.32146 -0.04258 0.54584
 H105 H 0.29478 0.02447 0.58240
 H106 H 0.20970 -0.01687 0.46329
 H107 H 0.17547 -0.05199 0.45731
 H108 H 0.20698 -0.08726 0.52349
 H109 H 0.24067 -0.05149 0.52788
 C110 C 0.20004 0.06404 0.50966
 C111 C 0.30916 0.00479 0.42799
 C112 C 0.18844 -0.07258 0.48996
 C113 C 0.31079 -0.00930 0.56708
 C114 C 0.70951 0.01463 0.52935
 H115 H 0.70895 0.02890 0.51492
 C116 C 0.69110 0.01352 0.54977
 H117 H 0.67634 0.02700 0.55085
 C118 C 0.72850 -0.02117 0.54450
 H119 H 0.74265 -0.03504 0.54212
 C120 C 0.71060 -0.02289 0.56524
 H121 H 0.71173 -0.03775 0.57894
 N122 N 0.72765 -0.00264 0.52705
 C123 C 0.79210 0.02856 0.47796
 H124 H 0.79198 0.01378 0.46323
 C125 C 0.81174 0.04843 0.47758
 H126 H 0.82657 0.04900 0.46228
 C127 C 0.77315 0.04534 0.51616
 H128 H 0.75843 0.04371 0.53149
 C129 C 0.79242 0.06567 0.51646
 H130 H 0.79240 0.07954 0.53213
 Zn131 Zn 0.74988 -0.00205 0.49731
 N132 N 0.77345 0.02726 0.49714
 C133 C 0.72905 0.01557 0.45096
 N134 N 0.72757 -0.00347 0.46802
 C135 C 0.70888 -0.02315 0.46558
 C136 C 0.69094 -0.02443 0.44509
 C137 C 0.71134 0.01517 0.43033
 C138 C 0.78931 -0.02968 0.51626
 C139 C 0.80527 -0.04954 0.51798
 C140 C 0.78375 -0.06873 0.47991
 C141 C 0.76818 -0.04845 0.47891
 N142 N 0.77089 -0.02967 0.49723
 H143 H 0.74353 0.03141 0.45366
 H144 H 0.70784 -0.03781 0.47972
 H145 H 0.67648 -0.04046 0.44334
 H146 H 0.71244 0.03085 0.41740
 H147 H 0.79139 -0.01427 0.53028
 H148 H 0.81984 -0.04912 0.53326
 H149 H 0.78089 -0.08379 0.46552
 H150 H 0.75389 -0.04786 0.46357
 C151 C 0.81229 0.06714 0.49721
 C152 C 0.69131 -0.00563 0.56789
 C153 C 0.80244 -0.06956 0.49979
 C154 C 0.69189 -0.00500 0.42719
 C155 C 0.50063 0.21340 1.00347
 H156 H 0.49778 0.20513 0.98425
 C157 C 0.49963 0.19798 1.02490
 H158 H 0.49587 0.17791 1.02189
 C159 C 0.50809 0.24959 1.03074
 H160 H 0.51146 0.26977 1.03274
 C161 C 0.50728 0.23482 1.05277
 H162 H 0.51031 0.24377 1.07172
 N163 N 0.50494 0.23869 1.00671
 C164 C 0.47098 0.28933 0.95373
 H165 H 0.48576 0.29104 0.93844
 C166 C 0.44825 0.30226 0.95226
 H167 H 0.44574 0.31416 0.93594
 C168 C 0.45604 0.27153 0.99347
 H169 H 0.45914 0.25961 1.00956
 C170 C 0.43282 0.28376 0.99253
 H171 H 0.41837 0.28141 1.00810
 Zn172 Zn 0.50676 0.25888 0.97705
 N173 N 0.47482 0.27487 0.97449
 C174 C 0.49001 0.23116 0.93175
 N175 N 0.51098 0.23774 0.94753
 C176 C 0.53424 0.22702 0.94449
 C177 C 0.53671 0.20814 0.92568
 C178 C 0.49164 0.21233 0.91266
 C179 C 0.53544 0.30698 0.97345
 C180 C 0.55735 0.32439 0.97669
 C181 C 0.58122 0.29206 0.99518
 C182 C 0.55895 0.27516 0.99127
 N183 N 0.53662 0.28279 0.98054
 H184 H 0.47149 0.23946 0.93487
 H185 H 0.55052 0.23230 0.95742
 H186 H 0.55515 0.19934 0.92404
 H187 H 0.47430 0.20642 0.90121
 H188 H 0.51753 0.31302 0.96550
 H189 H 0.55593 0.34361 0.97118
 H190 H 0.59878 0.28570 1.00383
 H191 H 0.55934 0.25598 0.99722
 C192 C 0.42899 0.29970 0.97198
 C193 C 0.50316 0.20862 1.04996
 C194 C 0.58057 0.31701 0.98776
 C195 C 0.51499 0.20009 0.90996
 C196 C 0.47373 0.79158 -0.00353
 H197 H 0.45887 0.79159 0.01171
 C198 C 0.47281 0.80786 -0.02413
 H199 H 0.45731 0.82058 -0.02445
 C200 C 0.51225 0.77523 -0.02118
 H201 H 0.52768 0.76260 -0.01988
 C202 C 0.51210 0.79124 -0.04218
 H203 H 0.52724 0.79046 -0.05709
 N204 N 0.49291 0.77536 -0.00267
 C205 C 0.45680 0.71227 0.04044
 H206 H 0.47055 0.71158 0.05630
 C207 C 0.43572 0.69380 0.03769
 H208 H 0.43353 0.67882 0.05146
 C209 C 0.44406 0.73182 0.00232
 H210 H 0.44764 0.74626 -0.01182
 C211 C 0.42268 0.71388 -0.00107
 H212 H 0.40975 0.71517 -0.01751
 Zn213 Zn 0.49125 0.75348 0.02567
 N214 N 0.46066 0.73069 0.02278
 C215 C 0.46858 0.77201 0.07238
 N216 N 0.48989 0.77384 0.05604
 C217 C 0.50993 0.79215 0.05940
 C218 C 0.50895 0.80977 0.07970
 C219 C 0.46671 0.78939 0.09289
 C220 C 0.52398 0.71819 0.00548
 C221 C 0.54525 0.70323 0.00456
 C222 C 0.55995 0.72155 0.04584
 C223 C 0.53840 0.73621 0.04593
 N224 N 0.52110 0.73446 0.02579
 H225 H 0.45261 0.75762 0.06904
 H226 H 0.52633 0.79348 0.04575
 H227 H 0.52470 0.82469 0.08149
 H228 H 0.44943 0.78798 0.10549
 H229 H 0.50969 0.71689 -0.01009
 H230 H 0.54740 0.69074 -0.01204
 H231 H 0.57330 0.72298 0.06220
 H232 H 0.53539 0.74874 0.06225
 C233 C 0.41850 0.69429 0.01649
 C234 C 0.49199 0.80763 -0.04398
 C235 C 0.56361 0.70479 0.02494
 C236 C 0.48694 0.80877 0.09653
 C237 C 1.02803 0.46566 0.21873
 H238 H 1.01119 0.45185 0.21730
 C239 C 1.04927 0.46449 0.20145
 H240 H 1.04883 0.44945 0.18698
 C241 C 1.04875 0.50222 0.23925
 H242 H 1.04816 0.51722 0.25360
 C243 C 1.07049 0.50173 0.22236
 H244 H 1.08650 0.51642 0.22392
 N245 N 1.02810 0.48431 0.23714
 C246 C 0.97134 0.45490 0.29545
 H247 H 0.95722 0.46898 0.29555
 C248 C 0.96816 0.43516 0.31274
 H249 H 0.95126 0.43395 0.32581
 C250 C 1.01074 0.43971 0.27850
 H251 H 1.02770 0.44189 0.26564
 C252 C 1.00836 0.41971 0.29545
 H253 H 1.02362 0.40673 0.29538
 Zn254 Zn 0.99702 0.48534 0.25768
 N255 N 0.99235 0.45680 0.27877
 C256 C 0.94737 0.46916 0.23377
 N257 N 0.96862 0.48651 0.23420
 C258 C 0.97120 0.50515 0.21670
 C259 C 0.95172 0.50721 0.19811
 C260 C 0.92736 0.47051 0.21544
 C261 C 1.01801 0.51594 0.29888
 C262 C 1.01956 0.53615 0.31666
 C263 C 0.98213 0.55195 0.29569
 C264 C 0.98132 0.53147 0.27832
 N265 N 0.99917 0.51402 0.28012
 H266 H 0.94594 0.45418 0.24750
 H267 H 0.98856 0.51840 0.21717
 H268 H 0.95437 0.52206 0.18421
 H269 H 0.91041 0.45676 0.21558
 H270 H 1.03167 0.50155 0.30018
 H271 H 1.03441 0.53713 0.33171
 H272 H 0.96785 0.56572 0.29378
 H273 H 0.96614 0.52941 0.26367
 C274 C 0.98695 0.41731 0.31303
 C275 C 1.07078 0.48282 0.20296
 C276 C 1.00133 0.55443 0.31529
 C277 C 0.92937 0.48980 0.19733
 C278 C -0.03023 0.48268 0.78290
 H279 H -0.01587 0.46885 0.78155
 C280 C -0.04958 0.48119 0.80244
 H281 H -0.05027 0.46585 0.81579
 C282 C -0.04636 0.51972 0.76735
 H283 H -0.04459 0.53512 0.75414
 C284 C -0.06603 0.51895 0.78658
 H285 H -0.07923 0.53381 0.78785
 N286 N -0.02896 0.50172 0.76584
 C287 C 0.01727 0.47595 0.69995
 H288 H 0.03215 0.49164 0.69887
 C289 C 0.01796 0.45579 0.68235
 H290 H 0.03371 0.45599 0.66797
 C291 C -0.02089 0.45657 0.72055
 H292 H -0.03617 0.45710 0.73529
 C293 C -0.02098 0.43599 0.70328
 H294 H -0.03644 0.42084 0.70490
 Zn295 Zn -0.00025 0.50400 0.74191
 N296 N -0.00169 0.47584 0.71881
 C297 C 0.04806 0.48714 0.75925
 N298 N 0.03110 0.50545 0.76183
 C299 C 0.03484 0.52394 0.78034
 C300 C 0.05627 0.52445 0.79727
 C301 C 0.06973 0.48693 0.77574
 C302 C -0.02229 0.53333 0.70539
 C303 C -0.02437 0.55366 0.68935
 C304 C 0.01733 0.57233 0.70612
 C305 C 0.01857 0.55162 0.72194
 N306 N -0.00124 0.53279 0.72147
 H307 H 0.04436 0.47216 0.74499
 H308 H 0.02080 0.53803 0.78227
 H309 H 0.05885 0.53928 0.81194
 H310 H 0.08249 0.47175 0.77387
 H311 H -0.03751 0.51787 0.70505
 H312 H -0.04122 0.55362 0.67657
 H313 H 0.03308 0.58731 0.70699
 H314 H 0.03542 0.55060 0.73446
 C315 C -0.00125 0.43535 0.68394
 C316 C -0.06769 0.49962 0.80462
 C317 C -0.00444 0.57358 0.68964
 C318 C 0.07391 0.50560 0.79527
 C319 C 0.09397 0.21781 0.48399
 C320 C 0.11421 0.20179 0.48626
 C321 C 0.11415 0.18505 0.50675
 C322 C 0.09450 0.18600 0.52613
 C323 C 0.07428 0.20197 0.52389
 C324 C 0.07294 0.21731 0.50220
 C325 C 0.13452 0.16670 0.50704
 C326 C 0.13045 0.14442 0.51846
 C327 C 0.14915 0.12453 0.51666
 C328 C 0.13938 0.09978 0.52163
 C329 C 0.15591 0.08023 0.51957
 C330 C 0.18272 0.08499 0.51262
 C331 C 0.19271 0.10983 0.50817
 C332 C 0.17616 0.12943 0.51027
 H333 H 0.09508 0.23023 0.46779
 H334 H 0.12960 0.20199 0.47149
 H335 H 0.09451 0.17436 0.54298
 H336 H 0.05909 0.20182 0.53885
 H337 H 0.15222 0.17086 0.49549
 H338 H 0.11163 0.13955 0.52796
 H339 H 0.11871 0.09545 0.52671
 H340 H 0.14753 0.06128 0.52287
 H341 H 0.21342 0.11414 0.50331
 H342 H 0.18474 0.14830 0.50714
 C343 C 0.69994 0.57522 -0.01642
 C344 C 0.68072 0.59241 -0.01606
 C345 C 0.67627 0.60689 0.00635
 C346 C 0.69157 0.60379 0.02851
 C347 C 0.71084 0.58654 0.02817
 C348 C 0.71550 0.57209 0.00558
 C349 C 0.65423 0.62345 0.00632
 C350 C 0.65197 0.64265 0.02321
 C351 C 0.62915 0.65827 0.02324
 C352 C 0.63252 0.68304 0.03296
 C353 C 0.61133 0.69818 0.03347
 C354 C 0.58620 0.68876 0.02451
 C355 C 0.58273 0.66380 0.01522
 C356 C 0.60391 0.64870 0.01464
 H357 H 0.70220 0.56382 -0.03384
 H358 H 0.66893 0.59406 -0.03327
 H359 H 0.68804 0.61383 0.04652
 H360 H 0.72110 0.58402 0.04605
 H361 H 0.63962 0.61993 -0.00884
 H362 H 0.66773 0.64789 0.03683
 H363 H 0.65169 0.69078 0.03992
 H364 H 0.61472 0.71738 0.04057
 H365 H 0.56348 0.65576 0.00882
 H366 H 0.60024 0.62941 0.00798
 C367 C 0.92495 -0.21359 0.47186
 C368 C 0.90551 -0.19673 0.47012
 C369 C 0.89354 -0.18740 0.49258
 C370 C 0.90072 -0.19608 0.51686
 C371 C 0.92017 -0.21297 0.51861
 C372 C 0.93253 -0.22214 0.49610
 C373 C 0.87414 -0.16840 0.48979
 C374 C 0.86914 -0.15159 0.50859
 C375 C 0.85118 -0.13142 0.50545
 C376 C 0.84066 -0.12039 0.52782
 C377 C 0.82461 -0.10057 0.52597
 C378 C 0.81891 -0.09110 0.50163
 C379 C 0.82942 -0.10213 0.47918
 C380 C 0.84545 -0.12201 0.48103
 H381 H 0.93459 -0.21951 0.45416
 H382 H 0.90040 -0.19035 0.45117
 H383 H 0.89154 -0.18983 0.53463
 H384 H 0.92588 -0.21803 0.53778
 H385 H 0.86462 -0.16773 0.47114
 H386 H 0.87871 -0.15223 0.52721
 H387 H 0.84486 -0.12717 0.54686
 H388 H 0.81655 -0.09271 0.54361
 H389 H 0.82582 -0.09494 0.46019
 H390 H 0.85388 -0.12934 0.46335
 C391 C 0.29937 0.43221 1.01349
 C392 C 0.31802 0.41449 1.01236
 C393 C 0.31855 0.39746 0.99132
 C394 C 0.29956 0.39805 0.97169
 C395 C 0.28108 0.41607 0.97259
 C396 C 0.28117 0.43391 0.99323
 C397 C 0.34054 0.38104 0.98936
 C398 C 0.33877 0.35866 0.97699
 C399 C 0.36180 0.34354 0.97475
 C400 C 0.35823 0.31746 0.97730
 C401 C 0.38004 0.30308 0.97624
 C402 C 0.40565 0.31451 0.97186
 C403 C 0.40907 0.34048 0.96833
 C404 C 0.38738 0.35490 0.96990
 H405 H 0.29987 0.44543 1.02979
 H406 H 0.33245 0.41440 1.02775
 H407 H 0.29969 0.38538 0.95498
 H408 H 0.26748 0.41607 0.95665
 H409 H 0.35887 0.38750 0.99906
 H410 H 0.31990 0.35070 0.96951
 H411 H 0.33864 0.30833 0.98078
 H412 H 0.37695 0.28303 0.97883
 H413 H 0.42863 0.34971 0.96500
 H414 H 0.39060 0.37492 0.96724
 C415 C 0.95267 0.22036 0.48831
 C416 C 0.92842 0.20564 0.48863
 C417 C 0.92498 0.18451 0.50430
 C418 C 0.94550 0.17945 0.52106
 C419 C 0.96960 0.19407 0.52073
 C420 C 0.97372 0.21421 0.50381
 C421 C 0.90036 0.16752 0.50235
 C422 C 0.90076 0.14268 0.50490
 C423 C 0.87736 0.12431 0.50203
 C424 C 0.88173 0.09931 0.49597
 C425 C 0.86056 0.08095 0.49405
 C426 C 0.83446 0.08710 0.49843
 C427 C 0.82997 0.11212 0.50464
 C428 C 0.85123 0.13061 0.50636
 H429 H 0.95532 0.23579 0.47512
 H430 H 0.91275 0.21010 0.47581
 H431 H 0.94309 0.16398 0.53424
 H432 H 0.98523 0.18938 0.53348
 H433 H 0.88230 0.17533 0.49675
 H434 H 0.91961 0.13504 0.50787
 H435 H 0.90167 0.09390 0.49280
 H436 H 0.86469 0.06177 0.48970
 H437 H 0.81004 0.11735 0.50813
 H438 H 0.84718 0.14959 0.51167
 C439 C 0.27049 0.54523 0.01720
 C440 C 0.28429 0.56883 0.02090
 C441 C 0.30826 0.57496 0.00768
 C442 C 0.31815 0.55696 -0.00937
 C443 C 0.30441 0.53348 -0.01303
 C444 C 0.28064 0.52723 0.00045
 C445 C 0.32342 0.59940 0.01335
 C446 C 0.34124 0.61007 -0.00334
 C447 C 0.35913 0.63287 0.00255
 C448 C 0.37330 0.64435 -0.01811
 C449 C 0.39214 0.66450 -0.01358
 C450 C 0.39733 0.67374 0.01180
 C451 C 0.38288 0.66256 0.03252
 C452 C 0.36403 0.64228 0.02800
 H453 H 0.25240 0.54080 0.02813
 H454 H 0.27640 0.58222 0.03437
 H455 H 0.33695 0.56050 -0.01931
 H456 H 0.31261 0.52008 -0.02626
 H457 H 0.31954 0.60868 0.03171
 H458 H 0.34304 0.60171 -0.02255
 H459 H 0.37018 0.63735 -0.03786
 H460 H 0.40324 0.67231 -0.02996
 H461 H 0.38630 0.66935 0.05228
 H462 H 0.35406 0.63373 0.04459
 C463 C 0.05121 -0.22745 0.50570
 C464 C 0.07522 -0.21242 0.50459
 C465 C 0.07890 -0.19317 0.48654
 C466 C 0.05892 -0.19061 0.46823
 C467 C 0.03494 -0.20541 0.46953
 C468 C 0.03056 -0.22341 0.48877
 C469 C 0.10311 -0.17546 0.48790
 C470 C 0.10304 -0.15153 0.48067
 C471 C 0.12568 -0.13212 0.48334
 C472 C 0.12068 -0.10702 0.48001
 C473 C 0.14100 -0.08782 0.48217
 C474 C 0.16699 -0.09322 0.48765
 C475 C 0.17216 -0.11833 0.49095
 C476 C 0.15175 -0.13763 0.48871
 H477 H 0.04827 -0.24120 0.52071
 H478 H 0.09046 -0.21506 0.51864
 H479 H 0.06148 -0.17688 0.45317
 H480 H 0.01948 -0.20237 0.45585
 H481 H 0.12036 -0.18181 0.49705
 H482 H 0.08477 -0.14513 0.47363
 H483 H 0.10084 -0.10216 0.47586
 H484 H 0.13627 -0.06866 0.47991
 H485 H 0.19208 -0.12307 0.49484
 H486 H 0.15669 -0.15670 0.49086
 C487 C 0.73085 0.46226 0.98539
 C488 C 0.71747 0.43844 0.98216
 C489 C 0.69512 0.43130 0.99745
 C490 C 0.68666 0.44832 1.01640
 C491 C 0.69982 0.47218 1.01940
 C492 C 0.72173 0.47952 1.00362
 C493 C 0.67939 0.40729 0.99144
 C494 C 0.66389 0.39502 1.00903
 C495 C 0.64465 0.37353 1.00221
 C496 C 0.63653 0.35630 1.02138
 C497 C 0.61636 0.33734 1.01640
 C498 C 0.60356 0.33558 0.99227
 C499 C 0.61195 0.35256 0.97293
 C500 C 0.63231 0.37132 0.97780
 H501 H 0.74752 0.46760 0.97280
 H502 H 0.72419 0.42576 0.96725
 H503 H 0.66912 0.44378 1.02808
 H504 H 0.69248 0.48514 1.03367
 H505 H 0.68033 0.39982 0.97175
 H506 H 0.66496 0.40106 1.02925
 H507 H 0.64550 0.35782 1.04043
 H508 H 0.61007 0.32466 1.03173
 H509 H 0.60243 0.35154 0.95414
 H510 H 0.63752 0.38466 0.96278
 C511 C 0.53380 0.07749 1.18909
 C512 C 0.53551 0.09576 1.17019
 C513 C 0.51344 0.10856 1.16416
 C514 C 0.48940 0.10249 1.17739
 C515 C 0.48769 0.08421 1.19640
 C516 C 0.51002 0.07173 1.20291
 C517 C 0.51594 0.12655 1.14268
 C518 C 0.49885 0.14382 1.13853
 C519 C 0.50103 0.16053 1.11594
 C520 C 0.48913 0.18327 1.11736
 C521 C 0.49007 0.19909 1.09611
 C522 C 0.50273 0.19233 1.07288
 C523 C 0.51459 0.16955 1.07146
 C524 C 0.51363 0.15376 1.09264
 H525 H 0.55105 0.06744 1.19249
 H526 H 0.55412 0.09959 1.15989
 H527 H 0.47155 0.11102 1.17253
 H528 H 0.46853 0.07937 1.20518
 H529 H 0.53308 0.12570 1.13008
 H530 H 0.48307 0.14645 1.15237
 H531 H 0.47901 0.18878 1.13494
 H532 H 0.48041 0.21634 1.09767
 H533 H 0.52466 0.16389 1.05391
 H534 H 0.52228 0.13605 1.09037
 C535 C 0.01251 0.71171 0.54955
 C536 C 0.01718 0.69435 0.56848
 C537 C -0.00397 0.68190 0.58209
 C538 C -0.03001 0.68692 0.57604
 C539 C -0.03466 0.70422 0.55713
 C540 C -0.01347 0.71690 0.54369
 C541 C 0.00167 0.66281 0.60122
 C542 C -0.01495 0.65609 0.62079
 C543 C -0.01104 0.63556 0.63886
 C544 C -0.03315 0.62521 0.65274
 C545 C -0.03092 0.60531 0.66935
 C546 C -0.00643 0.59536 0.67268
 C547 C 0.01591 0.60612 0.65938
 C548 C 0.01368 0.62603 0.64266
 H549 H 0.02929 0.72105 0.53959
 H550 H 0.03741 0.69063 0.57253
 H551 H -0.04696 0.67696 0.58516
 H552 H -0.05499 0.70697 0.55250
 H553 H 0.01998 0.65401 0.59866
 H554 H -0.03297 0.66540 0.62335
 H555 H -0.05237 0.63231 0.65044
 H556 H -0.04841 0.59775 0.67970
 H557 H 0.03505 0.59884 0.66152
 H558 H 0.03140 0.63384 0.63297
 C559 C 0.52350 0.93347 -0.19321
 C560 C 0.52528 0.91499 -0.17483
 C561 C 0.50258 0.90041 -0.16668
 C562 C 0.47808 0.90414 -0.17797
 C563 C 0.47628 0.92259 -0.19642
 C564 C 0.49904 0.93743 -0.20453
 C565 C 0.50528 0.88179 -0.14628
 C566 C 0.48546 0.87427 -0.13005
 C567 C 0.48813 0.85664 -0.10867
 C568 C 0.46501 0.84425 -0.09835
 C569 C 0.46630 0.82818 -0.07757
 C570 C 0.49080 0.82428 -0.06645
 C571 C 0.51400 0.83665 -0.07675
 C572 C 0.51271 0.85275 -0.09757
 H573 H 0.54129 0.94504 -0.19827
 H574 H 0.54439 0.91256 -0.16641
 H575 H 0.46018 0.89290 -0.17266
 H576 H 0.45685 0.92546 -0.20359
 H577 H 0.52459 0.87492 -0.14414
 H578 H 0.46624 0.88135 -0.13219
 H579 H 0.44582 0.84698 -0.10643
 H580 H 0.44810 0.81867 -0.07030
 H581 H 0.53310 0.83438 -0.06827
 H582 H 0.53094 0.86255 -0.10429
 C583 C 1.03655 0.28027 0.43388
 C584 C 1.03176 0.29583 0.41343
 C585 C 1.00721 0.30565 0.41100
 C586 C 0.98707 0.29884 0.42902
 C587 C 0.99172 0.28311 0.44948
 C588 C 1.01672 0.27364 0.45259
 C589 C 1.00354 0.32276 0.38938
 C590 C 0.98633 0.34048 0.39026
 C591 C 0.98505 0.35924 0.36970
 C592 C 0.97685 0.38294 0.37643
 C593 C 0.97695 0.40164 0.35796
 C594 C 0.98500 0.39693 0.33222
 C595 C 0.99216 0.37285 0.32523
 C596 C 0.99213 0.35418 0.34372
 H597 H 1.05638 0.27445 0.43523
 H598 H 1.04765 0.30074 0.39976
 H599 H 0.96752 0.30532 0.42722
 H600 H 0.97519 0.27820 0.46223
 H601 H 1.01721 0.32203 0.37314
 H602 H 0.97445 0.34289 0.40758
 H603 H 0.97111 0.38726 0.39625
 H604 H 0.97152 0.42002 0.36406
 H605 H 0.99782 0.36843 0.30543
 H606 H 0.99759 0.33584 0.33756
 C607 C 0.50726 0.95931 0.22973
 C608 C 0.50530 0.93490 0.21915
 C609 C 0.49600 0.93000 0.19388
 C610 C 0.48877 0.95004 0.17924
 C611 C 0.49096 0.97444 0.18961
 C612 C 0.50058 0.97975 0.21500
 C613 C 0.49585 0.90428 0.18255
 C614 C 0.47908 0.89568 0.16374
 C615 C 0.48081 0.87148 0.14950
 C616 C 0.45855 0.86104 0.13580
 C617 C 0.46022 0.83995 0.11952
 C618 C 0.48432 0.82900 0.11637
 C619 C 0.50642 0.83895 0.13070
 C620 C 0.50473 0.85997 0.14708
 H621 H 0.51516 0.96179 0.24905
 H622 H 0.51131 0.91977 0.23073
 H623 H 0.48205 0.94711 0.15943
 H624 H 0.48448 0.98890 0.17753
 H625 H 0.50992 0.89222 0.19008
 H626 H 0.46337 0.90695 0.15821
 H627 H 0.43998 0.86967 0.13712
 H628 H 0.44295 0.83294 0.10846
 H629 H 0.52522 0.83082 0.12872
 H630 H 0.52251 0.86776 0.15679
 C631 C 0.00686 0.30650 0.52927
 C632 C 0.00253 0.32666 0.54607
 C633 C 0.01077 0.32686 0.57203
 C634 C 0.02380 0.30646 0.58076
 C635 C 0.02812 0.28629 0.56393
 C636 C 0.01971 0.28609 0.53800
 C637 C 0.00660 0.34915 0.58883
 C638 C 0.00665 0.34900 0.61490
 C639 C 0.00351 0.37153 0.63169
 C640 C -0.00384 0.36823 0.65781
 C641 C -0.00585 0.38889 0.67465
 C642 C -0.00037 0.41340 0.66577
 C643 C 0.00686 0.41674 0.63959
 C644 C 0.00891 0.39610 0.62276
 H645 H 0.00066 0.30721 0.50926
 H646 H -0.00720 0.34226 0.53872
 H647 H 0.03123 0.30614 0.60034
 H648 H 0.03799 0.27079 0.57127
 H649 H 0.00251 0.36605 0.57911
 H650 H 0.00829 0.33153 0.62462
 H651 H -0.00784 0.34955 0.66530
 H652 H -0.01105 0.38564 0.69479
 H653 H 0.01103 0.43538 0.63208
 H654 H 0.01538 0.39959 0.60303
 C655 C 0.51143 0.05118 0.77453
 C656 C 0.51308 0.07530 0.78589
 C657 C 0.50331 0.07922 0.81110
 C658 C 0.49053 0.05885 0.82421
 C659 C 0.48875 0.03486 0.81285
 C660 C 0.49973 0.03059 0.78811
 C661 C 0.50651 0.10456 0.82342
 C662 C 0.51046 0.10780 0.84903
 C663 C 0.51336 0.13248 0.86277
 C664 C 0.52562 0.13400 0.88711
 C665 C 0.52692 0.15622 0.90193
 C666 C 0.51575 0.17744 0.89284
 C667 C 0.50380 0.17612 0.86826
 C668 C 0.50263 0.15385 0.85331
 H669 H 0.51997 0.04870 0.75546
 H670 H 0.52268 0.09079 0.77528
 H671 H 0.48174 0.06141 0.84323
 H672 H 0.47861 0.01969 0.82349
 H673 H 0.50708 0.12060 0.81101
 H674 H 0.51250 0.09149 0.86064
 H675 H 0.53382 0.11776 0.89494
 H676 H 0.53579 0.15646 0.92099
 H677 H 0.49503 0.19220 0.86078
 H678 H 0.49250 0.15323 0.83488
 C679 C 0.95688 0.68870 0.45286
 C680 C 0.95896 0.66793 0.43631
 C681 C 0.98345 0.66293 0.42525
 C682 C 1.00610 0.67894 0.43172
 C683 C 1.00400 0.69973 0.44845
 C684 C 0.97932 0.70494 0.45897
 C685 C 0.98414 0.64077 0.40744
 C686 C 1.00347 0.63746 0.38999
 C687 C 1.00246 0.61586 0.37126
 C688 C 1.02624 0.60801 0.36096
 C689 C 1.02597 0.58799 0.34293
 C690 C 1.00184 0.57560 0.33455
 C691 C 0.97804 0.58366 0.34464
 C692 C 0.97831 0.60360 0.36267
 H693 H 0.93767 0.69185 0.46113
 H694 H 0.94125 0.65581 0.43193
 H695 H 1.02548 0.67545 0.42422
 H696 H 1.02163 0.71194 0.45284
 H697 H 0.96733 0.62692 0.40840
 H698 H 1.02066 0.65084 0.38909
 H699 H 1.04509 0.61733 0.36697
 H700 H 1.04463 0.58245 0.33523
 H701 H 0.95912 0.57443 0.33872
 H702 H 0.95950 0.60960 0.36935
 C703 C 1.19170 0.49543 0.03970
 C704 C 1.17318 0.49769 0.05968
 C705 C 1.17565 0.48557 0.08321
 C706 C 1.19741 0.47131 0.08650
 C707 C 1.21594 0.46901 0.06645
 C708 C 1.21308 0.48065 0.04252
 C709 C 1.15426 0.48701 0.10293
 C710 C 1.15691 0.48212 0.12815
 C711 C 1.13460 0.48255 0.14697
 C712 C 1.13998 0.48779 0.17332
 C713 C 1.11932 0.48804 0.19155
 C714 C 1.09286 0.48266 0.18380
 C715 C 1.08753 0.47707 0.15747
 C716 C 1.10812 0.47693 0.13928
 H717 H 1.18865 0.50485 0.02191
 H718 H 1.15659 0.50876 0.05657
 H719 H 1.19987 0.46129 0.10415
 H720 H 1.23245 0.45797 0.06979
 H721 H 1.13563 0.49296 0.09628
 H722 H 1.17609 0.47855 0.13560
 H723 H 1.16021 0.49186 0.17979
 H724 H 1.12405 0.49209 0.21176
 H725 H 1.06735 0.47300 0.15086
 H726 H 1.10321 0.47197 0.11931
 C727 C 0.54857 0.01053 0.71330
 C728 C 0.56699 0.01451 0.69309
 C729 C 0.57612 -0.00583 0.67894
 C730 C 0.56563 -0.03025 0.68476
 C731 C 0.54736 -0.03420 0.70500
 C732 C 0.53890 -0.01389 0.71972
 C733 C 0.59610 -0.00090 0.65802
 C734 C 0.61250 -0.01793 0.64984
 C735 C 0.63229 -0.01380 0.62869
 C736 C 0.64115 -0.03488 0.61569
 C737 C 0.66011 -0.03218 0.59592
 C738 C 0.67098 -0.00827 0.58886
 C739 C 0.66224 0.01291 0.60195
 C740 C 0.64312 0.01021 0.62171
 H741 H 0.54242 0.02653 0.72423
 H742 H 0.57446 0.03352 0.68879
 H743 H 0.57107 -0.04640 0.67357
 H744 H 0.53957 -0.05321 0.70887
 H745 H 0.59741 0.01743 0.64953
 H746 H 0.61130 -0.03612 0.65862
 H747 H 0.63319 -0.05357 0.62071
 H748 H 0.66603 -0.04887 0.58595
 H749 H 0.67055 0.03156 0.59725
 H750 H 0.63742 0.02690 0.63178
 C751 C -0.22282 0.53212 0.93097
 C752 C -0.20559 0.52871 0.91008
 C753 C -0.18117 0.51880 0.91382
 C754 C -0.17428 0.51247 0.93911
 C755 C -0.19156 0.51588 0.96002
 C756 C -0.21594 0.52586 0.95620
 C757 C -0.16318 0.51661 0.89106
 C758 C -0.14290 0.50199 0.89011
 C759 C -0.12445 0.50086 0.86760
 C760 C -0.09894 0.49344 0.87172
 C761 C -0.08064 0.49276 0.85127
 C762 C -0.08753 0.49928 0.82611
 C763 C -0.11332 0.50605 0.82180
 C764 C -0.13162 0.50675 0.84226
 H765 H -0.24162 0.53956 0.92731
 H766 H -0.21140 0.53384 0.89087
 H767 H -0.15533 0.50557 0.94311
 H768 H -0.18542 0.51140 0.97931
 H769 H -0.16695 0.52778 0.87451
 H770 H -0.13889 0.49090 0.90664
 H771 H -0.09295 0.48864 0.89097
 H772 H -0.06088 0.48770 0.85532
 H773 H -0.11942 0.51062 0.80253
 H774 H -0.15138 0.51159 0.83799
 C775 C 0.47221 0.01639 0.30305
 C776 C 0.45395 0.01325 0.32345
 C777 C 0.42797 0.02008 0.32087
 C778 C 0.42075 0.03059 0.29745
 C779 C 0.43901 0.03366 0.27702
 C780 C 0.46490 0.02653 0.27957
 C781 C 0.40954 0.01680 0.34335
 C782 C 0.38307 0.01633 0.34154
 C783 C 0.36477 0.01319 0.36415
 C784 C 0.33802 0.00533 0.35965
 C785 C 0.31999 0.00250 0.38030
 C786 C 0.32830 0.00762 0.40599
 C787 C 0.35504 0.01568 0.41049
 C788 C 0.37305 0.01859 0.38985
 H789 H 0.49219 0.01131 0.30593
 H790 H 0.46020 0.00547 0.34138
 H791 H 0.40126 0.03688 0.29484
 H792 H 0.43279 0.04151 0.25913
 H793 H 0.41834 0.01363 0.36190
 H794 H 0.37408 0.01722 0.32266
 H795 H 0.33102 0.00134 0.34004
 H796 H 0.29944 -0.00333 0.37611
 H797 H 0.36216 0.01961 0.43005
 H798 H 0.39323 0.02547 0.39423
 C799 C 0.19019 0.49824 0.95891
 C800 C 0.17285 0.50434 0.93958
 C801 C 0.17821 0.49913 0.91331
 C802 C 0.20186 0.48836 0.90672
 C803 C 0.21918 0.48224 0.92610
 C804 C 0.21340 0.48686 0.95246
 C805 C 0.15860 0.50526 0.89370
 C806 C 0.15689 0.49477 0.86976
 C807 C 0.13591 0.49944 0.85100
 C808 C 0.14032 0.49446 0.82450
 C809 C 0.12049 0.49706 0.80631
 C810 C 0.09567 0.50454 0.81426
 C811 C 0.09131 0.50976 0.84076
 C812 C 0.11113 0.50716 0.85895
 H813 H 0.18500 0.50193 0.97888
 H814 H 0.15489 0.51276 0.94525
 H815 H 0.20737 0.48489 0.88671
 H816 H 0.23730 0.47415 0.92038
 H817 H 0.14448 0.51833 0.89981
 H818 H 0.17106 0.48184 0.86345
 H819 H 0.15914 0.48835 0.81785
 H820 H 0.12455 0.49311 0.78600
 H821 H 0.07221 0.51497 0.84759
 H822 H 0.10649 0.51033 0.87923
 C823 C 0.56871 0.04654 0.28461
 C824 C 0.58860 0.04317 0.30245
 C825 C 0.59328 0.01910 0.31030
 C826 C 0.57804 -0.00171 0.29950
 C827 C 0.55830 0.00164 0.28143
 C828 C 0.55333 0.02579 0.27379
 C829 C 0.61455 0.01642 0.32925
 C830 C 0.61385 -0.00227 0.34613
 C831 C 0.63437 -0.00365 0.36617
 C832 C 0.62709 -0.01398 0.39020
 C833 C 0.64575 -0.01461 0.40993
 C834 C 0.67226 -0.00531 0.40586
 C835 C 0.67970 0.00422 0.38142
 C836 C 0.66097 0.00508 0.36179
 H837 H 0.56518 0.06548 0.27968
 H838 H 0.60011 0.05950 0.31047
 H839 H 0.58168 -0.02060 0.30455
 H840 H 0.54734 -0.01476 0.27314
 H841 H 0.63031 0.03140 0.33056
 H842 H 0.59674 -0.01583 0.34673
 H843 H 0.60673 -0.02095 0.39395
 H844 H 0.63922 -0.02181 0.42857
 H845 H 0.70006 0.01093 0.37739
 H846 H 0.66741 0.01237 0.34316
 C847 C 0.80604 0.54793 0.05583
 C848 C 0.82508 0.54436 0.07450
 C849 C 0.82906 0.52022 0.08282
 C850 C 0.81400 0.49953 0.07141
 C851 C 0.79497 0.50313 0.05263
 C852 C 0.79062 0.52737 0.04484
 C853 C 0.84931 0.51771 0.10304
 C854 C 0.85035 0.49752 0.11783
 C855 C 0.87035 0.49602 0.13848
 C856 C 0.87745 0.47239 0.14567
 C857 C 0.89640 0.47028 0.16490
 C858 C 0.90851 0.49179 0.17755
 C859 C 0.90084 0.51540 0.17086
 C860 C 0.88194 0.51751 0.15164
 H861 H 0.80356 0.56682 0.04985
 H862 H 0.83659 0.56060 0.08268
 H863 H 0.81688 0.48055 0.07664
 H864 H 0.78332 0.48693 0.04458
 H865 H 0.86368 0.53363 0.10609
 H866 H 0.83641 0.48130 0.11476
 H867 H 0.86861 0.45553 0.13605
 H868 H 0.90198 0.45183 0.16949
 H869 H 0.90926 0.53228 0.18072
 H870 H 0.87620 0.53599 0.14753
 C871 C 0.42434 -0.02585 0.73211
 C872 C 0.40438 -0.02389 0.71392
 C873 C 0.41035 -0.01370 0.68951
 C874 C 0.43671 -0.00473 0.68398
 C875 C 0.45668 -0.00672 0.70217
 C876 C 0.45074 -0.01745 0.72634
 C877 C 0.38857 -0.01247 0.67064
 C878 C 0.39254 -0.01133 0.64488
 C879 C 0.37091 -0.01094 0.62568
 C880 C 0.37638 -0.01706 0.59963
 C881 C 0.35687 -0.01669 0.58072
 C882 C 0.33135 -0.01009 0.58737
 C883 C 0.32588 -0.00376 0.61341
 C884 C 0.34544 -0.00406 0.63235
 H885 H 0.41909 -0.03383 0.75075
 H886 H 0.38422 -0.03064 0.71883
 H887 H 0.44206 0.00401 0.66576
 H888 H 0.47684 -0.00027 0.69702
 H889 H 0.36858 -0.01410 0.67835
 H890 H 0.41241 -0.01199 0.63715
 H891 H 0.39589 -0.02214 0.59386
 H892 H 0.36193 -0.02116 0.56076
 H893 H 0.30640 0.00134 0.61918
 H894 H 0.34051 0.00151 0.65200
   
