data_POSCAR
  _audit_creation_date              2014-09-24
  _audit_creation_method            'ToBaCCo'
  _symmetry_space_group_name_H-M    'P1'
  _symmetry_Int_Tables_number       1
  _symmetry_cell_setting            triclinic
  loop_
  _symmetry_equiv_pos_as_xyz
 x,y,z
_cell_length_a 52.0982
_cell_length_b 52.6348
_cell_length_c 52.2724
_cell_angle_alpha 89.975800
_cell_angle_beta 90.079200
_cell_angle_gamma 90.018900
loop_
  _atom_site_label
  _atom_site_type_symbol
  _atom_site_fract_x
  _atom_site_fract_y
  _atom_site_fract_z
N1 N 0.29247 0.24044 0.22271
 N2 N 0.28245 0.26082 0.21205
 C3 C 0.29622 0.26693 0.19113
 C4 C 0.31578 0.24948 0.18875
 C5 C 0.31294 0.23291 0.20896
 H6 H 0.29217 0.28260 0.17836
 H7 H 0.32461 0.21642 0.21309
 Cu8 Cu 0.25186 0.27664 0.22620
 Cu9 Cu 0.27772 0.22469 0.25307
 Cu10 Cu 0.22323 0.25295 0.27853
 N11 N 0.22138 0.29251 0.24055
 N12 N 0.21030 0.28310 0.26108
 C13 C 0.18931 0.29697 0.26660
 C14 C 0.18728 0.31599 0.24859
 C15 C 0.20778 0.31271 0.23229
 H16 H 0.17623 0.29322 0.28220
 H17 H 0.21211 0.32388 0.21548
 N18 N 0.23926 0.22236 0.29339
 N19 N 0.26000 0.21162 0.28368
 C20 C 0.26578 0.19078 0.29751
 C21 C 0.24788 0.18844 0.31671
 C22 C 0.23131 0.20860 0.31366
 H23 H 0.28150 0.17794 0.29365
 H24 H 0.21448 0.21260 0.32505
 H25 H 0.24043 0.23670 0.24692
 H26 H 0.26103 0.25723 0.26755
 N27 N 0.70784 -0.23918 0.22170
 N28 N 0.71769 -0.25960 0.21100
 C29 C 0.70377 -0.26561 0.19011
 C30 C 0.68432 -0.24802 0.18781
 C31 C 0.68734 -0.23148 0.20801
 H32 H 0.70763 -0.28133 0.17735
 H33 H 0.67576 -0.21495 0.21223
 Cu34 Cu 0.74814 -0.27581 0.22512
 Cu35 Cu 0.72273 -0.22369 0.25215
 Cu36 Cu 0.77673 -0.25272 0.27784
 N37 N 0.77831 -0.29211 0.23974
 N38 N 0.78934 -0.28297 0.26045
 C39 C 0.80997 -0.29726 0.26628
 C40 C 0.81181 -0.31626 0.24826
 C41 C 0.79158 -0.31257 0.23164
 H42 H 0.82287 -0.29386 0.28215
 H43 H 0.78716 -0.32369 0.21481
 N44 N 0.76110 -0.22197 0.29267
 N45 N 0.74055 -0.21092 0.28287
 C46 C 0.73504 -0.19004 0.29673
 C47 C 0.75292 -0.18803 0.31604
 C48 C 0.76920 -0.20841 0.31301
 H49 H 0.71951 -0.17697 0.29283
 H50 H 0.78593 -0.21269 0.32448
 H51 H 0.75987 -0.23611 0.24616
 H52 H 0.73892 -0.25656 0.26650
 N53 N 0.70815 0.24002 0.77694
 N54 N 0.71807 0.26046 0.78756
 C55 C 0.70415 0.26660 0.80838
 C56 C 0.68462 0.24910 0.81072
 C57 C 0.68761 0.23248 0.79060
 H58 H 0.70811 0.28230 0.82112
 H59 H 0.67600 0.21594 0.78647
 Cu60 Cu 0.74873 0.27641 0.77364
 Cu61 Cu 0.72311 0.22423 0.74675
 Cu62 Cu 0.77776 0.25239 0.72162
 N63 N 0.77939 0.29206 0.75940
 N64 N 0.79064 0.28254 0.73901
 C65 C 0.81170 0.29636 0.73356
 C66 C 0.81357 0.31546 0.75148
 C67 C 0.79294 0.31230 0.76765
 H68 H 0.82488 0.29253 0.71806
 H69 H 0.78847 0.32359 0.78434
 N70 N 0.76183 0.22179 0.70673
 N71 N 0.74100 0.21108 0.71631
 C72 C 0.73531 0.19021 0.70248
 C73 C 0.75336 0.18784 0.68343
 C74 C 0.76992 0.20800 0.68657
 H75 H 0.71955 0.17737 0.70626
 H76 H 0.78685 0.21197 0.67531
 H77 H 0.76031 0.23635 0.75325
 H78 H 0.73988 0.25678 0.73231
 N79 N 0.29253 -0.24136 0.77650
 N80 N 0.28305 -0.26225 0.78657
 C81 C 0.29691 -0.26847 0.80744
 C82 C 0.31596 -0.25054 0.81039
 C83 C 0.31273 -0.23358 0.79057
 H84 H 0.29320 -0.28452 0.81982
 H85 H 0.32394 -0.21666 0.78694
 Cu86 Cu 0.25297 -0.27888 0.77211
 Cu87 Cu 0.27745 -0.22534 0.74650
 Cu88 Cu 0.22289 -0.25328 0.72110
 N89 N 0.22172 -0.29366 0.75808
 N90 N 0.21008 -0.28359 0.73815
 C91 C 0.18868 -0.29700 0.73296
 C92 C 0.18699 -0.31641 0.75056
 C93 C 0.20807 -0.31384 0.76630
 H94 H 0.17513 -0.29267 0.71788
 H95 H 0.21279 -0.32544 0.78272
 N96 N 0.23872 -0.22255 0.70648
 N97 N 0.25952 -0.21190 0.71619
 C98 C 0.26520 -0.19092 0.70254
 C99 C 0.24715 -0.18840 0.68346
 C100 C 0.23061 -0.20860 0.68639
 H101 H 0.28098 -0.17813 0.70643
 H102 H 0.21371 -0.21253 0.67502
 H103 H 0.24054 -0.23831 0.75323
 H104 H 0.26095 -0.25772 0.73131
 N105 N 0.70840 -0.23923 0.77829
 N106 N 0.71819 -0.25973 0.78891
 C107 C 0.70430 -0.26576 0.80978
 C108 C 0.68493 -0.24811 0.81216
 C109 C 0.68798 -0.23152 0.79200
 H110 H 0.70813 -0.28152 0.82250
 H111 H 0.67646 -0.21493 0.78787
 Cu112 Cu 0.74856 -0.27594 0.77480
 Cu113 Cu 0.72331 -0.22364 0.74795
 Cu114 Cu 0.77723 -0.25268 0.72228
 N115 N 0.77867 -0.29224 0.76023
 N116 N 0.78975 -0.28303 0.73959
 C117 C 0.81039 -0.29731 0.73384
 C118 C 0.81217 -0.31635 0.75182
 C119 C 0.79192 -0.31272 0.76834
 H120 H 0.82335 -0.29383 0.71806
 H121 H 0.78749 -0.32386 0.78516
 N122 N 0.76167 -0.22184 0.70755
 N123 N 0.74114 -0.21078 0.71734
 C124 C 0.73567 -0.18983 0.70357
 C125 C 0.75355 -0.18776 0.68433
 C126 C 0.76978 -0.20819 0.68729
 H127 H 0.72017 -0.17674 0.70749
 H128 H 0.78651 -0.21244 0.67584
 H129 H 0.73942 -0.25648 0.73347
 H130 H 0.76042 -0.23619 0.75397
 N131 N 0.29227 0.24082 0.77656
 N132 N 0.28226 0.26123 0.78711
 C133 C 0.29608 0.26743 0.80801
 C134 C 0.31564 0.24999 0.81048
 C135 C 0.31277 0.23334 0.79036
 H136 H 0.29201 0.28310 0.82075
 H137 H 0.32441 0.21681 0.78635
 Cu138 Cu 0.25159 0.27691 0.77296
 Cu139 Cu 0.27740 0.22487 0.74635
 Cu140 Cu 0.22271 0.25289 0.72087
 N141 N 0.22101 0.29262 0.75862
 N142 N 0.20983 0.28308 0.73818
 C143 C 0.18875 0.29684 0.73267
 C144 C 0.18678 0.31592 0.75060
 C145 C 0.20739 0.31279 0.76683
 H146 H 0.17557 0.29297 0.71716
 H147 H 0.21177 0.32404 0.78358
 N148 N 0.23872 0.22227 0.70617
 N149 N 0.25954 0.21163 0.71588
 C150 C 0.26526 0.19070 0.70220
 C151 C 0.24723 0.18822 0.68310
 C152 C 0.23066 0.20837 0.68605
 H153 H 0.28101 0.17789 0.70611
 H154 H 0.21374 0.21225 0.67470
 H155 H 0.26057 0.25730 0.73171
 H156 H 0.24012 0.23683 0.75254
 N157 N 0.29311 -0.24026 0.22329
 N158 N 0.28288 -0.26054 0.21265
 C159 C 0.29653 -0.26672 0.19168
 C160 C 0.31622 -0.24941 0.18926
 C161 C 0.31360 -0.23286 0.20949
 H162 H 0.29228 -0.28229 0.17887
 H163 H 0.32540 -0.21643 0.21357
 Cu164 Cu 0.25217 -0.27610 0.22681
 Cu165 Cu 0.27855 -0.22438 0.25364
 Cu166 Cu 0.22383 -0.25219 0.27915
 N167 N 0.22159 -0.29170 0.24119
 N168 N 0.21062 -0.28221 0.26174
 C169 C 0.18950 -0.29588 0.26727
 C170 C 0.18726 -0.31485 0.24926
 C171 C 0.20778 -0.31175 0.23294
 H172 H 0.17646 -0.29202 0.28288
 H173 H 0.21196 -0.32295 0.21611
 N174 N 0.24013 -0.22175 0.29396
 N175 N 0.26097 -0.21119 0.28424
 C176 C 0.26689 -0.19035 0.29799
 C177 C 0.24898 -0.18785 0.31716
 C178 C 0.23226 -0.20789 0.31416
 H179 H 0.28268 -0.17760 0.29408
 H180 H 0.21537 -0.21172 0.32552
 H181 H 0.26158 -0.25679 0.26814
 H182 H 0.24115 -0.23607 0.24752
 N183 N 0.70742 0.23931 0.22271
 N184 N 0.71752 0.25959 0.21197
 C185 C 0.70373 0.26567 0.19102
 C186 C 0.68409 0.24829 0.18871
 C187 C 0.68689 0.23179 0.20899
 H188 H 0.70785 0.28124 0.17816
 H189 H 0.67517 0.21534 0.21316
 Cu190 Cu 0.74824 0.27532 0.22598
 Cu191 Cu 0.72221 0.22360 0.25310
 Cu192 Cu 0.77695 0.25173 0.27834
 N193 N 0.77883 0.29110 0.24021
 N194 N 0.78996 0.28172 0.26077
 C195 C 0.81102 0.29553 0.26621
 C196 C 0.81306 0.31446 0.24813
 C197 C 0.79248 0.31122 0.23187
 H198 H 0.82413 0.29181 0.28183
 H199 H 0.78812 0.32237 0.21504
 N200 N 0.76084 0.22129 0.29334
 N201 N 0.74000 0.21059 0.28373
 C202 C 0.73424 0.18979 0.29761
 C203 C 0.75227 0.18746 0.31674
 C204 C 0.76888 0.20755 0.31359
 H205 H 0.71849 0.17695 0.29381
 H206 H 0.78583 0.21149 0.32487
 H207 H 0.73911 0.25613 0.26740
 H208 H 0.75952 0.23541 0.24682
 C209 C 0.23630 0.02349 0.44612
 C210 C 0.23659 0.00045 0.43290
 C211 C 0.23645 -0.02270 0.44592
 C212 C 0.23592 -0.02311 0.47293
 C213 C 0.23558 0.00018 0.48659
 C214 C 0.23578 0.02361 0.47314
 C215 C 0.23563 0.04646 0.48706
 C216 C 0.23540 0.04632 0.51370
 C217 C 0.23529 0.02332 0.52740
 C218 C 0.23533 0.00003 0.51374
 C219 C 0.23590 -0.04611 0.48664
 C220 C 0.23565 -0.04625 0.51328
 C221 C 0.23540 -0.02340 0.52720
 C222 C 0.23541 -0.02328 0.55423
 C223 C 0.23534 -0.00024 0.56745
 C224 C 0.23532 0.02292 0.55442
 H225 H 0.23579 0.06468 0.47744
 H226 H 0.23539 0.06444 0.52348
 H227 H 0.23617 -0.06422 0.47686
 H228 H 0.23574 -0.06446 0.52290
 H229 H 0.23720 0.00055 0.41213
 H230 H 0.23557 -0.00033 0.58822
 C231 C 0.76342 0.02247 0.44590
 C232 C 0.76343 -0.00066 0.43284
 C233 C 0.76365 -0.02372 0.44604
 C234 C 0.76390 -0.02389 0.47307
 C235 C 0.76387 -0.00049 0.48655
 C236 C 0.76369 0.02282 0.47292
 C237 C 0.76375 0.04579 0.48665
 C238 C 0.76381 0.04588 0.51329
 C239 C 0.76380 0.02300 0.52718
 C240 C 0.76392 -0.00040 0.51371
 C241 C 0.76416 -0.04677 0.48697
 C242 C 0.76421 -0.04668 0.51361
 C243 C 0.76400 -0.02371 0.52734
 C244 C 0.76382 -0.02337 0.55437
 C245 C 0.76368 -0.00023 0.56742
 C246 C 0.76365 0.02283 0.55421
 H247 H 0.76378 0.06392 0.47689
 H248 H 0.76388 0.06408 0.52292
 H249 H 0.76433 -0.06497 0.47733
 H250 H 0.76446 -0.06481 0.52337
 H251 H 0.76317 -0.00071 0.41207
 H252 H 0.76349 -0.00017 0.58819
 C253 C 0.44571 0.23996 0.02303
 C254 C 0.43240 0.24020 -0.00017
 C255 C 0.44546 0.24010 -0.02348
 C256 C 0.47257 0.23968 -0.02386
 C257 C 0.48631 0.23942 -0.00041
 C258 C 0.47283 0.23953 0.02316
 C259 C 0.48683 0.23934 0.04618
 C260 C 0.51356 0.23919 0.04606
 C261 C 0.52729 0.23923 0.02291
 C262 C 0.51355 0.23928 -0.00054
 C263 C 0.48630 0.23965 -0.04701
 C264 C 0.51303 0.23952 -0.04714
 C265 C 0.52703 0.23940 -0.02412
 C266 C 0.55416 0.23955 -0.02398
 C267 C 0.56746 0.23949 -0.00078
 C268 C 0.55440 0.23937 0.02253
 H269 H 0.47720 0.23936 0.06453
 H270 H 0.52339 0.23910 0.06432
 H271 H 0.47646 0.23979 -0.06527
 H272 H 0.52266 0.23956 -0.06548
 H273 H 0.41157 0.24068 -0.00009
 H274 H 0.58830 0.23976 -0.00085
 C275 C 0.44569 0.76019 -0.02340
 C276 C 0.43242 0.76003 -0.00021
 C277 C 0.44550 0.76034 0.02312
 C278 C 0.47261 0.76087 0.02353
 C279 C 0.48632 0.76105 0.00010
 C280 C 0.47281 0.76074 -0.02349
 C281 C 0.48678 0.76086 -0.04649
 C282 C 0.51351 0.76113 -0.04633
 C283 C 0.52727 0.76128 -0.02316
 C284 C 0.51357 0.76131 0.00027
 C285 C 0.48637 0.76109 0.04670
 C286 C 0.51311 0.76133 0.04687
 C287 C 0.52707 0.76137 0.02387
 C288 C 0.55420 0.76131 0.02377
 C289 C 0.56748 0.76130 0.00059
 C290 C 0.55439 0.76126 -0.02274
 H291 H 0.47713 0.76070 -0.06485
 H292 H 0.52333 0.76116 -0.06458
 H293 H 0.47656 0.76103 0.06495
 H294 H 0.52276 0.76143 0.06522
 H295 H 0.41159 0.75946 -0.00032
 H296 H 0.58831 0.76109 0.00070
 C297 C -0.02448 0.55446 0.23663
 C298 C -0.00123 0.56767 0.23674
 C299 C 0.02221 0.55480 0.23648
 C300 C 0.02265 0.52796 0.23606
 C301 C -0.00084 0.51433 0.23588
 C302 C -0.02454 0.52762 0.23613
 C303 C -0.04759 0.51372 0.23602
 C304 C -0.04739 0.48727 0.23579
 C305 C -0.02414 0.47372 0.23568
 C306 C -0.00064 0.48736 0.23568
 C307 C 0.04590 0.51440 0.23594
 C308 C 0.04610 0.48795 0.23577
 C309 C 0.02306 0.47406 0.23569
 C310 C 0.02300 0.44722 0.23576
 C311 C -0.00025 0.43403 0.23571
 C312 C -0.02368 0.44688 0.23570
 H313 H -0.06603 0.52322 0.23614
 H314 H -0.06565 0.47750 0.23577
 H315 H 0.06416 0.52415 0.23604
 H316 H 0.06451 0.47846 0.23574
 H317 H -0.00139 0.58829 0.23726
 H318 H -0.00010 0.41340 0.23590
 C319 C 0.02265 0.55459 0.76351
 C320 C -0.00070 0.56762 0.76339
 C321 C -0.02404 0.55458 0.76344
 C322 C -0.02432 0.52774 0.76370
 C323 C -0.00074 0.51427 0.76384
 C324 C 0.02287 0.52774 0.76376
 C325 C 0.04600 0.51400 0.76379
 C326 C 0.04598 0.48755 0.76380
 C327 C 0.02282 0.47383 0.76379
 C328 C -0.00077 0.48730 0.76386
 C329 C -0.04749 0.51402 0.76369
 C330 C -0.04751 0.48756 0.76372
 C331 C -0.02438 0.47383 0.76376
 C332 C -0.02413 0.44699 0.76356
 C333 C -0.00079 0.43397 0.76351
 C334 C 0.02255 0.44700 0.76357
 H335 H 0.06434 0.52361 0.76376
 H336 H 0.06431 0.47792 0.76379
 H337 H -0.06585 0.52366 0.76362
 H338 H -0.06585 0.47793 0.76368
 H339 H -0.00071 0.58825 0.76305
 H340 H -0.00079 0.41334 0.76322
 C341 C 0.40175 0.24298 0.08800
 C342 C 0.39358 0.26691 0.09730
 C343 C 0.37665 0.26823 0.11856
 C344 C 0.36800 0.24560 0.13043
 C345 C 0.37663 0.22169 0.12148
 C346 C 0.39356 0.22038 0.10021
 C347 C 0.40182 0.19627 0.09154
 C348 C 0.39360 0.17407 0.10354
 C349 C 0.37705 0.17535 0.12433
 C350 C 0.36859 0.19883 0.13328
 C351 C 0.36862 0.29236 0.12740
 C352 C 0.37709 0.31457 0.11559
 C353 C 0.39366 0.31329 0.09482
 C354 C 0.40186 0.28979 0.08569
 C355 C 0.34978 0.24692 0.15139
 C356 C 0.33439 0.24808 0.16856
 C357 C 0.41786 0.24164 0.06539
 C358 C 0.43080 0.24074 0.04630
 H359 H 0.41473 0.19431 0.07546
 H360 H 0.40012 0.15578 0.09667
 H361 H 0.37072 0.15805 0.13359
 H362 H 0.35576 0.19885 0.14954
 H363 H 0.35577 0.29434 0.14352
 H364 H 0.37077 0.33287 0.12261
 H365 H 0.40019 0.33059 0.08572
 H366 H 0.41479 0.28978 0.06950
 C367 C 0.59842 0.75843 0.08869
 C368 C 0.60657 0.78103 0.10094
 C369 C 0.62368 0.77973 0.12211
 C370 C 0.63254 0.75584 0.13092
 C371 C 0.62391 0.73321 0.11904
 C372 C 0.60680 0.73451 0.09788
 C373 C 0.59855 0.71163 0.08624
 C374 C 0.60696 0.68815 0.09526
 C375 C 0.62371 0.68688 0.11594
 C376 C 0.63216 0.70909 0.12776
 C377 C 0.63168 0.80259 0.13394
 C378 C 0.62301 0.82606 0.12512
 C379 C 0.60628 0.82733 0.10442
 C380 C 0.59810 0.80513 0.09239
 C381 C 0.65097 0.75454 0.15176
 C382 C 0.66654 0.75337 0.16881
 C383 C 0.58218 0.75977 0.06613
 C384 C 0.56916 0.76063 0.04705
 H385 H 0.58549 0.71163 0.07013
 H386 H 0.60045 0.67084 0.08614
 H387 H 0.63019 0.66859 0.12287
 H388 H 0.64515 0.70712 0.14381
 H389 H 0.64466 0.80258 0.15013
 H390 H 0.62931 0.84336 0.13440
 H391 H 0.59960 0.84561 0.09765
 H392 H 0.58504 0.80707 0.07639
 C393 C 0.59822 0.24260 -0.08888
 C394 C 0.60645 0.26654 -0.09816
 C395 C 0.62346 0.26786 -0.11936
 C396 C 0.63212 0.24524 -0.13120
 C397 C 0.62342 0.22133 -0.12229
 C398 C 0.60642 0.22001 -0.10107
 C399 C 0.59809 0.19589 -0.09243
 C400 C 0.60632 0.17370 -0.10441
 C401 C 0.62295 0.17498 -0.12514
 C402 C 0.63147 0.19847 -0.13406
 C403 C 0.63155 0.29200 -0.12817
 C404 C 0.62306 0.31420 -0.11639
 C405 C 0.60642 0.31291 -0.09568
 C406 C 0.59815 0.28941 -0.08658
 C407 C 0.65043 0.24656 -0.15209
 C408 C 0.66590 0.24771 -0.16919
 C409 C 0.58205 0.24125 -0.06631
 C410 C 0.56908 0.24033 -0.04724
 H411 H 0.58512 0.19393 -0.07641
 H412 H 0.59975 0.15541 -0.09757
 H413 H 0.62928 0.15769 -0.13438
 H414 H 0.64436 0.19850 -0.15027
 H415 H 0.64446 0.29398 -0.14425
 H416 H 0.62943 0.33250 -0.12339
 H417 H 0.59987 0.33021 -0.08660
 H418 H 0.58517 0.28939 -0.07044
 C419 C 0.40166 0.75662 -0.08842
 C420 C 0.39341 0.77913 -0.10078
 C421 C 0.37649 0.77765 -0.12209
 C422 C 0.36793 0.75366 -0.13093
 C423 C 0.37662 0.73113 -0.11890
 C424 C 0.39354 0.73261 -0.09760
 C425 C 0.40188 0.70983 -0.08583
 C426 C 0.39373 0.68626 -0.09485
 C427 C 0.37717 0.68481 -0.11567
 C428 C 0.36864 0.70692 -0.12763
 C429 C 0.36840 0.80042 -0.13404
 C430 C 0.37679 0.82398 -0.12520
 C431 C 0.39334 0.82542 -0.10437
 C432 C 0.40161 0.80332 -0.09222
 C433 C 0.34977 0.75217 -0.15199
 C434 C 0.33445 0.75092 -0.16926
 C435 C 0.41779 0.75815 -0.06579
 C436 C 0.43075 0.75921 -0.04668
 H437 H 0.41480 0.70997 -0.06961
 H438 H 0.40031 0.66902 -0.08563
 H439 H 0.37089 0.66645 -0.12260
 H440 H 0.35580 0.70481 -0.14377
 H441 H 0.35555 0.80027 -0.15033
 H442 H 0.37042 0.84121 -0.13457
 H443 H 0.39981 0.84377 -0.09759
 H444 H 0.41452 0.80541 -0.07612
 C445 C 0.08648 0.40129 0.23860
 C446 C 0.08182 0.37481 0.24012
 C447 C 0.10276 0.35760 0.24193
 C448 C 0.12826 0.36695 0.24220
 C449 C 0.13292 0.39340 0.24047
 C450 C 0.11197 0.41063 0.23866
 C451 C 0.11711 0.43696 0.23697
 C452 C 0.14223 0.44607 0.23707
 C453 C 0.16271 0.42924 0.23885
 C454 C 0.15823 0.40318 0.24053
 C455 C 0.09761 0.33123 0.24347
 C456 C 0.07249 0.32212 0.24322
 C457 C 0.05202 0.33894 0.24145
 C458 C 0.05651 0.36499 0.23992
 C459 C 0.14958 0.34929 0.24440
 C460 C 0.16696 0.33428 0.24629
 C461 C 0.06491 0.41874 0.23730
 C462 C 0.04627 0.43230 0.23646
 H463 H 0.10181 0.45076 0.23551
 H464 H 0.14581 0.46629 0.23576
 H465 H 0.18219 0.43640 0.23892
 H466 H 0.17478 0.39083 0.24187
 H467 H 0.11288 0.31737 0.24486
 H468 H 0.06891 0.30189 0.24441
 H469 H 0.03253 0.33177 0.24127
 H470 H 0.03992 0.37728 0.23855
 C471 C 0.08634 0.60035 0.76083
 C472 C 0.11174 0.59077 0.76079
 C473 C 0.13288 0.60778 0.75897
 C474 C 0.12850 0.63428 0.75722
 C475 C 0.10311 0.64388 0.75752
 C476 C 0.08198 0.62688 0.75934
 C477 C 0.05678 0.63697 0.75957
 C478 C 0.05258 0.66307 0.75805
 C479 C 0.07324 0.67967 0.75627
 C480 C 0.09825 0.67030 0.75600
 C481 C 0.15808 0.59775 0.75891
 C482 C 0.16229 0.57166 0.76061
 C483 C 0.14163 0.55504 0.76240
 C484 C 0.11661 0.56439 0.76250
 C485 C 0.15001 0.65171 0.75493
 C486 C 0.16754 0.66653 0.75292
 C487 C 0.06458 0.58310 0.76207
 C488 C 0.04587 0.56961 0.76286
 H489 H 0.04007 0.62485 0.76094
 H490 H 0.03319 0.67044 0.75827
 H491 H 0.06988 0.69994 0.75510
 H492 H 0.11367 0.68400 0.75460
 H493 H 0.17476 0.60993 0.75757
 H494 H 0.18169 0.56430 0.76054
 H495 H 0.14499 0.53478 0.76374
 H496 H 0.10117 0.55075 0.76398
 C497 C -0.08954 0.59811 0.24067
 C498 C -0.09662 0.60862 0.26458
 C499 C -0.11778 0.62559 0.26613
 C500 C -0.13176 0.63194 0.24378
 C501 C -0.12508 0.62094 0.21998
 C502 C -0.10391 0.60397 0.21843
 C503 C -0.09751 0.59332 0.19442
 C504 C -0.11163 0.59926 0.17255
 C505 C -0.13232 0.61586 0.17407
 C506 C -0.13905 0.62664 0.19746
 C507 C -0.12438 0.63598 0.29022
 C508 C -0.11048 0.62977 0.31214
 C509 C -0.08980 0.61318 0.31062
 C510 C -0.08285 0.60267 0.28717
 C511 C -0.15252 0.65031 0.24519
 C512 C -0.16944 0.66588 0.24655
 C513 C -0.06696 0.58204 0.23888
 C514 C -0.04784 0.56919 0.23768
 H515 H -0.08161 0.58027 0.19230
 H516 H -0.10649 0.59092 0.15434
 H517 H -0.14322 0.62040 0.15703
 H518 H -0.15532 0.63942 0.19769
 H519 H -0.14034 0.64895 0.29239
 H520 H -0.11580 0.63788 0.33041
 H521 H -0.07907 0.60840 0.32771
 H522 H -0.06665 0.58982 0.28697
 C523 C -0.08725 0.40051 0.76098
 C524 C -0.11281 0.40961 0.76101
 C525 C -0.13363 0.39220 0.75933
 C526 C -0.12875 0.36578 0.75764
 C527 C -0.10318 0.35667 0.75784
 C528 C -0.08237 0.37407 0.75952
 C529 C -0.05697 0.36447 0.75965
 C530 C -0.05227 0.33846 0.75817
 C531 C -0.07261 0.32145 0.75652
 C532 C -0.09780 0.33034 0.75634
 C533 C -0.15902 0.40175 0.75934
 C534 C -0.16372 0.42776 0.76099
 C535 C -0.14337 0.44478 0.76265
 C536 C -0.11817 0.43590 0.76266
 C537 C -0.14994 0.34795 0.75551
 C538 C -0.16724 0.33283 0.75365
 C539 C -0.06582 0.41816 0.76216
 C540 C -0.04729 0.43189 0.76292
 H541 H -0.04049 0.37691 0.76091
 H542 H -0.03273 0.33146 0.75830
 H543 H -0.06887 0.30126 0.75537
 H544 H -0.11297 0.31635 0.75504
 H545 H -0.17547 0.38925 0.75810
 H546 H -0.18326 0.43475 0.76098
 H547 H -0.14712 0.46496 0.76393
 H548 H -0.10299 0.44984 0.76401
 C549 C 0.23995 0.08692 0.40074
 C550 C 0.25074 0.08393 0.37607
 C551 C 0.25231 0.10509 0.35924
 C552 C 0.24306 0.12913 0.36716
 C553 C 0.23231 0.13213 0.39185
 C554 C 0.23075 0.11095 0.40869
 C555 C 0.21988 0.11439 0.43323
 C556 C 0.21084 0.13809 0.44096
 C557 C 0.21238 0.15879 0.42451
 C558 C 0.22297 0.15596 0.40020
 C559 C 0.26316 0.10160 0.33467
 C560 C 0.27219 0.07791 0.32694
 C561 C 0.27064 0.05722 0.34338
 C562 C 0.26007 0.06007 0.36767
 C563 C 0.24454 0.15063 0.34979
 C564 C 0.24596 0.16810 0.33493
 C565 C 0.23828 0.06515 0.41774
 C566 C 0.23719 0.04652 0.43112
 H567 H 0.21824 0.09884 0.44667
 H568 H 0.20259 0.14039 0.45981
 H569 H 0.20532 0.17716 0.43060
 H570 H 0.22374 0.17261 0.38808
 H571 H 0.26480 0.11711 0.32117
 H572 H 0.28042 0.07559 0.30808
 H573 H 0.27767 0.03884 0.33729
 H574 H 0.25930 0.04339 0.37975
 C575 C 0.76211 0.08654 0.59931
 C576 C 0.77122 0.08431 0.62475
 C577 C 0.76986 0.10548 0.64157
 C578 C 0.75939 0.12876 0.63286
 C579 C 0.75062 0.13109 0.60731
 C580 C 0.75196 0.10990 0.59049
 C581 C 0.74294 0.11264 0.56510
 C582 C 0.73294 0.13568 0.55652
 C583 C 0.73165 0.15640 0.57294
 C584 C 0.74035 0.15424 0.59808
 C585 C 0.77900 0.10275 0.66695
 C586 C 0.78920 0.07978 0.67546
 C587 C 0.79053 0.05908 0.65902
 C588 C 0.78167 0.06120 0.63395
 C589 C 0.75728 0.15010 0.65036
 C590 C 0.75549 0.16749 0.66526
 C591 C 0.76273 0.06458 0.58251
 C592 C 0.76319 0.04587 0.56922
 H593 H 0.74351 0.09706 0.55163
 H594 H 0.72615 0.13745 0.53701
 H595 H 0.72387 0.17425 0.56619
 H596 H 0.73896 0.17088 0.61014
 H597 H 0.77841 0.11830 0.68046
 H598 H 0.79611 0.07803 0.69492
 H599 H 0.79846 0.04127 0.66572
 H600 H 0.78314 0.04456 0.62190
 C601 C 0.23869 -0.08664 0.59974
 C602 C 0.23099 -0.11101 0.59122
 C603 C 0.23262 -0.13219 0.60806
 C604 C 0.24191 -0.12886 0.63331
 C605 C 0.24956 -0.10446 0.64184
 C606 C 0.24794 -0.08330 0.62501
 C607 C 0.25567 -0.05909 0.63401
 C608 C 0.26474 -0.05589 0.65889
 C609 C 0.26633 -0.07658 0.67533
 C610 C 0.25886 -0.10063 0.66701
 C611 C 0.22483 -0.15637 0.59911
 C612 C 0.21568 -0.15954 0.57425
 C613 C 0.21407 -0.13883 0.55781
 C614 C 0.22160 -0.11479 0.56610
 C615 C 0.24357 -0.15041 0.65061
 C616 C 0.24512 -0.16794 0.66539
 C617 C 0.23715 -0.06491 0.58268
 C618 C 0.23618 -0.04630 0.56925
 H619 H 0.25479 -0.04239 0.62196
 H620 H 0.27056 -0.03725 0.66543
 H621 H 0.27339 -0.07400 0.69464
 H622 H 0.26046 -0.11612 0.68053
 H623 H 0.22571 -0.17304 0.61121
 H624 H 0.20979 -0.17816 0.56771
 H625 H 0.20693 -0.14139 0.53852
 H626 H 0.21995 -0.09926 0.55265
 C627 C 0.76233 -0.08736 0.40087
 C628 C 0.75144 -0.11053 0.40932
 C629 C 0.74998 -0.13161 0.39237
 C630 C 0.75939 -0.12938 0.36706
 C631 C 0.77067 -0.10633 0.35875
 C632 C 0.77215 -0.08527 0.37570
 C633 C 0.78340 -0.06238 0.36690
 C634 C 0.79295 -0.06038 0.34210
 C635 C 0.79152 -0.08098 0.32554
 C636 C 0.78053 -0.10373 0.33366
 C637 C 0.73894 -0.15455 0.40123
 C638 C 0.72963 -0.15661 0.42613
 C639 C 0.73104 -0.13600 0.44269
 C640 C 0.74179 -0.11316 0.43447
 C641 C 0.75710 -0.15056 0.34939
 C642 C 0.75517 -0.16783 0.33436
 C643 C 0.76292 -0.06544 0.41771
 C644 C 0.76331 -0.04675 0.43103
 H645 H 0.78499 -0.04583 0.37907
 H646 H 0.80151 -0.04275 0.33570
 H647 H 0.79898 -0.07934 0.30629
 H648 H 0.77989 -0.11922 0.32007
 H649 H 0.73743 -0.17111 0.38906
 H650 H 0.72126 -0.17431 0.43260
 H651 H 0.72378 -0.13770 0.46200
 H652 H 0.74246 -0.09766 0.44803
 C653 C 0.59874 0.75839 -0.08740
 C654 C 0.60684 0.78100 -0.09964
 C655 C 0.62380 0.77971 -0.12088
 C656 C 0.63254 0.75582 -0.12974
 C657 C 0.62397 0.73318 -0.11786
 C658 C 0.60701 0.73447 -0.09663
 C659 C 0.59879 0.71158 -0.08499
 C660 C 0.60710 0.68810 -0.09406
 C661 C 0.62370 0.68684 -0.11481
 C662 C 0.63211 0.70906 -0.12665
 C663 C 0.63176 0.80258 -0.13271
 C664 C 0.62320 0.82605 -0.12383
 C665 C 0.60661 0.82730 -0.10307
 C666 C 0.59847 0.80510 -0.09103
 C667 C 0.65081 0.75453 -0.15065
 C668 C 0.66625 0.75336 -0.16775
 C669 C 0.58255 0.75970 -0.06486
 C670 C 0.56951 0.76056 -0.04585
 H671 H 0.58585 0.71157 -0.06882
 H672 H 0.60062 0.67078 -0.08494
 H673 H 0.63010 0.66855 -0.12179
 H674 H 0.64499 0.70710 -0.14274
 H675 H 0.64463 0.80258 -0.14895
 H676 H 0.62946 0.84336 -0.13312
 H677 H 0.60000 0.84558 -0.09625
 H678 H 0.58552 0.80703 -0.07497
 C679 C 0.40118 0.24334 -0.08829
 C680 C 0.39292 0.26729 -0.09750
 C681 C 0.37608 0.26865 -0.11886
 C682 C 0.36760 0.24606 -0.13090
 C683 C 0.37629 0.22213 -0.12203
 C684 C 0.39313 0.22077 -0.10065
 C685 C 0.40146 0.19664 -0.09204
 C686 C 0.39338 0.17447 -0.10421
 C687 C 0.37691 0.17580 -0.12510
 C688 C 0.36839 0.19930 -0.13399
 C689 C 0.36795 0.29280 -0.12762
 C690 C 0.37627 0.31498 -0.11564
 C691 C 0.39275 0.31365 -0.09476
 C692 C 0.40104 0.29013 -0.08570
 C693 C 0.34949 0.24742 -0.15198
 C694 C 0.33418 0.24859 -0.16925
 C695 C 0.41730 0.24193 -0.06567
 C696 C 0.43032 0.24097 -0.04662
 H697 H 0.41431 0.19464 -0.07588
 H698 H 0.39995 0.15617 -0.09738
 H699 H 0.37069 0.15853 -0.13449
 H700 H 0.35561 0.19936 -0.15032
 H701 H 0.35515 0.29482 -0.14381
 H702 H 0.36988 0.33329 -0.12260
 H703 H 0.39916 0.33093 -0.08552
 H704 H 0.41389 0.29008 -0.06942
 C705 C 0.40136 0.75719 0.08791
 C706 C 0.39339 0.77977 0.10028
 C707 C 0.37662 0.77841 0.12167
 C708 C 0.36793 0.75449 0.13055
 C709 C 0.37633 0.73189 0.11849
 C710 C 0.39310 0.73325 0.09712
 C711 C 0.40115 0.71040 0.08531
 C712 C 0.39287 0.68689 0.09437
 C713 C 0.37645 0.68557 0.11527
 C714 C 0.36821 0.70775 0.12726
 C715 C 0.36880 0.80125 0.13364
 C716 C 0.37732 0.82474 0.12475
 C717 C 0.39372 0.82606 0.10385
 C718 C 0.40172 0.80389 0.09167
 C719 C 0.34991 0.75314 0.15166
 C720 C 0.33467 0.75198 0.16895
 C721 C 0.41742 0.75859 0.06529
 C722 C 0.43041 0.75952 0.04624
 H723 H 0.41395 0.71045 0.06902
 H724 H 0.39923 0.66961 0.08513
 H725 H 0.37007 0.66726 0.12223
 H726 H 0.35547 0.70574 0.14347
 H727 H 0.35608 0.80119 0.14999
 H728 H 0.37116 0.84202 0.13415
 H729 H 0.40029 0.84436 0.09702
 H730 H 0.41452 0.80588 0.07550
 C731 C 0.59862 0.24203 0.08741
 C732 C 0.60683 0.26592 0.09680
 C733 C 0.62364 0.26715 0.11820
 C734 C 0.63209 0.24448 0.13011
 C735 C 0.62343 0.22061 0.12107
 C736 C 0.60663 0.21938 0.09966
 C737 C 0.59832 0.19531 0.09088
 C738 C 0.60638 0.17306 0.10293
 C739 C 0.62281 0.17426 0.12387
 C740 C 0.63131 0.19771 0.13292
 C741 C 0.63173 0.29125 0.12714
 C742 C 0.62343 0.31350 0.11528
 C743 C 0.60698 0.31230 0.09436
 C744 C 0.59873 0.28884 0.08513
 C745 C 0.65020 0.24571 0.15122
 C746 C 0.66552 0.24685 0.16847
 C747 C 0.58254 0.24078 0.06476
 C748 C 0.56954 0.23999 0.04568
 H749 H 0.58550 0.19341 0.07469
 H750 H 0.59983 0.15481 0.09598
 H751 H 0.62901 0.15693 0.13316
 H752 H 0.64405 0.19767 0.14928
 H753 H 0.64449 0.29316 0.14337
 H754 H 0.62979 0.33177 0.12237
 H755 H 0.60058 0.32964 0.08522
 H756 H 0.58591 0.28890 0.06883
 C757 C -0.08908 0.59830 0.76030
 C758 C -0.09925 0.60927 0.78284
 C759 C -0.12047 0.62618 0.78123
 C760 C -0.13137 0.63200 0.75711
 C761 C -0.12162 0.62051 0.73465
 C762 C -0.10041 0.60359 0.73625
 C763 C -0.09091 0.59243 0.71353
 C764 C -0.10204 0.59782 0.68989
 C765 C -0.12276 0.61438 0.68831
 C766 C -0.13251 0.62566 0.71037
 C767 C -0.13021 0.63704 0.80400
 C768 C -0.11932 0.63134 0.82769
 C769 C -0.09857 0.61481 0.82925
 C770 C -0.08856 0.60386 0.80714
 C771 C -0.15211 0.65033 0.75530
 C772 C -0.16903 0.66586 0.75369
 C773 C -0.06643 0.58231 0.76172
 C774 C -0.04731 0.56945 0.76265
 H775 H -0.07486 0.57938 0.71378
 H776 H -0.09455 0.58910 0.67270
 H777 H -0.13134 0.61851 0.66990
 H778 H -0.14867 0.63838 0.70817
 H779 H -0.14635 0.64997 0.80376
 H780 H -0.12703 0.63979 0.84491
 H781 H -0.09019 0.61044 0.84769
 H782 H -0.07244 0.59108 0.80933
 C783 C -0.08662 0.40025 0.23820
 C784 C -0.11218 0.40934 0.23780
 C785 C -0.13300 0.39196 0.23957
 C786 C -0.12811 0.36558 0.24170
 C787 C -0.10254 0.35645 0.24185
 C788 C -0.08174 0.37383 0.24009
 C789 C -0.05634 0.36424 0.24031
 C790 C -0.05164 0.33825 0.24220
 C791 C -0.07199 0.32127 0.24392
 C792 C -0.09718 0.33015 0.24376
 C793 C -0.15839 0.40150 0.23919
 C794 C -0.16309 0.42748 0.23710
 C795 C -0.14273 0.44447 0.23535
 C796 C -0.11754 0.43561 0.23568
 C797 C -0.14930 0.34779 0.24390
 C798 C -0.16663 0.33274 0.24581
 C799 C -0.06521 0.41788 0.23702
 C800 C -0.04673 0.43164 0.23628
 H801 H -0.03984 0.37667 0.23899
 H802 H -0.03210 0.33126 0.24232
 H803 H -0.06824 0.30109 0.24538
 H804 H -0.11235 0.31617 0.24513
 H805 H -0.17485 0.38902 0.24047
 H806 H -0.18263 0.43446 0.23682
 H807 H -0.14648 0.46464 0.23371
 H808 H -0.10235 0.44952 0.23422
 C809 C 0.08588 0.40094 0.76074
 C810 C 0.08124 0.37446 0.75928
 C811 C 0.10219 0.35727 0.75744
 C812 C 0.12766 0.36666 0.75708
 C813 C 0.13232 0.39311 0.75877
 C814 C 0.11136 0.41031 0.76061
 C815 C 0.11648 0.43665 0.76227
 C816 C 0.14159 0.44578 0.76209
 C817 C 0.16208 0.42897 0.76027
 C818 C 0.15761 0.40292 0.75862
 C819 C 0.09706 0.33089 0.75596
 C820 C 0.07195 0.32175 0.75630
 C821 C 0.05147 0.33855 0.75810
 C822 C 0.05594 0.36461 0.75958
 C823 C 0.14899 0.34905 0.75483
 C824 C 0.16640 0.33410 0.75291
 C825 C 0.06432 0.41836 0.76204
 C826 C 0.04571 0.43195 0.76288
 H827 H 0.10118 0.45042 0.76376
 H828 H 0.14516 0.46600 0.76338
 H829 H 0.18155 0.43616 0.76015
 H830 H 0.17417 0.39059 0.75727
 H831 H 0.11234 0.31706 0.75455
 H832 H 0.06839 0.30152 0.75516
 H833 H 0.03200 0.33136 0.75836
 H834 H 0.03934 0.37688 0.76098
 C835 C 0.08567 0.60082 0.23930
 C836 C 0.11109 0.59130 0.23907
 C837 C 0.13219 0.60835 0.24089
 C838 C 0.12774 0.63481 0.24288
 C839 C 0.10233 0.64435 0.24287
 C840 C 0.08124 0.62731 0.24107
 C841 C 0.05600 0.63732 0.24114
 C842 C 0.05174 0.66339 0.24292
 C843 C 0.07236 0.68004 0.24468
 C844 C 0.09740 0.67075 0.24467
 C845 C 0.15742 0.59840 0.24068
 C846 C 0.16169 0.57233 0.23874
 C847 C 0.14106 0.55567 0.23695
 C848 C 0.11602 0.56495 0.23710
 C849 C 0.14921 0.65227 0.24507
 C850 C 0.16675 0.66710 0.24696
 C851 C 0.06397 0.58353 0.23802
 C852 C 0.04532 0.56997 0.23719
 H853 H 0.03931 0.62516 0.23979
 H854 H 0.03232 0.67070 0.24293
 H855 H 0.06896 0.70028 0.24605
 H856 H 0.11280 0.68447 0.24606
 H857 H 0.17407 0.61062 0.24201
 H858 H 0.18111 0.56504 0.23860
 H859 H 0.14448 0.53544 0.23542
 H860 H 0.10062 0.55128 0.23562
 C861 C 0.76243 -0.08678 0.59987
 C862 C 0.75355 -0.11056 0.59081
 C863 C 0.75226 -0.13167 0.60773
 C864 C 0.75978 -0.12885 0.63362
 C865 C 0.76897 -0.10515 0.64259
 C866 C 0.77031 -0.08405 0.62567
 C867 C 0.77947 -0.06052 0.63511
 C868 C 0.78710 -0.05791 0.66053
 C869 C 0.78581 -0.07854 0.67707
 C870 C 0.77686 -0.10193 0.66832
 C871 C 0.74330 -0.15525 0.59825
 C872 C 0.73582 -0.15789 0.57278
 C873 C 0.73703 -0.13723 0.55626
 C874 C 0.74575 -0.11378 0.56508
 C875 C 0.75765 -0.15013 0.65118
 C876 C 0.75580 -0.16748 0.66612
 C877 C 0.76303 -0.06493 0.58292
 C878 C 0.76345 -0.04630 0.56952
 H879 H 0.78086 -0.04390 0.62299
 H880 H 0.79406 -0.03977 0.66742
 H881 H 0.79177 -0.07642 0.69680
 H882 H 0.77624 -0.11741 0.68192
 H883 H 0.74203 -0.17187 0.61038
 H884 H 0.72903 -0.17607 0.56584
 H885 H 0.73117 -0.13937 0.53650
 H886 H 0.74631 -0.09826 0.55153
 C887 C 0.24061 -0.08600 0.40052
 C888 C 0.23077 -0.10986 0.40827
 C889 C 0.23251 -0.13110 0.39156
 C890 C 0.24407 -0.12833 0.36722
 C891 C 0.25397 -0.10447 0.35950
 C892 C 0.25222 -0.08324 0.37620
 C893 C 0.26220 -0.05956 0.36803
 C894 C 0.27358 -0.05694 0.34407
 C895 C 0.27530 -0.07770 0.32775
 C896 C 0.26564 -0.10123 0.33527
 C897 C 0.22252 -0.15476 0.39970
 C898 C 0.21113 -0.15737 0.42367
 C899 C 0.20943 -0.13660 0.44000
 C900 C 0.21909 -0.11307 0.43248
 C901 C 0.24565 -0.14988 0.34996
 C902 C 0.24710 -0.16741 0.33521
 C903 C 0.23876 -0.06419 0.41739
 C904 C 0.23752 -0.04560 0.43077
 H905 H 0.26132 -0.04283 0.38002
 H906 H 0.28111 -0.03869 0.33814
 H907 H 0.28416 -0.07557 0.30915
 H908 H 0.26745 -0.11680 0.32189
 H909 H 0.22340 -0.17146 0.38766
 H910 H 0.20359 -0.17561 0.42960
 H911 H 0.20056 -0.13872 0.45860
 H912 H 0.21728 -0.09745 0.44581
 C913 C 0.76145 0.08607 0.40068
 C914 C 0.77063 0.08396 0.37528
 C915 C 0.76914 0.10515 0.35849
 C916 C 0.75848 0.12833 0.36720
 C917 C 0.74962 0.13054 0.39270
 C918 C 0.75108 0.10933 0.40949
 C919 C 0.74196 0.11193 0.43484
 C920 C 0.73176 0.13487 0.44340
 C921 C 0.73037 0.15562 0.42701
 C922 C 0.73915 0.15359 0.40192
 C923 C 0.77836 0.10255 0.33316
 C924 C 0.78875 0.07967 0.32466
 C925 C 0.79019 0.05895 0.34107
 C926 C 0.78127 0.06095 0.36610
 C927 C 0.75627 0.14968 0.34975
 C928 C 0.75443 0.16710 0.33488
 C929 C 0.76223 0.06410 0.41745
 C930 C 0.76282 0.04542 0.43077
 H931 H 0.74261 0.09631 0.44828
 H932 H 0.72490 0.13654 0.46287
 H933 H 0.72243 0.17340 0.43375
 H934 H 0.73767 0.17025 0.38987
 H935 H 0.77767 0.11813 0.31967
 H936 H 0.79571 0.07803 0.30523
 H937 H 0.79827 0.04121 0.33438
 H938 H 0.78283 0.04429 0.37814
 C939 C 0.23866 0.08619 0.59995
 C940 C 0.24933 0.08325 0.62471
 C941 C 0.25100 0.10449 0.64139
 C942 C 0.24196 0.12855 0.63324
 C943 C 0.23128 0.13148 0.60849
 C944 C 0.22961 0.11022 0.59179
 C945 C 0.21881 0.11359 0.56717
 C946 C 0.20994 0.13730 0.55924
 C947 C 0.21159 0.15809 0.57555
 C948 C 0.22211 0.15532 0.59993
 C949 C 0.26174 0.10108 0.66605
 C950 C 0.27057 0.07736 0.67400
 C951 C 0.26892 0.05659 0.65769
 C952 C 0.25845 0.05938 0.63331
 C953 C 0.24362 0.15016 0.65042
 C954 C 0.24518 0.16774 0.66510
 C955 C 0.23705 0.06440 0.58302
 C956 C 0.23607 0.04581 0.56960
 H957 H 0.21707 0.09797 0.55383
 H958 H 0.20173 0.13955 0.54033
 H959 H 0.20466 0.17646 0.56931
 H960 H 0.22298 0.17204 0.61194
 H961 H 0.26345 0.11666 0.67945
 H962 H 0.27872 0.07510 0.69292
 H963 H 0.27579 0.03819 0.66395
 H964 H 0.25759 0.04263 0.62135
   
