data_POSCAR
  _audit_creation_date              2014-09-24
  _audit_creation_method            'ToBaCCo'
  _symmetry_space_group_name_H-M    'P1'
  _symmetry_Int_Tables_number       1
  _symmetry_cell_setting            triclinic
  loop_
  _symmetry_equiv_pos_as_xyz
 x,y,z
_cell_length_a 48.0591
_cell_length_b 49.4188
_cell_length_c 46.1888
_cell_angle_alpha 91.709400
_cell_angle_beta 89.930500
_cell_angle_gamma 92.733700
loop_
  _atom_site_label
  _atom_site_type_symbol
  _atom_site_fract_x
  _atom_site_fract_y
  _atom_site_fract_z
C1 C 0.26964 0.45776 0.99384
 C2 C 0.25032 0.45669 1.02029
 C3 C 0.23431 0.47870 1.02320
 C4 C 0.23900 0.49972 0.99957
 C5 C 0.25040 0.46135 0.96794
 C6 C 0.23438 0.48331 0.97101
 C7 C 0.28653 0.48471 0.99738
 C8 C 0.27051 0.50660 1.00039
 H9 H 0.24924 0.44004 1.03515
 H10 H 0.22596 0.51763 1.00199
 H11 H 0.24911 0.44750 0.94922
 H12 H 0.30916 0.48632 0.99779
 C13 C 0.73134 0.54262 0.00693
 C14 C 0.75026 0.53913 0.03312
 C15 C 0.76627 0.51712 0.03038
 C16 C 0.76196 0.50060 0.00184
 C17 C 0.75096 0.54354 -0.01926
 C18 C 0.76697 0.52151 -0.02184
 C19 C 0.71445 0.51568 0.00335
 C20 C 0.73045 0.49376 0.00068
 H21 H 0.75134 0.55304 0.05180
 H22 H 0.77498 0.48266 -0.00032
 H23 H 0.75228 0.56014 -0.03419
 H24 H 0.69182 0.51408 0.00289
 C25 C 0.03925 0.22541 0.50110
 C26 C 0.03759 0.24170 0.47552
 C27 C 0.01342 0.25754 0.47515
 C28 C -0.00466 0.25421 0.50027
 C29 C 0.03767 0.24553 0.52702
 C30 C 0.01459 0.26065 0.52649
 C31 C 0.01177 0.20838 0.50192
 C32 C -0.01122 0.22346 0.50150
 H33 H 0.05398 0.24331 0.45934
 H34 H -0.02354 0.26639 0.49998
 H35 H 0.05382 0.24840 0.54342
 H36 H 0.01059 0.18639 0.50263
 C37 C 0.95997 0.77506 0.49767
 C38 C 0.96176 0.75491 0.47188
 C39 C 0.98491 0.73995 0.47247
 C40 C 1.00416 0.74649 0.49857
 C41 C 0.96181 0.75779 0.52460
 C42 C 0.98494 0.74281 0.52496
 C43 C 0.98734 0.79215 0.49716
 C44 C 1.01040 0.77725 0.49762
 H45 H 0.94562 0.75185 0.45549
 H46 H 1.02307 0.73441 0.49897
 H47 H 0.94560 0.75638 0.54098
 H48 H 0.98841 0.81415 0.49640
 C49 C 0.50161 0.04396 0.21902
 C50 C 0.47609 0.04314 0.23911
 C51 C 0.47522 0.02152 0.25689
 C52 C 0.49977 0.00285 0.25297
 C53 C 0.52678 0.04364 0.23945
 C54 C 0.52573 0.02204 0.25724
 C55 C 0.50070 0.01792 0.20355
 C56 C 0.49969 -0.00459 0.22226
 H57 H 0.46034 0.05821 0.23934
 H58 H 0.49901 -0.01470 0.26753
 H59 H 0.54365 0.05910 0.23999
 H60 H 0.50050 0.01562 0.18006
 C61 C 0.49781 -0.04554 0.77932
 C62 C 0.47235 -0.04497 0.75942
 C63 C 0.47324 -0.02340 0.74164
 C64 C 0.49934 -0.00442 0.74526
 C65 C 0.52304 -0.04471 0.75896
 C66 C 0.52375 -0.02314 0.74118
 C67 C 0.49913 -0.01801 0.79555
 C68 C 0.49993 0.00345 0.77767
 H69 H 0.45531 -0.06024 0.75927
 H70 H 0.49999 0.01313 0.73073
 H71 H 0.53883 -0.05974 0.75860
 H72 H 0.49946 -0.01568 0.81902
 C73 C 0.29441 0.01713 0.46625
 H74 H 0.29543 0.03224 0.48370
 C75 C 0.31365 0.01858 0.44365
 H76 H 0.32949 0.03493 0.44358
 C77 C 0.27294 -0.02305 0.44536
 H78 H 0.25739 -0.03950 0.44640
 C79 C 0.29184 -0.02235 0.42232
 H80 H 0.29063 -0.03813 0.40551
 N81 N 0.27446 -0.00334 0.46661
 C82 C 0.20982 0.02910 0.52228
 H83 H 0.20815 0.01381 0.53856
 C84 C 0.19265 0.05114 0.52373
 H85 H 0.17771 0.05289 0.54119
 C86 C 0.23087 0.04528 0.47925
 H87 H 0.24540 0.04272 0.46165
 C88 C 0.21409 0.06761 0.47988
 H89 H 0.21595 0.08225 0.46291
 Zn90 Zn 0.25071 -0.00409 0.49927
 N91 N 0.22864 0.02670 0.50042
 C92 C 0.27403 0.01552 0.55323
 N93 N 0.27420 -0.00425 0.53206
 C94 C 0.29265 -0.02427 0.53259
 C95 C 0.31172 -0.02517 0.55523
 C96 C 0.29281 0.01538 0.57631
 C97 C 0.20749 -0.03812 0.47599
 C98 C 0.18853 -0.06045 0.47446
 C99 C 0.20845 -0.07662 0.51836
 C100 C 0.22703 -0.05400 0.51907
 N101 N 0.22637 -0.03541 0.49794
 H102 H 0.25970 0.03163 0.55205
 H103 H 0.29263 -0.03943 0.51520
 H104 H 0.32639 -0.04114 0.55542
 H105 H 0.29271 0.03123 0.59302
 H106 H 0.20711 -0.02281 0.45975
 H107 H 0.17349 -0.06240 0.45699
 H108 H 0.20899 -0.09123 0.53536
 H109 H 0.24168 -0.05119 0.53673
 C110 C 0.19485 0.07057 0.50234
 C111 C 0.31237 -0.00135 0.42153
 C112 C 0.18904 -0.07987 0.49586
 C113 C 0.31183 -0.00514 0.57725
 C114 C 0.70684 0.02360 0.53558
 H115 H 0.70662 0.03950 0.52000
 C116 C 0.68758 0.02306 0.55824
 H117 H 0.67255 0.03867 0.56026
 C118 C 0.72594 -0.01682 0.55140
 H119 H 0.74042 -0.03269 0.54826
 C120 C 0.70703 -0.01811 0.57437
 H121 H 0.70722 -0.03482 0.58902
 N122 N 0.72554 0.00388 0.53262
 C123 C 0.79213 0.03874 0.47901
 H124 H 0.79261 0.02336 0.46187
 C125 C 0.81093 0.06116 0.47876
 H126 H 0.82597 0.06310 0.46137
 C127 C 0.77231 0.05477 0.52297
 H128 H 0.75754 0.05200 0.54039
 C129 C 0.79078 0.07751 0.52355
 H130 H 0.79006 0.09226 0.54133
 Zn131 Zn 0.74890 0.00470 0.49964
 N132 N 0.77316 0.03607 0.50076
 C133 C 0.72665 0.02524 0.44804
 N134 N 0.72512 0.00470 0.46705
 C135 C 0.70510 -0.01567 0.46452
 C136 C 0.68571 -0.01602 0.44202
 C137 C 0.70764 0.02566 0.42521
 C138 C 0.79022 -0.02813 0.51956
 C139 C 0.80732 -0.05020 0.51963
 C140 C 0.78538 -0.06709 0.47519
 C141 C 0.76866 -0.04470 0.47594
 N142 N 0.77115 -0.02594 0.49810
 H143 H 0.74220 0.04161 0.45082
 H144 H 0.70404 -0.03145 0.48027
 H145 H 0.66970 -0.03218 0.44030
 H146 H 0.70880 0.04221 0.41032
 H147 H 0.79203 -0.01272 0.53668
 H148 H 0.82236 -0.05185 0.53686
 H149 H 0.78326 -0.08196 0.45753
 H150 H 0.75386 -0.04230 0.45874
 C151 C 0.81021 0.08073 0.50121
 C152 C 0.68761 0.00193 0.57770
 C153 C 0.80480 -0.06989 0.49729
 C154 C 0.68695 0.00489 0.42227
 C155 C 0.48928 0.21577 1.01151
 H156 H 0.47371 0.21368 0.99460
 C157 C 0.48826 0.19813 1.03455
 H158 H 0.47182 0.18240 1.03548
 C159 C 0.53014 0.23845 1.03069
 H160 H 0.54670 0.25384 1.02883
 C161 C 0.52989 0.22119 1.05412
 H162 H 0.54612 0.22350 1.07038
 N163 N 0.50985 0.23559 1.01012
 C164 C 0.47457 0.29588 0.95568
 H165 H 0.49008 0.29739 0.93874
 C166 C 0.45147 0.31201 0.95522
 H167 H 0.44911 0.32599 0.93786
 C168 C 0.45889 0.27630 0.99941
 H169 H 0.46208 0.26279 1.01691
 C170 C 0.43553 0.29204 0.99977
 H171 H 0.42071 0.29041 1.01740
 Zn172 Zn 0.50989 0.25764 0.97736
 N173 N 0.47771 0.27830 0.97743
 C174 C 0.48939 0.23265 0.92469
 N175 N 0.51037 0.23390 0.94455
 C176 C 0.53134 0.21636 0.94306
 C177 C 0.53173 0.19648 0.92100
 C178 C 0.48897 0.21301 0.90226
 C179 C 0.54318 0.30104 0.99980
 C180 C 0.56590 0.31968 1.00158
 C181 C 0.58440 0.29933 0.95784
 C182 C 0.56131 0.28102 0.95688
 N183 N 0.54145 0.28201 0.97789
 H184 H 0.47253 0.24626 0.92669
 H185 H 0.54741 0.21746 0.95949
 H186 H 0.54820 0.18226 0.92032
 H187 H 0.47191 0.21170 0.88691
 H188 H 0.52689 0.30160 1.01597
 H189 H 0.56716 0.33470 1.01915
 H190 H 0.60014 0.29844 0.94108
 H191 H 0.55926 0.26617 0.93929
 C192 C 0.43178 0.31002 0.97747
 C193 C 0.50874 0.20089 1.05603
 C194 C 0.58673 0.31875 0.98046
 C195 C 0.51022 0.19465 0.90058
 C196 C 0.47098 0.78207 -0.01298
 H197 H 0.45504 0.78317 0.00352
 C198 C 0.47084 0.79937 -0.03629
 H199 H 0.45470 0.81383 -0.03787
 C200 C 0.51200 0.76242 -0.03070
 H201 H 0.52833 0.74842 -0.02814
 C202 C 0.51263 0.77939 -0.05437
 H203 H 0.52930 0.77822 -0.07011
 N204 N 0.49125 0.76393 -0.01070
 C205 C 0.45469 0.70184 0.04486
 H206 H 0.47002 0.70205 0.06201
 C207 C 0.43170 0.68345 0.04526
 H208 H 0.42925 0.66942 0.06277
 C209 C 0.43955 0.71919 0.00052
 H210 H 0.44296 0.73269 -0.01722
 C211 C 0.41629 0.70114 0.00008
 H212 H 0.40179 0.70095 -0.01787
 Zn213 Zn 0.49056 0.74257 0.02262
 N214 N 0.45811 0.71931 0.02277
 C215 C 0.47048 0.76686 0.07500
 N216 N 0.49121 0.76702 0.05487
 C217 C 0.51246 0.78622 0.05583
 C218 C 0.51353 0.80627 0.07774
 C219 C 0.47074 0.78664 0.09730
 C220 C 0.52386 0.70150 0.00157
 C221 C 0.54671 0.68508 0.00038
 C222 C 0.56464 0.70794 0.04394
 C223 C 0.54145 0.72396 0.04431
 N224 N 0.52186 0.72075 0.02305
 H225 H 0.45342 0.75186 0.07343
 H226 H 0.52835 0.78615 0.03922
 H227 H 0.53034 0.82169 0.07810
 H228 H 0.45397 0.78671 0.11300
 H229 H 0.50779 0.69913 -0.01481
 H230 H 0.54829 0.66998 -0.01696
 H231 H 0.58026 0.71073 0.06079
 H232 H 0.53918 0.73891 0.06158
 C233 C 0.41238 0.68308 0.02262
 C234 C 0.49187 0.79803 -0.05714
 C235 C 0.56735 0.68846 0.02166
 C236 C 0.49241 0.80658 0.09855
 C237 C 1.03403 0.47029 0.21350
 H238 H 1.01760 0.45453 0.21282
 C239 C 1.05581 0.46958 0.19352
 H240 H 1.05627 0.45316 0.17748
 C241 C 1.05306 0.51141 0.23466
 H242 H 1.05160 0.52795 0.25032
 C243 C 1.07525 0.51148 0.21503
 H244 H 1.09096 0.52795 0.21581
 N245 N 1.03309 0.49091 0.23361
 C246 C 0.97926 0.45794 0.30163
 H247 H 0.96335 0.47270 0.30251
 C248 C 0.97827 0.43653 0.32078
 H249 H 0.96149 0.43470 0.33639
 C250 C 1.02104 0.44262 0.28082
 H251 H 1.03799 0.44534 0.26566
 C252 C 1.02084 0.42094 0.29956
 H253 H 1.03748 0.40691 0.29855
 Zn254 Zn 1.00137 0.49095 0.25798
 N255 N 1.00034 0.46050 0.28205
 C256 C 0.94944 0.47022 0.23388
 N257 N 0.97001 0.49012 0.23314
 C258 C 0.96974 0.50990 0.21328
 C259 C 0.94796 0.51049 0.19342
 C260 C 0.92720 0.47006 0.21432
 C261 C 1.02283 0.52614 0.30229
 C262 C 1.02363 0.54865 0.32140
 C263 C 0.98130 0.56302 0.29964
 C264 C 0.98128 0.54027 0.28095
 N265 N 1.00199 0.52249 0.28243
 H266 H 0.95034 0.45435 0.24937
 H267 H 0.98659 0.52521 0.21290
 H268 H 0.94793 0.52636 0.17773
 H269 H 0.91089 0.45419 0.21498
 H270 H 1.03877 0.51146 0.30334
 H271 H 1.04027 0.55140 0.33717
 H272 H 0.96469 0.57701 0.29836
 H273 H 0.96450 0.53672 0.26558
 C274 C 0.99929 0.41790 0.31975
 C275 C 1.07655 0.49040 0.19423
 C276 C 1.00265 0.56725 0.32003
 C277 C 0.92650 0.49041 0.19393
 C278 C -0.03402 0.48826 0.78739
 H279 H -0.01871 0.47292 0.78759
 C280 C -0.05563 0.48785 0.80764
 H281 H -0.05708 0.47206 0.82342
 C282 C -0.05032 0.52817 0.76723
 H283 H -0.04783 0.54419 0.75191
 C284 C -0.07225 0.52850 0.78713
 H285 H -0.08674 0.54463 0.78687
 N286 N -0.03181 0.50817 0.76766
 C287 C 0.01916 0.47543 0.69785
 H288 H 0.03534 0.49137 0.69690
 C289 C 0.01956 0.45314 0.67857
 H290 H 0.03614 0.45183 0.66276
 C291 C -0.02243 0.45778 0.71940
 H292 H -0.03896 0.45984 0.73506
 C293 C -0.02282 0.43513 0.70050
 H294 H -0.03951 0.41969 0.70183
 Zn295 Zn -0.00042 0.50845 0.74281
 N296 N -0.00145 0.47721 0.71795
 C297 C 0.04963 0.48897 0.76549
 N298 N 0.03144 0.50926 0.76699
 C299 C 0.03426 0.52963 0.78741
 C300 C 0.05613 0.53017 0.80737
 C301 C 0.07178 0.48875 0.78502
 C302 C -0.02083 0.54023 0.69937
 C303 C -0.02135 0.56176 0.68050
 C304 C 0.02157 0.58026 0.70192
 C305 C 0.02130 0.55836 0.72043
 N306 N 0.00015 0.53902 0.71898
 H307 H 0.04665 0.47258 0.74965
 H308 H 0.01919 0.54521 0.78849
 H309 H 0.05803 0.54627 0.82378
 H310 H 0.08594 0.47234 0.78394
 H311 H -0.03713 0.52436 0.69838
 H312 H -0.03815 0.56256 0.66498
 H313 H 0.03846 0.59557 0.70316
 H314 H 0.03810 0.55674 0.73569
 C315 C -0.00158 0.43278 0.67996
 C316 C -0.07484 0.50822 0.80757
 C317 C 0.00004 0.58196 0.68180
 C318 C 0.07495 0.50944 0.80624
 C319 C 0.06352 0.20848 0.50159
 C320 C 0.08253 0.19342 0.50207
 C321 C 0.10420 0.17433 0.50265
 C322 C 0.11135 0.16281 0.52882
 C323 C 0.13071 0.14256 0.52909
 C324 C 0.14299 0.13372 0.50318
 C325 C 0.13621 0.14557 0.47707
 C326 C 0.11684 0.16582 0.47681
 C327 C 0.16165 0.11178 0.50317
 C328 C 0.17692 0.09310 0.50294
 H329 H 0.10154 0.16908 0.54890
 H330 H 0.13573 0.13347 0.54938
 H331 H 0.14550 0.13883 0.45690
 H332 H 0.11131 0.17443 0.45642
 C333 C 0.71341 0.56575 0.00973
 C334 C 0.69748 0.58380 0.01189
 C335 C 0.67726 0.60430 0.01426
 C336 C 0.66488 0.61010 0.04108
 C337 C 0.64340 0.62820 0.04294
 C338 C 0.63420 0.64052 0.01800
 C339 C 0.64693 0.63510 -0.00872
 C340 C 0.66841 0.61701 -0.01059
 C341 C 0.61094 0.65779 0.01956
 C342 C 0.59116 0.67189 0.02065
 H343 H 0.67140 0.60021 0.06038
 H344 H 0.63363 0.63218 0.06369
 H345 H 0.63991 0.64445 -0.02816
 H346 H 0.67768 0.61248 -0.03146
 C347 C 0.93560 -0.20816 0.49720
 C348 C 0.91651 -0.19321 0.49689
 C349 C 0.89475 -0.17419 0.49663
 C350 C 0.88339 -0.16474 0.52277
 C351 C 0.86404 -0.14446 0.52272
 C352 C 0.85601 -0.13354 0.49654
 C353 C 0.86698 -0.14335 0.47036
 C354 C 0.88633 -0.16362 0.47041
 C355 C 0.83750 -0.11148 0.49665
 C356 C 0.82242 -0.09265 0.49687
 H357 H 0.88992 -0.17260 0.54320
 H358 H 0.85578 -0.13696 0.54310
 H359 H 0.86100 -0.13497 0.44999
 H360 H 0.89515 -0.17062 0.45009
 C361 C 0.28752 0.43464 0.99060
 C362 C 0.30334 0.41652 0.98798
 C363 C 0.32334 0.39588 0.98499
 C364 C 0.32989 0.38048 1.00881
 C365 C 0.35105 0.36206 1.00660
 C366 C 0.36577 0.35900 0.98059
 C367 C 0.35887 0.37405 0.95662
 C368 C 0.33771 0.39246 0.95882
 C369 C 0.38871 0.34137 0.97896
 C370 C 0.40825 0.32695 0.97801
 H371 H 0.31906 0.38312 1.02921
 H372 H 0.35629 0.35060 1.02531
 H373 H 0.37019 0.37192 0.93644
 H374 H 0.33295 0.40443 0.94034
 C375 C 0.96115 0.21083 0.50177
 C376 C 0.93891 0.19848 0.50196
 C377 C 0.91347 0.18189 0.50213
 C378 C 0.90263 0.17253 0.52838
 C379 C 0.88011 0.15352 0.52838
 C380 C 0.86836 0.14376 0.50212
 C381 C 0.87868 0.15369 0.47591
 C382 C 0.90120 0.17270 0.47591
 C383 C 0.84713 0.12220 0.50196
 C384 C 0.83000 0.10354 0.50170
 H385 H 0.91216 0.17925 0.54876
 H386 H 0.87242 0.14586 0.54876
 H387 H 0.86987 0.14615 0.45548
 H388 H 0.90961 0.17954 0.45548
 C389 C 0.28288 0.53353 0.00465
 C390 C 0.29498 0.55530 0.00813
 C391 C 0.31129 0.58030 0.01207
 C392 C 0.32352 0.58698 0.03903
 C393 C 0.34239 0.60932 0.04200
 C394 C 0.34912 0.62505 0.01802
 C395 C 0.33625 0.61885 -0.00873
 C396 C 0.31739 0.59650 -0.01170
 C397 C 0.37071 0.64619 0.02025
 C398 C 0.38944 0.66328 0.02162
 H399 H 0.31920 0.57441 0.05748
 H400 H 0.35236 0.61382 0.06273
 H401 H 0.34145 0.63077 -0.02746
 H402 H 0.30830 0.59134 -0.03272
 C403 C 0.03794 -0.20993 0.49704
 C404 C 0.06009 -0.19745 0.49651
 C405 C 0.08542 -0.18072 0.49589
 C406 C 0.09535 -0.17075 0.46954
 C407 C 0.11782 -0.15169 0.46922
 C408 C 0.13043 -0.14249 0.49525
 C409 C 0.12099 -0.15301 0.52154
 C410 C 0.09852 -0.17207 0.52186
 C411 C 0.15173 -0.12100 0.49520
 C412 C 0.16898 -0.10246 0.49536
 H413 H 0.08519 -0.17705 0.44936
 H414 H 0.12484 -0.14358 0.44879
 H415 H 0.13048 -0.14592 0.54182
 H416 H 0.09081 -0.17939 0.54238
 C417 C 0.71805 0.46679 0.99700
 C418 C 0.70586 0.44502 0.99404
 C419 C 0.68938 0.42006 0.99070
 C420 C 0.68164 0.40536 1.01514
 C421 C 0.66249 0.38322 1.01250
 C422 C 0.65097 0.37572 0.98541
 C423 C 0.65935 0.38991 0.96083
 C424 C 0.67850 0.41205 0.96347
 C425 C 0.62905 0.35491 0.98326
 C426 C 0.61002 0.33813 0.98179
 H427 H 0.68966 0.41157 1.03635
 H428 H 0.65601 0.37250 1.03168
 H429 H 0.65043 0.38440 0.93982
 H430 H 0.68409 0.42348 0.94449
 C431 C 0.50270 0.06696 1.19967
 C432 C 0.50366 0.08547 1.18325
 C433 C 0.50481 0.10707 1.16306
 C434 C 0.48015 0.11791 1.15350
 C435 C 0.48117 0.13789 1.13268
 C436 C 0.50685 0.14710 1.12135
 C437 C 0.53154 0.13651 1.13119
 C438 C 0.53052 0.11652 1.15201
 C439 C 0.50775 0.16657 1.09882
 C440 C 0.50832 0.18244 1.07952
 H441 H 0.46016 0.11064 1.16182
 H442 H 0.46196 0.14587 1.12512
 H443 H 0.55149 0.14342 1.12248
 H444 H 0.54969 0.10818 1.15918
 C445 C -0.01094 0.72286 0.54650
 C446 C -0.00798 0.70587 0.56430
 C447 C -0.00502 0.68526 0.58533
 C448 C -0.01677 0.68829 0.61295
 C449 C -0.01494 0.66774 0.63296
 C450 C -0.00135 0.64406 0.62544
 C451 C 0.01064 0.64116 0.59792
 C452 C 0.00881 0.66171 0.57791
 C453 C -0.00044 0.62244 0.64559
 C454 C -0.00004 0.60410 0.66223
 H455 H -0.02760 0.70637 0.61889
 H456 H -0.02436 0.67017 0.65414
 H457 H 0.02112 0.62291 0.59183
 H458 H 0.01788 0.65911 0.55658
 C459 C 0.49695 0.93152 -0.20127
 C460 C 0.49625 0.91306 -0.18478
 C461 C 0.49542 0.89153 -0.16451
 C462 C 0.52026 0.88121 -0.15472
 C463 C 0.51951 0.86129 -0.13383
 C464 C 0.49393 0.85163 -0.12266
 C465 C 0.46908 0.86170 -0.13272
 C466 C 0.46982 0.88162 -0.15361
 C467 C 0.49323 0.83222 -0.10006
 C468 C 0.49263 0.81640 -0.08070
 H469 H 0.54016 0.88882 -0.16292
 H470 H 0.53885 0.85370 -0.12610
 H471 H 0.44919 0.85445 -0.12413
 H472 H 0.45050 0.88956 -0.16095
 C473 C 1.00998 0.27692 0.45518
 C474 C 1.00726 0.29424 0.43767
 C475 C 1.00445 0.31511 0.41691
 C476 C 0.99337 0.33984 0.42543
 C477 C 0.99150 0.36046 0.40550
 C478 C 1.00070 0.35645 0.37696
 C479 C 1.01158 0.33165 0.36839
 C480 C 1.01345 0.31103 0.38831
 C481 C 0.99969 0.37800 0.35671
 C482 C 0.99927 0.39614 0.33982
 H483 H 0.98642 0.34325 0.44751
 H484 H 0.98313 0.37957 0.41240
 H485 H 1.01883 0.32835 0.34640
 H486 H 1.02213 0.29203 0.38150
 C487 C 0.49817 0.96933 0.21175
 C488 C 0.49684 0.94661 0.20147
 C489 C 0.49535 0.92004 0.18786
 C490 C 0.51977 0.90627 0.18274
 C491 C 0.51870 0.88173 0.16681
 C492 C 0.49320 0.87088 0.15596
 C493 C 0.46868 0.88429 0.16173
 C494 C 0.46975 0.90883 0.17766
 C495 C 0.49255 0.84731 0.13691
 C496 C 0.49231 0.82831 0.11994
 H497 H 0.53970 0.91487 0.19033
 H498 H 0.53781 0.87164 0.16226
 H499 H 0.44889 0.87619 0.15323
 H500 H 0.45078 0.91942 0.18131
 C501 C 0.01033 0.28252 0.54712
 C502 C 0.00724 0.30102 0.56425
 C503 C 0.00412 0.32334 0.58458
 C504 C 0.01006 0.32034 0.61397
 C505 C 0.00808 0.34234 0.63353
 C506 C 0.00015 0.36743 0.62379
 C507 C -0.00603 0.37035 0.59443
 C508 C -0.00404 0.34836 0.57487
 C509 C -0.00090 0.39033 0.64372
 C510 C -0.00141 0.40962 0.66030
 H511 H 0.01648 0.30112 0.62170
 H512 H 0.01298 0.33986 0.65616
 H513 H -0.01210 0.38967 0.58664
 H514 H -0.00859 0.35093 0.55218
 C515 C 0.50134 0.03102 0.78868
 C516 C 0.50253 0.05376 0.79891
 C517 C 0.50396 0.08039 0.81239
 C518 C 0.52987 0.09282 0.81988
 C519 C 0.53120 0.11748 0.83559
 C520 C 0.50664 0.12978 0.84386
 C521 C 0.48075 0.11769 0.83573
 C522 C 0.47941 0.09303 0.82002
 C523 C 0.50794 0.15354 0.86264
 C524 C 0.50900 0.17271 0.87941
 H525 H 0.54896 0.08311 0.81427
 H526 H 0.55132 0.12655 0.84197
 H527 H 0.46163 0.12692 0.84222
 H528 H 0.45927 0.08348 0.81452
 C529 C 0.98929 0.71801 0.45196
 C530 C 0.99258 0.69942 0.43498
 C531 C 0.99600 0.67700 0.41486
 C532 C 0.98928 0.67943 0.38557
 C533 C 0.99160 0.65733 0.36623
 C534 C 1.00066 0.63268 0.37607
 C535 C 1.00762 0.63032 0.40531
 C536 C 1.00530 0.65243 0.42466
 C537 C 1.00198 0.60964 0.35636
 C538 C 1.00258 0.59032 0.33983
 H539 H 0.98199 0.69830 0.37777
 H540 H 0.98607 0.65936 0.34369
 H541 H 1.01456 0.61134 0.41319
 H542 H 1.01048 0.65029 0.44728
 C543 C 1.21441 0.48162 0.04631
 C544 C 1.19770 0.48381 0.06563
 C545 C 1.17764 0.48610 0.08864
 C546 C 1.15488 0.50247 0.08557
 C547 C 1.13495 0.50406 0.10759
 C548 C 1.13771 0.48929 0.13278
 C549 C 1.16059 0.47309 0.13595
 C550 C 1.18052 0.47150 0.11393
 C551 C 1.11660 0.49007 0.15489
 C552 C 1.09856 0.49041 0.17306
 H553 H 1.15242 0.51381 0.06609
 H554 H 1.11729 0.51657 0.10486
 H555 H 1.16288 0.46150 0.15528
 H556 H 1.19801 0.45874 0.11651
 C557 C 0.54562 -0.01850 0.72033
 C558 C 0.56398 -0.01487 0.70289
 C559 C 0.58591 -0.01088 0.68203
 C560 C 0.58217 0.00577 0.65845
 C561 C 0.60325 0.00905 0.63778
 C562 C 0.62815 -0.00428 0.64061
 C563 C 0.63196 -0.02076 0.66430
 C564 C 0.61089 -0.02405 0.68498
 C565 C 0.64941 -0.00168 0.61880
 C566 C 0.66699 0.00016 0.60024
 H567 H 0.56292 0.01600 0.65595
 H568 H 0.60006 0.02178 0.61949
 H569 H 0.65110 -0.03123 0.66665
 H570 H 0.61397 -0.03700 0.70310
 C571 C -0.21281 0.51853 0.95537
 C572 C -0.19587 0.51633 0.93627
 C573 C -0.17559 0.51406 0.91347
 C574 C -0.17829 0.52861 0.88812
 C575 C -0.15825 0.52693 0.86622
 C576 C -0.13542 0.51070 0.86958
 C577 C -0.13281 0.49603 0.89486
 C578 C -0.15285 0.49770 0.91675
 C579 C -0.11438 0.50958 0.84743
 C580 C -0.09651 0.50885 0.82910
 H581 H -0.19577 0.54136 0.88537
 H582 H -0.16045 0.53842 0.84681
 H583 H -0.11520 0.48347 0.89772
 H584 H -0.15052 0.48641 0.93628
 C585 C 0.45326 0.01687 0.27762
 C586 C 0.43486 0.01322 0.29501
 C587 C 0.41294 0.00923 0.31589
 C588 C 0.38752 0.02147 0.31229
 C589 C 0.36653 0.01838 0.33309
 C590 C 0.37088 0.00302 0.35754
 C591 C 0.39619 -0.00945 0.36099
 C592 C 0.41719 -0.00635 0.34019
 C593 C 0.34983 0.00092 0.37963
 C594 C 0.33253 -0.00038 0.39850
 H595 H 0.38405 0.03361 0.29360
 H596 H 0.34707 0.02820 0.33028
 H597 H 0.39981 -0.02127 0.37988
 H598 H 0.43679 -0.01585 0.34321
 C599 C 0.21398 0.48958 0.94969
 C600 C 0.19690 0.49419 0.93162
 C601 C 0.17646 0.49895 0.90982
 C602 C 0.18309 0.49547 0.88043
 C603 C 0.16285 0.49874 0.85923
 C604 C 0.13589 0.50551 0.86733
 C605 C 0.12936 0.50931 0.89671
 C606 C 0.14960 0.50604 0.91791
 C607 C 0.11469 0.50753 0.84562
 C608 C 0.09671 0.50869 0.82756
 H609 H 0.20376 0.48987 0.87393
 H610 H 0.16811 0.49565 0.83660
 H611 H 0.10855 0.51445 0.90322
 H612 H 0.14421 0.50867 0.94057
 C613 C 0.54696 0.01805 0.27843
 C614 C 0.56487 0.01511 0.29613
 C615 C 0.58636 0.01211 0.31728
 C616 C 0.61336 0.02296 0.31234
 C617 C 0.63408 0.02082 0.33326
 C618 C 0.62789 0.00782 0.35918
 C619 C 0.60095 -0.00322 0.36402
 C620 C 0.58021 -0.00108 0.34310
 C621 C 0.64894 0.00644 0.38112
 C622 C 0.66640 0.00559 0.39973
 H623 H 0.61830 0.03326 0.29247
 H624 H 0.65483 0.02950 0.32934
 H625 H 0.59592 -0.01325 0.38404
 H626 H 0.55939 -0.00948 0.34716
 C627 C 0.78636 0.51080 0.05199
 C628 C 0.80325 0.50603 0.07020
 C629 C 0.82357 0.50099 0.09203
 C630 C 0.81806 0.50717 0.12122
 C631 C 0.83834 0.50362 0.14230
 C632 C 0.86422 0.49386 0.13427
 C633 C 0.86960 0.48733 0.10513
 C634 C 0.84932 0.49088 0.08405
 C635 C 0.88572 0.49180 0.15567
 C636 C 0.90409 0.49077 0.17331
 H637 H 0.79826 0.51510 0.12762
 H638 H 0.83400 0.50887 0.16474
 H639 H 0.88959 0.47990 0.09866
 H640 H 0.85385 0.48614 0.06154
 C641 C 0.45161 -0.01917 0.72097
 C642 C 0.43345 -0.01595 0.70362
 C643 C 0.41176 -0.01254 0.68280
 C644 C 0.38533 -0.02512 0.68671
 C645 C 0.36453 -0.02267 0.66594
 C646 C 0.37008 -0.00762 0.64119
 C647 C 0.39642 0.00520 0.63743
 C648 C 0.41722 0.00275 0.65820
 C649 C 0.34915 -0.00620 0.61913
 C650 C 0.33192 -0.00547 0.60027
 H651 H 0.38092 -0.03705 0.70563
 H652 H 0.34427 -0.03276 0.66900
 H653 H 0.40096 0.01679 0.61831
 H654 H 0.43761 0.01250 0.65494
   
