data_POSCAR
  _audit_creation_date              2014-09-24
  _audit_creation_method            'ToBaCCo'
  _symmetry_space_group_name_H-M    'P1'
  _symmetry_Int_Tables_number       1
  _symmetry_cell_setting            triclinic
  loop_
  _symmetry_equiv_pos_as_xyz
 x,y,z
_cell_length_a 45.5998
_cell_length_b 44.4760
_cell_length_c 8.8676
_cell_angle_alpha 90.389400
_cell_angle_beta 90.002800
_cell_angle_gamma 90.069700
loop_
  _atom_site_label
  _atom_site_type_symbol
  _atom_site_fract_x
  _atom_site_fract_y
  _atom_site_fract_z
O1 O 0.22642 0.27836 0.09554
 O2 O 0.28239 0.22009 0.15768
 O3 O 0.22642 0.21989 0.09648
 O4 O 0.28240 0.27853 0.15664
 O5 O 0.27257 0.27901 0.40083
 O6 O 0.21658 0.22037 0.34065
 O7 O 0.27256 0.22055 0.40187
 O8 O 0.21659 0.27882 0.33973
 Cu9 Cu 0.25543 0.24917 0.10216
 Cu10 Cu 0.24354 0.24973 0.39521
 C11 C 0.21194 0.28831 0.20732
 C12 C 0.28705 0.21061 0.29009
 C13 C 0.21192 0.21035 0.20853
 C14 C 0.28705 0.28854 0.28875
 O15 O 0.71757 0.27935 0.15670
 O16 O 0.77354 0.22085 0.09613
 O17 O 0.71756 0.22092 0.15728
 O18 O 0.77355 0.27932 0.09551
 O19 O 0.78339 0.27975 0.33967
 O20 O 0.72740 0.22134 0.40147
 O21 O 0.78338 0.22130 0.34032
 O22 O 0.72741 0.27979 0.40089
 Cu23 Cu 0.74453 0.25007 0.10196
 Cu24 Cu 0.75643 0.25059 0.39500
 C25 C 0.71292 0.28932 0.28889
 C26 C 0.78802 0.21132 0.20816
 C27 C 0.71291 0.21139 0.28965
 C28 C 0.78804 0.28929 0.20733
 O29 O 0.78327 0.72119 0.66051
 O30 O 0.72754 0.77968 0.59787
 O31 O 0.78354 0.77963 0.65910
 O32 O 0.72731 0.72123 0.59933
 O33 O 0.71746 0.72183 0.84351
 O34 O 0.77370 0.78023 0.90326
 O35 O 0.71770 0.78026 0.84205
 O36 O 0.77343 0.72176 0.90469
 Cu37 Cu 0.75644 0.75038 0.60478
 Cu38 Cu 0.74455 0.75109 0.89781
 C39 C 0.78786 0.71170 0.79299
 C40 C 0.71308 0.78971 0.70954
 C41 C 0.78824 0.78966 0.79113
 C42 C 0.71278 0.71178 0.71147
 O43 O 0.28239 0.77989 0.84259
 O44 O 0.22648 0.72143 0.90498
 O45 O 0.28244 0.72146 0.84365
 O46 O 0.22639 0.77989 0.90366
 O47 O 0.21654 0.77935 0.65952
 O48 O 0.27259 0.72091 0.59947
 O49 O 0.21663 0.72090 0.66081
 O50 O 0.27254 0.77936 0.59841
 Cu51 Cu 0.25545 0.75073 0.89815
 Cu52 Cu 0.24354 0.75008 0.60512
 C53 C 0.28704 0.78936 0.71014
 C54 C 0.21201 0.71140 0.79325
 C55 C 0.28709 0.71143 0.71157
 C56 C 0.21188 0.78937 0.79160
 C57 C 1.02719 0.06220 0.05974
 C58 C 1.00054 0.07739 0.07413
 C59 C 0.97385 0.06222 0.05942
 C60 C 0.97352 0.03097 0.02945
 C61 C 1.00045 0.01529 0.01465
 C62 C 1.02743 0.03095 0.02984
 C63 C 1.05387 0.01496 0.01480
 C64 C 1.05383 -0.01584 -0.01467
 C65 C 1.02734 -0.03180 -0.03018
 C66 C 1.00041 -0.01611 -0.01538
 C67 C 0.94704 0.01502 0.01393
 C68 C 0.94699 -0.01578 -0.01551
 C69 C 0.97343 -0.03177 -0.03060
 C70 C 0.97367 -0.06302 -0.06060
 C71 C 1.00032 -0.07821 -0.07498
 C72 C 1.02702 -0.06304 -0.06018
 H73 H 1.07487 0.02616 0.02570
 H74 H 1.07479 -0.02705 -0.02523
 H75 H 0.92607 0.02623 0.02445
 H76 H 0.92600 -0.02698 -0.02633
 H77 H 1.00057 0.10139 0.09722
 H78 H 1.00029 -0.10221 -0.09813
 C79 C 0.52652 0.56282 0.56155
 C80 C 0.49984 0.57795 0.57623
 C81 C 0.47317 0.56274 0.56116
 C82 C 0.47290 0.53152 0.53055
 C83 C 0.49987 0.51590 0.51543
 C84 C 0.52681 0.53160 0.53097
 C85 C 0.55328 0.51568 0.51558
 C86 C 0.55330 0.48490 0.48543
 C87 C 0.52684 0.46890 0.46961
 C88 C 0.49988 0.48453 0.48476
 C89 C 0.44645 0.51552 0.51471
 C90 C 0.44646 0.48474 0.48470
 C91 C 0.47293 0.46882 0.46928
 C92 C 0.47323 0.43760 0.43874
 C93 C 0.49991 0.42247 0.42400
 C94 C 0.52658 0.43768 0.43902
 H95 H 0.57426 0.52690 0.52676
 H96 H 0.57428 0.47374 0.47462
 H97 H 0.42546 0.52669 0.52542
 H98 H 0.42549 0.47351 0.47365
 H99 H 0.49983 0.60194 0.59983
 H100 H 0.49992 0.39848 0.40044
 C101 C -0.02723 0.43705 0.05806
 C102 C -0.00058 0.42187 0.07208
 C103 C 0.02612 0.43702 0.05810
 C104 C 0.02645 0.46823 0.02930
 C105 C -0.00048 0.48390 0.01485
 C106 C -0.02746 0.46826 0.02924
 C107 C -0.05390 0.48423 0.01453
 C108 C -0.05384 0.51500 -0.01364
 C109 C -0.02736 0.53094 -0.02830
 C110 C -0.00043 0.51526 -0.01395
 C111 C 0.05294 0.48417 0.01464
 C112 C 0.05299 0.51494 -0.01374
 C113 C 0.02656 0.53090 -0.02840
 C114 C 0.02633 0.56212 -0.05720
 C115 C -0.00032 0.57730 -0.07109
 C116 C -0.02702 0.56215 -0.05703
 H117 H -0.07489 0.47304 0.02471
 H118 H -0.07480 0.52621 -0.02383
 H119 H 0.07390 0.47297 0.02499
 H120 H 0.07399 0.52612 -0.02411
 H121 H -0.00062 0.39790 0.09439
 H122 H -0.00028 0.60127 -0.09332
 C123 C 0.52674 1.06274 0.44044
 C124 C 0.50006 1.07784 0.42613
 C125 C 0.47339 1.06265 0.44064
 C126 C 0.47313 1.03147 0.47036
 C127 C 0.50009 1.01587 0.48505
 C128 C 0.52704 1.03156 0.47005
 C129 C 0.55351 1.01566 0.48497
 C130 C 0.55353 0.98493 0.51411
 C131 C 0.52708 0.96895 0.52937
 C132 C 0.50011 0.98455 0.51473
 C133 C 0.44668 1.01549 0.48569
 C134 C 0.44670 0.98476 0.51477
 C135 C 0.47317 0.96886 0.52971
 C136 C 0.47346 0.93768 0.55930
 C137 C 0.50015 0.92257 0.57352
 C138 C 0.52681 0.93776 0.55893
 H139 H 0.57448 1.02687 0.47419
 H140 H 0.57451 0.97378 0.52461
 H141 H 0.42569 1.02664 0.47530
 H142 H 0.42572 0.97354 0.52544
 H143 H 0.50005 1.10179 0.40322
 H144 H 0.50016 0.89862 0.59637
 C145 C 1.14759 0.15042 0.14683
 N146 N 1.13552 0.14629 0.00841
 N147 N 1.11266 0.12793 -0.00988
 C148 C 1.10117 0.11315 0.10969
 N149 N 1.11327 0.11723 0.24804
 N150 N 1.13613 0.13559 0.26634
 C151 C 1.17124 0.17134 0.16790
 C152 C 1.19062 0.18944 0.18655
 C153 C 1.07566 0.09457 0.09135
 C154 C 1.05383 0.07953 0.07662
 C155 C 0.64698 0.65095 0.64900
 N156 N 0.63551 0.63612 0.76851
 N157 N 0.61260 0.61782 0.75026
 C158 C 0.60047 0.61380 0.61195
 N159 N 0.61196 0.62857 0.49238
 N160 N 0.63488 0.64687 0.51063
 C161 C 0.67071 0.67176 0.66997
 C162 C 0.69019 0.68976 0.68843
 C163 C 0.57495 0.59524 0.59358
 C164 C 0.55313 0.58019 0.57871
 C165 C -0.14762 0.34901 0.14481
 N166 N -0.13553 0.35272 0.00640
 N167 N -0.11268 0.37104 -0.01199
 C168 C -0.10121 0.38619 0.10748
 N169 N -0.11333 0.38253 0.24583
 N170 N -0.13618 0.36422 0.26421
 C171 C -0.17127 0.32816 0.16602
 C172 C -0.19065 0.31012 0.18490
 C173 C -0.07571 0.40473 0.08911
 C174 C -0.05388 0.41975 0.07454
 C175 C 0.35283 0.84998 0.64607
 N176 N 0.36530 0.85318 0.50824
 N177 N 0.38826 0.87137 0.48996
 C178 C 0.39944 0.88690 0.60896
 N179 N 0.38693 0.88374 0.74671
 N180 N 0.36397 0.86556 0.76499
 C181 C 0.32906 0.82927 0.66730
 C182 C 0.30958 0.81133 0.68622
 C183 C 0.42500 0.90536 0.59072
 C184 C 0.44685 0.92035 0.57609
 C185 C -0.14693 0.65058 -0.14299
 N186 N -0.13467 0.64705 -0.00489
 N187 N -0.11193 0.62864 0.01340
 C188 C -0.10075 0.61321 -0.10586
 N189 N -0.11305 0.61670 -0.24390
 N190 N -0.13579 0.63511 -0.26218
 C191 C -0.17047 0.67152 -0.16417
 C192 C -0.18976 0.68961 -0.18308
 C193 C -0.07536 0.59458 -0.08769
 C194 C -0.05360 0.57950 -0.07329
 C195 C 0.35280 1.15009 0.35382
 N196 N 0.36501 1.14658 0.49204
 N197 N 0.38795 1.12842 0.51032
 C198 C 0.39936 1.11323 0.39092
 N199 N 0.38711 1.11669 0.25277
 N200 N 0.36418 1.13485 0.23448
 C201 C 0.32905 1.17078 0.33270
 C202 C 0.30959 1.18868 0.31388
 C203 C 0.42491 1.09482 0.40923
 C204 C 0.44676 1.07989 0.42389
 C205 C 1.14741 -0.15100 -0.14695
 N206 N 1.13579 -0.13641 -0.26670
 N207 N 1.11290 -0.11815 -0.24847
 C208 C 1.10094 -0.11392 -0.10993
 N209 N 1.11259 -0.12846 0.00989
 N210 N 1.13549 -0.14673 -0.00835
 C211 C 1.17111 -0.17181 -0.16789
 C212 C 1.19053 -0.18982 -0.18647
 C213 C 1.07543 -0.09540 -0.09157
 C214 C 1.05361 -0.08038 -0.07690
 C215 C 0.64717 0.35003 0.35185
 N216 N 0.63558 0.36468 0.23221
 N217 N 0.61264 0.38289 0.25049
 C218 C 0.60060 0.38699 0.38895
 N219 N 0.61223 0.37239 0.50865
 N220 N 0.63517 0.35418 0.49038
 C221 C 0.67092 0.32929 0.33085
 C222 C 0.69037 0.31132 0.31224
 C223 C 0.57505 0.40544 0.40733
 C224 C 0.55321 0.42041 0.42210
 C225 C 0.85296 -0.15081 -0.14782
 N226 N 0.86477 -0.14638 -0.00906
 N227 N 0.88774 -0.12815 0.00914
 C228 C 0.89959 -0.11381 -0.11088
 N229 N 0.88773 -0.11820 -0.24959
 N230 N 0.86477 -0.13642 -0.26778
 C231 C 0.82917 -0.17157 -0.16863
 C232 C 0.80967 -0.18955 -0.18706
 C233 C 0.92516 -0.09533 -0.09246
 C234 C 0.94702 -0.08033 -0.07763
 C235 C 0.35275 0.34949 0.35131
 N236 N 0.36464 0.35383 0.48997
 N237 N 0.38755 0.37213 0.50824
 C238 C 0.39927 0.38664 0.38839
 N239 N 0.38734 0.38235 0.24979
 N240 N 0.36443 0.36405 0.23152
 C241 C 0.32903 0.32866 0.33037
 C242 C 0.30959 0.31062 0.31190
 C243 C 0.42479 0.40519 0.40682
 C244 C 0.44662 0.42023 0.42166
 C245 C 0.14659 0.65034 -0.14302
 N246 N 0.13536 0.63495 -0.26234
 N247 N 0.11254 0.61659 -0.24418
 C248 C 0.10026 0.61305 -0.10613
 N249 N 0.11152 0.62839 0.01326
 N250 N 0.13435 0.64676 -0.00490
 C251 C 0.17021 0.67125 -0.16407
 C252 C 0.18956 0.68932 -0.18290
 C253 C 0.07478 0.59446 -0.08804
 C254 C 0.05297 0.57942 -0.07360
 C255 C 0.64721 1.15065 0.35336
 N256 N 0.63588 1.13531 0.23413
 N257 N 0.61297 1.11706 0.25248
 C258 C 0.60070 1.11360 0.39061
 N259 N 0.61207 1.12890 0.50990
 N260 N 0.63498 1.14715 0.49156
 C261 C 0.67093 1.17143 0.33218
 C262 C 0.69037 1.18940 0.31336
 C263 C 0.57518 1.09509 0.40897
 C264 C 0.55335 1.08007 0.42366
 C265 C 0.14637 0.34905 0.14381
 N266 N 0.13516 0.36443 0.26311
 N267 N 0.11231 0.38270 0.24499
 C268 C 0.09997 0.38615 0.10702
 N269 N 0.11122 0.37082 -0.01236
 N270 N 0.13408 0.35254 0.00576
 C271 C 0.17004 0.32826 0.16479
 C272 C 0.18944 0.31028 0.18355
 C273 C 0.07450 0.40468 0.08894
 C274 C 0.05271 0.41970 0.07451
 C275 C 0.64743 0.85032 0.64512
 N276 N 0.63641 0.86602 0.76385
 N277 N 0.61348 0.88418 0.74556
 C278 C 0.60086 0.88718 0.60798
 N279 N 0.61191 0.87152 0.48917
 N280 N 0.63485 0.85337 0.50747
 C281 C 0.67116 0.82962 0.66646
 C282 C 0.69059 0.81169 0.68549
 C283 C 0.57530 0.90558 0.58984
 C284 C 0.55345 0.92052 0.57539
 C285 C 0.85359 0.15037 0.14576
 N286 N 0.86542 0.14593 0.00709
 N287 N 0.88828 0.12761 -0.01103
 C288 C 0.89998 0.11318 0.10899
 N289 N 0.88811 0.11757 0.24760
 N290 N 0.86525 0.13589 0.26572
 C291 C 0.82992 0.17122 0.16652
 C292 C 0.81052 0.18926 0.18494
 C293 C 0.92546 0.09461 0.09073
 C294 C 0.94726 0.07957 0.07611
 C295 C 0.35276 0.65061 0.64910
 N296 N 0.36432 0.64591 0.51001
 N297 N 0.38720 0.62764 0.49162
 C298 C 0.39922 0.61352 0.61178
 N299 N 0.38762 0.61818 0.75082
 N300 N 0.36474 0.63645 0.76920
 C301 C 0.32906 0.67141 0.67001
 C302 C 0.30963 0.68941 0.68846
 C303 C 0.42472 0.59502 0.59313
 C304 C 0.44655 0.58002 0.57819
   
