data_POSCAR
  _audit_creation_date              2014-09-24
  _audit_creation_method            'ToBaCCo'
  _symmetry_space_group_name_H-M    'P1'
  _symmetry_Int_Tables_number       1
  _symmetry_cell_setting            triclinic
  loop_
  _symmetry_equiv_pos_as_xyz
 x,y,z
_cell_length_a 53.0306
_cell_length_b 38.5268
_cell_length_c 37.9156
_cell_angle_alpha 90.049200
_cell_angle_beta 89.486600
_cell_angle_gamma 90.244800
loop_
  _atom_site_label
  _atom_site_type_symbol
  _atom_site_fract_x
  _atom_site_fract_y
  _atom_site_fract_z
C1 C 1.21241 0.26220 0.30157
 H2 H 1.21199 0.23436 0.30467
 C3 C 1.19541 0.28258 0.32076
 H4 H 1.18179 0.27013 0.33809
 C5 C 1.23043 0.31230 0.27522
 H6 H 1.24425 0.32397 0.25782
 C7 C 1.21354 0.33362 0.29353
 H8 H 1.21450 0.36147 0.28989
 N9 N 1.22926 0.27716 0.27890
 C10 C 1.22762 0.22280 0.18745
 H11 H 1.23806 0.24297 0.17402
 C12 C 1.21121 0.20171 0.16817
 H13 H 1.20887 0.20664 0.14029
 C14 C 1.21757 0.19227 0.23988
 H15 H 1.22044 0.18826 0.26775
 C16 C 1.20118 0.17043 0.22163
 H17 H 1.19153 0.14988 0.23585
 Zn18 Zn 1.25049 0.24790 0.25106
 N19 N 1.22999 0.21838 0.22288
 C20 C 1.28247 0.19254 0.26475
 N21 N 1.27005 0.21911 0.28054
 C22 C 1.27250 0.22542 0.31556
 C23 C 1.28868 0.20523 0.33596
 C24 C 1.29892 0.17186 0.28391
 C25 C 1.26402 0.29804 0.19814
 C26 C 1.28074 0.31868 0.17842
 C27 C 1.31533 0.29264 0.20958
 C28 C 1.29804 0.27256 0.22858
 N29 N 1.27287 0.27540 0.22265
 H30 H 1.27985 0.18777 0.23690
 H31 H 1.26260 0.24696 0.32753
 H32 H 1.29091 0.21295 0.36314
 H33 H 1.30751 0.15048 0.26991
 H34 H 1.24392 0.30056 0.19433
 H35 H 1.27334 0.33689 0.15943
 H36 H 1.33526 0.28959 0.21462
 H37 H 1.30490 0.25498 0.24841
 C38 C 1.19738 0.17542 0.18537
 C39 C 1.19558 0.31873 0.31637
 C40 C 1.30679 0.31626 0.18425
 C41 C 1.30304 0.17819 0.32028
 C42 C 0.71734 -0.23596 0.30648
 H43 H 0.71835 -0.26378 0.31005
 C44 C 0.70019 -0.21659 0.32634
 H45 H 0.68835 -0.22970 0.34560
 C46 C 0.73156 -0.18538 0.27677
 H47 H 0.74375 -0.17329 0.25739
 C48 C 0.71455 -0.16497 0.29600
 H49 H 0.71360 -0.13741 0.29066
 N50 N 0.73203 -0.22038 0.28151
 C51 C 0.73906 -0.30230 0.20241
 H52 H 0.75918 -0.30675 0.20136
 C53 C 0.72291 -0.32183 0.18105
 H54 H 0.73073 -0.34123 0.16348
 C55 C 0.70444 -0.27092 0.22587
 H56 H 0.69721 -0.25073 0.24285
 C57 C 0.68772 -0.28967 0.20503
 H58 H 0.66775 -0.28416 0.20705
 Zn59 Zn 0.75155 -0.25066 0.25290
 N60 N 0.72958 -0.27765 0.22454
 C61 C 0.76814 -0.31408 0.28439
 N62 N 0.77043 -0.27892 0.28383
 C63 C 0.78669 -0.26219 0.30559
 C64 C 0.80275 -0.28094 0.32731
 C65 C 0.78354 -0.33390 0.30627
 C66 C 0.76452 -0.20239 0.19904
 C67 C 0.78092 -0.18252 0.17800
 C68 C 0.81601 -0.21247 0.20413
 C69 C 0.79904 -0.23167 0.22453
 N70 N 0.77384 -0.22563 0.22257
 H71 H 0.75454 -0.32686 0.26772
 H72 H 0.78786 -0.23415 0.30497
 H73 H 0.81648 -0.26687 0.34275
 H74 H 0.78137 -0.36184 0.30628
 H75 H 0.74436 -0.19876 0.19718
 H76 H 0.77327 -0.16329 0.16030
 H77 H 0.83600 -0.21755 0.20639
 H78 H 0.80616 -0.25139 0.24193
 C79 C 0.69683 -0.31548 0.18216
 C80 C 0.69812 -0.18072 0.32054
 C81 C 0.80708 -0.18698 0.18103
 C82 C 0.80160 -0.31741 0.32760
 C83 C 0.71243 0.25842 -0.19716
 H84 H 0.71251 0.23060 -0.19390
 C85 C 0.69566 0.27840 -0.17728
 H86 H 0.68300 0.26556 -0.15886
 C87 C 0.72940 0.30886 -0.22414
 H88 H 0.74263 0.32073 -0.24229
 C89 C 0.71280 0.32986 -0.20492
 H90 H 0.71315 0.35765 -0.20914
 N91 N 0.72856 0.27372 -0.22056
 C92 C 0.72570 0.21964 -0.31180
 H93 H 0.73603 0.23985 -0.32533
 C94 C 0.70903 0.19874 -0.33083
 H95 H 0.70641 0.20380 -0.35864
 C96 C 0.71606 0.18895 -0.25930
 H97 H 0.71920 0.18479 -0.23152
 C98 C 0.69942 0.16731 -0.27731
 H99 H 0.68983 0.14676 -0.26301
 Zn100 Zn 0.74931 0.24436 -0.24870
 N101 N 0.72843 0.21502 -0.27646
 C102 C 0.77926 0.18693 -0.23363
 N103 N 0.76876 0.21578 -0.21911
 C104 C 0.77362 0.22529 -0.18529
 C105 C 0.79025 0.20586 -0.16492
 C106 C 0.79594 0.16679 -0.21424
 C107 C 0.76329 0.29396 -0.30192
 C108 C 0.78027 0.31348 -0.32237
 C109 C 0.81446 0.28638 -0.29140
 C110 C 0.79686 0.26734 -0.27192
 N111 N 0.77178 0.27124 -0.27739
 H112 H 0.77519 0.18016 -0.26069
 H113 H 0.76533 0.24865 -0.17454
 H114 H 0.79467 0.21453 -0.13851
 H115 H 0.80434 0.14413 -0.22642
 H116 H 0.74322 0.29741 -0.30530
 H117 H 0.77229 0.33204 -0.34039
 H118 H 0.83404 0.28044 -0.28679
 H119 H 0.80347 0.24926 -0.25239
 C120 C 0.69530 0.17247 -0.31346
 C121 C 0.69532 0.31460 -0.18151
 C122 C 0.80665 0.31035 -0.31739
 C123 C 0.80201 0.17655 -0.17963
 C124 C 1.21212 -0.24356 -0.19990
 H125 H 1.21204 -0.27141 -0.19693
 C126 C 1.19512 -0.22365 -0.18034
 H127 H 1.18213 -0.23656 -0.16244
 C128 C 1.22975 -0.19298 -0.22577
 H129 H 1.24344 -0.18099 -0.24315
 C130 C 1.21295 -0.17204 -0.20684
 H131 H 1.21356 -0.14421 -0.21067
 N132 N 1.22868 -0.22816 -0.22263
 C133 C 1.22642 -0.28342 -0.31220
 H134 H 1.23622 -0.26279 -0.32584
 C135 C 1.20973 -0.30458 -0.33089
 H136 H 1.20662 -0.29937 -0.35856
 C137 C 1.21790 -0.31460 -0.25963
 H138 H 1.22138 -0.31870 -0.23192
 C139 C 1.20121 -0.33649 -0.27731
 H140 H 1.19198 -0.35725 -0.26286
 Zn141 Zn 1.25003 -0.25749 -0.24990
 N142 N 1.22970 -0.28816 -0.27698
 C143 C 1.28030 -0.31415 -0.23083
 N144 N 1.26998 -0.28402 -0.21900
 C145 C 1.27511 -0.27146 -0.18630
 C146 C 1.29161 -0.28914 -0.16424
 C147 C 1.29682 -0.33274 -0.20957
 C148 C 1.26252 -0.20742 -0.30308
 C149 C 1.27888 -0.18684 -0.32340
 C150 C 1.31406 -0.21433 -0.29484
 C151 C 1.29711 -0.23430 -0.27517
 N152 N 1.27182 -0.23051 -0.27937
 H153 H 1.27618 -0.32325 -0.25716
 H154 H 1.26689 -0.24722 -0.17768
 H155 H 1.29569 -0.27860 -0.13842
 H156 H 1.30544 -0.35615 -0.21981
 H157 H 1.24235 -0.20445 -0.30572
 H158 H 1.27116 -0.16813 -0.34160
 H159 H 1.33409 -0.21802 -0.29113
 H160 H 1.30428 -0.25265 -0.25629
 C161 C 1.19650 -0.33118 -0.31329
 C162 C 1.19505 -0.18739 -0.18414
 C163 C 1.30505 -0.18995 -0.31909
 C164 C 1.30293 -0.32000 -0.17598
 C165 C 0.26461 0.20206 0.70299
 H166 H 0.24475 0.19551 0.70373
 C167 C 0.28139 0.18125 0.68380
 H168 H 0.27418 0.15844 0.67057
 C169 C 0.29802 0.23887 0.72068
 H170 H 0.30459 0.26126 0.73510
 C171 C 0.31527 0.21945 0.70112
 H172 H 0.33475 0.22792 0.70037
 N173 N 0.27321 0.22986 0.72158
 C174 C 0.21272 0.24523 0.79942
 H175 H 0.21156 0.27318 0.79902
 C176 C 0.19569 0.22629 0.82004
 H177 H 0.18229 0.24078 0.83578
 C178 C 0.23318 0.19381 0.78128
 H179 H 0.24800 0.18116 0.76650
 C180 C 0.21643 0.17370 0.80144
 H181 H 0.21845 0.14584 0.80006
 Zn182 Zn 0.25103 0.25715 0.74989
 N183 N 0.23057 0.22886 0.77976
 C184 C 0.21859 0.31252 0.73579
 N185 N 0.22973 0.28423 0.72101
 C186 C 0.22527 0.27525 0.68691
 C187 C 0.20835 0.29437 0.66669
 C188 C 0.20163 0.33236 0.71657
 C189 C 0.27624 0.27750 0.81165
 C190 C 0.29251 0.29778 0.83191
 C191 C 0.29610 0.33810 0.78329
 C192 C 0.27978 0.31706 0.76398
 N193 N 0.27048 0.28722 0.77823
 H194 H 0.22284 0.31971 0.76266
 H195 H 0.23438 0.25285 0.67550
 H196 H 0.20440 0.28615 0.63999
 H197 H 0.19293 0.35471 0.72893
 H198 H 0.26884 0.25342 0.82219
 H199 H 0.29762 0.28896 0.85798
 H200 H 0.30354 0.36157 0.77138
 H201 H 0.27503 0.32402 0.73722
 C202 C 0.19668 0.18965 0.82072
 C203 C 0.30725 0.18965 0.68289
 C204 C 0.30300 0.32823 0.81753
 C205 C 0.19599 0.32305 0.68171
 C206 C 0.76372 0.70180 0.70014
 H207 H 0.74385 0.69532 0.70071
 C208 C 0.78055 0.68125 0.68072
 H209 H 0.77337 0.65851 0.66732
 C210 C 0.79701 0.73879 0.71788
 H211 H 0.80338 0.76150 0.73201
 C212 C 0.81430 0.71968 0.69805
 H213 H 0.83370 0.72843 0.69707
 N214 N 0.77234 0.72916 0.71933
 C215 C 0.71581 0.74389 0.80260
 H216 H 0.71587 0.77198 0.80317
 C217 C 0.69932 0.72545 0.82452
 H218 H 0.68768 0.74021 0.84257
 C219 C 0.73232 0.69175 0.77928
 H220 H 0.74531 0.67861 0.76182
 C221 C 0.71608 0.67215 0.80070
 H222 H 0.71660 0.64427 0.79770
 Zn223 Zn 0.75007 0.75555 0.74810
 N224 N 0.73120 0.72698 0.77960
 C225 C 0.70250 0.77292 0.72063
 N226 N 0.72762 0.77994 0.71829
 C227 C 0.73676 0.80324 0.69437
 C228 C 0.72027 0.82156 0.67263
 C229 C 0.68544 0.79040 0.69937
 C230 C 0.78393 0.77057 0.80106
 C231 C 0.80014 0.79026 0.82189
 C232 C 0.78582 0.84186 0.79209
 C233 C 0.76957 0.82118 0.77210
 N234 N 0.76937 0.78611 0.77636
 H235 H 0.69553 0.75358 0.73886
 H236 H 0.75687 0.80774 0.69232
 H237 H 0.72782 0.84013 0.65387
 H238 H 0.66550 0.78486 0.70231
 H239 H 0.78334 0.74265 0.80394
 H240 H 0.81213 0.77729 0.84069
 H241 H 0.78622 0.86967 0.78796
 H242 H 0.75754 0.83315 0.75282
 C243 C 0.69845 0.68880 0.82316
 C244 C 0.80640 0.68975 0.67988
 C245 C 0.80153 0.82631 0.81711
 C246 C 0.69420 0.81523 0.67509
 C247 C 0.76489 0.19757 0.20108
 H248 H 0.74529 0.18973 0.20211
 C249 C 0.78221 0.17815 0.18134
 H250 H 0.77574 0.15481 0.16831
 C251 C 0.79693 0.23718 0.21752
 H252 H 0.80256 0.26056 0.23113
 C253 C 0.81466 0.21924 0.19731
 H254 H 0.83365 0.22948 0.19561
 N255 N 0.77272 0.22566 0.21982
 C256 C 0.71434 0.23881 0.30063
 H257 H 0.71406 0.26689 0.30064
 C258 C 0.69739 0.22041 0.32184
 H259 H 0.68440 0.23463 0.33857
 C260 C 0.73189 0.18650 0.27886
 H261 H 0.74552 0.17334 0.26240
 C262 C 0.71503 0.16698 0.29943
 H263 H 0.71551 0.13895 0.29770
 Zn264 Zn 0.74989 0.25088 0.24862
 N265 N 0.73061 0.22177 0.27889
 C266 C 0.70332 0.26474 0.21701
 N267 N 0.72774 0.27538 0.21875
 C268 C 0.73627 0.30262 0.19915
 C269 C 0.71948 0.32228 0.17925
 C270 C 0.68608 0.28293 0.19668
 C271 C 0.78464 0.26539 0.30062
 C272 C 0.80070 0.28512 0.32164
 C273 C 0.78243 0.33711 0.29728
 C274 C 0.76644 0.31634 0.27705
 N275 N 0.76842 0.28115 0.27821
 H276 H 0.69712 0.24200 0.23136
 H277 H 0.75600 0.30980 0.19990
 H278 H 0.72650 0.34507 0.16566
 H279 H 0.66686 0.27352 0.19557
 H280 H 0.78561 0.23736 0.30130
 H281 H 0.81415 0.27213 0.33836
 H282 H 0.78117 0.36510 0.29545
 H283 H 0.75280 0.32847 0.26018
 C284 C 0.69703 0.18397 0.32065
 C285 C 0.80766 0.18861 0.17964
 C286 C 0.80008 0.32144 0.31948
 C287 C 0.69380 0.31291 0.17831
 C288 C 0.26454 0.69947 0.20339
 H289 H 0.24486 0.69199 0.20373
 C290 C 0.28197 0.68000 0.18385
 H291 H 0.27545 0.65702 0.17024
 C292 C 0.29672 0.73812 0.22148
 H293 H 0.30240 0.76111 0.23572
 C294 C 0.31456 0.72016 0.20150
 H295 H 0.33367 0.73007 0.20056
 N296 N 0.27234 0.72716 0.22277
 C297 C 0.21384 0.74065 0.30352
 H298 H 0.21375 0.76873 0.30381
 C299 C 0.19691 0.72224 0.32480
 H300 H 0.18415 0.73648 0.34185
 C301 C 0.23088 0.68833 0.28100
 H302 H 0.24428 0.67514 0.26419
 C303 C 0.21404 0.66883 0.30162
 H304 H 0.21432 0.64081 0.29960
 Zn305 Zn 0.24936 0.75265 0.25118
 N306 N 0.22988 0.72362 0.28142
 C307 C 0.20276 0.76673 0.21973
 N308 N 0.22727 0.77712 0.22097
 C309 C 0.23582 0.80379 0.20058
 C310 C 0.21900 0.82314 0.18034
 C311 C 0.18551 0.78458 0.19910
 C312 C 0.28246 0.76681 0.30525
 C313 C 0.29864 0.78593 0.32668
 C314 C 0.28442 0.83814 0.29806
 C315 C 0.26802 0.81795 0.27786
 N316 N 0.26800 0.78283 0.28088
 H317 H 0.19650 0.74439 0.23465
 H318 H 0.25561 0.81069 0.20077
 H319 H 0.22609 0.84547 0.16604
 H320 H 0.16625 0.77527 0.19840
 H321 H 0.28201 0.73880 0.30721
 H322 H 0.31072 0.77131 0.34393
 H323 H 0.28339 0.86598 0.29491
 H324 H 0.25558 0.83052 0.25956
 C325 C 0.19632 0.68581 0.32332
 C326 C 0.30755 0.69000 0.18303
 C327 C 0.30069 0.82240 0.32276
 C328 C 0.19326 0.81401 0.17986
 O329 O 1.03658 0.05846 0.06316
 O330 O 1.06447 0.02873 0.02795
 C331 C 1.05931 0.05027 0.05336
 O332 O 0.96589 -0.06508 0.05665
 O333 O 0.93776 -0.03075 0.02721
 C334 C 0.94307 -0.05578 0.04879
 O335 O 1.03655 -0.06037 0.06050
 O336 O 1.06447 -0.02963 0.02581
 C337 C 1.05924 -0.05168 0.05068
 O338 O 0.96639 0.06137 0.06188
 O339 O 0.93830 0.02999 0.02879
 C340 C 0.94368 0.05296 0.05259
 Zr341 Zr 1.00137 0.04277 0.04280
 O342 O 0.99992 0.04285 0.09858
 O343 O 1.00240 0.09756 0.04037
 Zr344 Zr 1.00129 -0.04456 0.04055
 O345 O 0.99986 -0.04330 0.09626
 O346 O 1.00366 -0.09937 0.03988
 O347 O 1.02391 -0.00099 0.04801
 O348 O 0.97930 -0.00121 0.04862
 O349 O 0.96579 0.06550 -0.06110
 O350 O 0.93799 0.03108 -0.03026
 C351 C 0.94308 0.05601 -0.05221
 O352 O 1.03599 -0.05791 -0.06985
 O353 O 1.06419 -0.02798 -0.03572
 C354 C 1.05880 -0.04958 -0.06086
 O355 O 0.96559 -0.06150 -0.06550
 O356 O 0.93793 -0.02968 -0.03187
 C357 C 0.94292 -0.05285 -0.05573
 O358 O 1.03620 0.06232 -0.06618
 O359 O 1.06427 0.03040 -0.03411
 C360 C 1.05898 0.05341 -0.05786
 Zr361 Zr 1.00102 0.04513 -0.04588
 O362 O 0.99791 0.04643 -0.10151
 O363 O 1.00350 0.09995 -0.04405
 Zr364 Zr 1.00090 -0.04249 -0.04817
 O365 O 0.99831 -0.04330 -0.10384
 O366 O 1.00197 -0.09724 -0.04551
 Zr367 Zr 1.03897 0.00033 -0.00356
 Zr368 Zr 0.96340 0.00003 -0.00195
 O369 O 0.97899 0.00142 -0.05314
 O370 O 1.02344 0.00159 -0.05456
 O371 O 0.97860 0.05061 -0.00084
 O372 O 1.02320 -0.04984 -0.00445
 O373 O 1.02333 0.05040 -0.00177
 O374 O 0.97851 -0.05042 -0.00357
 H375 H 0.96805 -0.00187 0.06962
 H376 H 1.03458 -0.07017 -0.00507
 H377 H 0.96762 0.00198 -0.07372
 H378 H 1.03476 0.07081 -0.00136
 H379 H 0.99234 -0.10768 0.02103
 H380 H 1.00195 -0.10558 -0.07024
 H381 H 1.01033 -0.02576 -0.11304
 H382 H 1.01218 0.03310 -0.11150
 H383 H 0.99157 0.10794 -0.02558
 H384 H 1.00277 0.10577 0.06513
 H385 H 1.00926 0.02214 0.10651
 H386 H 0.99970 -0.06784 0.10411
 O387 O 1.03347 0.55424 0.56696
 O388 O 1.06146 0.52524 0.53128
 C389 C 1.05623 0.54620 0.55711
 O390 O 0.96344 0.42874 0.55505
 O391 O 0.93541 0.46446 0.52733
 C392 C 0.94067 0.43838 0.54758
 O393 O 1.03371 0.43318 0.55877
 O394 O 1.06159 0.46694 0.52731
 C395 C 1.05643 0.44295 0.55031
 O396 O 0.96281 0.55614 0.56474
 O397 O 0.93488 0.52551 0.53050
 C398 C 0.94011 0.54795 0.55492
 Zr399 Zr 0.99828 0.53759 0.54704
 O400 O 0.99613 0.52987 0.60232
 O401 O 0.99869 0.59179 0.55583
 Zr402 Zr 0.99856 0.45072 0.54020
 O403 O 0.99715 0.45043 0.59592
 O404 O 1.00092 0.39596 0.53762
 O405 O 1.02109 0.49391 0.55009
 O406 O 0.97622 0.49345 0.55030
 O407 O 0.96291 0.56502 0.44347
 O408 O 0.93523 0.52872 0.47229
 C409 C 0.94025 0.55471 0.45169
 O410 O 1.03401 0.44310 0.42939
 O411 O 1.06177 0.47117 0.46582
 C412 C 1.05672 0.45084 0.43950
 O413 O 0.96345 0.43884 0.43270
 O414 O 0.93565 0.46840 0.46819
 C415 C 0.94076 0.44650 0.44320
 O416 O 1.03349 0.56226 0.43851
 O417 O 1.06149 0.52944 0.46974
 C418 C 1.05625 0.55313 0.44669
 Zr419 Zr 0.99831 0.54429 0.45812
 O420 O 0.99578 0.54801 0.40256
 O421 O 1.00082 0.59901 0.46226
 Zr422 Zr 0.99860 0.45685 0.45163
 O423 O 0.99880 0.45638 0.39580
 O424 O 0.99943 0.40204 0.45301
 Zr425 Zr 1.03621 0.49788 0.49868
 Zr426 Zr 0.96074 0.49715 0.49960
 O427 O 0.97647 0.50085 0.44864
 O428 O 1.02091 0.50133 0.44764
 O429 O 0.97590 0.54773 0.50336
 O430 O 1.02070 0.44768 0.49516
 O431 O 1.02024 0.54765 0.50274
 O432 O 0.97601 0.44686 0.49562
 H433 H 0.96462 0.49188 0.57088
 H434 H 1.03216 0.42747 0.49360
 H435 H 0.96499 0.50241 0.42825
 H436 H 1.03162 0.56807 0.50386
 H437 H 0.99007 0.38836 0.51795
 H438 H 1.00017 0.39433 0.42810
 H439 H 0.99071 0.47800 0.38781
 H440 H 1.00899 0.53285 0.39235
 H441 H 0.98678 0.60680 0.47767
 H442 H 1.00315 0.60295 0.53319
 H443 H 1.01089 0.51591 0.60929
 H444 H 0.99710 0.42568 0.60303
 O445 O 0.53364 0.05642 0.56542
 O446 O 0.56163 0.02719 0.52993
 C447 C 0.55639 0.04835 0.55561
 O448 O 0.46325 -0.06735 0.55648
 O449 O 0.43521 -0.03274 0.52732
 C450 C 0.44048 -0.05802 0.54863
 O451 O 0.53360 -0.06376 0.55957
 O452 O 0.56159 -0.03107 0.52713
 C453 C 0.55638 -0.05458 0.55062
 O454 O 0.46343 0.05919 0.56379
 O455 O 0.43541 0.02853 0.52986
 C456 C 0.44073 0.05101 0.55419
 Zr457 Zr 0.49849 0.04098 0.54458
 O458 O 0.49678 0.04021 0.60035
 O459 O 0.49948 0.09580 0.54302
 Zr460 Zr 0.49844 -0.04627 0.54075
 O461 O 0.49722 -0.04525 0.59647
 O462 O 0.50037 -0.10111 0.53962
 O463 O 0.52104 -0.00289 0.54929
 O464 O 0.47637 -0.00308 0.54942
 O465 O 0.46336 0.06515 0.44043
 O466 O 0.43530 0.03064 0.47079
 C467 C 0.44057 0.05567 0.44898
 O468 O 0.53376 -0.05806 0.43070
 O469 O 0.56164 -0.02848 0.46564
 C470 C 0.55650 -0.04979 0.44017
 O471 O 0.46316 -0.06154 0.43422
 O472 O 0.43537 -0.03039 0.46838
 C473 C 0.44049 -0.05327 0.44430
 O474 O 0.53381 0.06194 0.43585
 O475 O 0.56168 0.02983 0.46807
 C476 C 0.55653 0.05290 0.44434
 Zr477 Zr 0.49854 0.04478 0.45593
 O478 O 0.49568 0.04742 0.40034
 O479 O 0.50107 0.09954 0.45905
 Zr480 Zr 0.49842 -0.04267 0.45202
 O481 O 0.49605 -0.04185 0.39632
 O482 O 0.49942 -0.09749 0.45321
 Zr483 Zr 0.53628 -0.00068 0.49786
 Zr484 Zr 0.46065 -0.00091 0.49877
 O485 O 0.47649 0.00126 0.44774
 O486 O 0.52103 0.00142 0.44672
 O487 O 0.47591 0.04960 0.50087
 O488 O 0.52048 -0.05079 0.49581
 O489 O 0.52063 0.04935 0.50031
 O490 O 0.47585 -0.05130 0.49634
 H491 H 0.46505 -0.00412 0.57033
 H492 H 0.53176 -0.07121 0.49483
 H493 H 0.46520 0.00210 0.42708
 H494 H 0.53208 0.06973 0.50109
 H495 H 0.49015 -0.10895 0.51939
 H496 H 0.49957 -0.10518 0.42826
 H497 H 0.50912 -0.02555 0.38754
 H498 H 0.50946 0.03325 0.39017
 H499 H 0.48860 0.10723 0.47696
 H500 H 0.49974 0.10363 0.56792
 H501 H 0.50648 0.01974 0.60808
 H502 H 0.49708 -0.06982 0.60419
 O503 O 0.53715 0.56131 0.06564
 O504 O 0.56492 0.53128 0.03052
 C505 C 0.55986 0.55310 0.05569
 O506 O 0.46669 0.43750 0.06084
 O507 O 0.43855 0.47169 0.03135
 C508 C 0.44387 0.44683 0.05312
 O509 O 0.53735 0.44239 0.06351
 O510 O 0.56518 0.47288 0.02838
 C511 C 0.56001 0.45092 0.05336
 O512 O 0.46685 0.56404 0.06457
 O513 O 0.43873 0.53246 0.03168
 C514 C 0.44412 0.55556 0.05536
 Zr515 Zr 0.50187 0.54536 0.04558
 O516 O 0.50046 0.54577 0.10136
 O517 O 0.50283 0.60013 0.04285
 Zr518 Zr 0.50188 0.45805 0.04401
 O519 O 0.50072 0.45989 0.09972
 O520 O 0.50419 0.40322 0.04383
 O521 O 0.52447 0.50168 0.05110
 O522 O 0.47983 0.50142 0.05173
 O523 O 0.46611 0.56743 -0.05824
 O524 O 0.43836 0.53297 -0.02730
 C525 C 0.44341 0.55790 -0.04926
 O526 O 0.53635 0.44389 -0.06649
 O527 O 0.56456 0.47409 -0.03267
 C528 C 0.55916 0.45233 -0.05766
 O529 O 0.46607 0.43990 -0.06133
 O530 O 0.43832 0.47227 -0.02846
 C531 C 0.44337 0.44864 -0.05184
 O532 O 0.53661 0.56447 -0.06339
 O533 O 0.56463 0.53254 -0.03128
 C534 C 0.55939 0.55557 -0.05502
 Zr535 Zr 0.50143 0.54708 -0.04316
 O536 O 0.49830 0.54755 -0.09880
 O537 O 0.50381 0.60191 -0.04213
 Zr538 Zr 0.50132 0.45945 -0.04473
 O539 O 0.49852 0.45841 -0.10037
 O540 O 0.50256 0.40470 -0.04188
 Zr541 Zr 0.53939 0.50261 -0.00057
 Zr542 Zr 0.46383 0.50225 0.00118
 O543 O 0.47938 0.50329 -0.05004
 O544 O 0.52385 0.50349 -0.05154
 O545 O 0.47906 0.55284 0.00191
 O546 O 0.52366 0.45242 -0.00104
 O547 O 0.52374 0.55268 0.00089
 O548 O 0.47900 0.45183 0.00000
 H549 H 0.46867 0.50097 0.07283
 H550 H 0.53504 0.43208 -0.00162
 H551 H 0.46794 0.50362 -0.07056
 H552 H 0.53511 0.57315 0.00115
 H553 H 0.49304 0.39482 0.02482
 H554 H 0.50245 0.39626 -0.06658
 H555 H 0.51055 0.47585 -0.10974
 H556 H 0.51293 0.53486 -0.10866
 H557 H 0.49234 0.61003 -0.02315
 H558 H 0.50323 0.60847 0.06757
 H559 H 0.51011 0.52539 0.10943
 H560 H 0.50091 0.43545 0.10784
 C561 C 1.14071 0.11733 0.12900
 C562 C 1.13703 0.12662 0.16452
 C563 C 1.15552 0.14500 0.18276
 C564 C 1.17834 0.15434 0.16611
 C565 C 1.18234 0.14428 0.13081
 C566 C 1.16372 0.12598 0.11246
 C567 C 1.12014 0.09992 0.10917
 C568 C 1.12526 0.07343 0.08459
 C569 C 1.10560 0.05719 0.06632
 C570 C 1.08042 0.06712 0.07232
 C571 C 1.07542 0.09375 0.09673
 C572 C 1.09499 0.10997 0.11479
 H573 H 1.15160 0.15265 0.20973
 H574 H 1.19983 0.15064 0.11731
 H575 H 1.11010 0.03674 0.04772
 H576 H 1.05632 0.10237 0.10181
 H577 H 1.16709 0.11941 0.08505
 H578 H 1.14442 0.06491 0.07987
 H579 H 1.11970 0.11988 0.17826
 H580 H 1.09039 0.13079 0.13290
 C581 C 1.13854 0.61161 0.63217
 C582 C 1.13556 0.62062 0.66788
 C583 C 1.15451 0.63862 0.68560
 C584 C 1.17705 0.64789 0.66815
 C585 C 1.18033 0.63812 0.63265
 C586 C 1.16128 0.62019 0.61485
 C587 C 1.11761 0.59444 0.61290
 C588 C 1.12239 0.56822 0.58792
 C589 C 1.10251 0.55244 0.56978
 C590 C 1.07743 0.56253 0.57630
 C591 C 1.07272 0.58874 0.60128
 C592 C 1.09254 0.60453 0.61925
 H593 H 1.15118 0.64607 0.71277
 H594 H 1.19758 0.64446 0.61856
 H595 H 1.10680 0.53225 0.55079
 H596 H 1.05369 0.59737 0.60679
 H597 H 1.16411 0.61384 0.58728
 H598 H 1.14147 0.55961 0.58269
 H599 H 1.11845 0.61394 0.68216
 H600 H 1.08822 0.62511 0.63778
 C601 C 0.63808 0.11477 0.63101
 C602 C 0.63461 0.12420 0.66653
 C603 C 0.65328 0.14247 0.68451
 C604 C 0.67605 0.15156 0.66757
 C605 C 0.67981 0.14140 0.63226
 C606 C 0.66102 0.12321 0.61418
 C607 C 0.61738 0.09740 0.61147
 C608 C 0.62237 0.07081 0.58696
 C609 C 0.60263 0.05473 0.56876
 C610 C 0.57751 0.06490 0.57477
 C611 C 0.57262 0.09154 0.59920
 C612 C 0.59228 0.10763 0.61719
 H613 H 0.64957 0.15021 0.71151
 H614 H 0.69725 0.14760 0.61856
 H615 H 0.60704 0.03423 0.55017
 H616 H 0.55355 0.10031 0.60427
 H617 H 0.66422 0.11653 0.58676
 H618 H 0.64149 0.06213 0.58220
 H619 H 0.61733 0.11763 0.68046
 H620 H 0.58780 0.12852 0.63529
 C621 C 0.64201 0.62647 0.12291
 C622 C 0.64022 0.66269 0.12606
 C623 C 0.65848 0.68153 0.14424
 C624 C 0.67897 0.66461 0.15986
 C625 C 0.68140 0.62852 0.15544
 C626 C 0.66308 0.60961 0.13708
 C627 C 0.62127 0.60652 0.10632
 C628 C 0.62622 0.57957 0.08226
 C629 C 0.60634 0.56184 0.06599
 C630 C 0.58113 0.57054 0.07375
 C631 C 0.57631 0.59699 0.09844
 C632 C 0.59611 0.61476 0.11444
 H633 H 0.65640 0.70940 0.14639
 H634 H 0.69690 0.61474 0.16734
 H635 H 0.61071 0.54157 0.04713
 H636 H 0.55719 0.60436 0.10519
 H637 H 0.66488 0.58168 0.13514
 H638 H 0.64545 0.57276 0.07547
 H639 H 0.62449 0.67646 0.11471
 H640 H 0.59172 0.63498 0.13335
 C641 C 0.86200 -0.12718 0.12249
 C642 C 0.83973 -0.13844 0.10608
 C643 C 0.82150 -0.15722 0.12516
 C644 C 0.82525 -0.16505 0.16094
 C645 C 0.84708 -0.15261 0.17753
 C646 C 0.86520 -0.13392 0.15857
 C647 C 0.88241 -0.10959 0.10217
 C648 C 0.90766 -0.11851 0.10812
 C649 C 0.92718 -0.10135 0.09042
 C650 C 0.92200 -0.07476 0.06620
 C651 C 0.89669 -0.06629 0.05958
 C652 C 0.87707 -0.08361 0.07734
 H653 H 0.80489 -0.16659 0.11168
 H654 H 0.85020 -0.15747 0.20528
 H655 H 0.94639 -0.10882 0.09604
 H656 H 0.89203 -0.04601 0.04101
 H657 H 0.88185 -0.12483 0.17215
 H658 H 0.91236 -0.13890 0.12654
 H659 H 0.83682 -0.13373 0.07826
 H660 H 0.85777 -0.07614 0.07231
 C661 C 0.86077 0.36577 0.62217
 C662 C 0.83592 0.36243 0.61028
 C663 C 0.81775 0.34467 0.63046
 C664 C 0.82390 0.32929 0.66329
 C665 C 0.84895 0.33412 0.67525
 C666 C 0.86688 0.35194 0.65513
 C667 C 0.88055 0.38329 0.60055
 C668 C 0.90514 0.36987 0.59954
 C669 C 0.92442 0.38738 0.58165
 C670 C 0.91960 0.41870 0.56404
 C671 C 0.89479 0.43149 0.56375
 C672 C 0.87545 0.41397 0.58189
 H673 H 0.79942 0.34150 0.61869
 H674 H 0.85494 0.32574 0.70101
 H675 H 0.94321 0.37650 0.58201
 H676 H 0.89046 0.45555 0.55040
 H677 H 0.88562 0.35530 0.66574
 H678 H 0.90957 0.34585 0.61290
 H679 H 0.83068 0.37261 0.58477
 H680 H 0.85671 0.42503 0.58229
 C681 C 0.35957 -0.12960 0.62227
 C682 C 0.33767 -0.14187 0.60566
 C683 C 0.31957 -0.16083 0.62479
 C684 C 0.32306 -0.16776 0.66083
 C685 C 0.34449 -0.15424 0.67759
 C686 C 0.36251 -0.13544 0.65855
 C687 C 0.37991 -0.11200 0.60191
 C688 C 0.40517 -0.12069 0.60806
 C689 C 0.42465 -0.10355 0.59028
 C690 C 0.41943 -0.07716 0.56587
 C691 C 0.39410 -0.06889 0.55909
 C692 C 0.37451 -0.08627 0.57686
 H693 H 0.30330 -0.17105 0.61114
 H694 H 0.34740 -0.15836 0.70550
 H695 H 0.44388 -0.11083 0.59608
 H696 H 0.38942 -0.04871 0.54042
 H697 H 0.37891 -0.12560 0.67221
 H698 H 0.40989 -0.14088 0.62671
 H699 H 0.33499 -0.13784 0.57769
 H700 H 0.35519 -0.07901 0.57170
 C701 C 0.36235 0.37615 0.12680
 C702 C 0.34102 0.36299 0.10945
 C703 C 0.32259 0.34421 0.12816
 C704 C 0.32516 0.33830 0.16454
 C705 C 0.34603 0.35261 0.18200
 C706 C 0.36439 0.37127 0.16337
 C707 C 0.38298 0.39383 0.10694
 C708 C 0.40823 0.38649 0.11483
 C709 C 0.42786 0.40341 0.09706
 C710 C 0.42279 0.42822 0.07093
 C711 C 0.39751 0.43526 0.06261
 C712 C 0.37779 0.41814 0.08038
 H713 H 0.30679 0.33334 0.11395
 H714 H 0.34824 0.34926 0.21015
 H715 H 0.44706 0.39717 0.10411
 H716 H 0.39293 0.45415 0.04254
 H717 H 0.38030 0.38179 0.17762
 H718 H 0.41284 0.36742 0.13470
 H719 H 0.33902 0.36620 0.08125
 H720 H 0.35851 0.42441 0.07384
 C721 C 0.86057 0.12422 -0.12262
 C722 C 0.83834 0.13448 -0.10514
 C723 C 0.81913 0.15114 -0.12362
 C724 C 0.82173 0.15760 -0.15997
 C725 C 0.84381 0.14681 -0.17745
 C726 C 0.86298 0.13031 -0.15902
 C727 C 0.88148 0.10770 -0.10316
 C728 C 0.90656 0.11728 -0.11050
 C729 C 0.92645 0.10088 -0.09352
 C730 C 0.92177 0.07444 -0.06877
 C731 C 0.89663 0.06533 -0.06082
 C732 C 0.87668 0.08186 -0.07780
 H733 H 0.80224 0.15895 -0.10950
 H734 H 0.84656 0.15181 -0.20532
 H735 H 0.94554 0.10876 -0.10015
 H736 H 0.89235 0.04511 -0.04184
 H737 H 0.87974 0.12228 -0.17331
 H738 H 0.91082 0.13755 -0.12943
 H739 H 0.83603 0.13028 -0.07706
 H740 H 0.85753 0.07383 -0.07177
 C741 C 0.85741 0.62579 0.38605
 C742 C 0.84723 0.61180 0.35511
 C743 C 0.82883 0.62988 0.33649
 C744 C 0.81986 0.66210 0.34880
 C745 C 0.82950 0.67531 0.38065
 C746 C 0.84828 0.65754 0.39882
 C747 C 0.87821 0.60792 0.40416
 C748 C 0.90086 0.62561 0.41095
 C749 C 0.92107 0.60832 0.42639
 C750 C 0.91878 0.57325 0.43602
 C751 C 0.89588 0.55579 0.42996
 C752 C 0.87588 0.57288 0.41377
 H753 H 0.82232 0.61908 0.31183
 H754 H 0.82267 0.69951 0.39154
 H755 H 0.93847 0.62240 0.43094
 H756 H 0.89366 0.52870 0.43699
 H757 H 0.85571 0.66858 0.42289
 H758 H 0.90308 0.65260 0.40353
 H759 H 0.85419 0.58744 0.34466
 H760 H 0.85854 0.55881 0.40880
 C761 C 0.35873 0.12437 0.37740
 C762 C 0.33893 0.14099 0.39519
 C763 C 0.32028 0.15856 0.37643
 C764 C 0.32060 0.15976 0.33897
 C765 C 0.34044 0.14172 0.32162
 C766 C 0.35911 0.12462 0.34050
 C767 C 0.37949 0.10764 0.39697
 C768 C 0.40461 0.11366 0.38666
 C769 C 0.42434 0.09726 0.40400
 C770 C 0.41945 0.07417 0.43196
 C771 C 0.39428 0.06844 0.44261
 C772 C 0.37449 0.08523 0.42542
 H773 H 0.30525 0.16997 0.39189
 H774 H 0.34301 0.14227 0.29335
 H775 H 0.44345 0.10234 0.39505
 H776 H 0.38986 0.05081 0.46404
 H777 H 0.37415 0.11180 0.32608
 H778 H 0.40900 0.13118 0.36511
 H779 H 0.33812 0.14096 0.42375
 H780 H 0.35526 0.08006 0.43379
 C781 C 0.36038 0.62852 -0.11611
 C782 C 0.35952 0.66492 -0.11772
 C783 C 0.34054 0.68158 -0.13647
 C784 C 0.32204 0.66220 -0.15417
 C785 C 0.32259 0.62579 -0.15200
 C786 C 0.34152 0.60912 -0.13305
 C787 C 0.38145 0.61089 -0.09803
 C788 C 0.40631 0.62283 -0.10272
 C789 C 0.42635 0.60578 -0.08669
 C790 C 0.42200 0.57642 -0.06546
 C791 C 0.39707 0.56470 -0.06041
 C792 C 0.37701 0.58169 -0.07664
 H793 H 0.34077 0.70964 -0.13796
 H794 H 0.30845 0.61021 -0.16512
 H795 H 0.44529 0.61554 -0.09115
 H796 H 0.39303 0.54219 -0.04419
 H797 H 0.34182 0.58102 -0.13248
 H798 H 0.41034 0.64499 -0.11942
 H799 H 0.37366 0.68053 -0.10462
 H800 H 0.35801 0.57211 -0.07232
 C801 C 1.13861 -0.12510 -0.13171
 C802 C 1.13263 -0.15813 -0.14507
 C803 C 1.15096 -0.17824 -0.16184
 C804 C 1.17585 -0.16600 -0.16548
 C805 C 1.18196 -0.13311 -0.15178
 C806 C 1.16353 -0.11287 -0.13504
 C807 C 1.11872 -0.10368 -0.11461
 C808 C 1.12378 -0.08414 -0.08411
 C809 C 1.10450 -0.06571 -0.06707
 C810 C 1.07977 -0.06662 -0.08012
 C811 C 1.07494 -0.08533 -0.11117
 C812 C 1.09418 -0.10350 -0.12826
 H813 H 1.14550 -0.20322 -0.17248
 H814 H 1.20102 -0.12307 -0.15382
 H815 H 1.10883 -0.05156 -0.04317
 H816 H 1.05618 -0.08624 -0.12221
 H817 H 1.16870 -0.08745 -0.12521
 H818 H 1.14246 -0.08394 -0.07280
 H819 H 1.11372 -0.16859 -0.14243
 H820 H 1.08978 -0.11759 -0.15216
 C821 C 1.13885 0.38028 0.36859
 C822 C 1.14455 0.38557 0.33274
 C823 C 1.16338 0.36611 0.31602
 C824 C 1.17662 0.34063 0.33469
 C825 C 1.17105 0.33551 0.37061
 C826 C 1.15248 0.35533 0.38746
 C827 C 1.11823 0.39993 0.38601
 C828 C 1.12172 0.41490 0.41941
 C829 C 1.10193 0.43230 0.43636
 C830 C 1.07813 0.43460 0.42046
 C831 C 1.07476 0.41991 0.38688
 C832 C 1.09466 0.40297 0.36973
 H833 H 1.16716 0.37038 0.28824
 H834 H 1.18109 0.31617 0.38563
 H835 H 1.10511 0.44319 0.46230
 H836 H 1.05667 0.42129 0.37393
 H837 H 1.14832 0.35057 0.41506
 H838 H 1.13977 0.41311 0.43241
 H839 H 1.13441 0.40479 0.31766
 H840 H 1.09143 0.39142 0.34411
 C841 C 0.63887 -0.12173 0.37085
 C842 C 0.63459 -0.15591 0.35938
 C843 C 0.65386 -0.17496 0.34337
 C844 C 0.67800 -0.16041 0.33855
 C845 C 0.68239 -0.12628 0.35023
 C846 C 0.66304 -0.10715 0.36626
 C847 C 0.61809 -0.10161 0.38753
 C848 C 0.62257 -0.08031 0.41695
 C849 C 0.60267 -0.06289 0.43364
 C850 C 0.57785 -0.06644 0.42130
 C851 C 0.57350 -0.08710 0.39138
 C852 C 0.59338 -0.10439 0.37467
 H853 H 0.64969 -0.20096 0.33421
 H854 H 0.70082 -0.11442 0.34713
 H855 H 0.60669 -0.04725 0.45669
 H856 H 0.55468 -0.09018 0.38096
 H857 H 0.66689 -0.08079 0.37459
 H858 H 0.64134 -0.07788 0.42770
 H859 H 0.61631 -0.16811 0.36299
 H860 H 0.58937 -0.12002 0.35163
 C861 C 0.63898 0.37682 -0.12867
 C862 C 0.63312 0.34351 -0.14140
 C863 C 0.65143 0.32343 -0.15829
 C864 C 0.67618 0.33598 -0.16268
 C865 C 0.68218 0.36916 -0.14959
 C866 C 0.66377 0.38936 -0.13273
 C867 C 0.61908 0.39822 -0.11153
 C868 C 0.62425 0.41833 -0.08145
 C869 C 0.60497 0.43674 -0.06436
 C870 C 0.58012 0.43525 -0.07695
 C871 C 0.57517 0.41596 -0.10761
 C872 C 0.59441 0.39782 -0.12473
 H873 H 0.64603 0.29824 -0.16846
 H874 H 0.70113 0.37945 -0.15223
 H875 H 0.60940 0.45135 -0.04079
 H876 H 0.55633 0.41460 -0.11831
 H877 H 0.66885 0.41500 -0.12339
 H878 H 0.64303 0.41900 -0.07050
 H879 H 0.61433 0.33281 -0.13821
 H880 H 0.58990 0.38329 -0.14833
 C881 C 1.14003 0.12956 -0.12638
 C882 C 1.16399 0.11554 -0.13290
 C883 C 1.18274 0.13525 -0.14982
 C884 C 1.17813 0.16976 -0.16072
 C885 C 1.15400 0.18365 -0.15332
 C886 C 1.13540 0.16393 -0.13644
 C887 C 1.11965 0.10851 -0.10967
 C888 C 1.09477 0.11119 -0.12177
 C889 C 1.07524 0.09291 -0.10525
 C890 C 1.08008 0.07127 -0.07629
 C891 C 1.10507 0.06779 -0.06471
 C892 C 1.12466 0.08626 -0.08123
 H893 H 1.20099 0.12331 -0.15334
 H894 H 1.14865 0.20929 -0.16192
 H895 H 1.05629 0.09591 -0.11515
 H896 H 1.10944 0.05138 -0.04243
 H897 H 1.11720 0.17568 -0.13141
 H898 H 1.09037 0.12750 -0.14412
 H899 H 1.16816 0.08908 -0.12541
 H900 H 1.14361 0.08383 -0.07116
 C901 C 1.13795 0.62773 0.37763
 C902 C 1.16253 0.61437 0.37484
 C903 C 1.18162 0.63329 0.35768
 C904 C 1.17652 0.66596 0.34287
 C905 C 1.15198 0.67935 0.34600
 C906 C 1.13303 0.66061 0.36331
 C907 C 1.11732 0.60751 0.39492
 C908 C 1.09275 0.60850 0.38135
 C909 C 1.07304 0.59074 0.39811
 C910 C 1.07742 0.57118 0.42867
 C911 C 1.10207 0.56946 0.44189
 C912 C 1.12180 0.58754 0.42526
 H913 H 1.20036 0.62235 0.35609
 H914 H 1.14720 0.70413 0.33445
 H915 H 1.05435 0.59224 0.38695
 H916 H 1.10604 0.55470 0.46549
 H917 H 1.11445 0.67200 0.36549
 H918 H 1.08871 0.62290 0.35757
 H919 H 1.16694 0.58901 0.38533
 H920 H 1.14044 0.58649 0.43662
 C921 C 0.63846 0.12595 0.37442
 C922 C 0.66313 0.11281 0.37233
 C923 C 0.68228 0.13170 0.35531
 C924 C 0.67715 0.16411 0.33996
 C925 C 0.65250 0.17724 0.34231
 C926 C 0.63348 0.15854 0.35948
 C927 C 0.61781 0.10589 0.39177
 C928 C 0.59334 0.10638 0.37781
 C929 C 0.57356 0.08901 0.39478
 C930 C 0.57778 0.07034 0.42596
 C931 C 0.60235 0.06902 0.43953
 C932 C 0.62215 0.08673 0.42268
 H933 H 0.70111 0.12097 0.35428
 H934 H 0.64771 0.20180 0.33029
 H935 H 0.55493 0.09015 0.38337
 H936 H 0.60619 0.05493 0.46359
 H937 H 0.61482 0.16975 0.36111
 H938 H 0.58945 0.12016 0.35360
 H939 H 0.66756 0.08766 0.38332
 H940 H 0.64070 0.08609 0.43433
 C941 C 0.64138 0.63073 -0.12259
 C942 C 0.66432 0.61509 -0.13193
 C943 C 0.68329 0.63415 -0.14912
 C944 C 0.67993 0.66963 -0.15746
 C945 C 0.65694 0.68520 -0.14696
 C946 C 0.63809 0.66608 -0.12988
 C947 C 0.62063 0.61034 -0.10598
 C948 C 0.59558 0.61565 -0.11638
 C949 C 0.57582 0.59752 -0.10017
 C950 C 0.58060 0.57352 -0.07317
 C951 C 0.60572 0.56764 -0.06321
 C952 C 0.62553 0.58585 -0.07947
 H953 H 0.70073 0.62086 -0.15500
 H954 H 0.65257 0.71180 -0.15338
 H955 H 0.55676 0.60253 -0.10874
 H956 H 0.61007 0.54936 -0.04247
 H957 H 0.62071 0.67902 -0.12260
 H958 H 0.59123 0.63381 -0.13721
 H959 H 0.66745 0.58785 -0.12656
 H960 H 0.64463 0.58137 -0.07074
 C961 C 0.85899 -0.11779 -0.12687
 C962 C 0.84272 -0.14062 -0.10878
 C963 C 0.82365 -0.15823 -0.12680
 C964 C 0.82027 -0.15293 -0.16312
 C965 C 0.83600 -0.12920 -0.18093
 C966 C 0.85529 -0.11197 -0.16302
 C967 C 0.88038 -0.10113 -0.10844
 C968 C 0.90462 -0.10157 -0.12366
 C969 C 0.92497 -0.08634 -0.10627
 C970 C 0.92145 -0.06992 -0.07349
 C971 C 0.89717 -0.06941 -0.05828
 C972 C 0.87686 -0.08512 -0.07548
 H973 H 0.81168 -0.17627 -0.11245
 H974 H 0.83393 -0.12488 -0.20897
 H975 H 0.94341 -0.08705 -0.11874
 H976 H 0.89388 -0.05704 -0.03300
 H977 H 0.86746 -0.09427 -0.17748
 H978 H 0.90787 -0.11409 -0.14886
 H979 H 0.84527 -0.14566 -0.08095
 H980 H 0.85833 -0.08437 -0.06327
 C981 C 0.85725 0.37924 0.37379
 C982 C 0.84294 0.35401 0.39180
 C983 C 0.82397 0.33565 0.37438
 C984 C 0.81874 0.34261 0.33884
 C985 C 0.83252 0.36862 0.32118
 C986 C 0.85173 0.38660 0.33844
 C987 C 0.87848 0.39695 0.39145
 C988 C 0.90216 0.39913 0.37471
 C989 C 0.92246 0.41502 0.39162
 C990 C 0.91935 0.42949 0.42538
 C991 C 0.89557 0.42760 0.44199
 C992 C 0.87537 0.41121 0.42528
 H993 H 0.81352 0.31579 0.38855
 H994 H 0.82899 0.37422 0.29369
 H995 H 0.94053 0.41620 0.37813
 H996 H 0.89264 0.43840 0.46809
 H997 H 0.86241 0.40612 0.32411
 H998 H 0.90505 0.38802 0.34874
 H999 H 0.84695 0.34779 0.41902
 H1000 H 0.85725 0.40994 0.43863
 C1001 C 0.35693 -0.12177 0.37678
 C1002 C 0.34736 -0.15275 0.39075
 C1003 C 0.32850 -0.17114 0.37317
 C1004 C 0.31815 -0.15870 0.34120
 C1005 C 0.32737 -0.12638 0.32844
 C1006 C 0.34671 -0.10861 0.34569
 C1007 C 0.37813 -0.10380 0.39403
 C1008 C 0.40065 -0.09767 0.37528
 C1009 C 0.42108 -0.08164 0.39179
 C1010 C 0.41909 -0.07074 0.42705
 C1011 C 0.39641 -0.07650 0.44565
 C1012 C 0.37620 -0.09332 0.42938
 H1013 H 0.32158 -0.19446 0.38583
 H1014 H 0.32123 -0.11553 0.30371
 H1015 H 0.43832 -0.07733 0.37685
 H1016 H 0.39447 -0.06847 0.47292
 H1017 H 0.35392 -0.08464 0.33450
 H1018 H 0.40251 -0.10578 0.34803
 H1019 H 0.35487 -0.16312 0.41502
 H1020 H 0.35896 -0.09787 0.44424
 C1021 C 0.36077 0.38257 -0.12517
 C1022 C 0.33901 0.37054 -0.10757
 C1023 C 0.31997 0.35346 -0.12620
 C1024 C 0.32227 0.34827 -0.16280
 C1025 C 0.34378 0.36107 -0.18044
 C1026 C 0.36279 0.37802 -0.16185
 C1027 C 0.38172 0.39893 -0.10543
 C1028 C 0.40681 0.39041 -0.11370
 C1029 C 0.42672 0.40621 -0.09596
 C1030 C 0.42205 0.43098 -0.06948
 C1031 C 0.39692 0.43914 -0.06077
 C1032 C 0.37695 0.42320 -0.07852
 H1033 H 0.30350 0.34415 -0.11195
 H1034 H 0.34628 0.35714 -0.20853
 H1035 H 0.44580 0.39913 -0.10327
 H1036 H 0.39265 0.45810 -0.04049
 H1037 H 0.37919 0.38744 -0.17619
 H1038 H 0.41106 0.37132 -0.13385
 H1039 H 0.33701 0.37353 -0.07929
 H1040 H 0.35779 0.43040 -0.07174
 C1041 C 1.13822 -0.12446 0.12402
 C1042 C 1.16338 -0.12604 0.11197
 C1043 C 1.18118 -0.14620 0.12966
 C1044 C 1.17444 -0.16478 0.16032
 C1045 C 1.14937 -0.16271 0.17254
 C1046 C 1.13150 -0.14340 0.15440
 C1047 C 1.11888 -0.10363 0.10507
 C1048 C 1.09840 -0.08900 0.12370
 C1049 C 1.07914 -0.07201 0.10590
 C1050 C 1.08028 -0.06812 0.06921
 C1051 C 1.10114 -0.08106 0.05051
 C1052 C 1.12011 -0.09907 0.06819
 H1053 H 1.20015 -0.14737 0.11901
 H1054 H 1.14338 -0.17579 0.19644
 H1055 H 1.06335 -0.06171 0.12084
 H1056 H 1.10226 -0.07843 0.02210
 H1057 H 1.11229 -0.14373 0.16424
 H1058 H 1.09709 -0.09069 0.15213
 H1059 H 1.16949 -0.11153 0.08900
 H1060 H 1.13527 -0.11026 0.05273
 C1061 C 1.13826 0.37647 0.62403
 C1062 C 1.16072 0.36645 0.60698
 C1063 C 1.17963 0.34939 0.62568
 C1064 C 1.17650 0.34223 0.66182
 C1065 C 1.15420 0.35281 0.67890
 C1066 C 1.13534 0.36975 0.66025
 C1067 C 1.11757 0.39308 0.60419
 C1068 C 1.09245 0.38316 0.61072
 C1069 C 1.07274 0.39915 0.59299
 C1070 C 1.07763 0.42551 0.56820
 C1071 C 1.10280 0.43517 0.56125
 C1072 C 1.12259 0.41905 0.57904
 H1073 H 1.19671 0.34183 0.61188
 H1074 H 1.15106 0.34733 0.70660
 H1075 H 1.05363 0.39087 0.59890
 H1076 H 1.10723 0.45539 0.54233
 H1077 H 1.11839 0.37756 0.67422
 H1078 H 1.08802 0.36280 0.62948
 H1079 H 1.16343 0.37112 0.57904
 H1080 H 1.14176 0.42738 0.57365
 C1081 C 0.63857 -0.12840 0.61634
 C1082 C 0.65994 -0.11117 0.62949
 C1083 C 0.67849 -0.12959 0.64763
 C1084 C 0.67599 -0.16556 0.65295
 C1085 C 0.65513 -0.18290 0.63851
 C1086 C 0.63666 -0.16456 0.62044
 C1087 C 0.61774 -0.10881 0.59972
 C1088 C 0.59257 -0.11738 0.60774
 C1089 C 0.57277 -0.09955 0.59206
 C1090 C 0.57760 -0.07263 0.56789
 C1091 C 0.60281 -0.06372 0.56012
 C1092 C 0.62268 -0.08157 0.57596
 H1093 H 0.69426 -0.11548 0.65867
 H1094 H 0.65296 -0.21071 0.64148
 H1095 H 0.55363 -0.10705 0.59884
 H1096 H 0.60723 -0.04310 0.54164
 H1097 H 0.62071 -0.17868 0.60989
 H1098 H 0.58814 -0.13779 0.62645
 H1099 H 0.66186 -0.08330 0.62692
 H1100 H 0.64190 -0.07450 0.56916
 C1101 C 0.63891 0.37609 0.12436
 C1102 C 0.66403 0.37467 0.11216
 C1103 C 0.68177 0.35391 0.12920
 C1104 C 0.67500 0.33456 0.15933
 C1105 C 0.64995 0.33640 0.17169
 C1106 C 0.63213 0.35635 0.15418
 C1107 C 0.61965 0.39757 0.10611
 C1108 C 0.59938 0.41207 0.12527
 C1109 C 0.58013 0.42961 0.10803
 C1110 C 0.58111 0.43417 0.07142
 C1111 C 0.60180 0.42138 0.05224
 C1112 C 0.62074 0.40284 0.06934
 H1113 H 0.70073 0.35292 0.11848
 H1114 H 0.64396 0.32269 0.19522
 H1115 H 0.56447 0.43977 0.12334
 H1116 H 0.60277 0.42449 0.02386
 H1117 H 0.61293 0.35591 0.16405
 H1118 H 0.59821 0.40977 0.15367
 H1119 H 0.67014 0.38978 0.08959
 H1120 H 0.63575 0.39176 0.05350
 C1121 C 0.86407 0.12764 0.12457
 C1122 C 0.87041 0.14811 0.15394
 C1123 C 0.85211 0.16728 0.17186
 C1124 C 0.82697 0.16762 0.16036
 C1125 C 0.82062 0.14756 0.13066
 C1126 C 0.83886 0.12756 0.11323
 C1127 C 0.88379 0.10678 0.10601
 C1128 C 0.88260 0.10057 0.06941
 C1129 C 0.90173 0.08212 0.05209
 C1130 C 0.92271 0.07042 0.07082
 C1131 C 0.92389 0.07615 0.10724
 C1132 C 0.90448 0.09358 0.12474
 H1133 H 0.85782 0.18159 0.19503
 H1134 H 0.80160 0.14741 0.12057
 H1135 H 0.90058 0.07806 0.02387
 H1136 H 0.93978 0.06681 0.12224
 H1137 H 0.83306 0.11183 0.09106
 H1138 H 0.86728 0.11067 0.05388
 H1139 H 0.88963 0.14970 0.16314
 H1140 H 0.90578 0.09662 0.15303
 C1141 C 0.86127 0.62505 0.62601
 C1142 C 0.86786 0.64473 0.65583
 C1143 C 0.85004 0.66507 0.67336
 C1144 C 0.82516 0.66741 0.66105
 C1145 C 0.81855 0.64808 0.63096
 C1146 C 0.83629 0.62693 0.61389
 C1147 C 0.88055 0.60315 0.60770
 C1148 C 0.87977 0.59758 0.57096
 C1149 C 0.89868 0.57851 0.55385
 C1150 C 0.91906 0.56545 0.57297
 C1151 C 0.91975 0.57037 0.60954
 C1152 C 0.90052 0.58845 0.62679
 H1153 H 0.85590 0.67874 0.69686
 H1154 H 0.79974 0.64941 0.62027
 H1155 H 0.89792 0.57513 0.52550
 H1156 H 0.93517 0.56004 0.62482
 H1157 H 0.83028 0.61189 0.59134
 H1158 H 0.86501 0.60879 0.55515
 H1159 H 0.88695 0.64483 0.66567
 H1160 H 0.90147 0.59094 0.65517
 C1161 C 0.36194 0.12584 0.62774
 C1162 C 0.36858 0.14483 0.65799
 C1163 C 0.35078 0.16476 0.67603
 C1164 C 0.32589 0.16738 0.66383
 C1165 C 0.31921 0.14861 0.63341
 C1166 C 0.33692 0.12786 0.61581
 C1167 C 0.38123 0.10457 0.60874
 C1168 C 0.38037 0.10002 0.57186
 C1169 C 0.39930 0.08156 0.55412
 C1170 C 0.41976 0.06812 0.57276
 C1171 C 0.42056 0.07205 0.60944
 C1172 C 0.40132 0.08951 0.62730
 H1173 H 0.35667 0.17798 0.69977
 H1174 H 0.30036 0.15018 0.62284
 H1175 H 0.39848 0.07893 0.52571
 H1176 H 0.43604 0.06138 0.62433
 H1177 H 0.33089 0.11330 0.59296
 H1178 H 0.36552 0.11156 0.55645
 H1179 H 0.38769 0.14477 0.66773
 H1180 H 0.40233 0.09123 0.65573
 C1181 C 0.36423 0.62953 0.12775
 C1182 C 0.37037 0.64939 0.15763
 C1183 C 0.35198 0.66830 0.17566
 C1184 C 0.32693 0.66906 0.16377
 C1185 C 0.32078 0.64958 0.13358
 C1186 C 0.33911 0.62979 0.11606
 C1187 C 0.38408 0.60895 0.10903
 C1188 C 0.38304 0.60317 0.07234
 C1189 C 0.40223 0.58492 0.05491
 C1190 C 0.42315 0.57300 0.07363
 C1191 C 0.42422 0.57835 0.11011
 C1192 C 0.40473 0.59555 0.12771
 H1193 H 0.35754 0.68212 0.19921
 H1194 H 0.30186 0.64974 0.12317
 H1195 H 0.40116 0.58113 0.02664
 H1196 H 0.44005 0.56881 0.12510
 H1197 H 0.33343 0.61452 0.09350
 H1198 H 0.36777 0.61344 0.05681
 H1199 H 0.38951 0.65074 0.16717
 H1200 H 0.40594 0.59821 0.15604
   
