data_POSCAR
  _audit_creation_date              2014-09-24
  _audit_creation_method            'ToBaCCo'
  _symmetry_space_group_name_H-M    'P1'
  _symmetry_Int_Tables_number       1
  _symmetry_cell_setting            triclinic
  loop_
  _symmetry_equiv_pos_as_xyz
 x,y,z
_cell_length_a 39.8611
_cell_length_b 34.4268
_cell_length_c 19.5241
_cell_angle_alpha 89.304000
_cell_angle_beta 88.998200
_cell_angle_gamma 90.362000
loop_
  _atom_site_label
  _atom_site_type_symbol
  _atom_site_fract_x
  _atom_site_fract_y
  _atom_site_fract_z
C1 C 0.69750 0.34758 0.48906
 C2 C 0.71715 0.34225 0.54748
 C3 C 0.73673 0.30872 0.55238
 C4 C 0.73658 0.28046 0.50082
 C5 C 0.71684 0.28682 0.44223
 C6 C 0.69790 0.32087 0.43530
 C7 C 0.75781 0.24509 0.50824
 C8 C 0.77379 0.22893 0.45043
 C9 C 0.79614 0.19778 0.45708
 C10 C 0.80140 0.18196 0.52297
 C11 C 0.78541 0.19707 0.58130
 C12 C 0.76378 0.22867 0.57360
 H13 H 0.67999 0.37125 0.48652
 H14 H 0.75247 0.30489 0.59660
 H15 H 0.71600 0.26538 0.40217
 H16 H 0.77015 0.24188 0.40027
 H17 H 0.81805 0.15784 0.53007
 H18 H 0.75146 0.24016 0.61880
 C19 C 0.17035 0.80233 0.53235
 C20 C 0.18309 0.78351 0.59075
 C21 C 0.21167 0.76002 0.58279
 C22 C 0.22737 0.75527 0.51780
 C23 C 0.21401 0.77494 0.46096
 C24 C 0.18528 0.79770 0.46740
 C25 C 0.25823 0.73109 0.50878
 C26 C 0.26572 0.71325 0.44549
 C27 C 0.29613 0.69393 0.43483
 C28 C 0.31828 0.68980 0.48930
 C29 C 0.31077 0.70543 0.55409
 C30 C 0.28104 0.72667 0.56261
 H31 H 0.15034 0.82304 0.53806
 H32 H 0.22110 0.74488 0.62730
 H33 H 0.22627 0.77340 0.41119
 H34 H 0.24823 0.71464 0.40378
 H35 H 0.34031 0.67229 0.48101
 H36 H 0.27609 0.74028 0.61140
 C37 C 0.33090 0.29224 -0.51322
 C38 C 0.31990 0.27684 -0.57532
 C39 C 0.28953 0.25615 -0.57633
 C40 C 0.26924 0.25197 -0.51687
 C41 C 0.28052 0.26867 -0.45544
 C42 C 0.31174 0.28760 -0.45278
 C43 C 0.23645 0.23045 -0.51881
 C44 C 0.22400 0.21116 -0.45966
 C45 C 0.19250 0.19279 -0.45844
 C46 C 0.17427 0.19105 -0.51954
 C47 C 0.18678 0.20837 -0.58037
 C48 C 0.21748 0.22864 -0.57922
 H49 H 0.35340 0.30986 -0.51219
 H50 H 0.28187 0.24348 -0.62408
 H51 H 0.26510 0.26732 -0.40930
 H52 H 0.23875 0.21063 -0.41361
 H53 H 0.15148 0.17401 -0.52129
 H54 H 0.22626 0.24306 -0.62575
 C55 C -0.16715 0.79313 -0.48537
 C56 C -0.18078 0.78493 -0.54975
 C57 C -0.21132 0.76420 -0.55156
 C58 C -0.22707 0.74957 -0.49105
 C59 C -0.21260 0.75803 -0.42782
 C60 C -0.18325 0.78025 -0.42455
 C61 C -0.25841 0.72550 -0.49395
 C62 C -0.28242 0.72510 -0.43952
 C63 C -0.31192 0.70273 -0.44329
 C64 C -0.31768 0.68128 -0.50248
 C65 C -0.29444 0.68159 -0.55698
 C66 C -0.26450 0.70247 -0.55167
 H67 H -0.14536 0.81171 -0.48163
 H68 H -0.22277 0.75950 -0.60066
 H69 H -0.22386 0.74720 -0.38044
 H70 H -0.27877 0.74255 -0.39453
 H71 H -0.33988 0.66312 -0.50571
 H72 H -0.24631 0.70096 -0.59332
 O73 O -0.00736 0.95011 0.10728
 O74 O 0.04120 0.98151 -0.12049
 O75 O -0.06395 0.96348 -0.05950
 O76 O 0.05080 0.97004 0.09335
 O77 O -0.01821 0.95771 -0.12537
 O78 O 0.02417 0.99794 0.17754
 O79 O 0.05364 0.95515 -0.02620
 O80 O -0.05806 0.95707 0.06926
 C81 C -0.03662 0.93708 0.10127
 C82 C 0.05130 0.95252 -0.08912
 C83 C -0.04720 0.94660 -0.10681
 C84 C 0.05002 0.97857 0.15659
 O85 O 0.00434 1.05514 0.10511
 O86 O -0.03820 1.02755 -0.13340
 O87 O -0.06058 1.03782 0.07437
 O88 O 0.06297 1.03375 -0.05690
 O89 O 0.01907 1.05294 -0.11180
 O90 O -0.03796 1.00730 0.15419
 O91 O 0.05380 1.04762 0.06355
 O92 O -0.06735 1.04164 -0.04410
 Co93 Co -0.00028 1.00283 0.10167
 Co94 Co 0.00087 1.00490 -0.11154
 Co95 Co -0.05745 0.99991 0.00986
 Co96 Co 0.05008 1.00197 0.01643
 O97 O -0.00393 1.00340 -0.00056
 C98 C 0.03304 1.06839 0.09493
 C99 C -0.06226 1.04456 -0.10659
 C100 C -0.05964 1.03042 0.13647
 C101 C 0.04835 1.05870 -0.09354
 O102 O 0.46835 0.48471 0.12464
 O103 O 0.54667 0.46021 -0.10319
 O104 O 0.43992 0.45968 -0.08431
 O105 O 0.55095 0.45274 0.02211
 O106 O 0.48940 0.43938 -0.11073
 O107 O 0.52915 0.47709 0.11506
 O108 O 0.58820 0.49165 -0.06062
 O109 O 0.43997 0.45520 0.04498
 C110 C 0.44946 0.45736 0.10571
 C111 C 0.57686 0.47129 -0.11048
 C112 C 0.45853 0.43446 -0.11042
 C113 C 0.54506 0.45002 0.08526
 O114 O 0.53210 0.55487 0.07183
 O115 O 0.47095 0.51058 -0.15486
 O116 O 0.43066 0.52944 0.05195
 O117 O 0.55190 0.55069 -0.04951
 O118 O 0.52894 0.53333 -0.14283
 O119 O 0.47516 0.55981 0.07892
 O120 O 0.57313 0.51893 0.05837
 O121 O 0.43782 0.53566 -0.07664
 Co122 Co 0.50119 0.51764 0.08936
 Co123 Co 0.50825 0.48730 -0.11839
 Co124 Co 0.44292 0.49568 -0.01589
 Co125 Co 0.54941 0.50143 -0.01538
 O126 O 0.49809 0.50146 -0.01261
 C127 C 0.56172 0.54853 0.08486
 C128 C 0.44914 0.53506 -0.13692
 C129 C 0.44433 0.55843 0.07716
 C130 C 0.54521 0.55798 -0.11011
 C131 C 0.33772 0.28555 0.35905
 C132 C 0.37094 0.29843 0.35551
 C133 C 0.38419 0.32089 0.29659
 N134 N 0.41290 0.34168 0.30331
 N135 N 0.42348 0.36580 0.25363
 C136 C 0.40575 0.36997 0.19528
 N137 N 0.37744 0.34848 0.18776
 N138 N 0.36671 0.32453 0.23774
 C139 C 0.41613 0.39842 0.14230
 C140 C 0.43872 0.42811 0.15675
 H141 H 0.38661 0.29629 0.40004
 H142 H 0.40465 0.39715 0.09249
 H143 H 0.32319 0.28518 0.31265
 H144 H 0.44891 0.43024 0.20766
 C145 C -0.16573 0.79807 0.38801
 C146 C -0.13283 0.81252 0.38160
 C147 C -0.11901 0.82964 0.31733
 N148 N -0.08586 0.83877 0.31251
 N149 N -0.07322 0.85674 0.25690
 C150 C -0.09327 0.86638 0.20387
 N151 N -0.12640 0.85700 0.20845
 N152 N -0.13903 0.83885 0.26398
 C153 C -0.08050 0.89043 0.14584
 C154 C -0.04681 0.90153 0.13921
 H155 H -0.11596 0.81094 0.42426
 H156 H -0.09878 0.90342 0.11228
 H157 H -0.18009 0.79573 0.34157
 H158 H -0.02834 0.88771 0.17126
 C159 C 0.69802 0.66065 0.37984
 C160 C 0.66629 0.66372 0.35209
 C161 C 0.65483 0.64070 0.29453
 N162 N 0.62436 0.64838 0.26836
 N163 N 0.61178 0.62611 0.21995
 C164 C 0.62909 0.59515 0.19598
 N165 N 0.65986 0.58762 0.22159
 N166 N 0.67256 0.61007 0.27013
 C167 C 0.61364 0.56895 0.14649
 C168 C 0.58103 0.57572 0.12535
 H169 H 0.64837 0.68348 0.37503
 H170 H 0.62692 0.54324 0.13011
 H171 H 0.71754 0.64437 0.35394
 H172 H 0.56792 0.60143 0.14231
 C173 C 0.16971 1.20252 0.35334
 C174 C 0.13529 1.19490 0.34878
 C175 C 0.11982 1.17883 0.28693
 N176 N 0.08628 1.17167 0.28666
 N177 N 0.07227 1.15340 0.23440
 C178 C 0.09132 1.14153 0.18029
 N179 N 0.12479 1.14918 0.18012
 N180 N 0.13879 1.16752 0.23232
 C181 C 0.07719 1.11661 0.12672
 C182 C 0.04348 1.10511 0.12670
 H183 H 0.11922 1.19852 0.39349
 H184 H 0.09476 1.10286 0.09184
 H185 H 0.18507 1.20247 0.30701
 H186 H 0.02556 1.11950 0.15996
 C187 C 0.71585 0.36790 -0.39691
 C188 C 0.69978 0.40384 -0.39901
 C189 C 0.68562 0.42154 -0.33730
 N190 N 0.65845 0.44468 -0.34344
 N191 N 0.64217 0.45724 -0.28810
 C192 C 0.65271 0.44745 -0.22457
 N193 N 0.68054 0.42529 -0.21816
 N194 N 0.69657 0.41221 -0.27369
 C195 C 0.63294 0.45863 -0.16427
 C196 C 0.59812 0.45778 -0.16681
 H197 H 0.69275 0.41699 -0.44714
 H198 H 0.64550 0.46536 -0.11709
 H199 H 0.72619 0.35837 -0.34858
 H200 H 0.58592 0.44676 -0.21185
 C201 C 0.16899 0.78986 -0.34340
 C202 C 0.13635 0.80390 -0.33365
 C203 C 0.12364 0.82234 -0.27074
 N204 N 0.09134 0.83441 -0.26891
 N205 N 0.07985 0.85593 -0.21763
 C206 C 0.10017 0.86645 -0.16589
 N207 N 0.13237 0.85355 -0.16659
 N208 N 0.14396 0.83197 -0.21823
 C209 C 0.08833 0.89454 -0.11411
 C210 C 0.06073 0.91792 -0.12807
 H211 H 0.11905 0.80323 -0.37574
 H212 H 0.10338 0.90013 -0.06960
 H213 H 0.18376 0.78344 -0.29862
 H214 H 0.04789 0.91418 -0.17602
 C215 C 0.33078 0.69833 -0.38845
 C216 C 0.36226 0.68076 -0.39168
 C217 C 0.37692 0.66099 -0.33249
 N218 N 0.40518 0.63990 -0.34181
 N219 N 0.41698 0.61802 -0.29119
 C220 C 0.40094 0.61635 -0.22931
 N221 N 0.37303 0.63807 -0.21941
 N222 N 0.36111 0.65988 -0.27025
 C223 C 0.41270 0.59020 -0.17493
 C224 C 0.43674 0.56208 -0.18895
 H225 H 0.37582 0.67827 -0.43979
 H226 H 0.40146 0.59207 -0.12416
 H227 H 0.32053 0.70517 -0.33824
 H228 H 0.44726 0.55980 -0.24027
 C229 C -0.20651 1.18170 -0.34937
 C230 C -0.19741 1.14293 -0.33939
 C231 C -0.17756 1.12867 -0.28144
 N232 N -0.16170 1.09417 -0.28782
 N233 N -0.14128 1.08142 -0.23947
 C234 C -0.13600 1.10249 -0.18234
 N235 N -0.15245 1.13672 -0.17493
 N236 N -0.17268 1.14978 -0.22393
 C237 C -0.11204 1.08848 -0.13084
 C238 C -0.08493 1.06591 -0.15206
 H239 H -0.20144 1.12257 -0.38032
 H240 H -0.11547 1.09591 -0.07746
 H241 H -0.20522 1.20177 -0.30719
 H242 H -0.08071 1.06204 -0.20656
 C243 C 0.66437 0.69955 -0.38401
 C244 C 0.63015 0.69270 -0.39327
 C245 C 0.60801 0.67435 -0.34093
 N246 N 0.61904 0.66497 -0.27740
 N247 N 0.59976 0.64402 -0.23409
 C248 C 0.56884 0.63155 -0.25285
 N249 N 0.55773 0.64144 -0.31589
 N250 N 0.57690 0.66250 -0.35898
 C251 C 0.54905 0.60402 -0.20995
 C252 C 0.55793 0.59384 -0.14345
 H253 H 0.61993 0.69648 -0.44395
 H254 H 0.52851 0.58878 -0.23373
 H255 H 0.67442 0.69937 -0.33284
 H256 H 0.57707 0.61040 -0.11775
 C257 C 0.18074 1.17609 -0.39641
 C258 C 0.14730 1.16584 -0.38344
 C259 C 0.13601 1.14841 -0.31804
 N260 N 0.10293 1.14873 -0.30118
 N261 N 0.09181 1.13157 -0.24373
 C262 C 0.11328 1.11328 -0.20097
 N263 N 0.14646 1.11299 -0.21774
 N264 N 0.15767 1.13047 -0.27512
 C265 C 0.10021 1.09057 -0.14186
 C266 C 0.06621 1.09179 -0.12487
 H267 H 0.12807 1.17295 -0.41982
 H268 H 0.11613 1.06888 -0.11864
 H269 H 0.19805 1.17336 -0.35440
 H270 H 0.05080 1.11400 -0.14808
 C271 C 0.32328 0.30448 -0.38758
 C272 C 0.35735 0.30736 -0.37227
 C273 C 0.37020 0.32858 -0.31298
 N274 N 0.40368 0.32910 -0.30146
 N275 N 0.41628 0.35025 -0.25120
 C276 C 0.39586 0.37178 -0.21046
 N277 N 0.36231 0.37100 -0.22156
 N278 N 0.34968 0.34977 -0.27182
 C279 C 0.40973 0.39802 -0.15870
 C280 C 0.44418 0.40152 -0.14784
 H281 H 0.37571 0.29430 -0.40627
 H282 H 0.39256 0.41737 -0.13260
 H283 H 0.30467 0.31426 -0.35068
 H284 H 0.46137 0.38192 -0.17324
 C285 C -0.17153 0.79272 -0.35694
 C286 C -0.13787 0.79993 -0.34436
 C287 C -0.12692 0.82215 -0.28507
 N288 N -0.09373 0.82839 -0.27636
 N289 N -0.08321 0.85212 -0.22791
 C290 C -0.10544 0.87071 -0.18641
 N291 N -0.13871 0.86387 -0.19413
 N292 N -0.14927 0.84001 -0.24268
 C293 C -0.09373 0.90043 -0.13857
 C294 C -0.06031 0.91229 -0.14105
 H295 H -0.11896 0.79152 -0.38173
 H296 H -0.11176 0.91548 -0.10654
 H297 H -0.19011 0.79767 -0.31686
 H298 H -0.04284 0.89751 -0.17481
 C299 C 0.30455 0.67683 0.36740
 C300 C 0.33734 0.67856 0.34120
 C301 C 0.34940 0.65664 0.28148
 N302 N 0.38128 0.66261 0.25819
 N303 N 0.39419 0.64085 0.20855
 C304 C 0.37580 0.61205 0.18027
 N305 N 0.34370 0.60630 0.20300
 N306 N 0.33070 0.62821 0.25269
 C307 C 0.39129 0.58543 0.13020
 C308 C 0.42504 0.58932 0.11084
 H309 H 0.35575 0.69584 0.36767
 H310 H 0.37699 0.56051 0.11357
 H311 H 0.28494 0.66317 0.33827
 H312 H 0.43916 0.61421 0.12822
 C313 C -0.18747 1.18344 0.39801
 C314 C -0.16036 1.15790 0.40024
 C315 C -0.14536 1.13934 0.34002
 N316 N -0.12038 1.11356 0.34990
 N317 N -0.10664 1.09503 0.29734
 C318 C -0.11728 1.10148 0.23260
 N319 N -0.14216 1.12762 0.22232
 N320 N -0.15609 1.14617 0.27525
 C321 C -0.10171 1.08047 0.17512
 C322 C -0.07964 1.05024 0.18863
 H323 H -0.14860 1.15069 0.44804
 H324 H -0.10698 1.08906 0.12288
 H325 H -0.19572 1.19330 0.34816
 H326 H -0.07539 1.04137 0.24118
 C327 C 0.67683 0.32806 0.37419
 C328 C 0.66973 0.36610 0.35338
 C329 C 0.64052 0.37750 0.31318
 N330 N 0.63054 0.35799 0.25681
 N331 N 0.60513 0.37132 0.21952
 C332 C 0.58862 0.40417 0.23813
 N333 N 0.59840 0.42304 0.29493
 N334 N 0.62399 0.41016 0.33131
 C335 C 0.56191 0.42157 0.19695
 C336 C 0.56079 0.41881 0.12584
 H337 H 0.68310 0.38983 0.37682
 H338 H 0.54683 0.44350 0.22199
 H339 H 0.66510 0.30378 0.34901
 H340 H 0.57655 0.39800 0.09961
 C341 C 0.17263 0.81831 0.40609
 C342 C 0.13994 0.83213 0.40242
 C343 C 0.12846 0.85691 0.34615
 N344 N 0.09975 0.87718 0.35482
 N345 N 0.08901 0.90074 0.30559
 C346 C 0.10646 0.90481 0.24560
 N347 N 0.13502 0.88410 0.23632
 N348 N 0.14598 0.86072 0.28602
 C349 C 0.09385 0.93045 0.19129
 C350 C 0.07039 0.95873 0.20754
 H351 H 0.12208 0.82623 0.44361
 H352 H 0.10173 0.92596 0.13862
 H353 H 0.18958 0.82282 0.36268
 H354 H 0.06430 0.96427 0.26083
   
