data_POSCAR
  _audit_creation_date              2014-09-24
  _audit_creation_method            'ToBaCCo'
  _symmetry_space_group_name_H-M    'P1'
  _symmetry_Int_Tables_number       1
  _symmetry_cell_setting            triclinic
  loop_
  _symmetry_equiv_pos_as_xyz
 x,y,z
_cell_length_a 14.5383
_cell_length_b 15.8913
_cell_length_c 14.5383
_cell_angle_alpha 90.000000
_cell_angle_beta 90.000000
_cell_angle_gamma 90.000000
loop_
  _atom_site_label
  _atom_site_type_symbol
  _atom_site_fract_x
  _atom_site_fract_y
  _atom_site_fract_z
Si1 Si 0.25000 0.24998 0.25000
 Si2 Si 0.75000 0.75000 0.25000
 Si3 Si 0.75000 0.25003 0.75000
 Si4 Si 0.25000 0.75000 0.75000
 C5 C 0.12954 0.12622 0.03027
 H6 H 0.13184 0.12836 -0.04407
 C7 C 0.18279 0.18201 0.08183
 H8 H 0.22715 0.22603 0.04657
 C9 C 0.06898 0.06539 0.16632
 H10 H 0.02351 0.02083 0.19908
 C11 C 0.12104 0.12011 0.22044
 H12 H 0.11657 0.11637 0.29469
 N13 N 0.07481 0.06886 0.07297
 C14 C 0.03396 -0.12947 -0.13068
 H15 H -0.04041 -0.13165 -0.13227
 C16 C 0.08499 -0.18476 -0.18515
 H17 H 0.04863 -0.22806 -0.22943
 C18 C 0.17041 -0.06859 -0.07146
 H19 H 0.20356 -0.02403 -0.02625
 C20 C 0.22412 -0.12279 -0.12469
 H21 H 0.29841 -0.11849 -0.12073
 Zn22 Zn 0.00216 -0.00175 -0.00228
 N23 N 0.07705 -0.07243 -0.07586
 C24 C -0.06750 0.06560 -0.16971
 N25 N -0.07100 0.06946 -0.07630
 C26 C -0.12475 0.12696 -0.03249
 C27 C -0.17949 0.18243 -0.08292
 C28 C -0.12109 0.11996 -0.22270
 C29 C -0.03021 -0.12948 0.12554
 C30 C -0.08172 -0.18381 0.18060
 C31 C -0.22036 -0.12057 0.12056
 C32 C -0.16630 -0.06737 0.06663
 N33 N -0.07294 -0.07217 0.07074
 H34 H -0.02292 0.02082 -0.20335
 H35 H -0.12531 0.12928 0.04188
 H36 H -0.22295 0.22669 -0.04688
 H37 H -0.11838 0.11601 -0.29703
 H38 H 0.04413 -0.13245 0.12675
 H39 H -0.04640 -0.22788 0.22484
 H40 H -0.29461 -0.11590 0.11727
 H41 H -0.19913 -0.02273 0.02131
 C42 C 0.18142 -0.18247 -0.18161
 C43 C 0.17814 0.17941 0.17798
 C44 C -0.17788 -0.17985 0.17770
 C45 C -0.17732 0.17932 -0.17907
 C46 C 0.13068 0.62947 0.53396
 H47 H 0.13227 0.63165 0.45959
 C48 C 0.18515 0.68477 0.58499
 H49 H 0.22943 0.72807 0.54863
 C50 C 0.07146 0.56860 0.67042
 H51 H 0.02625 0.52403 0.70356
 C52 C 0.12469 0.62279 0.72412
 H53 H 0.12074 0.61850 0.79841
 N54 N 0.07586 0.57244 0.57705
 C55 C 0.03250 0.37305 0.37525
 H56 H -0.04188 0.37072 0.37470
 C57 C 0.08292 0.31757 0.32051
 H58 H 0.04688 0.27331 0.27705
 C59 C 0.16971 0.43441 0.43250
 H60 H 0.20335 0.47918 0.47708
 C61 C 0.22270 0.38004 0.37891
 H62 H 0.29703 0.38399 0.38162
 Zn63 Zn 0.00228 0.50175 0.50216
 N64 N 0.07631 0.43055 0.42900
 C65 C -0.06663 0.56737 0.33371
 N66 N -0.07074 0.57218 0.42706
 C67 C -0.12554 0.62948 0.46979
 C68 C -0.18060 0.68382 0.41828
 C69 C -0.12056 0.62057 0.27964
 C70 C -0.03027 0.37378 0.62954
 C71 C -0.08182 0.31800 0.68279
 C72 C -0.22044 0.37990 0.62104
 C73 C -0.16632 0.43461 0.56898
 N74 N -0.07297 0.43115 0.57481
 H75 H -0.02131 0.52273 0.30087
 H76 H -0.12675 0.63245 0.54413
 H77 H -0.22484 0.72788 0.45360
 H78 H -0.11727 0.61590 0.20539
 H79 H 0.04408 0.37165 0.63184
 H80 H -0.04656 0.27398 0.72715
 H81 H -0.29469 0.38363 0.61657
 H82 H -0.19907 0.47917 0.52351
 C83 C 0.17907 0.32069 0.32268
 C84 C 0.18161 0.68247 0.68142
 C85 C -0.17797 0.32059 0.67814
 C86 C -0.17770 0.67985 0.32212
 C87 C 0.62475 0.12696 0.53250
 H88 H 0.62531 0.12928 0.45812
 C89 C 0.67949 0.18243 0.58292
 H90 H 0.72295 0.22669 0.54688
 C91 C 0.56750 0.06560 0.66971
 H92 H 0.52292 0.02082 0.70335
 C93 C 0.62109 0.11997 0.72270
 H94 H 0.61838 0.11601 0.79703
 N95 N 0.57100 0.06946 0.57631
 C96 C 0.53021 -0.12948 0.37446
 H97 H 0.45587 -0.13245 0.37325
 C98 C 0.58172 -0.18381 0.31940
 H99 H 0.54640 -0.22788 0.27516
 C100 C 0.66630 -0.06737 0.43337
 H101 H 0.69913 -0.02273 0.47869
 C102 C 0.72036 -0.12057 0.37944
 H103 H 0.79461 -0.11590 0.38273
 Zn104 Zn 0.49784 -0.00175 0.50228
 N105 N 0.57294 -0.07217 0.42926
 C106 C 0.43102 0.06539 0.33368
 N107 N 0.42519 0.06886 0.42703
 C108 C 0.37046 0.12622 0.46973
 C109 C 0.31721 0.18200 0.41818
 C110 C 0.37897 0.12011 0.27956
 C111 C 0.46604 -0.12947 0.63068
 C112 C 0.41501 -0.18476 0.68515
 C113 C 0.27588 -0.12279 0.62469
 C114 C 0.32959 -0.06859 0.57146
 N115 N 0.42295 -0.07243 0.57586
 H116 H 0.47650 0.02083 0.30093
 H117 H 0.36816 0.12836 0.54408
 H118 H 0.27285 0.22602 0.45344
 H119 H 0.38343 0.11637 0.20531
 H120 H 0.54041 -0.13165 0.63227
 H121 H 0.45137 -0.22806 0.72943
 H122 H 0.20160 -0.11849 0.62074
 H123 H 0.29644 -0.02403 0.52625
 C124 C 0.67788 -0.17985 0.32230
 C125 C 0.67732 0.17932 0.67907
 C126 C 0.31858 -0.18247 0.68161
 C127 C 0.32186 0.17941 0.32203
 C128 C 0.62554 0.62948 0.03021
 H129 H 0.62675 0.63245 -0.04413
 C130 C 0.68060 0.68382 0.08172
 H131 H 0.72484 0.72788 0.04640
 C132 C 0.56663 0.56737 0.16630
 H133 H 0.52131 0.52274 0.19913
 C134 C 0.62056 0.62057 0.22036
 H135 H 0.61727 0.61590 0.29461
 N136 N 0.57074 0.57218 0.07294
 C137 C 0.53027 0.37378 -0.12954
 H138 H 0.45593 0.37165 -0.13184
 C139 C 0.58183 0.31800 -0.18279
 H140 H 0.54657 0.27398 -0.22715
 C141 C 0.66632 0.43461 -0.06898
 H142 H 0.69908 0.47917 -0.02350
 C143 C 0.72044 0.37990 -0.12104
 H144 H 0.79469 0.38363 -0.11657
 Zn145 Zn 0.49772 0.50175 -0.00216
 N146 N 0.57297 0.43115 -0.07481
 C147 C 0.42854 0.56860 -0.17041
 N148 N 0.42414 0.57244 -0.07704
 C149 C 0.36932 0.62947 -0.03396
 C150 C 0.31485 0.68477 -0.08499
 C151 C 0.37531 0.62279 -0.22412
 C152 C 0.46751 0.37305 0.12475
 C153 C 0.41708 0.31757 0.17949
 C154 C 0.27730 0.38004 0.12109
 C155 C 0.33029 0.43441 0.06750
 N156 N 0.42370 0.43055 0.07100
 H157 H 0.47375 0.52403 -0.20355
 H158 H 0.36773 0.63165 0.04041
 H159 H 0.27057 0.72807 -0.04863
 H160 H 0.37926 0.61850 -0.29840
 H161 H 0.54188 0.37073 0.12531
 H162 H 0.45312 0.27331 0.22295
 H163 H 0.20297 0.38399 0.11838
 H164 H 0.29665 0.47918 0.02292
 C165 C 0.67797 0.32059 -0.17814
 C166 C 0.67770 0.67985 0.17788
 C167 C 0.32093 0.32069 0.17732
 C168 C 0.31839 0.68247 -0.18142
   
