data_POSCAR
  _audit_creation_date              2014-09-24
  _audit_creation_method            'ToBaCCo'
  _symmetry_space_group_name_H-M    'P1'
  _symmetry_Int_Tables_number       1
  _symmetry_cell_setting            triclinic
  loop_
  _symmetry_equiv_pos_as_xyz
 x,y,z
_cell_length_a 18.1830
_cell_length_b 24.0964
_cell_length_c 20.7266
_cell_angle_alpha 90.456400
_cell_angle_beta 90.277900
_cell_angle_gamma 90.635500
loop_
  _atom_site_label
  _atom_site_type_symbol
  _atom_site_fract_x
  _atom_site_fract_y
  _atom_site_fract_z
B1 B -0.03732 -0.05904 0.02874
 B2 B 0.05278 -0.04865 0.04833
 B3 B 0.02942 -0.06432 -0.02951
 B4 B -0.04989 -0.03234 -0.04732
 B5 B -0.07632 0.00233 0.01769
 B6 B -0.01253 -0.00723 0.07863
 B7 B 0.05488 0.04760 -0.01695
 B8 B -0.03322 0.03709 -0.04074
 B9 B -0.01426 0.05190 0.03895
 B10 B 0.06806 0.02075 0.05618
 B11 B 0.09536 -0.01540 -0.01124
 B12 B 0.03256 -0.00344 -0.06985
 B13 B 0.53048 0.46311 0.56739
 B14 B 0.43850 0.46142 0.54981
 B15 B 0.47899 0.52230 0.57223
 B16 B 0.56620 0.52360 0.54014
 B17 B 0.57778 0.46384 0.49698
 B18 B 0.49797 0.42572 0.50508
 B19 B 0.46468 0.52039 0.44127
 B20 B 0.55567 0.52289 0.45809
 B21 B 0.51469 0.46032 0.43669
 B22 B 0.42829 0.45978 0.46834
 B23 B 0.41717 0.51911 0.51093
 B24 B 0.49650 0.55654 0.50543
 B25 B 0.51758 0.05626 0.53782
 B26 B 0.42954 0.03889 0.55513
 B27 B 0.44985 0.06059 0.48104
 B28 B 0.53322 0.03703 0.45954
 B29 B 0.56377 -0.00045 0.52068
 B30 B 0.49913 0.00032 0.58088
 B31 B 0.43962 -0.05196 0.47789
 B32 B 0.52685 -0.03288 0.45759
 B33 B 0.50883 -0.05503 0.53486
 B34 B 0.42252 -0.03164 0.55439
 B35 B 0.39107 0.00665 0.49125
 B36 B 0.45515 0.00484 0.43169
 B37 B -0.05559 0.52134 0.07978
 B38 B 0.03326 0.53418 0.06399
 B39 B 0.00776 0.46792 0.07736
 B40 B -0.07768 0.45826 0.04440
 B41 B -0.10246 0.51807 0.00921
 B42 B -0.03226 0.56483 0.02183
 B43 B 0.02281 0.48260 -0.05232
 B44 B -0.06708 0.46691 -0.03705
 B45 B -0.04246 0.53449 -0.04955
 B46 B 0.04289 0.54401 -0.01676
 B47 B 0.06695 0.48446 0.01884
 B48 B -0.00117 0.43673 0.00536
 B49 B 0.02181 0.44058 0.46363
 B50 B -0.06601 0.45752 0.44770
 B51 B -0.04340 0.42955 0.52075
 B52 B 0.04022 0.45387 0.54321
 B53 B 0.06834 0.49638 0.48572
 B54 B 0.00284 0.50022 0.42592
 B55 B -0.05422 0.54158 0.53633
 B56 B 0.03378 0.52321 0.55317
 B57 B 0.01324 0.55126 0.47991
 B58 B -0.07309 0.52770 0.45767
 B59 B -0.10255 0.48316 0.51629
 B60 B -0.03679 0.48201 0.57561
 B61 B 0.44489 -0.02414 -0.07493
 B62 B 0.53034 -0.04339 -0.05217
 B63 B 0.51424 0.02509 -0.06524
 B64 B 0.42812 0.03843 -0.03833
 B65 B 0.39401 -0.02035 -0.00624
 B66 B 0.45736 -0.07159 -0.01633
 B67 B 0.51752 0.00897 0.06432
 B68 B 0.43112 0.02811 0.04287
 B69 B 0.44728 -0.03991 0.05601
 B70 B 0.53223 -0.05406 0.02897
 B71 B 0.56582 0.00368 -0.00355
 B72 B 0.50311 0.05506 0.00585
 B73 B 0.46314 0.55664 -0.02546
 B74 B 0.55154 0.54361 -0.04498
 B75 B 0.53086 0.56344 0.03050
 B76 B 0.44964 0.53491 0.05231
 B77 B 0.41971 0.49708 -0.01028
 B78 B 0.48396 0.50263 -0.07146
 B79 B 0.54862 0.45159 0.02818
 B80 B 0.46179 0.46515 0.05126
 B81 B 0.47904 0.44596 -0.02800
 B82 B 0.56272 0.47391 -0.04723
 B83 B 0.59328 0.51266 0.01696
 B84 B 0.53079 0.50658 0.07738
 B85 B 0.03983 0.02860 0.43234
 B86 B -0.04995 0.03743 0.45170
 B87 B -0.01939 -0.02637 0.43158
 B88 B 0.06823 -0.03233 0.46170
 B89 B 0.08965 0.02792 0.50194
 B90 B 0.01579 0.07018 0.49360
 B91 B -0.02937 -0.02040 0.56239
 B92 B 0.06058 -0.02820 0.54360
 B93 B 0.02825 0.03637 0.56326
 B94 B -0.05752 0.04151 0.53303
 B95 B -0.07835 -0.01742 0.49325
 B96 B -0.00449 -0.06011 0.49913
 B97 B 0.75856 0.30103 0.26968
 B98 B 0.67088 0.28090 0.28051
 B99 B 0.69996 0.29157 0.20526
 B100 B 0.78868 0.27185 0.19964
 B101 B 0.81372 0.24487 0.27231
 B102 B 0.74024 0.25060 0.32325
 B103 B 0.69912 0.18064 0.22424
 B104 B 0.78829 0.20246 0.21034
 B105 B 0.75945 0.18885 0.28633
 B106 B 0.67010 0.21045 0.29420
 B107 B 0.64530 0.23633 0.22161
 B108 B 0.71845 0.23140 0.17024
 B109 B 0.72878 0.81005 0.78831
 B110 B 0.70583 0.79740 0.70968
 B111 B 0.79448 0.81302 0.72967
 B112 B 0.81379 0.78338 0.80205
 B113 B 0.73710 0.74848 0.82508
 B114 B 0.66997 0.75877 0.76835
 B115 B 0.78244 0.70136 0.71247
 B116 B 0.80544 0.71340 0.79013
 B117 B 0.71628 0.69793 0.77140
 B118 B 0.69713 0.72729 0.69956
 B119 B 0.77302 0.76150 0.67629
 B120 B 0.84112 0.75346 0.73261
 B121 B 0.26445 0.19951 0.73664
 B122 B 0.17471 0.21482 0.72623
 B123 B 0.20473 0.20405 0.80145
 B124 B 0.29180 0.22851 0.80748
 B125 B 0.31344 0.25906 0.73663
 B126 B 0.24035 0.24982 0.68460
 B127 B 0.19663 0.31526 0.78478
 B128 B 0.28598 0.29746 0.79820
 B129 B 0.25556 0.31121 0.72233
 B130 B 0.16821 0.28529 0.71429
 B131 B 0.14630 0.25690 0.78582
 B132 B 0.21941 0.26455 0.83728
 B133 B 0.20895 0.79317 0.23068
 B134 B 0.29632 0.77764 0.21098
 B135 B 0.27885 0.79750 0.28743
 B136 B 0.19375 0.77260 0.30720
 B137 B 0.16178 0.73378 0.24397
 B138 B 0.22551 0.73742 0.18358
 B139 B 0.28942 0.68623 0.28538
 B140 B 0.20125 0.70279 0.30727
 B141 B 0.22046 0.68100 0.23168
 B142 B 0.30383 0.70755 0.20880
 B143 B 0.33519 0.74473 0.27191
 B144 B 0.27171 0.74185 0.33272
 B145 B 0.27403 0.69208 0.78841
 B146 B 0.29901 0.70291 0.71152
 B147 B 0.21161 0.68358 0.72571
 B148 B 0.18610 0.71207 0.79703
 B149 B 0.25806 0.75302 0.82470
 B150 B 0.32837 0.74698 0.77112
 B151 B 0.21290 0.79554 0.70959
 B152 B 0.18633 0.78143 0.78646
 B153 B 0.27358 0.80327 0.77010
 B154 B 0.30075 0.77319 0.69922
 B155 B 0.22888 0.73428 0.67210
 B156 B 0.15761 0.73986 0.72543
 B157 B 0.20919 0.19082 0.27222
 B158 B 0.29470 0.20892 0.29811
 B159 B 0.27770 0.19430 0.21943
 B160 B 0.19320 0.22034 0.19995
 B161 B 0.16099 0.25075 0.26717
 B162 B 0.22361 0.24143 0.32699
 B163 B 0.28761 0.30638 0.23360
 B164 B 0.19966 0.29094 0.21161
 B165 B 0.21741 0.30248 0.29090
 B166 B 0.30148 0.27811 0.30780
 B167 B 0.33437 0.24739 0.24071
 B168 B 0.26991 0.25389 0.18073
 B169 B 0.77509 0.70038 0.22873
 B170 B 0.68808 0.71744 0.21011
 B171 B 0.71123 0.70083 0.28735
 B172 B 0.79719 0.72741 0.30220
 B173 B 0.82456 0.75986 0.23425
 B174 B 0.75791 0.75303 0.17750
 B175 B 0.70297 0.81356 0.27822
 B176 B 0.79133 0.79782 0.29418
 B177 B 0.76743 0.81246 0.21773
 B178 B 0.68172 0.78724 0.20403
 B179 B 0.65318 0.75431 0.27220
 B180 B 0.72209 0.76091 0.32853
 B181 B 0.71892 0.18433 0.72303
 B182 B 0.70456 0.20320 0.80062
 B183 B 0.79148 0.18975 0.77743
 B184 B 0.80110 0.21141 0.69979
 B185 B 0.72043 0.24192 0.67761
 B186 B 0.66063 0.23645 0.74037
 B187 B 0.77704 0.30156 0.77934
 B188 B 0.79219 0.28125 0.70196
 B189 B 0.70620 0.29705 0.72624
 B190 B 0.69404 0.27415 0.80291
 B191 B 0.77351 0.24545 0.82455
 B192 B 0.83474 0.24919 0.76223
 C193 C 0.14107 0.42386 0.91681
 C194 C 0.07847 0.45294 0.89437
 C195 C 0.06420 0.44500 0.82712
 C196 C 0.10387 0.40476 0.78893
 C197 C 0.15819 0.37008 0.81714
 C198 C 0.17357 0.38243 0.88147
 C199 C 0.19187 0.34784 0.93798
 C200 C 0.16111 0.39358 0.97826
 H201 H 0.01763 0.46517 0.80578
 H202 H 0.08775 0.39790 0.73915
 H203 H 0.25114 0.34093 0.94275
 H204 H 0.15709 0.30969 0.94128
 H205 H 0.20297 0.41695 1.00672
 H206 H 0.11534 0.37676 1.00732
 C207 C 0.42143 0.61980 0.40839
 C208 C 0.42967 0.56347 0.38959
 C209 C 0.40351 0.54976 0.32688
 C210 C 0.36275 0.58912 0.28990
 C211 C 0.34545 0.64223 0.31609
 C212 C 0.38177 0.65711 0.37359
 C213 C 0.35714 0.68790 0.43332
 C214 C 0.40100 0.64795 0.47120
 H215 H 0.41056 0.50814 0.30813
 H216 H 0.33945 0.57630 0.24391
 H217 H 0.29784 0.68424 0.44430
 H218 H 0.37811 0.73082 0.43898
 H219 H 0.36495 0.62288 0.50308
 H220 H 0.44820 0.66900 0.49555
 C221 C 0.90792 0.88613 0.59518
 C222 C 0.93052 0.93932 0.61639
 C223 C 0.91707 0.94991 0.68311
 C224 C 0.87615 0.91066 0.72221
 C225 C 0.84548 0.86080 0.69483
 C226 C 0.86801 0.84974 0.63137
 C227 C 0.82898 0.82611 0.57287
 C228 C 0.87285 0.86549 0.53373
 H229 H 0.93594 0.98866 0.70447
 H230 H 0.86538 0.92074 0.77224
 H231 H 0.76935 0.83505 0.57161
 H232 H 0.84260 0.78240 0.56125
 H233 H 0.83756 0.89683 0.51091
 H234 H 0.91136 0.84349 0.50136
 C235 C 0.57107 0.04559 0.18451
 C236 C 0.57432 0.04183 0.11660
 C237 C 0.63051 0.07726 0.09037
 C238 C 0.66581 0.11907 0.12466
 C239 C 0.65986 0.12497 0.19178
 C240 C 0.61502 0.08379 0.22112
 C241 C 0.55682 0.08937 0.27025
 C242 C 0.50856 0.05013 0.22998
 H243 H 0.64179 0.08069 0.03982
 H244 H 0.69943 0.14686 0.09624
 H245 H 0.53717 0.13254 0.27194
 H246 H 0.57436 0.07124 0.31690
 H247 H 0.46003 0.07086 0.20935
 H248 H 0.49582 0.01044 0.25365
 C249 C 0.85698 0.11950 0.43357
 C250 C 0.89598 0.07469 0.40800
 C251 C 0.89358 0.06954 0.34055
 C252 C 0.84305 0.09947 0.30385
 C253 C 0.79921 0.14195 0.33010
 C254 C 0.81062 0.15225 0.39589
 C255 C 0.75427 0.15399 0.44731
 C256 C 0.80628 0.12034 0.48877
 H257 H 0.92832 0.04005 0.31588
 H258 H 0.83962 0.08716 0.25553
 H259 H 0.70345 0.13140 0.43192
 H260 H 0.74494 0.19659 0.46520
 H261 H 0.78556 0.07811 0.50074
 H262 H 0.83222 0.14417 0.52895
 C263 C 0.30825 0.41273 0.57909
 C264 C 0.38009 0.43031 0.59626
 C265 C 0.40084 0.41938 0.66003
 C266 C 0.36086 0.38326 0.69846
 C267 C 0.29147 0.36124 0.68027
 C268 C 0.26489 0.37974 0.62010
 C269 C 0.23094 0.34934 0.56412
 C270 C 0.27798 0.38526 0.51986
 H271 H 0.45072 0.43680 0.68054
 H272 H 0.39067 0.36930 0.73934
 H273 H 0.17113 0.35763 0.55988
 H274 H 0.24585 0.30478 0.56198
 H275 H 0.24505 0.41415 0.49010
 H276 H 0.32010 0.36132 0.49306
 C277 C 0.62001 0.87502 0.93402
 C278 C 0.58672 0.92108 0.90693
 C279 C 0.61222 0.93734 0.84613
 C280 C 0.66324 0.90525 0.81193
 C281 C 0.69111 0.85544 0.83589
 C282 C 0.67069 0.84329 0.90044
 C283 C 0.64120 0.79194 0.93275
 C284 C 0.58529 0.82692 0.96699
 H285 H 0.58877 0.97270 0.82235
 H286 H 0.67399 0.91728 0.76450
 H287 H 0.68167 0.77263 0.96563
 H288 H 0.61355 0.76319 0.89961
 H289 H 0.59167 0.82729 1.02014
 H290 H 0.52806 0.81874 0.94990
 C291 C 0.06935 0.57715 0.17891
 C292 C 0.08497 0.56858 0.11308
 C293 C 0.15089 0.59221 0.09091
 C294 C 0.20099 0.61819 0.13347
 C295 C 0.18515 0.62638 0.19916
 C296 C 0.11705 0.60570 0.22060
 C297 C 0.09840 0.56389 0.27176
 C298 C 0.03875 0.54049 0.22909
 H299 H 0.16488 0.58847 0.04080
 H300 H 0.25048 0.63602 0.11437
 H301 H 0.07456 0.58062 0.31605
 H302 H 0.14326 0.53376 0.27913
 H303 H -0.01678 0.55317 0.24532
 H304 H 0.04352 0.49628 0.22023
 C305 C 0.33647 0.89188 0.08473
 C306 C 0.40477 0.91711 0.10299
 C307 C 0.44019 0.89320 0.15633
 C308 C 0.41009 0.84573 0.18725
 C309 C 0.34264 0.82074 0.16723
 C310 C 0.30808 0.84552 0.11533
 C311 C 0.27588 0.82024 0.05596
 C312 C 0.30427 0.87101 0.02145
 H313 H 0.49320 0.90928 0.17173
 H314 H 0.44117 0.82769 0.22546
 H315 H 0.21515 0.81745 0.05621
 H316 H 0.30404 0.78137 0.04148
 H317 H 0.25905 0.89783 0.00401
 H318 H 0.34478 0.85912 -0.01582
 C319 C 0.52252 0.35497 0.38836
 C320 C 0.53492 0.41353 0.38062
 C321 C 0.57834 0.42675 0.32671
 C322 C 0.61750 0.38506 0.29233
 C323 C 0.61312 0.32738 0.30831
 C324 C 0.55875 0.31433 0.35259
 C325 C 0.55634 0.27212 0.40394
 C326 C 0.51745 0.31518 0.44439
 H327 H 0.58746 0.46960 0.31416
 H328 H 0.65698 0.39966 0.25774
 H329 H 0.61179 0.26155 0.42278
 H330 H 0.52083 0.23636 0.39053
 H331 H 0.55212 0.32680 0.48677
 H332 H 0.45969 0.30328 0.45573
 C333 C 0.88876 0.63118 0.93352
 C334 C 0.92182 0.58316 0.90561
 C335 C 0.92346 0.58228 0.83868
 C336 C 0.89445 0.62669 0.80175
 C337 C 0.85670 0.67170 0.83054
 C338 C 0.85859 0.67390 0.89774
 C339 C 0.79763 0.68289 0.94454
 C340 C 0.82834 0.63553 0.98263
 H341 H 0.94218 0.54510 0.81579
 H342 H 0.89488 0.62236 0.75076
 H343 H 0.74212 0.67295 0.92486
 H344 H 0.80289 0.72355 0.96997
 H345 H 0.79102 0.59870 0.98246
 H346 H 0.84720 0.64881 1.03119
 C347 C 0.03594 0.14027 0.61081
 C348 C 0.04832 0.08228 0.61905
 C349 C 0.08424 0.06899 0.67698
 C350 C 0.11993 0.11107 0.71449
 C351 C 0.12002 0.16800 0.69590
 C352 C 0.06919 0.18081 0.64871
 C353 C 0.06621 0.22452 0.59926
 C354 C 0.03035 0.18094 0.55594
 H355 H 0.08857 0.02625 0.69167
 H356 H 0.15026 0.09767 0.75585
 H357 H 0.12154 0.23786 0.58236
 H358 H 0.02852 0.25836 0.61335
 H359 H 0.06653 0.17140 0.51436
 H360 H -0.02761 0.19059 0.54332
 C361 C 0.09441 0.35130 0.43895
 C362 C 0.07518 0.40383 0.42061
 C363 C 0.11110 0.42579 0.36519
 C364 C 0.16482 0.39719 0.33136
 C365 C 0.17516 0.34138 0.34266
 C366 C 0.13928 0.31964 0.39899
 C367 C 0.08650 0.27134 0.40617
 C368 C 0.04144 0.30585 0.45127
 H369 H 0.09352 0.46356 0.34330
 H370 H 0.19297 0.41797 0.29330
 H371 H 0.11093 0.23481 0.42985
 H372 H 0.05485 0.26283 0.36139
 H373 H 0.04340 0.29262 0.50211
 H374 H -0.01426 0.31482 0.43198
 C375 C 0.34709 0.61897 0.94464
 C376 C 0.41494 0.59703 0.92890
 C377 C 0.43047 0.60115 0.86184
 C378 C 0.38803 0.63233 0.81989
 C379 C 0.31662 0.65033 0.83568
 C380 C 0.29898 0.64161 0.90072
 C381 C 0.24681 0.65734 0.95268
 C382 C 0.30098 0.63044 1.00050
 H383 H 0.47661 0.58110 0.83959
 H384 H 0.41591 0.64422 0.77677
 H385 H 0.19343 0.63494 0.94736
 H386 H 0.24310 0.70306 0.95916
 H387 H 0.28326 0.59034 1.02142
 H388 H 0.32852 0.66061 1.03380
 C389 C 0.54974 0.10742 0.64872
 C390 C 0.56882 0.09587 0.58419
 C391 C 0.64381 0.10577 0.57002
 C392 C 0.69539 0.12433 0.61783
 C393 C 0.67470 0.13613 0.68209
 C394 C 0.59947 0.12860 0.69396
 C395 C 0.56368 0.09640 0.74539
 C396 C 0.50890 0.07489 0.69883
 H397 H 0.66341 0.09433 0.52309
 H398 H 0.75162 0.13147 0.60465
 H399 H 0.53621 0.12424 0.77935
 H400 H 0.59866 0.06209 0.76190
 H401 H 0.45420 0.09115 0.71140
 H402 H 0.51193 0.02905 0.69720
 C403 C 0.83267 0.89856 0.06558
 C404 C 0.90936 0.90190 0.07411
 C405 C 0.93084 0.89199 0.13920
 C406 C 0.88402 0.86995 0.18550
 C407 C 0.80894 0.85881 0.17342
 C408 C 0.78469 0.87765 0.11266
 C409 C 0.73288 0.85601 0.06279
 C410 C 0.78581 0.87802 0.01167
 H411 H 0.98356 0.90413 0.15822
 H412 H 0.91091 0.85799 0.22919
 H413 H 0.68065 0.87930 0.06487
 H414 H 0.72778 0.81011 0.06263
 H415 H 0.76308 0.91279 -0.01684
 H416 H 0.81262 0.84470 -0.01692
 C417 C 0.90487 0.13159 0.92455
 C418 C 0.92858 0.07878 0.90727
 C419 C 0.92337 0.06698 0.83939
 C420 C 0.88438 0.10258 0.79566
 C421 C 0.84781 0.15045 0.81889
 C422 C 0.86775 0.16561 0.88311
 C423 C 0.83199 0.19586 0.93861
 C424 C 0.87358 0.15868 0.98286
 H425 H 0.94574 0.02882 0.82038
 H426 H 0.87788 0.09010 0.74565
 H427 H 0.77152 0.18946 0.94192
 H428 H 0.84951 0.23991 0.94434
 H429 H 0.83545 0.13158 1.01003
 H430 H 0.91480 0.18361 1.00998
 C431 C 0.07912 0.55836 0.67187
 C432 C 0.09059 0.55340 0.60543
 C433 C 0.15812 0.57675 0.58670
 C434 C 0.19615 0.61641 0.62436
 C435 C 0.17631 0.62854 0.68909
 C436 C 0.12127 0.59313 0.71290
 C437 C 0.05777 0.60254 0.75556
 C438 C 0.01236 0.56548 0.70948
 H439 H 0.18216 0.56635 0.54265
 H440 H 0.24016 0.63855 0.60056
 H441 H 0.04046 0.64661 0.75626
 H442 H 0.06735 0.58388 0.80370
 H443 H -0.02896 0.58841 0.68192
 H444 H -0.00588 0.52461 0.72735
 C445 C 0.64732 0.91420 0.42088
 C446 C 0.57878 0.93564 0.40445
 C447 C 0.55867 0.92781 0.33824
 C448 C 0.59993 0.89305 0.29538
 C449 C 0.66285 0.86452 0.31708
 C450 C 0.68450 0.87823 0.38056
 C451 C 0.71506 0.84582 0.43512
 C452 C 0.67509 0.88477 0.47876
 H453 H 0.50681 0.94349 0.32143
 H454 H 0.57925 0.88494 0.24729
 H455 H 0.77527 0.84888 0.43883
 H456 H 0.69215 0.80314 0.43987
 H457 H 0.71234 0.91100 0.50862
 H458 H 0.63244 0.86045 0.50308
 C459 C 0.39193 0.37451 0.08584
 C460 C 0.42160 0.42512 0.10507
 C461 C 0.42093 0.43408 0.17367
 C462 C 0.38271 0.39674 0.21702
 C463 C 0.34055 0.35079 0.19282
 C464 C 0.35180 0.34089 0.12609
 C465 C 0.30220 0.32234 0.07157
 C466 C 0.34823 0.35789 0.02885
 H467 H 0.44833 0.47037 0.19383
 H468 H 0.38232 0.40595 0.26821
 H469 H 0.24475 0.33664 0.07533
 H470 H 0.30715 0.27761 0.05874
 H471 H 0.32004 0.39391 0.00770
 H472 H 0.37848 0.32994 -0.00310
 C473 C 0.52582 0.64279 0.11911
 C474 C 0.56029 0.61857 0.06508
 C475 C 0.63307 0.63591 0.05314
 C476 C 0.67274 0.66669 0.09924
 C477 C 0.64088 0.68251 0.15879
 C478 C 0.56481 0.67500 0.16384
 C479 C 0.51832 0.65662 0.21877
 C480 C 0.47582 0.62087 0.17036
 H481 H 0.66283 0.62051 0.01185
 H482 H 0.72997 0.67515 0.08895
 H483 H 0.48544 0.69110 0.23921
 H484 H 0.54901 0.63184 0.25470
 H485 H 0.41825 0.63434 0.16296
 H486 H 0.48237 0.57593 0.17988
 C487 C 0.07876 0.83256 0.94083
 C488 C 0.05037 0.88405 0.92123
 C489 C 0.05081 0.89396 0.85331
 C490 C 0.09038 0.86104 0.80987
 C491 C 0.12888 0.81480 0.83127
 C492 C 0.11691 0.79864 0.89577
 C493 C 0.07427 0.74777 0.91242
 C494 C 0.03211 0.78269 0.95885
 H495 H 0.02383 0.92948 0.83272
 H496 H 0.09185 0.87318 0.75998
 H497 H 0.10887 0.71630 0.93639
 H498 H 0.03985 0.73140 0.87183
 H499 H 0.04067 0.76716 1.00847
 H500 H -0.02678 0.78720 0.94511
 C501 C 0.34451 0.13089 0.45500
 C502 C 0.41683 0.11307 0.44591
 C503 C 0.45327 0.13582 0.39179
 C504 C 0.41462 0.16592 0.34427
 C505 C 0.33920 0.17638 0.35098
 C506 C 0.30901 0.16279 0.41114
 C507 C 0.23737 0.15917 0.44582
 C508 C 0.27655 0.12280 0.49465
 H509 H 0.51103 0.12850 0.38484
 H510 H 0.44337 0.18122 0.30247
 H511 H 0.19348 0.13634 0.41970
 H512 H 0.22128 0.19992 0.46648
 H513 H 0.25658 0.07928 0.49560
 H514 H 0.27758 0.14354 0.54238
 C515 C 0.85878 0.34910 0.53856
 C516 C 0.92764 0.37260 0.55460
 C517 C 0.95498 0.36066 0.61709
 C518 C 0.91135 0.33443 0.66373
 C519 C 0.83872 0.31715 0.65029
 C520 C 0.81443 0.32331 0.58617
 C521 C 0.79383 0.27595 0.54372
 C522 C 0.84715 0.29868 0.49588
 H523 H 1.00869 0.37558 0.63241
 H524 H 0.93573 0.32725 0.71025
 H525 H 0.73541 0.27851 0.52799
 H526 H 0.81074 0.23513 0.56279
 H527 H 0.82080 0.30627 0.44894
 H528 H 0.89685 0.27244 0.49225
 C529 C 0.92991 0.61740 0.14582
 C530 C 0.90371 0.56215 0.13287
 C531 C 0.83196 0.55154 0.15696
 C532 C 0.78965 0.59408 0.18759
 C533 C 0.81916 0.64804 0.19944
 C534 C 0.89165 0.65631 0.17998
 C535 C 0.93100 0.70443 0.14997
 C536 C 0.97383 0.66297 0.11204
 H537 H 0.80619 0.51171 0.14831
 H538 H 0.73312 0.58497 0.20002
 H539 H 0.96564 0.72804 0.18527
 H540 H 0.89553 0.73001 0.11835
 H541 H 1.03272 0.66713 0.12500
 H542 H 0.96346 0.66812 0.05977
 C543 C 0.64387 0.43454 0.63881
 C544 C 0.57120 0.42400 0.61981
 C545 C 0.54642 0.36893 0.63070
 C546 C 0.58669 0.33176 0.66844
 C547 C 0.65779 0.34526 0.69280
 C548 C 0.68708 0.39624 0.67184
 C549 C 0.72553 0.44198 0.70759
 C550 C 0.67643 0.48293 0.67268
 H551 H 0.49580 0.35340 0.60936
 H552 H 0.56191 0.29137 0.67586
 H553 H 0.78452 0.44564 0.69424
 H554 H 0.71447 0.44011 0.75957
 H555 H 0.70441 0.50989 0.63761
 H556 H 0.63644 0.50403 0.70477
 C557 C 0.14264 0.04475 0.34176
 C558 C 0.07683 0.05999 0.37220
 C559 C 0.05046 0.11253 0.35545
 C560 C 0.08880 0.14785 0.31516
 C561 C 0.16098 0.13711 0.29454
 C562 C 0.18340 0.08157 0.30342
 C563 C 0.25366 0.05280 0.31937
 C564 C 0.20954 0.01597 0.36480
 H565 H 0.00428 0.13110 0.37905
 H566 H 0.06301 0.18685 0.30752
 H567 H 0.29587 0.07687 0.34486
 H568 H 0.27621 0.03047 0.27715
 H569 H 0.22129 0.02428 0.41632
 H570 H 0.20955 -0.02831 0.35254
 C571 C 0.41853 0.92185 0.80644
 C572 C 0.39462 0.94849 0.86411
 C573 C 0.31792 0.93848 0.87510
 C574 C 0.27781 0.89489 0.84437
 C575 C 0.30852 0.86254 0.79454
 C576 C 0.37519 0.88366 0.77144
 C577 C 0.43723 0.85871 0.73654
 C578 C 0.48566 0.89695 0.77659
 H579 H 0.28925 0.95900 0.91344
 H580 H 0.22472 0.88515 0.86385
 H581 H 0.43565 0.86954 0.68462
 H582 H 0.44671 0.81434 0.74724
 H583 H 0.51711 0.92640 0.74595
 H584 H 0.51646 0.87082 0.81089
 C585 C 0.09116 0.87153 0.58294
 C586 C 0.10875 0.92855 0.58672
 C587 C 0.16440 0.94344 0.63172
 C588 C 0.19879 0.90272 0.67114
 C589 C 0.17966 0.84540 0.66603
 C590 C 0.12504 0.83184 0.62086
 C591 C 0.12905 0.79122 0.56629
 C592 C 0.09250 0.83409 0.52502
 H593 H 0.18243 0.98621 0.63583
 H594 H 0.24067 0.91660 0.70467
 H595 H 0.09435 0.75391 0.57473
 H596 H 0.18634 0.78257 0.55090
 H597 H 0.03665 0.82089 0.50895
 H598 H 0.12924 0.85035 0.48666
 C599 C 0.65803 0.55252 0.36726
 C600 C 0.60546 0.56691 0.41406
 C601 C 0.59278 0.62476 0.41954
 C602 C 0.62383 0.66398 0.37811
 C603 C 0.67612 0.64993 0.33077
 C604 C 0.69410 0.59289 0.32795
 C605 C 0.76718 0.56711 0.34143
 C606 C 0.72772 0.52327 0.38020
 H607 H 0.55834 0.64166 0.45661
 H608 H 0.60741 0.70658 0.38560
 H609 H 0.80377 0.59440 0.37127
 H610 H 0.79405 0.54864 0.29871
 H611 H 0.74343 0.52319 0.43214
 H612 H 0.72674 0.48231 0.35570
 C613 C 0.41413 0.12200 0.10366
 C614 C 0.38656 0.06892 0.08963
 C615 C 0.31860 0.05569 0.11986
 C616 C 0.28309 0.09504 0.16138
 C617 C 0.31606 0.14676 0.17724
 C618 C 0.38258 0.15746 0.14614
 C619 C 0.43727 0.20272 0.13368
 C620 C 0.47252 0.16305 0.08564
 H621 H 0.29196 0.01610 0.11001
 H622 H 0.22912 0.08662 0.17963
 H623 H 0.47249 0.21200 0.17651
 H624 H 0.41311 0.23920 0.10981
 H625 H 0.52811 0.15125 0.10109
 H626 H 0.46751 0.17679 0.03475
 C627 C 0.92761 0.38769 0.87555
 C628 C 0.88932 0.42724 0.91136
 C629 C 0.81289 0.42740 0.90159
 C630 C 0.77717 0.39022 0.85731
 C631 C 0.81727 0.35289 0.81824
 C632 C 0.89444 0.35362 0.82880
 C633 C 0.94550 0.30706 0.84622
 C634 C 0.97526 0.34222 0.90004
 H635 H 0.78068 0.45358 0.93196
 H636 H 0.71768 0.38847 0.85640
 H637 H 0.98701 0.29903 0.80817
 H638 H 0.91935 0.26925 0.86494
 H639 H 1.03470 0.34873 0.89524
 H640 H 0.95794 0.32726 0.94837
 C641 C 0.63558 0.06084 0.87664
 C642 C 0.56265 0.07103 0.89513
 C643 C 0.54421 0.12864 0.89656
 C644 C 0.59397 0.17090 0.87573
 C645 C 0.66253 0.15837 0.84815
 C646 C 0.68180 0.10152 0.84984
 C647 C 0.74532 0.07349 0.88160
 C648 C 0.69640 0.03169 0.91068
 H649 H 0.49142 0.14154 0.91498
 H650 H 0.57770 0.21346 0.87867
 H651 H 0.77067 0.09770 0.92054
 H652 H 0.78092 0.05269 0.84617
 H653 H 0.69770 0.03561 0.96375
 H654 H 0.71216 -0.00993 0.89369
 C655 C 0.45919 0.62485 0.61675
 C656 C 0.44856 0.56718 0.62715
 C657 C 0.38514 0.55550 0.66411
 C658 C 0.33925 0.59724 0.68917
 C659 C 0.35044 0.65485 0.67700
 C660 C 0.41148 0.66628 0.63909
 C661 C 0.47177 0.70608 0.65121
 C662 C 0.52463 0.66134 0.62883
 H663 H 0.36761 0.51434 0.67395
 H664 H 0.29597 0.58339 0.72088
 H665 H 0.47822 0.71751 0.70304
 H666 H 0.46584 0.74105 0.61728
 H667 H 0.56040 0.64559 0.66818
 H668 H 0.55375 0.67222 0.58356
 C669 C 0.11656 0.43461 0.15498
 C670 C 0.04817 0.42335 0.12564
 C671 C 0.03010 0.36541 0.12350
 C672 C 0.07905 0.32372 0.14654
 C673 C 0.14848 0.33695 0.17428
 C674 C 0.16322 0.39423 0.17816
 C675 C 0.22871 0.43081 0.16643
 C676 C 0.17827 0.47426 0.14323
 H677 H -0.01998 0.35158 0.09957
 H678 H 0.06384 0.28087 0.13944
 H679 H 0.26289 0.41900 0.12531
 H680 H 0.25810 0.44471 0.21071
 H681 H 0.18842 0.48421 0.09192
 H682 H 0.18091 0.50943 0.17725
 C683 C 0.96031 0.87399 0.38044
 C684 C 0.94374 0.93113 0.37828
 C685 C 0.87246 0.94172 0.35424
 C686 C 0.82867 0.90088 0.32470
 C687 C 0.84410 0.84373 0.32999
 C688 C 0.91094 0.83191 0.36046
 C689 C 0.97118 0.79554 0.33920
 C690 C 1.02450 0.84250 0.35564
 H691 H 0.84491 0.97985 0.36266
 H692 H 0.78158 0.91538 0.29826
 H693 H 0.96965 0.78450 0.28712
 H694 H 0.97377 0.76057 0.37340
 H695 H 1.04892 0.86184 0.31213
 H696 H 1.06450 0.83120 0.39350
 C697 C 0.91157 0.64224 0.57536
 C698 C 0.89690 0.58555 0.57517
 C699 C 0.83601 0.56754 0.61322
 C700 C 0.79711 0.60409 0.65408
 C701 C 0.82030 0.65918 0.66164
 C702 C 0.87710 0.67708 0.61915
 C703 C 0.94712 0.70991 0.62944
 C704 C 0.98246 0.67353 0.57882
 H705 H 0.82090 0.52419 0.61447
 H706 H 0.75228 0.58868 0.68301
 H707 H 0.97121 0.70388 0.67825
 H708 H 0.94436 0.75373 0.61424
 H709 H 1.02908 0.64978 0.59807
 H710 H 0.99392 0.69583 0.53318
 C711 C 0.66286 0.41831 0.09231
 C712 C 0.59608 0.40411 0.06128
 C713 C 0.56521 0.35230 0.07488
 C714 C 0.59613 0.31853 0.12219
 C715 C 0.66209 0.33378 0.15569
 C716 C 0.69543 0.38383 0.13828
 C717 C 0.77024 0.39118 0.11089
 C718 C 0.73501 0.42606 0.05943
 H719 H 0.51643 0.33795 0.04971
 H720 H 0.56824 0.27948 0.13044
 H721 H 0.79379 0.35205 0.09160
 H722 H 0.80707 0.41500 0.14400
 H723 H 0.73480 0.40487 0.01177
 H724 H 0.75337 0.47009 0.05927
 C725 C 0.43204 0.86648 0.39844
 C726 C 0.39394 0.89999 0.44061
 C727 C 0.31738 0.90504 0.42767
 C728 C 0.28261 0.87677 0.37526
 C729 C 0.32270 0.84380 0.33139
 C730 C 0.40026 0.84149 0.34446
 C731 C 0.45816 0.79638 0.34900
 C732 C 0.48478 0.82140 0.41171
 H733 H 0.28371 0.93118 0.45795
 H734 H 0.22332 0.87857 0.37115
 H735 H 0.50094 0.79985 0.31119
 H736 H 0.43985 0.75347 0.35513
 H737 H 0.54356 0.83258 0.41040
 H738 H 0.46901 0.79690 0.45473
 C739 C 0.17302 0.08146 0.92416
 C740 C 0.10616 0.09539 0.95390
 C741 C 0.07654 0.14656 0.93912
 C742 C 0.10456 0.17781 0.88840
 C743 C 0.16890 0.16199 0.85360
 C744 C 0.20410 0.11408 0.87491
 C745 C 0.27915 0.11155 0.90362
 C746 C 0.24535 0.07951 0.95841
 H747 H 0.02992 0.16177 0.96536
 H748 H 0.07555 0.21577 0.87903
 H749 H 0.30146 0.15275 0.91898
 H750 H 0.31667 0.08643 0.87325
 H751 H 0.24528 0.10321 1.00471
 H752 H 0.26494 0.03667 0.96301
 C753 C 0.15056 0.92872 0.13992
 C754 C 0.09829 0.91009 0.09436
 C755 C 0.07934 0.85372 0.09701
 C756 C 0.10816 0.81874 0.14427
 C757 C 0.16194 0.83761 0.18973
 C758 C 0.18303 0.89306 0.18493
 C759 C 0.18029 0.93475 0.23693
 C760 C 0.14282 0.97289 0.18987
 H761 H 0.03485 0.83838 0.06771
 H762 H 0.08856 0.77620 0.14362
 H763 H 0.23731 0.94706 0.24985
 H764 H 0.14438 0.92160 0.27733
 H765 H 0.17586 1.00951 0.17776
 H766 H 0.08456 0.98135 0.20238
 C767 C 0.90073 0.41506 0.32858
 C768 C 0.88187 0.42499 0.39381
 C769 C 0.80958 0.40808 0.40950
 C770 C 0.76646 0.37410 0.36732
 C771 C 0.79135 0.35743 0.30509
 C772 C 0.85620 0.38407 0.28565
 C773 C 0.91923 0.36384 0.24771
 C774 C 0.96806 0.39383 0.29603
 H775 H 0.78728 0.41756 0.45656
 H776 H 0.71694 0.35650 0.38754
 H777 H 0.91903 0.38308 0.19939
 H778 H 0.92693 0.31830 0.24834
 H779 H 1.00137 0.42678 0.27370
 H780 H 0.99821 0.36335 0.32544
 C781 C 0.39595 0.13592 0.60625
 C782 C 0.38332 0.07834 0.60327
 C783 C 0.33268 0.05776 0.65006
 C784 C 0.29730 0.09385 0.69571
 C785 C 0.30990 0.15220 0.69589
 C786 C 0.36298 0.16954 0.65031
 C787 C 0.39988 0.22087 0.62481
 C788 C 0.43639 0.18398 0.57547
 H789 H 0.32166 0.01360 0.65264
 H790 H 0.26182 0.07537 0.73117
 H791 H 0.43960 0.23962 0.65989
 H792 H 0.36130 0.25049 0.60216
 H793 H 0.49673 0.18556 0.58102
 H794 H 0.41812 0.19548 0.52662
 C795 C 0.63884 0.55947 0.85592
 C796 C 0.59411 0.58237 0.90356
 C797 C 0.57690 0.63847 0.89560
 C798 C 0.60203 0.66754 0.84153
 C799 C 0.66396 0.64971 0.80521
 C800 C 0.67700 0.59241 0.81096
 C801 C 0.74454 0.55962 0.82208
 C802 C 0.70170 0.52377 0.86792
 H803 H 0.53851 0.65871 0.92756
 H804 H 0.57441 0.70575 0.83146
 H805 H 0.78428 0.58310 0.85072
 H806 H 0.76508 0.53723 0.77902
 H807 H 0.72024 0.52811 0.91890
 H808 H 0.68906 0.48138 0.85071
 C809 C 0.45586 0.34840 0.90616
 C810 C 0.43587 0.40314 0.92169
 C811 C 0.37243 0.42292 0.88752
 C812 C 0.33074 0.39055 0.84632
 C813 C 0.34381 0.33435 0.83918
 C814 C 0.40950 0.31425 0.86694
 C815 C 0.47407 0.29246 0.83104
 C816 C 0.52347 0.32890 0.87333
 H817 H 0.35365 0.46525 0.88974
 H818 H 0.28879 0.41094 0.81851
 H819 H 0.47469 0.30464 0.77947
 H820 H 0.47879 0.24727 0.83853
 H821 H 0.55197 0.36247 0.84628
 H822 H 0.55927 0.30540 0.90665
 C823 C 0.96630 0.14787 0.11214
 C824 C 0.94188 0.09583 0.08765
 C825 C 0.87197 0.07882 0.11182
 C826 C 0.82710 0.11241 0.14754
 C827 C 0.84702 0.16557 0.16795
 C828 C 0.91946 0.18200 0.15131
 C829 C 0.97927 0.19086 0.19930
 C830 C 1.02946 0.15687 0.15668
 H831 H 0.84892 0.03767 0.10567
 H832 H 0.78109 0.09109 0.16733
 H833 H 0.96492 0.17010 0.24525
 H834 H 0.99486 0.23503 0.20524
 H835 H 1.04845 0.11790 0.17950
 H836 H 1.07309 0.18148 0.13269
 C837 C 0.62110 0.92351 0.61520
 C838 C 0.55628 0.90386 0.58270
 C839 C 0.54038 0.84740 0.59504
 C840 C 0.58828 0.81482 0.63487
 C841 C 0.65373 0.83616 0.66448
 C842 C 0.66874 0.89137 0.64927
 C843 C 0.72621 0.93665 0.65235
 C844 C 0.67156 0.97334 0.61952
 H845 H 0.49259 0.82817 0.57265
 H846 H 0.57653 0.77178 0.64077
 H847 H 0.77229 0.92926 0.61914
 H848 H 0.74350 0.95387 0.69966
 H849 H 0.69369 0.98867 0.57302
 H850 H 0.64965 1.00590 0.65222
 C851 C 0.13837 0.59874 0.44068
 C852 C 0.06079 0.60301 0.44740
 C853 C 0.02931 0.64535 0.40942
 C854 C 0.07334 0.67731 0.36557
 C855 C 0.15063 0.67042 0.36000
 C856 C 0.18164 0.63301 0.40240
 C857 C 0.23238 0.58737 0.38599
 C858 C 0.18537 0.54978 0.42198
 H859 H -0.02988 0.64969 0.40811
 H860 H 0.04634 0.70253 0.33034
 H861 H 0.28493 0.58973 0.41181
 H862 H 0.23339 0.57666 0.33405
 H863 H 0.21638 0.52732 0.45973
 H864 H 0.15801 0.52211 0.38816
   
