data_POSCAR
  _audit_creation_date              2014-09-24
  _audit_creation_method            'ToBaCCo'
  _symmetry_space_group_name_H-M    'P1'
  _symmetry_Int_Tables_number       1
  _symmetry_cell_setting            triclinic
  loop_
  _symmetry_equiv_pos_as_xyz
 x,y,z
_cell_length_a 50.8284
_cell_length_b 51.0749
_cell_length_c 51.1960
_cell_angle_alpha 89.995800
_cell_angle_beta 90.008900
_cell_angle_gamma 90.009800
loop_
  _atom_site_label
  _atom_site_type_symbol
  _atom_site_fract_x
  _atom_site_fract_y
  _atom_site_fract_z
N1 N 0.29202 0.23916 0.21921
 N2 N 0.28148 0.26043 0.20919
 C3 C 0.29542 0.26767 0.18798
 C4 C 0.31563 0.24997 0.18474
 C5 C 0.31302 0.23214 0.20477
 H6 H 0.29127 0.28447 0.17582
 H7 H 0.32544 0.21537 0.20853
 Cu8 Cu 0.25058 0.27656 0.22485
 Cu9 Cu 0.27779 0.22217 0.25020
 Cu10 Cu 0.22217 0.24997 0.27794
 N11 N 0.21905 0.29165 0.24033
 N12 N 0.20804 0.28114 0.26110
 C13 C 0.18671 0.29528 0.26776
 C14 C 0.18434 0.31560 0.25021
 C15 C 0.20505 0.31284 0.23306
 H16 H 0.17389 0.29112 0.28410
 H17 H 0.20950 0.32533 0.21658
 N18 N 0.23935 0.21843 0.29216
 N19 N 0.26054 0.20784 0.28159
 C20 C 0.26755 0.18667 0.29569
 C21 C 0.24994 0.18397 0.31595
 C22 C 0.23233 0.20428 0.31326
 H23 H 0.28420 0.17415 0.29162
 H24 H 0.21571 0.20839 0.32578
 H25 H 0.23947 0.23461 0.24476
 H26 H 0.26074 0.25518 0.26628
 N27 N 0.70760 -0.23938 0.21861
 N28 N 0.71818 -0.26063 0.20855
 C29 C 0.70426 -0.26784 0.18731
 C30 C 0.68404 -0.25015 0.18412
 C31 C 0.68659 -0.23235 0.20418
 H32 H 0.70845 -0.28462 0.17512
 H33 H 0.67415 -0.21560 0.20798
 Cu34 Cu 0.74910 -0.27674 0.22421
 Cu35 Cu 0.72180 -0.22245 0.24965
 Cu36 Cu 0.77743 -0.25025 0.27738
 N37 N 0.78063 -0.29184 0.23968
 N38 N 0.79161 -0.28137 0.26049
 C39 C 0.81296 -0.29549 0.26717
 C40 C 0.81534 -0.31576 0.24957
 C41 C 0.79466 -0.31301 0.23237
 H42 H 0.82574 -0.29134 0.28355
 H43 H 0.79022 -0.32547 0.21586
 N44 N 0.76022 -0.21876 0.29165
 N45 N 0.73902 -0.20816 0.28108
 C46 C 0.73199 -0.18703 0.29522
 C47 C 0.74959 -0.18435 0.31550
 C48 C 0.76722 -0.20464 0.31278
 H49 H 0.71533 -0.17451 0.29116
 H50 H 0.78384 -0.20876 0.32530
 H51 H 0.76013 -0.23483 0.24422
 H52 H 0.73887 -0.25548 0.26566
 N53 N 0.70862 0.23949 0.78075
 N54 N 0.71938 0.26057 0.79098
 C55 C 0.70540 0.26781 0.81216
 C56 C 0.68496 0.25033 0.81517
 C57 C 0.68747 0.23261 0.79503
 H58 H 0.70969 0.28448 0.82446
 H59 H 0.67487 0.21601 0.79109
 Cu60 Cu 0.75057 0.27636 0.77554
 Cu61 Cu 0.72281 0.22254 0.74970
 Cu62 Cu 0.77841 0.25042 0.72191
 N63 N 0.78177 0.29186 0.75981
 N64 N 0.79256 0.28158 0.73880
 C65 C 0.81372 0.29591 0.73195
 C66 C 0.81616 0.31611 0.74963
 C67 C 0.79571 0.31311 0.76705
 H68 H 0.82634 0.29194 0.71541
 H69 H 0.79138 0.32545 0.78368
 N70 N 0.76122 0.21888 0.70769
 N71 N 0.74004 0.20826 0.71828
 C72 C 0.73304 0.18708 0.70418
 C73 C 0.75064 0.18439 0.68391
 C74 C 0.76823 0.20472 0.68658
 H75 H 0.71641 0.17453 0.70829
 H76 H 0.78486 0.20883 0.67406
 H77 H 0.76126 0.23464 0.75495
 H78 H 0.73996 0.25566 0.73392
 N79 N 0.29197 -0.23996 0.78122
 N80 N 0.28138 -0.26121 0.79126
 C81 C 0.29537 -0.26848 0.81243
 C82 C 0.31565 -0.25085 0.81562
 C83 C 0.31303 -0.23301 0.79560
 H84 H 0.29119 -0.28528 0.82461
 H85 H 0.32550 -0.21628 0.79180
 Cu86 Cu 0.25036 -0.27722 0.77567
 Cu87 Cu 0.27770 -0.22291 0.75027
 Cu88 Cu 0.22190 -0.25051 0.72268
 N89 N 0.21873 -0.29220 0.76028
 N90 N 0.20770 -0.28164 0.73954
 C91 C 0.18629 -0.29569 0.73291
 C92 C 0.18392 -0.31601 0.75046
 C93 C 0.20467 -0.31336 0.76758
 H94 H 0.17345 -0.29147 0.71658
 H95 H 0.20914 -0.32588 0.78404
 N96 N 0.23914 -0.21902 0.70843
 N97 N 0.26040 -0.20850 0.71895
 C98 C 0.26745 -0.18735 0.70483
 C99 C 0.24978 -0.18457 0.68463
 C100 C 0.23211 -0.20483 0.68735
 H101 H 0.28416 -0.17489 0.70887
 H102 H 0.21543 -0.20888 0.67487
 H103 H 0.23935 -0.23523 0.75582
 H104 H 0.26048 -0.25586 0.73424
 N105 N 0.70861 -0.23922 0.78115
 N106 N 0.71976 -0.25990 0.79176
 C107 C 0.70583 -0.26712 0.81297
 C108 C 0.68504 -0.25003 0.81561
 C109 C 0.68726 -0.23257 0.79522
 H110 H 0.71040 -0.28351 0.82555
 H111 H 0.67434 -0.21630 0.79098
 Cu112 Cu 0.75133 -0.27534 0.77683
 Cu113 Cu 0.72257 -0.22248 0.74995
 Cu114 Cu 0.77820 -0.25022 0.72225
 N115 N 0.78216 -0.29102 0.76069
 N116 N 0.79258 -0.28110 0.73934
 C117 C 0.81357 -0.29556 0.73232
 C118 C 0.81628 -0.31547 0.75025
 C119 C 0.79618 -0.31220 0.76800
 H120 H 0.82589 -0.29186 0.71549
 H121 H 0.79212 -0.32429 0.78487
 N122 N 0.76080 -0.21895 0.70784
 N123 N 0.73960 -0.20838 0.71840
 C124 C 0.73248 -0.18732 0.70420
 C125 C 0.75004 -0.18468 0.68391
 C126 C 0.76773 -0.20490 0.68665
 H127 H 0.71584 -0.17479 0.70829
 H128 H 0.78438 -0.20897 0.67416
 H129 H 0.73996 -0.25581 0.73488
 H130 H 0.76121 -0.23395 0.75514
 N131 N 0.29187 0.23930 0.78077
 N132 N 0.28108 0.26033 0.79103
 C133 C 0.29507 0.26761 0.81218
 C134 C 0.31555 0.25019 0.81513
 C135 C 0.31306 0.23248 0.79500
 H136 H 0.29077 0.28426 0.82451
 H137 H 0.32570 0.21591 0.79103
 Cu138 Cu 0.24983 0.27604 0.77571
 Cu139 Cu 0.27767 0.22232 0.74978
 Cu140 Cu 0.22193 0.25003 0.72215
 N141 N 0.21859 0.29140 0.76005
 N142 N 0.20777 0.28110 0.73908
 C143 C 0.18657 0.29537 0.73229
 C144 C 0.18411 0.31555 0.74995
 C145 C 0.20461 0.31260 0.76732
 H146 H 0.17391 0.29138 0.71578
 H147 H 0.20894 0.32496 0.78392
 N148 N 0.23916 0.21858 0.70790
 N149 N 0.26040 0.20802 0.71842
 C150 C 0.26742 0.18688 0.70431
 C151 C 0.24976 0.18416 0.68411
 C152 C 0.23212 0.20442 0.68681
 H153 H 0.28409 0.17438 0.70836
 H154 H 0.21545 0.20849 0.67434
 H155 H 0.26040 0.25540 0.73408
 H156 H 0.23921 0.23430 0.75515
 N157 N 0.29226 -0.23871 0.21894
 N158 N 0.28104 -0.25930 0.20824
 C159 C 0.29500 -0.26654 0.18706
 C160 C 0.31589 -0.24955 0.18454
 C161 C 0.31370 -0.23213 0.20496
 H162 H 0.29039 -0.28288 0.17443
 H163 H 0.32669 -0.21593 0.20929
 Cu164 Cu 0.24934 -0.27463 0.22302
 Cu165 Cu 0.27828 -0.22198 0.25013
 Cu166 Cu 0.22244 -0.24956 0.27760
 N167 N 0.21840 -0.29023 0.23905
 N168 N 0.20798 -0.28033 0.26040
 C169 C 0.18694 -0.29475 0.26734
 C170 C 0.18416 -0.31463 0.24937
 C171 C 0.20432 -0.31134 0.23169
 H172 H 0.17459 -0.29107 0.28415
 H173 H 0.20837 -0.32342 0.21482
 N174 N 0.23994 -0.21840 0.29214
 N175 N 0.26122 -0.20789 0.28167
 C176 C 0.26838 -0.18689 0.29594
 C177 C 0.25077 -0.18423 0.31618
 C178 C 0.23300 -0.20437 0.31333
 H179 H 0.28509 -0.17441 0.29193
 H180 H 0.21628 -0.20841 0.32575
 H181 H 0.26069 -0.25529 0.26506
 H182 H 0.23961 -0.23327 0.24480
 N183 N 0.70778 0.23865 0.21912
 N184 N 0.71854 0.25970 0.20886
 C185 C 0.70460 0.26691 0.18765
 C186 C 0.68419 0.24941 0.18465
 C187 C 0.68665 0.23174 0.20482
 H188 H 0.70889 0.28355 0.17531
 H189 H 0.67405 0.21514 0.20877
 Cu190 Cu 0.74967 0.27555 0.22427
 Cu191 Cu 0.72190 0.22178 0.25020
 Cu192 Cu 0.77744 0.24975 0.27800
 N193 N 0.78079 0.29106 0.24002
 N194 N 0.79156 0.28085 0.26106
 C195 C 0.81268 0.29520 0.26790
 C196 C 0.81515 0.31535 0.25019
 C197 C 0.79474 0.31228 0.23275
 H198 H 0.82529 0.29129 0.28446
 H199 H 0.79044 0.32459 0.21610
 N200 N 0.76025 0.21827 0.29224
 N201 N 0.73909 0.20761 0.28165
 C202 C 0.73209 0.18647 0.29578
 C203 C 0.74968 0.18386 0.31606
 C204 C 0.76726 0.20418 0.31338
 H205 H 0.71549 0.17388 0.29168
 H206 H 0.78387 0.20833 0.32592
 H207 H 0.73899 0.25495 0.26590
 H208 H 0.76034 0.23389 0.24496
 O209 O 0.22845 0.02519 0.47482
 O210 O 0.22843 -0.02578 0.52577
 O211 O 0.22834 0.02522 0.52569
 O212 O 0.22857 -0.02580 0.47489
 O213 O 0.27209 -0.02570 0.47500
 O214 O 0.27185 0.02531 0.52580
 O215 O 0.27194 -0.02569 0.52588
 O216 O 0.27195 0.02529 0.47493
 Cu217 Cu 0.22406 -0.00030 0.50028
 Cu218 Cu 0.27635 -0.00018 0.50042
 C219 C 0.25020 0.03385 0.46627
 C220 C 0.25018 -0.03434 0.53443
 C221 C 0.25006 0.03387 0.53432
 C222 C 0.25037 -0.03435 0.46637
 O223 O 0.72825 0.02521 0.52556
 O224 O 0.72803 -0.02578 0.47463
 O225 O 0.72812 -0.02579 0.52551
 O226 O 0.72812 0.02521 0.47469
 O227 O 0.77164 0.02512 0.47460
 O228 O 0.77164 -0.02588 0.52542
 O229 O 0.77154 -0.02587 0.47454
 O230 O 0.77176 0.02512 0.52547
 Cu231 Cu 0.72374 -0.00028 0.50011
 Cu232 Cu 0.77603 -0.00039 0.50000
 C233 C 0.75005 0.03378 0.53411
 C234 C 0.74975 -0.03443 0.46598
 C235 C 0.74988 -0.03445 0.53404
 C236 C 0.74988 0.03377 0.46607
 O237 O 0.47437 0.22908 0.02509
 O238 O 0.52567 0.22915 -0.02577
 O239 O 0.52559 0.22900 0.02510
 O240 O 0.47443 0.22921 -0.02579
 O241 O 0.47450 0.27252 -0.02568
 O242 O 0.52567 0.27230 0.02523
 O243 O 0.52574 0.27245 -0.02565
 O244 O 0.47443 0.27238 0.02521
 Cu245 Cu 0.50001 0.22474 -0.00036
 Cu246 Cu 0.50009 0.27678 -0.00022
 C247 C 0.46575 0.25071 0.03374
 C248 C 0.53437 0.25081 -0.03430
 C249 C 0.53426 0.25061 0.03376
 C250 C 0.46583 0.25090 -0.03433
 O251 O 0.52628 0.72736 0.02567
 O252 O 0.47494 0.72717 -0.02518
 O253 O 0.52619 0.72725 -0.02522
 O254 O 0.47504 0.72729 0.02571
 O255 O 0.47499 0.77059 0.02560
 O256 O 0.52613 0.77055 -0.02531
 O257 O 0.47489 0.77047 -0.02527
 O258 O 0.52623 0.77065 0.02557
 Cu259 Cu 0.50062 0.72290 0.00026
 Cu260 Cu 0.50055 0.77493 0.00014
 C261 C 0.53491 0.74904 0.03421
 C262 C 0.46625 0.74879 -0.03381
 C263 C 0.53478 0.74890 -0.03386
 C264 C 0.46639 0.74895 0.03425
 O265 O 0.02505 0.47500 0.22719
 O266 O -0.02621 0.52603 0.22705
 O267 O 0.02504 0.52600 0.22705
 O268 O -0.02619 0.47503 0.22720
 O269 O -0.02617 0.47515 0.27040
 O270 O 0.02505 0.52612 0.27025
 O271 O -0.02619 0.52615 0.27025
 O272 O 0.02506 0.47513 0.27039
 Cu273 Cu -0.00058 0.50051 0.22277
 Cu274 Cu -0.00056 0.50065 0.27468
 C275 C 0.03370 0.46644 0.24881
 C276 C -0.03485 0.53471 0.24863
 C277 C 0.03369 0.53466 0.24862
 C278 C -0.03481 0.46648 0.24883
 O279 O 0.02527 0.52605 0.72959
 O280 O -0.02600 0.47503 0.72936
 O281 O -0.02597 0.52603 0.72948
 O282 O 0.02523 0.47506 0.72947
 O283 O 0.02515 0.47495 0.77267
 O284 O -0.02606 0.52593 0.77268
 O285 O -0.02609 0.47492 0.77256
 O286 O 0.02519 0.52595 0.77279
 Cu287 Cu -0.00036 0.50056 0.72512
 Cu288 Cu -0.00046 0.50043 0.77703
 C289 C 0.03389 0.53462 0.75123
 C290 C -0.03469 0.46635 0.75092
 C291 C -0.03465 0.53459 0.75108
 C292 C 0.03383 0.46640 0.75106
 C293 C 0.37185 0.25040 0.12789
 N294 N 0.36607 0.24223 0.10334
 N295 N 0.38448 0.24232 0.08481
 C296 C 0.40925 0.25059 0.09026
 N297 N 0.41503 0.25875 0.11481
 N298 N 0.39661 0.25866 0.13334
 C299 C 0.35203 0.25026 0.14787
 C300 C 0.33541 0.25013 0.16467
 C301 C 0.42911 0.25064 0.07032
 C302 C 0.44582 0.25068 0.05360
 C303 C 0.62893 0.74950 0.12828
 N304 N 0.61895 0.77234 0.11909
 N305 N 0.60052 0.77224 0.10056
 C306 C 0.59151 0.74930 0.09066
 N307 N 0.60150 0.72646 0.09984
 N308 N 0.61993 0.72656 0.11837
 C309 C 0.64873 0.74961 0.14828
 C310 C 0.66534 0.74972 0.16511
 C311 C 0.57161 0.74919 0.07075
 C312 C 0.55487 0.74911 0.05405
 C313 C 0.62859 0.25068 -0.12813
 N314 N 0.61907 0.27361 -0.11868
 N315 N 0.60058 0.27366 -0.10022
 C316 C 0.59105 0.25078 -0.09064
 N317 N 0.60057 0.22785 -0.10009
 N318 N 0.61906 0.22780 -0.11855
 C319 C 0.64846 0.25061 -0.14806
 C320 C 0.66513 0.25051 -0.16483
 C321 C 0.57111 0.25082 -0.07078
 C322 C 0.55434 0.25083 -0.05412
 C323 C 0.37208 0.74876 -0.12772
 N324 N 0.36645 0.74019 -0.10327
 N325 N 0.38494 0.74016 -0.08480
 C326 C 0.40962 0.74870 -0.09022
 N327 N 0.41524 0.75726 -0.11467
 N328 N 0.39676 0.75729 -0.13314
 C329 C 0.35217 0.74884 -0.14762
 C330 C 0.33548 0.74895 -0.16437
 C331 C 0.42953 0.74869 -0.07032
 C332 C 0.44629 0.74872 -0.05364
 C333 C 0.12780 0.37227 0.24943
 N334 N 0.10195 0.36567 0.24961
 N335 N 0.08347 0.38418 0.24944
 C336 C 0.09028 0.40986 0.24908
 N337 N 0.11613 0.41646 0.24890
 N338 N 0.13461 0.39794 0.24907
 C339 C 0.14770 0.35232 0.24967
 C340 C 0.16442 0.33557 0.24990
 C341 C 0.07037 0.42980 0.24896
 C342 C 0.05364 0.44654 0.24888
 C343 C 0.12822 0.62859 0.75111
 N344 N 0.10496 0.63267 0.73879
 N345 N 0.08641 0.61421 0.73888
 C346 C 0.09057 0.59111 0.75129
 N347 N 0.11384 0.58704 0.76362
 N348 N 0.13238 0.60550 0.76353
 C349 C 0.14822 0.64845 0.75095
 C350 C 0.16500 0.66515 0.75075
 C351 C 0.07062 0.57121 0.75132
 C352 C 0.05385 0.55450 0.75130
 C353 C -0.12911 0.62873 0.24886
 N354 N -0.10327 0.63538 0.24910
 N355 N -0.08475 0.61690 0.24899
 C356 C -0.09151 0.59121 0.24864
 N357 N -0.11735 0.58456 0.24839
 N358 N -0.13586 0.60304 0.24850
 C359 C -0.14905 0.64864 0.24906
 C360 C -0.16579 0.66537 0.24928
 C361 C -0.07157 0.57130 0.24859
 C362 C -0.05481 0.55459 0.24859
 C363 C -0.12857 0.37193 0.75022
 N364 N -0.10444 0.36721 0.73993
 N365 N -0.08602 0.38578 0.74009
 C366 C -0.09116 0.40964 0.75054
 N367 N -0.11529 0.41436 0.76084
 N368 N -0.13371 0.39578 0.76067
 C369 C -0.14842 0.35192 0.75003
 C370 C -0.16507 0.33509 0.74985
 C371 C -0.07130 0.42964 0.75071
 C372 C -0.05460 0.44642 0.75082
 C373 C 0.25005 0.12759 0.37239
 N374 N 0.23397 0.10648 0.37039
 N375 N 0.23401 0.08807 0.38884
 C376 C 0.25014 0.09019 0.40985
 N377 N 0.26622 0.11129 0.41184
 N378 N 0.26618 0.12971 0.39339
 C379 C 0.25000 0.14743 0.35252
 C380 C 0.24996 0.16409 0.33583
 C381 C 0.25018 0.07036 0.42972
 C382 C 0.25020 0.05369 0.44641
 C383 C 0.75050 0.12783 0.62766
 N384 N 0.76657 0.12982 0.60660
 N385 N 0.76648 0.11132 0.58823
 C386 C 0.75033 0.09029 0.59036
 N387 N 0.73427 0.08831 0.61142
 N388 N 0.73435 0.10680 0.62979
 C389 C 0.75058 0.14775 0.64745
 C390 C 0.75062 0.16448 0.66408
 C391 C 0.75022 0.07038 0.57056
 C392 C 0.75014 0.05366 0.55392
 C393 C 0.24995 -0.12815 0.62824
 N394 N 0.24713 -0.10256 0.63474
 N395 N 0.24719 -0.08413 0.61631
 C396 C 0.25008 -0.09072 0.59081
 N397 N 0.25290 -0.11631 0.58430
 N398 N 0.25284 -0.13474 0.60273
 C399 C 0.24988 -0.14800 0.64809
 C400 C 0.24983 -0.16469 0.66476
 C401 C 0.25013 -0.07087 0.57095
 C402 C 0.25016 -0.05419 0.55427
 C403 C 0.74956 -0.12807 0.37202
 N404 N 0.76834 -0.12800 0.39085
 N405 N 0.76835 -0.10961 0.40932
 C406 C 0.74958 -0.09074 0.40954
 N407 N 0.73080 -0.09081 0.39071
 N408 N 0.73079 -0.10919 0.37223
 C409 C 0.74955 -0.14787 0.35211
 C410 C 0.74956 -0.16451 0.33540
 C411 C 0.74962 -0.07091 0.42942
 C412 C 0.74967 -0.05426 0.44612
 C413 C 0.62868 0.74937 -0.12782
 N414 N 0.61869 0.77219 -0.11862
 N415 N 0.60024 0.77206 -0.10013
 C416 C 0.59124 0.74909 -0.09028
 N417 N 0.60123 0.72627 -0.09948
 N418 N 0.61968 0.72640 -0.11798
 C419 C 0.64852 0.74952 -0.14773
 C420 C 0.66519 0.74970 -0.16446
 C421 C 0.57137 0.74896 -0.07040
 C422 C 0.55467 0.74891 -0.05370
 C423 C 0.37188 0.25077 -0.12826
 N424 N 0.36613 0.24263 -0.10370
 N425 N 0.38459 0.24273 -0.08521
 C426 C 0.40934 0.25096 -0.09073
 N427 N 0.41508 0.25910 -0.11529
 N428 N 0.39663 0.25901 -0.13378
 C429 C 0.35204 0.25060 -0.14817
 C430 C 0.33538 0.25043 -0.16492
 C431 C 0.42922 0.25099 -0.07085
 C432 C 0.44593 0.25097 -0.05416
 C433 C 0.37244 0.74959 0.12815
 N434 N 0.36676 0.74093 0.10375
 N435 N 0.38523 0.74074 0.08529
 C436 C 0.40994 0.74920 0.09068
 N437 N 0.41562 0.75786 0.11508
 N438 N 0.39714 0.75805 0.13354
 C439 C 0.35254 0.74986 0.14800
 C440 C 0.33582 0.75012 0.16468
 C441 C 0.42980 0.74906 0.07080
 C442 C 0.44651 0.74898 0.05410
 C443 C 0.62802 0.24991 0.12788
 N444 N 0.61863 0.27290 0.11845
 N445 N 0.60023 0.27306 0.09991
 C446 C 0.59067 0.25023 0.09025
 N447 N 0.60006 0.22725 0.09968
 N448 N 0.61846 0.22709 0.11822
 C449 C 0.64780 0.24974 0.14785
 C450 C 0.66441 0.24959 0.16464
 C451 C 0.57083 0.25040 0.07033
 C452 C 0.55414 0.25051 0.05362
 C453 C -0.12852 0.62879 0.75073
 N454 N -0.10267 0.63535 0.75049
 N455 N -0.08423 0.61681 0.75061
 C456 C -0.09110 0.59115 0.75096
 N457 N -0.11695 0.58459 0.75120
 N458 N -0.13539 0.60314 0.75109
 C459 C -0.14835 0.64875 0.75057
 C460 C -0.16499 0.66556 0.75043
 C461 C -0.07125 0.57120 0.75103
 C462 C -0.05455 0.55447 0.75107
 C463 C -0.12863 0.37220 0.24949
 N464 N -0.10449 0.36726 0.23934
 N465 N -0.08607 0.38583 0.23917
 C466 C -0.09125 0.40989 0.24913
 N467 N -0.11538 0.41483 0.25928
 N468 N -0.13380 0.39626 0.25946
 C469 C -0.14843 0.35220 0.24973
 C470 C -0.16506 0.33539 0.24993
 C471 C -0.07140 0.42984 0.24899
 C472 C -0.05470 0.44659 0.24891
 C473 C 0.12775 0.37225 0.75062
 N474 N 0.10191 0.36567 0.75042
 N475 N 0.08345 0.38420 0.75057
 C476 C 0.09030 0.40986 0.75091
 N477 N 0.11615 0.41644 0.75111
 N478 N 0.13460 0.39791 0.75097
 C479 C 0.14761 0.35231 0.75041
 C480 C 0.16427 0.33554 0.75022
 C481 C 0.07044 0.42979 0.75100
 C482 C 0.05373 0.44652 0.75104
 C483 C 0.12782 0.62864 0.24879
 N484 N 0.10454 0.63279 0.23652
 N485 N 0.08606 0.61429 0.23642
 C486 C 0.09030 0.59109 0.24860
 N487 N 0.11357 0.58694 0.26088
 N488 N 0.13206 0.60544 0.26097
 C489 C 0.14767 0.64859 0.24896
 C490 C 0.16434 0.66536 0.24914
 C491 C 0.07037 0.57121 0.24857
 C492 C 0.05362 0.55451 0.24858
 C493 C 0.74994 -0.12832 0.62759
 N494 N 0.74651 -0.10281 0.63410
 N495 N 0.74649 -0.08436 0.61570
 C496 C 0.74991 -0.09086 0.59025
 N497 N 0.75334 -0.11637 0.58374
 N498 N 0.75336 -0.13483 0.60214
 C499 C 0.74997 -0.14817 0.64740
 C500 C 0.75000 -0.16484 0.66405
 C501 C 0.74988 -0.07100 0.57045
 C502 C 0.74987 -0.05431 0.55382
 C503 C 0.25073 -0.12800 0.37261
 N504 N 0.26960 -0.12776 0.39135
 N505 N 0.26953 -0.10936 0.40980
 C506 C 0.25060 -0.09065 0.41006
 N507 N 0.23174 -0.09089 0.39132
 N508 N 0.23180 -0.10930 0.37287
 C509 C 0.25079 -0.14780 0.35276
 C510 C 0.25080 -0.16443 0.33607
 C511 C 0.25053 -0.07084 0.42991
 C512 C 0.25046 -0.05419 0.44657
 C513 C 0.74974 0.12753 0.37240
 N514 N 0.73364 0.10645 0.37038
 N515 N 0.73368 0.08802 0.38880
 C516 C 0.74982 0.09012 0.40979
 N517 N 0.76591 0.11120 0.41182
 N518 N 0.76588 0.12963 0.39340
 C519 C 0.74970 0.14736 0.35258
 C520 C 0.74968 0.16402 0.33591
 C521 C 0.74985 0.07028 0.42962
 C522 C 0.74987 0.05361 0.44627
 C523 C 0.24979 0.12776 0.62784
 N524 N 0.26591 0.12984 0.60684
 N525 N 0.26595 0.11139 0.58845
 C526 C 0.24986 0.09030 0.59051
 N527 N 0.23374 0.08822 0.61151
 N528 N 0.23371 0.10667 0.62991
 C529 C 0.24977 0.14761 0.64765
 C530 C 0.24976 0.16429 0.66428
 C531 C 0.24992 0.07043 0.57072
 C532 C 0.24997 0.05374 0.55409
   
