data_POSCAR
  _audit_creation_date              2014-09-24
  _audit_creation_method            'ToBaCCo'
  _symmetry_space_group_name_H-M    'P1'
  _symmetry_Int_Tables_number       1
  _symmetry_cell_setting            triclinic
  loop_
  _symmetry_equiv_pos_as_xyz
 x,y,z
_cell_length_a 25.7642
_cell_length_b 25.7769
_cell_length_c 25.9440
_cell_angle_alpha 89.959600
_cell_angle_beta 89.967500
_cell_angle_gamma 90.000000
loop_
  _atom_site_label
  _atom_site_type_symbol
  _atom_site_fract_x
  _atom_site_fract_y
  _atom_site_fract_z
C1 C 0.30864 0.37444 1.37633
 C2 C 0.33441 0.33002 1.39523
 C3 C 0.37766 0.30865 1.36959
 C4 C 0.39504 0.33291 1.32417
 C5 C 0.37057 0.37750 1.30464
 C6 C 0.32816 0.39855 1.33144
 H7 H 0.32012 0.31147 1.42982
 H8 H 0.42930 0.31843 1.30476
 H9 H 0.30801 0.43137 1.31479
 C10 C 1.19023 0.62586 0.88087
 C11 C 1.16863 0.60285 0.83640
 C12 C 1.12444 0.62327 0.81251
 C13 C 1.10004 0.66689 0.83363
 C14 C 1.12004 0.69064 0.87806
 C15 C 1.16430 0.66920 0.90200
 H16 H 1.18499 0.56773 0.82037
 H17 H 1.06708 0.68380 0.81388
 H18 H 1.17986 0.68853 0.93554
 C19 C 0.69089 -0.12611 0.12022
 C20 C 0.66891 -0.10352 0.16458
 C21 C 0.62448 -0.12406 0.18778
 C22 C 0.60027 -0.16758 0.16620
 C23 C 0.62091 -0.19197 0.12197
 C24 C 0.66551 -0.16960 0.09877
 H25 H 0.68505 -0.06847 0.18095
 H26 H 0.56767 -0.18421 0.18664
 H27 H 0.68127 -0.18689 0.06437
 C28 C -0.19031 1.12564 -0.37610
 C29 C -0.16433 1.16917 -0.39582
 C30 C -0.12152 1.19091 -0.36981
 C31 C -0.10482 1.16707 -0.32382
 C32 C -0.13005 1.12302 -0.30378
 C33 C -0.17258 1.10224 -0.33053
 H34 H -0.17960 1.18745 -0.43021
 H35 H -0.07063 1.18149 -0.30431
 H36 H -0.19349 1.06942 -0.31471
 C37 C 0.68932 0.62508 0.61935
 C38 C 0.66458 0.66904 0.59891
 C39 C 0.61996 0.68996 0.62255
 C40 C 0.59928 0.66512 0.66626
 C41 C 0.62343 0.62094 0.68688
 C42 C 0.66785 0.60093 0.66294
 H43 H 0.68114 0.68807 0.56553
 H44 H 0.56613 0.68169 0.68598
 H45 H 0.68593 0.56647 0.67876
 C46 C 0.80986 0.37503 0.12473
 C47 C 0.82788 0.39833 0.17021
 C48 C 0.87073 0.37761 0.19657
 C49 C 0.89593 0.33372 0.17621
 C50 C 0.87891 0.30996 0.13034
 C51 C 0.83582 0.33165 0.10472
 H52 H 0.80699 0.43103 0.18625
 H53 H 0.93035 0.31935 0.19539
 H54 H 0.82033 0.31343 0.07042
 C55 C 0.30780 0.12495 0.87526
 C56 C 0.33342 0.16955 0.89388
 C57 C 0.37758 0.18919 0.86911
 C58 C 0.39638 0.16446 0.82495
 C59 C 0.37152 0.12036 0.80494
 C60 C 0.32810 0.10013 0.83098
 H61 H 0.31976 0.18897 0.92830
 H62 H 0.43069 0.17977 0.80616
 H63 H 0.30785 0.06748 0.81415
 C64 C 0.19027 0.87509 0.38003
 C65 C 0.16463 0.83156 0.40119
 C66 C 0.12039 0.80998 0.37739
 C67 C 0.10013 0.83374 0.33306
 C68 C 0.12425 0.87753 0.31191
 C69 C 0.16842 0.89811 0.33567
 H70 H 0.18039 0.81221 0.43465
 H71 H 0.06719 0.81673 0.31340
 H72 H 0.18456 0.93333 0.31962
 Zn73 Zn 0.06385 0.97213 0.01333
 Zn74 Zn -0.04064 0.96109 -0.03730
 Zn75 Zn -0.02921 1.01298 0.06619
 Zn76 Zn 0.01094 1.06561 -0.02685
 O77 O 0.00100 1.00275 0.00359
 O78 O 0.06801 0.91194 -0.01876
 O79 O -0.09977 0.94175 -0.00451
 O80 O 0.00746 0.98721 0.11853
 O81 O -0.00812 0.90163 -0.05683
 O82 O 0.07793 0.95810 0.07959
 O83 O -0.09000 0.98141 0.07049
 O84 O -0.01283 1.11878 0.01040
 O85 O -0.06097 0.99386 -0.09590
 O86 O -0.04157 1.07983 0.08077
 O87 O -0.02291 1.07024 -0.08599
 O88 O 0.07767 1.07917 -0.04159
 O89 O 0.11679 1.00877 -0.01213
 C90 C 0.03754 0.88567 -0.04676
 C91 C -0.11613 0.95275 0.04048
 C92 C 0.05117 0.96474 0.12015
 C93 C -0.03425 1.12061 0.05435
 C94 C -0.05164 1.03974 -0.11157
 C95 C 0.11839 1.05233 -0.03477
 Zn96 Zn 0.51088 0.06454 0.52658
 Zn97 Zn 0.56412 -0.02867 0.48626
 Zn98 Zn 0.45957 -0.03996 0.53711
 Zn99 Zn 0.47098 0.01194 0.43352
 O100 O 0.50117 0.00175 0.49611
 O101 O 0.57756 0.07825 0.54102
 O102 O 0.56859 -0.08867 0.51892
 O103 O 0.43949 -0.00751 0.59595
 O104 O 0.61714 0.00855 0.51082
 O105 O 0.47739 0.06892 0.58598
 O106 O 0.49219 -0.09929 0.55654
 O107 O 0.41015 -0.01947 0.42954
 O108 O 0.57789 -0.04322 0.42005
 O109 O 0.40032 -0.05922 0.50454
 O110 O 0.50749 -0.01406 0.38109
 O111 O 0.45860 0.07879 0.41884
 O112 O 0.48681 0.11769 0.48936
 C113 C 0.61859 0.05202 0.53363
 C114 C 0.53800 -0.11502 0.54683
 C115 C 0.44895 0.03827 0.61175
 C116 C 0.38394 -0.04808 0.45960
 C117 C 0.55112 -0.03670 0.37949
 C118 C 0.46557 0.11954 0.44533
 Zn119 Zn 1.01208 0.43494 0.47370
 Zn120 Zn 1.06494 0.52854 0.51369
 Zn121 Zn 0.96059 0.53930 0.46263
 Zn122 Zn 0.97166 0.48792 0.56648
 O123 O 1.00210 0.49787 0.50389
 O124 O 1.07887 0.42127 0.45939
 O125 O 1.06915 0.58869 0.48134
 O126 O 0.94047 0.50644 0.40412
 O127 O 1.11797 0.49180 0.48850
 O128 O 0.97852 0.43011 0.41435
 O129 O 0.99309 0.59869 0.44300
 O130 O 0.91109 0.51999 0.57064
 O131 O 1.07888 0.54271 0.57998
 O132 O 0.90139 0.55873 0.49505
 O133 O 1.00837 0.51353 0.61884
 O134 O 0.95885 0.42111 0.58113
 O135 O 0.98797 0.38197 0.51106
 C136 C 1.11961 0.44811 0.46616
 C137 C 1.03867 0.61479 0.45314
 C138 C 0.94987 0.46056 0.38858
 C139 C 0.88509 0.54839 0.54022
 C140 C 1.05207 0.53602 0.62052
 C141 C 0.96619 0.38027 0.55485
 Zn142 Zn 0.51073 0.43503 1.02694
 Zn143 Zn 0.45976 0.53985 1.03801
 Zn144 Zn 0.56384 0.52814 0.98616
 Zn145 Zn 0.47010 0.48804 0.93444
 O146 O 0.50089 0.49798 0.99667
 O147 O 0.47691 0.43033 1.08615
 O148 O 0.49290 0.59911 1.05717
 O149 O 0.61687 0.49131 1.01137
 O150 O 0.43973 0.50706 1.09679
 O151 O 0.57739 0.42162 1.04179
 O152 O 0.56831 0.58864 1.01768
 O153 O 0.50652 0.51321 0.88157
 O154 O 0.40034 0.55967 1.00576
 O155 O 0.57765 0.54158 0.91970
 O156 O 0.40965 0.52001 0.93072
 O157 O 0.45705 0.42143 0.92010
 O158 O 0.48716 0.38180 0.98939
 C159 C 0.44871 0.46099 1.11215
 C160 C 0.53833 0.61512 1.04608
 C161 C 0.61836 0.44799 1.03450
 C162 C 0.55053 0.53502 0.87940
 C163 C 0.38375 0.54877 0.96083
 C164 C 0.46499 0.38031 0.94579
 C165 C 1.22757 0.35828 0.42419
 C166 C 1.26291 0.39294 0.40061
 C167 C 1.25063 0.44629 0.40084
 C168 C 1.20501 0.46419 0.42397
 C169 C 1.16956 0.42921 0.44581
 C170 C 1.18113 0.37616 0.44564
 H171 H 1.23400 0.31680 0.42363
 H172 H 1.27693 0.47468 0.38458
 H173 H 1.19673 0.50540 0.42352
 H174 H 1.15410 0.34845 0.46197
 C175 C 0.25163 0.61491 0.95418
 C176 C 0.23781 0.60716 0.90188
 C177 C 0.27379 0.58089 0.87018
 C178 C 0.32049 0.56242 0.88973
 C179 C 0.33371 0.56963 0.94167
 C180 C 0.29894 0.59634 0.97374
 H181 H 0.22542 0.63349 0.98097
 H182 H 0.26760 0.57616 0.82925
 H183 H 0.34672 0.54289 0.86349
 H184 H 0.30795 0.60230 1.01407
 C185 C -0.24812 0.88664 0.04679
 C186 C -0.26177 0.89339 0.09929
 C187 C -0.22589 0.91952 0.13121
 C188 C -0.17928 0.93847 0.11174
 C189 C -0.16615 0.93190 0.05968
 C190 C -0.20095 0.90561 0.02736
 H191 H -0.27434 0.86856 0.01972
 H192 H -0.23207 0.92366 0.17222
 H193 H -0.15303 0.95776 0.13809
 H194 H -0.19206 0.90026 -0.01309
 C195 C 0.75571 0.05437 0.58614
 C196 C 0.76174 0.10695 0.59866
 C197 C 0.72120 0.14175 0.58793
 C198 C 0.67491 0.12409 0.56607
 C199 C 0.66865 0.07143 0.55369
 C200 C 0.70976 0.03684 0.56336
 H201 H 0.78657 0.02695 0.59397
 H202 H 0.72491 0.18244 0.59765
 H203 H 0.64389 0.15158 0.55914
 H204 H 0.70587 -0.00405 0.55460
 C205 C 0.42380 0.22632 0.35418
 C206 C 0.40218 0.26314 0.38837
 C207 C 0.40460 0.25262 0.44172
 C208 C 0.42715 0.20693 0.46005
 C209 C 0.44652 0.16974 0.42566
 C210 C 0.44479 0.17983 0.37261
 H211 H 0.42188 0.23168 0.31285
 H212 H 0.39044 0.28027 0.46978
 H213 H 0.42807 0.20001 0.50123
 H214 H 0.45936 0.15156 0.34533
 C215 C 0.92435 0.27335 0.64577
 C216 C 0.90292 0.23650 0.61151
 C217 C 0.90529 0.24716 0.55818
 C218 C 0.92776 0.29294 0.53996
 C219 C 0.94702 0.33010 0.57443
 C220 C 0.94523 0.31992 0.62745
 H221 H 0.92237 0.26796 0.68710
 H222 H 0.89112 0.21957 0.53008
 H223 H 0.92871 0.29997 0.49879
 H224 H 0.95970 0.34819 0.65478
 C225 C 0.04376 0.74955 -0.10316
 C226 C 0.09771 0.74042 -0.10310
 C227 C 0.13092 0.78005 -0.08615
 C228 C 0.11095 0.82693 -0.06843
 C229 C 0.05716 0.83599 -0.06772
 C230 C 0.02365 0.79705 -0.08579
 H231 H 0.01712 0.71975 -0.11594
 H232 H 0.17265 0.77521 -0.08716
 H233 H 0.13796 0.85639 -0.05552
 H234 H -0.01796 0.80294 -0.08558
 C235 C 0.54669 0.74722 1.11136
 C236 C 0.59934 0.76082 1.10296
 C237 C 0.63064 0.72491 1.07608
 C238 C 0.61042 0.67830 1.05802
 C239 C 0.55819 0.66518 1.06620
 C240 C 0.52648 0.70007 1.09321
 H241 H 0.52015 0.77350 1.13035
 H242 H 0.67181 0.73090 1.07074
 H243 H 0.63639 0.65203 1.03811
 H244 H 0.48593 0.69122 1.09985
 C245 C 0.40402 0.36714 1.21470
 C246 C 0.38823 0.40016 1.25478
 C247 C 0.39001 0.45420 1.24668
 C248 C 0.40856 0.47455 1.19994
 C249 C 0.42602 0.44117 1.16079
 C250 C 0.42295 0.38732 1.16860
 H251 H 0.40171 0.32540 1.21887
 H252 H 0.37825 0.48070 1.27686
 H253 H 0.41046 0.51621 1.19494
 H254 H 0.43521 0.36047 1.13888
 C255 C 0.55300 -0.08787 0.24260
 C256 C 0.60541 -0.10128 0.23660
 C257 C 0.64007 -0.09245 0.27746
 C258 C 0.62258 -0.07105 0.32375
 C259 C 0.57020 -0.05731 0.32980
 C260 C 0.53563 -0.06564 0.28865
 H261 H 0.52570 -0.09413 0.21150
 H262 H 0.68064 -0.10284 0.27376
 H263 H 0.65006 -0.06525 0.35479
 H264 H 0.49492 -0.05584 0.29237
 C265 C -0.11146 1.04648 -0.24549
 C266 C -0.11273 1.10049 -0.25381
 C267 C -0.09639 1.13356 -0.21402
 C268 C -0.07728 1.11341 -0.16801
 C269 C -0.07459 1.05956 -0.16003
 C270 C -0.09273 1.02617 -0.19884
 H271 H -0.12366 1.01996 -0.27546
 H272 H -0.09830 1.17530 -0.21839
 H273 H -0.06453 1.14026 -0.13852
 H274 H -0.09116 0.98451 -0.19367
 C275 C 1.14073 0.59099 0.72316
 C276 C 1.10576 0.60023 0.76371
 C277 C 1.05332 0.58720 0.75734
 C278 C 1.03617 0.56503 0.71122
 C279 C 1.07102 0.55640 0.67032
 C280 C 1.12347 0.56967 0.67675
 H281 H 1.18135 0.60108 0.72714
 H282 H 1.02577 0.59378 0.78821
 H283 H 0.99541 0.55560 0.70722
 H284 H 1.15114 0.56360 0.64590
 C285 C 0.74937 0.60623 0.54447
 C286 C 0.73952 0.60641 0.59789
 C287 C 0.77858 0.58909 0.63149
 C288 C 0.82557 0.57069 0.61238
 C289 C 0.83530 0.56973 0.55911
 C290 C 0.79699 0.58825 0.52525
 H291 H 0.72000 0.61913 0.51753
 H292 H 0.77311 0.59017 0.67285
 H293 H 0.85457 0.55746 0.63960
 H294 H 0.80344 0.58786 0.48400
 C295 C 0.72118 0.35872 1.08932
 C296 C 0.76167 0.39363 1.09984
 C297 C 0.75544 0.44618 1.08723
 C298 C 0.70942 0.46355 1.06445
 C299 C 0.66841 0.42882 1.05488
 C300 C 0.67481 0.37621 1.06747
 H301 H 0.72503 0.31804 1.09911
 H302 H 0.78626 0.47369 1.09491
 H303 H 0.70541 0.50441 1.05553
 H304 H 0.64388 0.34861 1.06061
 C305 C 0.24926 1.05350 -0.10032
 C306 C 0.26180 1.10679 -0.10072
 C307 C 0.22662 1.14167 -0.07727
 C308 C 0.18008 1.12405 -0.05577
 C309 C 0.16830 1.07104 -0.05539
 C310 C 0.20356 1.03586 -0.07714
 H311 H 0.27544 1.02492 -0.11639
 H312 H 0.23332 1.18311 -0.07787
 H313 H 0.15320 1.15190 -0.03949
 H314 H 0.19512 0.99469 -0.07741
 C315 C 0.27360 -0.07948 0.36919
 C316 C 0.23782 -0.10605 0.40092
 C317 C 0.25179 -0.11396 0.45315
 C318 C 0.29912 -0.09544 0.47259
 C319 C 0.33377 -0.06858 0.44048
 C320 C 0.32036 -0.06103 0.38863
 H321 H 0.26724 -0.07454 0.32830
 H322 H 0.22571 -0.13269 0.47998
 H323 H 0.30829 -0.10163 0.51286
 H324 H 0.34648 -0.04132 0.36240
 C325 C 0.63116 -0.22042 0.58727
 C326 C 0.59781 -0.26008 0.60401
 C327 C 0.54387 -0.25098 0.60368
 C328 C 0.52391 -0.20352 0.58606
 C329 C 0.55755 -0.16459 0.56810
 C330 C 0.61133 -0.17357 0.56928
 H331 H 0.67288 -0.22526 0.58854
 H332 H 0.51712 -0.28082 0.61622
 H333 H 0.48229 -0.19768 0.58549
 H334 H 0.63841 -0.14410 0.55648
 C335 C 1.04438 0.75083 0.39644
 C336 C 1.09830 0.76011 0.39632
 C337 C 1.13168 0.72059 0.41327
 C338 C 1.11190 0.67367 0.43116
 C339 C 1.05814 0.66448 0.43203
 C340 C 1.02447 0.70329 0.41395
 H341 H 1.01761 0.78055 0.38369
 H342 H 1.17339 0.72555 0.41212
 H343 H 1.13902 0.64429 0.44407
 H344 H 0.98287 0.69729 0.41429
 C345 C -0.07502 1.22756 0.14553
 C346 C -0.09674 1.26444 0.11144
 C347 C -0.09482 1.25385 0.05809
 C348 C -0.07256 1.20807 0.03969
 C349 C -0.05306 1.17085 0.07402
 C350 C -0.05434 1.18099 0.12704
 H351 H -0.07664 1.23289 0.18687
 H352 H -0.10924 1.28148 0.03011
 H353 H -0.07199 1.20106 -0.00148
 H354 H -0.03967 1.15268 0.15426
 C355 C 0.41616 0.24191 0.94048
 C356 C 0.40288 0.23695 0.88827
 C357 C 0.41248 0.27849 0.85455
 C358 C 0.43357 0.32482 0.87303
 C359 C 0.44628 0.33013 0.92543
 C360 C 0.43810 0.28792 0.95883
 H361 H 0.40937 0.21021 0.96707
 H362 H 0.40226 0.27558 0.81416
 H363 H 0.43947 0.35667 0.84642
 H364 H 0.44725 0.29099 0.99945
 C365 C 0.63968 0.58800 0.77601
 C366 C 0.60472 0.59759 0.73556
 C367 C 0.55213 0.58522 0.74216
 C368 C 0.53480 0.56350 0.78847
 C369 C 0.56962 0.55468 0.82932
 C370 C 0.62224 0.56712 0.82259
 H371 H 0.68039 0.59765 0.77189
 H372 H 0.52458 0.59213 0.71139
 H373 H 0.49392 0.55466 0.79270
 H374 H 0.64991 0.56087 0.85339
 C375 C 0.39008 0.04409 0.74627
 C376 C 0.38925 0.09802 0.75504
 C377 C 0.40577 0.13133 0.71544
 C378 C 0.42447 0.11151 0.66915
 C379 C 0.42657 0.05774 0.66063
 C380 C 0.40843 0.02410 0.69931
 H381 H 0.37767 0.01739 0.77605
 H382 H 0.40413 0.17304 0.72009
 H383 H 0.43726 0.13857 0.63981
 H384 H 0.40958 -0.01751 0.69376
 C385 C 0.14021 0.90991 0.22254
 C386 C 0.10537 0.90055 0.26318
 C387 C 0.05288 0.91346 0.25697
 C388 C 0.03555 0.93564 0.21090
 C389 C 0.07027 0.94439 0.16991
 C390 C 0.12277 0.93124 0.17619
 H391 H 0.18086 0.89991 0.22642
 H392 H 0.02544 0.90678 0.28792
 H393 H -0.00524 0.94499 0.20699
 H394 H 0.15034 0.93740 0.14526
 C395 C 0.88942 0.45398 0.25493
 C396 C 0.88841 0.40001 0.24644
 C397 C 0.90537 0.36687 0.28599
 C398 C 0.92471 0.38694 0.33192
 C399 C 0.92703 0.44076 0.34009
 C400 C 0.90837 0.47419 0.30150
 H401 H 0.87677 0.48057 0.22516
 H402 H 0.90370 0.32514 0.28151
 H403 H 0.93787 0.36003 0.36122
 H404 H 0.90963 0.51584 0.30681
   
