data_POSCAR
  _audit_creation_date              2014-09-24
  _audit_creation_method            'ToBaCCo'
  _symmetry_space_group_name_H-M    'P1'
  _symmetry_Int_Tables_number       1
  _symmetry_cell_setting            triclinic
  loop_
  _symmetry_equiv_pos_as_xyz
 x,y,z
_cell_length_a 33.2030
_cell_length_b 32.5441
_cell_length_c 32.8895
_cell_angle_alpha 91.874200
_cell_angle_beta 84.343900
_cell_angle_gamma 104.077800
loop_
  _atom_site_label
  _atom_site_type_symbol
  _atom_site_fract_x
  _atom_site_fract_y
  _atom_site_fract_z
C1 C 0.19680 0.54127 1.01303
 H2 H 0.20997 0.54999 0.98221
 C3 C 0.16902 0.56275 1.03316
 H4 H 0.16210 0.58834 1.01723
 C5 C 0.18891 0.49533 1.06918
 H6 H 0.19593 0.46820 1.08243
 C7 C 0.16036 0.51557 1.09031
 H8 H 0.14614 0.50396 1.12013
 N9 N 0.20576 0.50799 1.03095
 C10 C 0.31266 0.48583 0.95376
 H11 H 0.30051 0.45248 0.94758
 C12 C 0.35342 0.50555 0.93946
 H13 H 0.37209 0.48681 0.92227
 C14 C 0.30314 0.54940 0.98601
 H15 H 0.28377 0.56602 1.00508
 C16 C 0.34405 0.57042 0.97248
 H17 H 0.35564 0.60335 0.98082
 Zn18 Zn 0.23534 0.47537 0.99701
 N19 N 0.28830 0.50786 0.97627
 C20 C 0.21759 0.46001 0.91399
 N21 N 0.20188 0.45454 0.95377
 C22 C 0.16066 0.43716 0.96400
 C23 C 0.13332 0.42522 0.93366
 C24 C 0.19154 0.44767 0.88271
 C25 C 0.27834 0.44054 1.04932
 C26 C 0.29619 0.40912 1.06220
 C27 C 0.24475 0.35679 1.02901
 C28 C 0.22848 0.38932 1.01593
 N29 N 0.24612 0.43031 1.02540
 H30 H 0.25007 0.47497 0.90628
 H31 H 0.14881 0.43377 0.99586
 H32 H 0.10041 0.41246 0.94230
 H33 H 0.20457 0.45333 0.85134
 H34 H 0.29224 0.47348 1.05572
 H35 H 0.32346 0.41800 1.07909
 H36 H 0.23174 0.32461 1.01927
 H37 H 0.20353 0.38198 0.99613
 C38 C 0.36974 0.54841 0.94890
 C39 C 0.14913 0.54915 1.07193
 C40 C 0.28007 0.36681 1.05110
 C41 C 0.14872 0.43056 0.89244
 C42 C 0.81068 0.50519 -0.03592
 H43 H 0.81847 0.53886 -0.02962
 C44 C 0.83926 0.48731 -0.05977
 H45 H 0.86822 0.50764 -0.07278
 C46 C 0.76583 0.43731 -0.02282
 H47 H 0.73802 0.41782 -0.00702
 C48 C 0.79417 0.41803 -0.04557
 H49 H 0.78730 0.38382 -0.04800
 N50 N 0.77481 0.48018 -0.01789
 C51 C 0.69609 0.56452 0.02605
 H52 H 0.68449 0.54917 0.05497
 C53 C 0.67776 0.59524 0.01280
 H54 H 0.65243 0.60373 0.03184
 C55 C 0.74123 0.57030 -0.03507
 H56 H 0.76454 0.55930 -0.05460
 C57 C 0.72461 0.60234 -0.04895
 H58 H 0.73573 0.61607 -0.07873
 Zn59 Zn 0.74328 0.50546 0.02265
 N60 N 0.72701 0.55231 0.00210
 C61 C 0.77042 0.55175 0.09515
 N62 N 0.77769 0.52289 0.06617
 C63 C 0.81119 0.50574 0.06640
 C64 C 0.83954 0.51828 0.09552
 C65 C 0.79780 0.56470 0.12549
 C66 C 0.66645 0.44909 0.01295
 C67 C 0.62564 0.42690 0.02493
 C68 C 0.63913 0.44217 0.09537
 C69 C 0.68014 0.46306 0.08209
 N70 N 0.69266 0.46690 0.04143
 H71 H 0.74367 0.56503 0.09464
 H72 H 0.81618 0.48212 0.04396
 H73 H 0.86607 0.50430 0.09482
 H74 H 0.79180 0.58794 0.14808
 H75 H 0.67682 0.45358 -0.01917
 H76 H 0.60491 0.41372 0.00183
 H77 H 0.62920 0.44054 0.12775
 H78 H 0.70119 0.47816 0.10418
 C79 C 0.69202 0.61447 -0.02504
 C80 C 0.83174 0.44320 -0.06369
 C81 C 0.61121 0.42442 0.06650
 C82 C 0.83311 0.54808 0.12552
 C83 C 0.02458 0.30880 0.42618
 H84 H -0.00468 0.29834 0.44470
 C85 C 0.02814 0.33867 0.39600
 H86 H 0.00117 0.35073 0.39177
 C87 C 0.09514 0.30629 0.41068
 H88 H 0.12145 0.29451 0.41754
 C89 C 0.09976 0.33532 0.37889
 H90 H 0.12985 0.34534 0.36159
 N91 N 0.05802 0.29421 0.43385
 C92 C -0.01317 0.18748 0.50518
 H93 H -0.01087 0.20114 0.53554
 C94 C -0.03716 0.14639 0.49995
 H95 H -0.05422 0.12881 0.52623
 C96 C 0.00829 0.19255 0.43419
 H97 H 0.02698 0.21042 0.40890
 C98 C -0.01397 0.15092 0.42786
 H99 H -0.01320 0.13709 0.39747
 Zn100 Zn 0.04823 0.26083 0.48140
 N101 N 0.00858 0.20980 0.47245
 C102 C -0.01454 0.28926 0.52962
 N103 N 0.02749 0.29401 0.52339
 C104 C 0.05419 0.32736 0.54012
 C105 C 0.03880 0.35728 0.56444
 C106 C -0.03111 0.31910 0.55256
 C107 C 0.10991 0.21778 0.46536
 C108 C 0.13690 0.19355 0.47497
 C109 C 0.13738 0.22465 0.54268
 C110 C 0.10934 0.24753 0.53212
 N111 N 0.09575 0.24319 0.49411
 H112 H -0.03527 0.26395 0.51442
 H113 H 0.08746 0.33197 0.53294
 H114 H 0.06036 0.38425 0.57670
 H115 H -0.06453 0.31573 0.55583
 H116 H 0.09800 0.21414 0.43570
 H117 H 0.14615 0.17182 0.45236
 H118 H 0.14648 0.22686 0.57355
 H119 H 0.09639 0.26625 0.55519
 C120 C -0.03676 0.12747 0.46111
 C121 C 0.06623 0.35304 0.37219
 C122 C 0.15019 0.19618 0.51426
 C123 C -0.00425 0.35390 0.56970
 C124 C 0.92837 0.71398 0.61320
 H125 H 0.90454 0.73142 0.61293
 C126 C 0.92839 0.68827 0.64650
 H127 H 0.90471 0.68651 0.67190
 C128 C 0.98595 0.69204 0.57888
 H129 H 1.00730 0.69257 0.55173
 C130 C 0.98653 0.66537 0.61099
 H131 H 1.00895 0.64596 0.60870
 N132 N 0.95637 0.71458 0.57998
 C133 C 0.86925 0.74104 0.50998
 H134 H 0.86814 0.71149 0.49365
 C135 C 0.83849 0.76299 0.50595
 H136 H 0.81376 0.74994 0.48667
 C137 C 0.90471 0.79593 0.55201
 H138 H 0.93138 0.80912 0.56882
 C139 C 0.87530 0.81928 0.54801
 H140 H 0.87921 0.85031 0.56225
 Zn141 Zn 0.95013 0.73695 0.52950
 N142 N 0.90191 0.75824 0.53210
 C143 C 0.91884 0.65480 0.50325
 N144 N 0.94682 0.69148 0.49193
 C145 C 0.97487 0.69308 0.45862
 C146 C 0.97635 0.65626 0.43603
 C147 C 0.91957 0.61725 0.48189
 C148 C 1.02643 0.79908 0.53772
 C149 C 1.05435 0.83809 0.52841
 C150 C 1.01829 0.84231 0.46893
 C151 C 0.99134 0.80332 0.47920
 N152 N 0.99521 0.78305 0.51354
 H153 H 0.89732 0.65437 0.53026
 H154 H 0.99742 0.72235 0.45068
 H155 H 0.99982 0.65767 0.41046
 H156 H 0.89777 0.58822 0.49217
 H157 H 1.02842 0.78275 0.56528
 H158 H 1.07800 0.85138 0.54879
 H159 H 1.01381 0.85825 0.44199
 H160 H 0.96587 0.79009 0.46087
 C161 C 0.84229 0.80327 0.52401
 C162 C 0.95688 0.66249 0.64483
 C163 C 1.04947 0.86084 0.49441
 C164 C 0.94938 0.61753 0.44848
 C165 C 0.48209 -0.00848 0.31210
 H166 H 0.49878 -0.03315 0.31247
 C167 C 0.45530 -0.00230 0.34614
 H168 H 0.45087 -0.02289 0.37226
 C169 C 0.46977 0.05012 0.27883
 H170 H 0.47678 0.07175 0.25350
 C171 C 0.44305 0.05755 0.31217
 H172 H 0.42862 0.08383 0.31085
 N173 N 0.48870 0.01752 0.27924
 C174 C 0.55107 -0.04239 0.17947
 H175 H 0.57630 -0.01520 0.17121
 C176 C 0.54382 -0.07745 0.15336
 H177 H 0.56421 -0.07693 0.12546
 C178 C 0.49267 -0.07437 0.22470
 H179 H 0.47157 -0.07219 0.25141
 C180 C 0.48517 -0.11096 0.20016
 H181 H 0.45856 -0.13658 0.20913
 Zn182 Zn 0.53177 0.01369 0.23783
 N183 N 0.52492 -0.04084 0.21365
 C184 C 0.60249 0.00266 0.27539
 N185 N 0.58127 0.03042 0.26363
 C186 C 0.59098 0.07177 0.27540
 C187 C 0.62294 0.08684 0.30035
 C188 C 0.63429 0.01627 0.30130
 C189 C 0.49822 0.04965 0.17638
 C190 C 0.49949 0.07280 0.14110
 C191 C 0.57444 0.09537 0.14089
 C192 C 0.57162 0.07290 0.17690
 N193 N 0.53389 0.05062 0.19389
 H194 H 0.59330 -0.03035 0.26650
 H195 H 0.57264 0.09275 0.26659
 H196 H 0.62882 0.11954 0.31046
 H197 H 0.64988 -0.00637 0.31200
 H198 H 0.46886 0.03020 0.18941
 H199 H 0.47089 0.07161 0.12735
 H200 H 0.60472 0.11229 0.12728
 H201 H 0.59980 0.07173 0.19019
 C202 C 0.51005 -0.11220 0.16302
 C203 C 0.43604 0.03161 0.34676
 C204 C 0.53804 0.09528 0.12264
 C205 C 0.64439 0.05875 0.31445
 C206 C 0.56671 -0.00618 0.67817
 H207 H 0.55270 -0.03985 0.67958
 C208 C 0.59879 0.00978 0.64802
 H209 H 0.60945 -0.01195 0.62635
 C210 C 0.56783 0.06313 0.70337
 H211 H 0.55482 0.08388 0.72424
 C212 C 0.59990 0.08048 0.67363
 H213 H 0.61163 0.11450 0.67265
 N214 N 0.55146 0.02058 0.70455
 C215 C 0.48155 -0.06525 0.80032
 H216 H 0.44959 -0.06575 0.79591
 C217 C 0.49034 -0.08516 0.83435
 H218 H 0.46499 -0.10170 0.85555
 C219 C 0.55376 -0.03923 0.78083
 H220 H 0.57844 -0.01967 0.76110
 C221 C 0.56384 -0.05750 0.81501
 H222 H 0.59625 -0.05269 0.82070
 Zn223 Zn 0.50259 -0.00300 0.73832
 N224 N 0.51317 -0.04231 0.77472
 C225 C 0.43810 -0.06661 0.70249
 N226 N 0.46152 -0.02598 0.70228
 C227 C 0.45837 0.00193 0.67360
 C228 C 0.43041 -0.01015 0.64405
 C229 C 0.40912 -0.07997 0.67358
 C230 C 0.51237 0.05710 0.80025
 C231 C 0.50193 0.08685 0.82809
 C232 C 0.43846 0.08126 0.79584
 C233 C 0.44996 0.05115 0.76875
 N234 N 0.48643 0.03979 0.77146
 H235 H 0.44182 -0.08864 0.72489
 H236 H 0.47777 0.03387 0.67379
 H237 H 0.42826 0.01292 0.62186
 H238 H 0.39052 -0.11228 0.67432
 H239 H 0.54099 0.04722 0.80193
 H240 H 0.52283 0.09985 0.85110
 H241 H 0.40901 0.08935 0.79370
 H242 H 0.42938 0.03638 0.74616
 C243 C 0.53190 -0.07977 0.84276
 C244 C 0.61491 0.05371 0.64470
 C245 C 0.46452 0.09916 0.82623
 C246 C 0.40496 -0.05136 0.64396
 C247 C 0.19492 -0.02082 0.50796
 C248 C 0.23155 0.00916 0.51590
 C249 C 0.23041 0.05149 0.52404
 C250 C 0.19333 0.06447 0.52271
 C251 C 0.15730 0.03469 0.51288
 C252 C 0.15776 -0.00804 0.50567
 C253 C 0.27226 -0.00173 0.50981
 C254 C 0.30060 0.01695 0.47747
 C255 C 0.34084 0.01014 0.47196
 C256 C 0.35301 -0.01523 0.49987
 C257 C 0.32480 -0.03395 0.53279
 C258 C 0.28404 -0.02789 0.53701
 H259 H 0.19603 -0.05332 0.50090
 H260 H 0.25895 0.07460 0.52956
 H261 H 0.29110 0.03698 0.45642
 H262 H 0.26245 -0.04119 0.56281
 H263 H 0.12870 0.04476 0.51136
 H264 H 0.38459 -0.01936 0.49672
 C265 C 0.76967 -0.05019 0.48957
 C266 C 0.77596 -0.00719 0.48036
 C267 C 0.81642 0.01784 0.47209
 C268 C 0.85085 0.00035 0.47188
 C269 C 0.84470 -0.04268 0.48070
 C270 C 0.80418 -0.06821 0.48986
 C271 C 0.74118 0.01312 0.47903
 C272 C 0.72239 0.02661 0.51544
 C273 C 0.69774 0.05588 0.51428
 C274 C 0.69115 0.07067 0.47653
 C275 C 0.70815 0.05564 0.44006
 C276 C 0.73305 0.02680 0.44133
 H277 H 0.73823 -0.06917 0.49657
 H278 H 0.82100 0.05111 0.46514
 H279 H 0.72921 0.01662 0.54459
 H280 H 0.74799 0.01687 0.41318
 H281 H 0.87149 -0.05618 0.48067
 H282 H 0.67197 0.09316 0.47541
 C283 C 0.48082 0.29668 1.04489
 C284 C 0.44919 0.26352 1.03185
 C285 C 0.40774 0.26680 1.03718
 C286 C 0.39761 0.30293 1.05592
 C287 C 0.42972 0.33598 1.06910
 C288 C 0.47148 0.33292 1.06360
 C289 C 0.46005 0.22551 1.01277
 C290 C 0.48342 0.20377 1.03335
 C291 C 0.49749 0.17018 1.01431
 C292 C 0.48778 0.15793 0.97456
 C293 C 0.46295 0.17824 0.95404
 C294 C 0.44913 0.21220 0.97342
 H295 H 0.51292 0.29412 1.04049
 H296 H 0.38362 0.24129 1.02629
 H297 H 0.49140 0.21361 1.06395
 H298 H 0.43119 0.22926 0.95769
 H299 H 0.42226 0.36416 1.08306
 H300 H 0.49865 0.13168 0.96014
 C301 C 0.57114 0.71870 -0.03805
 C302 C 0.52982 0.72273 -0.03401
 C303 C 0.49720 0.68784 -0.04196
 C304 C 0.50594 0.64898 -0.05441
 C305 C 0.54727 0.64492 -0.05673
 C306 C 0.57988 0.67957 -0.04863
 C307 C 0.52144 0.76360 -0.02062
 C308 C 0.52880 0.79676 -0.04856
 C309 C 0.52839 0.83786 -0.03490
 C310 C 0.52025 0.84559 0.00700
 C311 C 0.51088 0.81217 0.03503
 C312 C 0.51145 0.77109 0.02095
 H313 H 0.59620 0.74557 -0.03134
 H314 H 0.46536 0.69121 -0.03921
 H315 H 0.53694 0.79095 -0.08062
 H316 H 0.50623 0.74537 0.04246
 H317 H 0.55425 0.61466 -0.06468
 H318 H 0.52036 0.87749 0.01765
 C319 C 0.99666 0.54042 0.31133
 C320 C 1.01423 0.52521 0.27500
 C321 C 1.03499 0.49246 0.27702
 C322 C 1.03574 0.47353 0.31465
 C323 C 1.01581 0.48755 0.35013
 C324 C 0.99669 0.52129 0.34876
 C325 C 1.00750 0.54136 0.23514
 C326 C 1.03915 0.54881 0.20263
 C327 C 1.03194 0.56382 0.16511
 C328 C 0.99226 0.56984 0.15978
 C329 C 0.96039 0.56224 0.19179
 C330 C 0.96829 0.54841 0.22938
 H331 H 0.98159 0.56636 0.31032
 H332 H 1.04859 0.48027 0.24933
 H333 H 1.06961 0.54390 0.20679
 H334 H 0.94316 0.54121 0.25363
 H335 H 1.01629 0.47293 0.37915
 H336 H 0.98590 0.58004 0.13056
 C337 C -0.03158 0.51167 0.73989
 C338 C -0.02313 0.47154 0.74087
 C339 C -0.02037 0.44816 0.70457
 C340 C -0.02742 0.46398 0.66752
 C341 C -0.03487 0.50462 0.66664
 C342 C -0.03668 0.52883 0.70265
 C343 C -0.01780 0.45353 0.77994
 C344 C -0.05014 0.44684 0.81153
 C345 C -0.04585 0.42800 0.84807
 C346 C -0.00790 0.41800 0.85373
 C347 C 0.02516 0.42572 0.82265
 C348 C 0.01955 0.44258 0.78544
 H349 H -0.03298 0.52977 0.76800
 H350 H -0.01466 0.41681 0.70557
 H351 H -0.07921 0.45488 0.80704
 H352 H 0.04475 0.44904 0.76121
 H353 H -0.03959 0.51730 0.63791
 H354 H -0.00390 0.40475 0.88244
 C355 C 0.17360 0.16604 0.52610
 C356 C 0.20350 0.17410 0.55353
 C357 C 0.21595 0.13722 0.55547
 C358 C 0.19221 0.10930 0.52953
 O359 O 0.16663 0.12679 0.51169
 H360 H 0.21489 0.20330 0.56998
 H361 H 0.23884 0.13114 0.57423
 C362 C 0.67067 0.64493 -0.03986
 C363 C 0.68978 0.68189 -0.06042
 C364 C 0.65825 0.70087 -0.06601
 C365 C 0.62242 0.67355 -0.04906
 O366 O 0.62991 0.63979 -0.03312
 H367 H 0.72270 0.69389 -0.06942
 H368 H 0.66091 0.73062 -0.08105
 C369 C 0.81555 -0.16892 0.51427
 C370 C 0.77487 -0.18190 0.50456
 C371 C 0.76400 -0.14560 0.49532
 C372 C 0.79911 -0.11332 0.49963
 O373 O 0.83017 -0.12751 0.51123
 H374 H 0.75566 -0.21391 0.50381
 H375 H 0.73459 -0.14328 0.48526
 C376 C 0.30316 0.33456 1.05813
 C377 C 0.28614 0.29145 1.05960
 C378 C 0.31912 0.27359 1.06071
 C379 C 0.35396 0.30709 1.05971
 O380 O 0.34424 0.34410 1.05854
 H381 H 0.25374 0.27489 1.05887
 H382 H 0.31786 0.24008 1.06125
 C383 C 0.94037 0.08320 0.45591
 C384 C 0.95600 0.05261 0.43417
 C385 C 0.92501 0.01631 0.43861
 C386 C 0.89276 0.02786 0.46222
 O387 O 0.90211 0.06832 0.47286
 H388 H 0.98640 0.05632 0.41746
 H389 H 0.92534 -0.01443 0.42520
 C390 C 0.41377 0.56954 -0.06387
 C391 C 0.43977 0.55315 -0.09184
 C392 C 0.47765 0.58099 -0.09235
 C393 C 0.47221 0.61252 -0.06482
 O394 O 0.43341 0.60588 -0.04775
 H395 H 0.43241 0.52433 -0.10980
 H396 H 0.50586 0.57857 -0.11075
 C397 C 0.07446 -0.09516 0.48755
 C398 C 0.06205 -0.06514 0.46629
 C399 C 0.09161 -0.02852 0.47029
 C400 C 0.12010 -0.03868 0.49357
 O401 O 0.10983 -0.07910 0.50410
 H402 H 0.03409 -0.06892 0.45079
 H403 H 0.09230 0.00198 0.45771
 C404 C 0.56679 0.40492 1.07891
 C405 C 0.54351 0.41756 1.11195
 C406 C 0.50392 0.39308 1.11027
 C407 C 0.50613 0.36705 1.07659
 O408 O 0.54415 0.37431 1.05752
 H409 H 0.55392 0.44222 1.13410
 H410 H 0.47696 0.39358 1.13147
 C411 C 0.53994 0.11680 1.08359
 C412 C 0.57030 0.11776 1.05153
 C413 C 0.55819 0.13758 1.02062
 C414 C 0.52178 0.14770 1.03648
 O415 O 0.51054 0.13503 1.07455
 H416 H 0.59726 0.10448 1.05045
 H417 H 0.57401 0.14412 0.99031
 C418 C -0.04629 0.62963 0.67569
 C419 C -0.06248 0.63081 0.71588
 C420 C -0.06044 0.59335 0.73216
 C421 C -0.04356 0.57193 0.70053
 O422 O -0.03494 0.59398 0.66641
 H423 H -0.07439 0.65583 0.73142
 H424 H -0.07096 0.58266 0.76306
 C425 C 0.54174 0.90718 -0.11759
 C426 C 0.56951 0.93291 -0.09348
 C427 C 0.56735 0.91071 -0.05862
 C428 C 0.53885 0.87288 -0.06430
 O429 O 0.52307 0.87062 -0.09999
 H430 H 0.58834 0.96450 -0.10021
 H431 H 0.58489 0.92053 -0.03247
 C432 C 1.06996 0.38610 0.34453
 C433 C 1.10264 0.40092 0.31505
 C434 C 1.09317 0.43464 0.29758
 C435 C 1.05592 0.43827 0.31813
 O436 O 1.04185 0.40885 0.34613
 H437 H 1.13021 0.38912 0.30727
 H438 H 1.11210 0.45529 0.27421
 C439 C 0.50098 0.85417 0.13472
 C440 C 0.47281 0.81546 0.14171
 C441 C 0.47367 0.79371 0.10554
 C442 C 0.50167 0.82083 0.07892
 O443 O 0.51833 0.85726 0.09654
 H444 H 0.45397 0.80399 0.16963
 H445 H 0.45519 0.76234 0.09905
 C446 C -0.02083 0.38835 0.58971
 C447 C -0.05093 0.40471 0.57463
 C448 C -0.05631 0.43647 0.60100
 C449 C -0.02939 0.43688 0.63050
 O450 O -0.00768 0.40774 0.62365
 H451 H -0.06675 0.39484 0.54743
 H452 H -0.07815 0.45611 0.59957
 C453 C 0.45277 0.12892 0.85747
 C454 C 0.42241 0.15106 0.85558
 C455 C 0.42220 0.17357 0.89138
 C456 C 0.45236 0.16337 0.91252
 O457 O 0.47080 0.13644 0.89188
 H458 H 0.40275 0.15094 0.83122
 H459 H 0.40188 0.19419 0.90099
 C460 C 0.95464 0.57766 0.42832
 C461 C 0.94252 0.53816 0.44618
 C462 C 0.95674 0.51147 0.41876
 C463 C 0.97629 0.53654 0.38612
 O464 O 0.97506 0.57664 0.39183
 H465 H 0.92648 0.52987 0.47612
 H466 H 0.95324 0.47779 0.42219
 C467 C 1.11694 0.56644 0.09095
 C468 C 1.10234 0.59860 0.07539
 C469 C 1.06900 0.60236 0.10148
 C470 C 1.06550 0.57256 0.13127
 O471 O 1.09469 0.55105 0.12523
 H472 H 1.11362 0.61694 0.04800
 H473 H 1.04943 0.62415 0.09889
 C474 C 0.64429 0.07081 0.60902
 C475 C 0.65433 0.11250 0.59641
 C476 C 0.67683 0.11276 0.55945
 C477 C 0.67919 0.07141 0.55237
 O478 O 0.65965 0.04596 0.58231
 H479 H 0.64480 0.13927 0.61108
 H480 H 0.68916 0.13962 0.53954
 C481 C -0.13532 0.42414 0.91611
 C482 C -0.12750 0.38655 0.92746
 C483 C -0.09218 0.38321 0.90399
 C484 C -0.08135 0.41876 0.87981
 O485 O -0.10739 0.44365 0.88714
 H486 H -0.14467 0.36488 0.95090
 H487 H -0.07645 0.35773 0.90415
 C488 C 0.40953 0.04034 0.38346
 C489 C 0.39847 0.07833 0.39128
 C490 C 0.37260 0.07233 0.42634
 C491 C 0.36983 0.03129 0.43777
 O492 O 0.39245 0.01178 0.41202
 H493 H 0.40773 0.10706 0.37355
 H494 H 0.35692 0.09494 0.44146
 C495 C 0.11968 0.42154 0.86018
 C496 C 0.13067 0.41346 0.81966
 C497 C 0.09600 0.41194 0.80015
 C498 C 0.06633 0.41921 0.83016
 O499 O 0.08055 0.42464 0.86663
 H500 H 0.16060 0.41002 0.80575
 H501 H 0.09312 0.40713 0.76776
 C502 C 0.67334 0.07249 0.34636
 C503 C 0.69245 0.11418 0.35491
 C504 C 0.70976 0.11315 0.39058
 C505 C 0.70043 0.07101 0.40085
 O506 O 0.67851 0.04621 0.37417
 H507 H 0.69236 0.14222 0.33819
 H508 H 0.72593 0.13994 0.40786
 C509 C 0.86351 0.56070 0.15630
 C510 C 0.85537 0.57644 0.19494
 C511 C 0.89095 0.57974 0.21371
 C512 C 0.91824 0.56624 0.18497
 O513 O 0.90166 0.55472 0.15026
 H514 H 0.82658 0.58321 0.20838
 H515 H 0.89623 0.59029 0.24471
 C516 C 0.37372 -0.06277 0.61366
 C517 C 0.33892 -0.09636 0.61669
 C518 C 0.31633 -0.09120 0.58551
 C519 C 0.33925 -0.05526 0.56543
 O520 O 0.37391 -0.03802 0.58244
 H521 H 0.32982 -0.12041 0.63999
 H522 H 0.28612 -0.11043 0.57902
   
