data_POSCAR
  _audit_creation_date              2014-09-24
  _audit_creation_method            'ToBaCCo'
  _symmetry_space_group_name_H-M    'P1'
  _symmetry_Int_Tables_number       1
  _symmetry_cell_setting            triclinic
  loop_
  _symmetry_equiv_pos_as_xyz
 x,y,z
_cell_length_a 20.9597
_cell_length_b 13.2181
_cell_length_c 13.2747
_cell_angle_alpha 89.759500
_cell_angle_beta 90.177800
_cell_angle_gamma 89.825300
loop_
  _atom_site_label
  _atom_site_type_symbol
  _atom_site_fract_x
  _atom_site_fract_y
  _atom_site_fract_z
O1 O 0.09046 0.17043 0.18550
 O2 O 0.16091 0.08080 0.08766
 C3 C 0.14780 0.14495 0.15835
 O4 O -0.08883 -0.18787 0.17430
 O5 O -0.15924 -0.08895 0.08438
 C6 C -0.14620 -0.16015 0.14862
 O7 O 0.09027 -0.17993 0.18447
 O8 O 0.16017 -0.08845 0.08794
 C9 C 0.14773 -0.15419 0.15808
 O10 O -0.08832 0.18209 0.17648
 O11 O -0.15872 0.08623 0.08506
 C12 C -0.14568 0.15604 0.15024
 Zr13 Zr 0.00081 0.12344 0.12854
 O14 O -0.00191 0.11060 0.28722
 O15 O 0.00707 0.28306 0.13524
 Zr16 Zr 0.00087 -0.13142 0.12609
 O17 O -0.00465 -0.13388 0.28523
 O18 O 0.00800 -0.29122 0.12262
 O19 O 0.05796 -0.00426 0.14681
 O20 O -0.05488 -0.00389 0.14561
 O21 O -0.08911 0.18523 -0.17428
 O22 O -0.15904 0.08715 -0.08433
 C23 C -0.14627 0.15814 -0.14864
 O24 O 0.08961 -0.17611 -0.18606
 O25 O 0.15989 -0.08618 -0.08868
 C26 C 0.14686 -0.15031 -0.15931
 O27 O -0.08862 -0.18538 -0.17722
 O28 O -0.15884 -0.08957 -0.08550
 C29 C -0.14593 -0.15907 -0.15101
 O30 O 0.08913 0.17662 -0.18314
 O31 O 0.15973 0.08408 -0.08742
 C32 C 0.14654 0.15009 -0.15701
 Zr33 Zr 0.00018 0.12741 -0.12571
 O34 O -0.00717 0.12983 -0.28481
 O35 O 0.00709 0.28718 -0.12214
 Zr36 Zr 0.00059 -0.12826 -0.12810
 O37 O -0.00687 -0.12575 -0.28721
 O38 O 0.00806 -0.28806 -0.12812
 Zr39 Zr 0.09594 -0.00217 0.00009
 Zr40 Zr -0.09480 -0.00202 -0.00004
 O41 O -0.05513 -0.00016 -0.14548
 O42 O 0.05733 -0.00020 -0.14678
 O43 O -0.05656 0.14537 0.00155
 O44 O 0.05642 -0.14834 -0.00104
 O45 O 0.05598 0.14400 0.00159
 O46 O -0.05636 -0.14968 -0.00121
 H47 H -0.08348 -0.00418 0.20491
 H48 H 0.08537 -0.20773 -0.00130
 H49 H -0.08392 0.00049 -0.20482
 H50 H 0.08458 0.20354 0.00221
 H51 H -0.02934 -0.31696 0.08501
 H52 H -0.02758 -0.31486 -0.08739
 H53 H 0.02868 -0.08427 -0.31327
 H54 H 0.02799 0.08788 -0.31163
 H55 H -0.02998 0.31316 -0.08413
 H56 H -0.02451 0.31075 0.08691
 H57 H -0.00144 0.18070 0.31338
 H58 H 0.02429 -0.08060 0.31043
 O59 O 0.58904 0.67616 0.68216
 O60 O 0.65911 0.58488 0.58588
 C61 C 0.64630 0.64992 0.65578
 O62 O 0.41047 0.31494 0.67350
 O63 O 0.33999 0.41375 0.58369
 C64 C 0.35307 0.34273 0.64833
 O65 O 0.58896 0.32399 0.68393
 O66 O 0.65910 0.41475 0.58692
 C67 C 0.64618 0.35003 0.65747
 O68 O 0.41079 0.68529 0.67278
 O69 O 0.34044 0.58904 0.58167
 C70 C 0.35351 0.65894 0.64663
 Zr71 Zr 0.49988 0.62750 0.62462
 O72 O 0.49296 0.62624 0.78375
 O73 O 0.50685 0.78727 0.62334
 Zr74 Zr 0.49975 0.37170 0.62483
 O75 O 0.49360 0.36590 0.78386
 O76 O 0.50285 0.21230 0.61394
 O77 O 0.55677 0.49936 0.64472
 O78 O 0.44444 0.49980 0.64319
 O79 O 0.40918 0.68445 0.32128
 O80 O 0.33931 0.58675 0.41199
 C81 C 0.35190 0.65728 0.34694
 O82 O 0.58979 0.32391 0.31531
 O83 O 0.66009 0.41571 0.41125
 C84 C 0.64714 0.35023 0.34169
 O85 O 0.41118 0.31336 0.32402
 O86 O 0.34063 0.41078 0.41371
 C87 C 0.35385 0.34002 0.34964
 O88 O 0.58835 0.67593 0.31250
 O89 O 0.65877 0.58452 0.40978
 C90 C 0.64570 0.64955 0.33939
 Zr91 Zr 0.49915 0.62809 0.37045
 O92 O 0.49195 0.62961 0.21136
 O93 O 0.50598 0.78790 0.37256
 Zr94 Zr 0.49999 0.37253 0.37116
 O95 O 0.49276 0.37465 0.21199
 O96 O 0.50628 0.21271 0.37119
 Zr97 Zr 0.59506 0.49969 0.49801
 Zr98 Zr 0.40438 0.50021 0.49765
 O99 O 0.44403 0.50018 0.35218
 O100 O 0.55652 0.50029 0.35103
 O101 O 0.44238 0.64779 0.49745
 O102 O 0.55569 0.35350 0.49840
 O103 O 0.55513 0.64603 0.49748
 O104 O 0.44275 0.35273 0.49796
 H105 H 0.41598 0.49980 0.70264
 H106 H 0.58462 0.29407 0.49874
 H107 H 0.41520 0.49982 0.29289
 H108 H 0.58387 0.70541 0.49731
 H109 H 0.50280 0.18630 0.68406
 H110 H 0.47734 0.18769 0.42446
 H111 H 0.52980 0.41258 0.18568
 H112 H 0.52609 0.58525 0.18512
 H113 H 0.46852 0.81418 0.40939
 H114 H 0.47126 0.81377 0.58176
 H115 H 0.52938 0.58645 0.81034
 H116 H 0.52481 0.41492 0.81069
 N117 N 0.19067 0.26492 0.28127
 C118 C 0.20135 0.19356 0.20998
 N119 N 0.26241 0.16969 0.18569
 N120 N 0.31106 0.21579 0.23086
 C121 C 0.30037 0.28749 0.30180
 N122 N 0.23931 0.31109 0.32635
 N123 N 0.73897 0.81430 0.17167
 C124 C 0.79981 0.78868 0.19664
 N125 N 0.80971 0.71634 0.26786
 N126 N 0.76050 0.67157 0.31278
 C127 C 0.69966 0.69743 0.28805
 N128 N 0.68976 0.76946 0.21652
 N129 N 0.80992 0.28187 0.73156
 C130 C 0.79984 0.20991 0.80291
 N131 N 0.73897 0.18506 0.82715
 N132 N 0.68991 0.23033 0.78140
 C133 C 0.70001 0.30196 0.70971
 N134 N 0.76088 0.32706 0.68575
 N135 N 0.26151 0.82633 0.81281
 C136 C 0.20052 0.80192 0.78857
 N137 N 0.19006 0.73128 0.71651
 N138 N 0.23886 0.68629 0.67067
 C139 C 0.29985 0.71044 0.69516
 N140 N 0.31031 0.78141 0.76690
 N141 N 0.18955 0.27123 0.71998
 C142 C 0.20019 0.19903 0.79120
 N143 N 0.26132 0.17367 0.81458
 N144 N 0.30999 0.21899 0.76863
 C145 C 0.29936 0.29142 0.69763
 N146 N 0.23823 0.31662 0.67409
 N147 N 0.73914 0.81421 0.82471
 C148 C 0.80011 0.78978 0.80014
 N149 N 0.81027 0.71849 0.72856
 N150 N 0.76126 0.67356 0.68302
 C151 C 0.70029 0.69819 0.70739
 N152 N 0.69014 0.76923 0.77921
 N153 N 0.25822 0.82514 0.18013
 C154 C 0.19718 0.80120 0.20511
 N155 N 0.18752 0.73025 0.27791
 N156 N 0.23676 0.68488 0.32331
 C157 C 0.29763 0.70871 0.29794
 N158 N 0.30743 0.77987 0.22564
 N159 N 0.81089 0.27976 0.26965
 C160 C 0.80051 0.20804 0.19857
 N161 N 0.73948 0.18404 0.17403
 N162 N 0.69063 0.22983 0.21911
 C163 C 0.70100 0.30129 0.29044
 N164 N 0.76204 0.32551 0.31478
   
