data_POSCAR
  _audit_creation_date              2014-09-24
  _audit_creation_method            'ToBaCCo'
  _symmetry_space_group_name_H-M    'P1'
  _symmetry_Int_Tables_number       1
  _symmetry_cell_setting            triclinic
  loop_
  _symmetry_equiv_pos_as_xyz
 x,y,z
_cell_length_a 36.5226
_cell_length_b 36.6576
_cell_length_c 37.0361
_cell_angle_alpha 90.138000
_cell_angle_beta 90.069300
_cell_angle_gamma 90.182200
loop_
  _atom_site_label
  _atom_site_type_symbol
  _atom_site_fract_x
  _atom_site_fract_y
  _atom_site_fract_z
O1 O 0.32604 0.37757 0.03336
 O2 O 0.37372 0.32534 -0.03713
 O3 O 0.32514 0.37585 -0.03727
 O4 O 0.37469 0.32557 0.03301
 O5 O 0.33085 0.28391 0.03381
 O6 O 0.28081 0.33490 -0.03573
 O7 O 0.32999 0.28355 -0.03559
 O8 O 0.28169 0.33650 0.03402
 Cu9 Cu 0.35426 0.35535 -0.00183
 Cu10 Cu 0.30133 0.30560 -0.00052
 C11 C 0.29541 0.36635 0.04518
 C12 C 0.36001 0.29550 -0.04828
 C13 C 0.29457 0.36390 -0.04876
 C14 C 0.36173 0.29563 0.04458
 O15 O 0.67753 0.62632 0.03438
 O16 O 0.62915 0.67714 -0.03693
 O17 O 0.67884 0.62718 -0.03645
 O18 O 0.62704 0.67619 0.03324
 O19 O 0.66916 0.71953 0.03409
 O20 O 0.72275 0.66849 -0.03374
 O21 O 0.67224 0.71948 -0.03551
 O22 O 0.72031 0.66901 0.03599
 Cu23 Cu 0.64896 0.64735 -0.00150
 Cu24 Cu 0.70047 0.69836 0.00044
 C25 C 0.70727 0.63897 0.04719
 C26 C 0.64232 0.70714 -0.04819
 C27 C 0.70972 0.63913 -0.04696
 C28 C 0.63875 0.70665 0.04492
 O29 O 0.68497 0.36843 0.96440
 O30 O 0.62999 0.32041 1.03234
 O31 O 0.68012 0.37049 1.03517
 O32 O 0.63362 0.32021 0.96233
 O33 O 0.67519 0.27676 0.96577
 O34 O 0.72259 0.32798 1.03794
 O35 O 0.67179 0.27707 1.03523
 O36 O 0.72731 0.32569 0.96816
 Cu37 Cu 0.65309 0.34936 0.99837
 Cu38 Cu 0.70354 0.29762 1.00219
 C39 C 0.71538 0.35506 0.95455
 C40 C 0.64120 0.29020 1.04483
 C41 C 0.70935 0.35804 1.04902
 C42 C 0.64622 0.28977 0.95182
 O43 O 0.32211 0.63000 0.97038
 O44 O 0.37085 0.68459 1.03835
 O45 O 0.32241 0.63341 1.04081
 O46 O 0.37092 0.68155 0.96781
 O47 O 0.32745 0.72329 0.96694
 O48 O 0.27753 0.67345 1.03807
 O49 O 0.32690 0.72578 1.03694
 O50 O 0.27790 0.67093 0.96862
 Cu51 Cu 0.35101 0.65332 1.00439
 Cu52 Cu 0.29809 0.70259 1.00239
 C53 C 0.29150 0.64084 0.95829
 C54 C 0.35719 0.71436 1.04939
 C55 C 0.29150 0.64488 1.05171
 C56 C 0.35763 0.71086 0.95522
 O57 O -0.03553 0.37292 0.32311
 O58 O 0.03794 0.32426 0.37102
 O59 O 0.03643 0.37291 0.32032
 O60 O -0.03341 0.32379 0.37345
 O61 O -0.03341 0.27922 0.33335
 O62 O 0.03318 0.33043 0.27806
 O63 O 0.03683 0.28114 0.32933
 O64 O -0.03813 0.32890 0.28243
 Cu65 Cu 0.00147 0.35294 0.35095
 Cu66 Cu -0.00060 0.30072 0.30150
 C67 C -0.04962 0.35911 0.29483
 C68 C 0.04973 0.29421 0.35853
 C69 C 0.04667 0.36005 0.29011
 C70 C -0.04459 0.29258 0.36306
 O71 O 0.03546 0.67364 0.62627
 O72 O -0.03657 0.62569 0.67633
 O73 O -0.03550 0.67472 0.62582
 O74 O 0.03436 0.62491 0.67709
 O75 O 0.03432 0.66802 0.71888
 O76 O -0.03422 0.71880 0.66647
 O77 O -0.03610 0.66916 0.71775
 O78 O 0.03590 0.71739 0.66740
 Cu79 Cu -0.00061 0.64535 0.64725
 Cu80 Cu -0.00000 0.69773 0.69684
 C81 C 0.04733 0.70408 0.63781
 C82 C -0.04801 0.63879 0.70597
 C83 C -0.04601 0.70584 0.63678
 C84 C 0.04561 0.63751 0.70710
 O85 O 1.03172 0.63099 0.32320
 O86 O 0.95941 0.68342 0.36843
 O87 O 0.96037 0.63258 0.32029
 O88 O 1.03061 0.68261 0.37181
 O89 O 1.03307 0.72465 0.32938
 O90 O 0.96369 0.67379 0.27696
 O91 O 0.96266 0.72546 0.32586
 O92 O 1.03422 0.67231 0.27996
 Cu93 Cu 0.99549 0.65322 0.35023
 Cu94 Cu 0.99893 0.70322 0.29869
 C95 C 1.04462 0.64224 0.29342
 C96 C 0.94884 0.71340 0.35494
 C97 C 0.95008 0.64466 0.28983
 C98 C 1.04312 0.71271 0.36001
 O99 O 0.96636 0.32253 0.62999
 O100 O 1.03885 0.37228 0.67878
 O101 O 1.03810 0.32342 0.62849
 O102 O 0.96738 0.37198 0.68033
 O103 O 0.96937 0.32930 0.72222
 O104 O 1.03799 0.27917 0.66874
 O105 O 1.04019 0.32869 0.71977
 O106 O 0.96734 0.27934 0.67140
 Cu107 Cu 1.00247 0.35186 0.65022
 Cu108 Cu 1.00380 0.29979 0.69969
 C109 C 0.95458 0.29238 0.64228
 C110 C 1.05190 0.35893 0.70764
 C111 C 1.05007 0.29291 0.63958
 C112 C 0.95664 0.35919 0.71035
 O113 O 0.37138 0.03795 0.31933
 O114 O 0.32332 -0.03123 0.37296
 O115 O 0.37293 -0.03329 0.32274
 O116 O 0.32246 0.03961 0.36957
 O117 O 0.27856 0.03620 0.32856
 O118 O 0.32957 -0.03571 0.28115
 O119 O 0.27935 -0.03367 0.33199
 O120 O 0.32810 0.03478 0.27776
 Cu121 Cu 0.35200 0.00343 0.35024
 Cu122 Cu 0.29960 -0.00005 0.30058
 C123 C 0.35791 0.04824 0.28945
 C124 C 0.29274 -0.04357 0.36203
 C125 C 0.35997 -0.04664 0.29374
 C126 C 0.29178 0.05004 0.35722
 O127 O 0.68285 -0.03588 0.63111
 O128 O 0.62888 0.03325 0.67913
 O129 O 0.67962 0.03564 0.63010
 O130 O 0.63145 -0.03756 0.67924
 O131 O 0.67317 -0.03506 0.72235
 O132 O 0.72182 0.03745 0.67284
 O133 O 0.67045 0.03503 0.72246
 O134 O 0.72519 -0.03321 0.67363
 Cu135 Cu 0.65162 -0.00130 0.65046
 Cu136 Cu 0.70199 0.00135 0.70203
 C137 C 0.71318 -0.04639 0.64417
 C138 C 0.64007 0.04532 0.70936
 C139 C 0.70900 0.04892 0.64307
 C140 C 0.64379 -0.04844 0.70943
 O141 O 0.32259 1.03320 0.62908
 O142 O 0.36979 0.96218 0.68120
 O143 O 0.32019 0.96197 0.63162
 O144 O 0.37161 1.03313 0.68056
 O145 O 0.32814 1.03546 0.72190
 O146 O 0.27658 0.96462 0.67283
 O147 O 0.32692 0.96519 0.72315
 O148 O 0.27841 1.03497 0.66969
 Cu149 Cu 0.35036 0.99765 0.65143
 Cu150 Cu 0.29811 1.00052 0.70102
 C151 C 0.29208 1.04554 0.63994
 C152 C 0.35655 0.95172 0.71111
 C153 C 0.28963 0.95113 0.64400
 C154 C 0.35912 1.04565 0.71008
 O155 O 0.62875 0.96495 0.32268
 O156 O 0.67406 1.03873 0.37375
 O157 O 0.62515 1.03596 0.32261
 O158 O 0.67506 0.96799 0.37546
 O159 O 0.72015 0.96895 0.33577
 O160 O 0.66962 1.03706 0.28226
 O161 O 0.71929 1.03886 0.33435
 O162 O 0.67313 0.96664 0.28230
 Cu163 Cu 0.64620 1.00195 0.35252
 Cu164 Cu 0.69999 1.00314 0.30454
 C165 C 0.64315 0.95337 0.29364
 C166 C 0.70514 1.05050 0.36348
 C167 C 0.63840 1.04760 0.29317
 C168 C 0.70629 0.95726 0.36503
 O169 O 0.87098 0.82409 0.46384
 O170 O 0.82489 0.87148 0.53889
 O171 O 0.87442 0.82137 0.53428
 O172 O 0.82193 0.87482 0.46887
 O173 O 0.77795 0.83330 0.46946
 O174 O 0.83198 0.77827 0.53330
 O175 O 0.78178 0.82905 0.53873
 O176 O 0.82753 0.78210 0.46379
 Cu177 Cu 0.85249 0.85212 0.50145
 Cu178 Cu 0.80047 0.80137 0.50132
 C179 C 0.85717 0.79490 0.45114
 C180 C 0.79519 0.85846 0.55128
 C181 C 0.86241 0.79064 0.54465
 C182 C 0.79073 0.86359 0.45853
 O183 O 0.17941 0.13026 0.53376
 O184 O 0.13088 0.18290 0.46412
 O185 O 0.17994 0.13221 0.46347
 O186 O 0.13096 0.18252 0.53500
 O187 O 0.17484 0.22413 0.53526
 O188 O 0.22400 0.17356 0.46476
 O189 O 0.17451 0.22477 0.46553
 O190 O 0.22385 0.17124 0.53435
 Cu191 Cu 0.15081 0.15289 0.49919
 Cu192 Cu 0.20367 0.20262 0.50028
 C193 C 0.21034 0.14122 0.54522
 C194 C 0.14446 0.21270 0.45287
 C195 C 0.21046 0.14428 0.45206
 C196 C 0.14440 0.21223 0.54685
 O197 O 0.17812 0.87456 0.46743
 O198 O 0.12721 0.82101 0.53419
 O199 O 0.17713 0.87107 0.53757
 O200 O 0.12676 0.82525 0.46429
 O201 O 0.16839 0.78163 0.46295
 O202 O 0.21988 0.82871 0.53505
 O203 O 0.16938 0.77795 0.53204
 O204 O 0.22061 0.83186 0.46531
 Cu205 Cu 0.14812 0.85233 0.50096
 Cu206 Cu 0.19897 0.80081 0.49843
 C207 C 0.20840 0.86268 0.45553
 C208 C 0.13930 0.79016 0.54410
 C209 C 0.20720 0.85791 0.54867
 C210 C 0.13835 0.79508 0.45203
 O211 O 0.86981 0.18162 0.53755
 O212 O 0.81930 0.13171 0.46694
 O213 O 0.87115 0.18078 0.46702
 O214 O 0.81957 0.13197 0.53726
 O215 O 0.77711 0.17470 0.53631
 O216 O 0.82968 0.22450 0.46668
 O217 O 0.77679 0.17448 0.46670
 O218 O 0.82802 0.22507 0.53635
 Cu219 Cu 0.84919 0.15224 0.50203
 Cu220 Cu 0.79868 0.20406 0.50119
 C221 C 0.85748 0.21189 0.54895
 C222 C 0.78898 0.14409 0.45560
 C223 C 0.85974 0.21128 0.45550
 C224 C 0.78950 0.14485 0.54870
 O225 O 0.46510 0.87080 0.82178
 O226 O 0.53702 0.82025 0.87050
 O227 O 0.53693 0.87009 0.82091
 O228 O 0.46532 0.82093 0.87165
 O229 O 0.46469 0.77779 0.82997
 O230 O 0.53510 0.82764 0.77852
 O231 O 0.53535 0.77726 0.82863
 O232 O 0.46420 0.82806 0.77973
 Cu233 Cu 0.50118 0.84984 0.85041
 Cu234 Cu 0.49970 0.79845 0.79998
 C235 C 0.45252 0.85810 0.79231
 C236 C 0.54826 0.79003 0.85792
 C237 C 0.54812 0.85727 0.79102
 C238 C 0.45306 0.79078 0.85963
 O239 O 0.53436 0.17678 0.12679
 O240 O 0.46189 0.12920 0.17683
 O241 O 0.46366 0.17789 0.12653
 O242 O 0.53336 0.12724 0.17689
 O243 O 0.53389 0.17006 0.21896
 O244 O 0.46530 0.22186 0.16743
 O245 O 0.46324 0.17252 0.21841
 O246 O 0.53531 0.22034 0.16815
 Cu247 Cu 0.49833 0.14828 0.14770
 Cu248 Cu 0.49966 0.20048 0.19759
 C249 C 0.54629 0.20721 0.13835
 C250 C 0.45028 0.14278 0.20620
 C251 C 0.45322 0.20883 0.13790
 C252 C 0.54504 0.13966 0.20677
 O253 O 0.46567 0.18163 0.87255
 O254 O 0.53487 0.12874 0.82322
 O255 O 0.53759 0.17982 0.87158
 O256 O 0.46419 0.12979 0.82460
 O257 O 0.46489 0.17052 0.78073
 O258 O 0.53730 0.22151 0.82862
 O259 O 0.53479 0.16982 0.77963
 O260 O 0.46607 0.22301 0.82937
 Cu261 Cu 0.50053 0.15107 0.85255
 Cu262 Cu 0.50072 0.20064 0.80043
 C263 C 0.45402 0.21134 0.85934
 C264 C 0.54586 0.13978 0.79260
 C265 C 0.55006 0.20910 0.85804
 C266 C 0.45290 0.14093 0.79413
 O267 O 0.46461 0.82530 0.13221
 O268 O 0.53974 0.87119 0.18111
 O269 O 0.53575 0.82265 0.12963
 O270 O 0.46805 0.87329 0.18326
 O271 O 0.46857 0.82984 0.22444
 O272 O 0.53512 0.77830 0.16990
 O273 O 0.53921 0.82737 0.22195
 O274 O 0.46483 0.78136 0.17295
 Cu275 Cu 0.50225 0.85263 0.15255
 Cu276 Cu 0.50212 0.79985 0.20146
 C277 C 0.45212 0.79531 0.14421
 C278 C 0.55188 0.85730 0.21012
 C279 C 0.54621 0.79142 0.14012
 C280 C 0.45664 0.86016 0.21289
 O281 O 0.87205 0.53536 0.82217
 O282 O 0.82409 0.46423 0.87302
 O283 O 0.87349 0.46445 0.82308
 O284 O 0.82231 0.53583 0.87208
 O285 O 0.77851 0.53259 0.83099
 O286 O 0.83090 0.46374 0.78064
 O287 O 0.78131 0.46160 0.83091
 O288 O 0.82905 0.53364 0.78017
 Cu289 Cu 0.85220 0.50026 0.85191
 Cu290 Cu 0.80039 0.49792 0.80163
 C291 C 0.85918 0.54609 0.79221
 C292 C 0.79486 0.45033 0.86044
 C293 C 0.86108 0.45232 0.79327
 C294 C 0.79151 0.54610 0.85991
 O295 O 0.12844 0.53706 0.18080
 O296 O 0.18065 0.46980 0.12905
 O297 O 0.13064 0.46612 0.17895
 O298 O 0.17987 0.54076 0.13246
 O299 O 0.22243 0.53949 0.17485
 O300 O 0.17297 0.46588 0.22151
 O301 O 0.22366 0.46946 0.17104
 O302 O 0.17028 0.53628 0.22390
 Cu303 Cu 0.15066 0.50347 0.15109
 Cu304 Cu 0.20155 0.50273 0.20214
 C305 C 0.14000 0.54771 0.21138
 C306 C 0.21132 0.45872 0.14070
 C307 C 0.14317 0.45367 0.20850
 C308 C 0.20996 0.55231 0.14552
 O309 O 0.86638 0.46221 0.18461
 O310 O 0.81757 0.53229 0.13190
 O311 O 0.86823 0.53375 0.18143
 O312 O 0.81749 0.46101 0.13390
 O313 O 0.77391 0.46385 0.17518
 O314 O 0.82522 0.53571 0.22318
 O315 O 0.77424 0.53392 0.17339
 O316 O 0.82354 0.46517 0.22655
 Cu317 Cu 0.84682 0.49714 0.15383
 Cu318 Cu 0.79498 0.49984 0.20382
 C319 C 0.85324 0.45190 0.21466
 C320 C 0.78730 0.54468 0.14350
 C321 C 0.85549 0.54704 0.21050
 C322 C 0.78686 0.45043 0.14627
 O323 O 0.13358 0.46280 0.81907
 O324 O 0.17983 0.53384 0.87244
 O325 O 0.12977 0.53374 0.82178
 O326 O 0.18300 0.46316 0.86844
 O327 O 0.22653 0.46830 0.82728
 O328 O 0.17237 0.53740 0.77965
 O329 O 0.22300 0.53807 0.83092
 O330 O 0.17633 0.46735 0.77710
 Cu331 Cu 0.15213 0.49829 0.84962
 Cu332 Cu 0.20386 0.50349 0.79948
 C333 C 0.14714 0.45290 0.78909
 C334 C 0.20991 0.54715 0.86139
 C335 C 0.14148 0.54674 0.79221
 C336 C 0.21393 0.45394 0.85585
 C337 C 0.23645 0.38999 0.06918
 C338 C 0.27470 0.38925 0.07060
 C339 C 0.29239 0.41425 0.09385
 C340 C 0.27188 0.43634 0.11754
 C341 C 0.23330 0.43452 0.11764
 C342 C 0.21627 0.41242 0.09177
 C343 C 0.18708 0.38425 0.09659
 C344 C 0.20927 0.35964 0.07187
 H345 H 0.32199 0.41598 0.09446
 H346 H 0.28612 0.45479 0.13565
 H347 H 0.16059 0.39286 0.08455
 H348 H 0.18533 0.37413 0.12482
 H349 H 0.19553 0.35406 0.04563
 H350 H 0.22048 0.33524 0.08577
 C351 C 0.76541 0.61976 0.07697
 C352 C 0.72716 0.61853 0.07517
 C353 C 0.70862 0.59657 0.10047
 C354 C 0.72832 0.57383 0.12417
 C355 C 0.76686 0.57181 0.12220
 C356 C 0.78478 0.59656 0.09951
 C357 C 0.81417 0.59075 0.07215
 C358 C 0.79301 0.61625 0.04747
 H359 H 0.67898 0.59589 0.10097
 H360 H 0.71329 0.55609 0.14224
 H361 H 0.81512 0.56219 0.06201
 H362 H 0.84090 0.60221 0.08110
 H363 H 0.78178 0.60251 0.02302
 H364 H 0.80755 0.64240 0.04228
 C365 C 0.72111 0.38807 0.89595
 C366 C 0.73720 0.37382 0.92711
 C367 C 0.77520 0.37857 0.93158
 C368 C 0.79472 0.40225 0.90865
 C369 C 0.77664 0.42070 0.88037
 C370 C 0.74051 0.41041 0.87272
 C371 C 0.70744 0.43269 0.86435
 C372 C 0.68621 0.40822 0.89010
 H373 H 0.78913 0.36656 0.95447
 H374 H 0.82329 0.40772 0.91441
 H375 H 0.69869 0.42964 0.83575
 H376 H 0.71002 0.46121 0.87401
 H377 H 0.66521 0.39113 0.87633
 H378 H 0.67665 0.42277 0.91471
 C379 C 0.23295 0.61438 0.93535
 C380 C 0.27107 0.61732 0.93312
 C381 C 0.28939 0.59403 0.90885
 C382 C 0.26944 0.57176 0.88479
 C383 C 0.23084 0.57160 0.88529
 C384 C 0.21332 0.59167 0.91234
 C385 C 0.18262 0.61829 0.90934
 C386 C 0.20418 0.64316 0.93455
 H387 H 0.31901 0.59396 0.90761
 H388 H 0.28419 0.55476 0.86582
 H389 H 0.15695 0.60769 0.92159
 H390 H 0.17959 0.62942 0.88159
 H391 H 0.19094 0.64684 0.96132
 H392 H 0.21372 0.66873 0.92142
 C393 C 0.10165 0.29140 0.40310
 C394 C 0.07835 0.27400 0.37831
 C395 C 0.08233 0.23596 0.37392
 C396 C 0.10505 0.21587 0.39734
 C397 C 0.12508 0.23357 0.42487
 C398 C 0.12489 0.27171 0.42541
 C399 C 0.11921 0.29724 0.45635
 C400 C 0.09371 0.31876 0.43196
 H401 H 0.06584 0.22134 0.35430
 H402 H 0.10561 0.18642 0.39503
 H403 H 0.14465 0.31235 0.46350
 H404 H 0.10497 0.28410 0.47947
 H405 H 0.10446 0.34629 0.42511
 H406 H 0.06469 0.31805 0.44101
 C407 C 0.07034 0.76339 0.61478
 C408 C 0.07258 0.72532 0.61523
 C409 C 0.09520 0.70833 0.58941
 C410 C 0.11766 0.72938 0.56661
 C411 C 0.11710 0.76778 0.56858
 C412 C 0.09178 0.78412 0.59172
 C413 C 0.09770 0.81306 0.61956
 C414 C 0.07428 0.79027 0.64487
 H415 H 0.09613 0.67887 0.58739
 H416 H 0.13536 0.71568 0.54749
 H417 H 0.08469 0.83928 0.61184
 H418 H 0.12680 0.81526 0.62822
 H419 H 0.04779 0.80341 0.65177
 H420 H 0.08977 0.77915 0.66823
 C421 C 0.92273 0.77277 0.37522
 C422 C 0.92063 0.73471 0.37364
 C423 C 0.89221 0.71740 0.39280
 C424 C 0.86962 0.73757 0.41623
 C425 C 0.87585 0.77519 0.42173
 C426 C 0.90122 0.79250 0.39913
 C427 C 0.93162 0.81849 0.40763
 C428 C 0.95515 0.79693 0.38135
 H429 H 0.88881 0.68808 0.39125
 H430 H 0.84940 0.72314 0.43215
 H431 H 0.94117 0.81647 0.43608
 H432 H 0.92557 0.84659 0.39818
 H433 H 0.97831 0.78250 0.39455
 H434 H 0.96257 0.81261 0.35676
 C435 C 0.90177 0.28983 0.59905
 C436 C 0.92588 0.27214 0.62259
 C437 C 0.92215 0.23400 0.62633
 C438 C 0.89866 0.21415 0.60327
 C439 C 0.87772 0.23222 0.57685
 C440 C 0.87788 0.27035 0.57708
 C441 C 0.88265 0.29638 0.54651
 C442 C 0.90883 0.31772 0.57056
 H443 H 0.93929 0.21922 0.64512
 H444 H 0.89819 0.18466 0.60496
 H445 H 0.85701 0.31141 0.54038
 H446 H 0.89625 0.28364 0.52279
 H447 H 0.89826 0.34504 0.57829
 H448 H 0.93756 0.31739 0.56065
 C449 C 0.40016 0.10183 0.28473
 C450 C 0.37704 0.07623 0.26818
 C451 C 0.37307 0.07795 0.23033
 C452 C 0.39581 0.10102 0.20977
 C453 C 0.42202 0.12348 0.22687
 C454 C 0.42174 0.12528 0.26456
 C455 C 0.45281 0.12299 0.29069
 C456 C 0.42917 0.09718 0.31279
 H457 H 0.35451 0.05956 0.21644
 H458 H 0.39422 0.09989 0.18059
 H459 H 0.45809 0.14948 0.30444
 H460 H 0.47742 0.10971 0.27893
 H461 H 0.42091 0.10879 0.33930
 H462 H 0.44015 0.06894 0.31378
 C463 C 0.61610 0.06887 0.76787
 C464 C 0.61651 0.07012 0.73012
 C465 C 0.59060 0.09254 0.71283
 C466 C 0.56798 0.11584 0.73315
 C467 C 0.57017 0.11640 0.77115
 C468 C 0.59312 0.09112 0.78792
 C469 C 0.62148 0.09714 0.81638
 C470 C 0.64668 0.07282 0.79435
 H471 H 0.58861 0.09291 0.68366
 H472 H 0.54891 0.13344 0.71917
 H473 H 0.61341 0.08492 0.84264
 H474 H 0.63086 0.12600 0.81789
 H475 H 0.65313 0.04661 0.80795
 H476 H 0.67068 0.08757 0.78299
 C477 C 0.37759 0.92574 0.76988
 C478 C 0.37603 0.92386 0.73219
 C479 C 0.39546 0.89558 0.71499
 C480 C 0.41882 0.87266 0.73494
 C481 C 0.42406 0.87830 0.77230
 C482 C 0.40143 0.90385 0.78940
 C483 C 0.41049 0.93391 0.81521
 C484 C 0.38434 0.95785 0.79388
 H485 H 0.39395 0.89233 0.68595
 H486 H 0.43471 0.85234 0.72065
 H487 H 0.43952 0.94294 0.81329
 H488 H 0.40072 0.92795 0.84299
 H489 H 0.39818 0.98075 0.77966
 H490 H 0.35949 0.96560 0.80937
 C491 C 0.60132 0.89920 0.28902
 C492 C 0.62475 0.92447 0.27259
 C493 C 0.62932 0.92197 0.23482
 C494 C 0.60679 0.89863 0.21412
 C495 C 0.58023 0.87655 0.23100
 C496 C 0.58002 0.87540 0.26873
 C497 C 0.54863 0.87805 0.29439
 C498 C 0.57195 0.90425 0.31658
 H499 H 0.64809 0.94010 0.22100
 H500 H 0.60877 0.89931 0.18495
 H501 H 0.54322 0.85177 0.30834
 H502 H 0.52414 0.89110 0.28214
 H503 H 0.57989 0.89307 0.34333
 H504 H 0.56093 0.93249 0.31710
 C505 C 0.37855 0.23612 0.92462
 C506 C 0.37933 0.27424 0.92405
 C507 C 0.40054 0.29139 0.89720
 C508 C 0.42337 0.27065 0.87444
 C509 C 0.42620 0.23256 0.87896
 C510 C 0.40184 0.21580 0.90299
 C511 C 0.40838 0.18838 0.93204
 C512 C 0.38276 0.21062 0.95571
 H513 H 0.40080 0.32084 0.89494
 H514 H 0.44072 0.28471 0.85525
 H515 H 0.43715 0.18846 0.94190
 H516 H 0.39716 0.16108 0.92486
 H517 H 0.39666 0.22352 0.97926
 H518 H 0.35678 0.19615 0.96210
 C519 C 0.59853 0.71104 0.89966
 C520 C 0.62257 0.72807 0.92394
 C521 C 0.62654 0.76630 0.92137
 C522 C 0.60323 0.78675 0.89880
 C523 C 0.57633 0.76923 0.87758
 C524 C 0.57640 0.73109 0.87664
 C525 C 0.54531 0.70482 0.88029
 C526 C 0.56952 0.68290 0.90561
 H527 H 0.64567 0.78066 0.93872
 H528 H 0.60512 0.81624 0.89921
 H529 H 0.53929 0.69042 0.85449
 H530 H 0.52110 0.71704 0.89385
 H531 H 0.57735 0.65587 0.89442
 H532 H 0.55931 0.68251 0.93389
 C533 C 0.39797 0.71827 0.10343
 C534 C 0.37667 0.73562 0.07720
 C535 C 0.37517 0.77406 0.07805
 C536 C 0.39868 0.79405 0.10108
 C537 C 0.42314 0.77583 0.12434
 C538 C 0.42019 0.73789 0.12679
 C539 C 0.44937 0.70945 0.12608
 C540 C 0.42500 0.68793 0.10036
 H541 H 0.35807 0.78864 0.05907
 H542 H 0.39903 0.82354 0.09937
 H543 H 0.45282 0.69606 0.15275
 H544 H 0.47516 0.71930 0.11341
 H545 H 0.41448 0.66212 0.11221
 H546 H 0.43678 0.68536 0.07280
 C547 C 0.61689 0.23135 0.06827
 C548 C 0.61754 0.26950 0.06943
 C549 C 0.59196 0.28722 0.09179
 C550 C 0.56935 0.26693 0.11506
 C551 C 0.57126 0.22854 0.11565
 C552 C 0.59388 0.21131 0.09048
 C553 C 0.62211 0.18256 0.09634
 C554 C 0.64733 0.20458 0.07204
 H555 H 0.59021 0.31671 0.09210
 H556 H 0.55041 0.28123 0.13252
 H557 H 0.61382 0.15595 0.08438
 H558 H 0.63161 0.18126 0.12485
 H559 H 0.65356 0.19063 0.04609
 H560 H 0.67147 0.21613 0.08646
 C561 C 0.23358 0.06831 0.61351
 C562 C 0.27167 0.07094 0.61666
 C563 C 0.28999 0.09515 0.59324
 C564 C 0.27007 0.11869 0.57048
 C565 C 0.23145 0.11775 0.56993
 C566 C 0.21400 0.09082 0.59044
 C567 C 0.18305 0.09422 0.61651
 C568 C 0.20455 0.06958 0.64177
 H569 H 0.31961 0.09666 0.59327
 H570 H 0.28487 0.13760 0.55341
 H571 H 0.15754 0.08132 0.60611
 H572 H 0.17977 0.12250 0.62694
 H573 H 0.19140 0.04251 0.64588
 H574 H 0.21380 0.08357 0.66687
 C575 C 0.76229 0.08104 0.37950
 C576 C 0.72484 0.07482 0.38542
 C577 C 0.70923 0.09055 0.41670
 C578 C 0.72988 0.11415 0.43889
 C579 C 0.76683 0.12168 0.43099
 C580 C 0.78299 0.10320 0.40216
 C581 C 0.80457 0.11826 0.37137
 C582 C 0.78185 0.09402 0.34658
 H583 H 0.68088 0.08541 0.42366
 H584 H 0.71707 0.12630 0.46237
 H585 H 0.83384 0.11015 0.37270
 H586 H 0.79978 0.14789 0.36715
 H587 H 0.79806 0.07197 0.33364
 H588 H 0.76376 0.10956 0.32802
 C589 C 0.71729 0.89907 0.60373
 C590 C 0.73455 0.92565 0.62500
 C591 C 0.77312 0.92487 0.62707
 C592 C 0.79339 0.90165 0.60422
 C593 C 0.77533 0.87808 0.57982
 C594 C 0.73720 0.87551 0.58209
 C595 C 0.70903 0.87622 0.55285
 C596 C 0.68722 0.90215 0.57657
 H597 H 0.78764 0.94407 0.64418
 H598 H 0.82299 0.90351 0.60430
 H599 H 0.69552 0.84926 0.54915
 H600 H 0.71929 0.88907 0.52761
 H601 H 0.66113 0.89012 0.58647
 H602 H 0.68489 0.93001 0.56500
 C603 C 0.23382 0.93535 0.38827
 C604 C 0.27181 0.93185 0.38547
 C605 C 0.28947 0.90741 0.40901
 C606 C 0.26883 0.88423 0.43147
 C607 C 0.23027 0.88593 0.43152
 C608 C 0.21356 0.91326 0.41110
 C609 C 0.18265 0.91052 0.38482
 C610 C 0.20493 0.93473 0.35976
 H611 H 0.31904 0.90534 0.40915
 H612 H 0.28298 0.86496 0.44861
 H613 H 0.15746 0.92395 0.39508
 H614 H 0.17864 0.88234 0.37433
 H615 H 0.19254 0.96205 0.35559
 H616 H 0.21392 0.92057 0.33472
 C617 C 0.10276 0.40503 0.71054
 C618 C 0.08083 0.37872 0.72746
 C619 C 0.08685 0.37235 0.76454
 C620 C 0.11004 0.39550 0.78465
 C621 C 0.12846 0.42464 0.76777
 C622 C 0.12647 0.42711 0.73017
 C623 C 0.11898 0.45944 0.70690
 C624 C 0.09289 0.43529 0.68545
 H625 H 0.07154 0.35142 0.77860
 H626 H 0.11203 0.39183 0.81359
 H627 H 0.14350 0.46792 0.69125
 H628 H 0.10500 0.48184 0.72173
 H629 H 0.10237 0.42998 0.65742
 H630 H 0.06377 0.44371 0.68793
 C631 C 0.06751 0.61639 0.23569
 C632 C 0.07017 0.61897 0.27326
 C633 C 0.09430 0.59496 0.29100
 C634 C 0.11785 0.57220 0.27097
 C635 C 0.11687 0.57232 0.23289
 C636 C 0.08997 0.59335 0.21605
 C637 C 0.09348 0.62007 0.18588
 C638 C 0.06885 0.64535 0.20749
 H639 H 0.09570 0.59455 0.32020
 H640 H 0.13674 0.55462 0.28520
 H641 H 0.08049 0.60991 0.16061
 H642 H 0.12190 0.63057 0.18273
 H643 H 0.04170 0.64974 0.19466
 H644 H 0.08298 0.67055 0.21695
 C645 C 0.91135 0.37084 0.24023
 C646 C 0.92043 0.37849 0.27622
 C647 C 0.90060 0.40645 0.29368
 C648 C 0.87657 0.42897 0.27399
 C649 C 0.87278 0.42459 0.23636
 C650 C 0.88869 0.39375 0.22067
 C651 C 0.91018 0.38885 0.18681
 C652 C 0.93495 0.36346 0.20817
 H653 H 0.90518 0.41226 0.32202
 H654 H 0.86341 0.45156 0.28764
 H655 H 0.92421 0.41430 0.17805
 H656 H 0.89415 0.37457 0.16548
 H657 H 0.96318 0.37409 0.21160
 H658 H 0.93309 0.33456 0.19918
 C659 C 0.90597 0.58897 0.71236
 C660 C 0.92652 0.61716 0.72795
 C661 C 0.92639 0.62037 0.76589
 C662 C 0.90408 0.59750 0.78699
 C663 C 0.88076 0.57169 0.77049
 C664 C 0.88331 0.56703 0.73311
 C665 C 0.85399 0.56651 0.70504
 C666 C 0.87881 0.59054 0.68225
 H667 H 0.94372 0.64028 0.77926
 H668 H 0.90453 0.60046 0.81609
 H669 H 0.82858 0.58048 0.71404
 H670 H 0.84986 0.53882 0.69342
 H671 H 0.86783 0.61846 0.67793
 H672 H 0.88894 0.57667 0.65750
 C673 C 0.71266 0.59134 0.90712
 C674 C 0.72922 0.61980 0.92663
 C675 C 0.76627 0.62773 0.91852
 C676 C 0.78673 0.60431 0.89591
 C677 C 0.77013 0.57357 0.87973
 C678 C 0.73236 0.56937 0.88372
 C679 C 0.71064 0.53632 0.89353
 C680 C 0.68903 0.56039 0.91921
 H681 H 0.78026 0.65023 0.93165
 H682 H 0.81570 0.60942 0.89221
 H683 H 0.72739 0.51542 0.90760
 H684 H 0.69402 0.52611 0.87045
 H685 H 0.69328 0.55335 0.94811
 H686 H 0.66001 0.56395 0.91092
 C687 C 0.29245 0.41213 0.90588
 C688 C 0.27608 0.38266 0.92388
 C689 C 0.24016 0.37278 0.91320
 C690 C 0.22005 0.39517 0.88959
 C691 C 0.23594 0.42695 0.87512
 C692 C 0.27305 0.43336 0.88163
 C693 C 0.29191 0.46755 0.89348
 C694 C 0.31317 0.44431 0.92015
 H695 H 0.22655 0.34940 0.92503
 H696 H 0.19165 0.38864 0.88402
 H697 H 0.27302 0.48723 0.90666
 H698 H 0.30936 0.47926 0.87181
 H699 H 0.30653 0.45049 0.94882
 H700 H 0.34287 0.44271 0.91387
 C701 C 0.23554 0.63233 0.08594
 C702 C 0.27271 0.62583 0.07883
 C703 C 0.29017 0.59863 0.09963
 C704 C 0.26994 0.57644 0.12343
 C705 C 0.23162 0.57990 0.12597
 C706 C 0.21540 0.60945 0.10833
 C707 C 0.18220 0.61143 0.08497
 C708 C 0.20410 0.63649 0.06038
 H709 H 0.31919 0.59345 0.09657
 H710 H 0.28389 0.55470 0.13759
 H711 H 0.15911 0.62542 0.09870
 H712 H 0.17520 0.58484 0.07215
 H713 H 0.19353 0.66489 0.05991
 H714 H 0.20969 0.62443 0.03336
 C715 C 0.71040 0.40801 0.09292
 C716 C 0.72690 0.37753 0.07677
 C717 C 0.76198 0.36755 0.08966
 C718 C 0.78138 0.39058 0.11360
 C719 C 0.76548 0.42310 0.12632
 C720 C 0.72894 0.42980 0.11757
 C721 C 0.71150 0.46382 0.10380
 C722 C 0.69122 0.43998 0.07666
 H723 H 0.77563 0.34353 0.07930
 H724 H 0.80928 0.38384 0.12088
 H725 H 0.73151 0.48281 0.09113
 H726 H 0.69315 0.47649 0.12417
 H727 H 0.69957 0.44508 0.04824
 H728 H 0.66118 0.43902 0.08137
 C729 C 0.91538 0.71197 0.58347
 C730 C 0.93083 0.72671 0.61499
 C731 C 0.92525 0.76428 0.62172
 C732 C 0.90313 0.78526 0.59862
 C733 C 0.88493 0.76889 0.56923
 C734 C 0.89269 0.73246 0.56139
 C735 C 0.86742 0.70115 0.55461
 C736 C 0.89223 0.67860 0.57877
 H737 H 0.93806 0.77762 0.64462
 H738 H 0.89932 0.81398 0.60440
 H739 H 0.86786 0.69224 0.52591
 H740 H 0.83969 0.70556 0.56617
 H741 H 0.90690 0.65667 0.56396
 H742 H 0.87890 0.66984 0.60432
 C743 C 0.91494 0.28837 0.41535
 C744 C 0.93166 0.27238 0.38515
 C745 C 0.92561 0.23465 0.37947
 C746 C 0.90218 0.21464 0.40234
 C747 C 0.88288 0.23213 0.43033
 C748 C 0.89079 0.26887 0.43703
 C749 C 0.86544 0.30048 0.44071
 C750 C 0.89191 0.32193 0.41727
 H751 H 0.93911 0.22043 0.35757
 H752 H 0.89831 0.18573 0.39750
 H753 H 0.86401 0.31086 0.46886
 H754 H 0.83847 0.29553 0.42758
 H755 H 0.90590 0.34442 0.43206
 H756 H 0.88024 0.32967 0.39062
 C757 C 0.08576 0.23796 0.62698
 C758 C 0.07689 0.27444 0.61966
 C759 C 0.09607 0.29171 0.59124
 C760 C 0.12002 0.27177 0.56894
 C761 C 0.12423 0.23391 0.57363
 C762 C 0.10828 0.21807 0.60411
 C763 C 0.08609 0.18414 0.60814
 C764 C 0.06131 0.20579 0.63323
 H765 H 0.09172 0.32030 0.58535
 H766 H 0.13309 0.28543 0.54645
 H767 H 0.10150 0.16223 0.62217
 H768 H 0.07235 0.17573 0.58263
 H769 H 0.06241 0.19625 0.66167
 H770 H 0.03325 0.20984 0.62226
 C771 C 0.08017 0.71930 0.41437
 C772 C 0.06684 0.73339 0.38177
 C773 C 0.07562 0.77014 0.37369
 C774 C 0.09894 0.79059 0.39653
 C775 C 0.11516 0.77428 0.42695
 C776 C 0.10390 0.73910 0.43614
 C777 C 0.12587 0.70627 0.44560
 C778 C 0.09989 0.68443 0.42172
 H779 H 0.06449 0.78318 0.34989
 H780 H 0.10517 0.81867 0.38981
 H781 H 0.12357 0.69927 0.47470
 H782 H 0.15430 0.70756 0.43494
 H783 H 0.08271 0.66481 0.43709
 H784 H 0.11323 0.67301 0.39721
 C785 C 0.59956 0.89898 0.71299
 C786 C 0.62364 0.92343 0.72999
 C787 C 0.62710 0.92092 0.76787
 C788 C 0.60337 0.89832 0.78796
 C789 C 0.57646 0.87699 0.77046
 C790 C 0.57698 0.87592 0.73271
 C791 C 0.54625 0.87972 0.70639
 C792 C 0.57094 0.90507 0.68485
 H793 H 0.64620 0.93837 0.78223
 H794 H 0.60498 0.89880 0.81716
 H795 H 0.52201 0.89363 0.71821
 H796 H 0.54017 0.85365 0.69218
 H797 H 0.56099 0.93370 0.68425
 H798 H 0.57899 0.89361 0.65821
 C799 C 0.37845 0.92306 0.23636
 C800 C 0.38064 0.92533 0.27399
 C801 C 0.40438 0.90102 0.29185
 C802 C 0.42793 0.87812 0.27194
 C803 C 0.42893 0.88009 0.23392
 C804 C 0.40238 0.90141 0.21681
 C805 C 0.40576 0.92895 0.18736
 C806 C 0.37943 0.95267 0.20876
 H807 H 0.40592 0.90089 0.32105
 H808 H 0.44706 0.86092 0.28632
 H809 H 0.39401 0.91891 0.16146
 H810 H 0.43375 0.94082 0.18540
 H811 H 0.35251 0.95621 0.19520
 H812 H 0.39213 0.97825 0.21914
 C813 C 0.58801 0.09259 0.28640
 C814 C 0.61612 0.07210 0.27080
 C815 C 0.61890 0.07188 0.23284
 C816 C 0.59577 0.09395 0.21172
 C817 C 0.57024 0.11738 0.22828
 C818 C 0.56592 0.11501 0.26568
 C819 C 0.56555 0.14427 0.29374
 C820 C 0.58974 0.11969 0.31651
 H821 H 0.63877 0.05463 0.21951
 H822 H 0.59851 0.09342 0.18261
 H823 H 0.53782 0.14827 0.30539
 H824 H 0.57958 0.16964 0.28473
 H825 H 0.57591 0.10954 0.34127
 H826 H 0.61780 0.13078 0.32081
 C827 C 0.40868 0.09236 0.71537
 C828 C 0.38185 0.07072 0.73171
 C829 C 0.38036 0.07037 0.76976
 C830 C 0.40333 0.09337 0.79032
 C831 C 0.42747 0.11790 0.77319
 C832 C 0.43061 0.11571 0.73560
 C833 C 0.42888 0.14501 0.70778
 C834 C 0.40490 0.11943 0.68557
 H835 H 0.36155 0.05230 0.78360
 H836 H 0.40157 0.09259 0.81950
 H837 H 0.45603 0.15028 0.69527
 H838 H 0.41421 0.16971 0.71745
 H839 H 0.41827 0.10998 0.66030
 H840 H 0.37632 0.12928 0.68228
 C841 C 0.61558 0.76599 0.06886
 C842 C 0.61573 0.72784 0.06996
 C843 C 0.58988 0.71054 0.09247
 C844 C 0.56762 0.73116 0.11587
 C845 C 0.57005 0.76956 0.11649
 C846 C 0.59297 0.78635 0.09123
 C847 C 0.62163 0.81493 0.09687
 C848 C 0.64639 0.79257 0.07243
 H849 H 0.58763 0.68108 0.09281
 H850 H 0.54865 0.71710 0.13350
 H851 H 0.63133 0.81633 0.12532
 H852 H 0.61363 0.84153 0.08492
 H853 H 0.67046 0.78092 0.08671
 H854 H 0.65267 0.80633 0.04644
 C855 C 0.41078 0.28940 0.09093
 C856 C 0.38386 0.27336 0.06918
 C857 C 0.38176 0.23497 0.06819
 C858 C 0.40424 0.21375 0.09071
 C859 C 0.42849 0.23057 0.11530
 C860 C 0.43227 0.26851 0.11378
 C861 C 0.43069 0.29626 0.14326
 C862 C 0.40719 0.31920 0.11821
 H863 H 0.36285 0.22137 0.05002
 H864 H 0.40198 0.18430 0.08952
 H865 H 0.45797 0.30861 0.14882
 H866 H 0.41572 0.28631 0.16746
 H867 H 0.42095 0.34474 0.10935
 H868 H 0.37859 0.32265 0.12788
 C869 C 0.60431 0.28669 0.89815
 C870 C 0.62680 0.26917 0.92337
 C871 C 0.62899 0.23079 0.92147
 C872 C 0.60509 0.21090 0.89881
 C873 C 0.57941 0.22911 0.87689
 C874 C 0.58162 0.26713 0.87506
 C875 C 0.55203 0.29505 0.87727
 C876 C 0.57686 0.31646 0.90268
 H877 H 0.64692 0.21602 0.93954
 H878 H 0.60537 0.18138 0.89988
 H879 H 0.52682 0.28451 0.89050
 H880 H 0.54751 0.30893 0.85100
 H881 H 0.56595 0.31826 0.93064
 H882 H 0.58656 0.34269 0.89105
 C883 C 0.37697 0.76900 0.92567
 C884 C 0.37760 0.73087 0.92692
 C885 C 0.39915 0.71250 0.90112
 C886 C 0.42224 0.73215 0.87760
 C887 C 0.42507 0.77048 0.88024
 C888 C 0.40053 0.78830 0.90330
 C889 C 0.40680 0.81727 0.93104
 C890 C 0.38091 0.79618 0.95551
 H891 H 0.39939 0.68297 0.90022
 H892 H 0.43974 0.71719 0.85925
 H893 H 0.39570 0.84409 0.92246
 H894 H 0.43548 0.81788 0.94116
 H895 H 0.35489 0.81084 0.96094
 H896 H 0.39455 0.78465 0.97979
 C897 C 0.76549 0.93475 0.38966
 C898 C 0.72729 0.93251 0.38831
 C899 C 0.70966 0.90938 0.41327
 C900 C 0.73022 0.88641 0.43593
 C901 C 0.76878 0.88688 0.43469
 C902 C 0.78573 0.91277 0.41259
 C903 C 0.81535 0.90778 0.38531
 C904 C 0.79310 0.93181 0.36014
 H905 H 0.68005 0.90825 0.41453
 H906 H 0.71600 0.86822 0.45420
 H907 H 0.81766 0.87906 0.37582
 H908 H 0.84153 0.92059 0.39405
 H909 H 0.78241 0.91704 0.33606
 H910 H 0.80651 0.95843 0.35438
 C911 C 0.23049 0.92297 0.62476
 C912 C 0.26877 0.92289 0.62451
 C913 C 0.28643 0.89588 0.60377
 C914 C 0.26607 0.87273 0.58079
 C915 C 0.22783 0.87696 0.57737
 C916 C 0.21054 0.90097 0.60136
 C917 C 0.18267 0.92997 0.59493
 C918 C 0.20450 0.95404 0.62067
 H919 H 0.31601 0.89389 0.60393
 H920 H 0.28058 0.85362 0.56371
 H921 H 0.15530 0.92226 0.60562
 H922 H 0.18278 0.94016 0.56667
 H923 H 0.18972 0.96011 0.64620
 H924 H 0.21720 0.97811 0.60734
 C925 C 0.23268 0.07694 0.37766
 C926 C 0.27094 0.07816 0.37663
 C927 C 0.28872 0.10607 0.39620
 C928 C 0.26866 0.12922 0.41920
 C929 C 0.23062 0.12415 0.42387
 C930 C 0.21304 0.09904 0.40110
 C931 C 0.18622 0.06939 0.40938
 C932 C 0.20768 0.04522 0.38362
 H933 H 0.31823 0.10884 0.39505
 H934 H 0.28335 0.14923 0.43523
 H935 H 0.15827 0.07589 0.39944
 H936 H 0.18769 0.06017 0.43794
 H937 H 0.19211 0.03788 0.35883
 H938 H 0.22151 0.02200 0.39721
 C939 C 0.76695 0.08020 0.62508
 C940 C 0.72879 0.07768 0.62323
 C941 C 0.71034 0.10270 0.60082
 C942 C 0.73015 0.12651 0.57810
 C943 C 0.76872 0.12483 0.57655
 C944 C 0.78642 0.10272 0.60190
 C945 C 0.81646 0.07553 0.59757
 C946 C 0.79517 0.05089 0.62306
 H947 H 0.68071 0.10272 0.59963
 H948 H 0.71524 0.14412 0.55987
 H949 H 0.84275 0.08544 0.60920
 H950 H 0.81827 0.06444 0.56965
 H951 H 0.80917 0.04670 0.64938
 H952 H 0.78472 0.02558 0.60994
 C953 C 0.92421 0.62185 0.23151
 C954 C 0.92218 0.62447 0.26913
 C955 C 0.89345 0.60584 0.28661
 C956 C 0.87019 0.58219 0.26709
 C957 C 0.87596 0.57586 0.22992
 C958 C 0.90202 0.59772 0.21245
 C959 C 0.93218 0.58779 0.18712
 C960 C 0.95645 0.61430 0.20793
 H961 H 0.89003 0.60826 0.31556
 H962 H 0.84949 0.56696 0.28161
 H963 H 0.92644 0.59677 0.15904
 H964 H 0.94088 0.55888 0.18987
 H965 H 0.96458 0.63857 0.19185
 H966 H 0.97922 0.60079 0.22267
 C967 C 0.90379 0.40244 0.71497
 C968 C 0.92902 0.37919 0.73162
 C969 C 0.92719 0.37586 0.76955
 C970 C 0.90425 0.39894 0.78997
 C971 C 0.88190 0.42493 0.77272
 C972 C 0.88043 0.42430 0.73500
 C973 C 0.88329 0.45500 0.70872
 C974 C 0.90900 0.43107 0.68681
 H975 H 0.94525 0.35728 0.78359
 H976 H 0.90506 0.39746 0.81916
 H977 H 0.89688 0.47954 0.72042
 H978 H 0.85685 0.46034 0.69484
 H979 H 0.93752 0.44176 0.68590
 H980 H 0.89738 0.42270 0.66030
 C981 C 0.09243 0.58868 0.71316
 C982 C 0.07051 0.61537 0.72918
 C983 C 0.06980 0.61724 0.76722
 C984 C 0.09288 0.59485 0.78807
 C985 C 0.11782 0.57107 0.77118
 C986 C 0.11585 0.56742 0.73364
 C987 C 0.14533 0.56891 0.70583
 C988 C 0.11963 0.59220 0.68331
 H989 H 0.05151 0.63596 0.78081
 H990 H 0.09201 0.59693 0.81723
 H991 H 0.15071 0.54171 0.69366
 H992 H 0.17006 0.58392 0.71532
 H993 H 0.11021 0.57837 0.65821
 H994 H 0.12944 0.62070 0.67966
 C995 C 0.07330 0.38051 0.23121
 C996 C 0.07476 0.37954 0.26895
 C997 C 0.10373 0.39832 0.28605
 C998 C 0.12776 0.42056 0.26594
 C999 C 0.12267 0.42527 0.22843
 C1000 C 0.09637 0.40318 0.21148
 C1001 C 0.06685 0.41279 0.18533
 C1002 C 0.04157 0.38825 0.20703
 H1003 H 0.10682 0.39709 0.31511
 H1004 H 0.14850 0.43611 0.28020
 H1005 H 0.07256 0.40214 0.15778
 H1006 H 0.05907 0.44207 0.18660
 H1007 H 0.03243 0.36362 0.19191
 H1008 H 0.01955 0.40355 0.22112
   
