data_POSCAR
  _audit_creation_date              2014-09-24
  _audit_creation_method            'ToBaCCo'
  _symmetry_space_group_name_H-M    'P1'
  _symmetry_Int_Tables_number       1
  _symmetry_cell_setting            triclinic
  loop_
  _symmetry_equiv_pos_as_xyz
 x,y,z
_cell_length_a 15.6605
_cell_length_b 15.6605
_cell_length_c 15.6616
_cell_angle_alpha 90.306700
_cell_angle_beta 89.999000
_cell_angle_gamma 89.970700
loop_
  _atom_site_label
  _atom_site_type_symbol
  _atom_site_fract_x
  _atom_site_fract_y
  _atom_site_fract_z
C1 C 0.50058 1.00143 -0.72925
 C2 C 0.42287 1.01009 -0.68373
 C3 C 0.42456 1.01457 -0.59516
 C4 C 0.50052 1.00023 -0.54972
 C5 C 0.57650 0.98649 -0.59546
 C6 C 0.57826 0.99217 -0.68389
 C7 C 0.50052 0.99956 -0.45505
 C8 C 0.57635 1.01386 -0.40922
 C9 C 0.57782 1.00840 -0.32085
 C10 C 0.50059 0.99844 -0.27558
 C11 C 0.42332 0.98904 -0.32101
 C12 C 0.42472 0.98470 -0.40951
 H13 H 0.50060 1.00182 -0.79847
 H14 H 0.36537 1.02880 -0.56250
 H15 H 0.63565 0.97171 -0.56313
 H16 H 0.63560 1.02888 -0.44113
 H17 H 0.50061 0.99810 -0.20640
 H18 H 0.36543 0.97020 -0.44174
 C19 C -0.72928 1.49942 0.00032
 C20 C -0.68360 1.42190 0.00937
 C21 C -0.59508 1.42388 0.01433
 C22 C -0.54973 1.49985 0.00010
 C23 C -0.59556 1.57558 -0.01407
 C24 C -0.68406 1.57714 -0.00887
 C25 C -0.45505 1.50013 0.00011
 C26 C -0.40960 1.57618 0.01458
 C27 C -0.32115 1.57779 0.00979
 C28 C -0.27556 1.50057 0.00032
 C29 C -0.32068 1.42315 -0.00927
 C30 C -0.40912 1.42433 -0.01430
 H31 H -0.79851 1.49927 0.00043
 H32 H -0.56239 1.36490 0.02892
 H33 H -0.56324 1.63471 -0.02874
 H34 H -0.44187 1.63549 0.02919
 H35 H -0.20637 1.50073 0.00043
 H36 H -0.44101 1.36487 -0.02899
 C37 C 0.00093 0.27312 0.49884
 C38 C 0.01011 0.31867 0.42164
 C39 C 0.01490 0.40722 0.42388
 C40 C 0.00051 0.45265 0.50016
 C41 C -0.01369 0.40679 0.57565
 C42 C -0.00850 0.31838 0.57658
 C43 C 0.00024 0.54733 0.50100
 C44 C 0.01438 0.59280 0.57729
 C45 C 0.00909 0.68132 0.57959
 C46 C -0.00035 0.72686 0.50241
 C47 C -0.00952 0.68159 0.42465
 C48 C -0.01421 0.59316 0.42552
 H49 H 0.00109 0.20391 0.49855
 H50 H 0.02944 0.43979 0.36496
 H51 H -0.02839 0.43878 0.63517
 H52 H 0.02918 0.56027 0.63619
 H53 H -0.00052 0.79607 0.50273
 H54 H -0.02867 0.56112 0.36599
 O55 O -0.22214 1.00233 -0.10926
 O56 O 0.22347 0.99666 -0.10921
 O57 O -0.00142 1.10838 -0.22235
 O58 O 0.00262 0.88993 -0.22271
 O59 O 0.00468 0.78346 -0.12131
 O60 O -0.00400 1.21560 -0.12060
 O61 O 0.12158 0.99408 -0.21575
 O62 O -0.12034 1.00408 -0.21585
 Zr63 Zr 0.00059 0.99940 -0.14948
 O64 O 0.07777 0.92201 -0.07695
 O65 O -0.07674 1.07735 -0.07684
 C66 C -0.19915 1.00524 -0.18767
 C67 C 0.20041 0.99307 -0.18761
 C68 C -0.00477 1.18692 -0.19950
 C69 C 0.00568 0.81156 -0.20012
 H70 H 0.11441 1.11307 -0.11307
 O71 O 0.07794 1.07684 -0.07661
 H72 H -0.11349 0.88600 -0.11345
 O73 O -0.07695 0.92251 -0.07695
 O74 O 0.22433 1.00201 0.10905
 O75 O -0.22300 0.99897 0.10911
 O76 O 0.10951 1.22338 0.00298
 O77 O 0.10866 0.77604 -0.00172
 O78 O -0.10967 0.77749 0.00264
 O79 O -0.10881 1.22308 -0.00138
 O80 O 0.00292 1.10994 0.22408
 O81 O -0.00174 0.89171 0.22372
 O82 O 0.00553 1.21637 0.12261
 O83 O -0.00485 0.78454 0.12190
 O84 O 0.21643 1.12174 0.00513
 O85 O -0.21554 1.12147 -0.00440
 O86 O -0.21605 0.87959 0.00509
 O87 O 0.21592 0.87717 -0.00445
 O88 O 0.12288 1.00543 0.21610
 O89 O -0.12165 0.99634 0.21620
 Zr90 Zr 0.15076 0.99961 0.00035
 Zr91 Zr -0.14949 1.00037 0.00035
 Zr92 Zr 0.00064 1.15012 0.00083
 Zr93 Zr 0.00007 0.84987 0.00038
 Zr94 Zr 0.00058 1.00058 0.15075
 O95 O -0.07705 0.92315 0.07786
 O96 O 0.07808 1.07746 0.07797
 C97 C 0.20182 1.00589 0.18753
 C98 C -0.20056 0.99573 0.18759
 C99 C 0.18796 1.20074 0.00609
 C100 C 0.18719 0.79831 -0.00515
 C101 C -0.18802 0.80071 0.00602
 C102 C -0.18724 1.20022 -0.00506
 C103 C 0.00637 1.18828 0.20144
 C104 C -0.00547 0.81320 0.20082
 H105 H -0.11311 1.11442 0.11444
 O106 O -0.07666 1.07774 0.07799
 H107 H 0.11403 0.88647 0.11404
 O108 O 0.07765 0.92288 0.07764
 C109 C 0.34439 1.01105 0.27737
 C110 C 0.27504 1.00961 0.24303
 C111 C -0.34324 0.99131 0.27725
 C112 C -0.27384 0.99256 0.24300
 C113 C -0.33970 1.00980 -0.27956
 C114 C -0.27126 1.00855 -0.24401
 C115 C 0.34086 0.98762 -0.27970
 C116 C 0.27246 0.98914 -0.24404
 C117 C 0.27772 1.34333 0.01050
 C118 C 0.24351 1.27392 0.00935
 C119 C 0.27688 0.65556 -0.00984
 C120 C 0.24255 0.72494 -0.00855
 C121 C -0.28006 0.66034 0.01113
 C122 C -0.24450 0.72876 0.00968
 C123 C -0.27918 1.34076 -0.01044
 C124 C -0.24352 1.27237 -0.00886
 C125 C 0.01124 1.27953 0.34324
 C126 C 0.00993 1.24445 0.27422
 C127 C -0.00965 1.27738 -0.34083
 C128 C -0.00825 1.24260 -0.27204
 C129 C 0.01020 0.72041 -0.34200
 C130 C 0.00899 0.75543 -0.27294
 C131 C -0.01071 0.72265 0.34208
 C132 C -0.00921 0.75748 0.27333
   
