data_POSCAR
  _audit_creation_date              2014-09-24
  _audit_creation_method            'ToBaCCo'
  _symmetry_space_group_name_H-M    'P1'
  _symmetry_Int_Tables_number       1
  _symmetry_cell_setting            triclinic
  loop_
  _symmetry_equiv_pos_as_xyz
 x,y,z
_cell_length_a 52.3878
_cell_length_b 52.2324
_cell_length_c 34.7742
_cell_angle_alpha 90.102300
_cell_angle_beta 90.165300
_cell_angle_gamma 94.776300
loop_
  _atom_site_label
  _atom_site_type_symbol
  _atom_site_fract_x
  _atom_site_fract_y
  _atom_site_fract_z
O1 O 0.03225 0.25702 -0.03882
 O2 O -0.01989 0.27083 0.02664
 O3 O 0.03014 0.26994 0.03328
 O4 O -0.01743 0.25620 -0.04450
 O5 O -0.02157 0.21549 -0.02668
 O6 O 0.02549 0.22911 0.05021
 O7 O -0.02388 0.23018 0.04460
 O8 O 0.02799 0.21621 -0.02159
 Cu9 Cu 0.00671 0.26764 -0.00746
 Cu10 Cu 0.00156 0.21869 0.01343
 C11 C 0.03903 0.23430 -0.04135
 C12 C -0.03100 0.25284 0.04644
 C13 C 0.03609 0.25164 0.05470
 C14 C -0.02762 0.23339 -0.04860
 O15 O 0.46842 0.77417 0.54249
 O16 O 0.52090 0.77923 0.47095
 O17 O 0.47087 0.78066 0.46826
 O18 O 0.51854 0.77495 0.54539
 O19 O 0.51532 0.73285 0.53746
 O20 O 0.46706 0.73847 0.46163
 O21 O 0.51652 0.73711 0.46355
 O22 O 0.46556 0.73197 0.53577
 Cu23 Cu 0.49500 0.78151 0.50746
 Cu24 Cu 0.49067 0.73090 0.49893
 C25 C 0.45810 0.75204 0.55117
 C26 C 0.52774 0.75886 0.45533
 C27 C 0.46071 0.76053 0.45203
 C28 C 0.52540 0.75294 0.55401
 O29 O 0.96465 0.74592 -0.03373
 O30 O 1.01684 0.75102 0.03865
 O31 O 0.96677 0.75097 0.04072
 O32 O 1.01466 0.74496 -0.03574
 O33 O 1.01821 0.78711 -0.04251
 O34 O 0.97059 0.79314 0.03371
 O35 O 1.02014 0.79319 0.03169
 O36 O 0.96880 0.78808 -0.04049
 Cu37 Cu 0.99037 0.74396 0.00317
 Cu38 Cu 0.99483 0.79457 -0.00509
 C39 C 0.95778 0.76630 -0.04925
 C40 C 1.02737 0.77310 0.04732
 C41 C 0.96042 0.77310 0.05000
 C42 C 1.02468 0.76506 -0.05209
 O43 O 0.52946 0.23261 0.53483
 O44 O 0.47625 0.22928 0.46449
 O45 O 0.52639 0.23191 0.45987
 O46 O 0.47930 0.22942 0.53896
 O47 O 0.48046 0.27177 0.53802
 O48 O 0.52731 0.27427 0.45979
 O49 O 0.47774 0.27166 0.46414
 O50 O 0.53021 0.27496 0.53452
 Cu51 Cu 0.50285 0.22652 0.49957
 Cu52 Cu 0.50416 0.27740 0.49914
 C53 C 0.53887 0.25447 0.54656
 C54 C 0.46774 0.24998 0.45277
 C55 C 0.53486 0.25359 0.44648
 C56 C 0.47146 0.25027 0.55131
 O57 O 0.76201 -0.03383 0.03229
 O58 O 0.76360 0.01395 -0.04611
 O59 O 0.76182 -0.03637 -0.04247
 O60 O 0.76320 0.01618 0.02872
 O61 O 0.80549 0.01838 0.02891
 O62 O 0.80412 -0.03397 -0.04200
 O63 O 0.80586 0.01586 -0.04572
 O64 O 0.80432 -0.03125 0.03253
 Cu65 Cu 0.75838 -0.01024 -0.00703
 Cu66 Cu 0.80917 -0.00750 -0.00660
 C67 C 0.78301 -0.04063 0.04568
 C68 C 0.78511 0.02316 -0.05907
 C69 C 0.78278 -0.04426 -0.05404
 C70 C 0.78464 0.02620 0.04091
 O71 O 0.24378 0.53448 0.47168
 O72 O 0.23845 0.48470 0.54710
 O73 O 0.24037 0.53522 0.54653
 O74 O 0.24374 0.48433 0.47279
 O75 O 0.28595 0.48810 0.47770
 O76 O 0.28245 0.53695 0.55275
 O77 O 0.28064 0.48684 0.55137
 O78 O 0.28589 0.53758 0.47806
 Cu79 Cu 0.23732 0.50947 0.50906
 Cu80 Cu 0.28792 0.51275 0.51573
 C81 C 0.26576 0.54451 0.46211
 C82 C 0.25871 0.47678 0.56124
 C83 C 0.26104 0.54474 0.56206
 C84 C 0.26557 0.47760 0.46284
 O85 O 0.29146 1.03803 0.04562
 O86 O 0.28751 0.98734 -0.02867
 O87 O 0.28919 1.03737 -0.02874
 O88 O 0.28969 0.98735 0.04618
 O89 O 0.24745 0.98520 0.04833
 O90 O 0.24700 1.03545 -0.02533
 O91 O 0.24529 0.98573 -0.02628
 O92 O 0.24926 1.03526 0.04926
 Cu93 Cu 0.29373 1.01267 0.00853
 Cu94 Cu 0.24304 1.01018 0.01191
 C95 C 0.27102 1.04558 0.05965
 C96 C 0.26568 0.97806 -0.04032
 C97 C 0.26795 1.04504 -0.03964
 C98 C 0.26858 0.97749 0.05955
 O99 O 0.77371 0.46810 0.45819
 O100 O 0.76939 0.51599 0.53534
 O101 O 0.76786 0.46589 0.53246
 O102 O 0.77306 0.51842 0.46088
 O103 O 0.73099 0.51461 0.45416
 O104 O 0.72573 0.46359 0.52651
 O105 O 0.72735 0.51338 0.52823
 O106 O 0.73157 0.46475 0.45242
 Cu107 Cu 0.77526 0.49237 0.49723
 Cu108 Cu 0.72472 0.48874 0.48962
 C109 C 0.75337 0.45799 0.44259
 C110 C 0.74765 0.52309 0.54454
 C111 C 0.74575 0.45589 0.54163
 C112 C 0.75275 0.52562 0.44570
 C113 C 0.23153 0.20532 0.22081
 C114 C 0.20878 0.21355 0.20600
 C115 C 0.19997 0.23710 0.21687
 C116 C 0.21454 0.25312 0.24316
 C117 C 0.23786 0.24515 0.25809
 C118 C 0.24635 0.22116 0.24687
 C119 C 0.26982 0.21395 0.26108
 C120 C 0.28473 0.22997 0.28582
 C121 C 0.27652 0.25364 0.29802
 C122 C 0.25278 0.26126 0.28414
 C123 C 0.20626 0.27672 0.25535
 C124 C 0.22074 0.29239 0.28104
 C125 C 0.24403 0.28506 0.29591
 C126 C 0.25904 0.30111 0.32162
 C127 C 0.28258 0.29345 0.33453
 C128 C 0.29166 0.27016 0.32296
 H129 H 0.27714 0.19599 0.25264
 H130 H 0.30288 0.22356 0.29491
 H131 H 0.18842 0.28338 0.24533
 H132 H 0.21352 0.31052 0.28863
 H133 H 0.19778 0.20135 0.18559
 H134 H 0.29367 0.30543 0.35509
 C135 C 0.72862 0.69947 0.31176
 C136 C 0.70540 0.70819 0.32402
 C137 C 0.69737 0.73184 0.31202
 C138 C 0.71310 0.74743 0.28678
 C139 C 0.73670 0.73891 0.27397
 C140 C 0.74455 0.71495 0.28667
 C141 C 0.76793 0.70691 0.27338
 C142 C 0.78345 0.72213 0.24864
 C143 C 0.77603 0.74580 0.23535
 C144 C 0.75244 0.75433 0.24821
 C145 C 0.70568 0.77111 0.27345
 C146 C 0.72115 0.78627 0.24853
 C147 C 0.74450 0.77821 0.23529
 C148 C 0.76028 0.79351 0.20982
 C149 C 0.78348 0.78478 0.19758
 C150 C 0.79167 0.76130 0.20991
 H151 H 0.77455 0.68867 0.28173
 H152 H 0.80142 0.71503 0.24020
 H153 H 0.68772 0.77822 0.28185
 H154 H 0.71452 0.80447 0.23994
 H155 H 0.69379 0.69676 0.34446
 H156 H 0.79485 0.79598 0.17662
 C157 C 0.79946 0.22984 0.20032
 C158 C 0.79035 0.20571 0.18627
 C159 C 0.76600 0.19445 0.19584
 C160 C 0.75000 0.20801 0.21991
 C161 C 0.75885 0.23274 0.23397
 C162 C 0.78370 0.24366 0.22420
 C163 C 0.79184 0.26840 0.23754
 C164 C 0.77590 0.28226 0.26006
 C165 C 0.75137 0.27172 0.27078
 C166 C 0.74279 0.24665 0.25773
 C167 C 0.72555 0.19740 0.23072
 C168 C 0.70990 0.21091 0.25421
 C169 C 0.71811 0.23553 0.26811
 C170 C 0.70216 0.24951 0.29157
 C171 C 0.71084 0.27428 0.30378
 C172 C 0.73497 0.28573 0.29351
 H173 H 0.81048 0.27750 0.23010
 H174 H 0.78306 0.30143 0.26863
 H175 H 0.71820 0.17845 0.22132
 H176 H 0.69113 0.20187 0.26092
 H177 H 0.80253 0.19553 0.16746
 H178 H 0.69895 0.28451 0.32296
 C179 C 0.29327 0.74139 0.29302
 C180 C 0.28260 0.71725 0.30494
 C181 C 0.25791 0.70763 0.29397
 C182 C 0.24315 0.72273 0.27020
 C183 C 0.25350 0.74739 0.25802
 C184 C 0.27854 0.75684 0.26975
 C185 C 0.28827 0.78135 0.25751
 C186 C 0.27368 0.79646 0.23470
 C187 C 0.24897 0.78745 0.22231
 C188 C 0.23876 0.76264 0.23404
 C189 C 0.21844 0.71372 0.25790
 C190 C 0.20404 0.72862 0.23448
 C191 C 0.21384 0.75306 0.22193
 C192 C 0.19927 0.76830 0.19806
 C193 C 0.20962 0.79278 0.18707
 C194 C 0.23405 0.80269 0.19897
 H195 H 0.30732 0.78921 0.26538
 H196 H 0.28211 0.81534 0.22703
 H197 H 0.20995 0.69493 0.26600
 H198 H 0.18500 0.72072 0.22665
 H199 H 0.29340 0.70617 0.32458
 H200 H 0.19888 0.80396 0.16750
 C201 C 0.80784 0.22368 0.78404
 C202 C 0.79810 0.19911 0.79546
 C203 C 0.77400 0.18842 0.78328
 C204 C 0.75898 0.20283 0.75882
 C205 C 0.76866 0.22770 0.74662
 C206 C 0.79313 0.23816 0.75933
 C207 C 0.80237 0.26273 0.74667
 C208 C 0.78782 0.27694 0.72253
 C209 C 0.76354 0.26705 0.70952
 C210 C 0.75378 0.24222 0.72179
 C211 C 0.73467 0.19297 0.74587
 C212 C 0.71996 0.20732 0.72207
 C213 C 0.72915 0.23194 0.70948
 C214 C 0.71424 0.24674 0.68546
 C215 C 0.72427 0.27112 0.67355
 C216 C 0.74859 0.28150 0.68509
 H217 H 0.82107 0.27128 0.75509
 H218 H 0.79586 0.29591 0.71453
 H219 H 0.72668 0.17398 0.75387
 H220 H 0.70122 0.19882 0.71383
 H221 H 0.80897 0.18860 0.81576
 H222 H 0.71328 0.28185 0.65368
 C223 C 0.28348 0.75577 0.69345
 C224 C 0.27306 0.73136 0.68207
 C225 C 0.24851 0.72161 0.69336
 C226 C 0.23358 0.73687 0.71658
 C227 C 0.24393 0.76152 0.72893
 C228 C 0.26892 0.77102 0.71729
 C229 C 0.27884 0.79534 0.73035
 C230 C 0.26455 0.81015 0.75398
 C231 C 0.23984 0.80116 0.76605
 C232 C 0.22930 0.77669 0.75315
 C233 C 0.20876 0.72797 0.72835
 C234 C 0.19427 0.74299 0.75144
 C235 C 0.20421 0.76730 0.76449
 C236 C 0.18967 0.78262 0.78821
 C237 C 0.20056 0.80653 0.80098
 C238 C 0.22530 0.81608 0.79038
 H239 H 0.29791 0.80319 0.72282
 H240 H 0.27316 0.82885 0.76243
 H241 H 0.20021 0.70923 0.71997
 H242 H 0.17516 0.73523 0.75894
 H243 H 0.28387 0.72006 0.66278
 H244 H 0.18993 0.81743 0.82104
 C245 C 0.24331 0.20985 0.80724
 C246 C 0.21988 0.21815 0.81929
 C247 C 0.21153 0.24166 0.80743
 C248 C 0.22738 0.25787 0.78323
 C249 C 0.25134 0.24995 0.77102
 C250 C 0.25924 0.22579 0.78278
 C251 C 0.28259 0.21796 0.76902
 C252 C 0.29816 0.23370 0.74499
 C253 C 0.29109 0.25795 0.73379
 C254 C 0.26734 0.26613 0.74663
 C255 C 0.21964 0.28151 0.77018
 C256 C 0.23527 0.29733 0.74632
 C257 C 0.25929 0.29018 0.73449
 C258 C 0.27525 0.30611 0.71009
 C259 C 0.29902 0.29810 0.69920
 C260 C 0.30681 0.27403 0.70932
 H261 H 0.28897 0.19939 0.77616
 H262 H 0.31574 0.22645 0.73508
 H263 H 0.20123 0.28796 0.77785
 H264 H 0.22814 0.31515 0.73700
 H265 H 0.20834 0.20653 0.83958
 H266 H 0.31192 0.31104 0.68261
 C267 C 0.71656 0.68193 0.71409
 C268 C 0.69297 0.69078 0.70403
 C269 C 0.68618 0.71512 0.71477
 C270 C 0.70268 0.73049 0.73935
 C271 C 0.72617 0.72132 0.75171
 C272 C 0.73320 0.69702 0.73887
 C273 C 0.75696 0.68884 0.75029
 C274 C 0.77335 0.70394 0.77428
 C275 C 0.76676 0.72793 0.78765
 C276 C 0.74305 0.73685 0.77597
 C277 C 0.69673 0.75505 0.75102
 C278 C 0.71323 0.77021 0.77475
 C279 C 0.73639 0.76146 0.78784
 C280 C 0.75345 0.77698 0.81150
 C281 C 0.77657 0.76769 0.82307
 C282 C 0.78360 0.74360 0.81140
 H283 H 0.76331 0.67076 0.74058
 H284 H 0.79148 0.69670 0.78165
 H285 H 0.67936 0.76300 0.74161
 H286 H 0.70771 0.78909 0.78217
 H287 H 0.67958 0.67844 0.68713
 H288 H 0.78905 0.77916 0.84253
 C289 C 0.27268 0.06611 0.08547
 C290 C 0.25113 0.07468 0.10336
 C291 C 0.25161 0.09971 0.12326
 C292 C 0.23539 0.10254 0.15472
 C293 C 0.23360 0.12668 0.17149
 C294 C 0.24751 0.14850 0.15631
 C295 C 0.26378 0.14566 0.12492
 C296 C 0.26610 0.12143 0.10881
 C297 C 0.24351 0.17452 0.17041
 C298 C 0.23888 0.17980 0.20889
 H299 H 0.23304 0.06300 0.10212
 H300 H 0.22378 0.08610 0.16590
 H301 H 0.22045 0.12843 0.19514
 H302 H 0.27441 0.16230 0.11250
 H303 H 0.27826 0.11990 0.08393
 H304 H 0.24440 0.19015 0.14987
 H305 H 0.29127 0.07626 0.09066
 H306 H 0.24081 0.16526 0.23062
 C307 C 0.74619 0.54344 0.57354
 C308 C 0.72343 0.55483 0.57988
 C309 C 0.72204 0.57875 0.60219
 C310 C 0.70351 0.59529 0.59167
 C311 C 0.70212 0.61867 0.61057
 C312 C 0.71881 0.62575 0.64108
 C313 C 0.73705 0.60897 0.65244
 C314 C 0.73873 0.58564 0.63299
 C315 C 0.71686 0.65111 0.65906
 C316 C 0.72315 0.65713 0.69729
 H317 H 0.70646 0.54770 0.56400
 H318 H 0.69041 0.59038 0.56811
 H319 H 0.68789 0.63128 0.60135
 H320 H 0.75038 0.61405 0.67558
 H321 H 0.75295 0.57304 0.64220
 H322 H 0.70828 0.66538 0.64178
 H323 H 0.76379 0.55118 0.58714
 H324 H 0.73192 0.64339 0.71521
 C325 C 0.78323 0.94025 0.07655
 C326 C 0.76107 0.92643 0.08984
 C327 C 0.76207 0.90527 0.11792
 C328 C 0.74335 0.88447 0.11640
 C329 C 0.74516 0.86310 0.14017
 C330 C 0.76562 0.86238 0.16640
 C331 C 0.78362 0.88375 0.16910
 C332 C 0.78183 0.90503 0.14532
 C333 C 0.77021 0.83919 0.18902
 C334 C 0.75249 0.81792 0.19345
 H335 H 0.74283 0.92954 0.07662
 H336 H 0.72786 0.88429 0.09567
 H337 H 0.73106 0.84695 0.13670
 H338 H 0.79947 0.88379 0.18920
 H339 H 0.79609 0.92113 0.14827
 H340 H 0.78897 0.83843 0.20200
 H341 H 0.80176 0.93586 0.08732
 H342 H 0.73289 0.81876 0.18413
 C343 C 0.25672 0.45486 0.58793
 C344 C 0.27811 0.44166 0.59635
 C345 C 0.27646 0.41583 0.61379
 C346 C 0.29415 0.39875 0.60198
 C347 C 0.29299 0.37385 0.61649
 C348 C 0.27460 0.36568 0.64401
 C349 C 0.25707 0.38285 0.65660
 C350 C 0.25787 0.40776 0.64133
 C351 C 0.27441 0.33904 0.65807
 C352 C 0.26816 0.33136 0.69558
 H353 H 0.29650 0.44886 0.58471
 H354 H 0.30863 0.40453 0.58082
 H355 H 0.30671 0.36096 0.60642
 H356 H 0.24252 0.37694 0.67753
 H357 H 0.24418 0.42069 0.65129
 H358 H 0.28244 0.32532 0.63910
 H359 H 0.23785 0.44714 0.59690
 H360 H 0.25982 0.34448 0.71509
 C361 C 0.94823 0.25809 0.06920
 C362 C 0.93576 0.23973 0.09323
 C363 C 0.91057 0.24314 0.11051
 C364 C 0.90422 0.23163 0.14599
 C365 C 0.87949 0.23218 0.16084
 C366 C 0.86056 0.24374 0.13989
 C367 C 0.86700 0.25550 0.10464
 C368 C 0.89187 0.25549 0.09023
 C369 C 0.83349 0.24096 0.15183
 C370 C 0.82588 0.23950 0.19014
 H371 H 0.94437 0.22196 0.09901
 H372 H 0.91826 0.22172 0.16180
 H373 H 0.87488 0.22238 0.18765
 H374 H 0.85258 0.26415 0.08778
 H375 H 0.89604 0.26395 0.06232
 H376 H 0.81894 0.23891 0.12955
 H377 H 0.94112 0.27695 0.06718
 H378 H 0.83956 0.24431 0.21296
 C379 C 0.43697 0.74899 0.57893
 C380 C 0.42381 0.76948 0.59190
 C381 C 0.40044 0.76543 0.61577
 C382 C 0.38121 0.78244 0.61232
 C383 C 0.35805 0.77789 0.63213
 C384 C 0.35387 0.75636 0.65634
 C385 C 0.37358 0.73997 0.66088
 C386 C 0.39664 0.74447 0.64101
 C387 C 0.32901 0.74931 0.67548
 C388 C 0.30900 0.76531 0.67820
 H389 H 0.42921 0.78860 0.58107
 H390 H 0.38374 0.79878 0.59317
 H391 H 0.34335 0.79087 0.62728
 H392 H 0.37099 0.72336 0.67951
 H393 H 0.41137 0.73143 0.64540
 H394 H 0.32619 0.73030 0.68800
 H395 H 0.43031 0.72955 0.58686
 H396 H 0.31181 0.78506 0.66896
 C397 C 0.04839 0.77608 0.07549
 C398 C 0.06085 0.75545 0.08964
 C399 C 0.08372 0.75929 0.11482
 C400 C 0.10262 0.74182 0.11304
 C401 C 0.12534 0.74609 0.13426
 C402 C 0.12938 0.76783 0.15824
 C403 C 0.10996 0.78468 0.16114
 C404 C 0.08735 0.78046 0.13986
 C405 C 0.15389 0.77466 0.17877
 C406 C 0.17388 0.75867 0.18214
 H407 H 0.05519 0.73626 0.07914
 H408 H 0.10019 0.72528 0.09412
 H409 H 0.13980 0.73271 0.13071
 H410 H 0.11243 0.80147 0.17956
 H411 H 0.07283 0.79387 0.14299
 H412 H 0.15656 0.79364 0.19154
 H413 H 0.05535 0.79550 0.08318
 H414 H 0.17124 0.73894 0.17263
 C415 C 0.56026 0.25664 0.57407
 C416 C 0.57363 0.23576 0.58483
 C417 C 0.59695 0.23886 0.60909
 C418 C 0.61616 0.22197 0.60416
 C419 C 0.63932 0.22576 0.62436
 C420 C 0.64350 0.24638 0.65037
 C421 C 0.62381 0.26256 0.65644
 C422 C 0.60074 0.25880 0.63622
 C423 C 0.66847 0.25294 0.66961
 C424 C 0.68858 0.23701 0.67087
 H425 H 0.56830 0.21710 0.57217
 H426 H 0.61361 0.20637 0.58357
 H427 H 0.65405 0.21302 0.61837
 H428 H 0.62643 0.27847 0.67648
 H429 H 0.58601 0.27166 0.64179
 H430 H 0.67143 0.27170 0.68305
 H431 H 0.56670 0.27575 0.58401
 H432 H 0.68577 0.21738 0.66090
 C433 C 0.78655 0.04176 0.91220
 C434 C 0.76515 0.05272 0.89743
 C435 C 0.76774 0.07456 0.87025
 C436 C 0.74998 0.09321 0.87156
 C437 C 0.75338 0.11532 0.84885
 C438 C 0.77448 0.11895 0.82387
 C439 C 0.79148 0.09963 0.82127
 C440 C 0.78813 0.07763 0.84404
 C441 C 0.78072 0.14314 0.80237
 C442 C 0.76450 0.16293 0.79879
 H443 H 0.74635 0.04704 0.90902
 H444 H 0.73402 0.09118 0.89137
 H445 H 0.73994 0.12976 0.85217
 H446 H 0.80778 0.10180 0.80210
 H447 H 0.80169 0.06320 0.84128
 H448 H 0.79958 0.14594 0.78954
 H449 H 0.80548 0.04886 0.90263
 H450 H 0.74484 0.16012 0.80815
 C451 C 0.26844 0.56446 0.43232
 C452 C 0.24746 0.57511 0.41576
 C453 C 0.25050 0.59625 0.38742
 C454 C 0.23197 0.61411 0.38541
 C455 C 0.23529 0.63532 0.36083
 C456 C 0.25714 0.63882 0.33730
 C457 C 0.27501 0.62022 0.33809
 C458 C 0.27174 0.59916 0.36276
 C459 C 0.26322 0.66215 0.31368
 C460 C 0.24767 0.68251 0.31006
 H461 H 0.22838 0.56918 0.42605
 H462 H 0.21530 0.61212 0.40387
 H463 H 0.22101 0.64908 0.36135
 H464 H 0.29190 0.62227 0.32010
 H465 H 0.28595 0.58527 0.36250
 H466 H 0.28183 0.66414 0.29995
 H467 H 0.28769 0.57168 0.42454
 H468 H 0.22823 0.68072 0.32053
 C469 C 0.26415 0.95791 0.92996
 C470 C 0.24081 0.94899 0.91330
 C471 C 0.23770 0.92736 0.88566
 C472 C 0.21559 0.92477 0.86271
 C473 C 0.21090 0.90364 0.83831
 C474 C 0.22809 0.88444 0.83648
 C475 C 0.25049 0.88719 0.85911
 C476 C 0.25525 0.90844 0.88342
 C477 C 0.22080 0.86128 0.81284
 C478 C 0.23597 0.84077 0.80758
 H479 H 0.22386 0.95849 0.92065
 H480 H 0.20169 0.93898 0.86405
 H481 H 0.19342 0.90201 0.82143
 H482 H 0.26410 0.87277 0.85929
 H483 H 0.27217 0.90938 0.90141
 H484 H 0.20186 0.85979 0.79998
 H485 H 0.28175 0.95023 0.92105
 H486 H 0.25562 0.84221 0.81727
 C487 C 0.75526 0.43758 0.41377
 C488 C 0.73358 0.42592 0.39543
 C489 C 0.73369 0.40260 0.37116
 C490 C 0.71284 0.39643 0.34654
 C491 C 0.71096 0.37346 0.32573
 C492 C 0.72979 0.35598 0.32921
 C493 C 0.75097 0.36233 0.35342
 C494 C 0.75290 0.38541 0.37415
 C495 C 0.72545 0.33086 0.30928
 C496 C 0.74274 0.31187 0.30856
 H497 H 0.71539 0.43399 0.39961
 H498 H 0.69768 0.40923 0.34391
 H499 H 0.69436 0.36907 0.30749
 H500 H 0.76573 0.34934 0.35763
 H501 H 0.76892 0.38909 0.39362
 H502 H 0.70709 0.32666 0.29517
 H503 H 0.77399 0.43119 0.40800
 H504 H 0.76194 0.31577 0.31962
 C505 C 0.06015 0.22868 0.93307
 C506 C 0.07369 0.24788 0.91164
 C507 C 0.09647 0.24352 0.88814
 C508 C 0.11345 0.26469 0.87832
 C509 C 0.13573 0.26136 0.85753
 C510 C 0.14147 0.23665 0.84600
 C511 C 0.12395 0.21562 0.85453
 C512 C 0.10169 0.21896 0.87531
 C513 C 0.16543 0.23169 0.82575
 C514 C 0.18689 0.24935 0.82275
 H515 H 0.06836 0.26742 0.91414
 H516 H 0.10966 0.28388 0.88731
 H517 H 0.14821 0.27824 0.85072
 H518 H 0.12767 0.19642 0.84552
 H519 H 0.08869 0.20223 0.88097
 H520 H 0.16681 0.21252 0.81435
 H521 H 0.06574 0.20922 0.93278
 H522 H 0.18629 0.26878 0.83311
 C523 C 0.54948 0.76035 0.42838
 C524 C 0.55645 0.73840 0.40937
 C525 C 0.58033 0.73684 0.38703
 C526 C 0.58238 0.71533 0.36339
 C527 C 0.60529 0.71158 0.34461
 C528 C 0.62680 0.72921 0.34903
 C529 C 0.62472 0.75106 0.37227
 C530 C 0.60170 0.75485 0.39104
 C531 C 0.65117 0.72309 0.33087
 C532 C 0.67302 0.74019 0.32771
 H533 H 0.54389 0.72091 0.41172
 H534 H 0.56630 0.70105 0.36000
 H535 H 0.60632 0.69453 0.32709
 H536 H 0.64093 0.76485 0.37725
 H537 H 0.60113 0.77133 0.40977
 H538 H 0.65194 0.70396 0.31901
 H539 H 0.56044 0.77865 0.42465
 H540 H 0.67242 0.75998 0.33640
 C541 C 0.93779 0.76545 0.92415
 C542 C 0.92282 0.74298 0.91425
 C543 C 0.90008 0.74358 0.88891
 C544 C 0.87876 0.72595 0.89490
 C545 C 0.85612 0.72779 0.87392
 C546 C 0.85459 0.74718 0.84611
 C547 C 0.87637 0.76394 0.83887
 C548 C 0.89891 0.76210 0.85981
 C549 C 0.83036 0.75208 0.82640
 C550 C 0.80827 0.73516 0.82581
 H551 H 0.92621 0.72508 0.92833
 H552 H 0.87926 0.71140 0.91699
 H553 H 0.83971 0.71469 0.88076
 H554 H 0.87580 0.77891 0.81743
 H555 H 0.91528 0.77541 0.85340
 H556 H 0.82962 0.77049 0.81224
 H557 H 0.93300 0.78359 0.91224
 H558 H 0.80879 0.71574 0.83625
 C559 C 0.44545 0.24875 0.42676
 C560 C 0.43583 0.27111 0.41286
 C561 C 0.41119 0.27183 0.39207
 C562 C 0.40657 0.29420 0.37190
 C563 C 0.38285 0.29669 0.35455
 C564 C 0.36305 0.27695 0.35713
 C565 C 0.36774 0.25432 0.37701
 C566 C 0.39157 0.25180 0.39428
 C567 C 0.33780 0.28146 0.34013
 C568 C 0.31666 0.26333 0.33841
 H569 H 0.44673 0.28934 0.41816
 H570 H 0.42127 0.31001 0.37001
 H571 H 0.37983 0.31436 0.33957
 H572 H 0.35305 0.23872 0.38034
 H573 H 0.39412 0.23453 0.41045
 H574 H 0.33567 0.30031 0.32814
 H575 H 0.43610 0.23007 0.41977
 H576 H 0.31823 0.24387 0.34789
 C577 C 0.78283 0.93418 0.91879
 C578 C 0.76055 0.91916 0.90854
 C579 C 0.76102 0.89542 0.88532
 C580 C 0.74165 0.87552 0.89048
 C581 C 0.74257 0.85210 0.87114
 C582 C 0.76280 0.84830 0.84574
 C583 C 0.78161 0.86860 0.83953
 C584 C 0.78071 0.89195 0.85890
 C585 C 0.76606 0.82323 0.82716
 C586 C 0.74736 0.80254 0.82591
 H587 H 0.74248 0.92357 0.92099
 H588 H 0.72622 0.87779 0.91055
 H589 H 0.72787 0.83692 0.87728
 H590 H 0.79731 0.86627 0.81996
 H591 H 0.79551 0.90714 0.85315
 H592 H 0.78443 0.82076 0.81400
 H593 H 0.80127 0.92890 0.90903
 H594 H 0.72812 0.80487 0.83559
 C595 C 0.26796 0.45714 0.43437
 C596 C 0.24733 0.44038 0.42240
 C597 C 0.25104 0.41738 0.39872
 C598 C 0.23425 0.39524 0.40320
 C599 C 0.23866 0.37249 0.38389
 C600 C 0.25984 0.37162 0.35921
 C601 C 0.27600 0.39409 0.35363
 C602 C 0.27160 0.41677 0.37292
 C603 C 0.26673 0.34756 0.34073
 C604 C 0.25012 0.32537 0.33694
 H605 H 0.22852 0.44256 0.43421
 H606 H 0.21823 0.39525 0.42283
 H607 H 0.22596 0.35555 0.38956
 H608 H 0.29234 0.39402 0.33461
 H609 H 0.28445 0.43370 0.36771
 H610 H 0.28593 0.34731 0.32923
 H611 H 0.28717 0.45377 0.42546
 H612 H 0.23023 0.32565 0.34491
 C613 C 0.26789 0.06448 0.93293
 C614 C 0.24513 0.07344 0.91928
 C615 C 0.24404 0.09582 0.89343
 C616 C 0.22129 0.09868 0.87316
 C617 C 0.21862 0.12050 0.85087
 C618 C 0.23854 0.14014 0.84854
 C619 C 0.26157 0.13712 0.86839
 C620 C 0.26428 0.11518 0.89060
 C621 C 0.23363 0.16383 0.82722
 C622 C 0.25124 0.18523 0.82278
 H623 H 0.22702 0.06360 0.92790
 H624 H 0.20535 0.08414 0.87503
 H625 H 0.20063 0.12228 0.83606
 H626 H 0.27737 0.15177 0.86795
 H627 H 0.28188 0.11402 0.90659
 H628 H 0.21456 0.16492 0.81545
 H629 H 0.28613 0.07277 0.92231
 H630 H 0.27092 0.18448 0.83163
 C631 C 0.75433 0.54765 0.41919
 C632 C 0.73235 0.55555 0.40142
 C633 C 0.73107 0.58013 0.38062
 C634 C 0.70949 0.58329 0.35768
 C635 C 0.70610 0.60690 0.34047
 C636 C 0.72414 0.62800 0.34585
 C637 C 0.74600 0.62482 0.36847
 C638 C 0.74943 0.60111 0.38564
 C639 C 0.71856 0.65306 0.32914
 C640 C 0.73615 0.67461 0.32691
 H641 H 0.71467 0.54332 0.40388
 H642 H 0.69493 0.56754 0.35360
 H643 H 0.68903 0.60878 0.32338
 H644 H 0.76010 0.64065 0.37422
 H645 H 0.76595 0.59970 0.40398
 H646 H 0.69955 0.65457 0.31742
 H647 H 0.77273 0.55829 0.41515
 H648 H 0.75580 0.67335 0.33561
 C649 C 0.04324 0.76275 0.91970
 C650 C 0.05434 0.78410 0.89984
 C651 C 0.07609 0.78329 0.87289
 C652 C 0.08090 0.80373 0.84713
 C653 C 0.10262 0.80523 0.82386
 C654 C 0.12023 0.78645 0.82596
 C655 C 0.11514 0.76554 0.85110
 C656 C 0.09326 0.76398 0.87431
 C657 C 0.14449 0.79089 0.80420
 C658 C 0.16364 0.77384 0.80223
 H659 H 0.04679 0.80258 0.90425
 H660 H 0.06806 0.81893 0.84558
 H661 H 0.10607 0.82161 0.80495
 H662 H 0.12835 0.75086 0.85421
 H663 H 0.09057 0.74826 0.89448
 H664 H 0.14823 0.80948 0.79056
 H665 H 0.04908 0.74380 0.91337
 H666 H 0.16012 0.75434 0.81235
 C667 C 0.55390 0.25537 0.41550
 C668 C 0.56643 0.23438 0.40289
 C669 C 0.58802 0.23740 0.37548
 C670 C 0.60797 0.22119 0.37846
 C671 C 0.62990 0.22537 0.35570
 C672 C 0.63204 0.24571 0.32904
 C673 C 0.61144 0.26101 0.32473
 C674 C 0.58961 0.25687 0.34753
 C675 C 0.65598 0.25313 0.30780
 C676 C 0.67696 0.23836 0.30578
 H677 H 0.56218 0.21588 0.41651
 H678 H 0.60708 0.20596 0.39964
 H679 H 0.64537 0.21329 0.36036
 H680 H 0.61249 0.27667 0.30425
 H681 H 0.57419 0.26916 0.34351
 H682 H 0.65766 0.27187 0.29423
 H683 H 0.55951 0.27435 0.40440
 H684 H 0.67532 0.21869 0.31562
 C685 C 0.95300 0.22715 0.92150
 C686 C 0.94293 0.24577 0.89858
 C687 C 0.92124 0.23955 0.87185
 C688 C 0.90470 0.25852 0.86314
 C689 C 0.88288 0.25270 0.84046
 C690 C 0.87726 0.22768 0.82585
 C691 C 0.89459 0.20914 0.83293
 C692 C 0.91636 0.21496 0.85556
 C693 C 0.85344 0.21968 0.80426
 C694 C 0.83253 0.23445 0.80075
 H695 H 0.94954 0.26578 0.90295
 H696 H 0.90829 0.27773 0.87481
 H697 H 0.87056 0.26787 0.83500
 H698 H 0.89103 0.18985 0.82153
 H699 H 0.92922 0.20011 0.86027
 H700 H 0.85165 0.20047 0.79217
 H701 H 0.94530 0.20732 0.91948
 H702 H 0.83356 0.25390 0.81150
 C703 C 0.44087 0.76293 0.42251
 C704 C 0.43039 0.74162 0.40189
 C705 C 0.40807 0.74198 0.37573
 C706 C 0.40332 0.72166 0.34960
 C707 C 0.38118 0.71979 0.32698
 C708 C 0.36313 0.73809 0.33010
 C709 C 0.36812 0.75884 0.35568
 C710 C 0.39037 0.76077 0.37825
 C711 C 0.33863 0.73335 0.30880
 C712 C 0.31928 0.75021 0.30731
 H713 H 0.43881 0.72350 0.40541
 H714 H 0.41653 0.70685 0.34723
 H715 H 0.37781 0.70353 0.30771
 H716 H 0.35457 0.77311 0.35965
 H717 H 0.39299 0.77636 0.39875
 H718 H 0.33500 0.71481 0.29485
 H719 H 0.43427 0.78172 0.41752
 H720 H 0.32272 0.76967 0.31780
 C721 C 0.26863 0.95627 0.08738
 C722 C 0.24590 0.94566 0.10394
 C723 C 0.24361 0.92169 0.12683
 C724 C 0.22159 0.91636 0.14919
 C725 C 0.21731 0.89294 0.16834
 C726 C 0.23486 0.87414 0.16543
 C727 C 0.25724 0.87962 0.14357
 C728 C 0.26157 0.90317 0.12450
 C729 C 0.22806 0.84880 0.18361
 C730 C 0.24382 0.82850 0.18482
 H731 H 0.22855 0.95517 0.09919
 H732 H 0.20735 0.93020 0.15128
 H733 H 0.19987 0.88928 0.18482
 H734 H 0.27114 0.86566 0.13994
 H735 H 0.27846 0.90626 0.10677
 H736 H 0.20915 0.84568 0.19623
 H737 H 0.28666 0.94848 0.09377
 H738 H 0.26339 0.83119 0.17505
 C739 C 0.74271 0.43488 0.56964
 C740 C 0.76315 0.42177 0.58275
 C741 C 0.75910 0.39851 0.60692
 C742 C 0.77581 0.37902 0.60335
 C743 C 0.77112 0.35587 0.62328
 C744 C 0.74976 0.35197 0.64773
 C745 C 0.73371 0.37195 0.65244
 C746 C 0.73835 0.39501 0.63244
 C747 C 0.74253 0.32712 0.66691
 C748 C 0.75829 0.30691 0.66954
 H749 H 0.78220 0.42707 0.57179
 H750 H 0.79198 0.38134 0.58397
 H751 H 0.78383 0.34095 0.61830
 H752 H 0.71724 0.36957 0.67126
 H753 H 0.72555 0.40996 0.63689
 H754 H 0.72360 0.32447 0.67954
 H755 H 0.72333 0.42830 0.57775
 H756 H 0.77797 0.30951 0.66021
 C757 C 0.78583 0.04719 0.06917
 C758 C 0.76414 0.05873 0.08130
 C759 C 0.76576 0.08099 0.10784
 C760 C 0.74739 0.09899 0.10529
 C761 C 0.74945 0.12115 0.12816
 C762 C 0.76982 0.12548 0.15452
 C763 C 0.78753 0.10688 0.15811
 C764 C 0.78551 0.08484 0.13518
 C765 C 0.77453 0.14964 0.17677
 C766 C 0.75768 0.16897 0.17897
 H767 H 0.74571 0.05259 0.06864
 H768 H 0.73188 0.09632 0.08462
 H769 H 0.73551 0.13501 0.12407
 H770 H 0.80331 0.10961 0.17832
 H771 H 0.79951 0.07094 0.13892
 H772 H 0.79280 0.15282 0.19146
 H773 H 0.80461 0.05448 0.07925
 H774 H 0.73844 0.16581 0.16774
 C775 C 0.26091 0.56541 0.59076
 C776 C 0.23972 0.57932 0.59733
 C777 C 0.24154 0.60283 0.62145
 C778 C 0.22608 0.62274 0.61273
 C779 C 0.22932 0.64622 0.63239
 C780 C 0.24796 0.65004 0.66154
 C781 C 0.26251 0.62966 0.67144
 C782 C 0.25925 0.60625 0.65186
 C783 C 0.25435 0.67533 0.68008
 C784 C 0.23884 0.69579 0.67908
 H785 H 0.22232 0.57460 0.58097
 H786 H 0.21221 0.62052 0.58955
 H787 H 0.21796 0.66152 0.62349
 H788 H 0.27685 0.63201 0.69396
 H789 H 0.27086 0.59103 0.66036
 H790 H 0.27259 0.67819 0.69497
 H791 H 0.27903 0.57136 0.60439
 H792 H 0.21957 0.69306 0.66776
 C793 C 0.94082 0.77602 0.07949
 C794 C 0.92593 0.75511 0.09483
 C795 C 0.90415 0.75822 0.12102
 C796 C 0.88348 0.73933 0.12141
 C797 C 0.86181 0.74254 0.14378
 C798 C 0.86059 0.76464 0.16674
 C799 C 0.88173 0.78301 0.16741
 C800 C 0.90331 0.77984 0.14497
 C801 C 0.83731 0.77024 0.18836
 C802 C 0.81583 0.75289 0.19365
 H803 H 0.92882 0.73596 0.08455
 H804 H 0.88374 0.72243 0.10337
 H805 H 0.84594 0.72800 0.14190
 H806 H 0.88141 0.80014 0.18498
 H807 H 0.91923 0.79440 0.14644
 H808 H 0.83680 0.78941 0.20015
 H809 H 0.93689 0.79539 0.08715
 H810 H 0.81631 0.73304 0.18520
 C811 C 0.45077 0.24945 0.57993
 C812 C 0.43868 0.27157 0.58844
 C813 C 0.41353 0.27121 0.60749
 C814 C 0.39711 0.28974 0.59649
 C815 C 0.37277 0.28980 0.61241
 C816 C 0.36456 0.27178 0.64049
 C817 C 0.38110 0.25340 0.65225
 C818 C 0.40543 0.25300 0.63562
 C819 C 0.33851 0.27280 0.65596
 C820 C 0.33156 0.26664 0.69377
 H821 H 0.44609 0.28960 0.57572
 H822 H 0.40294 0.30395 0.57487
 H823 H 0.36034 0.30415 0.60295
 H824 H 0.37511 0.23909 0.67358
 H825 H 0.41787 0.23868 0.64498
 H826 H 0.32475 0.28140 0.63774
 H827 H 0.44300 0.23093 0.59047
 H828 H 0.34479 0.25788 0.71259
 C829 C 0.05620 0.25631 0.08415
 C830 C 0.06172 0.23682 0.10958
 C831 C 0.08485 0.23724 0.13422
 C832 C 0.08595 0.21799 0.16212
 C833 C 0.10838 0.21553 0.18302
 C834 C 0.13027 0.23228 0.17660
 C835 C 0.12908 0.25204 0.14932
 C836 C 0.10657 0.25450 0.12833
 C837 C 0.15426 0.22718 0.19675
 C838 C 0.17584 0.24465 0.19946
 H839 H 0.04883 0.21948 0.11025
 H840 H 0.06958 0.20433 0.16707
 H841 H 0.10880 0.20008 0.20370
 H842 H 0.14569 0.26496 0.14280
 H843 H 0.10675 0.26920 0.10648
 H844 H 0.15500 0.20860 0.21038
 H845 H 0.06731 0.27470 0.08445
 H846 H 0.17509 0.26413 0.18939
 C847 C 0.54604 0.75092 0.58239
 C848 C 0.55733 0.72790 0.58741
 C849 C 0.58175 0.72594 0.60813
 C850 C 0.59756 0.70714 0.59607
 C851 C 0.62125 0.70503 0.61353
 C852 C 0.62942 0.72122 0.64414
 C853 C 0.61344 0.73980 0.65697
 C854 C 0.58977 0.74222 0.63893
 C855 C 0.65493 0.71822 0.66085
 C856 C 0.66188 0.72372 0.69901
 H857 H 0.54968 0.71115 0.57139
 H858 H 0.59180 0.69435 0.57246
 H859 H 0.63322 0.69055 0.60318
 H860 H 0.61935 0.75275 0.68024
 H861 H 0.57779 0.75665 0.64928
 H862 H 0.66839 0.70910 0.64280
 H863 H 0.55417 0.76833 0.59618
 H864 H 0.64910 0.73310 0.71775
   
