data_POSCAR
  _audit_creation_date              2014-09-24
  _audit_creation_method            'ToBaCCo'
  _symmetry_space_group_name_H-M    'P1'
  _symmetry_Int_Tables_number       1
  _symmetry_cell_setting            triclinic
  loop_
  _symmetry_equiv_pos_as_xyz
 x,y,z
_cell_length_a 26.0757
_cell_length_b 33.4743
_cell_length_c 16.3889
_cell_angle_alpha 89.980100
_cell_angle_beta 89.973800
_cell_angle_gamma 90.130600
loop_
  _atom_site_label
  _atom_site_type_symbol
  _atom_site_fract_x
  _atom_site_fract_y
  _atom_site_fract_z
C1 C 0.70677 0.32694 0.57348
 C2 C 0.70144 0.34590 0.49737
 C3 C 0.70883 0.32603 0.42343
 C4 C 0.72742 0.28641 0.42431
 C5 C 0.73693 0.26698 0.50000
 C6 C 0.72636 0.28713 0.57486
 C7 C 0.73773 0.26732 0.64824
 C8 C 0.75535 0.22824 0.64898
 C9 C 0.76648 0.20763 0.57637
 C10 C 0.75675 0.22717 0.50065
 C11 C 0.73724 0.26586 0.35150
 C12 C 0.75451 0.22676 0.35211
 C13 C 0.76637 0.20701 0.42547
 C14 C 0.78455 0.16696 0.42616
 C15 C 0.78829 0.14734 0.50175
 C16 C 0.78427 0.16741 0.57685
 H17 H 0.73415 0.28162 0.70683
 H18 H 0.75855 0.21442 0.70813
 H19 H 0.73172 0.27964 0.29258
 H20 H 0.75665 0.21214 0.29362
 H21 H 0.68584 0.37585 0.49466
 H22 H 0.80160 0.11675 0.50212
 C23 C 0.20868 0.82926 0.57555
 C24 C 0.19893 0.84797 0.50089
 C25 C 0.20899 0.82958 0.42606
 C26 C 0.23196 0.79128 0.42537
 C27 C 0.24330 0.77184 0.50052
 C28 C 0.23153 0.79087 0.57581
 C29 C 0.24317 0.77107 0.64892
 C30 C 0.26417 0.73294 0.64879
 C31 C 0.27721 0.71348 0.57552
 C32 C 0.26594 0.73310 0.50027
 C33 C 0.24438 0.77208 0.35189
 C34 C 0.26517 0.73394 0.35150
 C35 C 0.27661 0.71397 0.42462
 C36 C 0.29716 0.67496 0.42424
 C37 C 0.30545 0.65551 0.49843
 C38 C 0.29836 0.67419 0.57445
 H39 H 0.23613 0.78468 0.70759
 H40 H 0.26834 0.71884 0.70750
 H41 H 0.23834 0.78624 0.29347
 H42 H 0.27131 0.72017 0.29273
 H43 H 0.17983 0.87673 0.50098
 H44 H 0.32255 0.62605 0.49615
 C45 C 0.20538 0.17432 -0.42604
 C46 C 0.19785 0.15498 -0.50050
 C47 C 0.20439 0.17418 -0.57619
 C48 C 0.22460 0.21388 -0.57654
 C49 C 0.23546 0.23337 -0.50107
 C50 C 0.22521 0.21363 -0.42580
 C51 C 0.23609 0.23338 -0.35231
 C52 C 0.25508 0.27208 -0.35186
 C53 C 0.26663 0.29208 -0.42487
 C54 C 0.25678 0.27272 -0.50060
 C55 C 0.23659 0.23411 -0.64933
 C56 C 0.25620 0.27276 -0.64885
 C57 C 0.26828 0.29251 -0.57557
 C58 C 0.28932 0.33198 -0.57426
 C59 C 0.29532 0.35085 -0.49813
 C60 C 0.28685 0.33125 -0.42413
 H61 H 0.23067 0.21912 -0.29382
 H62 H 0.26009 0.28612 -0.29308
 H63 H 0.23219 0.22040 -0.70837
 H64 H 0.26050 0.28687 -0.70754
 H65 H 0.18142 0.12522 -0.49867
 H66 H 0.31213 0.38045 -0.49539
 C67 C -0.28359 0.66648 -0.42753
 C68 C -0.28700 0.64704 -0.50334
 C69 C -0.28329 0.66741 -0.57819
 C70 C -0.26613 0.70785 -0.57722
 C71 C -0.25656 0.72724 -0.50128
 C72 C -0.26578 0.70671 -0.42636
 C73 C -0.25398 0.72633 -0.35279
 C74 C -0.23725 0.76564 -0.35172
 C75 C -0.22791 0.78658 -0.42429
 C76 C -0.23733 0.76730 -0.50017
 C77 C -0.25552 0.72888 -0.64959
 C78 C -0.23858 0.76819 -0.64838
 C79 C -0.22722 0.78783 -0.57481
 C80 C -0.20803 0.82781 -0.57304
 C81 C -0.20289 0.84663 -0.49677
 C82 C -0.20987 0.82644 -0.42301
 H83 H -0.25571 0.71145 -0.29451
 H84 H -0.23179 0.77927 -0.29264
 H85 H -0.25860 0.71526 -0.70893
 H86 H -0.23554 0.78277 -0.70678
 H87 H -0.29983 0.61628 -0.50411
 H88 H -0.18766 0.87674 -0.49384
 N89 N -0.05703 1.04246 -0.14171
 N90 N -0.09043 1.04959 -0.20007
 N91 N 0.05006 1.07288 -0.08879
 N92 N 0.08185 1.10188 -0.11030
 N93 N 0.05115 1.04380 -0.14261
 N94 N 0.08439 1.05185 -0.20099
 N95 N -0.05725 1.07145 -0.08766
 N96 N -0.09024 1.09957 -0.10921
 C97 C -0.11134 1.08493 -0.17870
 C98 C 0.10374 1.08781 -0.17953
 N99 N 0.05253 1.04411 0.14211
 N100 N 0.08560 1.05232 0.20038
 N101 N -0.05635 1.07164 0.09005
 N102 N -0.08946 1.09959 0.11204
 N103 N -0.05550 1.04273 0.14427
 N104 N -0.08854 1.04973 0.20324
 N105 N 0.05109 1.07319 0.08832
 N106 N 0.08271 1.10238 0.10979
 Mn107 Mn -0.00319 1.07274 0.00046
 C108 C 0.10468 1.08836 0.17909
 C109 C -0.10991 1.08491 0.18206
 N110 N 0.05245 0.95790 -0.14211
 N111 N 0.08571 0.95024 -0.20059
 N112 N -0.05493 0.92812 -0.08650
 N113 N -0.08696 0.89913 -0.10704
 N114 N -0.05589 0.95685 -0.14111
 N115 N -0.08943 0.94866 -0.19891
 N116 N 0.05227 0.92904 -0.08777
 N117 N 0.08474 0.90056 -0.10895
 Mn118 Mn -0.00227 1.00026 -0.14240
 C119 C 0.10606 0.91474 -0.17858
 C120 C -0.10901 0.91292 -0.17635
 N121 N -0.05410 0.95732 0.14483
 N122 N -0.08656 0.94942 0.20422
 N123 N 0.05324 0.92929 0.08892
 N124 N 0.08555 0.90073 0.11021
 N125 N 0.05404 0.95840 0.14262
 N126 N 0.08755 0.95083 0.20072
 N127 N -0.05409 0.92839 0.09072
 N128 N -0.08600 0.89957 0.11308
 Mn129 Mn -0.00069 1.00065 0.14382
 Mn130 Mn -0.00093 0.92832 0.00132
 Cl131 Cl -0.00178 1.00051 0.00076
 C132 C -0.10668 0.91369 0.18329
 C133 C 0.10744 0.91513 0.17917
 N134 N 0.44542 0.42897 -0.08765
 N135 N 0.41225 0.40075 -0.10809
 N136 N 0.55318 0.45611 -0.14466
 N137 N 0.58560 0.44804 -0.20390
 N138 N 0.55274 0.42725 -0.09036
 N139 N 0.58436 0.39827 -0.11249
 N140 N 0.44505 0.45794 -0.14174
 N141 N 0.41093 0.45066 -0.19915
 C142 C 0.39026 0.41527 -0.17683
 C143 C 0.60526 0.41225 -0.18277
 N144 N 0.55733 0.57061 -0.09146
 N145 N 0.59064 0.59844 -0.11391
 N146 N 0.44802 0.54354 -0.14259
 N147 N 0.41513 0.55181 -0.20100
 N148 N 0.44995 0.57276 -0.08918
 N149 N 0.41885 0.60210 -0.11110
 N150 N 0.55600 0.54161 -0.14540
 N151 N 0.58889 0.54847 -0.20477
 Mn152 Mn 0.50052 0.49979 -0.14397
 C153 C 0.61069 0.58363 -0.18397
 C154 C 0.39666 0.58803 -0.18023
 N155 N 0.55417 0.42754 0.08696
 N156 N 0.58580 0.39842 0.10773
 N157 N 0.44778 0.45828 0.14319
 N158 N 0.41514 0.45105 0.20273
 N159 N 0.44688 0.42922 0.08933
 N160 N 0.41405 0.40107 0.11189
 N161 N 0.55594 0.45652 0.14092
 N162 N 0.58959 0.44836 0.19849
 Mn163 Mn 0.49983 0.42782 -0.00043
 C164 C 0.60842 0.41238 0.17649
 C165 C 0.39386 0.41566 0.18204
 N166 N 0.45151 0.57298 0.08785
 N167 N 0.41988 0.60206 0.10877
 N168 N 0.55846 0.54211 0.14026
 N169 N 0.59198 0.54933 0.19845
 N170 N 0.55876 0.57102 0.08601
 N171 N 0.59192 0.59918 0.10726
 N172 N 0.45028 0.54413 0.14221
 N173 N 0.41707 0.55240 0.20041
 Mn174 Mn 0.50444 0.57228 -0.00168
 Mn175 Mn 0.50308 0.50027 0.14212
 Cl176 Cl 0.50198 0.50004 -0.00096
 C177 C 0.39793 0.58829 0.17827
 C178 C 0.61307 0.58462 0.17674
 N179 N 0.32776 0.33370 0.28994
 C180 C 0.30889 0.35290 0.35676
 N181 N 0.31548 0.39318 0.36102
 N182 N 0.34039 0.41309 0.30314
 C183 C 0.35993 0.39374 0.23775
 N184 N 0.35269 0.35368 0.23147
 N185 N -0.16948 0.83041 0.29145
 C186 C -0.18919 0.84921 0.35814
 N187 N -0.18417 0.88961 0.36233
 N188 N -0.16006 0.91004 0.30433
 C189 C -0.13981 0.89110 0.23896
 N190 N -0.14538 0.85089 0.23288
 N191 N 0.69443 0.60642 0.35243
 C192 C 0.69798 0.64696 0.35161
 N193 N 0.67639 0.66670 0.28756
 N194 N 0.65175 0.64696 0.22855
 C195 C 0.64747 0.60657 0.23154
 N196 N 0.66973 0.58671 0.29406
 N197 N 0.16644 1.17203 0.28781
 C198 C 0.18649 1.15309 0.35408
 N199 N 0.18252 1.11260 0.35724
 N200 N 0.15882 1.09218 0.29892
 C201 C 0.13790 1.11120 0.23422
 N202 N 0.14263 1.15154 0.22893
 N203 N 0.68311 0.38850 -0.36136
 C204 C 0.68793 0.34810 -0.35750
 N205 N 0.66803 0.32912 -0.29103
 N206 N 0.64385 0.34946 -0.23243
 C207 C 0.63845 0.38969 -0.23825
 N208 N 0.65897 0.40878 -0.30334
 N209 N 0.19205 0.89099 -0.34805
 C210 C 0.19009 0.85045 -0.35041
 N211 N 0.16295 0.83102 -0.29160
 N212 N 0.13860 0.85136 -0.23331
 C213 C 0.13981 0.89191 -0.23256
 N214 N 0.16728 0.91130 -0.29056
 N215 N 0.32050 0.61254 -0.35988
 C216 C 0.31618 0.65297 -0.35607
 N217 N 0.33556 0.67179 -0.28908
 N218 N 0.35901 0.65122 -0.23004
 C219 C 0.36400 0.61094 -0.23587
 N220 N 0.34380 0.59205 -0.30136
 N221 N -0.17549 1.16671 -0.28882
 C222 C -0.19675 1.14695 -0.35319
 N223 N -0.19263 1.10645 -0.35455
 N224 N -0.16771 1.08684 -0.29639
 C225 C -0.14577 1.10672 -0.23355
 N226 N -0.15062 1.14705 -0.23003
 N227 N 0.67644 0.66516 -0.29306
 C228 C 0.69666 0.64563 -0.35848
 N229 N 0.69096 0.60524 -0.36145
 N230 N 0.66571 0.58555 -0.30356
 C231 C 0.64501 0.60525 -0.23948
 N232 N 0.65129 0.64542 -0.23457
 N233 N 0.19027 1.11249 -0.34815
 C234 C 0.18681 1.15294 -0.35190
 N235 N 0.15837 1.17204 -0.29435
 N236 N 0.13431 1.15153 -0.23590
 C237 C 0.13707 1.11106 -0.23372
 N238 N 0.16575 1.09197 -0.29052
 N239 N 0.33353 0.33228 -0.29228
 C240 C 0.30541 0.35200 -0.34935
 N241 N 0.30257 0.39245 -0.34467
 N242 N 0.32750 0.41239 -0.28670
 C243 C 0.35594 0.39269 -0.23047
 N244 N 0.35799 0.35221 -0.23350
 N245 N -0.19666 0.88786 -0.34303
 C246 C -0.19189 0.84753 -0.34819
 N247 N -0.16233 0.82857 -0.29189
 N248 N -0.13845 0.84909 -0.23336
 C249 C -0.14246 0.88947 -0.22987
 N250 N -0.17227 0.90842 -0.28536
 N251 N 0.31119 0.61328 0.34601
 C252 C 0.31508 0.65372 0.34973
 N253 N 0.34368 0.67277 0.29215
 N254 N 0.36763 0.65216 0.23384
 C255 C 0.36456 0.61168 0.23186
 N256 N 0.33558 0.59268 0.28854
 N257 N -0.17527 1.16620 0.29178
 C258 C -0.19581 1.14642 0.35678
 N259 N -0.19055 1.10601 0.35904
 N260 N -0.16540 1.08653 0.30093
 C261 C -0.14433 1.10645 0.23731
 N262 N -0.15017 1.14667 0.23307
 N263 N 0.66143 0.32811 0.29223
 C264 C 0.69086 0.34714 0.34872
 N265 N 0.69563 0.38749 0.34368
 N266 N 0.67139 0.40799 0.28589
 C267 C 0.64171 0.38898 0.23018
 N268 N 0.63766 0.34859 0.23360
 N269 N 0.19243 0.89142 0.34981
 C270 C 0.19054 0.85088 0.35208
 N271 N 0.16382 0.83144 0.29286
 N272 N 0.13980 0.85176 0.23423
 C273 C 0.14097 0.89231 0.23348
 N274 N 0.16801 0.91171 0.29193
   
