data_POSCAR
  _audit_creation_date              2014-09-24
  _audit_creation_method            'ToBaCCo'
  _symmetry_space_group_name_H-M    'P1'
  _symmetry_Int_Tables_number       1
  _symmetry_cell_setting            triclinic
  loop_
  _symmetry_equiv_pos_as_xyz
 x,y,z
_cell_length_a 57.2182
_cell_length_b 41.4756
_cell_length_c 28.9247
_cell_angle_alpha 89.897700
_cell_angle_beta 89.874200
_cell_angle_gamma 89.922700
loop_
  _atom_site_label
  _atom_site_type_symbol
  _atom_site_fract_x
  _atom_site_fract_y
  _atom_site_fract_z
C1 C 0.69741 0.29570 0.50089
 C2 C 0.70969 0.29110 0.54205
 C3 C 0.73057 0.27341 0.54197
 C4 C 0.73885 0.25863 0.50102
 C5 C 0.72581 0.26302 0.46000
 C6 C 0.70558 0.28206 0.45985
 C7 C 0.76085 0.23879 0.50117
 C8 C 0.77398 0.23414 0.46020
 C9 C 0.79422 0.21503 0.46037
 C10 C 0.80225 0.20164 0.50174
 C11 C 0.78986 0.20653 0.54273
 C12 C 0.76902 0.22424 0.54234
 H13 H 0.68146 0.30991 0.50071
 H14 H 0.74022 0.27151 0.57397
 H15 H 0.73104 0.25165 0.42800
 H16 H 0.76879 0.24538 0.42805
 H17 H 0.81818 0.18740 0.50212
 H18 H 0.75936 0.22631 0.57436
 C19 C 0.19836 0.79698 0.50535
 C20 C 0.21045 0.79145 0.54648
 C21 C 0.23088 0.77279 0.54621
 C22 C 0.23884 0.75796 0.50507
 C23 C 0.22598 0.76333 0.46404
 C24 C 0.20623 0.78331 0.46411
 C25 C 0.26032 0.73710 0.50505
 C26 C 0.27343 0.73225 0.46412
 C27 C 0.29319 0.71229 0.46409
 C28 C 0.30083 0.69812 0.50516
 C29 C 0.28849 0.70313 0.54622
 C30 C 0.26806 0.72178 0.54602
 H31 H 0.18275 0.81191 0.50536
 H32 H 0.24043 0.77016 0.57823
 H33 H 0.23098 0.75198 0.43187
 H34 H 0.26862 0.74398 0.43211
 H35 H 0.31644 0.68320 0.50509
 H36 H 0.25831 0.72401 0.57794
 C37 C 0.30188 0.29746 -0.50161
 C38 C 0.28958 0.29253 -0.54257
 C39 C 0.26880 0.27475 -0.54210
 C40 C 0.26061 0.26021 -0.50085
 C41 C 0.27368 0.26494 -0.45996
 C42 C 0.29383 0.28407 -0.46026
 C43 C 0.23872 0.24025 -0.50056
 C44 C 0.22565 0.23573 -0.45946
 C45 C 0.20551 0.21651 -0.45924
 C46 C 0.19750 0.20285 -0.50035
 C47 C 0.20982 0.20761 -0.54147
 C48 C 0.23056 0.22545 -0.54147
 H49 H 0.31777 0.31173 -0.50191
 H50 H 0.25919 0.27263 -0.57408
 H51 H 0.26854 0.25376 -0.42772
 H52 H 0.23083 0.24716 -0.42751
 H53 H 0.18164 0.18851 -0.50044
 H54 H 0.24017 0.22741 -0.57356
 C55 C -0.19961 0.80340 -0.50449
 C56 C -0.21192 0.79842 -0.54548
 C57 C -0.23232 0.77978 -0.54519
 C58 C -0.24006 0.76448 -0.50420
 C59 C -0.22701 0.76930 -0.46332
 C60 C -0.20726 0.78923 -0.46337
 C61 C -0.26153 0.74369 -0.50419
 C62 C -0.27452 0.73852 -0.46317
 C63 C -0.29430 0.71867 -0.46321
 C64 C -0.30206 0.70493 -0.50441
 C65 C -0.28982 0.71025 -0.54548
 C66 C -0.26940 0.72880 -0.54527
 H67 H -0.18402 0.81830 -0.50451
 H68 H -0.24203 0.77755 -0.57707
 H69 H -0.23186 0.75757 -0.43130
 H70 H -0.26959 0.74992 -0.43106
 H71 H -0.31767 0.69011 -0.50452
 H72 H -0.25981 0.73127 -0.57733
 N73 N 0.02440 1.03414 0.08290
 N74 N 0.04136 1.03856 0.11302
 N75 N -0.02455 1.05696 0.05025
 N76 N -0.04060 1.07902 0.05920
 N77 N -0.02472 1.03433 0.08207
 N78 N -0.04088 1.04036 0.11352
 N79 N 0.02464 1.05684 0.05116
 N80 N 0.04181 1.07740 0.05887
 C81 C 0.05208 1.06546 0.09739
 C82 C -0.05079 1.06801 0.09837
 N83 N -0.02374 1.03473 -0.08148
 N84 N -0.04075 1.03929 -0.11149
 N85 N 0.02512 1.05743 -0.04859
 N86 N 0.04110 1.07960 -0.05730
 N87 N 0.02537 1.03505 -0.08066
 N88 N 0.04151 1.04136 -0.11204
 N89 N -0.02406 1.05718 -0.04950
 N90 N -0.04135 1.07771 -0.05691
 Mn91 Mn 0.00029 1.05747 0.00083
 C92 C -0.05159 1.06601 -0.09553
 C93 C 0.05132 1.06892 -0.09659
 N94 N -0.02471 0.96491 0.08144
 N95 N -0.04203 0.96020 0.11083
 N96 N 0.02465 0.94233 0.05065
 N97 N 0.04047 0.92009 0.06020
 N98 N 0.02440 0.96470 0.08274
 N99 N 0.04004 0.95831 0.11496
 N100 N -0.02453 0.94246 0.04945
 N101 N -0.04176 0.92179 0.05623
 Mn102 Mn -0.00016 0.99952 0.08273
 C103 C -0.05252 0.93340 0.09446
 C104 C 0.05009 0.93072 0.10001
 N105 N 0.02559 0.96563 -0.08083
 N106 N 0.04286 0.96112 -0.11040
 N107 N -0.02369 0.94268 -0.05030
 N108 N -0.03952 0.92056 -0.05999
 N109 N -0.02352 0.96531 -0.08212
 N110 N -0.03921 0.95922 -0.11430
 N111 N 0.02548 0.94292 -0.04910
 N112 N 0.04273 0.92227 -0.05626
 Mn113 Mn 0.00093 1.00018 -0.08171
 Mn114 Mn 0.00048 0.94223 0.00017
 Cl115 Cl 0.00039 0.99985 0.00051
 C116 C 0.05341 0.93418 -0.09442
 C117 C -0.04921 0.93153 -0.09961
 N118 N 0.52468 0.46560 -0.08338
 N119 N 0.54161 0.46101 -0.11367
 N120 N 0.47565 0.44301 -0.05067
 N121 N 0.45955 0.42109 -0.05948
 N122 N 0.47556 0.46563 -0.08250
 N123 N 0.45939 0.45974 -0.11383
 N124 N 0.52484 0.44288 -0.05167
 N125 N 0.54194 0.42214 -0.05956
 C126 C 0.55225 0.43400 -0.09816
 C127 C 0.44941 0.43217 -0.09859
 N128 N 0.47619 0.46517 0.08107
 N129 N 0.45920 0.46056 0.11123
 N130 N 0.52512 0.44228 0.04808
 N131 N 0.54111 0.42008 0.05667
 N132 N 0.52530 0.46464 0.08018
 N133 N 0.54142 0.45828 0.11148
 N134 N 0.47593 0.44272 0.04908
 N135 N 0.45870 0.42216 0.05664
 Mn136 Mn 0.50038 0.44235 -0.00130
 C137 C 0.44843 0.43384 0.09536
 C138 C 0.55127 0.43071 0.09593
 N139 N 0.47560 0.53506 -0.08186
 N140 N 0.45839 0.53992 -0.11133
 N141 N 0.52490 0.55736 -0.05098
 N142 N 0.54099 0.57929 -0.06011
 N143 N 0.52471 0.53503 -0.08311
 N144 N 0.54066 0.54113 -0.11497
 N145 N 0.47572 0.55750 -0.04985
 N146 N 0.45855 0.57830 -0.05671
 Mn147 Mn 0.50013 0.50033 -0.08316
 C148 C 0.44790 0.56679 -0.09500
 C149 C 0.55080 0.56853 -0.09975
 N150 N 0.52555 0.53406 0.08045
 N151 N 0.54267 0.53859 0.11017
 N152 N 0.47634 0.55722 0.04990
 N153 N 0.46052 0.57943 0.05961
 N154 N 0.47644 0.53459 0.08172
 N155 N 0.46069 0.54077 0.11393
 N156 N 0.52551 0.55679 0.04875
 N157 N 0.54266 0.57747 0.05609
 Mn158 Mn 0.50087 0.49961 0.08129
 Mn159 Mn 0.50062 0.55758 -0.00055
 Cl160 Cl 0.50050 0.49997 -0.00093
 C161 C 0.55322 0.56555 0.09431
 C162 C 0.45075 0.56851 0.09924
 C163 C 0.29899 0.30487 0.41474
 C164 C 0.30803 0.31488 0.37987
 C165 C 0.32009 0.32657 0.33950
 C166 C 0.31392 0.35612 0.31951
 C167 C 0.32717 0.36874 0.28304
 C168 C 0.34684 0.35197 0.26622
 C169 C 0.35247 0.32186 0.28573
 C170 C 0.33920 0.30930 0.32212
 C171 C 0.36237 0.36666 0.23073
 C172 C 0.37291 0.34756 0.19627
 C173 C 0.38921 0.36098 0.16567
 C174 C 0.39510 0.39362 0.16902
 C175 C 0.38422 0.41298 0.20229
 C176 C 0.36796 0.39965 0.23290
 C177 C 0.41341 0.40697 0.14069
 C178 C 0.42920 0.41882 0.11889
 H179 H 0.29919 0.36973 0.33277
 H180 H 0.32223 0.39180 0.26839
 H181 H 0.36769 0.30857 0.27414
 H182 H 0.34424 0.28652 0.33757
 H183 H 0.36878 0.32218 0.19336
 H184 H 0.39756 0.34575 0.14009
 H185 H 0.38878 0.43823 0.20541
 H186 H 0.36047 0.41490 0.25943
 C187 C -0.20342 0.81086 0.41424
 C188 C -0.19490 0.82153 0.37928
 C189 C -0.18346 0.83396 0.33867
 C190 C -0.17727 0.86655 0.33641
 C191 C -0.16383 0.87799 0.29948
 C192 C -0.15632 0.85692 0.26434
 C193 C -0.16327 0.82440 0.26617
 C194 C -0.17672 0.81302 0.30316
 C195 C -0.14002 0.86842 0.22786
 C196 C -0.12080 0.84934 0.21450
 C197 C -0.10411 0.86135 0.18363
 C198 C -0.10642 0.89250 0.16558
 C199 C -0.12586 0.91129 0.17748
 C200 C -0.14258 0.89933 0.20836
 C201 C -0.08790 0.90617 0.13816
 C202 C -0.07194 0.91822 0.11712
 H203 H -0.18219 0.88290 0.36394
 H204 H -0.15850 0.90302 0.29947
 H205 H -0.15798 0.80769 0.23939
 H206 H -0.18134 0.78771 0.30466
 H207 H -0.11813 0.82566 0.22938
 H208 H -0.08902 0.84672 0.17500
 H209 H -0.12777 0.93549 0.16384
 H210 H -0.15731 0.91444 0.21757
 C211 C 0.70103 0.69754 0.41197
 C212 C 0.69222 0.68720 0.37721
 C213 C 0.68041 0.67511 0.33695
 C214 C 0.68665 0.64530 0.31795
 C215 C 0.67360 0.63230 0.28164
 C216 C 0.65408 0.64894 0.26400
 C217 C 0.64840 0.67932 0.28251
 C218 C 0.66147 0.69225 0.31873
 C219 C 0.63873 0.63388 0.22873
 C220 C 0.62844 0.65259 0.19354
 C221 C 0.61229 0.63888 0.16313
 C222 C 0.60629 0.60631 0.16741
 C223 C 0.61693 0.58731 0.20142
 C224 C 0.63304 0.60095 0.23184
 C225 C 0.58810 0.59271 0.13927
 C226 C 0.57238 0.58070 0.11763
 H227 H 0.70125 0.63179 0.33186
 H228 H 0.67858 0.60905 0.26777
 H229 H 0.63329 0.69252 0.27027
 H230 H 0.65637 0.71524 0.33342
 H231 H 0.63266 0.67791 0.18991
 H232 H 0.60413 0.65382 0.13698
 H233 H 0.61228 0.56213 0.20526
 H234 H 0.64034 0.58600 0.25894
 C235 C 0.20047 1.19500 0.41610
 C236 C 0.19154 1.18481 0.38137
 C237 C 0.17963 1.17294 0.34111
 C238 C 0.18576 1.14320 0.32180
 C239 C 0.17265 1.13046 0.28539
 C240 C 0.15317 1.14731 0.26798
 C241 C 0.14759 1.17761 0.28682
 C242 C 0.16072 1.19029 0.32314
 C243 C 0.13777 1.13253 0.23258
 C244 C 0.12756 1.15149 0.19758
 C245 C 0.11135 1.13804 0.16705
 C246 C 0.10522 1.10550 0.17101
 C247 C 0.11579 1.08626 0.20483
 C248 C 0.13196 1.09963 0.23537
 C249 C 0.08699 1.09217 0.14274
 C250 C 0.07125 1.08037 0.12095
 H251 H 0.20034 1.12954 0.33552
 H252 H 0.17755 1.10725 0.27126
 H253 H 0.13251 1.19097 0.27475
 H254 H 0.15571 1.21323 0.33807
 H255 H 0.13188 1.17679 0.19420
 H256 H 0.10324 1.15317 0.14104
 H257 H 0.11104 1.06110 0.20842
 H258 H 0.13920 1.08450 0.26232
 C259 C 0.70072 0.30304 -0.41779
 C260 C 0.69175 0.31331 -0.38303
 C261 C 0.67976 0.32529 -0.34278
 C262 C 0.68587 0.35505 -0.32357
 C263 C 0.67269 0.36791 -0.28719
 C264 C 0.65317 0.35119 -0.26969
 C265 C 0.64761 0.32087 -0.28843
 C266 C 0.66080 0.30807 -0.32472
 C267 C 0.63773 0.36608 -0.23426
 C268 C 0.62745 0.34722 -0.19918
 C269 C 0.61126 0.36081 -0.16853
 C270 C 0.60520 0.39340 -0.17246
 C271 C 0.61582 0.41253 -0.20638
 C272 C 0.63197 0.39902 -0.23704
 C273 C 0.58703 0.40691 -0.14396
 C274 C 0.57135 0.41887 -0.12197
 H275 H 0.70048 0.36862 -0.33735
 H276 H 0.67758 0.39112 -0.27315
 H277 H 0.63250 0.30761 -0.27629
 H278 H 0.65581 0.28513 -0.33957
 H279 H 0.63171 0.32188 -0.19580
 H280 H 0.60312 0.34575 -0.14244
 H281 H 0.61114 0.43774 -0.20995
 H282 H 0.63926 0.41409 -0.26404
 C283 C 0.20170 0.80335 -0.41315
 C284 C 0.19293 0.81356 -0.37818
 C285 C 0.18116 0.82546 -0.33765
 C286 C 0.16219 0.80833 -0.31950
 C287 C 0.14915 0.82112 -0.28298
 C288 C 0.15489 0.85132 -0.26411
 C289 C 0.17445 0.86793 -0.28167
 C290 C 0.18747 0.85509 -0.31828
 C291 C 0.13954 0.86628 -0.22861
 C292 C 0.13388 0.89925 -0.23137
 C293 C 0.11768 0.91280 -0.20085
 C294 C 0.10693 0.89366 -0.16710
 C295 C 0.11292 0.86106 -0.16313
 C296 C 0.12916 0.84744 -0.19362
 C297 C 0.08859 0.90716 -0.13904
 C298 C 0.07273 0.91910 -0.11753
 H299 H 0.15705 0.78549 -0.33447
 H300 H 0.13401 0.80795 -0.27081
 H301 H 0.17947 0.89106 -0.26753
 H302 H 0.20210 0.86859 -0.33214
 H303 H 0.14125 0.91431 -0.25830
 H304 H 0.11304 0.93802 -0.20446
 H305 H 0.10466 0.84601 -0.13718
 H306 H 0.13335 0.82208 -0.19028
 C307 C 0.29701 0.69070 -0.41355
 C308 C 0.30559 0.67999 -0.37870
 C309 C 0.31712 0.66748 -0.33829
 C310 C 0.32417 0.68842 -0.30309
 C311 C 0.33770 0.67690 -0.26637
 C312 C 0.34441 0.64427 -0.26449
 C313 C 0.33661 0.62324 -0.29932
 C314 C 0.32309 0.63480 -0.33598
 C315 C 0.36075 0.63258 -0.22827
 C316 C 0.35802 0.60178 -0.20852
 C317 C 0.37470 0.58965 -0.17778
 C318 C 0.39428 0.60816 -0.16627
 C319 C 0.39678 0.63920 -0.18462
 C320 C 0.38013 0.65137 -0.21534
 C321 C 0.41271 0.59432 -0.13884
 C322 C 0.42859 0.58213 -0.11775
 H323 H 0.31972 0.71380 -0.30464
 H324 H 0.34321 0.69361 -0.23983
 H325 H 0.34175 0.59811 -0.29928
 H326 H 0.31793 0.61845 -0.36328
 H327 H 0.34317 0.58688 -0.21739
 H328 H 0.37263 0.56554 -0.16391
 H329 H 0.41197 0.65361 -0.17629
 H330 H 0.38293 0.67496 -0.23043
 C331 C -0.20078 1.19422 -0.41460
 C332 C -0.19182 1.18427 -0.37970
 C333 C -0.17985 1.17268 -0.33925
 C334 C -0.16079 1.18995 -0.32199
 C335 C -0.14760 1.17748 -0.28550
 C336 C -0.15329 1.14746 -0.26576
 C337 C -0.17292 1.13070 -0.28245
 C338 C -0.18608 1.14323 -0.31903
 C339 C -0.13782 1.13283 -0.23022
 C340 C -0.13220 1.09983 -0.23225
 C341 C -0.11594 1.08656 -0.20168
 C342 C -0.10509 1.10600 -0.16861
 C343 C -0.11104 1.13865 -0.16536
 C344 C -0.12734 1.15200 -0.19592
 C345 C -0.08673 1.09273 -0.14046
 C346 C -0.07088 1.08095 -0.11883
 H347 H -0.15570 1.21265 -0.33762
 H348 H -0.13241 1.19074 -0.27401
 H349 H -0.17789 1.10772 -0.26763
 H350 H -0.20078 1.12963 -0.33219
 H351 H -0.13965 1.08452 -0.25866
 H352 H -0.11133 1.06130 -0.20472
 H353 H -0.10271 1.15394 -0.13993
 H354 H -0.13151 1.17740 -0.19313
 C355 C 0.69346 0.71146 -0.42092
 C356 C 0.68287 0.70391 -0.38650
 C357 C 0.66984 0.69325 -0.34672
 C358 C 0.64603 0.70049 -0.34301
 C359 C 0.63273 0.68729 -0.30709
 C360 C 0.64308 0.66654 -0.27445
 C361 C 0.66719 0.66016 -0.27772
 C362 C 0.68046 0.67340 -0.31367
 C363 C 0.62850 0.65021 -0.23892
 C364 C 0.63204 0.61737 -0.22871
 C365 C 0.61720 0.60126 -0.19797
 C366 C 0.59868 0.61774 -0.17691
 C367 C 0.59534 0.65058 -0.18598
 C368 C 0.61015 0.66674 -0.21675
 C369 C 0.58232 0.60052 -0.14824
 C370 C 0.56818 0.58593 -0.12545
 H371 H 0.63758 0.71556 -0.36866
 H372 H 0.61416 0.69231 -0.30594
 H373 H 0.67572 0.64459 -0.25282
 H374 H 0.69887 0.66753 -0.31633
 H375 H 0.64577 0.60383 -0.24572
 H376 H 0.61985 0.57578 -0.19146
 H377 H 0.58103 0.66356 -0.16991
 H378 H 0.60714 0.69209 -0.22350
 C379 C 0.19390 1.21013 -0.41906
 C380 C 0.18331 1.20305 -0.38442
 C381 C 0.17025 1.19289 -0.34440
 C382 C 0.14631 1.19953 -0.34142
 C383 C 0.13302 1.18668 -0.30523
 C384 C 0.14350 1.16686 -0.27157
 C385 C 0.16771 1.16109 -0.27412
 C386 C 0.18098 1.17400 -0.31035
 C387 C 0.12895 1.15077 -0.23573
 C388 C 0.13293 1.11824 -0.22415
 C389 C 0.11813 1.10225 -0.19321
 C390 C 0.09920 1.11852 -0.17332
 C391 C 0.09541 1.15109 -0.18371
 C392 C 0.11019 1.16713 -0.21467
 C393 C 0.08284 1.10128 -0.14463
 C394 C 0.06870 1.08658 -0.12196
 H395 H 0.13778 1.21385 -0.36784
 H396 H 0.11438 1.19120 -0.30466
 H397 H 0.17633 1.14626 -0.24845
 H398 H 0.19948 1.16858 -0.31243
 H399 H 0.14699 1.10481 -0.24026
 H400 H 0.12112 1.07698 -0.18569
 H401 H 0.08077 1.16391 -0.16857
 H402 H 0.10682 1.19225 -0.22248
 C403 C 0.30613 0.29098 -0.41807
 C404 C 0.31675 0.29830 -0.38372
 C405 C 0.32983 0.30869 -0.34403
 C406 C 0.35366 0.30145 -0.34073
 C407 C 0.36701 0.31444 -0.30490
 C408 C 0.35669 0.33498 -0.27196
 C409 C 0.33258 0.34136 -0.27482
 C410 C 0.31926 0.32833 -0.31068
 C411 C 0.37133 0.35112 -0.23655
 C412 C 0.36780 0.38391 -0.22608
 C413 C 0.38269 0.39986 -0.19550
 C414 C 0.40127 0.38330 -0.17488
 C415 C 0.40461 0.35050 -0.18418
 C416 C 0.38974 0.33449 -0.21478
 C417 C 0.41772 0.40039 -0.14646
 C418 C 0.43194 0.41488 -0.12393
 H419 H 0.36207 0.28655 -0.36662
 H420 H 0.38558 0.30943 -0.30407
 H421 H 0.32408 0.35677 -0.24968
 H422 H 0.30084 0.33420 -0.31302
 H423 H 0.35402 0.39752 -0.24276
 H424 H 0.38005 0.42531 -0.18880
 H425 H 0.41896 0.33746 -0.16846
 H426 H 0.39275 0.30918 -0.22175
 C427 C -0.19496 0.79613 -0.42117
 C428 C -0.18432 0.80346 -0.38684
 C429 C -0.17120 0.81390 -0.34720
 C430 C -0.17641 0.84355 -0.32658
 C431 C -0.16235 0.85545 -0.29106
 C432 C -0.14279 0.83786 -0.27573
 C433 C -0.13808 0.80762 -0.29579
 C434 C -0.15218 0.79577 -0.33136
 C435 C -0.12667 0.85191 -0.24097
 C436 C -0.10233 0.84891 -0.24655
 C437 C -0.08705 0.86401 -0.21584
 C438 C -0.09584 0.88230 -0.17909
 C439 C -0.12002 0.88493 -0.17263
 C440 C -0.13535 0.86982 -0.20334
 C441 C -0.07995 0.89942 -0.14947
 C442 C -0.06618 0.91401 -0.12599
 H443 H -0.19097 0.85792 -0.33884
 H444 H -0.16627 0.87899 -0.27686
 H445 H -0.12333 0.79333 -0.28436
 H446 H -0.14794 0.77283 -0.34717
 H447 H -0.09507 0.83576 -0.27553
 H448 H -0.06837 0.86196 -0.22133
 H449 H -0.12701 0.89903 -0.14429
 H450 H -0.15399 0.87230 -0.19781
 C451 C 0.30549 0.70533 0.42180
 C452 C 0.31610 0.69794 0.38735
 C453 C 0.32914 0.68742 0.34754
 C454 C 0.32382 0.65784 0.32694
 C455 C 0.33782 0.64583 0.29125
 C456 C 0.35742 0.66325 0.27573
 C457 C 0.36223 0.69343 0.29577
 C458 C 0.34820 0.70539 0.33151
 C459 C 0.37349 0.64903 0.24086
 C460 C 0.39784 0.65175 0.24630
 C461 C 0.41307 0.63645 0.21552
 C462 C 0.40422 0.61825 0.17885
 C463 C 0.38004 0.61590 0.17252
 C464 C 0.36475 0.63122 0.20329
 C465 C 0.42005 0.60092 0.14919
 C466 C 0.43379 0.58617 0.12567
 H467 H 0.30922 0.64360 0.33936
 H468 H 0.33382 0.62234 0.27707
 H469 H 0.37702 0.70758 0.28419
 H470 H 0.35252 0.72828 0.34731
 H471 H 0.40514 0.66482 0.27523
 H472 H 0.43175 0.63827 0.22089
 H473 H 0.37300 0.60188 0.14423
 H474 H 0.34611 0.62896 0.19789
 C475 C -0.19409 1.20853 0.42035
 C476 C -0.18343 1.20136 0.38585
 C477 C -0.17030 1.19112 0.34599
 C478 C -0.18089 1.17195 0.31224
 C479 C -0.16754 1.15904 0.27616
 C480 C -0.14338 1.16509 0.27345
 C481 C -0.13304 1.18516 0.30682
 C482 C -0.14642 1.19802 0.34287
 C483 C -0.12873 1.14907 0.23774
 C484 C -0.11015 1.16562 0.21637
 C485 C -0.09530 1.14969 0.18545
 C486 C -0.09883 1.11705 0.17541
 C487 C -0.11758 1.10059 0.19563
 C488 C -0.13246 1.11646 0.22653
 C489 C -0.08241 1.09997 0.14667
 C490 C -0.06822 1.08544 0.12391
 H491 H -0.19935 1.16633 0.31443
 H492 H -0.17606 1.14400 0.25071
 H493 H -0.11444 1.18991 0.30613
 H494 H -0.13799 1.21256 0.36906
 H495 H -0.10699 1.19080 0.22389
 H496 H -0.08081 1.16266 0.17005
 H497 H -0.12037 1.07526 0.18838
 H498 H -0.14637 1.10290 0.24289
 C499 C 0.69335 0.28869 0.41744
 C500 C 0.68280 0.29581 0.38286
 C501 C 0.66981 0.30601 0.34288
 C502 C 0.68062 0.32478 0.30875
 C503 C 0.66743 0.33774 0.27254
 C504 C 0.64321 0.33216 0.27011
 C505 C 0.63265 0.31246 0.30384
 C506 C 0.64587 0.29954 0.34001
 C507 C 0.62874 0.34836 0.23435
 C508 C 0.60998 0.33212 0.21336
 C509 C 0.59525 0.34829 0.18252
 C510 C 0.59909 0.38084 0.17219
 C511 C 0.61803 0.39698 0.19200
 C512 C 0.63279 0.38087 0.22281
 C513 C 0.58276 0.39821 0.14368
 C514 C 0.56864 0.41299 0.12116
 H515 H 0.69913 0.33006 0.31075
 H516 H 0.67611 0.35250 0.24681
 H517 H 0.61400 0.30808 0.30335
 H518 H 0.63728 0.28532 0.36649
 H519 H 0.60657 0.30702 0.22115
 H520 H 0.58060 0.33558 0.16744
 H521 H 0.62105 0.42224 0.18452
 H522 H 0.64684 0.39419 0.23888
 C523 C 0.19416 0.79080 0.42179
 C524 C 0.18370 0.79863 0.38740
 C525 C 0.17081 0.80964 0.34771
 C526 C 0.15193 0.79175 0.33095
 C527 C 0.13803 0.80412 0.29534
 C528 C 0.14281 0.83464 0.27614
 C529 C 0.16223 0.85201 0.29240
 C530 C 0.17609 0.83959 0.32796
 C531 C 0.12688 0.84920 0.24134
 C532 C 0.13576 0.86766 0.20438
 C533 C 0.12059 0.88320 0.17366
 C534 C 0.09638 0.88046 0.17945
 C535 C 0.08740 0.86165 0.21552
 C536 C 0.10251 0.84611 0.24624
 C537 C 0.08064 0.89799 0.14984
 C538 C 0.06697 0.91288 0.12637
 H539 H 0.14764 0.76858 0.34609
 H540 H 0.12339 0.78999 0.28319
 H541 H 0.16618 0.87574 0.27888
 H542 H 0.19054 0.85377 0.34094
 H543 H 0.15442 0.87022 0.19939
 H544 H 0.12773 0.89771 0.14585
 H545 H 0.06869 0.85951 0.22048
 H546 H 0.09509 0.83254 0.27470
   
