data_POSCAR
  _audit_creation_date              2014-09-24
  _audit_creation_method            'ToBaCCo'
  _symmetry_space_group_name_H-M    'P1'
  _symmetry_Int_Tables_number       1
  _symmetry_cell_setting            triclinic
  loop_
  _symmetry_equiv_pos_as_xyz
 x,y,z
_cell_length_a 12.3487
_cell_length_b 12.1092
_cell_length_c 11.7563
_cell_angle_alpha 89.694100
_cell_angle_beta 89.906900
_cell_angle_gamma 90.397900
loop_
  _atom_site_label
  _atom_site_type_symbol
  _atom_site_fract_x
  _atom_site_fract_y
  _atom_site_fract_z
Si1 Si 1.24626 0.25162 0.24923
 Si2 Si 0.74490 -0.24405 0.24847
 Si3 Si 0.73767 0.24553 -0.24697
 Si4 Si 1.24932 -0.25287 -0.24801
 Si5 Si 0.25360 0.25130 0.74831
 Si6 Si 0.75576 0.75714 0.75205
 Si7 Si 0.75406 0.24744 0.24740
 Si8 Si 0.25390 0.74564 0.25337
 O9 O 1.21568 0.12416 0.07380
 O10 O 0.78445 -0.10472 0.06964
 O11 O 0.87703 0.20959 0.06816
 O12 O 1.11723 -0.21572 0.09561
 O13 O 0.84479 0.06152 0.14418
 O14 O 1.20427 -0.06925 0.14672
 O15 O 0.92776 -0.17619 0.14649
 O16 O 1.06630 0.19901 0.12392
 C17 C 1.16405 0.17976 0.14225
 C18 C 0.82726 -0.16201 0.14796
 C19 C 0.83800 0.16264 0.14989
 C20 C 1.18033 -0.16878 0.16212
 O21 O 1.21666 -0.13363 -0.06549
 O22 O 0.75681 0.09822 -0.06661
 O23 O 1.10926 0.20141 -0.09811
 O24 O 0.87843 -0.20769 -0.06874
 O25 O 0.85161 -0.05531 -0.14867
 O26 O 1.20999 0.06053 -0.13600
 O27 O 1.06784 -0.20351 -0.12576
 O28 O 0.91319 0.15862 -0.14232
 Co29 Co 1.19328 -0.00496 0.00511
 Co30 Co 0.85800 0.00822 -0.00400
 Co31 Co 0.99473 0.16969 -0.01029
 Co32 Co 0.99947 -0.18308 0.01174
 O33 O 1.01655 -0.00845 0.00545
 C34 C 1.16627 -0.18337 -0.14061
 C35 C 0.80923 0.15810 -0.14321
 C36 C 1.18048 0.15749 -0.15610
 C37 C 0.84208 -0.15776 -0.15115
 O38 O 1.20652 0.62650 0.57189
 O39 O 0.78682 0.37697 0.57899
 O40 O 0.87750 0.71378 0.57396
 O41 O 1.11693 0.28902 0.58195
 O42 O 0.81337 0.56507 0.64288
 O43 O 1.18389 0.43984 0.64242
 O44 O 0.93155 0.31119 0.64695
 O45 O 1.06131 0.69027 0.63910
 C46 C 1.16024 0.67431 0.64993
 C47 C 0.83173 0.32448 0.65571
 C48 C 0.82814 0.66649 0.65148
 C49 C 1.17110 0.33845 0.65388
 O50 O 1.20485 0.37455 0.42727
 O51 O 0.78880 0.62540 0.42371
 O52 O 1.12067 0.71220 0.41781
 O53 O 0.87352 0.28843 0.42743
 O54 O 0.81150 0.43768 0.35968
 O55 O 1.18409 0.56151 0.35591
 O56 O 1.05853 0.30897 0.36192
 O57 O 0.93528 0.68832 0.35462
 Co58 Co 1.17439 0.50068 0.49943
 Co59 Co 0.82107 0.50121 0.50126
 Co60 Co 0.99866 0.68028 0.49684
 Co61 Co 0.99545 0.32007 0.50411
 O62 O 0.99740 0.50053 0.50042
 C63 C 1.15782 0.32461 0.35090
 C64 C 0.83517 0.67643 0.34647
 C65 C 1.17382 0.66316 0.34477
 C66 C 0.82591 0.33657 0.34983
 O67 O 0.70196 0.12877 0.57072
 O68 O 0.28982 -0.12687 0.57558
 O69 O 0.37320 0.21097 0.56840
 O70 O 0.61998 -0.20917 0.58297
 O71 O 0.31204 0.06160 0.63849
 O72 O 0.68356 -0.05686 0.64302
 O73 O 0.43574 -0.18721 0.64519
 O74 O 0.55517 0.19176 0.63499
 C75 C 0.65333 0.17559 0.64789
 C76 C 0.33644 -0.17415 0.65404
 C77 C 0.32615 0.16312 0.64693
 C78 C 0.67305 -0.15819 0.65508
 O79 O 0.70546 -0.12452 0.42795
 O80 O 0.28746 0.11884 0.41942
 O81 O 0.61746 0.21071 0.41468
 O82 O 0.37691 -0.21692 0.42573
 O83 O 0.31344 -0.06876 0.35693
 O84 O 0.68394 0.06017 0.35553
 O85 O 0.56014 -0.19127 0.36199
 O86 O 0.43357 0.18385 0.35104
 Co87 Co 0.67398 0.00161 0.49918
 Co88 Co 0.32119 -0.00345 0.49773
 Co89 Co 0.49531 0.17884 0.49281
 Co90 Co 0.49810 -0.18049 0.50339
 O91 O 0.49712 -0.00088 0.49813
 C92 C 0.65859 -0.17335 0.35074
 C93 C 0.33394 0.17048 0.34316
 C94 C 0.67157 0.16101 0.34304
 C95 C 0.32714 -0.17023 0.34833
 O96 O 0.70727 0.62591 0.07682
 O97 O 0.29051 0.37842 0.07760
 O98 O 0.37779 0.71427 0.08006
 O99 O 0.61951 0.28831 0.07844
 O100 O 0.31590 0.56330 0.14593
 O101 O 0.68695 0.43749 0.14158
 O102 O 0.43559 0.31535 0.14651
 O103 O 0.56084 0.69201 0.14147
 C104 C 0.65966 0.67735 0.15165
 C105 C 0.33635 0.32988 0.15535
 C106 C 0.32835 0.66477 0.15681
 C107 C 0.67430 0.33597 0.15101
 O108 O 0.70417 0.37805 -0.07683
 O109 O 0.29280 0.62638 -0.07099
 O110 O 0.62186 0.71605 -0.07649
 O111 O 0.37437 0.29042 -0.07246
 O112 O 0.31470 0.44066 -0.13974
 O113 O 0.68625 0.56682 -0.14112
 O114 O 0.55604 0.31185 -0.13832
 O115 O 0.43759 0.68922 -0.14173
 Co116 Co 0.67606 0.50202 0.00032
 Co117 Co 0.32347 0.50219 0.00297
 Co118 Co 0.49921 0.68192 0.00057
 Co119 Co 0.49656 0.32243 0.00383
 O120 O 0.49902 0.50217 0.00207
 C121 C 0.65480 0.32636 -0.15058
 C122 C 0.33866 0.67257 -0.15083
 C123 C 0.67523 0.66848 -0.15012
 C124 C 0.32746 0.33934 -0.15003
   
