data_POSCAR
  _audit_creation_date              2014-09-24
  _audit_creation_method            'ToBaCCo'
  _symmetry_space_group_name_H-M    'P1'
  _symmetry_Int_Tables_number       1
  _symmetry_cell_setting            triclinic
  loop_
  _symmetry_equiv_pos_as_xyz
 x,y,z
_cell_length_a 57.5964
_cell_length_b 57.6393
_cell_length_c 15.5632
_cell_angle_alpha 90.078800
_cell_angle_beta 90.005400
_cell_angle_gamma 119.884500
loop_
  _atom_site_label
  _atom_site_type_symbol
  _atom_site_fract_x
  _atom_site_fract_y
  _atom_site_fract_z
C1 C 0.22630 0.49560 0.45645
 C2 C 0.22636 0.49546 0.54728
 C3 C 0.24754 0.49547 0.59180
 C4 C 0.26865 0.49553 0.54687
 C5 C 0.26854 0.49562 0.45623
 C6 C 0.24744 0.49569 0.41167
 H7 H 0.24750 0.49575 0.34192
 H8 H 0.24756 0.49536 0.66159
 C9 C 0.50147 -0.27009 0.45448
 C10 C 0.50161 -0.26982 0.54516
 C11 C 0.50132 -0.24881 0.58967
 C12 C 0.50098 -0.22795 0.54468
 C13 C 0.50084 -0.22823 0.45405
 C14 C 0.50104 -0.24927 0.40951
 H15 H 0.50099 -0.24932 0.33977
 H16 H 0.50147 -0.24869 0.65941
 C17 C 1.27108 0.77251 0.45099
 C18 C 1.27103 0.77234 0.54164
 C19 C 1.24984 0.75138 0.58622
 C20 C 1.22861 0.73056 0.54129
 C21 C 1.22864 0.73072 0.45075
 C22 C 1.24985 0.75163 0.40608
 H23 H 1.24974 0.75167 0.33634
 H24 H 1.24983 0.75135 0.65592
 C25 C 0.77077 0.49929 0.45874
 C26 C 0.77068 0.49900 0.54939
 C27 C 0.74950 0.49879 0.59442
 C28 C 0.72844 0.49896 0.54979
 C29 C 0.72856 0.49925 0.45914
 C30 C 0.74968 0.49936 0.41421
 H31 H 0.74978 0.49966 0.34451
 H32 H 0.74949 0.49868 0.66420
 C33 C 0.49885 0.27088 0.45960
 C34 C 0.49909 0.27100 0.55023
 C35 C 0.49890 0.24980 0.59494
 C36 C 0.49842 0.22846 0.55003
 C37 C 0.49822 0.22841 0.45935
 C38 C 0.49847 0.24962 0.41478
 H39 H 0.49825 0.24953 0.34507
 H40 H 0.49900 0.24986 0.66472
 C41 C 0.73069 0.22855 0.45563
 C42 C 0.73049 0.22869 0.54614
 C43 C 0.75127 0.24995 0.59124
 C44 C 0.77229 0.27110 0.54673
 C45 C 0.77246 0.27097 0.45608
 C46 C 0.75165 0.24972 0.41109
 H47 H 0.75182 0.24961 0.34139
 H48 H 0.75108 0.24994 0.66097
 O49 O 0.96326 0.44206 0.15834
 O50 O 0.93351 0.44755 0.07454
 C51 C 0.93921 0.43586 0.13524
 O52 O 1.03782 0.56145 0.14796
 O53 O 1.06732 0.55398 0.06995
 C54 C 1.06179 0.56725 0.12546
 O55 O 0.96295 0.52210 0.15593
 O56 O 0.93340 0.48639 0.07375
 C57 C 0.93895 0.50405 0.13346
 O58 O 1.03804 0.47707 0.14955
 O59 O 1.06747 0.51367 0.07062
 C60 C 1.06203 0.49511 0.12691
 Zr61 Zr 1.00053 0.47100 0.10605
 O62 O 1.00126 0.46812 0.24140
 O63 O 0.99967 0.43412 0.09165
 Zr64 Zr 1.00037 0.52961 0.10642
 O65 O 1.00308 0.53100 0.24220
 O66 O 0.99738 0.56477 0.10491
 O67 O 0.97666 0.48844 0.12350
 O68 O 1.02374 0.51197 0.12205
 O69 O 1.03764 0.47614 -0.15104
 O70 O 1.06724 0.51336 -0.07439
 C71 C 1.06164 0.49438 -0.12927
 O72 O 0.96266 0.52168 -0.15951
 O73 O 0.93326 0.48619 -0.07653
 C74 C 0.93871 0.50369 -0.13649
 O75 O 1.03767 0.56109 -0.15270
 O76 O 1.06730 0.55378 -0.07487
 C77 C 1.06172 0.56693 -0.13064
 O78 O 0.96276 0.44092 -0.15893
 O79 O 0.93330 0.44722 -0.07641
 C80 C 0.93878 0.43504 -0.13612
 Zr81 Zr 1.00023 0.47081 -0.10991
 O82 O 1.00308 0.47218 -0.24565
 O83 O 0.99762 0.43285 -0.10835
 Zr84 Zr 1.00019 0.52940 -0.11029
 O85 O 1.00300 0.53085 -0.24602
 O86 O 0.99714 0.56453 -0.10838
 Zr87 Zr 0.96022 0.48021 -0.00147
 Zr88 Zr 1.04040 0.52028 -0.00205
 O89 O 1.02349 0.51170 -0.12602
 O90 O 0.97627 0.48815 -0.12683
 O91 O 1.02445 0.47846 -0.00197
 O92 O 0.97691 0.52206 -0.00178
 O93 O 0.97685 0.45495 -0.00150
 O94 O 1.02426 0.54605 -0.00211
 H95 H 1.03584 0.51813 0.17249
 H96 H 0.96480 0.52965 -0.00176
 H97 H 1.03544 0.51759 -0.17679
 H98 H 0.96468 0.43531 -0.00111
 H99 H 1.01254 0.57833 0.07071
 H100 H 1.01275 0.57837 -0.07629
 H101 H 0.98830 0.51374 -0.26845
 H102 H 0.98814 0.47424 -0.26811
 H103 H 1.01147 0.43402 -0.06810
 H104 H 0.99924 0.42746 0.15061
 H105 H 1.00590 0.48582 0.26501
 H106 H 0.98838 0.51384 0.26429
 O107 O 0.55851 0.52171 0.16006
 O108 O 0.55303 0.48644 0.07646
 C109 C 0.56474 0.50385 0.13713
 O110 O 0.43898 0.47687 0.14979
 O111 O 0.44624 0.51365 0.07157
 C112 C 0.43306 0.49494 0.12718
 O113 O 0.47850 0.44147 0.15785
 O114 O 0.51423 0.44755 0.07579
 C115 C 0.49658 0.43551 0.13544
 O116 O 0.52326 0.56138 0.15098
 O117 O 0.48649 0.55403 0.07213
 C118 C 0.50509 0.56721 0.12837
 Zr119 Zr 0.52946 0.52999 0.10760
 O120 O 0.53243 0.53382 0.24287
 O121 O 0.56629 0.56591 0.09302
 Zr122 Zr 0.47090 0.47129 0.10833
 O123 O 0.46969 0.47281 0.24412
 O124 O 0.43579 0.43321 0.10709
 O125 O 0.51212 0.48877 0.12532
 O126 O 0.48846 0.51223 0.12372
 O127 O 0.52389 0.56148 -0.14977
 O128 O 0.48673 0.55398 -0.07290
 C129 C 0.50562 0.56724 -0.12796
 O130 O 0.47862 0.44123 -0.15734
 O131 O 0.51429 0.44744 -0.07448
 C132 C 0.49669 0.43531 -0.13432
 O133 O 0.43903 0.47679 -0.15061
 O134 O 0.44644 0.51390 -0.07348
 C135 C 0.43318 0.49504 -0.12884
 O136 O 0.55931 0.52189 -0.15742
 O137 O 0.55322 0.48637 -0.07446
 C138 C 0.56529 0.50388 -0.13438
 Zr139 Zr 0.52941 0.52955 -0.10836
 O140 O 0.52793 0.53089 -0.24411
 O141 O 0.56735 0.56483 -0.10683
 Zr142 Zr 0.47084 0.47103 -0.10833
 O143 O 0.46913 0.47211 -0.24406
 O144 O 0.43575 0.43294 -0.10596
 Zr145 Zr 0.52025 0.48040 0.00041
 Zr146 Zr 0.47995 0.52037 -0.00042
 O147 O 0.48846 0.51191 -0.12436
 O148 O 0.51212 0.48832 -0.12501
 O149 O 0.52178 0.54622 -0.00055
 O150 O 0.47839 0.45528 0.00024
 O151 O 0.54545 0.52221 0.00011
 O152 O 0.45425 0.47855 -0.00021
 H153 H 0.48231 0.51821 0.17416
 H154 H 0.47084 0.43563 0.00037
 H155 H 0.48250 0.51789 -0.17522
 H156 H 0.56511 0.52966 0.00046
 H157 H 0.42217 0.43472 0.07265
 H158 H 0.42184 0.43479 -0.07444
 H159 H 0.48624 0.47451 -0.26663
 H160 H 0.52564 0.51381 -0.26647
 H161 H 0.56617 0.57752 -0.06663
 H162 H 0.57301 0.57217 0.15196
 H163 H 0.51491 0.52043 0.26653
 H164 H 0.48682 0.47508 0.26618
 O165 O 0.44158 -0.03656 -0.16025
 O166 O 0.44722 -0.06627 -0.07702
 C167 C 0.43543 -0.06058 -0.13739
 O168 O 0.56100 0.03781 -0.15203
 O169 O 0.55371 0.06726 -0.07306
 C170 C 0.56684 0.06177 -0.12926
 O171 O 0.52165 -0.03706 -0.15957
 O172 O 0.48605 -0.06651 -0.07712
 C173 C 0.50362 -0.06104 -0.13702
 O174 O 0.47657 0.03812 -0.15076
 O175 O 0.51342 0.06741 -0.07221
 C176 C 0.49473 0.06204 -0.12805
 Zr177 Zr 0.47062 0.00066 -0.10787
 O178 O 0.46752 0.00165 -0.24303
 O179 O 0.43374 -0.00022 -0.09239
 Zr180 Zr 0.52929 0.00042 -0.10997
 O181 O 0.53037 0.00308 -0.24575
 O182 O 0.56448 -0.00255 -0.10910
 O183 O 0.48802 -0.02323 -0.12632
 O184 O 0.51158 0.02377 -0.12456
 O185 O 0.47685 0.03810 0.14960
 O186 O 0.51396 0.06761 0.07234
 C187 C 0.49515 0.06208 0.12782
 O188 O 0.52189 -0.03716 0.15571
 O189 O 0.48618 -0.06654 0.07308
 C190 C 0.50383 -0.06108 0.13272
 O191 O 0.56140 0.03782 0.14869
 O192 O 0.55394 0.06743 0.07139
 C193 C 0.56721 0.06184 0.12677
 O194 O 0.44111 -0.03700 0.15720
 O195 O 0.44719 -0.06648 0.07397
 C196 C 0.43513 -0.06099 0.13409
 Zr197 Zr 0.47098 0.00044 0.10817
 O198 O 0.47255 0.00325 0.24392
 O199 O 0.43309 -0.00196 0.10744
 Zr200 Zr 0.52959 0.00030 0.10676
 O201 O 0.53159 0.00314 0.24249
 O202 O 0.56471 -0.00281 0.10347
 Zr203 Zr 0.48006 -0.03962 -0.00139
 Zr204 Zr 0.52019 0.04039 -0.00028
 O205 O 0.51194 0.02358 0.12364
 O206 O 0.48834 -0.02354 0.12404
 O207 O 0.47838 0.02459 0.00048
 O208 O 0.52194 -0.02301 -0.00196
 O209 O 0.45482 -0.02296 -0.00030
 O210 O 0.54601 0.02430 -0.00140
 H211 H 0.51756 0.03581 -0.17504
 H212 H 0.52951 -0.03513 -0.00230
 H213 H 0.51801 0.03555 0.17444
 H214 H 0.43516 -0.03511 -0.00041
 H215 H 0.57818 0.01273 -0.07547
 H216 H 0.57854 0.01288 0.07184
 H217 H 0.51438 -0.01127 0.26524
 H218 H 0.47481 -0.01159 0.26599
 H219 H 0.43428 0.01198 0.06767
 H220 H 0.42693 -0.00065 -0.15116
 H221 H 0.48461 0.00448 -0.26700
 H222 H 0.51336 -0.01190 -0.26779
 C223 C 1.16515 0.49531 0.32772
 C224 C 1.16401 0.48922 0.23125
 C225 C 1.14307 0.48906 0.18979
 C226 C 1.12531 0.49502 0.24885
 C227 C 1.14453 0.52191 0.29161
 C228 C 1.16545 0.52206 0.33308
 C229 C 1.13763 0.47446 0.36273
 C230 C 1.11671 0.47430 0.32131
 C231 C 1.18763 0.49546 0.37276
 C232 C 1.20588 0.49554 0.41110
 C233 C 1.10273 0.49487 0.20444
 C234 C 1.08415 0.49488 0.16864
 H235 H 1.17840 0.48539 0.19840
 H236 H 1.13953 0.48509 0.12143
 H237 H 1.14193 0.53931 0.28948
 H238 H 1.18075 0.53958 0.36649
 H239 H 1.13483 0.46095 0.41531
 H240 H 1.09599 0.46068 0.33851
 C241 C 0.50308 0.66949 0.32735
 C242 C 0.50970 0.67453 0.23125
 C243 C 0.51031 0.65391 0.19032
 C244 C 0.50426 0.63025 0.24948
 C245 C 0.47706 0.62237 0.29035
 C246 C 0.47644 0.64298 0.33129
 C247 C 0.52395 0.66302 0.36413
 C248 C 0.52456 0.64241 0.32324
 C249 C 0.50243 0.69165 0.37181
 C250 C 0.50195 0.70970 0.40968
 C251 C 0.50487 0.60797 0.20559
 C252 C 0.50515 0.58949 0.17005
 H253 H 0.51352 0.69268 0.19825
 H254 H 0.51466 0.65440 0.12225
 H255 H 0.45980 0.60234 0.28749
 H256 H 0.45866 0.64059 0.36350
 H257 H 0.53709 0.67370 0.41760
 H258 H 0.53820 0.63541 0.34180
 C259 C 0.33239 -0.16564 0.32770
 C260 C 0.32869 -0.16422 0.23057
 C261 C 0.34967 -0.14285 0.19191
 C262 C 0.37231 -0.12496 0.25414
 C263 C 0.38010 -0.14387 0.29861
 C264 C 0.35912 -0.16524 0.33730
 C265 C 0.33779 -0.13850 0.36296
 C266 C 0.35876 -0.11713 0.32433
 C267 C 0.30982 -0.18856 0.36981
 C268 C 0.29149 -0.20705 0.40646
 C269 C 0.39486 -0.10193 0.21225
 C270 C 0.41330 -0.08313 0.17712
 H271 H 0.31116 -0.17874 0.19526
 H272 H 0.35008 -0.13907 0.12344
 H273 H 0.40031 -0.14075 0.29963
 H274 H 0.36137 -0.18041 0.37150
 H275 H 0.32613 -0.13627 0.41375
 H276 H 0.36508 -0.09661 0.34215
 C277 C 0.83417 0.50107 0.33078
 C278 C 0.86120 0.52468 0.35918
 C279 C 0.88265 0.52538 0.31966
 C280 C 0.87497 0.50241 0.25560
 C281 C 0.85524 0.50411 0.19312
 C282 C 0.83378 0.50340 0.23265
 C283 C 0.83656 0.47608 0.34716
 C284 C 0.85801 0.47678 0.30759
 C285 C 0.81115 0.50034 0.37371
 C286 C 0.79254 0.49981 0.41089
 C287 C 0.89804 0.50318 0.21282
 C288 C 0.91685 0.50370 0.17704
 H289 H 0.86330 0.53947 0.40650
 H290 H 0.90313 0.54078 0.33302
 H291 H 0.85791 0.50577 0.12390
 H292 H 0.81807 0.50443 0.19734
 H293 H 0.82270 0.45937 0.38666
 H294 H 0.86250 0.46065 0.31310
 C295 C 0.49817 0.33306 0.33220
 C296 C 0.47322 0.33515 0.35302
 C297 C 0.47290 0.35608 0.31364
 C298 C 0.49756 0.37287 0.25726
 C299 C 0.49856 0.35284 0.19438
 C300 C 0.49888 0.33190 0.23378
 C301 C 0.52197 0.36045 0.35662
 C302 C 0.52166 0.38139 0.31716
 C303 C 0.49850 0.31058 0.37499
 C304 C 0.49871 0.29233 0.41202
 C305 C 0.49719 0.39536 0.21459
 C306 C 0.49688 0.41374 0.17887
 H307 H 0.45725 0.32142 0.39516
 H308 H 0.45666 0.36032 0.32206
 H309 H 0.49895 0.35491 0.12499
 H310 H 0.49955 0.31603 0.19819
 H311 H 0.53764 0.36316 0.40117
 H312 H 0.53708 0.40204 0.32779
 C313 C 0.66953 0.16546 0.32574
 C314 C 0.66902 0.16941 0.22838
 C315 C 0.64843 0.14825 0.18740
 C316 C 0.63035 0.12521 0.24781
 C317 C 0.62118 0.13801 0.31664
 C318 C 0.64177 0.15915 0.35764
 C319 C 0.66991 0.13916 0.33593
 C320 C 0.64932 0.11800 0.29492
 C321 C 0.69163 0.18821 0.37011
 C322 C 0.70956 0.20673 0.40794
 C323 C 0.60810 0.10246 0.20387
 C324 C 0.58958 0.08384 0.16830
 H325 H 0.68358 0.18724 0.19460
 H326 H 0.64534 0.14795 0.11849
 H327 H 0.60034 0.13103 0.33201
 H328 H 0.63857 0.17025 0.40823
 H329 H 0.68498 0.13731 0.37237
 H330 H 0.64676 0.09802 0.29615
 C331 C 0.49675 0.16648 -0.32369
 C332 C 0.48871 0.16399 -0.22867
 C333 C 0.48806 0.14268 -0.18840
 C334 C 0.49549 0.12595 -0.24714
 C335 C 0.52311 0.14593 -0.28376
 C336 C 0.52376 0.16723 -0.32403
 C337 C 0.47688 0.13940 -0.36398
 C338 C 0.47622 0.11810 -0.32376
 C339 C 0.49744 0.18934 -0.36750
 C340 C 0.49794 0.20785 -0.40515
 C341 C 0.49484 0.10301 -0.20403
 C342 C 0.49457 0.08422 -0.16909
 H343 H 0.48395 0.17775 -0.19592
 H344 H 0.48277 0.13820 -0.12110
 H345 H 0.54061 0.14355 -0.27856
 H346 H 0.54181 0.18308 -0.35337
 H347 H 0.46439 0.13715 -0.41915
 H348 H 0.46319 0.09760 -0.34457
 C349 C 0.66751 0.50036 -0.32682
 C350 C 0.67399 0.51249 -0.23619
 C351 C 0.65314 0.51330 -0.19780
 C352 C 0.62785 0.50191 -0.25381
 C353 C 0.62164 0.47352 -0.27763
 C354 C 0.64249 0.47271 -0.31605
 C355 C 0.65780 0.51696 -0.37641
 C356 C 0.63697 0.51778 -0.33802
 C357 C 0.68993 0.49960 -0.36868
 C358 C 0.70816 0.49920 -0.40539
 C359 C 0.60545 0.50280 -0.21226
 C360 C 0.58709 0.50343 -0.17731
 H361 H 0.69325 0.51979 -0.20491
 H362 H 0.65456 0.52131 -0.13362
 H363 H 0.60252 0.45564 -0.26565
 H364 H 0.64124 0.45414 -0.33701
 H365 H 0.66651 0.52712 -0.43651
 H366 H 0.62783 0.52866 -0.36519
 C367 C 0.83395 0.33241 -0.32944
 C368 C 0.84567 0.32406 -0.25498
 C369 C 0.86710 0.34502 -0.21637
 C370 C 0.87474 0.37228 -0.25603
 C371 C 0.84904 0.37409 -0.25211
 C372 C 0.82759 0.35312 -0.29073
 C373 C 0.85759 0.34843 -0.39050
 C374 C 0.87903 0.36938 -0.35189
 C375 C 0.81102 0.30986 -0.37151
 C376 C 0.79259 0.29152 -0.40835
 C377 C 0.89780 0.39479 -0.21421
 C378 C 0.91663 0.41321 -0.17909
 H379 H 0.83778 0.30350 -0.23428
 H380 H 0.87759 0.34241 -0.16260
 H381 H 0.84782 0.39044 -0.22190
 H382 H 0.80800 0.35149 -0.29359
 H383 H 0.85744 0.34379 -0.45821
 H384 H 0.89726 0.38267 -0.38648
 C385 C 0.50162 -0.16586 -0.33188
 C386 C 0.52297 -0.13877 -0.36814
 C387 C 0.52337 -0.11736 -0.32933
 C388 C 0.50239 -0.12511 -0.25800
 C389 C 0.50769 -0.14271 -0.19622
 C390 C 0.50729 -0.16412 -0.23504
 C391 C 0.47514 -0.16568 -0.33998
 C392 C 0.47554 -0.14427 -0.30112
 C393 C 0.50125 -0.18884 -0.37416
 C394 C 0.50107 -0.20740 -0.41084
 C395 C 0.50289 -0.10203 -0.21587
 C396 C 0.50329 -0.08320 -0.18045
 H397 H 0.53660 -0.13659 -0.41971
 H398 H 0.53731 -0.09686 -0.34778
 H399 H 0.51141 -0.13872 -0.12791
 H400 H 0.51065 -0.17846 -0.20001
 H401 H 0.45763 -0.18102 -0.37336
 H402 H 0.45835 -0.14129 -0.30118
 C403 C 0.32973 0.49510 -0.32639
 C404 C 0.33723 0.47522 -0.36528
 C405 C 0.35810 0.47503 -0.32470
 C406 C 0.36946 0.49473 -0.24912
 C407 C 0.34537 0.48741 -0.19032
 C408 C 0.32449 0.48761 -0.23093
 C409 C 0.35575 0.52223 -0.32801
 C410 C 0.37662 0.52203 -0.28740
 C411 C 0.30729 0.49530 -0.37057
 C412 C 0.28904 0.49542 -0.40834
 C413 C 0.39202 0.49457 -0.20556
 C414 C 0.41070 0.49463 -0.17027
 H415 H 0.32703 0.46242 -0.41989
 H416 H 0.36578 0.46207 -0.34465
 H417 H 0.34479 0.48256 -0.12268
 H418 H 0.30604 0.48294 -0.19808
 H419 H 0.35761 0.54004 -0.35829
 H420 H 0.39635 0.53968 -0.28289
 C421 C 1.16559 0.66912 -0.32926
 C422 C 1.16678 0.64310 -0.32794
 C423 C 1.14561 0.62252 -0.28713
 C424 C 1.12529 0.62994 -0.25161
 C425 C 1.11721 0.64080 -0.32919
 C426 C 1.13839 0.66138 -0.36997
 C427 C 1.16291 0.67498 -0.23465
 C428 C 1.14173 0.65439 -0.19383
 C429 C 1.18835 0.69125 -0.37361
 C430 C 1.20683 0.70926 -0.41136
 C431 C 1.10246 0.60770 -0.20782
 C432 C 1.08379 0.58922 -0.17232
 H433 H 1.18283 0.64101 -0.35660
 H434 H 1.14355 0.60282 -0.28082
 H435 H 1.09668 0.63300 -0.35025
 H436 H 1.13597 0.67122 -0.42586
 H437 H 1.17645 0.69366 -0.20254
 H438 H 1.13716 0.65543 -0.12673
 C439 C 0.83310 0.50043 -0.32820
 C440 C 0.85349 0.50071 -0.39241
 C441 C 0.87516 0.50147 -0.35432
 C442 C 0.87431 0.50188 -0.25579
 C443 C 0.84759 0.47719 -0.23133
 C444 C 0.82591 0.47643 -0.26943
 C445 C 0.84921 0.52517 -0.27138
 C446 C 0.87087 0.52594 -0.23327
 C447 C 0.80992 0.49970 -0.36971
 C448 C 0.79126 0.49928 -0.40613
 C449 C 0.89758 0.50271 -0.21447
 C450 C 0.91652 0.50328 -0.17952
 H451 H 0.85109 0.50030 -0.46168
 H452 H 0.89134 0.50175 -0.39095
 H453 H 0.84585 0.46166 -0.18798
 H454 H 0.80560 0.46026 -0.25872
 H455 H 0.84406 0.54074 -0.26198
 H456 H 0.88430 0.54216 -0.19120
 C457 C 0.49883 0.33247 -0.32664
 C458 C 0.48697 0.34574 -0.38357
 C459 C 0.48655 0.36678 -0.34521
 C460 C 0.49804 0.37250 -0.25373
 C461 C 0.52628 0.37630 -0.26266
 C462 C 0.52669 0.35523 -0.30103
 C463 C 0.48230 0.32493 -0.24362
 C464 C 0.48189 0.34598 -0.20528
 C465 C 0.49915 0.30984 -0.36839
 C466 C 0.49921 0.29145 -0.40503
 C467 C 0.49752 0.39507 -0.21218
 C468 C 0.49708 0.41350 -0.17720
 H469 H 0.47966 0.33925 -0.44844
 H470 H 0.47887 0.37831 -0.37718
 H471 H 0.54437 0.39402 -0.24116
 H472 H 0.54511 0.35488 -0.31234
 H473 H 0.47187 0.30484 -0.21723
 H474 H 0.47107 0.34392 -0.14604
 C475 C 0.66898 0.16577 -0.32569
 C476 C 0.64366 0.16811 -0.31761
 C477 C 0.62304 0.14686 -0.27732
 C478 C 0.62977 0.12537 -0.24911
 C479 C 0.65498 0.14026 -0.19330
 C480 C 0.67561 0.16151 -0.23358
 C481 C 0.65976 0.13897 -0.37156
 C482 C 0.63915 0.11772 -0.33125
 C483 C 0.69113 0.18855 -0.36933
 C484 C 0.70918 0.20701 -0.40669
 C485 C 0.60754 0.10252 -0.20585
 C486 C 0.58908 0.08384 -0.17063
 H487 H 0.64205 0.18493 -0.34159
 H488 H 0.60375 0.14547 -0.26679
 H489 H 0.65650 0.13461 -0.12789
 H490 H 0.69480 0.17408 -0.20272
 H491 H 0.66858 0.13689 -0.43067
 H492 H 0.63034 0.09742 -0.35570
 C493 C 1.16509 0.49463 -0.32494
 C494 C 1.13785 0.47478 -0.36439
 C495 C 1.11673 0.47448 -0.32400
 C496 C 1.12494 0.49405 -0.24814
 C497 C 1.14499 0.52145 -0.28578
 C498 C 1.16611 0.52175 -0.32621
 C499 C 1.16277 0.48695 -0.22966
 C500 C 1.14163 0.48665 -0.18922
 C501 C 1.18769 0.49496 -0.36899
 C502 C 1.20599 0.49522 -0.40713
 C503 C 1.10224 0.49380 -0.20498
 C504 C 1.08363 0.49387 -0.17009
 H505 H 1.13538 0.46203 -0.41904
 H506 H 1.09615 0.46149 -0.34414
 H507 H 1.14281 0.53906 -0.28105
 H508 H 1.18203 0.53962 -0.35614
 H509 H 1.17649 0.48217 -0.19689
 H510 H 1.13725 0.48162 -0.12173
 C511 C 0.50367 0.66933 -0.32444
 C512 C 0.52405 0.66250 -0.36313
 C513 C 0.52478 0.64194 -0.32261
 C514 C 0.50505 0.63026 -0.24739
 C515 C 0.47757 0.62243 -0.28599
 C516 C 0.47685 0.64299 -0.32656
 C517 C 0.51108 0.67474 -0.22892
 C518 C 0.51180 0.65417 -0.18834
 C519 C 0.50289 0.69132 -0.36859
 C520 C 0.50228 0.70917 -0.40666
 C521 C 0.50573 0.60808 -0.20409
 C522 C 0.50593 0.58958 -0.16903
 H523 H 0.53683 0.67292 -0.41745
 H524 H 0.53814 0.63472 -0.34227
 H525 H 0.46021 0.60251 -0.28179
 H526 H 0.45888 0.64069 -0.35715
 H527 H 0.51534 0.69307 -0.19604
 H528 H 0.51668 0.65486 -0.12066
 C529 C 0.33322 -0.16495 -0.33186
 C530 C 0.35986 -0.16475 -0.34045
 C531 C 0.38082 -0.14333 -0.30178
 C532 C 0.37303 -0.12424 -0.25849
 C533 C 0.35029 -0.14184 -0.19638
 C534 C 0.32934 -0.16326 -0.23501
 C535 C 0.33875 -0.13790 -0.36811
 C536 C 0.35970 -0.11648 -0.32951
 C537 C 0.31074 -0.18783 -0.37383
 C538 C 0.29246 -0.20625 -0.41060
 C539 C 0.39547 -0.10126 -0.21666
 C540 C 0.41380 -0.08253 -0.18119
 H541 H 0.36208 -0.18006 -0.37398
 H542 H 0.40101 -0.14027 -0.30213
 H543 H 0.35063 -0.13784 -0.12805
 H544 H 0.31173 -0.17765 -0.19985
 H545 H 0.32723 -0.13577 -0.41958
 H546 H 0.36617 -0.09599 -0.34796
 C547 C 0.50148 -0.16558 0.32676
 C548 C 0.50683 -0.16423 0.22983
 C549 C 0.50735 -0.14283 0.19085
 C550 C 0.50247 -0.12493 0.25273
 C551 C 0.52365 -0.11712 0.32346
 C552 C 0.52313 -0.13851 0.36241
 C553 C 0.47516 -0.16513 0.33555
 C554 C 0.47568 -0.14374 0.29654
 C555 C 0.50102 -0.18844 0.36913
 C556 C 0.50084 -0.20683 0.40616
 C557 C 0.50305 -0.10196 0.21072
 C558 C 0.50348 -0.08317 0.17555
 H559 H 0.50989 -0.17880 0.19489
 H560 H 0.51086 -0.13905 0.12243
 H561 H 0.53780 -0.09661 0.34141
 H562 H 0.53685 -0.13634 0.41369
 H563 H 0.45768 -0.18027 0.36942
 H564 H 0.45863 -0.14053 0.29689
 C565 C 0.33017 0.49515 0.32504
 C566 C 0.33709 0.47460 0.36152
 C567 C 0.35786 0.47438 0.32046
 C568 C 0.36964 0.49473 0.24697
 C569 C 0.37718 0.52181 0.28811
 C570 C 0.35642 0.52202 0.32923
 C571 C 0.32506 0.48852 0.22894
 C572 C 0.34584 0.48831 0.18782
 C573 C 0.30794 0.49537 0.36970
 C574 C 0.28987 0.49552 0.40802
 C575 C 0.39203 0.49455 0.20321
 C576 C 0.41065 0.49458 0.16804
 H577 H 0.32656 0.46135 0.41478
 H578 H 0.36516 0.46097 0.33860
 H579 H 0.39709 0.53927 0.28528
 H580 H 0.35852 0.53965 0.36171
 H581 H 0.30674 0.48436 0.19612
 H582 H 0.34535 0.48398 0.11970
 C583 C 1.16574 0.66965 0.32118
 C584 C 1.13851 0.66377 0.35698
 C585 C 1.11726 0.64314 0.31657
 C586 C 1.12536 0.63044 0.24435
 C587 C 1.14433 0.62237 0.28689
 C588 C 1.16557 0.64299 0.32733
 C589 C 1.16444 0.67431 0.22465
 C590 C 1.14318 0.65367 0.18420
 C591 C 1.18848 0.69172 0.36518
 C592 C 1.20694 0.70963 0.40305
 C593 C 1.10253 0.60818 0.20121
 C594 C 1.08384 0.58963 0.16631
 H595 H 1.13613 0.67491 0.40924
 H596 H 1.09667 0.63654 0.33433
 H597 H 1.14135 0.60223 0.28537
 H598 H 1.18080 0.64054 0.36048
 H599 H 1.17893 0.69223 0.19107
 H600 H 1.13944 0.65388 0.11591
 C601 C 0.49653 0.16562 0.32795
 C602 C 0.47539 0.13830 0.36331
 C603 C 0.47486 0.11718 0.32201
 C604 C 0.49551 0.12546 0.24937
 C605 C 0.52255 0.14440 0.29178
 C606 C 0.52308 0.16550 0.33313
 C607 C 0.49038 0.16449 0.23157
 C608 C 0.48985 0.14337 0.19022
 C609 C 0.49713 0.18827 0.37283
 C610 C 0.49763 0.20669 0.41118
 C611 C 0.49502 0.10275 0.20516
 C612 C 0.49489 0.08413 0.16946
 H613 H 0.46197 0.13577 0.41597
 H614 H 0.46101 0.09656 0.33940
 H615 H 0.53977 0.14149 0.28949
 H616 H 0.54075 0.18067 0.36631
 H617 H 0.48677 0.17901 0.19872
 H618 H 0.48579 0.13978 0.12191
 C619 C 0.66670 0.50092 0.33292
 C620 C 0.66433 0.52546 0.35758
 C621 C 0.64346 0.52612 0.31882
 C622 C 0.62703 0.50220 0.25915
 C623 C 0.61841 0.47739 0.31550
 C624 C 0.63927 0.47673 0.35435
 C625 C 0.66829 0.50149 0.23449
 C626 C 0.64743 0.50217 0.19568
 C627 C 0.68909 0.50023 0.37506
 C628 C 0.70725 0.49973 0.41172
 C629 C 0.60465 0.50292 0.21698
 C630 C 0.58636 0.50344 0.18123
 H631 H 0.67786 0.54095 0.40157
 H632 H 0.63906 0.54214 0.32976
 H633 H 0.59773 0.46178 0.32434
 H634 H 0.63649 0.46055 0.39654
 H635 H 0.68440 0.50143 0.19847
 H636 H 0.64566 0.50268 0.12634
 C637 C 0.83525 0.33331 0.33019
 C638 C 0.83904 0.36066 0.35662
 C639 C 0.86032 0.38170 0.31786
 C640 C 0.87572 0.37330 0.25663
 C641 C 0.85461 0.35373 0.19313
 C642 C 0.83332 0.33270 0.23182
 C643 C 0.86217 0.33502 0.34999
 C644 C 0.88346 0.35605 0.31131
 C645 C 0.81244 0.31073 0.37218
 C646 C 0.79400 0.29242 0.40874
 C647 C 0.89858 0.39585 0.21461
 C648 C 0.91724 0.41422 0.17905
 H649 H 0.82620 0.36327 0.40199
 H650 H 0.86570 0.40235 0.32985
 H651 H 0.85625 0.35618 0.12384
 H652 H 0.81671 0.31713 0.19576
 H653 H 0.86434 0.32102 0.39116
 H654 H 0.90387 0.36009 0.31925
   
