data_POSCAR
  _audit_creation_date              2014-09-24
  _audit_creation_method            'ToBaCCo'
  _symmetry_space_group_name_H-M    'P1'
  _symmetry_Int_Tables_number       1
  _symmetry_cell_setting            triclinic
  loop_
  _symmetry_equiv_pos_as_xyz
 x,y,z
_cell_length_a 60.3269
_cell_length_b 59.3826
_cell_length_c 59.4714
_cell_angle_alpha 81.872900
_cell_angle_beta 94.369800
_cell_angle_gamma 85.253100
loop_
  _atom_site_label
  _atom_site_type_symbol
  _atom_site_fract_x
  _atom_site_fract_y
  _atom_site_fract_z
C1 C 0.21588 0.54854 1.02784
 H2 H 0.21358 0.56221 1.01366
 C3 C 0.20064 0.54770 1.04433
 H4 H 0.18674 0.56081 1.04226
 C5 C 0.23682 0.51519 1.04755
 H6 H 0.25092 0.50250 1.04872
 C7 C 0.22214 0.51385 1.06471
 H8 H 0.22518 0.49994 1.07878
 N9 N 0.23318 0.53207 1.02929
 C10 C 0.27643 0.56453 0.98214
 H11 H 0.27401 0.55445 0.96850
 C12 C 0.29046 0.58205 0.97992
 H13 H 0.29861 0.58543 0.96436
 C14 C 0.26943 0.57141 1.01938
 H15 H 0.26159 0.56673 1.03491
 C16 C 0.28337 0.58916 1.01788
 H17 H 0.28605 0.59812 1.03235
 Zn18 Zn 0.25141 0.53262 1.00452
 N19 N 0.26667 0.55923 1.00181
 C20 C 0.22030 0.55353 0.96895
 N21 N 0.23291 0.53353 0.97691
 C22 C 0.23201 0.51521 0.96555
 C23 C 0.21700 0.51620 0.94623
 C24 C 0.20498 0.55520 0.94988
 C25 C 0.29496 0.51055 1.01104
 C26 C 0.31161 0.49243 1.01390
 C27 C 0.28305 0.46625 1.01406
 C28 C 0.26685 0.48497 1.01135
 N29 N 0.27303 0.50667 1.00942
 H30 H 0.22209 0.56828 0.97742
 H31 H 0.24259 0.49967 0.97156
 H32 H 0.21607 0.50123 0.93784
 H33 H 0.19478 0.57117 0.94424
 H34 H 0.29972 0.52775 1.01006
 H35 H 0.32890 0.49614 1.01482
 H36 H 0.27780 0.44916 1.01518
 H37 H 0.24933 0.48220 1.01061
 C38 C 0.29456 0.59426 0.99816
 C39 C 0.20331 0.52991 1.06294
 C40 C 0.30580 0.46990 1.01515
 C41 C 0.20285 0.53624 0.93852
 C42 C 0.78886 0.49330 -0.03191
 H43 H 0.78929 0.50149 -0.01677
 C44 C 0.80366 0.49863 -0.04835
 H45 H 0.81535 0.51109 -0.04571
 C46 C 0.77339 0.46665 -0.05322
 H47 H 0.76183 0.45389 -0.05484
 C48 C 0.78791 0.47147 -0.07012
 H49 H 0.78721 0.46242 -0.08470
 N50 N 0.77407 0.47763 -0.03463
 C51 C 0.71961 0.49203 0.00660
 H52 H 0.71921 0.47514 0.01609
 C53 C 0.70367 0.50958 0.00929
 H54 H 0.69108 0.50601 0.02100
 C55 C 0.73647 0.51687 -0.02039
 H56 H 0.74906 0.51955 -0.03220
 C57 C 0.72090 0.53503 -0.01810
 H58 H 0.72178 0.55156 -0.02816
 Zn59 Zn 0.75582 0.47047 -0.01061
 N60 N 0.73565 0.49593 -0.00795
 C61 C 0.77242 0.47387 0.03457
 N62 N 0.77494 0.46233 0.01660
 C63 C 0.79240 0.44625 0.01682
 C64 C 0.80856 0.44170 0.03540
 C65 C 0.78805 0.46971 0.05357
 C66 C 0.72220 0.45138 -0.03380
 C67 C 0.70678 0.43575 -0.03747
 C68 C 0.72520 0.41001 -0.00510
 C69 C 0.74029 0.42621 -0.00201
 N70 N 0.73836 0.44651 -0.01617
 H71 H 0.75870 0.48689 0.03395
 H72 H 0.79416 0.43753 0.00218
 H73 H 0.82265 0.42928 0.03497
 H74 H 0.78599 0.47955 0.06740
 H75 H 0.72088 0.46779 -0.04459
 H76 H 0.69375 0.44029 -0.05132
 H77 H 0.72662 0.39421 0.00670
 H78 H 0.75304 0.42286 0.01214
 C79 C 0.70417 0.53146 -0.00314
 C80 C 0.80341 0.48758 -0.06775
 C81 C 0.70788 0.41489 -0.02278
 C82 C 0.80669 0.45380 0.05396
 C83 C -0.03305 0.27272 0.49505
 H84 H -0.04488 0.26016 0.49388
 C85 C -0.03235 0.29016 0.47673
 H86 H -0.04374 0.29064 0.46165
 C87 C -0.00393 0.28719 0.51608
 H88 H 0.00728 0.28571 0.53142
 C89 C -0.00283 0.30503 0.49838
 H90 H 0.00932 0.31718 0.50050
 N91 N -0.01862 0.27130 0.51402
 C92 C -0.05627 0.22479 0.54923
 H93 H -0.05660 0.23372 0.56384
 C94 C -0.07236 0.20969 0.54555
 H95 H -0.08508 0.20730 0.55734
 C96 C -0.03891 0.21641 0.51658
 H97 H -0.02563 0.21896 0.50550
 C98 C -0.05456 0.20123 0.51228
 H99 H -0.05316 0.19228 0.49773
 Zn100 Zn -0.01696 0.24708 0.53866
 N101 N -0.04008 0.22796 0.53467
 C102 C -0.03686 0.27426 0.56811
 N103 N -0.01827 0.26056 0.56561
 C104 C 0.00030 0.25895 0.58044
 C105 C 0.00087 0.27193 0.59825
 C106 C -0.03711 0.28735 0.58588
 C107 C 0.02337 0.23263 0.52156
 C108 C 0.04251 0.21809 0.52049
 C109 C 0.03504 0.19606 0.55601
 C110 C 0.01578 0.21083 0.55620
 N111 N 0.01039 0.22875 0.53917
 H112 H -0.05119 0.27574 0.55571
 H113 H 0.01516 0.24857 0.57781
 H114 H 0.01610 0.27098 0.60936
 H115 H -0.05180 0.29874 0.58711
 H116 H 0.01856 0.24658 0.50788
 H117 H 0.05238 0.22125 0.50610
 H118 H 0.03892 0.18170 0.56952
 H119 H 0.00493 0.20785 0.56976
 C120 C -0.07158 0.19762 0.52687
 C121 C -0.01689 0.30655 0.47809
 C122 C 0.04847 0.19944 0.53777
 C123 C -0.01783 0.28673 0.60085
 C124 C 1.01190 0.71000 0.47137
 H125 H 1.01244 0.70553 0.45444
 C126 C 1.01243 0.69265 0.48989
 H127 H 1.01357 0.67506 0.48683
 C128 C 1.00921 0.73819 0.49575
 H129 H 1.00779 0.75604 0.49786
 C130 C 1.00967 0.72134 0.51480
 H131 H 1.00867 0.72642 0.53150
 N132 N 1.01045 0.73230 0.47453
 C133 C 0.97694 0.79039 0.42676
 H134 H 0.98834 0.79246 0.41369
 C135 C 0.95780 0.80565 0.42518
 H136 H 0.95504 0.81956 0.41109
 C137 C 0.96637 0.76958 0.46055
 H138 H 0.96963 0.75553 0.47435
 C139 C 0.94690 0.78433 0.45953
 H140 H 0.93565 0.78152 0.47278
 Zn141 Zn 1.00953 0.75529 0.44849
 N142 N 0.98136 0.77328 0.44475
 C143 C 0.99663 0.73902 0.40705
 N144 N 1.01383 0.74078 0.42268
 C145 C 1.03454 0.73032 0.42157
 C146 C 1.03836 0.71644 0.40495
 C147 C 0.99976 0.72539 0.38998
 C148 C 1.04735 0.77118 0.47129
 C149 C 1.06366 0.78618 0.47422
 C150 C 1.05105 0.80703 0.43700
 C151 C 1.03522 0.79148 0.43468
 N152 N 1.03305 0.77445 0.45201
 H153 H 0.98026 0.74731 0.40842
 H154 H 1.04787 0.73197 0.43431
 H155 H 1.05479 0.70761 0.40493
 H156 H 0.98567 0.72344 0.37824
 H157 H 1.04614 0.75705 0.48455
 H158 H 1.07449 0.78360 0.48992
 H159 H 1.05210 0.82076 0.42316
 H160 H 1.02469 0.79310 0.41897
 C161 C 0.94277 0.80308 0.44205
 C162 C 1.01132 0.69818 0.51199
 C163 C 1.06528 0.80472 0.45714
 C164 C 1.02070 0.71336 0.38922
 C165 C 0.44390 -0.04931 0.28984
 H166 H 0.45645 -0.06328 0.28925
 C167 C 0.42763 -0.05190 0.30519
 H168 H 0.42766 -0.06805 0.31623
 C169 C 0.42944 -0.01094 0.27681
 H170 H 0.43065 0.00515 0.26614
 C171 C 0.41267 -0.01287 0.29178
 H172 H 0.40100 0.00184 0.29242
 N173 N 0.44491 -0.02889 0.27656
 C174 C 0.49225 -0.06505 0.24458
 H175 H 0.50674 -0.06193 0.25506
 C176 C 0.49374 -0.08305 0.23176
 H177 H 0.50957 -0.09327 0.23244
 C178 C 0.45414 -0.05586 0.23140
 H179 H 0.43852 -0.04579 0.23195
 C180 C 0.45490 -0.07344 0.21816
 H181 H 0.43979 -0.07611 0.20823
 Zn182 Zn 0.47008 -0.02598 0.25972
 N183 N 0.47281 -0.05145 0.24367
 C184 C 0.51648 -0.02453 0.27318
 N185 N 0.49573 -0.02587 0.28056
 C186 C 0.49258 -0.02661 0.30304
 C187 C 0.51060 -0.02660 0.31911
 C188 C 0.53507 -0.02436 0.28875
 C189 C 0.44958 0.00445 0.22142
 C190 C 0.44743 0.02364 0.20463
 C191 C 0.47878 0.03775 0.22411
 C192 C 0.48043 0.01816 0.24047
 N193 N 0.46624 0.00171 0.23861
 H194 H 0.51858 -0.02349 0.25517
 H195 H 0.47603 -0.02701 0.30869
 H196 H 0.50750 -0.02724 0.33687
 H197 H 0.55144 -0.02336 0.28257
 H198 H 0.43801 -0.00834 0.22049
 H199 H 0.43431 0.02515 0.19087
 H200 H 0.49058 0.05034 0.22566
 H201 H 0.49324 0.01607 0.25450
 C202 C 0.47501 -0.08714 0.21780
 C203 C 0.41206 -0.03337 0.30668
 C204 C 0.46239 0.04044 0.20561
 C205 C 0.53224 -0.02553 0.31210
 C206 C 0.54709 0.00671 0.72317
 H207 H 0.53530 -0.00590 0.72629
 C208 C 0.56368 0.00338 0.70860
 H209 H 0.56445 -0.01194 0.70064
 C210 C 0.55986 0.04212 0.72962
 H211 H 0.55806 0.05735 0.73758
 C212 C 0.57676 0.03950 0.71503
 H213 H 0.58794 0.05275 0.71207
 N214 N 0.54561 0.02567 0.73355
 C215 C 0.51056 0.00452 0.79294
 H216 H 0.49749 0.01847 0.79058
 C217 C 0.51160 -0.01241 0.81186
 H218 H 0.49917 -0.01133 0.82398
 C219 C 0.54253 -0.01365 0.77982
 H220 H 0.55473 -0.01391 0.76746
 C221 C 0.54400 -0.03120 0.79839
 H222 H 0.55732 -0.04488 0.80008
 Zn223 Zn 0.52194 0.02772 0.75252
 N224 N 0.52578 0.00357 0.77731
 C225 C 0.48457 0.00588 0.73847
 N226 N 0.49517 0.02521 0.73453
 C227 C 0.48775 0.04206 0.71696
 C228 C 0.46868 0.03998 0.70278
 C229 C 0.46575 0.00290 0.72444
 C230 C 0.53834 0.05975 0.77849
 C231 C 0.53666 0.07748 0.79161
 C232 C 0.49771 0.08536 0.77774
 C233 C 0.50021 0.06773 0.76464
 N234 N 0.52022 0.05511 0.76548
 H235 H 0.49101 -0.00757 0.75213
 H236 H 0.49675 0.05706 0.71392
 H237 H 0.46307 0.05348 0.68879
 H238 H 0.45773 -0.01275 0.72770
 H239 H 0.55386 0.04899 0.77948
 H240 H 0.55108 0.08039 0.80244
 H241 H 0.48144 0.09463 0.77746
 H242 H 0.48580 0.06332 0.75488
 C243 C 0.52838 -0.03068 0.81470
 C244 C 0.57884 0.01987 0.70433
 C245 C 0.51597 0.09011 0.79181
 C246 C 0.45760 0.02006 0.70631
 C247 C 0.22225 -0.02572 0.50827
 C248 C 0.23436 -0.00806 0.51465
 C249 C 0.22288 0.01247 0.51835
 C250 C 0.19953 0.01582 0.51426
 C251 C 0.18771 -0.00173 0.50724
 C252 C 0.19888 -0.02274 0.50466
 C253 C 0.25898 -0.01064 0.51548
 C254 C 0.26915 -0.01640 0.49634
 C255 C 0.29243 -0.02009 0.49682
 C256 C 0.30555 -0.01850 0.51694
 C257 C 0.29568 -0.01210 0.53602
 C258 C 0.27234 -0.00783 0.53511
 H259 H 0.23114 -0.04162 0.50564
 H260 H 0.23214 0.02621 0.52310
 H261 H 0.25882 -0.01798 0.48102
 H262 H 0.26456 -0.00319 0.54985
 H263 H 0.16967 0.00087 0.50430
 H264 H 0.32358 -0.02129 0.51747
 C265 C 0.77291 -0.01758 0.48617
 C266 C 0.76125 0.00075 0.49413
 C267 C 0.77220 0.02009 0.49776
 C268 C 0.79443 0.02155 0.49251
 C269 C 0.80568 0.00318 0.48419
 C270 C 0.79520 -0.01656 0.48128
 C271 C 0.73737 -0.00027 0.49774
 C272 C 0.72963 0.00185 0.51914
 C273 C 0.70738 -0.00157 0.52292
 C274 C 0.69280 -0.00611 0.50494
 C275 C 0.70002 -0.00735 0.48324
 C276 C 0.72246 -0.00463 0.47985
 H277 H 0.76451 -0.03259 0.48366
 H278 H 0.76316 0.03424 0.50384
 H279 H 0.74112 0.00496 0.53303
 H280 H 0.72847 -0.00602 0.46334
 H281 H 0.82293 0.00399 0.48049
 H282 H 0.67557 -0.00835 0.50789
 C283 C 0.51652 0.27326 0.99336
 C284 C 0.49626 0.26459 0.99861
 C285 C 0.47840 0.27940 1.00339
 C286 C 0.48052 0.30287 1.00263
 C287 C 0.50085 0.31127 0.99719
 C288 C 0.51891 0.29665 0.99261
 C289 C 0.49329 0.24021 0.99821
 C290 C 0.48670 0.22673 1.01745
 C291 C 0.48249 0.20392 1.01669
 C292 C 0.48433 0.19497 0.99619
 C293 C 0.49127 0.20815 0.97695
 C294 C 0.49606 0.23068 0.97819
 H295 H 0.53027 0.26184 0.98962
 H296 H 0.46278 0.27263 1.00730
 H297 H 0.48486 0.23407 1.03296
 H298 H 0.50105 0.24114 0.96331
 H299 H 0.50272 0.32933 0.99655
 H300 H 0.48107 0.17742 0.99538
 C301 C 0.53129 0.72124 0.01329
 C302 C 0.51229 0.73586 0.01544
 C303 C 0.49107 0.72779 0.01426
 C304 C 0.48862 0.70539 0.01033
 C305 C 0.50772 0.69081 0.00860
 C306 C 0.52915 0.69840 0.01042
 C307 C 0.51422 0.75982 0.01844
 C308 C 0.51891 0.77572 -0.00000
 C309 C 0.51768 0.79916 0.00171
 C310 C 0.51210 0.80630 0.02227
 C311 C 0.50794 0.79050 0.04092
 C312 C 0.50907 0.76722 0.03899
 H313 H 0.54764 0.72750 0.01448
 H314 H 0.47644 0.73926 0.01561
 H315 H 0.52250 0.76988 -0.01592
 H316 H 0.50517 0.75498 0.05311
 H317 H 0.50586 0.67337 0.00593
 H318 H 0.51104 0.82429 0.02392
 C319 C 1.01453 0.51498 0.26426
 C320 C 1.00991 0.49373 0.25817
 C321 C 1.00656 0.47568 0.27520
 C322 C 1.00877 0.47847 0.29832
 C323 C 1.01394 0.49969 0.30411
 C324 C 1.01650 0.51807 0.28723
 C325 C 1.00961 0.49019 0.23406
 C326 C 1.02821 0.49479 0.22193
 C327 C 1.02809 0.49204 0.19891
 C328 C 1.00924 0.48444 0.18809
 C329 C 0.99055 0.47955 0.20001
 C330 C 0.99086 0.48246 0.22308
 H331 H 1.01685 0.52899 0.25112
 H332 H 1.00304 0.45929 0.27044
 H333 H 1.04267 0.50074 0.23041
 H334 H 0.97653 0.47893 0.23247
 H335 H 1.01538 0.50216 0.32185
 H336 H 1.00911 0.48243 0.17026
 C337 C -0.00010 0.52452 0.71547
 C338 C -0.00381 0.50664 0.73248
 C339 C -0.00623 0.48476 0.72686
 C340 C -0.00381 0.48050 0.70453
 C341 C 0.00005 0.49846 0.68770
 C342 C 0.00149 0.52069 0.69285
 C343 C -0.00366 0.51071 0.75636
 C344 C -0.02309 0.50959 0.76790
 C345 C -0.02307 0.51487 0.79022
 C346 C -0.00325 0.52084 0.80090
 C347 C 0.01645 0.52120 0.78982
 C348 C 0.01608 0.51627 0.76745
 H349 H 0.00159 0.54139 0.72000
 H350 H -0.00883 0.47089 0.74004
 H351 H -0.03824 0.50518 0.75926
 H352 H 0.03110 0.51682 0.75856
 H353 H 0.00161 0.49505 0.67044
 H354 H -0.00292 0.52450 0.81826
 C355 C 0.10155 0.15106 0.53173
 N356 N 0.09444 0.15321 0.55251
 N357 N 0.07778 0.16880 0.55456
 C358 C 0.06774 0.18292 0.53593
 N359 N 0.07512 0.18090 0.51523
 N360 N 0.09161 0.16521 0.51316
 C361 C 0.11859 0.13277 0.52899
 N362 N 0.12065 0.12651 0.50812
 N363 N 0.13498 0.10897 0.50558
 C364 C 0.14801 0.09720 0.52375
 N365 N 0.14624 0.10366 0.54461
 N366 N 0.13169 0.12108 0.54721
 C367 C 0.16243 0.07683 0.52095
 N368 N 0.17953 0.06797 0.53674
 N369 N 0.19182 0.04885 0.53438
 C370 C 0.18720 0.03778 0.51633
 N371 N 0.17014 0.04671 0.50058
 N372 N 0.15809 0.06595 0.50277
 C373 C 0.65499 0.58393 0.00324
 N374 N 0.67319 0.58872 -0.00800
 N375 N 0.68890 0.57211 -0.00999
 C376 C 0.68702 0.55013 -0.00076
 N377 N 0.66884 0.54547 0.01056
 N378 N 0.65313 0.56201 0.01247
 C379 C 0.63716 0.60181 0.00500
 N380 N 0.61797 0.59596 0.01375
 N381 N 0.60139 0.61182 0.01498
 C382 C 0.60337 0.63419 0.00763
 N383 N 0.62262 0.64015 -0.00101
 N384 N 0.63923 0.62422 -0.00235
 C385 C 0.58453 0.65125 0.00854
 N386 N 0.58651 0.67404 0.00396
 N387 N 0.56902 0.68918 0.00468
 C388 C 0.54891 0.68203 0.00982
 N389 N 0.54709 0.65925 0.01441
 N390 N 0.56453 0.64418 0.01384
 C391 C 0.89118 -0.14579 0.44500
 N392 N 0.90719 -0.14219 0.43041
 N393 N 0.92315 -0.15868 0.42899
 C394 C 0.92382 -0.17941 0.44218
 N395 N 0.90762 -0.18306 0.45660
 N396 N 0.89158 -0.16660 0.45795
 C397 C 0.87476 -0.12696 0.44787
 N398 N 0.85776 -0.13064 0.46126
 N399 N 0.84382 -0.11322 0.46503
 C400 C 0.84647 -0.09150 0.45567
 N401 N 0.86336 -0.08787 0.44216
 N402 N 0.87720 -0.10528 0.43828
 C403 C 0.83228 -0.07206 0.46116
 N404 N 0.83805 -0.05047 0.45583
 N405 N 0.82607 -0.03285 0.46194
 C406 C 0.80776 -0.03608 0.47351
 N407 N 0.80181 -0.05768 0.47857
 N408 N 0.81390 -0.07535 0.47260
 C409 C 0.35651 0.41628 1.01863
 N410 N 0.36149 0.43783 1.02044
 N411 N 0.34536 0.45467 1.01968
 C412 C 0.32353 0.45069 1.01707
 N413 N 0.31852 0.42903 1.01546
 N414 N 0.33471 0.41213 1.01621
 C415 C 0.37463 0.39821 1.01835
 N416 N 0.37032 0.37659 1.01566
 N417 N 0.38700 0.36070 1.01443
 C418 C 0.40854 0.36590 1.01582
 N419 N 0.41277 0.38745 1.01865
 N420 N 0.39615 0.40328 1.01991
 C421 C 0.42708 0.34901 1.01336
 N422 N 0.44813 0.35541 1.01289
 N423 N 0.46502 0.34065 1.00975
 C424 C 0.46163 0.31884 1.00700
 N425 N 0.44055 0.31237 1.00769
 N426 N 0.42358 0.32719 1.01077
 C427 C 0.88320 0.14949 0.51520
 N428 N 0.90003 0.15316 0.50167
 N429 N 0.91416 0.16858 0.50532
 C430 C 0.91211 0.18096 0.52270
 N431 N 0.89516 0.17735 0.53623
 N432 N 0.88096 0.16191 0.53254
 C433 C 0.86833 0.13177 0.51131
 N434 N 0.85089 0.12789 0.52407
 N435 N 0.83804 0.11121 0.52068
 C436 C 0.84224 0.09782 0.50446
 N437 N 0.85960 0.10183 0.49170
 N438 N 0.87235 0.11849 0.49503
 C439 C 0.82905 0.07866 0.50108
 N440 N 0.83574 0.06395 0.48691
 N441 N 0.82456 0.04602 0.48414
 C442 C 0.80615 0.04207 0.49532
 N443 N 0.79927 0.05695 0.50936
 N444 N 0.81057 0.07489 0.51225
 C445 C 0.34604 0.63768 -0.00309
 N446 N 0.33231 0.63668 0.01402
 N447 N 0.31551 0.62341 0.01415
 C448 C 0.31177 0.61072 -0.00285
 N449 N 0.32533 0.61211 -0.02010
 N450 N 0.34214 0.62526 -0.02020
 C451 C 0.36588 0.65038 -0.00240
 N452 N 0.38166 0.64721 -0.01702
 N453 N 0.40051 0.65726 -0.01561
 C454 C 0.40427 0.67102 0.00037
 N455 N 0.38837 0.67450 0.01484
 N456 N 0.36953 0.66427 0.01354
 C457 C 0.42578 0.68074 0.00259
 N458 N 0.42894 0.69745 0.01559
 N459 N 0.44883 0.70558 0.01789
 C460 C 0.46631 0.69707 0.00749
 N461 N 0.46304 0.68041 -0.00551
 N462 N 0.44316 0.67246 -0.00798
 C463 C 0.10892 -0.14556 0.46769
 N464 N 0.11215 -0.16661 0.48043
 N465 N 0.09846 -0.18252 0.47696
 C466 C 0.08112 -0.17805 0.46049
 N467 N 0.07807 -0.15704 0.44764
 N468 N 0.09165 -0.14109 0.45122
 C469 C 0.12327 -0.12760 0.47214
 N470 N 0.11723 -0.10557 0.46268
 N471 N 0.12973 -0.08904 0.46726
 C472 C 0.14884 -0.09395 0.48133
 N473 N 0.15500 -0.11602 0.49065
 N474 N 0.14239 -0.13254 0.48620
 C475 C 0.16216 -0.07556 0.48686
 N476 N 0.18296 -0.08034 0.49781
 N477 N 0.19476 -0.06355 0.50321
 C478 C 0.18614 -0.04138 0.49804
 N479 N 0.16533 -0.03666 0.48708
 N480 N 0.15361 -0.05341 0.48152
 C481 C 0.65590 0.37240 0.97307
 N482 N 0.65480 0.39292 0.95952
 N483 N 0.67159 0.40604 0.96043
 C484 C 0.69015 0.39926 0.97500
 N485 N 0.69134 0.37857 0.98839
 N486 N 0.67455 0.36536 0.98743
 C487 C 0.63645 0.35905 0.97331
 N488 N 0.63737 0.33796 0.98587
 N489 N 0.61912 0.32675 0.98721
 C490 C 0.59930 0.33632 0.97616
 N491 N 0.59848 0.35729 0.96347
 N492 N 0.61671 0.36840 0.96201
 C493 C 0.57864 0.32519 0.97914
 N494 N 0.55861 0.33744 0.97283
 N495 N 0.53969 0.32816 0.97679
 C496 C 0.54002 0.30620 0.98704
 N497 N 0.56009 0.29377 0.99303
 N498 N 0.57907 0.30314 0.98926
 C499 C 0.46132 0.09465 1.15178
 N500 N 0.44879 0.07697 1.14979
 N501 N 0.44880 0.06004 1.16706
 C502 C 0.46142 0.06003 1.18698
 N503 N 0.47386 0.07784 1.18899
 N504 N 0.47377 0.09485 1.17174
 C505 C 0.46223 0.11257 1.13220
 N506 N 0.47351 0.13113 1.13433
 N507 N 0.47522 0.14673 1.11623
 C508 C 0.46580 0.14426 1.09534
 N509 N 0.45442 0.12577 1.09327
 N510 N 0.45262 0.11025 1.11137
 C511 C 0.46889 0.16055 1.07506
 N512 N 0.46310 0.15565 1.05392
 N513 N 0.46706 0.16964 1.03541
 C514 C 0.47683 0.18917 1.03729
 N515 N 0.48234 0.19422 1.05848
 N516 N 0.47851 0.18014 1.07702
 C517 C 0.01171 0.64600 0.56769
 N518 N 0.00996 0.66826 0.57085
 N519 N 0.00992 0.68486 0.55321
 C520 C 0.01163 0.67984 0.53176
 N521 N 0.01343 0.65754 0.52873
 N522 N 0.01347 0.64096 0.54632
 C523 C 0.01135 0.62755 0.58689
 N524 N 0.01278 0.60545 0.58326
 N525 N 0.01202 0.58860 0.60043
 C526 C 0.00982 0.59321 0.62190
 N527 N 0.00847 0.61532 0.62559
 N528 N 0.00922 0.63220 0.60838
 C529 C 0.00837 0.57450 0.64058
 N530 N 0.00592 0.57871 0.66214
 N531 N 0.00400 0.56164 0.67883
 C532 C 0.00445 0.53970 0.67459
 N533 N 0.00701 0.53558 0.65300
 N534 N 0.00895 0.55261 0.63634
 C535 C 0.52988 0.91750 -0.12925
 N536 N 0.51849 0.93818 -0.12934
 N537 N 0.51816 0.95460 -0.14710
 C538 C 0.52933 0.95107 -0.16545
 N539 N 0.54090 0.93039 -0.16529
 N540 N 0.54112 0.91387 -0.14754
 C541 C 0.52958 0.89945 -0.10970
 N542 N 0.53795 0.87761 -0.11035
 N543 N 0.53691 0.86131 -0.09265
 C544 C 0.52756 0.86635 -0.07367
 N545 N 0.51934 0.88819 -0.07303
 N546 N 0.52028 0.90441 -0.09072
 C547 C 0.52581 0.84866 -0.05414
 N548 N 0.51802 0.85474 -0.03486
 N549 N 0.51571 0.83898 -0.01717
 C550 C 0.52101 0.81646 -0.01800
 N551 N 0.52888 0.81035 -0.03734
 N552 N 0.53127 0.82617 -0.05507
 C553 C 0.98922 0.35661 0.42381
 N554 N 0.97464 0.34063 0.42178
 N555 N 0.97247 0.32458 0.43936
 C556 C 0.98485 0.32380 0.45963
 N557 N 0.99938 0.33990 0.46150
 N558 N 1.00147 0.35599 0.44400
 C559 C 0.99191 0.37434 0.40460
 N560 N 1.00480 0.39148 0.40780
 N561 N 1.00748 0.40764 0.39057
 C562 C 0.99748 0.40722 0.36942
 N563 N 0.98461 0.39004 0.36615
 N564 N 0.98184 0.37390 0.38345
 C565 C 1.00047 0.42536 0.35069
 N566 N 0.99269 0.42428 0.32886
 N567 N 0.99546 0.44101 0.31210
 C568 C 1.00599 0.45948 0.31660
 N569 N 1.01375 0.46041 0.33845
 N570 N 1.01111 0.44369 0.35514
 C571 C 0.47971 0.86589 0.17307
 N572 N 0.46049 0.87935 0.17337
 N573 N 0.45884 0.89404 0.18823
 C574 C 0.47641 0.89612 0.20328
 N575 N 0.49559 0.88236 0.20312
 N576 N 0.49719 0.86751 0.18835
 C577 C 0.48201 0.85138 0.15520
 N578 N 0.49977 0.83553 0.15615
 N579 N 0.50255 0.82373 0.13891
 C580 C 0.48778 0.82755 0.12006
 N581 N 0.46996 0.84325 0.11924
 N582 N 0.46706 0.85485 0.13653
 C583 C 0.49192 0.81661 0.09996
 N584 N 0.48226 0.82645 0.07918
 N585 N 0.48710 0.81782 0.06049
 C586 C 0.50157 0.79883 0.06190
 N587 N 0.51097 0.78868 0.08274
 N588 N 0.50634 0.79752 0.10145
 C589 C -0.01311 0.33595 0.64465
 N590 N 0.00550 0.32445 0.63892
 N591 N 0.00390 0.30824 0.62571
 C592 C -0.01636 0.30299 0.61751
 N593 N -0.03501 0.31433 0.62348
 N594 N -0.03342 0.33045 0.63687
 C595 C -0.01110 0.35539 0.65717
 N596 N -0.02899 0.36512 0.66605
 N597 N -0.02732 0.38388 0.67581
 C598 C -0.00777 0.39369 0.67678
 N599 N 0.01010 0.38385 0.66805
 N600 N 0.00850 0.36499 0.65855
 C601 C -0.00627 0.41557 0.68531
 N602 N 0.00974 0.42908 0.67845
 N603 N 0.01059 0.44960 0.68484
 C604 C -0.00437 0.45729 0.69858
 N605 N -0.02022 0.44365 0.70578
 N606 N -0.02126 0.42320 0.69911
 C607 C 0.50727 0.13355 0.84089
 N608 N 0.52784 0.12874 0.83396
 N609 N 0.53060 0.11538 0.81796
 C610 C 0.51286 0.10652 0.80813
 N611 N 0.49227 0.11169 0.81485
 N612 N 0.48954 0.12486 0.83096
 C613 C 0.50433 0.14661 0.85983
 N614 N 0.48539 0.14584 0.87075
 N615 N 0.48305 0.15652 0.88878
 C616 C 0.49947 0.16856 0.89645
 N617 N 0.51833 0.16959 0.88538
 N618 N 0.52077 0.15870 0.86746
 C619 C 0.49712 0.17941 0.91696
 N620 N 0.51057 0.19554 0.92214
 N621 N 0.50856 0.20492 0.94106
 C622 C 0.49322 0.19831 0.95563
 N623 N 0.47983 0.18216 0.95041
 N624 N 0.48166 0.17298 0.93140
 C625 C 1.02742 0.66175 0.34811
 N626 N 1.00968 0.67785 0.34397
 N627 N 1.00781 0.69470 0.35655
 C628 C 1.02368 0.69615 0.37365
 N629 N 1.04160 0.68025 0.37743
 N630 N 1.04340 0.66336 0.36498
 C631 C 1.02840 0.64175 0.33613
 N632 N 1.04297 0.62324 0.34435
 N633 N 1.04268 0.60420 0.33495
 C634 C 1.02795 0.60301 0.31684
 N635 N 1.01362 0.62165 0.30832
 N636 N 1.01378 0.64066 0.31787
 C637 C 1.02637 0.58126 0.30804
 N638 N 1.01457 0.58030 0.28787
 N639 N 1.01199 0.56024 0.28084
 C640 C 1.02088 0.54042 0.29387
 N641 N 1.03279 0.54147 0.31394
 N642 N 1.03558 0.56150 0.32083
 C643 C 1.15447 0.52272 0.10771
 N644 N 1.17387 0.50889 0.11161
 N645 N 1.18982 0.51138 0.09736
 C646 C 1.18709 0.52790 0.07875
 N647 N 1.16776 0.54191 0.07520
 N648 N 1.15176 0.53930 0.08929
 C649 C 1.13616 0.51917 0.12233
 N650 N 1.11515 0.52847 0.11478
 N651 N 1.09820 0.52461 0.12743
 C652 C 1.10165 0.51149 0.14822
 N653 N 1.12272 0.50236 0.15593
 N654 N 1.13966 0.50602 0.14315
 C655 C 1.08270 0.50675 0.16166
 N656 N 1.08589 0.49870 0.18432
 N657 N 1.06853 0.49424 0.19627
 C658 C 1.04739 0.49740 0.18593
 N659 N 1.04428 0.50539 0.16327
 N660 N 1.06158 0.51009 0.15140
 C661 C 0.62679 0.01066 0.65795
 N662 N 0.61284 -0.00557 0.66364
 N663 N 0.59790 -0.00268 0.67856
 C664 C 0.59621 0.01659 0.68841
 N665 N 0.61034 0.03281 0.68285
 N666 N 0.62534 0.02991 0.66788
 C667 C 0.64212 0.00768 0.64031
 N668 N 0.65621 0.02363 0.63378
 N669 N 0.66890 0.02125 0.61667
 C670 C 0.66788 0.00285 0.60550
 N671 N 0.65399 -0.01313 0.61225
 N672 N 0.64142 -0.01080 0.62934
 C673 C 0.67990 0.00090 0.58518
 N674 N 0.67439 -0.01476 0.57172
 N675 N 0.68364 -0.01578 0.55227
 C676 C 0.69895 -0.00133 0.54554
 N677 N 0.70489 0.01409 0.55922
 N678 N 0.69543 0.01526 0.57867
 C679 C -0.14945 0.50015 0.88464
 N680 N -0.16510 0.48550 0.88137
 N681 N -0.18025 0.48168 0.89632
 C682 C -0.18033 0.49236 0.91510
 N683 N -0.16473 0.50713 0.91819
 N684 N -0.14959 0.51093 0.90328
 C685 C -0.13202 0.50374 0.86890
 N686 N -0.11569 0.51726 0.87342
 N687 N -0.09924 0.51989 0.85986
 C688 C -0.09851 0.50915 0.84122
 N689 N -0.11495 0.49575 0.83653
 N690 N -0.13142 0.49307 0.85016
 C691 C -0.07961 0.51134 0.82714
 N692 N -0.07863 0.50141 0.80796
 N693 N -0.06087 0.50280 0.79594
 C694 C -0.04340 0.51406 0.80272
 N695 N -0.04456 0.52408 0.82181
 N696 N -0.06229 0.52278 0.83374
 C697 C 0.37041 -0.03607 0.36013
 N698 N 0.38816 -0.05180 0.36080
 N699 N 0.40095 -0.05129 0.34349
 C700 C 0.39660 -0.03494 0.32488
 N701 N 0.37870 -0.01929 0.32417
 N702 N 0.36580 -0.01989 0.34143
 C703 C 0.35737 -0.03575 0.37995
 N704 N 0.33794 -0.02215 0.37858
 N705 N 0.32680 -0.02103 0.39697
 C706 C 0.33480 -0.03332 0.41741
 N707 N 0.35417 -0.04698 0.41874
 N708 N 0.36521 -0.04824 0.40033
 C709 C 0.32332 -0.03100 0.43797
 N710 N 0.33390 -0.03861 0.45897
 N711 N 0.32399 -0.03542 0.47768
 C712 C 0.30304 -0.02469 0.47612
 N713 N 0.29237 -0.01734 0.45508
 N714 N 0.30236 -0.02034 0.43635
 C715 C 0.15154 0.53774 0.88641
 N716 N 0.15165 0.55428 0.89998
 N717 N 0.16824 0.55403 0.91614
 C718 C 0.18531 0.53716 0.91950
 N719 N 0.18525 0.52068 0.90579
 N720 N 0.16870 0.52099 0.88951
 C721 C 0.13242 0.53731 0.86971
 N722 N 0.13291 0.52238 0.85439
 N723 N 0.11499 0.52125 0.84015
 C724 C 0.09592 0.53490 0.84085
 N725 N 0.09551 0.54991 0.85606
 N726 N 0.11345 0.55115 0.87016
 C727 C 0.07559 0.53254 0.82651
 N728 N 0.05553 0.54189 0.83130
 N729 N 0.03680 0.53861 0.81936
 C730 C 0.03741 0.52602 0.80201
 N731 N 0.05754 0.51696 0.79698
 N732 N 0.07628 0.52006 0.80907
 C733 C 0.58583 -0.02451 0.36122
 N734 N 0.58907 -0.02125 0.33868
 N735 N 0.57215 -0.02173 0.32298
 C736 C 0.55138 -0.02542 0.32925
 N737 N 0.54831 -0.02876 0.35181
 N738 N 0.56516 -0.02832 0.36746
 C739 C 0.60398 -0.02344 0.37885
 N740 N 0.59991 -0.02676 0.40113
 N741 N 0.61586 -0.02516 0.41738
 C742 C 0.63652 -0.02018 0.41201
 N743 N 0.64072 -0.01697 0.38970
 N744 N 0.62471 -0.01858 0.37339
 C745 C 0.65355 -0.01763 0.43024
 N746 N 0.67441 -0.01243 0.42568
 N747 N 0.68935 -0.00943 0.44249
 C748 C 0.68395 -0.01148 0.46444
 N749 N 0.66311 -0.01682 0.46886
 N750 N 0.64824 -0.01985 0.45214
 C751 C 0.85921 0.44960 0.10533
 N752 N 0.86182 0.43923 0.08665
 N753 N 0.84493 0.43994 0.07069
 C754 C 0.82478 0.45114 0.07272
 N755 N 0.82213 0.46124 0.09160
 N756 N 0.83899 0.46046 0.10761
 C757 C 0.87840 0.45062 0.12178
 N758 N 0.87588 0.46064 0.14072
 N759 N 0.89359 0.46320 0.15463
 C760 C 0.91448 0.45592 0.15004
 N761 N 0.91695 0.44569 0.13124
 N762 N 0.89925 0.44305 0.11741
 C763 C 0.93423 0.46053 0.16407
 N764 N 0.95484 0.45716 0.15679
 N765 N 0.97271 0.46283 0.16847
 C766 C 0.97073 0.47200 0.18797
 N767 N 0.95012 0.47504 0.19546
 N768 N 0.93218 0.46950 0.18368
 C769 C 0.40386 0.00998 0.66094
 N770 N 0.40858 0.03146 0.66365
 N771 N 0.42556 0.03472 0.67817
 C772 C 0.43832 0.01665 0.69067
 N773 N 0.43339 -0.00480 0.68808
 N774 N 0.41658 -0.00807 0.67342
 C775 C 0.38603 0.00618 0.64405
 N776 N 0.38557 -0.01448 0.63686
 N777 N 0.37014 -0.01783 0.62076
 C778 C 0.35440 -0.00073 0.61143
 N779 N 0.35465 0.01989 0.61881
 N780 N 0.37026 0.02331 0.63477
 C781 C 0.33832 -0.00423 0.59273
 N782 N 0.31944 0.01015 0.58663
 N783 N 0.30548 0.00732 0.56897
 C784 C 0.31006 -0.00981 0.55661
 N785 N 0.32890 -0.02418 0.56280
 N786 N 0.34269 -0.02153 0.58060
   
