data_POSCAR
  _audit_creation_date              2014-09-24
  _audit_creation_method            'ToBaCCo'
  _symmetry_space_group_name_H-M    'P1'
  _symmetry_Int_Tables_number       1
  _symmetry_cell_setting            triclinic
  loop_
  _symmetry_equiv_pos_as_xyz
 x,y,z
_cell_length_a 25.0649
_cell_length_b 25.0654
_cell_length_c 31.3767
_cell_angle_alpha 90.116500
_cell_angle_beta 90.040500
_cell_angle_gamma 89.997500
loop_
  _atom_site_label
  _atom_site_type_symbol
  _atom_site_fract_x
  _atom_site_fract_y
  _atom_site_fract_z
O1 O -0.04721 0.54976 0.95818
 O2 O -0.04851 0.45026 1.04264
 O3 O -0.04206 0.55430 1.04093
 O4 O -0.04226 0.44578 0.95990
 O5 O 0.04576 0.44967 0.95843
 O6 O 0.04585 0.54909 1.04335
 O7 O 0.03938 0.44491 1.04106
 O8 O 0.04078 0.55366 0.96052
 Cu9 Cu -0.05373 0.50009 1.00040
 Cu10 Cu 0.05167 0.49930 1.00094
 C11 C -0.00364 0.56968 0.94549
 C12 C -0.00547 0.42934 1.05559
 C13 C 0.00256 0.56976 1.05598
 C14 C 0.00235 0.42974 0.94526
 O15 O 0.55060 -0.04871 0.54239
 O16 O 0.45072 -0.04695 0.45800
 O17 O 0.55473 -0.04201 0.45969
 O18 O 0.44656 -0.04225 0.54078
 O19 O 0.45177 0.04565 0.54358
 O20 O 0.55081 0.04601 0.45861
 O21 O 0.44684 0.04103 0.46073
 O22 O 0.55594 0.03919 0.54119
 Cu23 Cu 0.50059 -0.05370 0.50016
 Cu24 Cu 0.50137 0.05170 0.50116
 C25 C 0.57158 -0.00573 0.55551
 C26 C 0.43075 -0.00331 0.44551
 C27 C 0.57069 0.00269 0.44523
 C28 C 0.43116 0.00230 0.55604
 C29 C -0.07016 0.01200 0.26801
 C30 C -0.02032 0.02265 0.24972
 C31 C -0.01036 0.07266 0.23152
 C32 C -0.05025 0.11198 0.23071
 C33 C -0.09991 0.10100 0.24975
 C34 C -0.11012 0.05124 0.26882
 C35 C 0.02140 -0.01879 0.24949
 C36 C 0.01108 -0.06875 0.23117
 C37 C 0.05060 -0.10844 0.23036
 C38 C 0.10038 -0.09777 0.24940
 C39 C 0.11102 -0.04800 0.26851
 C40 C 0.07136 -0.00844 0.26776
 H41 H -0.07712 -0.02662 0.28243
 H42 H 0.02811 0.08017 0.21699
 H43 H -0.02755 -0.07605 0.21676
 H44 H 0.07861 0.03014 0.28228
 H45 H -0.13068 0.13131 0.24975
 H46 H 0.13089 -0.12835 0.24940
 C47 C -0.01047 -0.07137 0.76800
 C48 C -0.02102 -0.02156 0.74965
 C49 C -0.07100 -0.01156 0.73130
 C50 C -0.11039 -0.05137 0.73042
 C51 C -0.09951 -0.10100 0.74949
 C52 C -0.04978 -0.11125 0.76873
 C53 C 0.02042 0.02016 0.74958
 C54 C 0.07041 0.00987 0.73140
 C55 C 0.11002 0.04946 0.73067
 C56 C 0.09927 0.09927 0.74966
 C57 C 0.04945 0.10988 0.76861
 C58 C 0.00997 0.07015 0.76778
 H59 H 0.02811 -0.07836 0.78255
 H60 H -0.07845 0.02689 0.71675
 H61 H 0.07777 -0.02877 0.71702
 H62 H -0.02865 0.07738 0.78217
 H63 H -0.12989 -0.13170 0.74944
 H64 H 0.12977 0.12985 0.74972
 C65 C 0.01594 -0.30130 0.13990
 N66 N -0.03197 -0.31314 0.12185
 N67 N -0.03710 -0.35525 0.09605
 C68 C 0.00560 -0.38683 0.08736
 N69 N 0.05320 -0.37520 0.10580
 N70 N 0.05825 -0.33337 0.13164
 C71 C 0.02338 -0.25291 0.16573
 N72 N 0.07176 -0.24204 0.18316
 N73 N 0.08007 -0.19668 0.20430
 C74 C 0.04039 -0.16020 0.20876
 N75 N -0.00820 -0.17141 0.19160
 N76 N -0.01657 -0.21686 0.17048
 C77 C -0.01838 0.30342 0.13843
 N78 N 0.03031 0.31829 0.12349
 N79 N 0.03512 0.36002 0.09738
 C80 C -0.00869 0.38806 0.08511
 N81 N -0.05711 0.37335 0.10051
 N82 N -0.06185 0.33199 0.12669
 C83 C -0.02515 0.25556 0.16484
 N84 N -0.07404 0.24303 0.18045
 N85 N -0.08167 0.19804 0.20207
 C86 C -0.04078 0.16355 0.20882
 N87 N 0.00832 0.17640 0.19347
 N88 N 0.01602 0.22154 0.17192
 C89 C 0.30264 0.01522 0.64015
 N90 N 0.31441 -0.03260 0.62189
 N91 N 0.35639 -0.03759 0.59603
 C92 C 0.38790 0.00517 0.58748
 N93 N 0.37634 0.05267 0.60612
 N94 N 0.33464 0.05759 0.63202
 C95 C 0.25435 0.02253 0.66603
 N96 N 0.24349 0.07084 0.68361
 N97 N 0.19819 0.07905 0.70477
 C98 C 0.16177 0.03933 0.70911
 N99 N 0.17297 -0.00920 0.69181
 N100 N 0.21836 -0.01747 0.67067
 C101 C -0.30209 -0.01907 0.63817
 N102 N -0.33072 -0.06248 0.62627
 N103 N -0.37220 -0.05760 0.60015
 C104 C -0.38699 -0.00911 0.58497
 N105 N -0.35889 0.03464 0.59740
 N106 N -0.31703 0.02969 0.62345
 C107 C -0.25412 -0.02598 0.66453
 N108 N -0.22006 0.01515 0.67174
 N109 N -0.17485 0.00734 0.69328
 C110 C -0.16199 -0.04181 0.70848
 N111 N -0.19652 -0.08267 0.70158
 N112 N -0.24157 -0.07493 0.67998
 C113 C -0.01571 -0.30262 0.86066
 N114 N 0.03199 -0.31429 0.87911
 N115 N 0.03673 -0.35599 0.90526
 C116 C -0.00616 -0.38726 0.91391
 N117 N -0.05353 -0.37579 0.89509
 N118 N -0.05820 -0.33440 0.86891
 C119 C -0.02283 -0.25470 0.83438
 N120 N -0.07099 -0.24426 0.81645
 N121 N -0.07916 -0.19927 0.79495
 C122 C -0.03956 -0.16272 0.79060
 N123 N 0.00884 -0.17350 0.80825
 N124 N 0.01708 -0.21860 0.82974
 C125 C 0.01524 0.30184 0.86030
 N126 N 0.05776 0.33340 0.86913
 N127 N 0.05288 0.37487 0.89534
 C128 C 0.00524 0.38664 0.91361
 N129 N -0.03767 0.35558 0.90437
 N130 N -0.03271 0.31381 0.87819
 C131 C 0.02250 0.25379 0.83405
 N132 N -0.01759 0.21797 0.82890
 N133 N -0.00932 0.17273 0.80747
 C134 C 0.03928 0.16153 0.79038
 N135 N 0.07908 0.19781 0.79522
 N136 N 0.07088 0.24294 0.81667
 C137 C -0.30169 0.01614 0.36036
 N138 N -0.33338 0.05854 0.36926
 N139 N -0.37476 0.05346 0.39543
 C140 C -0.38633 0.00576 0.41358
 N141 N -0.35515 -0.03703 0.40427
 N142 N -0.31345 -0.03188 0.37814
 C143 C -0.25372 0.02362 0.33416
 N144 N -0.21771 -0.01629 0.32901
 N145 N -0.17256 -0.00782 0.30763
 C146 C -0.16164 0.04084 0.29058
 N147 N -0.19810 0.08045 0.29543
 N148 N -0.24315 0.07204 0.31683
 C149 C 0.30277 -0.01481 0.36059
 N150 N 0.33443 -0.05743 0.36877
 N151 N 0.37589 -0.05295 0.39499
 C152 C 0.38758 -0.00565 0.41392
 N153 N 0.35642 0.03736 0.40534
 N154 N 0.31464 0.03281 0.37916
 C155 C 0.25476 -0.02172 0.33427
 N156 N 0.21885 0.01837 0.32962
 N157 N 0.17367 0.01034 0.30809
 C158 C 0.16261 -0.03802 0.29039
 N159 N 0.19898 -0.07779 0.29474
 N160 N 0.24406 -0.06983 0.31628
   
