data_POSCAR
  _audit_creation_date              2014-09-24
  _audit_creation_method            'ToBaCCo'
  _symmetry_space_group_name_H-M    'P1'
  _symmetry_Int_Tables_number       1
  _symmetry_cell_setting            triclinic
  loop_
  _symmetry_equiv_pos_as_xyz
 x,y,z
_cell_length_a 32.2750
_cell_length_b 32.3104
_cell_length_c 26.5965
_cell_angle_alpha 89.960000
_cell_angle_beta 89.942100
_cell_angle_gamma 89.834900
loop_
  _atom_site_label
  _atom_site_type_symbol
  _atom_site_fract_x
  _atom_site_fract_y
  _atom_site_fract_z
O1 O -0.03871 0.30542 0.04977
 O2 O 0.04209 0.30785 -0.04841
 O3 O -0.03911 0.30582 -0.04792
 O4 O 0.04240 0.30683 0.04928
 O5 O 0.04348 0.23841 0.04847
 O6 O -0.03697 0.23742 -0.04845
 O7 O 0.04368 0.23944 -0.04857
 O8 O -0.03703 0.23701 0.04857
 Cu9 Cu 0.00150 0.31345 0.00072
 Cu10 Cu 0.00346 0.23121 -0.00011
 C11 C -0.05185 0.27069 0.06531
 C12 C 0.05695 0.27395 -0.06458
 C13 C -0.05213 0.27128 -0.06413
 C14 C 0.05694 0.27263 0.06494
 O15 O 0.45831 0.80889 0.54802
 O16 O 0.53930 0.80738 0.45012
 O17 O 0.45810 0.80873 0.45025
 O18 O 0.53947 0.80658 0.54784
 O19 O 0.53771 0.73819 0.54743
 O20 O 0.45716 0.74031 0.45019
 O21 O 0.53802 0.73896 0.45031
 O22 O 0.45699 0.74047 0.54738
 Cu23 Cu 0.49892 0.81483 0.49907
 Cu24 Cu 0.49733 0.73263 0.49877
 C25 C 0.44362 0.77487 0.56379
 C26 C 0.55275 0.77284 0.43421
 C27 C 0.44357 0.77474 0.43419
 C28 C 0.55263 0.77187 0.56371
 O29 O 1.04137 0.69224 0.04729
 O30 O 0.96001 0.69177 -0.05017
 O31 O 1.04121 0.69371 -0.05046
 O32 O 0.96013 0.69076 0.04755
 O33 O 0.95891 0.75918 0.04854
 O34 O 1.03912 0.76207 -0.04905
 O35 O 0.95844 0.76017 -0.04854
 O36 O 1.03974 0.76063 0.04804
 Cu37 Cu 1.00085 0.68518 -0.00155
 Cu38 Cu 0.99890 0.76736 -0.00010
 C39 C 1.05472 0.72662 0.06365
 C40 C 0.94511 0.72597 -0.06533
 C41 C 1.05419 0.72854 -0.06591
 C42 C 0.94547 0.72463 0.06408
 O43 O 0.46138 0.19343 0.45172
 O44 O 0.54159 0.19155 0.55038
 O45 O 0.46044 0.19225 0.54945
 O46 O 0.54242 0.19287 0.45265
 O47 O 0.54239 0.26129 0.45406
 O48 O 0.46105 0.26068 0.55040
 O49 O 0.54183 0.25999 0.55114
 O50 O 0.46192 0.26184 0.45335
 Cu51 Cu 0.50143 0.18556 0.50097
 Cu52 Cu 0.50184 0.26782 0.50243
 C53 C 0.44782 0.22808 0.43626
 C54 C 0.55564 0.22557 0.56690
 C55 C 0.44656 0.22650 0.56579
 C56 C 0.55647 0.22730 0.43731
 O57 O 0.69194 -0.04147 0.04878
 O58 O 0.69272 0.03988 -0.04871
 O59 O 0.69117 -0.04118 -0.04891
 O60 O 0.69331 0.03959 0.04904
 O61 O 0.76179 0.03781 0.04806
 O62 O 0.75968 -0.04222 -0.04953
 O63 O 0.76120 0.03846 -0.04904
 O64 O 0.76044 -0.04276 0.04754
 Cu65 Cu 0.68533 -0.00064 0.00011
 Cu66 Cu 0.76765 -0.00231 -0.00085
 C67 C 0.72617 -0.05621 0.06414
 C68 C 0.72720 0.05332 -0.06486
 C69 C 0.72520 -0.05570 -0.06526
 C70 C 0.72804 0.05263 0.06470
 O71 O 0.19649 0.46213 0.54938
 O72 O 0.19600 0.54275 0.45103
 O73 O 0.19658 0.46168 0.45166
 O74 O 0.19590 0.54325 0.54882
 O75 O 0.26440 0.54326 0.54859
 O76 O 0.26507 0.46227 0.45204
 O77 O 0.26450 0.54280 0.45139
 O78 O 0.26499 0.46268 0.54913
 Cu79 Cu 0.18928 0.50244 0.50024
 Cu80 Cu 0.27160 0.50280 0.50030
 C81 C 0.23095 0.44844 0.56540
 C82 C 0.23029 0.55667 0.43496
 C83 C 0.23108 0.44789 0.43586
 C84 C 0.23015 0.55732 0.56473
 O85 O 0.30242 0.96163 -0.05177
 O86 O 0.30506 1.04218 0.04641
 O87 O 0.30324 0.96116 0.04597
 O88 O 0.30312 1.04273 -0.05131
 O89 O 0.23466 1.04347 -0.04968
 O90 O 0.23477 0.96289 0.04729
 O91 O 0.23656 1.04350 0.04742
 O92 O 0.23397 0.96290 -0.04982
 Cu93 Cu 0.31041 1.00180 -0.00284
 Cu94 Cu 0.22813 1.00332 -0.00104
 C95 C 0.26767 0.94824 -0.06694
 C96 C 0.27118 1.05680 0.06304
 C97 C 0.26885 0.94796 0.06266
 C98 C 0.26872 1.05720 -0.06656
 O99 O 0.80698 0.53826 0.54972
 O100 O 0.80769 0.45757 0.45187
 O101 O 0.80632 0.53862 0.45199
 O102 O 0.80680 0.45711 0.54955
 O103 O 0.73830 0.45749 0.54948
 O104 O 0.73784 0.53770 0.45202
 O105 O 0.73918 0.45711 0.45239
 O106 O 0.73847 0.53815 0.54909
 Cu107 Cu 0.81391 0.49793 0.50081
 Cu108 Cu 0.73158 0.49758 0.50076
 C109 C 0.77254 0.55226 0.56539
 C110 C 0.77350 0.44333 0.43610
 C111 C 0.77182 0.55217 0.43590
 C112 C 0.77245 0.44324 0.56557
 O113 O 0.24395 0.18707 0.23762
 O114 O 0.22446 0.27967 0.31491
 O115 O 0.18746 0.24375 0.23912
 O116 O 0.28071 0.22259 0.31410
 O117 O 0.31798 0.26024 0.26145
 O118 O 0.22472 0.28102 0.18606
 O119 O 0.26147 0.31719 0.26187
 O120 O 0.28134 0.22465 0.18503
 Cu121 Cu 0.23042 0.22948 0.28180
 Cu122 Cu 0.27518 0.27458 0.21834
 C123 C 0.26517 0.19043 0.19762
 C124 C 0.24026 0.31397 0.30187
 C125 C 0.19050 0.26513 0.19929
 C126 C 0.31494 0.23855 0.30108
 O127 O 0.75782 0.81230 0.23633
 O128 O 0.77811 0.71975 0.31344
 O129 O 0.81424 0.75522 0.23648
 O130 O 0.72196 0.77683 0.31352
 O131 O 0.68386 0.73924 0.26188
 O132 O 0.77611 0.71794 0.18452
 O133 O 0.74029 0.68223 0.26140
 O134 O 0.71963 0.77478 0.18470
 Cu135 Cu 0.77188 0.76982 0.28014
 Cu136 Cu 0.72613 0.72478 0.21791
 C137 C 0.73589 0.80903 0.19696
 C138 C 0.76200 0.68549 0.30094
 C139 C 0.81063 0.73359 0.19693
 C140 C 0.68748 0.76101 0.30132
 O141 O 0.81730 0.23849 0.23919
 O142 O 0.72411 0.21896 0.31528
 O143 O 0.76027 0.18234 0.23908
 O144 O 0.78104 0.27473 0.31551
 O145 O 0.74378 0.31269 0.26306
 O146 O 0.72329 0.22028 0.18632
 O147 O 0.68691 0.25668 0.26250
 O148 O 0.78013 0.27645 0.18665
 Cu149 Cu 0.77445 0.22477 0.28252
 Cu150 Cu 0.72979 0.27034 0.21929
 C151 C 0.81432 0.26019 0.19957
 C152 C 0.68994 0.23527 0.30234
 C153 C 0.73893 0.18582 0.19926
 C154 C 0.76515 0.30914 0.30285
 O155 O 0.27732 0.78000 0.18365
 O156 O 0.25839 0.68663 0.25938
 O157 O 0.22201 0.72241 0.18267
 O158 O 0.31368 0.74430 0.26043
 O159 O 0.27479 0.78086 0.31262
 O160 O 0.18311 0.75900 0.23482
 O161 O 0.21963 0.72327 0.31166
 O162 O 0.23863 0.81664 0.23599
 Cu163 Cu 0.27176 0.72965 0.21626
 Cu164 Cu 0.22507 0.77362 0.27898
 C165 C 0.26056 0.81394 0.19651
 C166 C 0.23660 0.68938 0.29898
 C167 C 0.18720 0.73770 0.19504
 C168 C 0.30958 0.76556 0.30024
 O169 O 0.68638 0.25614 0.73969
 O170 O 0.77911 0.27658 0.81604
 O171 O 0.74265 0.31291 0.73997
 O172 O 0.72222 0.22052 0.81674
 O173 O 0.76013 0.18271 0.76480
 O174 O 0.77990 0.27515 0.68727
 O175 O 0.81680 0.23926 0.76333
 O176 O 0.72409 0.21813 0.68773
 Cu177 Cu 0.72879 0.27034 0.78339
 Cu178 Cu 0.77405 0.22498 0.72055
 C179 C 0.68975 0.23430 0.70024
 C180 C 0.81352 0.26081 0.80298
 C181 C 0.76397 0.30952 0.70008
 C182 C 0.73835 0.18616 0.80435
 O183 O 0.31311 0.74600 0.73783
 O184 O 0.22059 0.72480 0.81462
 O185 O 0.25762 0.68860 0.73876
 O186 O 0.27613 0.78228 0.81401
 O187 O 0.23784 0.81879 0.76115
 O188 O 0.21967 0.72518 0.68559
 O189 O 0.18236 0.76112 0.76150
 O190 O 0.27488 0.78268 0.68507
 Cu191 Cu 0.27073 0.73178 0.78167
 Cu192 Cu 0.22482 0.77565 0.71805
 C193 C 0.30945 0.76713 0.69783
 C194 C 0.18595 0.73998 0.80150
 C195 C 0.23629 0.69125 0.69884
 C196 C 0.25941 0.81619 0.80090
 O197 O 0.26029 0.31698 0.73924
 O198 O 0.27885 0.22316 0.81445
 O199 O 0.31558 0.25886 0.73807
 O200 O 0.22369 0.28107 0.81555
 O201 O 0.18499 0.24489 0.76305
 O202 O 0.27685 0.22277 0.68552
 O203 O 0.24030 0.18700 0.76177
 O204 O 0.22171 0.28081 0.68662
 Cu205 Cu 0.27352 0.27369 0.78209
 Cu206 Cu 0.22703 0.23026 0.71893
 C207 C 0.23855 0.31457 0.69964
 C208 C 0.26200 0.18941 0.80140
 C209 C 0.31162 0.23770 0.69820
 C210 C 0.18897 0.26593 0.80302
 O211 O 0.72054 0.77719 0.68563
 O212 O 0.81329 0.75720 0.76260
 O213 O 0.77775 0.72117 0.68571
 O214 O 0.75605 0.81343 0.76237
 O215 O 0.71879 0.77536 0.81458
 O216 O 0.74013 0.68317 0.73761
 O217 O 0.77582 0.71908 0.81450
 O218 O 0.68302 0.73946 0.73793
 Cu219 Cu 0.77069 0.77108 0.71885
 Cu220 Cu 0.72568 0.72543 0.78140
 C221 C 0.68625 0.76109 0.69828
 C222 C 0.81007 0.73537 0.80209
 C223 C 0.76189 0.68675 0.69810
 C224 C 0.73443 0.80984 0.80199
 C225 C 0.28756 0.11150 0.17574
 C226 C 0.24928 0.09071 0.15136
 C227 C 0.27161 0.09127 0.10028
 C228 C 0.30996 0.11151 0.12406
 C229 C 0.25312 0.13399 0.08797
 C230 C 0.23078 0.13384 0.13938
 C231 C 0.26903 0.15415 0.16326
 C232 C 0.29137 0.15468 0.11214
 H233 H 0.30174 0.10268 0.21223
 H234 H 0.23197 0.06403 0.16707
 H235 H 0.34257 0.10196 0.11740
 H236 H 0.23895 0.14294 0.05151
 H237 H 0.19816 0.14346 0.14593
 H238 H 0.30870 0.18127 0.09621
 C239 C 0.78606 0.60822 0.67767
 C240 C 0.74857 0.58648 0.65271
 C241 C 0.77168 0.58701 0.60217
 C242 C 0.80926 0.60821 0.62651
 C243 C 0.75258 0.62925 0.58883
 C244 C 0.72943 0.62913 0.63971
 C245 C 0.76691 0.65039 0.66416
 C246 C 0.79003 0.65090 0.61358
 H247 H 0.79983 0.60003 0.71460
 H248 H 0.73154 0.55960 0.66839
 H249 H 0.84214 0.59922 0.62074
 H250 H 0.73881 0.63757 0.55193
 H251 H 0.69655 0.63818 0.64540
 H252 H 0.80709 0.67768 0.59769
 C253 C 0.71209 0.88778 0.17654
 C254 C 0.74968 0.90937 0.15150
 C255 C 0.72661 0.90898 0.10098
 C256 C 0.68892 0.88794 0.12541
 C257 C 0.74554 0.86665 0.08768
 C258 C 0.76864 0.86665 0.13853
 C259 C 0.73107 0.84552 0.16306
 C260 C 0.70796 0.84517 0.11250
 H261 H 0.69834 0.89603 0.21348
 H262 H 0.76683 0.93615 0.16716
 H263 H 0.65608 0.89708 0.11967
 H264 H 0.75931 0.85826 0.05079
 H265 H 0.80149 0.85753 0.14419
 H266 H 0.69080 0.81847 0.09664
 C267 C 0.25364 0.39419 0.67608
 C268 C 0.27196 0.39407 0.62231
 C269 C 0.23174 0.41399 0.60273
 C270 C 0.21333 0.41458 0.65605
 C271 C 0.21294 0.37111 0.59272
 C272 C 0.25317 0.35089 0.61267
 C273 C 0.23482 0.35131 0.66604
 C274 C 0.19455 0.37111 0.64657
 H275 H 0.27038 0.40342 0.71072
 H276 H 0.30389 0.40365 0.61212
 H277 H 0.19696 0.44123 0.67345
 H278 H 0.19627 0.36198 0.55798
 H279 H 0.26964 0.32433 0.59517
 H280 H 0.16275 0.36126 0.65698
 C281 C 0.89413 0.24590 0.17546
 C282 C 0.89417 0.22854 0.12127
 C283 C 0.91368 0.26914 0.10263
 C284 C 0.91410 0.28661 0.15637
 C285 C 0.87056 0.28790 0.09311
 C286 C 0.85074 0.24728 0.11211
 C287 C 0.85099 0.26466 0.16590
 C288 C 0.87038 0.30532 0.14738
 H289 H 0.90356 0.22862 0.20968
 H290 H 0.90408 0.19688 0.11032
 H291 H 0.94062 0.30277 0.17414
 H292 H 0.86123 0.30511 0.05878
 H293 H 0.82435 0.23112 0.09410
 H294 H 0.86019 0.33684 0.15855
 C295 C 0.34521 0.79415 0.61272
 C296 C 0.38816 0.81292 0.62497
 C297 C 0.40897 0.77488 0.60091
 C298 C 0.36648 0.75622 0.58828
 C299 C 0.40961 0.75228 0.65178
 C300 C 0.38824 0.79024 0.67645
 C301 C 0.34581 0.77153 0.66363
 C302 C 0.36671 0.73360 0.63947
 H303 H 0.31844 0.81138 0.59686
 H304 H 0.39735 0.84559 0.61865
 H305 H 0.35783 0.74220 0.55168
 H306 H 0.43647 0.73506 0.66743
 H307 H 0.39675 0.80424 0.71310
 H308 H 0.35745 0.70092 0.64569
 C309 C 0.15206 0.70999 0.10989
 C310 C 0.10968 0.68998 0.12238
 C311 C 0.08777 0.72749 0.09850
 C312 C 0.12967 0.74736 0.08554
 C313 C 0.08659 0.75002 0.14936
 C314 C 0.10909 0.71262 0.17386
 C315 C 0.15096 0.73253 0.16081
 C316 C 0.12894 0.76990 0.13678
 H317 H 0.17927 0.69354 0.09386
 H318 H 0.10144 0.65705 0.11618
 H319 H 0.13787 0.76163 0.04888
 H320 H 0.05931 0.76647 0.16523
 H321 H 0.10107 0.69835 0.21057
 H322 H 0.13729 0.80282 0.14296
 C323 C 0.63224 0.26735 0.64197
 C324 C 0.63253 0.24445 0.59101
 C325 C 0.59015 0.22565 0.60401
 C326 C 0.58946 0.24853 0.65465
 C327 C 0.61115 0.18783 0.62831
 C328 C 0.65398 0.20675 0.61570
 C329 C 0.65333 0.22965 0.66638
 C330 C 0.61102 0.21080 0.67957
 H331 H 0.64136 0.30010 0.64785
 H332 H 0.64106 0.25828 0.55421
 H333 H 0.56252 0.26569 0.67024
 H334 H 0.60208 0.15510 0.62232
 H335 H 0.68082 0.18957 0.59988
 H336 H 0.60264 0.19697 0.71641
 C337 C 0.71030 0.15046 0.88890
 C338 C 0.69072 0.10803 0.87603
 C339 C 0.72819 0.08637 0.90032
 C340 C 0.74764 0.12832 0.91363
 C341 C 0.75125 0.08551 0.84974
 C342 C 0.71389 0.10778 0.82483
 C343 C 0.73338 0.14970 0.83825
 C344 C 0.77073 0.12792 0.86267
 H345 H 0.69348 0.17746 0.90481
 H346 H 0.65775 0.09954 0.88181
 H347 H 0.76150 0.13649 0.95050
 H348 H 0.76807 0.05843 0.83401
 H349 H 0.70003 0.09979 0.78793
 H350 H 0.80367 0.13655 0.85690
 C351 C 0.19304 0.63313 0.35290
 C352 C 0.21229 0.58966 0.34399
 C353 C 0.23069 0.59085 0.39726
 C354 C 0.21142 0.63372 0.40671
 C355 C 0.27070 0.61078 0.37731
 C356 C 0.25239 0.61005 0.32359
 C357 C 0.23310 0.65293 0.33306
 C358 C 0.25143 0.65395 0.38639
 H359 H 0.16115 0.64272 0.34241
 H360 H 0.19622 0.56277 0.32700
 H361 H 0.19465 0.64310 0.44137
 H362 H 0.30273 0.60146 0.38756
 H363 H 0.26924 0.60058 0.28904
 H364 H 0.26762 0.68075 0.40348
 C365 C 0.30345 0.87295 0.85320
 C366 C 0.28405 0.91635 0.84412
 C367 C 0.26635 0.91554 0.89778
 C368 C 0.28581 0.87279 0.90743
 C369 C 0.22607 0.89545 0.87904
 C370 C 0.24369 0.89573 0.82489
 C371 C 0.26315 0.85293 0.83453
 C372 C 0.24554 0.85235 0.88827
 H373 H 0.33521 0.86330 0.84216
 H374 H 0.29986 0.94311 0.82636
 H375 H 0.30305 0.86365 0.94182
 H376 H 0.19413 0.90475 0.88981
 H377 H 0.22638 0.90491 0.79059
 H378 H 0.22975 0.82570 0.90626
 C379 C 0.78835 0.38779 0.32368
 C380 C 0.75046 0.40926 0.34845
 C381 C 0.77324 0.40869 0.39917
 C382 C 0.81121 0.38777 0.37500
 C383 C 0.75451 0.36632 0.41217
 C384 C 0.73171 0.36648 0.36112
 C385 C 0.76958 0.34549 0.33686
 C386 C 0.79236 0.34495 0.38762
 H387 H 0.80228 0.39616 0.28689
 H388 H 0.73324 0.43610 0.33277
 H389 H 0.84395 0.39691 0.38107
 H390 H 0.74058 0.35782 0.44894
 H391 H 0.69896 0.35727 0.35514
 H392 H 0.80961 0.31820 0.40351
 C393 C 0.11030 0.28956 0.82476
 C394 C 0.08904 0.25163 0.84943
 C395 C 0.08981 0.27415 0.90029
 C396 C 0.11046 0.31219 0.87627
 C397 C 0.13233 0.25528 0.91285
 C398 C 0.13199 0.23275 0.86162
 C399 C 0.15279 0.27064 0.83743
 C400 C 0.15349 0.29317 0.88835
 H401 H 0.10172 0.30365 0.78813
 H402 H 0.06218 0.23455 0.83381
 H403 H 0.10127 0.34490 0.88260
 H404 H 0.14111 0.24117 0.94942
 H405 H 0.14129 0.20005 0.85534
 H406 H 0.18029 0.31025 0.90411
 C407 C 0.60906 0.78584 0.32186
 C408 C 0.58685 0.74860 0.34681
 C409 C 0.58758 0.77160 0.39737
 C410 C 0.60925 0.80893 0.37302
 C411 C 0.62965 0.75201 0.41066
 C412 C 0.62932 0.72899 0.35976
 C413 C 0.65106 0.76622 0.33531
 C414 C 0.65176 0.78923 0.38592
 H415 H 0.60104 0.79975 0.28494
 H416 H 0.55977 0.73192 0.33113
 H417 H 0.60062 0.84186 0.37880
 H418 H 0.63779 0.73811 0.44755
 H419 H 0.63803 0.69605 0.35405
 H420 H 0.67874 0.80593 0.40181
 C421 C 0.84640 0.70758 0.88655
 C422 C 0.88929 0.68872 0.87355
 C423 C 0.91023 0.72642 0.89790
 C424 C 0.86779 0.74517 0.91127
 C425 C 0.91052 0.74950 0.84734
 C426 C 0.88902 0.71189 0.82240
 C427 C 0.84665 0.73069 0.83595
 C428 C 0.86768 0.76828 0.86039
 H429 H 0.81975 0.69033 0.90250
 H430 H 0.89854 0.65594 0.87929
 H431 H 0.85935 0.75888 0.94816
 H432 H 0.93726 0.76674 0.83159
 H433 H 0.89733 0.69820 0.78546
 H434 H 0.85844 0.80107 0.85472
 C435 C 0.35068 0.25118 0.38864
 C436 C 0.37067 0.21058 0.40768
 C437 C 0.41369 0.22947 0.39860
 C438 C 0.39399 0.27006 0.37990
 C439 C 0.41469 0.21212 0.34481
 C440 C 0.37105 0.19327 0.35336
 C441 C 0.35148 0.23392 0.33479
 C442 C 0.39452 0.25281 0.32566
 H443 H 0.32401 0.26722 0.40648
 H444 H 0.36123 0.19329 0.44189
 H445 H 0.40354 0.30173 0.39103
 H446 H 0.44148 0.19605 0.32725
 H447 H 0.36120 0.16175 0.34199
 H448 H 0.40406 0.27019 0.29157
 C449 C 0.76713 0.86766 0.85958
 C450 C 0.74768 0.91021 0.84691
 C451 C 0.72522 0.90962 0.89788
 C452 C 0.74464 0.86746 0.91086
 C453 C 0.68740 0.88830 0.87427
 C454 C 0.70996 0.88833 0.82267
 C455 C 0.72945 0.84623 0.83585
 C456 C 0.70695 0.84567 0.88686
 H457 H 0.79998 0.85881 0.85327
 H458 H 0.76441 0.93715 0.83089
 H459 H 0.75893 0.85919 0.94749
 H460 H 0.65458 0.89719 0.88066
 H461 H 0.69571 0.89644 0.78599
 H462 H 0.69021 0.81882 0.90308
 C463 C 0.25465 0.39346 0.32576
 C464 C 0.21411 0.41374 0.34528
 C465 C 0.23205 0.41327 0.39880
 C466 C 0.27249 0.39343 0.37970
 C467 C 0.21329 0.37034 0.40874
 C468 C 0.19538 0.37020 0.35468
 C469 C 0.23590 0.35051 0.33571
 C470 C 0.25375 0.35020 0.38929
 H471 H 0.27169 0.40274 0.29129
 H472 H 0.19782 0.44031 0.32761
 H473 H 0.30431 0.40310 0.39017
 H474 H 0.19633 0.36120 0.44333
 H475 H 0.16372 0.36024 0.34397
 H476 H 0.27003 0.32375 0.40722
 C477 C 0.24735 0.15331 0.88846
 C478 C 0.22803 0.11034 0.87883
 C479 C 0.26810 0.09001 0.89828
 C480 C 0.28741 0.13263 0.90832
 C481 C 0.28643 0.08916 0.84494
 C482 C 0.24629 0.11001 0.82503
 C483 C 0.26560 0.15268 0.83503
 C484 C 0.30570 0.13245 0.85439
 H485 H 0.23120 0.18005 0.90599
 H486 H 0.19596 0.10120 0.88901
 H487 H 0.30423 0.14160 0.94303
 H488 H 0.30247 0.06234 0.82746
 H489 H 0.22939 0.10098 0.79042
 H490 H 0.33757 0.14197 0.84388
 C491 C 0.74830 0.64939 0.38839
 C492 C 0.73020 0.60588 0.37898
 C493 C 0.77076 0.58665 0.39858
 C494 C 0.78888 0.62985 0.40835
 C495 C 0.78909 0.58619 0.34521
 C496 C 0.74844 0.60586 0.32520
 C497 C 0.76656 0.64908 0.33497
 C498 C 0.80718 0.63000 0.35444
 H499 H 0.73142 0.67573 0.40581
 H500 H 0.69843 0.59584 0.38926
 H501 H 0.80546 0.63936 0.44301
 H502 H 0.80587 0.55976 0.32788
 H503 H 0.73178 0.59623 0.29065
 H504 H 0.83879 0.64033 0.34390
 C505 C 0.10603 0.75312 0.82562
 C506 C 0.08662 0.71230 0.84527
 C507 C 0.08691 0.73028 0.89876
 C508 C 0.10581 0.77100 0.87957
 C509 C 0.13026 0.71219 0.90852
 C510 C 0.13063 0.69428 0.85444
 C511 C 0.14944 0.73505 0.83535
 C512 C 0.14950 0.75292 0.88892
 H513 H 0.09633 0.76996 0.79119
 H514 H 0.06032 0.69561 0.82773
 H515 H 0.09557 0.80269 0.89001
 H516 H 0.13990 0.69543 0.94306
 H517 H 0.14126 0.66281 0.84368
 H518 H 0.17568 0.76958 0.90669
 C519 C 0.61036 0.25022 0.32660
 C520 C 0.59025 0.20991 0.34665
 C521 C 0.59097 0.22814 0.40002
 C522 C 0.61062 0.26836 0.38040
 C523 C 0.63402 0.20928 0.40970
 C524 C 0.63389 0.19108 0.35580
 C525 C 0.65342 0.23135 0.33630
 C526 C 0.65399 0.24952 0.38971
 H527 H 0.60088 0.26706 0.29206
 H528 H 0.56357 0.19364 0.32939
 H529 H 0.60093 0.30023 0.39074
 H530 H 0.64338 0.19253 0.44435
 H531 H 0.64387 0.15935 0.34523
 H532 H 0.68057 0.26591 0.40707
 C533 C 0.85060 0.24707 0.88971
 C534 C 0.89434 0.22944 0.87946
 C535 C 0.91314 0.27004 0.89904
 C536 C 0.86972 0.28769 0.90965
 C537 C 0.91284 0.28862 0.84582
 C538 C 0.89358 0.24792 0.82583
 C539 C 0.85015 0.26557 0.83645
 C540 C 0.86881 0.30623 0.85589
 H541 H 0.82464 0.22989 0.90740
 H542 H 0.90498 0.19776 0.88934
 H543 H 0.86031 0.30400 0.94459
 H544 H 0.93890 0.30570 0.82822
 H545 H 0.90313 0.23153 0.79100
 H546 H 0.85787 0.33775 0.84575
 C547 C 0.34487 0.79316 0.38541
 C548 C 0.36660 0.75551 0.40991
 C549 C 0.40888 0.77469 0.39717
 C550 C 0.38761 0.81246 0.37306
 C551 C 0.40979 0.75206 0.34635
 C552 C 0.36714 0.73286 0.35878
 C553 C 0.34577 0.77051 0.33456
 C554 C 0.38798 0.78974 0.32164
 H555 H 0.31787 0.81006 0.40127
 H556 H 0.35809 0.74141 0.44656
 H557 H 0.39640 0.84524 0.37928
 H558 H 0.43686 0.73516 0.33067
 H559 H 0.35829 0.70006 0.35268
 H560 H 0.39634 0.80381 0.28493
 C561 C 0.24624 0.89375 0.17320
 C562 C 0.28667 0.91357 0.15294
 C563 C 0.26808 0.91337 0.09975
 C564 C 0.22774 0.89401 0.11958
 C565 C 0.28644 0.87024 0.08946
 C566 C 0.30501 0.86984 0.14318
 C567 C 0.26461 0.85061 0.16289
 C568 C 0.24609 0.85057 0.10965
 H569 H 0.22969 0.90316 0.20799
 H570 H 0.30335 0.93993 0.17030
 H571 H 0.19586 0.90407 0.10967
 H572 H 0.30291 0.86094 0.05457
 H573 H 0.33674 0.85948 0.15334
 H574 H 0.22931 0.82429 0.09220
 C575 C 0.80867 0.36514 0.64635
 C576 C 0.79013 0.36546 0.59259
 C577 C 0.77179 0.40864 0.60274
 C578 C 0.79035 0.40892 0.65595
 C579 C 0.73143 0.38932 0.62260
 C580 C 0.74975 0.34584 0.61282
 C581 C 0.76824 0.34597 0.66607
 C582 C 0.74990 0.38916 0.67622
 H583 H 0.84038 0.35478 0.65654
 H584 H 0.80661 0.35608 0.55774
 H585 H 0.80704 0.43529 0.67327
 H586 H 0.69955 0.39938 0.61267
 H587 H 0.73296 0.31956 0.59541
 H588 H 0.73333 0.39868 0.71095
 C589 C 0.75196 0.14961 0.11177
 C590 C 0.77025 0.10604 0.12102
 C591 C 0.72956 0.08697 0.10204
 C592 C 0.71124 0.13023 0.09243
 C593 C 0.71170 0.08659 0.15564
 C594 C 0.75251 0.10611 0.17506
 C595 C 0.73420 0.14940 0.16543
 C596 C 0.69344 0.13046 0.14657
 H597 H 0.76850 0.17587 0.09392
 H598 H 0.80193 0.09587 0.11031
 H599 H 0.69434 0.13979 0.05797
 H600 H 0.69516 0.06021 0.17324
 H601 H 0.76950 0.09644 0.20940
 H602 H 0.66191 0.14091 0.15751
 C603 C 0.25188 0.61168 0.67537
 C604 C 0.21180 0.59129 0.65506
 C605 C 0.23048 0.59189 0.60187
 C606 C 0.27048 0.61182 0.62175
 C607 C 0.21147 0.63476 0.59167
 C608 C 0.19280 0.63476 0.64538
 C609 C 0.23285 0.65456 0.66514
 C610 C 0.25147 0.65501 0.61190
 H611 H 0.26850 0.60244 0.71014
 H612 H 0.19550 0.56463 0.67239
 H613 H 0.30252 0.60227 0.61182
 H614 H 0.19492 0.64390 0.55678
 H615 H 0.16089 0.64459 0.65554
 H616 H 0.26788 0.68157 0.59449
 C617 C 0.88922 0.70913 0.17616
 C618 C 0.88929 0.68665 0.12457
 C619 C 0.91066 0.72445 0.10094
 C620 C 0.91116 0.74684 0.15190
 C621 C 0.86845 0.74385 0.08795
 C622 C 0.84661 0.70617 0.11198
 C623 C 0.84709 0.72860 0.16298
 C624 C 0.86857 0.76626 0.13921
 H625 H 0.89731 0.69486 0.21285
 H626 H 0.89821 0.65386 0.11820
 H627 H 0.93809 0.76354 0.16793
 H628 H 0.86021 0.75815 0.05132
 H629 H 0.81976 0.68946 0.09577
 H630 H 0.85970 0.79908 0.14549
 C631 C 0.37006 0.26965 0.64049
 C632 C 0.41234 0.24959 0.65331
 C633 C 0.41158 0.22716 0.60237
 C634 C 0.36970 0.24719 0.58924
 C635 C 0.38960 0.18972 0.62601
 C636 C 0.38981 0.21224 0.67755
 C637 C 0.34800 0.23232 0.66424
 C638 C 0.34725 0.20987 0.61328
 H639 H 0.36158 0.30259 0.64669
 H640 H 0.43950 0.26590 0.66937
 H641 H 0.36176 0.26156 0.55254
 H642 H 0.39803 0.15680 0.61970
 H643 H 0.39761 0.19788 0.71428
 H644 H 0.32018 0.19355 0.59703
 C645 C 0.13424 0.30949 0.14585
 C646 C 0.13434 0.29098 0.09209
 C647 C 0.09139 0.27226 0.10216
 C648 C 0.09067 0.29079 0.15537
 C649 C 0.11124 0.23212 0.12201
 C650 C 0.15449 0.25082 0.11230
 C651 C 0.15394 0.26927 0.16556
 C652 C 0.11097 0.25055 0.17563
 H653 H 0.14413 0.34124 0.15613
 H654 H 0.14356 0.30752 0.05725
 H655 H 0.06395 0.30720 0.17262
 H656 H 0.10166 0.20020 0.11200
 H657 H 0.18110 0.23428 0.09494
 H658 H 0.10162 0.23391 0.21035
 C659 C 0.63080 0.80638 0.64497
 C660 C 0.63052 0.78821 0.59105
 C661 C 0.58718 0.77030 0.60094
 C662 C 0.58687 0.78850 0.65434
 C663 C 0.60625 0.72965 0.62042
 C664 C 0.64991 0.74754 0.61090
 C665 C 0.64975 0.76567 0.66434
 C666 C 0.60640 0.74775 0.67424
 H667 H 0.64130 0.83789 0.65550
 H668 H 0.64010 0.80480 0.55638
 H669 H 0.56052 0.80534 0.67179
 H670 H 0.59603 0.69799 0.61013
 H671 H 0.67618 0.73060 0.59336
 H672 H 0.59671 0.73108 0.70880
   
