data_POSCAR
  _audit_creation_date              2014-09-24
  _audit_creation_method            'ToBaCCo'
  _symmetry_space_group_name_H-M    'P1'
  _symmetry_Int_Tables_number       1
  _symmetry_cell_setting            triclinic
  loop_
  _symmetry_equiv_pos_as_xyz
 x,y,z
_cell_length_a 49.1245
_cell_length_b 51.2758
_cell_length_c 8.7861
_cell_angle_alpha 90.003200
_cell_angle_beta 90.059700
_cell_angle_gamma 90.048200
loop_
  _atom_site_label
  _atom_site_type_symbol
  _atom_site_fract_x
  _atom_site_fract_y
  _atom_site_fract_z
C1 C 0.19152 0.22584 0.23671
 C2 C 0.17826 0.24996 0.22012
 C3 C 0.19239 0.27358 0.22479
 C4 C 0.22082 0.27363 0.24874
 C5 C 0.23473 0.24968 0.27021
 C6 C 0.22002 0.22579 0.26813
 C7 C 0.23373 0.20292 0.31209
 C8 C 0.26155 0.20295 0.34096
 C9 C 0.27715 0.22585 0.32738
 C10 C 0.26327 0.24971 0.29975
 C11 C 0.23549 0.29711 0.25819
 C12 C 0.26330 0.29714 0.28679
 C13 C 0.27762 0.27369 0.30725
 C14 C 0.30572 0.27370 0.34135
 C15 C 0.31921 0.25011 0.36585
 C16 C 0.30576 0.22597 0.35517
 H17 H 0.22297 0.18481 0.33069
 H18 H 0.27043 0.18486 0.37993
 H19 H 0.22554 0.31582 0.24653
 H20 H 0.27334 0.31586 0.29573
 H21 H 0.15665 0.25054 0.19486
 H22 H 0.34101 0.25073 0.38533
 C23 C 0.80730 0.27341 0.16414
 C24 C 0.82034 0.24920 0.14660
 C25 C 0.80661 0.22561 0.16732
 C26 C 0.77858 0.22569 0.20289
 C27 C 0.76460 0.24977 0.21633
 C28 C 0.77878 0.27369 0.19466
 C29 C 0.76356 0.29697 0.19169
 C30 C 0.73581 0.29709 0.22254
 C31 C 0.72178 0.27384 0.25361
 C32 C 0.73614 0.24988 0.24684
 C33 C 0.76397 0.20228 0.21960
 C34 C 0.73624 0.20242 0.25105
 C35 C 0.72193 0.22598 0.26626
 C36 C 0.69358 0.22628 0.29485
 C37 C 0.67984 0.25010 0.30310
 C38 C 0.69349 0.27381 0.28408
 H39 H 0.77267 0.31540 0.16064
 H40 H 0.72534 0.31562 0.21781
 H41 H 0.77372 0.18352 0.20602
 H42 H 0.72607 0.18377 0.26043
 H43 H 0.84207 0.24851 0.12513
 H44 H 0.65815 0.25018 0.32630
 C45 C 0.69318 0.72681 0.70251
 C46 C 0.67944 0.75062 0.69392
 C47 C 0.69307 0.77433 0.71363
 C48 C 0.72134 0.77436 0.74512
 C49 C 0.73569 0.75040 0.75229
 C50 C 0.72151 0.72651 0.73219
 C51 C 0.73581 0.70294 0.74784
 C52 C 0.76350 0.70280 0.78030
 C53 C 0.77810 0.72622 0.79764
 C54 C 0.76412 0.75029 0.78387
 C55 C 0.73534 0.79761 0.77685
 C56 C 0.76306 0.79749 0.80870
 C57 C 0.77828 0.77421 0.80615
 C58 C 0.80678 0.77393 0.83763
 C59 C 0.81981 0.74972 0.85549
 C60 C 0.80610 0.72613 0.83411
 H61 H 0.72564 0.68430 0.73797
 H62 H 0.77325 0.68404 0.79410
 H63 H 0.72486 0.81614 0.78135
 H64 H 0.77216 0.81591 0.84017
 H65 H 0.65777 0.75070 0.66998
 H66 H 0.84153 0.74901 0.87762
 C67 C 0.19134 0.72556 0.75015
 C68 C 0.17763 0.74958 0.75349
 C69 C 0.19139 0.77360 0.75154
 C70 C 0.22019 0.77364 0.73407
 C71 C 0.23454 0.74960 0.72611
 C72 C 0.22014 0.72555 0.73251
 C73 C 0.23471 0.70227 0.70749
 C74 C 0.26281 0.70231 0.68980
 C75 C 0.27761 0.72570 0.69109
 C76 C 0.26332 0.74962 0.70523
 C77 C 0.23481 0.79696 0.71068
 C78 C 0.26291 0.79695 0.69330
 C79 C 0.27766 0.77356 0.69304
 C80 C 0.30625 0.77342 0.67270
 C81 C 0.32001 0.74966 0.66150
 C82 C 0.30619 0.72588 0.67049
 H83 H 0.22454 0.68369 0.69607
 H84 H 0.27269 0.68375 0.67059
 H85 H 0.22468 0.81557 0.70034
 H86 H 0.27283 0.81555 0.67539
 H87 H 0.15584 0.74957 0.77357
 H88 H 0.34193 0.74968 0.64632
 O89 O 0.97456 -0.02170 -0.15713
 O90 O 1.02745 0.02843 -0.10083
 O91 O 1.02746 -0.02156 -0.15610
 O92 O 0.97452 0.02831 -0.10254
 O93 O 0.97442 0.02088 0.14462
 O94 O 1.02730 -0.02922 0.09082
 O95 O 1.02735 0.02076 0.14609
 O96 O 0.97441 -0.02910 0.09006
 Cu97 Cu 1.00101 0.00420 -0.15344
 Cu98 Cu 1.00086 -0.00498 0.14219
 C99 C 0.96553 -0.03410 -0.04256
 C100 C 1.03637 0.03327 0.03197
 C101 C 1.03632 -0.03409 -0.04161
 C102 C 0.96549 0.03327 0.02970
 O103 O 0.52732 0.47151 0.58497
 O104 O 0.47445 0.52145 0.64213
 O105 O 0.47442 0.47142 0.58884
 O106 O 0.52736 0.52153 0.63799
 O107 O 0.52674 0.52886 0.39075
 O108 O 0.47382 0.47860 0.34145
 O109 O 0.47382 0.52863 0.39476
 O110 O 0.52674 0.47881 0.33770
 Cu111 Cu 0.50096 0.49568 0.63776
 Cu112 Cu 0.50021 0.50453 0.34189
 C113 C 0.53600 0.46649 0.45202
 C114 C 0.46515 0.53370 0.52765
 C115 C 0.46514 0.46630 0.45720
 C116 C 0.53603 0.53391 0.52250
 O117 O -0.02609 0.52850 0.10073
 O118 O 0.02721 0.47887 0.15115
 O119 O 0.02683 0.52886 0.09628
 O120 O -0.02569 0.47847 0.15523
 O121 O -0.02631 0.47110 -0.09197
 O122 O 0.02626 0.52123 -0.15067
 O123 O 0.02658 0.47125 -0.09580
 O124 O -0.02664 0.52110 -0.14645
 Cu125 Cu 0.00063 0.50450 0.15014
 Cu126 Cu -0.00009 0.49536 -0.14550
 C127 C -0.03539 0.53345 -0.03106
 C128 C 0.03592 0.46642 0.03609
 C129 C 0.03545 0.53377 -0.03696
 C130 C -0.03489 0.46604 0.04108
 O131 O 0.47337 1.02911 0.61033
 O132 O 0.52638 0.97926 0.66354
 O133 O 0.52631 1.02929 0.61052
 O134 O 0.47346 0.97906 0.66328
 O135 O 0.47344 0.97194 0.41581
 O136 O 0.52634 1.02199 0.36323
 O137 O 0.52635 0.97196 0.41624
 O138 O 0.47339 1.02199 0.36287
 Cu139 Cu 0.49988 1.00498 0.66117
 Cu140 Cu 0.49988 0.99618 0.36527
 C141 C 0.46439 1.03422 0.47807
 C142 C 0.53535 0.96694 0.54862
 C143 C 0.53531 1.03433 0.47824
 C144 C 0.46449 0.96678 0.54800
 C145 C 1.14371 0.15796 0.16636
 C146 C 1.16977 0.15965 0.10311
 C147 C 1.18571 0.18189 0.12715
 C148 C 1.17594 0.20278 0.21646
 C149 C 1.14942 0.20088 0.27721
 C150 C 1.13359 0.17862 0.25316
 C151 C 1.12703 0.13531 0.14065
 C152 C 1.11251 0.11667 0.12033
 C153 C 1.09454 0.09484 0.09723
 C154 C 1.08513 0.08052 0.22213
 C155 C 1.06653 0.06018 0.20081
 C156 C 1.05706 0.05395 0.05400
 C157 C 1.06698 0.06822 -0.07112
 C158 C 1.08558 0.08854 -0.04946
 H159 H 1.17765 0.14391 0.03371
 H160 H 1.20536 0.18307 0.07174
 H161 H 1.14110 0.21634 0.34705
 H162 H 1.11340 0.17755 0.30230
 H163 H 1.09187 0.08530 0.33625
 H164 H 1.05930 0.04960 0.29947
 H165 H 1.06012 0.06392 -0.18557
 H166 H 1.09269 0.09956 -0.14689
 C167 C 0.64466 0.65812 0.63962
 C168 C 0.66500 0.66434 0.53398
 C169 C 0.68108 0.68660 0.55492
 C170 C 0.67698 0.70270 0.68211
 C171 C 0.65654 0.69640 0.78734
 C172 C 0.64051 0.67418 0.76638
 C173 C 0.62754 0.63568 0.61681
 C174 C 0.61272 0.61718 0.59903
 C175 C 0.59450 0.59547 0.57899
 C176 C 0.58537 0.58142 0.70561
 C177 C 0.56664 0.56111 0.68718
 C178 C 0.55676 0.55463 0.54160
 C179 C 0.56637 0.56865 0.41477
 C180 C 0.58509 0.58894 0.43352
 H181 H 0.66826 0.65214 0.43503
 H182 H 0.69655 0.69139 0.47174
 H183 H 0.65301 0.70875 0.88539
 H184 H 0.62475 0.66961 0.84839
 H185 H 0.59247 0.58636 0.81880
 H186 H 0.55966 0.55071 0.78710
 H187 H 0.55918 0.56416 0.30118
 H188 H 0.59198 0.59974 0.33479
 C189 C -0.14278 0.34083 0.14109
 C190 C -0.13986 0.32086 0.03404
 C191 C -0.15639 0.29873 0.04140
 C192 C -0.17654 0.29630 0.15496
 C193 C -0.17886 0.31639 0.26405
 C194 C -0.16223 0.33852 0.25645
 C195 C -0.12558 0.36350 0.13206
 C196 C -0.11079 0.38217 0.12052
 C197 C -0.09270 0.40402 0.10172
 C198 C -0.08442 0.41130 -0.04452
 C199 C -0.06594 0.43173 -0.06418
 C200 C -0.05542 0.44520 0.06248
 C201 C -0.06416 0.43801 0.20915
 C202 C -0.08267 0.41750 0.22853
 H203 H -0.12481 0.32242 -0.05557
 H204 H -0.15389 0.28382 -0.04482
 H205 H -0.19303 0.31469 0.35791
 H206 H -0.16438 0.35371 0.34132
 H207 H -0.09202 0.40096 -0.14343
 H208 H -0.05967 0.43676 -0.17860
 H209 H -0.05643 0.44797 0.30891
 H210 H -0.08891 0.41199 0.34231
 C211 C 0.35537 0.84238 0.64151
 C212 C 0.35334 0.82535 0.51742
 C213 C 0.33709 0.80305 0.52729
 C214 C 0.32258 0.79764 0.66114
 C215 C 0.32466 0.81476 0.78545
 C216 C 0.34095 0.83708 0.77549
 C217 C 0.37276 0.86491 0.63155
 C218 C 0.38773 0.88345 0.62021
 C219 C 0.40606 0.90514 0.60282
 C220 C 0.41488 0.91232 0.45741
 C221 C 0.43360 0.93262 0.43956
 C222 C 0.44379 0.94604 0.56724
 C223 C 0.43452 0.93892 0.71301
 C224 C 0.41579 0.91857 0.73056
 H225 H 0.36449 0.82922 0.41347
 H226 H 0.33585 0.78995 0.43079
 H227 H 0.31385 0.81067 0.89018
 H228 H 0.34249 0.85006 0.87242
 H229 H 0.40753 0.90203 0.35778
 H230 H 0.44028 0.93760 0.32580
 H231 H 0.44199 0.94885 0.81354
 H232 H 0.40913 0.91312 0.84371
 C233 C -0.14519 0.65710 -0.12745
 C234 C -0.15682 0.66378 -0.26773
 C235 C -0.17305 0.68609 -0.28009
 C236 C -0.17787 0.70179 -0.15195
 C237 C -0.16617 0.69499 -0.01169
 C238 C -0.14998 0.67270 0.00057
 C239 C -0.12769 0.63471 -0.11518
 C240 C -0.11263 0.61628 -0.10280
 C241 C -0.09419 0.59470 -0.08519
 C242 C -0.08475 0.58111 -0.21279
 C243 C -0.06590 0.56087 -0.19537
 C244 C -0.05624 0.55404 -0.04986
 C245 C -0.06616 0.56762 0.07776
 C246 C -0.08499 0.58780 0.06003
 H247 H -0.15311 0.65193 -0.36766
 H248 H -0.18163 0.69129 -0.38956
 H249 H -0.16951 0.70704 0.08782
 H250 H -0.14096 0.66778 0.10943
 H251 H -0.09170 0.58634 -0.32580
 H252 H -0.05866 0.55082 -0.29585
 H253 H -0.05916 0.56286 0.19133
 H254 H -0.09213 0.59823 0.15954
 C255 C 0.35507 1.15828 0.38487
 C256 C 0.33474 1.15988 0.27371
 C257 C 0.31824 1.18205 0.26446
 C258 C 0.32162 1.20294 0.36754
 C259 C 0.34251 1.20111 0.47747
 C260 C 0.35890 1.17892 0.48651
 C261 C 0.37237 1.13570 0.39431
 C262 C 0.38732 1.11717 0.40546
 C263 C 0.40568 1.09552 0.42288
 C264 C 0.41546 1.08218 0.29517
 C265 C 0.43429 1.06192 0.31283
 C266 C 0.44359 1.05484 0.45868
 C267 C 0.43333 1.06818 0.58631
 C268 C 0.41453 1.08836 0.56836
 H269 H 0.33185 1.14414 0.19303
 H270 H 0.30341 1.18318 0.17339
 H271 H 0.34578 1.21657 0.55950
 H272 H 0.37462 1.17790 0.57294
 H273 H 0.40880 1.08762 0.18197
 H274 H 0.44181 1.05206 0.21234
 H275 H 0.44003 1.06321 0.70013
 H276 H 0.40713 1.09860 0.66795
 C277 C 1.14331 -0.15895 -0.17371
 C278 C 1.13467 -0.17812 -0.27607
 C279 C 1.15061 -0.20024 -0.30124
 C280 C 1.17579 -0.20344 -0.22610
 C281 C 1.18397 -0.18415 -0.12088
 C282 C 1.16793 -0.16203 -0.09577
 C283 C 1.12656 -0.13639 -0.14756
 C284 C 1.11205 -0.11776 -0.12729
 C285 C 1.09416 -0.09590 -0.10473
 C286 C 1.08510 -0.08958 0.04162
 C287 C 1.06662 -0.06917 0.06261
 C288 C 1.05692 -0.05484 -0.06283
 C289 C 1.06649 -0.06108 -0.20927
 C290 C 1.08497 -0.08150 -0.22992
 H291 H 1.11556 -0.17599 -0.33650
 H292 H 1.14350 -0.21458 -0.38273
 H293 H 1.20241 -0.18649 -0.05459
 H294 H 1.17460 -0.14750 -0.01433
 H295 H 1.09204 -0.10064 0.13929
 H296 H 1.05967 -0.06486 0.17679
 H297 H 1.05942 -0.05045 -0.30818
 H298 H 1.09180 -0.08628 -0.34378
 C299 C 0.64492 0.34279 0.33106
 C300 C 0.63955 0.32504 0.21365
 C301 C 0.65563 0.30275 0.19721
 C302 C 0.67734 0.29808 0.29758
 C303 C 0.68267 0.31594 0.41515
 C304 C 0.66656 0.33824 0.43154
 C305 C 0.62765 0.36517 0.35102
 C306 C 0.61274 0.38360 0.36811
 C307 C 0.59446 0.40520 0.38929
 C308 C 0.58580 0.41191 0.53578
 C309 C 0.56708 0.43211 0.55640
 C310 C 0.55672 0.44587 0.43043
 C311 C 0.56583 0.43922 0.28366
 C312 C 0.58456 0.41898 0.26337
 H313 H 0.62277 0.32830 0.13584
 H314 H 0.65111 0.28906 0.10673
 H315 H 0.69910 0.31242 0.49487
 H316 H 0.67077 0.35175 0.52342
 H317 H 0.59329 0.40133 0.63401
 H318 H 0.56050 0.43673 0.67085
 H319 H 0.55824 0.44940 0.18438
 H320 H 0.59107 0.41390 0.14940
 C321 C 0.85680 -0.15874 -0.13879
 C322 C 0.83737 -0.16103 -0.25447
 C323 C 0.82069 -0.18313 -0.26215
 C324 C 0.82295 -0.20320 -0.15284
 C325 C 0.84306 -0.20076 -0.03884
 C326 C 0.85963 -0.17866 -0.03140
 C327 C 0.87412 -0.13614 -0.13000
 C328 C 0.88901 -0.11754 -0.11883
 C329 C 0.90725 -0.09579 -0.10070
 C330 C 0.91709 -0.08233 -0.22791
 C331 C 0.93576 -0.06193 -0.20933
 C332 C 0.94484 -0.05483 -0.06306
 C333 C 0.93451 -0.06828 0.06404
 C334 C 0.91587 -0.08860 0.04516
 H335 H 0.83528 -0.14588 -0.33960
 H336 H 0.80655 -0.18483 -0.35631
 H337 H 0.84550 -0.21565 0.04756
 H338 H 0.87468 -0.17712 0.05845
 H339 H 0.91059 -0.08779 -0.34141
 H340 H 0.94334 -0.05199 -0.30942
 H341 H 0.94104 -0.06330 0.17817
 H342 H 0.90841 -0.09892 0.14438
 C343 C 0.35505 0.34254 0.36909
 C344 C 0.34337 0.33531 0.22980
 C345 C 0.32696 0.31305 0.22074
 C346 C 0.32202 0.29795 0.35121
 C347 C 0.33378 0.30529 0.49040
 C348 C 0.35015 0.32752 0.49935
 C349 C 0.37268 0.36489 0.37843
 C350 C 0.38784 0.38331 0.38913
 C351 C 0.40637 0.40487 0.40557
 C352 C 0.41581 0.41831 0.27736
 C353 C 0.43468 0.43858 0.29389
 C354 C 0.44436 0.44559 0.43911
 C355 C 0.43448 0.43213 0.56727
 C356 C 0.41563 0.41192 0.55044
 H357 H 0.34717 0.34670 0.12817
 H358 H 0.31831 0.30743 0.11212
 H359 H 0.33034 0.29371 0.59172
 H360 H 0.35918 0.33287 0.60749
 H361 H 0.40882 0.41295 0.16462
 H362 H 0.44191 0.44853 0.19300
 H363 H 0.44149 0.43704 0.68062
 H364 H 0.40849 0.40161 0.65041
 C365 C 0.14302 0.65815 -0.17636
 C366 C 0.13440 0.67743 -0.27796
 C367 C 0.15044 0.69951 -0.30298
 C368 C 0.17571 0.70257 -0.22840
 C369 C 0.18390 0.68314 -0.12419
 C370 C 0.16776 0.66106 -0.09924
 C371 C 0.12610 0.63569 -0.14967
 C372 C 0.11145 0.61717 -0.12863
 C373 C 0.09341 0.59543 -0.10479
 C374 C 0.08375 0.58112 -0.22929
 C375 C 0.06520 0.56078 -0.20718
 C376 C 0.05602 0.55452 -0.05994
 C377 C 0.06615 0.56880 0.06473
 C378 C 0.08470 0.58913 0.04228
 H379 H 0.11521 0.67543 -0.33775
 H380 H 0.14333 0.71395 -0.38375
 H381 H 0.20241 0.68536 -0.05834
 H382 H 0.17442 0.64644 -0.01839
 H383 H 0.09030 0.58589 -0.34369
 H384 H 0.05780 0.55019 -0.30553
 H385 H 0.05951 0.56448 0.17949
 H386 H 0.09200 0.60013 0.13942
 C387 C 0.64476 1.15778 0.35697
 C388 C 0.64075 1.17380 0.22990
 C389 C 0.65691 1.19594 0.20905
 C390 C 0.67735 1.20218 0.31469
 C391 C 0.68133 1.18608 0.44206
 C392 C 0.66512 1.16392 0.46290
 C393 C 0.62745 1.13547 0.37998
 C394 C 0.61248 1.11710 0.39813
 C395 C 0.59407 1.09555 0.41890
 C396 C 0.58454 1.08161 0.29266
 C397 C 0.56570 1.06142 0.31196
 C398 C 0.55610 1.05497 0.45805
 C399 C 0.56608 1.06889 0.58444
 C400 C 0.58493 1.08905 0.56482
 H401 H 0.62498 1.16930 0.14766
 H402 H 0.65346 1.20828 0.11085
 H403 H 0.69679 1.19084 0.52556
 H404 H 0.66829 1.15173 0.56208
 H405 H 0.59143 1.08653 0.17912
 H406 H 0.55842 1.05110 0.21236
 H407 H 0.55912 1.06441 0.69840
 H408 H 0.59213 1.09976 0.66328
 C409 C 0.14445 0.34248 0.15899
 C410 C 0.14105 0.32729 0.29002
 C411 C 0.15693 0.30501 0.31199
 C412 C 0.17647 0.29782 0.20350
 C413 C 0.17983 0.31308 0.07212
 C414 C 0.16391 0.33537 0.05017
 C415 C 0.12741 0.36492 0.13503
 C416 C 0.11265 0.38341 0.11629
 C417 C 0.09448 0.40510 0.09519
 C418 C 0.08506 0.41141 -0.05057
 C419 C 0.06633 0.43165 -0.07024
 C420 C 0.05673 0.44582 0.05597
 C421 C 0.06664 0.43958 0.20182
 C422 C 0.08537 0.41933 0.22115
 H423 H 0.12597 0.33254 0.37450
 H424 H 0.15395 0.29330 0.41326
 H425 H 0.19459 0.30757 -0.01349
 H426 H 0.16658 0.34691 -0.05205
 H427 H 0.09193 0.40048 -0.14880
 H428 H 0.05912 0.43596 -0.18400
 H429 H 0.05966 0.45009 0.30127
 H430 H 0.09247 0.41455 0.33456
 C431 C 0.64448 0.84328 0.66585
 C432 C 0.63907 0.82551 0.78299
 C433 C 0.65516 0.80323 0.79972
 C434 C 0.67692 0.79860 0.69989
 C435 C 0.68230 0.81649 0.58261
 C436 C 0.66617 0.83877 0.56593
 C437 C 0.62720 0.86566 0.64571
 C438 C 0.61228 0.88408 0.62878
 C439 C 0.59395 0.90567 0.60828
 C440 C 0.58491 0.91228 0.46226
 C441 C 0.56613 0.93247 0.44257
 C442 C 0.55611 0.94632 0.56900
 C443 C 0.56562 0.93976 0.71522
 C444 C 0.58440 0.91954 0.73459
 H445 H 0.62225 0.82874 0.86038
 H446 H 0.65061 0.78952 0.88999
 H447 H 0.69877 0.81300 0.50334
 H448 H 0.67042 0.85231 0.47427
 H449 H 0.59212 0.90163 0.36374
 H450 H 0.55924 0.93703 0.32852
 H451 H 0.55831 0.95001 0.81485
 H452 H 0.59122 0.91453 0.84819
 C453 C 0.85547 0.15668 0.12913
 C454 C 0.84373 0.16326 0.26916
 C455 C 0.82743 0.18552 0.28141
 C456 C 0.82265 0.20128 0.15341
 C457 C 0.83445 0.19458 0.01339
 C458 C 0.85072 0.17233 0.00124
 C459 C 0.87307 0.13436 0.11694
 C460 C 0.88821 0.11599 0.10439
 C461 C 0.90672 0.09448 0.08622
 C462 C 0.91640 0.08091 0.21347
 C463 C 0.93526 0.06071 0.19534
 C464 C 0.94470 0.05389 0.04946
 C465 C 0.93457 0.06747 -0.07775
 C466 C 0.91573 0.08761 -0.05932
 H467 H 0.84742 0.15138 0.36901
 H468 H 0.81877 0.19065 0.39072
 H469 H 0.83116 0.20667 -0.08602
 H470 H 0.85981 0.16749 -0.10742
 H471 H 0.90960 0.08612 0.32672
 H472 H 0.94267 0.05066 0.29552
 H473 H 0.94138 0.06272 -0.19159
 H474 H 0.90840 0.09802 -0.15857
 C475 C 0.35536 0.65714 0.63196
 C476 C 0.34101 0.66203 0.76668
 C477 C 0.32466 0.68426 0.77897
 C478 C 0.32247 0.70170 0.65626
 C479 C 0.33690 0.69668 0.52162
 C480 C 0.35319 0.67447 0.50943
 C481 C 0.37287 0.63475 0.61982
 C482 C 0.38795 0.61635 0.60681
 C483 C 0.40641 0.59483 0.58766
 C484 C 0.41649 0.58140 0.71444
 C485 C 0.43534 0.56122 0.69520
 C486 C 0.44437 0.55429 0.54868
 C487 C 0.43383 0.56772 0.42199
 C488 C 0.41500 0.58784 0.44153
 H489 H 0.34266 0.64881 0.86245
 H490 H 0.31393 0.68804 0.88431
 H491 H 0.33558 0.71004 0.42636
 H492 H 0.36429 0.67093 0.40494
 H493 H 0.41002 0.58671 0.82815
 H494 H 0.44308 0.55128 0.79502
 H495 H 0.44032 0.56287 0.30770
 H496 H 0.40737 0.59814 0.34264
   
