data_POSCAR
  _audit_creation_date              2014-09-24
  _audit_creation_method            'ToBaCCo'
  _symmetry_space_group_name_H-M    'P1'
  _symmetry_Int_Tables_number       1
  _symmetry_cell_setting            triclinic
  loop_
  _symmetry_equiv_pos_as_xyz
 x,y,z
_cell_length_a 29.5723
_cell_length_b 29.8807
_cell_length_c 23.7879
_cell_angle_alpha 90.010400
_cell_angle_beta 90.283200
_cell_angle_gamma 93.231100
loop_
  _atom_site_label
  _atom_site_type_symbol
  _atom_site_fract_x
  _atom_site_fract_y
  _atom_site_fract_z
C1 C -0.11923 0.34020 -0.02863
 C2 C -0.12084 0.33806 0.02913
 C3 C -0.08991 0.30732 0.04554
 N4 N -0.06862 0.29172 -0.00000
 C5 C -0.08709 0.31105 -0.04535
 C6 C -0.08220 0.29179 0.10090
 C7 C -0.03811 0.27932 0.11638
 C8 C -0.02667 0.25574 0.16441
 C9 C 0.01979 0.25427 0.16514
 C10 C 0.03552 0.27641 0.11737
 N11 N 0.00019 0.29134 0.08784
 C12 C 0.08144 0.28539 0.10350
 C13 C 0.09388 0.29849 0.04837
 C14 C 0.13235 0.32424 0.03350
 C15 C 0.13347 0.32475 -0.02431
 C16 C 0.09618 0.29838 -0.04267
 N17 N 0.07147 0.28336 0.00191
 C18 C 0.08505 0.28626 -0.09897
 C19 C 0.03885 0.27817 -0.11377
 C20 C 0.02230 0.25621 -0.16177
 C21 C -0.02384 0.25990 -0.16228
 C22 C -0.03424 0.28371 -0.11447
 N23 N 0.00395 0.29417 -0.08483
 C24 C -0.07714 0.29894 -0.10115
 H25 H -0.13916 0.36101 -0.05521
 H26 H -0.14192 0.35734 0.05593
 H27 H 0.00647 0.31544 -0.05003
 H28 H -0.04902 0.24086 0.19593
 H29 H 0.03962 0.23861 0.19719
 H30 H 0.15678 0.34111 0.06142
 H31 H 0.15849 0.34307 -0.04971
 H32 H -0.04689 0.24657 -0.19438
 H33 H 0.00263 0.31242 0.05292
 H34 H 0.04111 0.23921 -0.19341
 C35 C 0.37498 0.82850 0.48865
 C36 C 0.37458 0.82543 0.54639
 C37 C 0.41040 0.79987 0.56139
 N38 N 0.43299 0.78788 0.51501
 C39 C 0.41102 0.80468 0.47046
 C40 C 0.42052 0.78454 0.61609
 C41 C 0.46531 0.77415 0.63055
 C42 C 0.47798 0.75103 0.67822
 C43 C 0.52464 0.75168 0.67855
 C44 C 0.53924 0.77503 0.63103
 N45 N 0.50291 0.78848 0.60203
 C46 C 0.58493 0.78613 0.61696
 C47 C 0.59667 0.80188 0.56245
 C48 C 0.63551 0.82749 0.54830
 C49 C 0.63584 0.83071 0.49057
 C50 C 0.59729 0.80679 0.47148
 N51 N 0.57314 0.78982 0.51551
 C52 C 0.58546 0.79764 0.41472
 C53 C 0.54003 0.78613 0.39981
 C54 C 0.52563 0.76599 0.34980
 C55 C 0.47908 0.76518 0.34962
 C56 C 0.46639 0.78493 0.39950
 N57 N 0.50371 0.79711 0.43007
 C58 C 0.42190 0.79506 0.41403
 H59 H 0.35155 0.84632 0.46308
 H60 H 0.35079 0.84046 0.57409
 H61 H 0.50451 0.81667 0.46641
 H62 H 0.45612 0.73537 0.70974
 H63 H 0.54533 0.73677 0.71034
 H64 H 0.66096 0.84221 0.57661
 H65 H 0.66137 0.84880 0.46572
 H66 H 0.45730 0.75187 0.31622
 H67 H 0.50392 0.81021 0.56774
 H68 H 0.54635 0.75342 0.31660
 C69 C 1.13130 0.74251 -0.01919
 C70 C 1.13196 0.74601 0.03815
 C71 C 1.09388 0.72168 0.05748
 N72 N 1.06959 0.70381 0.01365
 C73 C 1.09300 0.71582 -0.03336
 C74 C 1.08145 0.71700 0.11482
 C75 C 1.03526 0.71307 0.13075
 C76 C 1.01925 0.70210 0.18416
 C77 C 0.97329 0.70729 0.18347
 C78 C 0.96236 0.72068 0.12960
 N79 N 1.00019 0.72393 0.09771
 C80 C 0.91899 0.73239 0.11186
 C81 C 0.90741 0.73518 0.05455
 C82 C 0.86978 0.75518 0.03306
 C83 C 0.86821 0.74550 -0.02313
 C84 C 0.90561 0.72107 -0.03412
 N85 N 0.92954 0.71471 0.01327
 C86 C 0.91583 0.70298 -0.08660
 C87 C 0.96005 0.69178 -0.10118
 C88 C 0.97153 0.66955 -0.14973
 C89 C 1.01816 0.66987 -0.15071
 C90 C 1.03380 0.69209 -0.10248
 N91 N 0.99814 0.70510 -0.07254
 C92 C 1.07978 0.70306 -0.08891
 H93 H 1.15550 0.75928 -0.04716
 H94 H 1.15667 0.76588 0.06258
 H95 H 1.00019 0.72661 -0.03813
 H96 H 1.03861 0.69201 0.22025
 H97 H 0.95057 0.70203 0.21869
 H98 H 0.84574 0.77449 0.05538
 H99 H 0.84283 0.75576 -0.05268
 H100 H 1.03824 0.65572 -0.18347
 H101 H 1.00279 0.73800 0.05776
 H102 H 0.94877 0.65553 -0.18173
 C103 C 0.62927 0.25548 0.46347
 C104 C 0.63112 0.25750 0.52100
 C105 C 0.59241 0.23428 0.54042
 N106 N 0.56707 0.21802 0.49675
 C107 C 0.58958 0.23091 0.44962
 C108 C 0.58135 0.22738 0.59759
 C109 C 0.53694 0.21536 0.61563
 C110 C 0.52528 0.20207 0.66980
 C111 C 0.47872 0.19924 0.67200
 C112 C 0.46332 0.21067 0.61906
 N113 N 0.49897 0.22024 0.58495
 C114 C 0.41765 0.21623 0.60486
 C115 C 0.40258 0.21887 0.54857
 C116 C 0.36093 0.23339 0.53152
 C117 C 0.35895 0.22845 0.47437
 C118 C 0.39981 0.21197 0.45827
 N119 N 0.42636 0.20585 0.50364
 C120 C 0.41141 0.20196 0.40254
 C121 C 0.45647 0.19680 0.38517
 C122 C 0.46904 0.18067 0.33322
 C123 C 0.51561 0.18585 0.33079
 C124 C 0.53012 0.20481 0.38145
 N125 N 0.49388 0.21126 0.41429
 C126 C 0.57526 0.21938 0.39439
 H127 H 0.65402 0.27108 0.43524
 H128 H 0.65751 0.27494 0.54554
 H129 H 0.49426 0.22994 0.45113
 H130 H 0.54795 0.19624 0.70457
 H131 H 0.45852 0.19070 0.70868
 H132 H 0.33478 0.24679 0.55716
 H133 H 0.33103 0.23704 0.44760
 H134 H 0.53634 0.17743 0.29538
 H135 H 0.49750 0.23541 0.54573
 H136 H 0.44691 0.16758 0.30001
 C137 C 0.71502 -0.13373 -0.04098
 C138 C 0.71856 -0.13372 0.01646
 C139 C 0.73421 -0.09083 0.03243
 N140 N 0.74219 -0.06559 -0.01441
 C141 C 0.73129 -0.09188 -0.05938
 C142 C 0.74707 -0.07622 0.08778
 C143 C 0.75933 -0.03042 0.09808
 C144 C 0.78291 -0.01306 0.14471
 C145 C 0.78000 0.03273 0.14323
 C146 C 0.75458 0.04216 0.09605
 N147 N 0.74246 0.00366 0.06872
 C148 C 0.73788 0.08420 0.08289
 C149 C 0.71925 0.09250 0.02943
 C150 C 0.69107 0.12638 0.01549
 C151 C 0.68480 0.12415 -0.04162
 C152 C 0.71167 0.09102 -0.06117
 N153 N 0.73160 0.07092 -0.01751
 C154 C 0.72233 0.08242 -0.11803
 C155 C 0.73435 0.03882 -0.13410
 C156 C 0.75521 0.02797 -0.18412
 C157 C 0.75977 -0.01752 -0.18353
 C158 C 0.74183 -0.03357 -0.13313
 N159 N 0.72647 0.00099 -0.10322
 C160 C 0.73921 -0.07926 -0.11653
 H161 H 0.70279 -0.16204 -0.06623
 H162 H 0.71166 -0.16311 0.04194
 H163 H 0.70842 -0.00164 -0.06573
 H164 H 0.79918 -0.03111 0.17781
 H165 H 0.79330 0.05602 0.17485
 H166 H 0.67617 0.15039 0.04257
 H167 H 0.66380 0.14547 -0.06611
 H168 H 0.77552 -0.03636 -0.21621
 H169 H 0.71837 0.00032 0.03664
 H170 H 0.76706 0.05022 -0.21741
 C171 C 0.17973 0.35720 0.46643
 C172 C 0.18047 0.35629 0.52429
 C173 C 0.20502 0.39477 0.54167
 N174 N 0.21838 0.41950 0.49642
 C175 C 0.20342 0.39641 0.45043
 C176 C 0.21794 0.40593 0.59767
 C177 C 0.23148 0.45052 0.61246
 C178 C 0.25520 0.46350 0.66079
 C179 C 0.25773 0.50962 0.66161
 C180 C 0.23554 0.52356 0.61373
 N181 N 0.21969 0.48730 0.58404
 C182 C 0.22641 0.56840 0.60122
 C183 C 0.21086 0.58120 0.54756
 C184 C 0.19270 0.62164 0.53390
 C185 C 0.18638 0.62152 0.47678
 C186 C 0.20300 0.58213 0.45690
 N187 N 0.21719 0.55728 0.50029
 C188 C 0.21068 0.57183 0.39978
 C189 C 0.21996 0.52806 0.38255
 C190 C 0.23894 0.51716 0.33150
 C191 C 0.24047 0.47125 0.33029
 C192 C 0.22214 0.45531 0.38054
 N193 N 0.20985 0.49020 0.41219
 C194 C 0.21391 0.40961 0.39458
 H195 H 0.16327 0.33212 0.43930
 H196 H 0.16445 0.33040 0.55039
 H197 H 0.19137 0.48799 0.44936
 H198 H 0.26889 0.44209 0.69256
 H199 H 0.27320 0.53035 0.69453
 H200 H 0.18511 0.64904 0.56116
 H201 H 0.17258 0.64826 0.45260
 H202 H 0.25354 0.45201 0.29608
 H203 H 0.19744 0.48737 0.54996
 H204 H 0.25070 0.53984 0.29855
 C205 C 0.23830 0.85939 0.03519
 C206 C 0.23770 0.85730 -0.02237
 C207 C 0.25995 0.89647 -0.04165
 N208 N 0.27339 0.92273 0.00246
 C209 C 0.26030 0.89998 0.04941
 C210 C 0.26760 0.90775 -0.09905
 C211 C 0.27575 0.95288 -0.11643
 C212 C 0.29259 0.96619 -0.16861
 C213 C 0.29296 1.01217 -0.17013
 C214 C 0.27642 1.02589 -0.11884
 N215 N 0.26629 0.98959 -0.08622
 C216 C 0.26873 1.07070 -0.10418
 C217 C 0.26062 1.08289 -0.04786
 C218 C 0.23472 1.11781 -0.03135
 C219 C 0.23746 1.11991 0.02594
 C220 C 0.26495 1.08620 0.04260
 N221 N 0.27848 1.06294 -0.00254
 C222 C 0.27713 1.07695 0.09880
 C223 C 0.28531 1.03267 0.11566
 C224 C 0.30310 1.02047 0.16724
 C225 C 0.30051 0.97438 0.16902
 C226 C 0.28184 0.95973 0.11827
 N227 N 0.27296 0.99532 0.08588
 C228 C 0.26951 0.91474 0.10503
 H229 H 0.22338 0.83425 0.06328
 H230 H 0.22156 0.83042 -0.04700
 H231 H 0.25423 0.99407 0.04871
 H232 H 0.30367 0.94504 -0.20220
 H233 H 0.30428 1.03304 -0.20507
 H234 H 0.21508 1.13900 -0.05779
 H235 H 0.22000 1.14279 0.05233
 H236 H 0.31063 0.95397 0.20398
 H237 H 0.24946 0.98978 -0.04791
 H238 H 0.31588 1.04233 0.20066
 C239 C 0.73685 0.37142 0.52190
 C240 C 0.73275 0.37019 0.46441
 C241 C 0.75080 0.41099 0.44463
 N242 N 0.76614 0.43692 0.48813
 C243 C 0.75763 0.41281 0.53550
 C244 C 0.75402 0.42323 0.38715
 C245 C 0.76093 0.46813 0.36895
 C246 C 0.77053 0.48125 0.31411
 C247 C 0.77099 0.52736 0.31299
 C248 C 0.76183 0.54109 0.36719
 N249 N 0.75555 0.50483 0.40091
 C250 C 0.75702 0.58590 0.38382
 C251 C 0.75653 0.59897 0.44077
 C252 C 0.74234 0.63956 0.46045
 C253 C 0.75219 0.64105 0.51663
 C254 C 0.77099 0.60087 0.52954
 N255 N 0.77376 0.57518 0.48321
 C256 C 0.78705 0.58946 0.58298
 C257 C 0.79274 0.54473 0.59967
 C258 C 0.81219 0.53186 0.64984
 C259 C 0.80665 0.48578 0.65239
 C260 C 0.78451 0.47187 0.60334
 N261 N 0.77605 0.50796 0.57164
 C262 C 0.76990 0.42720 0.59062
 H263 H 0.72542 0.34490 0.55029
 H264 H 0.71745 0.34266 0.44010
 H265 H 0.75508 0.50772 0.53647
 H266 H 0.77609 0.45983 0.27839
 H267 H 0.77709 0.54833 0.27640
 H268 H 0.72669 0.66558 0.43690
 H269 H 0.74565 0.66831 0.54492
 H270 H 0.81737 0.46491 0.68659
 H271 H 0.74315 0.50493 0.44171
 H272 H 0.82773 0.55344 0.68190
 O273 O 0.25168 0.17881 0.21351
 O274 O 0.22516 0.26283 0.31790
 O275 O 0.19011 0.23687 0.21893
 O276 O 0.29406 0.21411 0.29936
 O277 O 0.33246 0.26527 0.24897
 O278 O 0.23152 0.28414 0.16618
 O279 O 0.26148 0.31548 0.26782
 O280 O 0.29232 0.22933 0.16463
 Cu281 Cu 0.23622 0.21849 0.26775
 Cu282 Cu 0.28248 0.27995 0.20886
 C283 C 0.27661 0.18917 0.17178
 C284 C 0.23929 0.30317 0.31149
 C285 C 0.19432 0.26290 0.17654
 C286 C 0.33109 0.23580 0.28720
 O287 O 0.75771 0.83168 0.22562
 O288 O 0.78570 0.73608 0.31536
 O289 O 0.81818 0.76930 0.22910
 O290 O 0.73401 0.79914 0.33186
 O291 O 0.68004 0.76039 0.28547
 O292 O 0.76564 0.72890 0.18215
 O293 O 0.73197 0.69437 0.27224
 O294 O 0.70406 0.78930 0.18394
 Cu295 Cu 0.77774 0.79047 0.27881
 Cu296 Cu 0.71492 0.73977 0.22618
 C297 C 0.72724 0.82603 0.18783
 C298 C 0.76395 0.69856 0.30790
 C299 C 0.80683 0.74264 0.18943
 C300 C 0.69350 0.78331 0.32812
 O301 O 0.72383 0.21044 0.31284
 O302 O 0.81384 0.25030 0.21520
 O303 O 0.78249 0.27807 0.31098
 O304 O 0.75592 0.18168 0.21812
 O305 O 0.70325 0.21896 0.17529
 O306 O 0.73442 0.31760 0.26330
 O307 O 0.76343 0.28592 0.16622
 O308 O 0.67496 0.25108 0.26807
 Cu309 Cu 0.77407 0.22628 0.26881
 Cu310 Cu 0.71445 0.27269 0.21325
 C311 C 0.68429 0.22453 0.30761
 C312 C 0.80360 0.27391 0.17309
 C313 C 0.76246 0.31404 0.30356
 C314 C 0.72470 0.18370 0.18150
 O315 O 0.29503 0.77263 0.19051
 O316 O 0.26454 0.67808 0.28372
 O317 O 0.23233 0.70856 0.18913
 O318 O 0.32143 0.74706 0.29054
 O319 O 0.27217 0.78777 0.33414
 O320 O 0.18377 0.74873 0.23444
 O321 O 0.21723 0.71962 0.32950
 O322 O 0.24610 0.81385 0.23364
 Cu323 Cu 0.28319 0.72260 0.23401
 Cu324 Cu 0.22474 0.77171 0.28687
 C325 C 0.27519 0.80889 0.19514
 C326 C 0.23709 0.68332 0.32360
 C327 C 0.19280 0.72262 0.19450
 C328 C 0.31122 0.77271 0.33075
 O329 O 0.79486 0.28423 0.67571
 O330 O 0.76326 0.19010 0.76994
 O331 O 0.73231 0.21965 0.67498
 O332 O 0.82142 0.25834 0.77577
 O333 O 0.77275 0.29987 0.81910
 O334 O 0.68450 0.26134 0.71931
 O335 O 0.71649 0.23267 0.81494
 O336 O 0.74679 0.32635 0.71890
 Cu337 Cu 0.78292 0.23411 0.71962
 Cu338 Cu 0.72515 0.28441 0.77195
 C339 C 0.77561 0.32088 0.68028
 C340 C 0.73549 0.19584 0.80941
 C341 C 0.69306 0.23430 0.68016
 C342 C 0.81158 0.28436 0.81574
 O343 O 0.24105 0.80184 0.78403
 O344 O 0.20384 0.70503 0.69623
 O345 O 0.17993 0.73653 0.79082
 O346 O 0.26695 0.76906 0.68591
 O347 O 0.31744 0.73229 0.73331
 O348 O 0.22830 0.69376 0.83312
 O349 O 0.25617 0.66532 0.73584
 O350 O 0.28760 0.75982 0.83053
 Cu351 Cu 0.21852 0.75770 0.73450
 Cu352 Cu 0.27754 0.70867 0.78719
 C353 C 0.26892 0.79667 0.82407
 C354 C 0.22385 0.66879 0.70093
 C355 C 0.18929 0.70930 0.82964
 C356 C 0.30693 0.75626 0.69167
 O357 O 0.28811 0.21978 0.82349
 O358 O 0.25941 0.30813 0.72294
 O359 O 0.23429 0.28402 0.82627
 O360 O 0.31934 0.24758 0.72756
 O361 O 0.26969 0.19872 0.68873
 O362 O 0.18257 0.23964 0.78389
 O363 O 0.21462 0.25850 0.67752
 O364 O 0.23902 0.17243 0.78085
 Cu365 Cu 0.28013 0.27005 0.77900
 Cu366 Cu 0.21969 0.21395 0.73031
 C367 C 0.26838 0.18102 0.81899
 C368 C 0.23382 0.29736 0.68131
 C369 C 0.19425 0.26700 0.82308
 C370 C 0.30960 0.21664 0.69220
 O371 O 0.73865 0.77512 0.66977
 O372 O 0.83941 0.75330 0.75071
 O373 O 0.78931 0.70901 0.68154
 O374 O 0.77880 0.81433 0.76248
 O375 O 0.74018 0.77447 0.82608
 O376 O 0.74522 0.67297 0.74338
 O377 O 0.79750 0.71491 0.81273
 O378 O 0.69389 0.74272 0.73363
 Cu379 Cu 0.78981 0.76788 0.71064
 Cu380 Cu 0.73878 0.72358 0.78430
 C381 C 0.69957 0.76194 0.68607
 C382 C 0.83619 0.72962 0.79464
 C383 C 0.76904 0.67292 0.69947
 C384 C 0.75949 0.81102 0.81026
 C385 C 0.27691 0.11087 0.14031
 C386 C 0.28559 0.15473 0.12981
 H387 H 0.27015 0.10098 0.18343
 H388 H 0.29815 0.16590 0.08917
 C389 C 0.79617 0.62698 0.62266
 C390 C 0.77123 0.63053 0.66869
 H391 H 0.81697 0.65566 0.60811
 H392 H 0.74868 0.60255 0.68151
 C393 C 0.75109 0.89318 0.13281
 C394 C 0.71941 0.86105 0.14579
 H395 H 0.77986 0.89758 0.16092
 H396 H 0.68745 0.85875 0.12330
 C397 C 0.21854 0.37142 0.64320
 C398 C 0.22869 0.32894 0.63472
 H399 H 0.21327 0.38215 0.68610
 H400 H 0.23490 0.31669 0.59286
 C401 C 0.88254 0.28701 0.14135
 C402 C 0.83787 0.28568 0.12994
 H403 H 0.89174 0.28131 0.18471
 H404 H 0.82517 0.28964 0.08775
 C405 C 0.38432 0.77790 0.65972
 C406 C 0.34058 0.76755 0.64778
 H407 H 0.39438 0.77911 0.70357
 H408 H 0.32873 0.76560 0.60475
 C409 C 0.11468 0.72115 0.15793
 C410 C 0.15795 0.71046 0.15190
 H411 H 0.10456 0.73292 0.19882
 H412 H 0.16866 0.69385 0.11416
 C413 C 0.61634 0.23688 0.64145
 C414 C 0.65766 0.22089 0.63898
 H415 H 0.60722 0.25716 0.67699
 H416 H 0.66620 0.19909 0.60467
 C417 C 0.72426 0.11721 0.84087
 C418 C 0.72803 0.16130 0.85259
 H419 H 0.72548 0.10823 0.79686
 H420 H 0.72989 0.17377 0.89508
 C421 C 0.21260 0.60800 0.35643
 C422 C 0.23162 0.64881 0.36676
 H423 H 0.20091 0.60000 0.31415
 H424 H 0.24557 0.65731 0.40776
 C425 C 0.26470 0.87428 0.85861
 C426 C 0.27793 0.83244 0.86594
 H427 H 0.25340 0.88346 0.81696
 H428 H 0.29502 0.82354 0.90440
 C429 C 0.74767 0.38799 0.34324
 C430 C 0.77109 0.35096 0.34386
 H431 H 0.72403 0.39343 0.30930
 H432 H 0.79579 0.34653 0.37693
 C433 C 0.11822 0.28098 0.85874
 C434 C 0.16251 0.27692 0.86813
 H435 H 0.10723 0.27794 0.81537
 H436 H 0.17671 0.27785 0.90996
 C437 C 0.61981 0.79883 0.36868
 C438 C 0.66296 0.78889 0.37584
 H439 H 0.60831 0.80490 0.32617
 H440 H 0.67624 0.78212 0.41718
 C441 C 0.87788 0.69762 0.87284
 C442 C 0.87805 0.72145 0.82557
 H443 H 0.84636 0.68160 0.88769
 H444 H 0.90903 0.73948 0.81235
 C445 C 0.37398 0.19920 0.36097
 C446 C 0.37287 0.22847 0.31872
 H447 H 0.34378 0.17872 0.37143
 H448 H 0.40237 0.25064 0.31036
 C449 C 0.74437 0.88784 0.84096
 C450 C 0.76155 0.84804 0.85079
 H451 H 0.73546 0.89550 0.79791
 H452 H 0.77468 0.84014 0.89190
 C453 C 0.21726 0.37570 0.34870
 C454 C 0.23211 0.33483 0.35737
 H455 H 0.20996 0.38549 0.30589
 H456 H 0.23986 0.32373 0.39943
 C457 C 0.26660 0.10302 0.85260
 C458 C 0.27829 0.14665 0.86050
 H459 H 0.25651 0.09204 0.81072
 H460 H 0.29451 0.15799 0.89931
 C461 C 0.75195 0.62057 0.33996
 C462 C 0.77531 0.66028 0.34266
 H463 H 0.72739 0.61374 0.30666
 H464 H 0.80130 0.66595 0.37459
 C465 C 0.11156 0.70496 0.86670
 C466 C 0.15565 0.69766 0.87332
 H467 H 0.09953 0.71177 0.82458
 H468 H 0.16798 0.68447 0.91259
 C469 C 0.60771 0.22583 0.34724
 C470 C 0.64972 0.21130 0.34957
 H471 H 0.59668 0.24367 0.31043
 H472 H 0.65989 0.19165 0.38530
 C473 C 0.88834 0.29942 0.85291
 C474 C 0.84386 0.29362 0.86170
 H475 H 0.89999 0.30059 0.80979
 H476 H 0.83025 0.29188 0.90375
 C477 C 0.38694 0.79352 0.36836
 C478 C 0.34329 0.78189 0.37701
 H479 H 0.39800 0.79861 0.32535
 H480 H 0.33046 0.77592 0.41896
 C481 C 0.26380 0.88251 0.15229
 C482 C 0.28483 0.84410 0.15299
 H483 H 0.24218 0.89099 0.18690
 H484 H 0.30785 0.83698 0.11921
 C485 C 0.76526 0.39499 0.63810
 C486 C 0.78547 0.35606 0.63799
 H487 H 0.74464 0.40385 0.67349
 H488 H 0.80758 0.34847 0.60347
 C489 C 0.74637 0.12149 0.12335
 C490 C 0.71362 0.14512 0.14491
 H491 H 0.78120 0.12940 0.13595
 H492 H 0.67853 0.13751 0.13376
 C493 C 0.23902 0.60337 0.64371
 C494 C 0.20934 0.63096 0.66453
 H495 H 0.27404 0.60654 0.65753
 H496 H 0.17421 0.62782 0.65133
 C497 C 0.88501 0.74251 0.15507
 C498 C 0.84146 0.72766 0.15093
 H499 H 0.89635 0.76291 0.19065
 H500 H 0.83059 0.70525 0.11705
 C501 C 0.38552 0.22315 0.65129
 C502 C 0.34415 0.20263 0.65286
 H503 H 0.39615 0.24685 0.68391
 H504 H 0.33429 0.17753 0.62156
 C505 C 0.11677 0.28001 0.14778
 C506 C 0.15769 0.26607 0.13534
 H507 H 0.10867 0.28654 0.19129
 H508 H 0.16624 0.25894 0.09219
 C509 C 0.62097 0.77985 0.66034
 C510 C 0.66197 0.76677 0.64633
 H511 H 0.61332 0.78490 0.70430
 H512 H 0.66971 0.76091 0.60261
   
