data_POSCAR
  _audit_creation_date              2014-09-24
  _audit_creation_method            'ToBaCCo'
  _symmetry_space_group_name_H-M    'P1'
  _symmetry_Int_Tables_number       1
  _symmetry_cell_setting            triclinic
  loop_
  _symmetry_equiv_pos_as_xyz
 x,y,z
_cell_length_a 46.4296
_cell_length_b 28.4483
_cell_length_c 17.1617
_cell_angle_alpha 89.977900
_cell_angle_beta 89.844800
_cell_angle_gamma 90.202400
loop_
  _atom_site_label
  _atom_site_type_symbol
  _atom_site_fract_x
  _atom_site_fract_y
  _atom_site_fract_z
C1 C 0.74965 0.25068 0.46485
 C2 C 0.74945 0.25090 0.54435
 C3 C 0.72432 0.26849 0.58942
 C4 C 0.77439 0.23360 0.59002
 C5 C 0.77324 0.22809 0.41988
 C6 C 0.72630 0.27310 0.41914
 C7 C 0.72822 0.30383 0.64552
 C8 C 0.70461 0.32187 0.68628
 C9 C 0.67685 0.30444 0.67186
 C10 C 0.67293 0.26831 0.61729
 C11 C 0.69656 0.25026 0.57662
 C12 C 0.80216 0.25196 0.57749
 C13 C 0.82566 0.23395 0.61839
 C14 C 0.82158 0.19782 0.67277
 C15 C 0.79384 0.18030 0.68707
 C16 C 0.77033 0.19825 0.64615
 C17 C 0.78065 0.18088 0.43304
 C18 C 0.80366 0.16061 0.39268
 C19 C 0.81928 0.18712 0.33818
 C20 C 0.81150 0.23377 0.32331
 C21 C 0.78851 0.25410 0.36370
 C22 C 0.71122 0.24683 0.36319
 C23 C 0.68840 0.26701 0.32225
 C24 C 0.68062 0.31375 0.33635
 C25 C 0.69607 0.34051 0.39057
 C26 C 0.71891 0.32040 0.43148
 H27 H 0.74948 0.31812 0.65652
 H28 H 0.70807 0.34974 0.72835
 H29 H 0.65164 0.25426 0.60558
 H30 H 0.69319 0.22237 0.53465
 H31 H 0.80564 0.27984 0.53548
 H32 H 0.84701 0.24786 0.60707
 H33 H 0.74906 0.18385 0.65692
 H34 H 0.76880 0.15996 0.47507
 H35 H 0.80942 0.12443 0.40441
 H36 H 0.82340 0.25458 0.28118
 H37 H 0.78302 0.29044 0.35242
 H38 H 0.71671 0.21042 0.35256
 H39 H 0.67661 0.24601 0.28034
 H40 H 0.69029 0.37677 0.40171
 H41 H 0.73063 0.34149 0.47335
 H42 H 0.79045 0.15238 0.72909
 C43 C 0.25012 0.75019 0.45974
 C44 C 0.25027 0.75017 0.53924
 C45 C 0.22700 0.77304 0.58492
 C46 C 0.27372 0.72734 0.58412
 C47 C 0.27503 0.73260 0.41393
 C48 C 0.22508 0.76784 0.41477
 C49 C 0.21983 0.82038 0.57207
 C50 C 0.19693 0.84086 0.61254
 C51 C 0.18119 0.81442 0.66684
 C52 C 0.18877 0.76766 0.68156
 C53 C 0.21165 0.74712 0.64106
 C54 C 0.28912 0.75325 0.63992
 C55 C 0.31207 0.73273 0.67991
 C56 C 0.31967 0.68599 0.66503
 C57 C 0.30391 0.65958 0.61099
 C58 C 0.28094 0.68004 0.57103
 C59 C 0.27089 0.69730 0.35787
 C60 C 0.29435 0.67925 0.31655
 C61 C 0.32212 0.69662 0.33037
 C62 C 0.32630 0.73266 0.38475
 C63 C 0.30285 0.75078 0.42605
 C64 C 0.19725 0.74985 0.42800
 C65 C 0.17373 0.76789 0.38718
 C66 C 0.17783 0.80367 0.33216
 C67 C 0.20559 0.82090 0.31734
 C68 C 0.22912 0.80294 0.35818
 H69 H 0.23175 0.84121 0.53002
 H70 H 0.19131 0.87712 0.60091
 H71 H 0.17676 0.74691 0.72354
 H72 H 0.21696 0.71068 0.65207
 H73 H 0.28378 0.78966 0.65113
 H74 H 0.32409 0.75346 0.72169
 H75 H 0.26898 0.65920 0.52929
 H76 H 0.24958 0.68306 0.34740
 H77 H 0.29088 0.65140 0.27453
 H78 H 0.34768 0.74645 0.39570
 H79 H 0.30640 0.77862 0.46800
 H80 H 0.19376 0.72216 0.47034
 H81 H 0.15235 0.75419 0.39892
 H82 H 0.20901 0.84854 0.27484
 H83 H 0.25042 0.81705 0.34683
 H84 H 0.30952 0.62333 0.59924
 C85 C 0.24977 0.24936 -0.46160
 C86 C 0.24991 0.24945 -0.54111
 C87 C 0.27350 0.27223 -0.58627
 C88 C 0.22651 0.22672 -0.58651
 C89 C 0.22465 0.23172 -0.41627
 C90 C 0.27477 0.26687 -0.41610
 C91 C 0.28098 0.31949 -0.57322
 C92 C 0.30406 0.33992 -0.61345
 C93 C 0.31971 0.31348 -0.66779
 C94 C 0.31183 0.26675 -0.68262
 C95 C 0.28876 0.24630 -0.64232
 C96 C 0.21135 0.25275 -0.64243
 C97 C 0.18838 0.23235 -0.68278
 C98 C 0.18050 0.18557 -0.66812
 C99 C 0.19607 0.15903 -0.61397
 C100 C 0.21906 0.17941 -0.57369
 C101 C 0.22854 0.19664 -0.35971
 C102 C 0.20496 0.17878 -0.31831
 C103 C 0.17725 0.19609 -0.33254
 C104 C 0.17332 0.23187 -0.38762
 C105 C 0.19691 0.24977 -0.42897
 C106 C 0.30250 0.24865 -0.42861
 C107 C 0.32601 0.26661 -0.38741
 C108 C 0.32199 0.30253 -0.33275
 C109 C 0.29430 0.31996 -0.31859
 C110 C 0.27078 0.30207 -0.35981
 H111 H 0.26913 0.34034 -0.53127
 H112 H 0.30983 0.37617 -0.60158
 H113 H 0.32369 0.24588 -0.72459
 H114 H 0.28321 0.20991 -0.65351
 H115 H 0.21689 0.28917 -0.65341
 H116 H 0.17656 0.25329 -0.72460
 H117 H 0.23084 0.15850 -0.53183
 H118 H 0.24978 0.18249 -0.34877
 H119 H 0.20835 0.15116 -0.27582
 H120 H 0.15203 0.24573 -0.39906
 H121 H 0.19354 0.27746 -0.47126
 H122 H 0.30593 0.22087 -0.47073
 H123 H 0.34733 0.25277 -0.39862
 H124 H 0.29095 0.34772 -0.27636
 H125 H 0.24954 0.31634 -0.34904
 H126 H 0.19031 0.12275 -0.60224
 C127 C -0.25026 0.74968 -0.46329
 C128 C -0.25030 0.74971 -0.54279
 C129 C -0.22528 0.76745 -0.58832
 C130 C -0.27534 0.73197 -0.58799
 C131 C -0.27369 0.72684 -0.41777
 C132 C -0.22676 0.77240 -0.41813
 C133 C -0.22923 0.80291 -0.64416
 C134 C -0.20566 0.82123 -0.68503
 C135 C -0.17792 0.80398 -0.67096
 C136 C -0.17395 0.76772 -0.61679
 C137 C -0.19753 0.74936 -0.57599
 C138 C -0.30313 0.74982 -0.57502
 C139 C -0.32667 0.73161 -0.61586
 C140 C -0.32263 0.69573 -0.67071
 C141 C -0.29486 0.67867 -0.68530
 C142 C -0.27133 0.69684 -0.64441
 C143 C -0.28105 0.67950 -0.43049
 C144 C -0.30397 0.65897 -0.38979
 C145 C -0.31956 0.68540 -0.33534
 C146 C -0.31180 0.73222 -0.32085
 C147 C -0.28889 0.75276 -0.36162
 C148 C -0.21159 0.74639 -0.36217
 C149 C -0.18869 0.76687 -0.32161
 C150 C -0.18088 0.81365 -0.33608
 C151 C -0.19639 0.84015 -0.39036
 C152 C -0.21931 0.81973 -0.43089
 H153 H -0.25048 0.81709 -0.65478
 H154 H -0.20906 0.84922 -0.72685
 H155 H -0.15264 0.75390 -0.60551
 H156 H -0.19414 0.72140 -0.53420
 H157 H -0.30659 0.77754 -0.53281
 H158 H -0.34800 0.74529 -0.60414
 H159 H -0.25005 0.68283 -0.65554
 H160 H -0.26923 0.65867 -0.47252
 H161 H -0.30965 0.62266 -0.40138
 H162 H -0.32363 0.75306 -0.27880
 H163 H -0.28342 0.78921 -0.35071
 H164 H -0.21711 0.70996 -0.35119
 H165 H -0.17687 0.74607 -0.27965
 H166 H -0.19060 0.87643 -0.40180
 H167 H -0.23108 0.84065 -0.47275
 H168 H -0.29139 0.65098 -0.72763
 N169 N 0.03049 1.08531 -0.07981
 N170 N 0.05184 1.11548 -0.09035
 N171 N -0.03019 1.05353 -0.13470
 N172 N -0.05153 1.06099 -0.18377
 N173 N -0.03011 1.08538 -0.07930
 N174 N -0.05141 1.11542 -0.08909
 N175 N 0.03037 1.05345 -0.13519
 N176 N 0.05161 1.06101 -0.18495
 C177 C 0.06477 1.09965 -0.15595
 C178 C -0.06452 1.09956 -0.15430
 N179 N -0.03058 0.91877 -0.08637
 N180 N -0.05236 0.88962 -0.09792
 N181 N 0.03014 0.95225 -0.13937
 N182 N 0.05197 0.94706 -0.18803
 N183 N 0.03007 0.91873 -0.08670
 N184 N 0.05185 0.88978 -0.09803
 N185 N -0.03048 0.95231 -0.13898
 N186 N -0.05216 0.94695 -0.18782
 Mn187 Mn -0.00004 1.00288 -0.13794
 C188 C -0.06553 0.90780 -0.16126
 C189 C 0.06521 0.90802 -0.16134
 N190 N -0.03017 1.08269 0.08856
 N191 N -0.05185 1.11179 0.10023
 N192 N 0.03037 1.04907 0.14076
 N193 N 0.05218 1.05425 0.18923
 N194 N 0.03049 1.08259 0.08809
 N195 N 0.05239 1.11154 0.09924
 N196 N -0.03025 1.04914 0.14117
 N197 N -0.05198 1.05446 0.19012
 Mn198 Mn 0.00018 1.08456 0.00445
 C199 C -0.06517 1.09360 0.16366
 C200 C 0.06562 1.09328 0.16242
 N201 N 0.03003 0.91601 0.08116
 N202 N 0.05126 0.88585 0.09127
 N203 N -0.03048 0.94792 0.13690
 N204 N -0.05185 0.94046 0.18632
 N205 N -0.03057 0.91608 0.08148
 N206 N -0.05200 0.88605 0.09161
 N207 N 0.03007 0.94786 0.13656
 N208 N 0.05132 0.94030 0.18591
 Mn209 Mn -0.00026 0.91683 -0.00267
 Mn210 Mn -0.00007 0.99850 0.13973
 Cl211 Cl -0.00005 1.00070 0.00089
 C212 C 0.06429 0.90166 0.15664
 C213 C -0.06502 0.90190 0.15703
 N214 N 0.53074 0.44658 -0.13655
 N215 N 0.55208 0.43910 -0.18593
 N216 N 0.47004 0.41465 -0.08127
 N217 N 0.44867 0.38454 -0.09144
 N218 N 0.47019 0.44653 -0.13666
 N219 N 0.44894 0.43903 -0.18609
 N220 N 0.53064 0.41471 -0.08113
 N221 N 0.55193 0.38463 -0.09126
 C222 C 0.56505 0.40050 -0.15667
 C223 C 0.43576 0.40041 -0.15685
 N224 N 0.46975 0.45081 0.13920
 N225 N 0.44792 0.44549 0.18791
 N226 N 0.53041 0.41736 0.08677
 N227 N 0.55214 0.38836 0.09828
 N228 N 0.53037 0.45088 0.13940
 N229 N 0.55205 0.44564 0.18821
 N230 N 0.46976 0.41729 0.08659
 N231 N 0.44792 0.38820 0.09801
 Mn232 Mn 0.50022 0.41544 0.00280
 C233 C 0.43459 0.40637 0.16129
 C234 C 0.56533 0.40659 0.16164
 N235 N 0.47032 0.54776 -0.14094
 N236 N 0.44861 0.55301 -0.18966
 N237 N 0.53096 0.58130 -0.08817
 N238 N 0.55278 0.61040 -0.09965
 N239 N 0.53094 0.54779 -0.14081
 N240 N 0.55273 0.55313 -0.18960
 N241 N 0.47031 0.58128 -0.08832
 N242 N 0.44859 0.61029 -0.09975
 Mn243 Mn 0.50055 0.49717 -0.13963
 C244 C 0.43534 0.59209 -0.16305
 C245 C 0.56607 0.59224 -0.16299
 N246 N 0.53056 0.55208 0.13514
 N247 N 0.55177 0.55963 0.18469
 N248 N 0.47014 0.58391 0.07952
 N249 N 0.44887 0.61402 0.08957
 N250 N 0.47001 0.55204 0.13491
 N251 N 0.44866 0.55953 0.18424
 N252 N 0.53074 0.58395 0.07972
 N253 N 0.55209 0.61409 0.09001
 Mn254 Mn 0.50017 0.50145 0.13805
 Mn255 Mn 0.50054 0.58317 -0.00437
 Cl256 Cl 0.50037 0.49931 -0.00079
 C257 C 0.56496 0.59827 0.15551
 C258 C 0.43572 0.59814 0.15492
 C259 C 0.34293 0.33280 0.29529
 C260 C 0.36370 0.34974 0.26343
 C261 C 0.38824 0.36945 0.22705
 C262 C 0.40934 0.38626 0.19669
 C263 C -0.15481 0.82322 0.29166
 C264 C -0.13432 0.84071 0.25944
 C265 C -0.11026 0.86167 0.22278
 C266 C -0.08965 0.87989 0.19232
 C267 C 0.65432 0.67672 0.29161
 C268 C 0.63390 0.65940 0.25903
 C269 C 0.60996 0.63856 0.22188
 C270 C 0.58946 0.62037 0.19106
 C271 C 0.15731 1.16634 0.29515
 C272 C 0.13655 1.14949 0.26353
 C273 C 0.11200 1.12990 0.22751
 C274 C 0.09089 1.11321 0.19746
 C275 C 0.65465 0.32255 -0.29214
 C276 C 0.63416 0.33973 -0.25967
 C277 C 0.61015 0.36041 -0.22268
 C278 C 0.58960 0.37850 -0.19201
 C279 C 0.15676 0.83483 -0.29426
 C280 C 0.13603 0.85174 -0.26265
 C281 C 0.11152 0.87139 -0.22661
 C282 C 0.09044 0.88810 -0.19651
 C283 C 0.34408 0.66552 -0.29627
 C284 C 0.36476 0.64857 -0.26470
 C285 C 0.38920 0.62887 -0.22859
 C286 C 0.41021 0.61210 -0.19838
 C287 C -0.15408 1.17779 -0.28779
 C288 C -0.13363 1.16047 -0.25574
 C289 C -0.10964 1.13967 -0.21934
 C290 C -0.08908 1.12153 -0.18916
 C291 C 0.65736 0.66599 -0.29801
 C292 C 0.63670 0.64900 -0.26582
 C293 C 0.61227 0.62924 -0.22913
 C294 C 0.59124 0.61239 -0.19855
 C295 C 0.15416 1.17744 -0.29419
 C296 C 0.13372 1.16039 -0.26100
 C297 C 0.10977 1.13981 -0.22317
 C298 C 0.08927 1.12174 -0.19187
 C299 C 0.34633 0.32238 -0.29271
 C300 C 0.36675 0.33957 -0.26008
 C301 C 0.39071 0.36027 -0.22297
 C302 C 0.41124 0.37838 -0.19224
 C303 C -0.15655 0.83410 -0.29663
 C304 C -0.13594 0.85104 -0.26441
 C305 C -0.11158 0.87076 -0.22761
 C306 C -0.09062 0.88761 -0.19692
 C307 C 0.34639 0.67656 0.29035
 C308 C 0.36678 0.65922 0.25780
 C309 C 0.39070 0.63839 0.22082
 C310 C 0.41121 0.62020 0.19020
 C311 C -0.15633 1.16682 0.29886
 C312 C -0.13566 1.15000 0.26674
 C313 C -0.11125 1.13042 0.23000
 C314 C -0.09027 1.11367 0.19935
 C315 C 0.65632 0.33385 0.29673
 C316 C 0.63572 0.35053 0.26448
 C317 C 0.61137 0.36998 0.22774
 C318 C 0.59041 0.38662 0.19716
 C319 C 0.15350 0.82354 0.29232
 C320 C 0.13311 0.84073 0.25978
 C321 C 0.10920 0.86144 0.22270
 C322 C 0.08874 0.87957 0.19198
   
