data_POSCAR
  _audit_creation_date              2014-09-24
  _audit_creation_method            'ToBaCCo'
  _symmetry_space_group_name_H-M    'P1'
  _symmetry_Int_Tables_number       1
  _symmetry_cell_setting            triclinic
  loop_
  _symmetry_equiv_pos_as_xyz
 x,y,z
_cell_length_a 25.4101
_cell_length_b 26.3886
_cell_length_c 24.3728
_cell_angle_alpha 93.266100
_cell_angle_beta 87.074200
_cell_angle_gamma 91.312400
loop_
  _atom_site_label
  _atom_site_type_symbol
  _atom_site_fract_x
  _atom_site_fract_y
  _atom_site_fract_z
C1 C 0.17451 0.17232 0.24370
 N2 N 0.21861 0.15598 0.21387
 C3 C 0.23099 0.17464 0.16341
 N4 N 0.19948 0.20952 0.14366
 C5 C 0.15638 0.22645 0.17350
 N6 N 0.14380 0.20728 0.22289
 C7 C -0.18805 0.81255 0.23810
 N8 N -0.16726 0.77307 0.20654
 C9 C -0.18440 0.76155 0.15513
 N10 N -0.22215 0.79016 0.13503
 C11 C -0.24321 0.82971 0.16637
 N12 N -0.22569 0.84072 0.21741
 C13 C -0.21631 0.22587 -0.26790
 N14 N -0.19715 0.26943 -0.24351
 C15 C -0.22142 0.29059 -0.19697
 N16 N -0.26479 0.26717 -0.17410
 C17 C -0.28478 0.22367 -0.19835
 N18 N -0.26031 0.20341 -0.24526
 C19 C 0.17306 0.83139 -0.25018
 N20 N 0.14918 0.78662 -0.23775
 C21 C 0.17413 0.75296 -0.20818
 N22 N 0.22354 0.76448 -0.19095
 C23 C 0.24815 0.80897 -0.20417
 N24 N 0.22229 0.84209 -0.23342
 C25 C 0.17932 1.15969 0.75041
 N26 N 0.15553 1.20362 0.76855
 C27 C 0.15930 1.22214 0.82132
 N28 N 0.18768 1.19654 0.85630
 C29 C 0.21276 1.15337 0.83837
 N30 N 0.20811 1.13489 0.78552
 C31 C 0.88821 0.85989 0.82393
 N32 N 0.91820 0.83022 0.85284
 C33 C 0.89743 0.80855 0.89837
 N34 N 0.84699 0.81807 0.91647
 C35 C 0.81713 0.84874 0.88850
 N36 N 0.83760 0.86893 0.84185
 C37 C 0.18834 0.81324 1.21050
 N38 N 0.23742 0.81993 1.18794
 C39 C 0.26475 0.78007 1.16463
 N40 N 0.24221 0.73307 1.16279
 C41 C 0.19287 0.72568 1.18583
 N42 N 0.16612 0.76588 1.20960
 C43 C 0.81795 1.17845 1.24602
 N44 N 0.84226 1.22358 1.23557
 C45 C 0.82044 1.25583 1.20197
 N46 N 0.77490 1.24209 1.17771
 C47 C 0.75062 1.19705 1.18768
 N48 N 0.77212 1.16563 1.22223
 O49 O 0.55337 0.94315 0.88283
 O50 O 0.45594 0.96999 1.11072
 O51 O 0.60559 0.96476 1.02519
 O52 O 0.42534 0.91171 0.95092
 O53 O 0.53570 0.93039 1.06018
 O54 O 0.45409 0.94379 0.87623
 O55 O 0.43590 0.92165 1.04417
 O56 O 0.61023 0.98756 0.93015
 C57 C 0.59904 0.94976 0.89862
 C58 C 0.43227 0.93134 1.09449
 C59 C 0.58352 0.92780 1.04757
 C60 C 0.42674 0.91110 0.90034
 O61 O 0.45529 1.04068 0.88781
 O62 O 0.54566 1.01050 1.12307
 O63 O 0.56712 1.07874 0.96226
 O64 O 0.40321 1.02154 1.04560
 O65 O 0.47617 1.05522 1.07487
 O66 O 0.55454 1.04313 0.88279
 O67 O 0.39316 1.00841 0.94355
 O68 O 0.57005 1.05875 1.05716
 Co69 Co 0.50457 0.99259 0.89194
 Co70 Co 0.50769 0.99341 1.06415
 Co71 Co 0.58068 1.01979 0.99266
 Co72 Co 0.42132 0.96850 0.99557
 O73 O 0.50086 0.99214 0.98220
 C74 C 0.40788 1.03716 0.90500
 C75 C 0.57704 1.04577 1.10561
 C76 C 0.56971 1.08095 0.91158
 C77 C 0.42707 1.05669 1.07248
 O78 O 0.06750 0.45388 0.07951
 O79 O 0.06152 0.54885 -0.10237
 O80 O 0.01202 0.39426 -0.06251
 O81 O 0.08634 0.54570 0.06490
 O82 O 0.05854 0.45165 -0.10643
 O83 O 0.03271 0.53376 0.13004
 O84 O 0.10029 0.55923 -0.02721
 O85 O 0.03253 0.39134 0.03393
 C86 C 0.06905 0.40883 0.06238
 C87 C 0.09975 0.56614 -0.07669
 C88 C 0.05096 0.40644 -0.09387
 C89 C 0.07561 0.55221 0.11475
 O90 O -0.05658 0.52051 0.09073
 O91 O -0.04413 0.45473 -0.10624
 O92 O -0.06273 0.43120 0.06411
 O93 O 0.00372 0.60210 -0.03163
 O94 O -0.03936 0.55063 -0.08897
 O95 O -0.01901 0.44643 0.13695
 O96 O -0.01349 0.58849 0.06600
 O97 O -0.08209 0.43659 -0.02941
 Co98 Co 0.00484 0.48575 0.08162
 Co99 Co 0.00936 0.50064 -0.09148
 Co100 Co -0.02208 0.42001 0.00136
 Co101 Co 0.04160 0.56804 0.01710
 O102 O 0.01036 0.49582 -0.00114
 C103 C -0.05424 0.56781 0.08811
 C104 C -0.08356 0.43781 -0.07984
 C105 C -0.05345 0.41808 0.11161
 C106 C -0.03229 0.59378 -0.06548
 O107 O 1.09387 0.02467 0.44387
 O108 O 0.88323 0.05374 0.55863
 O109 O 0.94006 0.02437 0.38694
 O110 O 1.04629 0.07204 0.55569
 O111 O 0.88901 0.05355 0.45600
 O112 O 1.09785 0.01175 0.54384
 O113 O 0.95687 0.09044 0.57697
 O114 O 1.02673 0.05806 0.41375
 C115 C 1.07473 0.05943 0.41874
 C116 C 0.90803 0.09086 0.57915
 C117 C 0.90486 0.05387 0.40652
 C118 C 1.09085 0.05655 0.56015
 O119 O 1.04461 -0.07531 0.53118
 O120 O 0.88389 -0.04587 0.45052
 O121 O 1.03142 -0.02820 0.35826
 O122 O 0.93858 -0.00327 0.61517
 O123 O 0.88529 -0.04316 0.55724
 O124 O 1.05057 -0.06952 0.43081
 O125 O 1.03090 -0.02273 0.60204
 O126 O 0.96005 -0.06627 0.41374
 Co127 Co 1.06343 -0.02379 0.48841
 Co128 Co 0.89469 0.00411 0.50466
 Co129 Co 0.99460 -0.00385 0.41916
 Co130 Co 0.99319 0.03197 0.58083
 O131 O 0.98183 0.00460 0.50103
 C132 C 1.04010 -0.06718 0.58207
 C133 C 0.91161 -0.07378 0.41795
 C134 C 1.05731 -0.06477 0.37911
 C135 C 0.90279 -0.03633 0.60454
 C136 C 1.15657 0.15163 0.29320
 C137 C 1.17913 0.11320 0.31660
 C138 C 1.15336 0.08482 0.36246
 C139 C 1.10727 0.09711 0.38914
 H140 H 1.21563 0.09807 0.29826
 H141 H 1.17075 0.04896 0.37019
 H142 H 1.11993 0.16650 0.31096
 H143 H 1.08799 0.13191 0.38182
 C144 C 0.83222 -0.17356 0.28945
 C145 C 0.81133 -0.13596 0.32270
 C146 C 0.83551 -0.11239 0.37218
 C147 C 0.88724 -0.11262 0.38066
 H148 H 0.77489 -0.11908 0.31241
 H149 H 0.81054 -0.08691 0.39774
 H150 H 0.86642 -0.19313 0.30150
 H151 H 0.91343 -0.13550 0.35356
 C152 C 0.81184 0.20274 0.68687
 C153 C 0.79539 0.15914 0.66162
 C154 C 0.82666 0.12857 0.61956
 C155 C 0.87934 0.13160 0.61132
 H156 H 0.75702 0.14315 0.67318
 H157 H 0.80507 0.09783 0.59889
 H158 H 0.84883 0.22031 0.67342
 H159 H 0.90224 0.16071 0.63289
 C160 C 1.14595 -0.12984 0.72100
 C161 C 1.10307 -0.13925 0.69212
 C162 C 1.08047 -0.09817 0.66256
 C163 C 1.05318 -0.10801 0.61758
 H164 H 1.08659 -0.17743 0.68778
 H165 H 1.09065 -0.05912 0.67473
 H166 H 1.16349 -0.09195 0.72208
 H167 H 1.04675 -0.14702 0.60264
 C168 C 0.27204 1.15555 1.12836
 C169 C 0.31053 1.12650 1.14350
 C170 C 0.34532 1.10067 1.10090
 C171 C 0.39660 1.09419 1.10750
 H172 H 0.31514 1.11983 1.18645
 H173 H 0.32747 1.08432 1.06429
 H174 H 0.27219 1.16492 1.08555
 H175 H 0.41517 1.11280 1.14250
 C176 C 0.29861 0.82170 0.81425
 C177 C 0.32540 0.86346 0.79801
 C178 C 0.37458 0.88492 0.82108
 C179 C 0.39112 0.87526 0.87066
 H180 H 0.30973 0.88554 0.76667
 H181 H 0.39288 0.91619 0.79973
 H182 H 0.31566 0.79730 0.84252
 H183 H 0.37119 0.84635 0.89423
 C184 C 0.72065 0.86210 1.14605
 C185 C 0.69532 0.85269 1.09959
 C186 C 0.66335 0.89291 1.07947
 C187 C 0.61466 0.88459 1.06212
 H188 H 0.69807 0.81635 1.07667
 H189 H 0.67895 0.93152 1.08316
 H190 H 0.71265 0.89728 1.17001
 H191 H 0.59636 0.84717 1.06346
 C192 C 0.67217 1.19839 0.82711
 C193 C 0.65093 1.15539 0.80461
 C194 C 0.61099 1.12222 0.83191
 C195 C 0.59852 1.12369 0.88618
 H196 H 0.66462 1.14166 0.76373
 H197 H 0.59570 1.09112 0.80603
 H198 H 0.65691 1.21385 0.86667
 H199 H 0.61460 1.15325 0.91340
 C200 C 0.12050 0.26177 0.15083
 C201 C 0.13671 0.29571 0.11466
 C202 C 0.09817 0.32860 0.09229
 C203 C 0.11062 0.37575 0.07830
 H204 H 0.17818 0.30013 0.10280
 H205 H 0.05757 0.31509 0.09090
 H206 H 0.07947 0.26058 0.16545
 H207 H 0.14977 0.39151 0.08444
 C208 C -0.19806 0.33588 -0.16840
 C209 C -0.15753 0.36202 -0.19146
 C210 C -0.12450 0.40082 -0.16240
 C211 C -0.12729 0.41153 -0.10790
 H212 H -0.14471 0.35224 -0.23373
 H213 H -0.09216 0.41682 -0.18694
 H214 H -0.21314 0.34577 -0.12703
 H215 H -0.15838 0.39537 -0.08205
 C216 C 0.14568 0.70546 -0.19411
 C217 C 0.16304 0.67198 -0.16015
 C218 C 0.12879 0.62857 -0.14379
 C219 C 0.13978 0.60048 -0.10184
 H220 H 0.20082 0.67819 -0.14192
 H221 H 0.09142 0.62256 -0.16303
 H222 H 0.10717 0.69904 -0.21079
 H223 H 0.17572 0.60836 -0.08051
 C224 C -0.15791 0.72236 0.11880
 C225 C -0.13748 0.68117 0.13827
 C226 C -0.10350 0.64698 0.10288
 C227 C -0.09586 0.59926 0.11591
 H228 H -0.14416 0.67353 0.18134
 H229 H -0.08253 0.66188 0.06720
 H230 H -0.15415 0.72816 0.07509
 H231 H -0.11908 0.58355 0.14967
 C232 C 1.17064 0.13744 0.69800
 C233 C 1.14096 0.15943 0.66230
 C234 C 1.11757 0.13281 0.61406
 C235 C 1.12862 0.08552 0.59432
 H236 H 1.12679 0.19746 0.67213
 H237 H 1.08506 0.15206 0.59771
 H238 H 1.18555 0.09974 0.68841
 H239 H 1.16185 0.06563 0.60799
 C240 C 0.90998 -0.11918 0.77659
 C241 C 0.88087 -0.09656 0.74136
 C242 C 0.90605 -0.07258 0.69382
 C243 C 0.87925 -0.06517 0.64943
 H244 H 0.83827 -0.09582 0.74711
 H245 H 0.94706 -0.06045 0.69539
 H246 H 0.95204 -0.12265 0.76752
 H247 H 0.83939 -0.08019 0.64623
 C248 C 1.16185 -0.14461 0.23365
 C249 C 1.11597 -0.14832 0.26212
 C250 C 1.09398 -0.10358 0.29231
 C251 C 1.07846 -0.10728 0.34474
 H252 H 1.09769 -0.18512 0.26902
 H253 H 1.09435 -0.06736 0.27341
 H254 H 1.18099 -0.10758 0.23086
 H255 H 1.08252 -0.14297 0.36399
 C256 C 0.83972 0.14418 0.27939
 C257 C 0.88843 0.14967 0.29776
 C258 C 0.91057 0.11177 0.33163
 C259 C 0.88176 0.08971 0.37143
 H260 H 0.91421 0.18053 0.28490
 H261 H 0.95236 0.10447 0.32601
 H262 H 0.81656 0.11043 0.28868
 H263 H 0.84149 0.10106 0.38121
 C264 C 0.13213 0.26603 -0.16096
 C265 C 0.12860 0.28339 -0.10817
 C266 C 0.09439 0.32561 -0.08836
 C267 C 0.08651 0.36654 -0.11686
 H268 H 0.14662 0.26289 -0.07697
 H269 H 0.07651 0.32341 -0.04722
 H270 H 0.11072 0.28488 -0.19103
 H271 H 0.10800 0.37183 -0.15570
 C272 C -0.15478 0.30158 0.18919
 C273 C -0.10769 0.31701 0.20753
 C274 C -0.07815 0.36148 0.18651
 C275 C -0.08537 0.37794 0.13661
 H276 H -0.08896 0.29589 0.23774
 H277 H -0.04693 0.37814 0.21074
 H278 H -0.17475 0.32454 0.16165
 H279 H -0.11378 0.35928 0.11034
 C280 C -0.07206 0.77095 -0.07615
 C281 C -0.09125 0.72380 -0.07264
 C282 C -0.05724 0.68293 -0.05869
 C283 C -0.06665 0.63521 -0.07734
 H284 H -0.13074 0.71443 -0.08549
 H285 H -0.02269 0.69244 -0.03554
 H286 H -0.03097 0.77938 -0.06886
 H287 H -0.09998 0.62645 -0.10254
 C288 C 0.16728 0.67857 0.18094
 C289 C 0.18994 0.63793 0.15491
 C290 C 0.15914 0.59421 0.13297
 C291 C 0.11016 0.58189 0.15113
 H292 H 0.23091 0.63994 0.14038
 H293 H 0.17587 0.57497 0.09585
 H294 H 0.12611 0.67694 0.19460
 H295 H 0.09343 0.59774 0.18989
 C296 C 0.24472 1.12700 0.87633
 C297 C 0.28519 1.09861 0.85737
 C298 C 0.32018 1.07427 0.89400
 C299 C 0.36981 1.06556 0.87609
 H300 H 0.29477 1.09530 0.81343
 H301 H 0.30580 1.06377 0.93450
 H302 H 0.23718 1.13368 0.92029
 H303 H 0.38357 1.07928 0.83663
 C304 C 0.31621 0.78954 1.13708
 C305 C 0.34474 0.82986 1.15391
 C306 C 0.38396 0.85372 1.11727
 C307 C 0.40419 0.89888 1.13300
 H308 H 0.33360 0.85008 1.19267
 H309 H 0.39128 0.83782 1.07563
 H310 H 0.32734 0.76755 1.09955
 H311 H 0.39683 0.91434 1.17481
 C312 C 0.70448 1.18035 1.15675
 C313 C 0.67832 1.13723 1.16706
 C314 C 0.63845 1.11565 1.13039
 C315 C 0.61218 1.07330 1.14322
 H316 H 0.68836 1.11583 1.20163
 H317 H 0.63244 1.13283 1.09189
 H318 H 0.69381 1.20231 1.12288
 H319 H 0.61787 1.05695 1.18225
 C320 C 0.76479 0.86356 0.91131
 C321 C 0.72896 0.88202 0.88002
 C322 C 0.68216 0.90725 0.90518
 C323 C 0.64128 0.91696 0.87547
 H324 H 0.73577 0.88147 0.83570
 H325 H 0.68227 0.92038 0.94818
 H326 H 0.75664 0.86182 0.95528
 H327 H 0.63927 0.90137 0.83350
   
