data_POSCAR
  _audit_creation_date              2014-09-24
  _audit_creation_method            'ToBaCCo'
  _symmetry_space_group_name_H-M    'P1'
  _symmetry_Int_Tables_number       1
  _symmetry_cell_setting            triclinic
  loop_
  _symmetry_equiv_pos_as_xyz
 x,y,z
_cell_length_a 31.0423
_cell_length_b 37.5566
_cell_length_c 33.9066
_cell_angle_alpha 83.836400
_cell_angle_beta 89.264800
_cell_angle_gamma 90.351800
loop_
  _atom_site_label
  _atom_site_type_symbol
  _atom_site_fract_x
  _atom_site_fract_y
  _atom_site_fract_z
C1 C 0.58564 0.59867 0.63337
 C2 C 0.55936 0.62461 0.64810
 C3 C 0.55607 0.65892 0.62755
 C4 C 0.57930 0.66732 0.59195
 C5 C 0.60682 0.64199 0.57756
 C6 C 0.60949 0.60733 0.59797
 C7 C 0.58929 0.56456 0.65418
 C8 C 0.61566 0.53827 0.63973
 C9 C 0.63906 0.54714 0.60401
 C10 C 0.63706 0.58173 0.58370
 C11 C 0.66389 0.59174 0.55058
 C12 C 0.66361 0.62705 0.53183
 C13 C 0.63353 0.65144 0.54443
 H14 H 0.54158 0.61819 0.67571
 H15 H 0.57770 0.69413 0.57663
 H16 H 0.57051 0.55847 0.68122
 H17 H 0.66074 0.52795 0.59290
 H18 H 0.68673 0.57262 0.54104
 H19 H 0.63201 0.67837 0.52949
 C20 C 0.91182 0.38933 0.14022
 C21 C 0.93464 0.35894 0.13119
 C22 C 0.92268 0.34044 0.09889
 C23 C 0.88590 0.35180 0.07729
 C24 C 0.86203 0.38122 0.08697
 C25 C 0.87524 0.40049 0.11811
 C26 C 0.92592 0.40947 0.17009
 C27 C 0.90417 0.44068 0.17809
 C28 C 0.86680 0.45099 0.15687
 C29 C 0.85228 0.43121 0.12667
 C30 C 0.81584 0.44199 0.10424
 C31 C 0.80201 0.42212 0.07383
 C32 C 0.82544 0.39193 0.06537
 H33 H 0.96307 0.35109 0.14806
 H34 H 0.87487 0.33739 0.05329
 H35 H 0.95435 0.40111 0.18676
 H36 H 0.85002 0.47512 0.16277
 H37 H 0.79804 0.46546 0.11068
 H38 H 0.81572 0.37706 0.04124
 C39 C 0.42162 0.10882 -0.14540
 C40 C 0.44767 0.13765 -0.13669
 C41 C 0.43584 0.15821 -0.10611
 C42 C 0.39708 0.15064 -0.08509
 C43 C 0.37033 0.12255 -0.09404
 C44 C 0.38270 0.10136 -0.12411
 C45 C 0.43447 0.08680 -0.17426
 C46 C 0.40886 0.05736 -0.18256
 C47 C 0.36937 0.05098 -0.16176
 C48 C 0.35650 0.07236 -0.13235
 C49 C 0.31831 0.06460 -0.11031
 C50 C 0.30591 0.08565 -0.08033
 C51 C 0.33194 0.11477 -0.07263
 H52 H 0.47790 0.14322 -0.15259
 H53 H 0.38778 0.16664 -0.06164
 H54 H 0.46435 0.09314 -0.19030
 H55 H 0.34909 0.02848 -0.16695
 H56 H 0.29826 0.04220 -0.11651
 H57 H 0.32307 0.13079 -0.04910
 C58 C 0.10044 0.89635 0.35637
 C59 C 0.08947 0.86479 0.34002
 C60 C 0.09040 0.83132 0.36322
 C61 C 0.10524 0.82974 0.40253
 C62 C 0.11844 0.86086 0.41858
 C63 C 0.11474 0.89441 0.39584
 C64 C 0.09639 0.92991 0.33415
 C65 C 0.10573 0.96160 0.35112
 C66 C 0.12032 0.95939 0.39033
 C67 C 0.12517 0.92608 0.41266
 C68 C 0.14038 0.92393 0.45155
 C69 C 0.14620 0.89055 0.47353
 C70 C 0.13506 0.85907 0.45709
 H71 H 0.07768 0.86685 0.30995
 H72 H 0.10756 0.80419 0.42052
 H73 H 0.08482 0.93137 0.30401
 H74 H 0.12852 0.98358 0.40342
 H75 H 0.14888 0.94822 0.46438
 H76 H 0.13891 0.83335 0.47446
 N77 N 0.07639 0.19909 0.09125
 N78 N 0.06124 0.19451 0.12785
 C79 C 0.03120 0.21954 0.13245
 C80 C 0.02710 0.24042 0.09656
 C81 C 0.05617 0.22674 0.07111
 H82 H 0.01213 0.22116 0.15912
 H83 H 0.06154 0.23568 0.04002
 Cu84 Cu 0.07951 0.15413 0.16454
 Cu85 Cu 0.12034 0.16805 0.07246
 Cu86 Cu 0.11300 0.08249 0.12092
 N87 N 0.08935 0.10814 0.19503
 N88 N 0.10148 0.08005 0.17775
 C89 C 0.10462 0.05166 0.20534
 C90 C 0.09431 0.06270 0.24186
 C91 C 0.08472 0.09868 0.23428
 H92 H 0.11434 0.02516 0.19929
 H93 H 0.07501 0.11659 0.25564
 N94 N 0.14129 0.09357 0.06849
 N95 N 0.14607 0.12658 0.05123
 C96 C 0.17105 0.12624 0.01863
 C97 C 0.18243 0.09125 0.01506
 C98 C 0.16292 0.07115 0.04701
 H99 H 0.18096 0.14981 -0.00057
 H100 H 0.16639 0.04271 0.05533
 H101 H 0.08199 0.12977 0.10059
 H102 H 0.13642 0.13273 0.12296
 N103 N 0.42182 0.80936 0.63013
 N104 N 0.44530 0.82169 0.65777
 C105 C 0.47478 0.79715 0.67040
 C106 C 0.47018 0.76822 0.64892
 C107 C 0.43653 0.77683 0.62333
 H108 H 0.49798 0.80021 0.69335
 H109 H 0.42261 0.76011 0.60267
 Cu110 Cu 0.43636 0.86913 0.67383
 Cu111 Cu 0.37183 0.83588 0.60827
 Cu112 Cu 0.33368 0.89406 0.67367
 N113 N 0.41884 0.91179 0.69706
 N114 N 0.37801 0.92067 0.69850
 C115 C 0.37404 0.94969 0.71831
 C116 C 0.41475 0.95989 0.72901
 C117 C 0.44248 0.93531 0.71506
 H118 H 0.34390 0.96272 0.72380
 H119 H 0.47706 0.93419 0.71847
 N120 N 0.29827 0.87651 0.63182
 N121 N 0.31308 0.85569 0.60577
 C122 C 0.28273 0.85243 0.57827
 C123 C 0.24737 0.87245 0.58742
 C124 C 0.25831 0.88717 0.62156
 H125 H 0.28686 0.83797 0.55259
 H126 H 0.23969 0.90605 0.63651
 H127 H 0.37694 0.88658 0.62964
 H128 H 0.36385 0.84609 0.66461
 N129 N 0.97015 0.67610 0.37704
 N130 N 0.98742 0.66252 0.34646
 C131 C 1.01780 0.68526 0.32967
 C132 C 1.02025 0.71413 0.35165
 C133 C 0.98981 0.70738 0.38164
 H134 H 1.03643 0.68124 0.30336
 H135 H 0.98084 0.72489 0.40368
 Cu136 Cu 0.96893 0.61601 0.33262
 Cu137 Cu 0.92047 0.65393 0.40550
 Cu138 Cu 0.86825 0.58800 0.35859
 N139 N 0.94221 0.57649 0.30974
 N140 N 0.90219 0.56650 0.31832
 C141 C 0.89181 0.53929 0.29716
 C142 C 0.92756 0.53178 0.27473
 C143 C 0.95886 0.55582 0.28349
 H144 H 0.86116 0.52534 0.29886
 H145 H 0.99127 0.55826 0.27139
 N146 N 0.84071 0.61309 0.40072
 N147 N 0.86093 0.63815 0.41805
 C148 C 0.83361 0.65207 0.44322
 C149 C 0.79456 0.63457 0.44241
 C150 C 0.80005 0.60977 0.41545
 H151 H 0.84135 0.67381 0.46045
 H152 H 0.77578 0.59175 0.40620
 H153 H 0.91996 0.60123 0.38979
 H154 H 0.89954 0.63734 0.35290
 N155 N 0.58669 0.30478 -0.09821
 N156 N 0.57364 0.30814 -0.13514
 C157 C 0.54543 0.28153 -0.13991
 C158 C 0.54052 0.26077 -0.10379
 C159 C 0.56725 0.27623 -0.07813
 H160 H 0.52863 0.27832 -0.16707
 H161 H 0.57173 0.26779 -0.04694
 Cu162 Cu 0.59363 0.34827 -0.17229
 Cu163 Cu 0.62707 0.33823 -0.07869
 Cu164 Cu 0.61988 0.42256 -0.12985
 N165 N 0.60529 0.39370 -0.20391
 N166 N 0.61302 0.42301 -0.18703
 C167 C 0.61708 0.45087 -0.21531
 C168 C 0.61270 0.43814 -0.25180
 C169 C 0.60537 0.40175 -0.24360
 H170 H 0.62418 0.47811 -0.20977
 H171 H 0.59994 0.38274 -0.26485
 N172 N 0.64449 0.41379 -0.07610
 N173 N 0.64850 0.38125 -0.05762
 C174 C 0.67069 0.38290 -0.02418
 C175 C 0.68153 0.41821 -0.02133
 C176 C 0.66429 0.43723 -0.05465
 H177 H 0.67975 0.35986 -0.00419
 H178 H 0.66836 0.46553 -0.06391
 H179 H 0.58939 0.37449 -0.10946
 H180 H 0.64572 0.37318 -0.12934
 N181 N -0.02313 0.27329 0.04989
 N182 N -0.05341 0.30038 0.05096
 C183 C -0.05252 0.31184 0.08742
 C184 C -0.02233 0.29181 0.11030
 C185 C -0.00505 0.26811 0.08580
 H186 H -0.01410 0.29372 0.14091
 H187 H -0.01682 0.25929 0.02547
 H188 H -0.07089 0.31085 0.02635
 N189 N 0.51001 0.72061 0.68949
 N190 N 0.53177 0.69141 0.68402
 C191 C 0.53124 0.68677 0.64516
 C192 C 0.50747 0.71398 0.62504
 C193 C 0.49465 0.73479 0.65436
 H194 H 0.50162 0.71865 0.59352
 H195 H 0.50611 0.73070 0.71684
 H196 H 0.54801 0.67579 0.70638
 N197 N 1.05425 0.76250 0.30565
 N198 N 1.07234 0.79616 0.30886
 C199 C 1.07549 0.80017 0.34785
 C200 C 1.05919 0.76954 0.36996
 C201 C 1.04577 0.74710 0.34260
 H202 H 1.05477 0.76497 0.40182
 H203 H 1.04597 0.75270 0.27906
 H204 H 1.08207 0.81410 0.28469
 N205 N 0.49866 0.21917 -0.05567
 N206 N 0.47070 0.19265 -0.05630
 C207 C 0.46477 0.18636 -0.09423
 C208 C 0.48995 0.21014 -0.11898
 C209 C 0.51077 0.23056 -0.09321
 H210 H 0.49238 0.21248 -0.15103
 H211 H 0.50867 0.22948 -0.02986
 H212 H 0.45642 0.17890 -0.03100
 N213 N 0.08808 0.05406 0.31567
 N214 N 0.09141 0.02757 0.34440
 C215 C 0.09987 -0.00296 0.32820
 C216 C 0.10201 0.00456 0.28727
 C217 C 0.09448 0.04100 0.28063
 H218 H 0.10871 -0.01373 0.26543
 H219 H 0.08170 0.08059 0.32024
 H220 H 0.08729 0.03054 0.37448
 N221 N 0.63127 0.44597 -0.32395
 N222 N 0.63350 0.47441 -0.35404
 C223 C 0.61905 0.50406 -0.33887
 C224 C 0.60825 0.49514 -0.29900
 C225 C 0.61656 0.45897 -0.29093
 H226 H 0.59700 0.51270 -0.27783
 H227 H 0.64097 0.41978 -0.32678
 H228 H 0.64300 0.47183 -0.38322
 N229 N 0.46559 1.00501 0.75121
 N230 N 0.46362 1.03286 0.77527
 C231 C 0.42290 1.03416 0.78976
 C232 C 0.39833 1.00771 0.77452
 C233 C 0.42607 0.99026 0.75089
 H234 H 0.36458 1.00141 0.77978
 H235 H 0.49318 0.99742 0.73639
 H236 H 0.49040 1.04783 0.78208
 N237 N 0.97136 0.49128 0.23737
 N238 N 0.96524 0.46705 0.21252
 C239 C 0.92261 0.46359 0.20662
 C240 C 0.90055 0.48658 0.22914
 C241 C 0.93281 0.50360 0.24813
 H242 H 0.86617 0.49093 0.23079
 H243 H 1.00159 0.49929 0.24648
 H244 H 0.99015 0.45410 0.19893
 N245 N 0.21909 0.04456 -0.02029
 N246 N 0.25136 0.04318 -0.04593
 C247 C 0.26670 0.07666 -0.05595
 C248 C 0.24266 0.10036 -0.03625
 C249 C 0.21307 0.07894 -0.01386
 H250 H 0.24719 0.12899 -0.03676
 H251 H 0.20226 0.02220 -0.00690
 H252 H 0.26367 0.01948 -0.05491
 N253 N 0.74707 0.67587 0.47475
 N254 N 0.71226 0.67406 0.49761
 C255 C 0.69766 0.63992 0.50248
 C256 C 0.72436 0.61918 0.48095
 C257 C 0.75535 0.64309 0.46414
 H258 H 0.72330 0.59050 0.47983
 H259 H 0.76555 0.69906 0.46765
 H260 H 0.70059 0.69565 0.51146
 N261 N 0.72031 0.46543 0.01199
 N262 N 0.75188 0.46639 0.03780
 C263 C 0.76358 0.43251 0.05005
 C264 C 0.73778 0.40915 0.03187
 C265 C 0.71116 0.43094 0.00775
 H266 H 0.73987 0.38026 0.03404
 H267 H 0.70645 0.48803 -0.00332
 H268 H 0.76654 0.48986 0.04511
 N269 N 0.18016 0.90628 0.57060
 N270 N 0.15358 0.91123 0.54046
 C271 C 0.16463 0.88900 0.51346
 C272 C 0.19989 0.86897 0.52694
 C273 C 0.20905 0.88111 0.56315
 H274 H 0.21821 0.85040 0.51121
 H275 H 0.17948 0.92115 0.59490
 H276 H 0.12916 0.93032 0.53798
   
