data_POSCAR
  _audit_creation_date              2014-09-24
  _audit_creation_method            'ToBaCCo'
  _symmetry_space_group_name_H-M    'P1'
  _symmetry_Int_Tables_number       1
  _symmetry_cell_setting            triclinic
  loop_
  _symmetry_equiv_pos_as_xyz
 x,y,z
_cell_length_a 38.8246
_cell_length_b 38.8443
_cell_length_c 38.7564
_cell_angle_alpha 90.001600
_cell_angle_beta 90.081400
_cell_angle_gamma 90.015900
loop_
  _atom_site_label
  _atom_site_type_symbol
  _atom_site_fract_x
  _atom_site_fract_y
  _atom_site_fract_z
C1 C 0.17154 0.16990 0.21430
 N2 N 0.15738 0.19848 0.19988
 C3 C 0.17157 0.21287 0.17131
 N4 N 0.20013 0.19854 0.15710
 C5 C 0.21453 0.16995 0.17128
 N6 N 0.20012 0.15574 0.19989
 C7 C -0.17112 0.83006 0.21362
 N8 N -0.15699 0.80149 0.19920
 C9 C -0.17122 0.78710 0.17062
 N10 N -0.19982 0.80141 0.15639
 C11 C -0.21421 0.83000 0.17057
 N12 N -0.19974 0.84421 0.19919
 C13 C -0.17192 0.17018 -0.21335
 N14 N -0.20053 0.15602 -0.19904
 C15 C -0.21494 0.17022 -0.17043
 N16 N -0.20049 0.19877 -0.15619
 C17 C -0.17188 0.21307 -0.17036
 N18 N -0.15770 0.19870 -0.19893
 C19 C 0.17096 0.82985 -0.21402
 N20 N 0.15683 0.80127 -0.19960
 C21 C 0.17107 0.78692 -0.17099
 N22 N 0.19964 0.80128 -0.15676
 C23 C 0.21402 0.82986 -0.17094
 N24 N 0.19957 0.84404 -0.19958
 C25 C 0.16940 1.17136 0.78602
 N26 N 0.15525 1.19997 0.80041
 C27 C 0.16945 1.21437 0.82907
 N28 N 0.19801 1.19994 0.84332
 C29 C 0.21233 1.17137 0.82914
 N30 N 0.19796 1.15719 0.80052
 C31 C 0.82952 0.82975 0.78530
 N32 N 0.80094 0.84393 0.79970
 C33 C 0.78660 0.82975 0.82832
 N34 N 0.80096 0.80121 0.84256
 C35 C 0.82951 0.78685 0.82838
 N36 N 0.84370 0.80119 0.79976
 C37 C 0.17030 0.82850 1.21440
 N38 N 0.15613 0.79988 1.19999
 C39 C 0.17031 0.78546 1.17138
 N40 N 0.19888 0.79989 1.15719
 C41 C 0.21321 0.82847 1.17139
 N42 N 0.19886 0.84267 1.19997
 C43 C 0.83033 1.17129 1.21371
 N44 N 0.80172 1.15716 1.19926
 C45 C 0.78729 1.17141 1.17071
 N46 N 0.80160 1.20001 1.15655
 C47 C 0.83022 1.21439 1.17076
 N48 N 0.84448 1.19991 1.19935
 N49 N 0.53578 1.06116 0.96295
 N50 N 0.56200 1.08237 0.95868
 N51 N 0.46323 1.03719 0.93910
 N52 N 0.43695 1.04148 0.91790
 N53 N 0.46329 1.06106 0.96310
 N54 N 0.43705 1.08225 0.95889
 N55 N 0.53572 1.03729 0.93896
 N56 N 0.56190 1.04158 0.91770
 C57 C 0.57800 1.06981 0.93034
 C58 C 0.42091 1.06969 0.93059
 N59 N 0.46341 0.93910 0.96291
 N60 N 0.43719 0.91787 0.95861
 N61 N 0.53580 0.96315 0.93886
 N62 N 0.56198 0.95897 0.91756
 N63 N 0.53591 0.93921 0.96278
 N64 N 0.56216 0.91807 0.95844
 N65 N 0.46332 0.96305 0.93899
 N66 N 0.43705 0.95878 0.91776
 Mn67 Mn 0.49952 1.00017 0.93856
 C68 C 0.42105 0.93049 0.93034
 C69 C 0.57812 0.93074 0.93012
 N70 N 0.46352 1.06096 1.03741
 N71 N 0.43728 1.08212 1.04176
 N72 N 0.53613 1.03714 1.06119
 N73 N 0.56244 1.04143 1.08237
 N74 N 0.53600 1.06107 1.03726
 N75 N 0.56222 1.08231 1.04148
 N76 N 0.46362 1.03702 1.06133
 N77 N 0.43746 1.04123 1.08264
 Mn78 Mn 0.49965 1.06148 1.00018
 C79 C 0.42132 1.06947 1.07009
 C80 C 0.57841 1.06971 1.06973
 N81 N 0.53618 0.93911 1.03711
 N82 N 0.56244 0.91793 1.04134
 N83 N 0.46373 0.96287 1.06123
 N84 N 0.43756 0.95853 1.08251
 N85 N 0.46368 0.93900 1.03723
 N86 N 0.43749 0.91775 1.04151
 N87 N 0.53622 0.96298 1.06110
 N88 N 0.56251 0.95872 1.08231
 Mn89 Mn 0.49980 0.93869 1.00001
 Mn90 Mn 0.49993 1.00000 1.06163
 Cl91 Cl 0.49972 1.00008 1.00010
 C92 C 0.57857 0.93051 1.06964
 C93 C 0.42150 0.93028 1.06986
 N94 N 0.03737 0.46373 0.06145
 N95 N 0.04166 0.43751 0.08270
 N96 N 0.06129 0.53619 0.03747
 N97 N 0.08251 0.56242 0.04176
 N98 N 0.03740 0.53619 0.06142
 N99 N 0.04168 0.56241 0.08267
 N100 N 0.06125 0.46372 0.03749
 N101 N 0.08245 0.43750 0.04175
 C102 C 0.06989 0.42145 0.07006
 C103 C 0.06993 0.57847 0.07007
 N104 N 0.03725 0.53610 -0.06083
 N105 N 0.04149 0.56232 -0.08209
 N106 N 0.06114 0.46364 -0.03685
 N107 N 0.08231 0.43739 -0.04116
 N108 N 0.03717 0.46366 -0.06079
 N109 N 0.04135 0.43744 -0.08205
 N110 N 0.06119 0.53612 -0.03687
 N111 N 0.08240 0.56233 -0.04115
 Mn112 Mn 0.06164 0.49992 0.00031
 C113 C 0.06977 0.57837 -0.06946
 C114 C 0.06961 0.42136 -0.06946
 N115 N -0.03680 0.53624 0.06141
 N116 N -0.04106 0.56249 0.08261
 N117 N -0.06078 0.46376 0.03750
 N118 N -0.08199 0.43754 0.04177
 N119 N -0.03682 0.46376 0.06146
 N120 N -0.04106 0.43754 0.08270
 N121 N -0.06073 0.53621 0.03743
 N122 N -0.08193 0.56242 0.04163
 Mn123 Mn 0.00029 0.49998 0.06185
 C124 C -0.06932 0.57852 0.06992
 C125 C -0.06934 0.42149 0.07008
 N126 N -0.03701 0.46368 -0.06076
 N127 N -0.04136 0.43744 -0.08197
 N128 N -0.06081 0.53618 -0.03687
 N129 N -0.08200 0.56242 -0.04118
 N130 N -0.03693 0.53614 -0.06082
 N131 N -0.04118 0.56233 -0.08210
 N132 N -0.06088 0.46374 -0.03679
 N133 N -0.08214 0.43755 -0.04102
 Mn134 Mn 0.00012 0.49989 -0.06122
 Mn135 Mn -0.06121 0.49997 0.00032
 Cl136 Cl 0.00021 0.49994 0.00032
 C137 C -0.06962 0.42145 -0.06930
 C138 C -0.06940 0.57843 -0.06951
 N139 N 0.93914 0.03698 0.53569
 N140 N 0.91785 0.04122 0.56186
 N141 N 0.96329 0.06085 0.46318
 N142 N 0.95909 0.08210 0.43694
 N143 N 0.93934 0.03697 0.46308
 N144 N 0.91817 0.04131 0.43675
 N145 N 0.96306 0.06089 0.53580
 N146 N 0.95871 0.08207 0.56208
 C147 C 0.93040 0.06945 0.57802
 C148 C 0.93085 0.06956 0.42074
 N149 N 1.06136 0.03688 0.46359
 N150 N 1.08265 0.04112 0.43741
 N151 N 1.03724 0.06087 0.53608
 N152 N 1.04142 0.08213 0.56232
 N153 N 1.06116 0.03698 0.53623
 N154 N 1.08229 0.04132 0.56259
 N155 N 1.03747 0.06081 0.46347
 N156 N 1.04184 0.08199 0.43720
 Mn157 Mn 1.00026 0.06127 0.49963
 C158 C 1.07013 0.06936 0.42125
 C159 C 1.06962 0.06960 0.57857
 N160 N 0.93927 -0.03716 0.46316
 N161 N 0.91806 -0.04141 0.43686
 N162 N 0.96298 -0.06105 0.53588
 N163 N 0.95864 -0.08223 0.56216
 N164 N 0.93908 -0.03714 0.53577
 N165 N 0.91781 -0.04138 0.56197
 N166 N 0.96313 -0.06111 0.46325
 N167 N 0.95883 -0.08233 0.43698
 Mn168 Mn 0.93879 -0.00009 0.49942
 C169 C 0.93060 -0.06968 0.42082
 C170 C 0.93036 -0.06961 0.57813
 N171 N 1.06111 -0.03719 0.53625
 N172 N 1.08230 -0.04145 0.56257
 N173 N 1.03733 -0.06117 0.46358
 N174 N 1.04161 -0.08242 0.43736
 N175 N 1.06128 -0.03729 0.46362
 N176 N 1.08254 -0.04164 0.43741
 N177 N 1.03718 -0.06110 0.53620
 N178 N 1.04143 -0.08229 0.56249
 Mn179 Mn 1.06165 -0.00016 0.49992
 Mn180 Mn 1.00016 -0.06152 0.49973
 Cl181 Cl 1.00022 -0.00013 0.49968
 C182 C 1.06969 -0.06969 0.57864
 C183 C 1.06991 -0.06990 0.42133
 C184 C 1.12858 0.12718 0.30116
 N185 N 1.15704 0.11302 0.28661
 N186 N 1.17095 0.12684 0.25841
 C187 C 1.15693 0.15534 0.24370
 N188 N 1.12843 0.16944 0.25828
 N189 N 1.11452 0.15563 0.28647
 C190 C 1.11332 0.11206 0.33233
 N191 N 1.08491 0.12631 0.34691
 N192 N 1.07113 0.11268 0.37526
 C193 C 1.08527 0.08433 0.39004
 N194 N 1.11364 0.07005 0.37548
 N195 N 1.12743 0.08368 0.34712
 C196 C 0.87206 -0.12735 0.30054
 N197 N 0.88606 -0.15579 0.28584
 N198 N 0.87208 -0.16956 0.25762
 C199 C 0.84356 -0.15541 0.24303
 N200 N 0.82960 -0.12692 0.25777
 N201 N 0.84359 -0.11315 0.28599
 C202 C 0.88738 -0.11229 0.33175
 N203 N 0.87333 -0.08389 0.34652
 N204 N 0.88714 -0.07031 0.37492
 C205 C 0.91549 -0.08464 0.38956
 N206 N 0.92958 -0.11301 0.37480
 N207 N 0.91577 -0.12659 0.34641
 C208 C 0.87188 0.12695 0.69818
 N209 N 0.88594 0.15535 0.71298
 N210 N 0.87200 0.16907 0.74119
 C211 C 0.84350 0.15489 0.75565
 N212 N 0.82944 0.12647 0.74087
 N213 N 0.84339 0.11275 0.71265
 C214 C 0.88717 0.11193 0.66699
 N215 N 0.87306 0.08359 0.65211
 N216 N 0.88687 0.07005 0.62374
 C217 C 0.91526 0.08437 0.60924
 N218 N 0.92940 0.11268 0.62410
 N219 N 0.91559 0.12623 0.65247
 C220 C 1.12795 -0.12750 0.69899
 N221 N 1.11389 -0.15595 0.71366
 N222 N 1.12781 -0.16974 0.74189
 C223 C 1.15632 -0.15561 0.75654
 N224 N 1.17034 -0.12712 0.74184
 N225 N 1.15641 -0.11333 0.71361
 C226 C 1.11270 -0.11240 0.66776
 N227 N 1.12684 -0.08402 0.65302
 N228 N 1.11310 -0.07040 0.62461
 C229 C 1.08474 -0.08467 0.60992
 N230 N 1.07056 -0.11302 0.62465
 N231 N 1.08430 -0.12664 0.65306
 C232 C 0.30133 1.12727 1.12840
 N233 N 0.28669 1.15573 1.11429
 N234 N 0.25852 1.16953 1.12817
 C235 C 0.24391 1.15541 1.15669
 N236 N 0.25857 1.12691 1.17076
 N237 N 0.28675 1.11311 1.15688
 C238 C 0.33248 1.11216 1.11318
 N239 N 0.34722 1.08378 1.12735
 N240 N 0.37555 1.07016 1.11360
 C241 C 0.39015 1.08443 1.08520
 N242 N 0.37542 1.11278 1.07100
 N243 N 0.34710 1.12640 1.08475
 C244 C 0.30090 0.87258 0.87204
 N245 N 0.28627 0.88673 0.84354
 N246 N 0.25807 0.87292 0.82963
 C247 C 0.24343 0.84442 0.84368
 N248 N 0.25809 0.83030 0.87222
 N249 N 0.28629 0.84412 0.88613
 C250 C 0.33208 0.88771 0.88728
 N251 N 0.34680 0.87346 0.91570
 N252 N 0.37517 0.88710 0.92944
 C253 C 0.38983 0.91548 0.91526
 N254 N 0.37512 0.92976 0.88688
 N255 N 0.34676 0.91611 0.87313
 C256 C 0.69884 0.87265 1.12771
 N257 N 0.71345 0.84421 1.11358
 N258 N 0.74167 0.83041 1.12745
 C259 C 0.75636 0.84453 1.15597
 N260 N 0.74173 0.87301 1.17006
 N261 N 0.71351 0.88681 1.15619
 C262 C 0.66762 0.88777 1.11252
 N263 N 0.65294 0.91613 1.12675
 N264 N 0.62455 0.92976 1.11306
 C265 C 0.60983 0.91552 1.08466
 N266 N 0.62450 0.88719 1.07041
 N267 N 0.65289 0.87356 1.08409
 C268 C 0.69812 1.12763 0.87229
 N269 N 0.71280 1.15605 0.88645
 N270 N 0.74102 1.16983 0.87263
 C271 C 0.75563 1.15571 0.84411
 N272 N 0.74093 1.12726 0.82998
 N273 N 0.71271 1.11348 0.84381
 C274 C 0.66693 1.11254 0.88745
 N275 N 0.65218 1.08419 0.87321
 N276 N 0.62382 1.07057 0.88689
 C277 C 0.60919 1.08481 0.91530
 N278 N 0.62393 1.11312 0.92957
 N279 N 0.65229 1.12675 0.91588
 C280 C 0.12799 0.30131 0.12790
 N281 N 0.15642 0.28674 0.11370
 N282 N 0.17028 0.25853 0.12749
 C283 C 0.15621 0.24386 0.15598
 N284 N 0.12776 0.25843 0.17015
 N285 N 0.11390 0.28663 0.15636
 C286 C 0.11281 0.33250 0.11279
 N287 N 0.08445 0.34715 0.12707
 N288 N 0.07075 0.37552 0.11344
 C289 C 0.08493 0.39024 0.08505
 N290 N 0.11325 0.37560 0.07075
 N291 N 0.12695 0.34724 0.08438
 C292 C -0.12807 0.30141 -0.12696
 N293 N -0.11403 0.28668 -0.15542
 N294 N -0.12796 0.25851 -0.16919
 C295 C -0.15645 0.24402 -0.15502
 N296 N -0.17049 0.25873 -0.12654
 N297 N -0.15654 0.28691 -0.11276
 C298 C -0.11280 0.33256 -0.11189
 N299 N -0.12688 0.34736 -0.08349
 N300 N -0.11310 0.37571 -0.06991
 C301 C -0.08474 0.39026 -0.08425
 N302 N -0.07062 0.37547 -0.11262
 N303 N -0.08441 0.34713 -0.12620
 C304 C 0.12765 0.69848 -0.12748
 N305 N 0.15611 0.71310 -0.11330
 N306 N 0.16991 0.74131 -0.12713
 C307 C 0.15575 0.75592 -0.15564
 N308 N 0.12728 0.74131 -0.16980
 N309 N 0.11348 0.71310 -0.15597
 C310 C 0.11253 0.66730 -0.11233
 N311 N 0.08414 0.65260 -0.12657
 N312 N 0.07049 0.62425 -0.11289
 C313 C 0.08476 0.60957 -0.08450
 N314 N 0.11313 0.62425 -0.07022
 N315 N 0.12677 0.65261 -0.08390
 C316 C -0.12756 0.69866 0.12740
 N317 N -0.11347 0.71342 0.15587
 N318 N -0.12736 0.74162 0.16959
 C319 C -0.15585 0.75611 0.15534
 N320 N -0.16993 0.74137 0.12685
 N321 N -0.15603 0.71317 0.11314
 C322 C -0.11233 0.66748 0.11239
 N323 N -0.12648 0.65266 0.08399
 N324 N -0.11274 0.62429 0.07045
 C325 C -0.08438 0.60973 0.08484
 N326 N -0.07020 0.62454 0.11321
 N327 N -0.08394 0.65291 0.12676
 C328 C 1.12696 0.12824 0.69897
 N329 N 1.11273 0.15671 0.71344
 N330 N 1.12644 0.17069 0.74170
 C331 C 1.15491 0.15672 0.75656
 N332 N 1.16909 0.12821 0.74206
 N333 N 1.15538 0.11424 0.71381
 C334 C 1.11197 0.11292 0.66772
 N335 N 1.12631 0.08451 0.65322
 N336 N 1.11281 0.07068 0.62479
 C337 C 1.08449 0.08476 0.60986
 N338 N 1.07012 0.11313 0.62435
 N339 N 1.08363 0.12697 0.65277
 C340 C 0.87227 -0.12753 0.69834
 N341 N 0.84382 -0.11341 0.71294
 N342 N 0.82998 -0.12723 0.74117
 C343 C 0.84407 -0.15570 0.75587
 N344 N 0.87256 -0.16978 0.74124
 N345 N 0.88639 -0.15595 0.71301
 C346 C 0.88743 -0.11239 0.66714
 N347 N 0.91582 -0.12658 0.65249
 N348 N 0.92951 -0.11293 0.62411
 C349 C 0.91529 -0.08460 0.60936
 N350 N 0.88693 -0.07037 0.62399
 N351 N 0.87324 -0.08403 0.65237
 C352 C 1.12770 -0.12843 0.30127
 N353 N 1.15615 -0.11440 0.28657
 N354 N 1.16992 -0.12835 0.25838
 C355 C 1.15578 -0.15687 0.24381
 N356 N 1.12729 -0.17087 0.25853
 N357 N 1.11352 -0.15691 0.28673
 C358 C 1.11262 -0.11314 0.33244
 N359 N 1.08421 -0.12721 0.34719
 N360 N 1.07060 -0.11340 0.37553
 C361 C 1.08491 -0.08504 0.39014
 N362 N 1.11329 -0.07093 0.37541
 N363 N 1.12690 -0.08474 0.34706
 C364 C 0.87310 0.12812 0.30054
 N365 N 0.88727 0.15660 0.28604
 N366 N 0.87345 0.17059 0.25785
 C367 C 0.84492 0.15661 0.24309
 N368 N 0.83080 0.12808 0.25762
 N369 N 0.84463 0.11411 0.28581
 C370 C 0.88821 0.11281 0.33172
 N371 N 0.87393 0.08440 0.34628
 N372 N 0.88754 0.07059 0.37466
 C373 C 0.91590 0.08470 0.38949
 N374 N 0.93022 0.11307 0.37494
 N375 N 0.91661 0.12688 0.34657
 C376 C 0.12703 0.30124 -0.12792
 N377 N 0.11279 0.28672 -0.15644
 N378 N 0.12650 0.25852 -0.17038
 C379 C 0.15498 0.24377 -0.15631
 N380 N 0.16917 0.25832 -0.12775
 N381 N 0.15546 0.28651 -0.11383
 C382 C 0.11203 0.33242 -0.11264
 N383 N 0.12638 0.34700 -0.08420
 N384 N 0.11286 0.37536 -0.07041
 C385 C 0.08451 0.39014 -0.08458
 N386 N 0.07013 0.37558 -0.11299
 N387 N 0.08365 0.34722 -0.12678
 C388 C -0.12716 0.30132 0.12807
 N389 N -0.15564 0.28672 0.11392
 N390 N -0.16943 0.25850 0.12774
 C391 C -0.15526 0.24381 0.15623
 N392 N -0.12674 0.25844 0.17034
 N393 N -0.11295 0.28666 0.15652
 C394 C -0.11206 0.33252 0.11293
 N395 N -0.08365 0.34721 0.12715
 N396 N -0.07002 0.37558 0.11348
 C397 C -0.08432 0.39027 0.08511
 N398 N -0.11270 0.37560 0.07085
 N399 N -0.12633 0.34723 0.08452
 C400 C -0.12713 0.69848 -0.12785
 N401 N -0.11296 0.71304 -0.15635
 N402 N -0.12674 0.74122 -0.17027
 C403 C -0.15518 0.75589 -0.15619
 N404 N -0.16932 0.74135 -0.12768
 N405 N -0.15555 0.71316 -0.11376
 C406 C -0.11205 0.66732 -0.11260
 N407 N -0.12628 0.65271 -0.08417
 N408 N -0.11268 0.62436 -0.07041
 C409 C -0.08436 0.60962 -0.08461
 N410 N -0.07010 0.62421 -0.11301
 N411 N -0.08370 0.65256 -0.12677
 C412 C 0.12771 0.69858 0.12841
 N413 N 0.15614 0.71326 0.11433
 N414 N 0.16992 0.74146 0.12824
 C415 C 0.15579 0.75605 0.15677
 N416 N 0.12732 0.74135 0.17081
 N417 N 0.11354 0.71315 0.15690
 C418 C 0.11263 0.66740 0.11316
 N419 N 0.08426 0.65264 0.12731
 N420 N 0.07064 0.62429 0.11355
 C421 C 0.08492 0.60968 0.08516
 N422 N 0.11326 0.62441 0.07098
 N423 N 0.12687 0.65277 0.08474
 C424 C 0.30073 1.12777 0.87272
 N425 N 0.28617 1.15621 0.88690
 N426 N 0.25797 1.17007 0.87306
 C427 C 0.24330 1.15600 0.84453
 N428 N 0.25785 1.12754 0.83037
 N429 N 0.28605 1.11368 0.84421
 C430 C 0.33191 1.11259 0.88785
 N431 N 0.34654 1.08423 0.87357
 N432 N 0.37492 1.07054 0.88721
 C433 C 0.38968 1.08472 0.91561
 N434 N 0.37506 1.11304 0.92993
 N435 N 0.34668 1.12674 0.91629
 C436 C 0.30155 0.87209 1.12787
 N437 N 0.28693 0.88618 1.15636
 N438 N 0.25876 0.87232 1.17019
 C439 C 0.24417 0.84384 1.15603
 N440 N 0.25878 0.82976 1.12753
 N441 N 0.28695 0.84363 1.11370
 C442 C 0.33269 0.88729 1.11272
 N443 N 0.34736 0.87314 1.08428
 N444 N 0.37568 0.88687 1.07060
 C445 C 0.39034 0.91521 1.08489
 N446 N 0.37568 0.92938 1.11331
 N447 N 0.34736 0.91566 1.12699
 C448 C 0.69873 1.12785 1.12735
 N449 N 0.71324 1.15633 1.11317
 N450 N 0.74149 1.17019 1.12694
 C451 C 0.75626 1.15607 1.15539
 N452 N 0.74176 1.12757 1.16954
 N453 N 0.71351 1.11372 1.15578
 C454 C 0.66750 1.11267 1.11229
 N455 N 0.65293 1.08426 1.12657
 N456 N 0.62452 1.07055 1.11299
 C457 C 0.60967 1.08476 1.08466
 N458 N 0.62422 1.11314 1.07035
 N459 N 0.65263 1.12685 1.08393
 C460 C 0.69819 0.87311 0.87189
 N461 N 0.71276 0.88726 0.84340
 N462 N 0.74096 0.87349 0.82954
 C463 C 0.75562 0.84506 0.84367
 N464 N 0.74107 0.83092 0.87218
 N465 N 0.71287 0.84469 0.88604
 C466 C 0.66702 0.88817 0.88709
 N467 N 0.65242 0.87391 0.91552
 N468 N 0.62407 0.88750 0.92925
 C469 C 0.60931 0.91582 0.91503
 N470 N 0.62389 0.93011 0.88663
 N471 N 0.65225 0.91652 0.87290
   
