data_POSCAR
  _audit_creation_date              2014-09-24
  _audit_creation_method            'ToBaCCo'
  _symmetry_space_group_name_H-M    'P1'
  _symmetry_Int_Tables_number       1
  _symmetry_cell_setting            triclinic
  loop_
  _symmetry_equiv_pos_as_xyz
 x,y,z
_cell_length_a 20.9192
_cell_length_b 20.9947
_cell_length_c 27.1375
_cell_angle_alpha 93.585200
_cell_angle_beta 89.287000
_cell_angle_gamma 86.729100
loop_
  _atom_site_label
  _atom_site_type_symbol
  _atom_site_fract_x
  _atom_site_fract_y
  _atom_site_fract_z
C1 C -0.00444 0.36116 0.96221
 C2 C -0.00978 0.33485 1.00824
 C3 C -0.01565 0.37383 1.05233
 C4 C -0.02359 0.44131 1.04930
 C5 C -0.01682 0.46843 1.00316
 C6 C -0.01015 0.42843 0.95937
 C7 C -0.01133 0.45690 0.91382
 C8 C -0.01242 0.52312 0.91168
 C9 C -0.00998 0.56351 0.95494
 C10 C -0.01578 0.53596 1.00099
 C11 C -0.04239 0.48270 1.09034
 C12 C -0.03985 0.54847 1.08850
 C13 C -0.02002 0.57550 1.04517
 C14 C -0.00884 0.64148 1.04420
 C15 C -0.00560 0.66858 0.99831
 C16 C -0.00438 0.63065 0.95379
 H17 H -0.01256 0.42822 0.87934
 H18 H -0.01589 0.54193 0.87563
 H19 H -0.05970 0.46478 1.12422
 H20 H -0.05438 0.57810 1.12123
 H21 H -0.00235 0.28347 1.00990
 H22 H 0.00238 0.71908 0.99709
 C23 C 0.36711 -0.00564 0.54216
 C24 C 0.33543 0.00189 0.49754
 C25 C 0.36866 0.01543 0.45466
 C26 C 0.43509 0.02532 0.45712
 C27 C 0.46814 0.01565 0.50148
 C28 C 0.43374 0.00320 0.54469
 C29 C 0.46686 0.00137 0.58938
 C30 C 0.53319 0.00429 0.59036
 C31 C 0.56930 0.00740 0.54653
 C32 C 0.53609 0.01676 0.50221
 C33 C 0.46940 0.04619 0.41693
 C34 C 0.53582 0.04649 0.41749
 C35 C 0.57049 0.02578 0.45821
 C36 C 0.63843 0.01734 0.45697
 C37 C 0.67074 0.01053 0.50162
 C38 C 0.63735 0.00318 0.54590
 H39 H 0.44174 -0.00166 0.62416
 H40 H 0.55564 0.00428 0.62601
 H41 H 0.44533 0.06259 0.38463
 H42 H 0.55978 0.06348 0.38572
 H43 H 0.28511 -0.00772 0.49528
 H44 H 0.72256 0.00376 0.50114
 C45 C 0.13339 0.03614 0.26093
 H46 H 0.12993 0.04324 0.22189
 C47 C 0.19297 0.03402 0.28311
 H48 H 0.23533 0.04028 0.26099
 C49 C 0.08210 0.01710 0.33663
 H50 H 0.03879 0.00892 0.35684
 C51 C 0.14103 0.01577 0.36064
 H52 H 0.14293 0.00663 0.39945
 N53 N 0.07982 0.02577 0.28738
 C54 C -0.02534 -0.06868 0.16892
 H55 H -0.06501 -0.03503 0.16255
 C56 C -0.02105 -0.12844 0.14268
 H57 H -0.05697 -0.14005 0.11569
 C58 C 0.06628 -0.09729 0.21490
 H59 H 0.09908 -0.08653 0.24421
 C60 C 0.07213 -0.15722 0.18984
 H61 H 0.11058 -0.19063 0.19945
 Zn62 Zn 0.00520 0.01933 0.24942
 N63 N 0.01736 -0.05472 0.20501
 C64 C -0.00560 0.09665 0.16532
 N65 N -0.00375 0.09556 0.21543
 C66 C -0.00214 0.15053 0.24446
 C67 C -0.00231 0.20941 0.22361
 C68 C -0.00617 0.15492 0.14278
 C69 C -0.10192 -0.04294 0.28106
 C70 C -0.15966 -0.04975 0.30564
 C71 C -0.14550 0.04975 0.35256
 C72 C -0.08814 0.05526 0.32635
 N73 N -0.06835 0.01004 0.29028
 H74 H -0.00470 0.05258 0.14258
 H75 H 0.00187 0.14861 0.28394
 H76 H -0.00087 0.25218 0.24785
 H77 H -0.00661 0.15509 0.10288
 H78 H -0.08490 -0.07981 0.25390
 H79 H -0.18628 -0.09155 0.29661
 H80 H -0.16179 0.08700 0.38001
 H81 H -0.06018 0.09612 0.33446
 C82 C 0.02691 -0.17420 0.15440
 C83 C 0.19739 0.02224 0.33326
 C84 C -0.18286 -0.00228 0.34097
 C85 C -0.00336 0.21213 0.17208
 C86 C 0.06950 0.08161 0.79477
 H87 H 0.10965 0.05692 0.77503
 C88 C 0.07845 0.13930 0.82124
 H89 H 0.12561 0.15792 0.82138
 C90 C -0.03976 0.08626 0.81939
 H91 H -0.08591 0.06566 0.81810
 C92 C -0.03274 0.14419 0.84683
 H93 H -0.07371 0.16789 0.86646
 N94 N 0.01081 0.05695 0.79319
 C95 C 0.11697 -0.08164 0.71502
 H96 H 0.10613 -0.11553 0.74171
 C97 C 0.17477 -0.09023 0.68885
 H98 H 0.20565 -0.13182 0.69521
 C99 C 0.09145 0.01471 0.67688
 H100 H 0.05978 0.05674 0.67371
 C101 C 0.14924 0.00800 0.64987
 H102 H 0.16095 0.04451 0.62532
 Zn103 Zn 0.00206 -0.01763 0.75089
 N104 N 0.07631 -0.02997 0.70874
 C105 C -0.07684 -0.00010 0.66556
 N106 N -0.07475 -0.01047 0.71460
 C107 C -0.12857 -0.02250 0.74018
 C108 C -0.18695 -0.02640 0.71640
 C109 C -0.13489 -0.00214 0.64045
 C110 C 0.00291 -0.08941 0.83762
 C111 C 0.00472 -0.14643 0.86191
 C112 C -0.00779 -0.20449 0.78317
 C113 C -0.01127 -0.14659 0.76071
 N114 N -0.00340 -0.09088 0.78771
 H115 H -0.03357 0.00812 0.64548
 H116 H -0.12564 -0.03160 0.77889
 H117 H -0.22888 -0.03748 0.73730
 H118 H -0.13586 0.00490 0.60126
 H119 H 0.00850 -0.04441 0.85831
 H120 H 0.01184 -0.14529 0.90141
 H121 H -0.01116 -0.24873 0.76083
 H122 H -0.01693 -0.14613 0.72116
 C123 C 0.19214 -0.04472 0.65615
 C124 C 0.02662 0.17214 0.84683
 C125 C 0.00147 -0.20480 0.83417
 C126 C -0.19036 -0.01705 0.66578
 C127 C 0.00739 -0.32099 0.08678
 C128 C 0.03834 -0.34469 0.12721
 C129 C 0.05019 -0.29294 0.15737
 C130 C 0.02658 -0.24084 0.13336
 O131 O 0.00116 -0.25757 0.09030
 H132 H 0.05379 -0.39360 0.13325
 H133 H 0.07322 -0.29348 0.19283
 C134 C -0.00596 0.34452 0.09744
 C135 C 0.02108 0.37287 0.13906
 C136 C 0.02458 0.32762 0.17258
 C137 C 0.00074 0.27401 0.14921
 O138 O -0.01641 0.28362 0.10327
 H139 H 0.03996 0.41972 0.14390
 H140 H 0.04478 0.33274 0.20901
 C141 C 0.33099 -0.03200 0.58274
 C142 C 0.35246 -0.08445 0.60723
 C143 C 0.30374 -0.09633 0.63827
 C144 C 0.25521 -0.05081 0.63004
 O145 O 0.27166 -0.01204 0.59589
 H146 H 0.39789 -0.11159 0.60230
 H147 H 0.30427 -0.13411 0.66356
 C148 C -0.32480 -0.01764 0.58860
 C149 C -0.34014 -0.06712 0.61699
 C150 C -0.29268 -0.07215 0.65047
 C151 C -0.25064 -0.02668 0.63931
 O152 O -0.26936 0.00579 0.60119
 H153 H -0.38062 -0.09684 0.61318
 H154 H -0.28817 -0.10633 0.67864
 C155 C 0.00956 -0.33716 0.90794
 C156 C 0.05188 -0.36128 0.87096
 C157 C 0.05246 -0.31564 0.83758
 C158 C 0.01233 -0.26599 0.85734
 O159 O -0.01299 -0.27832 0.90038
 H160 H 0.08037 -0.40605 0.86910
 H161 H 0.08068 -0.31720 0.80378
 C162 C 0.01873 0.31792 0.91965
 C163 C 0.07113 0.32924 0.89082
 C164 C 0.08084 0.27643 0.85956
 C165 C 0.03417 0.23595 0.87188
 O166 O -0.00347 0.26096 0.90866
 H167 H 0.09974 0.37066 0.89312
 H168 H 0.11765 0.26869 0.83113
 C169 C -0.32584 0.00642 0.41236
 C170 C -0.34843 -0.02343 0.36957
 C171 C -0.29787 -0.03060 0.33758
 C172 C -0.24750 -0.00536 0.36283
 O173 O -0.26393 0.01650 0.40838
 H174 H -0.39517 -0.04152 0.36300
 H175 H -0.29774 -0.05207 0.30027
 C176 C 0.33441 0.00995 0.40711
 C177 C 0.36051 -0.01996 0.36408
 C178 C 0.31315 -0.01732 0.33044
 C179 C 0.26082 0.01232 0.35556
 O180 O 0.27314 0.02796 0.40238
 H181 H 0.40803 -0.04254 0.35819
 H182 H 0.31572 -0.03692 0.29257
   
