data_POSCAR
  _audit_creation_date              2014-09-24
  _audit_creation_method            'ToBaCCo'
  _symmetry_space_group_name_H-M    'P1'
  _symmetry_Int_Tables_number       1
  _symmetry_cell_setting            triclinic
  loop_
  _symmetry_equiv_pos_as_xyz
 x,y,z
_cell_length_a 24.6999
_cell_length_b 24.5845
_cell_length_c 24.9536
_cell_angle_alpha 90.311300
_cell_angle_beta 89.730000
_cell_angle_gamma 89.898000
loop_
  _atom_site_label
  _atom_site_type_symbol
  _atom_site_fract_x
  _atom_site_fract_y
  _atom_site_fract_z
O1 O 0.28211 1.06853 0.42763
 O2 O 0.29993 0.96563 0.53334
 O3 O 0.29836 0.96327 0.43235
 O4 O 0.28337 1.07309 0.53347
 O5 O 0.19615 1.05460 0.53851
 O6 O 0.20985 0.94968 0.43343
 O7 O 0.21168 0.95055 0.53580
 O8 O 0.19403 1.05378 0.43169
 Cu9 Cu 0.29975 1.02016 0.48188
 Cu10 Cu 0.19383 1.00198 0.48515
 C11 C 0.23459 1.07717 0.41060
 C12 C 0.25939 0.93884 0.55025
 C13 C 0.25693 0.93694 0.41695
 C14 C 0.23705 1.08135 0.55438
 O15 O 0.71581 -0.07435 0.46840
 O16 O 0.70581 0.03492 0.56921
 O17 O 0.69783 0.03243 0.46956
 O18 O 0.72559 -0.06924 0.57410
 O19 O 0.81290 -0.05293 0.56452
 O20 O 0.78528 0.04990 0.46174
 O21 O 0.79399 0.04981 0.56250
 O22 O 0.80250 -0.05557 0.45754
 Cu23 Cu 0.70260 -0.02209 0.52070
 Cu24 Cu 0.80787 -0.00219 0.51022
 C25 C 0.76063 -0.08244 0.44470
 C26 C 0.74771 0.06205 0.58138
 C27 C 0.73637 0.06083 0.45071
 C28 C 0.77427 -0.07682 0.58846
 O29 O 0.31376 0.47443 0.94649
 O30 O 0.25632 0.55533 1.05816
 O31 O 0.27144 0.45278 1.04171
 O32 O 0.28882 0.57898 0.96399
 O33 O 0.21280 0.56261 0.92044
 O34 O 0.19279 0.44016 1.00185
 O35 O 0.17598 0.54938 1.02008
 O36 O 0.23168 0.46171 0.91377
 Cu37 Cu 0.29125 0.51594 1.00546
 Cu38 Cu 0.19433 0.50377 0.96267
 C39 C 0.28226 0.45281 0.91239
 C40 C 0.20666 0.56819 1.05644
 C41 C 0.22927 0.42429 1.03389
 C42 C 0.25346 0.59260 0.92966
 O43 O 0.45290 0.25795 1.03858
 O44 O 0.57601 0.27451 0.95709
 O45 O 0.47025 0.27092 0.93639
 O46 O 0.55921 0.25110 1.05644
 O47 O 0.56040 0.16317 1.03818
 O48 O 0.47248 0.18199 0.92326
 O49 O 0.57738 0.18614 0.94006
 O50 O 0.45512 0.16940 1.02336
 Cu51 Cu 0.51430 0.27249 0.99862
 Cu52 Cu 0.51647 0.16660 0.97960
 C53 C 0.43230 0.21107 1.04380
 C54 C 0.59856 0.23302 0.93657
 C55 C 0.45464 0.22854 0.91111
 C56 C 0.57671 0.20319 1.06587
 O57 O 0.44560 0.72998 -0.05679
 O58 O 0.54323 0.70410 0.05200
 O59 O 0.43654 0.69247 0.04265
 O60 O 0.54852 0.72549 -0.04773
 O61 O 0.54837 0.80976 -0.01645
 O62 O 0.42650 0.77883 0.06532
 O63 O 0.53039 0.78724 0.08383
 O64 O 0.44411 0.81606 -0.03101
 Cu65 Cu 0.49291 0.70403 -0.00416
 Cu66 Cu 0.48642 0.80636 0.02800
 C67 C 0.43020 0.77889 -0.06340
 C68 C 0.55427 0.74177 0.08544
 C69 C 0.41178 0.72940 0.06853
 C70 C 0.56877 0.77278 -0.04649
 O71 O 1.05815 0.44924 0.25937
 O72 O 0.93598 0.52433 0.30188
 O73 O 0.96070 0.42342 0.28083
 O74 O 1.03659 0.55234 0.27414
 O75 O 1.00128 0.56531 0.19431
 O76 O 0.92719 0.43701 0.19974
 O77 O 0.90680 0.52815 0.21814
 O78 O 1.02691 0.45268 0.17666
 Cu79 Cu 1.00067 0.48752 0.28789
 Cu80 Cu 0.96785 0.49840 0.18797
 C81 C 1.06031 0.43445 0.21073
 C82 C 0.89998 0.53680 0.26779
 C83 C 0.93122 0.40851 0.24172
 C84 C 1.03013 0.58170 0.23300
 O85 O -0.01363 0.45323 0.71459
 O86 O 0.05829 0.58279 0.73176
 O87 O 0.08191 0.47519 0.72829
 O88 O -0.04747 0.54842 0.71660
 O89 O -0.05229 0.56014 0.80424
 O90 O 0.06588 0.47005 0.81536
 O91 O 0.04991 0.57667 0.81956
 O92 O -0.03585 0.45599 0.80070
 Cu93 Cu 0.02221 0.51884 0.71418
 Cu94 Cu 0.00626 0.51602 0.81896
 C95 C -0.03736 0.43300 0.75497
 C96 C 0.06762 0.60102 0.77848
 C97 C 0.09263 0.45560 0.77400
 C98 C -0.07247 0.56572 0.75801
 O99 O 0.42083 0.93360 0.28336
 O100 O 0.52567 1.03893 0.30005
 O101 O 0.41544 1.03648 0.27994
 O102 O 0.51622 0.93226 0.31080
 O103 O 0.54486 0.92896 0.22664
 O104 O 0.45536 1.04528 0.20146
 O105 O 0.55542 1.02412 0.21733
 O106 O 0.44508 0.92850 0.19806
 Cu107 Cu 0.46796 0.98860 0.30211
 Cu108 Cu 0.49752 0.98199 0.20090
 C109 C 0.41780 0.91124 0.23759
 C110 C 0.56027 1.04660 0.26273
 C111 C 0.42116 1.06150 0.23627
 C112 C 0.54652 0.91187 0.27464
 O113 O 1.06297 0.23466 0.53974
 O114 O 0.95469 0.23621 0.43804
 O115 O 1.06241 0.23826 0.43137
 O116 O 0.95795 0.23268 0.53941
 O117 O 0.95583 0.32270 0.54090
 O118 O 1.06269 0.32755 0.43920
 O119 O 0.95228 0.32594 0.44415
 O120 O 1.05667 0.32401 0.54802
 Cu121 Cu 1.01137 0.22626 0.48590
 Cu122 Cu 1.00966 0.33381 0.49114
 C123 C 1.07553 0.27872 0.56345
 C124 C 0.93247 0.28144 0.42713
 C125 C 1.08024 0.28447 0.41714
 C126 C 0.93756 0.27720 0.55641
 O127 O -0.04348 0.69246 0.56765
 O128 O 0.05001 0.72215 0.45539
 O129 O 0.05719 0.72437 0.56157
 O130 O -0.05020 0.68747 0.46685
 O131 O -0.07726 0.77320 0.46328
 O132 O 0.02721 0.80906 0.56211
 O133 O 0.02177 0.80742 0.45587
 O134 O -0.07257 0.77765 0.56534
 Cu135 Cu 0.00745 0.69825 0.51268
 Cu136 Cu -0.02702 0.80082 0.51146
 C137 C -0.07539 0.72978 0.58372
 C138 C 0.05062 0.76976 0.43578
 C139 C 0.05894 0.77262 0.57964
 C140 C -0.08303 0.72347 0.45055
 O141 O 0.71294 0.41170 1.05663
 O142 O 0.69248 0.52308 0.96206
 O143 O 0.73161 0.42460 0.95623
 O144 O 0.68401 0.51247 1.06725
 O145 O 0.76812 0.53941 1.08037
 O146 O 0.81504 0.45479 0.96807
 O147 O 0.77586 0.55261 0.97423
 O148 O 0.79845 0.43649 1.06575
 Cu149 Cu 0.69662 0.46608 1.00912
 Cu150 Cu 0.79727 0.49984 1.02418
 C151 C 0.75991 0.40343 1.07500
 C152 C 0.73034 0.55585 0.95080
 C153 C 0.78187 0.42354 0.94472
 C154 C 0.71855 0.53979 1.09366
 O155 O 0.48358 1.06788 0.66727
 O156 O 0.57529 0.95516 0.69179
 O157 O 0.47698 0.96160 0.67306
 O158 O 0.58295 1.06045 0.70923
 O159 O 0.55827 1.05422 0.79416
 O160 O 0.45121 0.95981 0.75806
 O161 O 0.55127 0.95299 0.77745
 O162 O 0.45720 1.06755 0.75188
 Cu163 Cu 0.53245 1.01361 0.67789
 Cu164 Cu 0.50072 1.01071 0.77834
 C165 C 0.45420 1.08676 0.70461
 C166 C 0.57826 0.93402 0.73783
 C167 C 0.44767 0.94222 0.71046
 C168 C 0.59012 1.07174 0.75847
 C169 C 0.24487 0.21645 0.26253
 C170 C 0.20680 0.25928 0.25796
 C171 C 0.20267 0.28825 0.20930
 C172 C 0.23790 0.27582 0.16607
 C173 C 0.27820 0.23596 0.17215
 C174 C 0.28421 0.20887 0.22182
 C175 C 0.73078 0.76038 0.31757
 C176 C 0.68809 0.76415 0.28028
 C177 C 0.68096 0.72273 0.24170
 C178 C 0.70945 0.67321 0.24683
 C179 C 0.74873 0.66749 0.28723
 C180 C 0.76038 0.71146 0.32216
 C181 C 0.77094 0.21015 0.71682
 C182 C 0.81275 0.24837 0.71138
 C183 C 0.82894 0.27990 0.75586
 C184 C 0.79821 0.27868 0.80372
 C185 C 0.75497 0.24139 0.80866
 C186 C 0.74377 0.20462 0.76639
 C187 C 0.25907 0.79976 0.69614
 C188 C 0.21113 0.77354 0.71242
 C189 C 0.20997 0.74400 0.76095
 C190 C 0.25544 0.74513 0.79552
 C191 C 0.30067 0.77768 0.78194
 C192 C 0.30359 0.80216 0.73104
 C193 C 0.22503 0.27542 0.70070
 C194 C 0.26219 0.23291 0.68828
 C195 C 0.31182 0.23004 0.71664
 C196 C 0.32192 0.26594 0.76010
 C197 C 0.28683 0.31009 0.76971
 C198 C 0.23703 0.31341 0.74185
 C199 C 0.79095 0.73738 0.73397
 C200 C 0.76364 0.78755 0.73651
 C201 C 0.72251 0.79539 0.77491
 C202 C 0.71647 0.75828 0.81749
 C203 C 0.74409 0.70751 0.81540
 C204 C 0.77998 0.69660 0.77225
 C205 C 0.18112 0.76209 0.28051
 C206 C 0.23351 0.78543 0.28129
 C207 C 0.27129 0.77139 0.24049
 C208 C 0.25796 0.73216 0.20100
 C209 C 0.20560 0.70922 0.20032
 C210 C 0.16721 0.72453 0.23986
 C211 C 0.77900 0.24129 0.30372
 C212 C 0.78970 0.26412 0.25311
 C213 C 0.75401 0.25513 0.20978
 C214 C 0.71150 0.21685 0.21516
 C215 C 0.70604 0.18823 0.26420
 C216 C 0.73744 0.20292 0.30929
 N217 N 0.18552 0.14239 0.29324
 N218 N 0.18169 0.10725 0.33269
 C219 C 0.22544 0.11236 0.36417
 C220 C 0.25889 0.15304 0.34395
 C221 C 0.23133 0.17133 0.29904
 H222 H 0.29695 0.16754 0.35981
 H223 H 0.15680 0.14678 0.26295
 H224 H 0.14986 0.07973 0.33735
 N225 N 0.78936 0.84201 0.32511
 N226 N 0.79844 0.88235 0.35899
 C227 C 0.76403 0.87778 0.40069
 C228 C 0.73187 0.83209 0.39341
 C229 C 0.74967 0.81042 0.34496
 H230 H 0.70068 0.81672 0.41981
 H231 H 0.81045 0.83595 0.28918
 H232 H 0.82709 0.91295 0.35302
 N233 N 0.71152 0.18959 0.63938
 N234 N 0.70349 0.14880 0.60581
 C235 C 0.74174 0.11081 0.61431
 C236 C 0.77576 0.12780 0.65488
 C237 C 0.75435 0.17751 0.67022
 H238 H 0.81003 0.10653 0.67175
 H239 H 0.68720 0.22431 0.64202
 H240 H 0.67288 0.14753 0.57709
 N241 N 0.29762 0.81080 0.60457
 N242 N 0.30090 0.84945 0.56824
 C243 C 0.26820 0.89068 0.58313
 C244 C 0.24265 0.87786 0.63090
 C245 C 0.26300 0.82688 0.64340
 H246 H 0.21566 0.90321 0.65450
 H247 H 0.31989 0.77468 0.60341
 H248 H 0.32488 0.84733 0.53369
 N249 N 0.31275 0.16417 0.11023
 N250 N 0.35500 0.15686 0.07841
 C251 C 0.38071 0.20471 0.07270
 C252 C 0.35276 0.24468 0.10106
 C253 C 0.31035 0.21689 0.12517
 H254 H 0.36483 0.28643 0.10789
 H255 H 0.28809 0.13281 0.12428
 H256 H 0.36720 0.11919 0.06298
 N257 N 0.34123 0.84381 0.84486
 N258 N 0.37469 0.84415 0.88578
 C259 C 0.39542 0.79388 0.89158
 C260 C 0.37507 0.76002 0.85183
 C261 C 0.34053 0.79360 0.82317
 H262 H 0.38141 0.71672 0.84680
 H263 H 0.31663 0.87659 0.83433
 H264 H 0.38110 0.87778 0.91070
 N265 N 0.68467 0.72934 0.14314
 N266 N 0.65112 0.72973 0.10233
 C267 C 0.60043 0.73546 0.12119
 C268 C 0.60143 0.73924 0.17682
 C269 C 0.65610 0.73442 0.18907
 H270 H 0.56743 0.74227 0.20418
 H271 H 0.72645 0.72351 0.13963
 H272 H 0.66294 0.72645 0.06218
 N273 N 0.73978 0.23833 0.90804
 N274 N 0.69823 0.23686 0.94147
 C275 C 0.65223 0.23843 0.91282
 C276 C 0.66452 0.24121 0.85900
 C277 C 0.72068 0.24107 0.85764
 H278 H 0.63673 0.24199 0.82561
 H279 H 0.78028 0.23612 0.91966
 H280 H 0.70142 0.23348 0.98305
 N281 N 0.11566 0.30966 0.16462
 N282 N 0.08070 0.35005 0.16165
 C283 C 0.09655 0.39007 0.19498
 C284 C 0.14419 0.37474 0.22005
 C285 C 0.15508 0.32345 0.19914
 H286 H 0.16675 0.39732 0.24973
 H287 H 0.11140 0.27251 0.14467
 H288 H 0.04473 0.34854 0.13982
 N289 N 0.92628 0.29493 0.73374
 N290 N 0.96103 0.33554 0.73224
 C291 C 0.93563 0.38092 0.74895
 C292 C 0.88231 0.36944 0.76109
 C293 C 0.87804 0.31413 0.75089
 H294 H 0.85123 0.39729 0.77499
 H295 H 0.93584 0.25467 0.72404
 H296 H 1.00175 0.33195 0.72143
 N297 N 0.13684 0.71918 0.82591
 N298 N 0.10019 0.68050 0.83098
 C299 C 0.09949 0.65077 0.78552
 C300 C 0.13707 0.67148 0.74975
 C301 C 0.16038 0.71448 0.77728
 H302 H 0.14897 0.65481 0.71123
 H303 H 0.14689 0.74689 0.85613
 H304 H 0.07729 0.67380 0.86560
 N305 N 0.76241 0.56699 0.29630
 N306 N 0.80340 0.53249 0.29337
 C307 C 0.84921 0.56095 0.28523
 C308 C 0.83720 0.61550 0.28194
 C309 C 0.78184 0.61761 0.28942
 H310 H 0.86427 0.64863 0.27223
 H311 H 0.72195 0.55587 0.30151
 H312 H 0.79963 0.49019 0.29438
 N313 N 0.12388 0.27022 0.69773
 N314 N 0.08524 0.26938 0.66137
 C315 C 0.10758 0.27681 0.61273
 C316 C 0.16318 0.28231 0.61803
 C317 C 0.17180 0.27807 0.67294
 H318 H 0.19307 0.28747 0.58664
 H319 H 0.11756 0.26311 0.73849
 H320 H 0.04434 0.26261 0.66965
 N321 N 0.79474 0.70750 0.63905
 N322 N 0.83060 0.70316 0.60000
 C323 C 0.87960 0.71660 0.61921
 C324 C 0.87499 0.73009 0.67305
 C325 C 0.82032 0.72341 0.68392
 H326 H 0.90587 0.74633 0.69921
 H327 H 0.75312 0.70179 0.63444
 H328 H 0.82101 0.69464 0.56010
 N329 N 0.10979 0.82397 0.31645
 N330 N 0.07623 0.82636 0.35769
 C331 C 0.08361 0.78191 0.38818
 C332 C 0.12395 0.74978 0.36548
 C333 C 0.13987 0.77856 0.32046
 H334 H 0.13912 0.71100 0.37927
 H335 H 0.11159 0.85273 0.28584
 H336 H 0.04790 0.85737 0.36399
 N337 N 0.80679 0.31527 0.36505
 N338 N 0.84982 0.32737 0.39384
 C339 C 0.88097 0.28265 0.39793
 C340 C 0.85604 0.23974 0.37148
 C341 C 0.80918 0.26244 0.35055
 H342 H 0.87230 0.19949 0.36406
 H343 H 0.77830 0.34378 0.35225
 H344 H 0.85832 0.36613 0.40893
 N345 N 0.34689 0.38530 0.80224
 N346 N 0.34674 0.42291 0.84044
 C347 C 0.30290 0.41508 0.87159
 C348 C 0.27491 0.37023 0.85348
 C349 C 0.30322 0.35301 0.80863
 H350 H 0.23857 0.35362 0.87089
 H351 H 0.37513 0.38331 0.77100
 H352 H 0.37443 0.45485 0.84314
 N353 N 0.81155 0.28090 0.13175
 N354 N 0.81523 0.32299 0.09929
 C355 C 0.77026 0.35344 0.10491
 C356 C 0.73618 0.32961 0.14215
 C357 C 0.76421 0.28388 0.15879
 H358 H 0.69883 0.34598 0.15838
 H359 H 0.84248 0.25255 0.13767
 H360 H 0.84841 0.33106 0.07449
 N361 N 0.68161 0.63298 0.83990
 N362 N 0.67766 0.59383 0.87557
 C363 C 0.72061 0.59633 0.90856
 C364 C 0.75351 0.63951 0.89324
 C365 C 0.72646 0.66214 0.84997
 H366 H 0.79177 0.65196 0.91028
 H367 H 0.65425 0.63920 0.80871
 H368 H 0.64663 0.56502 0.87625
 N369 N 0.15782 0.69083 0.11414
 N370 N 0.15570 0.65209 0.07735
 C371 C 0.18610 0.60982 0.09355
 C372 C 0.20732 0.62164 0.14353
 C373 C 0.18888 0.67370 0.15493
 H374 H 0.23495 0.59700 0.16644
 H375 H 0.14138 0.72965 0.10948
 H376 H 0.13796 0.65672 0.03972
 N377 N 0.38174 0.19907 0.65159
 N378 N 0.42098 0.15848 0.64769
 C379 C 0.41892 0.12931 0.69319
 C380 C 0.37795 0.14925 0.72609
 C381 C 0.35532 0.19263 0.69839
 H382 H 0.36594 0.13315 0.76448
 H383 H 0.37538 0.22959 0.62334
 H384 H 0.44814 0.15383 0.61577
 N385 N 0.37257 0.77444 0.23411
 N386 N 0.41066 0.81178 0.23043
 C387 C 0.38714 0.86115 0.23208
 C388 C 0.33184 0.85547 0.23709
 C389 C 0.32418 0.79964 0.23756
 H390 H 0.30164 0.88723 0.24079
 H391 H 0.37993 0.73263 0.23531
 H392 H 0.45216 0.80351 0.22904
 N393 N 0.69567 0.08927 0.28006
 N394 N 0.65686 0.05276 0.28296
 C395 C 0.60939 0.07734 0.27287
 C396 C 0.61809 0.13192 0.26213
 C397 C 0.67363 0.13772 0.26769
 H398 H 0.58877 0.16242 0.25067
 H399 H 0.73672 0.08081 0.28555
 H400 H 0.66312 0.01135 0.28983
 N401 N 0.63895 0.80406 0.72240
 N402 N 0.60068 0.84003 0.71299
 C403 C 0.61002 0.88442 0.74319
 C404 C 0.65675 0.87702 0.77295
 C405 C 0.67384 0.82529 0.75804
 H406 H 0.67654 0.90578 0.79929
 H407 H 0.64180 0.76603 0.70370
 H408 H 0.56928 0.83454 0.68560
 N409 N 0.83200 0.84893 0.69588
 N410 N 0.83570 0.88465 0.65295
 C411 C 0.78596 0.88937 0.63161
 C412 C 0.74972 0.85685 0.65993
 C413 C 0.78034 0.83190 0.69962
 H414 H 0.70739 0.85052 0.65109
 H415 H 0.86442 0.83700 0.71983
 H416 H 0.87115 0.90414 0.64066
 N417 N 0.19543 0.29087 0.07707
 N418 N 0.18932 0.33503 0.04280
 C419 C 0.22361 0.37423 0.05919
 C420 C 0.25162 0.35656 0.10403
 C421 C 0.23193 0.30483 0.11454
 H422 H 0.27951 0.37986 0.12833
 H423 H 0.17250 0.25527 0.07559
 H424 H 0.16294 0.33634 0.01023
 N425 N 0.19453 0.16090 0.66632
 N426 N 0.18639 0.12054 0.62791
 C427 C 0.23042 0.11908 0.59601
 C428 C 0.26684 0.15906 0.61241
 C429 C 0.24252 0.18503 0.65634
 H430 H 0.30458 0.16902 0.59293
 H431 H 0.16787 0.16944 0.69785
 H432 H 0.15265 0.09502 0.62635
 N433 N 0.29850 0.81332 0.35298
 N434 N 0.30621 0.85451 0.38622
 C435 C 0.26406 0.88892 0.38237
 C436 C 0.22788 0.86894 0.34482
 C437 C 0.25146 0.82078 0.32671
 H438 H 0.19121 0.88833 0.33126
 H439 H 0.32546 0.78088 0.34808
 H440 H 0.33935 0.85827 0.41182
 N441 N 0.67635 0.17336 0.38285
 N442 N 0.67475 0.13275 0.41718
 C443 C 0.72373 0.10875 0.41818
 C444 C 0.75845 0.13595 0.38376
 C445 C 0.72644 0.17626 0.36136
 H446 H 0.79914 0.12423 0.37225
 H447 H 0.64258 0.19607 0.37143
 H448 H 0.64012 0.12075 0.43816
 N449 N 0.68547 0.82454 0.88721
 N450 N 0.64299 0.82987 0.92391
 C451 C 0.61429 0.78347 0.92212
 C452 C 0.63722 0.74811 0.88466
 C453 C 0.68172 0.77518 0.86364
 H454 H 0.62116 0.70920 0.87253
 H455 H 0.71408 0.85461 0.87898
 H456 H 0.63573 0.86400 0.94801
 N457 N 0.18825 0.32633 0.33057
 N458 N 0.15532 0.33312 0.37186
 C459 C 0.12256 0.28958 0.37557
 C460 C 0.13488 0.25346 0.33420
 C461 C 0.17684 0.27874 0.30630
 H462 H 0.11496 0.21545 0.32512
 H463 H 0.21841 0.35384 0.31947
 H464 H 0.15576 0.36698 0.39733
 N465 N 0.67965 0.14820 0.14909
 N466 N 0.64002 0.14394 0.10991
 C467 C 0.61621 0.19304 0.10471
 C468 C 0.63980 0.22956 0.14072
 C469 C 0.67906 0.19954 0.16798
 H470 H 0.62891 0.27172 0.14722
 H471 H 0.70426 0.11625 0.16183
 H472 H 0.63191 0.10855 0.08804
 N473 N 0.33656 0.20184 0.83407
 N474 N 0.37096 0.19213 0.87294
 C475 C 0.41023 0.22996 0.87201
 C476 C 0.40052 0.26577 0.82994
 C477 C 0.35362 0.24520 0.80613
 H478 H 0.42441 0.30048 0.81789
 H479 H 0.30179 0.17887 0.82673
 H480 H 0.36706 0.16025 0.90020
 N481 N 0.32286 0.66509 0.16161
 N482 N 0.36299 0.66432 0.12653
 C483 C 0.36680 0.71370 0.10383
 C484 C 0.32639 0.74714 0.12440
 C485 C 0.29912 0.71442 0.16087
 H486 H 0.32007 0.78997 0.11679
 H487 H 0.31488 0.63372 0.18850
 H488 H 0.38947 0.63158 0.12100
 N489 N 0.79762 0.61271 0.71943
 N490 N 0.84349 0.58061 0.71133
 C491 C 0.87676 0.58946 0.75294
 C492 C 0.85350 0.62694 0.78801
 C493 C 0.80505 0.64228 0.76447
 H494 H 0.87284 0.64621 0.82199
 H495 H 0.76690 0.61786 0.69132
 H496 H 0.85035 0.55544 0.67812
 N497 N 0.38342 0.19760 0.21333
 N498 N 0.41959 0.15445 0.20956
 C499 C 0.39432 0.11030 0.22869
 C500 C 0.34141 0.12349 0.24360
 C501 C 0.33545 0.17828 0.23087
 H502 H 0.31035 0.09558 0.25683
 H503 H 0.39190 0.23723 0.20110
 H504 H 0.45991 0.15753 0.19710
 N505 N 0.07559 0.71467 0.20096
 N506 N 0.03955 0.67152 0.19527
 C507 C 0.05438 0.63264 0.23007
 C508 C 0.09948 0.64971 0.25850
 C509 C 0.11244 0.70043 0.23791
 H510 H 0.12379 0.62556 0.28544
 H511 H 0.07691 0.74871 0.17618
 H512 H 0.00825 0.66976 0.16731
 N513 N 0.89000 0.27099 0.25636
 N514 N 0.92708 0.30948 0.25607
 C515 C 0.90278 0.35687 0.24450
 C516 C 0.84789 0.34870 0.23712
 C517 C 0.84146 0.29353 0.24577
 H518 H 0.81686 0.37890 0.22997
 H519 H 0.89763 0.23027 0.26541
 H520 H 0.96811 0.30330 0.26406
 N521 N 0.16481 0.33523 0.80774
 N522 N 0.12889 0.37370 0.81765
 C523 C 0.13256 0.41167 0.77917
 C524 C 0.17315 0.39682 0.74303
 C525 C 0.19330 0.34852 0.76366
 H526 H 0.18531 0.41729 0.70664
 H527 H 0.16932 0.30003 0.83059
 H528 H 0.10070 0.37251 0.84896
 N529 N 0.79879 0.65945 0.39889
 N530 N 0.84132 0.66114 0.43060
 C531 C 0.86964 0.70643 0.41978
 C532 C 0.84437 0.73487 0.37922
 C533 C 0.79950 0.70333 0.36668
 H534 H 0.85822 0.77187 0.36054
 H535 H 0.76986 0.62852 0.39936
 H536 H 0.84996 0.63231 0.45997
 N537 N 0.82282 0.31236 0.63634
 N538 N 0.85735 0.32107 0.59697
 C539 C 0.89057 0.27781 0.59249
 C540 C 0.87602 0.23914 0.63017
 C541 C 0.83322 0.26337 0.65773
 H542 H 0.89714 0.20194 0.64000
 H543 H 0.79510 0.34115 0.65070
 H544 H 0.85946 0.35715 0.57514
 N545 N 0.13194 0.83071 0.68914
 N546 N 0.09331 0.83180 0.65281
 C547 C 0.09689 0.78633 0.62268
 C548 C 0.13978 0.75481 0.64050
 C549 C 0.16074 0.78459 0.68281
 H550 H 0.15432 0.71652 0.62435
 H551 H 0.13911 0.86164 0.71707
 H552 H 0.06501 0.86315 0.64900
 N553 N 0.64725 0.60947 0.19888
 N554 N 0.64929 0.57550 0.15772
 C555 C 0.70088 0.57205 0.14037
 C556 C 0.73329 0.60484 0.17223
 C557 C 0.69755 0.62795 0.20886
 H558 H 0.77610 0.61299 0.16766
 H559 H 0.61169 0.62099 0.21874
 H560 H 0.61562 0.55614 0.14119
 N561 N 0.26539 0.73288 0.89506
 N562 N 0.26747 0.69232 0.92947
 C563 C 0.25804 0.64545 0.90304
 C564 C 0.24968 0.65648 0.84932
 C565 C 0.25585 0.71252 0.84572
 H566 H 0.24140 0.62784 0.81731
 H567 H 0.27014 0.77376 0.90554
 H568 H 0.27388 0.69695 0.97060
 N569 N 0.85811 0.32518 0.87047
 N570 N 0.85408 0.36504 0.90593
 C571 C 0.80273 0.38359 0.90619
 C572 C 0.77276 0.35476 0.86916
 C573 C 0.80950 0.31820 0.84722
 H574 H 0.73025 0.35935 0.85985
 H575 H 0.89345 0.30304 0.86277
 H576 H 0.88564 0.37803 0.93058
 N577 N 0.61812 0.80485 0.33882
 N578 N 0.58132 0.84359 0.33779
 C579 C 0.58298 0.86752 0.28948
 C580 C 0.62282 0.84299 0.25807
 C581 C 0.64431 0.80355 0.29141
 H582 H 0.63452 0.85258 0.21737
 H583 H 0.62450 0.77906 0.37132
 H584 H 0.55517 0.85285 0.36959
 N585 N 0.70876 0.12594 0.81898
 N586 N 0.66703 0.09252 0.81828
 C587 C 0.63729 0.10324 0.77459
 C588 C 0.66040 0.14544 0.74649
 C589 C 0.70596 0.15876 0.77594
 H590 H 0.64439 0.16484 0.71127
 H591 H 0.73843 0.12636 0.84866
 H592 H 0.65978 0.06234 0.84672
 N593 N 0.39147 0.81244 0.68201
 N594 N 0.42749 0.85107 0.67314
 C595 C 0.41202 0.89612 0.70008
 C596 C 0.36399 0.88606 0.72679
 C597 C 0.35255 0.83248 0.71454
 H598 H 0.34140 0.91364 0.75235
 H599 H 0.39414 0.77286 0.66681
 H600 H 0.46346 0.84557 0.65160
   
