data_POSCAR
  _audit_creation_date              2014-09-24
  _audit_creation_method            'ToBaCCo'
  _symmetry_space_group_name_H-M    'P1'
  _symmetry_Int_Tables_number       1
  _symmetry_cell_setting            triclinic
  loop_
  _symmetry_equiv_pos_as_xyz
 x,y,z
_cell_length_a 24.5480
_cell_length_b 23.9108
_cell_length_c 24.3263
_cell_angle_alpha 90.100100
_cell_angle_beta 90.358100
_cell_angle_gamma 89.664000
loop_
  _atom_site_label
  _atom_site_type_symbol
  _atom_site_fract_x
  _atom_site_fract_y
  _atom_site_fract_z
N1 N 0.19066 0.18838 0.18805
 N2 N -0.19022 0.81453 0.19625
 N3 N -0.19904 0.17917 -0.18715
 N4 N 0.18520 0.79829 -0.19208
 N5 N 0.19159 1.19099 0.81576
 N6 N 0.80275 0.80734 0.79924
 N7 N 0.17526 0.81660 1.17975
 N8 N 0.80610 1.17661 1.18727
 O9 O 0.56956 0.88683 0.90142
 O10 O 0.63032 0.93592 0.95452
 C11 C 0.61891 0.89989 0.91634
 O12 O 0.42098 1.09384 0.90680
 O13 O 0.35983 1.04036 0.95438
 C14 C 0.37171 1.08023 0.92052
 O15 O 0.57572 1.08005 0.90087
 O16 O 0.63189 1.02584 0.95335
 C17 C 0.62420 1.06241 0.91570
 O18 O 0.41521 0.88431 0.90835
 O19 O 0.35650 0.94232 0.95491
 C20 C 0.36650 0.90099 0.92181
 Zr21 Zr 0.49285 0.91677 0.93018
 O22 O 0.48629 0.92469 0.84364
 O23 O 0.49220 0.82906 0.91945
 Zr24 Zr 0.49655 1.05732 0.93073
 O25 O 0.48951 1.05510 0.84397
 O26 O 0.50484 1.14527 0.92821
 O27 O 0.54343 0.98543 0.92026
 O28 O 0.44665 0.98852 0.92056
 O29 O 0.41754 0.88447 1.09457
 O30 O 0.35889 0.93956 1.04446
 C31 C 0.36897 0.89979 1.07936
 O32 O 0.57236 1.08599 1.09952
 O33 O 0.63099 1.03260 1.04806
 C34 C 0.62076 1.07091 1.08452
 O35 O 0.42142 1.09144 1.09706
 O36 O 0.36003 1.03814 1.04862
 C37 C 0.37226 1.07661 1.08438
 O38 O 0.57015 0.88899 1.10187
 O39 O 0.63027 0.93615 1.04764
 C40 C 0.61927 0.90133 1.08665
 Zr41 Zr 0.49386 0.91598 1.06961
 O42 O 0.48722 0.91584 1.15634
 O43 O 0.49759 0.82766 1.06916
 Zr44 Zr 0.49618 1.05701 1.07056
 O45 O 0.49198 1.05025 1.15731
 O46 O 0.49612 1.14537 1.07648
 Zr47 Zr 0.57555 0.98443 1.00099
 Zr48 Zr 0.41360 0.98917 1.00023
 O49 O 0.44755 0.98755 1.07972
 O50 O 0.54392 0.98532 1.08124
 O51 O 0.44506 0.90684 0.99980
 O52 O 0.54339 1.06609 1.00073
 O53 O 0.54019 0.90443 1.00010
 O54 O 0.44830 1.06967 1.00053
 H55 H 0.42102 0.98926 0.88892
 H56 H 0.56845 1.09815 0.99958
 H57 H 0.42310 0.98728 1.11181
 H58 H 0.56426 0.87103 1.00058
 H59 H 0.48163 1.16066 0.95776
 H60 H 0.51764 1.16014 1.04562
 H61 H 0.52742 1.03575 1.17089
 H62 H 0.51688 0.93940 1.17115
 H63 H 0.47248 0.81472 1.03995
 H64 H 0.50448 0.81232 0.95448
 H65 H 0.52223 0.93628 0.82958
 H66 H 0.52156 1.03456 0.82973
 O67 O -0.10126 0.57553 0.10766
 O68 O -0.05861 0.63640 0.04923
 C69 C -0.08941 0.62552 0.09105
 O70 O 0.09357 0.42322 0.09488
 O71 O 0.04098 0.35929 0.04882
 C72 C 0.07966 0.37247 0.08309
 O73 O 0.08629 0.57813 0.09491
 O74 O 0.03248 0.63720 0.04354
 C75 C 0.07046 0.62745 0.07957
 O76 O -0.10520 0.41892 0.10634
 O77 O -0.05520 0.35722 0.05445
 C78 C -0.09018 0.36861 0.09271
 Zr79 Zr -0.07873 0.49690 0.07495
 O80 O -0.08157 0.49686 0.16181
 O81 O -0.16469 0.49837 0.07073
 Zr82 Zr 0.05921 0.49909 0.06743
 O83 O 0.06398 0.49851 0.15434
 O84 O 0.14495 0.50584 0.06162
 O85 O -0.01003 0.54774 0.08095
 O86 O -0.00800 0.44983 0.08270
 O87 O -0.11768 0.41332 -0.08461
 O88 O -0.06074 0.35393 -0.03698
 C89 C -0.10120 0.36362 -0.07015
 O90 O 0.07224 0.57391 -0.10572
 O91 O 0.02591 0.63439 -0.05046
 C92 C 0.05817 0.62445 -0.09082
 O93 O 0.07990 0.41392 -0.09700
 O94 O 0.03191 0.35504 -0.04224
 C95 C 0.06703 0.36383 -0.08026
 O96 O -0.11040 0.57108 -0.09919
 O97 O -0.06202 0.63436 -0.04777
 C98 C -0.09586 0.62194 -0.08696
 Zr99 Zr -0.08709 0.49342 -0.06298
 O100 O -0.09952 0.48451 -0.14854
 O101 O -0.17258 0.50107 -0.05482
 Zr102 Zr 0.05082 0.49450 -0.07157
 O103 O 0.04634 0.48614 -0.15814
 O104 O 0.13660 0.50155 -0.07618
 Zr105 Zr -0.01528 0.57875 0.00017
 Zr106 Zr -0.01205 0.41294 0.00432
 O107 O -0.01800 0.44527 -0.07606
 O108 O -0.01951 0.54293 -0.07920
 O109 O -0.09227 0.44484 0.00787
 O110 O 0.06395 0.54515 -0.00391
 O111 O -0.09371 0.54437 0.00532
 O112 O 0.06669 0.44709 -0.00126
 H113 H -0.00531 0.42546 0.11549
 H114 H 0.09550 0.57047 -0.00653
 H115 H -0.01977 0.41899 -0.10754
 H116 H -0.12515 0.57057 0.00589
 H117 H 0.15788 0.47505 0.03776
 H118 H 0.15260 0.46924 -0.05639
 H119 H 0.02407 0.51768 -0.17228
 H120 H -0.06356 0.48901 -0.16586
 H121 H -0.18418 0.47218 -0.02845
 H122 H -0.17744 0.49984 0.10926
 H123 H -0.04400 0.49038 0.17515
 H124 H 0.04046 0.52910 0.16826
 O125 O 0.90400 0.10726 0.42894
 O126 O 0.95449 0.05703 0.36690
 C127 C 0.91730 0.09359 0.37903
 O128 O 1.10527 0.10070 0.58074
 O129 O 1.05435 0.04924 0.64093
 C130 C 1.09242 0.08493 0.63005
 O131 O 1.09927 0.10894 0.42704
 O132 O 1.04708 0.05899 0.36612
 C133 C 1.08487 0.09499 0.37750
 O134 O 0.90533 0.10141 0.58282
 O135 O 0.95910 0.04986 0.64169
 C136 C 0.92111 0.08660 0.63166
 Zr137 Zr 0.93409 0.07607 0.50501
 O138 O 0.93150 0.16427 0.51075
 O139 O 0.84789 0.07376 0.50233
 Zr140 Zr 1.07093 0.07884 0.50356
 O141 O 1.06102 0.16661 0.51135
 O142 O 1.15589 0.09136 0.50139
 O143 O 1.00139 0.08979 0.45505
 O144 O 1.00347 0.08630 0.55271
 O145 O 0.90419 -0.08947 0.57829
 O146 O 0.95824 -0.04235 0.63980
 C147 C 0.91808 -0.07561 0.62809
 O148 O 1.10205 -0.08761 0.41827
 O149 O 1.04693 -0.03544 0.36226
 C150 C 1.08590 -0.07099 0.36957
 O151 O 1.10898 -0.09072 0.57429
 O152 O 1.05686 -0.04300 0.63703
 C153 C 1.09556 -0.07796 0.62439
 O154 O 0.90737 -0.09380 0.42489
 O155 O 0.95655 -0.04003 0.36507
 C156 C 0.92113 -0.07853 0.37583
 Zr157 Zr 0.93755 -0.06581 0.50181
 O158 O 0.94731 -0.15380 0.50610
 O159 O 0.85225 -0.07676 0.49873
 Zr160 Zr 1.07431 -0.06357 0.49874
 O161 O 1.06962 -0.15195 0.50081
 O162 O 1.15995 -0.06934 0.49232
 Zr163 Zr 1.00243 0.00878 0.42076
 Zr164 Zr 1.00621 0.00440 0.58430
 O165 O 1.00718 -0.07588 0.54869
 O166 O 1.00494 -0.07405 0.45042
 O167 O 0.92616 0.00397 0.55217
 O168 O 1.08192 0.00922 0.45421
 O169 O 0.92459 0.00613 0.45618
 O170 O 1.08478 0.00639 0.54942
 H171 H 1.00391 0.11822 0.57873
 H172 H 1.11430 0.01024 0.43019
 H173 H 1.00780 -0.10840 0.57389
 H174 H 0.89186 0.00617 0.43215
 H175 H 1.17287 0.05392 0.50368
 H176 H 1.17501 -0.03776 0.51363
 H177 H 1.05774 -0.16473 0.46395
 H178 H 0.95981 -0.16697 0.46968
 H179 H 0.83584 -0.03898 0.49725
 H180 H 0.83567 0.04989 0.53304
 H181 H 0.95851 0.17896 0.48464
 H182 H 1.05286 0.18198 0.47445
 C183 C 1.19765 0.15378 0.28546
 C184 C 1.16608 0.16923 0.23882
 C185 C 1.10948 0.16192 0.24019
 C186 C 1.08410 0.13841 0.28547
 C187 C 1.11456 0.12031 0.33093
 C188 C 1.17226 0.12623 0.33039
 C189 C 1.25422 0.16373 0.28758
 C190 C 1.28590 0.14303 0.33075
 C191 C 1.26194 0.11192 0.37225
 C192 C 1.20581 0.10331 0.37208
 H193 H 1.27440 0.18743 0.25592
 H194 H 1.32938 0.15030 0.33148
 H195 H 1.28696 0.09437 0.40479
 H196 H 1.18957 0.07716 0.40392
 H197 H 1.08500 0.17277 0.20488
 H198 H 1.04022 0.13361 0.28462
 C199 C 0.89802 -0.15333 0.23956
 C200 C 0.84005 -0.15281 0.23658
 C201 C 0.81092 -0.12580 0.27869
 C202 C 0.83770 -0.10160 0.32338
 C203 C 0.89424 -0.10627 0.32898
 C204 C 0.92431 -0.13520 0.28859
 C205 C 0.93084 -0.17252 0.19591
 C206 C 0.98562 -0.18534 0.20471
 C207 C 1.00890 -0.17652 0.25622
 C208 C 0.97954 -0.14907 0.29702
 H209 H 0.91458 -0.17841 0.15504
 H210 H 1.00972 -0.20303 0.17181
 H211 H 1.05025 -0.18956 0.26430
 H212 H 0.99961 -0.14088 0.33587
 H213 H 0.76684 -0.12464 0.27769
 H214 H 0.81402 -0.08000 0.35439
 C215 C 0.84556 0.19272 0.72165
 C216 C 0.82919 0.15737 0.76516
 C217 C 0.84434 0.10054 0.76376
 C218 C 0.87543 0.07889 0.72112
 C219 C 0.89332 0.11332 0.67865
 C220 C 0.88019 0.17129 0.67974
 C221 C 0.82796 0.24893 0.71868
 C222 C 0.84780 0.28451 0.67824
 C223 C 0.88535 0.26482 0.64014
 C224 C 0.90156 0.20885 0.64079
 H225 H 0.79839 0.26577 0.74706
 H226 H 0.83444 0.32771 0.67686
 H227 H 0.90177 0.29296 0.60971
 H228 H 0.93183 0.19575 0.61141
 H229 H 0.83239 0.07233 0.79611
 H230 H 0.88488 0.03455 0.72089
 C231 C 1.19893 -0.15954 0.71441
 C232 C 1.16475 -0.17308 0.75928
 C233 C 1.11042 -0.15457 0.75814
 C234 C 1.09017 -0.12293 0.71488
 C235 C 1.12296 -0.10797 0.67055
 C236 C 1.17860 -0.12501 0.67078
 C237 C 1.25287 -0.17993 0.71177
 C238 C 1.28733 -0.16356 0.66950
 C239 C 1.26879 -0.12673 0.62921
 C240 C 1.21506 -0.10749 0.62974
 H241 H 1.26875 -0.20900 0.74190
 H242 H 1.32881 -0.17910 0.66830
 H243 H 1.29615 -0.11313 0.59723
 H244 H 1.20307 -0.07786 0.59854
 H245 H 1.08296 -0.16397 0.79130
 H246 H 1.04783 -0.11047 0.71592
 C247 C 0.24506 1.09897 1.17029
 C248 C 0.23403 1.15695 1.16036
 C249 C 0.27068 1.18643 1.12667
 C250 C 0.31472 1.15986 1.10168
 C251 C 0.32724 1.10429 1.11388
 C252 C 0.29550 1.07559 1.15282
 C253 C 0.20863 1.06318 1.19774
 C254 C 0.22694 1.01302 1.22057
 C255 C 0.28040 0.99556 1.21242
 C256 C 0.31361 1.02495 1.17641
 H257 H 0.16611 1.07331 1.20236
 H258 H 0.19964 0.98764 1.24460
 H259 H 0.29491 0.95707 1.23091
 H260 H 0.35360 1.00826 1.16795
 H261 H 0.26525 1.23070 1.11920
 H262 H 0.33992 1.18322 1.07352
 C263 C 0.27262 0.78723 0.86319
 C264 C 0.23154 0.82127 0.83815
 C265 C 0.23602 0.87967 0.84295
 C266 C 0.27864 0.90421 0.87195
 C267 C 0.31926 0.87172 0.89686
 C268 C 0.31529 0.81266 0.89462
 C269 C 0.27382 0.72872 0.85632
 C270 C 0.31194 0.69565 0.88414
 C271 C 0.35043 0.72023 0.91852
 C272 C 0.35257 0.77820 0.92349
 H273 H 0.24670 0.70786 0.82846
 H274 H 0.31163 0.65069 0.87892
 H275 H 0.37941 0.69431 0.94068
 H276 H 0.38320 0.79559 0.95060
 H277 H 0.20571 0.90684 0.82431
 H278 H 0.28039 0.94926 0.87413
 C279 C 0.71188 0.80241 1.17032
 C280 C 0.75900 0.83617 1.17438
 C281 C 0.75833 0.88974 1.15150
 C282 C 0.71258 0.90965 1.12375
 C283 C 0.66628 0.87613 1.11643
 C284 C 0.66629 0.82111 1.13864
 C285 C 0.70939 0.75011 1.19691
 C286 C 0.66507 0.71487 1.18880
 C287 C 0.62272 0.73092 1.15394
 C288 C 0.62327 0.78331 1.12887
 H289 H 0.74131 0.73623 1.22449
 H290 H 0.66399 0.67459 1.20899
 H291 H 0.58916 0.70270 1.14639
 H292 H 0.59045 0.79275 1.10082
 H293 H 0.79413 0.91588 1.15419
 H294 H 0.71367 0.95178 1.10741
 C295 C 0.77138 1.11170 0.88475
 C296 C 0.75996 1.14439 0.83772
 C297 C 0.70870 1.14100 0.81287
 C298 C 0.66612 1.11374 0.83868
 C299 C 0.67402 1.08533 0.88859
 C300 C 0.72882 1.08075 0.91041
 C301 C 0.82509 1.10825 0.90569
 C302 C 0.83744 1.07623 0.95164
 C303 C 0.79685 1.04625 0.97726
 C304 C 0.74363 1.04787 0.95710
 H305 H 0.85854 1.12892 0.88598
 H306 H 0.87885 1.07423 0.96711
 H307 H 0.80671 1.02107 1.01296
 H308 H 0.71651 1.02207 0.97980
 H309 H 0.70085 1.16277 0.77459
 H310 H 0.62625 1.11555 0.81941
 C311 C 0.15332 0.28632 0.19346
 C312 C 0.16751 0.23804 0.16238
 C313 C 0.15478 0.23689 0.10602
 C314 C 0.12837 0.28179 0.08091
 C315 C 0.10915 0.32694 0.11185
 C316 C 0.12000 0.32855 0.16920
 C317 C 0.17140 0.29376 0.24816
 C318 C 0.15151 0.33759 0.28025
 C319 C 0.11355 0.37489 0.25840
 C320 C 0.09785 0.37056 0.20341
 H321 H 0.20159 0.26652 0.26638
 H322 H 0.16505 0.34214 0.32244
 H323 H 0.09676 0.40780 0.28391
 H324 H 0.06754 0.39965 0.18847
 H325 H 0.16525 0.20081 0.08122
 H326 H 0.12247 0.28116 0.03701
 C327 C -0.21024 0.26857 -0.13260
 C328 C -0.17671 0.22646 -0.15669
 C329 C -0.11988 0.23048 -0.15009
 C330 C -0.09644 0.27385 -0.12014
 C331 C -0.12881 0.31486 -0.09519
 C332 C -0.18623 0.31097 -0.09915
 C333 C -0.26683 0.27118 -0.14249
 C334 C -0.29969 0.30972 -0.11497
 C335 C -0.27671 0.34721 -0.07790
 C336 C -0.22045 0.34829 -0.07029
 H337 H -0.28612 0.24512 -0.17268
 H338 H -0.34320 0.31045 -0.12247
 H339 H -0.30246 0.37635 -0.05579
 H340 H -0.20409 0.37793 -0.04111
 H341 H -0.09320 0.19950 -0.16836
 H342 H -0.05240 0.27612 -0.11752
 C343 C 0.11479 0.77171 -0.12266
 C344 C 0.14979 0.75755 -0.16673
 C345 C 0.14545 0.70457 -0.19068
 C346 C 0.11440 0.66292 -0.16648
 C347 C 0.08238 0.67384 -0.11996
 C348 C 0.07845 0.73077 -0.10092
 C349 C 0.11374 0.82665 -0.10126
 C350 C 0.07752 0.84192 -0.06016
 C351 C 0.04014 0.80356 -0.04097
 C352 C 0.03963 0.74921 -0.06164
 H353 H 0.13969 0.85892 -0.11688
 H354 H 0.07732 0.88427 -0.04436
 H355 H 0.01045 0.81632 -0.01062
 H356 H 0.00627 0.72433 -0.04777
 H357 H 0.16891 0.69457 -0.22699
 H358 H 0.11623 0.62136 -0.18416
 C359 C -0.14389 0.72075 0.20517
 C360 C -0.16843 0.76337 0.17259
 C361 C -0.16746 0.75835 0.11513
 C362 C -0.14094 0.71390 0.08987
 C363 C -0.11409 0.67298 0.12090
 C364 C -0.11445 0.67659 0.17915
 C365 C -0.14772 0.72117 0.26302
 C366 C -0.11978 0.68168 0.29465
 C367 C -0.08788 0.64094 0.26938
 C368 C -0.08516 0.63818 0.21221
 H369 H -0.17260 0.75157 0.28431
 H370 H -0.12258 0.68297 0.33903
 H371 H -0.06542 0.61104 0.29418
 H372 H -0.05925 0.60634 0.19444
 H373 H -0.18594 0.79029 0.08948
 H374 H -0.14164 0.71128 0.04554
 C375 C 1.20178 0.15335 0.72174
 C376 C 1.16939 0.16859 0.76801
 C377 C 1.11300 0.15722 0.76558
 C378 C 1.08976 0.12932 0.72127
 C379 C 1.12138 0.11118 0.67709
 C380 C 1.17825 0.12198 0.67758
 C381 C 1.25670 0.17009 0.71750
 C382 C 1.28910 0.15143 0.67427
 C383 C 1.26747 0.11628 0.63421
 C384 C 1.21262 0.10165 0.63564
 H385 H 1.27498 0.19813 0.74713
 H386 H 1.33135 0.16391 0.67212
 H387 H 1.29316 0.10080 0.60146
 H388 H 1.19787 0.07367 0.60409
 H389 H 1.08644 0.16809 0.79932
 H390 H 1.04621 0.12202 0.72150
 C391 C 0.80059 -0.14005 0.70975
 C392 C 0.82937 -0.16033 0.75659
 C393 C 0.88515 -0.14844 0.76167
 C394 C 0.91269 -0.11905 0.72095
 C395 C 0.88548 -0.09947 0.67395
 C396 C 0.82815 -0.10690 0.66995
 C397 C 0.74520 -0.15298 0.70074
 C398 C 0.71630 -0.12938 0.65699
 C399 C 0.74191 -0.09270 0.62133
 C400 C 0.79722 -0.08144 0.62760
 H401 H 0.72372 -0.18185 0.72667
 H402 H 0.67366 -0.13914 0.65111
 H403 H 0.71892 -0.07326 0.58832
 H404 H 0.81507 -0.05167 0.59976
 H405 H 0.90788 -0.16282 0.79727
 H406 H 0.95598 -0.11283 0.72567
 C407 C 1.11574 -0.10900 0.21818
 C408 C 1.15128 -0.15483 0.22598
 C409 C 1.16783 -0.16937 0.27918
 C410 C 1.14735 -0.14100 0.32486
 C411 C 1.11239 -0.09456 0.31885
 C412 C 1.10003 -0.07554 0.26405
 C413 C 1.09651 -0.09518 0.16507
 C414 C 1.06690 -0.04626 0.15608
 C415 C 1.05699 -0.00992 0.19947
 C416 C 1.07375 -0.02393 0.25258
 H417 H 1.10544 -0.12133 0.12991
 H418 H 1.05334 -0.03554 0.11499
 H419 H 1.03656 0.02962 0.19196
 H420 H 1.06822 0.00788 0.28302
 H421 H 1.19572 -0.20409 0.28522
 H422 H 1.15871 -0.15607 0.36531
 C423 C 0.83457 0.19226 0.28543
 C424 C 0.82531 0.15592 0.24015
 C425 C 0.84169 0.09989 0.24438
 C426 C 0.87129 0.08114 0.28966
 C427 C 0.88574 0.11765 0.33253
 C428 C 0.86753 0.17408 0.33051
 C429 C 0.81127 0.24622 0.28706
 C430 C 0.82444 0.28352 0.32909
 C431 C 0.86075 0.26760 0.37037
 C432 C 0.88213 0.21346 0.37127
 H433 H 0.78165 0.25945 0.25678
 H434 H 0.80666 0.32505 0.32944
 H435 H 0.87190 0.29712 0.40224
 H436 H 0.91067 0.20344 0.40363
 H437 H 0.83406 0.07118 0.21075
 H438 H 0.88370 0.03757 0.29080
 C439 C 0.13201 0.21752 -0.10784
 C440 C 0.16063 0.23023 -0.15688
 C441 C 0.15057 0.28166 -0.18262
 C442 C 0.12046 0.32339 -0.15690
 C443 C 0.09413 0.31401 -0.10670
 C444 C 0.09597 0.25832 -0.08413
 C445 C 0.13484 0.16328 -0.08481
 C446 C 0.10339 0.14881 -0.03981
 C447 C 0.06679 0.18702 -0.01811
 C448 C 0.06223 0.24051 -0.04030
 H449 H 0.15975 0.13060 -0.10217
 H450 H 0.10617 0.10707 -0.02282
 H451 H 0.04111 0.17494 0.01587
 H452 H 0.03083 0.26557 -0.02219
 H453 H 0.16949 0.29072 -0.22171
 H454 H 0.11763 0.36366 -0.17707
 C455 C -0.10971 0.22354 0.15453
 C456 C -0.16643 0.22482 0.16486
 C457 C -0.19634 0.27341 0.15242
 C458 C -0.17074 0.32057 0.13122
 C459 C -0.11435 0.32078 0.12242
 C460 C -0.08314 0.27278 0.13674
 C461 C -0.07932 0.17337 0.15826
 C462 C -0.02323 0.17307 0.15037
 C463 C 0.00350 0.22272 0.13914
 C464 C -0.02592 0.27227 0.13324
 H465 H -0.09863 0.13369 0.16485
 H466 H -0.00044 0.13427 0.15329
 H467 H 0.04702 0.22271 0.13405
 H468 H -0.00362 0.31016 0.12662
 H469 H -0.23997 0.27436 0.15865
 H470 H -0.19539 0.35661 0.12018
 C471 C -0.15125 0.71319 -0.20544
 C472 C -0.16862 0.76080 -0.17510
 C473 C -0.15898 0.76239 -0.11828
 C474 C -0.13465 0.71752 -0.09114
 C475 C -0.11878 0.66919 -0.11958
 C476 C -0.12468 0.66783 -0.17776
 C477 C -0.16071 0.70909 -0.26257
 C478 C -0.14124 0.66346 -0.29243
 C479 C -0.11209 0.62114 -0.26610
 C480 C -0.10371 0.62316 -0.20941
 H481 H -0.18353 0.74060 -0.28472
 H482 H -0.14839 0.66118 -0.33632
 H483 H -0.09604 0.58642 -0.28971
 H484 H -0.07971 0.59004 -0.19115
 H485 H -0.17108 0.79869 -0.09453
 H486 H -0.12893 0.72034 -0.04717
 C487 C 0.15214 0.76129 0.09382
 C488 C 0.14591 0.77232 0.15126
 C489 C 0.11445 0.73527 0.18254
 C490 C 0.08994 0.68873 0.15872
 C491 C 0.09862 0.67581 0.10349
 C492 C 0.13247 0.71021 0.07148
 C493 C 0.17698 0.79925 0.05743
 C494 C 0.19266 0.78269 0.00488
 C495 C 0.18033 0.72934 -0.01385
 C496 C 0.14829 0.69430 0.01798
 H497 H 0.18356 0.84218 0.06824
 H498 H 0.21393 0.81155 -0.02156
 H499 H 0.19330 0.71604 -0.05425
 H500 H 0.13709 0.65439 0.00077
 H501 H 0.10955 0.74169 0.22622
 H502 H 0.06468 0.66206 0.18382
 C503 C 0.27490 1.19824 0.87466
 C504 C 0.23775 1.16741 0.84032
 C505 C 0.24807 1.10952 0.83345
 C506 C 0.29138 1.08271 0.85957
 C507 C 0.32590 1.11153 0.89514
 C508 C 0.31732 1.16935 0.90398
 C509 C 0.27383 1.25727 0.87814
 C510 C 0.30794 1.28595 0.91439
 C511 C 0.34532 1.25690 0.94674
 C512 C 0.35066 1.19921 0.94116
 H513 H 0.24871 1.28245 0.85160
 H514 H 0.30571 1.33112 0.91694
 H515 H 0.37140 1.27934 0.97513
 H516 H 0.38117 1.17827 0.96609
 H517 H 0.22126 1.08380 0.80874
 H518 H 0.29814 1.03876 0.85169
 C519 C 0.27188 0.79829 1.15240
 C520 C 0.22790 0.83564 1.16171
 C521 C 0.23250 0.89127 1.14505
 C522 C 0.27704 0.90915 1.11578
 C523 C 0.32131 0.87374 1.10582
 C524 C 0.31861 0.81699 1.12311
 C525 C 0.26998 0.74262 1.17112
 C526 C 0.31184 0.70511 1.15886
 C527 C 0.35604 0.72233 1.12772
 C528 C 0.35946 0.77759 1.10982
 H529 H 0.23637 0.72780 1.19556
 H530 H 0.30972 0.66231 1.17309
 H531 H 0.38783 0.69268 1.11727
 H532 H 0.39347 0.78830 1.08431
 H533 H 0.19958 0.92060 1.15077
 H534 H 0.27682 0.95188 1.10117
 C535 C 0.75188 1.15411 1.10026
 C536 C 0.76132 1.14906 1.15828
 C537 C 0.72297 1.11916 1.18945
 C538 C 0.67802 1.09383 1.16501
 C539 C 0.66724 1.10082 1.10912
 C540 C 0.70173 1.13502 1.07746
 C541 C 0.79021 1.17695 1.06349
 C542 C 0.77484 1.19319 1.01061
 C543 C 0.72225 1.18320 0.99193
 C544 C 0.68680 1.15194 1.02390
 H545 H 0.83245 1.18161 1.07404
 H546 H 0.80402 1.21305 0.98389
 H547 H 0.70998 1.19660 0.95123
 H548 H 0.64751 1.14204 1.00668
 H549 H 0.72772 1.11498 1.23349
 H550 H 0.65100 1.06906 1.19012
 C551 C 0.70985 0.79441 0.83960
 C552 C 0.75459 0.82929 0.82646
 C553 C 0.75348 0.88539 0.84327
 C554 C 0.70954 0.90696 0.87271
 C555 C 0.66546 0.87307 0.88738
 C556 C 0.66636 0.81565 0.87236
 C557 C 0.70710 0.73884 0.82022
 C558 C 0.66525 0.70355 0.83653
 C559 C 0.62537 0.72288 0.87229
 C560 C 0.62581 0.77828 0.89018
 H561 H 0.73663 0.72232 0.79175
 H562 H 0.66406 0.66084 0.82176
 H563 H 0.59371 0.69492 0.88598
 H564 H 0.59485 0.79091 0.91895
 H565 H 0.78725 0.91262 0.83393
 H566 H 0.70986 0.95085 0.88383
   
