data_POSCAR
  _audit_creation_date              2014-09-24
  _audit_creation_method            'ToBaCCo'
  _symmetry_space_group_name_H-M    'P1'
  _symmetry_Int_Tables_number       1
  _symmetry_cell_setting            triclinic
  loop_
  _symmetry_equiv_pos_as_xyz
 x,y,z
_cell_length_a 21.2920
_cell_length_b 21.9846
_cell_length_c 21.2883
_cell_angle_alpha 90.484700
_cell_angle_beta 89.111200
_cell_angle_gamma 91.069800
loop_
  _atom_site_label
  _atom_site_type_symbol
  _atom_site_fract_x
  _atom_site_fract_y
  _atom_site_fract_z
N1 N 0.22558 0.22124 0.21986
 N2 N -0.19732 0.78512 0.18774
 N3 N -0.20592 0.22927 -0.23371
 N4 N 0.22689 0.78230 -0.24360
 N5 N 0.23842 1.22009 0.76090
 N6 N 0.79608 0.78607 0.80114
 N7 N 0.23956 0.76870 1.21197
 N8 N 0.77620 1.20711 1.20552
 O9 O 0.54436 0.92858 0.88210
 O10 O 0.46720 0.91769 1.06869
 O11 O 0.65820 1.01114 1.04021
 O12 O 0.37506 0.95826 0.94307
 O13 O 0.58453 0.94159 1.06338
 O14 O 0.43665 0.96719 0.86142
 O15 O 0.38427 0.96921 1.05524
 O16 O 0.61464 0.95786 0.94907
 C17 C 0.59520 0.91979 0.90812
 C18 C 0.40867 0.91972 1.06983
 C19 C 0.64255 0.95945 1.06860
 C20 C 0.38945 0.94471 0.88777
 O21 O 0.47824 1.07799 0.86273
 O22 O 0.56139 1.04962 1.11524
 O23 O 0.61090 1.08720 0.94459
 O24 O 0.41104 1.08823 1.04359
 O25 O 0.44829 1.03218 1.11715
 O26 O 0.58885 1.03390 0.86634
 O27 O 0.39314 1.07622 0.92445
 O28 O 0.57427 1.09894 1.03500
 Co29 Co 0.51088 1.00335 0.87958
 Co30 Co 0.51348 0.98740 1.08096
 Co31 Co 0.58776 1.02560 0.99639
 Co32 Co 0.40008 1.02305 0.99136
 O33 O 0.49868 1.01227 0.98197
 C34 C 0.42435 1.09743 0.87772
 C35 C 0.57610 1.09913 1.09209
 C36 C 0.61268 1.08072 0.88743
 C37 C 0.41769 1.07831 1.10069
 O38 O 0.06816 0.43954 0.11025
 O39 O 0.07492 0.56106 -0.13551
 O40 O 0.04230 0.37268 -0.07632
 O41 O 0.11367 0.56008 0.05302
 O42 O 0.08063 0.44799 -0.13111
 O43 O 0.04899 0.55132 0.12544
 O44 O 0.12605 0.58072 -0.05280
 O45 O 0.09391 0.39755 0.02329
 C46 C 0.10423 0.40527 0.07993
 C47 C 0.12307 0.58228 -0.11058
 C48 C 0.08094 0.39299 -0.11672
 C49 C 0.10222 0.56916 0.10854
 O50 O -0.06499 0.53527 0.07934
 O51 O -0.04305 0.44223 -0.12448
 O52 O -0.01003 0.34222 0.03918
 O53 O 0.00671 0.62532 -0.05930
 O54 O -0.04401 0.55818 -0.11836
 O55 O -0.05393 0.42352 0.07955
 O56 O -0.00591 0.61241 0.05312
 O57 O -0.06675 0.40823 -0.03273
 Co58 Co 0.00259 0.48817 0.08824
 Co59 Co 0.01758 0.50146 -0.11641
 Co60 Co 0.01435 0.40895 -0.00359
 Co61 Co 0.05762 0.58760 -0.00145
 O62 O 0.02526 0.49951 -0.01318
 C63 C -0.05770 0.59144 0.07452
 C64 C -0.07917 0.41156 -0.08969
 C65 C -0.04539 0.36619 0.08392
 C66 C -0.03853 0.61088 -0.09532
 O67 O 1.11244 0.05665 0.44057
 O68 O 0.89285 0.06261 0.55401
 O69 O 0.93498 0.01664 0.35662
 O70 O 1.05873 0.01779 0.64445
 O71 O 0.89044 0.06203 0.43626
 O72 O 1.10823 0.04442 0.55515
 O73 O 0.98919 0.08275 0.58368
 O74 O 1.03308 0.06800 0.38331
 C75 C 1.08547 0.08676 0.40035
 C76 C 0.93229 0.09713 0.58287
 C77 C 0.89746 0.05550 0.37837
 C78 C 1.10759 0.04271 0.61565
 O79 O 1.10323 -0.07828 0.53549
 O80 O 0.88191 -0.06015 0.43110
 O81 O 1.05439 -0.03228 0.33052
 O82 O 0.93512 -0.01614 0.62442
 O83 O 0.88466 -0.06110 0.54991
 O84 O 1.10017 -0.06454 0.41880
 O85 O 1.02128 -0.07754 0.59209
 O86 O 0.97269 -0.08851 0.39069
 Co87 Co 1.09577 -0.01008 0.48771
 Co88 Co 0.89585 0.00035 0.49269
 Co89 Co 1.00591 -0.01079 0.39483
 Co90 Co 1.00811 0.00229 0.58114
 O91 O 0.99464 -0.00448 0.48885
 C92 C 1.07201 -0.10072 0.57978
 C93 C 0.91388 -0.09717 0.39727
 C94 C 1.09899 -0.06225 0.35809
 C95 C 0.89641 -0.05643 0.60711
 C96 C 1.21883 0.18588 0.33171
 C97 C 1.18949 0.20431 0.27590
 C98 C 1.12373 0.19928 0.27251
 C99 C 1.08909 0.16594 0.31705
 C100 C 1.11846 0.13938 0.36848
 C101 C 1.18273 0.15548 0.37959
 C102 C 1.28336 0.19772 0.34103
 C103 C 1.31177 0.18160 0.39682
 C104 C 1.27631 0.15462 0.44474
 C105 C 1.21250 0.14214 0.43667
 H106 H 1.31205 0.22107 0.30616
 H107 H 1.36123 0.19146 0.40351
 H108 H 1.29819 0.14400 0.48879
 H109 H 1.18688 0.12453 0.47678
 H110 H 1.10001 0.21475 0.23116
 H111 H 1.03982 0.15680 0.30821
 C112 C 0.78775 -0.17896 0.29983
 C113 C 0.82689 -0.19927 0.24955
 C114 C 0.89163 -0.20253 0.25981
 C115 C 0.91851 -0.17537 0.31248
 C116 C 0.88177 -0.14475 0.35752
 C117 C 0.81533 -0.15283 0.35498
 C118 C 0.72190 -0.18615 0.29755
 C119 C 0.68385 -0.16832 0.34801
 C120 C 0.71059 -0.14410 0.40211
 C121 C 0.77560 -0.13700 0.40607
 H122 H 0.69926 -0.20736 0.25794
 H123 H 0.63338 -0.17448 0.34559
 H124 H 0.68086 -0.13182 0.44174
 H125 H 0.79399 -0.12185 0.45060
 H126 H 0.92247 -0.22142 0.22405
 H127 H 0.96905 -0.17471 0.31556
 C128 C 0.89683 0.18410 0.73268
 C129 C 0.83701 0.20737 0.71812
 C130 C 0.81595 0.20301 0.65622
 C131 C 0.85053 0.17213 0.61028
 C132 C 0.90918 0.14770 0.62377
 C133 C 0.93547 0.15977 0.68386
 C134 C 0.91790 0.18055 0.79509
 C135 C 0.97664 0.15810 0.80883
 C136 C 1.01668 0.14066 0.76049
 C137 C 0.99752 0.14409 0.69858
 H138 H 0.88909 0.19223 0.83434
 H139 H 0.99139 0.15495 0.85712
 H140 H 1.06251 0.12378 0.77103
 H141 H 1.03247 0.13556 0.66307
 H142 H 0.77004 0.21975 0.64475
 H143 H 0.82961 0.16420 0.56479
 C144 C 1.12304 -0.17474 0.73191
 C145 C 1.18191 -0.19671 0.71167
 C146 C 1.19781 -0.19642 0.64778
 C147 C 1.15772 -0.17145 0.60405
 C148 C 1.09991 -0.14646 0.62265
 C149 C 1.08039 -0.15223 0.68715
 C150 C 1.10725 -0.17186 0.79661
 C151 C 1.04997 -0.14902 0.81702
 C152 C 1.00682 -0.13022 0.77350
 C153 C 1.02101 -0.13353 0.70959
 H154 H 1.13949 -0.18547 0.83222
 H155 H 1.03882 -0.14638 0.86674
 H156 H 0.96196 -0.11295 0.78918
 H157 H 0.98407 -0.12248 0.67884
 H158 H 1.24292 -0.21335 0.63219
 H159 H 1.17404 -0.16810 0.55572
 C160 C 0.27243 1.11778 1.19645
 C161 C 0.27518 1.18264 1.19429
 C162 C 0.32910 1.21059 1.16762
 C163 C 0.37781 1.17628 1.14169
 C164 C 0.37706 1.11267 1.14560
 C165 C 0.32609 1.08348 1.17776
 C166 C 0.21683 1.08543 1.21324
 C167 C 0.21695 1.02285 1.22225
 C168 C 0.27180 0.99089 1.21242
 C169 C 0.32540 1.02025 1.18879
 H170 H 0.17218 1.10708 1.21722
 H171 H 0.17423 0.99911 1.23677
 H172 H 0.27243 0.94275 1.22123
 H173 H 0.36609 0.99277 1.18048
 H174 H 0.33253 1.25970 1.16500
 H175 H 0.41579 1.19956 1.11672
 C176 C 0.33536 0.80353 0.79660
 C177 C 0.27696 0.82419 0.77481
 C178 C 0.26274 0.88591 0.78315
 C179 C 0.29937 0.92382 0.82075
 C180 C 0.35142 0.90137 0.85115
 C181 C 0.37120 0.84133 0.83794
 C182 C 0.35669 0.74488 0.78146
 C183 C 0.41071 0.72275 0.80885
 C184 C 0.44395 0.75844 0.85185
 C185 C 0.42448 0.81722 0.86647
 H186 H 0.33157 0.71595 0.74858
 H187 H 0.42646 0.67745 0.79721
 H188 H 0.48533 0.74070 0.87362
 H189 H 0.45134 0.84349 0.90023
 H190 H 0.22064 0.90403 0.76381
 H191 H 0.28651 0.97087 0.82718
 C192 C 0.79375 0.88639 1.13484
 C193 C 0.76754 0.82934 1.15313
 C194 C 0.70582 0.81495 1.13705
 C195 C 0.66779 0.85780 1.10972
 C196 C 0.69012 0.91684 1.09506
 C197 C 0.75521 0.93094 1.10615
 C198 C 0.85826 0.89932 1.14317
 C199 C 0.88466 0.95511 1.12602
 C200 C 0.84747 0.99918 1.10025
 C201 C 0.78372 0.98777 1.09098
 H202 H 0.88955 0.86590 1.16093
 H203 H 0.93431 0.96410 1.13255
 H204 H 0.86815 1.04259 1.08703
 H205 H 0.75850 1.02540 1.07371
 H206 H 0.68610 0.77047 1.14810
 H207 H 0.61964 0.84413 1.10055
 C208 C 0.68357 1.22153 0.80839
 C209 C 0.73669 1.19460 0.77899
 C210 C 0.73893 1.13076 0.77508
 C211 C 0.69619 1.09471 0.80838
 C212 C 0.65019 1.12119 0.84668
 C213 C 0.64111 1.18467 0.84448
 C214 C 0.67241 1.28426 0.80350
 C215 C 0.62187 1.31049 0.83543
 C216 C 0.58133 1.27468 0.87218
 C217 C 0.59048 1.21221 0.87659
 H218 H 0.70178 1.31310 0.77391
 H219 H 0.61391 1.35877 0.83136
 H220 H 0.54210 1.29528 0.89670
 H221 H 0.55711 1.18573 0.90437
 H222 H 0.77783 1.10841 0.75182
 H223 H 0.70207 1.04582 0.80791
 C224 C 0.20182 0.33205 0.20836
 C225 C 0.20519 0.27226 0.18309
 C226 C 0.18615 0.26169 0.12130
 C227 C 0.15930 0.30754 0.08651
 C228 C 0.14969 0.36578 0.11239
 C229 C 0.17429 0.37925 0.17273
 C230 C 0.22617 0.34615 0.26802
 C231 C 0.22349 0.40512 0.29237
 C232 C 0.19739 0.45125 0.25749
 C233 C 0.17331 0.43870 0.19814
 H234 H 0.24857 0.31224 0.29582
 H235 H 0.24262 0.41528 0.33817
 H236 H 0.19660 0.49718 0.27616
 H237 H 0.15599 0.47631 0.17178
 H238 H 0.18911 0.21646 0.10103
 H239 H 0.14150 0.29569 0.04051
 C240 C -0.18459 0.27391 -0.12614
 C241 C -0.18577 0.27890 -0.19286
 C242 C -0.16416 0.33287 -0.22065
 C243 C -0.13676 0.37918 -0.18494
 C244 C -0.12983 0.37352 -0.11965
 C245 C -0.15952 0.32307 -0.08943
 C246 C -0.20230 0.21928 -0.09505
 C247 C -0.19779 0.21405 -0.03055
 C248 C -0.17766 0.26348 0.00460
 C249 C -0.16156 0.31820 -0.02366
 H250 H -0.21509 0.17819 -0.11952
 H251 H -0.20962 0.17140 -0.00776
 H252 H -0.17347 0.25907 0.05402
 H253 H -0.15152 0.35625 0.00687
 H254 H -0.16584 0.33782 -0.27117
 H255 H -0.11661 0.41793 -0.20965
 C256 C 0.22464 0.71692 -0.14473
 C257 C 0.21126 0.72643 -0.20968
 C258 C 0.18074 0.67897 -0.24278
 C259 C 0.15731 0.62764 -0.21192
 C260 C 0.16913 0.61899 -0.14814
 C261 C 0.21242 0.65871 -0.11849
 C262 C 0.24763 0.76263 -0.10355
 C263 C 0.27559 0.74714 -0.04717
 C264 C 0.27661 0.68653 -0.02905
 C265 C 0.24215 0.64295 -0.06248
 H266 H 0.24495 0.81027 -0.11407
 H267 H 0.29730 0.78203 -0.01810
 H268 H 0.30166 0.67362 0.01240
 H269 H 0.24017 0.59671 -0.04539
 H270 H 0.17077 0.68364 -0.29218
 H271 H 0.12671 0.59645 -0.23726
 C272 C -0.18044 0.67308 0.17939
 C273 C -0.17343 0.73238 0.15454
 C274 C -0.13799 0.74073 0.09930
 C275 C -0.10463 0.69311 0.07238
 C276 C -0.10571 0.63483 0.09903
 C277 C -0.14681 0.62353 0.15171
 C278 C -0.22072 0.66232 0.23143
 C279 C -0.22747 0.60451 0.25696
 C280 C -0.19467 0.55625 0.23091
 C281 C -0.15499 0.56529 0.17899
 H282 H -0.24812 0.69818 0.25225
 H283 H -0.25865 0.59703 0.29691
 H284 H -0.20042 0.51126 0.25073
 H285 H -0.13271 0.52530 0.16101
 H286 H -0.13308 0.78537 0.07864
 H287 H -0.07528 0.70281 0.03150
 C288 C 1.19540 0.11614 0.75291
 C289 C 1.21009 0.17419 0.72654
 C290 C 1.19127 0.18628 0.66525
 C291 C 1.16340 0.14116 0.62832
 C292 C 1.14998 0.08310 0.65242
 C293 C 1.16657 0.06994 0.71512
 C294 C 1.20269 0.10513 0.81770
 C295 C 1.18422 0.04979 0.84406
 C296 C 1.15918 0.00376 0.80650
 C297 C 1.15195 0.01290 0.74237
 H298 H 1.21917 0.14003 0.84948
 H299 H 1.18934 0.04258 0.89395
 H300 H 1.14545 -0.03935 0.82722
 H301 H 1.13407 -0.02493 0.71480
 H302 H 1.19923 0.23112 0.64562
 H303 H 1.14860 0.15309 0.58166
 C304 C 0.84312 -0.20238 0.69286
 C305 C 0.82198 -0.17674 0.75061
 C306 C 0.82466 -0.11329 0.75859
 C307 C 0.84747 -0.07543 0.71110
 C308 C 0.86828 -0.09936 0.65350
 C309 C 0.86716 -0.16364 0.64418
 C310 C 0.84036 -0.26580 0.68222
 C311 C 0.86337 -0.29096 0.62639
 C312 C 0.88955 -0.25366 0.58015
 C313 C 0.89170 -0.19075 0.58874
 H314 H 0.82006 -0.29660 0.71647
 H315 H 0.86123 -0.33975 0.61912
 H316 H 0.90825 -0.27357 0.53727
 H317 H 0.91362 -0.16434 0.55170
 H318 H 0.80936 -0.09279 0.80249
 H319 H 0.84922 -0.02675 0.71959
 C320 C 1.23751 -0.15485 0.29620
 C321 C 1.20629 -0.19444 0.25294
 C322 C 1.14115 -0.18814 0.24520
 C323 C 1.10797 -0.14381 0.27801
 C324 C 1.13807 -0.10420 0.32011
 C325 C 1.20375 -0.10780 0.32735
 C326 C 1.30185 -0.16110 0.30926
 C327 C 1.33339 -0.11852 0.34674
 C328 C 1.30151 -0.06907 0.37190
 C329 C 1.23728 -0.06361 0.36226
 H330 H 1.32809 -0.19902 0.29101
 H331 H 1.38300 -0.12338 0.35540
 H332 H 1.32659 -0.03485 0.39902
 H333 H 1.21455 -0.02330 0.37975
 H334 H 1.11621 -0.21577 0.21102
 H335 H 1.05829 -0.14000 0.26978
 C336 C 0.78192 0.10493 0.25478
 C337 C 0.79739 0.16884 0.25186
 C338 C 0.84179 0.19246 0.29475
 C339 C 0.87357 0.15511 0.33513
 C340 C 0.86037 0.09291 0.33667
 C341 C 0.81119 0.06816 0.30032
 C342 C 0.74159 0.07509 0.21185
 C343 C 0.71846 0.01664 0.22347
 C344 C 0.74276 -0.01718 0.27171
 C345 C 0.79062 0.00730 0.30830
 H346 H 0.72694 0.09588 0.16910
 H347 H 0.68251 -0.00296 0.19391
 H348 H 0.72558 -0.06296 0.27947
 H349 H 0.80998 -0.02105 0.34397
 H350 H 0.85387 0.24054 0.29510
 H351 H 0.90956 0.17488 0.36488
 C352 C 0.22446 0.32596 -0.20307
 C353 C 0.20111 0.26571 -0.21454
 C354 C 0.13862 0.25186 -0.19618
 C355 C 0.10146 0.29342 -0.16458
 C356 C 0.12458 0.35135 -0.14953
 C357 C 0.18712 0.36807 -0.16790
 C358 C 0.28329 0.34597 -0.22749
 C359 C 0.30747 0.40357 -0.21271
 C360 C 0.27359 0.44250 -0.17378
 C361 C 0.21410 0.42517 -0.15144
 H362 H 0.31076 0.31781 -0.25893
 H363 H 0.35297 0.41790 -0.23121
 H364 H 0.29320 0.48669 -0.16132
 H365 H 0.19041 0.45686 -0.12066
 H366 H 0.11887 0.20710 -0.20316
 H367 H 0.05389 0.27978 -0.15139
 C368 C -0.11813 0.22344 0.15759
 C369 C -0.17911 0.24469 0.17638
 C370 C -0.19103 0.30711 0.16968
 C371 C -0.14590 0.34699 0.14354
 C372 C -0.08630 0.32653 0.12464
 C373 C -0.07055 0.26554 0.13707
 C374 C -0.10422 0.16080 0.15480
 C375 C -0.04323 0.14121 0.14313
 C376 C 0.00492 0.18339 0.13192
 C377 C -0.00851 0.24498 0.12828
 H378 H -0.14032 0.12628 0.16033
 H379 H -0.03328 0.09310 0.14307
 H380 H 0.05258 0.16825 0.12443
 H381 H 0.03020 0.27633 0.11934
 H382 H -0.23602 0.32501 0.18435
 H383 H -0.15873 0.39373 0.13573
 C384 C -0.18925 0.68330 -0.15101
 C385 C -0.16545 0.74179 -0.16817
 C386 C -0.10299 0.75732 -0.15446
 C387 C -0.06300 0.71546 -0.12815
 C388 C -0.08472 0.65685 -0.11317
 C389 C -0.14927 0.64160 -0.12093
 C390 C -0.25140 0.66449 -0.16435
 C391 C -0.27506 0.60825 -0.14438
 C392 C -0.23740 0.56948 -0.11091
 C393 C -0.17514 0.58578 -0.09914
 H394 H -0.28230 0.69224 -0.19073
 H395 H -0.32306 0.59489 -0.15454
 H396 H -0.25635 0.52637 -0.09438
 H397 H -0.14812 0.55461 -0.07192
 H398 H -0.08495 0.80223 -0.16505
 H399 H -0.01418 0.72836 -0.12144
 C400 C 0.17743 0.67396 0.23567
 C401 C 0.21588 0.71142 0.19487
 C402 C 0.22587 0.68965 0.13337
 C403 C 0.19256 0.64025 0.10989
 C404 C 0.14509 0.61067 0.14499
 C405 C 0.13980 0.62500 0.20997
 C406 C 0.17734 0.68234 0.30153
 C407 C 0.13791 0.64750 0.34042
 C408 C 0.09909 0.60239 0.31501
 C409 C 0.10042 0.59057 0.25060
 H410 H 0.20901 0.71450 0.32386
 H411 H 0.13815 0.65498 0.39074
 H412 H 0.06914 0.57509 0.34566
 H413 H 0.07233 0.55261 0.23394
 H414 H 0.25626 0.71362 0.10065
 H415 H 0.20108 0.62821 0.06133
 C416 C 0.34462 1.18074 0.74611
 C417 C 0.29789 1.20989 0.78351
 C418 C 0.31030 1.21937 0.84767
 C419 C 0.35742 1.18733 0.87651
 C420 C 0.39520 1.14699 0.84206
 C421 C 0.39326 1.14812 0.77540
 C422 C 0.34441 1.18476 0.68003
 C423 C 0.38831 1.15401 0.64319
 C424 C 0.43415 1.11992 0.67151
 C425 C 0.43712 1.11730 0.73682
 H426 H 0.31172 1.21347 0.65655
 H427 H 0.38729 1.15735 0.59251
 H428 H 0.46859 1.09655 0.64273
 H429 H 0.47562 1.09294 0.75567
 H430 H 0.27784 1.24381 0.87779
 H431 H 0.36009 1.18942 0.92730
 C432 C 0.34533 0.77986 1.16347
 C433 C 0.28227 0.79886 1.17292
 C434 C 0.26183 0.84890 1.13887
 C435 C 0.30288 0.88327 1.10201
 C436 C 0.36718 0.87040 1.09753
 C437 C 0.38805 0.81533 1.12495
 C438 C 0.36731 0.72749 1.19327
 C439 C 0.42884 0.70866 1.18378
 C440 C 0.46955 0.74135 1.14445
 C441 C 0.44963 0.79394 1.11515
 H442 H 0.33722 0.70083 1.22432
 H443 H 0.44490 0.66816 1.20669
 H444 H 0.51696 0.72575 1.13640
 H445 H 0.48273 0.81572 1.08346
 H446 H 0.21321 0.86240 1.14186
 H447 H 0.28392 0.92270 1.07936
 C448 C 0.66271 1.18313 1.22346
 C449 C 0.71396 1.20590 1.18568
 C450 C 0.70094 1.21590 1.12193
 C451 C 0.65003 1.18722 1.09311
 C452 C 0.60904 1.14900 1.12739
 C453 C 0.61085 1.15250 1.19390
 C454 C 0.66304 1.18799 1.28948
 C455 C 0.61493 1.16145 1.32573
 C456 C 0.56540 1.13027 1.29698
 C457 C 0.56303 1.12593 1.23164
 H458 H 0.70007 1.21298 1.31326
 H459 H 0.61591 1.16533 1.37643
 H460 H 0.52808 1.11012 1.32547
 H461 H 0.52261 1.10343 1.21102
 H462 H 0.73411 1.23870 1.09170
 H463 H 0.64757 1.18923 1.04235
 C464 C 0.68265 0.81035 0.79794
 C465 C 0.73914 0.80653 0.83158
 C466 C 0.74160 0.82846 0.89327
 C467 C 0.69155 0.86008 0.91940
 C468 C 0.63677 0.87002 0.88522
 C469 C 0.63004 0.84050 0.82522
 C470 C 0.67780 0.78401 0.73743
 C471 C 0.62216 0.78607 0.70434
 C472 C 0.57013 0.81378 0.73101
 C473 C 0.57366 0.84046 0.79048
 H474 H 0.71634 0.76002 0.71581
 H475 H 0.61909 0.76512 0.65827
 H476 H 0.52639 0.81413 0.70574
 H477 H 0.53043 0.85839 0.80815
 H478 H 0.78452 0.82523 0.91958
 H479 H 0.69770 0.88049 0.96537
   
