data_POSCAR
  _audit_creation_date              2014-09-24
  _audit_creation_method            'ToBaCCo'
  _symmetry_space_group_name_H-M    'P1'
  _symmetry_Int_Tables_number       1
  _symmetry_cell_setting            triclinic
  loop_
  _symmetry_equiv_pos_as_xyz
 x,y,z
_cell_length_a 32.8214
_cell_length_b 32.9222
_cell_length_c 32.9330
_cell_angle_alpha 90.021300
_cell_angle_beta 89.951500
_cell_angle_gamma 90.029300
loop_
  _atom_site_label
  _atom_site_type_symbol
  _atom_site_fract_x
  _atom_site_fract_y
  _atom_site_fract_z
O1 O 0.33557 0.39318 0.03732
 O2 O 0.39166 0.33548 -0.03948
 O3 O 0.33589 0.39173 -0.04110
 O4 O 0.39175 0.33662 0.03827
 O5 O 0.34428 0.28896 0.03894
 O6 O 0.28700 0.34557 -0.03920
 O7 O 0.34327 0.28873 -0.03982
 O8 O 0.28819 0.34546 0.03951
 Cu9 Cu 0.36846 0.36907 -0.00126
 Cu10 Cu 0.31080 0.31240 -0.00012
 C11 C 0.30222 0.37945 0.05111
 C12 C 0.37739 0.30204 -0.05217
 C13 C 0.30158 0.37855 -0.05299
 C14 C 0.37814 0.30296 0.05126
 O15 O 0.66541 0.60726 0.03783
 O16 O 0.60718 0.66383 -0.03808
 O17 O 0.66369 0.60747 -0.03990
 O18 O 0.60931 0.66301 0.04031
 O19 O 0.65584 0.71155 0.03831
 O20 O 0.71174 0.65452 -0.04066
 O21 O 0.65529 0.71081 -0.04038
 O22 O 0.71254 0.65528 0.03809
 Cu23 Cu 0.63154 0.63069 0.00002
 Cu24 Cu 0.68867 0.68788 -0.00126
 C25 C 0.69907 0.62130 0.05040
 C26 C 0.62100 0.69713 -0.05170
 C27 C 0.69751 0.62083 -0.05303
 C28 C 0.62286 0.69704 0.05235
 O29 O 0.66261 0.39324 0.96044
 O30 O 0.60781 0.33773 1.03994
 O31 O 0.66398 0.39347 1.03916
 O32 O 0.60690 0.33721 0.96122
 O33 O 0.65432 0.28954 0.96079
 O34 O 0.71190 0.34633 1.03860
 O35 O 0.65514 0.28996 1.03939
 O36 O 0.71064 0.34616 0.96000
 Cu37 Cu 0.63054 0.37017 1.00027
 Cu38 Cu 0.68784 0.31318 0.99968
 C39 C 0.69613 0.37948 0.94716
 C40 C 0.62174 0.30416 1.05265
 C41 C 0.69790 0.37984 1.05165
 C42 C 0.62063 0.30362 0.94817
 O43 O 0.33450 0.60611 0.96465
 O44 O 0.39357 0.66466 1.03874
 O45 O 0.33772 0.60821 1.04289
 O46 O 0.39089 0.66182 0.96051
 O47 O 0.34473 0.71067 0.96246
 O48 O 0.28861 0.65409 1.04157
 O49 O 0.34484 0.71094 1.04117
 O50 O 0.28793 0.65457 0.96285
 Cu51 Cu 0.36895 0.63044 1.00170
 Cu52 Cu 0.31168 0.68738 1.00208
 C53 C 0.30115 0.62024 0.95133
 C54 C 0.37944 0.69786 1.05227
 C55 C 0.30355 0.62129 1.05534
 C56 C 0.37752 0.69584 0.94832
 O57 O 0.03662 0.33518 0.39403
 O58 O -0.03789 0.39253 0.33453
 O59 O -0.04182 0.33685 0.39078
 O60 O 0.04062 0.39125 0.33812
 O61 O 0.04006 0.34511 0.28932
 O62 O -0.03909 0.28788 0.34493
 O63 O -0.03894 0.34391 0.28822
 O64 O 0.03981 0.28869 0.34566
 Cu65 Cu -0.00074 0.36874 0.36910
 Cu66 Cu 0.00058 0.31157 0.31221
 C67 C 0.05061 0.30208 0.38015
 C68 C -0.05086 0.37819 0.30123
 C69 C -0.05357 0.30258 0.37757
 C70 C 0.05349 0.37808 0.30425
 O71 O 0.03892 0.66403 0.60676
 O72 O -0.03788 0.60694 0.66358
 O73 O -0.03904 0.66342 0.60742
 O74 O 0.04082 0.60838 0.66297
 O75 O 0.03935 0.65491 0.71137
 O76 O -0.03926 0.71131 0.65446
 O77 O -0.03961 0.65495 0.71051
 O78 O 0.03970 0.71113 0.65465
 Cu79 Cu 0.00066 0.63083 0.63050
 Cu80 Cu 0.00006 0.68788 0.68759
 C81 C 0.05181 0.69755 0.62063
 C82 C -0.05142 0.62090 0.69684
 C83 C -0.05185 0.69725 0.62082
 C84 C 0.05301 0.62182 0.69697
 O85 O 0.96045 0.66315 0.39306
 O86 O 1.03798 0.60688 0.33625
 O87 O 1.03956 0.66296 0.39237
 O88 O 0.95958 0.60754 0.33717
 O89 O 0.96052 0.65434 0.28904
 O90 O 1.03878 0.71133 0.34587
 O91 O 1.03947 0.65509 0.28955
 O92 O 0.95994 0.71072 0.34569
 Cu93 Cu 0.99948 0.63043 0.36955
 Cu94 Cu 0.99963 0.68771 0.31273
 C95 C 0.94729 0.69658 0.37925
 C96 C 1.05142 0.62103 0.30304
 C97 C 1.05217 0.69689 0.37901
 C98 C 0.94720 0.62103 0.30329
 O99 O 0.96311 0.33550 0.60544
 O100 O 1.03735 0.39335 0.66505
 O101 O 1.04152 0.33757 0.60882
 O102 O 0.95880 0.39146 0.66156
 O103 O 0.95960 0.34533 0.71031
 O104 O 1.03903 0.28860 0.65466
 O105 O 1.03861 0.34472 0.71131
 O106 O 0.96016 0.28901 0.65379
 Cu107 Cu 1.00029 0.36927 0.63050
 Cu108 Cu 0.99924 0.31210 0.68734
 C109 C 0.94932 0.30230 0.61928
 C110 C 1.05040 0.37906 0.69834
 C111 C 1.05342 0.30335 0.62202
 C112 C 0.94600 0.37821 0.69543
 O113 O 0.39190 0.04155 0.33697
 O114 O 0.33579 -0.03750 0.39197
 O115 O 0.39315 -0.03673 0.33619
 O116 O 0.33623 0.04090 0.39262
 O117 O 0.28827 0.04040 0.34550
 O118 O 0.34568 -0.03759 0.28862
 O119 O 0.28857 -0.03839 0.34414
 O120 O 0.34489 0.04109 0.28890
 Cu121 Cu 0.36902 0.00185 0.36925
 Cu122 Cu 0.31203 0.00140 0.31196
 C123 C 0.37822 0.05427 0.30331
 C124 C 0.30235 -0.05076 0.37791
 C125 C 0.37965 -0.04969 0.30249
 C126 C 0.30241 0.05345 0.37896
 O127 O 0.60890 0.04124 0.66283
 O128 O 0.66349 -0.03950 0.60888
 O129 O 0.60659 -0.03725 0.66485
 O130 O 0.66481 0.03821 0.60685
 O131 O 0.71180 0.03947 0.65490
 O132 O 0.65455 -0.03858 0.71191
 O133 O 0.71140 -0.03925 0.65605
 O134 O 0.65532 0.04020 0.71144
 Cu135 Cu 0.63107 0.00056 0.63116
 Cu136 Cu 0.68806 0.00049 0.68844
 C137 C 0.62238 0.05382 0.69664
 C138 C 0.69727 -0.05216 0.62260
 C139 C 0.62035 -0.05042 0.69834
 C140 C 0.69842 0.05121 0.62067
 O141 O 0.33579 1.03753 0.60768
 O142 O 0.39122 0.95846 0.66322
 O143 O 0.33632 0.95922 0.60696
 O144 O 0.39284 1.03681 0.66367
 O145 O 0.34500 1.03775 0.71096
 O146 O 0.28799 0.95976 0.65380
 O147 O 0.34382 0.95904 0.71100
 O148 O 0.28823 1.03849 0.65525
 Cu149 Cu 0.36886 0.99820 0.63063
 Cu150 Cu 0.31141 0.99875 0.68756
 C151 C 0.30226 1.05081 0.62155
 C152 C 0.37720 0.94575 0.69678
 C153 C 0.30238 0.94670 0.62043
 C154 C 0.37907 1.04984 0.69723
 O155 O 0.66367 1.04062 0.39228
 O156 O 0.60934 0.96001 0.33754
 O157 O 0.66474 0.96172 0.39362
 O158 O 0.60769 1.03824 0.33577
 O159 O 0.65628 1.03976 0.28928
 O160 O 0.71266 0.96122 0.34642
 O161 O 0.65648 0.96098 0.28953
 O162 O 0.71246 1.03988 0.34598
 Cu163 Cu 0.63162 1.00027 0.36960
 Cu164 Cu 0.68935 1.00046 0.31304
 C165 C 0.69769 1.05329 0.37899
 C166 C 0.62320 0.94749 0.30384
 C167 C 0.69842 0.94862 0.38001
 C168 C 0.62189 1.05153 0.30248
 C169 C 0.84169 0.78770 0.47993
 C170 C 0.84386 0.78955 0.52311
 C171 C 0.81733 0.81613 0.54348
 C172 C 0.79090 0.84297 0.52329
 C173 C 0.78890 0.84133 0.48008
 C174 C 0.81473 0.81402 0.45974
 H175 H 0.81519 0.81457 0.42709
 H176 H 0.81691 0.81555 0.57609
 C177 C 0.15596 0.21012 0.48033
 C178 C 0.15761 0.21187 0.52354
 C179 C 0.18407 0.18509 0.54377
 C180 C 0.20959 0.15747 0.52333
 C181 C 0.21080 0.15869 0.48009
 C182 C 0.18359 0.18465 0.45994
 H183 H 0.18349 0.18451 0.42730
 H184 H 0.18427 0.18529 0.57642
 C185 C 0.15612 0.79002 0.51977
 C186 C 0.15731 0.78828 0.47655
 C187 C 0.18365 0.81503 0.45602
 C188 C 0.20951 0.84253 0.47620
 C189 C 0.21107 0.84130 0.51943
 C190 C 0.18397 0.81541 0.53985
 H191 H 0.18411 0.81556 0.57248
 H192 H 0.18349 0.81490 0.42337
 C193 C 0.84488 0.20873 0.51929
 C194 C 0.84222 0.21117 0.47615
 C195 C 0.81449 0.18546 0.45615
 C196 C 0.78881 0.15803 0.47669
 C197 C 0.79161 0.15561 0.51981
 C198 C 0.81848 0.18210 0.53978
 H199 H 0.81839 0.18242 0.57238
 H200 H 0.81417 0.18552 0.42350
 C201 C 0.47737 0.84053 0.78850
 C202 C 0.52064 0.84333 0.79098
 C203 C 0.54101 0.81697 0.81762
 C204 C 0.52073 0.79012 0.84397
 C205 C 0.47744 0.78747 0.84168
 C206 C 0.45709 0.81306 0.81424
 H207 H 0.42433 0.81292 0.81423
 H208 H 0.57373 0.81700 0.81743
 C209 C 0.47886 0.15926 0.21157
 C210 C 0.52222 0.15762 0.20985
 C211 C 0.54246 0.18508 0.18414
 C212 C 0.52192 0.21215 0.15822
 C213 C 0.47853 0.21074 0.15694
 C214 C 0.45834 0.18529 0.18463
 H215 H 0.42558 0.18524 0.18478
 H216 H 0.57522 0.18499 0.18380
 C217 C 0.52150 0.15885 0.78806
 C218 C 0.47824 0.15593 0.79038
 C219 C 0.45765 0.18208 0.81709
 C220 C 0.47771 0.20881 0.84367
 C221 C 0.52101 0.21163 0.84156
 C222 C 0.54158 0.18623 0.81404
 H223 H 0.57435 0.18646 0.81414
 H224 H 0.42494 0.18201 0.81679
 C225 C 0.52297 0.84226 0.21177
 C226 C 0.47969 0.84484 0.20938
 C227 C 0.45934 0.81850 0.18264
 C228 C 0.47964 0.79177 0.15618
 C229 C 0.52295 0.78928 0.15845
 C230 C 0.54328 0.81493 0.18590
 H231 H 0.57604 0.81492 0.18585
 H232 H 0.42662 0.81839 0.18285
 C233 C 0.78636 0.47917 0.83995
 C234 C 0.78881 0.52234 0.84231
 C235 C 0.81564 0.54244 0.81584
 C236 C 0.84213 0.52200 0.78921
 C237 C 0.83963 0.47884 0.78672
 C238 C 0.81208 0.45875 0.81251
 H239 H 0.81205 0.42608 0.81258
 H240 H 0.81558 0.57506 0.81565
 C241 C 0.21134 0.47888 0.15821
 C242 C 0.21302 0.52212 0.15965
 C243 C 0.18606 0.54241 0.18587
 C244 C 0.15834 0.52208 0.21134
 C245 C 0.15972 0.47884 0.21294
 C246 C 0.18589 0.45855 0.18594
 H247 H 0.18585 0.42589 0.18601
 H248 H 0.18617 0.57507 0.18587
 C249 C 0.79173 0.52105 0.15473
 C250 C 0.79001 0.47781 0.15574
 C251 C 0.81681 0.45727 0.18189
 C252 C 0.84420 0.47740 0.20785
 C253 C 0.84283 0.52062 0.20979
 C254 C 0.81702 0.54112 0.18270
 H255 H 0.81709 0.57378 0.18301
 H256 H 0.81672 0.42460 0.18157
 C257 C 0.20839 0.52107 0.84553
 C258 C 0.20992 0.47783 0.84403
 C259 C 0.18296 0.45762 0.81776
 C260 C 0.15553 0.47804 0.79211
 C261 C 0.15709 0.52128 0.79057
 C262 C 0.18307 0.54149 0.81781
 H263 H 0.18314 0.57416 0.81779
 H264 H 0.18294 0.42496 0.81773
 C265 C 0.28117 0.44289 0.13363
 C266 C 0.27267 0.39730 0.12564
 C267 C 0.27829 0.40473 0.08003
 C268 C 0.28703 0.44987 0.08741
 C269 C 0.23272 0.41360 0.07505
 C270 C 0.22675 0.40670 0.12104
 C271 C 0.23548 0.45244 0.12876
 C272 C 0.24096 0.45910 0.08278
 H273 H 0.30123 0.45435 0.15821
 H274 H 0.28579 0.37157 0.14302
 H275 H 0.31229 0.46726 0.07324
 H276 H 0.21288 0.40112 0.05077
 H277 H 0.20190 0.38732 0.13314
 H278 H 0.22696 0.48244 0.06317
 C279 C 0.76121 0.54173 0.07991
 C280 C 0.71526 0.55094 0.08555
 C281 C 0.72390 0.59618 0.07855
 C282 C 0.76936 0.58732 0.07257
 C283 C 0.73030 0.60307 0.12413
 C284 C 0.72189 0.55741 0.13171
 C285 C 0.76745 0.54785 0.12585
 C286 C 0.77612 0.59368 0.11854
 H287 H 0.77486 0.51863 0.05975
 H288 H 0.68975 0.53371 0.07166
 H289 H 0.78877 0.60008 0.04807
 H290 H 0.71752 0.62863 0.14205
 H291 H 0.70223 0.54565 0.15649
 H292 H 0.80125 0.61283 0.13042
 C293 C 0.77253 0.44295 0.91138
 C294 C 0.72777 0.44937 0.92485
 C295 C 0.71948 0.40418 0.91731
 C296 C 0.76380 0.39738 0.90414
 C297 C 0.70680 0.41305 0.87344
 C298 C 0.71535 0.45869 0.88040
 C299 C 0.76002 0.45260 0.86734
 C300 C 0.75146 0.40679 0.85984
 H301 H 0.80000 0.45470 0.92712
 H302 H 0.71782 0.46638 0.95224
 H303 H 0.78359 0.37187 0.91393
 H304 H 0.67964 0.40022 0.85799
 H305 H 0.69325 0.48169 0.86996
 H306 H 0.75962 0.38788 0.83315
 C307 C 0.27848 0.55693 0.86927
 C308 C 0.27024 0.60252 0.87739
 C309 C 0.27645 0.59508 0.92293
 C310 C 0.28493 0.54991 0.91538
 C311 C 0.23092 0.58632 0.92858
 C312 C 0.22435 0.59322 0.88267
 C313 C 0.23283 0.54746 0.87480
 C314 C 0.23890 0.54079 0.92071
 H315 H 0.29819 0.54544 0.84439
 H316 H 0.28320 0.62822 0.85982
 H317 H 0.31031 0.53244 0.92916
 H318 H 0.21145 0.59883 0.95316
 H319 H 0.19937 0.61260 0.87089
 H320 H 0.22509 0.51748 0.94053
 C321 C 0.11900 0.22571 0.40813
 C322 C 0.07296 0.23251 0.41482
 C323 C 0.07888 0.27780 0.40577
 C324 C 0.12457 0.27135 0.39857
 C325 C 0.08622 0.28657 0.45090
 C326 C 0.08064 0.24077 0.46032
 C327 C 0.12671 0.23446 0.45387
 C328 C 0.13251 0.27987 0.44413
 H329 H 0.13068 0.20063 0.38886
 H330 H 0.04827 0.21313 0.40233
 H331 H 0.14239 0.28400 0.37286
 H332 H 0.07242 0.31208 0.46815
 H333 H 0.06054 0.22723 0.48358
 H334 H 0.15748 0.29949 0.45560
 C335 C 0.11996 0.77436 0.59247
 C336 C 0.07385 0.76744 0.58631
 C337 C 0.07999 0.72217 0.59523
 C338 C 0.12572 0.72872 0.60191
 C339 C 0.08687 0.71350 0.54999
 C340 C 0.08108 0.75928 0.54072
 C341 C 0.12719 0.76569 0.54662
 C342 C 0.13319 0.72029 0.55624
 H343 H 0.13177 0.79947 0.61162
 H344 H 0.04926 0.78673 0.59914
 H345 H 0.14382 0.71610 0.62740
 H346 H 0.07296 0.68799 0.53286
 H347 H 0.06071 0.77279 0.51773
 H348 H 0.15806 0.70077 0.54439
 C349 C 0.88115 0.71648 0.45898
 C350 C 0.87372 0.70820 0.41338
 C351 C 0.91788 0.72026 0.40420
 C352 C 0.92587 0.72827 0.44934
 C353 C 0.90530 0.76465 0.39764
 C354 C 0.86073 0.75292 0.40737
 C355 C 0.86870 0.76121 0.45313
 C356 C 0.91301 0.77310 0.44317
 H357 H 0.87049 0.69451 0.48198
 H358 H 0.85771 0.68139 0.40060
 H359 H 0.95329 0.71792 0.46612
 H360 H 0.91525 0.78431 0.37211
 H361 H 0.83392 0.76152 0.38876
 H362 H 0.92930 0.80021 0.45490
 C363 C 0.91991 0.24045 0.53916
 C364 C 0.91383 0.28622 0.54844
 C365 C 0.92128 0.27772 0.59360
 C366 C 0.92771 0.23247 0.58468
 C367 C 0.87568 0.27073 0.60083
 C368 C 0.86762 0.27897 0.55525
 C369 C 0.87392 0.23358 0.54564
 C370 C 0.88176 0.22513 0.59142
 H371 H 0.94019 0.22706 0.51596
 H372 H 0.92732 0.31184 0.53112
 H373 H 0.95262 0.21343 0.59721
 H374 H 0.85771 0.28326 0.62651
 H375 H 0.84242 0.29824 0.54374
 H376 H 0.87046 0.20003 0.61087
 C377 C 0.45836 0.11994 0.28302
 C378 C 0.41270 0.12755 0.29169
 C379 C 0.40319 0.08361 0.27963
 C380 C 0.44839 0.07543 0.27124
 C381 C 0.39633 0.09626 0.23533
 C382 C 0.40639 0.14062 0.24706
 C383 C 0.45220 0.13246 0.23838
 C384 C 0.44190 0.08836 0.22650
 H385 H 0.48165 0.13040 0.30482
 H386 H 0.40015 0.14353 0.31863
 H387 H 0.46520 0.04800 0.28139
 H388 H 0.37051 0.08652 0.21586
 H389 H 0.38780 0.16748 0.23866
 H390 H 0.45341 0.07209 0.19929
 C391 C 0.54246 0.11978 0.71672
 C392 C 0.58817 0.12737 0.70823
 C393 C 0.59752 0.08338 0.72018
 C394 C 0.55229 0.07524 0.72840
 C395 C 0.60425 0.09591 0.76456
 C396 C 0.59434 0.14032 0.75295
 C397 C 0.54849 0.13218 0.76143
 C398 C 0.55864 0.08804 0.77320
 H399 H 0.51919 0.13029 0.69494
 H400 H 0.60085 0.14340 0.68139
 H401 H 0.53550 0.04784 0.71806
 H402 H 0.62997 0.08609 0.78409
 H403 H 0.61300 0.16708 0.76154
 H404 H 0.54706 0.07175 0.80035
 C405 C 0.44039 0.91147 0.77377
 C406 C 0.44704 0.92438 0.72904
 C407 C 0.40184 0.91630 0.72059
 C408 C 0.39481 0.90368 0.76489
 C409 C 0.41124 0.87233 0.70856
 C410 C 0.45689 0.87986 0.71727
 C411 C 0.45058 0.86735 0.76191
 C412 C 0.40476 0.85928 0.75320
 H413 H 0.45182 0.92770 0.80102
 H414 H 0.46391 0.95179 0.71887
 H415 H 0.36898 0.91349 0.78432
 H416 H 0.39871 0.85638 0.68161
 H417 H 0.48026 0.86936 0.69553
 H418 H 0.38601 0.83252 0.76160
 C419 C 0.54351 0.88139 0.28320
 C420 C 0.58920 0.87397 0.29178
 C421 C 0.59849 0.91803 0.27997
 C422 C 0.55325 0.92600 0.27165
 C423 C 0.60543 0.90563 0.23558
 C424 C 0.59560 0.86115 0.24705
 C425 C 0.54975 0.86910 0.23847
 C426 C 0.55981 0.91332 0.22684
 H427 H 0.52017 0.87074 0.30490
 H428 H 0.60181 0.85793 0.31861
 H429 H 0.53631 0.95330 0.28200
 H430 H 0.63120 0.91560 0.21613
 H431 H 0.61441 0.83449 0.23848
 H432 H 0.54829 0.92964 0.19970
 C433 C 0.44147 0.27879 0.86642
 C434 C 0.39561 0.27070 0.87403
 C435 C 0.40250 0.27719 0.91959
 C436 C 0.44793 0.28554 0.91257
 C437 C 0.41114 0.23185 0.92566
 C438 C 0.40477 0.22498 0.87972
 C439 C 0.45082 0.23333 0.87239
 C440 C 0.45692 0.23970 0.91831
 H441 H 0.45339 0.29822 0.84157
 H442 H 0.37007 0.28351 0.85607
 H443 H 0.46531 0.31094 0.92640
 H444 H 0.39821 0.21264 0.95021
 H445 H 0.38529 0.20007 0.86797
 H446 H 0.48001 0.22606 0.93851
 C447 C 0.54106 0.75903 0.91866
 C448 C 0.55003 0.71315 0.91297
 C449 C 0.59542 0.72148 0.92008
 C450 C 0.58681 0.76685 0.92610
 C451 C 0.60251 0.72796 0.87453
 C452 C 0.55666 0.71989 0.86681
 C453 C 0.54737 0.76540 0.87273
 C454 C 0.59339 0.77367 0.88020
 H455 H 0.51794 0.77274 0.93883
 H456 H 0.53260 0.68776 0.92677
 H457 H 0.59963 0.78607 0.95067
 H458 H 0.62809 0.71508 0.85662
 H459 H 0.54486 0.70046 0.84192
 H460 H 0.61301 0.79852 0.86855
 C461 C 0.44372 0.72144 0.13355
 C462 C 0.39788 0.72938 0.12580
 C463 C 0.40495 0.72266 0.08027
 C464 C 0.45036 0.71446 0.08743
 C465 C 0.41353 0.76801 0.07404
 C466 C 0.40698 0.77508 0.11993
 C467 C 0.45300 0.76692 0.12743
 C468 C 0.45930 0.76032 0.08153
 H469 H 0.45552 0.70214 0.15853
 H470 H 0.37231 0.71657 0.14378
 H471 H 0.46783 0.68903 0.07377
 H472 H 0.40069 0.78709 0.04939
 H473 H 0.38739 0.79998 0.13151
 H474 H 0.48242 0.77395 0.06130
 C475 C 0.55840 0.22717 0.08705
 C476 C 0.55180 0.27197 0.07433
 C477 C 0.59706 0.28034 0.08215
 C478 C 0.60403 0.23597 0.09458
 C479 C 0.58792 0.29225 0.12621
 C480 C 0.54221 0.28361 0.11895
 C481 C 0.54847 0.23890 0.13126
 C482 C 0.59434 0.24754 0.13906
 H483 H 0.54677 0.20000 0.07080
 H484 H 0.53476 0.28224 0.04710
 H485 H 0.62977 0.21653 0.08455
 H486 H 0.60060 0.31913 0.14216
 H487 H 0.51897 0.30535 0.12968
 H488 H 0.61309 0.23896 0.16573
 C489 C 0.22629 0.12068 0.59546
 C490 C 0.23226 0.07467 0.58854
 C491 C 0.27798 0.07981 0.59668
 C492 C 0.27235 0.12544 0.60414
 C493 C 0.28598 0.08715 0.55142
 C494 C 0.23979 0.08233 0.54293
 C495 C 0.23428 0.12833 0.54959
 C496 C 0.28011 0.13338 0.55843
 H497 H 0.20171 0.13281 0.61516
 H498 H 0.21265 0.05034 0.60133
 H499 H 0.28583 0.14294 0.62963
 H500 H 0.31101 0.07302 0.53367
 H501 H 0.22547 0.06264 0.51982
 H502 H 0.29993 0.15804 0.54665
 C503 C 0.75304 0.13835 0.40465
 C504 C 0.76468 0.09381 0.39524
 C505 C 0.72019 0.08133 0.40251
 C506 C 0.70820 0.12543 0.41132
 C507 C 0.72873 0.07376 0.44761
 C508 C 0.77365 0.08658 0.44075
 C509 C 0.76189 0.13087 0.45038
 C510 C 0.71706 0.11847 0.45692
 H511 H 0.76151 0.16483 0.38560
 H512 H 0.78421 0.08371 0.36962
 H513 H 0.68117 0.14129 0.39875
 H514 H 0.71852 0.04661 0.46484
 H515 H 0.80100 0.07048 0.45225
 H516 H 0.69538 0.12930 0.48019
 C517 C 0.76021 0.91771 0.54388
 C518 C 0.71403 0.91244 0.55221
 C519 C 0.72181 0.91919 0.59761
 C520 C 0.76751 0.92478 0.58961
 C521 C 0.72772 0.87352 0.60441
 C522 C 0.72019 0.86617 0.55856
 C523 C 0.76601 0.87168 0.54989
 C524 C 0.77377 0.87875 0.59590
 H525 H 0.77448 0.93785 0.52111
 H526 H 0.68896 0.92663 0.53463
 H527 H 0.78689 0.94908 0.60280
 H528 H 0.71427 0.85559 0.62962
 H529 H 0.70060 0.84155 0.54636
 H530 H 0.79833 0.86665 0.61560
 C531 C 0.23958 0.91762 0.45636
 C532 C 0.28580 0.91291 0.44791
 C533 C 0.27790 0.92018 0.40263
 C534 C 0.23215 0.92520 0.41073
 C535 C 0.27237 0.87451 0.39524
 C536 C 0.28002 0.86665 0.44097
 C537 C 0.23417 0.87160 0.44976
 C538 C 0.22627 0.87915 0.40388
 H539 H 0.22521 0.93727 0.47949
 H540 H 0.31076 0.92715 0.46564
 H541 H 0.21253 0.94946 0.39789
 H542 H 0.28594 0.85702 0.36979
 H543 H 0.29985 0.84206 0.45279
 H544 H 0.20178 0.86687 0.38419
 C545 C 0.08051 0.45833 0.76080
 C546 C 0.08639 0.44927 0.71499
 C547 C 0.07871 0.40409 0.72329
 C548 C 0.07251 0.41280 0.76861
 C549 C 0.12432 0.39664 0.73000
 C550 C 0.13258 0.44224 0.72193
 C551 C 0.12650 0.45165 0.76737
 C552 C 0.11850 0.40587 0.77568
 H553 H 0.06048 0.48163 0.77436
 H554 H 0.07287 0.46678 0.68955
 H555 H 0.04763 0.40025 0.78772
 H556 H 0.14210 0.37094 0.71725
 H557 H 0.15777 0.45375 0.70260
 H558 H 0.13002 0.38646 0.80068
 C559 C 0.08284 0.54189 0.24119
 C560 C 0.08769 0.55087 0.28713
 C561 C 0.08033 0.59608 0.27872
 C562 C 0.07514 0.58744 0.23327
 C563 C 0.12609 0.60348 0.27300
 C564 C 0.13405 0.55784 0.28117
 C565 C 0.12897 0.54851 0.23560
 C566 C 0.12128 0.59432 0.22720
 H567 H 0.06309 0.51860 0.22719
 H568 H 0.07353 0.53336 0.31224
 H569 H 0.05072 0.60005 0.21367
 H570 H 0.14362 0.62913 0.28616
 H571 H 0.15876 0.54624 0.30099
 H572 H 0.13340 0.61379 0.20250
 C573 C 0.88085 0.40501 0.22406
 C574 C 0.92689 0.41180 0.23097
 C575 C 0.92081 0.40312 0.27630
 C576 C 0.87515 0.39580 0.26976
 C577 C 0.91334 0.44832 0.28466
 C578 C 0.91910 0.45736 0.23884
 C579 C 0.87308 0.45081 0.23244
 C580 C 0.86710 0.44143 0.27788
 H581 H 0.86912 0.38563 0.19911
 H582 H 0.95166 0.39918 0.21177
 H583 H 0.85733 0.37015 0.28256
 H584 H 0.92705 0.46578 0.31006
 H585 H 0.93911 0.48068 0.22525
 H586 H 0.84202 0.45303 0.29729
 C587 C 0.86594 0.55765 0.71915
 C588 C 0.87413 0.60327 0.72728
 C589 C 0.91981 0.59576 0.72111
 C590 C 0.91223 0.55059 0.71273
 C591 C 0.92539 0.58711 0.76650
 C592 C 0.87935 0.59411 0.77302
 C593 C 0.87142 0.54831 0.76467
 C594 C 0.91747 0.54158 0.75862
 H595 H 0.84099 0.54614 0.69955
 H596 H 0.85656 0.62896 0.71430
 H597 H 0.92608 0.53308 0.68743
 H598 H 0.95004 0.59965 0.78588
 H599 H 0.86765 0.61373 0.79780
 H600 H 0.93734 0.51831 0.77244
 C601 C 0.77233 0.59491 0.87893
 C602 C 0.72632 0.60388 0.87408
 C603 C 0.72055 0.59671 0.91972
 C604 C 0.76621 0.58830 0.92497
 C605 C 0.71229 0.55140 0.91260
 C606 C 0.71835 0.55811 0.86633
 C607 C 0.76413 0.54898 0.87145
 C608 C 0.75845 0.54264 0.91748
 H609 H 0.79699 0.61454 0.86683
 H610 H 0.71307 0.62934 0.85638
 H611 H 0.78590 0.60106 0.94923
 H612 H 0.68716 0.53375 0.92669
 H613 H 0.69849 0.54636 0.84173
 H614 H 0.77259 0.51959 0.93734
 C615 C 0.24540 0.40538 0.86273
 C616 C 0.29035 0.41166 0.87539
 C617 C 0.27863 0.40229 0.91946
 C618 C 0.23403 0.39540 0.90723
 C619 C 0.27032 0.44738 0.92767
 C620 C 0.28175 0.45721 0.88302
 C621 C 0.23680 0.45109 0.87088
 C622 C 0.22528 0.44089 0.91511
 H623 H 0.23663 0.38680 0.83601
 H624 H 0.31720 0.39916 0.85911
 H625 H 0.21446 0.36973 0.91711
 H626 H 0.28071 0.46429 0.95494
 H627 H 0.30353 0.48045 0.87236
 H628 H 0.19811 0.45230 0.93162
 C629 C 0.22770 0.55906 0.08851
 C630 C 0.23667 0.60451 0.09630
 C631 C 0.28108 0.59757 0.08336
 C632 C 0.27253 0.55250 0.07525
 C633 C 0.29340 0.58814 0.12724
 C634 C 0.24864 0.59447 0.14061
 C635 C 0.23980 0.54879 0.13255
 C636 C 0.28455 0.54260 0.11971
 H637 H 0.20027 0.54771 0.07240
 H638 H 0.21702 0.63022 0.08676
 H639 H 0.28249 0.53558 0.04781
 H640 H 0.32051 0.60058 0.14311
 H641 H 0.24026 0.61299 0.16750
 H642 H 0.30642 0.51931 0.13000
 C643 C 0.71811 0.45789 0.11646
 C644 C 0.72946 0.44857 0.07167
 C645 C 0.72096 0.40342 0.07930
 C646 C 0.70931 0.41228 0.12351
 C647 C 0.76554 0.39623 0.09144
 C648 C 0.77448 0.44178 0.08414
 C649 C 0.76303 0.45147 0.12851
 C650 C 0.75424 0.40570 0.13607
 H651 H 0.69642 0.48106 0.12747
 H652 H 0.71912 0.46585 0.04463
 H653 H 0.68241 0.39968 0.13963
 H654 H 0.78500 0.37062 0.08121
 H655 H 0.80171 0.45329 0.06777
 H656 H 0.76295 0.38677 0.16254
 C657 C 0.86726 0.71893 0.55852
 C658 C 0.91359 0.71244 0.55156
 C659 C 0.92100 0.72049 0.59683
 C660 C 0.87530 0.72670 0.60425
 C661 C 0.92677 0.76597 0.58850
 C662 C 0.91899 0.75843 0.54289
 C663 C 0.87290 0.76455 0.54948
 C664 C 0.88067 0.77254 0.59536
 H665 H 0.84231 0.69942 0.54684
 H666 H 0.92738 0.68729 0.53378
 H667 H 0.85750 0.71360 0.62976
 H668 H 0.95139 0.78532 0.60117
 H669 H 0.93897 0.77238 0.51976
 H670 H 0.86886 0.79723 0.61504
 C671 C 0.91379 0.22661 0.43966
 C672 C 0.90640 0.23517 0.39409
 C673 C 0.91842 0.27973 0.40097
 C674 C 0.92614 0.27159 0.44615
 C675 C 0.87404 0.29121 0.40983
 C676 C 0.86158 0.24629 0.40354
 C677 C 0.86924 0.23789 0.44934
 C678 C 0.88119 0.28278 0.45548
 H679 H 0.93030 0.19962 0.45130
 H680 H 0.91671 0.21564 0.36859
 H681 H 0.95329 0.28217 0.46326
 H682 H 0.85776 0.31787 0.39710
 H683 H 0.83510 0.23736 0.38463
 H684 H 0.87019 0.30441 0.47866
 C685 C 0.08612 0.22731 0.56009
 C686 C 0.09367 0.23612 0.60559
 C687 C 0.08146 0.28059 0.59857
 C688 C 0.07359 0.27219 0.55346
 C689 C 0.12576 0.29223 0.58950
 C690 C 0.13841 0.24740 0.59591
 C691 C 0.13059 0.23874 0.55018
 C692 C 0.11847 0.28354 0.54391
 H693 H 0.06965 0.20020 0.54861
 H694 H 0.08354 0.21666 0.63121
 H695 H 0.04636 0.28255 0.53636
 H696 H 0.14199 0.31902 0.60206
 H697 H 0.16506 0.23863 0.61465
 H698 H 0.12932 0.30514 0.52064
 C699 C 0.08537 0.77285 0.44093
 C700 C 0.09244 0.76406 0.39534
 C701 C 0.08023 0.71958 0.40250
 C702 C 0.07283 0.72795 0.44769
 C703 C 0.12462 0.70795 0.41101
 C704 C 0.13725 0.75277 0.40446
 C705 C 0.12993 0.76142 0.45027
 C706 C 0.11782 0.71661 0.45668
 H707 H 0.06906 0.79997 0.45261
 H708 H 0.08206 0.78354 0.36987
 H709 H 0.04578 0.71757 0.46511
 H710 H 0.14068 0.68115 0.39825
 H711 H 0.16371 0.76155 0.38539
 H712 H 0.12894 0.69499 0.47978
 C713 C 0.55680 0.86712 0.72091
 C714 C 0.54966 0.91324 0.71433
 C715 C 0.59493 0.92099 0.72285
 C716 C 0.60250 0.87546 0.72919
 C717 C 0.58597 0.92665 0.76822
 C718 C 0.54034 0.91858 0.76019
 C719 C 0.54713 0.87267 0.76640
 C720 C 0.59302 0.88076 0.77489
 H721 H 0.54550 0.84216 0.70127
 H722 H 0.53213 0.92688 0.68896
 H723 H 0.62836 0.85790 0.71639
 H724 H 0.59836 0.95129 0.78764
 H725 H 0.51689 0.93839 0.77388
 H726 H 0.61257 0.86916 0.79978
 C727 C 0.45978 0.91984 0.24063
 C728 C 0.41412 0.92773 0.23267
 C729 C 0.40518 0.92182 0.27801
 C730 C 0.45049 0.91425 0.28647
 C731 C 0.39777 0.87629 0.27142
 C732 C 0.40722 0.88186 0.22575
 C733 C 0.45314 0.87393 0.23417
 C734 C 0.44350 0.86813 0.27964
 H735 H 0.48317 0.93981 0.22705
 H736 H 0.40165 0.95241 0.21337
 H737 H 0.46798 0.92785 0.31190
 H738 H 0.37197 0.85856 0.28413
 H739 H 0.38769 0.87032 0.20080
 H740 H 0.45494 0.84313 0.29914
 C741 C 0.59482 0.12068 0.22596
 C742 C 0.60404 0.12578 0.27174
 C743 C 0.59670 0.08015 0.27780
 C744 C 0.58800 0.07469 0.23236
 C745 C 0.55132 0.08759 0.28617
 C746 C 0.55826 0.13378 0.27988
 C747 C 0.54886 0.12841 0.23434
 C748 C 0.54228 0.08243 0.24027
 H749 H 0.61433 0.13264 0.20117
 H750 H 0.62974 0.14343 0.28472
 H751 H 0.60062 0.05023 0.21285
 H752 H 0.53370 0.07368 0.31138
 H753 H 0.54668 0.15855 0.29962
 H754 H 0.51890 0.06263 0.22644
 C755 C 0.45882 0.08080 0.75920
 C756 C 0.41317 0.07266 0.76709
 C757 C 0.40437 0.07846 0.72173
 C758 C 0.44968 0.08628 0.71334
 C759 C 0.39672 0.12395 0.72823
 C760 C 0.40602 0.11850 0.77392
 C761 C 0.45194 0.12667 0.76557
 C762 C 0.44245 0.13237 0.72009
 H763 H 0.48222 0.06096 0.77286
 H764 H 0.40074 0.04793 0.78638
 H765 H 0.46731 0.07273 0.68795
 H766 H 0.37089 0.14151 0.71544
 H767 H 0.38633 0.12994 0.79881
 H768 H 0.45382 0.15741 0.70058
 C769 C 0.59567 0.75426 0.13873
 C770 C 0.58937 0.70942 0.12617
 C771 C 0.59816 0.72103 0.08195
 C772 C 0.60499 0.76554 0.09409
 C773 C 0.55279 0.72913 0.07446
 C774 C 0.54356 0.71778 0.11923
 C775 C 0.54967 0.76262 0.13127
 C776 C 0.55925 0.77407 0.08688
 H777 H 0.61477 0.76304 0.16509
 H778 H 0.60225 0.68273 0.14225
 H779 H 0.63054 0.78509 0.08378
 H780 H 0.53559 0.71861 0.04741
 H781 H 0.52044 0.69600 0.13021
 H782 H 0.54750 0.80110 0.07053
 C783 C 0.45812 0.24122 0.08186
 C784 C 0.41240 0.23318 0.07436
 C785 C 0.40356 0.27860 0.07992
 C786 C 0.44894 0.28712 0.08710
 C787 C 0.39645 0.27247 0.12554
 C788 C 0.40581 0.22672 0.12035
 C789 C 0.45179 0.23524 0.12785
 C790 C 0.44225 0.28076 0.13331
 H791 H 0.48137 0.22744 0.06188
 H792 H 0.39973 0.21365 0.04996
 H793 H 0.46640 0.31241 0.07315
 H794 H 0.37079 0.28536 0.14333
 H795 H 0.38644 0.20183 0.13233
 H796 H 0.45390 0.30053 0.15802
 C797 C 0.55699 0.22657 0.91330
 C798 C 0.60272 0.23539 0.90616
 C799 C 0.59567 0.27977 0.91868
 C800 C 0.55032 0.27138 0.92610
 C801 C 0.58692 0.29166 0.87453
 C802 C 0.59344 0.24697 0.86162
 C803 C 0.54747 0.23830 0.86899
 C804 C 0.54113 0.28302 0.88139
 H805 H 0.54533 0.19934 0.92943
 H806 H 0.62832 0.21589 0.91634
 H807 H 0.53301 0.28160 0.95322
 H808 H 0.59971 0.31856 0.85867
 H809 H 0.61264 0.23851 0.83521
 H810 H 0.51800 0.30480 0.87052
 C811 C 0.44114 0.77257 0.91324
 C812 C 0.39541 0.76395 0.90607
 C813 C 0.40223 0.71952 0.91847
 C814 C 0.44760 0.72773 0.92593
 C815 C 0.41103 0.70763 0.87432
 C816 C 0.40474 0.75239 0.86150
 C817 C 0.45073 0.76085 0.86892
 C818 C 0.45685 0.71609 0.88122
 H819 H 0.45288 0.79972 0.92944
 H820 H 0.36985 0.78355 0.91626
 H821 H 0.46481 0.71740 0.95304
 H822 H 0.39816 0.68082 0.85839
 H823 H 0.38566 0.76099 0.83508
 H824 H 0.47997 0.69427 0.87037
 C825 C 0.75459 0.86180 0.40754
 C826 C 0.70976 0.87493 0.41351
 C827 C 0.72208 0.91904 0.40500
 C828 C 0.76661 0.90631 0.39848
 C829 C 0.72993 0.92633 0.45031
 C830 C 0.71785 0.88166 0.45925
 C831 C 0.76270 0.86902 0.45347
 C832 C 0.77489 0.91330 0.44418
 H833 H 0.76316 0.83534 0.38849
 H834 H 0.68287 0.85923 0.40041
 H835 H 0.78657 0.91644 0.37322
 H836 H 0.71963 0.95347 0.46749
 H837 H 0.69560 0.87085 0.48199
 H838 H 0.80212 0.92928 0.45618
 C839 C 0.28254 0.88121 0.54027
 C840 C 0.27043 0.92564 0.55021
 C841 C 0.27857 0.91748 0.59531
 C842 C 0.29094 0.87361 0.58581
 C843 C 0.23414 0.90453 0.60188
 C844 C 0.22555 0.91241 0.55640
 C845 C 0.23776 0.86838 0.54611
 C846 C 0.24619 0.86025 0.59184
 H847 H 0.30474 0.87088 0.51728
 H848 H 0.28053 0.95315 0.53348
 H849 H 0.31794 0.85775 0.59844
 H850 H 0.21435 0.91410 0.62750
 H851 H 0.19824 0.92856 0.54486
 H852 H 0.23785 0.83333 0.61033
 C853 C 0.28225 0.11909 0.45895
 C854 C 0.27033 0.07457 0.44913
 C855 C 0.27841 0.08269 0.40399
 C856 C 0.29057 0.12666 0.41337
 C857 C 0.23390 0.09538 0.39752
 C858 C 0.22539 0.08754 0.44304
 C859 C 0.23740 0.13166 0.45322
 C860 C 0.24574 0.13976 0.40746
 H861 H 0.30439 0.12956 0.48190
 H862 H 0.28059 0.04717 0.46588
 H863 H 0.31748 0.14267 0.40065
 H864 H 0.21413 0.08564 0.37197
 H865 H 0.19816 0.07126 0.45468
 H866 H 0.23716 0.16660 0.38899
 C867 C 0.76044 0.08074 0.54049
 C868 C 0.76866 0.07324 0.58603
 C869 C 0.72325 0.07933 0.59514
 C870 C 0.71453 0.08651 0.54995
 C871 C 0.72995 0.12491 0.60206
 C872 C 0.77571 0.11917 0.59245
 C873 C 0.76700 0.12669 0.54665
 C874 C 0.72146 0.13266 0.55646
 H875 H 0.77389 0.06055 0.51729
 H876 H 0.78802 0.04863 0.59861
 H877 H 0.68889 0.07280 0.53277
 H878 H 0.71737 0.14288 0.62769
 H879 H 0.80088 0.13082 0.61168
 H880 H 0.70187 0.15757 0.54491
 C881 C 0.88153 0.54092 0.28188
 C882 C 0.92635 0.55091 0.27073
 C883 C 0.91805 0.59597 0.27916
 C884 C 0.87379 0.58642 0.29057
 C885 C 0.90593 0.60290 0.23469
 C886 C 0.91396 0.55749 0.22583
 C887 C 0.86954 0.54715 0.23706
 C888 C 0.86127 0.59281 0.24578
 H889 H 0.87074 0.51766 0.30351
 H890 H 0.95370 0.53405 0.28116
 H891 H 0.85735 0.59882 0.31731
 H892 H 0.91593 0.62868 0.21537
 H893 H 0.93069 0.54618 0.19880
 H894 H 0.83447 0.61140 0.23707
 C895 C 0.87945 0.45803 0.71543
 C896 C 0.92413 0.44831 0.72723
 C897 C 0.91615 0.40317 0.71892
 C898 C 0.87202 0.41244 0.70688
 C899 C 0.90337 0.39644 0.76328
 C900 C 0.91108 0.44194 0.77200
 C901 C 0.86679 0.45200 0.76013
 C902 C 0.85883 0.40625 0.75156
 H903 H 0.86895 0.48121 0.69359
 H904 H 0.95159 0.46521 0.71705
 H905 H 0.85602 0.39983 0.67999
 H906 H 0.91317 0.37083 0.78288
 H907 H 0.92734 0.45342 0.79922
 H908 H 0.83202 0.38755 0.76006
 C909 C 0.08600 0.55822 0.77440
 C910 C 0.09402 0.60368 0.76576
 C911 C 0.08220 0.59687 0.72117
 C912 C 0.07392 0.55176 0.72939
 C913 C 0.12657 0.58746 0.71002
 C914 C 0.13878 0.59372 0.75494
 C915 C 0.13050 0.54802 0.76342
 C916 C 0.11882 0.54191 0.71849
 H917 H 0.06911 0.54682 0.80129
 H918 H 0.08386 0.62937 0.78511
 H919 H 0.04666 0.53489 0.71870
 H920 H 0.14318 0.59997 0.68344
 H921 H 0.16549 0.61230 0.76399
 H922 H 0.12975 0.51869 0.69688
 C923 C 0.11981 0.45819 0.28434
 C924 C 0.07517 0.44829 0.27246
 C925 C 0.08326 0.40318 0.28080
 C926 C 0.12735 0.41264 0.29294
 C927 C 0.09615 0.39644 0.23648
 C928 C 0.08832 0.44189 0.22772
 C929 C 0.13256 0.45214 0.23967
 C930 C 0.14063 0.40644 0.24829
 H931 H 0.13022 0.48139 0.30622
 H932 H 0.04767 0.46514 0.28255
 H933 H 0.14332 0.40012 0.31986
 H934 H 0.08646 0.37077 0.21687
 H935 H 0.07207 0.45331 0.20049
 H936 H 0.16757 0.38792 0.23982
   
