data_POSCAR
  _audit_creation_date              2014-09-24
  _audit_creation_method            'ToBaCCo'
  _symmetry_space_group_name_H-M    'P1'
  _symmetry_Int_Tables_number       1
  _symmetry_cell_setting            triclinic
  loop_
  _symmetry_equiv_pos_as_xyz
 x,y,z
_cell_length_a 46.1087
_cell_length_b 40.6059
_cell_length_c 37.6066
_cell_angle_alpha 89.885000
_cell_angle_beta 90.068000
_cell_angle_gamma 90.057500
loop_
  _atom_site_label
  _atom_site_type_symbol
  _atom_site_fract_x
  _atom_site_fract_y
  _atom_site_fract_z
C1 C 1.21325 0.26487 0.30635
 H2 H 1.21307 0.23858 0.31109
 C3 C 1.19636 0.28567 0.32745
 H4 H 1.18295 0.27540 0.34834
 C5 C 1.23114 0.31056 0.27366
 H6 H 1.24513 0.32035 0.25324
 C7 C 1.21463 0.33219 0.29413
 H8 H 1.21563 0.35842 0.28894
 N9 N 1.22984 0.27750 0.27968
 C10 C 1.24263 0.19634 0.20454
 H11 H 1.26601 0.19669 0.20213
 C12 C 1.22625 0.17434 0.18414
 H13 H 1.23703 0.15758 0.16611
 C14 C 1.19990 0.21836 0.23016
 H15 H 1.18961 0.23598 0.24751
 C16 C 1.18273 0.19679 0.21026
 H17 H 1.15934 0.19768 0.21269
 Zn18 Zn 1.25282 0.24819 0.25240
 N19 N 1.22932 0.21762 0.22719
 C20 C 1.28095 0.19325 0.28528
 N21 N 1.27845 0.22663 0.28425
 C22 C 1.29478 0.24621 0.30577
 C23 C 1.31554 0.23244 0.32841
 C24 C 1.30144 0.17843 0.30756
 C25 C 1.26014 0.28960 0.19300
 C26 C 1.27540 0.30954 0.16913
 C27 C 1.32013 0.29178 0.19668
 C28 C 1.30408 0.27229 0.22004
 N29 N 1.27459 0.27223 0.21845
 H30 H 1.26743 0.17810 0.26849
 H31 H 1.29213 0.27266 0.30463
 H32 H 1.32884 0.24841 0.34478
 H33 H 1.30365 0.15184 0.30761
 H34 H 1.23670 0.28870 0.19200
 H35 H 1.26375 0.32411 0.14964
 H36 H 1.34356 0.29232 0.19872
 H37 H 1.31526 0.25763 0.23969
 C38 C 1.19601 0.17461 0.18700
 C39 C 1.19700 0.31963 0.32114
 C40 C 1.30565 0.31095 0.17140
 C41 C 1.31917 0.19823 0.32901
 C42 C 0.70299 -0.24700 0.30338
 H43 H 0.70654 -0.27334 0.30379
 C44 C 0.68142 -0.23320 0.32466
 H45 H 0.66834 -0.24887 0.34161
 C46 C 0.71539 -0.19442 0.28034
 H47 H 0.72866 -0.17941 0.26308
 C48 C 0.69402 -0.17960 0.30123
 H49 H 0.69084 -0.15320 0.29990
 N50 N 0.71903 -0.22766 0.28125
 C51 C 0.74055 -0.29354 0.19395
 H52 H 0.76397 -0.29193 0.19352
 C53 C 0.72617 -0.31487 0.17071
 H54 H 0.73847 -0.32979 0.15227
 C55 C 0.69577 -0.27655 0.21889
 H56 H 0.68391 -0.26145 0.23744
 C57 C 0.68059 -0.29742 0.19613
 H58 H 0.65714 -0.29857 0.19753
 Zn59 Zn 0.74579 -0.24950 0.25130
 N60 N 0.72527 -0.27562 0.21808
 C61 C 0.76869 -0.31012 0.27631
 N62 N 0.76906 -0.27684 0.28068
 C63 C 0.78496 -0.26260 0.30703
 C64 C 0.80217 -0.28196 0.32943
 C65 C 0.78554 -0.33034 0.29811
 C66 C 0.75545 -0.19933 0.20107
 C67 C 0.77163 -0.17770 0.17995
 C68 C 0.81523 -0.19768 0.20834
 C69 C 0.79827 -0.21892 0.22892
 N70 N 0.76890 -0.21922 0.22517
 H71 H 0.75522 -0.32119 0.25612
 H72 H 0.78439 -0.23616 0.31044
 H73 H 0.81511 -0.27043 0.35001
 H74 H 0.78534 -0.35676 0.29417
 H75 H 0.73213 -0.20052 0.19807
 H76 H 0.76075 -0.16204 0.16078
 H77 H 0.83860 -0.19773 0.21141
 H78 H 0.80869 -0.23548 0.24742
 C79 C 0.69593 -0.31710 0.17225
 C80 C 0.67667 -0.19924 0.32324
 C81 C 0.80181 -0.17691 0.18360
 C82 C 0.80254 -0.31613 0.32476
 C83 C 0.71408 0.26817 -0.19684
 H84 H 0.71134 0.24175 -0.19527
 C85 C 0.69857 0.28869 -0.17400
 H86 H 0.68375 0.27809 -0.15478
 C87 C 0.73607 0.31444 -0.22448
 H88 H 0.75075 0.32442 -0.24407
 C89 C 0.72099 0.33582 -0.20215
 H90 H 0.72383 0.36219 -0.20492
 N91 N 0.73173 0.28133 -0.22213
 C92 C 0.72877 0.20942 -0.30811
 H93 H 0.75153 0.20387 -0.31165
 C94 C 0.70800 0.19444 -0.32988
 H95 H 0.71472 0.17702 -0.35003
 C96 C 0.69210 0.23927 -0.27801
 H97 H 0.68592 0.25728 -0.25839
 C98 C 0.67069 0.22489 -0.29918
 H99 H 0.64815 0.23145 -0.29528
 Zn100 Zn 0.74948 0.25205 -0.25458
 N101 N 0.72051 0.23106 -0.28245
 C102 C 0.76652 0.18817 -0.22982
 N103 N 0.77122 0.22121 -0.22744
 C104 C 0.79097 0.23372 -0.20415
 C105 C 0.80742 0.21273 -0.18269
 C106 C 0.78256 0.16628 -0.20879
 C107 C 0.76063 0.29762 -0.30856
 C108 C 0.77721 0.31766 -0.33091
 C109 C 0.82049 0.29176 -0.30764
 C110 C 0.80306 0.27222 -0.28571
 N111 N 0.77374 0.27601 -0.28599
 H112 H 0.75028 0.17871 -0.24783
 H113 H 0.79392 0.26010 -0.20233
 H114 H 0.82324 0.22296 -0.16445
 H115 H 0.77884 0.14001 -0.21098
 H116 H 0.73724 0.29983 -0.30851
 H117 H 0.76650 0.33533 -0.34811
 H118 H 0.84387 0.28902 -0.30661
 H119 H 0.81304 0.25446 -0.26815
 C120 C 0.67869 0.20224 -0.32529
 C121 C 0.70172 0.32282 -0.17712
 C122 C 0.80747 0.31500 -0.33012
 C123 C 0.80325 0.17869 -0.18506
 C124 C 1.20952 -0.23019 -0.20022
 H125 H 1.20648 -0.25650 -0.19762
 C126 C 1.19262 -0.20865 -0.18013
 H127 H 1.17637 -0.21838 -0.16216
 C128 C 1.23468 -0.18534 -0.22645
 H129 H 1.25138 -0.17638 -0.24411
 C130 C 1.21821 -0.16290 -0.20680
 H131 H 1.22205 -0.13671 -0.20969
 N132 N 1.22984 -0.21830 -0.22312
 C133 C 1.24227 -0.29686 -0.30082
 H134 H 1.26563 -0.29911 -0.29972
 C135 C 1.22621 -0.31753 -0.32301
 H136 H 1.23718 -0.33576 -0.33911
 C137 C 1.19931 -0.27077 -0.28069
 H138 H 1.18892 -0.25251 -0.26424
 C139 C 1.18243 -0.29095 -0.30254
 H140 H 1.15906 -0.28830 -0.30267
 Zn141 Zn 1.25211 -0.24987 -0.24818
 N142 N 1.22862 -0.27459 -0.27964
 C143 C 1.26419 -0.31138 -0.21525
 N144 N 1.26888 -0.27829 -0.21401
 C145 C 1.28618 -0.26464 -0.18866
 C146 C 1.30113 -0.28471 -0.16469
 C147 C 1.27868 -0.33231 -0.19176
 C148 C 1.27408 -0.20885 -0.30232
 C149 C 1.29533 -0.19450 -0.32387
 C150 C 1.33193 -0.22412 -0.29077
 C151 C 1.31005 -0.23789 -0.26986
 N152 N 1.28177 -0.22977 -0.27562
 H153 H 1.24975 -0.32172 -0.23488
 H154 H 1.28918 -0.23822 -0.18800
 H155 H 1.31580 -0.27379 -0.14552
 H156 H 1.27569 -0.35871 -0.19373
 H157 H 1.25142 -0.20339 -0.30688
 H158 H 1.28907 -0.17764 -0.34488
 H159 H 1.35437 -0.23059 -0.28584
 H160 H 1.31577 -0.25537 -0.24938
 C161 C 1.19600 -0.31481 -0.32351
 C162 C 1.19694 -0.17470 -0.18349
 C163 C 1.32452 -0.20219 -0.31796
 C164 C 1.29771 -0.31887 -0.16673
 C165 C 0.27134 0.20831 0.69543
 H166 H 0.24854 0.20328 0.69136
 C167 C 0.29204 0.19384 0.67327
 H168 H 0.28522 0.17732 0.65228
 C169 C 0.30822 0.23639 0.72730
 H170 H 0.31451 0.25355 0.74779
 C171 C 0.32957 0.22249 0.70577
 H172 H 0.35218 0.22852 0.71024
 N173 N 0.27974 0.22882 0.72212
 C174 C 0.20850 0.22989 0.79896
 H175 H 0.20584 0.25623 0.80168
 C176 C 0.19161 0.20848 0.81938
 H177 H 0.17574 0.21843 0.83769
 C178 C 0.23274 0.18485 0.77215
 H179 H 0.24909 0.17576 0.75414
 C180 C 0.21627 0.16252 0.79211
 H181 H 0.21981 0.13630 0.78903
 Zn182 Zn 0.25078 0.24923 0.75026
 N183 N 0.22837 0.21785 0.77565
 C184 C 0.19792 0.27135 0.71878
 N185 N 0.22730 0.27459 0.71934
 C186 C 0.24108 0.29670 0.69796
 C187 C 0.22513 0.31775 0.67602
 C188 C 0.18114 0.29193 0.69720
 C189 C 0.28585 0.26308 0.80919
 C190 C 0.30117 0.28276 0.83314
 C191 C 0.27887 0.33083 0.80677
 C192 C 0.26401 0.31028 0.78330
 N193 N 0.26840 0.27713 0.78422
 H194 H 0.18741 0.25321 0.73540
 H195 H 0.26448 0.29849 0.69867
 H196 H 0.23623 0.33581 0.65972
 H197 H 0.15773 0.28971 0.69743
 H198 H 0.28860 0.23662 0.80963
 H199 H 0.31588 0.27151 0.85206
 H200 H 0.27604 0.35728 0.80510
 H201 H 0.24945 0.32095 0.76398
 C202 C 0.19547 0.17447 0.81590
 C203 C 0.32142 0.20100 0.67856
 C204 C 0.29798 0.31697 0.83147
 C205 C 0.19488 0.31559 0.67599
 C206 C 0.75829 0.70371 0.69447
 H207 H 0.73493 0.70109 0.69486
 C208 C 0.77489 0.68414 0.67179
 H209 H 0.76435 0.66637 0.65463
 C210 C 0.80066 0.72960 0.71685
 H211 H 0.81063 0.74736 0.73436
 C212 C 0.81807 0.71053 0.69456
 H213 H 0.84142 0.71350 0.69517
 N214 N 0.77138 0.72533 0.71699
 C215 C 0.71260 0.73135 0.80712
 H216 H 0.70972 0.75773 0.80901
 C217 C 0.69732 0.71038 0.82984
 H218 H 0.68255 0.72065 0.84928
 C219 C 0.73465 0.68569 0.77870
 H220 H 0.74925 0.67612 0.75884
 C221 C 0.71981 0.66384 0.80088
 H222 H 0.72280 0.63754 0.79765
 Zn223 Zn 0.74723 0.74858 0.74898
 N224 N 0.73013 0.71871 0.78147
 C225 C 0.68946 0.76067 0.72662
 N226 N 0.71773 0.76938 0.72176
 C227 C 0.72547 0.79138 0.69610
 C228 C 0.70430 0.80620 0.67476
 C229 C 0.66767 0.77486 0.70588
 C230 C 0.78910 0.76701 0.79879
 C231 C 0.80579 0.78802 0.81990
 C232 C 0.78039 0.83441 0.79436
 C233 C 0.76413 0.81249 0.77367
 N234 N 0.76900 0.77947 0.77592
 H235 H 0.68370 0.74238 0.74622
 H236 H 0.74812 0.79734 0.69221
 H237 H 0.71060 0.82388 0.65459
 H238 H 0.64525 0.76787 0.71009
 H239 H 0.79220 0.74065 0.80050
 H240 H 0.82192 0.77784 0.83777
 H241 H 0.77657 0.86066 0.79223
 H242 H 0.74763 0.82191 0.75599
 C243 C 0.70057 0.67629 0.82622
 C244 C 0.80508 0.68730 0.67219
 C245 C 0.80148 0.82204 0.81760
 C246 C 0.67513 0.79786 0.67977
 C247 C 0.75681 0.19882 0.20301
 H248 H 0.73346 0.19982 0.20049
 C249 C 0.77278 0.17716 0.18183
 H250 H 0.76170 0.16127 0.16310
 C251 C 0.79994 0.21896 0.22968
 H252 H 0.81054 0.23575 0.24774
 C253 C 0.81670 0.19769 0.20902
 H254 H 0.84010 0.19794 0.21158
 N255 N 0.77052 0.21902 0.22653
 C256 C 0.70562 0.24720 0.30555
 H257 H 0.70898 0.27357 0.30530
 C258 C 0.68453 0.23347 0.32769
 H259 H 0.67163 0.24924 0.34464
 C260 C 0.71802 0.19441 0.28334
 H261 H 0.73112 0.17930 0.26608
 C262 C 0.69715 0.17967 0.30511
 H263 H 0.69414 0.15321 0.30444
 Zn264 Zn 0.74765 0.24939 0.25258
 N265 N 0.72142 0.22771 0.28344
 C266 C 0.69715 0.27583 0.22068
 N267 N 0.72664 0.27500 0.21933
 C268 C 0.74161 0.29267 0.19460
 C269 C 0.72692 0.31366 0.17123
 C270 C 0.68167 0.29636 0.19781
 C271 C 0.78727 0.26335 0.30746
 C272 C 0.80433 0.28310 0.32958
 C273 C 0.78711 0.33104 0.29780
 C274 C 0.77042 0.31045 0.27629
 N275 N 0.77110 0.27720 0.28108
 H276 H 0.68555 0.26093 0.23973
 H277 H 0.76502 0.29114 0.19377
 H278 H 0.73898 0.32839 0.15228
 H279 H 0.65824 0.29745 0.19961
 H280 H 0.78692 0.23693 0.31121
 H281 H 0.81740 0.27189 0.35026
 H282 H 0.78660 0.35744 0.29361
 H283 H 0.75674 0.32118 0.25609
 C284 C 0.68004 0.19944 0.32716
 C285 C 0.80301 0.17665 0.18483
 C286 C 0.80429 0.31725 0.32457
 C287 C 0.69670 0.31580 0.17328
 C288 C 0.26114 0.70946 0.19094
 H289 H 0.23769 0.71042 0.19031
 C290 C 0.27605 0.68906 0.16729
 H291 H 0.26412 0.67421 0.14835
 C292 C 0.30545 0.72704 0.21684
 H293 H 0.31692 0.74197 0.23595
 C294 C 0.32115 0.70711 0.19368
 H295 H 0.34460 0.70651 0.19536
 N296 N 0.27594 0.72717 0.21576
 C297 C 0.21565 0.73586 0.30463
 H298 H 0.21581 0.76218 0.30903
 C299 C 0.19861 0.71543 0.32611
 H300 H 0.18544 0.72603 0.34698
 C301 C 0.23272 0.68971 0.27230
 H302 H 0.24643 0.67959 0.25183
 C303 C 0.21606 0.66845 0.29316
 H304 H 0.21666 0.64218 0.28824
 Zn305 Zn 0.25474 0.75171 0.24972
 N306 N 0.23187 0.72282 0.27791
 C307 C 0.20168 0.78156 0.22814
 N308 N 0.23106 0.78219 0.22452
 C309 C 0.24411 0.80333 0.20136
 C310 C 0.22752 0.82532 0.18115
 C311 C 0.18431 0.80311 0.20845
 C312 C 0.29740 0.75391 0.30225
 C313 C 0.31864 0.76771 0.32416
 C314 C 0.30480 0.82162 0.30261
 C315 C 0.28383 0.80676 0.28107
 N316 N 0.28096 0.77340 0.28073
 H317 H 0.19157 0.76405 0.24586
 H318 H 0.26745 0.80291 0.19843
 H319 H 0.23809 0.84200 0.16275
 H320 H 0.16095 0.80232 0.21144
 H321 H 0.29447 0.72747 0.30165
 H322 H 0.33200 0.75179 0.34055
 H323 H 0.30727 0.84818 0.30214
 H324 H 0.27022 0.82186 0.26429
 C325 C 0.19873 0.68143 0.32015
 C326 C 0.30632 0.68756 0.16912
 C327 C 0.32264 0.80187 0.32404
 C328 C 0.19732 0.82519 0.18473
 O329 O 1.03937 0.05759 0.06504
 O330 O 1.07170 0.02858 0.03083
 C331 C 1.06545 0.04953 0.05566
 O332 O 0.95837 -0.06009 0.06170
 O333 O 0.92613 -0.02826 0.03013
 C334 C 0.93231 -0.05131 0.05284
 O335 O 1.03934 -0.05738 0.06492
 O336 O 1.07168 -0.02811 0.03078
 C337 C 1.06543 -0.04923 0.05554
 O338 O 0.95844 0.06028 0.06177
 O339 O 0.92616 0.02859 0.03016
 C340 C 0.93237 0.05152 0.05291
 Zr341 Zr 0.99892 0.04166 0.04466
 O342 O 0.99567 0.04132 0.10082
 O343 O 1.00211 0.09369 0.04437
 Zr344 Zr 0.99888 -0.04132 0.04464
 O345 O 0.99564 -0.04111 0.10081
 O346 O 1.00200 -0.09335 0.04444
 O347 O 1.02494 0.00016 0.05177
 O348 O 0.97362 0.00014 0.05105
 O349 O 0.95862 0.06054 -0.06241
 O350 O 0.92625 0.02873 -0.03106
 C351 C 0.93252 0.05175 -0.05376
 O352 O 1.03951 -0.05694 -0.06509
 O353 O 1.07176 -0.02795 -0.03056
 C354 C 1.06557 -0.04884 -0.05549
 O355 O 0.95853 -0.05980 -0.06240
 O356 O 0.92621 -0.02811 -0.03105
 C357 C 0.93245 -0.05107 -0.05373
 O358 O 1.03956 0.05777 -0.06509
 O359 O 1.07179 0.02869 -0.03057
 C360 C 1.06561 0.04966 -0.05552
 Zr361 Zr 0.99905 0.04187 -0.04494
 O362 O 0.99596 0.04193 -0.10113
 O363 O 1.00227 0.09389 -0.04445
 Zr364 Zr 0.99900 -0.04113 -0.04498
 O365 O 0.99590 -0.04086 -0.10117
 O366 O 1.00216 -0.09316 -0.04464
 Zr367 Zr 1.04253 0.00028 0.00000
 Zr368 Zr 0.95539 0.00025 -0.00033
 O369 O 0.97378 0.00037 -0.05157
 O370 O 1.02507 0.00039 -0.05189
 O371 O 0.97294 0.04826 -0.00024
 O372 O 1.02420 -0.04725 -0.00009
 O373 O 1.02426 0.04780 -0.00005
 O374 O 0.97290 -0.04775 -0.00027
 H375 H 0.96069 0.00009 0.07208
 H376 H 1.03709 -0.06675 -0.00006
 H377 H 0.96093 0.00040 -0.07270
 H378 H 1.03719 0.06731 -0.00001
 H379 H 0.98574 -0.10192 0.02999
 H380 H 0.98570 -0.10180 -0.03057
 H381 H 1.01221 -0.02754 -0.11042
 H382 H 1.01212 0.02846 -0.11039
 H383 H 0.98574 0.10245 -0.03053
 H384 H 0.98576 0.10230 0.03008
 H385 H 1.01194 0.02801 0.11016
 H386 H 1.01210 -0.02809 0.11015
 O387 O 1.04181 0.55907 0.56355
 O388 O 1.07398 0.52926 0.52989
 C389 C 1.06783 0.55081 0.55411
 O390 O 0.96096 0.44017 0.56038
 O391 O 0.92851 0.47186 0.52903
 C392 C 0.93487 0.44853 0.55130
 O393 O 1.04177 0.44341 0.56345
 O394 O 1.07394 0.47324 0.52962
 C395 C 1.06779 0.45163 0.55390
 O396 O 0.96096 0.56221 0.56045
 O397 O 0.92852 0.53058 0.52905
 C398 C 0.93488 0.55382 0.55134
 Zr399 Zr 1.00125 0.54259 0.54417
 O400 O 0.99805 0.54045 0.60032
 O401 O 1.00445 0.59456 0.54602
 Zr402 Zr 1.00124 0.45995 0.54412
 O403 O 0.99805 0.46188 0.60027
 O404 O 1.00443 0.40798 0.54592
 O405 O 1.02741 0.50128 0.55100
 O406 O 0.97572 0.50123 0.55066
 O407 O 0.96057 0.56234 0.43806
 O408 O 0.92834 0.53063 0.46973
 C409 C 0.93455 0.55389 0.44732
 O410 O 1.04140 0.44372 0.43452
 O411 O 1.07375 0.47339 0.46822
 C412 C 1.06747 0.45192 0.44391
 O413 O 0.96058 0.44060 0.43803
 O414 O 0.92834 0.47209 0.46970
 C415 C 0.93456 0.44894 0.44729
 O416 O 1.04144 0.55931 0.43448
 O417 O 1.07379 0.52936 0.46795
 C418 C 1.06751 0.55098 0.44372
 Zr419 Zr 1.00099 0.54281 0.45421
 O420 O 0.99746 0.54114 0.39808
 O421 O 1.00420 0.59480 0.45269
 Zr422 Zr 1.00098 0.46013 0.45420
 O423 O 0.99747 0.46208 0.39807
 O424 O 1.00417 0.40816 0.45261
 Zr425 Zr 1.04459 0.50145 0.49903
 Zr426 Zr 0.95753 0.50133 0.49931
 O427 O 0.97545 0.50146 0.44786
 O428 O 1.02709 0.50151 0.44717
 O429 O 0.97532 0.54923 0.49927
 O430 O 1.02621 0.45395 0.49908
 O431 O 1.02624 0.54890 0.49911
 O432 O 0.97530 0.45345 0.49923
 H433 H 0.96245 0.50117 0.57137
 H434 H 1.03896 0.43432 0.49902
 H435 H 0.96211 0.50149 0.42718
 H436 H 1.03907 0.56848 0.49906
 H437 H 0.99010 0.39907 0.52889
 H438 H 0.98948 0.39920 0.46914
 H439 H 1.01504 0.47317 0.38883
 H440 H 1.01496 0.52999 0.38883
 H441 H 0.98949 0.60365 0.46920
 H442 H 0.99012 0.60351 0.52899
 H443 H 1.01576 0.52958 0.60944
 H444 H 1.01580 0.47265 0.60939
 O445 O 0.55038 -0.04600 0.56455
 O446 O 0.52394 -0.08283 0.53135
 C447 C 0.54324 -0.07561 0.55526
 O448 O 0.44549 0.04534 0.56249
 O449 O 0.47295 0.08247 0.53088
 C450 C 0.45260 0.07501 0.55331
 O451 O 0.44826 -0.04618 0.56569
 O452 O 0.47416 -0.08292 0.53188
 C453 C 0.45527 -0.07576 0.55622
 O454 O 0.55305 0.04547 0.56129
 O455 O 0.52507 0.08253 0.53029
 C456 C 0.54581 0.07513 0.55226
 Zr457 Zr 0.53541 -0.00016 0.54542
 O458 O 0.53372 0.00348 0.60158
 O459 O 0.58119 -0.00366 0.54720
 Zr460 Zr 0.46285 -0.00026 0.54623
 O461 O 0.46545 0.00338 0.60234
 O462 O 0.41712 -0.00391 0.54904
 O463 O 0.49919 -0.03004 0.55271
 O464 O 0.49918 0.02889 0.55231
 O465 O 0.55214 0.04585 0.43962
 O466 O 0.52460 0.08273 0.47122
 C467 C 0.54505 0.07545 0.44889
 O468 O 0.44709 -0.04570 0.43705
 O469 O 0.47357 -0.08269 0.47008
 C470 C 0.45423 -0.07535 0.44624
 O471 O 0.44437 0.04572 0.44072
 O472 O 0.47238 0.08266 0.47176
 C473 C 0.45161 0.07534 0.44982
 O474 O 0.54936 -0.04559 0.43599
 O475 O 0.52341 -0.08264 0.46956
 C476 C 0.54239 -0.07526 0.44536
 Zr477 Zr 0.53462 0.00014 0.45547
 O478 O 0.53171 0.00418 0.39939
 O479 O 0.58032 -0.00332 0.45216
 Zr480 Zr 0.46210 0.00005 0.45630
 O481 O 0.46393 0.00410 0.40016
 O482 O 0.41634 -0.00354 0.45428
 Zr483 Zr 0.49876 -0.04964 0.50077
 Zr484 Zr 0.49874 0.04956 0.50096
 O485 O 0.49831 0.02928 0.44951
 O486 O 0.49831 -0.02972 0.44889
 O487 O 0.54085 0.02923 0.50043
 O488 O 0.45702 -0.02861 0.50128
 O489 O 0.54049 -0.02849 0.50034
 O490 O 0.45664 0.02913 0.50139
 H491 H 0.49936 0.04401 0.57296
 H492 H 0.43966 -0.04300 0.50146
 H493 H 0.49814 0.04458 0.42895
 H494 H 0.55787 -0.04281 0.50014
 H495 H 0.40900 0.01201 0.53179
 H496 H 0.40851 0.01175 0.47228
 H497 H 0.47269 -0.01638 0.39085
 H498 H 0.52308 -0.01647 0.39027
 H499 H 0.58849 0.01164 0.47031
 H500 H 0.58900 0.01228 0.52977
 H501 H 0.52482 -0.01700 0.61082
 H502 H 0.47456 -0.01704 0.61138
 O503 O 0.54178 0.55633 0.06241
 O504 O 0.57355 0.52652 0.02821
 C505 C 0.56769 0.54807 0.05249
 O506 O 0.46083 0.43724 0.06031
 O507 O 0.42823 0.46908 0.02942
 C508 C 0.43470 0.44566 0.05147
 O509 O 0.54178 0.44074 0.06258
 O510 O 0.57345 0.47083 0.02838
 C511 C 0.56765 0.44919 0.05269
 O512 O 0.46071 0.55961 0.06018
 O513 O 0.42817 0.52766 0.02938
 C514 C 0.43460 0.55109 0.05134
 Zr515 Zr 0.50092 0.53983 0.04376
 O516 O 0.49813 0.53744 0.09993
 O517 O 0.50410 0.59177 0.04606
 Zr518 Zr 0.50101 0.45714 0.04375
 O519 O 0.49822 0.45912 0.09992
 O520 O 0.50431 0.40519 0.04566
 O521 O 0.52715 0.49855 0.05030
 O522 O 0.47550 0.49842 0.05057
 O523 O 0.45933 0.55957 -0.06173
 O524 O 0.42753 0.52760 -0.02977
 C525 C 0.43343 0.55097 -0.05208
 O526 O 0.54038 0.44106 -0.06648
 O527 O 0.57276 0.47101 -0.03317
 C528 C 0.56646 0.44952 -0.05738
 O529 O 0.45946 0.43768 -0.06184
 O530 O 0.42758 0.46931 -0.02979
 C531 C 0.43354 0.44610 -0.05218
 O532 O 0.54040 0.55652 -0.06623
 O533 O 0.57287 0.52660 -0.03292
 C534 C 0.56652 0.54819 -0.05708
 Zr535 Zr 0.49995 0.54003 -0.04625
 O536 O 0.49597 0.53822 -0.10234
 O537 O 0.50310 0.59201 -0.04815
 Zr538 Zr 0.50003 0.45729 -0.04625
 O539 O 0.49605 0.45916 -0.10234
 O540 O 0.50333 0.40532 -0.04783
 Zr541 Zr 0.54382 0.49871 -0.00191
 Zr542 Zr 0.45695 0.49847 -0.00059
 O543 O 0.47442 0.49861 -0.05229
 O544 O 0.52599 0.49875 -0.05359
 O545 O 0.47468 0.54642 -0.00087
 O546 O 0.52561 0.45115 -0.00164
 O547 O 0.52547 0.54618 -0.00162
 O548 O 0.47476 0.45060 -0.00087
 H549 H 0.46235 0.49836 0.07140
 H550 H 0.53845 0.43160 -0.00186
 H551 H 0.46090 0.49863 -0.07279
 H552 H 0.53824 0.56581 -0.00183
 H553 H 0.49007 0.39624 0.02855
 H554 H 0.48871 0.39634 -0.03121
 H555 H 0.51339 0.47056 -0.11177
 H556 H 0.51360 0.52748 -0.11180
 H557 H 0.48875 0.60091 -0.03120
 H558 H 0.49026 0.60078 0.02848
 H559 H 0.51616 0.52712 0.10884
 H560 H 0.51600 0.47001 0.10882
 C561 C 1.17848 0.15287 0.16560
 C562 C 1.16322 0.13520 0.14779
 C563 C 1.14458 0.11518 0.12716
 C564 C 1.12790 0.09875 0.10989
 C565 C 1.10735 0.08042 0.09018
 C566 C 1.08882 0.06570 0.07398
 C567 C 1.17885 0.66286 0.65553
 C568 C 1.16406 0.64404 0.63864
 C569 C 1.14602 0.62224 0.61957
 C570 C 1.12977 0.60416 0.60381
 C571 C 1.10958 0.58397 0.58595
 C572 C 1.09119 0.56795 0.57115
 C573 C 0.65675 0.18671 0.65320
 C574 C 0.63824 0.17325 0.63579
 C575 C 0.61670 0.15648 0.61614
 C576 C 0.59875 0.14084 0.60005
 C577 C 0.57864 0.12051 0.58215
 C578 C 0.56269 0.10106 0.56784
 C579 C 0.68038 0.65981 0.15049
 C580 C 0.66610 0.64065 0.13346
 C581 C 0.64794 0.61875 0.11479
 C582 C 0.63122 0.60079 0.09970
 C583 C 0.61030 0.58090 0.08283
 C584 C 0.59135 0.56513 0.06885
 C585 C 0.81918 -0.15550 0.16160
 C586 C 0.83436 -0.13807 0.14342
 C587 C 0.85299 -0.11822 0.12256
 C588 C 0.86969 -0.10183 0.10529
 C589 C 0.89030 -0.08334 0.08586
 C590 C 0.90889 -0.06827 0.07017
 C591 C 0.82351 0.33479 0.65069
 C592 C 0.83859 0.35323 0.63362
 C593 C 0.85685 0.37481 0.61447
 C594 C 0.87318 0.39293 0.59883
 C595 C 0.89336 0.41350 0.58135
 C596 C 0.91166 0.43017 0.56719
 C597 C 0.34688 -0.18723 0.66076
 C598 C 0.36558 -0.17410 0.64340
 C599 C 0.38713 -0.15755 0.62360
 C600 C 0.40487 -0.14193 0.60717
 C601 C 0.42444 -0.12149 0.58854
 C602 C 0.43963 -0.10187 0.57331
 C603 C 0.32201 0.33294 0.14912
 C604 C 0.33676 0.35140 0.13175
 C605 C 0.35522 0.37281 0.11278
 C606 C 0.37199 0.39068 0.09759
 C607 C 0.39277 0.41089 0.08083
 C608 C 0.41145 0.42732 0.06716
 C609 C 0.82047 0.15677 -0.16345
 C610 C 0.83549 0.13901 -0.14540
 C611 C 0.85388 0.11890 -0.12449
 C612 C 0.87037 0.10236 -0.10706
 C613 C 0.89076 0.08377 -0.08734
 C614 C 0.90920 0.06866 -0.07138
 C615 C 0.82078 0.66337 0.34656
 C616 C 0.83639 0.64588 0.36403
 C617 C 0.85524 0.62530 0.38356
 C618 C 0.87202 0.60793 0.39945
 C619 C 0.89262 0.58810 0.41711
 C620 C 0.91119 0.57191 0.43138
 C621 C 0.33944 0.18489 0.34867
 C622 C 0.35824 0.17209 0.36623
 C623 C 0.38008 0.15594 0.38601
 C624 C 0.39825 0.14068 0.40215
 C625 C 0.41858 0.12063 0.42008
 C626 C 0.43465 0.10128 0.43435
 C627 C 0.31547 0.65984 -0.14535
 C628 C 0.33135 0.64204 -0.12872
 C629 C 0.35103 0.62147 -0.11061
 C630 C 0.36874 0.60431 -0.09614
 C631 C 0.39044 0.58486 -0.08018
 C632 C 0.40973 0.56894 -0.06714
 C633 C 1.17935 -0.15229 -0.16316
 C634 C 1.16399 -0.13427 -0.14602
 C635 C 1.14519 -0.11408 -0.12598
 C636 C 1.12836 -0.09766 -0.10907
 C637 C 1.10763 -0.07944 -0.08967
 C638 C 1.08899 -0.06487 -0.07366
 C639 C 1.17931 0.34157 0.34185
 C640 C 1.16416 0.36001 0.35866
 C641 C 1.14580 0.38140 0.37778
 C642 C 1.12940 0.39916 0.39365
 C643 C 1.10913 0.41905 0.41171
 C644 C 1.09075 0.43488 0.42668
 C645 C 0.65367 -0.18463 0.34369
 C646 C 0.63444 -0.17186 0.36039
 C647 C 0.61227 -0.15576 0.37948
 C648 C 0.59402 -0.14052 0.39540
 C649 C 0.57391 -0.12050 0.41354
 C650 C 0.55833 -0.10116 0.42848
 C651 C 0.68377 0.34442 -0.15643
 C652 C 0.66783 0.36224 -0.13999
 C653 C 0.64817 0.38258 -0.12162
 C654 C 0.63055 0.39931 -0.10649
 C655 C 0.60902 0.41798 -0.08924
 C656 C 0.58992 0.43297 -0.07469
 C657 C 1.17885 0.15334 -0.16454
 C658 C 1.16360 0.13532 -0.14712
 C659 C 1.14494 0.11510 -0.12676
 C660 C 1.12823 0.09864 -0.10960
 C661 C 1.10761 0.08036 -0.08995
 C662 C 1.08903 0.06574 -0.07378
 C663 C 1.18070 0.65991 0.34109
 C664 C 1.16524 0.64179 0.35803
 C665 C 1.14653 0.62077 0.37725
 C666 C 1.12986 0.60328 0.39318
 C667 C 1.10934 0.58365 0.41132
 C668 C 1.09083 0.56796 0.42636
 C669 C 0.65746 0.18489 0.34843
 C670 C 0.63849 0.17216 0.36568
 C671 C 0.61649 0.15609 0.38519
 C672 C 0.59824 0.14085 0.40119
 C673 C 0.57789 0.12080 0.41903
 C674 C 0.56187 0.10142 0.43331
 C675 C 0.68364 0.65543 -0.15451
 C676 C 0.66777 0.63722 -0.13832
 C677 C 0.64816 0.61647 -0.12028
 C678 C 0.63055 0.59940 -0.10545
 C679 C 0.60903 0.58036 -0.08853
 C680 C 0.58994 0.56506 -0.07421
 C681 C 0.81903 -0.15601 -0.16127
 C682 C 0.83434 -0.13825 -0.14364
 C683 C 0.85308 -0.11816 -0.12322
 C684 C 0.86984 -0.10165 -0.10619
 C685 C 0.89048 -0.08308 -0.08688
 C686 C 0.90906 -0.06799 -0.07119
 C687 C 0.82217 0.33817 0.34628
 C688 C 0.83745 0.35599 0.36374
 C689 C 0.85593 0.37690 0.38332
 C690 C 0.87243 0.39452 0.39928
 C691 C 0.89280 0.41457 0.41702
 C692 C 0.91124 0.43088 0.43134
 C693 C 0.34325 -0.18476 0.34314
 C694 C 0.36229 -0.17197 0.36031
 C695 C 0.38428 -0.15586 0.37986
 C696 C 0.40243 -0.14063 0.39607
 C697 C 0.42252 -0.12062 0.41442
 C698 C 0.43816 -0.10129 0.42943
 C699 C 0.31588 0.33790 -0.14695
 C700 C 0.33179 0.35546 -0.13009
 C701 C 0.35144 0.37583 -0.11167
 C702 C 0.36908 0.39288 -0.09692
 C703 C 0.39068 0.41226 -0.08065
 C704 C 0.40988 0.42815 -0.06740
 C705 C 1.17954 -0.15301 0.16365
 C706 C 1.16404 -0.13530 0.14616
 C707 C 1.14511 -0.11522 0.12594
 C708 C 1.12821 -0.09875 0.10901
 C709 C 1.10745 -0.08034 0.08967
 C710 C 1.08882 -0.06554 0.07371
 C711 C 1.17790 0.33824 0.65516
 C712 C 1.16329 0.35731 0.63833
 C713 C 1.14547 0.37940 0.61927
 C714 C 1.12942 0.39772 0.60351
 C715 C 1.10940 0.41816 0.58563
 C716 C 1.09111 0.43435 0.57085
 C717 C 0.65281 -0.18686 0.65862
 C718 C 0.63407 -0.17360 0.64139
 C719 C 0.61240 -0.15701 0.62177
 C720 C 0.59449 -0.14145 0.60551
 C721 C 0.57465 -0.12115 0.58710
 C722 C 0.55919 -0.10165 0.57207
 C723 C 0.68089 0.33856 0.15136
 C724 C 0.66645 0.35749 0.13420
 C725 C 0.64815 0.37914 0.11537
 C726 C 0.63135 0.39692 0.10016
 C727 C 0.61035 0.41663 0.08318
 C728 C 0.59136 0.43227 0.06912
 C729 C 0.82014 0.15526 0.16267
 C730 C 0.83512 0.13786 0.14432
 C731 C 0.85351 0.11807 0.12324
 C732 C 0.87004 0.10174 0.10578
 C733 C 0.89049 0.08333 0.08614
 C734 C 0.90899 0.06835 0.07032
 C735 C 0.82278 0.66592 0.65082
 C736 C 0.83799 0.64779 0.63369
 C737 C 0.85644 0.62656 0.61451
 C738 C 0.87292 0.60873 0.59886
 C739 C 0.89325 0.58846 0.58140
 C740 C 0.91164 0.57201 0.56724
 C741 C 0.34325 0.18592 0.65665
 C742 C 0.36160 0.17275 0.63887
 C743 C 0.38290 0.15620 0.61876
 C744 C 0.40060 0.14064 0.60229
 C745 C 0.42039 0.12035 0.58396
 C746 C 0.43604 0.10091 0.56929
 C747 C 0.32236 0.66509 0.14718
 C748 C 0.33692 0.64626 0.13013
 C749 C 0.35522 0.62449 0.11155
 C750 C 0.37191 0.60638 0.09669
 C751 C 0.39265 0.58597 0.08026
 C752 C 0.41132 0.56944 0.06683
   
