data_POSCAR
  _audit_creation_date              2014-09-24
  _audit_creation_method            'ToBaCCo'
  _symmetry_space_group_name_H-M    'P1'
  _symmetry_Int_Tables_number       1
  _symmetry_cell_setting            triclinic
  loop_
  _symmetry_equiv_pos_as_xyz
 x,y,z
_cell_length_a 19.0773
_cell_length_b 19.0571
_cell_length_c 19.0469
_cell_angle_alpha 90.154200
_cell_angle_beta 90.000400
_cell_angle_gamma 89.982200
loop_
  _atom_site_label
  _atom_site_type_symbol
  _atom_site_fract_x
  _atom_site_fract_y
  _atom_site_fract_z
C1 C 0.29402 1.05040 -0.46272
 C2 C 0.29401 1.05405 -0.53465
 C3 C 0.35405 1.01964 -0.55742
 N4 N 0.39152 0.99680 -0.50184
 C5 C 0.35462 1.01510 -0.44405
 C6 C 0.37215 1.00536 -0.62814
 C7 C 0.44228 0.98788 -0.64583
 C8 C 0.46268 0.94901 -0.70405
 C9 C 0.53470 0.94750 -0.70392
 C10 C 0.55651 0.98565 -0.64572
 N11 N 0.49978 1.00872 -0.60966
 C12 C 0.62724 1.00093 -0.62824
 C13 C 0.64571 1.01633 -0.55790
 C14 C 0.70620 1.05043 -0.53601
 C15 C 0.70598 1.04891 -0.46400
 C16 C 0.64496 1.01483 -0.44445
 N17 N 0.60789 0.99548 -0.50178
 C18 C 0.62618 0.99708 -0.37515
 C19 C 0.55683 0.97822 -0.35785
 C20 C 0.53616 0.94409 -0.29707
 C21 C 0.46395 0.94348 -0.29722
 C22 C 0.44288 0.97740 -0.35801
 N23 N 0.49977 0.99755 -0.39500
 C24 C 0.37332 0.99573 -0.37519
 H25 H 0.25423 1.07158 -0.42813
 H26 H 0.25421 1.07897 -0.56648
 H27 H 0.49965 1.03076 -0.43839
 H28 H 0.42915 0.92383 -0.74240
 H29 H 0.56728 0.92099 -0.74221
 H30 H 0.74634 1.07394 -0.56847
 H31 H 0.74600 1.07051 -0.42997
 H32 H 0.43084 0.92198 -0.25647
 H33 H 0.50033 1.04278 -0.56668
 H34 H 0.56953 0.92310 -0.25625
 C35 C -0.70586 1.53857 0.04970
 C36 C -0.70655 1.46668 0.05066
 C37 C -0.64768 1.44468 0.01399
 N38 N -0.61028 1.50074 -0.00818
 C39 C -0.64648 1.55820 0.01265
 C40 C -0.62988 1.37403 -0.00107
 C41 C -0.55958 1.35612 -0.01736
 C42 C -0.53806 1.29685 -0.05407
 C43 C -0.46596 1.29641 -0.05258
 C44 C -0.44549 1.35579 -0.01577
 N45 N -0.50277 1.39244 0.00459
 C46 C -0.37582 1.37256 0.00292
 C47 C -0.35651 1.44151 0.02157
 C48 C -0.29396 1.46109 0.05301
 C49 C -0.29330 1.53317 0.05426
 C50 C -0.35543 1.55483 0.02342
 N51 N -0.39411 1.49879 0.00397
 C52 C -0.37327 1.62458 0.00671
 C53 C -0.44213 1.64284 -0.01340
 C54 C -0.46051 1.70258 -0.05041
 C55 C -0.53253 1.70329 -0.05415
 C56 C -0.55613 1.64450 -0.01826
 N57 N -0.50056 1.60722 0.00514
 C58 C -0.62715 1.62803 -0.00376
 H59 H -0.74418 1.57253 0.07432
 H60 H -0.74553 1.43434 0.07620
 H61 H -0.50271 1.56419 0.03879
 H62 H -0.57086 1.25768 -0.07892
 H63 H -0.43248 1.25671 -0.07565
 H64 H -0.25276 1.42710 0.07215
 H65 H -0.25147 1.56580 0.07449
 H66 H -0.56389 1.74296 -0.07986
 H67 H -0.50336 1.43549 0.03851
 H68 H -0.42569 1.74163 -0.07232
 C69 C 0.05225 0.53885 0.29467
 C70 C 0.05465 0.46691 0.29397
 C71 C 0.02019 0.44448 0.35404
 N72 N -0.00154 0.50025 0.39219
 C73 C 0.01759 0.55787 0.35570
 C74 C 0.00518 0.37394 0.37172
 C75 C -0.01253 0.35631 0.44186
 C76 C -0.05203 0.29858 0.46175
 C77 C -0.05375 0.29844 0.53384
 C78 C -0.01518 0.35604 0.55627
 N79 N 0.00848 0.39200 0.49979
 C80 C -0.00032 0.37275 0.62743
 C81 C 0.01561 0.44275 0.64747
 C82 C 0.04561 0.46327 0.71058
 C83 C 0.04496 0.53518 0.71162
 C84 C 0.01702 0.55671 0.64790
 N85 N -0.00105 0.49992 0.60902
 C86 C 0.00034 0.62680 0.62919
 C87 C -0.01860 0.64484 0.55939
 C88 C -0.04726 0.70840 0.53792
 C89 C -0.04806 0.70785 0.46573
 C90 C -0.01832 0.64491 0.44474
 N91 N -0.00126 0.60664 0.50194
 C92 C -0.00038 0.62707 0.37491
 H93 H 0.07383 0.57323 0.25504
 H94 H 0.07890 0.43488 0.25374
 H95 H 0.02954 0.56153 0.50165
 H96 H -0.07747 0.26072 0.42783
 H97 H -0.08070 0.26034 0.56609
 H98 H 0.06513 0.43009 0.75222
 H99 H 0.06216 0.56717 0.75524
 H100 H -0.06602 0.75028 0.43265
 H101 H 0.04303 0.43441 0.50076
 H102 H -0.06361 0.75226 0.57002
 O103 O -0.18074 1.00085 -0.09523
 O104 O 0.17996 0.99927 -0.09555
 O105 O -0.00266 1.09288 -0.18220
 O106 O 0.00127 0.90331 -0.18117
 O107 O 0.00339 0.81822 -0.09506
 O108 O -0.00528 1.17912 -0.09700
 O109 O 0.09450 0.99493 -0.18119
 O110 O -0.09541 0.99869 -0.18112
 Zr111 Zr -0.00050 0.99851 -0.12431
 O112 O 0.06375 0.93594 -0.06428
 O113 O -0.06467 1.06230 -0.06487
 C114 C -0.16014 1.00022 -0.16019
 C115 C 0.15931 0.99607 -0.16038
 C116 C -0.00509 1.15795 -0.16188
 C117 C 0.00315 0.83876 -0.15992
 H118 H 0.09184 1.09286 -0.09483
 O119 O 0.06222 1.06295 -0.06461
 H120 H -0.09320 0.90500 -0.09330
 O121 O -0.06328 0.93534 -0.06368
 O122 O 0.18013 1.00457 0.09389
 O123 O -0.18043 0.99762 0.09437
 O124 O 0.09276 1.18107 -0.00073
 O125 O 0.09605 0.82004 -0.00355
 O126 O -0.09381 0.81834 0.00117
 O127 O -0.09691 1.17926 -0.00446
 O128 O 0.00273 1.09565 0.17934
 O129 O -0.00014 0.90585 0.18032
 O130 O 0.00014 1.18072 0.09339
 O131 O -0.00200 0.81966 0.09495
 O132 O 0.17888 1.09615 0.00162
 O133 O -0.18159 1.09294 -0.00142
 O134 O -0.17979 0.90354 0.00371
 O135 O 0.18078 0.90639 -0.00253
 O136 O 0.09484 1.00278 0.17962
 O137 O -0.09490 0.99709 0.17995
 Zr138 Zr 0.12281 1.00074 -0.00082
 Zr139 Zr -0.12349 0.99877 -0.00039
 Zr140 Zr -0.00152 1.12306 -0.00154
 Zr141 Zr 0.00061 0.87608 -0.00037
 Zr142 Zr 0.00000 1.00029 0.12271
 O143 O -0.06329 0.93577 0.06337
 O144 O 0.06273 1.06438 0.06257
 C145 C 0.15962 1.00474 0.15886
 C146 C -0.15979 0.99656 0.15926
 C147 C 0.15776 1.16091 0.00117
 C148 C 0.16072 0.84131 -0.00422
 C149 C -0.15870 0.83877 0.00366
 C150 C -0.16154 1.15794 -0.00365
 C151 C 0.00248 1.16046 0.15844
 C152 C -0.00174 0.84086 0.15981
 H153 H -0.09376 1.09286 0.09259
 O154 O -0.06383 1.06291 0.06254
 H155 H 0.09386 0.90743 0.09254
 O156 O 0.06357 0.93703 0.06267
 C157 C 0.25183 0.97867 0.33254
 C158 C 0.31945 1.00540 0.31896
 C159 C 0.33345 1.03166 0.25117
 C160 C 0.28174 1.03134 0.19918
 C161 C 0.21437 1.00560 0.21370
 C162 C 0.19994 0.97945 0.28093
 H163 H 0.23931 0.95511 0.38267
 H164 H 0.38405 1.05415 0.23865
 H165 H 0.29424 1.05225 0.14787
 H166 H 0.14883 0.95806 0.29330
 C167 C -0.33353 1.02472 0.25085
 C168 C -0.32009 0.99886 0.31885
 C169 C -0.25292 0.97095 0.33276
 C170 C -0.20088 0.97038 0.28117
 C171 C -0.21484 0.99638 0.21380
 C172 C -0.28183 1.02302 0.19900
 H173 H -0.38356 1.04834 0.23809
 H174 H -0.24085 0.94791 0.38324
 H175 H -0.14998 0.94855 0.29372
 H176 H -0.29390 1.04410 0.14766
 C177 C -0.33014 1.03410 -0.25623
 C178 C -0.31915 0.99746 -0.31940
 C179 C -0.25560 0.96158 -0.32954
 C180 C -0.20354 0.96333 -0.27808
 C181 C -0.21476 0.99959 -0.21481
 C182 C -0.27870 1.03448 -0.20401
 H183 H -0.37852 1.06258 -0.24749
 H184 H -0.24628 0.93232 -0.37748
 H185 H -0.15495 0.93531 -0.28721
 H186 H -0.28835 1.06304 -0.15571
 C187 C 0.25508 0.95902 -0.33024
 C188 C 0.31854 0.99493 -0.31952
 C189 C 0.32933 1.03069 -0.25587
 C190 C 0.27793 1.03008 -0.20370
 C191 C 0.21411 0.99507 -0.21489
 C192 C 0.20298 0.95975 -0.27870
 H193 H 0.24584 0.93062 -0.37870
 H194 H 0.37751 1.05935 -0.24673
 H195 H 0.28748 1.05821 -0.15513
 H196 H 0.15438 0.93195 -0.28829
 C197 C 0.33146 1.25367 0.02647
 C198 C 0.31739 1.32118 -0.00035
 C199 C 0.24944 1.33477 -0.02633
 C200 C 0.19753 1.28314 -0.02491
 C201 C 0.21224 1.21604 0.00140
 C202 C 0.27978 1.20176 0.02686
 H203 H 0.38208 1.24128 0.04900
 H204 H 0.23670 1.38492 -0.04970
 H205 H 0.14621 1.29538 -0.04592
 H206 H 0.29246 1.15065 0.04811
 C207 C 0.33475 0.74936 0.02105
 C208 C 0.32081 0.68154 -0.00538
 C209 C 0.25336 0.66800 -0.03272
 C210 C 0.20158 0.71979 -0.03242
 C211 C 0.21593 0.78696 -0.00575
 C212 C 0.28319 0.80142 0.02039
 H213 H 0.38491 0.76174 0.04463
 H214 H 0.24081 0.61750 -0.05572
 H215 H 0.15045 0.70746 -0.05389
 H216 H 0.29550 0.85256 0.04206
 C217 C -0.32794 0.74319 0.04233
 C218 C -0.31770 0.67948 0.00647
 C219 C -0.25471 0.66867 -0.03027
 C220 C -0.20248 0.72000 -0.03010
 C221 C -0.21307 0.78389 0.00521
 C222 C -0.27639 0.79525 0.04108
 H223 H -0.37598 0.75260 0.07117
 H224 H -0.24606 0.62047 -0.05926
 H225 H -0.15440 0.71039 -0.05883
 H226 H -0.28559 0.84403 0.06894
 C227 C -0.25830 1.32777 -0.03691
 C228 C -0.32107 1.31684 0.00014
 C229 C -0.33147 1.25263 0.03463
 C230 C -0.28013 1.20039 0.03215
 C231 C -0.21677 1.21206 -0.00351
 C232 C -0.20622 1.27625 -0.03787
 H233 H -0.24949 1.37645 -0.06477
 H234 H -0.37927 1.24312 0.06379
 H235 H -0.28928 1.15149 0.05949
 H236 H -0.15801 1.28625 -0.06611
 C237 C 0.03051 1.25308 0.33250
 C238 C 0.00481 1.32110 0.31867
 C239 C -0.02184 1.33489 0.25094
 C240 C -0.02174 1.28312 0.19889
 C241 C 0.00376 1.21560 0.21324
 C242 C 0.02963 1.20103 0.28066
 H243 H 0.05297 1.24037 0.38313
 H244 H -0.04487 1.38528 0.23849
 H245 H -0.04313 1.29560 0.14775
 H246 H 0.05022 1.14957 0.29312
 C247 C 0.02372 1.25137 -0.33479
 C248 C -0.00342 1.31891 -0.32085
 C249 C -0.03352 1.33133 -0.25427
 C250 C -0.03403 1.27919 -0.20286
 C251 C -0.00617 1.21249 -0.21697
 C252 C 0.02193 1.19884 -0.28374
 H253 H 0.04855 1.23964 -0.38460
 H254 H -0.05790 1.38121 -0.24206
 H255 H -0.05697 1.29091 -0.15218
 H256 H 0.04436 1.14803 -0.29595
 C257 C 0.06437 0.69841 -0.28522
 C258 C 0.00122 0.67944 -0.31854
 C259 C -0.06113 0.71358 -0.29854
 C260 C -0.06018 0.76598 -0.24712
 C261 C 0.00280 0.78419 -0.21404
 C262 C 0.06502 0.75008 -0.23295
 H263 H 0.11328 0.67360 -0.30016
 H264 H -0.11069 0.69915 -0.32231
 H265 H -0.10866 0.79186 -0.23257
 H266 H 0.11404 0.76396 -0.20777
 C267 C 0.03639 0.74528 0.32925
 C268 C -0.00096 0.68244 0.31973
 C269 C -0.03867 0.67221 0.25711
 C270 C -0.03841 0.72345 0.20476
 C271 C -0.00190 0.78661 0.21483
 C272 C 0.03512 0.79731 0.27769
 H273 H 0.06653 0.75402 0.37666
 H274 H -0.06820 0.62438 0.24876
 H275 H -0.06763 0.71421 0.15685
 H276 H 0.06423 0.84535 0.28633
   
