data_POSCAR
  _audit_creation_date              2014-09-24
  _audit_creation_method            'ToBaCCo'
  _symmetry_space_group_name_H-M    'P1'
  _symmetry_Int_Tables_number       1
  _symmetry_cell_setting            triclinic
  loop_
  _symmetry_equiv_pos_as_xyz
 x,y,z
_cell_length_a 26.0936
_cell_length_b 26.1350
_cell_length_c 26.1715
_cell_angle_alpha 101.416800
_cell_angle_beta 78.199500
_cell_angle_gamma 77.793300
loop_
  _atom_site_label
  _atom_site_type_symbol
  _atom_site_fract_x
  _atom_site_fract_y
  _atom_site_fract_z
C1 C 0.55051 0.51043 0.00343
 C2 C 0.51007 0.55117 -0.00456
 C3 C 0.45995 0.54137 -0.00821
 C4 C 0.44950 0.49167 -0.00413
 C5 C 0.48990 0.45102 0.00382
 C6 C 0.53997 0.46075 0.00749
 H7 H 0.57102 0.42923 0.01344
 H8 H 0.42874 0.57277 -0.01416
 C9 C -0.00424 0.45079 0.51011
 C10 C 0.00442 0.49038 0.55004
 C11 C 0.00839 0.54027 0.53996
 C12 C 0.00395 0.55125 0.49050
 C13 C -0.00469 0.51157 0.45051
 C14 C -0.00866 0.46170 0.46068
 H15 H -0.01511 0.43108 0.42982
 H16 H 0.01484 0.57078 0.57097
 C17 C 0.49131 0.00329 0.45035
 C18 C 0.45095 -0.00506 0.49016
 C19 C 0.46061 -0.00865 0.54022
 C20 C 0.51007 -0.00414 0.55124
 C21 C 0.55059 0.00422 0.51128
 C22 C 0.54077 0.00780 0.46121
 H23 H 0.57188 0.01403 0.43030
 H24 H 0.42923 -0.01488 0.57085
 O25 O 0.46399 -0.00231 -0.06716
 O26 O 0.44803 0.01411 0.07883
 O27 O 0.44739 0.07916 0.01460
 O28 O 0.46459 -0.06735 -0.00294
 O29 O 0.55328 -0.08014 -0.01573
 O30 O 0.53607 0.06639 0.00181
 O31 O 0.53672 0.00135 0.06602
 O32 O 0.55267 -0.01507 -0.07998
 Cu33 Cu 0.44707 0.00714 0.00708
 Cu34 Cu 0.55361 -0.00812 -0.00822
 C35 C 0.51087 -0.01086 -0.09812
 C36 C 0.48984 0.00991 0.09698
 C37 C 0.48898 0.09741 0.01057
 C38 C 0.51167 -0.09838 -0.01168
 O39 O -0.07985 0.55277 1.01383
 O40 O 0.06682 0.53668 0.99732
 O41 O 0.00280 0.53546 0.93240
 O42 O -0.01581 0.55397 1.07880
 O43 O -0.00271 0.46564 1.06781
 O44 O 0.01591 0.44713 0.92141
 O45 O 0.07995 0.44836 0.98636
 O46 O -0.06672 0.46445 1.00287
 Cu47 Cu -0.00779 0.55362 1.00665
 Cu48 Cu 0.00789 0.44750 0.99355
 C49 C -0.09794 0.51116 1.01053
 C50 C 0.09805 0.48997 0.98964
 C51 C 0.01187 0.48835 0.90229
 C52 C -0.01179 0.51275 1.09792
 O53 O 0.01381 -0.07933 0.44770
 O54 O -0.00367 0.06719 0.46490
 O55 O 0.07863 -0.01544 0.44703
 O56 O -0.06847 0.00332 0.46562
 O57 O -0.07979 0.01473 0.55361
 O58 O 0.06731 -0.00403 0.53502
 O59 O -0.01496 0.07863 0.55289
 O60 O 0.00252 -0.06790 0.53568
 Cu61 Cu 0.00616 -0.00717 0.44745
 Cu62 Cu -0.00733 0.00647 0.55317
 C63 C 0.01051 -0.09825 0.48896
 C64 C -0.01164 0.09754 0.51163
 C65 C 0.09769 -0.01228 0.48807
 C66 C -0.09886 0.01156 0.51257
 C67 C -0.39966 0.51733 1.00690
 C68 C -0.35501 0.52112 1.00976
 C69 C -0.30192 0.52294 1.01253
 C70 C -0.25598 0.52254 1.01409
 C71 C -0.20151 0.52011 1.01466
 C72 C -0.15449 0.51665 1.01373
 C73 C 0.39978 0.48453 0.99251
 C74 C 0.35515 0.48053 0.98978
 C75 C 0.30207 0.47852 0.98716
 C76 C 0.25612 0.47878 0.98573
 C77 C 0.20164 0.48109 0.98531
 C78 C 0.15461 0.48449 0.98635
 C79 C 0.00756 -0.39924 0.48300
 C80 C 0.01050 -0.35478 0.47879
 C81 C 0.01329 -0.30187 0.47665
 C82 C 0.01480 -0.25604 0.47694
 C83 C 0.01520 -0.20168 0.47943
 C84 C 0.01405 -0.15473 0.48309
 C85 C -0.00817 0.39851 0.51802
 C86 C -0.01119 0.35403 0.52206
 C87 C -0.01410 0.30111 0.52405
 C88 C -0.01570 0.25530 0.52369
 C89 C -0.01620 0.20095 0.52116
 C90 C -0.01513 0.15401 0.51749
 C91 C 0.51698 -0.00752 -0.39899
 C92 C 0.52078 -0.01030 -0.35440
 C93 C 0.52259 -0.01300 -0.30142
 C94 C 0.52220 -0.01451 -0.25560
 C95 C 0.51978 -0.01503 -0.20130
 C96 C 0.51633 -0.01407 -0.15445
 C97 C 0.48379 0.00684 0.39788
 C98 C 0.48000 0.00958 0.35329
 C99 C 0.47817 0.01223 0.30030
 C100 C 0.47855 0.01369 0.25447
 C101 C 0.48095 0.01415 0.20016
 C102 C 0.48438 0.01315 0.15330
 C103 C 0.51762 -0.39937 -0.00832
 C104 C 0.52186 -0.35496 -0.01138
 C105 C 0.52402 -0.30208 -0.01429
 C106 C 0.52374 -0.25626 -0.01587
 C107 C 0.52125 -0.20187 -0.01634
 C108 C 0.51758 -0.15489 -0.01522
 C109 C 0.48199 0.39874 0.00777
 C110 C 0.47801 0.35425 0.01074
 C111 C 0.47613 0.30128 0.01354
 C112 C 0.47660 0.25539 0.01502
 C113 C 0.47928 0.20095 0.01537
 C114 C 0.48304 0.15394 0.01417
 C115 C -0.40012 0.00832 0.51922
 C116 C -0.35581 0.01162 0.52370
 C117 C -0.30297 0.01471 0.52598
 C118 C -0.25712 0.01635 0.52565
 C119 C -0.20265 0.01675 0.52293
 C120 C -0.15555 0.01545 0.51895
 C121 C 0.39901 -0.00938 0.48154
 C122 C 0.35468 -0.01263 0.47706
 C123 C 0.30184 -0.01565 0.47477
 C124 C 0.25598 -0.01723 0.47506
 C125 C 0.20150 -0.01756 0.47774
 C126 C 0.15439 -0.01621 0.48170
 C127 C -0.00896 0.51995 1.39849
 C128 C -0.01216 0.52425 1.35418
 C129 C -0.01515 0.52635 1.30140
 C130 C -0.01671 0.52593 1.25563
 C131 C -0.01703 0.52314 1.20132
 C132 C -0.01569 0.51913 1.15437
 C133 C 0.00870 0.48172 0.60192
 C134 C 0.01195 0.47725 0.64617
 C135 C 0.01500 0.47497 0.69890
 C136 C 0.01662 0.47530 0.74463
 C137 C 0.01702 0.47801 0.79891
 C138 C 0.01573 0.48198 0.84584
   
