data_POSCAR
  _audit_creation_date              2014-09-24
  _audit_creation_method            'ToBaCCo'
  _symmetry_space_group_name_H-M    'P1'
  _symmetry_Int_Tables_number       1
  _symmetry_cell_setting            triclinic
  loop_
  _symmetry_equiv_pos_as_xyz
 x,y,z
_cell_length_a 36.2255
_cell_length_b 36.2387
_cell_length_c 36.2500
_cell_angle_alpha 90.012400
_cell_angle_beta 90.033200
_cell_angle_gamma 89.978000
loop_
  _atom_site_label
  _atom_site_type_symbol
  _atom_site_fract_x
  _atom_site_fract_y
  _atom_site_fract_z
C1 C 0.28237 0.33022 0.01812
 C2 C 0.28237 0.33031 -0.02080
 C3 C 0.30592 0.30633 -0.04001
 C4 C 0.32977 0.28261 -0.02085
 C5 C 0.32969 0.28253 0.01807
 C6 C 0.30584 0.30617 0.03723
 H7 H 0.30612 0.30641 0.06716
 H8 H 0.30623 0.30669 -0.06997
 C9 C 0.71696 0.67058 0.01852
 C10 C 0.71698 0.67080 -0.02034
 C11 C 0.69333 0.69473 -0.03942
 C12 C 0.66931 0.71816 -0.02015
 C13 C 0.66932 0.71794 0.01878
 C14 C 0.69331 0.69431 0.03780
 H15 H 0.69301 0.69383 0.06773
 H16 H 0.69313 0.69451 -0.06936
 C17 C 0.71761 0.33052 0.98036
 C18 C 0.71770 0.33052 1.01929
 C19 C 0.69411 0.30659 1.03847
 C20 C 0.67016 0.28305 1.01931
 C21 C 0.67007 0.28309 0.98045
 C22 C 0.69394 0.30664 0.96125
 H23 H 0.69355 0.30694 0.93132
 H24 H 0.69380 0.30679 1.06842
 C25 C 0.28187 0.67071 0.98252
 C26 C 0.28180 0.67065 1.02144
 C27 C 0.30533 0.69460 1.04070
 C28 C 0.32924 0.71826 1.02160
 C29 C 0.32924 0.71830 0.98268
 C30 C 0.30541 0.69470 0.96347
 H31 H 0.30575 0.69443 0.93354
 H32 H 0.30559 0.69426 1.07066
 C33 C 0.01990 0.28165 0.32899
 C34 C -0.01899 0.28140 0.32870
 C35 C -0.03819 0.30483 0.30467
 C36 C -0.01903 0.32884 0.28124
 C37 C 0.01986 0.32908 0.28150
 C38 C 0.03907 0.30532 0.30521
 H39 H 0.06901 0.30584 0.30573
 H40 H -0.06814 0.30496 0.30480
 C41 C 0.01902 0.71766 0.67018
 C42 C -0.01993 0.71757 0.66999
 C43 C -0.03915 0.69393 0.69382
 C44 C -0.02000 0.67006 0.71751
 C45 C 0.01895 0.67020 0.71769
 C46 C 0.03813 0.69415 0.69420
 H47 H 0.06808 0.69393 0.69404
 H48 H -0.06913 0.69355 0.69338
 C49 C 0.98131 0.71678 0.32949
 C50 C 1.02020 0.71685 0.32946
 C51 C 1.03942 0.69334 0.30553
 C52 C 1.02027 0.66943 0.28189
 C53 C 0.98131 0.66942 0.28189
 C54 C 0.96214 0.69325 0.30555
 H55 H 0.93220 0.69293 0.30588
 H56 H 1.06938 0.69317 0.30590
 C57 C 0.98130 0.28201 0.66938
 C58 C 1.02026 0.28198 0.66947
 C59 C 1.03937 0.30560 0.69344
 C60 C 1.02012 0.32952 0.71691
 C61 C 0.98124 0.32956 0.71678
 C62 C 0.96210 0.30565 0.69319
 H63 H 0.93215 0.30600 0.69282
 H64 H 1.06934 0.30596 0.69331
 C65 C 0.32999 0.01823 0.28300
 C66 C 0.33005 -0.02071 0.28308
 C67 C 0.30621 -0.03986 0.30678
 C68 C 0.28267 -0.02065 0.33074
 C69 C 0.28267 0.01829 0.33065
 C70 C 0.30615 0.03740 0.30663
 H71 H 0.30641 0.06734 0.30687
 H72 H 0.30653 -0.06983 0.30712
 C73 C 0.67013 0.01942 0.71792
 C74 C 0.67028 -0.01945 0.71818
 C75 C 0.69425 -0.03873 0.69476
 C76 C 0.71777 -0.01966 0.67077
 C77 C 0.71763 0.01922 0.67051
 C78 C 0.69398 0.03850 0.69425
 H79 H 0.69357 0.06843 0.69373
 H80 H 0.69403 -0.06867 0.69465
 C81 C 0.32953 0.98217 0.71840
 C82 C 0.32956 1.02110 0.71830
 C83 C 0.30568 1.04023 0.69459
 C84 C 0.28213 1.02100 0.67064
 C85 C 0.28217 0.98207 0.67075
 C86 C 0.30568 0.96298 0.69479
 H87 H 0.30598 0.93304 0.69456
 H88 H 0.30598 1.07020 0.69422
 C89 C 0.67047 0.98049 0.28272
 C90 C 0.67056 1.01936 0.28265
 C91 C 0.69453 1.03854 0.30615
 C92 C 0.71814 1.01936 0.33009
 C93 C 0.71806 0.98042 0.33011
 C94 C 0.69438 0.96129 0.30627
 H95 H 0.69399 0.93136 0.30660
 H96 H 0.69420 1.06849 0.30633
 O97 O 0.84867 0.89807 0.53646
 O98 O 0.89959 0.84711 0.46467
 O99 O 0.84869 0.89807 0.46468
 O100 O 0.89955 0.84707 0.53649
 O101 O 0.85631 0.80400 0.53638
 O102 O 0.80551 0.85494 0.46466
 O103 O 0.85635 0.80404 0.46465
 O104 O 0.80549 0.85494 0.53636
 Cu105 Cu 0.87849 0.87693 0.50059
 Cu106 Cu 0.82657 0.82513 0.50051
 C107 C 0.81840 0.88516 0.54841
 C108 C 0.88660 0.81690 0.45264
 C109 C 0.81844 0.88516 0.45265
 C110 C 0.88655 0.81685 0.54845
 O111 O 0.15241 0.10126 0.53700
 O112 O 0.10146 0.15187 0.46492
 O113 O 0.15236 0.10093 0.46520
 O114 O 0.10138 0.15213 0.53673
 O115 O 0.14455 0.19527 0.53656
 O116 O 0.19548 0.14412 0.46510
 O117 O 0.14464 0.19500 0.46483
 O118 O 0.19551 0.14446 0.53681
 Cu119 Cu 0.12254 0.12219 0.50098
 Cu120 Cu 0.17439 0.17406 0.50082
 C121 C 0.18265 0.11427 0.54895
 C122 C 0.11442 0.18205 0.45279
 C123 C 0.18260 0.11384 0.45317
 C124 C 0.11430 0.18242 0.54861
 O125 O 0.10155 0.84819 0.53565
 O126 O 0.15274 0.89893 0.46390
 O127 O 0.10181 0.84799 0.46386
 O128 O 0.15236 0.89922 0.53571
 O129 O 0.19556 0.85610 0.53604
 O130 O 0.14507 0.80491 0.46425
 O131 O 0.19594 0.85579 0.46431
 O132 O 0.14482 0.80512 0.53597
 Cu133 Cu 0.12275 0.87794 0.49974
 Cu134 Cu 0.17471 0.82614 0.50018
 C135 C 0.11450 0.81801 0.54781
 C136 C 0.18307 0.88597 0.45210
 C137 C 0.11485 0.81772 0.45204
 C138 C 0.18256 0.88635 0.54791
 O139 O 0.89901 0.15107 0.53503
 O140 O 0.84791 0.10003 0.46339
 O141 O 0.89896 0.15081 0.46326
 O142 O 0.84802 0.10024 0.53520
 O143 O 0.80495 0.14352 0.53505
 O144 O 0.85583 0.19403 0.46319
 O145 O 0.80485 0.14331 0.46333
 O146 O 0.85587 0.19428 0.53488
 Cu147 Cu 0.87782 0.12116 0.49923
 Cu148 Cu 0.82603 0.17313 0.49910
 C149 C 0.88611 0.18137 0.54694
 C150 C 0.81768 0.11302 0.45136
 C151 C 0.88604 0.18104 0.45120
 C152 C 0.81782 0.11331 0.54718
 O153 O 0.46391 0.89952 0.84930
 O154 O 0.53574 0.84819 0.89995
 O155 O 0.53574 0.89919 0.84916
 O156 O 0.46389 0.84862 0.90024
 O157 O 0.46357 0.80551 0.85704
 O158 O 0.53534 0.85603 0.80601
 O159 O 0.53533 0.80511 0.85673
 O160 O 0.46360 0.85635 0.80617
 Cu161 Cu 0.49985 0.87824 0.87903
 Cu162 Cu 0.49941 0.82640 0.82714
 C163 C 0.45176 0.88665 0.81909
 C164 C 0.54757 0.81792 0.88692
 C165 C 0.54757 0.88619 0.81889
 C166 C 0.45172 0.81845 0.88732
 O167 O 0.53568 0.15194 0.10099
 O168 O 0.46394 0.10079 0.15183
 O169 O 0.46384 0.15166 0.10082
 O170 O 0.53578 0.10101 0.15187
 O171 O 0.53555 0.14422 0.19496
 O172 O 0.46368 0.19481 0.14397
 O173 O 0.46379 0.14401 0.19491
 O174 O 0.53543 0.19508 0.14415
 Cu175 Cu 0.49982 0.12199 0.12202
 Cu176 Cu 0.49958 0.17388 0.17384
 C177 C 0.54756 0.18222 0.11395
 C178 C 0.45189 0.11371 0.18205
 C179 C 0.45175 0.18188 0.11372
 C180 C 0.54771 0.11401 0.18210
 O181 O 0.53489 0.10165 0.84790
 O182 O 0.46307 0.15281 0.89864
 O183 O 0.46303 0.10181 0.84779
 O184 O 0.53492 0.15264 0.89874
 O185 O 0.53500 0.19570 0.85551
 O186 O 0.46319 0.14494 0.80463
 O187 O 0.46324 0.19586 0.85541
 O188 O 0.53497 0.14477 0.80474
 Cu189 Cu 0.49896 0.12287 0.87763
 Cu190 Cu 0.49911 0.17466 0.82572
 C191 C 0.54695 0.11453 0.81769
 C192 C 0.45114 0.18305 0.88563
 C193 C 0.45107 0.11475 0.81754
 C194 C 0.54700 0.18283 0.88576
 O195 O 0.46273 0.84783 0.10212
 O196 O 0.53480 0.89879 0.15273
 O197 O 0.53458 0.84795 0.10174
 O198 O 0.46294 0.89870 0.15309
 O199 O 0.46331 0.85546 0.19613
 O200 O 0.53487 0.80478 0.14484
 O201 O 0.53508 0.85555 0.19577
 O202 O 0.46310 0.80466 0.14523
 Cu203 Cu 0.49873 0.87769 0.12307
 Cu204 Cu 0.49912 0.82576 0.17483
 C205 C 0.45086 0.81756 0.11509
 C206 C 0.54701 0.88581 0.18286
 C207 C 0.54671 0.81773 0.11458
 C208 C 0.45114 0.88569 0.18335
 O209 O 0.89922 0.53659 0.84683
 O210 O 0.84831 0.46485 0.89783
 O211 O 0.89927 0.46475 0.84696
 O212 O 0.84824 0.53665 0.89769
 O213 O 0.80512 0.53650 0.85447
 O214 O 0.85608 0.46468 0.80382
 O215 O 0.80519 0.46477 0.85462
 O216 O 0.85604 0.53644 0.80368
 Cu217 Cu 0.87813 0.50072 0.87668
 Cu218 Cu 0.82627 0.50059 0.82479
 C219 C 0.88627 0.54853 0.81657
 C220 C 0.81807 0.45282 0.88489
 C221 C 0.88632 0.45267 0.81676
 C222 C 0.81798 0.54859 0.88470
 O223 O 0.10125 0.53658 0.15204
 O224 O 0.15221 0.46505 0.10076
 O225 O 0.10134 0.46476 0.15167
 O226 O 0.15225 0.53687 0.10124
 O227 O 0.19538 0.53658 0.14445
 O228 O 0.14455 0.46456 0.19480
 O229 O 0.19536 0.46484 0.14396
 O230 O 0.14444 0.53630 0.19519
 Cu231 Cu 0.12240 0.50084 0.12206
 Cu232 Cu 0.17428 0.50055 0.17395
 C233 C 0.11419 0.54841 0.18234
 C234 C 0.18245 0.45296 0.11366
 C235 C 0.11432 0.45258 0.18183
 C236 C 0.18248 0.54879 0.11429
 O237 O 0.84777 0.53550 0.09992
 O238 O 0.89876 0.46354 0.15062
 O239 O 0.84766 0.46367 0.09985
 O240 O 0.89879 0.53535 0.15079
 O241 O 0.85569 0.53530 0.19396
 O242 O 0.80463 0.46372 0.14310
 O243 O 0.85566 0.46358 0.19381
 O244 O 0.80473 0.53546 0.14316
 Cu245 Cu 0.87759 0.49952 0.12092
 Cu246 Cu 0.82583 0.49952 0.17286
 C247 C 0.81757 0.54752 0.11293
 C248 C 0.88587 0.45152 0.18085
 C249 C 0.81743 0.45169 0.11284
 C250 C 0.88592 0.54731 0.18106
 O251 O 0.15217 0.53568 0.89949
 O252 O 0.10163 0.46392 0.84813
 O253 O 0.15256 0.46385 0.89906
 O254 O 0.10137 0.53572 0.84842
 O255 O 0.14465 0.53605 0.80541
 O256 O 0.19575 0.46428 0.85596
 O257 O 0.14488 0.46433 0.80510
 O258 O 0.19538 0.53602 0.85641
 Cu259 Cu 0.12257 0.49975 0.87813
 Cu260 Cu 0.17452 0.50021 0.82639
 C261 C 0.18238 0.54787 0.88667
 C262 C 0.11467 0.45212 0.81787
 C263 C 0.18287 0.45203 0.88609
 C264 C 0.11432 0.54789 0.81828
 C265 C 0.25974 0.35559 0.03898
 C266 C 0.24131 0.37725 0.05624
 C267 C 0.22027 0.40315 0.07632
 C268 C 0.20275 0.42567 0.09340
 C269 C 0.73978 0.64516 0.03906
 C270 C 0.75837 0.62345 0.05610
 C271 C 0.77958 0.59750 0.07595
 C272 C 0.79720 0.57491 0.09286
 C273 C 0.74036 0.35578 0.95949
 C274 C 0.75890 0.37733 0.94224
 C275 C 0.78008 0.40311 0.92218
 C276 C 0.79770 0.42556 0.90511
 C277 C 0.25929 0.64534 0.96160
 C278 C 0.24092 0.62367 0.94428
 C279 C 0.21996 0.59777 0.92413
 C280 C 0.20254 0.57521 0.90699
 C281 C 0.04054 0.25908 0.35456
 C282 C 0.05759 0.24068 0.37641
 C283 C 0.07743 0.21968 0.40254
 C284 C 0.09433 0.20222 0.42527
 C285 C 0.03990 0.74043 0.64495
 C286 C 0.05714 0.75897 0.62339
 C287 C 0.07719 0.78013 0.59758
 C288 C 0.09425 0.79772 0.57510
 C289 C 0.96065 0.73945 0.35493
 C290 C 0.94355 0.75793 0.37666
 C291 C 0.92365 0.77904 0.40265
 C292 C 0.90671 0.79659 0.42525
 C293 C 0.96051 0.25921 0.64408
 C294 C 0.94333 0.24063 0.62250
 C295 C 0.92333 0.21940 0.59668
 C296 C 0.90631 0.20176 0.57420
 C297 C 0.35514 0.03905 0.26009
 C298 C 0.37661 0.05628 0.24143
 C299 C 0.40230 0.07635 0.22012
 C300 C 0.42469 0.09344 0.20244
 C301 C 0.64467 0.04016 0.74051
 C302 C 0.62292 0.05732 0.75893
 C303 C 0.59694 0.07731 0.77996
 C304 C 0.57433 0.09432 0.79745
 C305 C 0.35475 0.96137 0.74129
 C306 C 0.37629 0.94415 0.75992
 C307 C 0.40205 0.92408 0.78117
 C308 C 0.42450 0.90697 0.79879
 C309 C 0.64497 0.95986 0.26006
 C310 C 0.62319 0.94278 0.24160
 C311 C 0.59714 0.92289 0.22055
 C312 C 0.57447 0.90594 0.20306
 C313 C 0.35375 0.26103 0.95961
 C314 C 0.37538 0.24241 0.94251
 C315 C 0.40126 0.22115 0.92262
 C316 C 0.42380 0.20348 0.90570
 C317 C 0.64523 0.73977 0.96042
 C318 C 0.62353 0.75843 0.94344
 C319 C 0.59756 0.77974 0.92370
 C320 C 0.57496 0.79745 0.90689
 C321 C 0.35324 0.73979 0.04119
 C322 C 0.37490 0.75838 0.05830
 C323 C 0.40083 0.77958 0.07817
 C324 C 0.42343 0.79721 0.09506
 C325 C 0.64485 0.26023 0.03996
 C326 C 0.62323 0.24161 0.05705
 C327 C 0.59737 0.22033 0.07693
 C328 C 0.57486 0.20265 0.09385
 C329 C 0.26058 0.04048 0.64657
 C330 C 0.24196 0.05753 0.62488
 C331 C 0.22070 0.07736 0.59894
 C332 C 0.20304 0.09423 0.57636
 C333 C 0.73974 0.03890 0.35406
 C334 C 0.75837 0.05600 0.37568
 C335 C 0.77963 0.07591 0.40154
 C336 C 0.79729 0.09287 0.42406
 C337 C 0.74059 0.95958 0.64555
 C338 C 0.75919 0.94239 0.62398
 C339 C 0.78041 0.92238 0.59818
 C340 C 0.79804 0.90535 0.57570
 C341 C 0.26113 0.95985 0.35478
 C342 C 0.24251 0.94279 0.37642
 C343 C 0.22122 0.92293 0.40229
 C344 C 0.20352 0.90603 0.42480
 C345 C 0.04074 0.35486 0.73975
 C346 C 0.05782 0.37648 0.75837
 C347 C 0.07771 0.40233 0.77965
 C348 C 0.09463 0.42483 0.79736
 C349 C 0.03985 0.64549 0.26032
 C350 C 0.05702 0.62391 0.24171
 C351 C 0.07701 0.59811 0.22046
 C352 C 0.09402 0.57564 0.20279
 C353 C 0.96027 0.35412 0.25842
 C354 C 0.94310 0.37574 0.23985
 C355 C 0.92310 0.40162 0.21869
 C356 C 0.90607 0.42416 0.20113
 C357 C 0.96044 0.64600 0.73897
 C358 C 0.94330 0.62433 0.75749
 C359 C 0.92336 0.59842 0.77864
 C360 C 0.90640 0.57586 0.79623
 C361 C 0.73987 0.64563 0.95892
 C362 C 0.75854 0.62411 0.94175
 C363 C 0.77985 0.59834 0.92179
 C364 C 0.79755 0.57587 0.90481
 C365 C 0.26085 0.35438 0.95971
 C366 C 0.24224 0.37609 0.94269
 C367 C 0.22097 0.40204 0.92291
 C368 C 0.20329 0.42464 0.90608
 C369 C 0.26027 0.64659 0.04088
 C370 C 0.24167 0.62487 0.05786
 C371 C 0.22045 0.59889 0.07758
 C372 C 0.20282 0.57625 0.09436
 C373 C 0.73933 0.35447 0.03881
 C374 C 0.75800 0.37607 0.05590
 C375 C 0.77931 0.40190 0.07578
 C376 C 0.79701 0.42440 0.09271
 C377 C 0.96056 0.73908 0.64594
 C378 C 0.94347 0.75766 0.62426
 C379 C 0.92359 0.77887 0.59835
 C380 C 0.90666 0.79649 0.57580
 C381 C 0.96034 0.25857 0.35394
 C382 C 0.94320 0.24000 0.37552
 C383 C 0.92323 0.21884 0.40135
 C384 C 0.90622 0.20128 0.42387
 C385 C 0.03987 0.26040 0.64557
 C386 C 0.05707 0.24178 0.62403
 C387 C 0.07709 0.22053 0.59827
 C388 C 0.09412 0.20286 0.57583
 C389 C 0.04084 0.73966 0.35479
 C390 C 0.05795 0.75827 0.37640
 C391 C 0.07787 0.77954 0.40224
 C392 C 0.09480 0.79724 0.42474
 C393 C 0.64497 0.95998 0.74102
 C394 C 0.62334 0.94294 0.75963
 C395 C 0.59746 0.92310 0.78086
 C396 C 0.57491 0.90621 0.79850
 C397 C 0.35398 0.95973 0.26148
 C398 C 0.37556 0.94260 0.24284
 C399 C 0.40138 0.92270 0.22154
 C400 C 0.42387 0.90577 0.20383
 C401 C 0.64521 0.04002 0.25988
 C402 C 0.62355 0.05713 0.24131
 C403 C 0.59765 0.07703 0.22011
 C404 C 0.57508 0.09396 0.20248
 C405 C 0.35356 0.04068 0.73983
 C406 C 0.37521 0.05781 0.75841
 C407 C 0.40112 0.07772 0.77960
 C408 C 0.42370 0.09465 0.79720
 C409 C 0.64398 0.74053 0.03972
 C410 C 0.62235 0.75894 0.05703
 C411 C 0.59650 0.77997 0.07716
 C412 C 0.57399 0.79748 0.09428
 C413 C 0.35486 0.25965 0.03891
 C414 C 0.37634 0.24103 0.05618
 C415 C 0.40206 0.21981 0.07631
 C416 C 0.42449 0.20219 0.09344
 C417 C 0.64465 0.26036 0.95983
 C418 C 0.62294 0.24183 0.94274
 C419 C 0.59698 0.22069 0.92285
 C420 C 0.57438 0.20312 0.90590
 C421 C 0.35452 0.74107 0.96191
 C422 C 0.37610 0.75959 0.94469
 C423 C 0.40191 0.78069 0.92463
 C424 C 0.42441 0.79822 0.90756
 C425 C 0.74081 0.95958 0.35539
 C426 C 0.75935 0.94236 0.37699
 C427 C 0.78052 0.92235 0.40282
 C428 C 0.79811 0.90534 0.42534
 C429 C 0.25955 0.96116 0.64540
 C430 C 0.24116 0.94386 0.62374
 C431 C 0.22018 0.92374 0.59783
 C432 C 0.20273 0.90663 0.57527
 C433 C 0.26001 0.03917 0.35596
 C434 C 0.24156 0.05644 0.37758
 C435 C 0.22047 0.07652 0.40342
 C436 C 0.20292 0.09360 0.42591
 C437 C 0.74033 0.03975 0.64505
 C438 C 0.75883 0.05674 0.62328
 C439 C 0.77995 0.07650 0.59726
 C440 C 0.79752 0.09333 0.57461
 C441 C 0.96049 0.64421 0.25904
 C442 C 0.94327 0.62270 0.24041
 C443 C 0.92323 0.59696 0.21913
 C444 C 0.90617 0.57453 0.20146
 C445 C 0.96054 0.35498 0.73944
 C446 C 0.94341 0.37670 0.75791
 C447 C 0.92346 0.40267 0.77899
 C448 C 0.90649 0.42527 0.79651
 C449 C 0.03978 0.64500 0.74055
 C450 C 0.05699 0.62346 0.75915
 C451 C 0.07701 0.59767 0.78038
 C452 C 0.09407 0.57519 0.79799
 C453 C 0.04047 0.35456 0.25888
 C454 C 0.05751 0.37636 0.24045
 C455 C 0.07734 0.40241 0.21942
 C456 C 0.09423 0.42510 0.20196
   
