data_POSCAR
  _audit_creation_date              2014-09-24
  _audit_creation_method            'ToBaCCo'
  _symmetry_space_group_name_H-M    'P1'
  _symmetry_Int_Tables_number       1
  _symmetry_cell_setting            triclinic
  loop_
  _symmetry_equiv_pos_as_xyz
 x,y,z
_cell_length_a 54.6971
_cell_length_b 54.7643
_cell_length_c 21.3893
_cell_angle_alpha 90.167900
_cell_angle_beta 90.069500
_cell_angle_gamma 120.036200
loop_
  _atom_site_label
  _atom_site_type_symbol
  _atom_site_fract_x
  _atom_site_fract_y
  _atom_site_fract_z
C1 C 0.18878 0.49211 0.45297
 C2 C 0.18326 0.49911 0.51235
 C3 C 0.18898 0.48927 0.56805
 C4 C 0.20384 0.47407 0.56423
 C5 C 0.21297 0.46988 0.50484
 C6 C 0.20536 0.47885 0.44918
 C7 C 0.21643 0.47628 0.39183
 C8 C 0.23301 0.46383 0.38813
 C9 C 0.24043 0.45446 0.44191
 C10 C 0.23052 0.45745 0.50105
 C11 C 0.21154 0.46452 0.61769
 C12 C 0.22762 0.45136 0.61351
 C13 C 0.23895 0.44901 0.55630
 C14 C 0.25800 0.43820 0.55176
 C15 C 0.26506 0.43324 0.49139
 C16 C 0.25782 0.44241 0.43757
 H17 H 0.21364 0.48497 0.34901
 H18 H 0.24026 0.46194 0.34227
 H19 H 0.20595 0.46747 0.66421
 H20 H 0.23046 0.44278 0.65633
 H21 H 0.17107 0.50972 0.51515
 H22 H 0.27923 0.42495 0.48543
 C23 C 0.55346 -0.18658 0.56517
 C24 C 0.55860 -0.17086 0.51065
 C25 C 0.55293 -0.18358 0.45158
 C26 C 0.54361 -0.21274 0.44636
 C27 C 0.53898 -0.22898 0.50131
 C28 C 0.54368 -0.21580 0.56085
 C29 C 0.53745 -0.23228 0.61473
 C30 C 0.52600 -0.26126 0.61072
 C31 C 0.52141 -0.27510 0.55257
 C32 C 0.52766 -0.25873 0.49692
 C33 C 0.53700 -0.22640 0.38810
 C34 C 0.52596 -0.25539 0.38354
 C35 C 0.52129 -0.27211 0.43705
 C36 C 0.50788 -0.30201 0.43309
 C37 C 0.50047 -0.31757 0.48883
 C38 C 0.50850 -0.30498 0.54819
 H39 H 0.54066 -0.22299 0.66090
 H40 H 0.51949 -0.27249 0.65432
 H41 H 0.53960 -0.21491 0.34527
 H42 H 0.51982 -0.26451 0.33743
 H43 H 0.56463 -0.14876 0.51439
 H44 H 0.49080 -0.34030 0.48547
 C45 C 1.18194 0.73950 0.54974
 C46 C 1.17000 0.73323 0.48927
 C47 C 1.18607 0.74350 0.43545
 C48 C 1.21513 0.76279 0.44022
 C49 C 1.22812 0.77121 0.49989
 C50 C 1.21167 0.75950 0.55530
 C51 C 1.22620 0.76655 0.61289
 C52 C 1.25524 0.78444 0.61652
 C53 C 1.27168 0.79667 0.56299
 C54 C 1.25803 0.78978 0.50365
 C55 C 1.23155 0.77306 0.38618
 C56 C 1.26046 0.79083 0.38981
 C57 C 1.27433 0.80014 0.44775
 C58 C 1.30425 0.81734 0.45153
 C59 C 1.31705 0.82171 0.51051
 C60 C 1.30163 0.81315 0.56640
 H61 H 1.21616 0.75787 0.65668
 H62 H 1.26467 0.78715 0.66220
 H63 H 1.22222 0.76690 0.34004
 H64 H 1.27164 0.79567 0.34608
 H65 H 1.14764 0.71843 0.48292
 H66 H 1.33980 0.83486 0.51362
 C67 C 0.80906 0.54025 0.43848
 C68 C 0.82190 0.53935 0.49385
 C69 C 0.81045 0.53872 0.55302
 C70 C 0.78423 0.53851 0.55601
 C71 C 0.77066 0.53911 0.49937
 C72 C 0.78347 0.54045 0.44061
 C73 C 0.76954 0.54008 0.38525
 C74 C 0.74283 0.53704 0.38676
 C75 C 0.72903 0.53435 0.44373
 C76 C 0.74316 0.53600 0.50094
 C77 C 0.76961 0.53464 0.61256
 C78 C 0.74282 0.53167 0.61409
 C79 C 0.72900 0.53230 0.55916
 C80 C 0.70039 0.52624 0.55943
 C81 C 0.68706 0.52403 0.50186
 C82 C 0.70074 0.52816 0.44482
 H83 H 0.77874 0.54113 0.33988
 H84 H 0.73275 0.53576 0.34242
 H85 H 0.77768 0.53214 0.65654
 H86 H 0.73264 0.52720 0.65906
 H87 H 0.84172 0.53941 0.49008
 H88 H 0.66534 0.51954 0.50091
 C89 C 0.45550 0.26923 0.45337
 C90 C 0.45446 0.27914 0.51299
 C91 C 0.45644 0.26600 0.56698
 C92 C 0.45921 0.24179 0.56194
 C93 C 0.46018 0.23119 0.50194
 C94 C 0.45820 0.24493 0.44729
 C95 C 0.46073 0.23506 0.38838
 C96 C 0.46566 0.21261 0.38293
 C97 C 0.46835 0.19917 0.43615
 C98 C 0.46517 0.20811 0.49652
 C99 C 0.46280 0.22906 0.61516
 C100 C 0.46777 0.20659 0.61003
 C101 C 0.46871 0.19527 0.55134
 C102 C 0.47556 0.17335 0.54489
 C103 C 0.47952 0.16596 0.48423
 C104 C 0.47581 0.17812 0.43063
 H105 H 0.45975 0.24505 0.34572
 H106 H 0.46818 0.20643 0.33636
 H107 H 0.46269 0.23698 0.66154
 H108 H 0.47227 0.19953 0.65314
 H109 H 0.45322 0.29824 0.51755
 H110 H 0.48476 0.14946 0.47762
 C111 C 0.73455 0.18778 0.55677
 C112 C 0.72373 0.17479 0.49905
 C113 C 0.73613 0.18794 0.44282
 C114 C 0.76058 0.21489 0.44369
 C115 C 0.77202 0.22855 0.50188
 C116 C 0.75905 0.21483 0.55871
 C117 C 0.76968 0.22927 0.61541
 C118 C 0.79226 0.25684 0.61666
 C119 C 0.80549 0.27121 0.56121
 C120 C 0.79505 0.25679 0.50297
 C121 C 0.77277 0.22919 0.38789
 C122 C 0.79508 0.25677 0.38877
 C123 C 0.80623 0.27109 0.44552
 C124 C 0.82703 0.29988 0.44632
 C125 C 0.83653 0.31386 0.50335
 C126 C 0.82683 0.30030 0.56118
 H127 H 0.76003 0.21972 0.65952
 H128 H 0.79799 0.26694 0.66183
 H129 H 0.76462 0.21944 0.34281
 H130 H 0.80283 0.26702 0.34422
 H131 H 0.70439 0.15448 0.49774
 H132 H 0.85286 0.33592 0.50211
 N133 N 0.97054 0.54858 0.06687
 N134 N 0.94910 0.55282 0.07735
 N135 N 1.03108 0.56468 0.11039
 N136 N 1.05148 0.57962 0.15067
 N137 N 1.02969 0.58105 0.06748
 N138 N 1.04880 0.60773 0.07817
 N139 N 0.97165 0.53211 0.10992
 N140 N 0.95087 0.52432 0.15008
 C141 C 0.93694 0.53726 0.12925
 C142 C 1.06236 0.60634 0.12991
 N143 N 1.03531 0.49642 0.07434
 N144 N 1.05569 0.49116 0.08953
 N145 N 0.97489 0.48151 0.11409
 N146 N 0.95498 0.46753 0.15568
 N147 N 0.97606 0.46412 0.07341
 N148 N 0.95713 0.43771 0.08680
 N149 N 1.03421 0.51394 0.11480
 N150 N 1.05382 0.52123 0.15807
 Mn151 Mn 1.00298 0.52310 0.11282
 C152 C 1.06721 0.50713 0.14154
 C153 C 0.94399 0.44032 0.13793
 N154 N 1.03022 0.57962 -0.06795
 N155 N 1.04762 0.60609 -0.08474
 N156 N 0.97215 0.52964 -0.10913
 N157 N 0.95223 0.52176 -0.15177
 N158 N 0.97074 0.54695 -0.06861
 N159 N 0.94976 0.55145 -0.08306
 N160 N 1.03124 0.56209 -0.10852
 N161 N 1.04906 0.57599 -0.15376
 Mn162 Mn 1.00027 0.56438 -0.00054
 C163 C 1.05946 0.60331 -0.13806
 C164 C 0.93830 0.53527 -0.13486
 N165 N 0.97621 0.46248 -0.06201
 N166 N 0.95674 0.43590 -0.07346
 N167 N 1.03478 0.51152 -0.10392
 N168 N 1.05517 0.51851 -0.14485
 N169 N 1.03553 0.49481 -0.06099
 N170 N 1.05634 0.48968 -0.07212
 N171 N 0.97544 0.47916 -0.10494
 N172 N 0.95541 0.46468 -0.14606
 Mn173 Mn 1.00579 0.47912 0.00621
 Mn174 Mn 1.00344 0.52059 -0.10698
 Cl175 Cl 1.00314 0.52182 0.00289
 C176 C 0.94382 0.43783 -0.12597
 C177 C 1.06853 0.50493 -0.12431
 N178 N 0.45175 0.42412 0.07287
 N179 N 0.44653 0.39867 0.08931
 N180 N 0.43624 0.47011 0.10546
 N181 N 0.42147 0.47596 0.14513
 N182 N 0.41956 0.45090 0.06490
 N183 N 0.39282 0.44272 0.07677
 N184 N 0.46837 0.44305 0.11403
 N185 N 0.47514 0.43115 0.15906
 C186 C 0.46157 0.40358 0.14295
 C187 C 0.39451 0.45892 0.12644
 N188 N 0.50454 0.54100 0.06063
 N189 N 0.50968 0.56706 0.07049
 N190 N 0.51933 0.49689 0.11136
 N191 N 0.53328 0.49166 0.15446
 N192 N 0.53665 0.51402 0.06878
 N193 N 0.56304 0.52121 0.08229
 N194 N 0.48707 0.52383 0.10296
 N195 N 0.47952 0.53748 0.14195
 Mn196 Mn 0.47776 0.48350 0.10892
 C197 C 0.49355 0.56431 0.12108
 C198 C 0.56043 0.50685 0.13572
 N199 N 0.42052 0.44832 -0.07019
 N200 N 0.39397 0.43962 -0.08581
 N201 N 0.47024 0.43823 -0.10455
 N202 N 0.47815 0.42465 -0.14284
 N203 N 0.45262 0.42108 -0.06243
 N204 N 0.44771 0.39508 -0.07171
 N205 N 0.43775 0.46465 -0.11393
 N206 N 0.42347 0.46712 -0.16071
 Mn207 Mn 0.43580 0.43577 0.00127
 C208 C 0.39630 0.45186 -0.14218
 C209 C 0.46413 0.39787 -0.12174
 N210 N 0.53774 0.51101 -0.06632
 N211 N 0.56443 0.51859 -0.07773
 N212 N 0.48868 0.51885 -0.11572
 N213 N 0.48177 0.53076 -0.16045
 N214 N 0.50538 0.53776 -0.07458
 N215 N 0.51044 0.56318 -0.09062
 N216 N 0.52092 0.49199 -0.10704
 N217 N 0.53548 0.48585 -0.14655
 Mn218 Mn 0.52141 0.52631 -0.00289
 Mn219 Mn 0.47941 0.47845 -0.11072
 Cl220 Cl 0.47857 0.48100 -0.00085
 C221 C 0.56248 0.50234 -0.12764
 C222 C 0.49529 0.55831 -0.14403
 N223 N 0.46228 -0.02941 0.07183
 N224 N 0.43658 -0.04944 0.08768
 N225 N 0.50880 0.03211 0.10260
 N226 N 0.51522 0.05357 0.14022
 N227 N 0.49012 0.02960 0.06068
 N228 N 0.48295 0.04913 0.06944
 N229 N 0.48080 -0.02698 0.11412
 N230 N 0.46840 -0.04532 0.15940
 C231 C 0.44093 -0.05928 0.14226
 C232 C 0.49914 0.06410 0.11886
 N233 N 0.57947 0.03292 0.06395
 N234 N 0.60574 0.05309 0.07557
 N235 N 0.53424 -0.02494 0.11571
 N236 N 0.52861 -0.04334 0.16066
 N237 N 0.55137 -0.02615 0.07444
 N238 N 0.55804 -0.04541 0.09066
 N239 N 0.56204 0.03406 0.10444
 N240 N 0.57573 0.05514 0.14381
 Mn241 Mn 0.52148 0.00358 0.10963
 C242 C 0.60285 0.06698 0.12508
 C243 C 0.54343 -0.05603 0.14446
 N244 N 0.48827 0.02425 -0.07425
 N245 N 0.48091 0.04291 -0.09124
 N246 N 0.47756 -0.03593 -0.10406
 N247 N 0.46383 -0.05749 -0.14229
 N248 N 0.46027 -0.03481 -0.06312
 N249 N 0.43409 -0.05550 -0.07309
 N250 N 0.50539 0.02309 -0.11562
 N251 N 0.51023 0.04089 -0.16154
 Mn252 Mn 0.47489 -0.00261 -0.00123
 C253 C 0.49506 0.05324 -0.14563
 C254 C 0.43685 -0.06963 -0.12226
 N255 N 0.54979 -0.03124 -0.06082
 N256 N 0.55776 -0.05009 -0.07102
 N257 N 0.55900 0.02526 -0.11370
 N258 N 0.57133 0.04443 -0.15754
 N259 N 0.57745 0.02771 -0.07114
 N260 N 0.60298 0.04852 -0.08534
 N261 N 0.53091 -0.03393 -0.10243
 N262 N 0.52502 -0.05498 -0.14098
 Mn263 Mn 0.56487 0.00082 0.00160
 Mn264 Mn 0.51822 -0.00540 -0.10944
 Cl265 Cl 0.51986 -0.00091 0.00012
 C266 C 0.54170 -0.06499 -0.12064
 C267 C 0.59867 0.05880 -0.13926
 C268 C 1.14546 0.50341 0.30734
 N269 N 1.15364 0.48381 0.30259
 N270 N 1.16844 0.48074 0.34845
 C271 C 1.17578 0.49715 0.40082
 N272 N 1.16748 0.51673 0.40490
 N273 N 1.15279 0.51987 0.35921
 C274 C 1.12710 0.50561 0.26021
 N275 N 1.11795 0.52424 0.26925
 N276 N 1.09948 0.52507 0.23013
 C277 C 1.08945 0.50736 0.18029
 N278 N 1.09885 0.48893 0.17043
 N279 N 1.11736 0.48804 0.20982
 C280 C 0.49587 0.64817 0.27769
 N281 N 0.51739 0.67535 0.27878
 N282 N 0.52057 0.69216 0.32730
 C283 C 0.50249 0.68240 0.37671
 N284 N 0.48080 0.65532 0.37438
 N285 N 0.47748 0.63868 0.32601
 C286 C 0.49384 0.62780 0.23001
 N287 N 0.47308 0.60051 0.23528
 N288 N 0.47261 0.58070 0.19850
 C289 C 0.49280 0.58733 0.15463
 N290 N 0.51332 0.61475 0.14799
 N291 N 0.51388 0.63468 0.18524
 C292 C 0.35885 -0.13688 0.30811
 N293 N 0.33105 -0.14490 0.30401
 N294 N 0.31317 -0.16031 0.34920
 C295 C 0.32225 -0.16847 0.40010
 N296 N 0.35016 -0.16024 0.40352
 N297 N 0.36800 -0.14492 0.35862
 C298 C 0.37946 -0.11824 0.26158
 N299 N 0.40731 -0.10862 0.27147
 N300 N 0.42662 -0.09032 0.23239
 C301 C 0.41889 -0.08099 0.18166
 N302 N 0.39099 -0.09081 0.17100
 N303 N 0.37157 -0.10912 0.21043
 C304 C 0.85239 0.53461 0.28337
 N305 N 0.84878 0.55730 0.29013
 N306 N 0.83378 0.55872 0.33780
 C307 C 0.82185 0.53744 0.38009
 N308 N 0.82518 0.51469 0.37264
 N309 N 0.84008 0.51328 0.32518
 C310 C 0.87198 0.53415 0.23709
 N311 N 0.87903 0.51373 0.24096
 N312 N 0.89908 0.51443 0.20474
 C313 C 0.91275 0.53543 0.16276
 N314 N 0.90538 0.55565 0.15761
 N315 N 0.88538 0.55508 0.19442
 C316 C 0.46038 0.32309 0.30900
 N317 N 0.47857 0.33275 0.35806
 N318 N 0.47722 0.31533 0.40278
 C319 C 0.45770 0.28747 0.40024
 N320 N 0.43940 0.27766 0.35111
 N321 N 0.44077 0.29518 0.30615
 C322 C 0.46132 0.34328 0.26257
 N323 N 0.44358 0.33493 0.21245
 N324 N 0.44394 0.35397 0.17298
 C325 C 0.46198 0.38196 0.18254
 N326 N 0.47975 0.39016 0.23228
 N327 N 0.47948 0.37121 0.27139
 C328 C 0.68598 0.14602 0.28732
 N329 N 0.67730 0.15797 0.33108
 N330 N 0.69380 0.17202 0.37923
 C331 C 0.71973 0.17481 0.38544
 N332 N 0.72873 0.16317 0.34139
 N333 N 0.71209 0.14897 0.29308
 C334 C 0.66589 0.12793 0.23900
 N335 N 0.67258 0.11379 0.19622
 N336 N 0.65288 0.09514 0.15735
 C337 C 0.62588 0.09000 0.16030
 N338 N 0.61946 0.10449 0.20230
 N339 N 0.63907 0.12314 0.24068
 C340 C 0.48519 0.12701 -0.31414
 N341 N 0.49867 0.13136 -0.36951
 N342 N 0.49567 0.14659 -0.41384
 C343 C 0.47929 0.15850 -0.40502
 N344 N 0.46567 0.15398 -0.34931
 N345 N 0.46855 0.13856 -0.30468
 C346 C 0.48827 0.10912 -0.26731
 N347 N 0.47324 0.10149 -0.21321
 N348 N 0.47559 0.08403 -0.17329
 C349 C 0.49304 0.07370 -0.18626
 N350 N 0.50814 0.08157 -0.23995
 N351 N 0.50580 0.09891 -0.27962
 C352 C 0.64790 0.51218 -0.28955
 N353 N 0.67603 0.53084 -0.28404
 N354 N 0.69348 0.53488 -0.33170
 C355 C 0.68340 0.52065 -0.38669
 N356 N 0.65526 0.50209 -0.39132
 N357 N 0.63800 0.49780 -0.34388
 C358 C 0.62735 0.50835 -0.24084
 N359 N 0.63365 0.52693 -0.19279
 N360 N 0.61332 0.52465 -0.15440
 C361 C 0.58612 0.50373 -0.16299
 N362 N 0.58014 0.48497 -0.21005
 N363 N 0.60030 0.48724 -0.24813
 C364 C 0.86676 0.35278 -0.28785
 N365 N 0.86123 0.36255 -0.34091
 N366 N 0.84774 0.34529 -0.38827
 C367 C 0.83872 0.31728 -0.38484
 N368 N 0.84396 0.30735 -0.33109
 N369 N 0.85782 0.32478 -0.28351
 C370 C 0.88409 0.37335 -0.23944
 N371 N 0.89598 0.36680 -0.19115
 N372 N 0.91433 0.38701 -0.15266
 C373 C 0.92134 0.41435 -0.16149
 N374 N 0.90900 0.42060 -0.20888
 N375 N 0.89077 0.40056 -0.24697
 C376 C 0.55070 -0.14279 -0.27709
 N377 N 0.57565 -0.13463 -0.30628
 N378 N 0.57692 -0.14922 -0.35501
 C379 C 0.55335 -0.17272 -0.37558
 N380 N 0.52853 -0.18104 -0.34582
 N381 N 0.52721 -0.16631 -0.29764
 C382 C 0.54818 -0.12462 -0.22993
 N383 N 0.52295 -0.12597 -0.22168
 N384 N 0.52083 -0.10753 -0.18478
 C385 C 0.54373 -0.08735 -0.15378
 N386 N 0.56891 -0.08631 -0.16076
 N387 N 0.57114 -0.10454 -0.19857
 C388 C 0.30852 0.43542 -0.30660
 N389 N 0.30684 0.42352 -0.36312
 N390 N 0.28949 0.42327 -0.40698
 C391 C 0.27314 0.43520 -0.39710
 N392 N 0.27479 0.44688 -0.33984
 N393 N 0.29192 0.44684 -0.29533
 C394 C 0.33042 0.43864 -0.26216
 N395 N 0.32736 0.43984 -0.19932
 N396 N 0.34804 0.44345 -0.16036
 C397 C 0.37261 0.44651 -0.18315
 N398 N 0.37562 0.44548 -0.24581
 N399 N 0.35485 0.44136 -0.28450
 C400 C 1.12884 0.68760 -0.31039
 N401 N 1.12383 0.68030 -0.37147
 N402 N 1.14065 0.69753 -0.41545
 C403 C 1.16367 0.72282 -0.40093
 N404 N 1.16817 0.73040 -0.33946
 N405 N 1.15116 0.71318 -0.29497
 C406 C 1.11122 0.66664 -0.26336
 N407 N 1.10940 0.67361 -0.20309
 N408 N 1.09284 0.65367 -0.16231
 C409 C 1.07794 0.62616 -0.18047
 N410 N 1.08005 0.61940 -0.24039
 N411 N 1.09621 0.63921 -0.28101
 C412 C 0.85767 0.53410 -0.30091
 N413 N 0.84251 0.54734 -0.29206
 N414 N 0.82659 0.54843 -0.33830
 C415 C 0.82537 0.53650 -0.39508
 N416 N 0.84078 0.52352 -0.40313
 N417 N 0.85636 0.52218 -0.35718
 C418 C 0.87643 0.53319 -0.25291
 N419 N 0.88801 0.51672 -0.26345
 N420 N 0.90703 0.51704 -0.22440
 C421 C 0.91539 0.53389 -0.17316
 N422 N 0.90359 0.55021 -0.16165
 N423 N 0.88437 0.54985 -0.20095
 C424 C 0.46407 0.31437 -0.27528
 N425 N 0.44048 0.28877 -0.28357
 N426 N 0.43842 0.27243 -0.33208
 C427 C 0.45992 0.28115 -0.37370
 N428 N 0.48357 0.30647 -0.36475
 N429 N 0.48564 0.32271 -0.31642
 C430 C 0.46529 0.33461 -0.22839
 N431 N 0.48689 0.36163 -0.23050
 N432 N 0.48684 0.38138 -0.19436
 C433 C 0.46531 0.37489 -0.15422
 N434 N 0.44391 0.34772 -0.15073
 N435 N 0.44384 0.32790 -0.18745
 C436 C 0.68091 0.14159 -0.29650
 N437 N 0.67169 0.15101 -0.34452
 N438 N 0.68925 0.16669 -0.38945
 C439 C 0.71680 0.17375 -0.38813
 N440 N 0.72626 0.16465 -0.33970
 N441 N 0.70860 0.14887 -0.29452
 C442 C 0.66026 0.12177 -0.25152
 N443 N 0.66808 0.11137 -0.20261
 N444 N 0.64859 0.09176 -0.16537
 C445 C 0.62067 0.08181 -0.17617
 N446 N 0.61298 0.09242 -0.22464
 N447 N 0.63238 0.11204 -0.26146
 C448 C 1.14950 0.50105 -0.27968
 N449 N 1.15347 0.47847 -0.28158
 N450 N 1.16745 0.47517 -0.32900
 C451 C 1.17800 0.49426 -0.37633
 N452 N 1.17429 0.51700 -0.37312
 N453 N 1.16048 0.52037 -0.32596
 C454 C 1.13090 0.50337 -0.23347
 N455 N 1.12406 0.52382 -0.24065
 N456 N 1.10483 0.52467 -0.20424
 C457 C 1.09178 0.50520 -0.15886
 N458 N 1.09895 0.48497 -0.15051
 N459 N 1.11814 0.48400 -0.18742
 C460 C 0.49882 0.64005 -0.30888
 N461 N 0.48174 0.63109 -0.35977
 N462 N 0.48449 0.64905 -0.40455
 C463 C 0.50430 0.67689 -0.40057
 N464 N 0.52140 0.68576 -0.34928
 N465 N 0.51869 0.66777 -0.30424
 C466 C 0.49683 0.61942 -0.26259
 N467 N 0.51399 0.62733 -0.21155
 N468 N 0.51311 0.60797 -0.17241
 C469 C 0.49512 0.58009 -0.18323
 N470 N 0.47786 0.57230 -0.23383
 N471 N 0.47866 0.59158 -0.27268
 C472 C 0.35206 -0.15042 -0.27837
 N473 N 0.36122 -0.15927 -0.32751
 N474 N 0.34438 -0.17215 -0.37593
 C475 C 0.31743 -0.17712 -0.37743
 N476 N 0.30800 -0.16884 -0.32724
 N477 N 0.32501 -0.15566 -0.27869
 C478 C 0.37265 -0.13245 -0.23069
 N479 N 0.36615 -0.11899 -0.18581
 N480 N 0.38633 -0.09974 -0.14874
 C481 C 0.41363 -0.09328 -0.15566
 N482 N 0.41988 -0.10716 -0.19958
 N483 N 0.39981 -0.12637 -0.23624
 C484 C 0.54771 -0.13404 0.30930
 N485 N 0.56617 -0.14371 0.30381
 N486 N 0.56776 -0.15996 0.34829
 C487 C 0.55091 -0.16702 0.39956
 N488 N 0.53256 -0.15733 0.40472
 N489 N 0.53095 -0.14124 0.36047
 C490 C 0.54620 -0.11501 0.26316
 N491 N 0.52804 -0.10537 0.27323
 N492 N 0.52704 -0.08701 0.23441
 C493 C 0.54412 -0.07755 0.18378
 N494 N 0.56220 -0.08733 0.17296
 N495 N 0.56325 -0.10577 0.21212
 C496 C 0.30747 0.44843 0.28352
 N497 N 0.30870 0.47176 0.30880
 N498 N 0.29190 0.46956 0.35595
 C499 C 0.27332 0.44396 0.37987
 N500 N 0.27201 0.42054 0.35465
 N501 N 0.28868 0.42273 0.30696
 C502 C 0.32852 0.45150 0.23710
 N503 N 0.32508 0.42926 0.20197
 N504 N 0.34563 0.43187 0.16416
 C505 C 0.37040 0.45667 0.16091
 N506 N 0.37371 0.47887 0.19567
 N507 N 0.35307 0.47639 0.23267
 C508 C 1.14203 0.69504 0.28015
 N509 N 1.13471 0.71313 0.30616
 N510 N 1.14956 0.72976 0.35379
 C511 C 1.17249 0.72919 0.37628
 N512 N 1.18006 0.71147 0.34949
 N513 N 1.16505 0.69465 0.30245
 C514 C 1.12330 0.67348 0.23518
 N515 N 1.12298 0.64858 0.23218
 N516 N 1.10397 0.62749 0.19709
 C517 C 1.08488 0.63066 0.16288
 N518 N 1.08550 0.65576 0.16469
 N519 N 1.10427 0.67676 0.20069
 C520 C 0.48987 0.14278 0.27120
 N521 N 0.46473 0.14180 0.27886
 N522 N 0.46059 0.15450 0.32774
 C523 C 0.48149 0.16868 0.37042
 N524 N 0.50670 0.17003 0.36197
 N525 N 0.51083 0.15741 0.31326
 C526 C 0.49346 0.12517 0.22432
 N527 N 0.51670 0.12237 0.22720
 N528 N 0.51882 0.10364 0.19140
 C529 C 0.49789 0.08711 0.15089
 N530 N 0.47486 0.09031 0.14659
 N531 N 0.47263 0.10897 0.18294
 C532 C 0.64693 0.51581 0.29395
 N533 N 0.64012 0.49553 0.33760
 N534 N 0.65792 0.49916 0.38379
 C535 C 0.68330 0.52320 0.38817
 N536 N 0.69034 0.54350 0.34416
 N537 N 0.67248 0.53983 0.29769
 C538 C 0.62550 0.51260 0.24814
 N539 N 0.63135 0.53178 0.20203
 N540 N 0.61085 0.52960 0.16438
 C541 C 0.58383 0.50832 0.17206
 N542 N 0.57814 0.48911 0.21770
 N543 N 0.59859 0.49114 0.25482
 C544 C 0.86709 0.35356 0.29526
 N545 N 0.85332 0.36003 0.33910
 N546 N 0.83953 0.34223 0.38531
 C547 C 0.83883 0.31718 0.38947
 N548 N 0.85236 0.31049 0.34523
 N549 N 0.86618 0.32835 0.29878
 C550 C 0.88500 0.37502 0.24948
 N551 N 0.89901 0.36952 0.20419
 N552 N 0.91720 0.39008 0.16681
 C553 C 0.92211 0.41683 0.17389
 N554 N 0.90788 0.42218 0.21865
 N555 N 0.88962 0.40166 0.25557
   
