data_POSCAR
  _audit_creation_date              2014-09-24
  _audit_creation_method            'ToBaCCo'
  _symmetry_space_group_name_H-M    'P1'
  _symmetry_Int_Tables_number       1
  _symmetry_cell_setting            triclinic
  loop_
  _symmetry_equiv_pos_as_xyz
 x,y,z
_cell_length_a 27.2177
_cell_length_b 27.3664
_cell_length_c 27.0418
_cell_angle_alpha 90.160900
_cell_angle_beta 89.821700
_cell_angle_gamma 89.884400
loop_
  _atom_site_label
  _atom_site_type_symbol
  _atom_site_fract_x
  _atom_site_fract_y
  _atom_site_fract_z
C1 C 0.49681 0.98278 -0.47857
 C2 C 0.50022 0.99291 -0.52749
 C3 C 0.45592 0.99948 -0.55882
 C4 C 0.54866 0.99597 -0.55237
 C5 C 0.54026 0.97649 -0.44646
 C6 C 0.44937 0.98076 -0.45222
 C7 C 0.45013 0.97048 -0.60112
 C8 C 0.40870 0.97546 -0.63104
 C9 C 0.37158 1.01001 -0.61939
 C10 C 0.37790 1.03909 -0.57674
 C11 C 0.41983 1.03442 -0.54734
 C12 C 0.57847 0.95441 -0.55769
 C13 C 0.62331 0.95742 -0.58292
 C14 C 0.63908 1.00222 -0.60280
 C15 C 0.60971 1.04393 -0.59620
 C16 C 0.56451 1.04070 -0.57178
 C17 C 0.57119 1.01613 -0.43630
 C18 C 0.60518 1.01336 -0.39772
 C19 C 0.60866 0.97075 -0.36876
 C20 C 0.57898 0.93057 -0.38049
 C21 C 0.54513 0.93339 -0.41898
 C22 C 0.43672 1.01945 -0.42066
 C23 C 0.39701 1.01519 -0.38845
 C24 C 0.36975 0.97167 -0.38665
 C25 C 0.38191 0.93319 -0.41893
 C26 C 0.42130 0.93788 -0.45197
 H27 H 0.47755 0.94326 -0.61068
 H28 H 0.40623 0.95096 -0.66223
 H29 H 0.35069 1.06627 -0.56636
 H30 H 0.42417 1.05836 -0.51575
 H31 H 0.56668 0.91962 -0.54285
 H32 H 0.64568 0.92486 -0.58659
 H33 H 0.54189 1.07310 -0.56786
 H34 H 0.56695 1.05016 -0.45622
 H35 H 0.62650 1.04556 -0.38921
 H36 H 0.58086 0.89741 -0.35878
 H37 H 0.52113 0.90262 -0.42592
 H38 H 0.45886 1.05230 -0.41974
 H39 H 0.38950 1.04499 -0.36311
 H40 H 0.36167 0.89918 -0.41771
 H41 H 0.43145 0.90733 -0.47544
 H42 H 0.62123 1.07882 -0.61103
 C43 C -0.52711 1.49982 0.00296
 C44 C -0.47734 1.50364 0.00087
 C45 C -0.45103 1.55101 0.00534
 C46 C -0.44575 1.46006 -0.00664
 C47 C -0.55223 1.45177 -0.00111
 C48 C -0.56000 1.54293 0.00891
 C49 C -0.41558 1.56322 -0.03032
 C50 C -0.38710 1.60517 -0.02502
 C51 C -0.39323 1.63583 0.01631
 C52 C -0.42985 1.62468 0.05118
 C53 C -0.45817 1.58224 0.04610
 C54 C -0.44327 1.43670 -0.05283
 C55 C -0.40949 1.39884 -0.06084
 C56 C -0.37865 1.38311 -0.02249
 C57 C -0.38194 1.40606 0.02399
 C58 C -0.41488 1.44455 0.03163
 C59 C -0.54340 1.41424 0.03307
 C60 C -0.57130 1.37134 0.03174
 C61 C -0.60915 1.36578 -0.00299
 C62 C -0.61681 1.40276 -0.03815
 C63 C -0.58875 1.44536 -0.03703
 C64 C -0.59644 1.54208 0.04564
 C65 C -0.63138 1.57929 0.04880
 C66 C -0.63089 1.61857 0.01539
 C67 C -0.59344 1.61995 -0.02092
 C68 C -0.55861 1.58228 -0.02424
 H69 H -0.40963 1.53993 -0.06224
 H70 H -0.36031 1.61355 -0.05341
 H71 H -0.43543 1.64798 0.08317
 H72 H -0.48474 1.57321 0.07450
 H73 H -0.46639 1.44883 -0.08294
 H74 H -0.40721 1.38196 -0.09706
 H75 H -0.41592 1.46274 0.06725
 H76 H -0.51609 1.41879 0.06172
 H77 H -0.56456 1.34323 0.05903
 H78 H -0.64458 1.39901 -0.06644
 H79 H -0.59607 1.47385 -0.06377
 H80 H -0.59842 1.51192 0.07143
 H81 H -0.65942 1.57683 0.07724
 H82 H -0.59143 1.64874 -0.04805
 H83 H -0.53153 1.58309 -0.05364
 H84 H -0.35780 1.39555 0.05389
 C85 C 0.01051 0.52616 0.49751
 C86 C 0.00924 0.47653 0.49968
 C87 C 0.00928 0.44638 0.45380
 C88 C 0.00709 0.44969 0.54747
 C89 C 0.01376 0.55712 0.54228
 C90 C 0.00963 0.55289 0.44988
 C91 C -0.02859 0.41277 0.44578
 C92 C -0.02997 0.38490 0.40246
 C93 C 0.00703 0.38977 0.36599
 C94 C 0.04512 0.42346 0.37456
 C95 C 0.04653 0.45106 0.41814
 C96 C -0.02893 0.46025 0.58325
 C97 C -0.03261 0.43206 0.62621
 C98 C -0.00153 0.39159 0.63368
 C99 C 0.03522 0.38182 0.59797
 C100 C 0.03926 0.41048 0.55551
 C101 C 0.05838 0.56238 0.56737
 C102 C 0.06318 0.59768 0.60458
 C103 C 0.02307 0.62743 0.61829
 C104 C -0.02212 0.62071 0.59371
 C105 C -0.02634 0.58643 0.55567
 C106 C 0.04771 0.58548 0.43864
 C107 C 0.04677 0.61237 0.39497
 C108 C 0.00730 0.60764 0.36188
 C109 C -0.03023 0.57414 0.37251
 C110 C -0.02936 0.54728 0.41645
 H111 H -0.05771 0.40869 0.47286
 H112 H -0.06074 0.36052 0.39813
 H113 H 0.07431 0.42824 0.34767
 H114 H 0.07660 0.47625 0.42397
 H115 H -0.05522 0.48934 0.57736
 H116 H -0.06121 0.44089 0.65276
 H117 H 0.06745 0.40173 0.52851
 H118 H 0.08998 0.54062 0.55667
 H119 H 0.09851 0.60193 0.62244
 H120 H -0.05375 0.64344 0.60139
 H121 H -0.06071 0.58345 0.53579
 H122 H 0.07837 0.58995 0.46368
 H123 H 0.07716 0.63662 0.38715
 H124 H -0.06084 0.56970 0.34741
 H125 H -0.05933 0.52261 0.42470
 H126 H 0.06157 0.35263 0.60233
 O127 O -0.12999 0.99009 -0.06453
 O128 O 0.12159 1.00996 -0.07316
 O129 O -0.01332 1.06242 -0.12968
 O130 O 0.00267 0.93083 -0.12560
 O131 O 0.00842 0.87392 -0.06300
 O132 O -0.01774 1.12475 -0.07207
 O133 O 0.05947 1.00327 -0.13059
 O134 O -0.07092 0.99380 -0.12577
 Zr135 Zr -0.00446 0.99842 -0.08745
 O136 O 0.04553 0.96005 -0.04603
 O137 O -0.05218 1.04002 -0.04556
 C138 C -0.11590 0.99186 -0.11051
 C139 C 0.10509 1.00723 -0.11811
 C140 C -0.01749 1.10801 -0.11713
 C141 C 0.00655 0.88638 -0.10911
 H142 H 0.05432 1.07055 -0.07069
 O143 O 0.03599 1.04858 -0.04836
 H144 H -0.06283 0.92866 -0.06244
 O145 O -0.04315 0.95180 -0.04259
 O146 O 0.12551 1.01739 0.06020
 O147 O -0.12533 0.98807 0.06996
 O148 O 0.05122 1.13366 -0.00534
 O149 O 0.07698 0.88317 -0.00127
 O150 O -0.05559 0.87044 0.00740
 O151 O -0.08177 1.12035 -0.00476
 O152 O -0.00472 1.07181 0.12404
 O153 O 0.00726 0.94112 0.12828
 O154 O -0.01197 1.12985 0.06265
 O155 O 0.01053 0.87908 0.07038
 O156 O 0.11686 1.08007 -0.00585
 O157 O -0.13491 1.05491 0.00122
 O158 O -0.12142 0.92372 0.00664
 O159 O 0.13014 0.94859 -0.00667
 O160 O 0.06845 1.01437 0.12346
 O161 O -0.06442 0.99747 0.12848
 Zr162 Zr 0.08371 1.01032 -0.00455
 Zr163 Zr -0.08823 0.99330 0.00173
 Zr164 Zr -0.01114 1.08782 -0.00353
 Zr165 Zr 0.00659 0.91620 0.00201
 Zr166 Zr 0.00060 1.00510 0.08582
 O167 O -0.04060 0.95522 0.04669
 O168 O 0.03903 1.05214 0.04071
 C169 C 0.11306 1.01806 0.10644
 C170 C -0.10967 0.99016 0.11512
 C171 C 0.09785 1.12365 -0.00568
 C172 C 0.12053 0.90223 -0.00524
 C173 C -0.10222 0.88031 0.00883
 C174 C -0.12536 1.10118 -0.00222
 C175 C -0.00931 1.11633 0.10865
 C176 C 0.01005 0.89556 0.11547
 H177 H -0.07211 1.06197 0.06504
 O178 O -0.04955 1.04291 0.04370
 H179 H 0.07151 0.94585 0.06400
 O180 O 0.04788 0.96395 0.04322
 C181 C 0.33054 1.01632 0.35297
 C182 C 0.32192 0.99393 0.30716
 C183 C 0.27692 1.00207 0.27830
 N184 N 0.27683 0.99012 0.22966
 N185 N 0.23670 0.99646 0.20250
 C186 C 0.19482 1.01465 0.22291
 N187 N 0.19460 1.02615 0.27182
 N188 N 0.23504 1.02018 0.29902
 C189 C 0.15038 1.02063 0.19238
 C190 C 0.15449 1.02090 0.14101
 H191 H 0.34974 0.97203 0.28914
 H192 H 0.11475 1.02377 0.21005
 H193 H 0.30270 1.04170 0.36613
 H194 H 0.19088 1.02062 0.12460
 C195 C -0.31450 1.00637 0.36899
 C196 C -0.29802 0.96931 0.33755
 C197 C -0.25600 0.97593 0.30392
 N198 N -0.25160 0.94688 0.26346
 N199 N -0.21498 0.95342 0.23143
 C200 C -0.18103 0.98898 0.23888
 N201 N -0.18484 1.01749 0.27988
 N202 N -0.22183 1.01127 0.31171
 C203 C -0.14147 0.99721 0.20260
 C204 C -0.14716 0.98272 0.15353
 H205 H -0.31937 0.93616 0.33382
 H206 H -0.10901 1.01719 0.21377
 H207 H -0.29595 1.04136 0.36858
 H208 H -0.18172 0.96675 0.14207
 C209 C -0.36024 0.96797 -0.32406
 C210 C -0.32066 0.99889 -0.31531
 C211 C -0.29132 0.99597 -0.26992
 N212 N -0.24767 1.01947 -0.26781
 N213 N -0.21990 1.01655 -0.22756
 C214 C -0.23481 0.99035 -0.18766
 N215 N -0.27901 0.96756 -0.18929
 N216 N -0.30673 0.97021 -0.22981
 C217 C -0.20252 0.98554 -0.14434
 C218 C -0.15235 0.99307 -0.15020
 H219 H -0.30901 1.02458 -0.34328
 H220 H -0.21755 0.97449 -0.10898
 H221 H -0.36838 0.93969 -0.29729
 H222 H -0.13821 1.00044 -0.18696
 C223 C 0.33185 0.96456 -0.34827
 C224 C 0.30413 1.00343 -0.32999
 C225 C 0.27340 0.99926 -0.28566
 N226 N 0.23842 1.03343 -0.27663
 N227 N 0.21118 1.03129 -0.23579
 C228 C 0.21844 0.99535 -0.20206
 N229 N 0.25398 0.96152 -0.21065
 N230 N 0.28094 0.96338 -0.25185
 C231 C 0.18719 0.99237 -0.15784
 C232 C 0.13973 1.01100 -0.15927
 H233 H 0.30514 1.03840 -0.34860
 H234 H 0.19990 0.97251 -0.12571
 H235 H 0.32636 0.92823 -0.33345
 H236 H 0.12576 1.02564 -0.19370
 C237 C 0.35936 1.32178 -0.00128
 C238 C 0.31004 1.32305 -0.01527
 C239 C 0.27737 1.28046 -0.01173
 N240 N 0.22862 1.28608 -0.02035
 N241 N 0.19824 1.24811 -0.01746
 C242 C 0.21551 1.20298 -0.00596
 N243 N 0.26434 1.19727 0.00247
 N244 N 0.29473 1.23533 -0.00025
 C245 C 0.18234 1.16064 -0.00317
 C246 C 0.13145 1.16568 -0.00694
 H247 H 0.29382 1.35711 -0.02737
 H248 H 0.19838 1.12481 0.00224
 H249 H 0.37421 1.28874 0.01488
 H250 H 0.11549 1.20176 -0.01076
 C251 C 0.33105 0.65339 0.01882
 C252 C 0.32725 0.69592 -0.00951
 C253 C 0.28391 0.72814 -0.00591
 N254 N 0.28516 0.77347 -0.02605
 N255 N 0.24607 0.80277 -0.02338
 C256 C 0.20410 0.78770 -0.00080
 N257 N 0.20268 0.74221 0.01894
 N258 N 0.24188 0.71303 0.01655
 C259 C 0.16057 0.81964 0.00229
 C260 C 0.16323 0.86933 -0.00842
 H261 H 0.35646 0.70707 -0.03410
 H262 H 0.12618 0.80400 0.01474
 H263 H 0.30215 0.64678 0.04568
 H264 H 0.19836 0.88522 -0.01820
 C265 C -0.36156 0.67917 0.02350
 C266 C -0.31250 0.67922 0.00827
 C267 C -0.28006 0.72186 0.01289
 N268 N -0.23156 0.71687 0.00235
 N269 N -0.20154 0.75514 0.00461
 C270 C -0.21892 0.80001 0.01728
 N271 N -0.26749 0.80509 0.02780
 N272 N -0.29755 0.76669 0.02574
 C273 C -0.18619 0.84281 0.01816
 C274 C -0.13548 0.83811 0.01186
 H275 H -0.29659 0.64619 -0.00711
 H276 H -0.20239 0.87866 0.02336
 H277 H -0.37624 0.71041 0.04335
 H278 H -0.11936 0.80201 0.00860
 C279 C -0.34123 1.34508 -0.03233
 C280 C -0.32689 1.31159 0.00362
 C281 C -0.28615 1.27702 -0.00409
 N282 N -0.28217 1.23715 0.02531
 N283 N -0.24446 1.20645 0.02016
 C284 C -0.20895 1.21481 -0.01418
 N285 N -0.21269 1.25493 -0.04334
 N286 N -0.25073 1.28538 -0.03855
 C287 C -0.16634 1.18190 -0.01881
 C288 C -0.16805 1.13413 -0.00125
 H289 H -0.34662 1.31012 0.03843
 H290 H -0.13353 1.19510 -0.03717
 H291 H -0.32538 1.34270 -0.06906
 H292 H -0.20241 1.11986 0.01294
 C293 C 0.00768 1.36240 0.32167
 C294 C -0.02473 1.32428 0.31069
 C295 C -0.02067 1.29446 0.26551
 N296 N -0.04485 1.25130 0.26326
 N297 N -0.04078 1.22265 0.22365
 C298 C -0.01268 1.23618 0.18446
 N299 N 0.01085 1.27986 0.18618
 N300 N 0.00709 1.30844 0.22611
 C301 C -0.00665 1.20302 0.14180
 C302 C -0.01400 1.15307 0.14801
 H303 H -0.05217 1.31269 0.33700
 H304 H 0.00592 1.21725 0.10665
 H305 H 0.03637 1.37010 0.29491
 H306 H -0.02220 1.13942 0.18471
 C307 C -0.00878 1.36221 -0.32414
 C308 C 0.01225 1.31594 -0.31782
 C309 C 0.00212 1.28486 -0.27466
 N310 N 0.01345 1.23667 -0.27704
 N311 N 0.00520 1.20757 -0.23860
 C312 C -0.01446 1.22552 -0.19604
 N313 N -0.02547 1.27390 -0.19340
 N314 N -0.01756 1.30304 -0.23212
 C315 C -0.02192 1.19327 -0.15305
 C316 C -0.01954 1.14264 -0.15854
 H317 H 0.03406 1.29941 -0.34681
 H318 H -0.02783 1.20938 -0.11688
 H319 H -0.03461 1.37471 -0.29621
 H320 H -0.01605 1.12733 -0.19540
 C321 C 0.03002 0.66423 -0.34594
 C322 C -0.00832 0.68946 -0.32263
 C323 C 0.00049 0.73049 -0.28874
 N324 N -0.03201 0.73971 -0.25180
 N325 N -0.02544 0.77747 -0.22143
 C326 C 0.01339 0.80798 -0.22742
 N327 N 0.04556 0.79928 -0.26489
 N328 N 0.03939 0.76100 -0.29489
 C329 C 0.02020 0.84962 -0.19368
 C330 C 0.00567 0.84573 -0.14452
 H331 H -0.04586 0.67714 -0.32615
 H332 H 0.03791 0.88252 -0.20689
 H333 H 0.06723 0.67273 -0.33457
 H334 H -0.00662 0.81058 -0.13087
 C335 C 0.00438 0.63769 0.31664
 C336 C 0.02374 0.68477 0.31495
 C337 C 0.01988 0.71648 0.27148
 N338 N 0.03313 0.76401 0.27551
 N339 N 0.02984 0.79378 0.23688
 C340 C 0.01339 0.77711 0.19261
 N341 N 0.00050 0.72939 0.18837
 N342 N 0.00358 0.69957 0.22718
 C343 C 0.00932 0.81024 0.15008
 C344 C 0.01394 0.86058 0.15625
 H345 H 0.04048 0.70032 0.34765
 H346 H 0.00135 0.79506 0.11395
 H347 H -0.01645 0.62398 0.28549
 H348 H 0.01945 0.87544 0.19300
   
