data_POSCAR
  _audit_creation_date              2014-09-24
  _audit_creation_method            'ToBaCCo'
  _symmetry_space_group_name_H-M    'P1'
  _symmetry_Int_Tables_number       1
  _symmetry_cell_setting            triclinic
  loop_
  _symmetry_equiv_pos_as_xyz
 x,y,z
_cell_length_a 25.6665
_cell_length_b 25.6627
_cell_length_c 23.9468
_cell_angle_alpha 53.237500
_cell_angle_beta 53.194400
_cell_angle_gamma 99.126300
loop_
  _atom_site_label
  _atom_site_type_symbol
  _atom_site_fract_x
  _atom_site_fract_y
  _atom_site_fract_z
O1 O 0.46709 0.40070 0.14642
 O2 O 0.36381 0.43017 0.08632
 O3 O 0.43101 0.36485 0.08573
 O4 O 0.39943 0.46684 0.14713
 O5 O 0.56928 0.63593 -0.08726
 O6 O 0.60009 0.53417 -0.14909
 O7 O 0.53231 0.60045 -0.14758
 O8 O 0.63614 0.57014 -0.08829
 Cu9 Cu 0.39832 0.39865 0.13994
 Cu10 Cu 0.60145 0.60218 -0.14162
 C11 C 0.56980 0.48066 0.03867
 C12 C 0.42967 0.52002 -0.04019
 C13 C 0.52047 0.43153 -0.04149
 C14 C 0.47952 0.56938 0.03976
 O15 O -0.10064 0.48699 0.61847
 O16 O -0.07813 0.35069 0.61442
 O17 O -0.05699 0.40280 0.67214
 O18 O -0.12154 0.43481 0.56114
 O19 O 0.05450 0.59728 0.33040
 O20 O 0.11909 0.56491 0.44136
 O21 O 0.09799 0.51289 0.38408
 O22 O 0.07553 0.64903 0.38866
 Cu23 Cu -0.10691 0.40301 0.63938
 Cu24 Cu 0.10430 0.59683 0.36332
 C25 C -0.01714 0.59039 0.50624
 C26 C 0.01449 0.40944 0.49680
 C27 C 0.04244 0.47990 0.57511
 C28 C -0.04484 0.51996 0.42734
 O29 O 0.56637 0.12022 0.44060
 O30 O 0.59751 0.05653 0.32873
 O31 O 0.51397 0.10042 0.38277
 O32 O 0.64919 0.07611 0.38734
 O33 O 0.48666 -0.09989 0.61784
 O34 O 0.35159 -0.07587 0.61272
 O35 O 0.43523 -0.11956 0.55941
 O36 O 0.40333 -0.05547 0.67102
 Cu37 Cu 0.59760 0.10597 0.36199
 Cu38 Cu 0.40328 -0.10529 0.63815
 C39 C 0.48121 0.04362 0.57445
 C40 C 0.52029 -0.04274 0.42552
 C41 C 0.41059 0.01696 0.49516
 C42 C 0.59016 -0.01663 0.50501
 O43 O 0.38035 -0.06445 0.05831
 O44 O 0.44439 -0.09638 0.16986
 O45 O 0.40013 -0.01309 0.11681
 O46 O 0.42390 -0.14824 0.11172
 O47 O 0.60004 0.01417 -0.11869
 O48 O 0.57632 0.14926 -0.11351
 O49 O 0.62046 0.06602 -0.06093
 O50 O 0.55639 0.09803 -0.17249
 Cu51 Cu 0.39454 -0.09645 0.13709
 Cu52 Cu 0.60596 0.09779 -0.13932
 C53 C 0.45705 0.02063 -0.07551
 C54 C 0.54374 -0.01903 0.07289
 C55 C 0.48358 0.09029 0.00419
 C56 C 0.51663 -0.08923 -0.00605
 O57 O 0.01422 0.59999 0.88188
 O58 O 0.14970 0.57681 0.88729
 O59 O 0.09786 0.55571 0.82928
 O60 O 0.06531 0.62019 0.94049
 O61 O -0.09737 0.44426 1.17122
 O62 O -0.06460 0.37974 1.06007
 O63 O -0.01288 0.40085 1.11773
 O64 O -0.14823 0.42389 1.11209
 Cu65 Cu 0.09765 0.60575 0.86189
 Cu66 Cu -0.09661 0.39460 1.13811
 C67 C -0.08919 0.51658 0.99429
 C68 C 0.09056 0.48418 1.00528
 C69 C 0.02056 0.45635 0.92629
 C70 C -0.02008 0.54356 1.07430
 O71 O 0.09987 0.03248 0.35293
 O72 O 0.06908 0.13487 0.41447
 O73 O 0.13581 0.06886 0.41355
 O74 O 0.03351 0.10001 0.35265
 O75 O -0.13564 -0.06981 0.58707
 O76 O -0.03334 -0.10072 0.64813
 O77 O -0.10073 -0.03427 0.64886
 O78 O -0.06971 -0.13664 0.58748
 Cu79 Cu 0.10160 0.10106 0.35985
 Cu80 Cu -0.10187 -0.10239 0.64142
 C81 C 0.01990 -0.07016 0.46042
 C82 C -0.02078 0.06830 0.54155
 C83 C 0.06932 -0.02072 0.54052
 C84 C -0.06908 0.02004 0.46011
 C85 C -0.45431 0.36647 1.19257
 C86 C -0.38667 0.46944 1.05989
 C87 C -0.27550 0.56176 0.94511
 C88 C -0.23083 0.55103 0.95930
 C89 C -0.29864 0.44676 1.09168
 C90 C -0.41069 0.35516 1.20836
 C91 C -0.25285 0.43586 1.10421
 C92 C -0.13984 0.52796 0.98548
 C93 C -0.07377 0.63127 0.85490
 C94 C -0.11883 0.64278 0.84206
 H95 H -0.22326 0.64213 0.84411
 H96 H -0.46418 0.27455 1.31099
 H97 H -0.30473 0.35556 1.20519
 H98 H -0.06570 0.72328 0.73969
 H99 H -0.54063 0.29419 1.28353
 H100 H 0.01348 0.70351 0.76148
 C101 C 0.45679 0.63204 0.80474
 C102 C 0.38811 0.53037 0.93993
 C103 C 0.27557 0.43904 1.05680
 C104 C 0.23130 0.44971 1.04193
 C105 C 0.30024 0.55283 0.90733
 C106 C 0.41318 0.64321 0.78885
 C107 C 0.25473 0.56379 0.89426
 C108 C 0.14096 0.47271 1.01456
 C109 C 0.07386 0.37032 1.14722
 C110 C 0.11854 0.35887 1.16073
 H111 H 0.22172 0.35906 1.16004
 H112 H 0.46758 0.72292 0.68442
 H113 H 0.30750 0.64335 0.79149
 H114 H 0.06457 0.27914 1.26474
 H115 H 0.54406 0.70391 0.71158
 H116 H -0.01392 0.29881 1.24181
 C117 C -0.13093 -0.42723 0.64549
 C118 C -0.02779 -0.36134 0.51443
 C119 C 0.06414 -0.24776 0.39481
 C120 C 0.05338 -0.20188 0.40729
 C121 C -0.05056 -0.26973 0.54008
 C122 C -0.14217 -0.38187 0.65789
 C123 C -0.06117 -0.22498 0.55421
 C124 C 0.03108 -0.11361 0.43898
 C125 C 0.13380 -0.04589 0.30588
 C126 C 0.14491 -0.08960 0.29011
 H127 H 0.14450 -0.19526 0.29299
 H128 H -0.22247 -0.43500 0.76055
 H129 H -0.14142 -0.27740 0.65566
 H130 H 0.22535 -0.03600 0.18711
 H131 H -0.20357 -0.51474 0.74000
 H132 H 0.20604 0.04056 0.21457
 C133 C 0.12942 0.42398 0.35894
 C134 C 0.02574 0.35843 0.48859
 C135 C -0.06666 0.24568 0.60685
 C136 C -0.05564 0.19968 0.59471
 C137 C 0.04908 0.26695 0.46336
 C138 C 0.14106 0.37866 0.34661
 C139 C 0.06005 0.22211 0.44952
 C140 C -0.03244 0.11147 0.56328
 C141 C -0.13595 0.04430 0.69505
 C142 C -0.14750 0.08798 0.71070
 H143 H -0.14725 0.19423 0.70706
 H144 H 0.22186 0.43140 0.24494
 H145 H 0.14079 0.27381 0.34956
 H146 H -0.22848 0.03488 0.81255
 H147 H 0.20188 0.51103 0.26587
 H148 H -0.20841 -0.04165 0.78527
 C149 C 0.57122 0.17427 -0.49088
 C150 C 0.47760 0.06783 -0.38481
 C151 C 0.38677 -0.01615 -0.23722
 C152 C 0.39607 0.00193 -0.19705
 C153 C 0.49739 0.10438 -0.30512
 C154 C 0.58206 0.19186 -0.45158
 C155 C 0.51478 0.11477 -0.26504
 C156 C 0.43110 0.02404 -0.11780
 C157 C 0.32568 -0.07131 -0.01135
 C158 C 0.30868 -0.08316 -0.05044
 H159 H 0.31196 -0.09778 -0.15318
 H160 H 0.65884 0.27233 -0.53609
 H161 H 0.59569 0.19017 -0.34861
 H162 H 0.22905 -0.16096 0.03417
 H163 H 0.64043 0.24239 -0.60532
 H164 H 0.25834 -0.14055 0.10282
 C165 C 0.42942 -0.17405 0.48896
 C166 C 0.52413 -0.06842 0.38279
 C167 C 0.61487 0.01563 0.23541
 C168 C 0.60515 -0.00176 0.19495
 C169 C 0.50337 -0.10375 0.30291
 C170 C 0.41827 -0.19126 0.44957
 C171 C 0.48589 -0.11355 0.26256
 C172 C 0.56967 -0.02265 0.11528
 C173 C 0.67517 0.07243 0.00896
 C174 C 0.69246 0.08361 0.04827
 H175 H 0.68969 0.09679 0.15205
 H176 H 0.34098 -0.27123 0.53401
 H177 H 0.40484 -0.18861 0.34600
 H178 H 0.77228 0.16111 -0.03621
 H179 H 0.36014 -0.24152 0.60318
 H180 H 0.74242 0.14192 -0.10522
 C181 C 0.36600 -0.45522 0.19466
 C182 C 0.46848 -0.38728 0.06115
 C183 C 0.56073 -0.27572 -0.05468
 C184 C 0.55038 -0.23102 -0.04055
 C185 C 0.44658 -0.29910 0.09272
 C186 C 0.35508 -0.41149 0.21035
 C187 C 0.43602 -0.25321 0.10509
 C188 C 0.52795 -0.13989 -0.01466
 C189 C 0.63081 -0.07354 -0.14610
 C190 C 0.64202 -0.11870 -0.15880
 H191 H 0.64076 -0.22309 -0.15666
 H192 H 0.27484 -0.46513 0.31360
 H193 H 0.35606 -0.30524 0.20673
 H194 H 0.72212 -0.06543 -0.26181
 H195 H 0.29384 -0.54183 0.28630
 H196 H 0.70285 0.01399 -0.24029
 C197 C 0.63481 0.45578 -0.19550
 C198 C 0.53181 0.38826 -0.06291
 C199 C 0.43931 0.27713 0.05211
 C200 C 0.44977 0.23235 0.03815
 C201 C 0.55400 0.29999 -0.09418
 C202 C 0.64588 0.41199 -0.21105
 C203 C 0.56460 0.25401 -0.10638
 C204 C 0.47229 0.14104 0.01263
 C205 C 0.36904 0.07511 0.14317
 C206 C 0.35779 0.12037 0.15568
 H207 H 0.35899 0.22493 0.15328
 H208 H 0.72646 0.46526 -0.31353
 H209 H 0.64486 0.30568 -0.20724
 H210 H 0.27737 0.06743 0.25800
 H211 H 0.70723 0.54204 -0.28642
 H212 H 0.29671 -0.01217 0.23680
 C213 C -0.42422 -0.13178 0.64211
 C214 C -0.35893 -0.02802 0.51307
 C215 C -0.24647 0.06469 0.39525
 C216 C -0.20047 0.05402 0.40735
 C217 C -0.26747 -0.05071 0.53825
 C218 C -0.37885 -0.14311 0.65442
 C219 C -0.22270 -0.06127 0.55221
 C220 C -0.11230 0.03156 0.43867
 C221 C -0.04538 0.13511 0.30742
 C222 C -0.08911 0.14631 0.29186
 H223 H -0.19531 0.14531 0.29554
 H224 H -0.43132 -0.22393 0.75563
 H225 H -0.27430 -0.14190 0.65215
 H226 H -0.03634 0.22729 0.19050
 H227 H -0.51107 -0.20446 0.73473
 H228 H 0.04032 0.20782 0.21764
 C229 C 0.42611 0.13120 0.35550
 C230 C 0.35993 0.02823 0.48653
 C231 C 0.24680 -0.06393 0.60576
 C232 C 0.20094 -0.05349 0.59331
 C233 C 0.26883 0.05043 0.46050
 C234 C 0.38097 0.14229 0.34273
 C235 C 0.22413 0.06070 0.44633
 C236 C 0.11277 -0.03173 0.56173
 C237 C 0.04504 -0.13439 0.69475
 C238 C 0.08877 -0.14524 0.71045
 H239 H 0.19491 -0.14399 0.70704
 H240 H 0.43412 0.22248 0.24003
 H241 H 0.27656 0.14081 0.34476
 H242 H 0.03529 -0.22559 0.81332
 H243 H 0.51352 0.20339 0.26165
 H244 H -0.04139 -0.20673 0.78601
 C245 C -0.17620 0.42866 1.49107
 C246 C -0.07074 0.52369 1.38489
 C247 C 0.01314 0.61460 1.23758
 C248 C -0.00407 0.60487 1.19701
 C249 C -0.10583 0.50298 1.30483
 C250 C -0.19332 0.41760 1.45157
 C251 C -0.11530 0.48560 1.26422
 C252 C -0.02420 0.56948 1.11684
 C253 C 0.07063 0.67503 1.01070
 C254 C 0.08138 0.69230 1.05027
 H255 H 0.09417 0.68955 1.15427
 H256 H -0.27310 0.34013 1.53593
 H257 H -0.19018 0.40451 1.34750
 H258 H 0.15868 0.77220 0.96594
 H259 H -0.24350 0.35909 1.60528
 H260 H 0.14028 0.74233 0.89644
 C261 C 0.17438 0.57105 0.51074
 C262 C 0.06865 0.47611 0.61725
 C263 C -0.01499 0.38523 0.76446
 C264 C 0.00283 0.39491 0.80459
 C265 C 0.10486 0.49678 0.69647
 C266 C 0.19203 0.58211 0.54983
 C267 C 0.11494 0.51419 0.73669
 C268 C 0.02425 0.43033 0.88398
 C269 C -0.07078 0.32475 0.99037
 C270 C -0.08221 0.30748 0.95120
 H271 H -0.09621 0.31031 0.84800
 H272 H 0.27202 0.65952 0.46524
 H273 H 0.18994 0.59530 0.65321
 H274 H -0.15972 0.22760 1.03577
 H275 H 0.24156 0.64053 0.39656
 H276 H -0.14010 0.25744 1.10455
   
