data_POSCAR
  _audit_creation_date              2014-09-24
  _audit_creation_method            'ToBaCCo'
  _symmetry_space_group_name_H-M    'P1'
  _symmetry_Int_Tables_number       1
  _symmetry_cell_setting            triclinic
  loop_
  _symmetry_equiv_pos_as_xyz
 x,y,z
_cell_length_a 31.9269
_cell_length_b 31.9341
_cell_length_c 31.7563
_cell_angle_alpha 94.640800
_cell_angle_beta 89.997200
_cell_angle_gamma 93.566500
loop_
  _atom_site_label
  _atom_site_type_symbol
  _atom_site_fract_x
  _atom_site_fract_y
  _atom_site_fract_z
O1 O 0.56957 0.45175 0.04991
 O2 O 0.45774 0.46867 0.06246
 O3 O 0.50204 0.39776 0.06127
 O4 O 0.52359 0.51125 0.05127
 O5 O 0.50834 0.50050 -0.01680
 O6 O 0.49843 0.38597 -0.00803
 O7 O 0.44610 0.44540 -0.00402
 O8 O 0.56017 0.44032 -0.01906
 Cu9 Cu 0.51354 0.45598 0.06335
 Cu10 Cu 0.50214 0.44181 -0.01894
 C11 C 0.58436 0.44550 0.01296
 C12 C 0.43272 0.46053 0.03136
 C13 C 0.49795 0.37235 0.02838
 C14 C 0.51874 0.52530 0.01542
 O15 O -0.01234 0.62087 0.53200
 O16 O -0.02795 0.50580 0.53368
 O17 O -0.01191 0.56697 0.59002
 O18 O -0.02779 0.55855 0.47476
 O19 O 0.03968 0.54937 0.46527
 O20 O 0.05642 0.56417 0.58064
 O21 O 0.04025 0.50006 0.52512
 O22 O 0.05478 0.61452 0.51865
 Cu23 Cu -0.02679 0.56388 0.53354
 Cu24 Cu 0.05475 0.55677 0.52182
 C25 C 0.02370 0.63740 0.52384
 C26 C 0.00358 0.48349 0.53002
 C27 C 0.02490 0.56652 0.60500
 C28 C 0.00307 0.55173 0.45040
 O29 O 0.49569 0.03972 0.53685
 O30 O 0.48920 0.04046 0.42171
 O31 O 0.43425 0.03881 0.48212
 O32 O 0.55013 0.03806 0.47647
 O33 O 0.54459 -0.03116 0.47727
 O34 O 0.43003 -0.03038 0.47006
 O35 O 0.49036 -0.02882 0.41541
 O36 O 0.48359 -0.02921 0.53141
 Cu37 Cu 0.49279 0.04628 0.47979
 Cu38 Cu 0.48684 -0.03690 0.47279
 C39 C 0.48991 0.00532 0.55408
 C40 C 0.48926 0.00603 0.39882
 C41 C 0.41241 0.00414 0.47583
 C42 C 0.56696 0.00313 0.47777
 C43 C 0.45127 0.04308 -0.09262
 C44 C 0.44488 0.01150 -0.12440
 C45 C 0.46386 -0.02318 -0.11137
 N46 N 0.48103 -0.01407 -0.07260
 C47 C 0.47357 0.02642 -0.06118
 C48 C 0.46967 -0.06087 -0.13655
 C49 C 0.48170 -0.09734 -0.11842
 C50 C 0.49843 -0.13184 -0.14016
 C51 C 0.50196 -0.16169 -0.11165
 C52 C 0.48770 -0.14437 -0.07327
 N53 N 0.47564 -0.10513 -0.07759
 C54 C 0.48318 -0.16558 -0.03611
 C55 C 0.48038 -0.14346 0.00400
 C56 C 0.46840 -0.16114 0.04092
 C57 C 0.47380 -0.12969 0.07293
 C58 C 0.48899 -0.09395 0.05443
 N59 N 0.49281 -0.10240 0.01229
 C60 C 0.50240 -0.05521 0.07639
 C61 C 0.50987 -0.01808 0.05545
 C62 C 0.53293 0.01785 0.07169
 C63 C 0.52970 0.04759 0.04295
 C64 C 0.50454 0.02902 0.01014
 N65 N 0.49275 -0.01103 0.01796
 C66 C 0.49091 0.04942 -0.02483
 H67 H 0.44129 0.07483 -0.09287
 H68 H 0.42893 0.01409 -0.15406
 H69 H 0.47048 -0.03090 0.00106
 H70 H 0.50694 -0.13538 -0.17318
 H71 H 0.51352 -0.19266 -0.11843
 H72 H 0.45724 -0.19335 0.04446
 H73 H 0.46756 -0.13291 0.10604
 H74 H 0.54402 0.07931 0.04609
 H75 H 0.45963 -0.08668 -0.05513
 H76 H 0.55013 0.02224 0.10124
 C77 C -0.06890 0.53708 0.93536
 C78 C -0.09646 0.53398 0.96828
 C79 C -0.07686 0.51247 0.99808
 N80 N -0.03847 0.50215 0.98447
 C81 C -0.03354 0.51704 0.94605
 C82 C -0.09554 0.49985 1.03564
 C83 C -0.07231 0.48473 1.06848
 C84 C -0.08971 0.46479 1.10219
 C85 C -0.05725 0.45898 1.12909
 C86 C -0.02093 0.47505 1.11080
 N87 N -0.03028 0.49061 1.07386
 C88 C 0.01919 0.47761 1.12974
 C89 C 0.05652 0.48052 1.10582
 C90 C 0.09669 0.48356 1.12256
 C91 C 0.12362 0.48123 1.08904
 C92 C 0.09925 0.47873 1.05255
 N93 N 0.05815 0.47761 1.06305
 C94 C 0.11481 0.47482 1.01055
 C95 C 0.08964 0.47867 0.97423
 C96 C 0.10209 0.46965 0.93270
 C97 C 0.06985 0.47881 0.90709
 C98 C 0.03872 0.49426 0.93328
 N99 N 0.05115 0.49437 0.97415
 C100 C 0.00074 0.50924 0.91896
 H101 H -0.07453 0.55185 0.90657
 H102 H -0.12747 0.54590 0.96996
 H103 H 0.03607 0.50822 1.00017
 H104 H -0.12247 0.45593 1.10730
 H105 H -0.06005 0.44472 1.15882
 H106 H 0.10599 0.48628 1.15545
 H107 H 0.15728 0.48109 1.09203
 H108 H 0.06973 0.47478 0.87293
 H109 H -0.00992 0.50894 1.05629
 H110 H 0.13151 0.45820 0.92137
 C111 C 0.08758 -0.00734 0.54166
 C112 C 0.05523 -0.03779 0.54128
 C113 C 0.02370 -0.02465 0.51630
 N114 N 0.03548 0.01301 0.50200
 C115 C 0.07443 0.02365 0.51751
 C116 C -0.01380 -0.04846 0.50410
 C117 C -0.04699 -0.03056 0.48369
 C118 C -0.07910 -0.05319 0.46082
 C119 C -0.10681 -0.02458 0.44978
 C120 C -0.09085 0.01476 0.46615
 N121 N -0.05421 0.01087 0.48651
 C122 C -0.11166 0.05251 0.46501
 C123 C -0.09027 0.09257 0.47218
 C124 C -0.10922 0.13052 0.47762
 C125 C -0.07751 0.16163 0.48008
 C126 C -0.04016 0.14168 0.47684
 N127 N -0.04807 0.09950 0.47165
 C128 C 0.00022 0.16225 0.47530
 C129 C 0.03755 0.14073 0.47659
 C130 C 0.07714 0.15698 0.46602
 C131 C 0.10499 0.12763 0.47457
 C132 C 0.08190 0.09463 0.49109
 N133 N 0.04081 0.10283 0.49209
 C134 C 0.09923 0.05964 0.50765
 H135 H 0.11734 -0.00788 0.55787
 H136 H 0.05520 -0.06644 0.55727
 H137 H 0.01711 0.08605 0.50721
 H138 H -0.08247 -0.08689 0.45325
 H139 H -0.13569 -0.03197 0.43214
 H140 H -0.14242 0.13544 0.47931
 H141 H -0.08171 0.19508 0.48343
 H142 H 0.13858 0.13080 0.46993
 H143 H -0.03793 0.03432 0.50580
 H144 H 0.08551 0.18701 0.45388
 C145 C -0.34288 0.46909 1.03642
 C146 C -0.29936 0.47123 1.03014
 C147 C -0.28239 0.44870 0.99462
 C148 C -0.30937 0.42507 0.96560
 C149 C -0.35278 0.42393 0.97159
 C150 C -0.36982 0.44567 1.00712
 C151 C -0.23883 0.45036 0.98857
 C152 C -0.21209 0.47483 1.01719
 C153 C -0.22917 0.49816 1.05217
 C154 C -0.27266 0.49596 1.05857
 C155 C -0.20240 0.52319 1.08029
 C156 C -0.15904 0.52458 1.07425
 C157 C -0.14179 0.50072 1.04024
 C158 C -0.16848 0.47616 1.01158
 H159 H -0.35587 0.48652 1.06357
 H160 H -0.29694 0.40778 0.93811
 H161 H -0.37306 0.40581 0.94857
 H162 H -0.22576 0.43275 0.96156
 H163 H -0.28571 0.51357 1.08559
 H164 H -0.21496 0.54144 1.10710
 H165 H -0.13877 0.54375 1.09649
 H166 H -0.15512 0.45765 0.98536
 C167 C 0.35955 0.44844 1.00899
 C168 C 0.31752 0.45871 1.01258
 C169 C 0.30699 0.49350 1.04008
 C170 C 0.33785 0.51472 1.06656
 C171 C 0.37892 0.50198 1.06540
 C172 C 0.39058 0.46983 1.03554
 C173 C 0.26561 0.50590 1.04130
 C174 C 0.23392 0.48152 1.01849
 C175 C 0.24375 0.44414 0.99459
 C176 C 0.28573 0.43404 0.99014
 C177 C 0.21125 0.41690 0.97668
 C178 C 0.16947 0.42637 0.98295
 C179 C 0.15954 0.46479 1.00422
 C180 C 0.19219 0.49281 1.02084
 H181 H 0.36777 0.42270 0.98674
 H182 H 0.33013 0.54083 1.08852
 H183 H 0.40209 0.51906 1.08626
 H184 H 0.25780 0.53347 1.06127
 H185 H 0.29346 0.40618 0.97056
 H186 H 0.21808 0.38760 0.95914
 H187 H 0.14473 0.40394 0.97065
 H188 H 0.18481 0.52243 1.03747
 C189 C -0.00398 -0.29253 0.52913
 C190 C 0.00059 -0.24948 0.52273
 C191 C 0.03816 -0.23275 0.50533
 C192 C 0.07120 -0.25891 0.49639
 C193 C 0.06687 -0.30146 0.50387
 C194 C 0.02897 -0.31910 0.51947
 C195 C 0.04213 -0.19018 0.49712
 C196 C 0.00950 -0.16377 0.50736
 C197 C -0.02734 -0.18006 0.52654
 C198 C -0.03184 -0.22293 0.53350
 C199 C -0.05900 -0.15309 0.53862
 C200 C -0.05420 -0.11038 0.53186
 C201 C -0.01824 -0.09404 0.51178
 C202 C 0.01330 -0.12118 0.49914
 H203 H -0.03324 -0.30518 0.54177
 H204 H 0.10038 -0.24650 0.48345
 H205 H 0.09296 -0.32078 0.49613
 H206 H 0.07073 -0.17753 0.48313
 H207 H -0.06042 -0.23555 0.54753
 H208 H -0.08728 -0.16493 0.55370
 H209 H -0.07871 -0.08998 0.54216
 H210 H 0.04100 -0.10897 0.48330
 C211 C 0.01052 0.41080 0.49783
 C212 C 0.00549 0.36703 0.49958
 C213 C -0.01105 0.35026 0.53647
 C214 C -0.02390 0.37755 0.57020
 C215 C -0.02005 0.42107 0.56758
 C216 C -0.00227 0.43782 0.53175
 C217 C -0.01455 0.30656 0.53900
 C218 C -0.00301 0.27938 0.50464
 C219 C 0.01163 0.29609 0.46703
 C220 C 0.01643 0.33982 0.46498
 C221 C 0.02108 0.26870 0.43201
 C222 C 0.01645 0.22517 0.43438
 C223 C 0.00361 0.20844 0.47215
 C224 C -0.00615 0.23567 0.50717
 H225 H 0.02380 0.42394 0.46997
 H226 H -0.03697 0.36524 0.59852
 H227 H -0.03000 0.44177 0.59392
 H228 H -0.02653 0.29371 0.56755
 H229 H 0.02834 0.35266 0.43641
 H230 H 0.03184 0.28093 0.40279
 H231 H 0.02353 0.20442 0.40696
 H232 H -0.01653 0.22265 0.53619
 C233 C 0.47610 -0.02989 -0.38129
 C234 C 0.47753 -0.02942 -0.33707
 C235 C 0.49641 0.00599 -0.31306
 C236 C 0.51125 0.04125 -0.33334
 C237 C 0.50781 0.04141 -0.37710
 C238 C 0.49110 0.00558 -0.40175
 C239 C 0.49984 0.00580 -0.26912
 C240 C 0.48268 -0.02845 -0.24861
 C241 C 0.46139 -0.06273 -0.27223
 C242 C 0.45984 -0.06350 -0.31644
 C243 C 0.44176 -0.09546 -0.25112
 C244 C 0.44338 -0.09427 -0.20706
 C245 C 0.46609 -0.06124 -0.18344
 C246 C 0.48601 -0.02862 -0.20467
 H247 H 0.46229 -0.05748 -0.39958
 H248 H 0.52529 0.06885 -0.31533
 H249 H 0.51963 0.06927 -0.39170
 H250 H 0.51519 0.03260 -0.25084
 H251 H 0.44435 -0.09024 -0.33469
 H252 H 0.42478 -0.12171 -0.26864
 H253 H 0.42730 -0.11945 -0.19134
 H254 H 0.50392 -0.00315 -0.18687
 C255 C 0.50581 -0.02392 0.32594
 C256 C 0.50290 -0.02336 0.28187
 C257 C 0.47979 0.00748 0.26434
 C258 C 0.46130 0.03809 0.29108
 C259 C 0.46526 0.03794 0.33481
 C260 C 0.48700 0.00670 0.35257
 C261 C 0.47542 0.00721 0.22042
 C262 C 0.49460 -0.02294 0.19370
 C263 C 0.51909 -0.05277 0.21109
 C264 C 0.52274 -0.05306 0.25509
 C265 C 0.53937 -0.08191 0.18412
 C266 C 0.53485 -0.08198 0.14036
 C267 C 0.50928 -0.05352 0.12288
 C268 C 0.48952 -0.02383 0.14978
 H269 H 0.52304 -0.04780 0.33953
 H270 H 0.44373 0.06210 0.27819
 H271 H 0.45045 0.06175 0.35487
 H272 H 0.45714 0.03046 0.20704
 H273 H 0.54100 -0.07633 0.26845
 H274 H 0.55864 -0.10470 0.19684
 H275 H 0.55085 -0.10469 0.12005
 H276 H 0.46985 -0.00172 0.13643
 C277 C 0.50072 -0.40925 -0.01695
 C278 C 0.50398 -0.36524 -0.01765
 C279 C 0.53278 -0.34094 0.00969
 C280 C 0.55760 -0.36098 0.03734
 C281 C 0.55325 -0.40459 0.03871
 C282 C 0.52477 -0.42902 0.01176
 C283 C 0.53563 -0.29698 0.00973
 C284 C 0.50915 -0.27681 -0.01626
 C285 C 0.48004 -0.30097 -0.04331
 C286 C 0.47805 -0.34507 -0.04428
 C287 C 0.45284 -0.28053 -0.06836
 C288 C 0.45397 -0.23659 -0.06606
 C289 C 0.48273 -0.21237 -0.03921
 C290 C 0.51071 -0.23275 -0.01489
 H291 H 0.47832 -0.42794 -0.03746
 H292 H 0.57976 -0.34286 0.05853
 H293 H 0.57217 -0.41932 0.06094
 H294 H 0.55770 -0.27841 0.03074
 H295 H 0.45570 -0.36360 -0.06499
 H296 H 0.43026 -0.29850 -0.08919
 H297 H 0.43213 -0.22138 -0.08499
 H298 H 0.53320 -0.21417 0.00562
 C299 C 0.50609 0.29859 -0.00106
 C300 C 0.50119 0.25495 0.00154
 C301 C 0.48186 0.23872 0.03736
 C302 C 0.46894 0.26666 0.07056
 C303 C 0.47480 0.31021 0.06810
 C304 C 0.49290 0.32649 0.03207
 C305 C 0.47581 0.19494 0.03931
 C306 C 0.48963 0.16728 0.00625
 C307 C 0.51020 0.18376 -0.02886
 C308 C 0.51548 0.22739 -0.03116
 C309 C 0.52522 0.15632 -0.06122
 C310 C 0.51954 0.11290 -0.05921
 C311 C 0.49800 0.09599 -0.02526
 C312 C 0.48326 0.12342 0.00759
 H313 H 0.52063 0.31090 -0.02875
 H314 H 0.45430 0.25484 0.09839
 H315 H 0.46443 0.33119 0.09400
 H316 H 0.46051 0.18243 0.06652
 H317 H 0.53079 0.23990 -0.05838
 H318 H 0.54142 0.16844 -0.08810
 H319 H 0.53169 0.09231 -0.08449
 H320 H 0.46673 0.11057 0.03393
 C321 C -0.36002 0.02726 0.45789
 C322 C -0.31626 0.02617 0.46242
 C323 C -0.29973 0.00088 0.49224
 C324 C -0.32704 -0.02416 0.51568
 C325 C -0.37035 -0.02390 0.50999
 C326 C -0.38716 0.00216 0.48162
 C327 C -0.25621 0.00103 0.49825
 C328 C -0.22883 0.02526 0.47408
 C329 C -0.24516 0.04900 0.44286
 C330 C -0.28879 0.04974 0.43758
 C331 C -0.21749 0.07174 0.41756
 C332 C -0.17414 0.07172 0.42377
 C333 C -0.15770 0.04988 0.45609
 C334 C -0.18532 0.02629 0.48082
 H335 H -0.37295 0.04703 0.43558
 H336 H -0.31491 -0.04394 0.53841
 H337 H -0.39089 -0.04336 0.52859
 H338 H -0.24367 -0.01777 0.52169
 H339 H -0.30133 0.06857 0.41416
 H340 H -0.22937 0.08965 0.39309
 H341 H -0.15333 0.08948 0.40388
 H342 H -0.17284 0.00917 0.50564
 C343 C 0.34429 0.03530 0.49655
 C344 C 0.30014 0.03354 0.49581
 C345 C 0.27773 0.00002 0.47199
 C346 C 0.29963 -0.03149 0.45008
 C347 C 0.34335 -0.02996 0.45169
 C348 C 0.36610 0.00344 0.47465
 C349 C 0.23378 -0.00157 0.47041
 C350 C 0.21176 0.02962 0.49275
 C351 C 0.23395 0.06264 0.51742
 C352 C 0.27802 0.06453 0.51861
 C353 C 0.21159 0.09335 0.54025
 C354 C 0.16777 0.09178 0.53805
 C355 C 0.14562 0.05975 0.51267
 C356 C 0.16782 0.02850 0.49045
 H357 H 0.36159 0.06095 0.51470
 H358 H 0.28295 -0.05742 0.43180
 H359 H 0.35947 -0.05479 0.43446
 H360 H 0.21673 -0.02708 0.45177
 H361 H 0.29506 0.09007 0.53720
 H362 H 0.22801 0.11875 0.55953
 H363 H 0.15106 0.11598 0.55557
 H364 H 0.15081 0.00374 0.47080
 C365 C 0.01798 0.51731 1.37899
 C366 C 0.01263 0.51363 1.33490
 C367 C -0.01342 0.54109 1.31589
 C368 C -0.03511 0.57039 1.34137
 C369 C -0.03056 0.57296 1.38528
 C370 C -0.00347 0.54705 1.40430
 C371 C -0.01724 0.53898 1.27176
 C372 C 0.00385 0.50911 1.24640
 C373 C 0.02826 0.48028 1.26543
 C374 C 0.03289 0.48303 1.30956
 C375 C 0.04774 0.44929 1.23991
 C376 C 0.04388 0.44748 1.19592
 C377 C 0.02155 0.47739 1.17667
 C378 C 0.00107 0.50773 1.20222
 H379 H 0.03847 0.49683 1.39369
 H380 H -0.05548 0.59141 1.32735
 H381 H -0.04730 0.59606 1.40437
 H382 H -0.03655 0.56061 1.25716
 H383 H 0.05224 0.46143 1.32414
 H384 H 0.06602 0.42651 1.25396
 H385 H 0.05896 0.42318 1.17679
 H386 H -0.01673 0.53052 1.18753
 C387 C 0.00027 0.54601 0.67518
 C388 C 0.00588 0.54427 0.71879
 C389 C 0.04159 0.56520 0.73914
 C390 C 0.07164 0.58660 0.71509
 C391 C 0.06646 0.58698 0.67133
 C392 C 0.03058 0.56706 0.65116
 C393 C 0.04691 0.56380 0.78295
 C394 C 0.01768 0.54054 0.80633
 C395 C -0.01726 0.51855 0.78550
 C396 C -0.02329 0.52113 0.74210
 C397 C -0.04540 0.49377 0.80829
 C398 C -0.03902 0.49059 0.85132
 C399 C -0.00514 0.51309 0.87277
 C400 C 0.02308 0.53828 0.85005
 H401 H -0.02711 0.52986 0.65963
 H402 H 0.09937 0.60256 0.73003
 H403 H 0.09024 0.60322 0.65327
 H404 H 0.07408 0.58017 0.79867
 H405 H -0.05033 0.50454 0.72632
 H406 H -0.07206 0.47639 0.79272
 H407 H -0.06073 0.47054 0.86808
 H408 H 0.04943 0.55552 0.86635
   
