data_POSCAR
  _audit_creation_date              2014-09-24
  _audit_creation_method            'ToBaCCo'
  _symmetry_space_group_name_H-M    'P1'
  _symmetry_Int_Tables_number       1
  _symmetry_cell_setting            triclinic
  loop_
  _symmetry_equiv_pos_as_xyz
 x,y,z
_cell_length_a 24.6695
_cell_length_b 24.8161
_cell_length_c 25.5415
_cell_angle_alpha 89.912600
_cell_angle_beta 90.061200
_cell_angle_gamma 90.306200
loop_
  _atom_site_label
  _atom_site_type_symbol
  _atom_site_fract_x
  _atom_site_fract_y
  _atom_site_fract_z
N1 N 0.19935 1.18889 0.21203
 N2 N 0.78932 0.78754 0.20547
 N3 N 0.80776 1.22455 -0.20979
 N4 N 0.21443 0.81061 -0.20261
 C5 C 0.58173 1.11154 -0.01979
 H6 H 0.57442 1.11961 0.02118
 C7 C 0.61685 1.14484 -0.04814
 H8 H 0.63459 1.17945 -0.02882
 C9 C 0.56852 1.05567 -0.09374
 H10 H 0.55109 1.01974 -0.11086
 C11 C 0.60445 1.08703 -0.12316
 H12 H 0.61387 1.07438 -0.16259
 N13 N 0.55727 1.06870 -0.04322
 C14 C 0.43005 1.02486 0.06801
 H15 H 0.43577 0.98175 0.06569
 C16 C 0.38792 1.04548 0.09801
 H17 H 0.36141 1.01816 0.11914
 C18 C 0.45642 1.11285 0.04174
 H19 H 0.48156 1.13887 0.01802
 C20 C 0.41545 1.13536 0.07254
 H21 H 0.41000 1.17863 0.07321
 Zn22 Zn 0.51286 1.02177 -0.00305
 N23 N 0.46312 1.05840 0.04042
 C24 C 0.56641 0.98764 0.08981
 N25 N 0.55966 0.97872 0.03763
 C26 C 0.58914 0.94096 0.01199
 C27 C 0.62639 0.90940 0.03910
 C28 C 0.60429 0.95772 0.11830
 C29 C 0.44302 1.00363 -0.08701
 C30 C 0.40668 0.97524 -0.11849
 C31 C 0.42354 0.89562 -0.06662
 C32 C 0.46068 0.92534 -0.03683
 N33 N 0.46967 0.97835 -0.04753
 H34 H 0.54327 1.01871 0.10908
 H35 H 0.58375 0.93556 -0.02972
 H36 H 0.64958 0.87951 0.01804
 H37 H 0.60967 0.96535 0.15972
 H38 H 0.44971 1.04619 -0.09374
 H39 H 0.38691 0.99630 -0.15027
 H40 H 0.41561 0.85416 -0.05587
 H41 H 0.48063 0.90659 -0.00386
 C42 C 0.38033 1.10127 0.10041
 C43 C 0.62915 1.13264 -0.10059
 C44 C 0.39562 0.92059 -0.10809
 C45 C 0.63465 0.91795 0.09283
 C46 C -0.02522 0.54918 1.10048
 H47 H 0.00169 0.52311 1.12218
 C48 C -0.05895 0.58498 1.12724
 H49 H -0.05728 0.58620 1.16955
 C50 C -0.05748 0.58131 1.01886
 H51 H -0.05617 0.57993 0.97655
 C52 C -0.09217 0.61706 1.04387
 H53 H -0.11808 0.64238 1.02020
 N54 N -0.02514 0.54816 1.04724
 C55 C 0.11546 0.46008 1.06189
 H56 H 0.13968 0.49124 1.04373
 C57 C 0.14043 0.42183 1.09412
 H58 H 0.18349 0.42530 1.10143
 C59 C 0.03019 0.41790 1.07453
 H60 H -0.01282 0.41641 1.06631
 C61 C 0.05360 0.37809 1.10549
 H62 H 0.02784 0.34589 1.11968
 Zn63 Zn 0.02234 0.50439 1.00837
 N64 N 0.06110 0.45764 1.05317
 C65 C 0.10291 0.58484 0.99524
 N66 N 0.06750 0.55198 0.96963
 C67 C 0.05845 0.55774 0.91742
 C68 C 0.08508 0.59787 0.88902
 C69 C 0.13131 0.62500 0.96808
 C70 C -0.07254 0.45446 0.96772
 C71 C -0.10160 0.41925 0.93549
 C72 C -0.01782 0.39552 0.89273
 C73 C 0.00975 0.43017 0.92662
 N74 N -0.01792 0.45959 0.96247
 H75 H 0.10794 0.58100 1.03714
 H76 H 0.02829 0.53320 0.89804
 H77 H 0.07499 0.60278 0.84807
 H78 H 0.15954 0.65007 0.98955
 H79 H -0.09354 0.47658 0.99786
 H80 H -0.14474 0.41485 0.94176
 H81 H 0.00510 0.37392 0.86349
 H82 H 0.05336 0.43414 0.92403
 C83 C 0.10955 0.37963 1.11616
 C84 C -0.09298 0.61980 1.09885
 C85 C -0.07438 0.38938 0.89690
 C86 C 0.12165 0.63293 0.91428
 C87 C 1.08034 -0.04368 0.55103
 H88 H 1.09836 -0.01459 0.52469
 C89 C 1.11229 -0.06747 0.58972
 H90 H 1.15476 -0.05656 0.59219
 C91 C 1.00230 -0.08907 0.58279
 H92 H 0.95905 -0.09615 0.58053
 C93 C 1.03280 -0.11414 0.62182
 H94 H 1.01266 -0.14155 0.64852
 N95 N 1.02629 -0.05440 0.54859
 C96 C 1.01795 0.07879 0.44780
 H97 H 0.98887 0.10111 0.47061
 C98 C 1.04931 0.10562 0.41028
 H99 H 1.04344 0.14843 0.40469
 C100 C 1.05746 -0.00453 0.42472
 H101 H 1.06006 -0.04765 0.43044
 C102 C 1.08980 0.02065 0.38713
 H103 H 1.11729 -0.00404 0.36512
 Zn104 Zn 0.98077 -0.01445 0.50357
 N105 N 1.02295 0.02470 0.45460
 C106 C 0.97237 0.06999 0.57302
 N107 N 0.94186 0.03241 0.54775
 C108 C 0.88831 0.02560 0.55888
 C109 C 0.86361 0.05739 0.59724
 C110 C 0.94921 0.10318 0.61063
 C111 C 0.94627 -0.11374 0.46036
 C112 C 0.91751 -0.14625 0.42533
 C113 C 0.86416 -0.06890 0.40058
 C114 C 0.89443 -0.03769 0.43562
 N115 N 0.93463 -0.06041 0.46453
 H116 H 1.01524 0.07331 0.56464
 H117 H 0.86524 -0.00572 0.53952
 H118 H 0.82123 0.05107 0.60648
 H119 H 0.97453 0.13228 0.63082
 H120 H 0.97954 -0.13064 0.48238
 H121 H 0.92826 -0.18831 0.42141
 H122 H 0.83349 -0.04977 0.37670
 H123 H 0.88709 0.00514 0.43856
 C124 C 1.08617 0.07663 0.37924
 C125 C 1.08841 -0.10239 0.62659
 C126 C 0.87633 -0.12373 0.39440
 C127 C 0.89438 0.09658 0.62376
 C128 C 0.21206 0.27790 1.16672
 C129 C 0.17977 0.24123 1.19515
 C130 C 0.12623 0.25784 1.20631
 C131 C 0.10475 0.30520 1.18435
 C132 C 0.13532 0.33684 1.14888
 C133 C 0.19043 0.32410 1.14446
 C134 C 0.22729 0.32177 1.09831
 C135 C 0.25150 0.27144 1.12270
 H136 H 0.09934 0.23272 1.22930
 H137 H 0.06312 0.31496 1.19326
 H138 H 0.25626 0.35621 1.09718
 H139 H 0.20519 0.31383 1.06112
 H140 H 0.29413 0.27742 1.13568
 H141 H 0.24442 0.23493 1.09869
 C142 C -0.17179 0.74735 1.12550
 C143 C -0.18687 0.74254 1.17803
 C144 C -0.17833 0.69225 1.20247
 C145 C -0.14941 0.65117 1.17651
 C146 C -0.12848 0.65958 1.12554
 C147 C -0.14354 0.70726 1.10009
 C148 C -0.11034 0.74730 1.07012
 C149 C -0.14189 0.79128 1.09790
 H150 H -0.19202 0.68557 1.24222
 H151 H -0.14222 0.61372 1.19704
 H152 H -0.11866 0.74571 1.02737
 H153 H -0.06671 0.74633 1.08109
 H154 H -0.16873 0.81449 1.07124
 H155 H -0.11658 0.81610 1.12469
 C156 C -0.10649 0.26800 0.81181
 C157 C -0.16326 0.26875 0.80779
 C158 C -0.18930 0.31631 0.82489
 C159 C -0.16016 0.35723 0.85100
 C160 C -0.10427 0.35144 0.86184
 C161 C -0.07803 0.30782 0.83824
 C162 C -0.03882 0.26815 0.86042
 C163 C -0.06987 0.22461 0.83110
 H164 H -0.23260 0.32098 0.81977
 H165 H -0.18220 0.39211 0.86445
 H166 H -0.04197 0.26444 0.90371
 H167 H 0.00294 0.27435 0.84519
 H168 H -0.09074 0.19538 0.85730
 H169 H -0.04608 0.20623 0.79886
 C170 C 0.16900 0.72239 0.80203
 C171 C 0.19162 0.76693 0.82728
 C172 C 0.18632 0.77011 0.88204
 C173 C 0.16332 0.72707 0.91061
 C174 C 0.14590 0.67937 0.88508
 C175 C 0.14732 0.67959 0.83013
 C176 C 0.17041 0.63925 0.79305
 C177 C 0.19387 0.68634 0.76226
 H178 H 0.20021 0.80571 0.90264
 H179 H 0.15962 0.73153 0.95253
 H180 H 0.13837 0.61701 0.77122
 H181 H 0.20181 0.61350 0.81161
 H182 H 0.17503 0.69142 0.72302
 H183 H 0.23893 0.68799 0.76278
 C184 C 1.15293 0.10750 0.24780
 C185 C 1.17309 0.16004 0.25435
 C186 C 1.16249 0.18577 0.30239
 C187 C 1.13500 0.15867 0.34304
 C188 C 1.11773 0.10458 0.33726
 C189 C 1.12641 0.08046 0.28829
 C190 C 1.15278 0.02823 0.27479
 C191 C 1.18116 0.05742 0.23067
 H192 H 1.17609 0.22682 0.30861
 H193 H 1.12869 0.17979 0.37955
 H194 H 1.12306 -0.00244 0.26097
 H195 H 1.18183 0.01414 0.30511
 H196 H 1.16744 0.04346 0.19151
 H197 H 1.22585 0.05944 0.23617
 C198 C 1.20737 -0.14937 0.70916
 C199 C 1.18288 -0.16585 0.75582
 C200 C 1.12730 -0.15503 0.76230
 C201 C 1.09659 -0.13360 0.72080
 C202 C 1.12064 -0.12306 0.67157
 C203 C 1.17705 -0.12876 0.66806
 C204 C 1.21030 -0.15765 0.62827
 C205 C 1.24352 -0.18006 0.67344
 H206 H 1.10752 -0.16395 0.79915
 H207 H 1.05399 -0.12609 0.72734
 H208 H 1.23365 -0.12937 0.60301
 H209 H 1.18674 -0.18899 0.60688
 H210 H 1.28584 -0.16449 0.67430
 H211 H 1.23931 -0.22442 0.67834
 C212 C 0.85928 -0.21168 0.27532
 C213 C 0.80679 -0.19952 0.25816
 C214 C 0.77282 -0.17223 0.29377
 C215 C 0.79423 -0.15011 0.34037
 C216 C 0.84965 -0.15613 0.35289
 C217 C 0.87999 -0.19099 0.32159
 C218 C 0.93522 -0.18382 0.29864
 C219 C 0.91238 -0.20631 0.24784
 H220 H 0.73088 -0.16463 0.28389
 H221 H 0.76830 -0.12575 0.36486
 H222 H 0.96548 -0.21076 0.31733
 H223 H 0.94762 -0.14076 0.29579
 H224 H 0.92961 -0.24610 0.23713
 H225 H 0.91136 -0.17613 0.21568
 C226 C 0.86559 0.21329 0.71406
 C227 C 0.82885 0.19244 0.75102
 C228 C 0.81773 0.13629 0.74761
 C229 C 0.83825 0.10509 0.70600
 C230 C 0.87116 0.12869 0.66702
 C231 C 0.88648 0.18245 0.67390
 C232 C 0.88485 0.22838 0.63617
 C233 C 0.86191 0.26229 0.68038
 H234 H 0.79341 0.11616 0.77703
 H235 H 0.82841 0.06255 0.70443
 H236 H 0.85567 0.22153 0.60361
 H237 H 0.92613 0.24134 0.62389
 H238 H 0.81935 0.27512 0.67360
 H239 H 0.89001 0.29474 0.69350
 C240 C 0.23849 1.12526 0.14873
 C241 C 0.24526 1.16474 0.18708
 C242 C 0.29858 1.17932 0.20119
 C243 C 0.34314 1.15903 0.17285
 C244 C 0.33482 1.12289 0.13099
 C245 C 0.28210 1.10420 0.12202
 C246 C 0.25025 1.09960 0.07243
 C247 C 0.20195 1.12201 0.10233
 H248 H 0.30539 1.20829 0.23217
 H249 H 0.38373 1.17227 0.18286
 H250 H 0.24451 1.05696 0.06024
 H251 H 0.26546 1.12712 0.04126
 H252 H 0.16892 1.09193 0.10778
 H253 H 0.18827 1.16196 0.08805
 C254 C 0.75311 1.21796 -0.13127
 C255 C 0.75960 1.21131 -0.18548
 C256 C 0.71501 1.18905 -0.21301
 C257 C 0.67036 1.16687 -0.18586
 C258 C 0.66935 1.16569 -0.13045
 C259 C 0.70961 1.19556 -0.10457
 C260 C 0.74413 1.18132 -0.05851
 C261 C 0.79172 1.20590 -0.08785
 H262 H 0.71578 1.18657 -0.25533
 H263 H 0.63822 1.14836 -0.20849
 H264 H 0.74769 1.13705 -0.05269
 H265 H 0.73304 1.20451 -0.02293
 H266 H 0.82279 1.17579 -0.09909
 H267 H 0.80785 1.24318 -0.06931
 C268 C 0.26859 0.89289 -0.18746
 C269 C 0.26382 0.83680 -0.18606
 C270 C 0.30828 0.80740 -0.16672
 C271 C 0.35299 0.83429 -0.14388
 C272 C 0.35365 0.89116 -0.13912
 C273 C 0.31201 0.91931 -0.16445
 C274 C 0.27661 0.96371 -0.14497
 C275 C 0.22914 0.93463 -0.17047
 H276 H 0.30733 0.76378 -0.16722
 H277 H 0.38564 0.81025 -0.12818
 H278 H 0.28611 1.00298 -0.16393
 H279 H 0.27410 0.96483 -0.10151
 H280 H 0.21172 0.95692 -0.20425
 H281 H 0.19899 0.91882 -0.14190
 C282 C 0.71706 0.79956 0.13947
 C283 C 0.75177 0.82162 0.17724
 C284 C 0.75203 0.87833 0.18247
 C285 C 0.71386 0.91010 0.15526
 C286 C 0.67572 0.88596 0.12122
 C287 C 0.68056 0.83075 0.11188
 C288 C 0.63843 0.78734 0.11282
 C289 C 0.67876 0.75310 0.14310
 H290 H 0.78081 0.89794 0.20825
 H291 H 0.71386 0.95330 0.16117
 H292 H 0.62963 0.77149 0.07301
 H293 H 0.60216 0.79860 0.13611
 H294 H 0.69328 0.71765 0.12067
 H295 H 0.66602 0.74450 0.18403
   
