data_POSCAR
  _audit_creation_date              2014-09-24
  _audit_creation_method            'ToBaCCo'
  _symmetry_space_group_name_H-M    'P1'
  _symmetry_Int_Tables_number       1
  _symmetry_cell_setting            triclinic
  loop_
  _symmetry_equiv_pos_as_xyz
 x,y,z
_cell_length_a 49.7539
_cell_length_b 27.6829
_cell_length_c 21.7070
_cell_angle_alpha 90.045000
_cell_angle_beta 89.848500
_cell_angle_gamma 90.081100
loop_
  _atom_site_label
  _atom_site_type_symbol
  _atom_site_fract_x
  _atom_site_fract_y
  _atom_site_fract_z
C1 C 0.80593 0.21868 0.44252
 C2 C 0.81904 0.21272 0.49919
 C3 C 0.80544 0.21577 0.55581
 C4 C 0.77793 0.22982 0.55608
 C5 C 0.76468 0.23952 0.49948
 C6 C 0.77862 0.23373 0.44265
 C7 C 0.76539 0.24629 0.38771
 C8 C 0.73866 0.26050 0.38781
 C9 C 0.72430 0.26543 0.44315
 C10 C 0.73747 0.25582 0.49970
 C11 C 0.76372 0.23722 0.61140
 C12 C 0.73694 0.25124 0.61142
 C13 C 0.72353 0.26255 0.55636
 C14 C 0.69622 0.27818 0.55607
 C15 C 0.68331 0.28436 0.49910
 C16 C 0.69704 0.27960 0.44327
 H17 H 0.77566 0.24612 0.34378
 H18 H 0.72944 0.26790 0.34374
 H19 H 0.77314 0.23292 0.65582
 H20 H 0.72693 0.25275 0.65559
 H21 H 0.83958 0.19962 0.49906
 H22 H 0.66271 0.29709 0.49782
 C23 C 0.30186 0.70344 0.44506
 C24 C 0.31422 0.69323 0.50123
 C25 C 0.30235 0.70595 0.55733
 C26 C 0.27732 0.73014 0.55765
 C27 C 0.26430 0.74032 0.50104
 C28 C 0.27666 0.72700 0.44446
 C29 C 0.26400 0.73911 0.38886
 C30 C 0.23967 0.76375 0.38863
 C31 C 0.22697 0.77710 0.44401
 C32 C 0.23929 0.76523 0.50091
 C33 C 0.26564 0.74641 0.61276
 C34 C 0.24135 0.77119 0.61262
 C35 C 0.22718 0.77958 0.55753
 C36 C 0.20239 0.80537 0.55686
 C37 C 0.19118 0.81787 0.49967
 C38 C 0.20275 0.80361 0.44388
 H39 H 0.27302 0.73040 0.34483
 H40 H 0.23117 0.77303 0.34438
 H41 H 0.27556 0.74128 0.65658
 H42 H 0.23435 0.78504 0.65634
 H43 H 0.33348 0.67488 0.50128
 H44 H 0.17210 0.83676 0.49811
 C45 C 0.29431 0.31444 -0.55677
 C46 C 0.30740 0.32159 -0.50020
 C47 C 0.29776 0.30164 -0.44541
 C48 C 0.27407 0.27357 -0.44595
 C49 C 0.25957 0.26778 -0.50162
 C50 C 0.26945 0.28882 -0.55700
 C51 C 0.25317 0.28682 -0.60975
 C52 C 0.22928 0.26077 -0.61002
 C53 C 0.22047 0.23540 -0.55754
 C54 C 0.23501 0.24123 -0.50176
 C55 C 0.26487 0.25028 -0.39253
 C56 C 0.24108 0.22400 -0.39278
 C57 C 0.22501 0.22102 -0.44597
 C58 C 0.20004 0.19600 -0.44580
 C59 C 0.18673 0.18892 -0.50204
 C60 C 0.19647 0.20742 -0.55806
 H61 H 0.25833 0.30656 -0.65110
 H62 H 0.21743 0.26198 -0.65165
 H63 H 0.27615 0.25170 -0.35001
 H64 H 0.23569 0.20540 -0.35076
 H65 H 0.32634 0.34100 -0.49873
 H66 H 0.16807 0.16865 -0.50218
 C67 C -0.20735 0.81904 -0.55558
 C68 C -0.19547 0.82962 -0.49844
 C69 C -0.20503 0.80986 -0.44350
 C70 C -0.22764 0.77905 -0.44427
 C71 C -0.24119 0.77014 -0.50056
 C72 C -0.23127 0.79063 -0.55624
 C73 C -0.24678 0.78548 -0.60987
 C74 C -0.27000 0.75748 -0.61031
 C75 C -0.27886 0.73304 -0.55714
 C76 C -0.26504 0.74148 -0.50088
 C77 C -0.23722 0.75749 -0.39005
 C78 C -0.26009 0.72874 -0.39056
 C79 C -0.27520 0.72220 -0.44468
 C80 C -0.29944 0.69496 -0.44471
 C81 C -0.31200 0.68539 -0.50122
 C82 C -0.30234 0.70359 -0.55748
 H83 H -0.24164 0.80445 -0.65183
 H84 H -0.28134 0.75662 -0.65267
 H85 H -0.22712 0.76260 -0.34645
 H86 H -0.26561 0.71144 -0.34774
 H87 H -0.17717 0.85092 -0.49654
 H88 H -0.33017 0.66369 -0.50135
 O89 O -0.03810 0.91778 0.11650
 O90 O -0.06723 0.96063 0.05560
 C91 C -0.06202 0.93120 0.10033
 O92 O 0.03894 1.08501 0.10641
 O93 O 0.06827 1.03743 0.05148
 C94 C 0.06293 1.07098 0.09131
 O95 O -0.03651 1.08295 0.11109
 O96 O -0.06685 1.04026 0.05253
 C97 C -0.06079 1.07093 0.09550
 O98 O 0.03691 0.90991 0.11032
 O99 O 0.06726 0.95398 0.05340
 C100 C 0.06120 0.92209 0.09486
 Zr101 Zr -0.00032 0.93708 0.07840
 O102 O 0.00189 0.93308 0.17555
 O103 O -0.00255 0.86112 0.07052
 Zr104 Zr 0.00109 1.05948 0.07607
 O105 O 0.00383 1.06278 0.17329
 O106 O -0.00105 1.13581 0.07169
 O107 O -0.02343 0.99936 0.08947
 O108 O 0.02357 0.99761 0.08886
 O109 O 0.03724 0.90698 -0.10645
 O110 O 0.06744 0.95249 -0.05118
 C111 C 0.06149 0.91960 -0.09144
 O112 O -0.03562 1.08012 -0.11624
 O113 O -0.06609 1.03935 -0.05593
 C114 C -0.05992 1.06866 -0.10028
 O115 O 0.03945 1.08174 -0.11020
 O116 O 0.06851 1.03575 -0.05287
 C117 C 0.06335 1.06805 -0.09432
 O118 O -0.03774 0.91397 -0.11268
 O119 O -0.06705 0.95891 -0.05430
 C120 C -0.06169 0.92795 -0.09739
 Zr121 Zr -0.00014 0.93497 -0.07607
 O122 O 0.00280 0.93069 -0.17319
 O123 O -0.00377 0.85889 -0.06997
 Zr124 Zr 0.00145 1.05742 -0.07867
 O125 O 0.00457 1.05890 -0.17590
 O126 O -0.00070 1.13382 -0.07605
 Zr127 Zr -0.03973 0.99886 -0.00017
 Zr128 Zr 0.04069 0.99588 0.00010
 O129 O 0.02385 0.99518 -0.08880
 O130 O -0.02316 0.99696 -0.08971
 O131 O 0.02392 0.92592 0.00148
 O132 O -0.02222 1.06810 -0.00161
 O133 O -0.02410 0.92828 0.00139
 O134 O 0.02558 1.06701 -0.00139
 H135 H 0.03530 0.99768 0.12566
 H136 H -0.03423 1.09661 -0.00230
 H137 H 0.03572 0.99429 -0.12550
 H138 H -0.03688 0.90079 0.00205
 H139 H 0.01519 1.14739 0.04981
 H140 H 0.01602 1.14589 -0.05684
 H141 H -0.00871 1.03561 -0.19224
 H142 H -0.00986 0.95457 -0.19043
 H143 H 0.01151 0.84701 -0.04512
 H144 H -0.00291 0.84859 0.11325
 H145 H -0.00803 0.96121 0.19194
 H146 H -0.01067 1.04228 0.19036
 O147 O 0.46165 0.41385 0.11319
 O148 O 0.43271 0.45795 0.05299
 C149 C 0.43777 0.42779 0.09703
 O150 O 0.53972 0.58028 0.10778
 O151 O 0.56892 0.53327 0.05179
 C152 C 0.56367 0.56630 0.09235
 O153 O 0.46461 0.57863 0.11407
 O154 O 0.43438 0.53731 0.05406
 C155 C 0.44037 0.56696 0.09814
 O156 O 0.53705 0.40543 0.10827
 O157 O 0.56766 0.45025 0.05288
 C158 C 0.56140 0.41769 0.09341
 Zr159 Zr 0.49988 0.43327 0.07711
 O160 O 0.50207 0.42908 0.17430
 O161 O 0.49751 0.35732 0.06904
 Zr162 Zr 0.50176 0.55580 0.07653
 O163 O 0.50454 0.55988 0.17363
 O164 O 0.49967 0.63211 0.07103
 O165 O 0.47705 0.49562 0.08896
 O166 O 0.52396 0.49354 0.08852
 O167 O 0.53760 0.40474 -0.10812
 O168 O 0.56787 0.44964 -0.05239
 C169 C 0.56185 0.41701 -0.09296
 O170 O 0.46451 0.57824 -0.11444
 O171 O 0.43405 0.53668 -0.05474
 C172 C 0.44019 0.56657 -0.09849
 O173 O 0.53998 0.57986 -0.10916
 O174 O 0.56898 0.53297 -0.05275
 C175 C 0.56386 0.56579 -0.09361
 O176 O 0.46282 0.41214 -0.11437
 O177 O 0.43351 0.45670 -0.05557
 C178 C 0.43887 0.42596 -0.09889
 Zr179 Zr 0.50038 0.43286 -0.07746
 O180 O 0.50341 0.42986 -0.17465
 O181 O 0.49670 0.35672 -0.07300
 Zr182 Zr 0.50193 0.55537 -0.07820
 O183 O 0.50499 0.55761 -0.17541
 O184 O 0.49991 0.63173 -0.07486
 Zr185 Zr 0.46086 0.49604 -0.00076
 Zr186 Zr 0.54117 0.49261 -0.00020
 O187 O 0.52437 0.49311 -0.08916
 O188 O 0.47738 0.49503 -0.09033
 O189 O 0.52425 0.42278 0.00012
 O190 O 0.47833 0.56529 -0.00089
 O191 O 0.47634 0.42537 -0.00029
 O192 O 0.52620 0.56390 -0.00076
 H193 H 0.53564 0.49316 0.12539
 H194 H 0.46625 0.59372 -0.00088
 H195 H 0.53626 0.49243 -0.12583
 H196 H 0.46355 0.39789 -0.00023
 H197 H 0.51674 0.64377 0.05288
 H198 H 0.51640 0.64347 -0.05429
 H199 H 0.49127 0.53532 -0.19206
 H200 H 0.49074 0.45394 -0.19143
 H201 H 0.51157 0.34458 -0.04709
 H202 H 0.49687 0.34472 0.11173
 H203 H 0.48985 0.45399 0.19108
 H204 H 0.49244 0.53486 0.19063
 C205 C 0.32657 0.31382 0.28743
 C206 C 0.34024 0.35800 0.28852
 C207 C 0.33704 0.38913 0.33869
 C208 C 0.32097 0.37561 0.38855
 C209 C 0.30753 0.33067 0.38909
 C210 C 0.31032 0.30021 0.33725
 C211 C 0.35933 0.37019 0.24111
 C212 C 0.37632 0.38148 0.20413
 C213 C 0.39711 0.39605 0.16393
 C214 C 0.41546 0.40978 0.13208
 H215 H 0.32924 0.28913 0.24916
 H216 H 0.34759 0.42338 0.34009
 H217 H 0.31914 0.40040 0.42697
 H218 H 0.30134 0.26455 0.33675
 C219 C -0.17267 0.81618 0.29133
 C220 C -0.16018 0.86150 0.29099
 C221 C -0.16504 0.89395 0.33905
 C222 C -0.18154 0.88072 0.38833
 C223 C -0.19377 0.83469 0.39041
 C224 C -0.18935 0.80283 0.34055
 C225 C -0.14070 0.87374 0.24436
 C226 C -0.12351 0.88508 0.20785
 C227 C -0.10260 0.89969 0.16787
 C228 C -0.08426 0.91336 0.13591
 H229 H -0.16875 0.79050 0.25472
 H230 H -0.15546 0.92913 0.33934
 H231 H -0.18465 0.90660 0.42511
 H232 H -0.19734 0.76643 0.34134
 C233 C 0.68131 0.65790 0.28435
 C234 C 0.65320 0.65992 0.28571
 C235 C 0.64009 0.67820 0.33768
 C236 C 0.65483 0.69361 0.38855
 C237 C 0.68317 0.69158 0.38842
 C238 C 0.69622 0.67357 0.33534
 C239 C 0.63725 0.64087 0.23603
 C240 C 0.62231 0.62445 0.19769
 C241 C 0.60320 0.60472 0.15677
 C242 C 0.58571 0.58743 0.12534
 H243 H 0.69166 0.64315 0.24462
 H244 H 0.61833 0.67980 0.33934
 H245 H 0.64397 0.70764 0.42801
 H246 H 0.71787 0.66955 0.33427
 C247 C 0.17999 1.16367 0.28313
 C248 C 0.15190 1.16600 0.28445
 C249 C 0.13881 1.18410 0.33655
 C250 C 0.15357 1.19892 0.38769
 C251 C 0.18189 1.19644 0.38764
 C252 C 0.19491 1.17876 0.33432
 C253 C 0.13598 1.14705 0.23470
 C254 C 0.12116 1.13049 0.19627
 C255 C 0.10223 1.11038 0.15530
 C256 C 0.08486 1.09266 0.12395
 H257 H 0.19031 1.14901 0.24330
 H258 H 0.11706 1.18591 0.33816
 H259 H 0.14275 1.21278 0.42729
 H260 H 0.21654 1.17440 0.33326
 C261 C 0.63936 0.29166 -0.33269
 C262 C 0.65070 0.32212 -0.28840
 C263 C 0.67749 0.33678 -0.29440
 C264 C 0.69283 0.32135 -0.34484
 C265 C 0.68165 0.29060 -0.38996
 C266 C 0.65457 0.27631 -0.38317
 C267 C 0.63406 0.34088 -0.23958
 C268 C 0.61910 0.35717 -0.20108
 C269 C 0.60036 0.37703 -0.15924
 C270 C 0.58332 0.39479 -0.12682
 H271 H 0.61855 0.28043 -0.32883
 H272 H 0.68632 0.36119 -0.26105
 H273 H 0.71305 0.33535 -0.34996
 H274 H 0.64518 0.25278 -0.41675
 C275 C 0.15973 0.87583 -0.33376
 C276 C 0.15493 0.84182 -0.28747
 C277 C 0.16666 0.79600 -0.29146
 C278 C 0.18293 0.78412 -0.34199
 C279 C 0.18784 0.81807 -0.38924
 C280 C 0.17584 0.86406 -0.38428
 C281 C 0.13663 0.85368 -0.23825
 C282 C 0.12049 0.86564 -0.19964
 C283 C 0.10071 0.88202 -0.15785
 C284 C 0.08313 0.89804 -0.12546
 H285 H 0.15066 0.91135 -0.33131
 H286 H 0.16270 0.76911 -0.25636
 H287 H 0.19065 0.74766 -0.34541
 H288 H 0.17916 0.89131 -0.41930
 C289 C 0.35843 0.69747 -0.32643
 C290 C 0.34865 0.66168 -0.28671
 C291 C 0.32281 0.64270 -0.29553
 C292 C 0.30712 0.65859 -0.34495
 C293 C 0.31719 0.69356 -0.38582
 C294 C 0.34282 0.71325 -0.37580
 C295 C 0.36614 0.64197 -0.24043
 C296 C 0.38183 0.62513 -0.20413
 C297 C 0.40128 0.60508 -0.16449
 C298 C 0.41867 0.58767 -0.13303
 H299 H 0.37845 0.71212 -0.32034
 H300 H 0.31515 0.61467 -0.26541
 H301 H 0.28754 0.64253 -0.35261
 H302 H 0.35097 0.73990 -0.40725
 C303 C -0.13845 1.19986 -0.33243
 C304 C -0.14934 1.16564 -0.29213
 C305 C -0.17576 1.14957 -0.30040
 C306 C -0.19112 1.16718 -0.34942
 C307 C -0.18032 1.20151 -0.39073
 C308 C -0.15368 1.21738 -0.38146
 C309 C -0.13253 1.14485 -0.24526
 C310 C -0.11738 1.12739 -0.20825
 C311 C -0.09844 1.10693 -0.16766
 C312 C -0.08133 1.08946 -0.13546
 H313 H -0.11795 1.21230 -0.32673
 H314 H -0.18422 1.12242 -0.27009
 H315 H -0.21096 1.15210 -0.35673
 H316 H -0.14460 1.24358 -0.41221
 C317 C 0.66777 0.69458 -0.28932
 C318 C 0.65695 0.64792 -0.28790
 C319 C 0.66167 0.61631 -0.33696
 C320 C 0.67669 0.63142 -0.38781
 C321 C 0.68760 0.67845 -0.39037
 C322 C 0.68293 0.70982 -0.34016
 C323 C 0.63925 0.63317 -0.23884
 C324 C 0.62340 0.61954 -0.20050
 C325 C 0.60372 0.60215 -0.15914
 C326 C 0.58599 0.58614 -0.12718
 H327 H 0.66382 0.71965 -0.25204
 H328 H 0.65324 0.58020 -0.33654
 H329 H 0.67989 0.60608 -0.42518
 H330 H 0.68985 0.74692 -0.34148
 C331 C 0.16910 1.19412 -0.28847
 C332 C 0.15674 1.14869 -0.28872
 C333 C 0.15991 1.11817 -0.33950
 C334 C 0.17485 1.13324 -0.39046
 C335 C 0.18723 1.17913 -0.39146
 C336 C 0.18421 1.20930 -0.33943
 C337 C 0.13902 1.13432 -0.23954
 C338 C 0.12309 1.12101 -0.20122
 C339 C 0.10329 1.10398 -0.15996
 C340 C 0.08549 1.08822 -0.12803
 H341 H 0.16639 1.21837 -0.24976
 H342 H 0.15032 1.08300 -0.34031
 H343 H 0.17685 1.10872 -0.42913
 H344 H 0.19235 1.24560 -0.33934
 C345 C 0.31919 0.35329 -0.29169
 C346 C 0.34595 0.33776 -0.28896
 C347 C 0.35623 0.30772 -0.33523
 C348 C 0.34012 0.29439 -0.38499
 C349 C 0.31352 0.31082 -0.38883
 C350 C 0.30301 0.33986 -0.34150
 C351 C 0.36367 0.35559 -0.24189
 C352 C 0.37955 0.37117 -0.20505
 C353 C 0.39923 0.38995 -0.16498
 C354 C 0.41691 0.40629 -0.13336
 H355 H 0.31111 0.37687 -0.25638
 H356 H 0.37696 0.29581 -0.33381
 H357 H 0.34859 0.27232 -0.42140
 H358 H 0.28262 0.35334 -0.34426
 C359 C -0.15739 0.80019 -0.30854
 C360 C -0.15724 0.84795 -0.28712
 C361 C -0.17398 0.88234 -0.31454
 C362 C -0.19032 0.86938 -0.36413
 C363 C -0.19015 0.82183 -0.38654
 C364 C -0.17377 0.78716 -0.35816
 C365 C -0.13830 0.86279 -0.24080
 C366 C -0.12174 0.87634 -0.20422
 C367 C -0.10156 0.89333 -0.16408
 C368 C -0.08369 0.90870 -0.13221
 H369 H -0.14430 0.77342 -0.28810
 H370 H -0.17382 0.91949 -0.29876
 H371 H -0.20261 0.89663 -0.38608
 H372 H -0.17313 0.75051 -0.37561
 C373 C 0.32334 0.63617 0.30121
 C374 C 0.34814 0.65827 0.28887
 C375 C 0.35685 0.69690 0.32538
 C376 C 0.34121 0.71264 0.37494
 C377 C 0.31662 0.69006 0.38832
 C378 C 0.30761 0.65202 0.35083
 C379 C 0.36578 0.63922 0.24220
 C380 C 0.38161 0.62314 0.20546
 C381 C 0.40123 0.60406 0.16522
 C382 C 0.41875 0.58741 0.13324
 H383 H 0.31654 0.60593 0.27361
 H384 H 0.37610 0.71394 0.31661
 H385 H 0.34856 0.74170 0.40384
 H386 H 0.28885 0.63380 0.36115
 C387 C -0.13759 1.20198 0.33099
 C388 C -0.14926 1.17087 0.28790
 C389 C -0.17625 1.15756 0.29416
 C390 C -0.19141 1.17463 0.34400
 C391 C -0.17981 1.20562 0.38833
 C392 C -0.15261 1.21897 0.38088
 C393 C -0.13278 1.15001 0.24028
 C394 C -0.11790 1.13212 0.20280
 C395 C -0.09924 1.11087 0.16195
 C396 C -0.08225 1.09262 0.12989
 H397 H -0.11664 1.21229 0.32680
 H398 H -0.18536 1.13279 0.26164
 H399 H -0.21179 1.16149 0.34953
 H400 H -0.14293 1.24276 0.41370
 C401 C 0.64437 0.28123 0.31787
 C402 C 0.65143 0.32319 0.28559
 C403 C 0.67423 0.34952 0.30309
 C404 C 0.68961 0.33447 0.35336
 C405 C 0.68239 0.29279 0.38637
 C406 C 0.65974 0.26616 0.36815
 C407 C 0.63404 0.34135 0.23805
 C408 C 0.61869 0.35749 0.20046
 C409 C 0.59976 0.37743 0.15939
 C410 C 0.58272 0.39534 0.12733
 H411 H 0.62660 0.26089 0.30520
 H412 H 0.67970 0.38235 0.27895
 H413 H 0.70675 0.35589 0.36752
 H414 H 0.65370 0.23430 0.39364
 C415 C 0.16832 0.87792 0.32135
 C416 C 0.15580 0.84198 0.28615
 C417 C 0.16000 0.79322 0.30036
 C418 C 0.17616 0.78051 0.35047
 C419 C 0.18828 0.81652 0.38664
 C420 C 0.18442 0.86528 0.37143
 C421 C 0.13699 0.85555 0.23894
 C422 C 0.12052 0.86833 0.20173
 C423 C 0.10048 0.88505 0.16109
 C424 C 0.08280 0.90097 0.12915
 H425 H 0.16503 0.91576 0.31114
 H426 H 0.15019 0.76513 0.27385
 H427 H 0.17859 0.74275 0.36220
 H428 H 0.19338 0.89349 0.39926
   
