data_POSCAR
  _audit_creation_date              2014-09-24
  _audit_creation_method            'ToBaCCo'
  _symmetry_space_group_name_H-M    'P1'
  _symmetry_Int_Tables_number       1
  _symmetry_cell_setting            triclinic
  loop_
  _symmetry_equiv_pos_as_xyz
 x,y,z
_cell_length_a 18.8508
_cell_length_b 24.4037
_cell_length_c 27.8043
_cell_angle_alpha 89.925400
_cell_angle_beta 89.659200
_cell_angle_gamma 88.668600
loop_
  _atom_site_label
  _atom_site_type_symbol
  _atom_site_fract_x
  _atom_site_fract_y
  _atom_site_fract_z
O1 O 0.29821 0.30346 0.19778
 O2 O 0.31615 0.20026 0.29389
 O3 O 0.29744 0.19063 0.20682
 O4 O 0.31746 0.30248 0.29362
 O5 O 0.20082 0.31344 0.29682
 O6 O 0.18189 0.20686 0.20479
 O7 O 0.19942 0.20332 0.30212
 O8 O 0.18190 0.30861 0.20804
 Cu9 Cu 0.31865 0.25065 0.24484
 Cu10 Cu 0.17967 0.25651 0.25544
 C11 C 0.23780 0.32433 0.18726
 C12 C 0.26005 0.18427 0.31434
 C13 C 0.23632 0.17936 0.19121
 C14 C 0.26235 0.32668 0.31039
 O15 O 0.81750 0.30396 0.21120
 O16 O 0.79944 0.19705 0.30411
 O17 O 0.81542 0.19843 0.21066
 O18 O 0.80050 0.30554 0.30369
 O19 O 0.68379 0.30659 0.29642
 O20 O 0.69921 0.20307 0.20087
 O21 O 0.68305 0.20064 0.29577
 O22 O 0.70077 0.30922 0.20433
 Cu23 Cu 0.81984 0.25056 0.25878
 Cu24 Cu 0.67999 0.25459 0.24855
 C25 C 0.76214 0.32496 0.19218
 C26 C 0.73820 0.18070 0.31588
 C27 C 0.76003 0.18416 0.18871
 C28 C 0.73956 0.32477 0.31529
 O29 O 0.70512 0.80387 0.80848
 O30 O 0.67438 0.70393 0.71242
 O31 O 0.69312 0.70099 0.80487
 O32 O 0.68479 0.81105 0.71386
 O33 O 0.79927 0.79912 0.69901
 O34 O 0.80939 0.69439 0.79445
 O35 O 0.79023 0.69125 0.70377
 O36 O 0.82040 0.79914 0.79351
 Cu37 Cu 0.67756 0.75674 0.76030
 Cu38 Cu 0.81644 0.74606 0.74572
 C39 C 0.76819 0.81640 0.81874
 C40 C 0.72716 0.67865 0.69362
 C41 C 0.75319 0.68007 0.81611
 C42 C 0.74008 0.82271 0.69003
 O43 O 0.31213 0.80002 0.70634
 O44 O 0.29109 0.69451 0.79940
 O45 O 0.30473 0.69623 0.70724
 O46 O 0.29735 0.80437 0.79925
 O47 O 0.18035 0.80572 0.79585
 O48 O 0.18883 0.70554 0.69700
 O49 O 0.17470 0.70002 0.79028
 O50 O 0.19558 0.81128 0.70241
 Cu51 Cu 0.31317 0.74831 0.75487
 Cu52 Cu 0.17314 0.75637 0.74592
 C53 C 0.25756 0.82324 0.68832
 C54 C 0.22934 0.67800 0.80921
 C55 C 0.24845 0.68396 0.68530
 C56 C 0.23745 0.82358 0.81316
 C57 C 1.03931 -0.06407 -0.13348
 C58 C 0.96728 -0.06968 -0.13062
 C59 C 0.94804 -0.05924 -0.08323
 N60 N 1.00631 -0.04815 -0.05708
 C61 C 1.06228 -0.05156 -0.08761
 C62 C 0.87956 -0.06507 -0.06310
 C63 C 0.85834 -0.03642 -0.02064
 C64 C 0.79365 -0.04109 0.00317
 C65 C 0.79290 -0.00411 0.04033
 C66 C 0.85588 0.02374 0.03756
 N67 N 0.89534 0.00394 0.00043
 C68 C 0.87356 0.06924 0.06614
 C69 C 0.94435 0.08627 0.07069
 C70 C 0.96440 0.13618 0.08908
 C71 C 1.03695 0.13470 0.09104
 C72 C 1.05946 0.08386 0.07351
 N73 N 1.00243 0.05446 0.06087
 C74 C 1.13043 0.06299 0.07247
 C75 C 1.15282 0.02383 0.03690
 C76 C 1.21984 -0.00082 0.03269
 C77 C 1.21940 -0.03402 -0.00697
 C78 C 1.15391 -0.02670 -0.02845
 N79 N 1.11363 0.00844 -0.00147
 C80 C 1.13404 -0.04933 -0.07332
 H81 H 1.07092 -0.06882 -0.16587
 H82 H 0.93382 -0.07913 -0.16070
 H83 H 1.06476 0.02524 -0.01159
 H84 H 0.74934 -0.06623 -0.00581
 H85 H 0.74989 0.00203 0.06581
 H86 H 0.93060 0.17073 0.09923
 H87 H 1.06819 0.16884 0.10221
 H88 H 1.26356 -0.05986 -0.01848
 H89 H 0.94126 0.02152 -0.01281
 H90 H 1.26702 0.00556 0.05322
 C91 C 0.45118 0.63786 0.59012
 C92 C 0.52369 0.63610 0.59335
 C93 C 0.54672 0.58748 0.57192
 N94 N 0.49036 0.55932 0.55636
 C95 C 0.43186 0.58972 0.56786
 C96 C 0.61715 0.56622 0.57129
 C97 C 0.64001 0.52636 0.53691
 C98 C 0.70559 0.49916 0.53622
 C99 C 0.70761 0.46677 0.49590
 C100 C 0.64442 0.47619 0.47178
 N101 N 0.60357 0.51252 0.49698
 C102 C 0.62727 0.45411 0.42632
 C103 C 0.55685 0.45369 0.40913
 C104 C 0.53740 0.44223 0.36223
 C105 C 0.46469 0.44081 0.36179
 C106 C 0.44210 0.45156 0.40841
 N107 N 0.49846 0.45963 0.43724
 C108 C 0.37118 0.45043 0.42487
 C109 C 0.35132 0.47252 0.47005
 C110 C 0.29057 0.45998 0.49581
 C111 C 0.28766 0.49463 0.53483
 C112 C 0.34683 0.52715 0.53180
 N113 N 0.38591 0.51284 0.49271
 C114 C 0.36175 0.57151 0.56231
 H115 H 0.41713 0.67115 0.60275
 H116 H 0.55478 0.66796 0.60907
 H117 H 0.42902 0.53408 0.47911
 H118 H 0.74923 0.50282 0.56083
 H119 H 0.75140 0.43980 0.48562
 H120 H 0.57182 0.43577 0.33138
 H121 H 0.43244 0.43318 0.33057
 H122 H 0.24667 0.49564 0.56223
 H123 H 0.55663 0.53099 0.48492
 H124 H 0.25214 0.42923 0.48740
 C125 C -0.03711 0.43934 0.13880
 C126 C 0.03564 0.44060 0.13848
 C127 C 0.05613 0.45105 0.09142
 N128 N -0.00163 0.45651 0.06311
 C129 C -0.05866 0.44909 0.09193
 C130 C 0.12687 0.45102 0.07428
 C131 C 0.14462 0.47202 0.02842
 C132 C 0.20787 0.46169 0.00413
 C133 C 0.20679 0.49380 -0.03641
 C134 C 0.14169 0.52169 -0.03698
 N135 N 0.10453 0.50842 0.00307
 C136 C 0.12006 0.56200 -0.07106
 C137 C 0.04966 0.58333 -0.07195
 C138 C 0.02726 0.63231 -0.09297
 C139 C -0.04533 0.63408 -0.09008
 C140 C -0.06535 0.58558 -0.06849
 N141 N -0.00718 0.55497 -0.05698
 C142 C -0.13558 0.56715 -0.06356
 C143 C -0.15085 0.52270 -0.03286
 C144 C -0.20886 0.48908 -0.03630
 C145 C -0.20692 0.45495 0.00318
 C146 C -0.14774 0.46871 0.02957
 N147 N -0.11319 0.50932 0.00687
 C148 C -0.12914 0.44731 0.07519
 H149 H -0.07004 0.43244 0.17011
 H150 H 0.06938 0.43471 0.16949
 H151 H -0.07105 0.53120 0.02071
 H152 H 0.25113 0.43439 0.01449
 H153 H 0.25074 0.49683 -0.06120
 H154 H 0.05874 0.66444 -0.10817
 H155 H -0.07885 0.66775 -0.10235
 H156 H -0.24478 0.42358 0.01137
 H157 H 0.05785 0.52757 0.01519
 H158 H -0.24837 0.48886 -0.06436
 C159 C 0.53760 1.07118 0.36318
 C160 C 0.46503 1.07064 0.36190
 C161 C 0.44216 1.05521 0.40736
 N162 N 0.49878 1.04585 0.43611
 C163 C 0.55717 1.05675 0.40953
 C164 C 0.37041 1.04949 0.42163
 C165 C 0.35055 1.01023 0.45641
 C166 C 0.28670 0.98324 0.45610
 C167 C 0.28706 0.94866 0.49490
 C168 C 0.35127 0.95506 0.51799
 N169 N 0.39065 0.99172 0.49357
 C170 C 0.37220 0.92523 0.55944
 C171 C 0.44429 0.91100 0.56800
 C172 C 0.46860 0.86415 0.59163
 C173 C 0.54106 0.86593 0.59186
 C174 C 0.55915 0.91418 0.56906
 N175 N 0.49998 0.94101 0.55359
 C176 C 0.62833 0.93515 0.56579
 C177 C 0.64353 0.98024 0.53571
 C178 C 0.70023 1.01473 0.54131
 C179 C 0.69963 1.04973 0.50249
 C180 C 0.64291 1.03540 0.47392
 N181 N 0.60796 0.99376 0.49503
 C182 C 0.62685 1.05792 0.42811
 H183 H 0.57150 1.08002 0.33280
 H184 H 0.43392 1.07762 0.32989
 H185 H 0.56708 0.97166 0.47977
 H186 H 0.24528 0.98614 0.42937
 H187 H 0.24592 0.92004 0.50367
 H188 H 0.43878 0.82996 0.60481
 H189 H 0.57584 0.83419 0.60624
 H190 H 0.73669 1.08221 0.49633
 H191 H 0.43885 1.00731 0.50439
 H192 H 0.73800 1.01490 0.57046
 C193 C 1.22812 0.13537 0.16022
 C194 C 1.26863 0.08787 0.16173
 C195 C 1.23572 0.05292 0.13135
 C196 C 1.18108 0.08306 0.11001
 O197 O 1.17510 0.13241 0.12960
 H198 H 1.31201 0.07800 0.18581
 H199 H 1.24770 0.00956 0.12845
 C200 C 0.71474 0.63224 0.66181
 C201 C 0.73730 0.57959 0.67211
 C202 C 0.70443 0.54766 0.63930
 C203 C 0.66612 0.58342 0.61020
 O204 O 0.67125 0.63480 0.62478
 H205 H 0.76947 0.56589 0.70211
 H206 H 0.70539 0.50332 0.63842
 C207 C -0.23052 0.36821 0.15583
 C208 C -0.28481 0.40292 0.14107
 C209 C -0.25445 0.43762 0.10889
 C210 C -0.18398 0.42091 0.10576
 O211 O -0.16947 0.37896 0.13461
 H212 H -0.33949 0.40364 0.15319
 H213 H -0.28039 0.47159 0.09050
 C214 C 0.26714 0.86348 0.64993
 C215 C 0.21763 0.90254 0.63616
 C216 C 0.24983 0.93104 0.60024
 C217 C 0.31603 0.90603 0.59360
 O218 O 0.32650 0.86580 0.62475
 H219 H 0.16541 0.91031 0.65141
 H220 H 0.22801 0.96681 0.58212
 C221 C -0.24123 0.64289 -0.14603
 C222 C -0.29526 0.63039 -0.11449
 C223 C -0.26373 0.59926 -0.07941
 C224 C -0.19303 0.59400 -0.09269
 O225 O -0.17983 0.62042 -0.13321
 H226 H -0.34989 0.64500 -0.11530
 H227 H -0.28883 0.58453 -0.04694
 C228 C 0.26652 1.14330 0.35258
 C229 C 0.21552 1.13295 0.38667
 C230 C 0.24659 1.09568 0.41696
 C231 C 0.31380 1.08448 0.39817
 O232 O 0.32580 1.11476 0.35969
 H233 H 0.16352 1.15227 0.39037
 H234 H 0.22361 1.08083 0.45008
 C235 C 1.23337 -0.13444 -0.15313
 C236 C 1.28808 -0.10057 -0.14129
 C237 C 1.25834 -0.06221 -0.11112
 C238 C 1.18844 -0.07709 -0.10493
 O239 O 1.17339 -0.12042 -0.13120
 H240 H 1.34192 -0.10178 -0.15508
 H241 H 1.28448 -0.02717 -0.09615
 C242 C 0.73237 0.36949 0.35014
 C243 C 0.78429 0.40637 0.36060
 C244 C 0.75227 0.44392 0.39048
 C245 C 0.68358 0.42637 0.39674
 O246 O 0.67154 0.38151 0.37180
 H247 H 0.83793 0.40703 0.34655
 H248 H 0.77577 0.48025 0.40518
 C249 C 0.78142 -0.15459 -0.13628
 C250 C 0.76122 -0.17540 -0.09247
 C251 C 0.79497 -0.14472 -0.05932
 C252 C 0.83126 -0.10571 -0.08516
 O253 O 0.82464 -0.11298 -0.13218
 H254 H 0.73040 -0.21154 -0.08574
 H255 H 0.79598 -0.15202 -0.02094
 C256 C 0.27011 0.37095 0.34551
 C257 C 0.21676 0.40769 0.35837
 C258 C 0.24724 0.44280 0.38977
 C259 C 0.31677 0.42435 0.39433
 O260 O 0.33074 0.38093 0.36710
 H261 H 0.16267 0.40938 0.34552
 H262 H 0.22204 0.47810 0.40678
 C263 C 0.22024 0.63107 -0.15901
 C264 C 0.24332 0.57888 -0.17059
 C265 C 0.20998 0.54571 -0.13861
 C266 C 0.17070 0.58036 -0.10885
 O267 O 0.17593 0.63215 -0.12211
 H268 H 0.27542 0.56629 -0.20121
 H269 H 0.21076 0.50136 -0.13902
 C270 C 0.73103 1.14032 0.35103
 C271 C 0.78614 1.10897 0.36966
 C272 C 0.75496 1.07318 0.40057
 C273 C 0.68315 1.08634 0.39982
 O274 O 0.66889 1.12691 0.36937
 H275 H 0.84195 1.11061 0.36050
 H276 H 0.78152 1.04072 0.42053
 C277 C 0.23127 0.36803 0.15145
 C278 C 0.28357 0.40425 0.13972
 C279 C 0.25176 0.44130 0.10942
 C280 C 0.18283 0.42403 0.10423
 O281 O 0.17043 0.37993 0.13023
 H282 H 0.33727 0.40490 0.15321
 H283 H 0.27562 0.47707 0.09368
 C284 C 0.73416 0.86186 0.64989
 C285 C 0.78723 0.87161 0.61688
 C286 C 0.75576 0.90247 0.58163
 C287 C 0.68577 0.90971 0.59589
 O288 O 0.67304 0.88520 0.63747
 H289 H 0.84115 0.85539 0.61704
 H290 H 0.78001 0.91543 0.54826
 C291 C 0.76746 0.14744 0.14717
 C292 C 0.71660 0.14148 0.11231
 C293 C 0.74888 0.11088 0.07711
 C294 C 0.81678 0.09955 0.09352
 O295 O 0.82803 0.12219 0.13593
 H296 H 0.66377 0.15977 0.11148
 H297 H 0.72637 0.09987 0.04285
 C298 C 0.25422 0.64611 0.64456
 C299 C 0.20238 0.63823 0.61071
 C300 C 0.23466 0.60746 0.57550
 C301 C 0.30363 0.59847 0.59085
 O302 O 0.31508 0.62186 0.63280
 H303 H 0.14901 0.65553 0.61037
 H304 H 0.21166 0.59548 0.54164
   
