data_POSCAR
  _audit_creation_date              2014-09-24
  _audit_creation_method            'ToBaCCo'
  _symmetry_space_group_name_H-M    'P1'
  _symmetry_Int_Tables_number       1
  _symmetry_cell_setting            triclinic
  loop_
  _symmetry_equiv_pos_as_xyz
 x,y,z
_cell_length_a 19.9628
_cell_length_b 19.9864
_cell_length_c 19.8419
_cell_angle_alpha 89.595300
_cell_angle_beta 95.533700
_cell_angle_gamma 87.179000
loop_
  _atom_site_label
  _atom_site_type_symbol
  _atom_site_fract_x
  _atom_site_fract_y
  _atom_site_fract_z
C1 C -0.01362 0.44134 0.21016
 C2 C 0.05803 0.45067 0.24175
 C3 C 0.06631 0.50446 0.28341
 C4 C -0.00105 0.54579 0.28872
 C5 C -0.05662 0.44132 0.26974
 C6 C -0.05023 0.49419 0.31154
 C7 C -0.03434 0.50774 0.17380
 C8 C -0.02765 0.56267 0.21399
 H9 H 0.09929 0.41855 0.22739
 H10 H 0.00291 0.59018 0.32185
 H11 H -0.09772 0.40899 0.27398
 H12 H -0.04995 0.51119 0.12001
 C13 C 0.04491 0.43974 0.79140
 C14 C 0.00312 0.42392 0.73039
 C15 C -0.01112 0.47743 0.68268
 C16 C 0.02611 0.53669 0.70220
 C17 C 0.10696 0.46199 0.76829
 C18 C 0.09731 0.51326 0.71691
 C19 C 0.01406 0.50134 0.81745
 C20 C 0.00518 0.55665 0.76860
 H21 H -0.02629 0.37951 0.72805
 H22 H 0.01956 0.57662 0.66272
 H23 H 0.15640 0.44296 0.78879
 H24 H 0.00416 0.50638 0.86989
 C25 C 0.20911 0.01394 0.44692
 C26 C 0.25545 0.07204 0.45707
 C27 C 0.29894 0.06805 0.51437
 C28 C 0.29405 0.00304 0.55578
 C29 C 0.25629 -0.04910 0.44976
 C30 C 0.30185 -0.05443 0.50464
 C31 C 0.17491 0.00972 0.51240
 C32 C 0.21868 0.00461 0.56984
 H33 H 0.25165 0.11462 0.42256
 H34 H 0.33051 -0.00131 0.60166
 H35 H 0.25181 -0.08894 0.41307
 H36 H 0.12087 0.00838 0.51303
 C37 C 0.74455 -0.00087 0.39271
 C38 C 0.72975 -0.06961 0.40384
 C39 C 0.70674 -0.08253 0.46770
 C40 C 0.69812 -0.02238 0.50807
 C41 C 0.67930 0.03947 0.40220
 C42 C 0.65482 0.02961 0.46262
 C43 C 0.79357 0.01695 0.45443
 C44 C 0.76934 0.00461 0.51533
 H45 H 0.73711 -0.10861 0.36714
 H46 H 0.67738 -0.03134 0.55696
 H47 H 0.66400 0.08492 0.37382
 H48 H 0.84400 0.03302 0.45009
 C49 C 0.40698 0.21488 1.01396
 C50 C 0.41873 0.26027 1.07019
 C51 C 0.47966 0.29536 1.06971
 C52 C 0.51786 0.27844 1.01071
 C53 C 0.40829 0.25752 0.95500
 C54 C 0.46868 0.29189 0.95067
 C55 C 0.46736 0.17108 1.01663
 C56 C 0.52897 0.20480 1.01453
 H57 H 0.38493 0.27007 1.10865
 H58 H 0.56439 0.30657 1.01010
 H59 H 0.36779 0.25909 0.91435
 H60 H 0.46499 0.11703 1.01531
 C61 C 0.42768 0.78373 0.97140
 C62 C 0.44538 0.71727 0.93888
 C63 C 0.50840 0.69133 0.95923
 C64 C 0.53911 0.72534 1.02532
 C65 C 0.42501 0.76342 1.04462
 C66 C 0.48227 0.73302 1.07476
 C67 C 0.48722 0.82480 0.97039
 C68 C 0.54850 0.79312 1.00256
 H69 H 0.42183 0.70441 0.88961
 H70 H 0.58612 0.69860 1.04786
 H71 H 0.37868 0.76884 1.06873
 H72 H 0.48532 0.87433 0.94759
 B73 B 0.97140 1.06773 0.03055
 B74 B 0.96960 1.07357 -0.05607
 B75 B 1.04294 1.04883 -0.00835
 B76 B 1.02444 0.99934 0.05771
 B77 B 0.93908 0.99217 0.05120
 B78 B 0.90354 1.03776 -0.02039
 B79 B 0.98669 0.93122 -0.06232
 B80 B 0.98994 0.92762 0.02451
 B81 B 0.91470 0.95133 -0.02283
 B82 B 0.93389 1.00021 -0.09022
 B83 B 1.01996 1.00802 -0.08431
 B84 B 1.05536 0.96324 -0.01380
 B85 B 0.59309 0.49640 0.47942
 B86 B 0.59637 0.48951 0.56579
 B87 B 0.56450 0.56320 0.52587
 B88 B 0.51989 0.54079 0.44899
 B89 B 0.52281 0.45469 0.44549
 B90 B 0.56871 0.42169 0.51590
 B91 B 0.45567 0.49371 0.55876
 B92 B 0.45197 0.49824 0.47030
 B93 B 0.48067 0.42525 0.51399
 B94 B 0.52821 0.44431 0.58563
 B95 B 0.52686 0.53034 0.59257
 B96 B 0.47831 0.56492 0.51965
 C97 C 1.02054 1.37555 0.10870
 C98 C 0.98323 1.37930 0.16546
 C99 C 0.94970 1.32208 0.18305
 C100 C 0.95375 1.26336 0.14588
 C101 C 0.99335 1.25917 0.09160
 C102 C 1.02608 1.31594 0.07246
 C103 C 1.00010 1.19812 0.05780
 C104 C 0.96569 1.13993 0.07400
 C105 C 0.92625 1.14834 0.12874
 C106 C 0.92040 1.20771 0.16409
 H107 H 0.92221 1.32032 0.22695
 H108 H 1.05661 1.31401 0.03016
 H109 H 1.03191 1.19821 0.01732
 H110 H 0.89062 1.20939 0.20703
 H111 H 1.04753 1.41817 0.09401
 H112 H 0.90411 1.10900 0.15105
 C113 C 0.90250 0.64679 0.14042
 C114 C 0.96080 0.63102 0.18435
 C115 C 1.01231 0.67655 0.19064
 C116 C 1.00700 0.73553 0.15082
 C117 C 0.94908 0.75024 0.10587
 C118 C 0.89654 0.70593 0.10172
 C119 C 0.94620 0.80696 0.06293
 C120 C 0.99690 0.85424 0.06741
 C121 C 1.05731 0.83144 0.10524
 C122 C 1.06175 0.77581 0.14875
 H123 H 1.05844 0.66362 0.22240
 H124 H 0.85162 0.71615 0.06727
 H125 H 0.90866 0.80824 0.02091
 H126 H 1.10973 0.76142 0.17662
 H127 H 0.86245 0.61204 0.13440
 H128 H 1.10371 0.84805 0.09235
 C129 C 1.10085 1.32857 -0.17584
 C130 C 1.05114 1.37981 -0.16539
 C131 C 0.99495 1.36085 -0.13209
 C132 C 0.98646 1.29312 -0.11577
 C133 C 1.03473 1.24360 -0.13063
 C134 C 1.09296 1.26209 -0.15818
 C135 C 1.02492 1.17588 -0.11757
 C136 C 0.96895 1.15310 -0.08686
 C137 C 0.92427 1.20609 -0.06786
 C138 C 0.93065 1.27359 -0.08479
 H139 H 0.95466 1.39760 -0.12468
 H140 H 1.13121 1.22447 -0.16935
 H141 H 1.06450 1.14216 -0.12880
 H142 H 0.89453 1.31098 -0.06877
 H143 H 1.14356 1.33743 -0.20358
 H144 H 0.88971 1.19830 -0.03071
 C145 C 0.96355 0.67430 -0.26189
 C146 C 0.99070 0.62467 -0.21389
 C147 C 1.00893 0.64612 -0.14773
 C148 C 1.00272 0.71405 -0.13106
 C149 C 0.96947 0.76168 -0.17674
 C150 C 0.94912 0.74067 -0.24246
 C151 C 0.96058 0.82963 -0.15669
 C152 C 0.99406 0.85356 -0.09559
 C153 C 1.03368 0.80325 -0.05699
 C154 C 1.03441 0.73566 -0.07101
 H155 H 1.03456 0.61150 -0.11044
 H156 H 0.92587 0.77643 -0.28001
 H157 H 0.92753 0.86118 -0.18951
 H158 H 1.06435 0.70090 -0.03672
 H159 H 0.95234 0.66314 -0.31466
 H160 H 1.06849 0.81517 -0.01564
 C161 C 1.09892 1.05467 0.37603
 C162 C 1.16367 1.02210 0.38104
 C163 C 1.18927 0.99985 0.32159
 C164 C 1.14881 1.00061 0.26085
 C165 C 1.08423 1.03226 0.25488
 C166 C 1.05980 1.06056 0.31303
 C167 C 1.04562 1.03343 0.19121
 C168 C 1.06800 0.99869 0.13440
 C169 C 1.12984 0.96198 0.14787
 C170 C 1.17119 0.96591 0.20711
 H171 H 1.24060 0.97929 0.32254
 H172 H 1.01018 1.08556 0.31016
 H173 H 0.99708 1.05785 0.18830
 H174 H 1.21964 0.93828 0.21190
 H175 H 1.07878 1.07606 0.42023
 H176 H 1.15030 0.92922 0.11407
 C177 C 1.23159 0.96734 -0.30812
 C178 C 1.19448 1.00312 -0.36157
 C179 C 1.13311 1.03694 -0.34941
 C180 C 1.10821 1.03296 -0.28581
 C181 C 1.14481 0.99551 -0.23336
 C182 C 1.20721 0.96391 -0.24445
 C183 C 1.11937 0.99104 -0.17009
 C184 C 1.05561 1.01927 -0.15691
 C185 C 1.02312 1.06097 -0.20995
 C186 C 1.04816 1.06709 -0.27304
 H187 H 1.10478 1.06682 -0.38920
 H188 H 1.23649 0.93532 -0.20426
 H189 H 1.15480 0.97389 -0.13042
 H190 H 1.01979 1.09787 -0.31210
 H191 H 1.27865 0.94058 -0.31583
 H192 H 0.97592 1.08796 -0.20393
 C193 C 0.73684 1.04540 0.27135
 C194 C 0.77181 1.00738 0.32506
 C195 C 0.83070 0.96970 0.31331
 C196 C 0.85356 0.96919 0.24933
 C197 C 0.81921 1.00877 0.19713
 C198 C 0.76119 1.04698 0.20846
 C199 C 0.84543 1.01337 0.13529
 C200 C 0.90573 0.97986 0.12221
 C201 C 0.93716 0.93721 0.17478
 C202 C 0.91170 0.93202 0.23723
 H203 H 0.85758 0.93947 0.35383
 H204 H 0.73424 1.07773 0.16848
 H205 H 0.82580 1.05437 0.10416
 H206 H 0.93928 0.90134 0.27691
 H207 H 0.69001 1.07330 0.27563
 H208 H 0.98533 0.91234 0.17230
 C209 C 0.87820 0.98100 -0.41196
 C210 C 0.81027 1.00440 -0.41831
 C211 C 0.77892 1.01983 -0.35956
 C212 C 0.81429 1.01115 -0.29550
 C213 C 0.88175 0.98658 -0.28932
 C214 C 0.91357 0.97173 -0.34790
 C215 C 0.91635 0.97743 -0.22464
 C216 C 0.88831 0.99925 -0.16521
 C217 C 0.81817 1.01541 -0.17368
 C218 C 0.78223 1.02319 -0.23722
 H219 H 0.72655 1.03762 -0.36336
 H220 H 0.96557 0.95267 -0.34416
 H221 H 0.96630 0.95385 -0.22161
 H222 H 0.72883 1.03709 -0.24053
 H223 H 0.90318 0.96724 -0.45628
 H224 H 0.78807 1.01669 -0.13209
 C225 C 1.33177 1.14100 -0.05230
 C226 C 1.34609 1.17775 0.00779
 C227 C 1.29759 1.18034 0.05518
 C228 C 1.23461 1.15346 0.03920
 C229 C 1.21892 1.12531 -0.02473
 C230 C 1.26834 1.11749 -0.06946
 C231 C 1.15548 1.10084 -0.04173
 C232 C 1.10793 1.09624 0.00566
 C233 C 1.12670 1.12221 0.07098
 C234 C 1.18742 1.15278 0.08650
 H235 H 1.30741 1.20255 0.10429
 H236 H 1.25812 1.09290 -0.11764
 H237 H 1.14746 1.07912 -0.08999
 H238 H 1.19863 1.17293 0.13666
 H239 H 1.36869 1.13488 -0.08872
 H240 H 1.09512 1.11914 0.11149
 C241 C 0.60001 1.10298 0.04235
 C242 C 0.59126 1.16790 0.01296
 C243 C 0.64401 1.19175 -0.02156
 C244 C 0.70126 1.15008 -0.03050
 C245 C 0.70957 1.08671 0.00092
 C246 C 0.65856 1.06329 0.03700
 C247 C 0.76984 1.04840 -0.00253
 C248 C 0.82583 1.07437 -0.03023
 C249 C 0.80738 1.12716 -0.07724
 C250 C 0.74884 1.16810 -0.07362
 H251 H 0.64001 1.24096 -0.04415
 H252 H 0.66412 1.01443 0.06156
 H253 H 0.77363 1.00128 0.02255
 H254 H 0.74006 1.21229 -0.10582
 H255 H 0.56252 1.08307 0.07181
 H256 H 0.83772 1.13665 -0.11793
 C257 C 1.31056 0.78510 -0.09658
 C258 C 1.36061 0.81779 -0.05523
 C259 C 1.34209 0.87727 -0.02389
 C260 C 1.27459 0.89802 -0.02489
 C261 C 1.22429 0.86270 -0.06159
 C262 C 1.24319 0.80845 -0.10076
 C263 C 1.15611 0.88226 -0.05851
 C264 C 1.13556 0.93438 -0.01560
 C265 C 1.18957 0.96919 0.01734
 C266 C 1.25671 0.95203 0.01320
 H267 H 1.37957 0.90310 0.00800
 H268 H 1.20548 0.78119 -0.13069
 H269 H 1.12168 0.86377 -0.09793
 H270 H 1.29463 0.98013 0.04197
 H271 H 1.32086 0.73911 -0.12241
 H272 H 1.18247 1.00841 0.05198
 C273 C 0.65145 0.81893 0.07179
 C274 C 0.61270 0.82078 0.00854
 C275 C 0.64293 0.84266 -0.04869
 C276 C 0.71124 0.85978 -0.04256
 C277 C 0.74720 0.86280 0.02180
 C278 C 0.71679 0.84221 0.07882
 C279 C 0.81295 0.88649 0.02821
 C280 C 0.84555 0.90649 -0.02903
 C281 C 0.81299 0.88908 -0.09228
 C282 C 0.74580 0.87032 -0.09953
 H283 H 0.61536 0.84180 -0.09834
 H284 H 0.74406 0.84278 0.12874
 H285 H 0.83773 0.88899 0.07839
 H286 H 0.72133 0.86295 -0.14989
 H287 H 0.63021 0.80127 0.11652
 H288 H 0.83775 0.89185 -0.13752
 C289 C 0.89823 0.44328 0.40710
 C290 C 0.90283 0.49991 0.36527
 C291 C 0.84899 0.54812 0.35920
 C292 C 0.78929 0.53663 0.38942
 C293 C 0.78283 0.47658 0.42544
 C294 C 0.83859 0.43110 0.43574
 C295 C 0.72044 0.46221 0.44918
 C296 C 0.66486 0.50860 0.44402
 C297 C 0.67506 0.56963 0.40970
 C298 C 0.73454 0.58260 0.38147
 H299 H 0.85114 0.59123 0.32613
 H300 H 0.83527 0.38477 0.46360
 H301 H 0.71563 0.41434 0.46997
 H302 H 0.73803 0.62966 0.35487
 H303 H 0.93863 0.40480 0.41171
 H304 H 0.63729 0.61026 0.40618
 C305 C 0.15133 0.58380 0.34045
 C306 C 0.13490 0.51959 0.31700
 C307 C 0.18620 0.46833 0.32398
 C308 C 0.25187 0.48055 0.35044
 C309 C 0.26824 0.54430 0.37468
 C310 C 0.21717 0.59594 0.36927
 C311 C 0.33400 0.55361 0.40674
 C312 C 0.38166 0.49825 0.41859
 C313 C 0.36424 0.43750 0.38692
 C314 C 0.30101 0.42861 0.35402
 H315 H 0.17550 0.41743 0.31029
 H316 H 0.22798 0.64555 0.38763
 H317 H 0.34450 0.60174 0.42811
 H318 H 0.28975 0.37966 0.33400
 H319 H 0.11374 0.62484 0.33627
 H320 H 0.39833 0.39370 0.39151
 C321 C 0.90323 0.41656 0.61810
 C322 C 0.92578 0.47772 0.64435
 C323 C 0.87810 0.53146 0.64904
 C324 C 0.80906 0.52108 0.63785
 C325 C 0.78788 0.45731 0.61976
 C326 C 0.83491 0.40557 0.60865
 C327 C 0.71966 0.44550 0.61525
 C328 C 0.67042 0.49702 0.61035
 C329 C 0.69179 0.55778 0.63999
 C330 C 0.76040 0.57033 0.65233
 H331 H 0.89299 0.57823 0.67001
 H332 H 0.81906 0.35634 0.59370
 H333 H 0.70711 0.39714 0.62854
 H334 H 0.77501 0.61861 0.67164
 H335 H 0.93870 0.37481 0.61161
 H336 H 0.65653 0.59751 0.65140
 C337 C 0.14299 0.53675 0.60929
 C338 C 0.15137 0.52945 0.68024
 C339 C 0.21718 0.52684 0.71321
 C340 C 0.27326 0.52265 0.67629
 C341 C 0.26457 0.52179 0.60539
 C342 C 0.19932 0.53205 0.57204
 C343 C 0.32106 0.51044 0.56910
 C344 C 0.38747 0.49940 0.60131
 C345 C 0.39345 0.50684 0.67278
 C346 C 0.33791 0.51711 0.70943
 H347 H 0.22493 0.52560 0.76807
 H348 H 0.19165 0.53337 0.51721
 H349 H 0.31162 0.51264 0.51591
 H350 H 0.34574 0.51935 0.76419
 H351 H 0.09323 0.53924 0.58206
 H352 H 0.44074 0.50190 0.70283
 C353 C 0.44034 0.73982 0.19155
 C354 C 0.48466 0.71023 0.14710
 C355 C 0.52660 0.65566 0.17109
 C356 C 0.52256 0.62958 0.23645
 C357 C 0.47544 0.65639 0.27901
 C358 C 0.43466 0.71232 0.25584
 C359 C 0.47038 0.62699 0.34374
 C360 C 0.51756 0.57624 0.37094
 C361 C 0.56109 0.54986 0.32343
 C362 C 0.56393 0.57534 0.25896
 H363 H 0.56092 0.63192 0.13837
 H364 H 0.39901 0.73534 0.28763
 H365 H 0.42871 0.64320 0.37084
 H366 H 0.59932 0.55231 0.22682
 H367 H 0.40902 0.78416 0.17671
 H368 H 0.59530 0.50761 0.33430
 C369 C 0.53836 0.72559 0.84573
 C370 C 0.54640 0.67687 0.89888
 C371 C 0.56292 0.61053 0.88165
 C372 C 0.55947 0.59281 0.81269
 C373 C 0.53057 0.63864 0.76274
 C374 C 0.52332 0.70599 0.77907
 C375 C 0.51079 0.61648 0.69718
 C376 C 0.53875 0.55645 0.67273
 C377 C 0.57787 0.51592 0.72306
 C378 C 0.58273 0.53054 0.79202
 H379 H 0.57329 0.57247 0.92093
 H380 H 0.50580 0.74326 0.74059
 H381 H 0.47274 0.64640 0.66797
 H382 H 0.60897 0.49516 0.82825
 H383 H 0.52795 0.77774 0.85636
 H384 H 0.60696 0.47270 0.71059
 C385 C 0.44247 0.39186 0.13113
 C386 C 0.49377 0.34310 0.12064
 C387 C 0.54577 0.33047 0.17346
 C388 C 0.54250 0.36191 0.23721
 C389 C 0.48822 0.40714 0.24741
 C390 C 0.44025 0.42412 0.19308
 C391 C 0.48216 0.43505 0.31168
 C392 C 0.52776 0.41788 0.36944
 C393 C 0.58594 0.37866 0.35482
 C394 C 0.59196 0.34916 0.29133
 H395 H 0.58498 0.29214 0.16725
 H396 H 0.39867 0.45970 0.19956
 H397 H 0.44518 0.47571 0.31377
 H398 H 0.63626 0.31741 0.28434
 H399 H 0.40134 0.40215 0.09207
 H400 H 0.62890 0.37166 0.39156
 C401 C 0.41680 0.35514 0.85267
 C402 C 0.47589 0.32679 0.88923
 C403 C 0.53581 0.32369 0.85639
 C404 C 0.53394 0.34139 0.78682
 C405 C 0.47243 0.36312 0.75086
 C406 C 0.41434 0.36995 0.78416
 C407 C 0.47005 0.38067 0.68230
 C408 C 0.52905 0.39219 0.65184
 C409 C 0.58710 0.35681 0.68266
 C410 C 0.59062 0.33374 0.75032
 H411 H 0.58223 0.30370 0.88236
 H412 H 0.36679 0.38745 0.75743
 H413 H 0.42152 0.38774 0.65410
 H414 H 0.63753 0.31108 0.77401
 H415 H 0.37057 0.36324 0.87656
 H416 H 0.62966 0.34739 0.65574
 C417 C 0.74908 0.80035 0.47146
 C418 C 0.70483 0.85200 0.49231
 C419 C 0.65582 0.83601 0.53445
 C420 C 0.64398 0.76908 0.54601
 C421 C 0.68509 0.71732 0.52143
 C422 C 0.74068 0.73355 0.48812
 C423 C 0.66636 0.65079 0.52580
 C424 C 0.60046 0.63633 0.53966
 C425 C 0.56772 0.68806 0.57404
 C426 C 0.58843 0.75294 0.57769
 H427 H 0.62110 0.87455 0.55091
 H428 H 0.77410 0.69473 0.47014
 H429 H 0.70367 0.61155 0.51894
 H430 H 0.55732 0.79126 0.59990
 H431 H 0.79020 0.81141 0.44201
 H432 H 0.52213 0.68224 0.59399
 C433 C 0.55593 0.10980 0.45210
 C434 C 0.61769 0.08826 0.48770
 C435 C 0.65638 0.13524 0.52353
 C436 C 0.63832 0.20347 0.51695
 C437 C 0.57884 0.22552 0.47794
 C438 C 0.53659 0.17808 0.44721
 C439 C 0.56253 0.29466 0.47092
 C440 C 0.60110 0.34317 0.50754
 C441 C 0.66552 0.31829 0.53425
 C442 C 0.68270 0.25035 0.54238
 H443 H 0.70535 0.12006 0.54853
 H444 H 0.49014 0.19389 0.41730
 H445 H 0.51611 0.30946 0.44086
 H446 H 0.73232 0.23463 0.56598
 H447 H 0.52628 0.07453 0.42245
 H448 H 0.70674 0.34798 0.54407
 C449 C 0.40027 0.87907 0.46646
 C450 C 0.34974 0.88628 0.51114
 C451 C 0.33366 0.83004 0.54754
 C452 C 0.36606 0.76711 0.53806
 C453 C 0.41556 0.75947 0.49227
 C454 C 0.43338 0.81648 0.45759
 C455 C 0.44739 0.69548 0.48341
 C456 C 0.43268 0.63796 0.52119
 C457 C 0.38429 0.65013 0.56797
 C458 C 0.35035 0.71180 0.57474
 H459 H 0.29345 0.83464 0.58055
 H460 H 0.47152 0.81237 0.42232
 H461 H 0.48939 0.69277 0.45296
 H462 H 0.31434 0.71696 0.61220
 H463 H 0.41186 0.92144 0.43606
 H464 H 0.37613 0.61627 0.60675
 C465 C 0.40626 0.11889 0.56436
 C466 C 0.33889 0.12630 0.53632
 C467 C 0.31002 0.19123 0.52354
 C468 C 0.34935 0.24708 0.53048
 C469 C 0.41786 0.23965 0.55404
 C470 C 0.44527 0.17547 0.57425
 C471 C 0.45785 0.29609 0.55432
 C472 C 0.43302 0.35858 0.52350
 C473 C 0.36212 0.36455 0.51143
 C474 C 0.32126 0.31039 0.51291
 H475 H 0.25723 0.19820 0.50494
 H476 H 0.49778 0.16853 0.59369
 H477 H 0.50885 0.28960 0.57735
 H478 H 0.26763 0.31805 0.49845
 H479 H 0.42951 0.06947 0.57553
 H480 H 0.33598 0.41068 0.49882
   
