data_POSCAR
  _audit_creation_date              2014-09-24
  _audit_creation_method            'ToBaCCo'
  _symmetry_space_group_name_H-M    'P1'
  _symmetry_Int_Tables_number       1
  _symmetry_cell_setting            triclinic
  loop_
  _symmetry_equiv_pos_as_xyz
 x,y,z
_cell_length_a 10.8171
_cell_length_b 34.2897
_cell_length_c 11.1678
_cell_angle_alpha 90.351700
_cell_angle_beta 75.929500
_cell_angle_gamma 89.731600
loop_
  _atom_site_label
  _atom_site_type_symbol
  _atom_site_fract_x
  _atom_site_fract_y
  _atom_site_fract_z
N1 N 0.22295 0.03238 0.10033
 N2 N 0.28814 0.06511 0.09488
 N3 N 0.10768 -0.04980 0.18141
 N4 N 0.09729 -0.08422 0.23568
 N5 N 0.20500 -0.04979 0.08434
 N6 N 0.26319 -0.08408 0.07073
 N7 N 0.12693 0.03252 0.19854
 N8 N 0.12533 0.06535 0.26157
 C9 C 0.22768 0.08498 0.19722
 C10 C 0.19623 -0.10498 0.16664
 N11 N -0.24544 -0.03766 0.15255
 N12 N -0.32051 -0.06827 0.16104
 N13 N -0.14542 0.03963 0.23886
 N14 N -0.13922 0.07227 0.30060
 N15 N -0.22553 0.04358 0.16805
 N16 N -0.27717 0.08111 0.18190
 N17 N -0.16549 -0.04196 0.22324
 N18 N -0.18430 -0.07558 0.28138
 Mn19 Mn -0.01918 -0.00504 0.21193
 C20 C -0.28296 -0.09117 0.24369
 C21 C -0.22196 0.09697 0.26670
 N22 N 0.23305 -0.04359 -0.17808
 N23 N 0.28611 -0.08089 -0.19055
 N24 N 0.16930 0.04145 -0.23296
 N25 N 0.17967 0.07652 -0.28232
 N26 N 0.24915 0.03750 -0.16188
 N27 N 0.31578 0.06963 -0.16218
 N28 N 0.15123 -0.04056 -0.24736
 N29 N 0.14476 -0.07373 -0.30630
 Mn30 Mn 0.22858 -0.00592 -0.03887
 C31 C 0.22938 -0.09774 -0.27239
 C32 C 0.27339 0.09328 -0.23964
 N33 N -0.19884 0.04938 -0.09523
 N34 N -0.25845 0.08342 -0.08644
 N35 N -0.12219 -0.03395 -0.20657
 N36 N -0.11918 -0.06759 -0.26591
 N37 N -0.22012 -0.03259 -0.10999
 N38 N -0.28778 -0.06744 -0.10282
 N39 N -0.10307 0.04831 -0.19352
 N40 N -0.09523 0.08157 -0.25396
 Mn41 Mn -0.22349 0.00578 0.02905
 Mn42 Mn 0.02405 0.00383 -0.22156
 Cl43 Cl 0.00238 -0.00036 -0.00491
 C44 C -0.19374 0.10288 -0.18711
 C45 C -0.22190 -0.08742 -0.20279
 N46 N 0.69984 0.55013 0.59940
 N47 N 0.75744 0.58429 0.59173
 N48 N 0.62302 0.46755 0.70852
 N49 N 0.61968 0.43446 0.76927
 N50 N 0.72196 0.46785 0.61284
 N51 N 0.78737 0.43493 0.60717
 N52 N 0.60131 0.54965 0.69510
 N53 N 0.58937 0.58343 0.75457
 C54 C 0.68842 0.60446 0.69007
 C55 C 0.72397 0.41480 0.70659
 N56 N 0.27583 0.45667 0.66659
 N57 N 0.22401 0.42172 0.67945
 N58 N 0.33038 0.54242 0.72717
 N59 N 0.31514 0.57724 0.77959
 N60 N 0.25427 0.53826 0.65249
 N61 N 0.18571 0.57021 0.65269
 N62 N 0.35139 0.46107 0.74167
 N63 N 0.35204 0.42929 0.80751
 Mn64 Mn 0.47639 0.50523 0.71946
 C65 C 0.27016 0.40545 0.76958
 C66 C 0.22265 0.59378 0.73452
 N67 N 0.75683 0.46214 0.34928
 N68 N 0.82394 0.42999 0.35129
 N69 N 0.65800 0.53931 0.26052
 N70 N 0.64806 0.57231 0.20318
 N71 N 0.73325 0.54390 0.33597
 N72 N 0.77531 0.58005 0.33126
 N73 N 0.67987 0.45755 0.27565
 N74 N 0.69284 0.42221 0.22666
 Mn75 Mn 0.72936 0.50611 0.47389
 C76 C 0.78498 0.40576 0.27244
 C77 C 0.72370 0.59708 0.24625
 N78 N 0.28940 0.53262 0.38832
 N79 N 0.22330 0.56529 0.38979
 N80 N 0.40864 0.45032 0.30772
 N81 N 0.41807 0.41678 0.24721
 N82 N 0.30975 0.45023 0.40315
 N83 N 0.24965 0.41653 0.41005
 N84 N 0.38718 0.53187 0.29167
 N85 N 0.38851 0.56358 0.22503
 Mn86 Mn 0.28081 0.49439 0.52803
 Mn87 Mn 0.53392 0.49464 0.28259
 Cl88 Cl 0.50498 0.50009 0.50104
 C89 C 0.28497 0.58381 0.28585
 C90 C 0.31735 0.39629 0.31119
 C91 C 0.26368 0.20342 0.23728
 C92 C 0.39931 0.21933 0.19282
 C93 C 0.40629 0.25880 0.20405
 C94 C 0.27711 0.27859 0.25919
 C95 C 0.22328 0.25773 0.38192
 C96 C 0.21656 0.21829 0.37049
 C97 C 0.18440 0.22619 0.16361
 C98 C 0.19150 0.26573 0.17510
 C99 C 0.25548 0.16082 0.22536
 C100 C 0.24557 0.12600 0.21432
 C101 C 0.28669 0.32105 0.27392
 C102 C 0.29838 0.35560 0.28940
 H103 H 0.48228 0.20130 0.15381
 H104 H 0.49506 0.27454 0.17341
 H105 H 0.18918 0.27276 0.46963
 H106 H 0.17814 0.19959 0.44865
 H107 H 0.12787 0.21245 0.10727
 H108 H 0.14111 0.28581 0.12863
 C109 C 0.67463 0.79108 0.25781
 C110 C 0.67268 0.77428 0.13080
 C111 C 0.67991 0.73464 0.12495
 C112 C 0.68851 0.71579 0.24659
 C113 C 0.57168 0.73129 0.34296
 C114 C 0.56414 0.77109 0.34848
 C115 C 0.79555 0.77440 0.28683
 C116 C 0.80250 0.73489 0.28110
 C117 C 0.67353 0.83362 0.26141
 C118 C 0.68642 0.86840 0.25753
 C119 C 0.70071 0.67334 0.23969
 C120 C 0.71302 0.63848 0.23825
 H121 H 0.66075 0.79197 0.05417
 H122 H 0.67367 0.71815 0.04354
 H123 H 0.50121 0.71267 0.40074
 H124 H 0.48637 0.78679 0.40940
 H125 H 0.86732 0.79204 0.31416
 H126 H 0.87827 0.71862 0.30632
 C127 C 0.76907 0.22081 0.76264
 C128 C 0.72028 0.24230 0.88629
 C129 C 0.71462 0.28176 0.87557
 C130 C 0.75794 0.29607 0.74210
 C131 C 0.67456 0.27375 0.67142
 C132 C 0.68043 0.23417 0.68220
 C133 C 0.89808 0.23954 0.70367
 C134 C 0.89236 0.27905 0.69330
 C135 C 0.77723 0.17828 0.77684
 C136 C 0.78792 0.14367 0.79191
 C137 C 0.75091 0.33873 0.73114
 C138 C 0.74164 0.37363 0.72140
 H139 H 0.68965 0.22770 0.97442
 H140 H 0.68027 0.30088 0.95466
 H141 H 0.61637 0.28781 0.61738
 H142 H 0.62752 0.21440 0.63723
 H143 H 0.98561 0.22306 0.66934
 H144 H 0.97527 0.29637 0.65161
 C145 C 0.21420 0.78737 0.71577
 C146 C 0.16950 0.77226 0.84826
 C147 C 0.16155 0.73270 0.85512
 C148 C 0.19947 0.71228 0.72911
 C149 C 0.33383 0.72715 0.66923
 C150 C 0.34160 0.76666 0.66264
 C151 C 0.12075 0.76992 0.64666
 C152 C 0.11307 0.73031 0.65362
 C153 C 0.22273 0.82977 0.71019
 C154 C 0.22782 0.86471 0.71375
 C155 C 0.19487 0.66985 0.73645
 C156 C 0.20125 0.63491 0.73893
 H157 H 0.14458 0.79108 0.92915
 H158 H 0.12868 0.71737 0.94137
 H159 H 0.41636 0.70827 0.63753
 H160 H 0.43083 0.78171 0.62704
 H161 H 0.06500 0.78715 0.59734
 H162 H 0.05100 0.71351 0.61004
 C163 C 0.29304 0.21183 0.77662
 C164 C 0.37414 0.22922 0.85895
 C165 C 0.36698 0.26895 0.86750
 C166 C 0.27942 0.28701 0.79287
 C167 C 0.15054 0.26703 0.83969
 C168 C 0.15770 0.22747 0.83139
 C169 C 0.33808 0.23216 0.65207
 C170 C 0.33113 0.27168 0.66061
 C171 C 0.29711 0.16939 0.76613
 C172 C 0.29157 0.13449 0.75984
 C173 C 0.27115 0.32949 0.79734
 C174 C 0.26727 0.36440 0.79048
 H175 H 0.43188 0.21195 0.90610
 H176 H 0.41827 0.28576 0.92230
 H177 H 0.06185 0.28253 0.87775
 H178 H 0.07496 0.20903 0.86283
 H179 H 0.37472 0.21690 0.56514
 H180 H 0.36224 0.29033 0.58079
 C181 C 0.74019 0.79808 0.75588
 C182 C 0.60544 0.78241 0.80870
 C183 C 0.59683 0.74289 0.79934
 C184 C 0.72354 0.72285 0.73684
 C185 C 0.81708 0.73575 0.81253
 C186 C 0.82576 0.77524 0.82267
 C187 C 0.77756 0.78300 0.62235
 C188 C 0.76885 0.74351 0.61255
 C189 C 0.75053 0.84065 0.76773
 C190 C 0.76193 0.87539 0.78023
 C191 C 0.71376 0.68027 0.72398
 C192 C 0.70390 0.64552 0.71013
 H193 H 0.52379 0.80081 0.84892
 H194 H 0.50816 0.72739 0.83356
 H195 H 0.87160 0.71568 0.85473
 H196 H 0.88771 0.78891 0.87370
 H197 H 0.80989 0.80164 0.54286
 H198 H 0.79439 0.72818 0.52500
 C199 C 0.23765 0.77634 0.20160
 C200 C 0.35535 0.75761 0.11466
 C201 C 0.36292 0.71812 0.12762
 C202 C 0.25210 0.70130 0.22662
 C203 C 0.13199 0.71462 0.18874
 C204 C 0.12426 0.75400 0.17572
 C205 C 0.24486 0.76387 0.33114
 C206 C 0.25239 0.72453 0.34422
 C207 C 0.22681 0.81891 0.18933
 C208 C 0.21433 0.85374 0.18002
 C209 C 0.25889 0.65890 0.24403
 C210 C 0.26695 0.62438 0.26204
 H211 H 0.42618 0.77390 0.04901
 H212 H 0.43983 0.70056 0.07224
 H213 H 0.06297 0.69464 0.16683
 H214 H 0.04846 0.76770 0.14264
 H215 H 0.25009 0.78430 0.40421
 H216 H 0.26418 0.71118 0.42845
 C217 C 0.79048 0.21177 0.29427
 C218 C 0.84147 0.22747 0.16318
 C219 C 0.84851 0.26700 0.15785
 C220 C 0.80428 0.28699 0.28413
 C221 C 0.88567 0.26876 0.36457
 C222 C 0.87837 0.22905 0.36995
 C223 C 0.66163 0.23222 0.34318
 C224 C 0.66891 0.27180 0.33798
 C225 C 0.78264 0.16925 0.29539
 C226 C 0.77840 0.13435 0.28621
 C227 C 0.80899 0.32951 0.27698
 C228 C 0.80390 0.36448 0.27226
 H229 H 0.87081 0.20907 0.08159
 H230 H 0.88330 0.28249 0.07189
 H231 H 0.94363 0.28551 0.41287
 H232 H 0.92944 0.21172 0.42351
 H233 H 0.57280 0.21702 0.37994
 H234 H 0.58616 0.29054 0.37049
   
