data_POSCAR
  _audit_creation_date              2014-09-24
  _audit_creation_method            'ToBaCCo'
  _symmetry_space_group_name_H-M    'P1'
  _symmetry_Int_Tables_number       1
  _symmetry_cell_setting            triclinic
  loop_
  _symmetry_equiv_pos_as_xyz
 x,y,z
_cell_length_a 19.5912
_cell_length_b 19.7441
_cell_length_c 20.7261
_cell_angle_alpha 97.305000
_cell_angle_beta 92.508700
_cell_angle_gamma 88.651800
loop_
  _atom_site_label
  _atom_site_type_symbol
  _atom_site_fract_x
  _atom_site_fract_y
  _atom_site_fract_z
C1 C 0.63735 0.51275 -0.06339
 C2 C 0.63356 0.58422 -0.05935
 C3 C 0.57985 0.62316 -0.02982
 C4 C 0.52800 0.58740 -0.00269
 C5 C 0.52590 0.51462 -0.01562
 C6 C 0.57829 0.47773 -0.05042
 C7 C 0.57058 0.40714 -0.06932
 C8 C 0.51795 0.37174 -0.04673
 C9 C 0.47034 0.40564 -0.00497
 C10 C 0.47280 0.47822 0.00863
 C11 C 0.48242 0.62051 0.04176
 C12 C 0.43073 0.58492 0.06565
 C13 C 0.42168 0.51475 0.04550
 C14 C 0.36326 0.47968 0.06053
 C15 C 0.36631 0.40786 0.05402
 C16 C 0.41841 0.36993 0.02137
 H17 H 0.60393 0.37858 -0.10343
 H18 H 0.51457 0.31777 -0.06336
 H19 H 0.48804 0.67341 0.06145
 H20 H 0.39971 0.61283 0.10221
 H21 H 0.67449 0.61034 -0.07868
 H22 H 0.32572 0.38018 0.07209
 C23 C 0.02504 0.63049 0.43802
 C24 C 0.01197 0.60105 0.37387
 C25 C -0.00641 0.53207 0.35884
 C26 C -0.00640 0.49107 0.41121
 C27 C 0.00233 0.52234 0.47690
 C28 C 0.01605 0.59254 0.49007
 C29 C 0.01938 0.62351 0.55515
 C30 C 0.01476 0.58525 0.60655
 C31 C 0.00792 0.51404 0.59534
 C32 C -0.00131 0.48304 0.52973
 C33 C -0.01069 0.41939 0.40062
 C34 C -0.01604 0.38141 0.45195
 C35 C -0.01438 0.41273 0.51671
 C36 C -0.02302 0.37465 0.56868
 C37 C -0.00941 0.40391 0.63267
 C38 C 0.00791 0.47294 0.64727
 H39 H 0.02423 0.67816 0.56722
 H40 H 0.01472 0.61311 0.65475
 H41 H -0.00690 0.39043 0.35328
 H42 H -0.01921 0.32657 0.44016
 H43 H 0.01572 0.63337 0.33579
 H44 H -0.01254 0.37204 0.67123
 C45 C 0.53440 0.00423 0.64592
 C46 C 0.60508 -0.00826 0.64103
 C47 C 0.63785 -0.01409 0.58115
 C48 C 0.59557 -0.01157 0.52319
 C49 C 0.52451 0.00543 0.52779
 C50 C 0.49533 0.01751 0.58950
 C51 C 0.42850 0.04537 0.59327
 C52 C 0.38747 0.05056 0.53775
 C53 C 0.41125 0.02815 0.47581
 C54 C 0.48168 0.00890 0.47046
 C55 C 0.62040 -0.02919 0.46072
 C56 C 0.57958 -0.02369 0.40504
 C57 C 0.50953 -0.00639 0.40821
 C58 C 0.46658 -0.00349 0.35139
 C59 C 0.39701 0.01336 0.35804
 C60 C 0.36783 0.02784 0.41898
 H61 H 0.40754 0.06561 0.63928
 H62 H 0.33744 0.07385 0.54426
 H63 H 0.67077 -0.05064 0.45310
 H64 H 0.60501 -0.03381 0.35985
 H65 H 0.63510 -0.01524 0.68485
 H66 H 0.36426 0.01302 0.31448
 O67 O 0.43756 -0.02820 -0.09535
 O68 O 0.44370 -0.02251 0.08251
 O69 O 0.41053 0.06527 0.00052
 O70 O 0.47398 -0.11429 -0.01388
 O71 O 0.57903 -0.07603 -0.01379
 O72 O 0.51608 0.10296 0.00725
 O73 O 0.55115 0.00976 0.08558
 O74 O 0.54233 0.01139 -0.09208
 Cu75 Cu 0.43071 -0.02809 -0.00678
 Cu76 Cu 0.55757 0.01646 -0.00253
 C77 C 0.48843 -0.00940 -0.12406
 C78 C 0.49962 -0.00838 0.11383
 C79 C 0.45201 0.11450 0.00564
 C80 C 0.53809 -0.12542 -0.01654
 O81 O -0.09862 0.53760 0.98436
 O82 O 0.07935 0.57121 1.03740
 O83 O 0.01131 0.56273 0.92691
 O84 O -0.02942 0.55359 1.09735
 O85 O -0.01205 0.44180 1.08249
 O86 O 0.02789 0.45083 0.91155
 O87 O 0.09885 0.45972 1.02342
 O88 O -0.07844 0.42619 0.97130
 Cu89 Cu -0.01209 0.56756 1.01289
 Cu90 Cu 0.01190 0.43350 0.99595
 C91 C -0.11867 0.47675 0.96818
 C92 C 0.11937 0.52019 1.03984
 C93 C 0.02532 0.50835 0.88998
 C94 C -0.02642 0.49635 1.11922
 O95 O -0.00137 -0.09177 0.43842
 O96 O -0.04236 0.09136 0.46633
 O97 O 0.06423 0.01930 0.42239
 O98 O -0.10619 -0.01567 0.48123
 O99 O -0.06002 -0.01133 0.58076
 O100 O 0.11070 0.02268 0.52171
 O101 O 0.00630 0.09786 0.56511
 O102 O 0.04655 -0.08522 0.53745
 Cu103 Cu -0.02536 -0.00007 0.44174
 Cu104 Cu 0.03007 0.00636 0.56138
 C105 C 0.03071 -0.11932 0.48309
 C106 C -0.02644 0.12529 0.52077
 C107 C 0.11641 0.02628 0.46141
 C108 C -0.11230 -0.01747 0.54177
 N109 N -0.21771 0.40527 0.94274
 N110 N -0.28449 0.41326 0.93349
 C111 C -0.29758 0.48051 0.93136
 C112 C -0.23554 0.51333 0.93968
 N113 N -0.18792 0.46507 0.94730
 H114 H -0.22579 0.56753 0.94668
 N115 N 0.21977 0.59000 1.06371
 N116 N 0.28669 0.58057 1.06974
 C117 C 0.29906 0.51291 1.07005
 C118 C 0.23638 0.48138 1.06432
 N119 N 0.18908 0.53073 1.05965
 H120 H 0.22568 0.42739 1.05662
 N121 N 0.10560 -0.21486 0.50067
 N122 N 0.10696 -0.28219 0.48796
 C123 C 0.05072 -0.29953 0.45014
 C124 C 0.01497 -0.24085 0.43940
 N125 N 0.05078 -0.18940 0.47222
 H126 H -0.03497 -0.23638 0.41563
 N127 N -0.10243 0.22031 0.50435
 N128 N -0.10460 0.28751 0.51825
 C129 C -0.04860 0.30479 0.55646
 C130 C -0.01210 0.24631 0.56610
 N131 N -0.04724 0.19502 0.53231
 H132 H 0.03796 0.24200 0.58965
 N133 N 0.42694 -0.02350 -0.22869
 N134 N 0.43734 -0.01902 -0.29057
 C135 C 0.50336 -0.00228 -0.29482
 C136 C 0.53355 0.00196 -0.23264
 N137 N 0.48392 -0.01084 -0.19318
 H138 H 0.58563 0.01466 -0.21703
 N139 N 0.54791 -0.06468 0.20251
 N140 N 0.53946 -0.06659 0.26521
 C141 C 0.49135 -0.01899 0.28409
 C142 C 0.46887 0.01080 0.22980
 N143 N 0.50640 -0.01825 0.18067
 H144 H 0.42981 0.05003 0.22638
 N145 N 0.63157 -0.20721 -0.02994
 N146 N 0.64406 -0.27353 -0.03326
 C147 C 0.58442 -0.30456 -0.02653
 C148 C 0.53387 -0.25332 -0.02006
 N149 N 0.56589 -0.19374 -0.02215
 H150 H 0.47927 -0.25847 -0.01721
 N151 N 0.35947 0.19753 -0.00045
 N152 N 0.34909 0.26423 0.00192
 C153 C 0.41065 0.29408 0.01125
 C154 C 0.45961 0.24246 0.01548
 N155 N 0.42531 0.18316 0.00769
 H156 H 0.51418 0.24750 0.02469
 N157 N -0.18828 -0.04499 0.62435
 N158 N -0.25432 -0.04431 0.63568
 C159 C -0.28936 -0.02387 0.58352
 C160 C -0.24038 -0.01079 0.53978
 N161 N -0.17866 -0.02559 0.56679
 H162 H -0.24741 0.01298 0.49570
 N163 N 0.19040 0.06443 0.38212
 N164 N 0.25621 0.06664 0.37031
 C165 C 0.29191 0.04094 0.41925
 C166 C 0.24446 0.02200 0.46147
 N167 N 0.18209 0.03812 0.43676
 H168 H 0.25384 -0.00442 0.50376
 N169 N -0.06357 0.44042 1.20909
 N170 N -0.05815 0.44819 1.27347
 C171 C -0.02512 0.50707 1.29308
 C172 C -0.01307 0.53665 1.23728
 N173 N -0.03705 0.49314 1.18653
 H174 H 0.01479 0.58243 1.23304
 N175 N 0.07103 0.56024 0.80092
 N176 N 0.06710 0.55282 0.73642
 C177 C 0.02675 0.49893 0.71656
 C178 C 0.00797 0.47215 0.77171
 N179 N 0.03630 0.51192 0.82283
 H180 H -0.02550 0.42995 0.77484
   
