data_POSCAR
  _audit_creation_date              2014-09-24
  _audit_creation_method            'ToBaCCo'
  _symmetry_space_group_name_H-M    'P1'
  _symmetry_Int_Tables_number       1
  _symmetry_cell_setting            triclinic
  loop_
  _symmetry_equiv_pos_as_xyz
 x,y,z
_cell_length_a 30.8841
_cell_length_b 30.8208
_cell_length_c 19.1250
_cell_angle_alpha 90.455300
_cell_angle_beta 90.249400
_cell_angle_gamma 89.993100
loop_
  _atom_site_label
  _atom_site_type_symbol
  _atom_site_fract_x
  _atom_site_fract_y
  _atom_site_fract_z
O1 O -0.03167 0.25847 0.07178
 O2 O 0.05202 0.25643 -0.06756
 O3 O -0.03522 0.27497 -0.06085
 O4 O 0.05224 0.26107 0.06829
 O5 O 0.04777 0.18988 0.05430
 O6 O -0.04192 0.20389 -0.07008
 O7 O 0.04145 0.18591 -0.07945
 O8 O -0.03396 0.18687 0.06439
 Cu9 Cu 0.01007 0.26949 0.00168
 Cu10 Cu 0.00199 0.18529 -0.00997
 C11 C -0.04618 0.22198 0.09243
 C12 C 0.06203 0.21985 -0.09496
 C13 C -0.05441 0.24197 -0.08585
 C14 C 0.06546 0.22314 0.08224
 O15 O 0.53721 0.74056 0.43162
 O16 O 0.45006 0.74692 0.56436
 O17 O 0.53537 0.74381 0.56771
 O18 O 0.45040 0.74293 0.42922
 O19 O 0.44998 0.67129 0.43233
 O20 O 0.53155 0.67224 0.57100
 O21 O 0.44900 0.67523 0.56718
 O22 O 0.53407 0.66902 0.43568
 Cu23 Cu 0.49362 0.75092 0.49731
 Cu24 Cu 0.49101 0.66489 0.50143
 C25 C 0.55101 0.70343 0.41252
 C26 C 0.43470 0.71166 0.58779
 C27 C 0.54753 0.70770 0.59292
 C28 C 0.43504 0.70661 0.40891
 O29 O 0.94978 0.75305 -0.06764
 O30 O 1.03471 0.75828 0.06978
 O31 O 0.94891 0.75764 0.06661
 O32 O 1.03751 0.75519 -0.06526
 O33 O 1.03417 0.82666 -0.07040
 O34 O 0.94882 0.82922 0.06076
 O35 O 1.03256 0.82986 0.06475
 O36 O 0.95140 0.82454 -0.07428
 Cu37 Cu 0.99292 0.74862 0.00087
 Cu38 Cu 0.99164 0.83455 -0.00517
 C39 C 0.93535 0.78837 -0.09271
 C40 C 1.04832 0.79530 0.08976
 C41 C 0.93347 0.79430 0.08488
 C42 C 1.05146 0.79114 -0.08881
 O43 O 0.46688 0.25004 0.43582
 O44 O 0.55186 0.25255 0.57423
 O45 O 0.46459 0.25117 0.57249
 O46 O 0.55182 0.24494 0.43982
 O47 O 0.55232 0.31663 0.43604
 O48 O 0.46702 0.32270 0.56764
 O49 O 0.55123 0.32419 0.57076
 O50 O 0.47010 0.32165 0.43229
 Cu51 Cu 0.50837 0.24234 0.50686
 Cu52 Cu 0.51026 0.32832 0.50183
 C53 C 0.45470 0.28606 0.41015
 C54 C 0.56688 0.28919 0.59394
 C55 C 0.45037 0.28817 0.59115
 C56 C 0.56678 0.28014 0.41567
 O57 O 0.73594 -0.04245 0.06816
 O58 O 0.74822 0.04161 -0.06968
 O59 O 0.74043 -0.04307 -0.07042
 O60 O 0.72713 0.04561 0.05859
 O61 O 0.79792 0.04659 0.07478
 O62 O 0.81051 -0.04547 -0.04649
 O63 O 0.81907 0.03444 -0.05872
 O64 O 0.80652 -0.03915 0.08628
 Cu65 Cu 0.73111 -0.00043 -0.00330
 Cu66 Cu 0.81492 0.00011 0.01762
 C67 C 0.77001 -0.05539 0.09972
 C68 C 0.78664 0.05172 -0.08787
 C69 C 0.77762 -0.05970 -0.07969
 C70 C 0.76050 0.06242 0.08649
 O71 O 0.23649 0.54300 0.43023
 O72 O 0.24636 0.45760 0.56600
 O73 O 0.24071 0.54359 0.56546
 O74 O 0.22769 0.45675 0.43363
 O75 O 0.29863 0.45411 0.42035
 O76 O 0.31149 0.54213 0.54917
 O77 O 0.31737 0.45881 0.55186
 O78 O 0.30707 0.53786 0.41357
 Cu79 Cu 0.23069 0.50036 0.50015
 Cu80 Cu 0.31541 0.49820 0.48196
 C81 C 0.27103 0.55523 0.39978
 C82 C 0.28416 0.44368 0.58120
 C83 C 0.27827 0.55810 0.57884
 C84 C 0.26093 0.43970 0.40623
 O85 O 0.24353 0.95723 -0.06821
 O86 O 0.24953 1.04388 0.06752
 O87 O 0.24684 0.95880 0.06654
 O88 O 0.24798 1.04555 -0.06798
 O89 O 0.17651 1.04547 -0.06758
 O90 O 0.17540 0.96304 0.06810
 O91 O 0.17798 1.04598 0.06811
 O92 O 0.17221 0.96224 -0.06692
 Cu93 Cu 0.25442 1.00115 -0.00176
 Cu94 Cu 0.16857 1.00455 0.00035
 C95 C 0.20641 0.94405 -0.08855
 C96 C 0.21421 1.05947 0.09066
 C97 C 0.21042 0.94641 0.08992
 C98 C 0.21199 1.06091 -0.08917
 O99 O 0.75846 0.45409 0.43285
 O100 O 0.77595 0.54097 0.56388
 O101 O 0.76784 0.45412 0.56685
 O102 O 0.75895 0.53978 0.43072
 O103 O 0.68818 0.54063 0.44745
 O104 O 0.69767 0.46090 0.58604
 O105 O 0.70530 0.54490 0.57976
 O106 O 0.68798 0.45737 0.45186
 Cu107 Cu 0.77254 0.49700 0.49727
 Cu108 Cu 0.68793 0.50136 0.51844
 C109 C 0.72029 0.44047 0.42117
 C110 C 0.74336 0.55866 0.59242
 C111 C 0.73343 0.44234 0.59805
 C112 C 0.72140 0.55444 0.41623
 C113 C 0.23227 0.17094 0.16590
 C114 C 0.19279 0.18783 0.14257
 C115 C 0.17928 0.23003 0.15882
 C116 C 0.20807 0.25785 0.19554
 C117 C 0.24851 0.24140 0.21959
 C118 C 0.26040 0.19767 0.20534
 C119 C 0.29996 0.18178 0.23106
 C120 C 0.32771 0.20835 0.26966
 C121 C 0.31712 0.25192 0.28334
 C122 C 0.27726 0.26880 0.25766
 C123 C 0.19776 0.30158 0.20869
 C124 C 0.22673 0.32888 0.24361
 C125 C 0.26627 0.31305 0.26951
 C126 C 0.29569 0.34020 0.30605
 C127 C 0.33445 0.32296 0.33098
 C128 C 0.34572 0.27936 0.32078
 H129 H 0.30973 0.14850 0.22190
 H130 H 0.35792 0.19454 0.28776
 H131 H 0.16740 0.31540 0.19148
 H132 H 0.21772 0.36257 0.25003
 H133 H 0.17272 0.16802 0.10839
 H134 H 0.35559 0.34387 0.36169
 C135 C 0.72313 0.66529 0.33251
 C136 C 0.68166 0.67827 0.35368
 C137 C 0.66291 0.71737 0.33213
 C138 C 0.68713 0.74552 0.28937
 C139 C 0.72961 0.73345 0.26825
 C140 C 0.74768 0.69328 0.28998
 C141 C 0.78964 0.68208 0.26818
 C142 C 0.81376 0.70988 0.22656
 C143 C 0.79671 0.74981 0.20453
 C144 C 0.75416 0.76174 0.22555
 C145 C 0.66990 0.78525 0.26670
 C146 C 0.69405 0.81306 0.22525
 C147 C 0.73617 0.80203 0.20433
 C148 C 0.76109 0.83047 0.16349
 C149 C 0.80268 0.81796 0.14267
 C150 C 0.82123 0.77846 0.16292
 H151 H 0.80431 0.65162 0.28309
 H152 H 0.84611 0.69980 0.21226
 H153 H 0.63747 0.79526 0.28063
 H154 H 0.67938 0.84344 0.20981
 H155 H 0.66418 0.65817 0.39025
 H156 H 0.82051 0.83917 0.10817
 C157 C 0.84450 0.22486 0.17713
 C158 C 0.83397 0.18132 0.16430
 C159 C 0.79531 0.16300 0.18733
 C160 C 0.76569 0.18889 0.22566
 C161 C 0.77609 0.23306 0.24005
 C162 C 0.81545 0.25112 0.21522
 C163 C 0.82521 0.29469 0.23036
 C164 C 0.79728 0.32011 0.27002
 C165 C 0.75850 0.30294 0.29613
 C166 C 0.74733 0.25919 0.27997
 C167 C 0.72668 0.17187 0.25131
 C168 C 0.69784 0.19788 0.28878
 C169 C 0.70763 0.24148 0.30402
 C170 C 0.67897 0.26804 0.34270
 C171 C 0.69180 0.31019 0.36110
 C172 C 0.73056 0.32839 0.33789
 H173 H 0.85490 0.30948 0.21246
 H174 H 0.80643 0.35351 0.27966
 H175 H 0.71813 0.13820 0.24299
 H176 H 0.66801 0.18332 0.30652
 H177 H 0.85574 0.16143 0.13326
 H178 H 0.67154 0.32869 0.39657
 C179 C 0.32221 0.72228 0.33291
 C180 C 0.30463 0.68245 0.35350
 C181 C 0.26267 0.66960 0.33465
 C182 C 0.23658 0.69783 0.29504
 C183 C 0.25358 0.73841 0.27349
 C184 C 0.29639 0.75085 0.29287
 C185 C 0.31233 0.79119 0.27083
 C186 C 0.28687 0.81889 0.23068
 C187 C 0.24466 0.80712 0.21044
 C188 C 0.22773 0.76652 0.23222
 C189 C 0.19421 0.68625 0.27563
 C190 C 0.16885 0.71382 0.23538
 C191 C 0.18504 0.75386 0.21259
 C192 C 0.15958 0.78175 0.17108
 C193 C 0.17722 0.82116 0.14926
 C194 C 0.21869 0.83488 0.16940
 H195 H 0.34481 0.80167 0.28403
 H196 H 0.30068 0.84967 0.21554
 H197 H 0.18028 0.65560 0.29119
 H198 H 0.13632 0.70338 0.22245
 H199 H 0.32349 0.66136 0.38704
 H200 H 0.15875 0.84108 0.11343
 C201 C 0.84681 0.20853 0.81010
 C202 C 0.82866 0.16993 0.83353
 C203 C 0.78582 0.15781 0.81811
 C204 C 0.75974 0.18668 0.77899
 C205 C 0.77727 0.22695 0.75634
 C206 C 0.82109 0.23782 0.77151
 C207 C 0.83792 0.27722 0.74708
 C208 C 0.81179 0.30646 0.71113
 C209 C 0.76820 0.29684 0.69652
 C210 C 0.75091 0.25638 0.71829
 C211 C 0.71673 0.17630 0.76140
 C212 C 0.69102 0.20505 0.72397
 C213 C 0.70733 0.24524 0.70207
 C214 C 0.68104 0.27474 0.66492
 C215 C 0.69844 0.31487 0.64544
 C216 C 0.74125 0.32669 0.66124
 H217 H 0.87143 0.28596 0.75577
 H218 H 0.82616 0.33675 0.69483
 H219 H 0.70240 0.14570 0.77597
 H220 H 0.65796 0.19550 0.71300
 H221 H 0.84844 0.14983 0.86715
 H222 H 0.67886 0.33677 0.61444
 C223 C 0.32276 0.72729 0.66066
 C224 C 0.30710 0.68690 0.63870
 C225 C 0.26750 0.67025 0.66142
 C226 C 0.24085 0.69649 0.70451
 C227 C 0.25554 0.73839 0.72568
 C228 C 0.29656 0.75389 0.70330
 C229 C 0.31040 0.79533 0.72452
 C230 C 0.28458 0.82133 0.76699
 C231 C 0.24424 0.80658 0.79084
 C232 C 0.22932 0.76475 0.76971
 C233 C 0.20017 0.68202 0.72736
 C234 C 0.17416 0.70811 0.76971
 C235 C 0.18818 0.74935 0.79203
 C236 C 0.16227 0.77580 0.83588
 C237 C 0.17903 0.81567 0.85919
 C238 C 0.21829 0.83256 0.83505
 H239 H 0.34141 0.80809 0.70840
 H240 H 0.29676 0.85314 0.78099
 H241 H 0.18800 0.65028 0.71285
 H242 H 0.14300 0.69543 0.78509
 H243 H 0.32614 0.66828 0.60161
 H244 H 0.16110 0.83398 0.89804
 C245 C 0.22886 0.17104 0.83375
 C246 C 0.18932 0.18855 0.85652
 C247 C 0.17376 0.22868 0.83371
 C248 C 0.20009 0.25426 0.79057
 C249 C 0.24151 0.23867 0.76992
 C250 C 0.25603 0.19697 0.79151
 C251 C 0.29708 0.18252 0.76997
 C252 C 0.32377 0.20867 0.72931
 C253 C 0.31004 0.24987 0.70715
 C254 C 0.26828 0.26484 0.72717
 C255 C 0.18590 0.29493 0.76724
 C256 C 0.21196 0.32036 0.72530
 C257 C 0.25313 0.30600 0.70458
 C258 C 0.27966 0.33203 0.66234
 C259 C 0.32072 0.31686 0.64338
 C260 C 0.33688 0.27678 0.66603
 H261 H 0.30918 0.15094 0.78471
 H262 H 0.35535 0.19619 0.71542
 H263 H 0.15440 0.30762 0.78110
 H264 H 0.19950 0.35167 0.70980
 H265 H 0.17024 0.17080 0.89414
 H266 H 0.33990 0.33605 0.60776
 C267 C 0.70953 0.65774 0.69379
 C268 C 0.66992 0.67375 0.67024
 C269 C 0.65718 0.71686 0.68148
 C270 C 0.68524 0.74506 0.71878
 C271 C 0.72604 0.72947 0.74274
 C272 C 0.73854 0.68576 0.72940
 C273 C 0.77914 0.67128 0.75293
 C274 C 0.80762 0.69938 0.78719
 C275 C 0.79570 0.74242 0.80237
 C276 C 0.75422 0.75754 0.78076
 C277 C 0.67328 0.78808 0.73397
 C278 C 0.70042 0.81525 0.77277
 C279 C 0.74077 0.80059 0.79728
 C280 C 0.76810 0.82772 0.83792
 C281 C 0.80835 0.81169 0.85945
 C282 C 0.82384 0.77079 0.83905
 H283 H 0.78940 0.63807 0.74505
 H284 H 0.83880 0.68665 0.80277
 H285 H 0.64240 0.80095 0.71707
 H286 H 0.68947 0.84802 0.78301
 H287 H 0.64921 0.65222 0.63990
 H288 H 0.82784 0.83109 0.89505
 C289 C 0.21356 0.09538 0.14112
 C290 C 0.24383 0.12639 0.14243
 H291 H 0.18300 0.10128 0.16729
 H292 H 0.27451 0.12141 0.11629
 C293 C 0.74902 0.59802 0.63572
 C294 C 0.71740 0.61132 0.67829
 H295 H 0.77580 0.61938 0.62379
 H296 H 0.69035 0.58963 0.68726
 C297 C 0.76957 0.90839 0.14894
 C298 C 0.74503 0.87315 0.13892
 H299 H 0.79737 0.90593 0.18359
 H300 H 0.71776 0.87385 0.10312
 C301 C 0.29107 0.40804 0.63012
 C302 C 0.26455 0.37390 0.63289
 H303 H 0.32269 0.40607 0.65475
 H304 H 0.23323 0.37509 0.60724
 C305 C 0.92116 0.21864 0.14714
 C306 C 0.88482 0.24207 0.14561
 H307 H 0.92217 0.18958 0.17872
 H308 H 0.88272 0.27055 0.11290
 C309 C 0.39849 0.71111 0.63684
 C310 C 0.36629 0.74016 0.63541
 H311 H 0.39371 0.68108 0.66500
 H312 H 0.36978 0.77021 0.60696
 C313 C 0.08465 0.79964 0.13889
 C314 C 0.11592 0.76972 0.14416
 H315 H 0.08966 0.83146 0.16214
 H316 H 0.11144 0.73789 0.12081
 C317 C 0.60477 0.29273 0.64030
 C318 C 0.63668 0.26337 0.64002
 H319 H 0.61022 0.32391 0.66547
 H320 H 0.63182 0.23231 0.61420
 C321 C 0.79518 0.08343 0.86280
 C322 C 0.76865 0.11680 0.84908
 H323 H 0.82799 0.08420 0.84303
 H324 H 0.73596 0.11657 0.86939
 C325 C 0.27175 0.59181 0.35136
 C326 C 0.24716 0.62706 0.36038
 H327 H 0.29982 0.59408 0.31767
 H328 H 0.21948 0.62633 0.39495
 C329 C 0.20122 0.90767 0.86870
 C330 C 0.23135 0.87674 0.85994
 H331 H 0.16862 0.90136 0.84986
 H332 H 0.26416 0.88195 0.87840
 C333 C 0.71251 0.40309 0.37499
 C334 C 0.74250 0.37236 0.36419
 H335 H 0.67950 0.39778 0.35754
 H336 H 0.77544 0.37779 0.38191
 C337 C 0.09787 0.21464 0.86210
 C338 C 0.13048 0.24316 0.85878
 H339 H 0.10244 0.18273 0.83883
 H340 H 0.12725 0.27528 0.88161
 C341 C 0.58850 0.69861 0.36606
 C342 C 0.61939 0.72884 0.36007
 H343 H 0.59394 0.66658 0.34396
 H344 H 0.61440 0.76095 0.38202
 C345 C 0.89956 0.78953 0.86306
 C346 C 0.86867 0.75885 0.86128
 H347 H 0.89271 0.82056 0.83895
 H348 H 0.87417 0.72771 0.88562
 C349 C 0.42151 0.28861 0.35552
 C350 C 0.38616 0.26359 0.35464
 H351 H 0.42206 0.31751 0.32357
 H352 H 0.38477 0.23479 0.38668
 C353 C 0.78410 0.90324 0.87288
 C354 C 0.75482 0.87148 0.86411
 H355 H 0.81668 0.89872 0.85330
 H356 H 0.72226 0.87582 0.88382
 C357 C 0.25625 0.40036 0.36265
 C358 C 0.28875 0.38669 0.32223
 H359 H 0.22882 0.37938 0.37237
 H360 H 0.31650 0.40782 0.31557
 C361 C 0.20928 0.09665 0.86677
 C362 C 0.24059 0.12648 0.85838
 H363 H 0.17720 0.10383 0.84660
 H364 H 0.27301 0.12045 0.87780
 C365 C 0.71456 0.58899 0.36510
 C366 C 0.74036 0.62373 0.36061
 H367 H 0.68280 0.59010 0.34075
 H368 H 0.77191 0.62360 0.38560
 C369 C 0.08757 0.79396 0.86798
 C370 C 0.11817 0.76323 0.86089
 H371 H 0.09410 0.82585 0.84681
 H372 H 0.11293 0.73092 0.88104
 C373 C 0.60242 0.28062 0.36548
 C374 C 0.63615 0.25336 0.36876
 H375 H 0.60551 0.30994 0.33487
 H376 H 0.63438 0.22417 0.39979
 C377 C 0.90644 0.24732 0.87064
 C378 C 0.89292 0.21501 0.82890
 H379 H 0.88588 0.27518 0.88032
 H380 H 0.91384 0.18703 0.82205
 C381 C 0.39778 0.70374 0.36102
 C382 C 0.36639 0.73374 0.35882
 H383 H 0.39218 0.67246 0.33627
 H384 H 0.37129 0.76506 0.38372
 C385 C 0.20677 0.91107 0.14036
 C386 C 0.23396 0.87724 0.14203
 H387 H 0.17614 0.90874 0.16762
 H388 H 0.26462 0.87858 0.11482
 C389 C 0.73243 0.40500 0.64539
 C390 C 0.75676 0.36949 0.63578
 H391 H 0.70449 0.40279 0.67936
 H392 H 0.78441 0.37034 0.60115
 C393 C 0.75643 0.10266 0.12835
 C394 C 0.78912 0.11665 0.16873
 H395 H 0.72875 0.12342 0.11882
 H396 H 0.81712 0.09580 0.17526
 C397 C 0.28451 0.59520 0.62627
 C398 C 0.25468 0.62646 0.63504
 H399 H 0.31707 0.60015 0.64619
 H400 H 0.22211 0.62173 0.61520
 C401 C 0.89591 0.79797 0.13145
 C402 C 0.86510 0.76751 0.13570
 H403 H 0.89011 0.82966 0.15460
 H404 H 0.87038 0.73577 0.11255
 C405 C 0.41278 0.29284 0.63757
 C406 C 0.38072 0.26357 0.64116
 H407 H 0.40792 0.32472 0.66062
 H408 H 0.38490 0.23160 0.61824
 C409 C 0.10286 0.21639 0.12830
 C410 C 0.13631 0.24417 0.13154
 H411 H 0.10574 0.18470 0.15200
 H412 H 0.13354 0.27564 0.10712
 C413 C 0.58154 0.70491 0.64642
 C414 C 0.61585 0.73144 0.64873
 H415 H 0.58220 0.67532 0.67668
 H416 H 0.61577 0.76108 0.61865
   
