data_POSCAR
  _audit_creation_date              2014-09-24
  _audit_creation_method            'ToBaCCo'
  _symmetry_space_group_name_H-M    'P1'
  _symmetry_Int_Tables_number       1
  _symmetry_cell_setting            triclinic
  loop_
  _symmetry_equiv_pos_as_xyz
 x,y,z
_cell_length_a 34.5642
_cell_length_b 35.3125
_cell_length_c 34.7951
_cell_angle_alpha 89.764400
_cell_angle_beta 89.924100
_cell_angle_gamma 90.286700
loop_
  _atom_site_label
  _atom_site_type_symbol
  _atom_site_fract_x
  _atom_site_fract_y
  _atom_site_fract_z
C1 C 0.21543 0.98234 0.04583
 C2 C 0.23177 0.98240 0.01024
 C3 C 0.23670 0.94758 -0.01259
 C4 C 0.24240 1.01823 -0.01051
 C5 C 0.21110 1.01823 0.06705
 C6 C 0.20442 0.94720 0.06767
 C7 C 0.27356 0.93960 -0.02738
 C8 C 0.27743 0.91700 -0.05990
 C9 C 0.24450 0.90236 -0.07793
 C10 C 0.20814 0.90652 -0.06054
 C11 C 0.20422 0.92899 -0.02778
 C12 C 0.26904 1.04467 0.00450
 C13 C 0.27899 1.07741 -0.01654
 C14 C 0.26310 1.08347 -0.05322
 C15 C 0.23712 1.05693 -0.06820
 C16 C 0.22666 1.02486 -0.04710
 C17 C 0.18779 1.04794 0.05340
 C18 C 0.18472 1.08152 0.07445
 C19 C 0.20416 1.08513 0.10952
 C20 C 0.22750 1.05529 0.12281
 C21 C 0.23088 1.02224 0.10179
 C22 C 0.17104 0.94751 0.09104
 C23 C 0.16359 0.91826 0.11734
 C24 C 0.18870 0.88749 0.12015
 C25 C 0.22127 0.88615 0.09583
 C26 C 0.22938 0.91596 0.07031
 H27 H 0.29884 0.95400 -0.01614
 H28 H 0.30562 0.91442 -0.07330
 H29 H 0.18235 0.89577 -0.07454
 H30 H 0.17554 0.93530 -0.01707
 H31 H 0.28227 1.03984 0.03226
 H32 H 0.29936 1.09750 -0.00455
 H33 H 0.20621 1.00506 -0.05949
 H34 H 0.17211 1.04504 0.02665
 H35 H 0.16669 1.10428 0.06390
 H36 H 0.24331 1.05752 0.14956
 H37 H 0.24911 0.99970 0.11256
 H38 H 0.15142 0.97132 0.09004
 H39 H 0.13850 0.91984 0.13591
 H40 H 0.24153 0.86295 0.09795
 H41 H 0.25617 0.91535 0.05423
 H42 H 0.22467 1.06132 -0.09642
 C43 C 0.76804 0.51596 0.47303
 C44 C 0.75837 0.51618 0.43505
 C45 C 0.75280 0.55246 0.41392
 C46 C 0.75281 0.48111 0.41168
 C47 C 0.77912 0.48157 0.49496
 C48 C 0.76616 0.55052 0.49716
 C49 C 0.72456 0.57891 0.42477
 C50 C 0.71953 0.61217 0.40335
 C51 C 0.74153 0.61866 0.37011
 C52 C 0.76962 0.59217 0.35923
 C53 C 0.77530 0.55951 0.38106
 C54 C 0.72069 0.47905 0.38688
 C55 C 0.71548 0.44823 0.36241
 C56 C 0.74162 0.41823 0.36280
 C57 C 0.77377 0.41980 0.38756
 C58 C 0.77971 0.45133 0.41130
 C59 C 0.81346 0.48288 0.51658
 C60 C 0.82050 0.45619 0.54531
 C61 C 0.79385 0.42720 0.55240
 C62 C 0.76043 0.42437 0.52937
 C63 C 0.75288 0.45170 0.50110
 C64 C 0.79004 0.58220 0.49044
 C65 C 0.79026 0.61237 0.51649
 C66 C 0.76746 0.61045 0.54997
 C67 C 0.74365 0.57906 0.55641
 C68 C 0.74260 0.54957 0.53007
 H69 H 0.70619 0.57361 0.44947
 H70 H 0.69751 0.63220 0.41180
 H71 H 0.78703 0.59666 0.33372
 H72 H 0.79706 0.53940 0.37209
 H73 H 0.69960 0.50163 0.38622
 H74 H 0.69063 0.44744 0.34349
 H75 H 0.80556 0.45263 0.42875
 H76 H 0.83380 0.50603 0.51268
 H77 H 0.84632 0.45863 0.56273
 H78 H 0.73927 0.40222 0.53456
 H79 H 0.72575 0.45073 0.48560
 H80 H 0.80910 0.58310 0.46572
 H81 H 0.80926 0.63633 0.51137
 H82 H 0.72614 0.57730 0.58220
 H83 H 0.72419 0.52531 0.53595
 H84 H 0.79469 0.39709 0.38788
 C85 C 0.75880 1.03577 0.97166
 C86 C 0.75129 0.99917 0.96118
 C87 C 0.73517 0.97055 0.98863
 C88 C 0.75952 0.98466 0.92179
 C89 C 0.77108 1.06505 0.94346
 C90 C 0.75327 1.04939 1.01176
 C91 C 0.75138 0.93415 0.98982
 C92 C 0.73704 0.90679 1.01495
 C93 C 0.70702 0.91530 1.04024
 C94 C 0.68983 0.95119 1.03897
 C95 C 0.70322 0.97836 1.01256
 C96 C 0.79658 0.97125 0.91226
 C97 C 0.80192 0.94828 0.87979
 C98 C 0.77051 0.93968 0.85565
 C99 C 0.73426 0.95536 0.86370
 C100 C 0.72855 0.97675 0.89698
 C101 C 0.74886 1.07179 0.91055
 C102 C 0.75810 1.10170 0.88602
 C103 C 0.78923 1.12618 0.89439
 C104 C 0.81091 1.12019 0.92773
 C105 C 0.80205 1.08966 0.95204
 C106 C 0.72843 1.08005 1.01900
 C107 C 0.72190 1.09239 1.05664
 C108 C 0.74058 1.07458 1.08737
 C109 C 0.76642 1.04493 1.08017
 C110 C 0.77290 1.03250 1.04261
 H111 H 0.77574 0.92684 0.97185
 H112 H 0.75059 0.87920 1.01597
 H113 H 0.66633 0.95813 1.05826
 H114 H 0.68894 1.00553 1.01117
 H115 H 0.82069 0.97629 0.93145
 H116 H 0.83024 0.93668 0.87390
 H117 H 0.69961 0.98596 0.90421
 H118 H 0.72357 1.05473 0.90441
 H119 H 0.74032 1.10621 0.86084
 H120 H 0.83482 1.13888 0.93465
 H121 H 0.81899 1.08551 0.97787
 H122 H 0.71325 1.09369 0.99556
 H123 H 0.70153 1.11502 1.06186
 H124 H 0.78073 1.03068 1.10381
 H125 H 0.79264 1.00930 1.03763
 H126 H 0.70980 0.94898 0.84538
 C127 C 0.25755 0.50018 0.53546
 C128 C 0.25883 0.46200 0.53976
 C129 C 0.26761 0.44451 0.57756
 C130 C 0.25203 0.43554 0.50741
 C131 C 0.24748 0.51891 0.49880
 C132 C 0.26405 0.52578 0.56821
 C133 C 0.30265 0.42538 0.58275
 C134 C 0.31001 0.40623 0.61716
 C135 C 0.28288 0.40664 0.64707
 C136 C 0.24802 0.42621 0.64222
 C137 C 0.24011 0.44434 0.60734
 C138 C 0.27490 0.43693 0.47401
 C139 C 0.26933 0.41054 0.44469
 C140 C 0.24180 0.38147 0.44905
 C141 C 0.21978 0.37937 0.48274
 C142 C 0.22457 0.40636 0.51157
 C143 C 0.20919 0.53004 0.49203
 C144 C 0.20040 0.55324 0.46059
 C145 C 0.22956 0.56480 0.43508
 C146 C 0.26776 0.55292 0.44131
 C147 C 0.27676 0.53085 0.47347
 C148 C 0.23375 0.53345 0.59380
 C149 C 0.23916 0.55903 0.62373
 C150 C 0.27427 0.57873 0.62713
 C151 C 0.30425 0.57185 0.60104
 C152 C 0.29943 0.54498 0.57204
 H153 H 0.32382 0.42451 0.55979
 H154 H 0.33657 0.39038 0.62028
 H155 H 0.22611 0.42555 0.66448
 H156 H 0.21202 0.45699 0.60313
 H157 H 0.29790 0.45755 0.47108
 H158 H 0.28738 0.41201 0.41926
 H159 H 0.20713 0.40424 0.53739
 H160 H 0.18646 0.52202 0.51195
 H161 H 0.17095 0.56272 0.45640
 H162 H 0.29084 0.56237 0.42245
 H163 H 0.30670 0.52393 0.47918
 H164 H 0.20563 0.52041 0.58998
 H165 H 0.21524 0.56522 0.64278
 H166 H 0.33108 0.58770 0.60288
 H167 H 0.32277 0.53995 0.55194
 H168 H 0.19878 0.35680 0.48656
 C169 C 0.99056 0.23225 0.02030
 C170 C 1.00020 0.23204 -0.01744
 C171 C 0.97144 0.23425 -0.04880
 C172 C 1.04135 0.23293 -0.02935
 C173 C 1.02044 0.23104 0.05099
 C174 C 0.95039 0.23661 0.03427
 C175 C 0.96756 0.20325 -0.07358
 C176 C 0.95127 0.20794 -0.11001
 C177 C 0.93902 0.24375 -0.12221
 C178 C 0.93993 0.27414 -0.09640
 C179 C 0.95590 0.26936 -0.05968
 C180 C 1.06638 0.20321 -0.01966
 C181 C 1.10612 0.20696 -0.02612
 C182 C 1.12100 0.24022 -0.04262
 C183 C 1.09594 0.26900 -0.05428
 C184 C 1.05623 0.26532 -0.04781
 C185 C 1.04376 0.26283 0.05867
 C186 C 1.06601 0.26423 0.09228
 C187 C 1.06539 0.23377 0.11827
 C188 C 1.04429 0.20104 0.10918
 C189 C 1.02180 0.19974 0.07587
 C190 C 0.94168 0.26889 0.05591
 C191 C 0.90920 0.26945 0.07961
 C192 C 0.88453 0.23806 0.08178
 C193 C 0.89125 0.20675 0.05783
 C194 C 0.92430 0.20597 0.03426
 H195 H 0.98003 0.17616 -0.06593
 H196 H 0.95129 0.18436 -0.12985
 H197 H 0.93117 0.30213 -0.10569
 H198 H 0.95941 0.29377 -0.04124
 H199 H 1.05531 0.17793 -0.00566
 H200 H 1.12541 0.18466 -0.01679
 H201 H 1.03739 0.28859 -0.05538
 H202 H 1.04267 0.28743 0.04002
 H203 H 1.08135 0.29008 0.09939
 H204 H 1.04277 0.17767 0.12941
 H205 H 1.00378 0.17513 0.07053
 H206 H 0.96167 0.29261 0.05664
 H207 H 0.90440 0.29363 0.09803
 H208 H 0.87267 0.18202 0.05940
 H209 H 0.93099 0.18052 0.01836
 H210 H 1.10728 0.29494 -0.06676
 C211 C 0.48529 0.74998 0.47610
 C212 C 0.48915 0.75236 0.51484
 C213 C 0.52716 0.75155 0.53458
 C214 C 0.45524 0.75599 0.54027
 C215 C 0.44733 0.75371 0.45640
 C216 C 0.51853 0.74389 0.45005
 C217 C 0.53821 0.71929 0.55548
 C218 C 0.57113 0.72019 0.57893
 C219 C 0.59381 0.75310 0.58136
 C220 C 0.58289 0.78537 0.56033
 C221 C 0.54934 0.78481 0.53786
 C222 C 0.43405 0.72369 0.55116
 C223 C 0.40448 0.72639 0.57835
 C224 C 0.39691 0.76118 0.59611
 C225 C 0.41828 0.79334 0.58549
 C226 C 0.44707 0.79088 0.55743
 C227 C 0.44183 0.78385 0.43053
 C228 C 0.40993 0.78421 0.40586
 C229 C 0.38264 0.75483 0.40709
 C230 C 0.38730 0.72527 0.43385
 C231 C 0.41978 0.72438 0.45779
 C232 C 0.54579 0.77276 0.44343
 C233 C 0.57221 0.76986 0.41321
 C234 C 0.57066 0.73872 0.38825
 C235 C 0.54391 0.70966 0.39511
 C236 C 0.51829 0.71199 0.42605
 H237 H 0.52074 0.69377 0.55443
 H238 H 0.57896 0.69523 0.59529
 H239 H 0.59947 0.81136 0.56246
 H240 H 0.54001 0.81072 0.52407
 H241 H 0.44136 0.69619 0.53969
 H242 H 0.38904 0.70101 0.58706
 H243 H 0.46387 0.81584 0.55001
 H244 H 0.46326 0.80624 0.42822
 H245 H 0.40699 0.80688 0.38504
 H246 H 0.36711 0.70174 0.43459
 H247 H 0.42445 0.69971 0.47561
 H248 H 0.54499 0.79867 0.45975
 H249 H 0.59204 0.79309 0.40773
 H250 H 0.54216 0.68576 0.37578
 H251 H 0.49680 0.68988 0.43005
 H252 H 0.41312 0.82013 0.59958
 C253 C -0.00493 0.74102 -0.00665
 C254 C -0.04218 0.74700 -0.01681
 C255 C -0.05333 0.75192 -0.05770
 C256 C -0.07344 0.75123 0.01182
 C257 C 0.00836 0.74013 0.03367
 C258 C 0.02682 0.73967 -0.03521
 C259 C -0.07092 0.78577 -0.06966
 C260 C -0.07850 0.79226 -0.10856
 C261 C -0.06890 0.76485 -0.13580
 C262 C -0.05288 0.73039 -0.12391
 C263 C -0.04530 0.72384 -0.08500
 C264 C -0.07773 0.78532 0.03201
 C265 C -0.11286 0.79355 0.05024
 C266 C -0.14361 0.76757 0.04867
 C267 C -0.13822 0.73241 0.03110
 C268 C -0.10340 0.72434 0.01259
 C269 C 0.00993 0.70566 0.05382
 C270 C 0.03459 0.70179 0.08556
 C271 C 0.05811 0.73236 0.09700
 C272 C 0.05437 0.76735 0.07850
 C273 C 0.02960 0.77130 0.04717
 C274 C 0.05014 0.70731 -0.03705
 C275 C 0.08603 0.70890 -0.05542
 C276 C 0.09892 0.74284 -0.07199
 C277 C 0.07446 0.77435 -0.07286
 C278 C 0.03845 0.77278 -0.05457
 H279 H -0.07738 0.80778 -0.04909
 H280 H -0.09062 0.81911 -0.11753
 H281 H -0.04517 0.70910 -0.14486
 H282 H -0.03226 0.69734 -0.07628
 H283 H -0.05516 0.80669 0.03098
 H284 H -0.11692 0.82109 0.06320
 H285 H -0.10075 0.69820 -0.00337
 H286 H -0.00550 0.68109 0.04319
 H287 H 0.03703 0.67447 0.09954
 H288 H 0.07221 0.79111 0.08717
 H289 H 0.02936 0.79786 0.03148
 H290 H 0.04175 0.68166 -0.02197
 H291 H 0.10497 0.68458 -0.05407
 H292 H 0.08448 0.80094 -0.08504
 H293 H 0.02112 0.79819 -0.05283
 H294 H -0.16197 0.71236 0.02923
 C295 C 0.46915 0.26621 0.52089
 C296 C 0.50839 0.26562 0.51803
 C297 C 0.52924 0.26025 0.48095
 C298 C 0.53387 0.26970 0.55189
 C299 C 0.44837 0.26587 0.55849
 C300 C 0.44396 0.26651 0.48649
 C301 C 0.55767 0.23201 0.47892
 C302 C 0.58034 0.22798 0.44607
 C303 C 0.57458 0.25174 0.41423
 C304 C 0.54561 0.27935 0.41561
 C305 C 0.52358 0.28418 0.44906
 C306 C 0.53353 0.24323 0.58216
 C307 C 0.56185 0.24503 0.61081
 C308 C 0.59130 0.27233 0.60855
 C309 C 0.59063 0.29963 0.57920
 C310 C 0.56199 0.29844 0.55125
 C311 C 0.45622 0.29229 0.58769
 C312 C 0.43535 0.29111 0.62226
 C313 C 0.40540 0.26448 0.62734
 C314 C 0.39683 0.23906 0.59790
 C315 C 0.41837 0.23938 0.56404
 C316 C 0.41618 0.29514 0.48315
 C317 C 0.38951 0.29453 0.45327
 C318 C 0.39059 0.26578 0.42589
 C319 C 0.41890 0.23749 0.42836
 C320 C 0.44514 0.23753 0.45893
 H321 H 0.56273 0.21334 0.50316
 H322 H 0.60235 0.20628 0.44548
 H323 H 0.54106 0.29797 0.39125
 H324 H 0.50263 0.30683 0.45024
 H325 H 0.51244 0.22047 0.58273
 H326 H 0.56233 0.22371 0.63326
 H327 H 0.56268 0.31901 0.52806
 H328 H 0.47813 0.31395 0.58367
 H329 H 0.44179 0.31155 0.64448
 H330 H 0.37356 0.21869 0.60141
 H331 H 0.41142 0.21898 0.54189
 H332 H 0.41458 0.31749 0.50433
 H333 H 0.36739 0.31611 0.45182
 H334 H 0.41949 0.21456 0.40781
 H335 H 0.46566 0.21460 0.46160
 H336 H 0.61305 0.32109 0.57727
 C337 C 0.98699 -0.01098 0.25369
 C338 C 0.98581 -0.04708 0.24043
 C339 C 1.01774 -0.07393 0.24565
 C340 C 0.94974 -0.06338 0.22383
 C341 C 0.95176 0.01256 0.25254
 C342 C 1.02286 0.00848 0.26725
 C343 C 1.03069 -0.09432 0.21364
 C344 C 1.04905 -0.12897 0.21875
 C345 C 1.05435 -0.14338 0.25581
 C346 C 1.04532 -0.12125 0.28784
 C347 C 1.02718 -0.08635 0.28278
 C348 C 0.93310 -0.04750 0.19076
 C349 C 0.89690 -0.05997 0.17813
 C350 C 0.87713 -0.08866 0.19814
 C351 C 0.89460 -0.10614 0.22977
 C352 C 0.93090 -0.09377 0.24240
 C353 C 0.91854 0.00211 0.27341
 C354 C 0.88595 0.02524 0.27285
 C355 C 0.88662 0.05928 0.25219
 C356 C 0.91979 0.06955 0.23110
 C357 C 0.95210 0.04629 0.23126
 C358 C 1.02013 0.03504 0.29728
 C359 C 1.04977 0.06127 0.30375
 C360 C 1.08321 0.06069 0.28100
 C361 C 1.08758 0.03224 0.25338
 C362 C 1.05744 0.00667 0.24606
 H363 H 1.02322 -0.08519 0.18483
 H364 H 1.05575 -0.14610 0.19386
 H365 H 1.04908 -0.13246 0.31662
 H366 H 1.01676 -0.07122 0.30773
 H367 H 0.94740 -0.02439 0.17579
 H368 H 0.88338 -0.04588 0.15394
 H369 H 0.94336 -0.10652 0.26786
 H370 H 0.91810 -0.02366 0.29039
 H371 H 0.86057 0.01719 0.28929
 H372 H 0.92086 0.09568 0.21474
 H373 H 0.97752 0.05466 0.21501
 H374 H 0.99386 0.03710 0.31415
 H375 H 1.04601 0.08276 0.32553
 H376 H 1.11330 0.03161 0.23560
 H377 H 1.06020 -0.01255 0.22209
 H378 H 0.87934 -0.12797 0.24578
 C379 C 0.53780 0.53975 0.74834
 C380 C 0.54296 0.50179 0.75423
 C381 C 0.58151 0.48258 0.75316
 C382 C 0.51028 0.47537 0.76223
 C383 C 0.49949 0.55923 0.75341
 C384 C 0.57021 0.56519 0.73644
 C385 C 0.60401 0.48056 0.71944
 C386 C 0.63486 0.45468 0.71691
 C387 C 0.64291 0.43003 0.74780
 C388 C 0.62157 0.43334 0.78173
 C389 C 0.59165 0.45956 0.78461
 C390 C 0.50633 0.44318 0.73895
 C391 C 0.48034 0.41447 0.74871
 C392 C 0.45730 0.41753 0.78150
 C393 C 0.46015 0.45015 0.80448
 C394 C 0.48691 0.47876 0.79512
 C395 C 0.49835 0.59360 0.77389
 C396 C 0.46462 0.61532 0.77537
 C397 C 0.43076 0.60282 0.75711
 C398 C 0.43124 0.56806 0.73764
 C399 C 0.46545 0.54683 0.73506
 C400 C 0.60464 0.56798 0.75775
 C401 C 0.63216 0.59588 0.74865
 C402 C 0.62499 0.62205 0.71895
 C403 C 0.59096 0.61907 0.69760
 C404 C 0.56409 0.59061 0.70584
 H405 H 0.59631 0.49727 0.69447
 H406 H 0.65072 0.45229 0.69020
 H407 H 0.62728 0.41451 0.80569
 H408 H 0.57466 0.46022 0.81079
 H409 H 0.52432 0.43979 0.71369
 H410 H 0.47817 0.38963 0.73067
 H411 H 0.49016 0.50287 0.81399
 H412 H 0.52405 0.60412 0.78815
 H413 H 0.46491 0.64178 0.79097
 H414 H 0.40536 0.55801 0.72337
 H415 H 0.46547 0.52129 0.71797
 H416 H 0.60957 0.54963 0.78224
 H417 H 0.65816 0.59810 0.76582
 H418 H 0.58512 0.63911 0.67470
 H419 H 0.53768 0.58926 0.68916
 H420 H 0.44252 0.45303 0.83002
 C421 C 1.06191 1.01515 0.76893
 C422 C 1.02547 1.02534 0.75816
 C423 C 0.99495 0.99677 0.75094
 C424 C 1.01278 1.06445 0.74900
 C425 C 1.09192 1.04292 0.78133
 C426 C 1.07306 0.97441 0.77105
 C427 C 0.96200 0.99579 0.77458
 C428 C 0.93083 0.97230 0.76559
 C429 C 0.93229 0.94916 0.73319
 C430 C 0.96546 0.94972 0.70964
 C431 C 0.99650 0.97365 0.71835
 C432 C 1.01105 1.07454 0.70993
 C433 C 0.98316 1.09998 0.69675
 C434 C 0.95634 1.11544 0.72237
 C435 C 0.96110 1.10928 0.76196
 C436 C 0.98951 1.08416 0.77528
 C437 C 1.11450 1.03462 0.81401
 C438 C 1.14389 1.05919 0.82584
 C439 C 1.15033 1.09304 0.80601
 C440 C 1.12822 1.10150 0.77332
 C441 C 1.09985 1.07627 0.76056
 C442 C 1.05491 0.94949 0.79702
 C443 C 1.06583 0.91142 0.79866
 C444 C 1.09521 0.89778 0.77467
 C445 C 1.11399 0.92263 0.74924
 C446 C 1.10311 0.96081 0.74762
 H447 H 0.96029 1.01341 0.79989
 H448 H 0.90568 0.97169 0.78420
 H449 H 0.96731 0.93187 0.68450
 H450 H 1.02143 0.97461 0.69946
 H451 H 1.02804 1.05916 0.68902
 H452 H 0.97954 1.10392 0.66607
 H453 H 0.98989 1.07651 0.80545
 H454 H 1.10943 1.00897 0.83048
 H455 H 1.16109 1.05223 0.85086
 H456 H 1.13379 1.12717 0.75704
 H457 H 1.08504 1.08260 0.73405
 H458 H 1.03226 0.95952 0.81590
 H459 H 1.05100 0.89243 0.81835
 H460 H 1.13659 0.91241 0.73040
 H461 H 1.11774 0.97971 0.72770
 H462 H 0.94028 1.12055 0.78215
 C463 C 0.50762 0.48633 0.24319
 C464 C 0.46838 0.48723 0.24370
 C465 C 0.44357 0.45377 0.25188
 C466 C 0.44692 0.52261 0.23783
 C467 C 0.53136 0.52067 0.23480
 C468 C 0.52960 0.45126 0.25074
 C469 C 0.42889 0.43212 0.22139
 C470 C 0.39955 0.40539 0.22780
 C471 C 0.38331 0.40092 0.26462
 C472 C 0.39782 0.42262 0.29504
 C473 C 0.42791 0.44868 0.28881
 C474 C 0.42773 0.52899 0.20296
 C475 C 0.40016 0.55762 0.20018
 C476 C 0.39233 0.58058 0.23189
 C477 C 0.41306 0.57549 0.26614
 C478 C 0.43952 0.54608 0.26934
 C479 C 0.53372 0.55053 0.26122
 C480 C 0.55830 0.58139 0.25429
 C481 C 0.58208 0.58221 0.22148
 C482 C 0.58064 0.55190 0.19570
 C483 C 0.55531 0.52147 0.20215
 C484 C 0.55884 0.45181 0.27870
 C485 C 0.58418 0.42145 0.28229
 C486 C 0.58025 0.38986 0.25856
 C487 C 0.55026 0.38851 0.23143
 C488 C 0.52547 0.41935 0.22713
 H489 H 0.43917 0.43691 0.19236
 H490 H 0.38853 0.38931 0.20373
 H491 H 0.38553 0.41958 0.32353
 H492 H 0.43786 0.46605 0.31243
 H493 H 0.43240 0.51039 0.17873
 H494 H 0.38375 0.56092 0.17391
 H495 H 0.45242 0.54021 0.29705
 H496 H 0.51760 0.54946 0.28782
 H497 H 0.55960 0.60404 0.27514
 H498 H 0.59906 0.55196 0.17050
 H499 H 0.55475 0.49819 0.18197
 H500 H 0.56292 0.47639 0.29679
 H501 H 0.60750 0.42286 0.30301
 H502 H 0.54740 0.36462 0.21223
 H503 H 0.50460 0.41903 0.20406
 H504 H 0.40649 0.59224 0.29129
 O505 O 0.21458 0.13849 0.22865
 O506 O 0.26432 0.12869 0.27612
 O507 O 0.12435 0.18632 0.29826
 O508 O 0.12180 0.23654 0.34011
 O509 O 0.14925 0.23665 0.18945
 O510 O 0.20123 0.27622 0.16622
 O511 O 0.24133 0.29423 0.37100
 O512 O 0.20230 0.24162 0.39188
 O513 O 0.33229 0.23802 0.30772
 O514 O 0.32943 0.19067 0.25349
 O515 O 0.28080 0.33325 0.26418
 O516 O 0.21733 0.34453 0.22819
 O517 O 0.23834 0.33764 0.32277
 O518 O 0.18583 0.34923 0.27681
 O519 O 0.32323 0.28582 0.25223
 O520 O 0.32544 0.23056 0.21283
 O521 O 0.29570 0.24667 0.36123
 O522 O 0.25418 0.20332 0.38656
 O523 O 0.20300 0.18107 0.18085
 O524 O 0.24144 0.23287 0.15833
 O525 O 0.11484 0.24073 0.24502
 O526 O 0.11629 0.28250 0.29833
 O527 O 0.16893 0.14036 0.28802
 O528 O 0.22777 0.12984 0.32309
 Zr529 Zr 0.22057 0.17027 0.27866
 O530 O 0.26374 0.20304 0.30500
 Zr531 Zr 0.15553 0.23756 0.28934
 O532 O 0.19603 0.27429 0.31523
 Zr533 Zr 0.20745 0.23388 0.20886
 O534 O 0.25115 0.26910 0.23189
 Zr535 Zr 0.23843 0.24193 0.34273
 O536 O 0.19544 0.20498 0.32074
 Zr537 Zr 0.29123 0.23640 0.26292
 O538 O 0.25046 0.20074 0.23572
 Zr539 Zr 0.22705 0.30526 0.27327
 O540 O 0.18244 0.27239 0.24754
 O541 O 0.17858 0.20079 0.24911
 O542 O 0.26876 0.27459 0.30270
 C543 C 0.20814 0.14720 0.19356
 C544 C 0.13438 0.15134 0.29527
 C545 C 0.11734 0.24026 0.20830
 C546 C 0.24184 0.32843 0.35830
 C547 C 0.32834 0.24339 0.34397
 C548 C 0.31473 0.32087 0.25562
 H549 H 0.28202 0.18635 0.31876
 H550 H 0.26377 0.28341 0.21083
 H551 H 0.15888 0.18474 0.23639
 H552 H 0.18220 0.29089 0.33341
 H553 H 0.18510 0.21918 0.38986
 H554 H 0.13575 0.25170 0.35954
 H555 H 0.31437 0.24726 0.19284
 H556 H 0.26338 0.21573 0.16365
 H557 H 0.24548 0.17810 0.37794
 H558 H 0.20979 0.13675 0.34409
 H559 H 0.23721 0.34040 0.20819
 H560 H 0.18716 0.29734 0.17845
 H561 H 0.28076 0.13504 0.25366
 H562 H 0.33096 0.17571 0.27754
 H563 H 0.12276 0.30229 0.27912
 H564 H 0.17040 0.34491 0.30040
 O565 O 0.68255 0.87306 0.16296
 O566 O 0.65343 0.87513 0.22655
 O567 O 0.79763 0.83735 0.18703
 O568 O 0.82609 0.78834 0.21708
 O569 O 0.73122 0.78255 0.09751
 O570 O 0.67921 0.73629 0.09799
 O571 O 0.73209 0.71475 0.29953
 O572 O 0.77814 0.76705 0.30038
 O573 O 0.62535 0.75679 0.28422
 O574 O 0.59523 0.80295 0.23624
 O575 O 0.66379 0.66972 0.21271
 O576 O 0.70828 0.66823 0.15550
 O577 O 0.72833 0.67300 0.25013
 O578 O 0.75645 0.66813 0.18670
 O579 O 0.61564 0.70954 0.23059
 O580 O 0.58622 0.76122 0.19734
 O581 O 0.68180 0.76360 0.31691
 O582 O 0.73272 0.80793 0.31763
 O583 O 0.67802 0.83034 0.11442
 O584 O 0.63521 0.77578 0.11160
 O585 O 0.78852 0.78539 0.12957
 O586 O 0.81595 0.74196 0.17589
 O587 O 0.74693 0.87636 0.19956
 O588 O 0.70677 0.87862 0.25637
 Zr589 Zr 0.70009 0.84006 0.21049
 O590 O 0.67846 0.80203 0.25200
 Zr591 Zr 0.77256 0.78232 0.18820
 O592 O 0.75339 0.74137 0.22844
 Zr593 Zr 0.68890 0.77777 0.14060
 O594 O 0.66619 0.73695 0.17866
 Zr595 Zr 0.72341 0.76796 0.27325
 O596 O 0.74629 0.80960 0.23534
 Zr597 Zr 0.64021 0.76381 0.22581
 O598 O 0.65825 0.80489 0.18482
 Zr599 Zr 0.71180 0.70579 0.20264
 O600 O 0.73441 0.74393 0.16114
 O601 O 0.72868 0.81473 0.16487
 O602 O 0.68363 0.73031 0.24929
 C603 C 0.67809 0.86438 0.12742
 C604 C 0.78255 0.87044 0.19142
 C605 C 0.76827 0.78474 0.09853
 C606 C 0.73356 0.68110 0.28559
 C607 C 0.64512 0.75856 0.31545
 C608 C 0.62897 0.67642 0.22387
 H609 H 0.66571 0.81667 0.27253
 H610 H 0.64770 0.72062 0.16470
 H611 H 0.73940 0.83306 0.14607
 H612 H 0.77563 0.72692 0.23852
 H613 H 0.79310 0.78877 0.28992
 H614 H 0.82630 0.76991 0.23856
 H615 H 0.59073 0.74956 0.17197
 H616 H 0.61733 0.79226 0.12610
 H617 H 0.71318 0.82808 0.31476
 H618 H 0.73171 0.87257 0.26890
 H619 H 0.68210 0.67051 0.14428
 H620 H 0.70128 0.71857 0.09937
 H621 H 0.63035 0.86550 0.21282
 H622 H 0.60267 0.81840 0.25872
 H623 H 0.80431 0.72318 0.15824
 H624 H 0.78025 0.67602 0.20031
 O625 O 0.78767 0.17026 0.77076
 O626 O 0.73762 0.16227 0.72770
 O627 O 0.88518 0.19748 0.69992
 O628 O 0.89794 0.24054 0.65395
 O629 O 0.86575 0.25975 0.80177
 O630 O 0.82409 0.30943 0.81886
 O631 O 0.77929 0.31017 0.61073
 O632 O 0.81397 0.25658 0.59557
 O633 O 0.68727 0.27831 0.68017
 O634 O 0.67968 0.24318 0.73986
 O635 O 0.75822 0.37014 0.71069
 O636 O 0.81993 0.37698 0.74152
 O637 O 0.79870 0.35752 0.65038
 O638 O 0.85548 0.36383 0.69749
 O639 O 0.70667 0.33311 0.72657
 O640 O 0.69602 0.28308 0.77644
 O641 O 0.72325 0.27044 0.62609
 O642 O 0.76677 0.21578 0.60961
 O643 O 0.80313 0.21592 0.81411
 O644 O 0.77342 0.27738 0.82802
 O645 O 0.90194 0.25404 0.74753
 O646 O 0.90703 0.29179 0.68801
 O647 O 0.83167 0.16050 0.70773
 O648 O 0.76810 0.15723 0.67742
 Zr649 Zr 0.78584 0.19813 0.71809
 O650 O 0.74817 0.23414 0.68848
 Zr651 Zr 0.86226 0.25281 0.70169
 O652 O 0.82830 0.29054 0.66873
 Zr653 Zr 0.80916 0.26578 0.78017
 O654 O 0.77417 0.30578 0.75131
 Zr655 Zr 0.77999 0.26233 0.64577
 O656 O 0.81731 0.22351 0.67324
 Zr657 Zr 0.72803 0.27720 0.72489
 O658 O 0.76121 0.23755 0.75627
 Zr659 Zr 0.80432 0.33148 0.70525
 O660 O 0.84125 0.29561 0.73799
 O661 O 0.83240 0.22438 0.74496
 O662 O 0.75691 0.30489 0.68019
 C663 C 0.79382 0.18170 0.80497
 C664 C 0.86807 0.16508 0.70175
 C665 C 0.89827 0.25653 0.78415
 C666 C 0.78770 0.34474 0.61745
 C667 C 0.69105 0.27544 0.64360
 C668 C 0.72245 0.36555 0.71975
 H669 H 0.72668 0.21891 0.67784
 H670 H 0.76493 0.32481 0.76988
 H671 H 0.84876 0.20636 0.75945
 H672 H 0.84419 0.30203 0.64806
 H673 H 0.83321 0.23659 0.60102
 H674 H 0.88702 0.25410 0.63157
 H675 H 0.70752 0.30420 0.79120
 H676 H 0.74997 0.26143 0.82522
 H677 H 0.74194 0.20445 0.61808
 H678 H 0.78478 0.16065 0.65451
 H679 H 0.80785 0.37219 0.76685
 H680 H 0.84091 0.32724 0.80438
 H681 H 0.72031 0.17594 0.74551
 H682 H 0.67874 0.22166 0.72177
 H683 H 0.90668 0.31165 0.70800
 H684 H 0.86636 0.35745 0.67203
 O685 O 0.23899 0.85369 0.79845
 O686 O 0.26082 0.85849 0.73470
 O687 O 0.14457 0.77366 0.78556
 O688 O 0.14015 0.71044 0.76422
 O689 O 0.22548 0.76147 0.88046
 O690 O 0.28910 0.74093 0.88637
 O691 O 0.25251 0.67224 0.69062
 O692 O 0.19260 0.70769 0.67832
 O693 O 0.33757 0.75434 0.69722
 O694 O 0.35165 0.80721 0.73442
 O695 O 0.32994 0.66429 0.77630
 O696 O 0.29278 0.65534 0.83687
 O697 O 0.26854 0.64026 0.74502
 O698 O 0.24357 0.63709 0.81211
 O699 O 0.36213 0.71741 0.75736
 O700 O 0.36476 0.78527 0.78592
 O701 O 0.28540 0.73021 0.66596
 O702 O 0.21805 0.75634 0.66043
 O703 O 0.25859 0.82453 0.85344
 O704 O 0.31816 0.78756 0.86257
 O705 O 0.17108 0.74079 0.85021
 O706 O 0.16215 0.68332 0.81268
 O707 O 0.17494 0.82741 0.76526
 O708 O 0.21357 0.83457 0.70636
 Zr709 Zr 0.23322 0.81018 0.75836
 O710 O 0.27022 0.77808 0.72334
 Zr711 Zr 0.18884 0.73361 0.79247
 O712 O 0.22237 0.69795 0.75738
 Zr713 Zr 0.26666 0.76752 0.83674
 O714 O 0.30355 0.73189 0.80503
 Zr715 Zr 0.24180 0.72767 0.70840
 O716 O 0.20319 0.76145 0.74063
 Zr717 Zr 0.31922 0.76007 0.75423
 O718 O 0.28508 0.79729 0.78752
 Zr719 Zr 0.27329 0.68335 0.78661
 O720 O 0.23805 0.71633 0.82330
 O721 O 0.21610 0.78344 0.80887
 O722 O 0.29195 0.71044 0.73652
 C723 C 0.24859 0.85400 0.83395
 C724 C 0.14448 0.80861 0.77527
 C725 C 0.18992 0.75112 0.88036
 C726 C 0.26167 0.64198 0.70881
 C727 C 0.32062 0.74187 0.66701
 C728 C 0.36077 0.68182 0.76555
 H729 H 0.27747 0.79339 0.70057
 H730 H 0.32641 0.72530 0.82064
 H731 H 0.19932 0.79956 0.82501
 H732 H 0.20685 0.67539 0.75054
 H733 H 0.18153 0.68619 0.69301
 H734 H 0.14148 0.71964 0.73734
 H735 H 0.37324 0.76690 0.80569
 H736 H 0.32801 0.80843 0.84613
 H737 H 0.23459 0.77865 0.65491
 H738 H 0.19287 0.81778 0.69647
 H739 H 0.31612 0.66872 0.84621
 H740 H 0.28117 0.71401 0.88478
 H741 H 0.28719 0.85920 0.74574
 H742 H 0.33416 0.82268 0.71837
 H743 H 0.17897 0.67315 0.83324
 H744 H 0.21995 0.63233 0.79682
 O745 O 0.28107 0.36879 0.77664
 O746 O 0.24270 0.37178 0.83849
 O747 O 0.38888 0.32569 0.81417
 O748 O 0.40803 0.27561 0.85306
 O749 O 0.33256 0.27270 0.72017
 O750 O 0.27631 0.23164 0.71412
 O751 O 0.30118 0.20945 0.92098
 O752 O 0.35062 0.25727 0.92673
 O753 O 0.20079 0.25770 0.89175
 O754 O 0.18202 0.30953 0.84257
 O755 O 0.23878 0.17048 0.82255
 O756 O 0.29491 0.16546 0.77362
 O757 O 0.29224 0.16787 0.87213
 O758 O 0.33191 0.15659 0.81953
 O759 O 0.19237 0.21484 0.83204
 O760 O 0.17324 0.27069 0.80105
 O761 O 0.25326 0.25997 0.93102
 O762 O 0.30315 0.30364 0.93734
 O763 O 0.27977 0.32522 0.72873
 O764 O 0.23559 0.27418 0.72027
 O765 O 0.38470 0.27561 0.75978
 O766 O 0.40243 0.23008 0.80751
 O767 O 0.34166 0.36864 0.82666
 O768 O 0.29550 0.37993 0.86845
 Zr769 Zr 0.29061 0.33632 0.82730
 O770 O 0.26139 0.30062 0.86659
 Zr771 Zr 0.36022 0.27267 0.81520
 O772 O 0.33269 0.23332 0.85243
 Zr773 Zr 0.28425 0.27322 0.75705
 O774 O 0.25262 0.23600 0.79220
 Zr775 Zr 0.29999 0.26281 0.89307
 O776 O 0.33039 0.30253 0.85833
 Zr777 Zr 0.22325 0.26589 0.83561
 O778 O 0.25025 0.30384 0.79641
 Zr779 Zr 0.29139 0.20117 0.82215
 O780 O 0.32334 0.23628 0.78392
 O781 O 0.32269 0.30818 0.78585
 O782 O 0.25992 0.22896 0.86434
 C783 C 0.27832 0.35935 0.74101
 C784 C 0.37682 0.35979 0.81937
 C785 C 0.36920 0.27419 0.72632
 C786 C 0.29563 0.17580 0.90797
 C787 C 0.21685 0.25685 0.92516
 C788 C 0.20329 0.18082 0.82587
 H789 H 0.24783 0.31603 0.88602
 H790 H 0.23494 0.22168 0.77523
 H791 H 0.33667 0.32568 0.76835
 H792 H 0.35181 0.21681 0.86525
 H793 H 0.36807 0.27837 0.91929
 H794 H 0.40536 0.25471 0.87193
 H795 H 0.17939 0.25881 0.77610
 H796 H 0.21666 0.29164 0.73200
 H797 H 0.32111 0.32370 0.92830
 H798 H 0.29034 0.36818 0.89379
 H799 H 0.26994 0.16720 0.75984
 H800 H 0.29735 0.21297 0.71727
 H801 H 0.22318 0.36657 0.81837
 H802 H 0.18617 0.32130 0.86800
 H803 H 0.39173 0.21184 0.78872
 H804 H 0.35768 0.16778 0.82440
 O805 O 0.78704 0.68523 0.63764
 O806 O 0.84440 0.67775 0.68249
 O807 O 0.69700 0.71624 0.71233
 O808 O 0.68496 0.76206 0.75533
 O809 O 0.72137 0.78273 0.60900
 O810 O 0.76952 0.82866 0.59361
 O811 O 0.80553 0.82418 0.80053
 O812 O 0.76631 0.77108 0.81461
 O813 O 0.89764 0.78400 0.73441
 O814 O 0.90103 0.74352 0.67448
 O815 O 0.83958 0.87719 0.70705
 O816 O 0.77798 0.88862 0.66457
 O817 O 0.78804 0.87148 0.75977
 O818 O 0.74307 0.88549 0.71126
 O819 O 0.88587 0.83691 0.68590
 O820 O 0.89523 0.78854 0.63985
 O821 O 0.86055 0.77645 0.78793
 O822 O 0.81586 0.72868 0.80337
 O823 O 0.77950 0.73401 0.59547
 O824 O 0.81459 0.79144 0.58302
 O825 O 0.68341 0.77044 0.66102
 O826 O 0.67956 0.81188 0.71799
 O827 O 0.74739 0.67570 0.70578
 O828 O 0.80531 0.66178 0.72480
 Zr829 Zr 0.79438 0.71091 0.69176
 O830 O 0.83318 0.74336 0.72462
 Zr831 Zr 0.72245 0.77045 0.70789
 O832 O 0.75852 0.80598 0.74115
 Zr833 Zr 0.77802 0.78209 0.63094
 O834 O 0.81680 0.81757 0.66068
 Zr835 Zr 0.80352 0.77477 0.76638
 O836 O 0.76478 0.73817 0.73693
 Zr837 Zr 0.85849 0.78420 0.68839
 O838 O 0.82266 0.74915 0.65458
 Zr839 Zr 0.78763 0.84512 0.70552
 O840 O 0.74751 0.81276 0.67281
 O841 O 0.75066 0.74111 0.66474
 O842 O 0.83153 0.81468 0.73217
 C843 C 0.78276 0.69868 0.60348
 C844 C 0.71161 0.68279 0.71190
 C845 C 0.68837 0.77664 0.62483
 C846 C 0.79678 0.85889 0.79335
 C847 C 0.89342 0.78025 0.77081
 C848 C 0.87463 0.86931 0.69742
 H849 H 0.85250 0.72650 0.73663
 H850 H 0.82875 0.83580 0.64253
 H851 H 0.73274 0.72434 0.65047
 H852 H 0.74255 0.81868 0.76080
 H853 H 0.74680 0.75138 0.80861
 H854 H 0.69594 0.77615 0.77729
 H855 H 0.88317 0.80651 0.62163
 H856 H 0.83707 0.77447 0.58628
 H857 H 0.79679 0.70857 0.79738
 H858 H 0.81572 0.67052 0.74970
 H859 H 0.80223 0.89282 0.65000
 H860 H 0.75441 0.84748 0.60825
 H861 H 0.85555 0.68570 0.65748
 H862 H 0.90338 0.72585 0.69648
 H863 H 0.68150 0.83066 0.69685
 H864 H 0.72289 0.87375 0.72767
 O865 O 0.24003 0.61379 0.31071
 O866 O 0.20106 0.59316 0.25781
 O867 O 0.32184 0.68845 0.26138
 O868 O 0.32197 0.74169 0.22605
 O869 O 0.26047 0.71762 0.36314
 O870 O 0.19874 0.74491 0.37445
 O871 O 0.20405 0.76389 0.16276
 O872 O 0.25011 0.72161 0.14851
 O873 O 0.11379 0.68480 0.20776
 O874 O 0.11205 0.64043 0.25759
 O875 O 0.13130 0.78863 0.26064
 O876 O 0.17490 0.81588 0.30266
 O877 O 0.18600 0.80559 0.20896
 O878 O 0.22280 0.82499 0.27011
 O879 O 0.10001 0.73187 0.26209
 O880 O 0.10698 0.67341 0.30452
 O881 O 0.15506 0.71114 0.16444
 O882 O 0.21793 0.66928 0.15216
 O883 O 0.22033 0.65353 0.35807
 O884 O 0.16603 0.69598 0.37052
 O885 O 0.30486 0.73610 0.31858
 O886 O 0.30190 0.78310 0.26505
 O887 O 0.28988 0.63256 0.25366
 O888 O 0.23989 0.60667 0.21480
 Zr889 Zr 0.23104 0.64544 0.26006
 O890 O 0.18693 0.66744 0.22494
 Zr891 Zr 0.27706 0.72817 0.26509
 O892 O 0.23619 0.75335 0.22846
 Zr893 Zr 0.21090 0.70583 0.33024
 O894 O 0.16725 0.73186 0.29745
 Zr895 Zr 0.20918 0.71298 0.19294
 O896 O 0.25472 0.68865 0.22526
 Zr897 Zr 0.14405 0.69160 0.25953
 O898 O 0.18526 0.66458 0.29479
 Zr899 Zr 0.19046 0.77468 0.26162
 O900 O 0.23342 0.75239 0.29910
 O901 O 0.25603 0.68359 0.29810
 O902 O 0.16436 0.73605 0.22494
 C903 C 0.23253 0.62131 0.34602
 C904 C 0.32090 0.65263 0.25563
 C905 C 0.29414 0.72978 0.35347
 C906 C 0.19426 0.79699 0.17382
 C907 C 0.12169 0.69781 0.17427
 C908 C 0.10048 0.76807 0.26194
 H909 H 0.17620 0.64741 0.20824
 H910 H 0.14748 0.74203 0.31513
 H911 H 0.27650 0.67165 0.31383
 H912 H 0.24991 0.77324 0.21364
 H913 H 0.27492 0.71121 0.15792
 H914 H 0.30966 0.74495 0.20065
 H915 H 0.10231 0.69532 0.32152
 H916 H 0.15275 0.67235 0.36268
 H917 H 0.19256 0.65790 0.14569
 H918 H 0.25205 0.62119 0.19357
 H919 H 0.16940 0.80214 0.32687
 H920 H 0.21117 0.76914 0.36685
 H921 H 0.17952 0.59484 0.27651
 H922 H 0.12793 0.62181 0.24357
 H923 H 0.29067 0.79682 0.28713
 H924 H 0.24068 0.82783 0.24805
 O925 O 0.73240 0.32724 0.28615
 O926 O 0.76321 0.33158 0.22282
 O927 O 0.62668 0.26651 0.25205
 O928 O 0.61087 0.20984 0.23029
 O929 O 0.69345 0.23425 0.35479
 O930 O 0.75221 0.19709 0.36199
 O931 O 0.72206 0.15285 0.16049
 O932 O 0.66889 0.19873 0.15127
 O933 O 0.81925 0.22288 0.17894
 O934 O 0.83584 0.27260 0.22608
 O935 O 0.79186 0.13017 0.25348
 O936 O 0.74527 0.12333 0.30910
 O937 O 0.73014 0.11698 0.21419
 O938 O 0.70029 0.11116 0.27540
 O939 O 0.83256 0.17786 0.23565
 O940 O 0.84788 0.23719 0.26886
 O941 O 0.76724 0.20732 0.14236
 O942 O 0.71207 0.24195 0.13129
 O943 O 0.74552 0.28930 0.33741
 O944 O 0.78984 0.24141 0.35039
 O945 O 0.64007 0.22771 0.31716
 O946 O 0.62768 0.17180 0.27552
 O947 O 0.66914 0.31533 0.24471
 O948 O 0.71227 0.32431 0.19191
 Zr949 Zr 0.72330 0.28916 0.23996
 O950 O 0.75524 0.25372 0.20322
 Zr951 Zr 0.66247 0.21944 0.26146
 O952 O 0.69245 0.18058 0.22657
 Zr953 Zr 0.74018 0.23426 0.31576
 O954 O 0.77387 0.19719 0.28277
 Zr955 Zr 0.72082 0.20920 0.18160
 O956 O 0.68713 0.24812 0.21398
 Zr957 Zr 0.79790 0.22623 0.23548
 O958 O 0.76853 0.26458 0.27157
 Zr959 Zr 0.73746 0.15605 0.25858
 O960 O 0.70408 0.19101 0.29486
 O961 O 0.69661 0.26175 0.28566
 O962 O 0.76473 0.18253 0.21205
 C963 C 0.74162 0.32191 0.32168
 C964 C 0.63474 0.30178 0.24798
 C965 C 0.65666 0.23212 0.34992
 C966 C 0.72526 0.12072 0.17794
 C967 C 0.80336 0.21478 0.14661
 C968 C 0.82530 0.14321 0.24393
 H969 H 0.76642 0.26933 0.18230
 H970 H 0.79400 0.18579 0.29922
 H971 H 0.68205 0.27975 0.30184
 H972 H 0.67416 0.16139 0.21659
 H973 H 0.65094 0.21954 0.15775
 H974 H 0.61760 0.19407 0.20787
 H975 H 0.84771 0.21955 0.29101
 H976 H 0.80918 0.25474 0.33419
 H977 H 0.71836 0.26844 0.13789
 H978 H 0.69097 0.31218 0.17738
 H979 H 0.77006 0.13102 0.32097
 H980 H 0.73322 0.17608 0.36043
 H981 H 0.78613 0.32889 0.23963
 H982 H 0.82564 0.28744 0.20418
 H983 H 0.63913 0.15991 0.29865
 H984 H 0.67529 0.11501 0.26218
 N985 N 0.19994 0.11855 0.13218
 N986 N 0.20813 0.11637 0.16766
 N987 N 0.76950 0.63870 0.57911
 N988 N 0.78030 0.67254 0.57249
 N989 N 0.69755 0.88756 0.06865
 N990 N 0.67997 0.89439 0.09997
 N991 N 0.28879 0.38240 0.67944
 N992 N 0.27443 0.38831 0.71259
 N993 N 0.79888 0.15660 0.86872
 N994 N 0.78848 0.15369 0.83389
 N995 N 0.22063 0.59130 0.40521
 N996 N 0.23957 0.59239 0.37385
 N997 N 0.24629 0.89439 0.88711
 N998 N 0.24741 0.88997 0.85210
 N999 N 0.73483 0.38658 0.33795
 N1000 N 0.74791 0.35391 0.34593
 N1001 N 0.07603 0.23902 0.15392
 N1002 N 0.08143 0.24432 0.18847
 N1003 N 0.62707 0.75350 0.60601
 N1004 N 0.65541 0.77594 0.60006
 N1005 N 0.13569 0.74722 0.92061
 N1006 N 0.17074 0.75199 0.91659
 N1007 N 0.59850 0.24866 0.38079
 N1008 N 0.63285 0.23604 0.38313
 N1009 N 0.82126 0.77820 0.05722
 N1010 N 0.78742 0.78767 0.06234
 N1011 N 0.38213 0.26352 0.66131
 N1012 N 0.39436 0.27482 0.69376
 N1013 N 0.93434 0.25001 0.84099
 N1014 N 0.93320 0.25525 0.80597
 N1015 N 0.35283 0.75346 0.37851
 N1016 N 0.32199 0.73422 0.38344
 N1017 N 0.11167 0.09021 0.28294
 N1018 N 0.10488 0.12286 0.29686
 N1019 N 0.65078 0.65294 0.71115
 N1020 N 0.68668 0.65116 0.71868
 N1021 N 0.92257 0.12590 0.70907
 N1022 N 0.88994 0.13141 0.69600
 N1023 N 0.35925 0.60445 0.23116
 N1024 N 0.35670 0.63333 0.25263
 N1025 N 0.10302 0.86150 0.77470
 N1026 N 0.10762 0.82690 0.77556
 N1027 N 0.60919 0.36128 0.26011
 N1028 N 0.60353 0.32786 0.24786
 N1029 N 0.84048 0.90561 0.19102
 N1030 N 0.80549 0.90355 0.18493
 N1031 N 0.43098 0.38725 0.79005
 N1032 N 0.40339 0.39038 0.81397
 N1033 N 0.15828 0.24610 0.95699
 N1034 N 0.19338 0.25178 0.95851
 N1035 N 0.59304 0.73824 0.35372
 N1036 N 0.62496 0.75605 0.35107
 N1037 N 0.92862 0.77274 0.82760
 N1038 N 0.92807 0.78026 0.79304
 N1039 N 0.35992 0.26379 0.39869
 N1040 N 0.36222 0.24618 0.36701
 N1041 N 0.08787 0.72831 0.12528
 N1042 N 0.09085 0.69953 0.14712
 N1043 N 0.62392 0.26974 0.63345
 N1044 N 0.65739 0.27756 0.62039
 N1045 N 0.85648 0.23714 0.11208
 N1046 N 0.82751 0.21480 0.11323
 N1047 N 0.37097 0.76346 0.62796
 N1048 N 0.34273 0.74064 0.63248
 N1049 N 0.27231 0.11583 0.92346
 N1050 N 0.29007 0.14541 0.93489
 N1051 N 0.73361 0.65096 0.34645
 N1052 N 0.74119 0.65010 0.31069
 N1053 N 0.73103 0.08229 0.12288
 N1054 N 0.72208 0.08617 0.15690
 N1055 N 0.27737 0.60966 0.65308
 N1056 N 0.26357 0.60812 0.68695
 N1057 N 0.77398 0.91399 0.82391
 N1058 N 0.79525 0.88461 0.82516
 N1059 N 0.23687 0.35287 0.42051
 N1060 N 0.24601 0.35826 0.38549
 N1061 N 0.18233 0.85911 0.14925
 N1062 N 0.19594 0.82601 0.14507
 N1063 N 0.80033 0.40207 0.58412
 N1064 N 0.78331 0.37019 0.58589
 N1065 N 0.18012 0.11834 0.81821
 N1066 N 0.17360 0.15368 0.81895
 N1067 N 0.60826 0.61311 0.21436
 N1068 N 0.60297 0.64535 0.22965
 N1069 N 0.06038 0.82052 0.26018
 N1070 N 0.06390 0.78609 0.26372
 N1071 N 0.66936 0.39890 0.74456
 N1072 N 0.69869 0.39869 0.72235
 N1073 N 0.85409 0.08387 0.25410
 N1074 N 0.85690 0.11784 0.24232
 N1075 N 0.39572 0.62467 0.75846
 N1076 N 0.39596 0.66058 0.76261
 N1077 N 0.90100 0.92348 0.72638
 N1078 N 0.90400 0.89721 0.70181
 N1079 N 0.35193 0.37495 0.27153
 N1080 N 0.34546 0.34730 0.24907
   
