data_POSCAR
  _audit_creation_date              2014-09-24
  _audit_creation_method            'ToBaCCo'
  _symmetry_space_group_name_H-M    'P1'
  _symmetry_Int_Tables_number       1
  _symmetry_cell_setting            triclinic
  loop_
  _symmetry_equiv_pos_as_xyz
 x,y,z
_cell_length_a 39.1135
_cell_length_b 39.6910
_cell_length_c 48.3148
_cell_angle_alpha 89.932200
_cell_angle_beta 89.743600
_cell_angle_gamma 89.946800
loop_
  _atom_site_label
  _atom_site_type_symbol
  _atom_site_fract_x
  _atom_site_fract_y
  _atom_site_fract_z
Zr1 Zr 0.24844 0.24997 0.29592
 O2 O 0.27415 0.27857 0.32638
 O3 O 0.21430 0.22156 0.32003
 O4 O 0.21475 0.28354 0.31611
 O5 O 0.31127 0.18875 0.29012
 O6 O 0.18824 0.31153 0.28085
 O7 O 0.27984 0.21946 0.32111
 O8 O 0.18346 0.19245 0.28794
 O9 O 0.20433 0.25030 0.27152
 O10 O 0.24813 0.20422 0.27454
 O11 O 0.25296 0.29265 0.27029
 O12 O 0.29512 0.24838 0.27382
 Zr13 Zr 0.25449 0.24478 0.19947
 Zr14 Zr 0.21004 0.29126 0.24452
 Zr15 Zr 0.29287 0.20348 0.25095
 Zr16 Zr 0.20536 0.20537 0.24924
 O17 O 0.34691 0.20581 0.25122
 O18 O 0.15226 0.21572 0.24681
 O19 O 0.25000 0.20167 0.22493
 O20 O 0.20826 0.24629 0.22192
 O21 O 0.25480 0.29083 0.22057
 O22 O 0.29821 0.24449 0.22424
 C23 C 0.19061 0.20096 0.31295
 C24 C 0.30284 0.19747 0.31487
 C25 C 0.19345 0.30538 0.30663
 O26 O 0.15621 0.28875 0.24099
 O27 O 0.19542 0.30967 0.20537
 O28 O 0.22534 0.27760 0.17435
 C29 C 0.20394 0.30112 0.18060
 O30 O 0.31952 0.30948 0.28281
 Zr31 Zr 0.29750 0.28940 0.24624
 O32 O 0.28826 0.27373 0.17538
 O33 O 0.21639 0.34420 0.24435
 O34 O 0.29109 0.34242 0.24451
 O35 O 0.35108 0.28114 0.24588
 O36 O 0.31603 0.30586 0.20738
 C37 C 0.30963 0.29671 0.18240
 O38 O 0.22731 0.21789 0.16881
 O39 O 0.28649 0.15070 0.25436
 O40 O 0.28576 0.20882 0.17931
 O41 O 0.31069 0.17965 0.21473
 O42 O 0.20957 0.15236 0.25363
 O43 O 0.18715 0.18101 0.21304
 C44 C 0.30540 0.18552 0.18892
 H45 H 0.24726 0.18434 0.28691
 H46 H 0.18836 0.24582 0.20933
 H47 H 0.31966 0.24259 0.21341
 H48 H 0.25355 0.31359 0.28140
 H49 H 0.13994 0.19503 0.25253
 H50 H 0.14775 0.31229 0.24054
 H51 H 0.19329 0.35416 0.24237
 H52 H 0.31357 0.35237 0.23965
 H53 H 0.18648 0.14358 0.25810
 H54 H 0.30967 0.14086 0.25623
 H55 H 0.35528 0.18225 0.25200
 H56 H 0.36213 0.30267 0.24058
 H57 H 0.16691 0.16716 0.21778
 H58 H 0.23700 0.22453 0.15059
 H59 H 0.26466 0.27182 0.34465
 H60 H 0.33584 0.32758 0.27782
 Zr61 Zr 0.75649 0.74832 0.29885
 O62 O 0.73121 0.71996 0.32994
 O63 O 0.79071 0.77715 0.32232
 O64 O 0.79025 0.71482 0.31876
 O65 O 0.69336 0.80917 0.29341
 O66 O 0.81636 0.68652 0.28334
 O67 O 0.72513 0.77878 0.32421
 O68 O 0.82104 0.80621 0.28961
 O69 O 0.80038 0.74786 0.27389
 O70 O 0.75646 0.79390 0.27714
 O71 O 0.75178 0.70543 0.27359
 O72 O 0.70959 0.74958 0.27737
 Zr73 Zr 0.74950 0.75263 0.20256
 Zr74 Zr 0.79443 0.70668 0.24723
 Zr75 Zr 0.71152 0.79429 0.25415
 Zr76 Zr 0.79901 0.79262 0.25130
 O77 O 0.65747 0.79198 0.25519
 O78 O 0.85211 0.78232 0.24843
 O79 O 0.75413 0.79601 0.22755
 O80 O 0.79596 0.75147 0.22432
 O81 O 0.74944 0.70673 0.22392
 O82 O 0.70601 0.75304 0.22788
 C83 C 0.81413 0.79795 0.31479
 C84 C 0.70196 0.80057 0.31809
 C85 C 0.81126 0.69277 0.30911
 O86 O 0.84823 0.70932 0.24305
 O87 O 0.80868 0.68801 0.20801
 O88 O 0.77823 0.71969 0.17724
 C89 C 0.79975 0.69630 0.18334
 O90 O 0.68549 0.68825 0.28713
 Zr91 Zr 0.70700 0.70830 0.25015
 O92 O 0.71545 0.72360 0.17911
 O93 O 0.78830 0.65371 0.24745
 O94 O 0.71363 0.65531 0.24850
 O95 O 0.65341 0.71648 0.25073
 O96 O 0.68781 0.69179 0.21166
 C97 C 0.69395 0.70084 0.18654
 O98 O 0.77640 0.77940 0.17141
 O99 O 0.71782 0.84712 0.25703
 O100 O 0.71792 0.78805 0.18250
 O101 O 0.69319 0.81756 0.21794
 O102 O 0.79463 0.84568 0.25514
 O103 O 0.81700 0.81659 0.21467
 C104 C 0.69822 0.81126 0.19214
 H105 H 0.75734 0.81388 0.28935
 H106 H 0.81572 0.75185 0.21145
 H107 H 0.68442 0.75480 0.21737
 H108 H 0.75130 0.68457 0.28484
 H109 H 0.86442 0.80310 0.25382
 H110 H 0.85674 0.68580 0.24260
 H111 H 0.81141 0.64381 0.24517
 H112 H 0.69116 0.64527 0.24395
 H113 H 0.81771 0.85461 0.25924
 H114 H 0.69464 0.85691 0.25913
 H115 H 0.64910 0.81554 0.25583
 H116 H 0.64230 0.69492 0.24570
 H117 H 0.83727 0.83049 0.21906
 H118 H 0.76661 0.77264 0.15334
 H119 H 0.74088 0.72689 0.34802
 H120 H 0.66930 0.66998 0.28246
 Zr121 Zr 0.75139 0.25018 -0.29626
 O122 O 0.72575 0.27887 -0.32679
 O123 O 0.78541 0.22157 -0.32033
 O124 O 0.78514 0.28357 -0.31654
 O125 O 0.68828 0.18936 -0.29019
 O126 O 0.81183 0.31143 -0.28137
 O127 O 0.71978 0.21980 -0.32133
 O128 O 0.81621 0.19236 -0.28818
 O129 O 0.79555 0.25031 -0.27190
 O130 O 0.75158 0.20446 -0.27476
 O131 O 0.74712 0.29291 -0.27072
 O132 O 0.70475 0.24894 -0.27409
 Zr133 Zr 0.74557 0.24520 -0.19977
 Zr134 Zr 0.79008 0.29133 -0.24498
 Zr135 Zr 0.70690 0.20406 -0.25112
 Zr136 Zr 0.79440 0.20541 -0.24950
 O137 O 0.65286 0.20671 -0.25128
 O138 O 0.84755 0.21543 -0.24715
 O139 O 0.74979 0.20203 -0.22513
 O140 O 0.79176 0.24637 -0.22227
 O141 O 0.74538 0.29123 -0.22098
 O142 O 0.70179 0.24512 -0.22448
 C143 C 0.80906 0.20087 -0.31321
 C144 C 0.69668 0.19796 -0.31499
 C145 C 0.80652 0.30530 -0.30712
 O146 O 0.84391 0.28850 -0.24156
 O147 O 0.80493 0.30970 -0.20590
 O148 O 0.77494 0.27785 -0.17476
 C149 C 0.79644 0.30124 -0.18109
 O150 O 0.68061 0.31023 -0.28318
 Zr151 Zr 0.70262 0.29000 -0.24660
 O152 O 0.71197 0.27437 -0.17572
 O153 O 0.78394 0.34430 -0.24493
 O154 O 0.70924 0.34298 -0.24505
 O155 O 0.64902 0.28198 -0.24614
 O156 O 0.68425 0.30662 -0.20775
 C157 C 0.69068 0.29747 -0.18276
 O158 O 0.77268 0.21818 -0.16906
 O159 O 0.71303 0.15123 -0.25440
 O160 O 0.71422 0.20944 -0.17951
 O161 O 0.68912 0.18038 -0.21483
 O162 O 0.78997 0.15242 -0.25376
 O163 O 0.81252 0.18097 -0.21324
 C164 C 0.69451 0.18625 -0.18906
 H165 H 0.75234 0.18457 -0.28708
 H166 H 0.81168 0.24580 -0.20972
 H167 H 0.68035 0.24335 -0.21362
 H168 H 0.74659 0.31384 -0.28187
 H169 H 0.85976 0.19465 -0.25281
 H170 H 0.85247 0.31199 -0.24118
 H171 H 0.80708 0.35413 -0.24300
 H172 H 0.68682 0.35306 -0.24018
 H173 H 0.81303 0.14351 -0.25822
 H174 H 0.68981 0.14153 -0.25617
 H175 H 0.64439 0.18320 -0.25193
 H176 H 0.63803 0.30355 -0.24083
 H177 H 0.83272 0.16701 -0.21796
 H178 H 0.76303 0.22489 -0.15085
 H179 H 0.73516 0.27202 -0.34504
 H180 H 0.66425 0.32831 -0.27819
 Zr181 Zr 0.24341 0.74852 -0.29967
 O182 O 0.26914 0.72071 -0.33082
 O183 O 0.20954 0.77786 -0.32316
 O184 O 0.20994 0.71546 -0.32026
 O185 O 0.30646 0.80915 -0.29292
 O186 O 0.18326 0.68661 -0.28537
 O187 O 0.27522 0.77944 -0.32437
 O188 O 0.17871 0.80632 -0.29047
 O189 O 0.19913 0.74765 -0.27514
 O190 O 0.24309 0.79367 -0.27747
 O191 O 0.24767 0.70514 -0.27480
 O192 O 0.28995 0.74922 -0.27769
 Zr193 Zr 0.24881 0.75092 -0.20326
 Zr194 Zr 0.20461 0.70597 -0.24883
 Zr195 Zr 0.28766 0.79350 -0.25402
 Zr196 Zr 0.20013 0.79199 -0.25208
 O197 O 0.34171 0.79106 -0.25453
 O198 O 0.14700 0.78171 -0.24988
 O199 O 0.24463 0.79478 -0.22784
 O200 O 0.20271 0.75033 -0.22549
 O201 O 0.24922 0.70542 -0.22507
 O202 O 0.29269 0.75174 -0.22813
 C203 C 0.18598 0.79856 -0.31569
 C204 C 0.29831 0.80111 -0.31782
 C205 C 0.18876 0.69331 -0.31102
 O206 O 0.15074 0.70861 -0.24520
 O207 O 0.18965 0.68660 -0.20994
 O208 O 0.21965 0.71758 -0.17857
 C209 C 0.19816 0.69437 -0.18506
 O210 O 0.31406 0.68789 -0.28784
 Zr211 Zr 0.29207 0.70742 -0.25088
 O212 O 0.28254 0.72145 -0.17977
 O213 O 0.21076 0.65300 -0.24957
 O214 O 0.28537 0.65443 -0.24978
 O215 O 0.34566 0.71549 -0.25089
 O216 O 0.31076 0.69025 -0.21236
 C217 C 0.30425 0.69887 -0.18722
 O218 O 0.22142 0.77716 -0.17210
 O219 O 0.28141 0.84639 -0.25634
 O220 O 0.28003 0.78585 -0.18251
 O221 O 0.30539 0.81596 -0.21734
 O222 O 0.20453 0.84510 -0.25531
 O223 O 0.18161 0.81536 -0.21539
 C224 C 0.29991 0.80917 -0.19168
 H225 H 0.24241 0.81389 -0.28947
 H226 H 0.18274 0.75053 -0.21282
 H227 H 0.31413 0.75325 -0.21740
 H228 H 0.24831 0.68449 -0.28626
 H229 H 0.13476 0.80260 -0.25519
 H230 H 0.14224 0.68510 -0.24510
 H231 H 0.18762 0.64310 -0.24759
 H232 H 0.30776 0.64425 -0.24509
 H233 H 0.18150 0.85414 -0.25955
 H234 H 0.30462 0.85617 -0.25808
 H235 H 0.35010 0.81461 -0.25482
 H236 H 0.35670 0.69383 -0.24597
 H237 H 0.16132 0.82925 -0.21982
 H238 H 0.23092 0.77004 -0.15400
 H239 H 0.25976 0.72805 -0.34891
 H240 H 0.33020 0.66953 -0.28317
 Zr241 Zr 1.25649 1.25310 0.79834
 O242 O 1.23013 1.22807 0.83076
 O243 O 1.29166 1.28254 0.82017
 O244 O 1.28952 1.22136 0.82052
 O245 O 1.19560 1.31531 0.78931
 O246 O 1.31531 1.18919 0.78725
 O247 O 1.22638 1.28661 0.82180
 O248 O 1.32355 1.30714 0.78598
 O249 O 1.30039 1.24905 0.77367
 O250 O 1.25815 1.29668 0.77409
 O251 O 1.25052 1.20813 0.77593
 O252 O 1.20971 1.25399 0.77680
 Zr253 Zr 1.24990 1.24917 0.70231
 Zr254 Zr 1.29329 1.20570 0.74975
 Zr255 Zr 1.21326 1.29652 0.75105
 Zr256 Zr 1.30067 1.29170 0.74850
 O257 O 1.15916 1.29617 0.75203
 O258 O 1.35340 1.27957 0.74592
 O259 O 1.25594 1.29451 0.72455
 O260 O 1.29629 1.24830 0.72417
 O261 O 1.24833 1.20524 0.72631
 O262 O 1.20642 1.25320 0.72739
 C263 C 1.31624 1.30127 0.81153
 C264 C 1.20397 1.30852 0.81442
 C265 C 1.31050 1.19841 0.81251
 O266 O 1.34709 1.20599 0.74505
 O267 O 1.30655 1.18300 0.71175
 O268 O 1.27727 1.21307 0.67917
 C269 C 1.29787 1.18951 0.68665
 O270 O 1.18383 1.19423 0.79022
 Zr271 Zr 1.20588 1.21044 0.75220
 O272 O 1.21473 1.21963 0.68051
 O273 O 1.28548 1.15318 0.75373
 O274 O 1.21090 1.15726 0.75336
 O275 O 1.15255 1.22015 0.75238
 O276 O 1.18586 1.19163 0.71468
 C277 C 1.19226 1.19848 0.68914
 O278 O 1.27792 1.27209 0.66976
 O279 O 1.22138 1.34922 0.75085
 O280 O 1.21971 1.28377 0.68002
 O281 O 1.19582 1.31708 0.71349
 O282 O 1.29840 1.34507 0.74967
 O283 O 1.31900 1.31200 0.71051
 C284 C 1.20075 1.30838 0.68816
 H285 H 1.25978 1.31760 0.78514
 H286 H 1.31603 1.24690 0.71133
 H287 H 1.18490 1.25480 0.71677
 H288 H 1.24947 1.18842 0.78849
 H289 H 1.36640 1.30036 0.75008
 H290 H 1.35476 1.18224 0.74630
 H291 H 1.30827 1.14243 0.75210
 H292 H 1.18813 1.14756 0.74935
 H293 H 1.32187 1.35337 0.75319
 H294 H 1.19855 1.35993 0.75227
 H295 H 1.15165 1.32001 0.75132
 H296 H 1.14079 1.19852 0.74871
 H297 H 1.33970 1.32567 0.71401
 H298 H 1.26793 1.26414 0.65210
 H299 H 1.23982 1.23619 0.84848
 H300 H 1.16740 1.17580 0.78663
 Zr301 Zr 0.74990 0.75202 0.79897
 O302 O 0.77878 0.77687 0.82979
 O303 O 0.71412 0.72530 0.82280
 O304 O 0.71982 0.78707 0.82099
 O305 O 0.80734 0.68642 0.79005
 O306 O 0.69466 0.81892 0.78731
 O307 O 0.77924 0.71797 0.82253
 O308 O 0.68029 0.70023 0.79039
 O309 O 0.70529 0.75690 0.77551
 O310 O 0.74546 0.70751 0.77617
 O311 O 0.75705 0.79553 0.77474
 O312 O 0.79574 0.74800 0.77598
 Zr313 Zr 0.75303 0.75115 0.70255
 Zr314 Zr 0.71347 0.79868 0.74981
 Zr315 Zr 0.78941 0.70456 0.75174
 Zr316 Zr 0.70226 0.71315 0.75178
 O317 O 0.84349 0.70266 0.75146
 O318 O 0.65004 0.72746 0.75051
 O319 O 0.74587 0.70718 0.72652
 O320 O 0.70762 0.75509 0.72585
 O321 O 0.75745 0.79604 0.72500
 O322 O 0.79721 0.74644 0.72644
 C323 C 0.68867 0.70699 0.81549
 C324 C 0.80021 0.69460 0.81517
 C325 C 0.70021 0.81107 0.81276
 O326 O 0.65949 0.80040 0.74760
 O327 O 0.69902 0.81967 0.71148
 O328 O 0.72573 0.78695 0.67902
 C329 C 0.70617 0.81151 0.68634
 O330 O 0.82491 0.80681 0.78655
 Zr331 Zr 0.80056 0.79015 0.74979
 O332 O 0.78822 0.77859 0.67873
 O333 O 0.72389 0.85096 0.75088
 O334 O 0.79813 0.84352 0.74958
 O335 O 0.85339 0.77810 0.74841
 O336 O 0.81961 0.80665 0.71111
 C337 C 0.81178 0.79918 0.68603
 O338 O 0.72314 0.72751 0.67174
 O339 O 0.77884 0.65231 0.75317
 O340 O 0.78151 0.71468 0.68051
 O341 O 0.80519 0.68191 0.71433
 O342 O 0.70226 0.65982 0.75460
 O343 O 0.68149 0.69201 0.71512
 C344 C 0.80000 0.68983 0.68886
 H345 H 0.74327 0.68717 0.78792
 H346 H 0.68741 0.75668 0.71366
 H347 H 0.81826 0.74357 0.71525
 H348 H 0.75962 0.81579 0.78649
 H349 H 0.63631 0.70747 0.75578
 H350 H 0.65292 0.82452 0.74796
 H351 H 0.70156 0.86267 0.74975
 H352 H 0.82117 0.85198 0.74456
 H353 H 0.67860 0.65268 0.75909
 H354 H 0.80119 0.64063 0.75432
 H355 H 0.84996 0.67852 0.75126
 H356 H 0.86591 0.79903 0.74362
 H357 H 0.66036 0.67945 0.71973
 H358 H 0.73271 0.73430 0.65351
 H359 H 0.76930 0.77000 0.84802
 H360 H 0.84212 0.82421 0.78186
 Zr361 Zr 1.24985 0.75177 0.20123
 O362 O 1.22106 0.77709 0.17054
 O363 O 1.28536 0.72489 0.17724
 O364 O 1.28008 0.78670 0.17928
 O365 O 1.19196 0.68662 0.21008
 O366 O 1.30560 0.81810 0.21298
 O367 O 1.22018 0.71812 0.17762
 O368 O 1.31911 0.69930 0.20950
 O369 O 1.29458 0.75611 0.22460
 O370 O 1.25408 0.70708 0.22388
 O371 O 1.24312 0.79517 0.22561
 O372 O 1.20406 0.74803 0.22430
 Zr373 Zr 1.24712 0.75031 0.29766
 Zr374 Zr 1.28682 0.79778 0.25045
 Zr375 Zr 1.21019 0.70438 0.24839
 Zr376 Zr 1.29740 0.71218 0.24820
 O377 O 1.15611 0.70300 0.24884
 O378 O 1.34973 0.72604 0.24932
 O379 O 1.25384 0.70646 0.27353
 O380 O 1.29247 0.75399 0.27427
 O381 O 1.24291 0.79538 0.27535
 O382 O 1.20281 0.74613 0.27386
 C383 C 1.31069 0.70629 0.18443
 C384 C 1.19906 0.69488 0.18495
 C385 C 1.29986 0.81047 0.18754
 O386 O 1.34082 0.79899 0.25253
 O387 O 1.30156 0.81843 0.28881
 O388 O 1.27473 0.78574 0.32124
 C389 C 1.29442 0.81020 0.31395
 O390 O 1.17528 0.80716 0.21400
 Zr391 Zr 1.19966 0.79003 0.25065
 O392 O 1.21223 0.77791 0.32164
 O393 O 1.27678 0.85016 0.24953
 O394 O 1.20248 0.84338 0.25093
 O395 O 1.14676 0.77843 0.25219
 O396 O 1.18095 0.80650 0.28942
 C397 C 1.18883 0.79882 0.31447
 O398 O 1.27696 0.72620 0.32833
 O399 O 1.22032 0.65204 0.24677
 O400 O 1.21851 0.71390 0.31963
 O401 O 1.19451 0.68159 0.28575
 O402 O 1.29700 0.65887 0.24529
 O403 O 1.31817 0.69061 0.28474
 C404 C 1.19986 0.68926 0.31121
 H405 H 1.25607 0.68680 0.21208
 H406 H 1.31273 0.75532 0.28642
 H407 H 1.18178 0.74338 0.28510
 H408 H 1.24065 0.81553 0.21393
 H409 H 1.36329 0.70597 0.24397
 H410 H 1.34757 0.82304 0.25219
 H411 H 1.29921 0.86166 0.25065
 H412 H 1.17953 0.85202 0.25605
 H413 H 1.32059 0.65154 0.24071
 H414 H 1.19787 0.64058 0.24567
 H415 H 1.14943 0.67892 0.24900
 H416 H 1.13441 0.79943 0.25706
 H417 H 1.33923 0.67796 0.28005
 H418 H 1.26752 0.73297 0.34660
 H419 H 1.23043 0.77028 0.15227
 H420 H 1.15816 0.82462 0.21878
 Zr421 Zr 0.74541 1.25295 0.20204
 O422 O 0.77257 1.22829 0.16989
 O423 O 0.71052 1.28247 0.17984
 O424 O 0.71309 1.22123 0.17932
 O425 O 0.80586 1.31524 0.21212
 O426 O 0.68678 1.18870 0.21213
 O427 O 0.77589 1.28676 0.17911
 O428 O 0.67784 1.30670 0.21369
 O429 O 0.70103 1.24855 0.22611
 O430 O 0.74303 1.29632 0.22642
 O431 O 0.75108 1.20781 0.22441
 O432 O 0.79172 1.25374 0.22423
 Zr433 Zr 0.74995 1.24818 0.29818
 Zr434 Zr 0.70779 1.20503 0.25001
 Zr435 Zr 0.78742 1.29605 0.25006
 Zr436 Zr 0.70000 1.29100 0.25141
 O437 O 0.84153 1.29580 0.24987
 O438 O 0.64729 1.27874 0.25322
 O439 O 0.74421 1.29369 0.27598
 O440 O 0.70405 1.24742 0.27566
 O441 O 0.75224 1.20444 0.27406
 O442 O 0.79392 1.25256 0.27369
 C443 C 0.68568 1.30105 0.18822
 C444 C 0.79807 1.30866 0.18686
 C445 C 0.69211 1.19813 0.18697
 O446 O 0.65388 1.20518 0.25380
 O447 O 0.69358 1.18207 0.28775
 O448 O 0.72210 1.21188 0.32083
 C449 C 0.70164 1.18841 0.31301
 O450 O 0.81806 1.19404 0.21099
 Zr451 Zr 0.79519 1.21001 0.24876
 O452 O 0.78485 1.21859 0.32035
 O453 O 0.71596 1.15256 0.24606
 O454 O 0.79043 1.15683 0.24740
 O455 O 0.84846 1.21989 0.24926
 O456 O 0.81462 1.19104 0.28646
 C457 C 0.80769 1.19767 0.31194
 O458 O 0.72119 1.27078 0.33045
 O459 O 0.77908 1.34873 0.25033
 O460 O 0.77948 1.28272 0.32097
 O461 O 0.80389 1.31635 0.28793
 O462 O 0.70212 1.34438 0.25049
 O463 O 0.68078 1.31096 0.28921
 C464 C 0.79847 1.30745 0.31315
 H465 H 0.74154 1.31732 0.21542
 H466 H 0.68403 1.24589 0.28821
 H467 H 0.81521 1.25414 0.28461
 H468 H 0.75250 1.18820 0.21181
 H469 H 0.63428 1.29954 0.24897
 H470 H 0.64634 1.18142 0.25237
 H471 H 0.69319 1.14173 0.24728
 H472 H 0.81316 1.14715 0.25171
 H473 H 0.67871 1.35269 0.24664
 H474 H 0.80190 1.35950 0.24931
 H475 H 0.84893 1.31964 0.25078
 H476 H 0.86028 1.19828 0.25302
 H477 H 0.66012 1.32463 0.28546
 H478 H 0.73087 1.26269 0.34821
 H479 H 0.76322 1.23656 0.15207
 H480 H 0.83453 1.17567 0.21477
 O481 O 0.48515 1.04746 0.03664
 O482 O 0.53552 0.93373 0.02352
 O483 O 0.43021 0.96798 0.01287
 O484 O 0.54705 1.03961 0.03187
 O485 O 0.47128 0.93563 0.02932
 O486 O 0.52720 1.08356 0.01054
 O487 O 0.54864 0.98123 0.04145
 O488 O 0.43675 1.02908 0.02055
 C489 C 0.45368 1.04296 0.03965
 C490 C 0.54800 0.95021 0.04290
 C491 C 0.44091 0.94579 0.02969
 C492 C 0.54973 1.07087 0.02704
 O493 O 0.51719 1.05062 -0.03403
 O494 O 0.46453 0.93150 -0.02338
 O495 O 0.45398 1.03480 -0.03531
 O496 O 0.56891 0.96718 -0.01168
 O497 O 0.52798 0.93699 -0.02996
 O498 O 0.46612 1.07396 -0.00852
 O499 O 0.56413 1.02723 -0.02210
 O500 O 0.44821 0.97796 -0.04134
 Co501 Co 0.50224 1.04698 0.00140
 Co502 Co 0.49988 0.94044 -0.00022
 Co503 Co 0.44667 1.00221 -0.00986
 Co504 Co 0.55217 1.00320 0.00883
 O505 O 0.49875 0.99605 -0.00083
 C506 C 0.54754 1.04425 -0.03914
 C507 C 0.44991 0.94704 -0.04220
 C508 C 0.45042 1.06480 -0.02928
 C509 C 0.55835 0.94659 -0.02971
 O510 O 0.98064 0.55459 0.53397
 O511 O 1.01945 0.43950 0.53373
 O512 O 0.94148 0.48052 0.53547
 O513 O 1.05897 0.51334 0.53380
 O514 O 0.96155 0.43359 0.52122
 O515 O 1.03836 0.56017 0.51986
 O516 O 1.06585 0.45697 0.51643
 O517 O 0.93382 0.53681 0.51796
 C518 C 0.94945 0.55183 0.53653
 C519 C 1.05063 0.44239 0.53557
 C520 C 0.94600 0.45010 0.53931
 C521 C 1.05421 0.54370 0.53770
 O522 O 1.01864 0.55443 0.46547
 O523 O 0.97998 0.43940 0.46625
 O524 O 0.94044 0.51328 0.46576
 O525 O 1.05796 0.48018 0.46427
 O526 O 1.03791 0.43336 0.47876
 O527 O 0.96092 0.56015 0.47950
 O528 O 1.06547 0.53656 0.48153
 O529 O 0.93356 0.45705 0.48346
 Co530 Co 0.99964 0.55159 0.49972
 Co531 Co 0.99972 0.44222 0.49997
 Co532 Co 0.94363 0.49691 0.50058
 Co533 Co 1.05577 0.49677 0.49909
 O534 O 0.99969 0.49688 0.49984
 C535 C 1.04980 0.55149 0.46289
 C536 C 0.94879 0.44226 0.46445
 C537 C 0.94518 0.54362 0.46169
 C538 C 1.05353 0.44973 0.46059
 O539 O 1.02357 0.46034 0.05264
 O540 O 1.02235 0.53851 -0.05425
 O541 O 1.02473 0.43548 -0.03202
 O542 O 1.02552 0.56352 0.03031
 O543 O 1.04262 0.48214 -0.04832
 O544 O 1.04378 0.51693 0.04642
 O545 O 1.04274 0.55679 -0.01662
 O546 O 1.04276 0.44158 0.01457
 C547 C 1.04605 0.44450 0.03980
 C548 C 1.04535 0.55398 -0.04193
 C549 C 1.04685 0.45163 -0.04511
 C550 C 1.04764 0.54755 0.04344
 O551 O 0.97855 0.53929 0.05255
 O552 O 0.97737 0.45967 -0.05339
 O553 O 0.97603 0.43587 0.03155
 O554 O 0.97559 0.56307 -0.03224
 O555 O 0.95711 0.51626 -0.04756
 O556 O 0.95830 0.48273 0.04758
 O557 O 0.95848 0.55732 0.01466
 O558 O 0.95790 0.44170 -0.01516
 Co559 Co 1.00100 0.49979 0.04471
 Co560 Co 0.99991 0.49918 -0.04578
 Co561 Co 1.00035 0.44457 -0.00030
 Co562 Co 1.00059 0.55424 -0.00094
 O563 O 1.00046 0.49943 -0.00057
 C564 C 0.95563 0.55460 0.03994
 C565 C 0.95474 0.44419 -0.04044
 C566 C 0.95415 0.45215 0.04481
 C567 C 0.95321 0.54690 -0.04485
 O568 O 0.54197 0.98191 0.54823
 O569 O 0.54266 1.01347 0.45284
 O570 O 0.54098 0.94009 0.48513
 O571 O 0.54097 1.05531 0.51666
 O572 O 0.52046 0.95716 0.44730
 O573 O 0.51957 1.03812 0.55427
 O574 O 0.52595 1.06064 0.46951
 O575 O 0.52514 0.93475 0.53196
 C576 C 0.54681 0.95141 0.54510
 C577 C 0.54744 1.04399 0.45597
 C578 C 0.54343 0.94196 0.45983
 C579 C 0.54267 1.05363 0.54203
 O580 O 0.45573 1.01400 0.54802
 O581 O 0.45640 0.98132 0.45300
 O582 O 0.45705 0.94063 0.51690
 O583 O 0.45772 1.05550 0.48414
 O584 O 0.47882 1.03754 0.44665
 O585 O 0.47789 0.95785 0.55450
 O586 O 0.47266 1.06099 0.53116
 O587 O 0.47300 0.93439 0.47003
 Co588 Co 0.49884 0.99792 0.54600
 Co589 Co 0.49953 0.99739 0.45518
 Co590 Co 0.49904 0.94320 0.50098
 Co591 Co 0.49933 1.05236 0.50040
 O592 O 0.49918 0.99773 0.50063
 C593 C 0.45093 1.04446 0.54453
 C594 C 0.45158 0.95085 0.45639
 C595 C 0.45485 0.94251 0.54223
 C596 C 0.45586 1.05336 0.45881
 O597 O 1.05946 1.04331 0.48546
 O598 O 0.94205 1.04302 0.51545
 O599 O 0.98418 1.04372 0.45293
 O600 O 1.01727 1.04380 0.54800
 O601 O 0.93650 1.02603 0.46876
 O602 O 1.06510 1.02637 0.53221
 O603 O 0.96005 1.02319 0.55335
 O604 O 1.04155 1.02335 0.44763
 C605 C 1.05626 1.04634 0.46026
 C606 C 0.94516 1.04607 0.54065
 C607 C 0.95310 1.04769 0.45566
 C608 C 1.04833 1.04793 0.54530
 O609 O 1.05935 0.96007 0.51617
 O610 O 0.94274 0.95978 0.48495
 O611 O 1.01859 0.95948 0.45326
 O612 O 0.98348 0.95940 0.54783
 O613 O 0.93603 0.97675 0.53159
 O614 O 1.06593 0.97704 0.46947
 O615 O 1.04045 0.97994 0.55384
 O616 O 0.96146 0.97973 0.44723
 Co617 Co 1.05654 1.00170 0.50079
 Co618 Co 0.94525 1.00142 0.50022
 Co619 Co 1.00140 1.00159 0.45528
 Co620 Co 1.00036 1.00159 0.54573
 O621 O 1.00089 1.00160 0.50051
 C622 C 1.05565 0.95703 0.54134
 C623 C 0.94643 0.95675 0.45977
 C624 C 1.04947 0.95516 0.45667
 C625 C 0.95263 0.95492 0.54440
 O626 O 0.56498 0.52956 -0.02971
 O627 O 0.43508 0.52882 0.02975
 O628 O 0.46108 0.52350 -0.05423
 O629 O 0.53907 0.52380 0.05426
 O630 O 0.44212 0.54412 -0.01698
 O631 O 0.55776 0.54468 0.01699
 O632 O 0.48226 0.54550 0.04722
 O633 O 0.51758 0.54583 -0.04713
 C634 C 0.54823 0.55097 -0.04300
 C635 C 0.45155 0.55034 0.04306
 C636 C 0.44528 0.54634 -0.04221
 C637 C 0.55451 0.54685 0.04221
 O638 O 0.56337 0.47753 0.03201
 O639 O 0.43738 0.47694 -0.03195
 O640 O 0.54276 0.48309 -0.05269
 O641 O 0.45792 0.48250 0.05275
 O642 O 0.44165 0.46165 0.01492
 O643 O 0.55924 0.46227 -0.01487
 O644 O 0.51516 0.46078 0.04784
 O645 O 0.48582 0.46076 -0.04777
 Co646 Co 0.55558 0.50348 0.00099
 Co647 Co 0.44481 0.50291 -0.00095
 Co648 Co 0.50165 0.50329 -0.04532
 Co649 Co 0.49876 0.50315 0.04539
 O650 O 0.50020 0.50320 0.00003
 C651 C 0.54614 0.45609 0.04494
 C652 C 0.45490 0.45574 -0.04489
 C653 C 0.55720 0.45988 -0.04014
 C654 C 0.44370 0.45921 0.04020
 C655 C 0.36095 1.12713 0.13572
 N656 N 0.34649 1.10249 0.12027
 N657 N 0.36558 1.08396 0.10313
 C658 C 0.39976 1.08933 0.10105
 N659 N 0.41422 1.11393 0.11655
 N660 N 0.39513 1.13245 0.13367
 C661 C 0.34041 1.14756 0.15389
 C662 C 0.32386 1.16490 0.16951
 C663 C 0.41980 1.07127 0.08092
 C664 C 0.43590 1.05741 0.06285
 C665 C 0.85453 0.63621 0.63176
 N666 N 0.85121 0.60235 0.62905
 N667 N 0.87072 0.58546 0.61110
 C668 C 0.89430 0.60186 0.59542
 N669 N 0.89761 0.63571 0.59815
 N670 N 0.87810 0.65260 0.61608
 C671 C 0.83405 0.65449 0.65146
 C672 C 0.81778 0.67033 0.66829
 C673 C 0.91464 0.58387 0.57545
 C674 C 0.93109 0.56908 0.55810
 C675 C 0.64118 0.86581 0.13798
 N676 N 0.61146 0.85251 0.12866
 N677 N 0.59194 0.86974 0.11109
 C678 C 0.60148 0.90086 0.10244
 N679 N 0.63118 0.91418 0.11179
 N680 N 0.65071 0.89695 0.12936
 C681 C 0.66218 0.84708 0.15674
 C682 C 0.67918 0.83094 0.17270
 C683 C 0.58144 0.91864 0.08242
 C684 C 0.56549 0.93325 0.06485
 C685 C 1.14543 0.36024 0.63113
 N686 N 1.15788 0.38785 0.61798
 N687 N 1.13857 0.40456 0.59991
 C688 C 1.10623 0.39422 0.59454
 N689 N 1.09379 0.36662 0.60771
 N690 N 1.11309 0.34992 0.62578
 C691 C 1.16598 0.34229 0.65072
 C692 C 1.18246 0.32694 0.66754
 C693 C 1.08588 0.41156 0.57446
 C694 C 1.06932 0.42581 0.55706
 C695 C 0.63877 1.12818 -0.13592
 N696 N 0.60526 1.13566 -0.13198
 N697 N 0.58611 1.11718 -0.11488
 C698 C 0.59983 1.09047 -0.10135
 N699 N 0.63333 1.08294 -0.10534
 N700 N 0.65249 1.10143 -0.12245
 C701 C 0.65941 1.14851 -0.15404
 C702 C 0.67602 1.16576 -0.16963
 C703 C 0.58009 1.07250 -0.08105
 C704 C 0.56445 1.05869 -0.06272
 C705 C 1.14483 0.63531 0.36762
 N706 N 1.11168 0.64413 0.37174
 N707 N 1.09221 0.62710 0.38961
 C708 C 1.10527 0.60062 0.40384
 N709 N 1.13843 0.59177 0.39971
 N710 N 1.15790 0.60881 0.38183
 C711 C 1.16560 0.65377 0.34830
 C712 C 1.18203 0.66973 0.33168
 C713 C 1.08471 0.58300 0.42382
 C714 C 1.06816 0.56847 0.44123
 C715 C 0.35614 0.86201 -0.13618
 N716 N 0.37524 0.84510 -0.11737
 N717 N 0.39489 0.86185 -0.09964
 C718 C 0.39615 0.89597 -0.10032
 N719 N 0.37706 0.91288 -0.11915
 N720 N 0.35741 0.89613 -0.13688
 C721 C 0.33542 0.84391 -0.15543
 C722 C 0.31866 0.82830 -0.17181
 C723 C 0.41622 0.91396 -0.08057
 C724 C 0.43225 0.92907 -0.06340
 C725 C 0.85275 0.35917 0.37064
 N726 N 0.87258 0.34213 0.38886
 N727 N 0.89228 0.35875 0.40663
 C728 C 0.89286 0.39290 0.40660
 N729 N 0.87303 0.40997 0.38838
 N730 N 0.85333 0.39334 0.37060
 C731 C 0.83244 0.34123 0.35099
 C732 C 0.81625 0.32590 0.33403
 C733 C 0.91340 0.41068 0.42620
 C734 C 0.93006 0.42530 0.44327
 C735 C 1.15433 0.35424 0.12038
 N736 N 1.13321 0.33861 0.10227
 N737 N 1.11396 0.35655 0.08493
 C738 C 1.11520 0.39073 0.08510
 N739 N 1.13639 0.40636 0.10316
 N740 N 1.15564 0.38841 0.12050
 C741 C 1.17305 0.33502 0.14061
 C742 C 1.18775 0.31926 0.15839
 C743 C 1.09230 0.41008 0.06803
 C744 C 1.07190 0.42604 0.05459
 C745 C 0.65721 0.86645 0.62709
 N746 N 0.64217 0.85083 0.60536
 N747 N 0.62278 0.86822 0.58776
 C748 C 0.61784 0.90178 0.59131
 N749 N 0.63298 0.91741 0.61299
 N750 N 0.65237 0.90003 0.63059
 C751 C 0.67579 0.84724 0.64731
 C752 C 0.69027 0.83097 0.66484
 C753 C 0.59439 0.91984 0.57390
 C754 C 0.57341 0.93456 0.56019
 C755 C 1.15115 0.64269 -0.12616
 N756 N 1.15128 0.60851 -0.12684
 N757 N 1.13270 0.59083 -0.10874
 C758 C 1.11342 0.60676 -0.08934
 N759 N 1.11337 0.64094 -0.08860
 N760 N 1.13195 0.65862 -0.10670
 C761 C 1.16923 0.66175 -0.14695
 C762 C 1.18352 0.67756 -0.16500
 C763 C 1.09104 0.58780 -0.07142
 C764 C 1.07097 0.57215 -0.05734
 C765 C 0.65426 1.13100 0.37184
 N766 N 0.64800 1.09790 0.36710
 N767 N 0.62951 1.07991 0.38504
 C768 C 0.61676 1.09442 0.40831
 N769 N 0.62312 1.12750 0.41309
 N770 N 0.64161 1.14550 0.39515
 C771 C 0.67202 1.15098 0.35153
 C772 C 0.68601 1.16797 0.33411
 C773 C 0.59411 1.07591 0.42623
 C774 C 0.57365 1.06095 0.44039
 C775 C 0.84799 0.64333 0.12228
 N776 N 0.84760 0.60915 0.12289
 N777 N 0.86654 0.59143 0.10510
 C778 C 0.88645 0.60733 0.08610
 N779 N 0.88675 0.64150 0.08542
 N780 N 0.86781 0.65922 0.10321
 C781 C 0.82979 0.66236 0.14293
 C782 C 0.81553 0.67807 0.16099
 C783 C 0.90927 0.58834 0.06866
 C784 C 0.92970 0.57270 0.05497
 C785 C 0.34367 1.13203 0.62735
 N786 N 0.35720 1.14666 0.60441
 N787 N 0.37558 1.12853 0.58652
 C788 C 0.38092 1.09520 0.59099
 N789 N 0.36727 1.08054 0.61388
 N790 N 0.34889 1.09867 0.63176
 C791 C 0.32637 1.15209 0.64775
 C792 C 0.31287 1.16912 0.66533
 C793 C 0.40373 1.07658 0.57339
 C794 C 0.42443 1.06152 0.55959
 C795 C 0.84645 0.35407 -0.12096
 N796 N 0.86808 0.33836 -0.10323
 N797 N 0.88734 0.35621 -0.08588
 C798 C 0.88559 0.39037 -0.08565
 N799 N 0.86389 0.40607 -0.10332
 N800 N 0.84463 0.38822 -0.12067
 C801 C 0.82762 0.33496 -0.14118
 C802 C 0.81281 0.31929 -0.15893
 C803 C 0.90848 0.40970 -0.06856
 C804 C 0.92886 0.42566 -0.05513
 C805 C 0.34320 0.86497 0.37338
 N806 N 0.35865 0.84931 0.39495
 N807 N 0.37767 0.86679 0.41270
 C808 C 0.38180 0.90052 0.40948
 N809 N 0.36626 0.91619 0.38797
 N810 N 0.34724 0.89871 0.37022
 C811 C 0.32481 0.84574 0.35306
 C812 C 0.31039 0.82953 0.33548
 C813 C 0.40478 0.91881 0.42713
 C814 C 0.42537 0.93374 0.44106
 C815 C 1.13745 1.15406 0.37445
 N816 N 1.10318 1.14949 0.37269
 N817 N 1.08675 1.13098 0.39152
 C818 C 1.10407 1.11656 0.41273
 N819 N 1.13832 1.12126 0.41455
 N820 N 1.15475 1.13978 0.39572
 C821 C 1.15558 1.17163 0.35301
 C822 C 1.17128 1.18544 0.33474
 C823 C 1.08705 1.09360 0.43107
 C824 C 1.07291 1.07280 0.44522
 C825 C 0.63292 0.66094 -0.12428
 N826 N 0.59877 0.65650 -0.12719
 N827 N 0.58144 0.63756 -0.10921
 C828 C 0.59774 0.62256 -0.08776
 N829 N 0.63186 0.62715 -0.08476
 N830 N 0.64920 0.64610 -0.10274
 C831 C 0.65209 0.67849 -0.14506
 C832 C 0.66858 0.69205 -0.16295
 C833 C 0.57993 0.59902 -0.07050
 C834 C 0.56528 0.57778 -0.05722
 C835 C 0.86253 1.15371 0.62563
 N836 N 0.84539 1.13876 0.60463
 N837 N 0.86207 1.12018 0.58599
 C838 C 0.89642 1.11610 0.58775
 N839 N 0.91358 1.13118 0.60868
 N840 N 0.89689 1.14975 0.62732
 C841 C 0.84419 1.17138 0.64689
 C842 C 0.82840 1.18527 0.66505
 C843 C 0.91379 1.09315 0.56961
 C844 C 0.92821 1.07242 0.55560
 C845 C 0.36606 0.66000 0.12412
 N846 N 0.34965 0.64431 0.10311
 N847 N 0.36701 0.62534 0.08517
 C848 C 0.40131 0.62157 0.08769
 N849 N 0.41775 0.63740 0.10862
 N850 N 0.40039 0.65637 0.12656
 C851 C 0.34697 0.67764 0.14489
 C852 C 0.33059 0.69127 0.16281
 C853 C 0.41930 0.59810 0.07049
 C854 C 0.43416 0.57698 0.05725
 C855 C 1.13556 0.84697 0.62602
 N856 N 1.10136 0.85212 0.62810
 N857 N 1.08524 0.87144 0.60972
 C858 C 1.10280 0.88614 0.58866
 N859 N 1.13698 0.88088 0.58652
 N860 N 1.15310 0.86156 0.60490
 C861 C 1.15337 0.82832 0.64696
 C862 C 1.16880 0.81363 0.66485
 C863 C 1.08604 0.90956 0.57057
 C864 C 1.07211 0.93053 0.55649
 C865 C 0.62988 0.34926 0.12942
 N866 N 0.64577 0.36162 0.10657
 N867 N 0.62851 0.38009 0.08830
 C868 C 0.59482 0.38663 0.09230
 N869 N 0.57890 0.37414 0.11508
 N870 N 0.59616 0.35568 0.13336
 C871 C 0.64902 0.33151 0.15001
 C872 C 0.66553 0.31734 0.16747
 C873 C 0.57720 0.40936 0.07428
 C874 C 0.56279 0.42993 0.06020
 C875 C 0.86675 0.84704 0.37508
 N876 N 0.90083 0.85266 0.37268
 N877 N 0.91697 0.87183 0.39109
 C878 C 0.89955 0.88591 0.41250
 N879 N 0.86549 0.88018 0.41495
 N880 N 0.84935 0.86101 0.39654
 C881 C 0.84885 0.82862 0.35411
 C882 C 0.83332 0.81413 0.33622
 C883 C 0.91624 0.90927 0.43061
 C884 C 0.93009 0.93023 0.44467
 C885 C 0.37238 0.34911 -0.12988
 N886 N 0.35675 0.36006 -0.10645
 N887 N 0.37388 0.37841 -0.08808
 C888 C 0.40718 0.38624 -0.09257
 N889 N 0.42285 0.37515 -0.11594
 N890 N 0.40572 0.35680 -0.13431
 C891 C 0.35326 0.33151 -0.15049
 C892 C 0.33665 0.31745 -0.16791
 C893 C 0.42449 0.40893 -0.07441
 C894 C 0.43861 0.42951 -0.06023
 C895 C 1.15473 0.36321 -0.12650
 N896 N 1.13758 0.34790 -0.10554
 N897 N 1.11884 0.36600 -0.08790
 C898 C 1.11678 0.39995 -0.09066
 N899 N 1.13405 0.41527 -0.11156
 N900 N 1.15279 0.39717 -0.12919
 C901 C 1.17277 0.34359 -0.14669
 C902 C 1.18725 0.32735 -0.16421
 C903 C 1.09388 0.41890 -0.07350
 C904 C 1.07318 0.43427 -0.06000
 C905 C 0.65062 0.85101 0.37883
 N906 N 0.65561 0.88465 0.38165
 N907 N 0.63641 0.90253 0.39915
 C908 C 0.61165 0.88731 0.41440
 N909 N 0.60675 0.85364 0.41165
 N910 N 0.62594 0.83576 0.39415
 C911 C 0.66946 0.83233 0.35838
 C912 C 0.68462 0.81734 0.34041
 C913 C 0.58903 0.90693 0.43146
 C914 C 0.56888 0.92317 0.44492
 C915 C 0.84806 0.63828 -0.12609
 N916 N 0.84999 0.60442 -0.12955
 N917 N 0.86807 0.58555 -0.11209
 C918 C 0.88469 0.59996 -0.09056
 N919 N 0.88265 0.63381 -0.08704
 N920 N 0.86457 0.65268 -0.10451
 C921 C 0.83059 0.65874 -0.14603
 C922 C 0.81652 0.67548 -0.16342
 C923 C 0.90691 0.58022 -0.07344
 C924 C 0.92715 0.56441 -0.05988
 C925 C 0.35311 1.14617 0.37567
 N926 N 0.37797 1.16089 0.39096
 N927 N 0.39630 1.14271 0.40877
 C928 C 0.39035 1.10923 0.41189
 N929 N 0.36543 1.09453 0.39666
 N930 N 0.34710 1.11272 0.37885
 C931 C 0.33488 1.16522 0.35511
 C932 C 0.32005 1.18047 0.33714
 C933 C 0.41194 1.08920 0.42948
 C934 C 0.43125 1.07261 0.44340
 C935 C 1.15100 0.63913 0.12599
 N936 N 1.14985 0.60514 0.12891
 N937 N 1.13202 0.58638 0.11126
 C938 C 1.11487 0.60101 0.09006
 N939 N 1.11612 0.63498 0.08708
 N940 N 1.13394 0.65375 0.10475
 C941 C 1.16844 0.65941 0.14606
 C942 C 1.18258 0.67599 0.16350
 C943 C 1.09308 0.58123 0.07262
 C944 C 1.07325 0.56530 0.05878
 C945 C 0.64579 1.14670 0.62457
 N946 N 0.62060 1.16136 0.60953
 N947 N 0.60213 1.14316 0.59187
 C948 C 0.60825 1.10972 0.58866
 N949 N 0.63349 1.09508 0.60365
 N950 N 0.65196 1.11328 0.62130
 C951 C 0.66426 1.16576 0.64498
 C952 C 0.67928 1.18101 0.66283
 C953 C 0.58659 1.08965 0.57116
 C954 C 0.56728 1.07299 0.55733
 C955 C 0.84806 0.36382 0.12825
 N956 N 0.86381 0.34873 0.10648
 N957 N 0.88232 0.36685 0.08867
 C958 C 0.88555 0.40062 0.09204
 N959 N 0.86970 0.41572 0.11376
 N960 N 0.85119 0.39760 0.13156
 C961 C 0.82989 0.34409 0.14838
 C962 C 0.81518 0.32772 0.16574
 C963 C 0.90800 0.41955 0.07439
 C964 C 0.92827 0.43488 0.06038
 C965 C 0.34868 0.85087 0.62407
 N966 N 0.34373 0.88457 0.62144
 N967 N 0.36281 0.90259 0.60393
 C968 C 0.38744 0.88748 0.58845
 N969 N 0.39232 0.85376 0.59102
 N970 N 0.37325 0.83574 0.60854
 C971 C 0.32971 0.83193 0.64438
 C972 C 0.31438 0.81671 0.66220
 C973 C 0.40979 0.90723 0.57115
 C974 C 0.42967 0.92358 0.55744
 C975 C 0.36482 1.15352 -0.12597
 N976 N 0.34817 1.14226 -0.10308
 N977 N 0.36536 1.12734 -0.08271
 C978 C 0.39974 1.12345 -0.08453
 N979 N 0.41640 1.13480 -0.10739
 N980 N 0.39921 1.14972 -0.12776
 C981 C 0.34616 1.16894 -0.14809
 C982 C 0.33010 1.18208 -0.16639
 C983 C 0.41780 1.10484 -0.06377
 C984 C 0.43281 1.08756 -0.04730
 C985 C 0.86389 0.63481 0.36380
 N986 N 0.84911 0.60654 0.37413
 N987 N 0.86578 0.58729 0.39221
 C988 C 0.89777 0.59565 0.40038
 N989 N 0.91257 0.62389 0.39002
 N990 N 0.89590 0.64315 0.37194
 C991 C 0.84569 0.65575 0.34471
 C992 C 0.83011 0.67300 0.32859
 C993 C 0.91490 0.57610 0.42104
 C994 C 0.92894 0.56060 0.43916
 C995 C 0.63909 1.15388 0.12463
 N996 N 0.60514 1.15966 0.12158
 N997 N 0.58803 1.14540 0.10090
 C998 C 0.60441 1.12514 0.08255
 N999 N 0.63837 1.11942 0.08557
 N1000 N 0.65549 1.13368 0.10625
 C1001 C 0.65745 1.16893 0.14701
 C1002 C 0.67310 1.18189 0.16556
 C1003 C 0.58553 1.10774 0.06166
 C1004 C 0.56935 1.09175 0.04512
 C1005 C 1.13641 0.63586 0.63405
 N1006 N 1.10428 0.64411 0.62609
 N1007 N 1.08744 0.62465 0.60834
 C1008 C 1.10217 0.59628 0.59815
 N1009 N 1.13428 0.58801 0.60615
 N1010 N 1.15112 0.60747 0.62390
 C1011 C 1.15464 0.65680 0.65302
 C1012 C 1.17015 0.67392 0.66920
 C1013 C 1.08485 0.57649 0.57786
 C1014 C 1.07064 0.56082 0.56000
 C1015 C 0.65271 0.86656 -0.12730
 N1016 N 0.65416 0.85653 -0.10048
 N1017 N 0.63772 0.87380 -0.08086
 C1018 C 0.61945 0.90173 -0.08742
 N1019 N 0.61805 0.91180 -0.11424
 N1020 N 0.63449 0.89453 -0.13387
 C1021 C 0.66947 0.84726 -0.14855
 C1022 C 0.68343 0.83081 -0.16630
 C1023 C 0.59962 0.91882 -0.06662
 C1024 C 0.58163 0.93217 -0.04949
 C1025 C 1.13866 0.36117 0.36215
 N1026 N 1.15053 0.39160 0.37049
 N1027 N 1.13298 0.40989 0.38881
 C1028 C 1.10295 0.39836 0.39930
 N1029 N 1.09107 0.36794 0.39094
 N1030 N 1.10862 0.34966 0.37261
 C1031 C 1.15786 0.34127 0.34270
 C1032 C 1.17409 0.32472 0.32633
 C1033 C 1.08488 0.41730 0.42005
 C1034 C 1.07021 0.43257 0.43813
 C1035 C 0.34722 0.86598 0.12767
 N1036 N 0.34507 0.85640 0.10080
 N1037 N 0.36148 0.87364 0.08114
 C1038 C 0.38041 0.90106 0.08774
 N1039 N 0.38250 0.91068 0.11461
 N1040 N 0.36609 0.89344 0.13427
 C1041 C 0.33053 0.84669 0.14891
 C1042 C 0.31662 0.83022 0.16665
 C1043 C 0.40015 0.91805 0.06689
 C1044 C 0.41799 0.93134 0.04966
 C1045 C 0.86121 0.36125 0.63756
 N1046 N 0.84929 0.39175 0.62936
 N1047 N 0.86684 0.41021 0.61115
 C1048 C 0.89690 0.39878 0.60067
 N1049 N 0.90884 0.36829 0.60890
 N1050 N 0.89130 0.34983 0.62711
 C1051 C 0.84205 0.34120 0.65687
 C1052 C 0.82583 0.32459 0.67318
 C1053 C 0.91487 0.41781 0.57997
 C1054 C 0.92944 0.43307 0.56185
 C1055 C 1.13599 1.14990 0.63093
 N1056 N 1.10202 1.14495 0.63484
 N1057 N 1.08397 1.12743 0.61651
 C1058 C 1.09933 1.11448 0.59366
 N1059 N 1.13329 1.11953 0.58970
 N1060 N 1.15134 1.13706 0.60804
 C1061 C 1.15573 1.16726 0.65133
 C1062 C 1.17240 1.18152 0.66861
 C1063 C 1.08069 1.09290 0.57541
 C1064 C 1.06554 1.07324 0.56103
 C1065 C 0.64049 0.65186 0.12679
 N1066 N 0.60596 0.64959 0.12852
 N1067 N 0.58862 0.63118 0.11031
 C1068 C 0.60530 0.61458 0.08978
 N1069 N 0.63982 0.61695 0.08799
 N1070 N 0.65716 0.63536 0.10620
 C1071 C 0.65931 0.66982 0.14744
 C1072 C 0.67514 0.68424 0.16516
 C1073 C 0.58703 0.59228 0.07183
 C1074 C 0.57197 0.57225 0.05771
 C1075 C 1.13522 0.84680 0.37482
 N1076 N 1.15191 0.86388 0.39493
 N1077 N 1.13457 0.88266 0.41300
 C1078 C 1.10003 0.88481 0.41152
 N1079 N 1.08333 0.86760 0.39150
 N1080 N 1.10067 0.84881 0.37343
 C1081 C 1.15403 0.82900 0.35403
 C1082 C 1.16991 0.81490 0.33610
 C1083 C 1.08185 0.90795 0.42883
 C1084 C 1.06686 0.92881 0.44222
 C1085 C 0.63984 0.34899 -0.12256
 N1086 N 0.60522 0.35079 -0.12275
 N1087 N 0.58876 0.37054 -0.10482
 C1088 C 0.60643 0.38903 -0.08613
 N1089 N 0.64104 0.38713 -0.08588
 N1090 N 0.65750 0.36738 -0.10381
 C1091 C 0.65764 0.32982 -0.14321
 C1092 C 0.67268 0.31462 -0.16107
 C1093 C 0.58895 0.41265 -0.06867
 C1094 C 0.57438 0.43363 -0.05502
 C1095 C 0.86411 1.14935 0.37034
 N1096 N 0.84886 1.13574 0.39300
 N1097 N 0.86716 1.11830 0.41127
 C1098 C 0.90128 1.11409 0.40751
 N1099 N 0.91654 1.12780 0.38490
 N1100 N 0.89824 1.14524 0.36663
 C1101 C 0.84416 1.16660 0.34996
 C1102 C 0.82743 1.18078 0.33263
 C1103 C 0.92026 1.09259 0.42565
 C1104 C 0.93566 1.07297 0.43996
 C1105 C 0.35768 0.64982 -0.12731
 N1106 N 0.34109 0.63217 -0.10731
 N1107 N 0.35863 0.61404 -0.08898
 C1108 C 0.39327 0.61312 -0.09004
 N1109 N 0.40986 0.63087 -0.10998
 N1110 N 0.39232 0.64899 -0.12831
 C1111 C 0.33877 0.66765 -0.14804
 C1112 C 0.32295 0.68209 -0.16581
 C1113 C 0.41191 0.59119 -0.07197
 C1114 C 0.42734 0.57144 -0.05776
 C1115 C 0.86638 0.84665 0.62596
 N1116 N 0.85007 0.86304 0.60523
 N1117 N 0.86767 0.88171 0.58724
 C1118 C 0.90210 0.88444 0.58942
 N1119 N 0.91843 0.86790 0.61007
 N1120 N 0.90083 0.84922 0.62806
 C1121 C 0.84722 0.82903 0.64665
 C1122 C 0.83103 0.81509 0.66450
 C1123 C 0.92040 0.90756 0.57219
 C1124 C 0.93539 0.92847 0.55884
 C1125 C 0.36094 0.34800 0.12230
 N1126 N 0.34344 0.36596 0.10311
 N1127 N 0.36003 0.38574 0.08525
 C1128 C 0.39459 0.38810 0.08603
 N1129 N 0.41209 0.37004 0.10515
 N1130 N 0.39551 0.35026 0.12300
 C1131 C 0.34295 0.32887 0.14288
 C1132 C 0.32776 0.31374 0.16070
 C1133 C 0.41211 0.41179 0.06865
 C1134 C 0.42665 0.43286 0.05506
   
