data_POSCAR
  _audit_creation_date              2014-09-24
  _audit_creation_method            'ToBaCCo'
  _symmetry_space_group_name_H-M    'P1'
  _symmetry_Int_Tables_number       1
  _symmetry_cell_setting            triclinic
  loop_
  _symmetry_equiv_pos_as_xyz
 x,y,z
_cell_length_a 33.3377
_cell_length_b 33.2873
_cell_length_c 40.3186
_cell_angle_alpha 89.098300
_cell_angle_beta 90.974300
_cell_angle_gamma 81.976800
loop_
  _atom_site_label
  _atom_site_type_symbol
  _atom_site_fract_x
  _atom_site_fract_y
  _atom_site_fract_z
C1 C 1.21431 0.23420 0.20595
 C2 C 1.24101 0.26108 0.18815
 C3 C 1.26399 0.28049 0.20907
 C4 C 1.25828 0.27142 0.24606
 C5 C 1.24347 0.20525 0.22814
 C6 C 1.26640 0.22488 0.24917
 C7 C 1.18926 0.26218 0.23004
 C8 C 1.21235 0.28152 0.25109
 H9 H 1.24229 0.26386 0.16130
 H10 H 1.27707 0.28746 0.26303
 H11 H 1.24403 0.17253 0.22870
 H12 H 1.15656 0.26418 0.23193
 C13 C 0.70871 -0.27777 0.20668
 C14 C 0.73100 -0.25151 0.18389
 C15 C 0.75487 -0.22816 0.20052
 C16 C 0.75435 -0.23320 0.23861
 C17 C 0.74187 -0.30242 0.22828
 C18 C 0.76566 -0.27916 0.24512
 C19 C 0.68525 -0.24809 0.23048
 C20 C 0.70916 -0.22486 0.24728
 H21 H 0.72833 -0.25154 0.15699
 H22 H 0.77386 -0.21414 0.25209
 H23 H 0.74393 -0.33502 0.23229
 H24 H 0.65325 -0.24764 0.23544
 C25 C 0.72119 0.23306 -0.29025
 C26 C 0.74672 0.25584 -0.31000
 C27 C 0.76738 0.28257 -0.29064
 C28 C 0.75862 0.28147 -0.25519
 C29 C 0.74775 0.21188 -0.26455
 C30 C 0.76841 0.23871 -0.24513
 C31 C 0.69370 0.26330 -0.27296
 C32 C 0.71441 0.29004 -0.25350
 H33 H 0.74952 0.25354 -0.33678
 H34 H 0.77483 0.30235 -0.24033
 H35 H 0.74916 0.17972 -0.25859
 H36 H 0.66127 0.26252 -0.27128
 C37 C 1.21144 -0.25778 -0.29132
 C38 C 1.23656 -0.23218 -0.31217
 C39 C 1.26156 -0.21198 -0.29366
 C40 C 1.25922 -0.21906 -0.25601
 C41 C 1.24231 -0.28569 -0.26996
 C42 C 1.26717 -0.26539 -0.25143
 C43 C 1.18886 -0.22837 -0.26686
 C44 C 1.21402 -0.20821 -0.24831
 H45 H 1.23553 -0.23101 -0.33913
 H46 H 1.27969 -0.20244 -0.24109
 H47 H 1.24212 -0.31823 -0.26744
 H48 H 1.15659 -0.22650 -0.26244
 C49 C 0.22494 0.20856 0.79364
 C50 C 0.24993 0.22956 0.81528
 C51 C 0.27432 0.25459 0.79784
 C52 C 0.26932 0.25419 0.76176
 C53 C 0.20012 0.24175 0.77203
 C54 C 0.22334 0.26561 0.75517
 C55 C 0.25422 0.18496 0.76955
 C56 C 0.27742 0.20891 0.75273
 H57 H 0.24985 0.22706 0.84221
 H58 H 0.28833 0.27369 0.74822
 H59 H 0.16754 0.24386 0.76812
 H60 H 0.25449 0.15295 0.76451
 C61 C 0.73314 0.71563 0.79468
 C62 C 0.75905 0.74024 0.81228
 C63 C 0.78008 0.76414 0.79059
 C64 C 0.77131 0.75902 0.75537
 C65 C 0.70593 0.74395 0.77378
 C66 C 0.72716 0.76793 0.75203
 C67 C 0.75942 0.69123 0.77186
 C68 C 0.78047 0.71531 0.75011
 H69 H 0.76164 0.74137 0.83919
 H70 H 0.78789 0.77771 0.73868
 H71 H 0.67325 0.74443 0.77245
 H72 H 0.76036 0.65862 0.76935
 C73 C 0.73223 0.22172 0.28960
 C74 C 0.75639 0.24850 0.31019
 C75 C 0.78214 0.26779 0.29191
 C76 C 0.78148 0.25863 0.25463
 C77 C 0.71079 0.24974 0.26229
 C78 C 0.73669 0.26891 0.24391
 C79 C 0.76397 0.19271 0.27154
 C80 C 0.78962 0.21207 0.25312
 H81 H 0.75369 0.25164 0.33688
 H82 H 0.80259 0.27448 0.23987
 H83 H 0.67864 0.25174 0.25636
 H84 H 0.76321 0.16022 0.27030
 C85 C 0.23953 0.71204 0.29173
 C86 C 0.26608 0.73646 0.31241
 C87 C 0.28699 0.76072 0.29383
 C88 C 0.27958 0.75838 0.25614
 C89 C 0.21237 0.74355 0.27035
 C90 C 0.23331 0.76766 0.25165
 C91 C 0.26822 0.68855 0.26721
 C92 C 0.28909 0.71291 0.24849
 H93 H 0.26738 0.73550 0.33937
 H94 H 0.29674 0.77823 0.24112
 H95 H 0.17974 0.74430 0.26793
 H96 H 0.26926 0.65626 0.26300
 O97 O 1.04505 0.03778 0.04069
 O98 O 0.91533 -0.03577 0.01545
 O99 O 0.97022 0.06153 0.03825
 O100 O 1.04291 -0.08602 0.02983
 O101 O 0.91619 0.03642 0.02651
 O102 O 1.05642 -0.03065 0.05034
 O103 O 0.96732 -0.07573 0.03731
 O104 O 1.02728 0.08463 0.00658
 C105 C 1.04710 0.07312 0.03194
 C106 C 0.93037 -0.06222 0.03682
 C107 C 0.93574 0.05574 0.04581
 C108 C 1.05781 -0.06769 0.05248
 O109 O 1.07837 -0.04561 -0.01401
 O110 O 0.93187 0.04937 -0.03933
 O111 O 1.00521 0.05273 -0.04630
 O112 O 0.95731 -0.07899 -0.02678
 O113 O 0.93435 -0.02099 -0.04883
 O114 O 1.06447 0.02742 -0.02587
 O115 O 1.03258 -0.08095 -0.03371
 O116 O 0.95389 0.10077 -0.01616
 Co117 Co 1.05597 -0.00283 0.01170
 Co118 Co 0.93055 0.00626 -0.01026
 Co119 Co 0.98652 0.05484 -0.00400
 Co120 Co 0.99946 -0.07331 0.00164
 O121 O 0.99498 -0.00650 0.00079
 C122 C 1.06708 -0.07027 -0.03461
 C123 C 0.92750 0.08743 -0.03538
 C124 C 1.04276 0.04458 -0.04950
 C125 C 0.93987 -0.05843 -0.05028
 O126 O 1.06483 0.51951 0.54471
 O127 O 0.92969 0.48599 0.54127
 O128 O 0.97171 0.57356 0.53902
 O129 O 1.02466 0.43210 0.54639
 O130 O 0.91795 0.55410 0.52012
 O131 O 1.07904 0.45016 0.52872
 O132 O 0.95769 0.42795 0.52623
 O133 O 1.03915 0.57595 0.52289
 C134 C 1.05733 0.55668 0.54663
 C135 C 0.93705 0.44914 0.54671
 C136 C 0.93555 0.57098 0.54234
 C137 C 1.06081 0.43459 0.55114
 O138 O 1.07098 0.47448 0.46386
 O139 O 0.92933 0.52552 0.45719
 O140 O 1.01679 0.56695 0.45816
 O141 O 0.98423 0.43123 0.46270
 O142 O 0.92626 0.45851 0.47813
 O143 O 1.07333 0.54214 0.48008
 O144 O 1.05233 0.42042 0.48305
 O145 O 0.94744 0.58041 0.47407
 Co146 Co 1.06489 0.49702 0.50414
 Co147 Co 0.93293 0.50560 0.49940
 Co148 Co 0.99429 0.56712 0.49877
 Co149 Co 1.00422 0.43503 0.50435
 O150 O 0.99904 0.50117 0.50167
 C151 C 1.06863 0.43821 0.46062
 C152 C 0.93190 0.56162 0.45194
 C153 C 1.05396 0.56012 0.45630
 C154 C 0.94742 0.43830 0.45743
 O155 O 0.57114 0.01692 0.54225
 O156 O 0.43606 -0.01674 0.54131
 O157 O 0.47720 0.07050 0.54104
 O158 O 0.53014 -0.07084 0.54246
 O159 O 0.42283 0.05200 0.52255
 O160 O 0.58396 -0.05168 0.52445
 O161 O 0.46262 -0.07402 0.52373
 O162 O 0.54404 0.07435 0.52311
 C163 C 0.56414 0.05395 0.54540
 C164 C 0.44317 -0.05377 0.54540
 C165 C 0.44109 0.06805 0.54488
 C166 C 0.56631 -0.06821 0.54676
 O167 O 0.57363 -0.02476 0.46011
 O168 O 0.43204 0.02630 0.45851
 O169 O 0.51848 0.06868 0.45891
 O170 O 0.48673 -0.06732 0.45967
 O171 O 0.42942 -0.04135 0.47736
 O172 O 0.57619 0.04246 0.47800
 O173 O 0.55560 -0.07949 0.47846
 O174 O 0.45012 0.08061 0.47665
 Co175 Co 0.56911 -0.00384 0.50116
 Co176 Co 0.43722 0.00462 0.49998
 Co177 Co 0.49798 0.06639 0.49997
 Co178 Co 0.50824 -0.06580 0.50102
 O179 O 0.50314 0.00033 0.50054
 C180 C 0.57134 -0.06095 0.45615
 C181 C 0.43411 0.06262 0.45422
 C182 C 0.55544 0.06212 0.45568
 C183 C 0.44969 -0.06079 0.45569
 O184 O 0.55344 0.50459 0.04372
 O185 O 0.42233 0.45524 0.02464
 O186 O 0.45377 0.57752 0.01425
 O187 O 0.55060 0.43143 0.03561
 O188 O 0.41944 0.53050 0.03322
 O189 O 0.60113 0.45457 0.01214
 O190 O 0.48074 0.43278 0.04593
 O191 O 0.52706 0.56428 0.02482
 C192 C 0.54495 0.54200 0.04780
 C193 C 0.44341 0.43801 0.04791
 C194 C 0.42955 0.56526 0.03476
 C195 C 0.58849 0.42761 0.03120
 O196 O 0.56070 0.47194 -0.04165
 O197 O 0.41303 0.54272 -0.03005
 O198 O 0.53604 0.54703 -0.04228
 O199 O 0.46499 0.41510 -0.01863
 O200 O 0.42418 0.46730 -0.03925
 O201 O 0.58375 0.52858 -0.00913
 O202 O 0.53678 0.41710 -0.03028
 O203 O 0.46759 0.55775 -0.05080
 Co204 Co 0.55477 0.48707 0.00103
 Co205 Co 0.42683 0.49847 -0.00292
 Co206 Co 0.49613 0.55649 -0.01252
 Co207 Co 0.50715 0.43023 0.00698
 O208 O 0.49347 0.49493 -0.00284
 C209 C 0.55554 0.43728 -0.04951
 C210 C 0.43068 0.55841 -0.05264
 C211 C 0.57150 0.54906 -0.03399
 C212 C 0.43809 0.43041 -0.03953
 C213 C 1.12769 0.17847 0.08696
 C214 C 1.10977 0.19821 0.11905
 C215 C 1.14718 0.17763 0.13866
 C216 C 1.16546 0.15827 0.10699
 C217 C 1.10672 0.14121 0.09448
 C218 C 1.14414 0.12071 0.11413
 C219 C 1.08843 0.16056 0.12616
 C220 C 1.12620 0.14037 0.14614
 C221 C 1.17027 0.19743 0.16314
 C222 C 1.18985 0.21376 0.18286
 C223 C 1.08476 0.11936 0.07062
 C224 C 1.06723 0.09941 0.05213
 H225 H 1.12802 0.19388 0.06237
 H226 H 1.09591 0.23032 0.12144
 H227 H 1.19742 0.15750 0.09944
 H228 H 1.15806 0.08860 0.11180
 H229 H 1.05646 0.16131 0.13370
 H230 H 1.12586 0.12493 0.17072
 C231 C 1.12651 0.66100 0.60228
 C232 C 1.10640 0.68628 0.63097
 C233 C 1.14419 0.67251 0.65272
 C234 C 1.16456 0.64762 0.62432
 C235 C 1.10815 0.62404 0.61520
 C236 C 1.14594 0.61030 0.63696
 C237 C 1.08766 0.64890 0.64358
 C238 C 1.12587 0.63558 0.66574
 C239 C 1.16585 0.69888 0.67282
 C240 C 1.18546 0.71939 0.68903
 C241 C 1.08916 0.59795 0.59281
 C242 C 1.07432 0.57798 0.57264
 H243 H 1.12659 0.67110 0.57590
 H244 H 1.09046 0.71782 0.62874
 H245 H 1.19638 0.64749 0.61659
 H246 H 1.16191 0.57877 0.63918
 H247 H 1.05582 0.64896 0.65123
 H248 H 1.12585 0.62556 0.69213
 C249 C 0.64150 0.15247 0.60262
 C250 C 0.62317 0.17604 0.63281
 C251 C 0.66147 0.15986 0.65327
 C252 C 0.68010 0.13663 0.62336
 C253 C 0.62237 0.11539 0.61423
 C254 C 0.66068 0.09915 0.63467
 C255 C 0.60369 0.13862 0.64413
 C256 C 0.64238 0.12281 0.66498
 C257 C 0.68323 0.18548 0.67421
 C258 C 0.70099 0.20729 0.69088
 C259 C 0.60093 0.09181 0.59128
 C260 C 0.58378 0.07373 0.57105
 H261 H 0.64090 0.16442 0.57673
 H262 H 0.60802 0.20794 0.63225
 H263 H 0.71174 0.13612 0.61505
 H264 H 0.67580 0.06724 0.63519
 H265 H 0.57204 0.13912 0.65241
 H266 H 0.64303 0.11094 0.69090
 C267 C 0.62044 0.63718 0.10524
 C268 C 0.60241 0.66564 0.13279
 C269 C 0.63898 0.64962 0.15527
 C270 C 0.65726 0.62147 0.12796
 C271 C 0.59794 0.60354 0.11926
 C272 C 0.63452 0.58749 0.14173
 C273 C 0.57952 0.63167 0.14655
 C274 C 0.61654 0.61604 0.16946
 C275 C 0.66283 0.67555 0.17411
 C276 C 0.68321 0.69681 0.18890
 C277 C 0.57660 0.57913 0.09686
 C278 C 0.56093 0.56087 0.07584
 H279 H 0.62185 0.64566 0.07858
 H280 H 0.58950 0.69805 0.12925
 H281 H 0.68943 0.61760 0.12042
 H282 H 0.64743 0.55508 0.14523
 H283 H 0.54733 0.63549 0.15400
 H284 H 0.61524 0.60769 0.19614
 C285 C 0.82616 -0.13929 0.09284
 C286 C 0.84490 -0.17564 0.11508
 C287 C 0.82058 -0.15696 0.14447
 C288 C 0.80149 -0.12087 0.12252
 C289 C 0.86110 -0.11624 0.10316
 C290 C 0.83682 -0.09744 0.13253
 C291 C 0.88015 -0.15234 0.12513
 C292 C 0.85552 -0.13394 0.15486
 C293 C 0.79782 -0.18097 0.16639
 C294 C 0.77865 -0.20188 0.18291
 C295 C 0.88442 -0.09498 0.07960
 C296 C 0.90464 -0.07909 0.06004
 H297 H 0.81424 -0.14131 0.06713
 H298 H 0.84811 -0.20804 0.10809
 H299 H 0.76889 -0.10811 0.12168
 H300 H 0.83367 -0.06503 0.13946
 H301 H 0.91274 -0.16514 0.12597
 H302 H 0.86741 -0.13197 0.18058
 C303 C 0.84376 0.36852 0.60748
 C304 C 0.86216 0.33293 0.63056
 C305 C 0.83638 0.35199 0.65903
 C306 C 0.81770 0.38734 0.63619
 C307 C 0.87787 0.39238 0.61834
 C308 C 0.85212 0.41157 0.64678
 C309 C 0.89661 0.35704 0.64116
 C310 C 0.87047 0.37580 0.67004
 C311 C 0.81232 0.32821 0.67985
 C312 C 0.79162 0.30738 0.69483
 C313 C 0.90007 0.41382 0.59420
 C314 C 0.91743 0.43045 0.57310
 H315 H 0.83295 0.36568 0.58154
 H316 H 0.86610 0.30034 0.62407
 H317 H 0.78500 0.39960 0.63435
 H318 H 0.84824 0.44418 0.65319
 H319 H 0.92931 0.34479 0.64296
 H320 H 0.88118 0.37855 0.69601
 C321 C 0.34829 -0.13310 0.60438
 C322 C 0.36457 -0.16856 0.62835
 C323 C 0.33812 -0.14790 0.65577
 C324 C 0.32154 -0.11271 0.63204
 C325 C 0.38287 -0.11030 0.61593
 C326 C 0.35645 -0.08955 0.64334
 C327 C 0.39955 -0.14549 0.63963
 C328 C 0.37267 -0.12514 0.66748
 C329 C 0.31198 -0.16965 0.67614
 C330 C 0.28943 -0.18845 0.69096
 C331 C 0.40629 -0.08983 0.59224
 C332 C 0.42399 -0.07329 0.57142
 H333 H 0.33851 -0.13620 0.57819
 H334 H 0.36763 -0.20128 0.62240
 H335 H 0.28920 -0.09944 0.62915
 H336 H 0.35342 -0.05681 0.64921
 H337 H 0.43191 -0.15871 0.64246
 H338 H 0.38234 -0.12213 0.69370
 C339 C 0.34903 0.36294 0.11065
 C340 C 0.36598 0.32729 0.13414
 C341 C 0.34054 0.34773 0.16224
 C342 C 0.32331 0.38317 0.13895
 C343 C 0.38407 0.38553 0.12146
 C344 C 0.35869 0.40613 0.14952
 C345 C 0.40140 0.35010 0.14472
 C346 C 0.37556 0.37026 0.17325
 C347 C 0.31481 0.32529 0.18246
 C348 C 0.29226 0.30549 0.19624
 C349 C 0.40687 0.40543 0.09690
 C350 C 0.42424 0.42077 0.07517
 H351 H 0.33831 0.36008 0.08468
 H352 H 0.36875 0.29463 0.12802
 H353 H 0.29094 0.39656 0.13681
 H354 H 0.35598 0.43881 0.15554
 H355 H 0.43378 0.33673 0.14679
 H356 H 0.38613 0.37301 0.19927
 C357 C 0.88037 0.15363 -0.14423
 C358 C 0.83767 0.14765 -0.15703
 C359 C 0.82705 0.19388 -0.16135
 C360 C 0.86951 0.20016 -0.14893
 C361 C 0.86412 0.15706 -0.10878
 C362 C 0.85359 0.20331 -0.11298
 C363 C 0.82167 0.15081 -0.12124
 C364 C 0.81071 0.19739 -0.12594
 C365 C 0.80632 0.21241 -0.19134
 C366 C 0.78886 0.22567 -0.21647
 C367 C 0.88549 0.13453 -0.08067
 C368 C 0.90404 0.11403 -0.05904
 H369 H 0.90923 0.13539 -0.15149
 H370 H 0.83099 0.12491 -0.17543
 H371 H 0.88898 0.22063 -0.16065
 H372 H 0.86032 0.22595 -0.09451
 H373 H 0.80219 0.13033 -0.10957
 H374 H 0.78182 0.21565 -0.11877
 C375 C 0.83596 0.65316 0.37460
 C376 C 0.85332 0.68459 0.35223
 C377 C 0.83656 0.66516 0.32158
 C378 C 0.81889 0.63407 0.34358
 C379 C 0.87572 0.62409 0.37138
 C380 C 0.85894 0.60470 0.34073
 C381 C 0.89348 0.65517 0.34944
 C382 C 0.87631 0.63610 0.31831
 C383 C 0.81327 0.68702 0.29405
 C384 C 0.79250 0.70348 0.27162
 C385 C 0.89659 0.60116 0.39953
 C386 C 0.91300 0.58270 0.42316
 H387 H 0.81952 0.65991 0.39802
 H388 H 0.85080 0.71767 0.35666
 H389 H 0.78795 0.62562 0.34092
 H390 H 0.86142 0.57162 0.33628
 H391 H 0.92443 0.66355 0.35215
 H392 H 0.89271 0.62937 0.29487
 C393 C 0.33516 0.15304 0.37796
 C394 C 0.35160 0.18453 0.35505
 C395 C 0.33494 0.16420 0.32481
 C396 C 0.31818 0.13305 0.34733
 C397 C 0.37538 0.12472 0.37470
 C398 C 0.35872 0.10440 0.34445
 C399 C 0.39219 0.15587 0.35221
 C400 C 0.37515 0.13589 0.32150
 C401 C 0.31157 0.18604 0.29738
 C402 C 0.29147 0.20382 0.27519
 C403 C 0.39715 0.10263 0.40278
 C404 C 0.41436 0.08439 0.42614
 H405 H 0.31894 0.15986 0.40147
 H406 H 0.34841 0.21772 0.35910
 H407 H 0.28750 0.12389 0.34503
 H408 H 0.36188 0.07120 0.34041
 H409 H 0.42288 0.16499 0.35454
 H410 H 0.39133 0.12910 0.29797
 C411 C 0.38387 0.62479 -0.16445
 C412 C 0.33942 0.62432 -0.17606
 C413 C 0.33298 0.67094 -0.17646
 C414 C 0.37707 0.67181 -0.16530
 C415 C 0.36993 0.62538 -0.12833
 C416 C 0.36350 0.67200 -0.12872
 C417 C 0.32584 0.62454 -0.13952
 C418 C 0.31905 0.67152 -0.14034
 C419 C 0.31141 0.69542 -0.20324
 C420 C 0.29218 0.71421 -0.22527
 C421 C 0.39064 0.60034 -0.10148
 C422 C 0.40838 0.58052 -0.07923
 H423 H 0.41072 0.60517 -0.17401
 H424 H 0.32930 0.60506 -0.19590
 H425 H 0.39782 0.69157 -0.17620
 H426 H 0.37363 0.69124 -0.10887
 H427 H 0.30507 0.60479 -0.12863
 H428 H 0.29220 0.69113 -0.13078
 C429 C 1.12315 -0.10314 -0.14757
 C430 C 1.16858 -0.10484 -0.15581
 C431 C 1.16962 -0.14951 -0.16521
 C432 C 1.12452 -0.14802 -0.15740
 C433 C 1.13526 -0.11719 -0.11186
 C434 C 1.13636 -0.16183 -0.12135
 C435 C 1.18039 -0.11859 -0.11955
 C436 C 1.18178 -0.16359 -0.12951
 C437 C 1.18702 -0.16873 -0.19506
 C438 C 1.19991 -0.18593 -0.21951
 C439 C 1.11385 -0.09993 -0.08289
 C440 C 1.09379 -0.08622 -0.06011
 H441 H 1.09880 -0.07807 -0.15466
 H442 H 1.18201 -0.08164 -0.17036
 H443 H 1.10170 -0.16027 -0.17327
 H444 H 1.12294 -0.18509 -0.10686
 H445 H 1.20309 -0.10629 -0.10359
 H446 H 1.20612 -0.18869 -0.12247
 C447 C 1.11120 0.38801 0.34556
 C448 C 1.15618 0.38824 0.33660
 C449 C 1.16022 0.34239 0.33074
 C450 C 1.11554 0.34184 0.33926
 C451 C 1.12428 0.37872 0.38191
 C452 C 1.12833 0.33287 0.37604
 C453 C 1.16896 0.37928 0.37341
 C454 C 1.17331 0.33309 0.36709
 C455 C 1.17972 0.32169 0.30225
 C456 C 1.19505 0.30392 0.27886
 C457 C 1.10421 0.39918 0.41027
 C458 C 1.08782 0.41657 0.43341
 H459 H 1.08540 0.41079 0.33705
 H460 H 1.16787 0.41076 0.32008
 H461 H 1.09379 0.32624 0.32488
 H462 H 1.11663 0.31035 0.39256
 H463 H 1.19069 0.39490 0.38780
 H464 H 1.19911 0.31030 0.37560
 C465 C 0.66137 -0.15521 0.37961
 C466 C 0.63963 -0.17900 0.35377
 C467 C 0.66090 -0.15864 0.32589
 C468 C 0.68294 -0.13516 0.35130
 C469 C 0.62599 -0.12032 0.37671
 C470 C 0.64725 -0.09991 0.34886
 C471 C 0.60399 -0.14381 0.35129
 C472 C 0.62553 -0.12376 0.32300
 C473 C 0.67956 -0.18085 0.29766
 C474 C 0.69378 -0.20021 0.27459
 C475 C 0.60634 -0.09923 0.40507
 C476 C 0.59023 -0.08188 0.42839
 H477 H 0.67587 -0.16796 0.40319
 H478 H 0.63671 -0.21178 0.35551
 H479 H 0.71560 -0.13181 0.35099
 H480 H 0.65015 -0.06712 0.34715
 H481 H 0.57134 -0.14719 0.35157
 H482 H 0.61101 -0.11101 0.29942
 C483 C 0.60151 0.39550 -0.16829
 C484 C 0.64698 0.39752 -0.17455
 C485 C 0.65340 0.35164 -0.18054
 C486 C 0.60833 0.34928 -0.17474
 C487 C 0.61172 0.38644 -0.13140
 C488 C 0.61819 0.34057 -0.13743
 C489 C 0.65679 0.38879 -0.13721
 C490 C 0.66354 0.34263 -0.14363
 C491 C 0.67647 0.33100 -0.20742
 C492 C 0.69479 0.31255 -0.22918
 C493 C 0.58955 0.40511 -0.10325
 C494 C 0.57290 0.41997 -0.07919
 H495 H 0.57570 0.41741 -0.17809
 H496 H 0.65914 0.42068 -0.19009
 H497 H 0.58867 0.33279 -0.19051
 H498 H 0.60606 0.31736 -0.12192
 H499 H 0.67646 0.40527 -0.12143
 H500 H 0.68933 0.32073 -0.13379
 C501 C 1.15231 0.09132 -0.11779
 C502 C 1.15359 0.09227 -0.15619
 C503 C 1.15220 0.13859 -0.15538
 C504 C 1.15128 0.13790 -0.11733
 C505 C 1.10577 0.09735 -0.11998
 C506 C 1.10448 0.14367 -0.11926
 C507 C 1.10656 0.09793 -0.15805
 C508 C 1.10567 0.14467 -0.15763
 C509 C 1.17825 0.16254 -0.17394
 C510 C 1.19954 0.18300 -0.18860
 C511 C 1.08099 0.07596 -0.09797
 C512 C 1.06229 0.06034 -0.07725
 H513 H 1.17125 0.06909 -0.10122
 H514 H 1.17417 0.07140 -0.17157
 H515 H 1.16989 0.15454 -0.10073
 H516 H 1.08396 0.16463 -0.10390
 H517 H 1.08789 0.08125 -0.17455
 H518 H 1.08678 0.16695 -0.17420
 C519 C 1.10593 0.64269 0.35979
 C520 C 1.13754 0.66932 0.37205
 C521 C 1.16881 0.64677 0.34886
 C522 C 1.13761 0.62043 0.33621
 C523 C 1.12069 0.61132 0.38722
 C524 C 1.15194 0.58869 0.36405
 C525 C 1.15193 0.63769 0.39977
 C526 C 1.18355 0.61542 0.37630
 C527 C 1.19522 0.66790 0.32824
 C528 C 1.21601 0.68688 0.31168
 C529 C 1.09482 0.59241 0.40996
 C530 C 1.07505 0.57745 0.43025
 H531 H 1.07374 0.65366 0.35325
 H532 H 1.13196 0.70270 0.37517
 H533 H 1.13212 0.61354 0.30981
 H534 H 1.15747 0.55530 0.36099
 H535 H 1.15749 0.64465 0.42615
 H536 H 1.21573 0.60445 0.38286
 C537 C 0.62350 0.16455 0.39203
 C538 C 0.66842 0.15098 0.38371
 C539 C 0.65812 0.16084 0.34696
 C540 C 0.61351 0.17475 0.35493
 C541 C 0.61488 0.12102 0.38630
 C542 C 0.60447 0.13082 0.34955
 C543 C 0.65948 0.10717 0.37829
 C544 C 0.64953 0.11732 0.34118
 C545 C 0.68324 0.18287 0.32596
 C546 C 0.70490 0.20068 0.30932
 C547 C 0.59207 0.09923 0.40945
 C548 C 0.57462 0.08187 0.42986
 H549 H 0.61250 0.18370 0.41321
 H550 H 0.69496 0.15954 0.39751
 H551 H 0.59496 0.20283 0.34508
 H552 H 0.57789 0.12222 0.33582
 H553 H 0.67809 0.07912 0.38813
 H554 H 0.66057 0.09820 0.31999
 C555 C 0.68507 0.60755 -0.09846
 C556 C 0.68170 0.60356 -0.13664
 C557 C 0.67588 0.65003 -0.14022
 C558 C 0.67962 0.65441 -0.10245
 C559 C 0.63888 0.60956 -0.09649
 C560 C 0.63310 0.65602 -0.10010
 C561 C 0.63517 0.60520 -0.13427
 C562 C 0.62971 0.65199 -0.13821
 C563 C 0.69618 0.67308 -0.16439
 C564 C 0.71307 0.69259 -0.18378
 C565 C 0.61698 0.58745 -0.07278
 C566 C 0.59725 0.56968 -0.05430
 H567 H 0.70756 0.58906 -0.08182
 H568 H 0.70186 0.58228 -0.15200
 H569 H 0.69813 0.67496 -0.08967
 H570 H 0.61294 0.67734 -0.08476
 H571 H 0.61666 0.58467 -0.14707
 H572 H 0.60718 0.67047 -0.15483
 C573 C 0.84820 -0.13694 -0.11403
 C574 C 0.82894 -0.12176 -0.14790
 C575 C 0.84754 -0.16184 -0.16332
 C576 C 0.86653 -0.17726 -0.12968
 C577 C 0.88659 -0.11876 -0.12296
 C578 C 0.90523 -0.15884 -0.13837
 C579 C 0.86767 -0.10316 -0.15658
 C580 C 0.88594 -0.14376 -0.17243
 C581 C 0.82444 -0.18726 -0.18336
 C582 C 0.80415 -0.20951 -0.19704
 C583 C 0.90703 -0.09595 -0.09868
 C584 C 0.92263 -0.07828 -0.07722
 H585 H 0.83285 -0.13397 -0.08979
 H586 H 0.79733 -0.10674 -0.15206
 H587 H 0.86585 -0.20800 -0.11879
 H588 H 0.93683 -0.17385 -0.13417
 H589 H 0.86841 -0.07238 -0.16735
 H590 H 0.90116 -0.14684 -0.19671
 C591 C 0.87049 0.34324 0.39507
 C592 C 0.83308 0.36117 0.37380
 C593 C 0.85186 0.33837 0.34371
 C594 C 0.88903 0.32015 0.36474
 C595 C 0.89148 0.37973 0.38504
 C596 C 0.91040 0.35698 0.35498
 C597 C 0.85432 0.39800 0.36403
 C598 C 0.87279 0.37485 0.33353
 C599 C 0.82850 0.31432 0.32259
 C600 C 0.80801 0.29356 0.30736
 C601 C 0.91251 0.40175 0.40952
 C602 C 0.92888 0.41892 0.43087
 H603 H 0.86971 0.33044 0.42061
 H604 H 0.80103 0.36268 0.38133
 H605 H 0.90309 0.28789 0.36478
 H606 H 0.94247 0.35553 0.34754
 H607 H 0.84027 0.43027 0.36403
 H608 H 0.87348 0.38755 0.30795
 C609 C 0.40718 -0.16557 0.37643
 C610 C 0.36378 -0.17563 0.38163
 C611 C 0.35363 -0.16484 0.34495
 C612 C 0.39676 -0.15512 0.33939
 C613 C 0.39243 -0.12124 0.38515
 C614 C 0.38236 -0.11031 0.34848
 C615 C 0.34932 -0.13104 0.39061
 C616 C 0.33885 -0.12051 0.35365
 C617 C 0.33108 -0.19025 0.32430
 C618 C 0.31154 -0.21214 0.30928
 C619 C 0.41343 -0.09814 0.40894
 C620 C 0.43019 -0.08039 0.42972
 H621 H 0.43549 -0.18389 0.38605
 H622 H 0.35595 -0.20274 0.39509
 H623 H 0.41603 -0.16527 0.31809
 H624 H 0.39024 -0.08315 0.33512
 H625 H 0.32998 -0.12095 0.41190
 H626 H 0.31053 -0.10223 0.34404
 C627 C 0.34607 0.34232 -0.09708
 C628 C 0.32541 0.35927 -0.13003
 C629 C 0.34346 0.32024 -0.14736
 C630 C 0.36385 0.30298 -0.11467
 C631 C 0.38399 0.36129 -0.10620
 C632 C 0.40213 0.32226 -0.12349
 C633 C 0.36361 0.37858 -0.13889
 C634 C 0.38138 0.33917 -0.15657
 C635 C 0.31962 0.29709 -0.16915
 C636 C 0.29888 0.27753 -0.18554
 C637 C 0.40521 0.38476 -0.08265
 C638 C 0.42112 0.40493 -0.06300
 H639 H 0.33171 0.34375 -0.07241
 H640 H 0.29365 0.37437 -0.13292
 H641 H 0.36375 0.27164 -0.10488
 H642 H 0.43390 0.30721 -0.12055
 H643 H 0.36370 0.40994 -0.14865
 H644 H 0.39566 0.33769 -0.18127
 C645 C 1.11664 -0.12215 0.16579
 C646 C 1.12525 -0.16878 0.17097
 C647 C 1.17035 -0.16539 0.17669
 C648 C 1.16212 -0.11910 0.17194
 C649 C 1.12486 -0.12783 0.12868
 C650 C 1.16996 -0.12441 0.13436
 C651 C 1.13311 -0.17411 0.13346
 C652 C 1.17856 -0.17106 0.13957
 C653 C 1.19473 -0.18738 0.20341
 C654 C 1.21333 -0.20695 0.22543
 C655 C 1.09981 -0.10698 0.10179
 C656 C 1.07996 -0.08943 0.07942
 H657 H 1.09083 -0.10188 0.17624
 H658 H 1.10716 -0.18727 0.18637
 H659 H 1.17440 -0.09677 0.18803
 H660 H 1.18802 -0.10591 0.11895
 H661 H 1.12085 -0.19647 0.11739
 H662 H 1.20436 -0.19134 0.12912
 C663 C 1.16304 0.34643 0.62615
 C664 C 1.18421 0.36610 0.65498
 C665 C 1.16693 0.33759 0.67960
 C666 C 1.14612 0.31762 0.65116
 C667 C 1.12496 0.37754 0.63059
 C668 C 1.10776 0.34901 0.65523
 C669 C 1.14573 0.39762 0.65898
 C670 C 1.12885 0.36870 0.68406
 C671 C 1.18921 0.31387 0.70673
 C672 C 1.20589 0.29279 0.72890
 C673 C 1.10147 0.39881 0.60288
 C674 C 1.08251 0.41549 0.57958
 H675 H 1.17684 0.33744 0.60204
 H676 H 1.21588 0.37289 0.65516
 H677 H 1.14654 0.28446 0.64817
 H678 H 1.07610 0.34217 0.65509
 H679 H 1.14526 0.43078 0.66192
 H680 H 1.11505 0.37766 0.70818
 C681 C 0.62950 -0.11112 0.66190
 C682 C 0.62262 -0.15370 0.67475
 C683 C 0.66873 -0.16649 0.67630
 C684 C 0.67599 -0.12427 0.66390
 C685 C 0.62911 -0.12658 0.62620
 C686 C 0.67523 -0.13937 0.62774
 C687 C 0.62190 -0.16880 0.63864
 C688 C 0.66831 -0.18192 0.64059
 C689 C 0.69044 -0.18945 0.70402
 C690 C 0.70787 -0.20907 0.72664
 C691 C 0.60683 -0.10500 0.59809
 C692 C 0.58837 -0.08789 0.57477
 H693 H 0.61329 -0.08177 0.67035
 H694 H 0.60121 -0.15984 0.69438
 H695 H 0.69848 -0.10622 0.67459
 H696 H 0.69662 -0.13324 0.60810
 H697 H 0.59942 -0.18689 0.62797
 H698 H 0.68452 -0.21127 0.63212
 C699 C 0.64144 0.37024 0.13994
 C700 C 0.65041 0.32379 0.14550
 C701 C 0.69317 0.32868 0.15812
 C702 C 0.68443 0.37489 0.15293
 C703 C 0.65798 0.36501 0.10468
 C704 C 0.70076 0.37000 0.11722
 C705 C 0.66670 0.31879 0.10987
 C706 C 0.70986 0.32334 0.12292
 C707 C 0.71076 0.30824 0.18848
 C708 C 0.72341 0.29083 0.21374
 C709 C 0.63602 0.38600 0.07624
 C710 C 0.61554 0.40433 0.05455
 H711 H 0.61304 0.38971 0.14666
 H712 H 0.62984 0.30465 0.15747
 H713 H 0.69188 0.39774 0.17096
 H714 H 0.72123 0.38919 0.10520
 H715 H 0.65921 0.29596 0.09185
 H716 H 0.73827 0.30381 0.11633
 C717 C 0.90237 0.14550 0.14507
 C718 C 0.85890 0.16905 0.14495
 C719 C 0.85234 0.15002 0.17902
 C720 C 0.89552 0.12679 0.17962
 C721 C 0.88571 0.10969 0.12871
 C722 C 0.87919 0.09059 0.16275
 C723 C 0.84255 0.13295 0.12819
 C724 C 0.83571 0.11421 0.16264
 C725 C 0.83227 0.17263 0.20629
 C726 C 0.81391 0.19096 0.22803
 C727 C 0.90366 0.08841 0.09997
 C728 C 0.91824 0.07246 0.07557
 H729 H 0.93004 0.15806 0.13747
 H730 H 0.85039 0.20155 0.13797
 H731 H 0.91705 0.12462 0.20109
 H732 H 0.88770 0.05808 0.16968
 H733 H 0.82096 0.13517 0.10676
 H734 H 0.80804 0.10163 0.17021
 C735 C 0.83115 0.62601 0.62917
 C736 C 0.84426 0.61795 0.66598
 C737 C 0.83903 0.66397 0.67140
 C738 C 0.82558 0.67233 0.63502
 C739 C 0.87558 0.62760 0.62048
 C740 C 0.87036 0.67362 0.62588
 C741 C 0.88901 0.61925 0.65687
 C742 C 0.88346 0.66557 0.66272
 C743 C 0.81841 0.68361 0.69989
 C744 C 0.80094 0.69895 0.72342
 C745 C 0.89624 0.60723 0.59231
 C746 C 0.91378 0.59054 0.56936
 H747 H 0.80987 0.60951 0.61508
 H748 H 0.83332 0.59527 0.68281
 H749 H 0.79929 0.69443 0.62637
 H750 H 0.88131 0.69628 0.60904
 H751 H 0.91529 0.59716 0.66554
 H752 H 0.90474 0.68206 0.67682
 C753 C 0.33578 0.12591 0.62951
 C754 C 0.34506 0.11455 0.66650
 C755 C 0.34326 0.15985 0.67420
 C756 C 0.33366 0.17149 0.63760
 C757 C 0.38144 0.12391 0.62373
 C758 C 0.37968 0.16921 0.63140
 C759 C 0.39104 0.11227 0.66033
 C760 C 0.38893 0.15787 0.66846
 C761 C 0.32116 0.17899 0.70231
 C762 C 0.30192 0.19346 0.72535
 C763 C 0.40253 0.10372 0.59559
 C764 C 0.41995 0.08724 0.57244
 H765 H 0.31413 0.11254 0.61323
 H766 H 0.33061 0.09225 0.68124
 H767 H 0.30987 0.19609 0.62854
 H768 H 0.39414 0.19149 0.61663
 H769 H 0.41482 0.08766 0.66939
 H770 H 0.41056 0.17124 0.68476
 C771 C 0.34956 0.61476 0.13382
 C772 C 0.37294 0.62396 0.16564
 C773 C 0.34827 0.66653 0.16591
 C774 C 0.32464 0.65757 0.13445
 C775 C 0.38147 0.63198 0.11283
 C776 C 0.35681 0.67457 0.11303
 C777 C 0.40515 0.64092 0.14428
 C778 C 0.38018 0.68387 0.14501
 C779 C 0.32867 0.68438 0.19557
 C780 C 0.31135 0.69788 0.21984
 C781 C 0.39924 0.61079 0.08382
 C782 C 0.41329 0.59121 0.06080
 H783 H 0.33709 0.58615 0.12894
 H784 H 0.37939 0.60330 0.18755
 H785 H 0.29131 0.66457 0.13071
 H786 H 0.35038 0.69516 0.09109
 H787 H 0.43849 0.63388 0.14798
 H788 H 0.39258 0.71250 0.14997
   
