data_POSCAR
  _audit_creation_date              2014-09-24
  _audit_creation_method            'ToBaCCo'
  _symmetry_space_group_name_H-M    'P1'
  _symmetry_Int_Tables_number       1
  _symmetry_cell_setting            triclinic
  loop_
  _symmetry_equiv_pos_as_xyz
 x,y,z
_cell_length_a 46.3689
_cell_length_b 47.0580
_cell_length_c 42.6489
_cell_angle_alpha 91.747200
_cell_angle_beta 89.866500
_cell_angle_gamma 95.001800
loop_
  _atom_site_label
  _atom_site_type_symbol
  _atom_site_fract_x
  _atom_site_fract_y
  _atom_site_fract_z
C1 C 0.26616 0.44069 0.99535
 C2 C 0.24490 0.43918 1.02321
 C3 C 0.22935 0.46245 1.02680
 C4 C 0.23647 0.48519 1.00200
 C5 C 0.24707 0.44573 0.96709
 C6 C 0.23150 0.46887 0.97040
 C7 C 0.28461 0.46891 1.00115
 C8 C 0.26931 0.49207 1.00461
 H9 H 0.24254 0.42185 1.03920
 H10 H 0.22402 0.50420 1.00460
 H11 H 0.24569 0.43167 0.94646
 H12 H 0.30798 0.47026 1.00343
 C13 C 0.72730 0.55519 0.01049
 C14 C 0.74896 0.55250 0.03729
 C15 C 0.76294 0.52818 0.03527
 C16 C 0.75439 0.50887 0.00645
 C17 C 0.74576 0.55273 -0.01924
 C18 C 0.76003 0.52854 -0.02159
 C19 C 0.70751 0.52748 0.01073
 C20 C 0.72142 0.50336 0.00852
 H21 H 0.75406 0.56872 0.05538
 H22 H 0.76544 0.48890 0.00507
 H23 H 0.74904 0.56994 -0.03549
 H24 H 0.68411 0.52711 0.01163
 C25 C 0.04666 0.22876 0.50589
 C26 C 0.04163 0.24520 0.47832
 C27 C 0.01566 0.25984 0.47959
 C28 C -0.00058 0.25490 0.50874
 C29 C 0.04597 0.25046 0.53345
 C30 C 0.02131 0.26437 0.53506
 C31 C 0.01909 0.20889 0.50950
 C32 C -0.00566 0.22226 0.51122
 H33 H 0.05863 0.25129 0.46193
 H34 H -0.02116 0.26506 0.51052
 H35 H 0.06388 0.25488 0.54961
 H36 H 0.01923 0.18588 0.50961
 C37 C 0.96081 0.77724 0.50077
 C38 C 0.96148 0.75269 0.47610
 C39 C 0.98677 0.73986 0.47572
 C40 C 1.00900 0.75239 0.50021
 C41 C 0.96734 0.76311 0.53166
 C42 C 0.99241 0.74991 0.53151
 C43 C 0.98781 0.79710 0.49413
 C44 C 1.01293 0.78438 0.49384
 H45 H 0.94326 0.74491 0.46152
 H46 H 1.02967 0.74215 0.49976
 H47 H 0.95163 0.76085 0.55044
 H48 H 0.98703 0.81973 0.49056
 C49 C 0.50942 0.04667 0.21105
 C50 C 0.48485 0.04964 0.23473
 C51 C 0.48100 0.02796 0.25522
 C52 C 0.50304 0.00544 0.25051
 C53 C 0.53636 0.04391 0.23149
 C54 C 0.53289 0.02245 0.25223
 C55 C 0.50334 0.01854 0.19639
 C56 C 0.49975 -0.00437 0.21776
 H57 H 0.47179 0.06763 0.23501
 H58 H 0.50038 -0.01175 0.26763
 H59 H 0.55655 0.05706 0.22995
 H60 H 0.50467 0.01507 0.17122
 C61 C 0.50074 -0.05378 0.77871
 C62 C 0.47387 -0.05332 0.75785
 C63 C 0.47470 -0.03111 0.73790
 C64 C 0.50286 -0.01116 0.74079
 C65 C 0.52604 -0.05322 0.75525
 C66 C 0.52720 -0.03087 0.73576
 C67 C 0.50381 -0.02429 0.79522
 C68 C 0.50453 -0.00194 0.77562
 H69 H 0.45555 -0.06906 0.75967
 H70 H 0.50443 0.00674 0.72444
 H71 H 0.54147 -0.06907 0.75315
 H72 H 0.50489 -0.02155 0.82051
 C73 C 0.29893 0.03262 0.46181
 H74 H 0.29993 0.04815 0.48109
 C75 C 0.31938 0.03506 0.43782
 H76 H 0.33615 0.05259 0.43873
 C77 C 0.27662 -0.00994 0.43811
 H78 H 0.26028 -0.02774 0.43871
 C79 C 0.29690 -0.00850 0.41380
 H80 H 0.29569 -0.02499 0.39546
 N81 N 0.27805 0.01046 0.46149
 C82 C 0.21319 0.04183 0.52529
 H83 H 0.21144 0.02551 0.54268
 C84 C 0.19570 0.06456 0.52759
 H85 H 0.18064 0.06574 0.54693
 C86 C 0.23366 0.05929 0.47791
 H87 H 0.24791 0.05688 0.45815
 C88 C 0.21632 0.08208 0.47907
 H89 H 0.21784 0.09730 0.46046
 Zn90 Zn 0.25357 0.00740 0.49693
 N91 N 0.23191 0.03975 0.50087
 C92 C 0.27665 0.01921 0.55918
 N93 N 0.27817 0.00402 0.53167
 C94 C 0.29885 -0.01438 0.52682
 C95 C 0.31916 -0.01807 0.54998
 C96 C 0.29617 0.01560 0.58342
 C97 C 0.20681 -0.02582 0.46984
 C98 C 0.18558 -0.04865 0.46679
 C99 C 0.20660 -0.07032 0.51097
 C100 C 0.22743 -0.04702 0.51321
 N101 N 0.22708 -0.02535 0.49285
 H102 H 0.26035 0.03405 0.56249
 H103 H 0.29981 -0.02593 0.50457
 H104 H 0.33593 -0.03212 0.54483
 H105 H 0.29401 0.02731 0.60541
 H106 H 0.20696 -0.00822 0.45409
 H107 H 0.16959 -0.04860 0.44833
 H108 H 0.20674 -0.08702 0.52786
 H109 H 0.24350 -0.04603 0.53160
 C110 C 0.19698 0.08486 0.50407
 C111 C 0.31868 0.01417 0.41359
 C112 C 0.18509 -0.07116 0.48774
 C113 C 0.31794 -0.00322 0.57900
 C114 C 0.70733 0.01562 0.52751
 H115 H 0.70620 0.03037 0.50868
 C116 C 0.68589 0.01400 0.55058
 H117 H 0.66823 0.02747 0.54897
 C118 C 0.73077 -0.02118 0.55083
 H119 H 0.74783 -0.03537 0.55052
 C120 C 0.71012 -0.02312 0.57472
 H121 H 0.71227 -0.03829 0.59295
 N122 N 0.72905 -0.00200 0.52785
 C123 C 0.80096 0.03553 0.47282
 H124 H 0.80221 0.01872 0.45511
 C125 C 0.82180 0.05876 0.47375
 H126 H 0.83900 0.05984 0.45649
 C127 C 0.77736 0.05406 0.51734
 H128 H 0.76032 0.05178 0.53465
 C129 C 0.79768 0.07787 0.51899
 H130 H 0.79622 0.09374 0.53771
 Zn131 Zn 0.75468 -0.00067 0.49319
 N132 N 0.77953 0.03342 0.49462
 C133 C 0.73165 0.02059 0.43808
 N134 N 0.73128 -0.00228 0.45684
 C135 C 0.71205 -0.02548 0.45201
 C136 C 0.69216 -0.02635 0.42741
 C137 C 0.71179 0.02085 0.41356
 C138 C 0.79729 -0.03216 0.51771
 C139 C 0.81551 -0.05414 0.51949
 C140 C 0.79552 -0.07403 0.47054
 C141 C 0.77753 -0.05172 0.46981
 N142 N 0.77843 -0.03156 0.49344
 H143 H 0.74653 0.03917 0.44289
 H144 H 0.71183 -0.04314 0.46770
 H145 H 0.67727 -0.04519 0.42391
 H146 H 0.71171 0.03984 0.39989
 H147 H 0.79800 -0.01556 0.53588
 H148 H 0.82980 -0.05449 0.53948
 H149 H 0.79472 -0.08964 0.45131
 H150 H 0.76313 -0.05041 0.45015
 C151 C 0.82057 0.08010 0.49733
 C152 C 0.68693 -0.00574 0.57458
 C153 C 0.81480 -0.07552 0.49570
 C154 C 0.69143 -0.00273 0.40808
 C155 C 0.48835 0.21042 0.99560
 H156 H 0.47182 0.20784 0.97763
 C157 C 0.48861 0.19070 1.01931
 H158 H 0.47180 0.17324 1.01969
 C159 C 0.53008 0.23668 1.01689
 H160 H 0.54650 0.25433 1.01552
 C161 C 0.53130 0.21731 1.04091
 H162 H 0.54878 0.22030 1.05778
 N163 N 0.50865 0.23304 0.99504
 C164 C 0.46726 0.29536 0.94107
 H165 H 0.48302 0.29952 0.92267
 C166 C 0.44254 0.31035 0.94254
 H167 H 0.43951 0.32617 0.92523
 C168 C 0.45292 0.27073 0.98696
 H169 H 0.45729 0.25581 1.00470
 C170 C 0.42797 0.28519 0.98932
 H171 H 0.41309 0.28066 1.00849
 Zn172 Zn 0.50699 0.25804 0.96143
 N173 N 0.47194 0.27594 0.96306
 C174 C 0.48726 0.23230 0.90335
 N175 N 0.50937 0.23539 0.92441
 C176 C 0.53216 0.21915 0.92206
 C177 C 0.53281 0.19800 0.89851
 C178 C 0.48703 0.21138 0.87939
 C179 C 0.53622 0.30565 0.98943
 C180 C 0.55774 0.32789 0.99415
 C181 C 0.58215 0.31142 0.94777
 C182 C 0.55997 0.28947 0.94381
 N183 N 0.53773 0.28695 0.96471
 H184 H 0.46904 0.24499 0.90601
 H185 H 0.54910 0.22162 0.93959
 H186 H 0.55037 0.18427 0.89817
 H187 H 0.46883 0.20860 0.86339
 H188 H 0.51823 0.30313 1.00560
 H189 H 0.55628 0.34238 1.01420
 H190 H 0.59964 0.31337 0.93089
 H191 H 0.56051 0.27459 0.92407
 C192 C 0.42261 0.30549 0.96708
 C193 C 0.51034 0.19395 1.04237
 C194 C 0.58106 0.33103 0.97314
 C195 C 0.50962 0.19335 0.87732
 C196 C 0.46225 0.77725 -0.00663
 H197 H 0.44515 0.77624 0.01071
 C198 C 0.46170 0.79618 -0.03115
 H199 H 0.44383 0.80940 -0.03282
 C200 C 0.50654 0.76146 -0.02514
 H201 H 0.52446 0.74861 -0.02223
 C202 C 0.50684 0.78005 -0.05003
 H203 H 0.52500 0.78112 -0.06609
 N204 N 0.48432 0.76022 -0.00420
 C205 C 0.44933 0.69170 0.05508
 H206 H 0.46563 0.69326 0.07330
 C207 C 0.42666 0.67020 0.05567
 H208 H 0.42546 0.65538 0.07466
 C209 C 0.43151 0.70886 0.00783
 H210 H 0.43391 0.72348 -0.01122
 C211 C 0.40838 0.68773 0.00757
 H212 H 0.39316 0.68630 -0.01175
 Zn213 Zn 0.48451 0.73685 0.03110
 N214 N 0.45142 0.71040 0.03135
 C215 C 0.46263 0.76144 0.08716
 N216 N 0.48519 0.76166 0.06670
 C217 C 0.50804 0.78174 0.06917
 C218 C 0.50879 0.80284 0.09286
 C219 C 0.46232 0.78243 0.11103
 C220 C 0.52021 0.69772 0.00505
 C221 C 0.54433 0.68208 0.00221
 C222 C 0.56162 0.70254 0.05204
 C223 C 0.53728 0.71806 0.05375
 N224 N 0.51743 0.71574 0.03017
 H225 H 0.44436 0.74569 0.08429
 H226 H 0.52534 0.78179 0.05210
 H227 H 0.52674 0.81919 0.09383
 H228 H 0.44391 0.78249 0.12671
 H229 H 0.50388 0.69599 -0.01315
 H230 H 0.54650 0.66867 -0.01858
 H231 H 0.57698 0.70446 0.07122
 H232 H 0.53424 0.73180 0.07402
 C233 C 0.40599 0.66781 0.03149
 C234 C 0.48427 0.79780 -0.05321
 C235 C 0.56554 0.68440 0.02586
 C236 C 0.48549 0.80364 0.11382
 C237 C 1.02336 0.48138 0.20277
 H238 H 1.00138 0.47630 0.19483
 C239 C 1.04594 0.47863 0.18165
 H240 H 1.04078 0.47248 0.15752
 C241 C 1.05650 0.49516 0.24374
 H242 H 1.06048 0.50131 0.26806
 C243 C 1.07990 0.49236 0.22335
 H244 H 1.10174 0.49623 0.23235
 N245 N 1.02884 0.48978 0.23313
 C246 C 0.97529 0.45834 0.31067
 H247 H 0.96266 0.47614 0.31605
 C248 C 0.97472 0.43545 0.33093
 H249 H 0.96166 0.43593 0.35198
 C250 C 1.00894 0.43701 0.27755
 H251 H 1.02242 0.43779 0.25684
 C252 C 1.00887 0.41368 0.29699
 H253 H 1.02210 0.39654 0.29068
 Zn254 Zn 0.99631 0.49185 0.26023
 N255 N 0.99260 0.45891 0.28487
 C256 C 0.94046 0.47340 0.23448
 N257 N 0.96322 0.49370 0.23441
 C258 C 0.96441 0.51527 0.21384
 C259 C 0.94216 0.51723 0.19240
 C260 C 0.91776 0.47432 0.21299
 C261 C 1.01975 0.52462 0.31232
 C262 C 1.02257 0.54762 0.33404
 C263 C 0.98741 0.57065 0.30446
 C264 C 0.98473 0.54701 0.28384
 N265 N 1.00107 0.52469 0.28773
 H266 H 0.94022 0.45612 0.25065
 H267 H 0.98306 0.53078 0.21376
 H268 H 0.94356 0.53496 0.17673
 H269 H 0.90022 0.45757 0.21282
 H270 H 1.03195 0.50635 0.31554
 H271 H 1.03721 0.54717 0.35373
 H272 H 0.97412 0.58814 0.30106
 H273 H 0.96916 0.54654 0.26512
 C274 C 0.99208 0.41291 0.32448
 C275 C 1.07474 0.48388 0.19179
 C276 C 1.00636 0.57105 0.32999
 C277 C 0.91858 0.49636 0.19133
 C278 C -0.04027 0.49275 0.79611
 H279 H -0.02472 0.47714 0.79816
 C280 C -0.06370 0.49227 0.81682
 H281 H -0.06571 0.47612 0.83440
 C282 C -0.05479 0.53423 0.77291
 H283 H -0.05101 0.55116 0.75657
 C284 C -0.07884 0.53418 0.79265
 H285 H -0.09356 0.55059 0.79015
 N286 N -0.03606 0.51362 0.77475
 C287 C -0.00114 0.48500 0.69024
 H288 H 0.00004 0.50595 0.68056
 C289 C -0.00033 0.46130 0.66990
 H290 H 0.00066 0.46446 0.64487
 C291 C -0.00299 0.45546 0.73425
 H292 H -0.00308 0.45328 0.75935
 C293 C -0.00216 0.43112 0.71471
 H294 H -0.00181 0.41045 0.72511
 Zn295 Zn -0.00206 0.51486 0.74906
 N296 N -0.00268 0.48180 0.72184
 C297 C 0.05634 0.50835 0.76263
 N298 N 0.03090 0.51532 0.77535
 C299 C 0.02853 0.52137 0.80659
 C300 C 0.05205 0.51947 0.82655
 C301 C 0.08051 0.50638 0.78172
 C302 C -0.02139 0.55195 0.70433
 C303 C -0.02029 0.57591 0.68577
 C304 C 0.02627 0.59168 0.70844
 C305 C 0.02410 0.56754 0.72695
 N306 N 0.00053 0.54821 0.72456
 H307 H 0.05770 0.50381 0.73767
 H308 H 0.00824 0.52728 0.81620
 H309 H 0.04926 0.52333 0.85148
 H310 H 0.10052 0.50069 0.77111
 H311 H -0.03974 0.53613 0.70253
 H312 H -0.03787 0.57837 0.66968
 H313 H 0.04513 0.60689 0.71060
 H314 H 0.04132 0.56424 0.74312
 C315 C -0.00066 0.43388 0.68203
 C316 C -0.08341 0.51327 0.81541
 C317 C 0.00379 0.59610 0.68764
 C318 C 0.07844 0.51152 0.81428
 C319 C 0.11747 0.17347 0.50645
 C320 C 0.11253 0.18905 0.47966
 C321 C 0.09055 0.20758 0.47923
 C322 C 0.07324 0.21163 0.50597
 C323 C 0.07907 0.19679 0.53312
 C324 C 0.10072 0.17794 0.53335
 C325 C 0.13879 0.15150 0.50575
 C326 C 0.15466 0.14606 0.53272
 C327 C 0.17355 0.12442 0.53226
 C328 C 0.17731 0.10805 0.50472
 C329 C 0.16183 0.11366 0.47769
 C330 C 0.14267 0.13497 0.47825
 H331 H 0.08690 0.21771 0.45743
 H332 H 0.06593 0.19895 0.55395
 H333 H 0.18546 0.12065 0.55333
 H334 H 0.16402 0.10105 0.45629
 H335 H 0.10346 0.16601 0.55428
 H336 H 0.15260 0.15861 0.55417
 H337 H 0.12533 0.18656 0.45865
 H338 H 0.13035 0.13795 0.45725
 C339 C 0.66574 0.61935 0.01455
 C340 C 0.67084 0.60433 -0.01352
 C341 C 0.69219 0.58524 -0.01507
 C342 C 0.70910 0.58063 0.01139
 C343 C 0.70468 0.59666 0.03920
 C344 C 0.68342 0.61602 0.04061
 C345 C 0.64043 0.63639 0.01732
 C346 C 0.64289 0.66377 0.03155
 C347 C 0.61865 0.67944 0.03429
 C348 C 0.59140 0.66784 0.02323
 C349 C 0.58904 0.64023 0.00939
 C350 C 0.61328 0.62478 0.00632
 H351 H 0.69445 0.57286 -0.03662
 H352 H 0.71626 0.59333 0.06050
 H353 H 0.62136 0.70078 0.04467
 H354 H 0.56834 0.63031 0.00130
 H355 H 0.67964 0.62713 0.06265
 H356 H 0.66363 0.67319 0.04012
 H357 H 0.65760 0.60667 -0.03402
 H358 H 0.61069 0.60345 -0.00414
 C359 C 0.89174 -0.16609 0.50144
 C360 C 0.89459 -0.18511 0.47582
 C361 C 0.91576 -0.20459 0.47590
 C362 C 0.93421 -0.20588 0.50195
 C363 C 0.93057 -0.18730 0.52790
 C364 C 0.90957 -0.16782 0.52772
 C365 C 0.87176 -0.14317 0.50001
 C366 C 0.88115 -0.11520 0.51011
 C367 C 0.86276 -0.09334 0.50852
 C368 C 0.83440 -0.09890 0.49696
 C369 C 0.82501 -0.12690 0.48672
 C370 C 0.84355 -0.14878 0.48812
 H371 H 0.91841 -0.21744 0.45485
 H372 H 0.94488 -0.18699 0.54796
 H373 H 0.87096 -0.07195 0.51593
 H374 H 0.80319 -0.13201 0.47807
 H375 H 0.90775 -0.15355 0.54790
 H376 H 0.90300 -0.11010 0.51874
 H377 H 0.88144 -0.18391 0.45503
 H378 H 0.83569 -0.17018 0.48034
 C379 C 0.32643 0.37570 0.97994
 C380 C 0.32425 0.39757 0.95868
 C381 C 0.30401 0.41755 0.96344
 C382 C 0.28531 0.41628 0.98954
 C383 C 0.28687 0.39365 1.01021
 C384 C 0.30717 0.37365 1.00541
 C385 C 0.34990 0.35626 0.97662
 C386 C 0.36538 0.34918 1.00313
 C387 C 0.38869 0.33243 1.00001
 C388 C 0.39708 0.32233 0.97030
 C389 C 0.38133 0.32904 0.94380
 C390 C 0.35798 0.34583 0.94693
 H391 H 0.30360 0.43476 0.94719
 H392 H 0.27328 0.39141 1.03065
 H393 H 0.40069 0.32808 1.02082
 H394 H 0.38703 0.32124 0.92066
 H395 H 0.30809 0.35675 1.02196
 H396 H 0.36008 0.35735 1.02624
 H397 H 0.33900 0.39999 0.93903
 H398 H 0.34624 0.35066 0.92611
 C399 C 0.91467 0.16867 0.51245
 C400 C 0.91640 0.19404 0.49567
 C401 C 0.94182 0.21258 0.49655
 C402 C 0.96572 0.20594 0.51423
 C403 C 0.96304 0.18166 0.53273
 C404 C 0.93787 0.16321 0.53178
 C405 C 0.89011 0.14657 0.50800
 C406 C 0.89577 0.11806 0.50215
 C407 C 0.87315 0.09672 0.49837
 C408 C 0.84425 0.10332 0.50054
 C409 C 0.83845 0.13186 0.50631
 C410 C 0.86123 0.15339 0.50970
 H411 H 0.94336 0.23114 0.48204
 H412 H 0.98087 0.17639 0.54720
 H413 H 0.87828 0.07490 0.49429
 H414 H 0.81633 0.13749 0.50795
 H415 H 0.93684 0.14413 0.54546
 H416 H 0.91783 0.11226 0.50037
 H417 H 0.89876 0.19870 0.48059
 H418 H 0.85634 0.17523 0.51422
 C419 C 0.31901 0.57165 0.02325
 C420 C 0.29888 0.56898 -0.00158
 C421 C 0.28121 0.54356 -0.00665
 C422 C 0.28367 0.52044 0.01281
 C423 C 0.30248 0.52361 0.03859
 C424 C 0.31978 0.54902 0.04394
 C425 C 0.34073 0.59677 0.02629
 C426 C 0.36939 0.59294 0.03481
 C427 C 0.39029 0.61606 0.03688
 C428 C 0.38321 0.64364 0.03027
 C429 C 0.35461 0.64762 0.02168
 C430 C 0.33354 0.62442 0.01978
 H431 H 0.26694 0.54136 -0.02679
 H432 H 0.30440 0.50604 0.05407
 H433 H 0.41227 0.61222 0.04288
 H434 H 0.34852 0.66871 0.01665
 H435 H 0.33440 0.55063 0.06379
 H436 H 0.37592 0.57187 0.03913
 H437 H 0.29785 0.58592 -0.01805
 H438 H 0.31163 0.62813 0.01340
 C439 C 0.09131 -0.16121 0.48418
 C440 C 0.06832 -0.16001 0.46298
 C441 C 0.04343 -0.17869 0.46522
 C442 C 0.04105 -0.19923 0.48847
 C443 C 0.06470 -0.20191 0.50828
 C444 C 0.08964 -0.18294 0.50625
 C445 C 0.11576 -0.13855 0.48452
 C446 C 0.14436 -0.14485 0.49009
 C447 C 0.16699 -0.12306 0.49097
 C448 C 0.16145 -0.09458 0.48627
 C449 C 0.13286 -0.08836 0.48079
 C450 C 0.11033 -0.11002 0.47999
 H451 H 0.02564 -0.17660 0.44928
 H452 H 0.06326 -0.21756 0.52645
 H453 H 0.18885 -0.12852 0.49501
 H454 H 0.12777 -0.06658 0.47782
 H455 H 0.10693 -0.18437 0.52298
 H456 H 0.14927 -0.16662 0.49345
 H457 H 0.06925 -0.14408 0.44513
 H458 H 0.08848 -0.10429 0.47649
 C459 C 0.66823 0.42476 0.99727
 C460 C 0.66337 0.44406 1.02211
 C461 C 0.68164 0.46892 1.02672
 C462 C 0.70537 0.47489 1.00683
 C463 C 0.71161 0.45475 0.98341
 C464 C 0.69308 0.42986 0.97856
 C465 C 0.64628 0.40061 0.98991
 C466 C 0.65438 0.37348 0.98071
 C467 C 0.63323 0.35087 0.97462
 C468 C 0.60369 0.35503 0.97770
 C469 C 0.59568 0.38231 0.98608
 C470 C 0.61669 0.40481 0.99203
 H471 H 0.67674 0.48396 1.04530
 H472 H 0.72978 0.45905 0.96774
 H473 H 0.63997 0.32998 0.96834
 H474 H 0.57307 0.38628 0.98795
 H475 H 0.69737 0.41539 0.95922
 H476 H 0.67700 0.36959 0.97895
 H477 H 0.64491 0.44032 1.03751
 H478 H 0.60971 0.42564 0.99813
 C479 C 0.51101 0.11198 1.14072
 C480 C 0.48732 0.09159 1.14350
 C481 C 0.48702 0.07121 1.16656
 C482 C 0.51063 0.07026 1.18714
 C483 C 0.53405 0.09132 1.18477
 C484 C 0.53417 0.11193 1.16182
 C485 C 0.51154 0.13299 1.11557
 C486 C 0.51965 0.16200 1.12206
 C487 C 0.51935 0.18181 1.09833
 C488 C 0.51119 0.17294 1.06757
 C489 C 0.50357 0.14378 1.06109
 C490 C 0.50362 0.12406 1.08485
 H491 H 0.46836 0.05578 1.16812
 H492 H 0.55240 0.09232 1.20034
 H493 H 0.52495 0.20415 1.10422
 H494 H 0.49782 0.13611 1.03754
 H495 H 0.55266 0.12755 1.16017
 H496 H 0.52558 0.16943 1.14565
 H497 H 0.46891 0.09151 1.12790
 H498 H 0.49774 0.10172 1.07915
 C499 C 0.00639 0.69011 0.60318
 C500 C 0.01616 0.68541 0.57241
 C501 C 0.01266 0.70536 0.54939
 C502 C -0.00048 0.73056 0.55672
 C503 C -0.00890 0.73587 0.58791
 C504 C -0.00564 0.71580 0.61084
 C505 C 0.00675 0.66739 0.62650
 C506 C -0.01809 0.65996 0.64440
 C507 C -0.01882 0.63711 0.66462
 C508 C 0.00536 0.62141 0.66764
 C509 C 0.03054 0.62934 0.65047
 C510 C 0.03115 0.65200 0.62988
 H511 H 0.01893 0.70025 0.52557
 H512 H -0.01860 0.75530 0.59448
 H513 H -0.03841 0.63156 0.67777
 H514 H 0.04941 0.61746 0.65225
 H515 H -0.01298 0.72013 0.63449
 H516 H -0.03730 0.67126 0.64202
 H517 H 0.02521 0.66564 0.56579
 H518 H 0.05059 0.65738 0.61644
 C519 C 0.49127 0.88028 -0.15152
 C520 C 0.51551 0.88201 -0.17138
 C521 C 0.51885 0.90281 -0.19410
 C522 C 0.49783 0.92237 -0.19773
 C523 C 0.47358 0.92049 -0.17769
 C524 C 0.47029 0.89971 -0.15499
 C525 C 0.48836 0.85878 -0.12672
 C526 C 0.47865 0.86624 -0.09658
 C527 C 0.47692 0.84633 -0.07287
 C528 C 0.48487 0.81853 -0.07877
 C529 C 0.49418 0.81095 -0.10903
 C530 C 0.49591 0.83086 -0.13275
 H531 H 0.53830 0.90350 -0.20801
 H532 H 0.45716 0.93538 -0.17952
 H533 H 0.47011 0.85295 -0.04968
 H534 H 0.50003 0.78955 -0.11440
 H535 H 0.45125 0.89880 -0.14019
 H536 H 0.47311 0.88771 -0.09109
 H537 H 0.53235 0.86768 -0.16881
 H538 H 0.50303 0.82436 -0.15587
 C539 C 1.00030 0.32178 0.41206
 C540 C 0.98666 0.32242 0.44145
 C541 C 0.99099 0.30174 0.46349
 C542 C 1.00920 0.27975 0.45676
 C543 C 1.02180 0.27871 0.42661
 C544 C 1.01747 0.29939 0.40472
 C545 C 0.99776 0.34495 0.38954
 C546 C 1.02231 0.35617 0.37321
 C547 C 1.02036 0.37811 0.35222
 C548 C 0.99376 0.38937 0.34682
 C549 C 0.96916 0.37822 0.36324
 C550 C 0.97116 0.35629 0.38443
 H551 H 0.98121 0.30438 0.48628
 H552 H 1.03483 0.26169 0.41940
 H553 H 1.03990 0.38662 0.34063
 H554 H 0.94828 0.38619 0.35943
 H555 H 1.02765 0.29787 0.38192
 H556 H 1.04324 0.34834 0.37713
 H557 H 0.97353 0.33962 0.44791
 H558 H 0.95182 0.34792 0.39650
 C559 C 0.48676 0.90945 0.18464
 C560 C 0.49907 0.91593 0.21428
 C561 C 0.50268 0.94419 0.22578
 C562 C 0.49465 0.96676 0.20749
 C563 C 0.48187 0.95983 0.17794
 C564 C 0.47783 0.93162 0.16683
 C565 C 0.48488 0.88006 0.17103
 C566 C 0.45964 0.86870 0.15540
 C567 C 0.45933 0.84289 0.13831
 C568 C 0.48435 0.82814 0.13627
 C569 C 0.50912 0.83875 0.15326
 C570 C 0.50932 0.86442 0.17065
 H571 H 0.51333 0.94814 0.24820
 H572 H 0.47432 0.97607 0.16335
 H573 H 0.44003 0.83531 0.12524
 H574 H 0.52861 0.82764 0.15221
 H575 H 0.46843 0.92721 0.14378
 H576 H 0.44048 0.88032 0.15553
 H577 H 0.50625 0.89912 0.22838
 H578 H 0.52909 0.87283 0.18236
 C579 C 0.01052 0.33527 0.59923
 C580 C -0.01348 0.31662 0.58988
 C581 C -0.01000 0.29341 0.56928
 C582 C 0.01755 0.28830 0.55777
 C583 C 0.04153 0.30680 0.56743
 C584 C 0.03807 0.32993 0.58793
 C585 C 0.00702 0.36053 0.62025
 C586 C 0.02288 0.38671 0.61467
 C587 C 0.02030 0.41040 0.63466
 C588 C 0.00170 0.40858 0.66072
 C589 C -0.01434 0.38244 0.66626
 C590 C -0.01177 0.35869 0.64618
 H591 H -0.02887 0.27940 0.56254
 H592 H 0.06301 0.30384 0.55864
 H593 H 0.03325 0.43007 0.62993
 H594 H -0.02905 0.38043 0.68598
 H595 H 0.05705 0.34365 0.59498
 H596 H 0.03725 0.38896 0.59468
 H597 H -0.03502 0.32028 0.59802
 H598 H -0.02411 0.33875 0.65124
 C599 C 0.50396 0.08501 0.80998
 C600 C 0.48922 0.06258 0.82611
 C601 C 0.48939 0.03447 0.81486
 C602 C 0.50432 0.02807 0.78718
 C603 C 0.51862 0.05054 0.77067
 C604 C 0.51864 0.07875 0.78210
 C605 C 0.50470 0.11458 0.82316
 C606 C 0.53084 0.13207 0.82481
 C607 C 0.53223 0.15841 0.84110
 C608 C 0.50749 0.16780 0.85589
 C609 C 0.48103 0.15097 0.85267
 C610 C 0.47967 0.12467 0.83649
 H611 H 0.47758 0.01777 0.82780
 H612 H 0.53021 0.04637 0.74924
 H613 H 0.55285 0.17106 0.84291
 H614 H 0.46164 0.15740 0.86404
 H615 H 0.53003 0.09568 0.76911
 H616 H 0.55049 0.12478 0.81484
 H617 H 0.47798 0.06669 0.84784
 H618 H 0.45915 0.11179 0.83519
 C619 C 1.00080 0.66682 0.41662
 C620 C 1.02221 0.68977 0.41953
 C621 C 1.01777 0.71339 0.43912
 C622 C 0.99157 0.71473 0.45541
 C623 C 0.97018 0.69179 0.45250
 C624 C 0.97487 0.66792 0.43350
 C625 C 1.00488 0.64222 0.39514
 C626 C 1.00025 0.61418 0.40563
 C627 C 1.00210 0.59093 0.38469
 C628 C 1.00795 0.59541 0.35283
 C629 C 1.01311 0.62343 0.34247
 C630 C 1.01190 0.64665 0.36352
 H631 H 1.03454 0.73088 0.44107
 H632 H 0.94995 0.69223 0.46520
 H633 H 0.99782 0.56948 0.39308
 H634 H 1.01762 0.62732 0.31796
 H635 H 0.95799 0.65053 0.43144
 H636 H 0.99488 0.61031 0.42994
 H637 H 1.04238 0.68933 0.40673
 H638 H 1.01537 0.66810 0.35491
 C639 C 1.16625 0.47113 0.10041
 C640 C 1.17193 0.44405 0.08831
 C641 C 1.19225 0.44126 0.06446
 C642 C 1.20783 0.46546 0.05234
 C643 C 1.20261 0.49253 0.06481
 C644 C 1.18198 0.49534 0.08845
 C645 C 1.14342 0.47402 0.12467
 C646 C 1.14650 0.49549 0.14844
 C647 C 1.12448 0.49853 0.17052
 C648 C 1.09893 0.48008 0.16944
 C649 C 1.09621 0.45825 0.14610
 C650 C 1.11799 0.45542 0.12391
 H651 H 1.19533 0.42007 0.05523
 H652 H 1.21458 0.51161 0.05655
 H653 H 1.12724 0.51569 0.18802
 H654 H 1.07713 0.44326 0.14487
 H655 H 1.17801 0.51656 0.09693
 H656 H 1.16595 0.50995 0.15005
 H657 H 1.16067 0.42486 0.09727
 H658 H 1.11458 0.43889 0.10576
 C659 C 0.59404 -0.01903 0.66632
 C660 C 0.57585 -0.04460 0.66686
 C661 C 0.55409 -0.04841 0.68943
 C662 C 0.54962 -0.02654 0.71145
 C663 C 0.56714 -0.00079 0.71066
 C664 C 0.58932 0.00287 0.68851
 C665 C 0.61803 -0.01544 0.64304
 C666 C 0.62641 0.01141 0.63068
 C667 C 0.64899 0.01468 0.60895
 C668 C 0.66351 -0.00890 0.59857
 C669 C 0.65505 -0.03575 0.61088
 C670 C 0.63286 -0.03891 0.63301
 H671 H 0.54054 -0.06837 0.68955
 H672 H 0.56428 0.01614 0.72782
 H673 H 0.65511 0.03578 0.60042
 H674 H 0.66525 -0.05456 0.60313
 H675 H 0.60316 0.02262 0.68932
 H676 H 0.61531 0.02995 0.63746
 H677 H 0.57826 -0.06168 0.64975
 H678 H 0.62750 -0.05983 0.64237
 C679 C -0.17653 0.51728 0.90603
 C680 C -0.17431 0.50428 0.93498
 C681 C -0.19510 0.50756 0.95833
 C682 C -0.21884 0.52349 0.95296
 C683 C -0.22148 0.53558 0.92341
 C684 C -0.20040 0.53275 0.90035
 C685 C -0.15329 0.51595 0.88237
 C686 C -0.14023 0.54118 0.87002
 C687 C -0.11760 0.54029 0.84845
 C688 C -0.10785 0.51404 0.83819
 C689 C -0.12133 0.48873 0.85038
 C690 C -0.14360 0.48971 0.87250
 H691 H -0.19187 0.49842 0.98087
 H692 H -0.23975 0.54742 0.91808
 H693 H -0.10740 0.56030 0.84040
 H694 H -0.11488 0.46809 0.84271
 H695 H -0.20267 0.54272 0.87803
 H696 H -0.14711 0.56169 0.87767
 H697 H -0.15588 0.49249 0.93995
 H698 H -0.15353 0.46997 0.88163
 C699 C 0.41042 0.02090 0.32146
 C700 C 0.43618 0.00843 0.32746
 C701 C 0.45913 0.01081 0.30613
 C702 C 0.45677 0.02559 0.27821
 C703 C 0.43070 0.03771 0.27212
 C704 C 0.40790 0.03554 0.29358
 C705 C 0.38633 0.01892 0.34435
 C706 C 0.37203 0.04317 0.35264
 C707 C 0.34983 0.04155 0.37487
 C708 C 0.34128 0.01558 0.38898
 C709 C 0.35523 -0.00880 0.38029
 C710 C 0.37766 -0.00711 0.35831
 H711 H 0.47876 0.00138 0.31194
 H712 H 0.42758 0.04851 0.25052
 H713 H 0.33931 0.06061 0.38105
 H714 H 0.34922 -0.02901 0.39105
 H715 H 0.38807 0.04496 0.28816
 H716 H 0.37844 0.06353 0.34238
 H717 H 0.43878 -0.00273 0.34897
 H718 H 0.38818 -0.02616 0.35212
 C719 C 0.16922 0.48974 0.90167
 C720 C 0.18590 0.51148 0.91853
 C721 C 0.20609 0.50474 0.94089
 C722 C 0.21023 0.47616 0.94667
 C723 C 0.19355 0.45446 0.92987
 C724 C 0.17326 0.46116 0.90775
 C725 C 0.14727 0.49662 0.87828
 C726 C 0.14255 0.47969 0.85071
 C727 C 0.12068 0.48491 0.82970
 C728 C 0.10307 0.50735 0.83554
 C729 C 0.10839 0.52486 0.86260
 C730 C 0.13016 0.51952 0.88375
 H731 H 0.21876 0.52192 0.95328
 H732 H 0.19572 0.43222 0.93431
 H733 H 0.11705 0.47077 0.80932
 H734 H 0.09557 0.54260 0.86762
 H735 H 0.16032 0.44386 0.89584
 H736 H 0.15564 0.46220 0.84545
 H737 H 0.18360 0.53371 0.91420
 H738 H 0.13303 0.53287 0.90482
 C739 C 0.60057 0.00626 0.31623
 C740 C 0.60618 0.00824 0.28388
 C741 C 0.58414 0.01335 0.26303
 C742 C 0.55595 0.01606 0.27399
 C743 C 0.55005 0.01343 0.30602
 C744 C 0.57214 0.00883 0.32699
 C745 C 0.62432 0.00246 0.33880
 C746 C 0.61886 -0.01313 0.36611
 C747 C 0.64065 -0.01512 0.38829
 C748 C 0.66870 -0.00200 0.38353
 C749 C 0.67442 0.01278 0.35572
 C750 C 0.65248 0.01518 0.33379
 H751 H 0.58905 0.01504 0.23827
 H752 H 0.52857 0.01597 0.31501
 H753 H 0.63520 -0.02635 0.40955
 H754 H 0.69583 0.02275 0.35092
 H755 H 0.56704 0.00811 0.35174
 H756 H 0.59763 -0.02369 0.37056
 H757 H 0.62759 0.00579 0.27459
 H758 H 0.65752 0.02765 0.31327
 C759 C 0.82865 0.51017 0.10068
 C760 C 0.82844 0.53746 0.08831
 C761 C 0.80694 0.54334 0.06722
 C762 C 0.78553 0.52191 0.05772
 C763 C 0.78589 0.49450 0.06975
 C764 C 0.80711 0.48875 0.09141
 C765 C 0.85154 0.50434 0.12307
 C766 C 0.84449 0.49272 0.15233
 C767 C 0.86622 0.48960 0.17440
 C768 C 0.89542 0.49771 0.16741
 C769 C 0.90236 0.50811 0.13748
 C770 C 0.88066 0.51166 0.11572
 H771 H 0.80727 0.56455 0.05798
 H772 H 0.76949 0.47771 0.06278
 H773 H 0.86004 0.48172 0.19725
 H774 H 0.92462 0.51373 0.13083
 H775 H 0.80697 0.46754 0.10060
 H776 H 0.82210 0.48706 0.15850
 H777 H 0.84479 0.55432 0.09525
 H778 H 0.88660 0.52025 0.09309
 C779 C 0.40544 -0.01859 0.67322
 C780 C 0.42505 0.00443 0.68313
 C781 C 0.44711 0.00050 0.70446
 C782 C 0.45069 -0.02670 0.71588
 C783 C 0.43106 -0.04968 0.70596
 C784 C 0.40855 -0.04560 0.68537
 C785 C 0.38231 -0.01470 0.64982
 C786 C 0.37287 -0.03706 0.62863
 C787 C 0.35149 -0.03355 0.60649
 C788 C 0.33947 -0.00728 0.60407
 C789 C 0.34879 0.01511 0.62529
 C790 C 0.36969 0.01135 0.64807
 H791 H 0.46115 0.01898 0.71200
 H792 H 0.43309 -0.07109 0.71365
 H793 H 0.34449 -0.05160 0.59122
 H794 H 0.34040 0.03579 0.62406
 H795 H 0.39359 -0.06380 0.67907
 H796 H 0.38229 -0.05730 0.62864
 H797 H 0.42374 0.02552 0.67410
 H798 H 0.37586 0.02895 0.66428
   
