data_POSCAR
  _audit_creation_date              2014-09-24
  _audit_creation_method            'ToBaCCo'
  _symmetry_space_group_name_H-M    'P1'
  _symmetry_Int_Tables_number       1
  _symmetry_cell_setting            triclinic
  loop_
  _symmetry_equiv_pos_as_xyz
 x,y,z
_cell_length_a 35.4497
_cell_length_b 35.4251
_cell_length_c 35.4520
_cell_angle_alpha 89.957600
_cell_angle_beta 89.960600
_cell_angle_gamma 90.015200
loop_
  _atom_site_label
  _atom_site_type_symbol
  _atom_site_fract_x
  _atom_site_fract_y
  _atom_site_fract_z
C1 C 0.17127 0.17037 0.22010
 C2 C 0.20376 0.15445 0.20328
 C3 C 0.22061 0.17026 0.17072
 C4 C 0.20387 0.20277 0.15497
 C5 C 0.17169 0.21920 0.17103
 C6 C 0.15568 0.20293 0.20334
 H7 H 0.21609 0.12958 0.21568
 H8 H 0.21691 0.21700 0.13131
 H9 H 0.12971 0.21489 0.21401
 C10 C -0.17146 0.82880 0.22133
 C11 C -0.20411 0.84439 0.20454
 C12 C -0.22039 0.82828 0.17221
 C13 C -0.20392 0.79606 0.15628
 C14 C -0.17156 0.77986 0.17219
 C15 C -0.15558 0.79631 0.20448
 H16 H -0.21673 0.86978 0.21576
 H17 H -0.21584 0.78407 0.13083
 H18 H -0.13189 0.78214 0.21747
 C19 C -0.17099 0.17099 -0.22077
 C20 C -0.15525 0.20347 -0.20400
 C21 C -0.17132 0.21982 -0.17179
 C22 C -0.20360 0.20351 -0.15578
 C23 C -0.22032 0.17096 -0.17140
 C24 C -0.20351 0.15512 -0.20392
 H25 H -0.13160 0.21773 -0.21703
 H26 H -0.21428 0.21541 -0.12979
 H27 H -0.21589 0.13026 -0.21627
 C28 C 0.17135 0.82932 -0.21960
 C29 C 0.20373 0.84535 -0.20334
 C30 C 0.22072 0.82947 -0.17093
 C31 C 0.20395 0.79684 -0.15521
 C32 C 0.17159 0.78048 -0.17115
 C33 C 0.15549 0.79693 -0.20330
 H34 H 0.21666 0.86904 -0.21761
 H35 H 0.21464 0.78489 -0.12926
 H36 H 0.13056 0.78441 -0.21574
 C37 C 0.17134 1.17125 0.77981
 C38 C 0.20364 1.15524 0.79624
 C39 C 0.21997 1.17121 0.82861
 C40 C 0.20355 1.20356 0.84458
 C41 C 0.17124 1.21997 0.82855
 C42 C 0.15533 1.20358 0.79620
 H43 H 0.21676 1.13093 0.78317
 H44 H 0.21600 1.21606 0.86950
 H45 H 0.12987 1.21553 0.78425
 C46 C 0.82974 0.82887 0.77975
 C47 C 0.84549 0.79629 0.79661
 C48 C 0.82952 0.77945 0.82908
 C49 C 0.79697 0.79622 0.84465
 C50 C 0.78077 0.82854 0.82863
 C51 C 0.79724 0.84462 0.79647
 H52 H 0.87036 0.78388 0.78429
 H53 H 0.78497 0.78553 0.87061
 H54 H 0.78306 0.86829 0.78342
 C55 C 0.17056 0.82936 1.22048
 C56 C 0.20293 0.84533 1.20347
 C57 C 0.21935 0.82927 1.17117
 C58 C 0.20320 0.79681 1.15538
 C59 C 0.17108 0.78028 1.17149
 C60 C 0.15500 0.79665 1.20379
 H61 H 0.21645 0.86975 1.21574
 H62 H 0.21633 0.78375 1.13107
 H63 H 0.12907 0.78464 1.21449
 C64 C 0.82861 1.17101 1.22080
 C65 C 0.79595 1.15549 1.20421
 C66 C 0.77963 1.17162 1.17201
 C67 C 0.79607 1.20379 1.15590
 C68 C 0.82870 1.22040 1.17146
 C69 C 0.84450 1.20352 1.20395
 H70 H 0.78335 1.13009 1.21551
 H71 H 0.78416 1.21446 1.12992
 H72 H 0.86741 1.21770 1.21814
 N73 N 0.46058 0.93312 0.95889
 N74 N 0.43188 0.90986 0.95412
 N75 N 0.54007 0.95935 0.93287
 N76 N 0.56876 0.95462 0.90959
 N77 N 0.53999 0.93310 0.95905
 N78 N 0.56863 0.90975 0.95433
 N79 N 0.46068 0.95938 0.93270
 N80 N 0.43204 0.95472 0.90937
 C81 C 0.41450 0.92375 0.92315
 C82 C 0.58616 0.92360 0.92340
 N83 N 0.54006 1.06685 0.95914
 N84 N 0.56874 1.09018 0.95448
 N85 N 0.46074 1.04068 0.93275
 N86 N 0.43212 1.04542 0.90941
 N87 N 0.46067 1.06687 0.95896
 N88 N 0.43201 1.09017 0.95420
 N89 N 0.54013 1.04066 0.93293
 N90 N 0.56885 1.04543 0.90968
 Mn91 Mn 0.50041 1.00002 0.93236
 C92 C 0.58629 1.07639 0.92355
 C93 C 0.41462 1.07637 0.92321
 N94 N 0.53976 0.93299 1.04032
 N95 N 0.56837 0.90963 1.04514
 N96 N 0.46031 0.95921 1.06636
 N97 N 0.43161 0.95445 1.08963
 N98 N 0.46036 0.93302 1.04015
 N99 N 0.43169 0.90968 1.04485
 N100 N 0.53970 0.95919 1.06653
 N101 N 0.56826 0.95439 1.08993
 Mn102 Mn 0.50017 0.93260 0.99960
 C103 C 0.58573 0.92340 1.07616
 C104 C 0.41417 0.92348 1.07579
 N105 N 0.46043 1.06678 1.04021
 N106 N 0.43180 1.09015 1.04492
 N107 N 0.53974 1.04050 1.06657
 N108 N 0.56830 1.04524 1.08997
 N109 N 0.53982 1.06676 1.04038
 N110 N 0.56844 1.09010 1.04522
 N111 N 0.46034 1.04053 1.06640
 N112 N 0.43165 1.04529 1.08968
 Mn113 Mn 0.50025 1.06726 0.99967
 Mn114 Mn 0.50002 0.99986 1.06691
 Cl115 Cl 0.50021 0.99993 0.99964
 C116 C 0.41426 1.07631 1.07585
 C117 C 0.58580 1.07625 1.07623
 N118 N -0.06682 0.45994 0.04096
 N119 N -0.09015 0.43128 0.04574
 N120 N -0.04066 0.53935 0.06731
 N121 N -0.04541 0.56793 0.09071
 N122 N -0.06690 0.53940 0.04116
 N123 N -0.09024 0.56802 0.04603
 N124 N -0.04058 0.45990 0.06711
 N125 N -0.04532 0.43120 0.09042
 C126 C -0.07630 0.41375 0.07666
 C127 C -0.07642 0.58540 0.07702
 N128 N 0.06677 0.53955 0.04088
 N129 N 0.09006 0.56824 0.04563
 N130 N 0.04069 0.45999 0.06695
 N131 N 0.04552 0.43126 0.09020
 N132 N 0.06685 0.46011 0.04070
 N133 N 0.09023 0.43148 0.04533
 N134 N 0.04061 0.53945 0.06714
 N135 N 0.04536 0.56806 0.09050
 Mn136 Mn 0.00001 0.49967 0.06758
 C137 C 0.07628 0.58561 0.07665
 C138 C 0.07650 0.41389 0.07628
 N139 N -0.06700 0.53965 -0.04011
 N140 N -0.09033 0.56833 -0.04474
 N141 N -0.04074 0.46032 -0.06655
 N142 N -0.04550 0.43175 -0.08997
 N143 N -0.06692 0.46019 -0.04031
 N144 N -0.09023 0.43152 -0.04513
 N145 N -0.04082 0.53976 -0.06635
 N146 N -0.04559 0.56850 -0.08958
 Mn147 Mn -0.06736 0.49979 0.00043
 C148 C -0.07655 0.58590 -0.07568
 C149 C -0.07644 0.41420 -0.07619
 N150 N 0.06674 0.46038 -0.04054
 N151 N 0.09004 0.43172 -0.04535
 N152 N 0.04043 0.53988 -0.06650
 N153 N 0.04515 0.56860 -0.08979
 N154 N 0.06666 0.53982 -0.04035
 N155 N 0.08998 0.56850 -0.04510
 N156 N 0.04051 0.46043 -0.06669
 N157 N 0.04521 0.43180 -0.09004
 Mn158 Mn 0.06720 0.49997 0.00017
 Mn159 Mn -0.00016 0.50010 -0.06697
 Cl160 Cl -0.00008 0.49988 0.00030
 C161 C 0.07619 0.41432 -0.07631
 C162 C 0.07613 0.58604 -0.07601
 N163 N 0.93321 0.04095 0.53966
 N164 N 0.90994 0.04580 0.56835
 N165 N 0.95927 0.06700 0.46013
 N166 N 0.95448 0.09030 0.43145
 N167 N 0.93304 0.04080 0.46027
 N168 N 0.90966 0.04553 0.43168
 N169 N 0.95944 0.06714 0.53952
 N170 N 0.95477 0.09056 0.56810
 C171 C 0.92381 0.07682 0.58567
 C172 C 0.92347 0.07648 0.41412
 N173 N 1.06669 0.04068 0.45989
 N174 N 1.08995 0.04534 0.43115
 N175 N 1.04070 0.06705 0.53928
 N176 N 1.04549 0.09038 0.56791
 N177 N 1.06686 0.04081 0.53927
 N178 N 1.09021 0.04552 0.56788
 N179 N 1.04052 0.06692 0.45989
 N180 N 1.04522 0.09019 0.43117
 Mn181 Mn 0.99998 0.06748 0.49971
 C182 C 1.07613 0.07631 0.41366
 C183 C 1.07646 0.07652 0.58532
 N184 N 0.93295 -0.04053 0.46046
 N185 N 0.90956 -0.04533 0.43189
 N186 N 0.95929 -0.06662 0.53985
 N187 N 0.95454 -0.08994 0.56854
 N188 N 0.93311 -0.04038 0.53986
 N189 N 0.90982 -0.04509 0.56856
 N190 N 0.95913 -0.06677 0.46046
 N191 N 0.95430 -0.09017 0.43190
 Mn192 Mn 0.93262 0.00021 0.50006
 C193 C 0.92331 -0.07637 0.41449
 C194 C 0.92361 -0.07608 0.58603
 N195 N 1.06678 -0.04048 0.53949
 N196 N 1.09015 -0.04518 0.56809
 N197 N 1.04039 -0.06683 0.46024
 N198 N 1.04503 -0.09018 0.43159
 N199 N 1.06661 -0.04062 0.46010
 N200 N 1.08984 -0.04539 0.43138
 N201 N 1.04055 -0.06668 0.53964
 N202 N 1.04533 -0.08995 0.56835
 Mn203 Mn 1.06718 0.00009 0.49968
 Mn204 Mn 0.99984 -0.06718 0.50005
 Cl205 Cl 0.99990 0.00015 0.49988
 C206 C 1.07634 -0.07611 0.58568
 C207 C 1.07596 -0.07637 0.41402
 C208 C 1.12214 0.12213 0.31858
 C209 C 1.11799 0.16061 0.31115
 C210 C 1.13396 0.17647 0.27876
 C211 C 1.15467 0.15411 0.25292
 C212 C 1.15836 0.11513 0.26102
 C213 C 1.14226 0.09945 0.29344
 C214 C 1.10585 0.10595 0.35209
 C215 C 1.09227 0.09242 0.38019
 H216 H 1.10267 0.17852 0.33063
 H217 H 1.13123 0.20666 0.27516
 H218 H 1.17230 0.09601 0.24178
 H219 H 1.14532 0.06948 0.29876
 C220 C 0.87704 -0.12260 0.31984
 C221 C 0.89941 -0.14340 0.29497
 C222 C 0.88357 -0.15940 0.26261
 C223 C 0.84476 -0.15489 0.25427
 C224 C 0.82270 -0.13361 0.27990
 C225 C 0.83871 -0.11775 0.31223
 C226 C 0.89339 -0.10629 0.35321
 C227 C 0.90705 -0.09264 0.38119
 H228 H 0.92926 -0.14707 0.30043
 H229 H 0.90244 -0.17396 0.24358
 H230 H 0.79262 -0.13029 0.27625
 H231 H 0.82103 -0.10194 0.33152
 C232 C 0.87766 0.12305 0.68042
 C233 C 0.83921 0.11858 0.68770
 C234 C 0.82313 0.13427 0.72009
 C235 C 0.84525 0.15496 0.74613
 C236 C 0.88416 0.15920 0.73806
 C237 C 0.90007 0.14337 0.70563
 C238 C 0.89406 0.10680 0.64702
 C239 C 0.90768 0.09313 0.61902
 H240 H 0.82150 0.10319 0.66812
 H241 H 0.79297 0.13132 0.72346
 H242 H 0.90301 0.17339 0.75738
 H243 H 0.93000 0.14676 0.70039
 C244 C 1.12251 -0.12202 0.68058
 C245 C 1.12582 -0.16123 0.68393
 C246 C 1.14167 -0.17709 0.71638
 C247 C 1.15444 -0.15387 0.74593
 C248 C 1.15100 -0.11446 0.74227
 C249 C 1.13512 -0.09867 0.70980
 C250 C 1.10622 -0.10577 0.64713
 C251 C 1.09257 -0.09222 0.61908
 H252 H 1.11625 -0.17956 0.66143
 H253 H 1.14441 -0.20748 0.71813
 H254 H 1.16019 -0.09590 0.76471
 H255 H 1.13261 -0.06827 0.70752
 C256 C 0.31941 1.12231 1.12206
 C257 C 0.29417 1.14261 1.09965
 C258 C 0.26172 1.15841 1.11557
 C259 C 0.25367 1.15419 1.15448
 C260 C 0.27973 1.13348 1.17659
 C261 C 0.31213 1.11781 1.16051
 C262 C 0.35285 1.10613 1.10565
 C263 C 0.38088 1.09254 1.09202
 H264 H 0.29939 1.14601 1.06972
 H265 H 0.24239 1.17259 1.09671
 H266 H 0.27637 1.13052 1.20676
 H267 H 0.33173 1.10243 1.17822
 C268 C 0.31950 0.87786 0.87723
 C269 C 0.31172 0.83956 0.88228
 C270 C 0.27928 0.82360 0.86656
 C271 C 0.25372 0.84570 0.84524
 C272 C 0.26223 0.88449 0.84053
 C273 C 0.29470 0.90027 0.85638
 C274 C 0.35299 0.89413 0.89340
 C275 C 0.38107 0.90768 0.90697
 H276 H 0.33095 0.82185 0.89813
 H277 H 0.27545 0.79353 0.87005
 H278 H 0.24327 0.90339 0.82591
 H279 H 0.30031 0.93010 0.85257
 C280 C 0.68034 0.87717 1.12255
 C281 C 0.68338 0.83797 1.12634
 C282 C 0.71569 0.82206 1.14241
 C283 C 0.74540 0.84521 1.15495
 C284 C 0.74211 0.88460 1.15094
 C285 C 0.70977 0.90044 1.13484
 C286 C 0.64699 0.89350 1.10615
 C287 C 0.61903 0.90715 1.09245
 H288 H 0.66073 0.81970 1.11700
 H289 H 0.71724 0.79169 1.14551
 H290 H 0.76472 0.90312 1.15983
 H291 H 0.70776 0.93082 1.13193
 C292 C 0.68129 1.12248 0.87767
 C293 C 0.70648 1.09987 0.85752
 C294 C 0.73887 1.11564 0.84145
 C295 C 0.74690 1.15462 0.84520
 C296 C 0.72102 1.17690 0.86595
 C297 C 0.68865 1.16096 0.88189
 C298 C 0.64780 1.10621 0.89391
 C299 C 0.61972 1.09260 0.90745
 H300 H 0.70122 1.06990 0.85441
 H301 H 0.75815 1.09657 0.82750
 H302 H 0.72457 1.20709 0.86873
 H303 H 0.66914 1.17881 0.89722
 C304 C 0.12282 0.31901 0.12221
 C305 C 0.13550 0.28976 0.09892
 C306 C 0.15141 0.25729 0.11474
 C307 C 0.15481 0.25367 0.15413
 C308 C 0.14198 0.28326 0.17728
 C309 C 0.12610 0.31570 0.16140
 C310 C 0.10648 0.35245 0.10593
 C311 C 0.09279 0.38049 0.09238
 H312 H 0.13302 0.29200 0.06854
 H313 H 0.16063 0.23481 0.09622
 H314 H 0.14465 0.28151 0.20766
 H315 H 0.11647 0.33822 0.17968
 C316 C -0.12251 0.31950 -0.12268
 C317 C -0.16170 0.31619 -0.12594
 C318 C -0.17758 0.28381 -0.14191
 C319 C -0.15442 0.25426 -0.15484
 C320 C -0.11503 0.25787 -0.15145
 C321 C -0.09921 0.29029 -0.13546
 C322 C -0.10622 0.35288 -0.10625
 C323 C -0.09263 0.38087 -0.09251
 H324 H -0.17999 0.33869 -0.11624
 H325 H -0.20796 0.28206 -0.14456
 H326 H -0.09650 0.23543 -0.16075
 H327 H -0.06883 0.29252 -0.13299
 C328 C 0.12241 0.68093 -0.12204
 C329 C 0.16162 0.68410 -0.12535
 C330 C 0.17761 0.71649 -0.14124
 C331 C 0.15455 0.74617 -0.15407
 C332 C 0.11515 0.74272 -0.15056
 C333 C 0.09922 0.71030 -0.13464
 C334 C 0.10600 0.64750 -0.10579
 C335 C 0.09234 0.61945 -0.09220
 H336 H 0.17982 0.66148 -0.11577
 H337 H 0.20800 0.71813 -0.14398
 H338 H 0.09670 0.76528 -0.15973
 H339 H 0.06883 0.70818 -0.13211
 C340 C -0.12260 0.68013 0.12333
 C341 C -0.16181 0.68346 0.12643
 C342 C -0.17776 0.71587 0.14229
 C343 C -0.15464 0.74542 0.15529
 C344 C -0.11523 0.74180 0.15205
 C345 C -0.09935 0.70936 0.13616
 C346 C -0.10625 0.64673 0.10701
 C347 C -0.09262 0.61873 0.09333
 H348 H -0.18007 0.66096 0.11669
 H349 H -0.20815 0.71760 0.14484
 H350 H -0.09673 0.76424 0.16139
 H351 H -0.06896 0.70712 0.13381
 C352 C 1.12256 0.12249 0.68011
 C353 C 1.12543 0.16172 0.68359
 C354 C 1.14127 0.17760 0.71601
 C355 C 1.15446 0.15438 0.74540
 C356 C 1.15145 0.11495 0.74162
 C357 C 1.13558 0.09914 0.70918
 C358 C 1.10629 0.10622 0.64670
 C359 C 1.09266 0.09265 0.61868
 H360 H 1.11554 0.18005 0.66121
 H361 H 1.14366 0.20801 0.71787
 H362 H 1.16093 0.09637 0.76395
 H363 H 1.13339 0.06873 0.70680
 C364 C 0.87774 -0.12238 0.68095
 C365 C 0.85747 -0.09997 0.70622
 C366 C 0.84166 -0.11591 0.73867
 C367 C 0.84586 -0.15485 0.74670
 C368 C 0.86656 -0.17697 0.72064
 C369 C 0.88223 -0.16085 0.68823
 C370 C 0.89388 -0.10594 0.64750
 C371 C 0.90744 -0.09227 0.61944
 H372 H 0.85407 -0.07002 0.70100
 H373 H 0.82750 -0.09706 0.75802
 H374 H 0.86952 -0.20715 0.72400
 H375 H 0.89760 -0.17856 0.66861
 C376 C 1.12185 -0.12234 0.31905
 C377 C 1.11716 -0.16071 0.31144
 C378 C 1.13303 -0.17662 0.27905
 C379 C 1.15416 -0.15441 0.25338
 C380 C 1.15848 -0.11556 0.26171
 C381 C 1.14247 -0.09982 0.29413
 C382 C 1.10560 -0.10612 0.35252
 C383 C 1.09204 -0.09256 0.38059
 H384 H 1.10148 -0.17851 0.33076
 H385 H 1.12985 -0.20675 0.27535
 H386 H 1.17288 -0.09656 0.24266
 H387 H 1.14599 -0.06994 0.29961
 C388 C 0.87719 0.12248 0.31933
 C389 C 0.83879 0.11787 0.31195
 C390 C 0.82274 0.13370 0.27960
 C391 C 0.84485 0.15470 0.25375
 C392 C 0.88374 0.15894 0.26184
 C393 C 0.89961 0.14298 0.29422
 C394 C 0.89357 0.10624 0.35274
 C395 C 0.90723 0.09265 0.38076
 H396 H 0.82108 0.10228 0.33143
 H397 H 0.79262 0.13058 0.27610
 H398 H 0.90261 0.17328 0.24260
 H399 H 0.92952 0.14645 0.29952
 C400 C 0.12216 0.31950 -0.12250
 C401 C 0.12530 0.31622 -0.16171
 C402 C 0.14119 0.28383 -0.17764
 C403 C 0.15419 0.25428 -0.15451
 C404 C 0.15086 0.25783 -0.11511
 C405 C 0.13494 0.29025 -0.09925
 C406 C 0.10592 0.35292 -0.10617
 C407 C 0.09234 0.38095 -0.09253
 H408 H 0.11559 0.33875 -0.17996
 H409 H 0.14380 0.28212 -0.20802
 H410 H 0.16016 0.23536 -0.09660
 H411 H 0.13254 0.29247 -0.06886
 C412 C -0.12258 0.31891 0.12279
 C413 C -0.16095 0.31140 0.11804
 C414 C -0.17702 0.27905 0.13390
 C415 C -0.15498 0.25332 0.15509
 C416 C -0.11613 0.26153 0.15947
 C417 C -0.10023 0.29392 0.14347
 C418 C -0.10619 0.35234 0.10651
 C419 C -0.09252 0.38037 0.09288
 H420 H -0.17860 0.33078 0.10230
 H421 H -0.20712 0.27540 0.13065
 H422 H -0.09730 0.24239 0.17395
 H423 H -0.07035 0.29931 0.14704
 C424 C -0.12241 0.68095 -0.12168
 C425 C -0.09969 0.70611 -0.14181
 C426 C -0.11533 0.73853 -0.15795
 C427 C -0.15428 0.74661 -0.15430
 C428 C -0.17668 0.72076 -0.13359
 C429 C -0.16087 0.68836 -0.11758
 C430 C -0.10626 0.64745 -0.10536
 C431 C -0.09273 0.61935 -0.09177
 H432 H -0.06974 0.70081 -0.14484
 H433 H -0.09619 0.75779 -0.17189
 H434 H -0.20685 0.72434 -0.13089
 H435 H -0.17880 0.66887 -0.10226
 C436 C 0.12233 0.68048 0.12270
 C437 C 0.12543 0.68383 0.16189
 C438 C 0.14126 0.71627 0.17777
 C439 C 0.15422 0.74583 0.15459
 C440 C 0.15099 0.74218 0.11520
 C441 C 0.13513 0.70971 0.09939
 C442 C 0.10606 0.64704 0.10642
 C443 C 0.09246 0.61899 0.09283
 H444 H 0.11571 0.66132 0.18019
 H445 H 0.14381 0.71805 0.20815
 H446 H 0.16030 0.76464 0.09666
 H447 H 0.13277 0.70744 0.06901
 C448 C 0.31975 1.12241 0.87725
 C449 C 0.29058 1.09909 0.86445
 C450 C 0.25811 1.11492 0.84864
 C451 C 0.25441 1.15435 0.84547
 C452 C 0.28390 1.17754 0.85844
 C453 C 0.31634 1.16164 0.87422
 C454 C 0.35320 1.10611 0.89346
 C455 C 0.38124 1.09252 0.90703
 H456 H 0.29290 1.06867 0.86676
 H457 H 0.23571 1.09637 0.83931
 H458 H 0.28211 1.20795 0.85591
 H459 H 0.33881 1.17994 0.88394
 C460 C 0.31922 0.87762 1.12203
 C461 C 0.31611 0.87417 1.16123
 C462 C 0.28364 0.85850 1.17725
 C463 C 0.25381 0.84607 1.15422
 C464 C 0.25723 0.84963 1.11483
 C465 C 0.28972 0.86534 1.09886
 C466 C 0.35269 0.89374 1.10561
 C467 C 0.38075 0.90728 1.09195
 H468 H 0.33883 0.88348 1.17941
 H469 H 0.28208 0.85561 1.20762
 H470 H 0.23457 0.84067 1.09641
 H471 H 0.29181 0.86795 1.06848
 C472 C 0.68038 1.12251 1.12257
 C473 C 0.68329 1.16171 1.12647
 C474 C 0.71559 1.17767 1.14247
 C475 C 0.74542 1.15459 1.15483
 C476 C 0.74227 1.11520 1.15070
 C477 C 0.70994 1.09930 1.13467
 C478 C 0.64705 1.10613 1.10621
 C479 C 0.61909 1.09247 1.09252
 H480 H 0.66054 1.17992 1.11726
 H481 H 0.71706 1.20804 1.14565
 H482 H 0.76499 1.09675 1.15946
 H483 H 0.70803 1.06892 1.13167
 C484 C 0.68101 0.87746 0.87738
 C485 C 0.68427 0.83824 0.87412
 C486 C 0.71669 0.82232 0.85830
 C487 C 0.74633 0.84547 0.84550
 C488 C 0.74277 0.88489 0.84889
 C489 C 0.71032 0.90075 0.86475
 C490 C 0.64758 0.89379 0.89363
 C491 C 0.61954 0.90741 0.90722
 H492 H 0.66170 0.81996 0.88371
 H493 H 0.71840 0.79192 0.85563
 H494 H 0.76529 0.90341 0.83970
 H495 H 0.70812 0.93116 0.86722
   
