data_POSCAR
  _audit_creation_date              2014-09-24
  _audit_creation_method            'ToBaCCo'
  _symmetry_space_group_name_H-M    'P1'
  _symmetry_Int_Tables_number       1
  _symmetry_cell_setting            triclinic
  loop_
  _symmetry_equiv_pos_as_xyz
 x,y,z
_cell_length_a 48.7014
_cell_length_b 48.6603
_cell_length_c 17.3781
_cell_angle_alpha 89.957700
_cell_angle_beta 90.028700
_cell_angle_gamma 119.982000
loop_
  _atom_site_label
  _atom_site_type_symbol
  _atom_site_fract_x
  _atom_site_fract_y
  _atom_site_fract_z
O1 O 0.20912 0.47079 0.42613
 O2 O 0.26333 0.47143 0.57475
 O3 O 0.20940 0.47075 0.57574
 O4 O 0.26299 0.47145 0.42579
 O5 O 0.28873 0.52378 0.42570
 O6 O 0.23507 0.52307 0.57590
 O7 O 0.28909 0.52370 0.57474
 O8 O 0.23475 0.52311 0.42610
 Cu9 Cu 0.23360 0.46588 0.50063
 Cu10 Cu 0.26442 0.52866 0.50065
 C11 C 0.21253 0.49683 0.40090
 C12 C 0.28584 0.49764 0.59952
 C13 C 0.21290 0.49678 0.60116
 C14 C 0.28529 0.49770 0.40074
 O15 O 0.52909 -0.20869 0.57689
 O16 O 0.52853 -0.26285 0.42825
 O17 O 0.52916 -0.20896 0.42727
 O18 O 0.52856 -0.26260 0.57721
 O19 O 0.47633 -0.28844 0.57719
 O20 O 0.47689 -0.23466 0.42717
 O21 O 0.47625 -0.28866 0.42813
 O22 O 0.47687 -0.23439 0.57698
 Cu23 Cu 0.53405 -0.23315 0.50246
 Cu24 Cu 0.47135 -0.26405 0.50242
 C25 C 0.50309 -0.21204 0.60217
 C26 C 0.50232 -0.28527 0.40338
 C27 C 0.50314 -0.21250 0.40177
 C28 C 0.50238 -0.28507 0.60215
 O29 O 1.20812 0.73881 0.57253
 O30 O 1.26193 0.79259 0.42358
 O31 O 1.20838 0.73904 0.42305
 O32 O 1.26167 0.79228 0.57309
 O33 O 1.28779 0.76608 0.57322
 O34 O 1.23446 0.71280 0.42299
 O35 O 1.28808 0.76647 0.42360
 O36 O 1.23415 0.71252 0.57261
 Cu37 Cu 1.23242 0.76830 0.49803
 Cu38 Cu 1.26374 0.73684 0.49808
 C39 C 1.21177 0.71633 0.59778
 C40 C 1.28443 0.78898 0.39833
 C41 C 1.21213 0.71665 0.39770
 C42 C 1.28398 0.78844 0.59855
 O43 O 0.73743 0.52929 0.57460
 O44 O 0.79113 0.52873 0.42634
 O45 O 0.73792 0.52937 0.42500
 O46 O 0.79077 0.52878 0.57529
 O47 O 0.76431 0.47645 0.57541
 O48 O 0.71134 0.47705 0.42493
 O49 O 0.76465 0.47640 0.42633
 O50 O 0.71087 0.47702 0.57470
 Cu51 Cu 0.76691 0.53427 0.50035
 Cu52 Cu 0.73507 0.47148 0.50040
 C53 C 0.71474 0.50327 0.59981
 C54 C 0.78735 0.50249 0.40160
 C55 C 0.71548 0.50334 0.39946
 C56 C 0.78691 0.50254 0.60029
 O57 O 0.47084 0.26182 0.42651
 O58 O 0.47129 0.20805 0.57508
 O59 O 0.47064 0.26134 0.57611
 O60 O 0.47130 0.20845 0.42611
 O61 O 0.52358 0.23490 0.42627
 O62 O 0.52292 0.28790 0.57650
 O63 O 0.52352 0.23447 0.57534
 O64 O 0.52311 0.28837 0.42671
 Cu65 Cu 0.46579 0.23231 0.50094
 Cu66 Cu 0.52852 0.26412 0.50125
 C67 C 0.49689 0.28442 0.40143
 C68 C 0.49745 0.21169 0.60003
 C69 C 0.49664 0.28381 0.60167
 C70 C 0.49752 0.21233 0.40119
 O71 O 0.73707 0.20965 0.42695
 O72 O 0.79098 0.26356 0.57539
 O73 O 0.73736 0.20990 0.57600
 O74 O 0.79067 0.26324 0.42632
 O75 O 0.76461 0.28950 0.42615
 O76 O 0.71119 0.23605 0.57609
 O77 O 0.76497 0.28982 0.57537
 O78 O 0.71089 0.23578 0.42685
 Cu79 Cu 0.76663 0.23397 0.50120
 Cu80 Cu 0.73529 0.26542 0.50115
 C81 C 0.71451 0.21322 0.40211
 C82 C 0.78757 0.28625 0.60019
 C83 C 0.71487 0.21354 0.60095
 C84 C 0.78703 0.28574 0.40123
 O85 O 0.95622 0.52532 -0.14324
 O86 O 0.92104 0.48356 -0.06839
 C87 C 0.92777 0.50411 -0.12290
 O88 O 1.04481 0.47292 -0.13659
 O89 O 1.07990 0.51642 -0.06617
 C90 C 1.07325 0.49447 -0.11690
 O91 O 0.95604 0.43081 -0.14352
 O92 O 0.92096 0.43768 -0.06911
 C93 C 0.92761 0.42377 -0.12354
 O94 O 1.04466 0.57227 -0.13588
 O95 O 1.07975 0.56372 -0.06589
 C96 C 1.07311 0.57911 -0.11651
 Zr97 Zr 1.00036 0.53529 -0.09629
 O98 O 1.00115 0.54031 -0.21727
 O99 O 0.99928 0.57784 -0.08170
 Zr100 Zr 1.00031 0.46565 -0.09829
 O101 O 1.00330 0.46688 -0.21989
 O102 O 0.99689 0.42052 -0.09624
 O103 O 0.97223 0.48646 -0.11256
 O104 O 1.02777 0.51420 -0.11174
 O105 O 1.04469 0.57204 0.13488
 O106 O 1.07971 0.56348 0.06471
 C107 C 1.07310 0.57887 0.11528
 O108 O 0.95631 0.43128 0.14281
 O109 O 0.92107 0.43749 0.06728
 C110 C 0.92784 0.42388 0.12223
 O111 O 1.04488 0.47285 0.13511
 O112 O 1.07990 0.51608 0.06396
 C113 C 1.07331 0.49430 0.11520
 O114 O 0.95613 0.52542 0.14164
 O115 O 0.92100 0.48328 0.06781
 C116 C 0.92769 0.50396 0.12196
 Zr117 Zr 1.00038 0.53466 0.09671
 O118 O 1.00355 0.53649 0.21832
 O119 O 0.99734 0.57658 0.09448
 Zr120 Zr 1.00040 0.46498 0.09483
 O121 O 1.00230 0.46124 0.21561
 O122 O 0.99689 0.41996 0.08366
 Zr123 Zr 0.95280 0.47637 -0.00063
 Zr124 Zr 1.04776 0.52380 -0.00081
 O125 O 1.02777 0.51350 0.11021
 O126 O 0.97231 0.48575 0.11127
 O127 O 1.02895 0.55454 0.00016
 O128 O 0.97240 0.44640 -0.00167
 O129 O 0.97239 0.52594 0.00017
 O130 O 1.02893 0.47422 -0.00182
 H131 H 1.04187 0.52129 -0.15730
 H132 H 0.95776 0.42315 -0.00175
 H133 H 1.04180 0.52054 0.15593
 H134 H 0.95786 0.53468 0.00024
 H135 H 1.01550 0.42272 -0.06787
 H136 H 1.01780 0.42341 0.06692
 H137 H 1.00211 0.47985 0.23759
 H138 H 0.98618 0.51616 0.23842
 H139 H 1.01474 0.59211 0.06140
 H140 H 0.99859 0.58541 -0.13420
 H141 H 1.00577 0.52436 -0.23921
 H142 H 0.98667 0.47107 -0.23960
 O143 O 0.43111 0.47502 0.14174
 O144 O 0.43789 0.51700 0.06735
 C145 C 0.42404 0.49641 0.12175
 O146 O 0.57231 0.52751 0.13374
 O147 O 0.56401 0.48417 0.06297
 C148 C 0.57927 0.50603 0.11384
 O149 O 0.52518 0.56896 0.14224
 O150 O 0.48364 0.56273 0.06706
 C151 C 0.50404 0.57633 0.12197
 O152 O 0.47314 0.42842 0.13548
 O153 O 0.51672 0.43696 0.06532
 C154 C 0.49481 0.42164 0.11619
 Zr155 Zr 0.46596 0.46560 0.09649
 O156 O 0.46602 0.46284 0.21810
 O157 O 0.42209 0.42294 0.08777
 Zr158 Zr 0.53560 0.53530 0.09396
 O159 O 0.54142 0.53891 0.21468
 O160 O 0.57700 0.58035 0.08251
 O161 O 0.48679 0.51452 0.11072
 O162 O 0.51450 0.48681 0.10971
 O163 O 0.47252 0.42776 -0.13521
 O164 O 0.51623 0.43640 -0.06547
 C165 C 0.49414 0.42093 -0.11574
 O166 O 0.52523 0.56945 -0.14383
 O167 O 0.48332 0.56257 -0.06932
 C168 C 0.50388 0.57652 -0.12367
 O169 O 0.57169 0.52716 -0.13831
 O170 O 0.56343 0.48375 -0.06762
 C171 C 0.57860 0.50559 -0.11877
 O172 O 0.43119 0.47504 -0.14405
 O173 O 0.43760 0.51671 -0.06910
 C174 C 0.42388 0.49624 -0.12380
 Zr175 Zr 0.46503 0.46477 -0.09624
 O176 O 0.46155 0.45917 -0.21702
 O177 O 0.42019 0.42310 -0.08536
 Zr178 Zr 0.53462 0.53447 -0.09909
 O179 O 0.53644 0.53323 -0.22072
 O180 O 0.57632 0.57956 -0.09707
 Zr181 Zr 0.47652 0.52385 -0.00111
 Zr182 Zr 0.52406 0.47636 -0.00125
 O183 O 0.51346 0.48588 -0.11221
 O184 O 0.48572 0.51363 -0.11308
 O185 O 0.47459 0.44562 0.00031
 O186 O 0.52605 0.55380 -0.00250
 O187 O 0.44655 0.47430 0.00024
 O188 O 0.55478 0.52594 -0.00275
 H189 H 0.52154 0.47991 0.15562
 H190 H 0.53464 0.57706 -0.00253
 H191 H 0.52028 0.47872 -0.15800
 H192 H 0.42331 0.46566 0.00033
 H193 H 0.59443 0.57693 0.06531
 H194 H 0.59281 0.57724 -0.06944
 H195 H 0.51619 0.53048 -0.24081
 H196 H 0.47935 0.47864 -0.23903
 H197 H 0.42344 0.40694 -0.05882
 H198 H 0.41504 0.41595 0.14129
 H199 H 0.47047 0.48366 0.23846
 H200 H 0.52196 0.52116 0.23683
 O201 O 0.47469 0.04357 0.14247
 O202 O 0.51644 0.07880 0.06769
 C203 C 0.49592 0.07205 0.12221
 O204 O 0.52704 -0.04501 0.13629
 O205 O 0.48364 -0.08008 0.06569
 C206 C 0.50552 -0.07346 0.11658
 O207 O 0.56904 0.04366 0.14283
 O208 O 0.56223 0.07882 0.06839
 C209 C 0.57611 0.07213 0.12287
 O210 O 0.42764 -0.04496 0.13491
 O211 O 0.43601 -0.08011 0.06466
 C212 C 0.42071 -0.07344 0.11538
 Zr213 Zr 0.46464 -0.00060 0.09545
 O214 O 0.45961 -0.00144 0.21643
 O215 O 0.42218 0.00058 0.08080
 Zr216 Zr 0.53421 -0.00061 0.09753
 O217 O 0.53300 -0.00360 0.21914
 O218 O 0.57928 0.00277 0.09530
 O219 O 0.51345 0.02752 0.11178
 O220 O 0.48567 -0.02808 0.11097
 O221 O 0.42798 -0.04486 -0.13579
 O222 O 0.43661 -0.08001 -0.06614
 C223 C 0.42121 -0.07333 -0.11655
 O224 O 0.56859 0.04348 -0.14342
 O225 O 0.56242 0.07876 -0.06793
 C226 C 0.57602 0.07199 -0.12281
 O227 O 0.52692 -0.04520 -0.13571
 O228 O 0.48371 -0.08024 -0.06459
 C229 C 0.50547 -0.07366 -0.11579
 O230 O 0.47455 0.04380 -0.14240
 O231 O 0.51668 0.07890 -0.06854
 C232 C 0.49601 0.07225 -0.12269
 Zr233 Zr 0.46531 -0.00050 -0.09752
 O234 O 0.46346 -0.00363 -0.21914
 O235 O 0.42345 0.00257 -0.09543
 Zr236 Zr 0.53485 -0.00065 -0.09554
 O237 O 0.53849 -0.00260 -0.21632
 O238 O 0.57980 0.00279 -0.08438
 Zr239 Zr 0.52355 0.04701 -0.00011
 Zr240 Zr 0.47601 -0.04806 0.00006
 O241 O 0.48638 -0.02797 -0.11095
 O242 O 0.51417 0.02754 -0.11204
 O243 O 0.44538 -0.02916 -0.00104
 O244 O 0.55345 0.02734 0.00094
 O245 O 0.47404 0.02746 -0.00097
 O246 O 0.52556 -0.02926 0.00110
 H247 H 0.47855 -0.04222 0.15649
 H248 H 0.57669 0.04197 0.00106
 H249 H 0.47939 -0.04194 -0.15676
 H250 H 0.46533 0.04202 -0.00105
 H251 H 0.57703 -0.01590 0.06706
 H252 H 0.57634 -0.01815 -0.06761
 H253 H 0.52021 -0.00181 -0.23832
 H254 H 0.48372 0.01381 -0.23926
 H255 H 0.40791 -0.01488 -0.06245
 H256 H 0.41461 0.00124 0.13329
 H257 H 0.47550 -0.00615 0.23840
 H258 H 0.52876 0.01301 0.23878
 C259 C 1.14488 0.49567 0.24014
 C260 C 1.14253 0.46718 0.26466
 C261 C 1.16494 0.46755 0.31565
 C262 C 1.19000 0.49649 0.34302
 C263 C 1.19253 0.52504 0.31674
 C264 C 1.17008 0.52460 0.26574
 C265 C 1.12035 0.49516 0.19282
 C266 C 1.09919 0.49472 0.15576
 H267 H 1.12303 0.44464 0.24556
 H268 H 1.16229 0.44516 0.33471
 H269 H 1.21151 0.54772 0.33668
 H270 H 1.17203 0.54680 0.24749
 C271 C 0.50228 0.64618 0.24770
 C272 C 0.53094 0.67238 0.27091
 C273 C 0.53094 0.69511 0.32006
 C274 C 0.50222 0.69191 0.34683
 C275 C 0.47349 0.66583 0.32183
 C276 C 0.47355 0.64310 0.27267
 C277 C 0.50250 0.62177 0.20137
 C278 C 0.50304 0.60112 0.16424
 H279 H 0.55332 0.67495 0.25211
 H280 H 0.55346 0.71486 0.33819
 H281 H 0.45097 0.66264 0.34143
 H282 H 0.45122 0.62286 0.25525
 C283 C 0.35017 -0.14481 0.24007
 C284 C 0.35345 -0.17032 0.26536
 C285 C 0.33136 -0.19265 0.31644
 C286 C 0.30563 -0.18971 0.34345
 C287 C 0.30223 -0.16427 0.31600
 C288 C 0.32436 -0.14202 0.26491
 C289 C 0.37432 -0.12039 0.19274
 C290 C 0.39514 -0.09929 0.15575
 H291 H 0.37345 -0.17262 0.24679
 H292 H 0.33487 -0.21184 0.33581
 H293 H 0.28280 -0.16111 0.33497
 H294 H 0.32166 -0.12228 0.24598
 C295 C 0.85596 0.50239 0.24649
 C296 C 0.85838 0.53109 0.26940
 C297 C 0.83563 0.53111 0.31836
 C298 C 0.81011 0.50237 0.34523
 C299 C 0.80749 0.47360 0.32051
 C300 C 0.83031 0.47365 0.27155
 C301 C 0.88063 0.50258 0.20047
 C302 C 0.90185 0.50307 0.16368
 H303 H 0.87818 0.55347 0.25055
 H304 H 0.83836 0.55365 0.33628
 H305 H 0.78818 0.45108 0.34020
 H306 H 0.82826 0.45130 0.25438
 C307 C 0.49601 0.35124 0.24099
 C308 C 0.52487 0.35478 0.26654
 C309 C 0.52522 0.33266 0.31741
 C310 C 0.49665 0.30672 0.34363
 C311 C 0.46777 0.30302 0.31630
 C312 C 0.46749 0.32516 0.26543
 C313 C 0.49560 0.37537 0.19376
 C314 C 0.49522 0.39615 0.15676
 H315 H 0.54709 0.37498 0.24833
 H316 H 0.54784 0.33622 0.33731
 H317 H 0.44536 0.28334 0.33531
 H318 H 0.44501 0.32227 0.24637
 C319 C 0.64609 0.14416 0.24722
 C320 C 0.67245 0.14196 0.27033
 C321 C 0.69515 0.16488 0.31916
 C322 C 0.69175 0.19034 0.34571
 C323 C 0.66552 0.19274 0.32077
 C324 C 0.64283 0.16976 0.27194
 C325 C 0.62169 0.11934 0.20134
 C326 C 0.60101 0.09802 0.16462
 H327 H 0.67516 0.12220 0.25174
 H328 H 0.71502 0.16230 0.33727
 H329 H 0.66218 0.21200 0.34022
 H330 H 0.62246 0.17164 0.25460
 C331 C 0.49751 0.14409 -0.24715
 C332 C 0.52621 0.16999 -0.27133
 C333 C 0.52628 0.19283 -0.32039
 C334 C 0.49753 0.19001 -0.34645
 C335 C 0.46879 0.16418 -0.32003
 C336 C 0.46885 0.14144 -0.27095
 C337 C 0.49736 0.11940 -0.20111
 C338 C 0.49689 0.09814 -0.16435
 H339 H 0.54855 0.17223 -0.25337
 H340 H 0.54890 0.21230 -0.33906
 H341 H 0.44616 0.16110 -0.33834
 H342 H 0.44649 0.12145 -0.25267
 C343 C 0.64896 0.50433 -0.24318
 C344 C 0.64551 0.47543 -0.26809
 C345 C 0.66762 0.47500 -0.31871
 C346 C 0.69354 0.50358 -0.34563
 C347 C 0.69712 0.53252 -0.31854
 C348 C 0.67496 0.53283 -0.26791
 C349 C 0.62483 0.50478 -0.19618
 C350 C 0.60406 0.50519 -0.15932
 H351 H 0.62538 0.45321 -0.24957
 H352 H 0.66398 0.45223 -0.33781
 H353 H 0.71670 0.55503 -0.33746
 H354 H 0.67780 0.55535 -0.24923
 C355 C 0.85556 0.35367 -0.24764
 C356 C 0.82981 0.35675 -0.27175
 C357 C 0.80682 0.33404 -0.32055
 C358 C 0.80935 0.30790 -0.34640
 C359 C 0.83502 0.30471 -0.32001
 C360 C 0.85791 0.32745 -0.27120
 C361 C 0.88038 0.37812 -0.20184
 C362 C 0.90171 0.39884 -0.16520
 H363 H 0.82780 0.37700 -0.25395
 H364 H 0.78748 0.33741 -0.33921
 H365 H 0.83788 0.28500 -0.33818
 H366 H 0.87778 0.32486 -0.25296
 C367 C 0.50415 -0.14533 -0.24026
 C368 C 0.47528 -0.17073 -0.26532
 C369 C 0.47484 -0.19324 -0.31612
 C370 C 0.50340 -0.19058 -0.34310
 C371 C 0.53232 -0.16526 -0.31587
 C372 C 0.53263 -0.14284 -0.26505
 C373 C 0.50462 -0.12076 -0.19313
 C374 C 0.50505 -0.09957 -0.15623
 H375 H 0.45308 -0.17281 -0.24677
 H376 H 0.45209 -0.21232 -0.33534
 H377 H 0.55481 -0.16233 -0.33483
 H378 H 0.55513 -0.12320 -0.24628
 C379 C 0.35365 0.49779 -0.24832
 C380 C 0.35641 0.52650 -0.27245
 C381 C 0.33357 0.52654 -0.32127
 C382 C 0.30763 0.49775 -0.34710
 C383 C 0.30476 0.46901 -0.32067
 C384 C 0.32762 0.46909 -0.27184
 C385 C 0.37821 0.49765 -0.20246
 C386 C 0.39897 0.49717 -0.16571
 H387 H 0.37651 0.54887 -0.25466
 H388 H 0.33669 0.54917 -0.33995
 H389 H 0.28520 0.44634 -0.33880
 H390 H 0.32527 0.44672 -0.25355
 C391 C 1.14449 0.64958 -0.24126
 C392 C 1.14193 0.67561 -0.26572
 C393 C 1.16422 0.69772 -0.31679
 C394 C 1.18937 0.69404 -0.34430
 C395 C 1.19213 0.66815 -0.31805
 C396 C 1.16979 0.64605 -0.26699
 C397 C 1.12005 0.62545 -0.19394
 C398 C 1.09895 0.60465 -0.15694
 H399 H 1.12235 0.67849 -0.24653
 H400 H 1.16140 0.71737 -0.33578
 H401 H 1.21119 0.66461 -0.33809
 H402 H 1.17191 0.62589 -0.24879
 C403 C 0.85572 0.50256 -0.24552
 C404 C 0.85802 0.53124 -0.26810
 C405 C 0.83511 0.53122 -0.31653
 C406 C 0.80958 0.50245 -0.34315
 C407 C 0.80704 0.47370 -0.31854
 C408 C 0.83002 0.47379 -0.27010
 C409 C 0.88058 0.50280 -0.20041
 C410 C 0.90193 0.50329 -0.16426
 H411 H 0.87788 0.55364 -0.24952
 H412 H 0.83778 0.55375 -0.33441
 H413 H 0.78771 0.45116 -0.33809
 H414 H 0.82808 0.45146 -0.25310
 C415 C 0.49533 0.35022 -0.23817
 C416 C 0.46688 0.32408 -0.26256
 C417 C 0.46731 0.30200 -0.31319
 C418 C 0.49626 0.30586 -0.34027
 C419 C 0.52477 0.33182 -0.31391
 C420 C 0.52427 0.35388 -0.26328
 C421 C 0.49478 0.37439 -0.19176
 C422 C 0.49438 0.39528 -0.15549
 H423 H 0.44435 0.32113 -0.24380
 H424 H 0.44495 0.28228 -0.33234
 H425 H 0.54744 0.33549 -0.33368
 H426 H 0.54643 0.37416 -0.24508
 C427 C 0.64629 0.14425 -0.24542
 C428 C 0.67271 0.14210 -0.26812
 C429 C 0.69554 0.16518 -0.31634
 C430 C 0.69219 0.19071 -0.34263
 C431 C 0.66594 0.19309 -0.31789
 C432 C 0.64312 0.16995 -0.26965
 C433 C 0.62174 0.11925 -0.20046
 C434 C 0.60095 0.09784 -0.16433
 H435 H 0.67533 0.12225 -0.24979
 H436 H 0.71543 0.16263 -0.33435
 H437 H 0.66265 0.21242 -0.33718
 H438 H 0.62269 0.17178 -0.25252
 C439 C 1.14511 0.49556 -0.23914
 C440 C 1.14277 0.46706 -0.26345
 C441 C 1.16530 0.46745 -0.31390
 C442 C 1.19046 0.49642 -0.34089
 C443 C 1.19304 0.52497 -0.31459
 C444 C 1.17046 0.52451 -0.26414
 C445 C 1.12040 0.49507 -0.19288
 C446 C 1.09912 0.49470 -0.15669
 H447 H 1.12314 0.44453 -0.24475
 H448 H 1.16262 0.44507 -0.33301
 H449 H 1.21210 0.54765 -0.33427
 H450 H 1.17240 0.54671 -0.24598
 C451 C 0.50235 0.64719 -0.24593
 C452 C 0.53100 0.67332 -0.26918
 C453 C 0.53105 0.69622 -0.31778
 C454 C 0.50230 0.69325 -0.34423
 C455 C 0.47355 0.66725 -0.31847
 C456 C 0.47363 0.64438 -0.26989
 C457 C 0.50253 0.62250 -0.20083
 C458 C 0.50302 0.60160 -0.16477
 H459 H 0.55337 0.67568 -0.25098
 H460 H 0.55368 0.71585 -0.33584
 H461 H 0.45092 0.66409 -0.33718
 H462 H 0.45130 0.62417 -0.25227
 C463 C 0.35053 -0.14468 -0.24015
 C464 C 0.32462 -0.14195 -0.26456
 C465 C 0.30251 -0.16416 -0.31565
 C466 C 0.30612 -0.18937 -0.34318
 C467 C 0.33185 -0.19233 -0.31685
 C468 C 0.35394 -0.17007 -0.26576
 C469 C 0.37473 -0.12025 -0.19322
 C470 C 0.39561 -0.09914 -0.15659
 H471 H 0.32187 -0.12227 -0.24540
 H472 H 0.28297 -0.16121 -0.33476
 H473 H 0.33531 -0.21145 -0.33694
 H474 H 0.37403 -0.17228 -0.24755
 C475 C 0.50431 -0.14514 0.24031
 C476 C 0.53278 -0.14275 0.26484
 C477 C 0.53241 -0.16512 0.31597
 C478 C 0.50348 -0.19016 0.34342
 C479 C 0.47494 -0.19278 0.31697
 C480 C 0.47539 -0.17036 0.26584
 C481 C 0.50481 -0.12056 0.19334
 C482 C 0.50521 -0.09934 0.15669
 H483 H 0.55530 -0.12322 0.24575
 H484 H 0.55478 -0.16243 0.33517
 H485 H 0.45229 -0.21175 0.33700
 H486 H 0.45321 -0.17232 0.24754
 C487 C 0.35374 0.49789 0.24519
 C488 C 0.35677 0.52663 0.27006
 C489 C 0.33401 0.52664 0.31903
 C490 C 0.30797 0.49786 0.34390
 C491 C 0.30477 0.46912 0.31704
 C492 C 0.32754 0.46918 0.26808
 C493 C 0.37828 0.49773 0.19960
 C494 C 0.39907 0.49727 0.16318
 H495 H 0.37704 0.54899 0.25285
 H496 H 0.33719 0.54916 0.33874
 H497 H 0.28503 0.44657 0.33510
 H498 H 0.32503 0.44680 0.24931
 C499 C 1.14478 0.64980 0.23763
 C500 C 1.17016 0.64635 0.26310
 C501 C 1.19258 0.66855 0.31371
 C502 C 1.18981 0.69444 0.33971
 C503 C 1.16462 0.69809 0.31228
 C504 C 1.14225 0.67588 0.26166
 C505 C 1.12019 0.62551 0.19121
 C506 C 1.09898 0.60455 0.15498
 H507 H 1.17222 0.62614 0.24518
 H508 H 1.21167 0.66504 0.33374
 H509 H 1.16181 0.71775 0.33114
 H510 H 1.12259 0.67867 0.24261
 C511 C 0.49755 0.14393 0.24574
 C512 C 0.46889 0.14154 0.26849
 C513 C 0.46889 0.16430 0.31741
 C514 C 0.49763 0.18976 0.34436
 C515 C 0.52637 0.19239 0.31961
 C516 C 0.52629 0.16956 0.27068
 C517 C 0.49732 0.11917 0.20019
 C518 C 0.49681 0.09788 0.16375
 H519 H 0.44651 0.12172 0.24967
 H520 H 0.44638 0.16157 0.33538
 H521 H 0.54888 0.21168 0.33938
 H522 H 0.54861 0.17156 0.25355
 C523 C 0.64954 0.50464 0.23766
 C524 C 0.64575 0.47567 0.26332
 C525 C 0.66764 0.47517 0.31456
 C526 C 0.69356 0.50371 0.34098
 C527 C 0.69755 0.53268 0.31339
 C528 C 0.67564 0.53311 0.26215
 C529 C 0.62554 0.50521 0.19063
 C530 C 0.60478 0.50567 0.15394
 H531 H 0.62550 0.45349 0.24506
 H532 H 0.66388 0.45248 0.33471
 H533 H 0.71723 0.55506 0.33256
 H534 H 0.67868 0.55566 0.24299
 C535 C 0.85586 0.35392 0.24607
 C536 C 0.85802 0.32751 0.26904
 C537 C 0.83511 0.30482 0.31786
 C538 C 0.80974 0.30833 0.34447
 C539 C 0.80735 0.33458 0.31951
 C540 C 0.83032 0.35725 0.27068
 C541 C 0.88071 0.37833 0.20053
 C542 C 0.90203 0.39903 0.16401
 H543 H 0.87775 0.32476 0.25045
 H544 H 0.83766 0.28492 0.33601
 H545 H 0.78815 0.33798 0.33903
 H546 H 0.82850 0.37768 0.25337
   
