data_POSCAR
  _audit_creation_date              2014-09-24
  _audit_creation_method            'ToBaCCo'
  _symmetry_space_group_name_H-M    'P1'
  _symmetry_Int_Tables_number       1
  _symmetry_cell_setting            triclinic
  loop_
  _symmetry_equiv_pos_as_xyz
 x,y,z
_cell_length_a 17.3131
_cell_length_b 17.3867
_cell_length_c 41.3677
_cell_angle_alpha 82.773900
_cell_angle_beta 93.657300
_cell_angle_gamma 120.218400
loop_
  _atom_site_label
  _atom_site_type_symbol
  _atom_site_fract_x
  _atom_site_fract_y
  _atom_site_fract_z
C1 C 0.02024 0.15900 0.53942
 H2 H 0.08156 0.15770 0.53739
 C3 C 0.01759 0.21699 0.55902
 H4 H 0.07682 0.26016 0.57231
 C5 C -0.13177 0.10406 0.52440
 H6 H -0.18923 0.06019 0.51062
 C7 C -0.13737 0.16143 0.54394
 H8 H -0.19963 0.16135 0.54549
 N9 N -0.05367 0.10373 0.52279
 C10 C -0.00346 -0.11177 0.51048
 H11 H 0.00466 -0.10462 0.48436
 C12 C -0.00802 -0.18626 0.52964
 H13 H -0.00130 -0.23560 0.51840
 C14 C -0.02817 -0.05975 0.55695
 H15 H -0.03985 -0.01269 0.56742
 C16 C -0.03296 -0.13287 0.57691
 H17 H -0.04587 -0.14030 0.60273
 Zn18 Zn -0.03316 0.03396 0.49689
 N19 N -0.01454 -0.05093 0.52432
 C20 C 0.14408 0.11426 0.47041
 N21 N 0.06710 0.11709 0.47111
 C22 C 0.05863 0.18471 0.45407
 C23 C 0.12870 0.25256 0.43490
 C24 C 0.21615 0.18114 0.45141
 C25 C -0.20479 -0.10534 0.48346
 C26 C -0.26676 -0.17132 0.46452
 C27 C -0.17549 -0.08633 0.41708
 C28 C -0.11527 -0.02249 0.43687
 N29 N -0.12976 -0.03392 0.46952
 H30 H 0.14967 0.06063 0.48459
 H31 H -0.00306 0.18567 0.45547
 H32 H 0.12092 0.30567 0.42126
 H33 H 0.27723 0.17856 0.45066
 H34 H -0.21337 -0.11416 0.50960
 H35 H -0.32424 -0.22992 0.47611
 H36 H -0.16105 -0.07794 0.39133
 H37 H -0.05420 0.03289 0.42631
 C38 C -0.02450 -0.19754 0.56308
 C39 C -0.06172 0.21832 0.56137
 C40 C -0.25059 -0.16276 0.43113
 C41 C 0.20812 0.25082 0.43352
 C42 C 1.21306 0.09525 0.12411
 H43 H 1.21460 0.15801 0.12481
 C44 C 1.27421 0.09187 0.10488
 H45 H 1.32277 0.15198 0.09055
 C46 C 1.14731 -0.05993 0.14193
 H47 H 1.09788 -0.11847 0.15656
 C48 C 1.20752 -0.06630 0.12289
 H49 H 1.20405 -0.13018 0.12262
 N50 N 1.15080 0.02003 0.14186
 C51 C 0.93086 0.06781 0.15190
 H52 H 0.93058 0.07041 0.17788
 C53 C 0.85895 0.06217 0.13275
 H54 H 0.80416 0.06256 0.14385
 C55 C 0.99829 0.05594 0.10604
 H56 H 1.05014 0.04902 0.09591
 C57 C 0.92804 0.05047 0.08608
 H58 H 0.92750 0.04168 0.06058
 Zn59 Zn 1.07475 0.03810 0.16668
 N60 N 0.99766 0.06269 0.13844
 C61 C 1.14764 0.20884 0.19150
 N62 N 1.15111 0.13241 0.19147
 C63 C 1.21345 0.11950 0.20915
 C64 C 1.27469 0.18406 0.22842
 C65 C 1.20794 0.27544 0.21059
 C66 C 0.93075 -0.13568 0.18157
 C67 C 0.85895 -0.20194 0.20078
 C68 C 0.92863 -0.12078 0.24739
 C69 C 0.99875 -0.05603 0.22738
 N70 N 0.99778 -0.06358 0.19497
 H71 H 1.09813 0.21791 0.17693
 H72 H 1.21495 0.05830 0.20838
 H73 H 1.32329 0.17253 0.24271
 H74 H 1.20447 0.33581 0.21096
 H75 H 0.93020 -0.13870 0.15559
 H76 H 0.80398 -0.25724 0.18972
 H77 H 0.92836 -0.11239 0.27289
 H78 H 1.05077 0.00286 0.23746
 C79 C 0.85664 0.05120 0.09970
 C80 C 1.27133 0.01043 0.10416
 C81 C 0.85700 -0.19307 0.23383
 C82 C 1.27180 0.26255 0.22926
 C83 C 0.05804 0.87287 0.87913
 H84 H -0.00357 0.81004 0.87765
 C85 C 0.12800 0.87530 0.89841
 H86 H 0.12024 0.81438 0.91204
 C87 C 0.14334 1.02903 0.86294
 H88 H 0.14892 1.08828 0.84878
 C89 C 0.21531 1.03444 0.88205
 H90 H 0.27629 1.09827 0.88291
 N91 N 0.06647 0.94899 0.86212
 C92 C -0.20528 0.89915 0.84954
 H93 H -0.21377 0.89951 0.82339
 C94 C -0.26715 0.90321 0.86844
 H95 H -0.32449 0.90452 0.85688
 C96 C -0.11600 0.90561 0.89621
 H97 H -0.05503 0.91125 0.90682
 C98 C -0.17617 0.90926 0.91594
 H99 H -0.16194 0.91532 0.94169
 Zn100 Zn -0.03370 0.93164 0.83625
 N101 N -0.13038 0.90266 0.86353
 C102 C -0.13219 0.76279 0.80864
 N103 N -0.05409 0.84136 0.81033
 C104 C 0.01988 0.86018 0.79377
 C105 C 0.01730 0.79957 0.77417
 C106 C -0.13773 0.69984 0.78910
 C107 C -0.00404 1.10712 0.82268
 C108 C -0.00855 1.17707 0.80351
 C109 C -0.03321 1.09881 0.75622
 C110 C -0.02848 1.03045 0.77619
 N111 N -0.01501 1.03523 0.80883
 H112 H -0.18970 0.74907 0.82237
 H113 H 0.08119 0.92291 0.79585
 H114 H 0.07657 0.81576 0.76094
 H115 H -0.19998 0.63755 0.78750
 H116 H 0.00394 1.10805 0.84880
 H117 H -0.00193 1.23309 0.81476
 H118 H -0.04599 1.09336 0.73039
 H119 H -0.04007 0.97173 0.76570
 C120 C -0.25104 0.91073 0.90183
 C121 C 0.20728 0.95669 0.89992
 C122 C -0.02487 1.17190 0.77006
 C123 C -0.06201 0.71877 0.77174
 O124 O 0.49211 0.06227 0.02474
 O125 O 0.61811 0.03190 -0.03681
 O126 O 0.47522 0.04712 -0.03724
 O127 O 0.64937 0.07533 0.02271
 O128 O 0.57915 -0.07046 0.03776
 O129 O 0.40111 -0.09876 -0.02234
 O130 O 0.54456 -0.11388 -0.02179
 O131 O 0.42223 -0.08365 0.03961
 Cu132 Cu 0.56598 0.06851 -0.00808
 Cu133 Cu 0.47987 -0.10607 0.00971
 C134 C 0.43490 -0.00651 0.04233
 C135 C 0.60224 -0.04691 -0.03950
 C136 C 0.40815 -0.02961 -0.03967
 C137 C 0.64462 0.00804 0.04023
 O138 O 0.01294 0.57222 0.69823
 O139 O 0.01303 0.43988 0.63494
 O140 O 0.02758 0.59696 0.63515
 O141 O 0.02747 0.42971 0.69804
 O142 O -0.12033 0.35351 0.69812
 O143 O -0.12021 0.52507 0.63494
 O144 O -0.13477 0.36740 0.63484
 O145 O -0.13486 0.49661 0.69821
 Cu146 Cu 0.03472 0.51694 0.66659
 Cu147 Cu -0.14212 0.42835 0.66652
 C148 C -0.06163 0.55677 0.70870
 C149 C -0.06152 0.38062 0.62440
 C150 C -0.04533 0.59060 0.62462
 C151 C -0.04549 0.36299 0.70850
 O152 O 0.58007 0.65112 0.29599
 O153 O 0.40223 0.50106 0.35610
 O154 O 0.54594 0.65986 0.35561
 O155 O 0.42300 0.50731 0.29413
 O156 O 0.49272 0.43119 0.30886
 O157 O 0.61934 0.58754 0.37048
 O158 O 0.47618 0.42922 0.37089
 O159 O 0.65012 0.57546 0.31092
 Cu160 Cu 0.48095 0.58735 0.32408
 Cu161 Cu 0.56683 0.49875 0.34171
 C162 C 0.64540 0.63807 0.29345
 C163 C 0.40920 0.43882 0.37336
 C164 C 0.60369 0.65057 0.37325
 C165 C 0.43554 0.44284 0.29132
 C166 C -0.06433 0.27671 0.58248
 C167 C -0.06329 0.32523 0.60112
 C168 C 0.78001 0.74563 0.25363
 C169 C 0.71708 0.69631 0.27120
 C170 C 0.27889 -0.03991 -0.07950
 C171 C 0.33789 -0.03685 -0.06163
 C172 C -0.03451 0.72443 0.58340
 C173 C -0.04166 0.66131 0.60159
 C174 C 0.33221 0.32758 0.25028
 C175 C 0.38119 0.38049 0.26867
 C176 C 0.69618 -0.07481 -0.07960
 C177 C 0.65243 -0.06109 -0.06202
 C178 C 0.33171 0.00573 0.08322
 C179 C 0.38066 0.00169 0.06491
 C180 C 0.69846 0.77269 0.41328
 C181 C 0.65428 0.71506 0.39574
 C182 C -0.03482 0.23992 0.74973
 C183 C -0.04190 0.29591 0.73153
 C184 C 0.77951 0.03538 0.07996
 C185 C 0.71645 0.02166 0.06244
 C186 C 0.27983 0.31935 0.41306
 C187 C 0.33891 0.37555 0.39526
 C188 C -0.06456 0.65780 0.75062
 C189 C -0.06346 0.61036 0.73199
   
