data_POSCAR
  _audit_creation_date              2014-09-24
  _audit_creation_method            'ToBaCCo'
  _symmetry_space_group_name_H-M    'P1'
  _symmetry_Int_Tables_number       1
  _symmetry_cell_setting            triclinic
  loop_
  _symmetry_equiv_pos_as_xyz
 x,y,z
_cell_length_a 27.9034
_cell_length_b 17.1531
_cell_length_c 17.2825
_cell_angle_alpha 89.822800
_cell_angle_beta 90.129500
_cell_angle_gamma 89.878800
loop_
  _atom_site_label
  _atom_site_type_symbol
  _atom_site_fract_x
  _atom_site_fract_y
  _atom_site_fract_z
O1 O 0.06764 0.13856 0.13709
 O2 O 0.11995 0.06477 0.06596
 C3 C 0.11058 0.11692 0.11792
 O4 O -0.06617 -0.13817 0.14130
 O5 O -0.11883 -0.06661 0.06766
 C6 C -0.10928 -0.11847 0.12026
 O7 O 0.06827 -0.12938 0.14784
 O8 O 0.12067 -0.06524 0.06843
 C9 C 0.11159 -0.11197 0.12583
 O10 O -0.06657 0.14391 0.13162
 O11 O -0.11941 0.06895 0.06252
 C12 C -0.10974 0.12356 0.11191
 Zr13 Zr 0.00068 0.09984 0.09464
 O14 O -0.00333 0.10360 0.21689
 O15 O 0.00558 0.22291 0.08894
 Zr16 Zr 0.00080 -0.09755 0.10018
 O17 O -0.00014 -0.10590 0.22226
 O18 O 0.00259 -0.22032 0.09109
 O19 O 0.04331 0.00138 0.11256
 O20 O -0.04079 0.00180 0.11186
 O21 O -0.06648 0.13721 -0.13984
 O22 O -0.11907 0.06566 -0.06682
 C23 C -0.10954 0.11780 -0.11902
 O24 O 0.06734 -0.14107 -0.13705
 O25 O 0.12035 -0.06858 -0.06556
 C26 C 0.11056 -0.12037 -0.11780
 O27 O -0.06745 -0.14633 -0.13053
 O28 O -0.11989 -0.06983 -0.06208
 C29 C -0.11051 -0.12494 -0.11114
 O30 O 0.06789 0.13035 -0.14470
 O31 O 0.12058 0.06039 -0.06954
 C32 C 0.11101 0.11009 -0.12422
 Zr33 Zr 0.00056 0.09429 -0.10068
 O34 O -0.00455 0.09036 -0.22286
 O35 O 0.00572 0.21738 -0.10390
 Zr36 Zr 0.00006 -0.10276 -0.09449
 O37 O -0.00514 -0.10746 -0.21660
 O38 O 0.00424 -0.22589 -0.08886
 Zr39 Zr 0.07181 -0.00205 -0.00031
 Zr40 Zr -0.07090 -0.00082 0.00021
 O41 O -0.04132 -0.00427 -0.11165
 O42 O 0.04297 -0.00502 -0.11307
 O43 O -0.04222 0.11273 -0.00345
 O44 O 0.04239 -0.11474 0.00328
 O45 O 0.04234 0.11091 -0.00347
 O46 O -0.04261 -0.11481 0.00359
 H47 H -0.06229 0.00341 0.15736
 H48 H 0.06438 -0.16017 0.00494
 H49 H -0.06294 -0.00543 -0.15718
 H50 H 0.06409 0.15648 -0.00487
 H51 H 0.00435 -0.24038 0.14483
 H52 H -0.02107 -0.24375 -0.05295
 H53 H 0.02064 -0.07430 -0.23788
 H54 H 0.02270 0.05894 -0.24195
 H55 H -0.02112 0.23855 -0.07308
 H56 H -0.02257 0.24220 0.05967
 H57 H 0.02293 0.07060 0.23749
 H58 H -0.00742 -0.05331 0.24214
 O59 O 0.56666 0.63183 0.64367
 O60 O 0.61941 0.56317 0.56823
 C61 C 0.60981 0.61231 0.62303
 O62 O 0.43296 0.35365 0.62941
 O63 O 0.38016 0.43051 0.56152
 C64 C 0.38981 0.37487 0.61019
 O65 O 0.56751 0.35962 0.63486
 O66 O 0.61977 0.43383 0.56378
 C67 C 0.61050 0.38103 0.61546
 O68 O 0.43183 0.63654 0.63741
 O69 O 0.37948 0.56525 0.56349
 C70 C 0.38885 0.61712 0.61579
 Zr71 Zr 0.49943 0.59522 0.59945
 O72 O 0.49447 0.59020 0.72159
 O73 O 0.50399 0.71834 0.60338
 Zr74 Zr 0.50004 0.39821 0.59293
 O75 O 0.49525 0.39365 0.71509
 O76 O 0.50535 0.27517 0.58788
 O77 O 0.54249 0.49637 0.61155
 O78 O 0.45818 0.49604 0.61011
 O79 O 0.43178 0.64860 0.37002
 O80 O 0.37961 0.56919 0.43550
 C81 C 0.38878 0.62619 0.38838
 O82 O 0.56744 0.36914 0.35391
 O83 O 0.61979 0.43841 0.42957
 C84 C 0.61047 0.38898 0.37488
 O85 O 0.43275 0.36254 0.35926
 O86 O 0.38000 0.43406 0.43198
 C87 C 0.38962 0.38182 0.38016
 O88 O 0.56675 0.64200 0.36279
 O89 O 0.61934 0.56776 0.43394
 C90 C 0.60985 0.62065 0.38237
 Zr91 Zr 0.49938 0.60255 0.40398
 O92 O 0.49395 0.60525 0.28178
 O93 O 0.50433 0.72562 0.40665
 Zr94 Zr 0.49997 0.40545 0.39726
 O95 O 0.49493 0.41179 0.27514
 O96 O 0.50528 0.28247 0.39199
 Zr97 Zr 0.57087 0.50063 0.49869
 Zr98 Zr 0.42853 0.49981 0.49806
 O99 O 0.45804 0.50432 0.38625
 O100 O 0.54244 0.50474 0.38562
 O101 O 0.45662 0.61380 0.50209
 O102 O 0.54159 0.38777 0.49479
 O103 O 0.54095 0.61328 0.50233
 O104 O 0.45731 0.38619 0.49448
 H105 H 0.43659 0.49451 0.65552
 H106 H 0.56336 0.34210 0.49345
 H107 H 0.43615 0.50596 0.34104
 H108 H 0.56245 0.65914 0.50390
 H109 H 0.47770 0.25603 0.55754
 H110 H 0.47970 0.26082 0.42517
 H111 H 0.52267 0.44226 0.25644
 H112 H 0.52181 0.57651 0.26088
 H113 H 0.47904 0.74475 0.44184
 H114 H 0.47659 0.73959 0.57360
 H115 H 0.52183 0.55877 0.74066
 H116 H 0.52181 0.42527 0.73619
 C117 C 0.22962 0.22801 0.23095
 C118 C 0.23505 0.15418 0.19676
 C119 C 0.19645 0.11822 0.15974
 C120 C 0.15140 0.15477 0.15706
 C121 C 0.14573 0.22809 0.19174
 C122 C 0.18447 0.26457 0.22772
 C123 C 0.27079 0.26692 0.26954
 C124 C 0.26368 0.31283 0.33583
 C125 C 0.30216 0.35051 0.37129
 C126 C 0.34886 0.34217 0.34218
 C127 C 0.35612 0.29586 0.27630
 C128 C 0.31751 0.25907 0.24013
 H129 H 0.20172 0.06130 0.13411
 H130 H 0.11151 0.25798 0.18989
 H131 H 0.29528 0.38582 0.42185
 H132 H 0.39159 0.28878 0.25197
 H133 H 0.17915 0.32205 0.25195
 H134 H 0.22839 0.31915 0.36097
 H135 H 0.26899 0.12360 0.19937
 H136 H 0.32425 0.22546 0.18837
 C137 C 0.77105 0.77157 0.23336
 C138 C 0.81723 0.76813 0.26626
 C139 C 0.85620 0.80307 0.22925
 C140 C 0.84978 0.84348 0.15920
 C141 C 0.80363 0.84791 0.12685
 C142 C 0.76487 0.81172 0.16296
 C143 C 0.72961 0.73322 0.27196
 C144 C 0.68332 0.76576 0.26718
 C145 C 0.64434 0.72894 0.30232
 C146 C 0.65085 0.65945 0.34424
 C147 C 0.69713 0.62755 0.35008
 C148 C 0.73590 0.66343 0.31371
 H149 H 0.89122 0.79943 0.25617
 H150 H 0.79745 0.87880 0.07309
 H151 H 0.60923 0.75557 0.29755
 H152 H 0.70342 0.57433 0.38226
 H153 H 0.73018 0.81448 0.13496
 H154 H 0.67715 0.82030 0.23709
 H155 H 0.82331 0.73930 0.32120
 H156 H 0.77070 0.63571 0.31761
 C157 C 0.77128 0.22994 0.76727
 C158 C 0.76491 0.18995 0.83767
 C159 C 0.80350 0.15306 0.87409
 C160 C 0.84964 0.15670 0.84206
 C161 C 0.85625 0.19707 0.77209
 C162 C 0.81746 0.23266 0.73478
 C163 C 0.72999 0.26851 0.72801
 C164 C 0.73641 0.33807 0.68601
 C165 C 0.69774 0.37396 0.64880
 C166 C 0.65149 0.34229 0.65409
 C167 C 0.64490 0.27301 0.69622
 C168 C 0.68374 0.23619 0.73216
 H169 H 0.79721 0.12219 0.92775
 H170 H 0.89128 0.20009 0.74540
 H171 H 0.70408 0.42697 0.61642
 H172 H 0.60981 0.24654 0.70058
 H173 H 0.82366 0.26133 0.67985
 H174 H 0.77122 0.36555 0.68253
 H175 H 0.73018 0.18774 0.86533
 H176 H 0.67751 0.18180 0.76236
 C177 C 0.22896 0.76850 0.76677
 C178 C 0.18212 0.73950 0.75848
 C179 C 0.14365 0.77580 0.79550
 C180 C 0.15118 0.84139 0.84248
 C181 C 0.19800 0.87004 0.85127
 C182 C 0.23633 0.83450 0.81336
 C183 C 0.27000 0.72978 0.72764
 C184 C 0.31511 0.72563 0.76395
 C185 C 0.35376 0.68973 0.72723
 C186 C 0.34805 0.65603 0.65389
 C187 C 0.30302 0.65951 0.61761
 C188 C 0.26449 0.69649 0.65384
 H189 H 0.10808 0.75180 0.78803
 H190 H 0.20509 0.92032 0.88714
 H191 H 0.38796 0.68719 0.75691
 H192 H 0.29773 0.63463 0.56069
 H193 H 0.27172 0.85936 0.82004
 H194 H 0.32048 0.74909 0.82138
 H195 H 0.17518 0.68794 0.72432
 H196 H 0.23057 0.69983 0.62350
 C197 C 0.22982 0.21923 0.75880
 C198 C 0.18367 0.25244 0.75587
 C199 C 0.14508 0.21647 0.79292
 C200 C 0.15174 0.14704 0.83496
 C201 C 0.19778 0.11394 0.83837
 C202 C 0.23623 0.14913 0.80017
 C203 C 0.27108 0.25804 0.71978
 C204 C 0.31738 0.25450 0.75214
 C205 C 0.35596 0.29145 0.71599
 C206 C 0.34913 0.33399 0.64725
 C207 C 0.30296 0.33793 0.61493
 C208 C 0.26452 0.29983 0.65030
 H209 H 0.11014 0.24395 0.78986
 H210 H 0.20406 0.06041 0.87009
 H211 H 0.39102 0.28797 0.74283
 H212 H 0.29656 0.36999 0.56189
 H213 H 0.27091 0.12085 0.80263
 H214 H 0.32381 0.22442 0.80632
 H215 H 0.17738 0.30714 0.72614
 H216 H 0.22971 0.30271 0.62266
 C217 C 0.77019 0.76033 0.77847
 C218 C 0.81647 0.75657 0.74639
 C219 C 0.85522 0.79278 0.78282
 C220 C 0.84860 0.83499 0.85150
 C221 C 0.80241 0.83955 0.88329
 C222 C 0.76381 0.80197 0.84778
 C223 C 0.72881 0.72169 0.73948
 C224 C 0.68251 0.75429 0.74304
 C225 C 0.64382 0.71822 0.70623
 C226 C 0.65056 0.64943 0.66369
 C227 C 0.69675 0.61712 0.65947
 C228 C 0.73526 0.65221 0.69759
 H229 H 0.89026 0.78898 0.75624
 H230 H 0.79609 0.87173 0.93600
 H231 H 0.60876 0.74515 0.70986
 H232 H 0.70315 0.56429 0.62710
 H233 H 0.72905 0.80513 0.87525
 H234 H 0.67613 0.80856 0.77310
 H235 H 0.82280 0.72678 0.69225
 H236 H 0.77001 0.62428 0.69461
 C237 C 0.22782 0.78383 0.24213
 C238 C 0.18056 0.77190 0.26756
 C239 C 0.14183 0.80653 0.22902
 C240 C 0.14912 0.85540 0.16420
 C241 C 0.19678 0.86853 0.13999
 C242 C 0.23534 0.83282 0.17795
 C243 C 0.26898 0.74426 0.28139
 C244 C 0.31399 0.78084 0.28697
 C245 C 0.35290 0.74259 0.32155
 C246 C 0.34759 0.66733 0.35256
 C247 C 0.30254 0.63115 0.34827
 C248 C 0.26386 0.66883 0.31261
 H249 H 0.10615 0.79490 0.25075
 H250 H 0.20466 0.90524 0.09051
 H251 H 0.38706 0.77228 0.32469
 H252 H 0.29739 0.57285 0.37102
 H253 H 0.27106 0.84246 0.15567
 H254 H 0.31919 0.83942 0.26515
 H255 H 0.17332 0.73602 0.31780
 H256 H 0.23018 0.63797 0.30816
 C257 C 0.77125 0.23992 0.22152
 C258 C 0.81760 0.24351 0.25374
 C259 C 0.85629 0.20677 0.21760
 C260 C 0.84953 0.16427 0.14910
 C261 C 0.80329 0.16005 0.11716
 C262 C 0.76478 0.19811 0.15233
 C263 C 0.72986 0.27881 0.26023
 C264 C 0.68362 0.24631 0.25642
 C265 C 0.64484 0.28267 0.29263
 C266 C 0.65140 0.35167 0.33487
 C267 C 0.69755 0.38384 0.33949
 C268 C 0.73617 0.34842 0.30195
 H269 H 0.89138 0.21039 0.24424
 H270 H 0.79684 0.12769 0.06458
 H271 H 0.60984 0.25577 0.28877
 H272 H 0.70382 0.43679 0.37171
 H273 H 0.72999 0.19514 0.12471
 H274 H 0.67734 0.19191 0.22658
 H275 H 0.82401 0.27352 0.30774
 H276 H 0.77090 0.37621 0.30517
   
