data_POSCAR
  _audit_creation_date              2014-09-24
  _audit_creation_method            'ToBaCCo'
  _symmetry_space_group_name_H-M    'P1'
  _symmetry_Int_Tables_number       1
  _symmetry_cell_setting            triclinic
  loop_
  _symmetry_equiv_pos_as_xyz
 x,y,z
_cell_length_a 31.8799
_cell_length_b 31.8729
_cell_length_c 31.8386
_cell_angle_alpha 89.987900
_cell_angle_beta 89.861600
_cell_angle_gamma 89.818200
loop_
  _atom_site_label
  _atom_site_type_symbol
  _atom_site_fract_x
  _atom_site_fract_y
  _atom_site_fract_z
C1 C 0.15563 0.18817 0.21687
 C2 C 0.15538 0.21851 0.18492
 C3 C 0.18629 0.21813 0.15441
 C4 C 0.21787 0.18743 0.15533
 C5 C 0.21809 0.15751 0.18671
 C6 C 0.18673 0.15788 0.21772
 C7 C 0.12920 0.18045 0.25021
 N8 N 0.14391 0.14668 0.27200
 C9 C 0.17866 0.13223 0.25153
 C10 C 0.25170 0.13136 0.17919
 N11 N 0.27262 0.14516 0.14447
 C12 C 0.25132 0.17903 0.12926
 C13 C 0.17796 0.25067 0.12727
 N14 N 0.14311 0.27136 0.14089
 C15 C 0.12873 0.25128 0.17577
 H16 H 0.10075 0.19768 0.25733
 H17 H 0.19640 0.10448 0.25995
 H18 H 0.25966 0.10368 0.19724
 H19 H 0.25883 0.19582 0.10068
 H20 H 0.19562 0.25814 0.09920
 H21 H 0.10055 0.25951 0.19294
 C22 C -0.15214 0.81647 0.21847
 C23 C -0.15239 0.78558 0.18709
 C24 C -0.18354 0.78568 0.15698
 C25 C -0.21497 0.81657 0.15788
 C26 C -0.21477 0.84696 0.18880
 C27 C -0.18306 0.84694 0.21930
 C28 C -0.12537 0.82451 0.25132
 N29 N -0.13971 0.85866 0.27282
 C30 C -0.17457 0.87301 0.25262
 C31 C -0.24850 0.87302 0.18156
 N32 N -0.26986 0.85875 0.14741
 C33 C -0.24876 0.82467 0.13232
 C34 C -0.17562 0.75262 0.13033
 N35 N -0.14085 0.73186 0.14390
 C36 C -0.12608 0.75240 0.17827
 H37 H -0.09701 0.80715 0.25837
 H38 H -0.19214 0.90092 0.26093
 H39 H -0.25611 0.90094 0.19938
 H40 H -0.25687 0.80738 0.10423
 H41 H -0.19357 0.74462 0.10267
 H42 H -0.09779 0.74441 0.19523
 C43 C -0.15467 0.18033 -0.21300
 C44 C -0.15712 0.21332 -0.18395
 C45 C -0.18961 0.21473 -0.15518
 C46 C -0.22029 0.18326 -0.15523
 C47 C -0.21804 0.15091 -0.18404
 C48 C -0.18486 0.14934 -0.21304
 C49 C -0.12648 0.17087 -0.24438
 N50 N -0.13821 0.13430 -0.26310
 C51 C -0.17451 0.12150 -0.24446
 C52 C -0.25098 0.12433 -0.17584
 N53 N -0.27384 0.14009 -0.14321
 C54 C -0.25450 0.17578 -0.12996
 C55 C -0.18309 0.24914 -0.12993
 N56 N -0.14768 0.26906 -0.14301
 C57 C -0.13137 0.24684 -0.17570
 H58 H -0.09980 0.18981 -0.25334
 H59 H -0.19268 0.09434 -0.25350
 H60 H -0.25701 0.09492 -0.19170
 H61 H -0.26366 0.19439 -0.10301
 H62 H -0.20206 0.25802 -0.10315
 H63 H -0.10218 0.25393 -0.19159
 C64 C 0.15432 0.81954 -0.21440
 C65 C 0.15554 0.78603 -0.18587
 C66 C 0.18524 0.78541 -0.15429
 C67 C 0.21420 0.81831 -0.15085
 C68 C 0.21315 0.85110 -0.17921
 C69 C 0.18298 0.85175 -0.21117
 C70 C 0.12828 0.82897 -0.24750
 N71 N 0.13978 0.86669 -0.26402
 C72 C 0.17392 0.88029 -0.24230
 C73 C 0.24438 0.87859 -0.16823
 N74 N 0.26403 0.86391 -0.13318
 C75 C 0.24610 0.82650 -0.12296
 C76 C 0.17739 0.75062 -0.12994
 N77 N 0.14404 0.72968 -0.14627
 C78 C 0.13018 0.75165 -0.18016
 H79 H 0.10284 0.80961 -0.25878
 H80 H 0.19137 0.90865 -0.24869
 H81 H 0.25243 0.90688 -0.18516
 H82 H 0.25579 0.80637 -0.09734
 H83 H 0.19367 0.74221 -0.10135
 H84 H 0.10252 0.74424 -0.19832
 C85 C 0.18713 1.15494 0.78405
 C86 C 0.21733 1.15448 0.81598
 C87 C 0.21500 1.18321 0.84841
 C88 C 0.18222 1.21262 0.84954
 C89 C 0.15246 1.21305 0.81808
 C90 C 0.15503 1.18410 0.78501
 C91 C 0.18072 1.12974 0.74961
 N92 N 0.14586 1.14337 0.72895
 C93 C 0.12960 1.17620 0.75112
 C94 C 0.12455 1.24475 0.82722
 N95 N 0.13606 1.26318 0.86403
 C96 C 0.17194 1.24406 0.87731
 C97 C 0.24755 1.17462 0.87538
 N98 N 0.27005 1.14179 0.85981
 C99 C 0.25124 1.12891 0.82375
 H100 H 0.19934 1.10253 0.74130
 H101 H 0.10054 1.19233 0.74399
 H102 H 0.09825 1.25412 0.80791
 H103 H 0.18987 1.25278 0.90477
 H104 H 0.25383 1.19048 0.90474
 H105 H 0.26061 1.10214 0.80505
 C106 C 0.81385 0.84576 0.78028
 C107 C 0.78257 0.84509 0.81128
 C108 C 0.78231 0.81360 0.84110
 C109 C 0.81331 0.78230 0.84034
 C110 C 0.84413 0.78296 0.80980
 C111 C 0.84442 0.81495 0.77958
 C112 C 0.82231 0.87295 0.74784
 N113 N 0.85683 0.85894 0.72670
 C114 C 0.87100 0.82391 0.74676
 C115 C 0.87041 0.74949 0.81726
 N116 N 0.85584 0.72782 0.85116
 C117 C 0.82134 0.74848 0.86592
 C118 C 0.74908 0.82131 0.86763
 N119 N 0.72860 0.85632 0.85422
 C120 C 0.74946 0.87143 0.82014
 H121 H 0.80499 0.90135 0.74084
 H122 H 0.89910 0.80652 0.73866
 H123 H 0.89873 0.74226 0.79986
 H124 H 0.80386 0.74024 0.89390
 H125 H 0.74105 0.80322 0.89524
 H126 H 0.74172 0.90003 0.80351
 C127 C 0.18113 0.84581 1.21502
 C128 C 0.21457 0.84305 1.18645
 C129 C 0.21425 0.81280 1.15537
 C130 C 0.18049 0.78490 1.15242
 C131 C 0.14770 0.78747 1.18075
 C132 C 0.14803 0.81814 1.21225
 C133 C 0.17259 0.87258 1.24782
 N134 N 0.13461 0.86241 1.26463
 C135 C 0.11989 0.82844 1.24337
 C136 C 0.11920 0.75703 1.17015
 N137 N 0.13352 0.73638 1.13558
 C138 C 0.17138 0.75291 1.12500
 C139 C 0.24907 0.81917 1.13065
 N140 N 0.27094 0.85223 1.14627
 C141 C 0.24957 0.86733 1.18010
 H142 H 0.19276 0.89752 1.25880
 H143 H 0.09111 0.81184 1.25015
 H144 H 0.09044 0.75016 1.18684
 H145 H 0.19111 0.74214 1.09944
 H146 H 0.25674 0.80227 1.10216
 H147 H 0.25776 0.89521 1.19761
 C148 C 0.82083 1.15059 1.21335
 C149 C 0.78942 1.14991 1.18262
 C150 C 0.78848 1.18044 1.15183
 C151 C 0.81891 1.21207 1.15131
 C152 C 0.84987 1.21270 1.18158
 C153 C 0.85083 1.18174 1.21283
 C154 C 0.83031 1.12411 1.24607
 N155 N 0.86605 1.13779 1.26498
 C156 C 0.87813 1.17371 1.24523
 C157 C 0.87601 1.24565 1.17235
 N158 N 0.86214 1.26467 1.13672
 C159 C 0.82670 1.24468 1.12415
 C160 C 0.75576 1.17112 1.12544
 N161 N 0.73722 1.13518 1.13897
 C162 C 0.75726 1.12248 1.17445
 H163 H 0.81229 1.09691 1.25532
 H164 H 0.90488 1.19274 1.25368
 H165 H 0.90322 1.25491 1.19031
 H166 H 0.80808 1.25300 1.09700
 H167 H 0.74625 1.18923 1.09832
 H168 H 0.74916 1.09521 1.19299
 O169 O 0.44032 0.92128 0.93113
 O170 O 0.39491 0.96224 0.96942
 C171 C 0.40280 0.93310 0.94214
 O172 O 0.55990 0.92563 1.08021
 O173 O 0.60525 0.96258 1.03826
 C174 C 0.59743 0.93604 1.06806
 O175 O 0.44164 0.92186 1.07747
 O176 O 0.39551 0.96197 1.03936
 C177 C 0.40393 0.93306 1.06668
 O178 O 0.55854 0.92448 0.92662
 O179 O 0.60464 0.96292 0.96617
 C180 C 0.59624 0.93558 0.93732
 Zr181 Zr 0.49964 0.94411 0.95094
 O182 O 0.50423 0.87784 0.95298
 O183 O 0.49481 0.94226 0.88468
 Zr184 Zr 0.50054 0.94534 1.05717
 O185 O 0.50528 0.87909 1.05813
 O186 O 0.49635 0.94649 1.12354
 O187 O 0.46267 0.93660 1.00450
 O188 O 0.53649 0.93701 1.00371
 O189 O 0.55839 1.07020 0.92574
 O190 O 0.60458 1.03279 0.96640
 C191 C 0.59613 1.05967 0.93706
 O192 O 0.44133 1.07516 1.07632
 O193 O 0.39534 1.03398 1.03958
 C194 C 0.40364 1.06358 1.06614
 O195 O 0.55952 1.07148 1.07867
 O196 O 0.60504 1.03251 1.03844
 C197 C 0.59704 1.06018 1.06717
 O198 O 0.44039 1.07366 0.93015
 O199 O 0.39487 1.03416 0.96951
 C200 C 0.40287 1.06271 0.94169
 Zr201 Zr 0.49956 1.05033 0.94971
 O202 O 0.50385 1.11659 0.94881
 O203 O 0.49464 1.04920 0.88341
 Zr204 Zr 0.50031 1.05150 1.05601
 O205 O 0.50470 1.11776 1.05506
 O206 O 0.49629 1.05213 1.12239
 Zr207 Zr 0.43782 0.99798 1.00407
 Zr208 Zr 0.56220 0.99774 1.00279
 O209 O 0.53624 1.05853 1.00245
 O210 O 0.46253 1.05924 1.00314
 O211 O 0.53690 0.99709 0.94168
 O212 O 0.46412 0.99852 1.06464
 O213 O 0.46326 0.99727 0.94300
 O214 O 0.53789 0.99844 1.06443
 H215 H 0.55557 0.91240 1.00365
 H216 H 0.44530 0.99868 1.08945
 H217 H 0.55512 1.08317 1.00211
 H218 H 0.44422 0.99722 0.91845
 H219 H 0.52032 0.96305 1.13406
 H220 H 0.51980 1.03499 1.13324
 H221 H 0.48086 1.12852 1.03835
 H222 H 0.48075 1.12771 0.96640
 H223 H 0.51879 1.03296 0.87245
 H224 H 0.51648 0.96126 0.87325
 H225 H 0.47926 0.86726 0.96809
 H226 H 0.48255 0.86800 1.04024
 O227 O 0.07434 0.44033 -0.07665
 O228 O 0.03326 0.39511 -0.03854
 C229 C 0.06263 0.40287 -0.06558
 O230 O 0.07098 0.55955 0.07201
 O231 O 0.03345 0.60525 0.03085
 C232 C 0.06033 0.59711 0.06019
 O233 O 0.07410 0.44141 0.06960
 O234 O 0.03327 0.39551 0.03235
 C235 C 0.06247 0.40375 0.05930
 O236 O 0.07150 0.55870 -0.08054
 O237 O 0.03347 0.60484 -0.04020
 C238 C 0.06086 0.59645 -0.06915
 Zr239 Zr 0.05092 0.49975 -0.05723
 O240 O 0.11718 0.50369 -0.05805
 O241 O 0.04997 0.49500 -0.12356
 Zr242 Zr 0.05096 0.50046 0.04910
 O243 O 0.11723 0.50457 0.04863
 O244 O 0.05105 0.49651 0.11548
 O245 O 0.05917 0.46264 -0.00379
 O246 O 0.05864 0.53632 -0.00431
 O247 O -0.07506 0.55914 -0.08065
 O248 O -0.03753 0.60510 -0.04008
 C249 C -0.06449 0.59681 -0.06928
 O250 O -0.07834 0.44207 0.07018
 O251 O -0.03759 0.39596 0.03251
 C252 C -0.06666 0.40438 0.05972
 O253 O -0.07466 0.56030 0.07277
 O254 O -0.03746 0.60567 0.03106
 C255 C -0.06408 0.59782 0.06083
 O256 O -0.07876 0.44094 -0.07617
 O257 O -0.03770 0.39533 -0.03846
 C258 C -0.06710 0.40334 -0.06533
 Zr259 Zr -0.05518 0.50015 -0.05690
 O260 O -0.12143 0.50490 -0.05686
 O261 O -0.05492 0.49517 -0.12321
 Zr262 Zr -0.05526 0.50095 0.04935
 O263 O -0.12152 0.50578 0.04858
 O264 O -0.05599 0.49700 0.11571
 Zr265 Zr -0.00217 0.43814 -0.00339
 Zr266 Zr -0.00206 0.56257 -0.00431
 O267 O -0.06284 0.53691 -0.00401
 O268 O -0.06348 0.46311 -0.00346
 O269 O -0.00209 0.53741 -0.06556
 O270 O -0.00218 0.46454 0.05722
 O271 O -0.00216 0.46356 -0.06443
 O272 O -0.00209 0.53817 0.05724
 H273 H 0.08346 0.55496 -0.00442
 H274 H -0.00215 0.44598 0.08219
 H275 H -0.08752 0.55589 -0.00402
 H276 H -0.00221 0.44450 -0.08902
 H277 H 0.03404 0.52017 0.12629
 H278 H -0.03765 0.51950 0.12650
 H279 H -0.13237 0.48123 0.03307
 H280 H -0.13234 0.48193 -0.03908
 H281 H -0.03779 0.51852 -0.13428
 H282 H 0.03440 0.51958 -0.13444
 H283 H 0.12805 0.48107 -0.03976
 H284 H 0.12807 0.48052 0.03219
 O285 O 1.07895 -0.07089 0.55964
 O286 O 1.03880 -0.03225 0.60548
 C287 C 1.06768 -0.05974 0.59730
 O288 O 1.07525 0.07896 0.44147
 O289 O 1.03786 0.03815 0.39562
 C290 C 1.06475 0.06741 0.40378
 O291 O 1.07845 0.07533 0.55981
 O292 O 1.03760 0.03767 0.60563
 C293 C 1.06683 0.06464 0.59747
 O294 O 1.07545 -0.07418 0.44122
 O295 O 1.03693 -0.03384 0.39560
 C296 C 1.06421 -0.06291 0.40364
 Zr297 Zr 1.05569 -0.05067 0.50048
 O298 O 1.12195 -0.05005 0.49586
 O299 O 1.05625 -0.11694 0.50484
 Zr300 Zr 1.05525 0.05551 0.50066
 O301 O 1.12152 0.05546 0.49615
 O302 O 1.05478 0.12177 0.50525
 O303 O 1.06362 0.00236 0.53803
 O304 O 1.06318 0.00247 0.46416
 O305 O 0.92957 -0.07375 0.44134
 O306 O 0.96715 -0.03288 0.39552
 C307 C 0.94016 -0.06210 0.40367
 O308 O 0.92532 0.07501 0.56015
 O309 O 0.96553 0.03635 0.60574
 C310 C 0.93645 0.06364 0.59775
 O311 O 0.92902 0.07893 0.44169
 O312 O 0.96796 0.03903 0.39588
 C313 C 0.94030 0.06772 0.40406
 O314 O 0.92610 -0.07075 0.55947
 O315 O 0.96678 -0.03347 0.60554
 C316 C 0.93757 -0.06036 0.59718
 Zr317 Zr 0.94952 -0.05067 0.50050
 O318 O 0.88327 -0.05077 0.49610
 O319 O 0.95010 -0.11697 0.50480
 Zr320 Zr 0.94912 0.05555 0.50083
 O321 O 0.88287 0.05587 0.49640
 O322 O 0.94948 0.12181 0.50554
 Zr323 Zr 1.00227 0.00223 0.56291
 Zr324 Zr 1.00246 0.00255 0.43836
 O325 O 0.94169 0.00254 0.46433
 O326 O 0.94102 0.00229 0.53809
 O327 O 1.00266 -0.05882 0.46305
 O328 O 1.00208 0.06307 0.53718
 O329 O 1.00257 -0.05845 0.53685
 O330 O 1.00222 0.06383 0.46329
 H331 H 1.08781 0.00239 0.44511
 H332 H 1.00183 0.08763 0.55627
 H333 H 0.91703 0.00264 0.44544
 H334 H 1.00271 -0.08316 0.55574
 H335 H 1.03790 0.13268 0.48159
 H336 H 0.96586 0.13271 0.48150
 H337 H 0.87196 0.03810 0.51941
 H338 H 0.87225 -0.03366 0.51960
 H339 H 0.96658 -0.12778 0.48074
 H340 H 1.03842 -0.12782 0.48195
 H341 H 1.13271 -0.03373 0.51993
 H342 H 1.13241 0.03828 0.51960
 C343 C 1.12395 0.12700 0.30574
 C344 C 1.09290 0.09327 0.29133
 C345 C 1.07301 0.07335 0.32346
 C346 C 1.08595 0.08895 0.36739
 C347 C 1.13392 0.08424 0.36826
 C348 C 1.15392 0.10434 0.33628
 C349 C 1.09816 0.15660 0.33427
 C350 C 1.07813 0.13652 0.36631
 H351 H 1.08706 0.08578 0.25861
 H352 H 1.05015 0.04882 0.31788
 H353 H 1.15079 0.06732 0.39256
 H354 H 1.18787 0.10500 0.33393
 H355 H 1.09673 0.19042 0.33069
 H356 H 1.05921 0.15313 0.38935
 C357 C 0.88046 -0.12159 0.30626
 C358 C 0.91188 -0.08828 0.29146
 C359 C 0.93199 -0.06834 0.32336
 C360 C 0.91886 -0.08352 0.36743
 C361 C 0.87095 -0.07829 0.36849
 C362 C 0.85073 -0.09839 0.33677
 C363 C 0.90592 -0.15125 0.33490
 C364 C 0.92617 -0.13117 0.36666
 H365 H 0.91780 -0.08108 0.25865
 H366 H 0.95511 -0.04409 0.31753
 H367 H 0.85425 -0.06100 0.39274
 H368 H 0.81678 -0.09870 0.33461
 H369 H 0.90698 -0.18511 0.33159
 H370 H 0.94493 -0.14783 0.38973
 C371 C 0.88079 0.11609 0.70177
 C372 C 0.92866 0.12258 0.69920
 C373 C 0.94650 0.10575 0.66418
 C374 C 0.91528 0.08341 0.63510
 C375 C 0.89323 0.05120 0.66344
 C376 C 0.87541 0.06811 0.69849
 C377 C 0.86348 0.13366 0.66033
 C378 C 0.88147 0.11660 0.62542
 H379 H 0.94729 0.13765 0.72332
 H380 H 0.98003 0.10721 0.65826
 H381 H 0.89260 0.01776 0.65700
 H382 H 0.86031 0.04877 0.72210
 H383 H 0.83912 0.15746 0.65867
 H384 H 0.87234 0.12595 0.59396
 C385 C 1.12166 -0.11415 0.70096
 C386 C 1.12802 -0.06622 0.69805
 C387 C 1.11074 -0.04868 0.66313
 C388 C 1.08827 -0.08020 0.63451
 C389 C 1.12148 -0.11397 0.62461
 C390 C 1.13888 -0.13171 0.65941
 C391 C 1.07372 -0.11965 0.69826
 C392 C 1.05643 -0.10219 0.66335
 H393 H 1.14294 -0.04719 0.72193
 H394 H 1.11187 -0.01518 0.65706
 H395 H 1.13066 -0.12322 0.59309
 H396 H 1.16280 -0.15596 0.65758
 H397 H 1.05475 -0.13489 0.72211
 H398 H 1.02294 -0.10313 0.65726
 C399 C 0.30617 1.12483 1.12480
 C400 C 0.33518 1.15386 1.09909
 C401 C 0.36700 1.13321 1.07924
 C402 C 0.36746 1.08567 1.08717
 C403 C 0.36803 1.08120 1.13522
 C404 C 0.33621 1.10186 1.15504
 C405 C 0.29154 1.09117 1.09370
 C406 C 0.32349 1.07066 1.07399
 H407 H 0.33207 1.18773 1.09764
 H408 H 0.39034 1.14939 1.06042
 H409 H 0.39202 1.06403 1.15228
 H410 H 0.33366 1.10273 1.18901
 H411 H 0.25880 1.08414 1.08769
 H412 H 0.31775 1.04610 1.05112
 C413 C 0.29904 0.88161 0.88616
 C414 C 0.30301 0.92955 0.88067
 C415 C 0.33792 0.94589 0.89875
 C416 C 0.36550 0.91331 0.92127
 C417 C 0.33573 0.89148 0.95236
 C418 C 0.30080 0.87508 0.93414
 C419 C 0.34047 0.86339 0.86936
 C420 C 0.37526 0.87992 0.88768
 H421 H 0.27974 0.94946 0.86579
 H422 H 0.34457 0.97929 0.89830
 H423 H 0.34129 0.88975 0.98595
 H424 H 0.27640 0.85993 0.95242
 H425 H 0.34221 0.83949 0.84513
 H426 H 0.40669 0.86998 0.87898
 C427 C 0.69616 0.87836 1.12788
 C428 C 0.66529 0.84780 1.10677
 C429 C 0.63305 0.86724 1.08656
 C430 C 0.63402 0.91533 1.08965
 C431 C 0.63584 0.92455 1.13697
 C432 C 0.66814 0.90510 1.15716
 C433 C 0.71004 0.90837 1.09284
 C434 C 0.67767 0.92772 1.07283
 H435 H 0.66778 0.81388 1.10841
 H436 H 0.60855 0.84991 1.07058
 H437 H 0.61302 0.94392 1.15339
 H438 H 0.67206 0.90743 1.19090
 H439 H 0.74260 0.91396 1.08459
 H440 H 0.68289 0.94984 1.04744
 C441 C 0.69289 1.11992 0.87687
 C442 C 0.66241 1.14945 0.90035
 C443 C 0.63089 1.12901 0.92064
 C444 C 0.63210 1.08112 0.91529
 C445 C 0.63271 1.07406 0.86756
 C446 C 0.66429 1.09453 0.84731
 C447 C 0.70792 1.08835 0.91004
 C448 C 0.67623 1.06802 0.93016
 H449 H 0.66424 1.18342 0.89995
 H450 H 0.60661 1.14555 0.93802
 H451 H 0.60976 1.05521 0.85101
 H452 H 0.66775 1.09352 0.81341
 H453 H 0.74073 1.08251 0.91706
 H454 H 0.68224 1.04479 0.95436
 C455 C 0.12217 0.30652 0.11941
 C456 C 0.08856 0.29171 0.08843
 C457 C 0.06851 0.32357 0.06819
 C458 C 0.08395 0.36759 0.08083
 C459 C 0.07917 0.36891 0.12886
 C460 C 0.09933 0.33713 0.14913
 C461 C 0.15165 0.33465 0.09339
 C462 C 0.13152 0.36644 0.07308
 H463 H 0.08124 0.25894 0.08292
 H464 H 0.04399 0.31775 0.04534
 H465 H 0.06187 0.39315 0.14553
 H466 H 0.09963 0.33468 0.18311
 H467 H 0.18543 0.33086 0.09189
 H468 H 0.14806 0.38917 0.05383
 C469 C -0.12713 0.30482 -0.12240
 C470 C -0.10586 0.33533 -0.15321
 C471 C -0.08561 0.36760 -0.13403
 C472 C -0.08879 0.36683 -0.08586
 C473 C -0.13607 0.36522 -0.07654
 C474 C -0.15629 0.33289 -0.09574
 C475 C -0.09225 0.29082 -0.09239
 C476 C -0.07216 0.32313 -0.07321
 H477 H -0.10705 0.33220 -0.18712
 H478 H -0.06921 0.39175 -0.15157
 H479 H -0.15238 0.38804 -0.05710
 H480 H -0.18994 0.32883 -0.09310
 H481 H -0.08415 0.25821 -0.08669
 H482 H -0.04680 0.31783 -0.05113
 C483 C 0.12230 0.69416 -0.12640
 C484 C 0.15125 0.66412 -0.10202
 C485 C 0.13050 0.63209 -0.08284
 C486 C 0.08283 0.63266 -0.09003
 C487 C 0.06856 0.67657 -0.07535
 C488 C 0.08927 0.70862 -0.09441
 C489 C 0.09852 0.66554 -0.15716
 C490 C 0.07770 0.63349 -0.13800
 H491 H 0.18511 0.66708 -0.10063
 H492 H 0.14662 0.60815 -0.06471
 H493 H 0.04425 0.68220 -0.05207
 H494 H 0.08273 0.74133 -0.08745
 H495 H 0.09874 0.66939 -0.19101
 H496 H 0.05980 0.61044 -0.15546
 C497 C -0.12061 0.69624 0.12241
 C498 C -0.15157 0.66585 0.10136
 C499 C -0.13256 0.63366 0.08053
 C500 C -0.08443 0.63436 0.08295
 C501 C -0.07206 0.67811 0.06643
 C502 C -0.09103 0.71037 0.08713
 C503 C -0.09364 0.66797 0.15094
 C504 C -0.07462 0.63574 0.13016
 H505 H -0.18543 0.66877 0.10331
 H506 H -0.15021 0.60950 0.06434
 H507 H -0.05027 0.68347 0.04075
 H508 H -0.08549 0.74301 0.07921
 H509 H -0.09060 0.67197 0.18462
 H510 H -0.05495 0.61285 0.14602
 C511 C 1.12636 0.12343 0.69527
 C512 C 1.15604 0.09824 0.66628
 C513 C 1.13595 0.07832 0.63432
 C514 C 1.08831 0.08568 0.63377
 C515 C 1.07314 0.07210 0.67771
 C516 C 1.09307 0.09188 0.70978
 C517 C 1.10320 0.15349 0.66522
 C518 C 1.08309 0.13361 0.63328
 H519 H 1.18991 0.09725 0.66935
 H520 H 1.15259 0.05987 0.61092
 H521 H 1.04891 0.04890 0.68334
 H522 H 1.08590 0.08560 0.74253
 H523 H 1.10335 0.18741 0.66807
 H524 H 1.06570 0.15055 0.60936
 C525 C 0.87698 -0.12061 0.69363
 C526 C 0.84774 -0.09460 0.66506
 C527 C 0.86824 -0.07414 0.63364
 C528 C 0.91583 -0.08181 0.63312
 C529 C 0.93074 -0.06927 0.67737
 C530 C 0.91037 -0.08961 0.70895
 C531 C 0.90020 -0.15017 0.66301
 C532 C 0.92074 -0.12975 0.63164
 H533 H 0.81387 -0.09337 0.66811
 H534 H 0.85194 -0.05499 0.61062
 H535 H 0.95509 -0.04638 0.68353
 H536 H 0.91731 -0.08412 0.74186
 H537 H 0.89961 -0.18415 0.66486
 H538 H 0.93813 -0.14629 0.60736
 C539 C 1.11631 -0.11873 0.29974
 C540 C 1.06831 -0.12406 0.30335
 C541 C 1.05159 -0.10614 0.33840
 C542 C 1.08393 -0.08408 0.36637
 C543 C 1.11711 -0.11789 0.37606
 C544 C 1.13402 -0.13597 0.34114
 C545 C 1.12287 -0.07089 0.30200
 C546 C 1.10619 -0.05293 0.33702
 H547 H 1.04864 -0.13870 0.27983
 H548 H 1.01816 -0.10650 0.34494
 H549 H 1.12656 -0.12695 0.40751
 H550 H 1.15779 -0.16037 0.34278
 H551 H 1.13826 -0.05250 0.27780
 H552 H 1.10791 -0.01941 0.34288
 C553 C 0.88510 0.11998 0.30016
 C554 C 0.93308 0.12600 0.30213
 C555 C 0.95095 0.10941 0.33721
 C556 C 0.91960 0.08784 0.36684
 C557 C 0.88624 0.12152 0.37647
 C558 C 0.86822 0.13831 0.34152
 C559 C 0.87925 0.07212 0.30413
 C560 C 0.89702 0.05552 0.33918
 H561 H 0.95172 0.14062 0.27766
 H562 H 0.98450 0.11061 0.34284
 H563 H 0.87751 0.13147 0.40790
 H564 H 0.84419 0.16246 0.34310
 H565 H 0.86414 0.05251 0.28084
 H566 H 0.89618 0.02214 0.34596
 C567 C 0.11733 0.29846 -0.11789
 C568 C 0.06960 0.30180 -0.12505
 C569 C 0.05207 0.33699 -0.10828
 C570 C 0.08345 0.36541 -0.08534
 C571 C 0.10464 0.33662 -0.05293
 C572 C 0.12213 0.30142 -0.06977
 C573 C 0.13550 0.33965 -0.13504
 C574 C 0.11782 0.37472 -0.11804
 H575 H 0.05081 0.27809 -0.14052
 H576 H 0.01866 0.34347 -0.11019
 H577 H 0.10495 0.34289 -0.01942
 H578 H 0.13659 0.27749 -0.05031
 H579 H 0.16019 0.34104 -0.15853
 H580 H 0.12753 0.40604 -0.12713
 C581 C -0.11900 0.30148 0.11629
 C582 C -0.07143 0.30589 0.12327
 C583 C -0.05471 0.34057 0.10495
 C584 C -0.08675 0.36748 0.08091
 C585 C -0.10737 0.33705 0.04978
 C586 C -0.12406 0.30235 0.06819
 C587 C -0.13812 0.34295 0.13176
 C588 C -0.12128 0.37759 0.11329
 H589 H -0.05213 0.28321 0.13977
 H590 H -0.02145 0.34766 0.10653
 H591 H -0.10811 0.34202 0.01605
 H592 H -0.13847 0.27752 0.04999
 H593 H -0.16281 0.34480 0.15522
 H594 H -0.13174 0.40909 0.12104
 C595 C -0.12406 0.69427 -0.12912
 C596 C -0.09281 0.70889 -0.09563
 C597 C -0.07274 0.67694 -0.07562
 C598 C -0.08577 0.63298 -0.09092
 C599 C -0.13370 0.63210 -0.08591
 C600 C -0.15386 0.66390 -0.10610
 C601 C -0.09845 0.66561 -0.15875
 C602 C -0.07825 0.63376 -0.13859
 H603 H -0.08695 0.74162 -0.08837
 H604 H -0.04971 0.68266 -0.05124
 H605 H -0.15044 0.60789 -0.06877
 H606 H -0.18782 0.66622 -0.10662
 H607 H -0.09730 0.66897 -0.19264
 H608 H -0.05944 0.61061 -0.15519
 C609 C 0.11384 0.69986 0.11562
 C610 C 0.13046 0.65822 0.13324
 C611 C 0.11303 0.62372 0.11524
 C612 C 0.08047 0.63409 0.08110
 C613 C 0.04850 0.66306 0.10283
 C614 C 0.06583 0.69764 0.12075
 C615 C 0.12107 0.69718 0.06787
 C616 C 0.10378 0.66260 0.04990
 H617 H 0.15390 0.65616 0.15782
 H618 H 0.12173 0.59213 0.12458
 H619 H 0.01495 0.65736 0.10322
 H620 H 0.04679 0.72163 0.13572
 H621 H 0.13745 0.72075 0.04959
 H622 H 0.10586 0.65648 0.01640
 C623 C 0.30534 1.12103 0.88112
 C624 C 0.33498 1.15142 0.90398
 C625 C 0.36690 1.13187 0.92464
 C626 C 0.36659 1.08386 0.92024
 C627 C 0.32267 1.07052 0.93547
 C628 C 0.29070 1.09004 0.91495
 C629 C 0.33438 1.09538 0.85206
 C630 C 0.36624 1.07581 0.87266
 H631 H 0.33159 1.18530 0.90351
 H632 H 0.39047 1.14904 0.94213
 H633 H 0.31701 1.04783 0.96025
 H634 H 0.25796 1.08402 0.92207
 H635 H 0.33132 1.09374 0.81819
 H636 H 0.38965 1.05701 0.85642
 C637 C 0.30642 0.87307 1.12549
 C638 C 0.33626 0.89595 1.15567
 C639 C 0.36824 0.91616 1.13584
 C640 C 0.36780 0.91135 1.08781
 C641 C 0.36720 0.86375 1.08019
 C642 C 0.33519 0.84357 1.10006
 C643 C 0.29191 0.90661 1.09417
 C644 C 0.32391 0.92670 1.07441
 H645 H 0.33320 0.89560 1.18961
 H646 H 0.39208 0.93344 1.15285
 H647 H 0.39035 0.84725 1.06128
 H648 H 0.33146 0.80980 1.09851
 H649 H 0.25919 0.91383 1.08807
 H650 H 0.31825 0.95115 1.05135
 C651 C 0.70037 1.11510 1.12001
 C652 C 0.69830 1.06722 1.12627
 C653 C 0.66350 1.04936 1.10932
 C654 C 0.63418 1.08075 1.08733
 C655 C 0.62423 1.11414 1.12089
 C656 C 0.65895 1.13208 1.13793
 C657 C 0.69698 1.12109 1.07214
 C658 C 0.66220 1.10332 1.05517
 H659 H 0.72246 1.04869 1.14151
 H660 H 0.65779 1.01582 1.11069
 H661 H 0.59275 1.12298 1.13056
 H662 H 0.65719 1.15611 1.16202
 H663 H 0.72035 1.13671 1.05293
 H664 H 0.65571 1.10442 1.02172
 C665 C 0.69339 0.87707 0.87583
 C666 C 0.66384 0.90184 0.84666
 C667 C 0.63201 0.92169 0.86733
 C668 C 0.63232 0.91468 0.91508
 C669 C 0.63243 0.86678 0.92054
 C670 C 0.66421 0.84699 0.89984
 C671 C 0.70819 0.90892 0.90864
 C672 C 0.67633 0.92867 0.92923
 H673 H 0.66695 0.90299 0.81275
 H674 H 0.60840 0.94015 0.85110
 H675 H 0.60899 0.84980 0.93852
 H676 H 0.66738 0.81309 0.89974
 H677 H 0.74097 0.91538 0.91502
 H678 H 0.68216 0.95208 0.95326
   
