data_POSCAR
  _audit_creation_date              2014-09-24
  _audit_creation_method            'ToBaCCo'
  _symmetry_space_group_name_H-M    'P1'
  _symmetry_Int_Tables_number       1
  _symmetry_cell_setting            triclinic
  loop_
  _symmetry_equiv_pos_as_xyz
 x,y,z
_cell_length_a 17.8476
_cell_length_b 44.5998
_cell_length_c 26.4081
_cell_angle_alpha 90.000000
_cell_angle_beta 90.000000
_cell_angle_gamma 90.000000
loop_
  _atom_site_label
  _atom_site_type_symbol
  _atom_site_fract_x
  _atom_site_fract_y
  _atom_site_fract_z
B1 B -0.05399 -0.02610 0.01725
 B2 B 0.03697 -0.02588 0.03134
 B3 B 0.00949 -0.03082 -0.02823
 B4 B -0.06656 -0.00962 -0.03940
 B5 B -0.08535 0.00919 0.01578
 B6 B -0.02054 -0.00149 0.05998
 B7 B 0.05395 0.02582 -0.01719
 B8 B -0.03702 0.02561 -0.03128
 B9 B -0.00953 0.03055 0.02828
 B10 B 0.06652 0.00935 0.03945
 B11 B 0.08531 -0.00946 -0.01573
 B12 B 0.02050 0.00122 -0.05993
 B13 B 0.52598 0.48434 0.55044
 B14 B 0.43610 0.48478 0.53275
 B15 B 0.47863 0.51650 0.55106
 B16 B 0.56839 0.51584 0.53079
 B17 B 0.58097 0.48289 0.49879
 B18 B 0.49817 0.46372 0.50067
 B19 B 0.47399 0.51539 0.44964
 B20 B 0.56387 0.51496 0.46733
 B21 B 0.52135 0.48324 0.44902
 B22 B 0.43158 0.48390 0.46929
 B23 B 0.41900 0.51685 0.50129
 B24 B 0.50181 0.53602 0.49941
 B25 B 0.55395 0.02583 0.51727
 B26 B 0.46298 0.02561 0.53136
 B27 B 0.49047 0.03055 0.47180
 B28 B 0.56652 0.00935 0.46063
 B29 B 0.58531 -0.00946 0.51581
 B30 B 0.52050 0.00122 0.56000
 B31 B 0.44600 -0.02609 0.48283
 B32 B 0.53697 -0.02588 0.46874
 B33 B 0.50949 -0.03082 0.52831
 B34 B 0.43344 -0.00962 0.53948
 B35 B 0.41465 0.00919 0.48430
 B36 B 0.47946 -0.00149 0.44010
 B37 B -0.02603 0.51539 0.05045
 B38 B 0.06386 0.51496 0.03276
 B39 B 0.02133 0.48323 0.05107
 B40 B -0.06843 0.48390 0.03080
 B41 B -0.08101 0.51685 -0.00120
 B42 B 0.00179 0.53602 0.00068
 B43 B 0.02597 0.48434 -0.05035
 B44 B -0.06391 0.48478 -0.03266
 B45 B -0.02139 0.51650 -0.05097
 B46 B 0.06838 0.51584 -0.03070
 B47 B 0.08096 0.48288 0.00130
 B48 B -0.00185 0.46372 -0.00058
 B49 B 0.05398 0.47390 0.48283
 B50 B -0.03699 0.47412 0.46874
 B51 B -0.00951 0.46918 0.52831
 B52 B 0.06654 0.49038 0.53948
 B53 B 0.08534 0.50919 0.48430
 B54 B 0.02053 0.49851 0.44010
 B55 B -0.05397 0.52582 0.51727
 B56 B 0.03700 0.52561 0.53137
 B57 B 0.00952 0.53055 0.47180
 B58 B -0.06653 0.50935 0.46062
 B59 B -0.08533 0.49054 0.51581
 B60 B -0.02052 0.50122 0.56001
 B61 B 0.47400 -0.01566 -0.05035
 B62 B 0.56389 -0.01523 -0.03266
 B63 B 0.52136 0.01650 -0.05097
 B64 B 0.43160 0.01584 -0.03070
 B65 B 0.41902 -0.01712 0.00130
 B66 B 0.50182 -0.03628 -0.00058
 B67 B 0.52600 0.01539 0.05045
 B68 B 0.43612 0.01496 0.03276
 B69 B 0.47865 -0.01677 0.05107
 B70 B 0.56841 -0.01610 0.03080
 B71 B 0.58099 0.01685 -0.00120
 B72 B 0.49818 0.03602 0.00068
 B73 B 0.44601 0.52583 -0.01719
 B74 B 0.53698 0.52561 -0.03128
 B75 B 0.50950 0.53056 0.02829
 B76 B 0.43345 0.50935 0.03946
 B77 B 0.41465 0.49054 -0.01572
 B78 B 0.47946 0.50122 -0.05992
 B79 B 0.55396 0.47391 0.01725
 B80 B 0.46299 0.47412 0.03134
 B81 B 0.49047 0.46918 -0.02822
 B82 B 0.56652 0.49038 -0.03940
 B83 B 0.58532 0.50919 0.01578
 B84 B 0.52051 0.49852 0.05998
 B85 B 0.02599 0.01539 0.44963
 B86 B -0.06390 0.01496 0.46732
 B87 B -0.02137 -0.01676 0.44902
 B88 B 0.06840 -0.01610 0.46929
 B89 B 0.08097 0.01685 0.50128
 B90 B -0.00183 0.03602 0.49940
 B91 B -0.02601 -0.01566 0.55044
 B92 B 0.06387 -0.01522 0.53274
 B93 B 0.02135 0.01650 0.55105
 B94 B -0.06842 0.01584 0.53078
 B95 B -0.08100 -0.01711 0.49878
 B96 B 0.00181 -0.03628 0.50067
 B97 B 0.76106 0.27413 0.27744
 B98 B 0.66792 0.27232 0.27885
 B99 B 0.71297 0.27345 0.22359
 B100 B 0.79359 0.25426 0.22828
 B101 B 0.79764 0.24031 0.28875
 B102 B 0.71894 0.25194 0.32056
 B103 B 0.67486 0.21683 0.24196
 B104 B 0.76799 0.21907 0.24033
 B105 B 0.72329 0.21736 0.29564
 B106 B 0.64206 0.23681 0.29126
 B107 B 0.63813 0.25072 0.23060
 B108 B 0.71679 0.23907 0.19897
 B109 B 0.77674 0.78239 0.79565
 B110 B 0.73204 0.78067 0.74034
 B111 B 0.82516 0.78292 0.74197
 B112 B 0.85798 0.76293 0.79128
 B113 B 0.78109 0.74780 0.82057
 B114 B 0.70240 0.75943 0.78877
 B115 B 0.78706 0.72629 0.72361
 B116 B 0.83212 0.72743 0.77886
 B117 B 0.73897 0.72562 0.77746
 B118 B 0.70644 0.74548 0.72830
 B119 B 0.78323 0.76067 0.69899
 B120 B 0.86190 0.74902 0.73062
 B121 B 0.26100 0.22562 0.72262
 B122 B 0.16785 0.22743 0.72122
 B123 B 0.21291 0.22629 0.77647
 B124 B 0.29353 0.24548 0.77178
 B125 B 0.29757 0.25943 0.71131
 B126 B 0.21888 0.24781 0.67951
 B127 B 0.17481 0.28292 0.75811
 B128 B 0.26793 0.28067 0.75974
 B129 B 0.22323 0.28239 0.70443
 B130 B 0.14199 0.26294 0.70880
 B131 B 0.13807 0.24902 0.76946
 B132 B 0.21674 0.26067 0.80109
 B133 B 0.23892 0.77412 0.22263
 B134 B 0.33207 0.77231 0.22123
 B135 B 0.28701 0.77345 0.27648
 B136 B 0.20639 0.75426 0.27179
 B137 B 0.20235 0.74030 0.21132
 B138 B 0.28104 0.75193 0.17952
 B139 B 0.32512 0.71682 0.25812
 B140 B 0.23200 0.71907 0.25975
 B141 B 0.27669 0.71735 0.20444
 B142 B 0.35793 0.73681 0.20881
 B143 B 0.36185 0.75072 0.26947
 B144 B 0.28319 0.73907 0.30110
 B145 B 0.28706 0.72629 0.77646
 B146 B 0.33212 0.72743 0.72122
 B147 B 0.23897 0.72562 0.72261
 B148 B 0.20644 0.74548 0.77177
 B149 B 0.28323 0.76067 0.80109
 B150 B 0.36190 0.74902 0.76946
 B151 B 0.27674 0.78239 0.70442
 B152 B 0.23204 0.78067 0.75973
 B153 B 0.32516 0.78292 0.75810
 B154 B 0.35798 0.76294 0.70880
 B155 B 0.28110 0.74781 0.67950
 B156 B 0.20240 0.75943 0.71130
 B157 B 0.17486 0.21682 0.25811
 B158 B 0.26799 0.21907 0.25975
 B159 B 0.22329 0.21735 0.20444
 B160 B 0.14205 0.23681 0.20881
 B161 B 0.13813 0.25072 0.26947
 B162 B 0.21680 0.23907 0.30110
 B163 B 0.26106 0.27412 0.22263
 B164 B 0.16791 0.27231 0.22123
 B165 B 0.21297 0.27344 0.27648
 B166 B 0.29359 0.25426 0.27179
 B167 B 0.29763 0.24031 0.21132
 B168 B 0.21894 0.25194 0.17952
 B169 B 0.82512 0.71682 0.24197
 B170 B 0.73199 0.71907 0.24034
 B171 B 0.77669 0.71735 0.29565
 B172 B 0.85793 0.73681 0.29127
 B173 B 0.86185 0.75072 0.23061
 B174 B 0.78318 0.73907 0.19898
 B175 B 0.73892 0.77412 0.27745
 B176 B 0.83207 0.77231 0.27885
 B177 B 0.78701 0.77345 0.22360
 B178 B 0.70639 0.75426 0.22829
 B179 B 0.70235 0.74031 0.28876
 B180 B 0.78104 0.75194 0.32056
 B181 B 0.71291 0.22629 0.72362
 B182 B 0.66786 0.22743 0.77887
 B183 B 0.76100 0.22562 0.77747
 B184 B 0.79353 0.24548 0.72830
 B185 B 0.71674 0.26067 0.69899
 B186 B 0.63807 0.24902 0.73062
 B187 B 0.72324 0.28239 0.79566
 B188 B 0.76793 0.28067 0.74035
 B189 B 0.67481 0.28292 0.74198
 B190 B 0.64200 0.26293 0.79128
 B191 B 0.71888 0.24780 0.82058
 B192 B 0.79758 0.25943 0.78878
 C193 C 0.02968 0.37491 0.83470
 C194 C 0.07983 0.39021 0.87463
 C195 C 0.07549 0.41964 0.84436
 C196 C 0.02478 0.40472 0.80470
 C197 C 0.10016 0.36663 0.80484
 C198 C 0.09600 0.39586 0.77419
 C199 C 0.15053 0.38159 0.84455
 C200 C 0.14623 0.41131 0.81453
 C201 C 0.06153 0.44703 0.87273
 C202 C 0.04797 0.46638 0.90288
 C203 C 0.11766 0.33667 0.78687
 C204 C 0.13806 0.31224 0.77412
 H205 H -0.01699 0.35915 0.84255
 H206 H 0.07318 0.38821 0.91631
 H207 H -0.02713 0.41478 0.78900
 H208 H 0.10284 0.39755 0.73254
 H209 H 0.20166 0.37132 0.86093
 H210 H 0.19385 0.42659 0.80647
 C211 C 0.40394 0.60388 0.27419
 C212 C 0.47516 0.59502 0.30469
 C213 C 0.42446 0.58010 0.34435
 C214 C 0.35372 0.58843 0.31453
 C215 C 0.39978 0.63311 0.30484
 C216 C 0.34942 0.61814 0.34455
 C217 C 0.47026 0.62483 0.33469
 C218 C 0.42012 0.60952 0.37463
 C219 C 0.43843 0.55271 0.37272
 C220 C 0.45198 0.53336 0.40287
 C221 C 0.38228 0.66306 0.28687
 C222 C 0.36187 0.68750 0.27413
 H223 H 0.39708 0.60219 0.23254
 H224 H 0.52707 0.58497 0.28899
 H225 H 0.30610 0.57315 0.30647
 H226 H 0.29829 0.62842 0.36094
 H227 H 0.51694 0.64059 0.34254
 H228 H 0.42677 0.61152 0.41631
 C229 C 0.97028 0.87491 0.66538
 C230 C 0.92013 0.89022 0.62545
 C231 C 0.92447 0.91964 0.65572
 C232 C 0.97518 0.90472 0.69538
 C233 C 0.89980 0.86663 0.69524
 C234 C 0.90397 0.89586 0.72589
 C235 C 0.84943 0.88159 0.65554
 C236 C 0.85374 0.91131 0.68555
 C237 C 0.93843 0.94703 0.62735
 C238 C 0.95198 0.96638 0.59720
 C239 C 0.88231 0.83667 0.71321
 C240 C 0.86191 0.81224 0.72596
 H241 H 1.01695 0.85915 0.65753
 H242 H 0.92676 0.88821 0.58377
 H243 H 1.02710 0.91477 0.71107
 H244 H 0.89714 0.89755 0.76754
 H245 H 0.79830 0.87132 0.63916
 H246 H 0.80612 0.92659 0.69362
 C247 C 0.52973 0.12483 0.16539
 C248 C 0.57987 0.10952 0.12546
 C249 C 0.57553 0.08010 0.15573
 C250 C 0.52483 0.09502 0.19540
 C251 C 0.60021 0.13311 0.19524
 C252 C 0.59604 0.10388 0.22590
 C253 C 0.65057 0.11814 0.15554
 C254 C 0.64627 0.08843 0.18556
 C255 C 0.56157 0.05271 0.12737
 C256 C 0.54801 0.03336 0.09722
 C257 C 0.61771 0.16307 0.21321
 C258 C 0.63811 0.18750 0.22595
 H259 H 0.48305 0.14059 0.15754
 H260 H 0.57322 0.11152 0.08378
 H261 H 0.47291 0.08497 0.21109
 H262 H 0.60289 0.10219 0.26755
 H263 H 0.70170 0.12841 0.13915
 H264 H 0.69389 0.07315 0.19363
 C265 C 0.82463 0.11558 0.34206
 C266 C 0.85482 0.10930 0.39579
 C267 C 0.80614 0.08085 0.39825
 C268 C 0.77611 0.08685 0.34464
 C269 C 0.76010 0.13372 0.36556
 C270 C 0.71080 0.10542 0.36785
 C271 C 0.79009 0.12766 0.41910
 C272 C 0.74148 0.09889 0.42191
 C273 C 0.84101 0.05333 0.41823
 C274 C 0.87791 0.03364 0.43748
 C275 C 0.74114 0.16367 0.34576
 C276 C 0.73067 0.18796 0.32661
 H277 H 0.85844 0.12269 0.30887
 H278 H 0.91423 0.11057 0.40798
 H279 H 0.77043 0.06992 0.31406
 H280 H 0.65093 0.10419 0.35665
 H281 H 0.79586 0.14461 0.44963
 H282 H 0.70707 0.09168 0.45474
 C283 C 0.29005 0.37209 0.58097
 C284 C 0.24145 0.40085 0.57817
 C285 C 0.30612 0.41889 0.60182
 C286 C 0.35479 0.39044 0.60428
 C287 C 0.26006 0.36602 0.63451
 C288 C 0.32460 0.38416 0.65801
 C289 C 0.21077 0.39433 0.63223
 C290 C 0.27609 0.41289 0.65544
 C291 C 0.34100 0.44641 0.58184
 C292 C 0.37791 0.46610 0.56259
 C293 C 0.24109 0.33607 0.65431
 C294 C 0.23061 0.31178 0.67345
 H295 H 0.29580 0.35513 0.55044
 H296 H 0.20704 0.40807 0.54534
 H297 H 0.41419 0.38916 0.59209
 H298 H 0.35841 0.37705 0.69120
 H299 H 0.15090 0.39556 0.64343
 H300 H 0.27043 0.42982 0.68601
 C301 C 0.70992 0.87208 0.91911
 C302 C 0.75853 0.90085 0.92192
 C303 C 0.69386 0.91889 0.89826
 C304 C 0.64519 0.89044 0.89581
 C305 C 0.73992 0.86602 0.86557
 C306 C 0.67538 0.88416 0.84207
 C307 C 0.78921 0.89433 0.86786
 C308 C 0.72389 0.91289 0.84465
 C309 C 0.65898 0.94641 0.91824
 C310 C 0.62208 0.96610 0.93749
 C311 C 0.75888 0.83607 0.84577
 C312 C 0.76936 0.81178 0.82663
 H313 H 0.70417 0.85513 0.94964
 H314 H 0.79294 0.90806 0.95475
 H315 H 0.58578 0.88916 0.90800
 H316 H 0.64157 0.87705 0.80888
 H317 H 0.84908 0.89556 0.85666
 H318 H 0.72956 0.92982 0.81407
 C319 C 0.20988 0.62765 0.08098
 C320 C 0.25850 0.59889 0.07817
 C321 C 0.19383 0.58085 0.10183
 C322 C 0.14515 0.60930 0.10429
 C323 C 0.23988 0.63372 0.13452
 C324 C 0.17535 0.61558 0.15802
 C325 C 0.28917 0.60541 0.13223
 C326 C 0.22386 0.58685 0.15544
 C327 C 0.15895 0.55333 0.08185
 C328 C 0.12205 0.53364 0.06260
 C329 C 0.25884 0.66367 0.15432
 C330 C 0.26932 0.68796 0.17346
 H331 H 0.20412 0.64461 0.05045
 H332 H 0.29290 0.59167 0.04534
 H333 H 0.08575 0.61057 0.09210
 H334 H 0.14154 0.62269 0.19121
 H335 H 0.34904 0.60419 0.14343
 H336 H 0.22953 0.56992 0.18602
 C337 C 0.48400 0.87619 0.19807
 C338 C 0.50063 0.88561 0.14251
 C339 C 0.44373 0.91142 0.14763
 C340 C 0.42745 0.90261 0.20285
 C341 C 0.42048 0.85589 0.17863
 C342 C 0.36395 0.88172 0.18390
 C343 C 0.43702 0.86485 0.12364
 C344 C 0.38061 0.89088 0.12859
 C345 C 0.45346 0.94104 0.12375
 C346 C 0.46216 0.96266 0.09673
 C347 C 0.39986 0.82512 0.19327
 C348 C 0.37537 0.80078 0.20473
 H349 H 0.52664 0.86968 0.22662
 H350 H 0.55720 0.88752 0.12533
 H351 H 0.42336 0.91829 0.23537
 H352 H 0.30819 0.87960 0.20205
 H353 H 0.44094 0.84917 0.09110
 H354 H 0.33915 0.89713 0.09913
 C355 C 0.51599 0.37619 0.30201
 C356 C 0.49936 0.38561 0.35758
 C357 C 0.55626 0.41142 0.35246
 C358 C 0.57254 0.40261 0.29724
 C359 C 0.57951 0.35589 0.32145
 C360 C 0.63604 0.38173 0.31618
 C361 C 0.56297 0.36485 0.37644
 C362 C 0.61938 0.39088 0.37150
 C363 C 0.54654 0.44104 0.37634
 C364 C 0.53783 0.46266 0.40336
 C365 C 0.60013 0.32513 0.30681
 C366 C 0.62462 0.30078 0.29535
 H367 H 0.47334 0.36969 0.27347
 H368 H 0.44280 0.38752 0.37476
 H369 H 0.57662 0.41830 0.26472
 H370 H 0.69179 0.37960 0.29803
 H371 H 0.55906 0.34917 0.40898
 H372 H 0.66085 0.39713 0.40096
 C373 C 0.86397 0.61802 0.81619
 C374 C 0.92746 0.59713 0.79725
 C375 C 0.94374 0.58831 0.85247
 C376 C 0.88063 0.60886 0.87151
 C377 C 0.92052 0.64385 0.82146
 C378 C 0.93706 0.63489 0.87646
 C379 C 0.98402 0.62354 0.80202
 C380 C 1.00065 0.61412 0.85759
 C381 C 0.95344 0.55870 0.87635
 C382 C 0.96214 0.53707 0.90337
 C383 C 0.89990 0.67461 0.80682
 C384 C 0.87541 0.69896 0.79537
 H385 H 0.80821 0.62015 0.79805
 H386 H 0.92336 0.58144 0.76473
 H387 H 0.83916 0.60262 0.90097
 H388 H 0.94098 0.65057 0.90899
 H389 H 1.02667 0.63005 0.77348
 H390 H 1.05721 0.61221 0.87476
 C391 C 0.01594 0.12354 0.69806
 C392 C -0.00069 0.11412 0.64249
 C393 C 0.05622 0.08831 0.64761
 C394 C 0.07250 0.09713 0.70283
 C395 C 0.07945 0.14385 0.67862
 C396 C 0.13599 0.11802 0.68389
 C397 C 0.06291 0.13489 0.62362
 C398 C 0.11934 0.10886 0.62857
 C399 C 0.04652 0.05870 0.62374
 C400 C 0.03782 0.03708 0.59671
 C401 C 0.10007 0.17462 0.69326
 C402 C 0.12456 0.19896 0.70471
 H403 H -0.02670 0.13005 0.72660
 H404 H -0.05725 0.11221 0.62532
 H405 H 0.07659 0.08145 0.73535
 H406 H 0.19175 0.12015 0.70204
 H407 H 0.05899 0.15057 0.59108
 H408 H 0.16080 0.10262 0.59911
 C409 C 0.17401 0.35124 0.42368
 C410 C 0.22553 0.37909 0.42953
 C411 C 0.15809 0.39937 0.41784
 C412 C 0.10658 0.37195 0.41244
 C413 C 0.19177 0.35054 0.36677
 C414 C 0.12471 0.37094 0.35529
 C415 C 0.24372 0.37786 0.37192
 C416 C 0.17598 0.39863 0.36089
 C417 C 0.13147 0.42613 0.44446
 C418 C 0.10205 0.44762 0.46363
 C419 C 0.20357 0.32339 0.33668
 C420 C 0.20900 0.30125 0.31082
 H421 H 0.17330 0.33146 0.44918
 H422 H 0.26689 0.38284 0.46027
 H423 H 0.05028 0.36987 0.42990
 H424 H 0.08502 0.36694 0.32369
 H425 H 0.30025 0.37990 0.35475
 H426 H 0.17643 0.41837 0.33529
 C427 C 0.37530 0.62880 0.85527
 C428 C 0.39343 0.62778 0.91242
 C429 C 0.34191 0.60037 0.91782
 C430 C 0.32402 0.60111 0.86087
 C431 C 0.30825 0.64920 0.86675
 C432 C 0.25629 0.62188 0.87191
 C433 C 0.32601 0.64849 0.92367
 C434 C 0.27448 0.62065 0.92951
 C435 C 0.36853 0.57360 0.94444
 C436 C 0.39793 0.55211 0.96361
 C437 C 0.29645 0.67635 0.83666
 C438 C 0.29103 0.69849 0.81081
 H439 H 0.41499 0.63279 0.82368
 H440 H 0.44973 0.62986 0.92988
 H441 H 0.32356 0.58137 0.83527
 H442 H 0.19975 0.61984 0.85473
 H443 H 0.32673 0.66828 0.94917
 H444 H 0.23311 0.61691 0.96025
 C445 C 0.67396 0.14849 0.57642
 C446 C 0.72548 0.12064 0.57058
 C447 C 0.65806 0.10037 0.58226
 C448 C 0.60653 0.12778 0.58766
 C449 C 0.69171 0.14919 0.63333
 C450 C 0.62466 0.12879 0.64481
 C451 C 0.74367 0.12188 0.62818
 C452 C 0.67594 0.10111 0.63921
 C453 C 0.63143 0.07360 0.55565
 C454 C 0.60203 0.05211 0.53647
 C455 C 0.70351 0.17635 0.66342
 C456 C 0.70894 0.19849 0.68928
 H457 H 0.67324 0.16827 0.55092
 H458 H 0.76685 0.11690 0.53984
 H459 H 0.55024 0.12986 0.57020
 H460 H 0.58497 0.13279 0.67641
 H461 H 0.80021 0.11984 0.64535
 H462 H 0.67640 0.08137 0.66482
 C463 C 0.82596 0.85125 0.07640
 C464 C 0.77445 0.87910 0.07056
 C465 C 0.84189 0.89937 0.08224
 C466 C 0.89340 0.87195 0.08764
 C467 C 0.80822 0.85054 0.13332
 C468 C 0.87528 0.87094 0.14479
 C469 C 0.75627 0.87786 0.12816
 C470 C 0.82401 0.89863 0.13919
 C471 C 0.86852 0.92613 0.05563
 C472 C 0.89793 0.94762 0.03645
 C473 C 0.79641 0.82339 0.16340
 C474 C 0.79098 0.80125 0.18926
 H475 H 0.82667 0.83146 0.05090
 H476 H 0.73308 0.88284 0.03982
 H477 H 0.94969 0.86986 0.07018
 H478 H 0.91497 0.86694 0.17638
 H479 H 0.69974 0.87990 0.14534
 H480 H 0.82357 0.91837 0.16480
 C481 C 0.85452 0.11553 0.81137
 C482 C 0.93134 0.11087 0.83758
 C483 C 0.89038 0.09849 0.88420
 C484 C 0.81428 0.10253 0.85849
 C485 C 0.85009 0.14683 0.83532
 C486 C 0.80932 0.13427 0.88191
 C487 C 0.92640 0.14272 0.86095
 C488 C 0.88592 0.12981 0.90794
 C489 C 0.91167 0.07230 0.91313
 C490 C 0.93131 0.05128 0.93781
 C491 C 0.82482 0.17428 0.81151
 C492 C 0.79982 0.19713 0.79494
 H493 H 0.84129 0.11022 0.77128
 H494 H 0.98086 0.10018 0.81973
 H495 H 0.77015 0.08503 0.85770
 H496 H 0.75903 0.14446 0.89967
 H497 H 0.97157 0.15983 0.86136
 H498 H 0.89905 0.13520 0.94802
 C499 C 0.07358 0.64272 0.63913
 C500 C 0.11406 0.62981 0.59214
 C501 C 0.10960 0.59849 0.61588
 C502 C 0.06864 0.61087 0.66250
 C503 C 0.14989 0.64683 0.66476
 C504 C 0.14546 0.61553 0.68871
 C505 C 0.19066 0.63427 0.61818
 C506 C 0.18570 0.60253 0.64160
 C507 C 0.08831 0.57230 0.58695
 C508 C 0.06868 0.55128 0.56227
 C509 C 0.17516 0.67428 0.68856
 C510 C 0.20016 0.69713 0.70514
 H511 H 0.02842 0.65983 0.63872
 H512 H 0.10093 0.63519 0.55205
 H513 H 0.01912 0.60018 0.68035
 H514 H 0.15869 0.61022 0.72880
 H515 H 0.24096 0.64446 0.60041
 H516 H 0.22984 0.58503 0.64239
 C517 C 0.57354 0.85701 0.36096
 C518 C 0.61403 0.86992 0.40795
 C519 C 0.60957 0.90124 0.38421
 C520 C 0.56859 0.88887 0.33760
 C521 C 0.64984 0.85291 0.33531
 C522 C 0.64540 0.88421 0.31138
 C523 C 0.69063 0.86547 0.38190
 C524 C 0.68566 0.89720 0.35849
 C525 C 0.58828 0.92743 0.41315
 C526 C 0.56865 0.94845 0.43783
 C527 C 0.67510 0.82546 0.31150
 C528 C 0.70010 0.80261 0.29493
 H529 H 0.52838 0.83991 0.36137
 H530 H 0.60092 0.86453 0.44803
 H531 H 0.51906 0.89955 0.31975
 H532 H 0.65862 0.88953 0.27129
 H533 H 0.74093 0.85528 0.39966
 H534 H 0.72979 0.91470 0.35769
 C535 C 0.42643 0.35701 0.13912
 C536 C 0.38594 0.36992 0.09214
 C537 C 0.39040 0.40124 0.11587
 C538 C 0.43138 0.38887 0.16248
 C539 C 0.35014 0.35291 0.16477
 C540 C 0.35457 0.38421 0.18871
 C541 C 0.30935 0.36547 0.11819
 C542 C 0.31431 0.39720 0.14160
 C543 C 0.41168 0.42743 0.08694
 C544 C 0.43132 0.44845 0.06225
 C545 C 0.32487 0.32546 0.18858
 C546 C 0.29988 0.30261 0.20515
 H547 H 0.47160 0.33991 0.13870
 H548 H 0.39905 0.36454 0.05205
 H549 H 0.48091 0.39955 0.18033
 H550 H 0.34136 0.38952 0.22880
 H551 H 0.25904 0.35528 0.10043
 H552 H 0.27018 0.41470 0.14240
 C553 C 0.53143 0.64040 0.16977
 C554 C 0.53475 0.63933 0.11100
 C555 C 0.55938 0.60643 0.11399
 C556 C 0.55548 0.60696 0.17210
 C557 C 0.61454 0.64938 0.17077
 C558 C 0.63890 0.61643 0.17367
 C559 C 0.61823 0.64874 0.11264
 C560 C 0.64227 0.61553 0.11524
 C561 C 0.53493 0.58162 0.08212
 C562 C 0.52054 0.55997 0.05695
 C563 C 0.65063 0.67330 0.19942
 C564 C 0.68452 0.69323 0.21968
 H565 H 0.48640 0.65086 0.19278
 H566 H 0.49162 0.64835 0.08482
 H567 H 0.52919 0.58921 0.19553
 H568 H 0.68177 0.60735 0.20000
 H569 H 0.64467 0.66618 0.08854
 H570 H 0.68730 0.60504 0.09227
 C571 C 0.03146 0.85934 0.83027
 C572 C 0.03474 0.86040 0.88904
 C573 C 0.05938 0.89331 0.88607
 C574 C 0.05552 0.89278 0.82796
 C575 C 0.11457 0.85035 0.82929
 C576 C 0.13894 0.88330 0.82641
 C577 C 0.11822 0.85098 0.88743
 C578 C 0.14227 0.88420 0.88484
 C579 C 0.03493 0.91811 0.91794
 C580 C 0.02053 0.93976 0.94311
 C581 C 0.15066 0.82644 0.80065
 C582 C 0.18456 0.80651 0.78039
 H583 H -0.01356 0.84889 0.80725
 H584 H -0.00841 0.85138 0.91521
 H585 H 0.02926 0.91054 0.80453
 H586 H 0.18183 0.89238 0.80010
 H587 H 0.14463 0.83354 0.91153
 H588 H 0.18730 0.89468 0.90783
 C589 C 0.36107 0.11643 0.32641
 C590 C 0.44449 0.10695 0.32798
 C591 C 0.44060 0.10643 0.38609
 C592 C 0.35771 0.11553 0.38484
 C593 C 0.38543 0.14938 0.32931
 C594 C 0.38175 0.14874 0.38744
 C595 C 0.46855 0.14039 0.33031
 C596 C 0.46523 0.13933 0.38908
 C597 C 0.46504 0.08162 0.41796
 C598 C 0.47943 0.05997 0.44313
 C599 C 0.34935 0.17330 0.30066
 C600 C 0.31546 0.19323 0.28040
 H601 H 0.31820 0.10735 0.30009
 H602 H 0.47077 0.08920 0.30455
 H603 H 0.31267 0.10505 0.40782
 H604 H 0.35532 0.16619 0.41154
 H605 H 0.51358 0.15085 0.30730
 H606 H 0.50836 0.14835 0.41525
 C607 C 0.96851 0.35934 0.66980
 C608 C 0.96522 0.36040 0.61103
 C609 C 0.94059 0.39330 0.61401
 C610 C 0.94446 0.39278 0.67211
 C611 C 0.88540 0.35035 0.67078
 C612 C 0.86104 0.38330 0.67368
 C613 C 0.88173 0.35099 0.61265
 C614 C 0.85770 0.38420 0.61525
 C615 C 0.96504 0.41811 0.58214
 C616 C 0.97944 0.43976 0.55697
 C617 C 0.84930 0.32644 0.69943
 C618 C 0.81541 0.30651 0.71969
 H619 H 1.01353 0.34888 0.69281
 H620 H 1.00835 0.35138 0.58486
 H621 H 0.97073 0.41053 0.69555
 H622 H 0.81816 0.39239 0.69999
 H623 H 0.85531 0.33355 0.58855
 H624 H 0.81267 0.39469 0.59226
 C625 C 0.84941 0.61814 0.15554
 C626 C 0.92011 0.60952 0.12546
 C627 C 0.92445 0.58010 0.15574
 C628 C 0.85371 0.58843 0.18556
 C629 C 0.89977 0.63311 0.19525
 C630 C 0.90394 0.60388 0.22590
 C631 C 0.97025 0.62483 0.16539
 C632 C 0.97515 0.59502 0.19540
 C633 C 0.93842 0.55270 0.12737
 C634 C 0.95197 0.53336 0.09722
 C635 C 0.88227 0.66306 0.21321
 C636 C 0.86186 0.68750 0.22596
 H637 H 0.79828 0.62841 0.13916
 H638 H 0.92676 0.61152 0.08378
 H639 H 0.80609 0.57315 0.19363
 H640 H 0.89709 0.60219 0.26755
 H641 H 1.01693 0.64059 0.15755
 H642 H 1.02706 0.58497 0.21110
 C643 C 0.59600 0.39586 0.72590
 C644 C 0.64623 0.41131 0.68556
 C645 C 0.57550 0.41964 0.65573
 C646 C 0.52479 0.40472 0.69539
 C647 C 0.60017 0.36663 0.69525
 C648 C 0.52969 0.37491 0.66539
 C649 C 0.65054 0.38159 0.65554
 C650 C 0.57984 0.39022 0.62546
 C651 C 0.56154 0.44703 0.62736
 C652 C 0.54799 0.46638 0.59721
 C653 C 0.61766 0.33668 0.71322
 C654 C 0.63806 0.31224 0.72596
 H655 H 0.60284 0.39755 0.76755
 H656 H 0.69385 0.42659 0.69363
 H657 H 0.47287 0.41477 0.71108
 H658 H 0.48302 0.35915 0.65753
 H659 H 0.70167 0.37132 0.63916
 H660 H 0.57320 0.38821 0.58378
 C661 C 0.15056 0.11814 0.34455
 C662 C 0.07986 0.10952 0.37462
 C663 C 0.07552 0.08010 0.34435
 C664 C 0.14626 0.08843 0.31453
 C665 C 0.10021 0.13311 0.30483
 C666 C 0.09604 0.10388 0.27418
 C667 C 0.02972 0.12483 0.33469
 C668 C 0.02482 0.09502 0.30468
 C669 C 0.06155 0.05271 0.37272
 C670 C 0.04799 0.03336 0.40286
 C671 C 0.11771 0.16306 0.28687
 C672 C 0.13812 0.18750 0.27413
 H673 H 0.20169 0.12841 0.36093
 H674 H 0.07321 0.11152 0.41630
 H675 H 0.19388 0.07315 0.30646
 H676 H 0.10289 0.10219 0.23253
 H677 H -0.01695 0.14059 0.34253
 H678 H -0.02709 0.08497 0.28898
 C679 C 0.40397 0.89586 0.77419
 C680 C 0.35374 0.91131 0.81453
 C681 C 0.42448 0.91964 0.84436
 C682 C 0.47518 0.90472 0.80469
 C683 C 0.39980 0.86663 0.80484
 C684 C 0.47029 0.87491 0.83469
 C685 C 0.34944 0.88159 0.84455
 C686 C 0.42014 0.89022 0.87463
 C687 C 0.43844 0.94703 0.87273
 C688 C 0.45200 0.96638 0.90288
 C689 C 0.38231 0.83668 0.78687
 C690 C 0.36190 0.81224 0.77412
 H691 H 0.39712 0.89755 0.73254
 H692 H 0.30612 0.92659 0.80647
 H693 H 0.52710 0.91478 0.78900
 H694 H 0.51696 0.85915 0.84254
 H695 H 0.29831 0.87132 0.86093
 H696 H 0.42679 0.88821 0.91631
 C697 C 0.17537 0.88416 0.65801
 C698 C 0.22388 0.91289 0.65543
 C699 C 0.19385 0.91889 0.60182
 C700 C 0.14518 0.89044 0.60427
 C701 C 0.23991 0.86602 0.63450
 C702 C 0.20992 0.87209 0.58096
 C703 C 0.28920 0.89433 0.63222
 C704 C 0.25853 0.90085 0.57816
 C705 C 0.15897 0.94641 0.58184
 C706 C 0.12206 0.96610 0.56259
 C707 C 0.25888 0.83607 0.65431
 C708 C 0.26936 0.81178 0.67345
 H709 H 0.14156 0.87705 0.69120
 H710 H 0.22954 0.92982 0.68601
 H711 H 0.08578 0.88916 0.59208
 H712 H 0.20417 0.85513 0.55043
 H713 H 0.34907 0.89556 0.64342
 H714 H 0.29293 0.90807 0.54534
 C715 C 0.78918 0.60542 0.36786
 C716 C 0.75850 0.59889 0.42192
 C717 C 0.69384 0.58085 0.39826
 C718 C 0.72387 0.58685 0.34465
 C719 C 0.73989 0.63372 0.36557
 C720 C 0.67535 0.61558 0.34206
 C721 C 0.70989 0.62765 0.41911
 C722 C 0.64516 0.60930 0.39580
 C723 C 0.65897 0.55333 0.41824
 C724 C 0.62206 0.53364 0.43748
 C725 C 0.75884 0.66367 0.34577
 C726 C 0.76931 0.68796 0.32662
 H727 H 0.84905 0.60419 0.35666
 H728 H 0.79291 0.59168 0.45475
 H729 H 0.72955 0.56992 0.31407
 H730 H 0.64154 0.62268 0.30887
 H731 H 0.70412 0.64461 0.44964
 H732 H 0.58575 0.61057 0.40799
 C733 C 0.29009 0.12765 0.08097
 C734 C 0.35483 0.10930 0.10428
 C735 C 0.30615 0.08085 0.10183
 C736 C 0.24148 0.09889 0.07817
 C737 C 0.26010 0.13372 0.13451
 C738 C 0.21081 0.10541 0.13223
 C739 C 0.32464 0.11558 0.15802
 C740 C 0.27612 0.08685 0.15544
 C741 C 0.34103 0.05333 0.08185
 C742 C 0.37793 0.03364 0.06261
 C743 C 0.24114 0.16367 0.15432
 C744 C 0.23067 0.18796 0.17346
 H745 H 0.29586 0.14461 0.05044
 H746 H 0.41423 0.11057 0.09209
 H747 H 0.20708 0.09167 0.04534
 H748 H 0.15094 0.10419 0.14343
 H749 H 0.35845 0.12269 0.19121
 H750 H 0.27045 0.06992 0.18602
 C751 C 0.82459 0.38416 0.84207
 C752 C 0.77608 0.41289 0.84465
 C753 C 0.80611 0.41889 0.89827
 C754 C 0.85478 0.39044 0.89581
 C755 C 0.76005 0.36602 0.86558
 C756 C 0.79005 0.37208 0.91912
 C757 C 0.71076 0.39433 0.86786
 C758 C 0.74144 0.40085 0.92192
 C759 C 0.84099 0.44641 0.91825
 C760 C 0.87790 0.46610 0.93750
 C761 C 0.74109 0.33607 0.84577
 C762 C 0.73061 0.31178 0.82663
 H763 H 0.85840 0.37705 0.80888
 H764 H 0.77041 0.42982 0.81408
 H765 H 0.91419 0.38916 0.90800
 H766 H 0.79580 0.35513 0.94965
 H767 H 0.65090 0.39556 0.85666
 H768 H 0.70703 0.40807 0.95475
 C769 C 0.56292 0.13489 0.87646
 C770 C 0.49932 0.11412 0.85759
 C771 C 0.55623 0.08831 0.85247
 C772 C 0.61934 0.10886 0.87151
 C773 C 0.57945 0.14385 0.82146
 C774 C 0.63600 0.11802 0.81619
 C775 C 0.51595 0.12354 0.80202
 C776 C 0.57251 0.09713 0.79725
 C777 C 0.54653 0.05869 0.87634
 C778 C 0.53784 0.03707 0.90337
 C779 C 0.60007 0.17461 0.80682
 C780 C 0.62456 0.19896 0.79537
 H781 H 0.55899 0.15057 0.90900
 H782 H 0.44276 0.11221 0.87477
 H783 H 0.66081 0.10262 0.90097
 H784 H 0.69175 0.12015 0.79805
 H785 H 0.47330 0.13005 0.77348
 H786 H 0.57661 0.08145 0.76473
 C787 C 0.43707 0.63489 0.62363
 C788 C 0.50066 0.61412 0.64250
 C789 C 0.44375 0.58832 0.64762
 C790 C 0.38064 0.60887 0.62857
 C791 C 0.42052 0.64385 0.67862
 C792 C 0.36398 0.61802 0.68389
 C793 C 0.48403 0.62354 0.69806
 C794 C 0.42747 0.59713 0.70284
 C795 C 0.45345 0.55870 0.62374
 C796 C 0.46215 0.53708 0.59672
 C797 C 0.39991 0.67462 0.69326
 C798 C 0.37542 0.69896 0.70471
 H799 H 0.44099 0.65057 0.59109
 H800 H 0.55723 0.61221 0.62532
 H801 H 0.33918 0.60262 0.59911
 H802 H 0.30822 0.62015 0.70204
 H803 H 0.52667 0.63005 0.72661
 H804 H 0.42337 0.58145 0.73535
 C805 C 0.13603 0.38172 0.18390
 C806 C 0.11937 0.39088 0.12859
 C807 C 0.05625 0.41142 0.14763
 C808 C 0.07253 0.40261 0.20285
 C809 C 0.07950 0.35589 0.17863
 C810 C 0.01598 0.37619 0.19807
 C811 C 0.06296 0.36485 0.12364
 C812 C -0.00065 0.38561 0.14251
 C813 C 0.04652 0.44104 0.12375
 C814 C 0.03782 0.46266 0.09673
 C815 C 0.10012 0.32512 0.19327
 C816 C 0.12462 0.30078 0.20473
 H817 H 0.19179 0.37960 0.20205
 H818 H 0.16083 0.39713 0.09913
 H819 H 0.07661 0.41829 0.23537
 H820 H -0.02666 0.36968 0.22662
 H821 H 0.05904 0.34917 0.09110
 H822 H -0.05722 0.38752 0.12533
 C823 C 0.86394 0.88172 0.31618
 C824 C 0.88061 0.89088 0.37150
 C825 C 0.94372 0.91142 0.35246
 C826 C 0.92744 0.90261 0.29724
 C827 C 0.92048 0.85589 0.32145
 C828 C 0.98399 0.87619 0.30201
 C829 C 0.93702 0.86485 0.37644
 C830 C 1.00062 0.88561 0.35757
 C831 C 0.95344 0.94104 0.37633
 C832 C 0.96215 0.96266 0.40335
 C833 C 0.89986 0.82513 0.30681
 C834 C 0.87536 0.80078 0.29536
 H835 H 0.80819 0.87960 0.29803
 H836 H 0.83914 0.89712 0.40096
 H837 H 0.92335 0.91829 0.26472
 H838 H 1.02663 0.86968 0.27346
 H839 H 0.94094 0.84917 0.40898
 H840 H 1.05719 0.88752 0.37475
 C841 C 0.75630 0.62187 0.62818
 C842 C 0.77449 0.62064 0.57058
 C843 C 0.84192 0.60036 0.58226
 C844 C 0.82404 0.60111 0.63921
 C845 C 0.80826 0.64919 0.63333
 C846 C 0.87532 0.62879 0.64480
 C847 C 0.82601 0.64849 0.57641
 C848 C 0.89344 0.62778 0.58766
 C849 C 0.86855 0.57360 0.55565
 C850 C 0.89795 0.55211 0.53647
 C851 C 0.79646 0.67635 0.66342
 C852 C 0.79103 0.69848 0.68927
 H853 H 0.69977 0.61984 0.64536
 H854 H 0.73312 0.61690 0.53984
 H855 H 0.82359 0.58137 0.66482
 H856 H 0.91501 0.63279 0.67640
 H857 H 0.82672 0.66827 0.55091
 H858 H 0.94973 0.62986 0.57020
 C859 C 0.62469 0.37094 0.14478
 C860 C 0.67596 0.39863 0.13919
 C861 C 0.65808 0.39937 0.08224
 C862 C 0.60657 0.37195 0.08763
 C863 C 0.69176 0.35055 0.13331
 C864 C 0.67401 0.35125 0.07639
 C865 C 0.74371 0.37787 0.12816
 C866 C 0.72552 0.37910 0.07055
 C867 C 0.63145 0.42613 0.05563
 C868 C 0.60204 0.44763 0.03645
 C869 C 0.70357 0.32339 0.16340
 C870 C 0.70900 0.30125 0.18925
 H871 H 0.58500 0.36694 0.17638
 H872 H 0.67641 0.41837 0.16480
 H873 H 0.55028 0.36987 0.07017
 H874 H 0.67330 0.33147 0.05089
 H875 H 0.80024 0.37991 0.14534
 H876 H 0.76689 0.38284 0.03982
 C877 C 0.37528 0.87094 0.35529
 C878 C 0.32401 0.89863 0.36089
 C879 C 0.34189 0.89937 0.41784
 C880 C 0.39340 0.87195 0.41244
 C881 C 0.30822 0.85054 0.36676
 C882 C 0.32597 0.85125 0.42368
 C883 C 0.25627 0.87786 0.37192
 C884 C 0.27445 0.87910 0.42952
 C885 C 0.36852 0.92613 0.44445
 C886 C 0.39793 0.94763 0.46363
 C887 C 0.29641 0.82339 0.33668
 C888 C 0.29098 0.80125 0.31082
 H889 H 0.41497 0.86694 0.32370
 H890 H 0.32356 0.91837 0.33528
 H891 H 0.44969 0.86987 0.42990
 H892 H 0.32667 0.83146 0.44918
 H893 H 0.19974 0.87990 0.35474
 H894 H 0.23308 0.88284 0.46026
 C895 C 0.24368 0.12188 0.87190
 C896 C 0.22549 0.12064 0.92951
 C897 C 0.15806 0.10036 0.91782
 C898 C 0.17595 0.10111 0.86087
 C899 C 0.19172 0.14919 0.86675
 C900 C 0.12466 0.12879 0.85527
 C901 C 0.17396 0.14849 0.92367
 C902 C 0.10653 0.12778 0.91242
 C903 C 0.13144 0.07360 0.94443
 C904 C 0.10203 0.05211 0.96361
 C905 C 0.20351 0.17635 0.83666
 C906 C 0.20894 0.19849 0.81081
 H907 H 0.30021 0.11984 0.85473
 H908 H 0.26685 0.11690 0.96025
 H909 H 0.17640 0.08137 0.83526
 H910 H 0.08497 0.13279 0.82367
 H911 H 0.17324 0.16827 0.94917
 H912 H 0.05024 0.12986 0.92988
 C913 C 0.14540 0.88421 0.18870
 C914 C 0.18566 0.89720 0.14159
 C915 C 0.10957 0.90124 0.11587
 C916 C 0.06859 0.88887 0.16248
 C917 C 0.14984 0.85291 0.16477
 C918 C 0.07355 0.85701 0.13912
 C919 C 0.19063 0.86546 0.11818
 C920 C 0.11404 0.86992 0.09213
 C921 C 0.08829 0.92743 0.08693
 C922 C 0.06865 0.94845 0.06225
 C923 C 0.17510 0.82545 0.18858
 C924 C 0.20010 0.80261 0.20515
 H925 H 0.15862 0.88952 0.22879
 H926 H 0.22979 0.91470 0.14239
 H927 H 0.01906 0.89955 0.18033
 H928 H 0.02838 0.83990 0.13870
 H929 H 0.24093 0.85528 0.10042
 H930 H 0.10092 0.86453 0.05205
 C931 C 0.85458 0.38421 0.31137
 C932 C 0.81433 0.39720 0.35848
 C933 C 0.89042 0.40124 0.38420
 C934 C 0.93140 0.38887 0.33759
 C935 C 0.85014 0.35291 0.33530
 C936 C 0.92644 0.35701 0.36095
 C937 C 0.80936 0.36547 0.38189
 C938 C 0.88595 0.36992 0.40794
 C939 C 0.91170 0.42743 0.41314
 C940 C 0.93133 0.44845 0.43783
 C941 C 0.82488 0.32546 0.31149
 C942 C 0.79988 0.30261 0.29492
 H943 H 0.84137 0.38953 0.27128
 H944 H 0.77019 0.41471 0.35769
 H945 H 0.98092 0.39955 0.31975
 H946 H 0.97161 0.33991 0.36136
 H947 H 0.75905 0.35528 0.39965
 H948 H 0.89906 0.36453 0.44802
 C949 C 0.30932 0.13427 0.61818
 C950 C 0.38592 0.12982 0.59214
 C951 C 0.39037 0.09849 0.61588
 C952 C 0.31427 0.10253 0.64159
 C953 C 0.35009 0.14683 0.66476
 C954 C 0.35452 0.11553 0.68871
 C955 C 0.42639 0.14273 0.63913
 C956 C 0.43134 0.11087 0.66250
 C957 C 0.41166 0.07230 0.58695
 C958 C 0.43130 0.05128 0.56227
 C959 C 0.32482 0.17428 0.68857
 C960 C 0.29982 0.19713 0.70514
 H961 H 0.25902 0.14446 0.60041
 H962 H 0.39904 0.13520 0.55206
 H963 H 0.27014 0.08503 0.64239
 H964 H 0.34129 0.11022 0.72880
 H965 H 0.47156 0.15983 0.63872
 H966 H 0.48086 0.10019 0.68035
 C967 C 0.69064 0.63427 0.88190
 C968 C 0.61404 0.62982 0.90794
 C969 C 0.60959 0.59850 0.88420
 C970 C 0.68569 0.60253 0.85849
 C971 C 0.64988 0.64683 0.83531
 C972 C 0.64545 0.61553 0.81137
 C973 C 0.57357 0.64273 0.86095
 C974 C 0.56863 0.61087 0.83758
 C975 C 0.58829 0.57230 0.91313
 C976 C 0.56866 0.55128 0.93781
 C977 C 0.67515 0.67428 0.81151
 C978 C 0.70015 0.69713 0.79494
 H979 H 0.74094 0.64446 0.89967
 H980 H 0.60091 0.63520 0.94802
 H981 H 0.72982 0.58503 0.85770
 H982 H 0.65868 0.61022 0.77128
 H983 H 0.52840 0.65983 0.86135
 H984 H 0.51910 0.60019 0.81973
 C985 C 0.36102 0.38330 0.82641
 C986 C 0.35768 0.38420 0.88484
 C987 C 0.44057 0.39331 0.88608
 C988 C 0.44445 0.39278 0.82797
 C989 C 0.38539 0.35036 0.82930
 C990 C 0.46850 0.35934 0.83029
 C991 C 0.38172 0.35099 0.88744
 C992 C 0.46521 0.36040 0.88906
 C993 C 0.46503 0.41811 0.91794
 C994 C 0.47942 0.43977 0.94312
 C995 C 0.34930 0.32644 0.80066
 C996 C 0.31541 0.30651 0.78040
 H997 H 0.31814 0.39239 0.80009
 H998 H 0.31265 0.39469 0.90782
 H999 H 0.47072 0.41053 0.80454
 H1000 H 0.51352 0.34888 0.80727
 H1001 H 0.35530 0.33355 0.91154
 H1002 H 0.50835 0.35138 0.91523
 C1003 C 0.96855 0.14040 0.16976
 C1004 C 0.94450 0.10696 0.17209
 C1005 C 0.94060 0.10643 0.11399
 C1006 C 0.96522 0.13933 0.11099
 C1007 C 0.88543 0.14938 0.17076
 C1008 C 0.88173 0.14874 0.11263
 C1009 C 0.86108 0.11643 0.17367
 C1010 C 0.85770 0.11553 0.11524
 C1011 C 0.96504 0.08162 0.08212
 C1012 C 0.97943 0.05997 0.05694
 C1013 C 0.84935 0.17330 0.19941
 C1014 C 0.81546 0.19323 0.21967
 H1015 H 1.01357 0.15086 0.19276
 H1016 H 0.97079 0.08921 0.19552
 H1017 H 1.00834 0.14835 0.08481
 H1018 H 0.85529 0.16618 0.08853
 H1019 H 0.81821 0.10735 0.20000
 H1020 H 0.81266 0.10504 0.09227
 C1021 C 0.63894 0.88330 0.67367
 C1022 C 0.64228 0.88420 0.61524
 C1023 C 0.55939 0.89331 0.61400
 C1024 C 0.55551 0.89278 0.67211
 C1025 C 0.61457 0.85035 0.67078
 C1026 C 0.53146 0.85934 0.66979
 C1027 C 0.61824 0.85099 0.61265
 C1028 C 0.53476 0.86040 0.61103
 C1029 C 0.53493 0.91811 0.58214
 C1030 C 0.52053 0.93976 0.55697
 C1031 C 0.65067 0.82644 0.69942
 C1032 C 0.68456 0.80651 0.71968
 H1033 H 0.68181 0.89239 0.69999
 H1034 H 0.68731 0.89469 0.59226
 H1035 H 0.52924 0.91053 0.69555
 H1036 H 0.48644 0.84888 0.69281
 H1037 H 0.64466 0.83355 0.58854
 H1038 H 0.49162 0.85138 0.58485
 C1039 C 0.11825 0.64874 0.38745
 C1040 C 0.03476 0.63933 0.38908
 C1041 C 0.05939 0.60642 0.38610
 C1042 C 0.14228 0.61553 0.38484
 C1043 C 0.11455 0.64938 0.32932
 C1044 C 0.13891 0.61643 0.32641
 C1045 C 0.03144 0.64039 0.33032
 C1046 C 0.05549 0.60695 0.32799
 C1047 C 0.03495 0.58162 0.41797
 C1048 C 0.02056 0.55997 0.44314
 C1049 C 0.15063 0.67330 0.30067
 C1050 C 0.18452 0.69323 0.28041
 H1051 H 0.14468 0.66618 0.41155
 H1052 H -0.00837 0.64835 0.41527
 H1053 H 0.18732 0.60504 0.40782
 H1054 H 0.18178 0.60735 0.30009
 H1055 H -0.01359 0.65085 0.30731
 H1056 H 0.02921 0.58920 0.30456
   
