data_POSCAR
  _audit_creation_date              2014-09-24
  _audit_creation_method            'ToBaCCo'
  _symmetry_space_group_name_H-M    'P1'
  _symmetry_Int_Tables_number       1
  _symmetry_cell_setting            triclinic
  loop_
  _symmetry_equiv_pos_as_xyz
 x,y,z
_cell_length_a 51.0122
_cell_length_b 50.9372
_cell_length_c 51.2936
_cell_angle_alpha 90.030700
_cell_angle_beta 90.020300
_cell_angle_gamma 90.011000
loop_
  _atom_site_label
  _atom_site_type_symbol
  _atom_site_fract_x
  _atom_site_fract_y
  _atom_site_fract_z
O1 O 0.34955 0.38644 0.02408
 O2 O 0.38534 0.35034 -0.02698
 O3 O 0.34926 0.38664 -0.02671
 O4 O 0.38555 0.35012 0.02383
 O5 O 0.35477 0.31954 0.02379
 O6 O 0.31855 0.35600 -0.02668
 O7 O 0.35457 0.31975 -0.02695
 O8 O 0.31882 0.35580 0.02404
 Cu9 Cu 0.37053 0.37147 -0.00146
 Cu10 Cu 0.33359 0.33469 -0.00146
 C11 C 0.32812 0.37721 0.03265
 C12 C 0.37601 0.32892 -0.03554
 C13 C 0.32773 0.37750 -0.03519
 C14 C 0.37627 0.32865 0.03233
 O15 O 0.65311 0.61592 0.02620
 O16 O 0.61731 0.65191 -0.02482
 O17 O 0.65350 0.61576 -0.02449
 O18 O 0.61705 0.65227 0.02590
 O19 O 0.64776 0.68291 0.02595
 O20 O 0.68417 0.64646 -0.02439
 O21 O 0.64800 0.68258 -0.02473
 O22 O 0.68380 0.64660 0.02627
 Cu23 Cu 0.63214 0.63087 0.00070
 Cu24 Cu 0.66903 0.66773 0.00079
 C25 C 0.67457 0.62511 0.03474
 C26 C 0.62658 0.67336 -0.03332
 C27 C 0.67505 0.62491 -0.03288
 C28 C 0.62620 0.67382 0.03434
 O29 O 0.61555 0.34828 1.02462
 O30 O 0.65147 0.38470 0.97395
 O31 O 0.61545 0.34833 0.97395
 O32 O 0.65162 0.38457 1.02477
 O33 O 0.68233 0.35393 1.02461
 O34 O 0.64620 0.31774 0.97384
 O35 O 0.68219 0.35406 0.97383
 O36 O 0.64630 0.31767 1.02447
 Cu37 Cu 0.63044 0.36959 0.99933
 Cu38 Cu 0.66738 0.33279 0.99917
 C39 C 0.62480 0.32677 1.03300
 C40 C 0.67291 0.37552 0.96536
 C41 C 0.62466 0.32684 0.96543
 C42 C 0.67310 0.37536 1.03327
 O43 O 0.38369 0.65205 1.02701
 O44 O 0.34716 0.61674 0.97593
 O45 O 0.38367 0.65262 0.97623
 O46 O 0.34706 0.61630 1.02661
 O47 O 0.31676 0.64734 1.02686
 O48 O 0.35334 0.68362 0.97652
 O49 O 0.31685 0.64777 0.97621
 O50 O 0.35336 0.68306 1.02726
 Cu51 Cu 0.36847 0.63131 1.00142
 Cu52 Cu 0.33204 0.66859 1.00174
 C53 C 0.37471 0.67355 1.03572
 C54 C 0.32578 0.62623 0.96755
 C55 C 0.37470 0.67428 0.96790
 C56 C 0.32565 0.62563 1.03514
 O57 O 0.02599 0.34614 0.38276
 O58 O -0.02522 0.38133 0.34622
 O59 O -0.02502 0.34560 0.38262
 O60 O 0.02573 0.38182 0.34627
 O61 O 0.02607 0.35069 0.31620
 O62 O -0.02466 0.31450 0.35254
 O63 O -0.02486 0.35020 0.31614
 O64 O 0.02634 0.31502 0.35268
 Cu65 Cu 0.00034 0.36686 0.36751
 Cu66 Cu 0.00076 0.32945 0.33137
 C67 C 0.03474 0.32460 0.37393
 C68 C -0.03359 0.37176 0.32496
 C69 C -0.03337 0.32389 0.37375
 C70 C 0.03437 0.37243 0.32503
 O71 O 0.02505 0.65234 0.61560
 O72 O -0.02619 0.61672 0.65173
 O73 O -0.02596 0.65278 0.61564
 O74 O 0.02489 0.61639 0.65181
 O75 O 0.02510 0.64730 0.68209
 O76 O -0.02570 0.68364 0.64598
 O77 O -0.02593 0.64762 0.68204
 O78 O 0.02527 0.68322 0.64593
 Cu79 Cu -0.00057 0.63143 0.63065
 Cu80 Cu -0.00029 0.66854 0.66708
 C81 C 0.03373 0.67385 0.62462
 C82 C -0.03468 0.62615 0.67301
 C83 C -0.03435 0.67440 0.62467
 C84 C 0.03354 0.62570 0.67309
 O85 O 1.02529 0.61289 0.34938
 O86 O 0.97418 0.64908 0.38522
 O87 O 0.97419 0.61258 0.34948
 O88 O 1.02518 0.64937 0.38507
 O89 O 1.02489 0.67982 0.35436
 O90 O 0.97398 0.64309 0.31882
 O91 O 0.97396 0.67953 0.35450
 O92 O 1.02500 0.64340 0.31872
 Cu93 Cu 0.99973 0.62789 0.37038
 Cu94 Cu 0.99942 0.66451 0.33349
 C95 C 1.03375 0.62205 0.32798
 C96 C 0.96554 0.67048 0.37595
 C97 C 0.96552 0.62162 0.32811
 C98 C 1.03358 0.67086 0.37575
 O99 O 0.97481 0.34928 0.61602
 O100 O 1.02578 0.38507 0.65245
 O101 O 1.02583 0.34902 0.61628
 O102 O 0.97481 0.38530 0.65225
 O103 O 0.97456 0.35443 0.68254
 O104 O 1.02553 0.31820 0.64662
 O105 O 1.02548 0.35420 0.68276
 O106 O 0.97456 0.31844 0.64636
 Cu107 Cu 1.00033 0.37028 0.63118
 Cu108 Cu 1.00000 0.33320 0.66761
 C109 C 0.96616 0.32776 0.62501
 C110 C 1.03413 0.37573 0.67382
 C111 C 1.03424 0.32743 0.62535
 C112 C 0.96618 0.37605 0.67354
 O113 O 0.38350 0.02682 0.34773
 O114 O 0.34784 -0.02468 0.38353
 O115 O 0.38385 -0.02421 0.34744
 O116 O 0.34752 0.02643 0.38390
 O117 O 0.31673 0.02640 0.35354
 O118 O 0.35306 -0.02421 0.31709
 O119 O 0.31707 -0.02467 0.35315
 O120 O 0.35268 0.02678 0.31740
 Cu121 Cu 0.36878 0.00110 0.36873
 Cu122 Cu 0.33177 0.00108 0.33225
 C123 C 0.37418 0.03537 0.32644
 C124 C 0.32639 -0.03332 0.37440
 C125 C 0.37465 -0.03266 0.32605
 C126 C 0.32595 0.03490 0.37492
 O127 O 0.61498 0.02534 0.65062
 O128 O 0.65129 -0.02606 0.61525
 O129 O 0.61498 -0.02579 0.65110
 O130 O 0.65121 0.02503 0.61476
 O131 O 0.68177 0.02532 0.64536
 O132 O 0.64558 -0.02543 0.68165
 O133 O 0.68184 -0.02570 0.64585
 O134 O 0.64558 0.02563 0.68117
 Cu135 Cu 0.63002 -0.00042 0.62985
 Cu136 Cu 0.66676 -0.00002 0.66660
 C137 C 0.62414 0.03412 0.67190
 C138 C 0.67276 -0.03446 0.62454
 C139 C 0.62413 -0.03413 0.67256
 C140 C 0.67266 0.03369 0.62390
 O141 O 0.38295 0.97208 0.65279
 O142 O 0.34753 1.02371 0.61697
 O143 O 0.38337 1.02313 0.65324
 O144 O 0.34710 0.97262 0.61650
 O145 O 0.31620 0.97261 0.64674
 O146 O 0.35246 1.02310 0.68346
 O147 O 0.31664 1.02366 0.64722
 O148 O 0.35203 0.97208 0.68300
 Cu149 Cu 0.36836 0.99788 0.63182
 Cu150 Cu 0.33121 0.99786 0.66815
 C151 C 0.37352 0.96346 0.67400
 C152 C 0.32606 1.03234 0.62603
 C153 C 0.37408 1.03158 0.67460
 C154 C 0.32548 0.96416 0.62538
 O155 O 0.65196 1.02733 0.38460
 O156 O 0.61570 0.97599 0.34903
 O157 O 0.65199 0.97624 0.38486
 O158 O 0.61554 1.02716 0.34884
 O159 O 0.64606 1.02705 0.31824
 O160 O 0.68248 0.97619 0.35422
 O161 O 0.64623 0.97595 0.31844
 O162 O 0.68244 1.02722 0.35395
 Cu163 Cu 0.63070 1.00170 0.36992
 Cu164 Cu 0.66736 1.00161 0.33312
 C165 C 0.67339 1.03585 0.37533
 C166 C 0.62486 0.96733 0.32771
 C167 C 0.67343 0.96768 0.37565
 C168 C 0.62462 1.03565 0.32742
 C169 C 0.82647 0.79215 0.48567
 C170 C 0.82561 0.79129 0.51325
 C171 C 0.80792 0.80753 0.52661
 C172 C 0.79174 0.82525 0.51320
 C173 C 0.79272 0.82624 0.48563
 C174 C 0.81007 0.80966 0.47227
 H175 H 0.81055 0.81011 0.45113
 H176 H 0.80763 0.80728 0.54775
 C177 C 0.17512 0.20926 0.48862
 C178 C 0.17400 0.20826 0.51618
 C179 C 0.19037 0.19075 0.52958
 C180 C 0.20782 0.17425 0.51623
 C181 C 0.20894 0.17526 0.48867
 C182 C 0.19287 0.19307 0.47527
 H183 H 0.19325 0.19340 0.45414
 H184 H 0.18977 0.19019 0.55071
 C185 C 0.17457 0.79005 0.51131
 C186 C 0.17357 0.79096 0.48374
 C187 C 0.19000 0.80844 0.47035
 C188 C 0.20742 0.82496 0.48373
 C189 C 0.20844 0.82402 0.51130
 C190 C 0.19229 0.80627 0.52468
 H191 H 0.19259 0.80599 0.54582
 H192 H 0.18947 0.80893 0.44922
 C193 C 0.82686 0.20775 0.51354
 C194 C 0.82599 0.20862 0.48596
 C195 C 0.80817 0.19251 0.47260
 C196 C 0.79183 0.17493 0.48600
 C197 C 0.79277 0.17400 0.51357
 C198 C 0.81027 0.19043 0.52694
 H199 H 0.81073 0.18999 0.54807
 H200 H 0.80790 0.19273 0.45146
 C201 C 0.48665 0.82419 0.79212
 C202 C 0.51436 0.82540 0.79293
 C203 C 0.52801 0.80919 0.81035
 C204 C 0.51474 0.79184 0.82698
 C205 C 0.48702 0.79070 0.82624
 C206 C 0.47338 0.80657 0.80849
 H207 H 0.45212 0.80615 0.80830
 H208 H 0.54925 0.80983 0.81074
 C209 C 0.48582 0.17579 0.20814
 C210 C 0.51357 0.17602 0.20804
 C211 C 0.52680 0.19298 0.19099
 C212 C 0.51307 0.20954 0.17394
 C213 C 0.48532 0.20957 0.17428
 C214 C 0.47208 0.19274 0.19146
 H215 H 0.45082 0.19252 0.19154
 H216 H 0.54806 0.19298 0.19068
 C217 C 0.51357 0.17482 0.79082
 C218 C 0.48582 0.17427 0.79086
 C219 C 0.47205 0.19137 0.80734
 C220 C 0.48524 0.20856 0.82423
 C221 C 0.51299 0.20872 0.82458
 C222 C 0.52677 0.19208 0.80764
 H223 H 0.54802 0.19225 0.80787
 H224 H 0.45079 0.19099 0.80733
 C225 C 0.51508 0.82569 0.20900
 C226 C 0.48733 0.82612 0.20909
 C227 C 0.47353 0.80911 0.19254
 C228 C 0.48668 0.79209 0.17546
 C229 C 0.51443 0.79196 0.17505
 C230 C 0.52824 0.80855 0.19203
 H231 H 0.54950 0.80844 0.19173
 H232 H 0.45227 0.80944 0.19263
 C233 C 0.79142 0.48687 0.82533
 C234 C 0.79132 0.51466 0.82602
 C235 C 0.80779 0.52863 0.80909
 C236 C 0.82479 0.51559 0.79192
 C237 C 0.82522 0.48780 0.79156
 C238 C 0.80831 0.47384 0.80805
 H239 H 0.80862 0.45255 0.80777
 H240 H 0.80770 0.54991 0.80960
 C241 C 0.20884 0.48568 0.17433
 C242 C 0.20875 0.51348 0.17418
 C243 C 0.19213 0.52701 0.19132
 C244 C 0.17515 0.51353 0.20817
 C245 C 0.17490 0.48574 0.20798
 C246 C 0.19196 0.47220 0.19128
 H247 H 0.19179 0.45091 0.19115
 H248 H 0.19209 0.54830 0.19123
 C249 C 0.79083 0.51131 0.17477
 C250 C 0.79092 0.48352 0.17470
 C251 C 0.80787 0.47009 0.19160
 C252 C 0.82485 0.48367 0.20837
 C253 C 0.82450 0.51146 0.20870
 C254 C 0.80739 0.52488 0.19196
 H255 H 0.80731 0.54617 0.19196
 H256 H 0.80819 0.44880 0.19137
 C257 C 0.20832 0.51493 0.82624
 C258 C 0.20846 0.48714 0.82579
 C259 C 0.19159 0.47388 0.80865
 C260 C 0.17451 0.48761 0.79211
 C261 C 0.17465 0.51541 0.79228
 C262 C 0.19164 0.52867 0.80931
 H263 H 0.19156 0.54996 0.80969
 H264 H 0.19144 0.45259 0.80849
 C265 C 0.26907 0.46040 0.13900
 C266 C 0.25785 0.44216 0.12188
 C267 C 0.23078 0.43767 0.12245
 C268 C 0.21493 0.45158 0.13983
 C269 C 0.31397 0.39131 0.05232
 C270 C 0.25323 0.47431 0.15644
 C271 C 0.27390 0.42834 0.10336
 C272 C 0.28693 0.41672 0.08752
 C273 C 0.30171 0.40306 0.06866
 C274 C 0.22598 0.47023 0.15675
 H275 H 0.29000 0.46398 0.13875
 H276 H 0.22190 0.42361 0.10927
 H277 H 0.19397 0.44818 0.13973
 H278 H 0.26215 0.48840 0.16954
 C279 C 0.74172 0.56021 0.14828
 C280 C 0.74423 0.55620 0.12139
 C281 C 0.76203 0.53758 0.11194
 C282 C 0.77726 0.52298 0.12931
 C283 C 0.68891 0.61072 0.05403
 C284 C 0.75694 0.54558 0.16568
 C285 C 0.72873 0.57131 0.10343
 C286 C 0.71594 0.58387 0.08813
 C287 C 0.70123 0.59843 0.06991
 C288 C 0.77468 0.52673 0.15632
 H289 H 0.72805 0.57462 0.15578
 H290 H 0.76420 0.53442 0.09116
 H291 H 0.79113 0.50882 0.12170
 H292 H 0.75475 0.54880 0.18644
 C293 C 0.76997 0.43769 0.87629
 C294 C 0.74288 0.44198 0.87703
 C295 C 0.73148 0.46048 0.86033
 C296 C 0.74717 0.47485 0.84314
 C297 C 0.68710 0.38979 0.94585
 C298 C 0.78567 0.45206 0.85915
 C299 C 0.72697 0.42771 0.89533
 C300 C 0.71404 0.41576 0.91099
 C301 C 0.69933 0.40176 0.92966
 C302 C 0.77444 0.47097 0.84265
 H303 H 0.77898 0.42344 0.88914
 H304 H 0.71052 0.46392 0.86073
 H305 H 0.73811 0.48913 0.83036
 H306 H 0.80665 0.44881 0.85910
 C307 C 0.23736 0.54015 0.88944
 C308 C 0.25506 0.55901 0.88028
 C309 C 0.25735 0.56358 0.85346
 C310 C 0.24205 0.54926 0.83586
 C311 C 0.31117 0.61214 0.94820
 C312 C 0.22204 0.52585 0.87188
 C313 C 0.27073 0.57373 0.89844
 C314 C 0.28369 0.58596 0.91388
 C315 C 0.29864 0.60015 0.93224
 C316 C 0.22444 0.53014 0.84493
 H317 H 0.23535 0.53655 0.91016
 H318 H 0.27095 0.57817 0.84617
 H319 H 0.24411 0.55289 0.81515
 H320 H 0.20828 0.51148 0.87927
 C321 C 0.14908 0.25880 0.44002
 C322 C 0.12199 0.25603 0.44343
 C323 C 0.11229 0.23799 0.46160
 C324 C 0.12958 0.22276 0.47631
 C325 C 0.05422 0.31056 0.38845
 C326 C 0.16642 0.24358 0.45476
 C327 C 0.10404 0.27143 0.42816
 C328 C 0.08866 0.28405 0.41549
 C329 C 0.07026 0.29849 0.40083
 C330 C 0.15679 0.22558 0.47315
 H331 H 0.15678 0.27266 0.42595
 H332 H 0.09136 0.23560 0.46429
 H333 H 0.12176 0.20867 0.49006
 H334 H 0.18734 0.24594 0.45198
 C335 C 0.14829 0.74046 0.55974
 C336 C 0.12121 0.74317 0.55613
 C337 C 0.11160 0.76126 0.53796
 C338 C 0.12897 0.77656 0.52341
 C339 C 0.05322 0.68805 0.61027
 C340 C 0.16570 0.75575 0.54515
 C341 C 0.10319 0.72763 0.57118
 C342 C 0.08775 0.71488 0.58365
 C343 C 0.06930 0.70026 0.59808
 C344 C 0.15616 0.77377 0.52673
 H345 H 0.15592 0.72657 0.57381
 H346 H 0.09069 0.76361 0.53512
 H347 H 0.12121 0.79066 0.50962
 H348 H 0.18661 0.75340 0.54805
 C349 C 0.87855 0.76975 0.43806
 C350 C 0.87832 0.74255 0.44195
 C351 C 0.86079 0.73145 0.45981
 C352 C 0.84366 0.74753 0.47388
 C353 C 0.94614 0.68498 0.39013
 C354 C 0.86147 0.78584 0.45213
 C355 C 0.89636 0.72617 0.42781
 C356 C 0.91176 0.71280 0.41595
 C357 C 0.93014 0.69759 0.40204
 C358 C 0.84407 0.77489 0.47034
 H359 H 0.89205 0.77853 0.42429
 H360 H 0.86042 0.71042 0.46292
 H361 H 0.83016 0.73867 0.48759
 H362 H 0.86210 0.80688 0.44913
 C363 C 0.87900 0.22950 0.56143
 C364 C 0.87907 0.25671 0.55764
 C365 C 0.86179 0.26803 0.53966
 C366 C 0.84459 0.25217 0.52541
 C367 C 0.94679 0.31343 0.61058
 C368 C 0.86185 0.21362 0.54719
 C369 C 0.89710 0.27287 0.57206
 C370 C 0.91248 0.28603 0.58419
 C371 C 0.93083 0.30101 0.59842
 C372 C 0.84466 0.22480 0.52890
 H373 H 0.89230 0.22054 0.57529
 H374 H 0.86165 0.28908 0.53663
 H375 H 0.83126 0.26120 0.51165
 H376 H 0.86223 0.19257 0.55015
 C377 C 0.46041 0.11273 0.23797
 C378 C 0.44182 0.12234 0.25564
 C379 C 0.43749 0.14941 0.25764
 C380 C 0.45179 0.16682 0.24210
 C381 C 0.38843 0.05479 0.31202
 C382 C 0.47468 0.13011 0.22242
 C383 C 0.42707 0.10435 0.27149
 C384 C 0.41479 0.08902 0.28456
 C385 C 0.40052 0.07074 0.29954
 C386 C 0.47063 0.15730 0.22452
 H387 H 0.46381 0.09181 0.23618
 H388 H 0.42310 0.15704 0.27120
 H389 H 0.44835 0.18773 0.24393
 H390 H 0.48884 0.12236 0.20869
 C391 C 0.53941 0.13978 0.73083
 C392 C 0.55797 0.12290 0.74194
 C393 C 0.56245 0.12351 0.76885
 C394 C 0.54824 0.14071 0.78467
 C395 C 0.60988 0.05381 0.68597
 C396 C 0.52518 0.15703 0.74664
 C397 C 0.57212 0.10456 0.72591
 C398 C 0.58400 0.08885 0.71291
 C399 C 0.59794 0.07010 0.69817
 C400 C 0.52928 0.15739 0.77373
 H401 H 0.53582 0.13948 0.71001
 H402 H 0.57676 0.11052 0.77764
 H403 H 0.55165 0.14065 0.80551
 H404 H 0.51087 0.16995 0.73779
 C405 C 0.45944 0.88662 0.76263
 C406 C 0.44141 0.87660 0.74463
 C407 C 0.43798 0.84942 0.74229
 C408 C 0.45266 0.83231 0.75783
 C409 C 0.38766 0.94392 0.68837
 C410 C 0.47409 0.86956 0.77818
 C411 C 0.42638 0.89432 0.72874
 C412 C 0.41399 0.90957 0.71570
 C413 C 0.39970 0.92789 0.70079
 C414 C 0.47099 0.84227 0.77573
 H415 H 0.46215 0.90762 0.76469
 H416 H 0.42401 0.84148 0.72846
 H417 H 0.44994 0.81133 0.75575
 H418 H 0.48781 0.87763 0.79217
 C419 C 0.54100 0.86082 0.26893
 C420 C 0.55932 0.87791 0.25775
 C421 C 0.56368 0.87736 0.23082
 C422 C 0.54955 0.86003 0.21505
 C423 C 0.61069 0.94757 0.31362
 C424 C 0.52687 0.84343 0.25317
 C425 C 0.57333 0.89643 0.27373
 C426 C 0.58507 0.91228 0.28670
 C427 C 0.59886 0.93118 0.30142
 C428 C 0.53081 0.84315 0.22605
 H429 H 0.53752 0.86105 0.28976
 H430 H 0.57779 0.89052 0.22197
 H431 H 0.55284 0.86015 0.19419
 H432 H 0.51272 0.83036 0.26206
 C433 C 0.45939 0.26907 0.85882
 C434 C 0.44112 0.25790 0.87590
 C435 C 0.43677 0.23077 0.87552
 C436 C 0.45086 0.21480 0.85838
 C437 C 0.39004 0.31460 0.94486
 C438 C 0.47348 0.25311 0.84162
 C439 C 0.42717 0.27409 0.89422
 C440 C 0.41548 0.28724 0.90991
 C441 C 0.40178 0.30220 0.92862
 C442 C 0.46956 0.22580 0.84151
 H443 H 0.46286 0.29006 0.85892
 H444 H 0.42270 0.22193 0.88867
 H445 H 0.44759 0.19379 0.85864
 H446 H 0.48759 0.26200 0.82856
 C447 C 0.54159 0.73207 0.86201
 C448 C 0.55952 0.74370 0.87916
 C449 C 0.56310 0.77094 0.87893
 C450 C 0.54866 0.78655 0.86177
 C451 C 0.61238 0.68769 0.94723
 C452 C 0.52714 0.74767 0.84480
 C453 C 0.57403 0.72782 0.89727
 C454 C 0.58618 0.71484 0.91274
 C455 C 0.60035 0.70003 0.93119
 C456 C 0.53039 0.77507 0.84473
 H457 H 0.53872 0.71100 0.86200
 H458 H 0.57691 0.78013 0.89214
 H459 H 0.55142 0.80764 0.86203
 H460 H 0.51340 0.73842 0.83158
 C461 C 0.43772 0.77048 0.12435
 C462 C 0.44187 0.74332 0.12378
 C463 C 0.46030 0.73194 0.14057
 C464 C 0.47470 0.74772 0.15771
 C465 C 0.38910 0.68758 0.05527
 C466 C 0.45210 0.78625 0.14143
 C467 C 0.42748 0.72734 0.10561
 C468 C 0.41540 0.71440 0.09004
 C469 C 0.40122 0.69973 0.07144
 C470 C 0.47090 0.77505 0.15806
 H471 H 0.42352 0.77948 0.11143
 H472 H 0.46363 0.71094 0.14031
 H473 H 0.48888 0.73866 0.17058
 H474 H 0.44892 0.80728 0.14137
 C475 C 0.53842 0.23837 0.11074
 C476 C 0.55710 0.25626 0.11994
 C477 C 0.56150 0.25874 0.14677
 C478 C 0.54719 0.24346 0.16436
 C479 C 0.61052 0.31222 0.05223
 C480 C 0.52413 0.22306 0.12830
 C481 C 0.57184 0.27189 0.10179
 C482 C 0.58412 0.28483 0.08639
 C483 C 0.59840 0.29973 0.06810
 C484 C 0.52826 0.22565 0.15526
 H485 H 0.53495 0.23621 0.09001
 H486 H 0.57596 0.27248 0.15408
 H487 H 0.55069 0.24566 0.18508
 H488 H 0.50990 0.20915 0.12089
 C489 C 0.22892 0.12141 0.56363
 C490 C 0.25612 0.12129 0.56006
 C491 C 0.26766 0.13885 0.54249
 C492 C 0.25202 0.15634 0.52838
 C493 C 0.31195 0.05207 0.61190
 C494 C 0.21326 0.13885 0.54953
 C495 C 0.27203 0.10287 0.57422
 C496 C 0.28499 0.08713 0.58610
 C497 C 0.29972 0.06837 0.60001
 C498 C 0.22466 0.15628 0.53161
 H499 H 0.21980 0.10789 0.57718
 H500 H 0.28870 0.13895 0.53963
 H501 H 0.26121 0.16986 0.51490
 H502 H 0.19221 0.13848 0.55227
 C503 C 0.74154 0.14909 0.43805
 C504 C 0.74393 0.12194 0.44169
 C505 C 0.76214 0.11214 0.45964
 C506 C 0.77783 0.12938 0.47397
 C507 C 0.68713 0.05426 0.38871
 C508 C 0.75723 0.16637 0.45241
 C509 C 0.72790 0.10404 0.42697
 C510 C 0.71473 0.08869 0.41478
 C511 C 0.69967 0.07031 0.40067
 C512 C 0.77532 0.15665 0.47065
 H513 H 0.72756 0.15687 0.42415
 H514 H 0.76424 0.09118 0.46251
 H515 H 0.79197 0.12148 0.48762
 H516 H 0.75509 0.18732 0.44951
 C517 C 0.76236 0.88812 0.53968
 C518 C 0.74406 0.87836 0.55753
 C519 C 0.74150 0.85122 0.56108
 C520 C 0.75712 0.83390 0.54672
 C521 C 0.68730 0.94606 0.61047
 C522 C 0.77799 0.87085 0.52534
 C523 C 0.72807 0.89629 0.57226
 C524 C 0.71493 0.91165 0.58444
 C525 C 0.69986 0.93003 0.59854
 C526 C 0.77531 0.84359 0.52856
 H527 H 0.76459 0.90909 0.53688
 H528 H 0.72744 0.84347 0.57491
 H529 H 0.75484 0.81295 0.54953
 H530 H 0.79220 0.87872 0.51175
 C531 C 0.26743 0.86026 0.45770
 C532 C 0.25599 0.87782 0.44005
 C533 C 0.22880 0.87771 0.43634
 C534 C 0.21306 0.86029 0.45038
 C535 C 0.31219 0.94699 0.38849
 C536 C 0.25170 0.84278 0.47174
 C537 C 0.27199 0.89624 0.42598
 C538 C 0.28504 0.91196 0.41417
 C539 C 0.29988 0.93071 0.40033
 C540 C 0.22435 0.84287 0.46838
 H541 H 0.28845 0.86014 0.46067
 H542 H 0.21976 0.89123 0.42275
 H543 H 0.19202 0.86068 0.44753
 H544 H 0.26082 0.82927 0.48528
 C545 C 0.11141 0.46204 0.76258
 C546 C 0.12093 0.44346 0.74483
 C547 C 0.14796 0.43920 0.74266
 C548 C 0.16542 0.45354 0.75813
 C549 C 0.05343 0.38999 0.68839
 C550 C 0.12883 0.47636 0.77807
 C551 C 0.10291 0.42868 0.72902
 C552 C 0.08758 0.41639 0.71597
 C553 C 0.06932 0.40210 0.70095
 C554 C 0.15598 0.47238 0.77580
 H555 H 0.09052 0.46539 0.76450
 H556 H 0.15552 0.42483 0.72903
 H557 H 0.18628 0.45016 0.75617
 H558 H 0.12115 0.49051 0.79186
 C559 C 0.12333 0.56164 0.23054
 C560 C 0.12291 0.55705 0.25744
 C561 C 0.14012 0.53871 0.26841
 C562 C 0.15749 0.52480 0.25248
 C563 C 0.05344 0.60793 0.31380
 C564 C 0.14065 0.54774 0.21460
 C565 C 0.10444 0.57087 0.27358
 C566 C 0.08863 0.58249 0.28667
 C567 C 0.06978 0.59616 0.30152
 C568 C 0.15766 0.52898 0.22540
 H569 H 0.11009 0.57578 0.22185
 H570 H 0.13998 0.53504 0.28921
 H571 H 0.17066 0.51063 0.26121
 H572 H 0.14044 0.55121 0.19377
 C573 C 0.88824 0.45808 0.23718
 C574 C 0.87891 0.43916 0.25466
 C575 C 0.85192 0.43467 0.25687
 C576 C 0.83431 0.44913 0.24172
 C577 C 0.94698 0.38580 0.31038
 C578 C 0.87066 0.47252 0.22202
 C579 C 0.89709 0.42432 0.27019
 C580 C 0.91256 0.41202 0.28305
 C581 C 0.93097 0.39779 0.29790
 C582 C 0.84354 0.46831 0.22434
 H583 H 0.90909 0.46162 0.23524
 H584 H 0.84452 0.42003 0.27029
 H585 H 0.81347 0.44557 0.24371
 H586 H 0.87818 0.48694 0.20843
 C587 C 0.87617 0.56452 0.77030
 C588 C 0.87653 0.56043 0.74332
 C589 C 0.85941 0.54216 0.73206
 C590 C 0.84220 0.52782 0.74778
 C591 C 0.94565 0.61214 0.68731
 C592 C 0.85902 0.55019 0.78603
 C593 C 0.89487 0.57463 0.72737
 C594 C 0.91059 0.58649 0.71439
 C595 C 0.92936 0.60034 0.69961
 C596 C 0.84211 0.53150 0.77493
 H597 H 0.88935 0.57860 0.77921
 H598 H 0.85950 0.53887 0.71119
 H599 H 0.82910 0.51371 0.73882
 H600 H 0.85929 0.55327 0.80692
 C601 C 0.74219 0.56289 0.85389
 C602 C 0.74456 0.55807 0.88066
 C603 C 0.76232 0.53915 0.88958
 C604 C 0.77762 0.52506 0.87183
 C605 C 0.68878 0.61127 0.94893
 C606 C 0.75746 0.54878 0.83610
 C607 C 0.72896 0.57268 0.89903
 C608 C 0.71608 0.58487 0.91457
 C609 C 0.70122 0.59913 0.93299
 C610 C 0.77516 0.52961 0.84492
 H611 H 0.72855 0.57754 0.84677
 H612 H 0.76441 0.53535 0.91026
 H613 H 0.79144 0.51066 0.87906
 H614 H 0.75534 0.55263 0.81544
 C615 C 0.23050 0.43839 0.87704
 C616 C 0.25756 0.44294 0.87779
 C617 C 0.26874 0.46151 0.86099
 C618 C 0.25287 0.47564 0.84372
 C619 C 0.31411 0.39106 0.94646
 C620 C 0.21463 0.45252 0.85983
 C621 C 0.27367 0.42883 0.89610
 C622 C 0.28678 0.41697 0.91174
 C623 C 0.30171 0.40302 0.93035
 C624 C 0.22563 0.47148 0.84323
 H625 H 0.22164 0.42409 0.88994
 H626 H 0.28966 0.46516 0.86135
 H627 H 0.26180 0.48995 0.83088
 H628 H 0.19368 0.44904 0.85980
 C629 C 0.23788 0.53926 0.11120
 C630 C 0.25556 0.55807 0.12054
 C631 C 0.25779 0.56244 0.14741
 C632 C 0.24247 0.54797 0.16488
 C633 C 0.31179 0.61197 0.05322
 C634 C 0.22254 0.52481 0.12863
 C635 C 0.27127 0.57296 0.10251
 C636 C 0.28426 0.58534 0.08720
 C637 C 0.29924 0.59975 0.06901
 C638 C 0.22488 0.52889 0.15563
 H639 H 0.23590 0.53580 0.09045
 H640 H 0.27136 0.57699 0.15485
 H641 H 0.24450 0.55145 0.18561
 H642 H 0.20881 0.51048 0.12108
 C643 C 0.73101 0.45803 0.13876
 C644 C 0.74242 0.43989 0.12166
 C645 C 0.76951 0.43555 0.12243
 C646 C 0.78518 0.44949 0.13998
 C647 C 0.68659 0.38873 0.05184
 C648 C 0.74668 0.47198 0.15637
 C649 C 0.72652 0.42597 0.10300
 C650 C 0.71359 0.41428 0.08710
 C651 C 0.69885 0.40054 0.06819
 C652 C 0.77395 0.46804 0.15690
 H653 H 0.71006 0.46150 0.13837
 H654 H 0.77855 0.42157 0.10929
 H655 H 0.80616 0.44620 0.14003
 H656 H 0.73758 0.48596 0.16945
 C657 C 0.85213 0.74165 0.56164
 C658 C 0.87920 0.74411 0.55773
 C659 C 0.88871 0.76212 0.53943
 C660 C 0.87129 0.77754 0.52504
 C661 C 0.94730 0.68810 0.61114
 C662 C 0.83465 0.75707 0.54722
 C663 C 0.89730 0.72835 0.57256
 C664 C 0.91278 0.71541 0.58483
 C665 C 0.93125 0.70053 0.59907
 C666 C 0.84409 0.77498 0.52864
 H667 H 0.84455 0.72783 0.57581
 H668 H 0.90961 0.76429 0.53633
 H669 H 0.87900 0.79154 0.51113
 H670 H 0.81377 0.75487 0.55035
 C671 C 0.85287 0.25786 0.43740
 C672 C 0.87992 0.25515 0.44126
 C673 C 0.88931 0.23715 0.45964
 C674 C 0.87177 0.22196 0.47414
 C675 C 0.94826 0.31030 0.38734
 C676 C 0.83529 0.24268 0.45192
 C677 C 0.89812 0.27063 0.42629
 C678 C 0.91366 0.28336 0.41389
 C679 C 0.93219 0.29802 0.39951
 C680 C 0.84460 0.22476 0.47056
 H681 H 0.84539 0.27167 0.42318
 H682 H 0.91019 0.23478 0.46270
 H683 H 0.87939 0.20794 0.48808
 H684 H 0.81442 0.24506 0.44881
 C685 C 0.12130 0.22981 0.56359
 C686 C 0.12120 0.25704 0.55988
 C687 C 0.13871 0.26844 0.54216
 C688 C 0.15612 0.25265 0.52809
 C689 C 0.05265 0.31375 0.61191
 C690 C 0.13867 0.21401 0.54953
 C691 C 0.10291 0.27314 0.57407
 C692 C 0.08732 0.28628 0.58598
 C693 C 0.06876 0.30128 0.59996
 C694 C 0.15606 0.22526 0.53148
 H695 H 0.10784 0.22078 0.57724
 H696 H 0.13885 0.28949 0.53917
 H697 H 0.16960 0.26175 0.51452
 H698 H 0.13827 0.19295 0.55242
 C699 C 0.12089 0.76912 0.43639
 C700 C 0.12080 0.74192 0.44026
 C701 C 0.13837 0.73062 0.45799
 C702 C 0.15581 0.74650 0.47194
 C703 C 0.05201 0.68471 0.38903
 C704 C 0.13829 0.78501 0.45034
 C705 C 0.10242 0.72572 0.42626
 C706 C 0.08677 0.71247 0.41454
 C707 C 0.06815 0.69732 0.40079
 C708 C 0.15571 0.77387 0.46843
 H709 H 0.10738 0.77807 0.42273
 H710 H 0.13852 0.70959 0.46110
 H711 H 0.16931 0.73748 0.48555
 H712 H 0.13786 0.80606 0.44736
 C713 C 0.56168 0.87825 0.77095
 C714 C 0.55785 0.87809 0.74392
 C715 C 0.54010 0.86034 0.73279
 C716 C 0.52610 0.84296 0.74866
 C717 C 0.60985 0.94647 0.68703
 C718 C 0.54769 0.86092 0.78682
 C719 C 0.57199 0.89634 0.72775
 C720 C 0.58388 0.91190 0.71456
 C721 C 0.59787 0.93041 0.69953
 C722 C 0.52960 0.84329 0.77585
 H723 H 0.57536 0.89189 0.77977
 H724 H 0.53703 0.86000 0.71190
 H725 H 0.51250 0.82930 0.73976
 H726 H 0.55066 0.86152 0.80772
 C727 C 0.43872 0.85328 0.25800
 C728 C 0.44322 0.88032 0.25585
 C729 C 0.46213 0.88964 0.23837
 C730 C 0.47648 0.87203 0.22311
 C731 C 0.38911 0.94812 0.31150
 C732 C 0.45309 0.83564 0.24276
 C733 C 0.42832 0.89853 0.27138
 C734 C 0.41588 0.91396 0.28422
 C735 C 0.40139 0.93226 0.29904
 C736 C 0.47221 0.84487 0.22532
 H737 H 0.42409 0.84586 0.27141
 H738 H 0.46569 0.91052 0.23646
 H739 H 0.49084 0.87957 0.20948
 H740 H 0.44946 0.81478 0.24468
 C741 C 0.56219 0.12434 0.22993
 C742 C 0.55797 0.12392 0.25689
 C743 C 0.53964 0.14103 0.26805
 C744 C 0.52540 0.15831 0.25226
 C745 C 0.61028 0.05517 0.31313
 C746 C 0.54796 0.14156 0.21414
 C747 C 0.57222 0.10561 0.27293
 C748 C 0.58419 0.08997 0.28596
 C749 C 0.59825 0.07133 0.30080
 C750 C 0.52925 0.15850 0.22512
 H751 H 0.57631 0.11119 0.22108
 H752 H 0.53625 0.14092 0.28890
 H753 H 0.51129 0.17142 0.26116
 H754 H 0.55120 0.14135 0.19327
 C755 C 0.43716 0.14638 0.74235
 C756 C 0.44191 0.11940 0.74463
 C757 C 0.46094 0.11035 0.76213
 C758 C 0.47520 0.12818 0.77724
 C759 C 0.38843 0.05087 0.68917
 C760 C 0.45143 0.16425 0.75744
 C761 C 0.42717 0.10096 0.72919
 C762 C 0.41489 0.08535 0.71641
 C763 C 0.40057 0.06686 0.70162
 C764 C 0.47071 0.15530 0.77486
 H765 H 0.42244 0.15360 0.72891
 H766 H 0.46470 0.08952 0.76414
 H767 H 0.48968 0.12085 0.79086
 H768 H 0.44763 0.18506 0.75539
 C769 C 0.53941 0.76246 0.11188
 C770 C 0.55822 0.74472 0.12108
 C771 C 0.56280 0.74254 0.14791
 C772 C 0.54858 0.75797 0.16548
 C773 C 0.61175 0.68840 0.05349
 C774 C 0.52520 0.77791 0.12942
 C775 C 0.57294 0.72896 0.10294
 C776 C 0.58522 0.71595 0.08756
 C777 C 0.59956 0.70096 0.06931
 C778 C 0.52952 0.77564 0.15638
 H779 H 0.53579 0.76442 0.09116
 H780 H 0.57736 0.72893 0.15524
 H781 H 0.55224 0.75598 0.18619
 H782 H 0.51089 0.79171 0.12197
 C783 C 0.43697 0.23104 0.12245
 C784 C 0.44144 0.25814 0.12153
 C785 C 0.45975 0.26955 0.13845
 C786 C 0.47374 0.25387 0.15600
 C787 C 0.39040 0.31426 0.05188
 C788 C 0.45095 0.21535 0.13994
 C789 C 0.42753 0.27407 0.10290
 C790 C 0.41587 0.28706 0.08702
 C791 C 0.40217 0.30189 0.06816
 C792 C 0.46969 0.22657 0.15665
 H793 H 0.42286 0.22200 0.10945
 H794 H 0.46333 0.29051 0.13797
 H795 H 0.48788 0.26296 0.16892
 H796 H 0.44757 0.19435 0.14008
 C797 C 0.56140 0.25821 0.85159
 C798 C 0.55685 0.25606 0.87843
 C799 C 0.53806 0.23832 0.88767
 C800 C 0.52384 0.22283 0.87017
 C801 C 0.61028 0.31233 0.94616
 C802 C 0.54716 0.24274 0.83405
 C803 C 0.57158 0.27184 0.89655
 C804 C 0.58384 0.28486 0.91195
 C805 C 0.59814 0.29982 0.93026
 C806 C 0.52811 0.22508 0.84320
 H807 H 0.57594 0.27182 0.84424
 H808 H 0.53447 0.23639 0.90840
 H809 H 0.50954 0.20903 0.87764
 H810 H 0.55079 0.24470 0.81334
 C811 C 0.46106 0.76226 0.88946
 C812 C 0.44273 0.74400 0.88028
 C813 C 0.43877 0.74110 0.85340
 C814 C 0.45316 0.75633 0.83578
 C815 C 0.38911 0.68866 0.94857
 C816 C 0.47541 0.77750 0.87189
 C817 C 0.42789 0.72847 0.89851
 C818 C 0.41558 0.71569 0.91406
 C819 C 0.40126 0.70098 0.93255
 C820 C 0.47175 0.77451 0.84489
 H821 H 0.46419 0.76478 0.91020
 H822 H 0.42459 0.72708 0.84608
 H823 H 0.44998 0.75380 0.81506
 H824 H 0.48932 0.79172 0.87934
 C825 C 0.73282 0.86180 0.45948
 C826 C 0.74432 0.87932 0.44183
 C827 C 0.77152 0.87911 0.43818
 C828 C 0.78719 0.86163 0.45226
 C829 C 0.68791 0.94820 0.38985
 C830 C 0.74848 0.84427 0.47356
 C831 C 0.72836 0.89775 0.42764
 C832 C 0.71530 0.91343 0.41574
 C833 C 0.70036 0.93207 0.40178
 C834 C 0.77584 0.84424 0.47026
 H835 H 0.71179 0.86174 0.46241
 H836 H 0.78063 0.89258 0.42458
 H837 H 0.80823 0.86195 0.44943
 H838 H 0.73930 0.83079 0.48709
 C839 C 0.23747 0.88705 0.53798
 C840 C 0.25549 0.87738 0.55619
 C841 C 0.25808 0.85025 0.55978
 C842 C 0.24275 0.83285 0.54516
 C843 C 0.31104 0.94492 0.61082
 C844 C 0.22213 0.86969 0.52339
 C845 C 0.27108 0.89538 0.57131
 C846 C 0.28391 0.91073 0.58387
 C847 C 0.29867 0.92903 0.59846
 C848 C 0.22480 0.84244 0.52671
 H849 H 0.23520 0.90800 0.53514
 H850 H 0.27191 0.84256 0.57387
 H851 H 0.24502 0.81192 0.54807
 H852 H 0.20809 0.87751 0.50959
 C853 C 0.25863 0.14898 0.44029
 C854 C 0.25596 0.12185 0.44383
 C855 C 0.23787 0.11220 0.46197
 C856 C 0.22255 0.12957 0.47655
 C857 C 0.31150 0.05420 0.38938
 C858 C 0.24332 0.16640 0.45490
 C859 C 0.27154 0.10383 0.42873
 C860 C 0.28437 0.08846 0.41621
 C861 C 0.29912 0.07012 0.40167
 C862 C 0.22530 0.15682 0.47328
 H863 H 0.27252 0.15667 0.42626
 H864 H 0.23554 0.09125 0.46477
 H865 H 0.20845 0.12176 0.49029
 H866 H 0.24565 0.18733 0.45203
 C867 C 0.77105 0.12143 0.56109
 C868 C 0.74386 0.12146 0.55739
 C869 C 0.73253 0.13903 0.53968
 C870 C 0.74836 0.15638 0.52558
 C871 C 0.68709 0.05309 0.60958
 C872 C 0.78689 0.13873 0.54700
 C873 C 0.72772 0.10321 0.57160
 C874 C 0.71457 0.08766 0.58355
 C875 C 0.69956 0.06915 0.59757
 C876 C 0.77572 0.15618 0.52894
 H877 H 0.78002 0.10792 0.57474
 H878 H 0.71151 0.13926 0.53671
 H879 H 0.73932 0.16990 0.51200
 H880 H 0.80792 0.13824 0.54987
 C881 C 0.85989 0.53673 0.26883
 C882 C 0.87682 0.55532 0.25781
 C883 C 0.87614 0.55997 0.23093
 C884 C 0.85883 0.54593 0.21506
 C885 C 0.94593 0.60721 0.31398
 C886 C 0.84252 0.52269 0.25296
 C887 C 0.89523 0.56938 0.27390
 C888 C 0.91096 0.58123 0.28694
 C889 C 0.92970 0.59520 0.30173
 C890 C 0.84207 0.52697 0.22589
 H891 H 0.86021 0.53301 0.28962
 H892 H 0.88916 0.57429 0.22219
 H893 H 0.85884 0.54949 0.19424
 H894 H 0.82955 0.50837 0.26174
 C895 C 0.88851 0.46292 0.76172
 C896 C 0.87913 0.44416 0.74408
 C897 C 0.85213 0.43961 0.74202
 C898 C 0.83458 0.45382 0.75751
 C899 C 0.94687 0.39050 0.68798
 C900 C 0.87099 0.47711 0.77723
 C901 C 0.89726 0.42940 0.72833
 C902 C 0.91266 0.41708 0.71535
 C903 C 0.93097 0.40271 0.70043
 C904 C 0.84386 0.47281 0.77510
 H905 H 0.90936 0.46651 0.76357
 H906 H 0.84466 0.42509 0.72849
 H907 H 0.81374 0.45017 0.75564
 H908 H 0.87858 0.49137 0.79096
 C909 C 0.13937 0.54135 0.73240
 C910 C 0.12223 0.55962 0.74362
 C911 C 0.12275 0.56387 0.77058
 C912 C 0.14010 0.54973 0.78631
 C913 C 0.05309 0.61144 0.68742
 C914 C 0.15678 0.52720 0.74813
 C915 C 0.10378 0.57374 0.72763
 C916 C 0.08804 0.58559 0.71462
 C917 C 0.06930 0.59951 0.69977
 C918 C 0.15706 0.53107 0.77527
 H919 H 0.13919 0.53793 0.71156
 H920 H 0.10957 0.57795 0.77947
 H921 H 0.13996 0.55298 0.80718
 H922 H 0.16990 0.51313 0.73918
 C923 C 0.14814 0.43659 0.25662
 C924 C 0.12112 0.44102 0.25460
 C925 C 0.11168 0.45997 0.23720
 C926 C 0.12915 0.47448 0.22195
 C927 C 0.05359 0.38686 0.31047
 C928 C 0.16565 0.45111 0.24139
 C929 C 0.10304 0.42605 0.27020
 C930 C 0.08769 0.41359 0.28310
 C931 C 0.06944 0.39911 0.29798
 C932 C 0.15630 0.47032 0.22408
 H933 H 0.15566 0.42193 0.26997
 H934 H 0.09081 0.46348 0.23538
 H935 H 0.12151 0.48890 0.20842
 H936 H 0.18650 0.44757 0.24325
   
