data_POSCAR
  _audit_creation_date              2014-09-24
  _audit_creation_method            'ToBaCCo'
  _symmetry_space_group_name_H-M    'P1'
  _symmetry_Int_Tables_number       1
  _symmetry_cell_setting            triclinic
  loop_
  _symmetry_equiv_pos_as_xyz
 x,y,z
_cell_length_a 26.8898
_cell_length_b 26.4274
_cell_length_c 25.6581
_cell_angle_alpha 89.912900
_cell_angle_beta 88.926700
_cell_angle_gamma 88.683200
loop_
  _atom_site_label
  _atom_site_type_symbol
  _atom_site_fract_x
  _atom_site_fract_y
  _atom_site_fract_z
C1 C 0.13736 0.13322 0.20011
 N2 N 0.16693 0.11014 0.16353
 C3 C 0.19428 0.13764 0.12927
 N4 N 0.19140 0.18903 0.13142
 C5 C 0.15896 0.21224 0.16563
 N6 N 0.13249 0.18438 0.20019
 C7 C -0.17590 0.81392 0.23662
 N8 N -0.16629 0.77238 0.20676
 C9 C -0.19765 0.75946 0.16855
 N10 N -0.23905 0.78863 0.15984
 C11 C -0.24921 0.83022 0.18973
 N12 N -0.21749 0.84257 0.22814
 C13 C -0.18208 0.18964 -0.23514
 N14 N -0.14940 0.22105 -0.21282
 C15 C -0.14455 0.22215 -0.16056
 N16 N -0.17533 0.19459 -0.13004
 C17 C -0.21043 0.16522 -0.15141
 N18 N -0.21254 0.16113 -0.20441
 C19 C 0.16445 0.83536 -0.21493
 N20 N 0.20900 0.85814 -0.21356
 C21 C 0.24536 0.84010 -0.18218
 N22 N 0.23704 0.79862 -0.15232
 C23 C 0.19295 0.77469 -0.15445
 N24 N 0.15656 0.79326 -0.18564
 C25 C 0.19099 1.20606 0.73402
 N26 N 0.17284 1.23262 0.77611
 C27 C 0.19942 1.23343 0.82098
 N28 N 0.24226 1.20551 0.82407
 C29 C 0.26017 1.17875 0.78264
 N30 N 0.23514 1.18022 0.73733
 C31 C 0.86438 0.86573 0.80008
 N32 N 0.89641 0.83052 0.81977
 C33 C 0.87936 0.79207 0.84957
 N34 N 0.83029 0.79027 0.86188
 C35 C 0.79824 0.82633 0.84396
 N36 N 0.81503 0.86328 0.81172
 C37 C 0.17879 0.83763 1.24459
 N38 N 0.21664 0.84677 1.21020
 C39 C 0.22404 0.81685 1.16762
 N40 N 0.19374 0.77714 1.15993
 C41 C 0.15577 0.76789 1.19410
 N42 N 0.14837 0.79847 1.23606
 C43 C 0.79955 1.17588 1.21914
 N44 N 0.81564 1.22272 1.20459
 C45 C 0.78401 1.25507 1.17899
 N46 N 0.73641 1.24133 1.17135
 C47 C 0.72035 1.19520 1.18545
 N48 N 0.75243 1.16201 1.20786
 N49 N 0.46579 0.90357 0.92474
 N50 N 0.42539 0.87838 0.91323
 N51 N 0.57562 0.94028 0.91479
 N52 N 0.61619 0.92775 0.88739
 N53 N 0.56688 0.90599 0.95073
 N54 N 0.60092 0.86950 0.94887
 N55 N 0.47550 0.93692 0.88805
 N56 N 0.44259 0.93511 0.85095
 C57 C 0.41204 0.89820 0.86654
 C58 C 0.63161 0.88379 0.90978
 N59 N 0.55749 1.08603 0.94411
 N60 N 0.59543 1.11620 0.95005
 N61 N 0.46893 1.04502 0.88329
 N62 N 0.44102 1.04904 0.84159
 N63 N 0.45613 1.07997 0.91757
 N64 N 0.41922 1.10872 0.90024
 N65 N 0.56930 1.05007 0.91045
 N66 N 0.61493 1.05556 0.89162
 Mn67 Mn 0.52279 0.99306 0.89872
 C68 C 0.63057 1.09718 0.91650
 C69 C 0.41025 1.08893 0.85284
 N70 N 0.54183 0.90971 1.05988
 N71 N 0.58193 0.88367 1.07447
 N72 N 0.43006 0.94031 1.06981
 N73 N 0.38845 0.92992 1.09572
 N74 N 0.44004 0.90540 1.03462
 N75 N 0.40577 0.87054 1.03538
 N76 N 0.53154 0.94638 1.09318
 N77 N 0.56381 0.94621 1.13114
 Mn78 Mn 0.50349 0.90557 0.99249
 C79 C 0.59476 0.90677 1.11935
 C80 C 0.37368 0.88637 1.07338
 N81 N 0.42753 1.08252 1.02712
 N82 N 0.38382 1.10505 1.01858
 N83 N 0.52489 1.05564 1.08879
 N84 N 0.55187 1.06799 1.12939
 N85 N 0.52868 1.09005 1.05208
 N86 N 0.55766 1.12671 1.06654
 N87 N 0.42330 1.04880 1.06460
 N88 N 0.37710 1.04715 1.08203
 Mn89 Mn 0.49218 1.08527 0.98509
 Mn90 Mn 0.47752 0.99788 1.07973
 Cl91 Cl 0.49903 0.99544 0.98905
 C92 C 0.35308 1.08289 1.05399
 C93 C 0.57237 1.11229 1.11436
 N94 N 0.04785 0.44040 0.10471
 N95 N 0.05318 0.40331 0.13931
 N96 N 0.08261 0.55002 0.07821
 N97 N 0.10778 0.59028 0.09153
 N98 N 0.04155 0.54706 0.10654
 N99 N 0.03760 0.58492 0.13973
 N100 N 0.08893 0.44448 0.07667
 N101 N 0.12310 0.41162 0.09135
 C102 C 0.10063 0.38600 0.12994
 C103 C 0.07905 0.61146 0.13003
 N104 N 0.08363 0.55053 -0.07497
 N105 N 0.09652 0.58982 -0.10408
 N106 N 0.11253 0.44387 -0.03232
 N107 N 0.14211 0.40331 -0.03014
 N108 N 0.08672 0.44341 -0.07524
 N109 N 0.09812 0.40296 -0.10349
 N110 N 0.10807 0.55044 -0.03123
 N111 N 0.13843 0.58865 -0.02938
 Mn112 Mn 0.09845 0.49738 0.02287
 C113 C 0.13085 0.61305 -0.07476
 C114 C 0.13281 0.37841 -0.07497
 N115 N -0.06297 0.54629 0.08285
 N116 N -0.08095 0.58293 0.11369
 N117 N -0.08426 0.44086 0.03848
 N118 N -0.12242 0.41060 0.04265
 N119 N -0.05801 0.43894 0.08123
 N120 N -0.07758 0.40690 0.11520
 N121 N -0.08702 0.54647 0.03878
 N122 N -0.12202 0.58197 0.03850
 Mn123 Mn -0.00800 0.49289 0.09463
 C124 C -0.11782 0.60473 0.08502
 C125 C -0.11719 0.38875 0.09001
 N126 N -0.01750 0.44139 -0.09842
 N127 N -0.01182 0.39720 -0.12240
 N128 N -0.06114 0.54952 -0.07035
 N129 N -0.08369 0.59439 -0.07428
 N130 N -0.01985 0.54842 -0.09860
 N131 N -0.01325 0.59211 -0.12206
 N132 N -0.05920 0.44257 -0.07090
 N133 N -0.08282 0.39984 -0.07551
 Mn134 Mn 0.03325 0.49577 -0.08756
 Mn135 Mn -0.07323 0.49497 -0.01634
 Cl136 Cl 0.01257 0.49514 0.00359
 C137 C -0.05368 0.37244 -0.10859
 C138 C -0.05349 0.62007 -0.10731
 N139 N 1.02594 0.11478 0.55357
 N140 N 1.03596 0.15734 0.57826
 N141 N 1.07711 0.06869 0.45675
 N142 N 1.10533 0.06055 0.41490
 N143 N 1.04066 0.10087 0.44568
 N144 N 1.04383 0.11548 0.39649
 N145 N 1.05894 0.07927 0.56544
 N146 N 1.09120 0.09668 0.59857
 C147 C 1.07580 0.14480 0.60777
 C148 C 1.08481 0.09048 0.37819
 N149 N 1.05272 -0.07361 0.46252
 N150 N 1.06748 -0.10354 0.42341
 N151 N 1.06575 -0.03077 0.57677
 N152 N 1.09056 -0.03674 0.62073
 N153 N 1.03493 -0.06803 0.57097
 N154 N 1.03684 -0.09940 0.61058
 N155 N 1.08505 -0.03796 0.46940
 N156 N 1.12250 -0.04261 0.43604
 Mn157 Mn 1.07199 0.02015 0.51781
 C158 C 1.11140 -0.08336 0.40761
 C159 C 1.07117 -0.07969 0.64143
 N160 N 0.93347 0.09539 0.43097
 N161 N 0.92932 0.12018 0.38603
 N162 N 0.88813 0.07105 0.54179
 N163 N 0.85164 0.08233 0.57565
 N164 N 0.91982 0.10815 0.53905
 N165 N 0.90582 0.14547 0.57014
 N166 N 0.90152 0.05851 0.43328
 N167 N 0.87595 0.05636 0.39028
 Mn168 Mn 0.98001 0.10541 0.49198
 C169 C 0.89317 0.09488 0.36116
 C170 C 0.86354 0.12902 0.59286
 N171 N 0.93083 -0.07345 0.55737
 N172 N 0.93185 -0.09144 0.60513
 N173 N 0.90808 -0.04925 0.44386
 N174 N 0.88201 -0.06317 0.40310
 N175 N 0.94659 -0.07997 0.44945
 N176 N 0.94784 -0.11555 0.41376
 N177 N 0.89571 -0.03815 0.55385
 N178 N 0.87311 -0.03098 0.59968
 Mn179 Mn 0.99119 -0.07417 0.50946
 Mn180 Mn 0.89756 0.01047 0.49349
 Cl181 Cl 0.98515 0.01560 0.50331
 C182 C 0.89538 -0.06566 0.63084
 C183 C 0.90767 -0.10466 0.38493
 N184 N 1.11779 0.04427 0.30090
 N185 N 1.13051 0.05585 0.24948
 C186 C 1.11923 0.10529 0.24199
 C187 C 1.09736 0.12557 0.28707
 C188 C 1.09844 0.08659 0.32302
 H189 H 1.08689 0.16474 0.29451
 H190 H 1.12429 0.00937 0.31891
 H191 H 1.15016 0.03146 0.22410
 N192 N 0.92292 -0.17672 0.32556
 N193 N 0.89946 -0.19988 0.28442
 C194 C 0.85724 -0.17325 0.27524
 C195 C 0.85277 -0.13265 0.30985
 C196 C 0.89460 -0.13650 0.34067
 H197 H 0.82286 -0.10462 0.31274
 H198 H 0.95632 -0.18944 0.34170
 H199 H 0.91295 -0.23227 0.26504
 N200 N 0.84060 0.21086 0.63128
 N201 N 0.82954 0.22819 0.68128
 C202 C 0.81672 0.18816 0.71067
 C203 C 0.81837 0.14451 0.68002
 C204 C 0.83566 0.16032 0.63112
 H205 H 0.81736 0.10587 0.69400
 H206 H 0.85780 0.23250 0.60231
 H207 H 0.83611 0.26485 0.69426
 N208 N 1.05410 -0.13815 0.71412
 N209 N 1.07869 -0.16170 0.75129
 C210 C 1.12507 -0.14383 0.75198
 C211 C 1.13009 -0.10644 0.71410
 C212 C 1.08417 -0.10454 0.69064
 H213 H 1.16339 -0.08677 0.70251
 H214 H 1.01790 -0.14670 0.70360
 H215 H 1.06430 -0.19071 0.77434
 N216 N 0.27039 1.04725 1.06226
 N217 N 0.22595 1.06217 1.08681
 C218 C 0.22771 1.11228 1.09565
 C219 C 0.27241 1.13071 1.07571
 C220 C 0.29873 1.08833 1.05683
 H221 H 0.28734 1.16773 1.08273
 H222 H 0.28223 1.00959 1.05738
 H223 H 0.19894 1.03729 1.10032
 N224 N 0.34988 0.91810 0.79983
 N225 N 0.30252 0.90284 0.78702
 C226 C 0.29070 0.86426 0.81892
 C227 C 0.32970 0.85403 0.85261
 C228 C 0.36567 0.88887 0.83952
 H229 H 0.33098 0.82633 0.88371
 H230 H 0.36816 0.94861 0.78282
 H231 H 0.28070 0.91938 0.75804
 N232 N 0.65204 0.92218 1.19157
 N233 N 0.69587 0.90112 1.21096
 C234 C 0.70839 0.86050 1.18146
 C235 C 0.67319 0.85476 1.14274
 C236 C 0.63874 0.89423 1.15051
 H237 H 0.67295 0.82612 1.11263
 H238 H 0.63379 0.95453 1.20639
 H239 H 0.71492 0.91521 1.24275
 N240 N 0.70477 1.13737 0.95204
 N241 N 0.75020 1.15461 0.93314
 C242 C 0.75301 1.14489 0.88150
 C243 C 0.71049 1.11973 0.86679
 C244 C 0.68118 1.11656 0.91196
 H245 H 0.70043 1.10872 0.82784
 H246 H 0.69144 1.14157 0.99033
 H247 H 0.77514 1.17501 0.95516
 N248 N 0.17753 0.34460 0.15918
 N249 N 0.19394 0.29769 0.16557
 C250 C 0.15464 0.26733 0.16746
 C251 C 0.11105 0.29604 0.16273
 C252 C 0.12745 0.34502 0.15654
 H253 H 0.07397 0.28237 0.15667
 H254 H 0.20064 0.37519 0.15199
 H255 H 0.23146 0.28654 0.16556
 N256 N -0.06142 0.28528 -0.07712
 N257 N -0.08845 0.24612 -0.08935
 C258 C -0.10707 0.25395 -0.13703
 C259 C -0.09072 0.29981 -0.15629
 C260 C -0.06200 0.31868 -0.11686
 H261 H -0.10341 0.31954 -0.19075
 H262 H -0.04656 0.29104 -0.04032
 H263 H -0.09620 0.21609 -0.06418
 N264 N 0.19896 0.67280 -0.06303
 N265 N 0.21535 0.71511 -0.08367
 C266 C 0.18536 0.72903 -0.12282
 C267 C 0.14821 0.69362 -0.12775
 C268 C 0.15851 0.65850 -0.08894
 H269 H 0.11817 0.69358 -0.15523
 H270 H 0.21545 0.65407 -0.03167
 H271 H 0.24638 0.73418 -0.07069
 N272 N -0.19172 0.66082 0.07330
 N273 N -0.21294 0.70133 0.09487
 C274 C -0.18631 0.71454 0.13634
 C275 C -0.14637 0.68052 0.14176
 C276 C -0.15128 0.64711 0.10071
 H277 H -0.11732 0.68094 0.17038
 H278 H -0.20461 0.64325 0.03986
 H279 H -0.24462 0.71994 0.08071
 N280 N 1.15513 0.18728 0.60370
 N281 N 1.18960 0.20087 0.64060
 C282 C 1.16573 0.20487 0.68700
 C283 C 1.11567 0.19374 0.68083
 C284 C 1.11093 0.18138 0.62821
 H285 H 1.08904 0.18609 0.71186
 H286 H 1.16471 0.17446 0.56626
 H287 H 1.22793 0.20252 0.63357
 N288 N 0.93814 -0.06342 0.71355
 N289 N 0.93038 -0.08645 0.76161
 C290 C 0.88226 -0.09908 0.76468
 C291 C 0.85808 -0.08371 0.71965
 C292 C 0.89499 -0.06372 0.68775
 H293 H 0.82171 -0.09531 0.70752
 H294 H 0.97322 -0.05613 0.69746
 H295 H 0.95862 -0.09712 0.78709
 N296 N 1.18366 -0.07369 0.34801
 N297 N 1.20204 -0.09472 0.30165
 C298 C 1.17176 -0.13236 0.28880
 C299 C 1.13360 -0.13620 0.32617
 C300 C 1.14241 -0.09863 0.36229
 H301 H 1.10298 -0.16210 0.32644
 H302 H 1.19896 -0.04285 0.36685
 H303 H 1.23365 -0.08267 0.28132
 N304 N 0.84872 0.06826 0.28398
 N305 N 0.82072 0.09114 0.24527
 C306 C 0.82968 0.14103 0.24575
 C307 C 0.86436 0.15111 0.28428
 C308 C 0.87368 0.10447 0.30858
 H309 H 0.87471 0.18797 0.29821
 H310 H 0.84528 0.03058 0.29562
 H311 H 0.79453 0.07257 0.22311
 N312 N 0.19267 0.30682 -0.06276
 N313 N 0.21097 0.26597 -0.09214
 C314 C 0.18599 0.26522 -0.13729
 C315 C 0.15097 0.30479 -0.13743
 C316 C 0.15715 0.33032 -0.09061
 H317 H 0.12687 0.31591 -0.16898
 H318 H 0.20652 0.31814 -0.02696
 H319 H 0.24074 0.24235 -0.08135
 N320 N -0.20472 0.36639 0.10239
 N321 N -0.23228 0.33011 0.12844
 C322 C -0.20062 0.30025 0.15560
 C323 C -0.15228 0.31794 0.14885
 C324 C -0.15676 0.35887 0.11448
 H325 H -0.11821 0.30103 0.16338
 H326 H -0.21933 0.39339 0.07676
 H327 H -0.27048 0.32569 0.12404
 N328 N -0.02165 0.70083 -0.14166
 N329 N -0.03886 0.74686 -0.15179
 C330 C -0.08711 0.74986 -0.13690
 C331 C -0.10120 0.70392 -0.11571
 C332 C -0.05864 0.67384 -0.12014
 H333 H -0.13787 0.69292 -0.10250
 H334 H 0.01452 0.68793 -0.15062
 H335 H -0.01835 0.77482 -0.17062
 N336 N 0.06364 0.67376 0.20049
 N337 N 0.08532 0.71752 0.21859
 C338 C 0.12472 0.72710 0.18715
 C339 C 0.12926 0.69006 0.14876
 C340 C 0.09049 0.65746 0.15878
 H341 H 0.15726 0.68691 0.11800
 H342 H 0.03245 0.65690 0.21731
 H343 H 0.07256 0.73839 0.25090
 N344 N 0.36328 1.09088 0.76986
 N345 N 0.32388 1.11503 0.75106
 C346 C 0.30582 1.14755 0.78753
 C347 C 0.33506 1.14418 0.83128
 C348 C 0.37095 1.10781 0.81848
 H349 H 0.33012 1.16434 0.86778
 H350 H 0.38404 1.06294 0.74988
 H351 H 0.30922 1.10848 0.71433
 N352 N 0.31441 0.81660 1.06320
 N353 N 0.27529 0.79814 1.08788
 C354 C 0.26473 0.82699 1.13005
 C355 C 0.29856 0.86592 1.13213
 C356 C 0.32952 0.85771 1.08897
 H357 H 0.30092 0.89526 1.16132
 H358 H 0.33063 0.80090 1.02944
 H359 H 0.25658 0.76601 1.07611
 N360 N 0.59281 1.19520 1.15016
 N361 N 0.63252 1.21754 1.16762
 C362 C 0.66849 1.18223 1.17539
 C363 C 0.65048 1.13486 1.16311
 C364 C 0.60228 1.14508 1.14676
 H365 H 0.67139 1.09947 1.15992
 H366 H 0.56098 1.21450 1.13729
 H367 H 0.63572 1.25670 1.17114
 N368 N 0.68341 0.80552 0.91045
 N369 N 0.72722 0.78978 0.89226
 C370 C 0.74657 0.82671 0.86249
 C371 C 0.71348 0.86761 0.86103
 C372 C 0.67429 0.85267 0.89257
 H373 H 0.71901 0.90435 0.84342
 H374 H 0.66114 0.78492 0.93622
 H375 H 0.74434 0.75530 0.90217
   
