data_POSCAR
  _audit_creation_date              2014-09-24
  _audit_creation_method            'ToBaCCo'
  _symmetry_space_group_name_H-M    'P1'
  _symmetry_Int_Tables_number       1
  _symmetry_cell_setting            triclinic
  loop_
  _symmetry_equiv_pos_as_xyz
 x,y,z
_cell_length_a 48.1645
_cell_length_b 41.4600
_cell_length_c 29.6388
_cell_angle_alpha 90.425200
_cell_angle_beta 90.192000
_cell_angle_gamma 90.394300
loop_
  _atom_site_label
  _atom_site_type_symbol
  _atom_site_fract_x
  _atom_site_fract_y
  _atom_site_fract_z
O1 O 0.24406 0.27132 0.17358
 O2 O 0.29394 0.21259 0.21825
 O3 O 0.24549 0.20865 0.17942
 O4 O 0.29276 0.27496 0.21294
 O5 O 0.27244 0.27754 0.27943
 O6 O 0.22478 0.21202 0.24546
 O7 O 0.27338 0.21487 0.28457
 O8 O 0.22389 0.27415 0.24017
 Cu9 Cu 0.27108 0.24168 0.18936
 Cu10 Cu 0.24665 0.24494 0.26910
 C11 C 0.22524 0.28254 0.19909
 C12 C 0.29224 0.20372 0.25908
 C13 C 0.22677 0.19919 0.20653
 C14 C 0.29090 0.28733 0.25215
 O15 O 0.71387 0.27801 0.24720
 O16 O 0.76652 0.21781 0.21774
 O17 O 0.71806 0.21628 0.25644
 O18 O 0.76333 0.28001 0.21020
 O19 O 0.78214 0.28735 0.27739
 O20 O 0.73814 0.22264 0.32293
 O21 O 0.78680 0.22540 0.28388
 O22 O 0.73318 0.28478 0.31426
 Cu23 Cu 0.73850 0.24743 0.22618
 Cu24 Cu 0.76199 0.25568 0.30634
 C25 C 0.71417 0.29127 0.28595
 C26 C 0.78591 0.21165 0.24541
 C27 C 0.72028 0.20869 0.29776
 C28 C 0.78075 0.29443 0.23582
 O29 O 0.74155 0.77500 0.68350
 O30 O 0.79085 0.71454 0.72483
 O31 O 0.74197 0.71225 0.68665
 O32 O 0.79020 0.77701 0.72268
 O33 O 0.77006 0.77850 0.78929
 O34 O 0.72173 0.71424 0.75328
 O35 O 0.77077 0.71570 0.79158
 O36 O 0.72152 0.77653 0.75029
 Cu37 Cu 0.76813 0.74455 0.69772
 Cu38 Cu 0.74408 0.74633 0.77785
 C39 C 0.72296 0.78596 0.70966
 C40 C 0.78943 0.70494 0.76534
 C41 C 0.72333 0.70253 0.71368
 C42 C 0.78854 0.78875 0.76234
 O43 O 0.27500 0.78811 0.75963
 O44 O 0.22879 0.72367 0.80087
 O45 O 0.27811 0.72619 0.76371
 O46 O 0.22595 0.78643 0.79632
 O47 O 0.20619 0.78144 0.72945
 O48 O 0.25881 0.72188 0.69629
 O49 O 0.20979 0.71933 0.73327
 O50 O 0.25547 0.78429 0.69236
 Cu51 Cu 0.25379 0.75645 0.78698
 Cu52 Cu 0.23063 0.75136 0.70610
 C53 C 0.27341 0.79691 0.71875
 C54 C 0.21123 0.71062 0.77420
 C55 C 0.27772 0.71424 0.72412
 C56 C 0.20687 0.79402 0.76869
 C57 C 1.02285 0.05322 0.07071
 C58 C 0.99755 0.06386 0.08817
 C59 C 0.97210 0.05218 0.07194
 C60 C 0.97174 0.02887 0.03676
 C61 C 0.99722 0.01711 0.01931
 C62 C 1.02287 0.02927 0.03633
 C63 C 1.04773 0.01764 0.01780
 C64 C 1.04752 -0.00613 -0.01557
 C65 C 1.02244 -0.01807 -0.03369
 C66 C 0.99703 -0.00638 -0.01595
 C67 C 0.94667 0.01777 0.01758
 C68 C 0.94650 -0.00550 -0.01645
 C69 C 0.97138 -0.01829 -0.03317
 C70 C 0.97129 -0.04227 -0.06732
 C71 C 0.99642 -0.05327 -0.08479
 C72 C 1.02198 -0.04170 -0.06858
 H73 H 1.06773 0.02666 0.02884
 H74 H 1.06739 -0.01488 -0.02694
 H75 H 0.92686 0.02716 0.02825
 H76 H 0.92657 -0.01306 -0.02996
 H77 H 0.99768 0.08181 0.11501
 H78 H 0.99608 -0.07171 -0.11096
 C79 C 0.47275 0.45846 0.42638
 C80 C 0.49844 0.44680 0.41219
 C81 C 0.52340 0.45916 0.42969
 C82 C 0.52269 0.48415 0.46260
 C83 C 0.49672 0.49636 0.47719
 C84 C 0.47170 0.48373 0.45860
 C85 C 0.44629 0.49711 0.47202
 C86 C 0.44533 0.52157 0.50430
 C87 C 0.46971 0.53335 0.52501
 C88 C 0.49574 0.52111 0.51065
 C89 C 0.54715 0.49698 0.48177
 C90 C 0.54623 0.52187 0.51345
 C91 C 0.52078 0.53396 0.52903
 C92 C 0.51960 0.55900 0.56177
 C93 C 0.49375 0.57015 0.57624
 C94 C 0.46886 0.55774 0.55869
 H95 H 0.42684 0.48906 0.45725
 H96 H 0.42519 0.53133 0.51239
 H97 H 0.56738 0.48803 0.47253
 H98 H 0.56584 0.53141 0.52551
 H99 H 0.49901 0.42733 0.38754
 H100 H 0.49300 0.58890 0.60194
 C101 C -0.02665 0.44062 0.06409
 C102 C -0.00164 0.42836 0.08054
 C103 C 0.02394 0.44152 0.06778
 C104 C 0.02473 0.46789 0.03776
 C105 C -0.00048 0.48061 0.02082
 C106 C -0.02627 0.46692 0.03395
 C107 C -0.05095 0.47947 0.01594
 C108 C -0.05037 0.50530 -0.01375
 C109 C -0.02510 0.51954 -0.02673
 C110 C 0.00010 0.50694 -0.00958
 C111 C 0.05002 0.48200 0.02451
 C112 C 0.05060 0.50769 -0.00547
 C113 C 0.02589 0.52051 -0.02294
 C114 C 0.02626 0.54632 -0.05387
 C115 C 0.00127 0.55833 -0.07075
 C116 C -0.02431 0.54567 -0.05713
 H117 H -0.07100 0.46929 0.02437
 H118 H -0.07000 0.51377 -0.02684
 H119 H 0.06967 0.47329 0.03716
 H120 H 0.07066 0.51735 -0.01494
 H121 H -0.00210 0.40807 0.10345
 H122 H 0.00173 0.57838 -0.09406
 C123 C 0.52648 1.04357 0.44246
 C124 C 0.50127 1.05509 0.42573
 C125 C 0.47592 1.04575 0.44455
 C126 C 0.47550 1.02335 0.48032
 C127 C 0.50087 1.01099 0.49715
 C128 C 0.52648 1.02125 0.47836
 C129 C 0.55135 1.00869 0.49560
 C130 C 0.55112 0.98672 0.53090
 C131 C 0.52600 0.97603 0.54984
 C132 C 0.50063 0.98835 0.53293
 C133 C 0.45038 1.01275 0.49933
 C134 C 0.45015 0.99071 0.53450
 C135 C 0.47501 0.97803 0.55161
 C136 C 0.47495 0.95553 0.58727
 C137 C 0.50014 0.94407 0.60415
 C138 C 0.52555 0.95359 0.58561
 H139 H 0.57128 1.01564 0.48187
 H140 H 0.57092 0.97828 0.54327
 H141 H 0.43058 1.02128 0.48706
 H142 H 0.43021 0.98383 0.54825
 H143 H 0.50144 1.07258 0.39867
 H144 H 0.49991 0.92648 0.63108
 C145 C 1.21036 0.15914 0.15117
 C146 C 1.19021 0.13689 0.13663
 C147 C 1.16673 0.13079 0.16306
 C148 C 1.16448 0.14567 0.20556
 C149 C 1.18487 0.16732 0.22064
 C150 C 1.20773 0.17510 0.19311
 C151 C 1.14414 0.11013 0.14505
 C152 C 1.11766 0.11942 0.14797
 C153 C 1.09456 0.10150 0.12649
 C154 C 1.07328 0.11896 0.10586
 C155 C 1.05060 0.10299 0.08645
 C156 C 1.04842 0.06923 0.08823
 C157 C 1.06947 0.05169 0.10973
 C158 C 1.09265 0.06767 0.12809
 H159 H 1.22776 0.16413 0.12919
 H160 H 1.19237 0.12544 0.10386
 H161 H 1.14674 0.14083 0.22690
 H162 H 1.18212 0.17876 0.25328
 H163 H 1.14945 0.08895 0.12534
 H164 H 1.11293 0.14256 0.16333
 H165 H 1.07429 0.14505 0.10462
 H166 H 1.03445 0.11703 0.07055
 H167 H 1.06777 0.02573 0.11272
 H168 H 1.10856 0.05378 0.14480
 C169 C 0.70752 0.65878 0.66034
 C170 C 0.68697 0.63752 0.64439
 C171 C 0.66101 0.63601 0.66560
 C172 C 0.65644 0.65471 0.70456
 C173 C 0.67712 0.67544 0.72102
 C174 C 0.70265 0.67822 0.69853
 C175 C 0.63866 0.61569 0.64596
 C176 C 0.61257 0.62643 0.64318
 C177 C 0.58992 0.60812 0.62093
 C178 C 0.56964 0.62516 0.59711
 C179 C 0.54737 0.60890 0.57686
 C180 C 0.54462 0.57532 0.58081
 C181 C 0.56459 0.55823 0.60550
 C182 C 0.58733 0.57445 0.62489
 H183 H 0.72709 0.66028 0.64255
 H184 H 0.69096 0.62311 0.61449
 H185 H 0.63677 0.65347 0.72208
 H186 H 0.67278 0.69007 0.75056
 H187 H 0.64417 0.59299 0.63013
 H188 H 0.60798 0.65070 0.65467
 H189 H 0.57111 0.65114 0.59404
 H190 H 0.53201 0.62260 0.55849
 H191 H 0.56241 0.53245 0.61009
 H192 H 0.60234 0.56087 0.64412
 C193 C -0.18180 0.33388 0.24645
 C194 C -0.16206 0.35499 0.22855
 C195 C -0.16055 0.35999 0.18192
 C196 C -0.18023 0.34484 0.15357
 C197 C -0.20023 0.32394 0.17146
 C198 C -0.20088 0.31756 0.21808
 C199 C -0.13793 0.38066 0.16420
 C200 C -0.12631 0.37567 0.12372
 C201 C -0.10137 0.39346 0.10814
 C202 C -0.08348 0.37822 0.07750
 C203 C -0.05923 0.39364 0.06313
 C204 C -0.05273 0.42482 0.07855
 C205 C -0.07076 0.44048 0.10845
 C206 C -0.09497 0.42499 0.12307
 H207 H -0.18171 0.33000 0.28255
 H208 H -0.14733 0.36668 0.25114
 H209 H -0.18021 0.34901 0.11757
 H210 H -0.21472 0.31222 0.14850
 H211 H -0.12884 0.39826 0.18713
 H212 H -0.13367 0.35585 0.10278
 H213 H -0.08801 0.35404 0.06531
 H214 H -0.04549 0.38127 0.04000
 H215 H -0.06600 0.46462 0.12051
 H216 H -0.10865 0.43785 0.14569
 C217 C 0.29108 0.83263 0.65708
 C218 C 0.31138 0.85322 0.63949
 C219 C 0.33442 0.86279 0.66565
 C220 C 0.33637 0.85173 0.71039
 C221 C 0.31597 0.83133 0.72804
 C222 C 0.29335 0.82112 0.70138
 C223 C 0.35668 0.88216 0.64387
 C224 C 0.37762 0.89668 0.66634
 C225 C 0.40137 0.91308 0.64407
 C226 C 0.41849 0.93356 0.67018
 C227 C 0.44214 0.94787 0.65153
 C228 C 0.44903 0.94206 0.60632
 C229 C 0.43209 0.92167 0.58003
 C230 C 0.40851 0.90722 0.59865
 H231 H 0.27392 0.82520 0.63563
 H232 H 0.30935 0.86118 0.60491
 H233 H 0.35395 0.85763 0.73166
 H234 H 0.31847 0.82267 0.76219
 H235 H 0.35554 0.88429 0.60758
 H236 H 0.37764 0.89695 0.70280
 H237 H 0.41374 0.93821 0.70532
 H238 H 0.45522 0.96325 0.67242
 H239 H 0.43750 0.91642 0.54530
 H240 H 0.39665 0.89075 0.57762
 C241 C -0.16728 0.67268 -0.24486
 C242 C -0.14692 0.65204 -0.22832
 C243 C -0.14857 0.63979 -0.18437
 C244 C -0.17174 0.64788 -0.15773
 C245 C -0.19206 0.66871 -0.17424
 C246 C -0.18991 0.68160 -0.21781
 C247 C -0.12564 0.61898 -0.16817
 C248 C -0.12095 0.61215 -0.12458
 C249 C -0.09663 0.59359 -0.10830
 C250 C -0.08954 0.59569 -0.06232
 C251 C -0.06630 0.57969 -0.04555
 C252 C -0.04976 0.56112 -0.07443
 C253 C -0.05692 0.55838 -0.12014
 C254 C -0.08029 0.57417 -0.13695
 H255 H -0.16501 0.68209 -0.27864
 H256 H -0.12951 0.64606 -0.24979
 H257 H -0.17448 0.63823 -0.12428
 H258 H -0.20942 0.67484 -0.15276
 H259 H -0.11109 0.61086 -0.19341
 H260 H -0.13433 0.62221 -0.09898
 H261 H -0.10178 0.61022 -0.03939
 H262 H -0.06094 0.58211 -0.01015
 H263 H -0.04438 0.54396 -0.14277
 H264 H -0.08536 0.57084 -0.17221
 C265 C 0.33540 1.17088 0.25091
 C266 C 0.35538 1.15019 0.26858
 C267 C 0.35323 1.13879 0.31292
 C268 C 0.33002 1.14776 0.33883
 C269 C 0.31009 1.16861 0.32120
 C270 C 0.31270 1.18063 0.27721
 C271 C 0.37560 1.11775 0.33039
 C272 C 0.38043 1.11285 0.37446
 C273 C 0.40425 1.09403 0.39184
 C274 C 0.41286 1.09922 0.43667
 C275 C 0.43585 1.08306 0.45407
 C276 C 0.45048 1.06114 0.42708
 C277 C 0.44170 1.05532 0.38263
 C278 C 0.41863 1.07135 0.36520
 H279 H 0.33799 1.17960 0.21682
 H280 H 0.37286 1.14347 0.24768
 H281 H 0.32693 1.13869 0.37254
 H282 H 0.29264 1.17535 0.34212
 H283 H 0.38973 1.10787 0.30570
 H284 H 0.36773 1.12492 0.39931
 H285 H 0.40212 1.11633 0.45804
 H286 H 0.44251 1.08798 0.48840
 H287 H 0.45278 1.03838 0.36143
 H288 H 0.41221 1.06572 0.33106
 C289 C 1.16259 -0.17934 -0.24558
 C290 C 1.14066 -0.16023 -0.23050
 C291 C 1.14207 -0.14474 -0.18840
 C292 C 1.16586 -0.14850 -0.16149
 C293 C 1.18752 -0.16829 -0.17595
 C294 C 1.18606 -0.18432 -0.21802
 C295 C 1.11752 -0.12739 -0.17146
 C296 C 1.11935 -0.10052 -0.14630
 C297 C 1.09442 -0.08541 -0.12678
 C298 C 1.09145 -0.05178 -0.12749
 C299 C 1.06782 -0.03737 -0.10902
 C300 C 1.04746 -0.05632 -0.08779
 C301 C 1.05067 -0.08994 -0.08674
 C302 C 1.07384 -0.10437 -0.10624
 H303 H 1.16058 -0.19120 -0.27813
 H304 H 1.12239 -0.15780 -0.25159
 H305 H 1.16722 -0.13727 -0.12845
 H306 H 1.20520 -0.17136 -0.15376
 H307 H 1.09722 -0.13690 -0.18055
 H308 H 1.13932 -0.08894 -0.14079
 H309 H 1.10714 -0.03678 -0.14315
 H310 H 1.06544 -0.01147 -0.11112
 H311 H 1.03518 -0.10503 -0.07075
 H312 H 1.07592 -0.13033 -0.10460
 C313 C 0.66612 0.31219 0.27548
 C314 C 0.64379 0.33088 0.28982
 C315 C 0.64662 0.35184 0.32690
 C316 C 0.67232 0.35392 0.34943
 C317 C 0.69456 0.33471 0.33561
 C318 C 0.69159 0.31348 0.29870
 C319 C 0.62184 0.36900 0.34344
 C320 C 0.62290 0.39809 0.36335
 C321 C 0.59762 0.41376 0.38087
 C322 C 0.59417 0.44714 0.37607
 C323 C 0.57005 0.46210 0.39177
 C324 C 0.54952 0.44403 0.41399
 C325 C 0.55322 0.41074 0.41938
 C326 C 0.57699 0.39572 0.40294
 H327 H 0.66314 0.29586 0.24715
 H328 H 0.62410 0.32870 0.27222
 H329 H 0.67494 0.36937 0.37876
 H330 H 0.71394 0.33611 0.35419
 H331 H 0.60181 0.35757 0.33769
 H332 H 0.64236 0.41130 0.36508
 H333 H 0.60986 0.46147 0.35926
 H334 H 0.56734 0.48771 0.38657
 H335 H 0.53760 0.39637 0.43632
 H336 H 0.57939 0.37004 0.40795
 C337 C 0.82920 -0.17702 -0.25146
 C338 C 0.84890 -0.15459 -0.23603
 C339 C 0.84744 -0.14175 -0.19215
 C340 C 0.82505 -0.15093 -0.16453
 C341 C 0.80548 -0.17357 -0.17976
 C342 C 0.80746 -0.18731 -0.22324
 C343 C 0.86977 -0.11927 -0.17674
 C344 C 0.87506 -0.11243 -0.13315
 C345 C 0.89896 -0.09250 -0.11719
 C346 C 0.90672 -0.09449 -0.07154
 C347 C 0.92981 -0.07750 -0.05511
 C348 C 0.94548 -0.05796 -0.08395
 C349 C 0.93755 -0.05524 -0.12929
 C350 C 0.91434 -0.07208 -0.14577
 H351 H 0.83142 -0.18675 -0.28527
 H352 H 0.86570 -0.14770 -0.25828
 H353 H 0.82234 -0.14078 -0.13117
 H354 H 0.78883 -0.18037 -0.15718
 H355 H 0.88344 -0.11001 -0.20250
 H356 H 0.86263 -0.12366 -0.10729
 H357 H 0.89523 -0.10981 -0.04867
 H358 H 0.93582 -0.08009 -0.02008
 H359 H 0.94946 -0.04019 -0.15196
 H360 H 0.90872 -0.06890 -0.18076
 C361 C 0.33413 0.32011 0.24019
 C362 C 0.35396 0.34244 0.25545
 C363 C 0.35103 0.35788 0.29748
 C364 C 0.32706 0.35151 0.32312
 C365 C 0.30731 0.32902 0.30798
 C366 C 0.31082 0.31274 0.26666
 C367 C 0.37350 0.38001 0.31321
 C368 C 0.37752 0.38821 0.35670
 C369 C 0.40143 0.40781 0.37341
 C370 C 0.40773 0.40705 0.41972
 C371 C 0.43060 0.42400 0.43703
 C372 C 0.44749 0.44231 0.40841
 C373 C 0.44108 0.44371 0.36231
 C374 C 0.41811 0.42688 0.34492
 H375 H 0.33740 0.30808 0.20811
 H376 H 0.37202 0.34712 0.23474
 H377 H 0.32331 0.36374 0.35481
 H378 H 0.28936 0.32422 0.32885
 H379 H 0.38834 0.38769 0.28815
 H380 H 0.36388 0.37837 0.38209
 H381 H 0.39522 0.39277 0.44251
 H382 H 0.43540 0.42247 0.47268
 H383 H 0.45394 0.45781 0.33980
 H384 H 0.41363 0.42908 0.30935
 C385 C 0.17054 0.67353 -0.23709
 C386 C 0.15098 0.65164 -0.22058
 C387 C 0.15201 0.64140 -0.17557
 C388 C 0.17385 0.65269 -0.14777
 C389 C 0.19339 0.67474 -0.16428
 C390 C 0.19174 0.68572 -0.20896
 C391 C 0.12976 0.61935 -0.15945
 C392 C 0.12379 0.61452 -0.11577
 C393 C 0.09965 0.59509 -0.10019
 C394 C 0.08995 0.59997 -0.05599
 C395 C 0.06643 0.58356 -0.04053
 C396 C 0.05228 0.56185 -0.06896
 C397 C 0.06221 0.55614 -0.11262
 C398 C 0.08585 0.57234 -0.12805
 H399 H 0.16870 0.68138 -0.27174
 H400 H 0.13460 0.64316 -0.24293
 H401 H 0.17610 0.64467 -0.11336
 H402 H 0.20967 0.68341 -0.14190
 H403 H 0.11655 0.60868 -0.18514
 H404 H 0.13562 0.62715 -0.09002
 H405 H 0.10025 0.61708 -0.03365
 H406 H 0.05893 0.58821 -0.00670
 H407 H 0.05153 0.53924 -0.13481
 H408 H 0.09308 0.56683 -0.16169
 C409 C 0.70494 1.17359 0.36162
 C410 C 0.68584 1.15231 0.38097
 C411 C 0.66271 1.14108 0.35637
 C412 C 0.65938 1.15131 0.31143
 C413 C 0.67859 1.17242 0.29201
 C414 C 0.70136 1.18416 0.31707
 C415 C 0.64177 1.12085 0.37993
 C416 C 0.62137 1.10432 0.35890
 C417 C 0.59867 1.08698 0.38266
 C418 C 0.58172 1.06565 0.35761
 C419 C 0.55871 1.05077 0.37740
 C420 C 0.55230 1.05679 0.42275
 C421 C 0.56924 1.07775 0.44815
 C422 C 0.59217 1.09281 0.42837
 H423 H 0.72227 1.18219 0.38187
 H424 H 0.68890 1.14506 0.41566
 H425 H 0.64158 1.14415 0.29139
 H426 H 0.67510 1.18034 0.25772
 H427 H 0.64349 1.11979 0.41625
 H428 H 0.62097 1.10317 0.32247
 H429 H 0.58599 1.06094 0.32232
 H430 H 0.54560 1.03497 0.35717
 H431 H 0.56418 1.08316 0.48297
 H432 H 0.60393 1.10977 0.44875
 C433 C 0.20655 0.31662 0.13645
 C434 C 0.18584 0.33617 0.11829
 C435 C 0.16236 0.34445 0.14375
 C436 C 0.16017 0.33277 0.18814
 C437 C 0.18097 0.31343 0.20638
 C438 C 0.20426 0.30486 0.18063
 C439 C 0.14011 0.36357 0.12184
 C440 C 0.11961 0.37830 0.14450
 C441 C 0.09617 0.39556 0.12282
 C442 C 0.07888 0.41448 0.15029
 C443 C 0.05566 0.42982 0.13224
 C444 C 0.04936 0.42669 0.08626
 C445 C 0.06649 0.40797 0.05850
 C446 C 0.08965 0.39243 0.07653
 H447 H 0.22421 0.31040 0.11567
 H448 H 0.18804 0.34456 0.08395
 H449 H 0.14217 0.33753 0.20871
 H450 H 0.17841 0.30447 0.24035
 H451 H 0.14116 0.36569 0.08558
 H452 H 0.11987 0.37826 0.18096
 H453 H 0.08316 0.41713 0.18604
 H454 H 0.04245 0.44396 0.15419
 H455 H 0.06158 0.40493 0.02302
 H456 H 0.10173 0.37744 0.05416
 C457 C 0.70475 0.82160 0.64848
 C458 C 0.68454 0.84223 0.63131
 C459 C 0.66156 0.85114 0.65752
 C460 C 0.65935 0.83899 0.70165
 C461 C 0.67965 0.81849 0.71889
 C462 C 0.70244 0.80931 0.69237
 C463 C 0.63973 0.87135 0.63656
 C464 C 0.62015 0.88707 0.66002
 C465 C 0.59713 0.90531 0.63888
 C466 C 0.58205 0.92700 0.66579
 C467 C 0.55915 0.94327 0.64820
 C468 C 0.55099 0.93824 0.60326
 C469 C 0.56591 0.91666 0.57616
 C470 C 0.58874 0.90026 0.59373
 H471 H 0.72203 0.81496 0.62712
 H472 H 0.68671 0.85098 0.59714
 H473 H 0.64166 0.84430 0.72268
 H474 H 0.67711 0.80918 0.75268
 H475 H 0.64031 0.87354 0.60025
 H476 H 0.62100 0.88721 0.69648
 H477 H 0.58780 0.93109 0.70074
 H478 H 0.54760 0.95953 0.66975
 H479 H 0.55945 0.91198 0.54167
 H480 H 0.59901 0.88300 0.57214
 C481 C 0.83406 0.19019 0.25373
 C482 C 0.85610 0.17171 0.23756
 C483 C 0.85253 0.15140 0.19989
 C484 C 0.82633 0.14954 0.17893
 C485 C 0.80440 0.16840 0.19465
 C486 C 0.80816 0.18924 0.23183
 C487 C 0.87702 0.13504 0.18065
 C488 C 0.87552 0.10723 0.15742
 C489 C 0.90012 0.09318 0.13527
 C490 C 0.90355 0.05960 0.13414
 C491 C 0.92686 0.04606 0.11346
 C492 C 0.94655 0.06589 0.09218
 C493 C 0.94281 0.09943 0.09263
 C494 C 0.91987 0.11297 0.11400
 H495 H 0.83762 0.20619 0.28224
 H496 H 0.87617 0.17373 0.25399
 H497 H 0.82305 0.13470 0.14917
 H498 H 0.78468 0.16724 0.17704
 H499 H 0.89712 0.14632 0.18620
 H500 H 0.85609 0.09397 0.15551
 H501 H 0.88848 0.04393 0.15012
 H502 H 0.92963 0.02017 0.11422
 H503 H 0.95777 0.11515 0.07649
 H504 H 0.91739 0.13890 0.11336
 C505 C 0.32568 0.69253 0.73285
 C506 C 0.34807 0.67479 0.71642
 C507 C 0.34526 0.65595 0.67718
 C508 C 0.31949 0.65484 0.65477
 C509 C 0.29720 0.67308 0.67075
 C510 C 0.30018 0.69239 0.70967
 C511 C 0.37013 0.64019 0.65835
 C512 C 0.36921 0.61262 0.63455
 C513 C 0.39449 0.59862 0.61446
 C514 C 0.39830 0.56511 0.61471
 C515 C 0.42243 0.55165 0.59657
 C516 C 0.44259 0.57144 0.57637
 C517 C 0.43847 0.60491 0.57542
 C518 C 0.41470 0.61840 0.59435
 H519 H 0.32868 0.70739 0.76271
 H520 H 0.36780 0.67619 0.73402
 H521 H 0.31686 0.64107 0.62386
 H522 H 0.27781 0.67260 0.65213
 H523 H 0.39009 0.65144 0.66533
 H524 H 0.34986 0.59933 0.63126
 H525 H 0.38293 0.54946 0.62993
 H526 H 0.42546 0.52583 0.59846
 H527 H 0.45378 0.62063 0.56012
 H528 H 0.41198 0.64428 0.59284
   
