data_POSCAR
  _audit_creation_date              2014-09-24
  _audit_creation_method            'ToBaCCo'
  _symmetry_space_group_name_H-M    'P1'
  _symmetry_Int_Tables_number       1
  _symmetry_cell_setting            triclinic
  loop_
  _symmetry_equiv_pos_as_xyz
 x,y,z
_cell_length_a 44.7489
_cell_length_b 46.8655
_cell_length_c 38.7327
_cell_angle_alpha 90.436400
_cell_angle_beta 90.390400
_cell_angle_gamma 82.943400
loop_
  _atom_site_label
  _atom_site_type_symbol
  _atom_site_fract_x
  _atom_site_fract_y
  _atom_site_fract_z
C1 C -0.07023 0.33456 -0.00724
 C2 C -0.06787 0.33150 0.02800
 C3 C -0.04178 0.31296 0.03427
 N4 N -0.02796 0.30506 0.00417
 C5 C -0.04535 0.31808 -0.02115
 C6 C -0.03084 0.30287 0.06693
 C7 C -0.00053 0.29014 0.07044
 C8 C 0.01049 0.27128 0.09636
 C9 C 0.04127 0.26717 0.09313
 C10 C 0.04810 0.28307 0.06490
 N11 N 0.02255 0.29651 0.05072
 C12 C 0.07739 0.28771 0.05518
 C13 C 0.08386 0.29417 0.02081
 C14 C 0.11018 0.30355 0.00931
 C15 C 0.10773 0.30517 -0.02606
 C16 C 0.08011 0.29642 -0.03484
 N17 N 0.06550 0.28999 -0.00608
 C18 C 0.06872 0.29334 -0.06871
 C19 C 0.03743 0.29207 -0.07394
 C20 C 0.02461 0.28014 -0.10256
 C21 C -0.00608 0.28600 -0.09918
 C22 C -0.01121 0.30074 -0.06825
 N23 N 0.01533 0.30392 -0.05266
 C24 C -0.03965 0.31331 -0.05658
 H25 H -0.08808 0.34754 -0.02097
 H26 H -0.08339 0.34201 0.04675
 H27 H 0.01809 0.31653 -0.03084
 H28 H -0.00227 0.26201 0.11610
 H29 H 0.05691 0.25438 0.10997
 H30 H 0.12905 0.30877 0.02472
 H31 H 0.12429 0.31220 -0.04324
 H32 H -0.02275 0.28025 -0.11749
 H33 H 0.02141 0.31222 0.03165
 H34 H 0.03614 0.26867 -0.12393
 C35 C 0.38411 0.78044 0.46291
 C36 C 0.38045 0.78037 0.49798
 C37 C 0.40508 0.79154 0.51219
 N38 N 0.42373 0.79828 0.48706
 C39 C 0.41094 0.79152 0.45692
 C40 C 0.40875 0.79774 0.54753
 C41 C 0.43645 0.80386 0.56161
 C42 C 0.44025 0.81513 0.59430
 C43 C 0.47071 0.81567 0.59892
 C44 C 0.48462 0.80472 0.56889
 N45 N 0.46358 0.79764 0.54628
 C46 C 0.51612 0.79925 0.56400
 C47 C 0.52904 0.79624 0.53068
 C48 C 0.55930 0.78829 0.52375
 C49 C 0.56262 0.79057 0.48870
 C50 C 0.53420 0.79913 0.47526
 N51 N 0.51374 0.80274 0.50093
 C52 C 0.52800 0.80565 0.44018
 C53 C 0.49872 0.80813 0.42568
 C54 C 0.49092 0.81880 0.39308
 C55 C 0.46073 0.81650 0.38839
 C56 C 0.45098 0.80461 0.41830
 N57 N 0.47433 0.79921 0.44065
 C58 C 0.42145 0.79811 0.42405
 H59 H 0.36856 0.77356 0.44395
 H60 H 0.36159 0.77328 0.51143
 H61 H 0.47425 0.78773 0.46351
 H62 H 0.42294 0.82191 0.61304
 H63 H 0.48143 0.82300 0.62191
 H64 H 0.57724 0.78175 0.54192
 H65 H 0.58354 0.78632 0.47464
 H66 H 0.44748 0.82288 0.36563
 H67 H 0.46785 0.78588 0.52358
 H68 H 0.50548 0.82726 0.37453
 C69 C 1.05173 0.62448 -0.02798
 C70 C 1.05294 0.62358 0.00749
 C71 C 1.04088 0.65062 0.01903
 N72 N 1.03192 0.66771 -0.00782
 C73 C 1.03895 0.65201 -0.03653
 C74 C 1.04407 0.66188 0.05250
 C75 C 1.02054 0.68273 0.06458
 C76 C 1.02166 0.70181 0.09209
 C77 C 0.99366 0.71754 0.09438
 C78 C 0.97668 0.70891 0.06706
 N79 N 0.99300 0.68760 0.04935
 C80 C 0.94674 0.72014 0.05914
 C81 C 0.93505 0.72049 0.02513
 C82 C 0.90570 0.73080 0.01613
 C83 C 0.90472 0.73216 -0.01922
 C84 C 0.93349 0.72255 -0.03079
 N85 N 0.95204 0.71540 -0.00359
 C86 C 0.94324 0.72437 -0.06532
 C87 C 0.97254 0.71326 -0.07591
 C88 C 0.98782 0.72274 -0.10374
 C89 C 1.01569 0.70661 -0.10442
 C90 C 1.01611 0.68649 -0.07818
 N91 N 0.98968 0.69103 -0.06084
 C92 C 1.04010 0.66494 -0.06913
 H93 H 1.06118 0.60772 -0.04552
 H94 H 1.06349 0.60599 0.02299
 H95 H 0.98283 0.67847 -0.04093
 H96 H 1.04065 0.70536 0.10821
 H97 H 0.98722 0.73432 0.11314
 H98 H 0.88722 0.73796 0.03323
 H99 H 0.88530 0.74057 -0.03443
 H100 H 1.03360 0.71047 -0.12165
 H101 H 0.98496 0.67586 0.02902
 H102 H 0.98043 0.74023 -0.12101
 C103 C 0.59869 0.24311 0.49555
 C104 C 0.59647 0.24241 0.53081
 C105 C 0.57091 0.22962 0.53805
 N106 N 0.55733 0.22274 0.50837
 C107 C 0.57439 0.23075 0.48233
 C108 C 0.55908 0.22693 0.57145
 C109 C 0.53339 0.21304 0.57821
 C110 C 0.51766 0.21524 0.60906
 C111 C 0.49488 0.19835 0.60576
 C112 C 0.49753 0.18568 0.57325
 N113 N 0.52121 0.19463 0.55668
 C114 C 0.47886 0.16559 0.56051
 C115 C 0.47769 0.15738 0.52544
 C116 C 0.46181 0.13596 0.51269
 C117 C 0.46413 0.13656 0.47739
 C118 C 0.48127 0.15839 0.46980
 N119 N 0.48954 0.17105 0.49921
 C120 C 0.48672 0.16797 0.43619
 C121 C 0.50660 0.18853 0.42920
 C122 C 0.50790 0.20263 0.39798
 C123 C 0.53068 0.21959 0.40080
 C124 C 0.54241 0.21600 0.43395
 N125 N 0.52785 0.19671 0.45096
 C126 C 0.56690 0.22945 0.44689
 H127 H 0.61580 0.25244 0.48139
 H128 H 0.61156 0.25109 0.54892
 H129 H 0.53409 0.18750 0.47464
 H130 H 0.52196 0.22768 0.63178
 H131 H 0.47831 0.19571 0.62532
 H132 H 0.44948 0.12169 0.52728
 H133 H 0.45392 0.12283 0.45935
 H134 H 0.53762 0.23302 0.38052
 H135 H 0.53034 0.18642 0.53356
 H136 H 0.49395 0.20094 0.37531
 C137 C 0.67427 -0.02253 -0.02005
 C138 C 0.67664 -0.02864 0.01451
 C139 C 0.69877 -0.01325 0.02770
 N140 N 0.70947 0.00259 0.00265
 C141 C 0.69499 -0.00360 -0.02670
 C142 C 0.71141 -0.01610 0.06130
 C143 C 0.72322 0.00784 0.07649
 C144 C 0.74349 0.00740 0.10390
 C145 C 0.74728 0.03561 0.11115
 C146 C 0.72984 0.05234 0.08745
 N147 N 0.71554 0.03531 0.06633
 C148 C 0.72596 0.08264 0.08612
 C149 C 0.71728 0.09667 0.05486
 C150 C 0.70572 0.12534 0.05155
 C151 C 0.70519 0.13115 0.01686
 C152 C 0.71638 0.10579 0.00025
 N153 N 0.72324 0.08460 0.02345
 C154 C 0.72352 0.10295 -0.03523
 C155 C 0.72398 0.07583 -0.05178
 C156 C 0.73909 0.06726 -0.08201
 C157 C 0.73332 0.03959 -0.08896
 C158 C 0.71480 0.03203 -0.06282
 N159 N 0.70961 0.05409 -0.04006
 C160 C 0.70299 0.00545 -0.05975
 H161 H 0.65953 -0.03145 -0.03839
 H162 H 0.66413 -0.04326 0.02827
 H163 H 0.69527 0.05492 -0.01883
 H164 H 0.75478 -0.01118 0.11708
 H165 H 0.76162 0.04291 0.13114
 H166 H 0.69905 0.14061 0.07200
 H167 H 0.69809 0.15180 0.00517
 H168 H 0.74249 0.02633 -0.11028
 H169 H 0.69926 0.04236 0.04785
 H170 H 0.75348 0.07929 -0.09702
 C171 C 0.31184 0.36649 0.47121
 C172 C 0.31025 0.36678 0.50664
 C173 C 0.29704 0.39398 0.51612
 N174 N 0.29031 0.41019 0.48775
 C175 C 0.29953 0.39353 0.46029
 C176 C 0.29051 0.40332 0.55031
 C177 C 0.28069 0.43233 0.55884
 C178 C 0.26765 0.44160 0.59000
 C179 C 0.26475 0.47114 0.58984
 C180 C 0.27605 0.47910 0.55858
 N181 N 0.28552 0.45534 0.53973
 C182 C 0.28018 0.50753 0.54973
 C183 C 0.28523 0.51596 0.51559
 C184 C 0.29346 0.54236 0.50610
 C185 C 0.29512 0.54208 0.47072
 C186 C 0.28784 0.51553 0.45986
 N187 N 0.28160 0.49970 0.48730
 C188 C 0.28593 0.50655 0.42515
 C189 C 0.28269 0.47791 0.41566
 C190 C 0.27396 0.46933 0.38317
 C191 C 0.27669 0.43980 0.38332
 C192 C 0.28709 0.43114 0.41588
 N193 N 0.29046 0.45451 0.43553
 C194 C 0.29596 0.40227 0.42551
 H195 H 0.32115 0.34849 0.45537
 H196 H 0.31809 0.34905 0.52346
 H197 H 0.30147 0.45435 0.45925
 H198 H 0.26153 0.42841 0.61101
 H199 H 0.25598 0.48516 0.61070
 H200 H 0.29795 0.55992 0.52289
 H201 H 0.30116 0.55938 0.45487
 H202 H 0.27218 0.42621 0.36166
 H203 H 0.29849 0.45479 0.51753
 H204 H 0.26694 0.48294 0.36140
 C205 C 0.19614 0.87665 0.00300
 C206 C 0.19378 0.87739 -0.03234
 C207 C 0.19414 0.90587 -0.04189
 N208 N 0.19615 0.92243 -0.01352
 C209 C 0.19775 0.90465 0.01382
 C210 C 0.18902 0.91695 -0.07558
 C211 C 0.19012 0.94644 -0.08270
 C212 C 0.17795 0.96104 -0.11159
 C213 C 0.18776 0.98766 -0.11096
 C214 C 0.20670 0.98834 -0.08253
 N215 N 0.20730 0.96349 -0.06491
 C216 C 0.22570 1.00990 -0.07567
 C217 C 0.23644 1.01410 -0.04166
 C218 C 0.26075 1.02848 -0.03290
 C219 C 0.26329 1.02765 0.00242
 C220 C 0.24051 1.01273 0.01421
 N221 N 0.22432 1.00421 -0.01282
 C222 C 0.23482 1.00684 0.04929
 C223 C 0.21751 0.98449 0.05787
 C224 C 0.20269 0.98211 0.08893
 C225 C 0.19294 0.95544 0.08906
 C226 C 0.20112 0.94264 0.05762
 N227 N 0.21573 0.96061 0.03854
 C228 C 0.19768 0.91406 0.04841
 H229 H 0.19569 0.85781 0.01887
 H230 H 0.19086 0.85918 -0.04879
 H231 H 0.22748 0.95533 0.01578
 H232 H 0.16412 0.95342 -0.13178
 H233 H 0.18263 1.00418 -0.13023
 H234 H 0.27573 1.03783 -0.05014
 H235 H 0.28058 1.03625 0.01754
 H236 H 0.18149 0.94648 0.11014
 H237 H 0.22233 0.95698 -0.04501
 H238 H 0.19999 0.99764 0.10984
 C239 C 0.75184 0.45742 0.51488
 C240 C 0.75578 0.45969 0.47990
 C241 C 0.77150 0.48308 0.47499
 N242 N 0.77733 0.49506 0.50576
 C243 C 0.76511 0.47958 0.53009
 C244 C 0.78106 0.49261 0.44275
 C245 C 0.79194 0.51954 0.43878
 C246 C 0.80782 0.52745 0.41048
 C247 C 0.81149 0.55602 0.41503
 C248 C 0.79769 0.56478 0.44592
 N249 N 0.78595 0.54240 0.46025
 C250 C 0.79380 0.59338 0.45863
 C251 C 0.78348 0.60060 0.49228
 C252 C 0.77149 0.62786 0.50308
 C253 C 0.76529 0.62585 0.53756
 C254 C 0.77429 0.59755 0.54677
 N255 N 0.78536 0.58218 0.51901
 C256 C 0.77341 0.58618 0.58037
 C257 C 0.77865 0.55627 0.58615
 C258 C 0.78565 0.54353 0.61785
 C259 C 0.78364 0.51465 0.61364
 C260 C 0.77566 0.51063 0.57944
 N261 N 0.77310 0.53600 0.56277
 C262 C 0.76630 0.48516 0.56585
 H263 H 0.74025 0.44152 0.52760
 H264 H 0.74763 0.44587 0.46039
 H265 H 0.76305 0.53995 0.53870
 H266 H 0.81550 0.51415 0.38856
 H267 H 0.82245 0.56902 0.39722
 H268 H 0.76719 0.64707 0.48758
 H269 H 0.75513 0.64325 0.55374
 H270 H 0.78641 0.49862 0.63376
 H271 H 0.77137 0.54363 0.48113
 H272 H 0.79042 0.55413 0.64183
 O273 O 0.26911 0.22353 0.19045
 O274 O 0.33613 0.18725 0.23524
 O275 O 0.29701 0.17175 0.19028
 O276 O 0.30794 0.23913 0.23548
 O277 O 0.27858 0.22830 0.27776
 O278 O 0.26999 0.15971 0.23418
 O279 O 0.30760 0.17780 0.27900
 O280 O 0.24071 0.21223 0.23349
 Cu281 Cu 0.30541 0.20647 0.20850
 Cu282 Cu 0.27117 0.19306 0.26015
 C283 C 0.24354 0.22422 0.20462
 C284 C 0.33334 0.17722 0.26529
 C285 C 0.28181 0.15416 0.20479
 C286 C 0.29527 0.24521 0.26436
 O287 O 0.70391 0.78365 0.27458
 O288 O 0.77400 0.76562 0.22402
 O289 O 0.75256 0.74700 0.28108
 O290 O 0.72527 0.80013 0.21572
 O291 O 0.74544 0.83403 0.24432
 O292 O 0.77470 0.77986 0.30908
 O293 O 0.79422 0.79978 0.25200
 O294 O 0.72571 0.81662 0.30281
 Cu295 Cu 0.73664 0.77074 0.24623
 Cu296 Cu 0.76196 0.81083 0.28025
 C297 C 0.70302 0.80340 0.29742
 C298 C 0.79574 0.78040 0.22882
 C299 C 0.76868 0.75412 0.30598
 C300 C 0.73145 0.82579 0.21811
 O301 O 0.81389 0.27879 0.26070
 O302 O 0.74404 0.27248 0.30794
 O303 O 0.77677 0.23931 0.26591
 O304 O 0.78048 0.31140 0.30353
 O305 O 0.75465 0.33097 0.25917
 O306 O 0.75062 0.25908 0.22175
 O307 O 0.71756 0.29293 0.26445
 O308 O 0.78747 0.29758 0.21625
 Cu309 Cu 0.78164 0.27345 0.28878
 Cu310 Cu 0.74996 0.29703 0.23593
 C311 C 0.81263 0.28943 0.23057
 C312 C 0.71888 0.28188 0.29437
 C313 C 0.76265 0.23697 0.23768
 C314 C 0.76799 0.33352 0.28789
 O315 O 0.27218 0.67297 0.24245
 O316 O 0.24682 0.74008 0.19629
 O317 O 0.28398 0.72570 0.24689
 O318 O 0.23621 0.68712 0.19056
 O319 O 0.19829 0.69530 0.22683
 O320 O 0.24550 0.73672 0.28195
 O321 O 0.20798 0.74840 0.23132
 O322 O 0.23490 0.68262 0.27931
 Cu323 Cu 0.26358 0.70544 0.21548
 Cu324 Cu 0.21799 0.71650 0.25876
 C325 C 0.25799 0.66641 0.26896
 C326 C 0.22283 0.75553 0.20563
 C327 C 0.27270 0.73832 0.27369
 C328 C 0.20913 0.68485 0.19854
 O329 O 0.69217 0.30235 0.76932
 O330 O 0.76095 0.32252 0.81086
 O331 O 0.72512 0.34302 0.76113
 O332 O 0.72778 0.28231 0.82027
 O333 O 0.75562 0.25469 0.78321
 O334 O 0.75252 0.31611 0.72316
 O335 O 0.78854 0.29610 0.77246
 O336 O 0.71996 0.27461 0.73248
 Cu337 Cu 0.72363 0.31518 0.79415
 Cu338 Cu 0.75690 0.28248 0.74912
 C339 C 0.69435 0.28554 0.74331
 C340 C 0.78642 0.31272 0.79858
 C341 C 0.73799 0.34005 0.73200
 C342 C 0.74273 0.25847 0.81230
 O343 O 0.26792 0.73027 0.72127
 O344 O 0.22342 0.69312 0.78156
 O345 O 0.25813 0.67753 0.72967
 O346 O 0.23328 0.74586 0.77334
 O347 O 0.19320 0.75258 0.73951
 O348 O 0.21941 0.68469 0.69391
 O349 O 0.18405 0.69937 0.74665
 O350 O 0.22820 0.73873 0.68707
 Cu351 Cu 0.24960 0.71095 0.75492
 Cu352 Cu 0.20231 0.71943 0.71309
 C353 C 0.25559 0.74113 0.69401
 C354 C 0.19617 0.69008 0.77481
 C355 C 0.24326 0.66945 0.70416
 C356 C 0.20890 0.76079 0.76431
 O357 O 0.22156 0.21903 0.74163
 O358 O 0.28836 0.18288 0.69725
 O359 O 0.24984 0.16621 0.74066
 O360 O 0.26069 0.23423 0.69832
 O361 O 0.29002 0.24438 0.74157
 O362 O 0.27676 0.17769 0.78555
 O363 O 0.31656 0.19169 0.74221
 O364 O 0.25011 0.22977 0.78543
 Cu365 Cu 0.25203 0.19940 0.71526
 Cu366 Cu 0.28619 0.21206 0.76807
 C367 C 0.22448 0.23069 0.77097
 C368 C 0.31388 0.18130 0.71211
 C369 C 0.26137 0.16037 0.77024
 C370 C 0.27788 0.25063 0.71236
 O371 O 0.69669 0.80701 0.71725
 O372 O 0.77121 0.80094 0.76031
 O373 O 0.74275 0.76769 0.72039
 O374 O 0.72496 0.84083 0.75657
 O375 O 0.70820 0.82234 0.80386
 O376 O 0.72146 0.74997 0.76540
 O377 O 0.75230 0.78017 0.80477
 O378 O 0.67749 0.79021 0.76417
 Cu379 Cu 0.73589 0.80608 0.73411
 Cu380 Cu 0.71289 0.78420 0.78939
 C381 C 0.67449 0.79898 0.73325
 C382 C 0.77450 0.78886 0.78960
 C383 C 0.73427 0.74646 0.73626
 C384 C 0.71409 0.84396 0.78674
 C385 C 0.25640 0.06836 0.10211
 C386 C 0.26552 0.05434 0.13212
 C387 C 0.26682 0.02479 0.13566
 C388 C 0.25775 0.00908 0.10737
 C389 C 0.24667 0.02297 0.07635
 C390 C 0.24672 0.05323 0.07379
 O391 O 0.25672 0.09662 0.10424
 C392 C 0.26605 0.10047 0.13637
 C393 C 0.27143 0.07529 0.15464
 C394 C 0.27969 0.07452 0.18937
 C395 C 0.28263 0.10081 0.20589
 C396 C 0.27798 0.12692 0.18732
 C397 C 0.26971 0.12674 0.15202
 H398 H 0.27450 0.01418 0.15940
 H399 H 0.25936 -0.01407 0.10972
 H400 H 0.23799 0.06496 0.05118
 H401 H 0.28333 0.05447 0.20334
 H402 H 0.28892 0.10087 0.23294
 H403 H 0.26558 0.14650 0.13750
 C404 C 0.76853 0.64902 0.64342
 C405 C 0.74590 0.64226 0.66458
 C406 C 0.73179 0.61769 0.66003
 C407 C 0.74121 0.59944 0.63234
 C408 C 0.76480 0.60562 0.61029
 C409 C 0.77897 0.63064 0.61640
 O410 O 0.77737 0.67444 0.65072
 C411 C 0.75998 0.68386 0.67710
 C412 C 0.74059 0.66480 0.68680
 C413 C 0.71992 0.67050 0.71332
 C414 C 0.71892 0.69711 0.73032
 C415 C 0.73801 0.71759 0.72016
 C416 C 0.75903 0.71069 0.69330
 H417 H 0.71359 0.61316 0.67659
 H418 H 0.72984 0.58065 0.62768
 H419 H 0.79693 0.63600 0.59999
 H420 H 0.70481 0.65518 0.72035
 H421 H 0.70254 0.70213 0.75061
 H422 H 0.77376 0.72590 0.68484
 C423 C 0.71355 0.92729 0.12967
 C424 C 0.71655 0.90301 0.10932
 C425 C 0.71874 0.90383 0.07370
 C426 C 0.71760 0.93082 0.05826
 C427 C 0.71330 0.95677 0.07819
 C428 C 0.71121 0.95456 0.11475
 O429 O 0.71385 0.92149 0.16324
 C430 C 0.71701 0.89291 0.16392
 C431 C 0.71830 0.88067 0.13151
 C432 C 0.72164 0.85117 0.12590
 C433 C 0.72431 0.83342 0.15495
 C434 C 0.72432 0.84535 0.18875
 C435 C 0.72035 0.87560 0.19330
 H436 H 0.72203 0.88431 0.05835
 H437 H 0.72093 0.93128 0.03063
 H438 H 0.70716 0.97336 0.13123
 H439 H 0.72260 0.84211 0.10009
 H440 H 0.72770 0.81035 0.15102
 H441 H 0.72048 0.88528 0.21877
 C442 C 0.28121 0.34079 0.60899
 C443 C 0.30140 0.34532 0.63483
 C444 C 0.31913 0.36767 0.63410
 C445 C 0.31572 0.38626 0.60574
 C446 C 0.29480 0.38226 0.57896
 C447 C 0.27741 0.35907 0.58056
 O448 O 0.26661 0.31829 0.61466
 C449 C 0.27779 0.30843 0.64474
 C450 C 0.29908 0.32424 0.65822
 C451 C 0.31358 0.31771 0.68957
 C452 C 0.30603 0.29374 0.70761
 C453 C 0.28439 0.27680 0.69407
 C454 C 0.26999 0.28451 0.66218
 H455 H 0.33490 0.37078 0.65470
 H456 H 0.32909 0.40399 0.60467
 H457 H 0.26117 0.35570 0.56055
 H458 H 0.33023 0.33052 0.69969
 H459 H 0.31736 0.28818 0.73186
 H460 H 0.25341 0.27211 0.65102
 C461 C 0.90262 0.29944 0.12394
 C462 C 0.91499 0.30510 0.15545
 C463 C 0.94423 0.31166 0.15921
 C464 C 0.96167 0.31189 0.12934
 C465 C 0.95009 0.30496 0.09631
 C466 C 0.91970 0.29913 0.09388
 O467 O 0.87437 0.29366 0.12612
 C468 C 0.86891 0.29559 0.15978
 C469 C 0.89315 0.30227 0.17888
 C470 C 0.89282 0.30419 0.21472
 C471 C 0.86629 0.29925 0.23158
 C472 C 0.84071 0.29306 0.21241
 C473 C 0.84208 0.29123 0.17595
 H474 H 0.95333 0.31643 0.18427
 H475 H 0.98434 0.31753 0.13200
 H476 H 0.91000 0.29303 0.06964
 H477 H 0.91232 0.30916 0.22920
 H478 H 0.86546 0.30080 0.25948
 H479 H 0.82298 0.28625 0.16073
 C480 C 0.35503 0.77693 0.61491
 C481 C 0.32921 0.79442 0.60585
 C482 C 0.32857 0.81493 0.58001
 C483 C 0.35544 0.81700 0.56227
 C484 C 0.38202 0.79838 0.57021
 C485 C 0.38194 0.77849 0.59744
 O486 O 0.35060 0.75822 0.63931
 C487 C 0.32135 0.76386 0.64561
 C488 C 0.30714 0.78567 0.62565
 C489 C 0.27616 0.79376 0.62654
 C490 C 0.25919 0.77881 0.64901
 C491 C 0.27345 0.75658 0.67026
 C492 C 0.30503 0.74917 0.66858
 H493 H 0.30798 0.82837 0.57321
 H494 H 0.35537 0.83227 0.54140
 H495 H 0.40181 0.76378 0.60361
 H496 H 0.26540 0.81065 0.61015
 H497 H 0.23504 0.78467 0.65008
 H498 H 0.31646 0.73196 0.68404
 C499 C 0.10443 0.65590 0.12102
 C500 C 0.12951 0.65066 0.10065
 C501 C 0.12797 0.64737 0.06521
 C502 C 0.09944 0.65041 0.04985
 C503 C 0.07251 0.65589 0.06984
 C504 C 0.07556 0.65726 0.10645
 O505 O 0.11102 0.66235 0.15349
 C506 C 0.14088 0.66127 0.15333
 C507 C 0.15320 0.65373 0.12166
 C508 C 0.18360 0.65344 0.11460
 C509 C 0.20210 0.66201 0.14100
 C510 C 0.18995 0.67123 0.17358
 C511 C 0.15892 0.67011 0.18006
 H512 H 0.14809 0.64446 0.04958
 H513 H 0.09885 0.65045 0.02196
 H514 H 0.05621 0.65999 0.12325
 H515 H 0.19259 0.64783 0.08923
 H516 H 0.22567 0.66274 0.13539
 H517 H 0.14879 0.67755 0.20432
 C518 C 0.61422 0.24209 0.64145
 C519 C 0.59937 0.26666 0.65604
 C520 C 0.57174 0.27966 0.64378
 C521 C 0.55882 0.26664 0.61553
 C522 C 0.57334 0.24085 0.60078
 C523 C 0.60147 0.22846 0.61389
 O524 O 0.64100 0.23414 0.65561
 C525 C 0.64307 0.25405 0.67977
 C526 C 0.61808 0.27427 0.68136
 C527 C 0.61578 0.29731 0.70444
 C528 C 0.64051 0.29994 0.72624
 C529 C 0.66701 0.27996 0.72415
 C530 C 0.66801 0.25643 0.70088
 H531 H 0.56074 0.29930 0.65524
 H532 H 0.53743 0.27638 0.60527
 H533 H 0.61315 0.20903 0.60262
 H534 H 0.59592 0.31301 0.70515
 H535 H 0.63950 0.31823 0.74363
 H536 H 0.68795 0.24094 0.69848
 C537 C 0.73201 0.15715 0.89614
 C538 C 0.74885 0.17509 0.91387
 C539 C 0.75847 0.17021 0.94764
 C540 C 0.75026 0.14588 0.96405
 C541 C 0.73231 0.12693 0.94688
 C542 C 0.72343 0.13275 0.91202
 O543 O 0.72441 0.16642 0.86452
 C544 C 0.73671 0.19077 0.86242
 C545 C 0.75183 0.19699 0.89207
 C546 C 0.76493 0.22215 0.89656
 C547 C 0.76210 0.24190 0.86947
 C548 C 0.74683 0.23601 0.83859
 C549 C 0.73418 0.20996 0.83472
 H550 H 0.77179 0.18468 0.96096
 H551 H 0.75840 0.14160 0.99012
 H552 H 0.70917 0.11945 0.89814
 H553 H 0.77626 0.22672 0.92038
 H554 H 0.77148 0.26200 0.87261
 H555 H 0.72180 0.20541 0.81161
 C556 C 0.26928 0.57160 0.36776
 C557 C 0.29281 0.56689 0.34491
 C558 C 0.31464 0.54311 0.34684
 C559 C 0.31210 0.52339 0.37343
 C560 C 0.28804 0.52778 0.39728
 C561 C 0.26629 0.55224 0.39434
 O562 O 0.25103 0.59554 0.36141
 C563 C 0.26331 0.60616 0.33398
 C564 C 0.28890 0.58945 0.32286
 C565 C 0.30531 0.59658 0.29453
 C566 C 0.29492 0.62197 0.27691
 C567 C 0.26856 0.63968 0.28784
 C568 C 0.25259 0.63151 0.31689
 H569 H 0.33296 0.53988 0.32858
 H570 H 0.32885 0.50473 0.37561
 H571 H 0.24768 0.55597 0.41220
 H572 H 0.32539 0.58307 0.28627
 H573 H 0.30748 0.62781 0.25480
 H574 H 0.23242 0.64445 0.32596
 C575 C 0.20294 0.85667 0.86216
 C576 C 0.17594 0.85893 0.84459
 C577 C 0.15221 0.88007 0.85225
 C578 C 0.15657 0.89963 0.87901
 C579 C 0.18443 0.89785 0.89718
 C580 C 0.20781 0.87589 0.88851
 O581 O 0.22235 0.83471 0.85177
 C582 C 0.20735 0.82277 0.82706
 C583 C 0.17888 0.83673 0.82148
 C584 C 0.15932 0.82740 0.79694
 C585 C 0.16950 0.80260 0.77762
 C586 C 0.19870 0.78766 0.78333
 C587 C 0.21784 0.79817 0.80835
 H588 H 0.13097 0.88120 0.83849
 H589 H 0.13806 0.91565 0.88615
 H590 H 0.22925 0.87384 0.90201
 H591 H 0.13696 0.83865 0.79300
 H592 H 0.15449 0.79483 0.75866
 H593 H 0.24021 0.78735 0.81349
 C594 C 0.78608 0.42788 0.38287
 C595 C 0.76899 0.43918 0.35544
 C596 C 0.75631 0.46779 0.35433
 C597 C 0.76110 0.48536 0.38287
 C598 C 0.77846 0.47418 0.41161
 C599 C 0.79157 0.44509 0.41122
 O600 O 0.79467 0.39985 0.37969
 C601 C 0.78272 0.39329 0.34962
 C602 C 0.76689 0.41661 0.33367
 C603 C 0.75170 0.41438 0.30252
 C604 C 0.75270 0.38700 0.28729
 C605 C 0.76855 0.36246 0.30342
 C606 C 0.78396 0.36585 0.33500
 H607 H 0.74258 0.47611 0.33269
 H608 H 0.75069 0.50748 0.38306
 H609 H 0.80470 0.43594 0.43292
 H610 H 0.73919 0.43301 0.29058
 H611 H 0.74069 0.38490 0.26322
 H612 H 0.79607 0.34764 0.34818
 C613 C 0.13524 0.26993 0.87564
 C614 C 0.12534 0.28175 0.84464
 C615 C 0.09783 0.29871 0.84094
 C616 C 0.07957 0.30331 0.87026
 C617 C 0.08857 0.29044 0.90256
 C618 C 0.11728 0.27378 0.90498
 O619 O 0.16195 0.25421 0.87361
 C620 C 0.16898 0.25604 0.84054
 C621 C 0.14721 0.27243 0.82159
 C622 C 0.14926 0.27582 0.78604
 C623 C 0.17481 0.26177 0.76942
 C624 C 0.19781 0.24529 0.78861
 C625 C 0.19489 0.24255 0.82471
 H626 H 0.09061 0.30804 0.81633
 H627 H 0.05837 0.31701 0.86774
 H628 H 0.12490 0.26279 0.92851
 H629 H 0.13164 0.28847 0.77157
 H630 H 0.17687 0.26391 0.74175
 H631 H 0.21189 0.22965 0.83982
 C632 C 0.59158 0.80066 0.37559
 C633 C 0.60241 0.82643 0.38204
 C634 C 0.58965 0.84632 0.40619
 C635 C 0.56477 0.83930 0.42466
 C636 C 0.55325 0.81286 0.41867
 C637 C 0.56665 0.79331 0.39359
 O638 O 0.60789 0.78439 0.35260
 C639 C 0.62948 0.80024 0.34444
 C640 C 0.62705 0.82614 0.36178
 C641 C 0.64782 0.84562 0.35841
 C642 C 0.67235 0.83802 0.33652
 C643 C 0.67571 0.81134 0.31843
 C644 C 0.65364 0.79232 0.32216
 H645 H 0.59881 0.86631 0.41102
 H646 H 0.55463 0.85421 0.44399
 H647 H 0.55841 0.77283 0.38901
 H648 H 0.64551 0.86575 0.37259
 H649 H 0.68890 0.85289 0.33397
 H650 H 0.65576 0.77166 0.30914
 C651 C 0.87710 0.74301 0.87465
 C652 C 0.88235 0.76970 0.86330
 C653 C 0.90700 0.78287 0.87439
 C654 C 0.92697 0.76788 0.89806
 C655 C 0.92243 0.73999 0.90922
 C656 C 0.89713 0.72743 0.89726
 O657 O 0.85153 0.73501 0.86276
 C658 C 0.84044 0.75701 0.84330
 C659 C 0.85854 0.77869 0.84236
 C660 C 0.85105 0.80370 0.82337
 C661 C 0.82366 0.80654 0.80491
 C662 C 0.80425 0.78485 0.80655
 C663 C 0.81290 0.75970 0.82590
 H664 H 0.91036 0.80414 0.86575
 H665 H 0.94587 0.77795 0.90784
 H666 H 0.89286 0.70643 0.90603
 H667 H 0.86565 0.82047 0.82292
 H668 H 0.81714 0.82592 0.79027
 H669 H 0.79852 0.74279 0.82749
 C670 C 0.42022 0.16169 0.37775
 C671 C 0.43430 0.14969 0.34866
 C672 C 0.46514 0.14080 0.34761
 C673 C 0.48215 0.14509 0.37745
 C674 C 0.46820 0.15863 0.40713
 C675 C 0.43669 0.16642 0.40742
 O676 O 0.39119 0.17034 0.37295
 C677 C 0.38681 0.16394 0.34007
 C678 C 0.41245 0.15147 0.32383
 C679 C 0.41340 0.14583 0.28845
 C680 C 0.38695 0.15366 0.26911
 C681 C 0.36029 0.16637 0.28552
 C682 C 0.36022 0.17108 0.32159
 H683 H 0.47585 0.13172 0.32437
 H684 H 0.50632 0.13925 0.37699
 H685 H 0.42561 0.17740 0.42942
 H686 H 0.43400 0.13670 0.27601
 H687 H 0.38732 0.15026 0.24142
 H688 H 0.34050 0.18165 0.33462
 C689 C 0.70559 0.93898 0.88596
 C690 C 0.69934 0.95052 0.85386
 C691 C 0.69343 0.97999 0.84856
 C692 C 0.69410 0.99824 0.87749
 C693 C 0.70117 0.98697 0.91108
 C694 C 0.70694 0.95661 0.91483
 O695 O 0.71068 0.91050 0.88571
 C696 C 0.70765 0.90384 0.85267
 C697 C 0.70093 0.92752 0.83194
 C698 C 0.69807 0.92531 0.79624
 C699 C 0.70238 0.89762 0.78141
 C700 C 0.70887 0.87292 0.80242
 C701 C 0.71134 0.87620 0.83860
 H702 H 0.68828 0.98866 0.82308
 H703 H 0.68854 1.02114 0.87368
 H704 H 0.71351 0.94675 0.93936
 H705 H 0.69311 0.94422 0.78034
 H706 H 0.70053 0.89540 0.75365
 H707 H 0.71682 0.85780 0.85524
 C708 C 0.29111 0.33818 0.36665
 C709 C 0.31290 0.34218 0.34287
 C710 C 0.33034 0.36473 0.34515
 C711 C 0.32492 0.38404 0.37291
 C712 C 0.30229 0.38057 0.39749
 C713 C 0.28524 0.35721 0.39436
 O714 O 0.27716 0.31535 0.35983
 C715 C 0.29040 0.30476 0.33111
 C716 C 0.31234 0.32042 0.31959
 C717 C 0.32888 0.31319 0.28983
 C718 C 0.32272 0.28865 0.27137
 C719 C 0.30046 0.27186 0.28298
 C720 C 0.28401 0.28026 0.31328
 H721 H 0.34741 0.36741 0.32619
 H722 H 0.33806 0.40190 0.37518
 H723 H 0.26774 0.35422 0.41268
 H724 H 0.34600 0.32590 0.28123
 H725 H 0.33560 0.28254 0.24834
 H726 H 0.26685 0.26802 0.32289
 C727 C 0.24220 0.07260 0.87147
 C728 C 0.24717 0.05945 0.83985
 C729 C 0.24702 0.03014 0.83486
 C730 C 0.24097 0.01374 0.86350
 C731 C 0.23428 0.02675 0.89645
 C732 C 0.23553 0.05680 0.90027
 O733 O 0.24349 0.10076 0.87058
 C734 C 0.24923 0.10542 0.83763
 C735 C 0.25137 0.08087 0.81767
 C736 C 0.25592 0.08099 0.78217
 C737 C 0.25856 0.10752 0.76663
 C738 C 0.25725 0.13300 0.78681
 C739 C 0.25259 0.13190 0.82285
 H740 H 0.25148 0.02020 0.80981
 H741 H 0.24157 -0.00926 0.85993
 H742 H 0.23009 0.06788 0.92446
 H743 H 0.25716 0.06142 0.76696
 H744 H 0.26219 0.10818 0.73905
 H745 H 0.25116 0.15113 0.83873
 C746 C 0.78535 0.64968 0.38907
 C747 C 0.80631 0.66707 0.39990
 C748 C 0.82534 0.66036 0.42799
 C749 C 0.82216 0.63507 0.44607
 C750 C 0.80014 0.61726 0.43592
 C751 C 0.78188 0.62441 0.40660
 O752 O 0.76854 0.66057 0.36288
 C753 C 0.77898 0.68540 0.35715
 C754 C 0.80201 0.69051 0.37913
 C755 C 0.81504 0.71600 0.37873
 C756 C 0.80393 0.73700 0.35459
 C757 C 0.78034 0.73209 0.33143
 C758 C 0.76785 0.70578 0.33280
 H759 H 0.84145 0.67448 0.43627
 H760 H 0.83599 0.62982 0.46874
 H761 H 0.76448 0.61149 0.39887
 H762 H 0.83288 0.71972 0.39660
 H763 H 0.81374 0.75699 0.35389
 H764 H 0.74955 0.70147 0.31588
 C765 C 0.09611 0.66127 0.85856
 C766 C 0.12238 0.65565 0.87714
 C767 C 0.12302 0.65145 0.91244
 C768 C 0.09549 0.65388 0.92961
 C769 C 0.06741 0.65976 0.91155
 C770 C 0.06819 0.66224 0.87494
 O771 O 0.10072 0.66820 0.82595
 C772 C 0.13054 0.66705 0.82418
 C773 C 0.14475 0.65907 0.85479
 C774 C 0.17555 0.65853 0.85986
 C775 C 0.19246 0.66725 0.83249
 C776 C 0.17838 0.67676 0.80095
 C777 C 0.14698 0.67596 0.79650
 H778 H 0.14406 0.64816 0.92665
 H779 H 0.09654 0.65303 0.95748
 H780 H 0.04782 0.66544 0.85953
 H781 H 0.18606 0.65257 0.88444
 H782 H 0.21637 0.66770 0.83652
 H783 H 0.13543 0.68362 0.77308
 C784 C 0.63041 0.24542 0.38938
 C785 C 0.61788 0.27057 0.37417
 C786 C 0.58921 0.28382 0.38229
 C787 C 0.57276 0.27045 0.40687
 C788 C 0.58492 0.24406 0.42202
 C789 C 0.61422 0.23149 0.41328
 O790 O 0.65814 0.23667 0.37869
 C791 C 0.66320 0.25661 0.35607
 C792 C 0.63921 0.27770 0.35207
 C793 C 0.63954 0.30027 0.32897
 C794 C 0.66574 0.30118 0.30940
 C795 C 0.69100 0.28004 0.31379
 C796 C 0.68960 0.25744 0.33747
 H797 H 0.57991 0.30374 0.37025
 H798 H 0.55040 0.28028 0.41378
 H799 H 0.62402 0.21148 0.42478
 H800 H 0.62033 0.31652 0.32605
 H801 H 0.66661 0.31863 0.29140
 H802 H 0.70844 0.24086 0.34109
 C803 C 0.88606 0.31617 0.89527
 C804 C 0.89254 0.33062 0.86599
 C805 C 0.91995 0.34109 0.86119
 C806 C 0.94166 0.33621 0.88749
 C807 C 0.93589 0.32058 0.91750
 C808 C 0.90750 0.31065 0.92146
 O809 O 0.85896 0.30742 0.89440
 C810 C 0.84819 0.31635 0.86381
 C811 C 0.86795 0.33043 0.84524
 C812 C 0.86206 0.33973 0.81154
 C813 C 0.83477 0.33409 0.79634
 C814 C 0.81397 0.32004 0.81527
 C815 C 0.82060 0.31133 0.84957
 H816 H 0.92456 0.35236 0.83791
 H817 H 0.96325 0.34403 0.88422
 H818 H 0.90261 0.29824 0.94375
 H819 H 0.87820 0.35024 0.79718
 H820 H 0.82984 0.34048 0.76989
 H821 H 0.80530 0.29995 0.86415
 C822 C 0.37319 0.77631 0.35116
 C823 C 0.34889 0.79727 0.35415
 C824 C 0.34891 0.82088 0.37608
 C825 C 0.37452 0.82237 0.39676
 C826 C 0.39916 0.80026 0.39544
 C827 C 0.39890 0.77737 0.37155
 O828 O 0.36781 0.75474 0.33054
 C829 C 0.33947 0.76209 0.32061
 C830 C 0.32676 0.78778 0.33459
 C831 C 0.29646 0.79814 0.33025
 C832 C 0.27863 0.78146 0.31044
 C833 C 0.29143 0.75525 0.29512
 C834 C 0.32235 0.74557 0.30011
 H835 H 0.32940 0.83688 0.37835
 H836 H 0.37444 0.83966 0.41550
 H837 H 0.41702 0.75979 0.37099
 H838 H 0.28678 0.81806 0.34224
 H839 H 0.25498 0.78903 0.30672
 H840 H 0.33250 0.72533 0.28927
 C841 C 0.21409 0.85237 0.11015
 C842 C 0.18670 0.85277 0.12620
 C843 C 0.16199 0.87272 0.11814
 C844 C 0.16572 0.89302 0.09249
 C845 C 0.19388 0.89313 0.07601
 C846 C 0.21838 0.87255 0.08502
 O847 O 0.23441 0.83118 0.12071
 C848 C 0.21959 0.81791 0.14401
 C849 C 0.19037 0.83032 0.14850
 C850 C 0.17088 0.81973 0.17163
 C851 C 0.18193 0.79530 0.19077
 C852 C 0.21188 0.78184 0.18621
 C853 C 0.23094 0.79349 0.16248
 H854 H 0.14056 0.87245 0.13084
 H855 H 0.14681 0.90858 0.08532
 H856 H 0.23996 0.87207 0.07240
 H857 H 0.14796 0.82983 0.17474
 H858 H 0.16699 0.78664 0.20872
 H859 H 0.25390 0.78382 0.15840
 C860 C 0.75806 0.42143 0.62289
 C861 C 0.73281 0.43217 0.64111
 C862 C 0.71697 0.45904 0.63493
 C863 C 0.72784 0.47579 0.60919
 C864 C 0.75412 0.46552 0.59043
 C865 C 0.76928 0.43778 0.59702
 O866 O 0.77020 0.39574 0.63380
 C867 C 0.75227 0.39027 0.65952
 C868 C 0.72914 0.41197 0.66502
 C869 C 0.70846 0.41147 0.69149
 C870 C 0.71171 0.38759 0.71332
 C871 C 0.73525 0.36474 0.70825
 C872 C 0.75572 0.36605 0.68071
 H873 H 0.69727 0.46703 0.64980
 H874 H 0.71625 0.49706 0.60426
 H875 H 0.78961 0.42972 0.58330
 H876 H 0.69066 0.42899 0.69546
 H877 H 0.69578 0.38691 0.73413
 H878 H 0.77408 0.34912 0.67642
 C879 C 0.75123 0.14167 0.14280
 C880 C 0.74097 0.13442 0.17453
 C881 C 0.72635 0.11022 0.17941
 C882 C 0.72179 0.09309 0.15032
 C883 C 0.73242 0.09999 0.11729
 C884 C 0.74811 0.12433 0.11397
 O885 O 0.76218 0.16673 0.14286
 C886 C 0.75889 0.17551 0.17540
 C887 C 0.74645 0.15634 0.19604
 C888 C 0.74062 0.16161 0.23093
 C889 C 0.74752 0.18781 0.24490
 C890 C 0.75916 0.20831 0.22369
 C891 C 0.76512 0.20197 0.18852
 H892 H 0.71782 0.10525 0.20446
 H893 H 0.70939 0.07484 0.15335
 H894 H 0.75675 0.13021 0.08932
 H895 H 0.73073 0.14630 0.24668
 H896 H 0.74263 0.19270 0.27181
 H897 H 0.77379 0.21740 0.17179
 C898 C 0.25934 0.57292 0.60633
 C899 C 0.28155 0.56864 0.63114
 C900 C 0.30373 0.54510 0.63085
 C901 C 0.30297 0.52512 0.60384
 C902 C 0.28032 0.52906 0.57795
 C903 C 0.25815 0.55329 0.57923
 O904 O 0.24058 0.59681 0.61134
 C905 C 0.25122 0.60784 0.63991
 C906 C 0.27625 0.59141 0.65301
 C907 C 0.29121 0.59901 0.68257
 C908 C 0.27998 0.62468 0.69930
 C909 C 0.25419 0.64217 0.68635
 C910 C 0.23958 0.63345 0.65619
 H911 H 0.32101 0.54226 0.65064
 H912 H 0.32002 0.50660 0.60288
 H913 H 0.24064 0.55667 0.55973
 H914 H 0.31091 0.58573 0.69232
 H915 H 0.29150 0.63093 0.72231
 H916 H 0.21997 0.64629 0.64552
 C917 C 0.88670 0.73654 0.12698
 C918 C 0.89237 0.76344 0.13760
 C919 C 0.91504 0.77745 0.12349
 C920 C 0.93272 0.76306 0.09744
 C921 C 0.92789 0.73500 0.08676
 C922 C 0.90446 0.72159 0.10163
 O923 O 0.86327 0.72763 0.14274
 C924 C 0.85404 0.74934 0.16389
 C925 C 0.87130 0.77163 0.16190
 C926 C 0.86577 0.79650 0.18171
 C927 C 0.84129 0.79864 0.20435
 C928 C 0.82261 0.77628 0.20646
 C929 C 0.82922 0.75119 0.18591
 H930 H 0.91871 0.79883 0.13189
 H931 H 0.95022 0.77362 0.08559
 H932 H 0.90006 0.70037 0.09335
 H933 H 0.87969 0.81373 0.17967
 H934 H 0.83649 0.81809 0.21961
 H935 H 0.81539 0.73381 0.18684
 C936 C 0.40676 0.16031 0.60784
 C937 C 0.41760 0.14634 0.63735
 C938 C 0.44773 0.13532 0.64154
 C939 C 0.46759 0.13965 0.61468
 C940 C 0.45709 0.15525 0.58483
 C941 C 0.42610 0.16493 0.58099
 O942 O 0.37809 0.17130 0.61006
 C943 C 0.37067 0.16443 0.64174
 C944 C 0.39406 0.14932 0.65968
 C945 C 0.39216 0.14302 0.69463
 C946 C 0.36524 0.15296 0.71174
 C947 C 0.34087 0.16842 0.69360
 C948 C 0.34350 0.17371 0.65796
 H949 H 0.45588 0.12486 0.66520
 H950 H 0.49139 0.13250 0.61790
 H951 H 0.41775 0.17765 0.55893
 H952 H 0.41113 0.13187 0.70851
 H953 H 0.36351 0.14909 0.73915
 H954 H 0.32564 0.18637 0.64383
 C955 C 0.14912 0.26388 0.10517
 C956 C 0.14258 0.27783 0.13609
 C957 C 0.11633 0.29639 0.14147
 C958 C 0.09573 0.30041 0.11402
 C959 C 0.10136 0.28552 0.08220
 C960 C 0.12870 0.26725 0.07763
 O961 O 0.17504 0.24670 0.10579
 C962 C 0.18492 0.24973 0.13787
 C963 C 0.16572 0.26835 0.15753
 C964 C 0.17062 0.27327 0.19245
 C965 C 0.19639 0.25838 0.20774
 C966 C 0.21681 0.23956 0.18786
 C967 C 0.21114 0.23533 0.15235
 H968 H 0.11169 0.30709 0.16606
 H969 H 0.07494 0.31453 0.11775
 H970 H 0.13339 0.25526 0.05387
 H971 H 0.15491 0.28765 0.20749
 H972 H 0.20063 0.26165 0.23497
 H973 H 0.22617 0.22062 0.13686
 C974 C 0.57840 0.80816 0.62903
 C975 C 0.57161 0.78952 0.65423
 C976 C 0.54760 0.77343 0.65148
 C977 C 0.52981 0.77668 0.62151
 C978 C 0.53586 0.79619 0.59531
 C979 C 0.56044 0.81238 0.59941
 O980 O 0.60330 0.82003 0.63584
 C981 C 0.61233 0.80868 0.66607
 C982 C 0.59349 0.79015 0.67857
 C983 C 0.59880 0.77554 0.70950
 C984 C 0.62489 0.77980 0.72809
 C985 C 0.64535 0.79802 0.71528
 C986 C 0.63871 0.81292 0.68391
 H987 H 0.54306 0.75850 0.67140
 H988 H 0.51130 0.76397 0.61857
 H989 H 0.56561 0.82745 0.57993
 H990 H 0.58366 0.76100 0.71872
 H991 H 0.62969 0.76800 0.75181
 H992 H 0.65395 0.82678 0.67330
   
