data_POSCAR
  _audit_creation_date              2014-09-24
  _audit_creation_method            'ToBaCCo'
  _symmetry_space_group_name_H-M    'P1'
  _symmetry_Int_Tables_number       1
  _symmetry_cell_setting            triclinic
  loop_
  _symmetry_equiv_pos_as_xyz
 x,y,z
_cell_length_a 50.8573
_cell_length_b 50.8681
_cell_length_c 50.8842
_cell_angle_alpha 90.011300
_cell_angle_beta 90.021000
_cell_angle_gamma 89.972400
loop_
  _atom_site_label
  _atom_site_type_symbol
  _atom_site_fract_x
  _atom_site_fract_y
  _atom_site_fract_z
C1 C 0.28799 0.32198 0.01289
 C2 C 0.28806 0.32179 -0.01484
 C3 C 0.30493 0.30468 -0.02834
 C4 C 0.32189 0.28792 -0.01449
 C5 C 0.32179 0.28813 0.01323
 C6 C 0.30477 0.30507 0.02671
 H7 H 0.30486 0.30538 0.04803
 H8 H 0.30515 0.30468 -0.04969
 C9 C 0.71147 0.67860 0.01326
 C10 C 0.71143 0.67893 -0.01442
 C11 C 0.69453 0.69601 -0.02789
 C12 C 0.67749 0.71264 -0.01401
 C13 C 0.67754 0.71230 0.01372
 C14 C 0.69461 0.69536 0.02715
 H15 H 0.69450 0.69494 0.04847
 H16 H 0.69440 0.69604 -0.04922
 C17 C 0.71120 0.32333 0.98575
 C18 C 0.71131 0.32330 1.01348
 C19 C 0.69451 0.30628 1.02718
 C20 C 0.67750 0.28947 1.01351
 C21 C 0.67742 0.28950 0.98583
 C22 C 0.69433 0.30635 0.97213
 H23 H 0.69410 0.30651 0.95081
 H24 H 0.69438 0.30634 1.04851
 C25 C 0.28824 0.67778 0.98744
 C26 C 0.28803 0.67789 1.01516
 C27 C 0.30473 0.69498 1.02890
 C28 C 0.32177 0.71181 1.01529
 C29 C 0.32194 0.71170 0.98757
 C30 C 0.30510 0.69477 0.97385
 H31 H 0.30540 0.69454 0.95253
 H32 H 0.30473 0.69491 1.05025
 C33 C 0.01386 0.28794 0.32175
 C34 C -0.01384 0.28791 0.32144
 C35 C -0.02737 0.30468 0.30429
 C36 C -0.01354 0.32164 0.28759
 C37 C 0.01415 0.32165 0.28789
 C38 C 0.02769 0.30473 0.30489
 H39 H 0.04902 0.30492 0.30528
 H40 H -0.04871 0.30482 0.30422
 C41 C 0.01421 0.71165 0.67780
 C42 C -0.01353 0.71157 0.67769
 C43 C -0.02722 0.69472 0.69465
 C44 C -0.01353 0.67778 0.71156
 C45 C 0.01421 0.67790 0.71165
 C46 C 0.02786 0.69490 0.69486
 H47 H 0.04920 0.69481 0.69479
 H48 H -0.04857 0.69450 0.69442
 C49 C 0.98656 0.71111 0.32169
 C50 C 1.01425 0.71132 0.32181
 C51 C 1.02814 0.69459 0.30492
 C52 C 1.01467 0.67749 0.28801
 C53 C 0.98693 0.67733 0.28786
 C54 C 0.97307 0.69421 0.30464
 H55 H 0.95174 0.69393 0.30470
 H56 H 1.04948 0.69464 0.30523
 C57 C 0.98603 0.28797 0.67744
 C58 C 1.01377 0.28792 0.67748
 C59 C 1.02744 0.30479 0.69447
 C60 C 1.01373 0.32182 0.71121
 C61 C 0.98604 0.32185 0.71116
 C62 C 0.97236 0.30486 0.69436
 H63 H 0.95103 0.30506 0.69418
 H64 H 1.04878 0.30497 0.69441
 C65 C 0.32239 0.01332 0.28885
 C66 C 0.32214 -0.01441 0.28890
 C67 C 0.30503 -0.02790 0.30577
 C68 C 0.28832 -0.01402 0.32274
 C69 C 0.28859 0.01371 0.32267
 C70 C 0.30554 0.02717 0.30565
 H71 H 0.30588 0.04850 0.30576
 H72 H 0.30498 -0.04925 0.30595
 C73 C 0.67803 0.01393 0.71193
 C74 C 0.67798 -0.01376 0.71227
 C75 C 0.69496 -0.02768 0.69564
 C76 C 0.71182 -0.01425 0.67853
 C77 C 0.71187 0.01344 0.67820
 C78 C 0.69505 0.02737 0.69498
 H79 H 0.69493 0.04869 0.69456
 H80 H 0.69476 -0.04901 0.69574
 C81 C 0.32212 0.98721 0.71195
 C82 C 0.32220 1.01494 0.71193
 C83 C 0.30529 1.02866 0.69502
 C84 C 0.28847 1.01500 0.67797
 C85 C 0.28843 0.98727 0.67801
 C86 C 0.30517 0.97359 0.69507
 H87 H 0.30527 0.95226 0.69494
 H88 H 0.30549 1.05001 0.69485
 C89 C 0.67807 0.98567 0.28859
 C90 C 0.67826 1.01335 0.28844
 C91 C 0.69532 1.02701 0.30520
 C92 C 0.71208 1.01331 0.32227
 C93 C 0.71189 0.98557 0.32238
 C94 C 0.69496 0.97196 0.30546
 H95 H 0.69465 0.95063 0.30571
 H96 H 0.69524 1.04835 0.30520
 O97 O 0.88795 0.85052 0.47485
 O98 O 0.85180 0.88669 0.52620
 O99 O 0.88820 0.85054 0.52604
 O100 O 0.85160 0.88669 0.47501
 O101 O 0.82097 0.85584 0.47517
 O102 O 0.85752 0.81974 0.52613
 O103 O 0.82118 0.85584 0.52628
 O104 O 0.85726 0.81972 0.47501
 Cu105 Cu 0.87299 0.87172 0.50052
 Cu106 Cu 0.83615 0.83468 0.50067
 C107 C 0.87870 0.82899 0.46630
 C108 C 0.83035 0.87737 0.53486
 C109 C 0.87904 0.82900 0.53465
 C110 C 0.83009 0.87737 0.46651
 O111 O 0.11237 0.14856 0.47524
 O112 O 0.14889 0.11249 0.52638
 O113 O 0.11235 0.14850 0.52641
 O114 O 0.14889 0.11257 0.47520
 O115 O 0.17939 0.14355 0.47530
 O116 O 0.14289 0.17943 0.52645
 O117 O 0.17939 0.14346 0.52643
 O118 O 0.14291 0.17950 0.47534
 Cu119 Cu 0.12754 0.12740 0.50081
 Cu120 Cu 0.16422 0.16460 0.50089
 C121 C 0.12146 0.17015 0.46669
 C122 C 0.17034 0.12187 0.53499
 C123 C 0.12144 0.17007 0.53502
 C124 C 0.17033 0.12200 0.46664
 O125 O 0.11253 0.85198 0.52540
 O126 O 0.14851 0.88849 0.47421
 O127 O 0.11232 0.85216 0.47422
 O128 O 0.14868 0.88833 0.52540
 O129 O 0.17948 0.85763 0.52515
 O130 O 0.14317 0.82150 0.47404
 O131 O 0.17931 0.85779 0.47403
 O132 O 0.14339 0.82133 0.52515
 Cu133 Cu 0.12740 0.87334 0.49982
 Cu134 Cu 0.16445 0.83647 0.49956
 C135 C 0.12189 0.83047 0.53388
 C136 C 0.17003 0.87932 0.46554
 C137 C 0.12159 0.83068 0.46555
 C138 C 0.17024 0.87908 0.53388
 O139 O 0.88772 0.14775 0.52484
 O140 O 0.85166 0.11123 0.47369
 O141 O 0.88768 0.14770 0.47365
 O142 O 0.85174 0.11125 0.52487
 O143 O 0.82079 0.14181 0.52484
 O144 O 0.85669 0.17822 0.47369
 O145 O 0.82072 0.14179 0.47373
 O146 O 0.85673 0.17826 0.52481
 Cu147 Cu 0.87283 0.12640 0.49926
 Cu148 Cu 0.83561 0.16310 0.49927
 C149 C 0.87831 0.16920 0.53343
 C150 C 0.83007 0.12033 0.46512
 C151 C 0.87826 0.16914 0.46507
 C152 C 0.83017 0.12037 0.53346
 O153 O 0.52532 0.85223 0.88900
 O154 O 0.47403 0.88829 0.85261
 O155 O 0.47412 0.85210 0.88892
 O156 O 0.52524 0.88844 0.85272
 O157 O 0.52535 0.85762 0.82206
 O158 O 0.47429 0.82133 0.85822
 O159 O 0.47422 0.85746 0.82195
 O160 O 0.52543 0.82146 0.85829
 Cu161 Cu 0.49966 0.87338 0.87392
 Cu162 Cu 0.49984 0.83637 0.83704
 C163 C 0.53399 0.83073 0.87979
 C164 C 0.46552 0.87897 0.83110
 C165 C 0.46563 0.83054 0.87970
 C166 C 0.53388 0.87918 0.83125
 O167 O 0.52559 0.14864 0.11213
 O168 O 0.47463 0.11215 0.14844
 O169 O 0.47439 0.14853 0.11233
 O170 O 0.52582 0.11224 0.14823
 O171 O 0.52586 0.14289 0.17906
 O172 O 0.47448 0.17913 0.14321
 O173 O 0.47472 0.14280 0.17927
 O174 O 0.52562 0.17925 0.14300
 Cu175 Cu 0.50011 0.12730 0.12716
 Cu176 Cu 0.50018 0.16411 0.16424
 C177 C 0.53416 0.17015 0.12142
 C178 C 0.46612 0.12130 0.17002
 C179 C 0.46579 0.16999 0.12170
 C180 C 0.53446 0.12142 0.16975
 O181 O 0.52510 0.11274 0.85131
 O182 O 0.47383 0.14869 0.88779
 O183 O 0.47388 0.11249 0.85147
 O184 O 0.52504 0.14896 0.88759
 O185 O 0.52471 0.17971 0.85687
 O186 O 0.47363 0.14330 0.82081
 O187 O 0.47357 0.17945 0.85708
 O188 O 0.52477 0.14354 0.82064
 Cu189 Cu 0.49949 0.12761 0.87264
 Cu190 Cu 0.49914 0.16460 0.83576
 C191 C 0.53355 0.12206 0.82980
 C192 C 0.46510 0.17018 0.87860
 C193 C 0.46516 0.12173 0.83001
 C194 C 0.53347 0.17052 0.87833
 O195 O 0.47320 0.85120 0.11314
 O196 O 0.52445 0.88747 0.14932
 O197 O 0.52442 0.85123 0.11307
 O198 O 0.47323 0.88742 0.14942
 O199 O 0.47337 0.85663 0.18010
 O200 O 0.52448 0.82050 0.14381
 O201 O 0.52451 0.85668 0.18000
 O202 O 0.47334 0.82047 0.14387
 Cu203 Cu 0.49881 0.87244 0.12813
 Cu204 Cu 0.49893 0.83547 0.16504
 C205 C 0.46466 0.82968 0.12239
 C206 C 0.53310 0.87819 0.17080
 C207 C 0.53306 0.82973 0.12231
 C208 C 0.46470 0.87814 0.17093
 O209 O 0.85140 0.47543 0.88681
 O210 O 0.88807 0.52638 0.85066
 O211 O 0.85166 0.52663 0.88676
 O212 O 0.88779 0.47518 0.85070
 O213 O 0.85712 0.47537 0.81988
 O214 O 0.82106 0.52674 0.85588
 O215 O 0.85741 0.52650 0.81983
 O216 O 0.82079 0.47561 0.85593
 Cu217 Cu 0.87283 0.50089 0.87185
 Cu218 Cu 0.83601 0.50107 0.83477
 C219 C 0.82988 0.46695 0.87747
 C220 C 0.87894 0.53500 0.82911
 C221 C 0.83023 0.53532 0.87742
 C222 C 0.87855 0.46663 0.82917
 O223 O 0.11248 0.52606 0.14876
 O224 O 0.14845 0.47500 0.11203
 O225 O 0.11241 0.47485 0.14847
 O226 O 0.14855 0.52620 0.11235
 O227 O 0.17944 0.52590 0.14296
 O228 O 0.14335 0.47464 0.17901
 O229 O 0.17935 0.47478 0.14263
 O230 O 0.14341 0.52578 0.17931
 Cu231 Cu 0.12734 0.50055 0.12731
 Cu232 Cu 0.16450 0.50025 0.16406
 C233 C 0.12187 0.53451 0.17026
 C234 C 0.17000 0.46631 0.12112
 C235 C 0.12178 0.46612 0.16986
 C236 C 0.17013 0.53467 0.12156
 O237 O 0.88806 0.47409 0.14702
 O238 O 0.85182 0.52541 0.11091
 O239 O 0.88817 0.52528 0.14708
 O240 O 0.85167 0.47422 0.11089
 O241 O 0.82103 0.47432 0.14172
 O242 O 0.85748 0.52532 0.17787
 O243 O 0.82118 0.52545 0.14174
 O244 O 0.85738 0.47419 0.17781
 Cu245 Cu 0.87302 0.49974 0.12586
 Cu246 Cu 0.83618 0.49983 0.16289
 C247 C 0.87886 0.46553 0.16855
 C248 C 0.83034 0.53405 0.12021
 C249 C 0.87900 0.53386 0.16862
 C250 C 0.83015 0.46570 0.12018
 O251 O 0.11267 0.47406 0.85145
 O252 O 0.14908 0.52495 0.88795
 O253 O 0.11284 0.52525 0.85168
 O254 O 0.14897 0.47374 0.88767
 O255 O 0.17968 0.47384 0.85691
 O256 O 0.14362 0.52525 0.82099
 O257 O 0.17981 0.52497 0.85721
 O258 O 0.14343 0.47413 0.82074
 Cu259 Cu 0.12778 0.49949 0.87280
 Cu260 Cu 0.16473 0.49955 0.83587
 C261 C 0.12189 0.46555 0.82990
 C262 C 0.17061 0.53352 0.87875
 C263 C 0.12213 0.53390 0.83022
 C264 C 0.17045 0.46514 0.87837
 C265 C 0.27147 0.33992 0.02746
 C266 C 0.25780 0.35525 0.03928
 C267 C 0.24170 0.37391 0.05314
 C268 C 0.23394 0.39726 0.04076
 C269 C 0.21880 0.41574 0.05438
 C270 C 0.21138 0.41095 0.08046
 C271 C 0.21900 0.38752 0.09279
 C272 C 0.23412 0.36903 0.07916
 C273 C 0.19646 0.43030 0.09472
 C274 C 0.18423 0.44666 0.10674
 H275 H 0.23976 0.40127 0.02067
 H276 H 0.21307 0.43381 0.04468
 H277 H 0.21341 0.38364 0.11297
 H278 H 0.24006 0.35106 0.08893
 C279 C 0.72809 0.66064 0.02764
 C280 C 0.74185 0.64529 0.03934
 C281 C 0.75808 0.62661 0.05305
 C282 C 0.76609 0.60347 0.04043
 C283 C 0.78134 0.58498 0.05391
 C284 C 0.78863 0.58955 0.08008
 C285 C 0.78075 0.61277 0.09264
 C286 C 0.76551 0.63127 0.07916
 C287 C 0.80367 0.57016 0.09418
 C288 C 0.81600 0.55376 0.10604
 H289 H 0.76038 0.59965 0.02027
 H290 H 0.78727 0.56707 0.04402
 H291 H 0.78623 0.61647 0.11289
 H292 H 0.75938 0.64908 0.08911
 C293 C 0.72767 0.34111 0.97095
 C294 C 0.74129 0.35627 0.95888
 C295 C 0.75734 0.37469 0.94465
 C296 C 0.77846 0.38719 0.95718
 C297 C 0.79363 0.40561 0.94354
 C298 C 0.78775 0.41160 0.91730
 C299 C 0.76672 0.39899 0.90474
 C300 C 0.75155 0.38058 0.91839
 C301 C 0.80294 0.43096 0.90337
 C302 C 0.81539 0.44733 0.89160
 H303 H 0.78309 0.38279 0.97750
 H304 H 0.80982 0.41528 0.95345
 H305 H 0.76197 0.40351 0.88448
 H306 H 0.73522 0.37108 0.90854
 C307 C 0.27191 0.65984 0.97266
 C308 C 0.25838 0.64450 0.96070
 C309 C 0.24241 0.62580 0.94674
 C310 C 0.23470 0.60242 0.95907
 C311 C 0.21963 0.58394 0.94539
 C312 C 0.21222 0.58877 0.91931
 C313 C 0.21980 0.61222 0.90702
 C314 C 0.23487 0.63070 0.92071
 C315 C 0.19726 0.56945 0.90504
 C316 C 0.18497 0.55312 0.89305
 H317 H 0.24049 0.59840 0.97917
 H318 H 0.21392 0.56586 0.95507
 H319 H 0.21422 0.61612 0.88685
 H320 H 0.24076 0.64870 0.91099
 C321 C 0.02831 0.27147 0.33979
 C322 C 0.04007 0.25785 0.35521
 C323 C 0.05387 0.24179 0.37396
 C324 C 0.04130 0.23388 0.39715
 C325 C 0.05486 0.21878 0.41570
 C326 C 0.08105 0.21153 0.41115
 C327 C 0.09357 0.21931 0.38789
 C328 C 0.08000 0.23440 0.36933
 C329 C 0.09523 0.19662 0.43058
 C330 C 0.10717 0.18439 0.44699
 H331 H 0.02112 0.23955 0.40096
 H332 H 0.04500 0.21292 0.43364
 H333 H 0.11383 0.21386 0.38420
 H334 H 0.08992 0.24045 0.35148
 C335 C 0.02898 0.72819 0.66005
 C336 C 0.04100 0.74186 0.64490
 C337 C 0.05514 0.75796 0.62646
 C338 C 0.08152 0.75246 0.62076
 C339 C 0.09507 0.76766 0.60231
 C340 C 0.08230 0.78842 0.58947
 C341 C 0.05595 0.79402 0.59527
 C342 C 0.04240 0.77883 0.61374
 C343 C 0.09613 0.80361 0.57003
 C344 C 0.10783 0.81604 0.55360
 H345 H 0.09153 0.73634 0.63044
 H346 H 0.11542 0.76312 0.59794
 H347 H 0.04587 0.81000 0.58542
 H348 H 0.02199 0.78323 0.61799
 C349 C 0.97174 0.72753 0.33947
 C350 C 0.95969 0.74112 0.35469
 C351 C 0.94553 0.75713 0.37321
 C352 C 0.91911 0.75169 0.37876
 C353 C 0.90555 0.76677 0.39732
 C354 C 0.91836 0.78734 0.41042
 C355 C 0.94474 0.79288 0.40476
 C356 C 0.95830 0.77781 0.38618
 C357 C 0.90452 0.80240 0.42997
 C358 C 0.89280 0.81471 0.44649
 H359 H 0.90908 0.73571 0.36890
 H360 H 0.88517 0.76229 0.40158
 H361 H 0.95485 0.80871 0.41481
 H362 H 0.97874 0.78215 0.38206
 C363 C 0.97127 0.27143 0.65967
 C364 C 0.95925 0.25777 0.64450
 C365 C 0.94511 0.24166 0.62605
 C366 C 0.91870 0.24709 0.62044
 C367 C 0.90514 0.23190 0.60197
 C368 C 0.91794 0.21123 0.58903
 C369 C 0.94432 0.20569 0.59475
 C370 C 0.95788 0.22088 0.61324
 C371 C 0.90410 0.19605 0.56957
 C372 C 0.89239 0.18362 0.55314
 H373 H 0.90866 0.26315 0.63019
 H374 H 0.88476 0.23638 0.59766
 H375 H 0.95442 0.18978 0.58482
 H376 H 0.97832 0.21654 0.61742
 C377 C 0.34029 0.02787 0.27228
 C378 C 0.35557 0.03967 0.25856
 C379 C 0.37415 0.05352 0.24236
 C380 C 0.36921 0.07953 0.23476
 C381 C 0.38760 0.09314 0.21951
 C382 C 0.41100 0.08079 0.21181
 C383 C 0.41586 0.05472 0.21928
 C384 C 0.39748 0.04112 0.23453
 C385 C 0.43025 0.09501 0.19674
 C386 C 0.44654 0.10699 0.18439
 H387 H 0.35126 0.08931 0.24075
 H388 H 0.38367 0.11330 0.21389
 H389 H 0.43391 0.04500 0.21348
 H390 H 0.40153 0.02104 0.24037
 C391 C 0.66020 0.02880 0.72826
 C392 C 0.64496 0.04089 0.74179
 C393 C 0.62643 0.05510 0.75776
 C394 C 0.62076 0.08146 0.75216
 C395 C 0.60223 0.09508 0.76723
 C396 C 0.58929 0.08239 0.78795
 C397 C 0.59506 0.05606 0.79365
 C398 C 0.61361 0.04244 0.77858
 C399 C 0.56979 0.09628 0.80303
 C400 C 0.55331 0.10801 0.81540
 H401 H 0.63052 0.09141 0.73606
 H402 H 0.59788 0.11542 0.76263
 H403 H 0.58514 0.04604 0.80960
 H404 H 0.61784 0.02205 0.78305
 C405 C 0.33979 0.97240 0.72856
 C406 C 0.35487 0.96032 0.74229
 C407 C 0.37321 0.94610 0.75846
 C408 C 0.37887 0.91972 0.75294
 C409 C 0.39723 0.90608 0.76819
 C410 C 0.41003 0.91876 0.78903
 C411 C 0.40425 0.94510 0.79466
 C412 C 0.38587 0.95875 0.77940
 C413 C 0.42941 0.90484 0.80425
 C414 C 0.44581 0.89308 0.81669
 H415 H 0.36924 0.90977 0.73675
 H416 H 0.40159 0.88573 0.76363
 H417 H 0.41407 0.95512 0.81069
 H418 H 0.38165 0.97915 0.78382
 C419 C 0.66013 0.97107 0.27215
 C420 C 0.64481 0.95913 0.25857
 C421 C 0.62621 0.94503 0.24261
 C422 C 0.62053 0.91866 0.24815
 C423 C 0.60194 0.90512 0.23309
 C424 C 0.58894 0.91790 0.21244
 C425 C 0.59472 0.94423 0.20680
 C426 C 0.61333 0.95777 0.22186
 C427 C 0.56938 0.90406 0.19738
 C428 C 0.55288 0.89233 0.18508
 H429 H 0.63034 0.90864 0.26419
 H430 H 0.59759 0.88478 0.23764
 H431 H 0.58474 0.95431 0.19091
 H432 H 0.61756 0.97817 0.21744
 C433 C 0.33882 0.27217 0.97184
 C434 C 0.35410 0.25839 0.96007
 C435 C 0.37270 0.24216 0.94627
 C436 C 0.39579 0.23394 0.95887
 C437 C 0.41423 0.21872 0.94530
 C438 C 0.40967 0.21166 0.91907
 C439 C 0.38650 0.21972 0.90653
 C440 C 0.36804 0.23494 0.92011
 C441 C 0.42903 0.19668 0.90487
 C442 C 0.44541 0.18442 0.89291
 H443 H 0.39962 0.23949 0.97907
 H444 H 0.43211 0.21265 0.95517
 H445 H 0.38280 0.21442 0.88624
 H446 H 0.35027 0.24123 0.91017
 C447 C 0.66052 0.72840 0.97236
 C448 C 0.64521 0.74220 0.96066
 C449 C 0.62656 0.75848 0.94698
 C450 C 0.63123 0.76597 0.92090
 C451 C 0.61273 0.78125 0.90744
 C452 C 0.58951 0.78910 0.92001
 C453 C 0.58493 0.78176 0.94615
 C454 C 0.60342 0.76647 0.95960
 C455 C 0.57012 0.80415 0.90592
 C456 C 0.55371 0.81645 0.89404
 H457 H 0.64904 0.75985 0.91095
 H458 H 0.61644 0.78677 0.88722
 H459 H 0.56701 0.78767 0.95604
 H460 H 0.59958 0.76072 0.97974
 C461 C 0.33852 0.72752 0.02921
 C462 C 0.35364 0.74125 0.04124
 C463 C 0.37203 0.75739 0.05540
 C464 C 0.37733 0.75221 0.08192
 C465 C 0.39578 0.76739 0.09550
 C466 C 0.40901 0.78783 0.08264
 C467 C 0.40360 0.79312 0.05616
 C468 C 0.38513 0.77793 0.04256
 C469 C 0.42847 0.80297 0.09651
 C470 C 0.44492 0.81534 0.10826
 H471 H 0.36736 0.73633 0.09200
 H472 H 0.39986 0.76310 0.11596
 H473 H 0.41375 0.80884 0.04600
 H474 H 0.38119 0.78209 0.02205
 C475 C 0.65972 0.27287 0.02813
 C476 C 0.64451 0.25911 0.03997
 C477 C 0.62597 0.24286 0.05382
 C478 C 0.60276 0.23480 0.04135
 C479 C 0.58443 0.21948 0.05493
 C480 C 0.58922 0.21216 0.08105
 C481 C 0.61250 0.22009 0.09346
 C482 C 0.63085 0.23540 0.07987
 C483 C 0.57000 0.19702 0.09524
 C484 C 0.55373 0.18460 0.10717
 H485 H 0.59877 0.24052 0.02123
 H486 H 0.56647 0.21352 0.04516
 H487 H 0.61638 0.21458 0.11366
 H488 H 0.64871 0.24156 0.08971
 C489 C 0.27286 0.02884 0.66104
 C490 C 0.25916 0.04071 0.64576
 C491 C 0.24297 0.05454 0.62715
 C492 C 0.23589 0.08077 0.63172
 C493 C 0.22061 0.09433 0.61329
 C494 C 0.21234 0.08170 0.59025
 C495 C 0.21929 0.05542 0.58577
 C496 C 0.23457 0.04187 0.60418
 C497 C 0.19721 0.09584 0.57096
 C498 C 0.18480 0.10771 0.55463
 H499 H 0.24231 0.09076 0.64939
 H500 H 0.21540 0.11466 0.61692
 H501 H 0.21305 0.04548 0.56800
 H502 H 0.24000 0.02161 0.60043
 C503 C 0.72781 0.02710 0.33911
 C504 C 0.74160 0.03893 0.35433
 C505 C 0.75786 0.05273 0.37290
 C506 C 0.76500 0.07892 0.36828
 C507 C 0.78027 0.09249 0.38670
 C508 C 0.78846 0.07990 0.40979
 C509 C 0.78147 0.05365 0.41431
 C510 C 0.76620 0.04010 0.39590
 C511 C 0.80349 0.09408 0.42911
 C512 C 0.81579 0.10603 0.44547
 H513 H 0.75861 0.08889 0.35057
 H514 H 0.78551 0.11280 0.38304
 H515 H 0.78764 0.04374 0.43212
 H516 H 0.76071 0.01987 0.39970
 C517 C 0.72835 0.97087 0.66089
 C518 C 0.74203 0.95877 0.64581
 C519 C 0.75815 0.94454 0.62744
 C520 C 0.75300 0.91799 0.62225
 C521 C 0.76818 0.90435 0.60383
 C522 C 0.78857 0.91720 0.59050
 C523 C 0.79383 0.94372 0.59581
 C524 C 0.77865 0.95736 0.61425
 C525 C 0.80369 0.90329 0.57106
 C526 C 0.81604 0.89152 0.55461
 H527 H 0.73715 0.90791 0.63228
 H528 H 0.76390 0.88387 0.59984
 H529 H 0.80951 0.95386 0.58558
 H530 H 0.78278 0.97790 0.61810
 C531 C 0.27252 0.97233 0.33963
 C532 C 0.25869 0.96060 0.35486
 C533 C 0.24237 0.94684 0.37341
 C534 C 0.23505 0.92071 0.36871
 C535 C 0.21974 0.90719 0.38710
 C536 C 0.21168 0.91974 0.41025
 C537 C 0.21885 0.94593 0.41486
 C538 C 0.23417 0.95945 0.39648
 C539 C 0.19662 0.90558 0.42955
 C540 C 0.18430 0.89363 0.44589
 H541 H 0.24133 0.91077 0.35095
 H542 H 0.21436 0.88692 0.38337
 H543 H 0.21279 0.95581 0.43272
 H544 H 0.23979 0.97963 0.40034
 C545 C 0.02833 0.33968 0.72774
 C546 C 0.04018 0.35496 0.74143
 C547 C 0.05407 0.37356 0.75758
 C548 C 0.04166 0.39686 0.76546
 C549 C 0.05530 0.41526 0.78067
 C550 C 0.08140 0.41043 0.78806
 C551 C 0.09376 0.38706 0.78030
 C552 C 0.08012 0.36865 0.76510
 C553 C 0.09564 0.42969 0.80311
 C554 C 0.10761 0.44598 0.81548
 H555 H 0.02155 0.40088 0.75969
 H556 H 0.04557 0.43329 0.78651
 H557 H 0.11396 0.38316 0.78586
 H558 H 0.08990 0.35071 0.75907
 C559 C 0.02872 0.66070 0.27244
 C560 C 0.04081 0.64555 0.25880
 C561 C 0.05500 0.62712 0.24273
 C562 C 0.04224 0.61421 0.22200
 C563 C 0.05583 0.59572 0.20685
 C564 C 0.08224 0.59008 0.21235
 C565 C 0.09503 0.60312 0.23297
 C566 C 0.08144 0.62159 0.24813
 C567 C 0.09611 0.57064 0.19718
 C568 C 0.10782 0.55421 0.18474
 H569 H 0.02178 0.61832 0.21768
 H570 H 0.04573 0.58572 0.19098
 H571 H 0.11543 0.59887 0.23742
 H572 H 0.09147 0.63141 0.26415
 C573 C 0.97198 0.33945 0.27089
 C574 C 0.96022 0.35470 0.25708
 C575 C 0.94643 0.37327 0.24082
 C576 C 0.95892 0.39650 0.23288
 C577 C 0.94535 0.41491 0.21761
 C578 C 0.91923 0.41017 0.21023
 C579 C 0.90680 0.38687 0.21802
 C580 C 0.92037 0.36845 0.23328
 C581 C 0.90503 0.42949 0.19519
 C582 C 0.89310 0.44585 0.18287
 H583 H 0.97903 0.40046 0.23867
 H584 H 0.95513 0.43289 0.21175
 H585 H 0.88659 0.38304 0.21247
 H586 H 0.91052 0.35057 0.23936
 C587 C 0.97265 0.66088 0.72718
 C588 C 0.96077 0.64562 0.74088
 C589 C 0.94688 0.62704 0.75703
 C590 C 0.95937 0.60385 0.76512
 C591 C 0.94574 0.58546 0.78033
 C592 C 0.91956 0.59017 0.78750
 C593 C 0.90713 0.61344 0.77955
 C594 C 0.92076 0.63184 0.76434
 C595 C 0.90531 0.57089 0.80251
 C596 C 0.89330 0.55459 0.81481
 H597 H 0.97954 0.59991 0.75951
 H598 H 0.95553 0.56751 0.78632
 H599 H 0.88687 0.61725 0.78493
 H600 H 0.91092 0.64969 0.75816
 C601 C 0.72802 0.66132 0.97074
 C602 C 0.74175 0.64625 0.95866
 C603 C 0.75792 0.62791 0.94445
 C604 C 0.75275 0.62268 0.91792
 C605 C 0.76796 0.60427 0.90430
 C606 C 0.78841 0.59101 0.91716
 C607 C 0.79369 0.59636 0.94366
 C608 C 0.77848 0.61478 0.95728
 C609 C 0.80355 0.57156 0.90327
 C610 C 0.81591 0.55510 0.89152
 H611 H 0.73685 0.63267 0.90784
 H612 H 0.76367 0.60024 0.88384
 H613 H 0.80942 0.58617 0.95380
 H614 H 0.78262 0.61867 0.97780
 C615 C 0.27244 0.33857 0.97117
 C616 C 0.25875 0.35371 0.95912
 C617 C 0.24262 0.37215 0.94500
 C618 C 0.24781 0.37751 0.91850
 C619 C 0.23262 0.39601 0.90497
 C620 C 0.21221 0.40925 0.91789
 C621 C 0.20691 0.40378 0.94435
 C622 C 0.22209 0.38525 0.95788
 C623 C 0.19709 0.42879 0.90410
 C624 C 0.18474 0.44531 0.89242
 H625 H 0.26368 0.36754 0.90838
 H626 H 0.23692 0.40014 0.88453
 H627 H 0.19121 0.41394 0.95455
 H628 H 0.21794 0.38127 0.97838
 C629 C 0.27232 0.66105 0.02896
 C630 C 0.25859 0.64588 0.04089
 C631 C 0.24243 0.62745 0.05495
 C632 C 0.24736 0.62232 0.08154
 C633 C 0.23214 0.60384 0.09503
 C634 C 0.21195 0.59041 0.08199
 C635 C 0.20691 0.59564 0.05542
 C636 C 0.22212 0.61414 0.04193
 C637 C 0.19679 0.57092 0.09577
 C638 C 0.18443 0.55444 0.10747
 H639 H 0.26306 0.63245 0.09177
 H640 H 0.23624 0.59990 0.11556
 H641 H 0.19137 0.58533 0.04513
 H642 H 0.21817 0.61795 0.02135
 C643 C 0.72705 0.34012 0.02728
 C644 C 0.74087 0.35532 0.03910
 C645 C 0.75720 0.37383 0.05288
 C646 C 0.76556 0.39683 0.04025
 C647 C 0.78096 0.41516 0.05376
 C648 C 0.78805 0.41058 0.07998
 C649 C 0.77982 0.38750 0.09257
 C650 C 0.76443 0.36916 0.07904
 C651 C 0.80324 0.42981 0.09410
 C652 C 0.81569 0.44610 0.10599
 H653 H 0.76002 0.40066 0.02005
 H654 H 0.78716 0.43296 0.04386
 H655 H 0.78514 0.38380 0.11285
 H656 H 0.75803 0.35146 0.08900
 C657 C 0.97264 0.72718 0.66076
 C658 C 0.96077 0.74085 0.64547
 C659 C 0.94689 0.75699 0.62686
 C660 C 0.95946 0.76524 0.60380
 C661 C 0.94585 0.78043 0.58537
 C662 C 0.91959 0.78743 0.58993
 C663 C 0.90707 0.77932 0.61307
 C664 C 0.92069 0.76414 0.63151
 C665 C 0.90536 0.80242 0.57061
 C666 C 0.89338 0.81471 0.55428
 H667 H 0.97970 0.75975 0.59998
 H668 H 0.95570 0.78654 0.56752
 H669 H 0.88675 0.78458 0.61676
 H670 H 0.91078 0.75783 0.64926
 C671 C 0.97137 0.27138 0.33911
 C672 C 0.95932 0.25770 0.35422
 C673 C 0.94515 0.24157 0.37260
 C674 C 0.95806 0.22115 0.38585
 C675 C 0.94446 0.20595 0.40428
 C676 C 0.91791 0.21112 0.40952
 C677 C 0.90497 0.23144 0.39614
 C678 C 0.91857 0.24663 0.37773
 C679 C 0.90404 0.19596 0.42894
 C680 C 0.89232 0.18356 0.44536
 H681 H 0.97862 0.21709 0.38205
 H682 H 0.95467 0.19033 0.41455
 H683 H 0.88446 0.23563 0.40008
 H684 H 0.90843 0.26242 0.36764
 C685 C 0.02762 0.27220 0.66068
 C686 C 0.03951 0.25843 0.64550
 C687 C 0.05341 0.24219 0.62699
 C688 C 0.04098 0.23412 0.60377
 C689 C 0.05463 0.21886 0.58543
 C690 C 0.08078 0.21162 0.59023
 C691 C 0.09316 0.21954 0.61352
 C692 C 0.07949 0.23479 0.63188
 C693 C 0.09507 0.19661 0.57097
 C694 C 0.10708 0.18433 0.55465
 H695 H 0.02083 0.23980 0.59977
 H696 H 0.04489 0.21290 0.56745
 H697 H 0.11339 0.21410 0.61740
 H698 H 0.08930 0.24096 0.64975
 C699 C 0.02866 0.72800 0.33967
 C700 C 0.04038 0.74183 0.35493
 C701 C 0.05412 0.75815 0.37349
 C702 C 0.04163 0.76603 0.39673
 C703 C 0.05515 0.78137 0.41511
 C704 C 0.08122 0.78888 0.41032
 C705 C 0.09365 0.78114 0.38699
 C706 C 0.08012 0.76580 0.36861
 C707 C 0.09538 0.80398 0.42960
 C708 C 0.10732 0.81634 0.44592
 H709 H 0.02156 0.76015 0.40074
 H710 H 0.04538 0.78720 0.43311
 H711 H 0.11382 0.78678 0.38312
 H712 H 0.08997 0.75977 0.35072
 C713 C 0.66011 0.97187 0.72894
 C714 C 0.64481 0.96019 0.74274
 C715 C 0.62620 0.94648 0.75900
 C716 C 0.60302 0.95906 0.76695
 C717 C 0.58458 0.94557 0.78222
 C718 C 0.58924 0.91944 0.78958
 C719 C 0.61251 0.90691 0.78177
 C720 C 0.63096 0.92041 0.76651
 C721 C 0.56990 0.90531 0.80461
 C722 C 0.55354 0.89341 0.81693
 H723 H 0.59912 0.97919 0.76118
 H724 H 0.56662 0.95542 0.78810
 H725 H 0.61628 0.88669 0.78731
 H726 H 0.64881 0.91049 0.76043
 C727 C 0.33885 0.97155 0.27324
 C728 C 0.35393 0.95945 0.25954
 C729 C 0.37228 0.94524 0.24338
 C730 C 0.37750 0.91869 0.24851
 C731 C 0.39590 0.90507 0.23329
 C732 C 0.40917 0.91794 0.21289
 C733 C 0.40384 0.94446 0.20765
 C734 C 0.38542 0.95808 0.22287
 C735 C 0.42858 0.90404 0.19771
 C736 C 0.44500 0.89228 0.18531
 H737 H 0.36749 0.90860 0.26437
 H738 H 0.39991 0.88459 0.23754
 H739 H 0.41402 0.95462 0.19196
 H740 H 0.38155 0.97862 0.21877
 C741 C 0.66050 0.02799 0.27183
 C742 C 0.64528 0.03984 0.25807
 C743 C 0.62672 0.05369 0.24184
 C744 C 0.60348 0.04124 0.23385
 C745 C 0.58509 0.05484 0.21860
 C746 C 0.58985 0.08096 0.21128
 C747 C 0.61317 0.09336 0.21913
 C748 C 0.63158 0.07974 0.23437
 C749 C 0.57055 0.09520 0.19627
 C750 C 0.55418 0.10716 0.18400
 H751 H 0.59950 0.02112 0.23958
 H752 H 0.56710 0.04508 0.21270
 H753 H 0.61702 0.11357 0.21363
 H754 H 0.64946 0.08956 0.24048
 C755 C 0.33907 0.02873 0.72764
 C756 C 0.35431 0.04053 0.74142
 C757 C 0.37290 0.05430 0.75768
 C758 C 0.36827 0.08048 0.76489
 C759 C 0.38670 0.09401 0.78018
 C760 C 0.40981 0.08139 0.78833
 C761 C 0.41434 0.05515 0.78127
 C762 C 0.39592 0.04164 0.76598
 C763 C 0.42914 0.09553 0.80339
 C764 C 0.44550 0.10745 0.81571
 H765 H 0.35055 0.09047 0.75854
 H766 H 0.38304 0.11431 0.78548
 H767 H 0.43217 0.04523 0.78741
 H768 H 0.39972 0.02142 0.76044
 C769 C 0.65972 0.72860 0.02868
 C770 C 0.64450 0.74210 0.04083
 C771 C 0.62597 0.75802 0.05508
 C772 C 0.62012 0.75216 0.08133
 C773 C 0.60158 0.76719 0.09498
 C774 C 0.58880 0.78812 0.08243
 C775 C 0.59476 0.79407 0.05621
 C776 C 0.61332 0.77905 0.04256
 C777 C 0.56929 0.80315 0.09636
 C778 C 0.55281 0.81545 0.10814
 H779 H 0.62975 0.73590 0.09117
 H780 H 0.59709 0.76239 0.11523
 H781 H 0.58496 0.81018 0.04631
 H782 H 0.61768 0.78372 0.02225
 C783 C 0.33951 0.27169 0.02816
 C784 C 0.35465 0.25809 0.04031
 C785 C 0.37306 0.24206 0.05458
 C786 C 0.37874 0.24773 0.08092
 C787 C 0.39719 0.23262 0.09459
 C788 C 0.41006 0.21178 0.08198
 C789 C 0.40427 0.20600 0.05568
 C790 C 0.38579 0.22112 0.04200
 C791 C 0.42953 0.19669 0.09590
 C792 C 0.44600 0.18434 0.10765
 H793 H 0.36905 0.26393 0.09080
 H794 H 0.40156 0.23728 0.11490
 H795 H 0.41414 0.18997 0.04572
 H796 H 0.38157 0.21659 0.02163
 C797 C 0.65960 0.27294 0.97122
 C798 C 0.64441 0.25924 0.95927
 C799 C 0.62596 0.24311 0.94517
 C800 C 0.61303 0.22246 0.95800
 C801 C 0.59457 0.20723 0.94444
 C802 C 0.58899 0.21259 0.91801
 C803 C 0.60205 0.23315 0.90515
 C804 C 0.62049 0.24838 0.91870
 C805 C 0.56957 0.19738 0.90416
 C806 C 0.55316 0.18494 0.89243
 H807 H 0.61710 0.21824 0.97847
 H808 H 0.58455 0.19141 0.95459
 H809 H 0.59785 0.23750 0.88473
 H810 H 0.63033 0.26434 0.90862
 C811 C 0.33976 0.72824 0.97291
 C812 C 0.35501 0.74194 0.96106
 C813 C 0.37359 0.75813 0.94722
 C814 C 0.36867 0.76571 0.92121
 C815 C 0.38707 0.78097 0.90762
 C816 C 0.41043 0.78871 0.92001
 C817 C 0.41526 0.78126 0.94607
 C818 C 0.39688 0.76600 0.95965
 C819 C 0.42969 0.80379 0.90582
 C820 C 0.44601 0.81616 0.89391
 H821 H 0.35074 0.75970 0.91141
 H822 H 0.38317 0.78658 0.88746
 H823 H 0.43329 0.78708 0.95582
 H824 H 0.40091 0.76017 0.97973
 C825 C 0.72830 0.97077 0.34022
 C826 C 0.74187 0.95870 0.35544
 C827 C 0.75785 0.94448 0.37393
 C828 C 0.77902 0.95697 0.38638
 C829 C 0.79412 0.94334 0.40488
 C830 C 0.78812 0.91715 0.41098
 C831 C 0.76705 0.90463 0.39841
 C832 C 0.75195 0.91826 0.37993
 C833 C 0.80325 0.90324 0.43042
 C834 C 0.81566 0.89148 0.44683
 H835 H 0.78373 0.97725 0.38190
 H836 H 0.81034 0.95322 0.41452
 H837 H 0.76222 0.88441 0.40302
 H838 H 0.73559 0.90844 0.37046
 C839 C 0.27195 0.97251 0.66019
 C840 C 0.25835 0.96046 0.64499
 C841 C 0.24234 0.94624 0.62652
 C842 C 0.22133 0.95882 0.61388
 C843 C 0.20623 0.94518 0.59538
 C844 C 0.21207 0.91891 0.58948
 C845 C 0.23298 0.90630 0.60225
 C846 C 0.24809 0.91994 0.62072
 C847 C 0.19697 0.90499 0.57003
 C848 C 0.18461 0.89321 0.55359
 H849 H 0.21674 0.97916 0.61820
 H850 H 0.19013 0.95513 0.58559
 H851 H 0.23770 0.88601 0.59779
 H852 H 0.26433 0.91005 0.63034
 C853 C 0.27220 0.02867 0.34041
 C854 C 0.25863 0.04080 0.35556
 C855 C 0.24260 0.05504 0.37400
 C856 C 0.24840 0.08130 0.37991
 C857 C 0.23327 0.09493 0.39837
 C858 C 0.21229 0.08235 0.41101
 C859 C 0.20639 0.05612 0.40500
 C860 C 0.22152 0.04249 0.38651
 C861 C 0.19716 0.09624 0.43047
 C862 C 0.18476 0.10796 0.44691
 H863 H 0.26470 0.09116 0.37039
 H864 H 0.23803 0.11519 0.40291
 H865 H 0.19024 0.04619 0.41469
 H866 H 0.21689 0.02218 0.38210
 C867 C 0.72845 0.02779 0.66022
 C868 C 0.74218 0.03946 0.64485
 C869 C 0.75836 0.05314 0.62615
 C870 C 0.76621 0.04052 0.60296
 C871 C 0.78140 0.05398 0.58443
 C872 C 0.78878 0.08011 0.58901
 C873 C 0.78108 0.09267 0.61229
 C874 C 0.76590 0.07921 0.63082
 C875 C 0.80373 0.09421 0.56959
 C876 C 0.81596 0.10611 0.55317
 H877 H 0.76041 0.02039 0.59912
 H878 H 0.78719 0.04410 0.56648
 H879 H 0.78663 0.11290 0.61599
 H880 H 0.75989 0.08915 0.64867
 C881 C 0.97238 0.65949 0.27122
 C882 C 0.96058 0.64426 0.25743
 C883 C 0.94675 0.62573 0.24115
 C884 C 0.95917 0.60244 0.23325
 C885 C 0.94559 0.58410 0.21793
 C886 C 0.91952 0.58898 0.21044
 C887 C 0.90716 0.61235 0.21819
 C888 C 0.92075 0.63070 0.23351
 C889 C 0.90530 0.56974 0.19534
 C890 C 0.89332 0.55345 0.18297
 H891 H 0.97925 0.59838 0.23911
 H892 H 0.95532 0.56607 0.21210
 H893 H 0.88699 0.61628 0.21256
 H894 H 0.91096 0.64863 0.23955
 C895 C 0.97139 0.33973 0.72763
 C896 C 0.95943 0.35499 0.74125
 C897 C 0.94533 0.37354 0.75727
 C898 C 0.95821 0.38668 0.77777
 C899 C 0.94467 0.40526 0.79287
 C900 C 0.91819 0.41074 0.78754
 C901 C 0.90528 0.39746 0.76715
 C902 C 0.91882 0.37891 0.75205
 C903 C 0.90437 0.43029 0.80261
 C904 C 0.89265 0.44681 0.81491
 H905 H 0.97872 0.38269 0.78195
 H906 H 0.95486 0.41545 0.80856
 H907 H 0.88483 0.40158 0.76283
 H908 H 0.90869 0.36890 0.73621
 C909 C 0.02899 0.66019 0.72824
 C910 C 0.04102 0.64508 0.74195
 C911 C 0.05519 0.62668 0.75809
 C912 C 0.08168 0.62125 0.75281
 C913 C 0.09526 0.60280 0.76800
 C914 C 0.08242 0.58968 0.78852
 C915 C 0.05597 0.59523 0.79391
 C916 C 0.04239 0.61370 0.77872
 C917 C 0.09628 0.57019 0.80363
 C918 C 0.10801 0.55370 0.81596
 H919 H 0.09174 0.63113 0.73686
 H920 H 0.11569 0.59862 0.76363
 H921 H 0.04584 0.58516 0.80969
 H922 H 0.02190 0.61774 0.78295
 C923 C 0.02892 0.33945 0.27146
 C924 C 0.04094 0.35465 0.25786
 C925 C 0.05506 0.37315 0.24182
 C926 C 0.08145 0.37878 0.24729
 C927 C 0.09499 0.39731 0.23218
 C928 C 0.08218 0.41030 0.21154
 C929 C 0.05581 0.40456 0.20597
 C930 C 0.04228 0.38601 0.22108
 C931 C 0.09598 0.42983 0.19646
 C932 C 0.10769 0.44633 0.18414
 H933 H 0.09150 0.36900 0.26333
 H934 H 0.11535 0.40164 0.23668
 H935 H 0.04570 0.41452 0.19008
 H936 H 0.02185 0.38182 0.21671
   
