data_POSCAR
  _audit_creation_date              2014-09-24
  _audit_creation_method            'ToBaCCo'
  _symmetry_space_group_name_H-M    'P1'
  _symmetry_Int_Tables_number       1
  _symmetry_cell_setting            triclinic
  loop_
  _symmetry_equiv_pos_as_xyz
 x,y,z
_cell_length_a 61.8276
_cell_length_b 61.8274
_cell_length_c 51.3366
_cell_angle_alpha 89.977400
_cell_angle_beta 89.976300
_cell_angle_gamma 89.995700
loop_
  _atom_site_label
  _atom_site_type_symbol
  _atom_site_fract_x
  _atom_site_fract_y
  _atom_site_fract_z
O1 O -0.02090 0.29139 0.02494
 O2 O 0.02143 0.29135 -0.02565
 O3 O -0.02078 0.29135 -0.02577
 O4 O 0.02130 0.29143 0.02506
 O5 O 0.02127 0.25576 0.02508
 O6 O -0.02070 0.25568 -0.02565
 O7 O 0.02140 0.25571 -0.02552
 O8 O -0.02082 0.25572 0.02496
 Cu9 Cu 0.00026 0.29496 -0.00036
 Cu10 Cu 0.00029 0.25216 -0.00028
 C11 C -0.02816 0.27354 0.03355
 C12 C 0.02876 0.27350 -0.03423
 C13 C -0.02799 0.27348 -0.03436
 C14 C 0.02854 0.27358 0.03372
 O15 O 0.52091 0.79100 0.47450
 O16 O 0.47881 0.79106 0.52534
 O17 O 0.52102 0.79099 0.52521
 O18 O 0.47870 0.79104 0.47463
 O19 O 0.47872 0.75537 0.47471
 O20 O 0.52092 0.75532 0.52518
 O21 O 0.47881 0.75539 0.52532
 O22 O 0.52082 0.75533 0.47457
 Cu23 Cu 0.49986 0.79460 0.49992
 Cu24 Cu 0.49981 0.75179 0.49995
 C25 C 0.52813 0.77313 0.46589
 C26 C 0.47155 0.77321 0.53398
 C27 C 0.52827 0.77312 0.53379
 C28 C 0.47141 0.77318 0.46607
 O29 O 1.02172 0.70946 0.02526
 O30 O 0.97943 0.70946 -0.02534
 O31 O 1.02164 0.70945 -0.02545
 O32 O 0.97951 0.70944 0.02537
 O33 O 0.97957 0.74511 0.02532
 O34 O 1.02159 0.74509 -0.02541
 O35 O 0.97949 0.74513 -0.02530
 O36 O 1.02167 0.74509 0.02520
 Cu37 Cu 1.00057 0.70588 -0.00004
 Cu38 Cu 1.00058 0.74866 -0.00005
 C39 C 1.02903 0.72730 0.03388
 C40 C 0.97217 0.72732 -0.03393
 C41 C 1.02893 0.72729 -0.03412
 C42 C 0.97227 0.72730 0.03399
 O43 O 0.47886 0.20820 0.47478
 O44 O 0.52095 0.20825 0.52561
 O45 O 0.47874 0.20821 0.52550
 O46 O 0.52107 0.20828 0.47490
 O47 O 0.52096 0.24395 0.47495
 O48 O 0.47875 0.24388 0.52544
 O49 O 0.52084 0.24392 0.52556
 O50 O 0.47886 0.24387 0.47483
 Cu51 Cu 0.49991 0.20465 0.50020
 Cu52 Cu 0.49984 0.24747 0.50019
 C53 C 0.47161 0.22605 0.46616
 C54 C 0.52815 0.22611 0.53423
 C55 C 0.47145 0.22606 0.53408
 C56 C 0.52831 0.22616 0.46632
 O57 O 0.70858 -0.02087 0.02488
 O58 O 0.70865 0.02147 -0.02570
 O59 O 0.70859 -0.02074 -0.02584
 O60 O 0.70859 0.02133 0.02501
 O61 O 0.74426 0.02125 0.02497
 O62 O 0.74426 -0.02071 -0.02578
 O63 O 0.74429 0.02138 -0.02564
 O64 O 0.74425 -0.02085 0.02483
 Cu65 Cu 0.70502 0.00030 -0.00042
 Cu66 Cu 0.74782 0.00026 -0.00041
 C67 C 0.72643 -0.02816 0.03346
 C68 C 0.72650 0.02877 -0.03432
 C69 C 0.72644 -0.02798 -0.03446
 C70 C 0.72645 0.02854 0.03363
 O71 O 0.20895 0.47888 0.52547
 O72 O 0.20892 0.52099 0.47463
 O73 O 0.20900 0.47878 0.47476
 O74 O 0.20891 0.52109 0.52535
 O75 O 0.24458 0.52108 0.52530
 O76 O 0.24467 0.47889 0.47482
 O77 O 0.24459 0.52099 0.47468
 O78 O 0.24463 0.47898 0.52544
 Cu79 Cu 0.20536 0.49993 0.50005
 Cu80 Cu 0.24818 0.49999 0.50006
 C81 C 0.22682 0.47167 0.53410
 C82 C 0.22677 0.52825 0.46601
 C83 C 0.22688 0.47154 0.46619
 C84 C 0.22676 0.52838 0.53393
 O85 O 0.29052 1.02174 0.02532
 O86 O 0.29055 0.97945 -0.02529
 O87 O 0.29050 1.02166 -0.02538
 O88 O 0.29059 0.97953 0.02543
 O89 O 0.25492 0.97955 0.02544
 O90 O 0.25486 1.02158 -0.02528
 O91 O 0.25488 0.97947 -0.02518
 O92 O 0.25489 1.02165 0.02533
 Cu93 Cu 0.29411 1.00060 0.00001
 Cu94 Cu 0.25133 1.00056 0.00008
 C95 C 0.27268 1.02904 0.03397
 C96 C 0.27269 0.97217 -0.03384
 C97 C 0.27264 1.02894 -0.03402
 C98 C 0.27274 0.97227 0.03407
 O99 O 0.79173 0.47893 0.47465
 O100 O 0.79178 0.52101 0.52548
 O101 O 0.79170 0.47880 0.52536
 O102 O 0.79177 0.52113 0.47477
 O103 O 0.75610 0.52113 0.47483
 O104 O 0.75603 0.47891 0.52532
 O105 O 0.75611 0.52101 0.52544
 O106 O 0.75606 0.47903 0.47471
 Cu107 Cu 0.79533 0.49996 0.50006
 Cu108 Cu 0.75251 0.50003 0.50008
 C109 C 0.77386 0.47172 0.46604
 C110 C 0.77393 0.52826 0.53411
 C111 C 0.77383 0.47156 0.53394
 C112 C 0.77392 0.52843 0.46620
 O113 O 0.24569 0.21576 0.24320
 O114 O 0.23476 0.26396 0.28322
 O115 O 0.21608 0.24559 0.24340
 O116 O 0.26437 0.23413 0.28301
 O117 O 0.28415 0.25389 0.25632
 O118 O 0.23586 0.26535 0.21671
 O119 O 0.25454 0.28372 0.25652
 O120 O 0.26547 0.23552 0.21650
 Cu121 Cu 0.23824 0.23788 0.26588
 Cu122 Cu 0.26199 0.26160 0.23384
 C123 C 0.25734 0.21740 0.22290
 C124 C 0.24288 0.28207 0.27681
 C125 C 0.21772 0.25733 0.22318
 C126 C 0.28251 0.24216 0.27655
 O127 O 0.71615 0.74572 0.25636
 O128 O 0.76455 0.73474 0.21668
 O129 O 0.74601 0.71614 0.25646
 O130 O 0.73469 0.76433 0.21657
 O131 O 0.75430 0.78419 0.24329
 O132 O 0.76563 0.73600 0.28318
 O133 O 0.78416 0.75461 0.24340
 O134 O 0.73577 0.76559 0.28308
 Cu135 Cu 0.73838 0.73824 0.23384
 Cu136 Cu 0.76193 0.76209 0.26591
 C137 C 0.71770 0.75743 0.27661
 C138 C 0.78262 0.74290 0.22315
 C139 C 0.75766 0.71783 0.27675
 C140 C 0.74266 0.78249 0.22300
 O141 O 0.78407 0.24575 0.24330
 O142 O 0.73588 0.23459 0.28327
 O143 O 0.75435 0.21604 0.24343
 O144 O 0.76560 0.26431 0.28314
 O145 O 0.74580 0.28407 0.25648
 O146 O 0.73454 0.23580 0.21677
 O147 O 0.71607 0.25435 0.25662
 O148 O 0.76427 0.26551 0.21664
 Cu149 Cu 0.76196 0.23820 0.26596
 Cu150 Cu 0.73818 0.26191 0.23396
 C151 C 0.78240 0.25744 0.22303
 C152 C 0.71774 0.24266 0.27688
 C153 C 0.74262 0.21767 0.22320
 C154 C 0.75753 0.28244 0.27670
 O155 O 0.26515 0.76448 0.21661
 O156 O 0.25397 0.71607 0.25619
 O157 O 0.23546 0.73473 0.21643
 O158 O 0.28366 0.74582 0.25637
 O159 O 0.26384 0.76546 0.28313
 O160 O 0.21564 0.75438 0.24318
 O161 O 0.23415 0.73572 0.28295
 O162 O 0.24533 0.78413 0.24337
 Cu163 Cu 0.26154 0.73830 0.23372
 Cu164 Cu 0.23775 0.76189 0.26584
 C165 C 0.25705 0.78257 0.22312
 C166 C 0.24226 0.71762 0.27645
 C167 C 0.21731 0.74276 0.22287
 C168 C 0.28198 0.75743 0.27668
 O169 O 0.76432 0.26515 0.78324
 O170 O 0.71597 0.25395 0.74364
 O171 O 0.73458 0.23545 0.78343
 O172 O 0.74571 0.28365 0.74346
 O173 O 0.76541 0.26383 0.71674
 O174 O 0.75427 0.21564 0.75672
 O175 O 0.73566 0.23413 0.71693
 O176 O 0.78401 0.24534 0.75653
 Cu177 Cu 0.73817 0.26154 0.76612
 Cu178 Cu 0.76181 0.23775 0.73405
 C179 C 0.78243 0.25706 0.77676
 C180 C 0.71756 0.24223 0.72341
 C181 C 0.74262 0.21731 0.77701
 C182 C 0.75737 0.28198 0.72317
 O183 O 0.28369 0.74593 0.74369
 O184 O 0.23535 0.73473 0.78337
 O185 O 0.25398 0.71620 0.74361
 O186 O 0.26505 0.76447 0.78343
 O187 O 0.24534 0.78422 0.75667
 O188 O 0.23427 0.73595 0.71685
 O189 O 0.21564 0.75449 0.75662
 O190 O 0.26398 0.76568 0.71692
 Cu191 Cu 0.26149 0.73835 0.76621
 Cu192 Cu 0.23783 0.76206 0.73409
 C193 C 0.28210 0.75761 0.72341
 C194 C 0.21724 0.74280 0.77689
 C195 C 0.24234 0.71783 0.72332
 C196 C 0.25699 0.78259 0.77697
 O197 O 0.25412 0.28381 0.74385
 O198 O 0.26513 0.23549 0.78363
 O199 O 0.28373 0.25398 0.74382
 O200 O 0.23551 0.26531 0.78366
 O201 O 0.21568 0.24564 0.75696
 O202 O 0.26390 0.23430 0.71712
 O203 O 0.24530 0.21581 0.75694
 O204 O 0.23429 0.26414 0.71715
 Cu205 Cu 0.26161 0.26162 0.76641
 Cu206 Cu 0.23781 0.23800 0.73437
 C207 C 0.24243 0.28223 0.72359
 C208 C 0.25699 0.21739 0.77719
 C209 C 0.28206 0.24230 0.72356
 C210 C 0.21735 0.25731 0.77722
 O211 O 0.74610 0.71609 0.74348
 O212 O 0.73470 0.76446 0.78298
 O213 O 0.71628 0.74571 0.74326
 O214 O 0.76453 0.73483 0.78321
 O215 O 0.78426 0.75456 0.75643
 O216 O 0.73602 0.76544 0.71647
 O217 O 0.75444 0.78418 0.75620
 O218 O 0.76584 0.73582 0.71670
 Cu219 Cu 0.73843 0.73830 0.76592
 Cu220 Cu 0.76212 0.76198 0.73377
 C221 C 0.75782 0.71769 0.72323
 C222 C 0.74272 0.78258 0.77645
 C223 C 0.71790 0.75734 0.72293
 C224 C 0.78264 0.74294 0.77676
 C225 C 0.25276 0.07038 0.08101
 C226 C 0.27223 0.07894 0.09024
 C227 C 0.29189 0.07071 0.08110
 C228 C 0.29211 0.05407 0.06264
 C229 C 0.27258 0.04541 0.05298
 C230 C 0.25288 0.05376 0.06256
 C231 C 0.27192 0.09645 0.10871
 C232 C 0.27130 0.11127 0.12395
 C233 C 0.27017 0.12878 0.14153
 C234 C 0.26885 0.14387 0.15631
 C235 C 0.26684 0.16204 0.17367
 C236 C 0.27641 0.18185 0.16725
 C237 C 0.27361 0.19980 0.18347
 C238 C 0.26116 0.19816 0.20635
 C239 C 0.25187 0.17808 0.21282
 C240 C 0.25469 0.16016 0.19656
 H241 H 0.23744 0.07665 0.08794
 H242 H 0.30707 0.07725 0.08811
 H243 H 0.30760 0.04814 0.05585
 H244 H 0.23750 0.04760 0.05573
 H245 H 0.28580 0.18350 0.14954
 H246 H 0.28098 0.21501 0.17792
 H247 H 0.24220 0.17627 0.23027
 H248 H 0.24717 0.14491 0.20169
 C249 C 0.75400 0.57019 0.58231
 C250 C 0.77348 0.57885 0.59143
 C251 C 0.79316 0.57074 0.58214
 C252 C 0.79336 0.55412 0.56365
 C253 C 0.77384 0.54544 0.55420
 C254 C 0.75415 0.55360 0.56384
 C255 C 0.77316 0.59637 0.60988
 C256 C 0.77252 0.61121 0.62508
 C257 C 0.77133 0.62875 0.64259
 C258 C 0.76994 0.64388 0.65729
 C259 C 0.76782 0.66212 0.67453
 C260 C 0.77730 0.68194 0.66799
 C261 C 0.77435 0.69996 0.68405
 C262 C 0.76183 0.69838 0.70688
 C263 C 0.75264 0.67828 0.71348
 C264 C 0.75562 0.66029 0.69738
 H265 H 0.73868 0.57638 0.58935
 H266 H 0.80834 0.57736 0.58904
 H267 H 0.80878 0.54821 0.55663
 H268 H 0.73884 0.54728 0.55699
 H269 H 0.78673 0.68355 0.65030
 H270 H 0.78164 0.71518 0.67841
 H271 H 0.74292 0.67651 0.73090
 H272 H 0.74816 0.64502 0.70259
 C273 C 0.74639 0.92976 0.08149
 C274 C 0.72692 0.92106 0.09061
 C275 C 0.70723 0.92918 0.08135
 C276 C 0.70702 0.94585 0.06291
 C277 C 0.72653 0.95458 0.05347
 C278 C 0.74622 0.94640 0.06306
 C279 C 0.72726 0.90353 0.10905
 C280 C 0.72792 0.88870 0.12428
 C281 C 0.72914 0.87117 0.14184
 C282 C 0.73055 0.85607 0.15659
 C283 C 0.73268 0.83788 0.17392
 C284 C 0.72328 0.81801 0.16746
 C285 C 0.72623 0.80005 0.18364
 C286 C 0.73867 0.80174 0.20650
 C287 C 0.74779 0.82188 0.21302
 C288 C 0.74482 0.83981 0.19680
 H289 H 0.76172 0.92358 0.08849
 H290 H 0.69206 0.92254 0.08826
 H291 H 0.69159 0.95178 0.05592
 H292 H 0.76153 0.95276 0.05622
 H293 H 0.71390 0.81632 0.14976
 H294 H 0.71899 0.78479 0.17806
 H295 H 0.75746 0.82374 0.23046
 H296 H 0.75222 0.85511 0.20195
 C297 C 0.20765 0.42910 0.58212
 C298 C 0.22734 0.42101 0.59140
 C299 C 0.24681 0.42972 0.58228
 C300 C 0.24664 0.44633 0.56382
 C301 C 0.22694 0.45447 0.55419
 C302 C 0.20743 0.44574 0.56364
 C303 C 0.22768 0.40349 0.60985
 C304 C 0.22831 0.38865 0.62507
 C305 C 0.22946 0.37110 0.64260
 C306 C 0.23080 0.35597 0.65734
 C307 C 0.23282 0.33775 0.67462
 C308 C 0.24502 0.33956 0.69748
 C309 C 0.24787 0.32158 0.71365
 C310 C 0.23857 0.30153 0.70713
 C311 C 0.22607 0.29996 0.68430
 C312 C 0.22325 0.31796 0.66816
 H313 H 0.19248 0.42245 0.58903
 H314 H 0.26214 0.42356 0.58931
 H315 H 0.26194 0.45269 0.55696
 H316 H 0.19200 0.45163 0.55663
 H317 H 0.25255 0.35479 0.70263
 H318 H 0.25758 0.32334 0.73107
 H319 H 0.21870 0.28477 0.67872
 H320 H 0.21382 0.31637 0.65048
 C321 C 0.92976 0.25356 0.08159
 C322 C 0.92103 0.27302 0.09066
 C323 C 0.92913 0.29271 0.08138
 C324 C 0.94581 0.29294 0.06295
 C325 C 0.95457 0.27342 0.05356
 C326 C 0.94642 0.25373 0.06318
 C327 C 0.90348 0.27268 0.10909
 C328 C 0.88864 0.27201 0.12430
 C329 C 0.87110 0.27080 0.14184
 C330 C 0.85599 0.26940 0.15659
 C331 C 0.83780 0.26729 0.17391
 C332 C 0.81795 0.27677 0.16749
 C333 C 0.79999 0.27386 0.18367
 C334 C 0.80165 0.26137 0.20652
 C335 C 0.82176 0.25216 0.21299
 C336 C 0.83970 0.25510 0.19677
 H337 H 0.92359 0.23822 0.08862
 H338 H 0.92246 0.30788 0.08825
 H339 H 0.95172 0.30836 0.05594
 H340 H 0.95279 0.23843 0.05637
 H341 H 0.81629 0.28619 0.14980
 H342 H 0.78476 0.28117 0.17812
 H343 H 0.82359 0.24246 0.23042
 H344 H 0.85497 0.24764 0.20190
 C345 C 0.42957 0.75331 0.58218
 C346 C 0.42090 0.77280 0.59129
 C347 C 0.42903 0.79247 0.58200
 C348 C 0.44567 0.79266 0.56352
 C349 C 0.45436 0.77313 0.55407
 C350 C 0.44618 0.75345 0.56372
 C351 C 0.40337 0.77250 0.60975
 C352 C 0.38853 0.77188 0.62496
 C353 C 0.37099 0.77074 0.64250
 C354 C 0.35586 0.76940 0.65723
 C355 C 0.33763 0.76735 0.67451
 C356 C 0.31782 0.77687 0.66800
 C357 C 0.29982 0.77401 0.68412
 C358 C 0.30140 0.76153 0.70698
 C359 C 0.32148 0.75230 0.71355
 C360 C 0.33946 0.75519 0.69739
 H361 H 0.42337 0.73799 0.58922
 H362 H 0.42242 0.80765 0.58890
 H363 H 0.45160 0.80807 0.55649
 H364 H 0.45249 0.73814 0.55687
 H365 H 0.31622 0.78627 0.65029
 H366 H 0.28460 0.78132 0.67850
 H367 H 0.32325 0.74261 0.73100
 H368 H 0.35471 0.74771 0.70258
 C369 C 0.07067 0.70806 0.08107
 C370 C 0.07891 0.72772 0.09018
 C371 C 0.07037 0.74720 0.08090
 C372 C 0.05377 0.74708 0.06245
 C373 C 0.04541 0.72739 0.05289
 C374 C 0.05404 0.70786 0.06260
 C375 C 0.09641 0.72803 0.10867
 C376 C 0.11121 0.72864 0.12392
 C377 C 0.12871 0.72978 0.14152
 C378 C 0.14379 0.73111 0.15631
 C379 C 0.16196 0.73314 0.17367
 C380 C 0.16004 0.74524 0.19658
 C381 C 0.17796 0.74809 0.21284
 C382 C 0.19807 0.73889 0.20633
 C383 C 0.19975 0.72648 0.18344
 C384 C 0.18180 0.72365 0.16722
 H385 H 0.07719 0.69288 0.08812
 H386 H 0.07666 0.76252 0.08781
 H387 H 0.04763 0.76247 0.05558
 H388 H 0.04810 0.69237 0.05583
 H389 H 0.14477 0.75270 0.20173
 H390 H 0.17612 0.75773 0.23030
 H391 H 0.21498 0.71918 0.17786
 H392 H 0.18348 0.71430 0.14949
 C393 C 0.57068 0.20698 0.58226
 C394 C 0.57875 0.22667 0.59154
 C395 C 0.57004 0.24614 0.58241
 C396 C 0.55344 0.24595 0.56395
 C397 C 0.54533 0.22625 0.55432
 C398 C 0.55407 0.20674 0.56378
 C399 C 0.59627 0.22703 0.60998
 C400 C 0.61110 0.22769 0.62519
 C401 C 0.62864 0.22889 0.64270
 C402 C 0.64377 0.23027 0.65740
 C403 C 0.66200 0.23237 0.67464
 C404 C 0.66019 0.24461 0.69746
 C405 C 0.67818 0.24754 0.71358
 C406 C 0.69825 0.23828 0.70702
 C407 C 0.69982 0.22574 0.68423
 C408 C 0.68181 0.22283 0.66815
 H409 H 0.57734 0.19181 0.58917
 H410 H 0.57618 0.26147 0.58944
 H411 H 0.54708 0.26124 0.55708
 H412 H 0.54819 0.19131 0.55676
 H413 H 0.64494 0.25211 0.70263
 H414 H 0.67642 0.25728 0.73097
 H415 H 0.71503 0.21839 0.67862
 H416 H 0.68340 0.21337 0.65049
 C417 C 0.74650 0.07014 0.91870
 C418 C 0.72704 0.07872 0.90944
 C419 C 0.70736 0.07049 0.91854
 C420 C 0.70712 0.05384 0.93699
 C421 C 0.72663 0.04517 0.94669
 C422 C 0.74634 0.05351 0.93714
 C423 C 0.72739 0.09625 0.89099
 C424 C 0.72806 0.11108 0.87576
 C425 C 0.72927 0.12861 0.85820
 C426 C 0.73067 0.14372 0.84345
 C427 C 0.73278 0.16191 0.82613
 C428 C 0.72332 0.18176 0.83258
 C429 C 0.72623 0.19973 0.81639
 C430 C 0.73869 0.19806 0.79353
 C431 C 0.74787 0.17794 0.78703
 C432 C 0.74494 0.16001 0.80325
 H433 H 0.76183 0.07641 0.91180
 H434 H 0.69220 0.07705 0.91150
 H435 H 0.69161 0.04791 0.94376
 H436 H 0.76172 0.04733 0.94400
 H437 H 0.71392 0.18343 0.85028
 H438 H 0.71894 0.21497 0.82197
 H439 H 0.75755 0.17611 0.76959
 H440 H 0.75238 0.14472 0.79810
 C441 C 0.24669 0.57020 0.41777
 C442 C 0.22720 0.57884 0.40862
 C443 C 0.20753 0.57071 0.41791
 C444 C 0.20734 0.55409 0.43642
 C445 C 0.22686 0.54543 0.44590
 C446 C 0.24654 0.55361 0.43627
 C447 C 0.22751 0.59635 0.39014
 C448 C 0.22812 0.61117 0.37490
 C449 C 0.22924 0.62870 0.35734
 C450 C 0.23056 0.64382 0.34260
 C451 C 0.23258 0.66205 0.32531
 C452 C 0.22299 0.68183 0.33180
 C453 C 0.22583 0.69985 0.31568
 C454 C 0.23835 0.69830 0.29285
 C455 C 0.24765 0.67825 0.28630
 C456 C 0.24478 0.66026 0.30246
 H457 H 0.26201 0.57640 0.41075
 H458 H 0.19235 0.57730 0.41098
 H459 H 0.19192 0.54816 0.44343
 H460 H 0.26185 0.54731 0.44314
 H461 H 0.21356 0.68341 0.34948
 H462 H 0.21846 0.71504 0.32129
 H463 H 0.25738 0.67651 0.26888
 H464 H 0.25232 0.64503 0.29729
 C465 C 0.25271 0.93006 0.91821
 C466 C 0.27218 0.92137 0.90908
 C467 C 0.29187 0.92951 0.91828
 C468 C 0.29209 0.94619 0.93669
 C469 C 0.27257 0.95491 0.94615
 C470 C 0.25288 0.94671 0.93660
 C471 C 0.27185 0.90381 0.89068
 C472 C 0.27121 0.88896 0.87549
 C473 C 0.27004 0.87140 0.85798
 C474 C 0.26869 0.85628 0.84326
 C475 C 0.26664 0.83806 0.82597
 C476 C 0.25451 0.83992 0.80308
 C477 C 0.25164 0.82196 0.78689
 C478 C 0.26086 0.80187 0.79344
 C479 C 0.27330 0.80025 0.81632
 C480 C 0.27614 0.81824 0.83247
 H481 H 0.23738 0.92386 0.91124
 H482 H 0.30704 0.92288 0.91137
 H483 H 0.30751 0.95213 0.94365
 H484 H 0.23758 0.95306 0.94347
 H485 H 0.24704 0.85518 0.79789
 H486 H 0.24198 0.82376 0.76944
 H487 H 0.28061 0.78503 0.82193
 H488 H 0.28553 0.81661 0.85018
 C489 C 0.79298 0.42919 0.41799
 C490 C 0.77328 0.42113 0.40872
 C491 C 0.75383 0.42985 0.41785
 C492 C 0.75402 0.44644 0.43632
 C493 C 0.77372 0.45455 0.44594
 C494 C 0.79322 0.44580 0.43648
 C495 C 0.77292 0.40361 0.39027
 C496 C 0.77224 0.38879 0.37506
 C497 C 0.77102 0.37125 0.35754
 C498 C 0.76962 0.35614 0.34282
 C499 C 0.76748 0.33793 0.32556
 C500 C 0.77699 0.31810 0.33202
 C501 C 0.77405 0.30011 0.31591
 C502 C 0.76151 0.30172 0.29312
 C503 C 0.75228 0.32182 0.28660
 C504 C 0.75524 0.33978 0.30275
 H505 H 0.80814 0.42252 0.41108
 H506 H 0.73848 0.42371 0.41083
 H507 H 0.73872 0.45280 0.44318
 H508 H 0.80866 0.45168 0.44350
 H509 H 0.78645 0.31647 0.34967
 H510 H 0.78137 0.28488 0.32149
 H511 H 0.74253 0.32361 0.26921
 H512 H 0.74777 0.35504 0.29760
 C513 C 0.07046 0.29267 0.91859
 C514 C 0.07871 0.27300 0.90953
 C515 C 0.07016 0.25354 0.91883
 C516 C 0.05353 0.25368 0.93726
 C517 C 0.04516 0.27338 0.94677
 C518 C 0.05380 0.29291 0.93704
 C519 C 0.09625 0.27267 0.89108
 C520 C 0.11108 0.27201 0.87586
 C521 C 0.12862 0.27080 0.85831
 C522 C 0.14373 0.26940 0.84356
 C523 C 0.16193 0.26727 0.82625
 C524 C 0.18179 0.27670 0.83270
 C525 C 0.19976 0.27377 0.81654
 C526 C 0.19809 0.26130 0.79370
 C527 C 0.17796 0.25215 0.78718
 C528 C 0.16002 0.25511 0.80338
 H529 H 0.07699 0.30785 0.91153
 H530 H 0.07646 0.23821 0.91195
 H531 H 0.04738 0.23830 0.94415
 H532 H 0.04785 0.30840 0.94378
 H533 H 0.18345 0.28611 0.85040
 H534 H 0.21500 0.28102 0.82212
 H535 H 0.17613 0.24246 0.76975
 H536 H 0.14473 0.24769 0.79823
 C537 C 0.57069 0.79226 0.41784
 C538 C 0.57878 0.77257 0.40858
 C539 C 0.57007 0.75311 0.41772
 C540 C 0.55346 0.75329 0.43618
 C541 C 0.54532 0.77299 0.44579
 C542 C 0.55405 0.79250 0.43632
 C543 C 0.59631 0.77222 0.39013
 C544 C 0.61116 0.77157 0.37493
 C545 C 0.62872 0.77041 0.35741
 C546 C 0.64386 0.76907 0.34271
 C547 C 0.66210 0.76703 0.32546
 C548 C 0.68187 0.77664 0.33194
 C549 C 0.69990 0.77381 0.31584
 C550 C 0.69837 0.76129 0.29302
 C551 C 0.67833 0.75196 0.28648
 C552 C 0.66034 0.75481 0.30262
 H553 H 0.57734 0.80743 0.41092
 H554 H 0.57623 0.73777 0.41071
 H555 H 0.54710 0.73800 0.44305
 H556 H 0.54816 0.80793 0.44332
 H557 H 0.68343 0.78609 0.34961
 H558 H 0.71507 0.78121 0.32143
 H559 H 0.67661 0.74222 0.26908
 H560 H 0.64512 0.74726 0.29745
 C561 C 0.93008 0.74733 0.91809
 C562 C 0.92137 0.72787 0.90899
 C563 C 0.92949 0.70817 0.91823
 C564 C 0.94617 0.70794 0.93664
 C565 C 0.95491 0.72745 0.94607
 C566 C 0.94673 0.74715 0.93649
 C567 C 0.90381 0.72821 0.89058
 C568 C 0.88896 0.72886 0.87539
 C569 C 0.87141 0.73003 0.85787
 C570 C 0.85629 0.73138 0.84314
 C571 C 0.83808 0.73341 0.82585
 C572 C 0.81827 0.72389 0.83234
 C573 C 0.80029 0.72669 0.81617
 C574 C 0.80190 0.73912 0.79327
 C575 C 0.82198 0.74838 0.78673
 C576 C 0.83993 0.74555 0.80294
 H577 H 0.92389 0.76267 0.91110
 H578 H 0.92284 0.69301 0.91134
 H579 H 0.95209 0.69251 0.94362
 H580 H 0.95309 0.76245 0.94332
 H581 H 0.81664 0.71450 0.85006
 H582 H 0.78508 0.71936 0.82177
 H583 H 0.82377 0.75804 0.76926
 H584 H 0.85518 0.75304 0.79776
 C585 C 0.42971 0.24597 0.41791
 C586 C 0.42107 0.22649 0.40877
 C587 C 0.42918 0.20682 0.41806
 C588 C 0.44577 0.20662 0.43658
 C589 C 0.45444 0.22614 0.44605
 C590 C 0.44628 0.24583 0.43641
 C591 C 0.40358 0.22681 0.39028
 C592 C 0.38878 0.22745 0.37503
 C593 C 0.37127 0.22863 0.35746
 C594 C 0.35617 0.23002 0.34271
 C595 C 0.33798 0.23213 0.32542
 C596 C 0.31814 0.22264 0.33188
 C597 C 0.30016 0.22559 0.31576
 C598 C 0.30179 0.23813 0.29295
 C599 C 0.32190 0.24732 0.28642
 C600 C 0.33986 0.24435 0.30258
 H601 H 0.42353 0.26130 0.41087
 H602 H 0.42258 0.19164 0.41114
 H603 H 0.45169 0.19120 0.44361
 H604 H 0.45258 0.26114 0.44328
 H605 H 0.31650 0.21320 0.34955
 H606 H 0.28493 0.21830 0.32135
 H607 H 0.32371 0.25706 0.26902
 H608 H 0.35513 0.25181 0.29743
 C609 C 0.74642 0.93011 0.91733
 C610 C 0.72695 0.92144 0.90821
 C611 C 0.70726 0.92953 0.91749
 C612 C 0.70704 0.94615 0.93598
 C613 C 0.72656 0.95485 0.94544
 C614 C 0.74625 0.94670 0.93580
 C615 C 0.72729 0.90392 0.88977
 C616 C 0.72795 0.88908 0.87456
 C617 C 0.72915 0.87153 0.85706
 C618 C 0.73056 0.85640 0.84236
 C619 C 0.73269 0.83816 0.82514
 C620 C 0.72322 0.81834 0.83168
 C621 C 0.72618 0.80032 0.81562
 C622 C 0.73870 0.80190 0.79280
 C623 C 0.74789 0.82200 0.78620
 C624 C 0.74490 0.83999 0.80229
 H625 H 0.76175 0.92394 0.91031
 H626 H 0.69209 0.92290 0.91059
 H627 H 0.69162 0.95205 0.94300
 H628 H 0.76155 0.95303 0.94266
 H629 H 0.71378 0.81673 0.84936
 H630 H 0.71889 0.78509 0.82127
 H631 H 0.75762 0.82377 0.76879
 H632 H 0.75235 0.85526 0.79708
 C633 C 0.24696 0.42947 0.41824
 C634 C 0.22751 0.42072 0.40913
 C635 C 0.20781 0.42882 0.41835
 C636 C 0.20754 0.44550 0.43676
 C637 C 0.22703 0.45427 0.44620
 C638 C 0.24675 0.44612 0.43663
 C639 C 0.22790 0.40317 0.39072
 C640 C 0.22858 0.38833 0.37552
 C641 C 0.22978 0.37078 0.35800
 C642 C 0.23117 0.35567 0.34326
 C643 C 0.23324 0.33747 0.32595
 C644 C 0.22371 0.31765 0.33239
 C645 C 0.22655 0.29969 0.31620
 C646 C 0.23903 0.30132 0.29334
 C647 C 0.24830 0.32141 0.28686
 C648 C 0.24543 0.33935 0.30308
 H649 H 0.26231 0.42330 0.41125
 H650 H 0.19265 0.42214 0.41146
 H651 H 0.19210 0.45140 0.44374
 H652 H 0.26203 0.45250 0.44347
 H653 H 0.21429 0.31601 0.35008
 H654 H 0.21921 0.28447 0.32176
 H655 H 0.25799 0.32322 0.26942
 H656 H 0.25292 0.35460 0.29794
 C657 C 0.29180 0.07050 0.91864
 C658 C 0.27212 0.07872 0.90953
 C659 C 0.25266 0.07017 0.91884
 C660 C 0.25281 0.05359 0.93734
 C661 C 0.27251 0.04526 0.94690
 C662 C 0.29203 0.05390 0.93715
 C663 C 0.27179 0.09622 0.89104
 C664 C 0.27116 0.11103 0.87579
 C665 C 0.27000 0.12856 0.85823
 C666 C 0.26866 0.14367 0.84347
 C667 C 0.26662 0.16189 0.82618
 C668 C 0.25441 0.16007 0.80334
 C669 C 0.25155 0.17804 0.78716
 C670 C 0.26086 0.19810 0.79366
 C671 C 0.27337 0.19967 0.81647
 C672 C 0.27621 0.18168 0.83262
 H673 H 0.30697 0.07703 0.91157
 H674 H 0.23733 0.07643 0.91193
 H675 H 0.23743 0.04744 0.94424
 H676 H 0.30753 0.04798 0.94393
 H677 H 0.24688 0.14484 0.79820
 H678 H 0.24183 0.17629 0.76975
 H679 H 0.28075 0.21486 0.82204
 H680 H 0.28565 0.18327 0.85029
 C681 C 0.79312 0.57109 0.41831
 C682 C 0.77344 0.57922 0.40907
 C683 C 0.75397 0.57052 0.41818
 C684 C 0.75413 0.55388 0.43660
 C685 C 0.77382 0.54569 0.44618
 C686 C 0.79334 0.55441 0.43674
 C687 C 0.77310 0.59676 0.39063
 C688 C 0.77244 0.61160 0.37542
 C689 C 0.77121 0.62914 0.35787
 C690 C 0.76980 0.64424 0.34312
 C691 C 0.76765 0.66243 0.32581
 C692 C 0.75552 0.66051 0.30293
 C693 C 0.75254 0.67844 0.28672
 C694 C 0.76165 0.69858 0.29324
 C695 C 0.77410 0.70027 0.31610
 C696 C 0.77705 0.68231 0.33227
 H697 H 0.80830 0.57773 0.41140
 H698 H 0.73864 0.57671 0.41119
 H699 H 0.73882 0.54753 0.44345
 H700 H 0.80876 0.54848 0.44372
 H701 H 0.74813 0.64521 0.29777
 H702 H 0.74287 0.67659 0.26928
 H703 H 0.78133 0.71553 0.32169
 H704 H 0.78643 0.68400 0.34998
 C705 C 0.07014 0.74719 0.91865
 C706 C 0.07866 0.72771 0.90936
 C707 C 0.07043 0.70805 0.91852
 C708 C 0.05384 0.70785 0.93706
 C709 C 0.04524 0.72739 0.94679
 C710 C 0.05358 0.74707 0.93718
 C711 C 0.09613 0.72801 0.89084
 C712 C 0.11093 0.72861 0.87556
 C713 C 0.12844 0.72974 0.85797
 C714 C 0.14354 0.73107 0.84319
 C715 C 0.16174 0.73309 0.82587
 C716 C 0.18155 0.72355 0.83234
 C717 C 0.19954 0.72640 0.81619
 C718 C 0.19794 0.73889 0.79334
 C719 C 0.17787 0.74815 0.78681
 C720 C 0.15990 0.74527 0.80300
 H721 H 0.07642 0.76251 0.91170
 H722 H 0.07693 0.69287 0.91146
 H723 H 0.04791 0.69236 0.94387
 H724 H 0.04746 0.76246 0.94406
 H725 H 0.18316 0.71414 0.85004
 H726 H 0.21475 0.71906 0.82178
 H727 H 0.17609 0.75785 0.76938
 H728 H 0.14466 0.75277 0.79784
 C729 C 0.57035 0.24625 0.41830
 C730 C 0.57910 0.22680 0.40920
 C731 C 0.57103 0.20709 0.41844
 C732 C 0.55435 0.20682 0.43687
 C733 C 0.54557 0.22631 0.44631
 C734 C 0.55370 0.24603 0.43672
 C735 C 0.59665 0.22719 0.39077
 C736 C 0.61149 0.22790 0.37556
 C737 C 0.62903 0.22915 0.35802
 C738 C 0.64415 0.23059 0.34328
 C739 C 0.66234 0.23274 0.32597
 C740 C 0.68219 0.22326 0.33239
 C741 C 0.70015 0.22620 0.31622
 C742 C 0.69849 0.23871 0.29339
 C743 C 0.67838 0.24792 0.28692
 C744 C 0.66044 0.24496 0.30313
 H745 H 0.57650 0.26160 0.41130
 H746 H 0.57772 0.19194 0.41155
 H747 H 0.54847 0.19138 0.44386
 H748 H 0.54731 0.26131 0.44356
 H749 H 0.68385 0.21382 0.35006
 H750 H 0.71539 0.21890 0.32176
 H751 H 0.67655 0.25764 0.26951
 H752 H 0.64516 0.25241 0.29801
 C753 C 0.93009 0.25341 0.91752
 C754 C 0.92137 0.27287 0.90838
 C755 C 0.92945 0.29257 0.91761
 C756 C 0.94608 0.29282 0.93608
 C757 C 0.95482 0.27333 0.94556
 C758 C 0.94670 0.25362 0.93597
 C759 C 0.90383 0.27249 0.88997
 C760 C 0.88898 0.27180 0.87480
 C761 C 0.87141 0.27057 0.85732
 C762 C 0.85626 0.26915 0.84265
 C763 C 0.83801 0.26701 0.82545
 C764 C 0.81820 0.27653 0.83196
 C765 C 0.80018 0.27359 0.81591
 C766 C 0.80174 0.26103 0.79312
 C767 C 0.82182 0.25179 0.78655
 C768 C 0.83982 0.25476 0.80264
 H769 H 0.92394 0.23807 0.91053
 H770 H 0.92278 0.30773 0.91069
 H771 H 0.95196 0.30826 0.94307
 H772 H 0.95307 0.23833 0.94284
 H773 H 0.81662 0.28600 0.84961
 H774 H 0.78497 0.28092 0.82153
 H775 H 0.82357 0.24204 0.76916
 H776 H 0.85507 0.24727 0.79745
 C777 C 0.42875 0.79239 0.41822
 C778 C 0.42061 0.77271 0.40900
 C779 C 0.42930 0.75323 0.41812
 C780 C 0.44595 0.75339 0.43651
 C781 C 0.45415 0.77308 0.44607
 C782 C 0.44543 0.79260 0.43663
 C783 C 0.40306 0.77238 0.39058
 C784 C 0.38821 0.77174 0.37538
 C785 C 0.37068 0.77056 0.35785
 C786 C 0.35557 0.76920 0.34311
 C787 C 0.33738 0.76714 0.32579
 C788 C 0.31753 0.77659 0.33227
 C789 C 0.29957 0.77373 0.31609
 C790 C 0.30123 0.76132 0.29319
 C791 C 0.32135 0.75215 0.28666
 C792 C 0.33928 0.75503 0.30288
 H793 H 0.42212 0.80757 0.41131
 H794 H 0.42309 0.73790 0.41114
 H795 H 0.45229 0.73809 0.44336
 H796 H 0.45137 0.80802 0.44360
 H797 H 0.31586 0.78595 0.35000
 H798 H 0.28433 0.78101 0.32169
 H799 H 0.32318 0.74251 0.26919
 H800 H 0.35456 0.74760 0.29771
 C801 C 0.29200 0.92970 0.08203
 C802 C 0.27232 0.92158 0.09133
 C803 C 0.25284 0.93027 0.08225
 C804 C 0.25298 0.94690 0.06381
 C805 C 0.27266 0.95507 0.05415
 C806 C 0.29219 0.94635 0.06357
 C807 C 0.27202 0.90403 0.10975
 C808 C 0.27139 0.88917 0.12494
 C809 C 0.27023 0.87160 0.14244
 C810 C 0.26888 0.85645 0.15713
 C811 C 0.26682 0.83819 0.17436
 C812 C 0.27637 0.81840 0.16784
 C813 C 0.27349 0.80037 0.18392
 C814 C 0.26097 0.80190 0.20674
 C815 C 0.25171 0.82196 0.21333
 C816 C 0.25461 0.83997 0.19722
 H817 H 0.30718 0.92307 0.08890
 H818 H 0.23752 0.92408 0.08929
 H819 H 0.23767 0.95323 0.05698
 H820 H 0.30760 0.95228 0.05653
 H821 H 0.28581 0.81683 0.15016
 H822 H 0.28084 0.78517 0.17828
 H823 H 0.24198 0.82369 0.23075
 H824 H 0.24710 0.85520 0.20242
 C825 C 0.75375 0.42948 0.58192
 C826 C 0.77320 0.42072 0.59101
 C827 C 0.79291 0.42880 0.58177
 C828 C 0.79317 0.44549 0.56336
 C829 C 0.77368 0.45428 0.55394
 C830 C 0.75396 0.44615 0.56352
 C831 C 0.77281 0.40315 0.60941
 C832 C 0.77211 0.38829 0.62459
 C833 C 0.77086 0.37073 0.64210
 C834 C 0.76942 0.35561 0.65683
 C835 C 0.76727 0.33740 0.67411
 C836 C 0.75510 0.33930 0.69699
 C837 C 0.75214 0.32135 0.71318
 C838 C 0.76131 0.30123 0.70666
 C839 C 0.77378 0.29957 0.68380
 C840 C 0.77671 0.31754 0.66764
 H841 H 0.73840 0.42332 0.58891
 H842 H 0.80806 0.42211 0.58865
 H843 H 0.80861 0.45139 0.55637
 H844 H 0.73868 0.45254 0.55670
 H845 H 0.74768 0.35458 0.70215
 H846 H 0.74246 0.32318 0.73062
 H847 H 0.78105 0.28433 0.67822
 H848 H 0.78612 0.31588 0.64995
 C849 C 0.70728 0.07103 0.08172
 C850 C 0.72697 0.07909 0.09101
 C851 C 0.74644 0.07040 0.08187
 C852 C 0.74627 0.05382 0.06338
 C853 C 0.72657 0.04571 0.05374
 C854 C 0.70706 0.05443 0.06321
 C855 C 0.72732 0.09658 0.10949
 C856 C 0.72798 0.11139 0.12473
 C857 C 0.72918 0.12891 0.14228
 C858 C 0.73058 0.14401 0.15702
 C859 C 0.73269 0.16221 0.17431
 C860 C 0.74493 0.16034 0.19712
 C861 C 0.74789 0.17830 0.21328
 C862 C 0.73865 0.19840 0.20678
 C863 C 0.72610 0.20001 0.18399
 C864 C 0.72317 0.18203 0.16787
 H865 H 0.69212 0.07767 0.08863
 H866 H 0.76178 0.07654 0.08891
 H867 H 0.76157 0.04748 0.05652
 H868 H 0.69163 0.04855 0.05618
 H869 H 0.75242 0.14508 0.20225
 H870 H 0.75763 0.17651 0.23066
 H871 H 0.71877 0.21524 0.17842
 H872 H 0.71371 0.18366 0.15021
 C873 C 0.20751 0.57102 0.58180
 C874 C 0.22719 0.57916 0.59105
 C875 C 0.24667 0.57048 0.58193
 C876 C 0.24653 0.55383 0.56352
 C877 C 0.22685 0.54564 0.55394
 C878 C 0.20732 0.55435 0.56337
 C879 C 0.22750 0.59669 0.60948
 C880 C 0.22813 0.61153 0.62469
 C881 C 0.22929 0.62907 0.64223
 C882 C 0.23064 0.64418 0.65697
 C883 C 0.23268 0.66238 0.67428
 C884 C 0.24483 0.66052 0.69716
 C885 C 0.24769 0.67846 0.71336
 C886 C 0.23846 0.69855 0.70684
 C887 C 0.22601 0.70018 0.68397
 C888 C 0.22317 0.68220 0.66781
 H889 H 0.19233 0.57764 0.58870
 H890 H 0.26200 0.57667 0.58893
 H891 H 0.26184 0.54750 0.55668
 H892 H 0.19190 0.54841 0.55639
 H893 H 0.25231 0.64526 0.70233
 H894 H 0.25737 0.67667 0.73081
 H895 H 0.21868 0.71540 0.67838
 H896 H 0.21377 0.68384 0.65010
 C897 C 0.92970 0.70811 0.08199
 C898 C 0.92159 0.72780 0.09125
 C899 C 0.93029 0.74727 0.08214
 C900 C 0.94691 0.74710 0.06369
 C901 C 0.95507 0.72741 0.05407
 C902 C 0.94635 0.70790 0.06353
 C903 C 0.90405 0.72813 0.10968
 C904 C 0.88919 0.72876 0.12487
 C905 C 0.87162 0.72992 0.14238
 C906 C 0.85648 0.73125 0.15708
 C907 C 0.83823 0.73329 0.17432
 C908 C 0.81845 0.72369 0.16783
 C909 C 0.80043 0.72652 0.18392
 C910 C 0.80195 0.73904 0.20674
 C911 C 0.82199 0.74836 0.21329
 C912 C 0.83999 0.74551 0.19716
 H913 H 0.92306 0.69294 0.08889
 H914 H 0.92411 0.76260 0.08915
 H915 H 0.95326 0.76241 0.05683
 H916 H 0.95226 0.69247 0.05652
 H917 H 0.81690 0.71424 0.15015
 H918 H 0.78525 0.71913 0.17832
 H919 H 0.82371 0.75809 0.23070
 H920 H 0.85521 0.75305 0.20233
 C921 C 0.42937 0.24601 0.58212
 C922 C 0.42068 0.22654 0.59124
 C923 C 0.42880 0.20685 0.58199
 C924 C 0.44547 0.20664 0.56354
 C925 C 0.45419 0.22616 0.55410
 C926 C 0.44601 0.24585 0.56369
 C927 C 0.40314 0.22687 0.60969
 C928 C 0.38831 0.22754 0.62491
 C929 C 0.37078 0.22876 0.64246
 C930 C 0.35567 0.23017 0.65721
 C931 C 0.33748 0.23231 0.67452
 C932 C 0.33939 0.24449 0.69738
 C933 C 0.32144 0.24746 0.71358
 C934 C 0.30132 0.23831 0.70708
 C935 C 0.29965 0.22583 0.68424
 C936 C 0.31762 0.22288 0.66808
 H937 H 0.42318 0.26134 0.58912
 H938 H 0.42217 0.19168 0.58890
 H939 H 0.45140 0.19122 0.55656
 H940 H 0.45235 0.26115 0.55684
 H941 H 0.35467 0.25191 0.70252
 H942 H 0.32328 0.25716 0.73100
 H943 H 0.28440 0.21857 0.67867
 H944 H 0.31595 0.21347 0.65040
 C945 C 0.07042 0.25366 0.08199
 C946 C 0.07910 0.27314 0.09109
 C947 C 0.07101 0.29282 0.08176
 C948 C 0.05441 0.29302 0.06325
 C949 C 0.04571 0.27349 0.05382
 C950 C 0.05385 0.25381 0.06350
 C951 C 0.09659 0.27282 0.10956
 C952 C 0.11141 0.27217 0.12480
 C953 C 0.12893 0.27097 0.14234
 C954 C 0.14403 0.26956 0.15708
 C955 C 0.16223 0.26742 0.17435
 C956 C 0.18208 0.27689 0.16788
 C957 C 0.20006 0.27392 0.18399
 C958 C 0.19843 0.26137 0.20679
 C959 C 0.17832 0.25219 0.21332
 C960 C 0.16036 0.25519 0.19718
 H961 H 0.07658 0.23834 0.08906
 H962 H 0.07764 0.30800 0.08864
 H963 H 0.04852 0.30844 0.05619
 H964 H 0.04751 0.23850 0.05667
 H965 H 0.18372 0.28635 0.15022
 H966 H 0.21530 0.28121 0.17839
 H967 H 0.17652 0.24244 0.23072
 H968 H 0.14509 0.24773 0.20234
 C969 C 0.57036 0.75308 0.58174
 C970 C 0.57911 0.77254 0.59082
 C971 C 0.57100 0.79224 0.58158
 C972 C 0.55431 0.79248 0.56318
 C973 C 0.54554 0.77298 0.55378
 C974 C 0.55370 0.75328 0.56336
 C975 C 0.59668 0.77218 0.60921
 C976 C 0.61154 0.77151 0.62438
 C977 C 0.62910 0.77033 0.64188
 C978 C 0.64423 0.76896 0.65659
 C979 C 0.66245 0.76691 0.67387
 C980 C 0.68226 0.77642 0.66737
 C981 C 0.70025 0.77360 0.68353
 C982 C 0.69864 0.76116 0.70642
 C983 C 0.67855 0.75192 0.71297
 C984 C 0.66060 0.75476 0.69677
 H985 H 0.57654 0.73774 0.58874
 H986 H 0.57768 0.80740 0.58845
 H987 H 0.54840 0.80792 0.55620
 H988 H 0.54731 0.73798 0.55654
 H989 H 0.68389 0.78581 0.64965
 H990 H 0.71546 0.78093 0.67793
 H991 H 0.67677 0.74225 0.73044
 H992 H 0.64535 0.74728 0.70196
   
