data_POSCAR
  _audit_creation_date              2014-09-24
  _audit_creation_method            'ToBaCCo'
  _symmetry_space_group_name_H-M    'P1'
  _symmetry_Int_Tables_number       1
  _symmetry_cell_setting            triclinic
  loop_
  _symmetry_equiv_pos_as_xyz
 x,y,z
_cell_length_a 41.3163
_cell_length_b 41.3431
_cell_length_c 41.2465
_cell_angle_alpha 90.102500
_cell_angle_beta 89.985800
_cell_angle_gamma 90.013200
loop_
  _atom_site_label
  _atom_site_type_symbol
  _atom_site_fract_x
  _atom_site_fract_y
  _atom_site_fract_z
C1 C 0.17200 0.17070 0.21214
 N2 N 0.19884 0.15729 0.19872
 C3 C 0.21230 0.17067 0.17188
 N4 N 0.19891 0.19747 0.15847
 C5 C 0.17208 0.21088 0.17188
 N6 N 0.15863 0.19750 0.19871
 C7 C -0.17197 0.82968 0.21147
 N8 N -0.15859 0.80282 0.19809
 C9 C -0.17201 0.78932 0.17125
 N10 N -0.19882 0.80268 0.15780
 C11 C -0.21221 0.82955 0.17118
 N12 N -0.19879 0.84304 0.19802
 C13 C -0.17214 0.17042 -0.21189
 N14 N -0.15872 0.19721 -0.19840
 C15 C -0.17211 0.21059 -0.17149
 N16 N -0.19894 0.19721 -0.15809
 C17 C -0.21238 0.17042 -0.17157
 N18 N -0.19898 0.15703 -0.19849
 C19 C 0.17204 0.82882 -0.21131
 N20 N 0.15867 0.80200 -0.19793
 C21 C 0.17210 0.78861 -0.17110
 N22 N 0.19891 0.80204 -0.15766
 C23 C 0.21229 0.82887 -0.17104
 N24 N 0.19885 0.84225 -0.19788
 C25 C 0.17047 1.17158 0.78812
 N26 N 0.15710 1.19841 0.80160
 C27 C 0.17051 1.21179 0.82850
 N28 N 0.19731 1.19836 0.84190
 C29 C 0.21069 1.17154 0.82843
 N30 N 0.19727 1.15816 0.80153
 C31 C 0.82940 0.82860 0.78736
 N32 N 0.84278 0.80177 0.80073
 C33 C 0.82935 0.78836 0.82756
 N34 N 0.80253 0.80176 0.84101
 C35 C 0.78915 0.82858 0.82766
 N36 N 0.80258 0.84199 0.80083
 C37 C 0.17058 0.82819 1.21173
 N38 N 0.19741 0.84157 1.19831
 C39 C 0.21088 0.82811 1.17148
 N40 N 0.19753 0.80124 1.15808
 C41 C 0.17070 0.78784 1.17149
 N42 N 0.15724 0.80131 1.19833
 C43 C 0.82952 1.17223 1.21201
 N44 N 0.84292 1.19905 1.19864
 C45 C 0.82951 1.21247 1.17181
 N46 N 0.80268 1.19907 1.15836
 C47 C 0.78928 1.17226 1.17173
 N48 N 0.80269 1.15884 1.19855
 N49 N 0.53396 1.05744 0.96515
 N50 N 0.55849 1.07750 0.96100
 N51 N 0.46583 1.03488 0.94273
 N52 N 0.44128 1.03897 0.92267
 N53 N 0.46584 1.05736 0.96528
 N54 N 0.44130 1.07739 0.96119
 N55 N 0.53395 1.03495 0.94261
 N56 N 0.55845 1.03907 0.92248
 C57 C 0.57341 1.06567 0.93432
 C58 C 0.42633 1.06555 0.93456
 N59 N 0.46596 0.94274 0.96514
 N60 N 0.44145 0.92265 0.96102
 N61 N 0.53401 0.96528 0.94253
 N62 N 0.55851 0.96116 0.92238
 N63 N 0.53407 0.94283 0.96503
 N64 N 0.55861 0.92280 0.96083
 N65 N 0.46590 0.96519 0.94265
 N66 N 0.44135 0.96102 0.92259
 Mn67 Mn 0.49992 1.00008 0.94225
 C68 C 0.42645 0.93442 0.93441
 C69 C 0.57350 0.93461 0.93417
 N70 N 0.46594 1.05740 1.03512
 N71 N 0.44141 1.07743 1.03934
 N72 N 0.53412 1.03504 1.05750
 N73 N 0.55867 1.03921 1.07756
 N74 N 0.53406 1.05749 1.03500
 N75 N 0.55857 1.07757 1.03912
 N76 N 0.46600 1.03495 1.05762
 N77 N 0.44151 1.03907 1.07778
 Mn78 Mn 0.49995 1.05781 1.00014
 C79 C 0.42652 1.06563 1.06600
 C80 C 0.57357 1.06580 1.06572
 N81 N 0.53418 0.94287 1.03487
 N82 N 0.55872 0.92283 1.03896
 N83 N 0.46607 0.96526 1.05753
 N84 N 0.44155 0.96113 1.07764
 N85 N 0.46607 0.94278 1.03498
 N86 N 0.44155 0.92272 1.03911
 N87 N 0.53419 0.96535 1.05742
 N88 N 0.55873 0.96124 1.07749
 Mn89 Mn 0.50007 0.94242 1.00001
 Mn90 Mn 0.50010 1.00015 1.05790
 Cl91 Cl 0.50001 1.00011 1.00007
 C92 C 0.57368 0.93466 1.06561
 C93 C 0.42661 0.93452 1.06578
 N94 N 0.03507 0.46580 0.05782
 N95 N 0.03918 0.44133 0.07794
 N96 N 0.05761 0.53380 0.03524
 N97 N 0.07769 0.55832 0.03935
 N98 N 0.03512 0.53387 0.05775
 N99 N 0.03925 0.55844 0.07782
 N100 N 0.05755 0.46573 0.03530
 N101 N 0.07760 0.44121 0.03944
 C102 C 0.06577 0.42635 0.06610
 C103 C 0.06587 0.57333 0.06598
 N104 N 0.03515 0.53355 -0.05713
 N105 N 0.03929 0.55803 -0.07722
 N106 N 0.05757 0.46552 -0.03455
 N107 N 0.07763 0.44099 -0.03869
 N108 N 0.03510 0.46548 -0.05707
 N109 N 0.03921 0.44093 -0.07716
 N110 N 0.05763 0.53360 -0.03461
 N111 N 0.07769 0.55811 -0.03874
 Mn112 Mn 0.05798 0.49966 0.00034
 C113 C 0.06589 0.57299 -0.06538
 C114 C 0.06580 0.42600 -0.06533
 N115 N -0.03462 0.53391 0.05774
 N116 N -0.03876 0.55848 0.07782
 N117 N -0.05713 0.46578 0.03530
 N118 N -0.07721 0.44128 0.03946
 N119 N -0.03466 0.46584 0.05782
 N120 N -0.03880 0.44138 0.07795
 N121 N -0.05709 0.53385 0.03522
 N122 N -0.07716 0.55836 0.03932
 Mn123 Mn 0.00023 0.49986 0.05817
 C124 C -0.06536 0.57338 0.06596
 C125 C -0.06540 0.42642 0.06612
 N126 N -0.03463 0.46551 -0.05707
 N127 N -0.03879 0.44096 -0.07715
 N128 N -0.05707 0.53366 -0.03463
 N129 N -0.07714 0.55814 -0.03883
 N130 N -0.03457 0.53358 -0.05714
 N131 N -0.03870 0.55800 -0.07730
 N132 N -0.05711 0.46558 -0.03454
 N133 N -0.07721 0.44109 -0.03867
 Mn134 Mn 0.00026 0.49953 -0.05748
 Mn135 Mn -0.05748 0.49972 0.00034
 Cl136 Cl 0.00025 0.49969 0.00034
 C137 C -0.06541 0.42608 -0.06530
 C138 C -0.06530 0.57298 -0.06550
 N139 N 0.96496 0.05775 0.46570
 N140 N 0.96086 0.07784 0.44120
 N141 N 0.94243 0.03522 0.53385
 N142 N 0.92232 0.03934 0.55840
 N143 N 0.96492 0.05767 0.53393
 N144 N 0.96076 0.07772 0.55854
 N145 N 0.94246 0.03530 0.46562
 N146 N 0.92241 0.03948 0.44107
 C147 C 0.93426 0.06608 0.42618
 C148 C 0.93413 0.06590 0.57345
 N149 N 0.96484 -0.05694 0.53360
 N150 N 0.96070 -0.07702 0.55810
 N151 N 0.94240 -0.03439 0.46543
 N152 N 0.92230 -0.03850 0.44089
 N153 N 0.96485 -0.05687 0.46537
 N154 N 0.96068 -0.07692 0.44077
 N155 N 0.94237 -0.03447 0.53367
 N156 N 0.92230 -0.03862 0.55823
 Mn157 Mn 0.94203 0.00042 0.49964
 C158 C 0.93411 -0.06523 0.57312
 C159 C 0.93408 -0.06509 0.42585
 N160 N 1.03466 0.05763 0.53394
 N161 N 1.03881 0.07769 0.55853
 N162 N 1.05715 0.03522 0.46565
 N163 N 1.07725 0.03936 0.44111
 N164 N 1.03469 0.05770 0.46570
 N165 N 1.03888 0.07779 0.44120
 N166 N 1.05712 0.03516 0.53388
 N167 N 1.07721 0.03929 0.55844
 Mn168 Mn 0.99981 0.05808 0.49982
 C169 C 1.06541 0.06588 0.57346
 C170 C 1.06549 0.06597 0.42622
 N171 N 1.03458 -0.05691 0.46538
 N172 N 1.03873 -0.07700 0.44082
 N173 N 1.05707 -0.03452 0.53367
 N174 N 1.07715 -0.03870 0.55820
 N175 N 1.03457 -0.05698 0.53361
 N176 N 1.03871 -0.07708 0.55810
 N177 N 1.05709 -0.03447 0.46544
 N178 N 1.07720 -0.03865 0.44090
 Mn179 Mn 0.99971 -0.05731 0.49949
 Mn180 Mn 1.05749 0.00035 0.49966
 Cl181 Cl 0.99976 0.00038 0.49965
 C182 C 1.06537 -0.06524 0.42589
 C183 C 1.06533 -0.06531 0.57309
 C184 C 1.13236 0.13172 0.29142
 N185 N 1.13071 0.09915 0.29489
 N186 N 1.11750 0.08625 0.32137
 C187 C 1.10554 0.10553 0.34515
 N188 N 1.10718 0.13810 0.34167
 N189 N 1.12040 0.15100 0.31520
 C190 C 1.14661 0.14563 0.26294
 C191 C 1.15857 0.15738 0.23903
 C192 C 1.09138 0.09164 0.37369
 C193 C 1.07954 0.07995 0.39767
 C194 C 0.86750 -0.13100 0.29079
 N195 N 0.89489 -0.14368 0.30368
 N196 N 0.90801 -0.13071 0.33020
 C197 C 0.89414 -0.10467 0.34462
 N198 N 0.86676 -0.09198 0.33173
 N199 N 0.85363 -0.10496 0.30521
 C200 C 0.85332 -0.14504 0.26229
 C201 C 0.84142 -0.15689 0.23838
 C202 C 0.90823 -0.09074 0.37322
 C203 C 0.92004 -0.07904 0.39724
 C204 C 0.86736 0.13145 0.70862
 N205 N 0.89257 0.14627 0.69370
 N206 N 0.90574 0.13340 0.66715
 C207 C 0.89411 0.10532 0.65473
 N208 N 0.86890 0.09050 0.66965
 N209 N 0.85572 0.10337 0.69620
 C210 C 0.85315 0.14535 0.73717
 C211 C 0.84123 0.15709 0.76114
 C212 C 0.90825 0.09149 0.62612
 C213 C 0.92009 0.07984 0.60207
 C214 C 1.13182 -0.13134 0.70788
 N215 N 1.12986 -0.09876 0.70465
 N216 N 1.11674 -0.08579 0.67817
 C217 C 1.10520 -0.10501 0.65413
 N218 N 1.10716 -0.13759 0.65737
 N219 N 1.12028 -0.15056 0.68384
 C220 C 1.14598 -0.14531 0.73636
 C221 C 1.15788 -0.15709 0.76026
 C222 C 1.09113 -0.09106 0.62560
 C223 C 1.07933 -0.07932 0.60163
 C224 C 0.29160 1.13148 1.13249
 N225 N 0.30467 1.14426 1.10520
 N226 N 0.33117 1.13129 1.09212
 C227 C 0.34540 1.10516 1.10593
 N228 N 0.33232 1.09239 1.13322
 N229 N 0.30582 1.10535 1.14630
 C230 C 0.26311 1.14549 1.14662
 C231 C 0.23920 1.15731 1.15850
 C232 C 0.37396 1.09124 1.09187
 C233 C 0.39796 1.07955 1.08007
 C234 C 0.29153 0.86820 0.86829
 N235 N 0.30479 0.85534 0.89544
 N236 N 0.33129 0.86838 0.90847
 C237 C 0.34532 0.89466 0.89473
 N238 N 0.33206 0.90753 0.86759
 N239 N 0.30556 0.89449 0.85456
 C240 C 0.26307 0.85411 0.85421
 C241 C 0.23917 0.84225 0.84235
 C242 C 0.37388 0.90866 0.90872
 C243 C 0.39789 0.92041 0.92045
 C244 C 0.70854 0.86865 1.13178
 N245 N 0.68560 0.84951 1.11815
 N246 N 0.65911 0.86250 1.10510
 C247 C 0.65478 0.89502 1.10530
 N248 N 0.67773 0.91416 1.11893
 N249 N 0.70421 0.90117 1.13198
 C250 C 0.73701 0.85466 1.14589
 C251 C 0.76091 0.84286 1.15777
 C252 C 0.62624 0.90898 1.09131
 C253 C 0.60224 0.92070 1.07957
 C254 C 0.70833 1.13135 0.86784
 N255 N 0.69458 1.14496 0.89444
 N256 N 0.66808 1.13204 0.90754
 C257 C 0.65453 1.10514 0.89445
 N258 N 0.66829 1.09154 0.86786
 N259 N 0.69479 1.10445 0.85475
 C260 C 0.73681 1.14531 0.85369
 C261 C 0.76072 1.15708 0.84180
 C262 C 0.62597 1.09127 0.90852
 C263 C 0.60197 1.07960 0.92031
 C264 C 0.13200 0.29158 0.13196
 N265 N 0.14515 0.30514 0.10510
 N266 N 0.13209 0.33161 0.09215
 C267 C 0.10548 0.34531 0.10568
 N268 N 0.09232 0.33174 0.13254
 N269 N 0.10538 0.30527 0.14548
 C270 C 0.14611 0.26313 0.14595
 C271 C 0.15797 0.23926 0.15776
 C272 C 0.09146 0.37384 0.09178
 C273 C 0.07971 0.39781 0.08008
 C274 C -0.13191 0.29128 -0.13135
 N275 N -0.14833 0.30862 -0.10876
 N276 N -0.13522 0.33509 -0.09576
 C277 C -0.10531 0.34501 -0.10495
 N278 N -0.08889 0.32766 -0.12753
 N279 N -0.10199 0.30119 -0.14054
 C280 C -0.14606 0.26284 -0.14542
 C281 C -0.15795 0.23897 -0.15730
 C282 C -0.09123 0.37354 -0.09100
 C283 C -0.07943 0.39753 -0.07928
 C284 C 0.13208 0.70784 -0.13122
 N285 N 0.10430 0.69531 -0.14347
 N286 N 0.09126 0.66882 -0.13053
 C287 C 0.10560 0.65407 -0.10494
 N288 N 0.13337 0.66660 -0.09269
 N289 N 0.14642 0.69308 -0.10564
 C290 C 0.14616 0.73630 -0.14521
 C291 C 0.15800 0.76020 -0.15700
 C292 C 0.09159 0.62552 -0.09104
 C293 C 0.07985 0.60154 -0.07934
 C294 C -0.13188 0.70841 0.13150
 N295 N -0.15067 0.68647 0.11585
 N296 N -0.13755 0.65994 0.10299
 C297 C -0.10526 0.65454 0.10539
 N298 N -0.08648 0.67649 0.12104
 N299 N -0.09959 0.70302 0.13391
 C300 C -0.14602 0.73693 0.14543
 C301 C -0.15789 0.76086 0.15718
 C302 C -0.09116 0.62597 0.09155
 C303 C -0.07936 0.60196 0.07990
 C304 C 1.13130 0.13230 0.70863
 N305 N 1.12916 0.09970 0.70550
 N306 N 1.11622 0.08662 0.67894
 C307 C 1.10503 0.10573 0.65472
 N308 N 1.10717 0.13833 0.65786
 N309 N 1.12011 0.15141 0.68441
 C310 C 1.14530 0.14639 0.73719
 C311 C 1.15712 0.15823 0.76115
 C312 C 1.09111 0.09166 0.62611
 C313 C 1.07940 0.07987 0.60208
 C314 C 0.86848 -0.13187 0.70808
 N315 N 0.89545 -0.14479 0.69449
 N316 N 0.90833 -0.13163 0.66799
 C317 C 0.89464 -0.10517 0.65427
 N318 N 0.86768 -0.09225 0.66787
 N319 N 0.85479 -0.10540 0.69437
 C320 C 0.85454 -0.14608 0.73656
 C321 C 0.84276 -0.15801 0.76047
 C322 C 0.90849 -0.09105 0.62570
 C323 C 0.92015 -0.07924 0.60169
 C324 C 1.13133 -0.13220 0.29102
 N325 N 1.12048 -0.15119 0.31550
 N326 N 1.10753 -0.13798 0.34199
 C327 C 1.10505 -0.10538 0.34480
 N328 N 1.11590 -0.08639 0.32032
 N329 N 1.12884 -0.09960 0.29383
 C330 C 1.14534 -0.14642 0.26253
 C331 C 1.15718 -0.15837 0.23863
 C332 C 1.09112 -0.09118 0.37334
 C333 C 1.07939 -0.07930 0.39733
 C334 C 0.86862 0.13272 0.29126
 N335 N 0.89363 0.14742 0.30667
 N336 N 0.90653 0.13428 0.33316
 C337 C 0.89482 0.10604 0.34505
 N338 N 0.86981 0.09133 0.32964
 N339 N 0.85691 0.10448 0.30315
 C340 C 0.85466 0.14691 0.26280
 C341 C 0.84287 0.15883 0.23890
 C342 C 0.90867 0.09193 0.37361
 C343 C 0.92033 0.08011 0.39761
 C344 C 0.13147 0.29106 -0.13192
 N345 N 0.14523 0.30498 -0.10551
 N346 N 0.13232 0.33147 -0.09237
 C347 C 0.10527 0.34485 -0.10525
 N348 N 0.09150 0.33093 -0.13166
 N349 N 0.10441 0.30443 -0.14480
 C350 C 0.14542 0.26258 -0.14612
 C351 C 0.15719 0.23868 -0.15806
 C352 C 0.09140 0.37342 -0.09115
 C353 C 0.07974 0.39743 -0.07934
 C354 C -0.13130 0.29168 0.13250
 N355 N -0.14431 0.30488 0.10539
 N356 N -0.13135 0.33135 0.09232
 C357 C -0.10499 0.34541 0.10596
 N358 N -0.09198 0.33220 0.13307
 N359 N -0.10494 0.30574 0.14614
 C360 C -0.14531 0.26323 0.14661
 C361 C -0.15713 0.23935 0.15847
 C362 C -0.09107 0.37393 0.09192
 C363 C -0.07937 0.39789 0.08014
 C364 C -0.13095 0.70759 -0.13227
 N365 N -0.15008 0.68541 -0.11748
 N366 N -0.13719 0.65897 -0.10432
 C367 C -0.10478 0.65391 -0.10555
 N368 N -0.08565 0.67609 -0.12034
 N369 N -0.09854 0.70254 -0.13350
 C370 C -0.14484 0.73606 -0.14645
 C371 C -0.15658 0.75995 -0.15834
 C372 C -0.09091 0.62541 -0.09142
 C373 C -0.07925 0.60147 -0.07957
 C374 C 0.13166 0.70843 0.13218
 N375 N 0.10539 0.69433 0.14592
 N376 N 0.09246 0.66779 0.13287
 C377 C 0.10541 0.65455 0.10570
 N378 N 0.13168 0.66865 0.09196
 N379 N 0.14461 0.69519 0.10501
 C380 C 0.14563 0.73695 0.14627
 C381 C 0.15740 0.76090 0.15813
 C382 C 0.09152 0.62596 0.09169
 C383 C 0.07982 0.60193 0.07994
 C384 C 0.29142 1.13150 0.86846
 N385 N 0.30178 1.14109 0.89816
 N386 N 0.32827 1.12809 0.91118
 C387 C 0.34519 1.10512 0.89489
 N388 N 0.33482 1.09554 0.86519
 N389 N 0.30834 1.10853 0.85217
 C390 C 0.26296 1.14556 0.85440
 C391 C 0.23908 1.15740 0.84255
 C392 C 0.37375 1.09118 0.90888
 C393 C 0.39775 1.07948 0.92061
 C394 C 0.29167 0.86822 1.13158
 N395 N 0.30579 0.85458 1.10520
 N396 N 0.33230 0.86765 1.09227
 C397 C 0.34548 0.89475 1.10532
 N398 N 0.33135 0.90840 1.13170
 N399 N 0.30485 0.89532 1.14463
 C400 C 0.26319 0.85410 1.14556
 C401 C 0.23929 0.84223 1.15736
 C402 C 0.37404 0.90879 1.09143
 C403 C 0.39805 0.92055 1.07974
 C404 C 0.70850 1.13215 1.13168
 N405 N 0.69507 1.10529 1.14489
 N406 N 0.66857 1.09222 1.13190
 C407 C 0.65471 1.10562 1.10532
 N408 N 0.66815 1.13248 1.09211
 N409 N 0.69464 1.14555 1.10510
 C410 C 0.73697 1.14627 1.14572
 C411 C 0.76087 1.15813 1.15757
 C412 C 0.62615 1.09158 1.09137
 C413 C 0.60215 1.07981 1.07967
 C414 C 0.70839 0.86859 0.86782
 N415 N 0.69478 0.85532 0.89460
 N416 N 0.66828 0.86833 0.90766
 C417 C 0.65461 0.89499 0.89432
 N418 N 0.66823 0.90827 0.86754
 N419 N 0.69472 0.89526 0.85448
 C420 C 0.73686 0.85454 0.85371
 C421 C 0.76075 0.84270 0.84183
 C422 C 0.62605 0.90896 0.90834
 C423 C 0.60206 0.92067 0.92012
   
