data_POSCAR
  _audit_creation_date              2014-09-24
  _audit_creation_method            'ToBaCCo'
  _symmetry_space_group_name_H-M    'P1'
  _symmetry_Int_Tables_number       1
  _symmetry_cell_setting            triclinic
  loop_
  _symmetry_equiv_pos_as_xyz
 x,y,z
_cell_length_a 36.1263
_cell_length_b 36.0880
_cell_length_c 24.6010
_cell_angle_alpha 90.864400
_cell_angle_beta 89.732100
_cell_angle_gamma 90.069600
loop_
  _atom_site_label
  _atom_site_type_symbol
  _atom_site_fract_x
  _atom_site_fract_y
  _atom_site_fract_z
O1 O -0.04080 0.27964 0.08771
 O2 O 0.03583 0.29228 -0.01393
 O3 O -0.03928 0.29245 -0.01656
 O4 O 0.03224 0.28079 0.09104
 O5 O 0.03154 0.22034 0.07568
 O6 O -0.03717 0.23200 -0.03009
 O7 O 0.03478 0.23180 -0.02685
 O8 O -0.03905 0.21927 0.07172
 Cu9 Cu -0.00301 0.29257 0.03825
 Cu10 Cu -0.00233 0.22012 0.02054
 C11 C -0.05308 0.24706 0.09612
 C12 C 0.04912 0.26316 -0.03656
 C13 C -0.05138 0.26328 -0.04019
 C14 C 0.04412 0.24841 0.10107
 O15 O 0.46271 0.78551 0.54233
 O16 O 0.53836 0.78789 0.43857
 O17 O 0.46499 0.78437 0.43533
 O18 O 0.53707 0.78296 0.54457
 O19 O 0.53460 0.72180 0.54313
 O20 O 0.46725 0.72329 0.43470
 O21 O 0.53829 0.72680 0.43965
 O22 O 0.46353 0.72436 0.53892
 Cu23 Cu 0.50061 0.79149 0.49086
 Cu24 Cu 0.50088 0.71823 0.48877
 C25 C 0.44973 0.75440 0.55702
 C26 C 0.55149 0.75703 0.42214
 C27 C 0.45393 0.75313 0.41671
 C28 C 0.54873 0.75166 0.56091
 O29 O 1.04066 0.70991 0.03216
 O30 O 0.96392 0.71581 -0.06877
 O31 O 1.03763 0.71933 -0.07316
 O32 O 0.96665 0.71280 0.03771
 O33 O 0.96935 0.77374 0.04466
 O34 O 1.03474 0.78034 -0.06622
 O35 O 0.96411 0.77673 -0.05943
 O36 O 1.04054 0.77093 0.03613
 Cu37 Cu 1.00216 0.70818 -0.01884
 Cu38 Cu 1.00209 0.78121 -0.01008
 C39 C 1.05430 0.74014 0.05030
 C40 C 0.95070 0.74737 -0.08045
 C41 C 1.04866 0.75139 -0.08750
 C42 C 0.95567 0.74317 0.05940
 O43 O 0.45685 0.21504 0.47659
 O44 O 0.53650 0.21692 0.57298
 O45 O 0.46269 0.21819 0.58329
 O46 O 0.53061 0.21325 0.46789
 O47 O 0.53046 0.27440 0.46544
 O48 O 0.46457 0.27909 0.57735
 O49 O 0.53575 0.27790 0.56866
 O50 O 0.45932 0.27610 0.47333
 Cu51 Cu 0.49634 0.20955 0.52559
 Cu52 Cu 0.49748 0.28275 0.52103
 C53 C 0.44441 0.24568 0.45924
 C54 C 0.55033 0.24834 0.58563
 C55 C 0.45178 0.25013 0.59918
 C56 C 0.54290 0.24346 0.44857
 O57 O 0.71669 0.03755 -0.06727
 O58 O 0.71536 -0.04436 0.02428
 O59 O 0.71383 0.02928 0.03730
 O60 O 0.71775 -0.03610 -0.08214
 O61 O 0.77863 -0.03403 -0.07657
 O62 O 0.77494 0.02872 0.03981
 O63 O 0.77637 -0.04219 0.02694
 O64 O 0.77762 0.03686 -0.06275
 Cu65 Cu 0.70960 -0.00372 -0.02236
 Cu66 Cu 0.78275 -0.00274 -0.01796
 C67 C 0.74797 0.05175 -0.07899
 C68 C 0.74611 -0.05735 0.04060
 C69 C 0.74421 0.04098 0.05733
 C70 C 0.74954 -0.04641 -0.09903
 O71 O 0.21397 0.53986 0.45557
 O72 O 0.21408 0.46414 0.55774
 O73 O 0.21425 0.53778 0.56261
 O74 O 0.21246 0.46572 0.45085
 O75 O 0.27350 0.46664 0.45106
 O76 O 0.27523 0.53588 0.55886
 O77 O 0.27518 0.46482 0.55506
 O78 O 0.27506 0.53796 0.45482
 Cu79 Cu 0.20737 0.50195 0.50670
 Cu80 Cu 0.28060 0.50128 0.50467
 C81 C 0.24501 0.55212 0.43879
 C82 C 0.24516 0.45147 0.57313
 C83 C 0.24570 0.54911 0.57923
 C84 C 0.24335 0.45359 0.43285
 O85 O 0.28110 1.03797 0.06221
 O86 O 0.28226 0.96875 -0.05246
 O87 O 0.28399 1.04311 -0.04369
 O88 O 0.28548 0.96429 0.05317
 O89 O 0.22447 0.96419 0.05184
 O90 O 0.22305 1.04108 -0.04151
 O91 O 0.22113 0.96968 -0.05157
 O92 O 0.22005 1.03505 0.06178
 Cu93 Cu 0.28948 1.00370 0.00460
 Cu94 Cu 0.21635 1.00238 0.00504
 C95 C 0.24975 1.04876 0.08051
 C96 C 0.25127 0.95669 -0.07001
 C97 C 0.25281 1.05618 -0.05773
 C98 C 0.25473 0.95042 0.06797
 O99 O 0.78641 0.53446 0.52745
 O100 O 0.78012 0.45882 0.42190
 O101 O 0.78685 0.53261 0.42093
 O102 O 0.79235 0.46013 0.52703
 O103 O 0.73141 0.46031 0.53152
 O104 O 0.72616 0.53295 0.43089
 O105 O 0.71921 0.46191 0.42913
 O106 O 0.72552 0.53177 0.53518
 Cu107 Cu 0.79260 0.49644 0.47363
 Cu108 Cu 0.71991 0.49681 0.48249
 C109 C 0.75609 0.54643 0.54809
 C110 C 0.74790 0.44720 0.40875
 C111 C 0.75534 0.54563 0.40885
 C112 C 0.76238 0.44716 0.54618
 C113 C 0.18277 0.17903 0.21253
 C114 C 0.22060 0.17047 0.21441
 C115 C 0.24474 0.19630 0.23886
 C116 C 0.23119 0.23016 0.26122
 C117 C 0.19341 0.23900 0.25340
 C118 C 0.16992 0.21477 0.22485
 C119 C 0.25699 0.25707 0.28906
 C120 C 0.24818 0.29537 0.29387
 C121 C 0.27216 0.32014 0.32040
 C122 C 0.30663 0.30705 0.33730
 C123 C 0.31518 0.26926 0.33744
 C124 C 0.29011 0.24430 0.31326
 H125 H 0.16413 0.15972 0.19235
 H126 H 0.27402 0.19075 0.23870
 H127 H 0.18213 0.26470 0.26848
 H128 H 0.22268 0.30619 0.27829
 H129 H 0.32557 0.32621 0.35707
 H130 H 0.29596 0.21506 0.31426
 C131 C 0.80833 0.80395 0.15120
 C132 C 0.77083 0.81316 0.15440
 C133 C 0.74696 0.78938 0.18273
 C134 C 0.76085 0.75719 0.20847
 C135 C 0.79862 0.74758 0.19996
 C136 C 0.82193 0.77008 0.16918
 C137 C 0.73665 0.73436 0.24518
 C138 C 0.74709 0.69776 0.25956
 C139 C 0.72830 0.67899 0.30084
 C140 C 0.69773 0.69611 0.32520
 C141 C 0.68376 0.72994 0.30773
 C142 C 0.70407 0.74976 0.26914
 H143 H 0.82689 0.82215 0.12942
 H144 H 0.71795 0.79610 0.18467
 H145 H 0.81036 0.72303 0.21709
 H146 H 0.77000 0.68397 0.23988
 H147 H 0.68357 0.68207 0.35800
 H148 H 0.69511 0.77739 0.25992
 C149 C 0.80434 0.17398 0.19466
 C150 C 0.81633 0.20967 0.20875
 C151 C 0.79174 0.23295 0.23704
 C152 C 0.75375 0.22362 0.24240
 C153 C 0.74135 0.18960 0.21927
 C154 C 0.76663 0.16452 0.19525
 C155 C 0.72694 0.25052 0.26838
 C156 C 0.69301 0.23826 0.29136
 C157 C 0.66772 0.26385 0.31430
 C158 C 0.67696 0.30164 0.31399
 C159 C 0.71260 0.31357 0.30031
 C160 C 0.73604 0.28864 0.27310
 H161 H 0.82382 0.15530 0.17478
 H162 H 0.80243 0.25836 0.25403
 H163 H 0.71217 0.18340 0.21826
 H164 H 0.68694 0.20904 0.29282
 H165 H 0.65809 0.32144 0.33274
 H166 H 0.76131 0.29928 0.25619
 C167 C 0.20433 0.79325 0.13596
 C168 C 0.18920 0.76002 0.15421
 C169 C 0.20846 0.74038 0.19399
 C170 C 0.24085 0.75572 0.21848
 C171 C 0.25160 0.79228 0.20421
 C172 C 0.23393 0.81079 0.16199
 C173 C 0.26418 0.73344 0.25682
 C174 C 0.30168 0.74351 0.26688
 C175 C 0.32417 0.72187 0.29990
 C176 C 0.31016 0.68827 0.31851
 C177 C 0.27279 0.67876 0.31390
 C178 C 0.24969 0.70165 0.28312
 H179 H 0.19078 0.80739 0.10290
 H180 H 0.19857 0.71321 0.20431
 H181 H 0.27358 0.80643 0.22534
 H182 H 0.31383 0.76781 0.24937
 H183 H 0.32807 0.67072 0.34220
 H184 H 0.22080 0.69464 0.27995
 C185 C 0.71096 0.29800 0.64285
 C186 C 0.69240 0.27118 0.67291
 C187 C 0.70996 0.25694 0.71860
 C188 C 0.74636 0.26827 0.73300
 C189 C 0.76243 0.29854 0.70487
 C190 C 0.74374 0.31462 0.66110
 C191 C 0.76621 0.24866 0.77794
 C192 C 0.79676 0.26483 0.80588
 C193 C 0.81333 0.24626 0.84932
 C194 C 0.79689 0.21350 0.86757
 C195 C 0.76978 0.19479 0.83756
 C196 C 0.75501 0.21230 0.79220
 H197 H 0.69744 0.30910 0.60733
 H198 H 0.69509 0.23735 0.74304
 H199 H 0.78907 0.30951 0.71623
 H200 H 0.80769 0.29138 0.79447
 H201 H 0.80848 0.20002 0.90274
 H202 H 0.73517 0.19737 0.76777
 C203 C 0.31317 0.69161 0.68267
 C204 C 0.32191 0.72938 0.68313
 C205 C 0.29670 0.75430 0.70729
 C206 C 0.26323 0.74156 0.73100
 C207 C 0.25441 0.70327 0.72591
 C208 C 0.27846 0.67855 0.69921
 C209 C 0.23688 0.76854 0.75785
 C210 C 0.19913 0.75928 0.76579
 C211 C 0.17505 0.78363 0.79310
 C212 C 0.18720 0.81985 0.80377
 C213 C 0.22489 0.82912 0.80154
 C214 C 0.24968 0.80312 0.77872
 H215 H 0.33204 0.67264 0.66220
 H216 H 0.30254 0.78353 0.70610
 H217 H 0.22868 0.69239 0.74094
 H218 H 0.18819 0.73323 0.75160
 H219 H 0.16804 0.83929 0.82271
 H220 H 0.27886 0.80921 0.77895
 C221 C 0.30982 0.31865 0.70021
 C222 C 0.27237 0.32802 0.70430
 C223 C 0.24896 0.30536 0.73537
 C224 C 0.26316 0.27380 0.76221
 C225 C 0.30083 0.26387 0.75281
 C226 C 0.32370 0.28530 0.71959
 C227 C 0.23915 0.25125 0.79970
 C228 C 0.24947 0.21446 0.81295
 C229 C 0.23102 0.19526 0.85403
 C230 C 0.20103 0.21244 0.88001
 C231 C 0.18636 0.24611 0.86266
 C232 C 0.20642 0.26632 0.82396
 H233 H 0.32782 0.33591 0.67589
 H234 H 0.21999 0.31216 0.73806
 H235 H 0.31275 0.23966 0.77071
 H236 H 0.27176 0.20066 0.79182
 H237 H 0.18687 0.19777 0.91220
 H238 H 0.19682 0.29366 0.81411
 C239 C 0.69297 0.68764 0.66499
 C240 C 0.73067 0.67855 0.66677
 C241 C 0.75535 0.70468 0.68915
 C242 C 0.74250 0.73935 0.70968
 C243 C 0.70494 0.74889 0.70048
 C244 C 0.68078 0.72400 0.67436
 C245 C 0.76862 0.76565 0.73844
 C246 C 0.76010 0.80388 0.74510
 C247 C 0.78388 0.82782 0.77367
 C248 C 0.81803 0.81406 0.79091
 C249 C 0.82629 0.77623 0.78927
 C250 C 0.80136 0.75209 0.76301
 H251 H 0.67370 0.66762 0.64783
 H252 H 0.78445 0.69834 0.68960
 H253 H 0.69405 0.77527 0.71343
 H254 H 0.73469 0.81526 0.73011
 H255 H 0.83660 0.83235 0.81306
 H256 H 0.80678 0.72278 0.76344
 C257 C 0.24613 0.07910 0.11798
 C258 C 0.28150 0.09656 0.14239
 C259 C 0.27476 0.12671 0.17573
 C260 C 0.23322 0.13669 0.18109
 C261 C 0.22073 0.14107 0.12191
 C262 C 0.22664 0.11115 0.08978
 C263 C 0.22166 0.07057 0.16748
 C264 C 0.21493 0.10055 0.20028
 H265 H 0.30919 0.08588 0.13518
 H266 H 0.29701 0.14113 0.19650
 H267 H 0.20841 0.16599 0.10610
 H268 H 0.21737 0.11025 0.04790
 H269 H 0.21119 0.04313 0.17667
 H270 H 0.19876 0.09858 0.23743
 C271 C 0.75383 0.58100 0.58293
 C272 C 0.78978 0.60031 0.60147
 C273 C 0.78390 0.63267 0.63042
 C274 C 0.74245 0.64273 0.63759
 C275 C 0.72778 0.64265 0.57903
 C276 C 0.73292 0.61057 0.55140
 C277 C 0.73127 0.57605 0.63535
 C278 C 0.72530 0.60817 0.66374
 H279 H 0.81726 0.58943 0.59322
 H280 H 0.80674 0.64892 0.64628
 H281 H 0.71438 0.66610 0.56044
 H282 H 0.72213 0.60640 0.51070
 H283 H 0.72146 0.54942 0.64951
 H284 H 0.71040 0.60886 0.70217
 C285 C 0.74846 0.90954 0.07164
 C286 C 0.77011 0.91494 0.12470
 C287 C 0.77574 0.88308 0.15222
 C288 C 0.75914 0.84820 0.12486
 C289 C 0.71785 0.85791 0.11722
 C290 C 0.71225 0.89005 0.08910
 C291 C 0.77008 0.87981 0.03970
 C292 C 0.77472 0.84784 0.06647
 H293 H 0.77965 0.94168 0.13992
 H294 H 0.79005 0.88277 0.19093
 H295 H 0.69497 0.84120 0.13155
 H296 H 0.68478 0.90043 0.08027
 H297 H 0.78285 0.88412 0.00036
 H298 H 0.78939 0.82455 0.04802
 C299 C 0.24826 0.41890 0.61045
 C300 C 0.27164 0.42738 0.66097
 C301 C 0.27780 0.39741 0.69249
 C302 C 0.26003 0.36122 0.67114
 C303 C 0.21863 0.37096 0.66497
 C304 C 0.21248 0.40120 0.63290
 C305 C 0.26855 0.38709 0.58126
 C306 C 0.27376 0.35695 0.61199
 H307 H 0.28193 0.45481 0.67161
 H308 H 0.29333 0.39939 0.73011
 H309 H 0.19605 0.35568 0.68323
 H310 H 0.18491 0.41145 0.62449
 H311 H 0.28003 0.38877 0.54062
 H312 H 0.28768 0.33245 0.59587
 C313 C 0.91312 0.24007 0.13045
 C314 C 0.91851 0.21068 0.17428
 C315 C 0.88683 0.20182 0.20156
 C316 C 0.85240 0.22319 0.18294
 C317 C 0.86368 0.26451 0.18845
 C318 C 0.89545 0.27327 0.16080
 C319 C 0.88231 0.22458 0.09424
 C320 C 0.85076 0.21660 0.12102
 H321 H 0.94507 0.19832 0.18361
 H322 H 0.88640 0.18193 0.23421
 H323 H 0.84845 0.28539 0.21134
 H324 H 0.90687 0.30110 0.16078
 H325 H 0.88528 0.21927 0.05094
 H326 H 0.82657 0.20639 0.09961
 C327 C 0.41608 0.75143 0.59301
 C328 C 0.38568 0.72956 0.56343
 C329 C 0.35457 0.72468 0.59300
 C330 C 0.35642 0.74067 0.65129
 C331 C 0.39197 0.72426 0.67558
 C332 C 0.42301 0.72986 0.64521
 C333 C 0.39714 0.78758 0.61237
 C334 C 0.36589 0.78202 0.64309
 H335 H 0.38898 0.71695 0.52345
 H336 H 0.33098 0.70957 0.57670
 H337 H 0.39269 0.71000 0.71410
 H338 H 0.45013 0.72036 0.65771
 H339 H 0.40743 0.81505 0.60317
 H340 H 0.35003 0.80509 0.65948
 C341 C 0.08792 0.74112 0.08117
 C342 C 0.12164 0.73880 0.04323
 C343 C 0.15459 0.74337 0.06846
 C344 C 0.15168 0.74940 0.13024
 C345 C 0.12467 0.78187 0.13876
 C346 C 0.09200 0.77781 0.11326
 C347 C 0.09556 0.71115 0.12396
 C348 C 0.12921 0.71545 0.14984
 H349 H 0.12010 0.72984 0.00103
 H350 H 0.18070 0.73969 0.04701
 H351 H 0.13018 0.80555 0.16533
 H352 H 0.07001 0.79804 0.11882
 H353 H 0.07644 0.68888 0.13324
 H354 H 0.13839 0.69673 0.18107
 C355 C 0.58710 0.25164 0.61428
 C356 C 0.59368 0.22954 0.66643
 C357 C 0.62848 0.23459 0.68801
 C358 C 0.65316 0.26150 0.65510
 C359 C 0.65299 0.24491 0.59723
 C360 C 0.61875 0.23963 0.57627
 C361 C 0.59583 0.29198 0.63095
 C362 C 0.62979 0.29693 0.65239
 H363 H 0.57306 0.21164 0.68464
 H364 H 0.63697 0.22074 0.72465
 H365 H 0.67782 0.23590 0.57580
 H366 H 0.61454 0.22536 0.53765
 H367 H 0.57619 0.31467 0.62928
 H368 H 0.63872 0.32369 0.66838
 C369 C 0.75106 0.08893 0.89377
 C370 C 0.72882 0.09567 0.84160
 C371 C 0.73361 0.13061 0.82095
 C372 C 0.76045 0.15536 0.85467
 C373 C 0.74411 0.15485 0.91241
 C374 C 0.73903 0.12041 0.93248
 C375 C 0.79126 0.09799 0.87771
 C376 C 0.79597 0.13212 0.85715
 H377 H 0.71100 0.07502 0.82268
 H378 H 0.71962 0.13913 0.78436
 H379 H 0.73513 0.17958 0.93441
 H380 H 0.72496 0.11595 0.97090
 H381 H 0.81406 0.07847 0.87921
 H382 H 0.82262 0.14128 0.84170
 C383 C 0.24818 0.58550 0.40295
 C384 C 0.21250 0.60395 0.38215
 C385 C 0.21881 0.63501 0.35171
 C386 C 0.26027 0.64475 0.34543
 C387 C 0.27406 0.64741 0.40452
 C388 C 0.26873 0.61646 0.43352
 C389 C 0.27146 0.57826 0.35164
 C390 C 0.27780 0.60905 0.32178
 H391 H 0.18487 0.59359 0.39045
 H392 H 0.19633 0.65092 0.33480
 H393 H 0.28813 0.67141 0.42184
 H394 H 0.28042 0.61357 0.47368
 H395 H 0.28155 0.55108 0.33928
 H396 H 0.29330 0.60802 0.28387
 C397 C 0.24831 0.92370 0.89210
 C398 C 0.28402 0.90644 0.86840
 C399 C 0.27799 0.87524 0.83698
 C400 C 0.23667 0.86411 0.83270
 C401 C 0.22416 0.86113 0.89227
 C402 C 0.22949 0.89207 0.92250
 C403 C 0.22368 0.93025 0.84252
 C404 C 0.21763 0.89925 0.81157
 H405 H 0.31142 0.91804 0.87471
 H406 H 0.30058 0.86083 0.81678
 H407 H 0.21223 0.83642 0.90967
 H408 H 0.22036 0.89400 0.96451
 H409 H 0.21261 0.95714 0.83199
 H410 H 0.20141 0.89979 0.77456
 C411 C 0.74194 0.41263 0.37514
 C412 C 0.77562 0.39397 0.34779
 C413 C 0.76726 0.36133 0.32128
 C414 C 0.72582 0.35035 0.32496
 C415 C 0.71806 0.35063 0.38652
 C416 C 0.72561 0.38297 0.41201
 C417 C 0.71351 0.41672 0.32932
 C418 C 0.70502 0.38421 0.30328
 H419 H 0.80345 0.40530 0.34901
 H420 H 0.78849 0.34520 0.30067
 H421 H 0.70743 0.32713 0.40867
 H422 H 0.71954 0.38729 0.45486
 H423 H 0.70154 0.44302 0.31780
 H424 H 0.68581 0.38279 0.26952
 C425 C 0.08338 0.26339 0.93326
 C426 C 0.11630 0.26477 0.97232
 C427 C 0.14981 0.26083 0.94802
 C428 C 0.14832 0.25635 0.88592
 C429 C 0.12148 0.22414 0.87469
 C430 C 0.08825 0.22754 0.89917
 C431 C 0.09201 0.29447 0.89247
 C432 C 0.12627 0.29081 0.86749
 H433 H 0.11384 0.27286 1.01481
 H434 H 0.17543 0.26407 0.97052
 H435 H 0.12751 0.20120 0.84693
 H436 H 0.06637 0.20750 0.89134
 H437 H 0.07316 0.31700 0.88388
 H438 H 0.13622 0.31037 0.83775
 C439 C 0.58571 0.75445 0.38692
 C440 C 0.58693 0.71726 0.35581
 C441 C 0.61859 0.71119 0.32800
 C442 C 0.64741 0.74236 0.33367
 C443 C 0.62622 0.77717 0.31467
 C444 C 0.59360 0.78347 0.34283
 C445 C 0.62041 0.75555 0.42235
 C446 C 0.65233 0.74898 0.39498
 H447 H 0.56374 0.69816 0.35279
 H448 H 0.62216 0.68693 0.30181
 H449 H 0.63535 0.79491 0.28206
 H450 H 0.57533 0.80648 0.33429
 H451 H 0.62045 0.76557 0.46408
 H452 H 0.67916 0.75182 0.41436
 C453 C 0.91777 0.75153 0.88269
 C454 C 0.92623 0.77448 0.83216
 C455 C 0.89612 0.78095 0.80065
 C456 C 0.85982 0.76400 0.82219
 C457 C 0.86891 0.72242 0.82844
 C458 C 0.89924 0.71596 0.86029
 C459 C 0.88661 0.77264 0.91205
 C460 C 0.85640 0.77845 0.88122
 H461 H 0.95372 0.78428 0.82153
 H462 H 0.89803 0.79623 0.76306
 H463 H 0.85347 0.69985 0.80991
 H464 H 0.90914 0.68822 0.86836
 H465 H 0.88868 0.78392 0.95300
 H466 H 0.83237 0.79312 0.89720
 C467 C 0.41018 0.24796 0.42473
 C468 C 0.41664 0.26807 0.37104
 C469 C 0.38526 0.27342 0.34184
 C470 C 0.34984 0.25817 0.36857
 C471 C 0.35875 0.21692 0.37858
 C472 C 0.39037 0.21164 0.40822
 C473 C 0.38058 0.27097 0.45450
 C474 C 0.34910 0.27554 0.42612
 H475 H 0.44371 0.27680 0.35674
 H476 H 0.38565 0.28670 0.30253
 H477 H 0.34206 0.19378 0.36451
 H478 H 0.40027 0.18430 0.41869
 H479 H 0.38463 0.28442 0.49370
 H480 H 0.32593 0.29121 0.44282
 C481 C 0.75463 0.92209 0.86065
 C482 C 0.79254 0.92405 0.83197
 C483 C 0.80076 0.89401 0.80072
 C484 C 0.77086 0.86374 0.80093
 C485 C 0.76315 0.85567 0.86104
 C486 C 0.75441 0.88575 0.89156
 C487 C 0.72702 0.91517 0.81390
 C488 C 0.73551 0.88433 0.78231
 H489 H 0.81039 0.94827 0.83303
 H490 H 0.82544 0.89290 0.77538
 H491 H 0.76101 0.82787 0.87712
 H492 H 0.74315 0.88312 0.93217
 H493 H 0.70360 0.93301 0.80577
 H494 H 0.71932 0.87641 0.74701
 C495 C 0.24647 0.41961 0.39663
 C496 C 0.28289 0.41953 0.36385
 C497 C 0.28977 0.38756 0.33629
 C498 C 0.26009 0.35759 0.34388
 C499 C 0.25531 0.35358 0.40558
 C500 C 0.24797 0.38553 0.43254
 C501 C 0.21668 0.40969 0.35408
 C502 C 0.22379 0.37691 0.32617
 H503 H 0.30071 0.44359 0.35973
 H504 H 0.31332 0.38457 0.30900
 H505 H 0.25412 0.32702 0.42576
 H506 H 0.23885 0.38569 0.47451
 H507 H 0.19278 0.42688 0.34601
 H508 H 0.20585 0.36670 0.29407
 C509 C 0.25003 0.09077 0.91466
 C510 C 0.21094 0.09759 0.89203
 C511 C 0.20632 0.13128 0.87003
 C512 C 0.24070 0.15631 0.87259
 C513 C 0.25252 0.15707 0.93247
 C514 C 0.25761 0.12318 0.95406
 C515 C 0.27590 0.09824 0.86595
 C516 C 0.27111 0.13276 0.84377
 H517 H 0.18916 0.07685 0.89009
 H518 H 0.18074 0.13889 0.85005
 H519 H 0.25899 0.18237 0.95493
 H520 H 0.26943 0.11992 0.99417
 H521 H 0.29590 0.07835 0.85018
 H522 H 0.28719 0.14173 0.80909
 C523 C 0.75146 0.57965 0.37445
 C524 C 0.71221 0.58322 0.35126
 C525 C 0.70615 0.61509 0.32467
 C526 C 0.73945 0.64164 0.32378
 C527 C 0.75124 0.64658 0.38338
 C528 C 0.75765 0.61450 0.40939
 C529 C 0.77706 0.58512 0.32481
 C530 C 0.77084 0.61784 0.29806
 H531 H 0.69144 0.56148 0.35263
 H532 H 0.68027 0.62030 0.30385
 H533 H 0.75686 0.67336 0.40235
 H534 H 0.76982 0.61417 0.44959
 H535 H 0.79783 0.56518 0.31171
 H536 H 0.78642 0.62531 0.26210
 C537 C 0.07989 0.75643 0.87778
 C538 C 0.11107 0.77436 0.91093
 C539 C 0.14207 0.78105 0.88231
 C540 C 0.13957 0.77108 0.82142
 C541 C 0.12885 0.72949 0.82122
 C542 C 0.09762 0.72187 0.85090
 C543 C 0.07340 0.78314 0.83062
 C544 C 0.10458 0.79087 0.80138
 H545 H 0.10866 0.78251 0.95343
 H546 H 0.16639 0.79268 0.90173
 H547 H 0.14411 0.70765 0.80045
 H548 H 0.08667 0.69399 0.85454
 H549 H 0.04652 0.79452 0.82052
 H550 H 0.10425 0.80882 0.76638
 C551 C 0.57522 0.24463 0.40970
 C552 C 0.60752 0.26460 0.43760
 C553 C 0.63780 0.26848 0.40602
 C554 C 0.63350 0.25342 0.34758
 C555 C 0.62243 0.21240 0.35543
 C556 C 0.59190 0.20785 0.38824
 C557 C 0.56769 0.26709 0.35848
 C558 C 0.59798 0.27164 0.32613
 H559 H 0.60653 0.27554 0.47888
 H560 H 0.66288 0.28118 0.42163
 H561 H 0.63656 0.18895 0.33684
 H562 H 0.58048 0.18079 0.39724
 H563 H 0.54063 0.27780 0.34793
 H564 H 0.59665 0.28622 0.28790
 C565 C 0.91371 0.26334 0.92590
 C566 C 0.90918 0.22655 0.89433
 C567 C 0.87682 0.22310 0.86782
 C568 C 0.85051 0.25626 0.87495
 C569 C 0.84680 0.26271 0.93657
 C570 C 0.87951 0.26657 0.96279
 C571 C 0.90747 0.29318 0.88258
 C572 C 0.87414 0.28954 0.85567
 H573 H 0.93070 0.20574 0.88978
 H574 H 0.87115 0.19936 0.84146
 H575 H 0.82045 0.26662 0.95727
 H576 H 0.88081 0.27479 1.00533
 H577 H 0.92723 0.31499 0.87387
 H578 H 0.86586 0.30843 0.82415
 C579 C 0.42094 0.74926 0.37963
 C580 C 0.42180 0.71229 0.34756
 C581 C 0.39074 0.70495 0.31897
 C582 C 0.36065 0.73473 0.32479
 C583 C 0.35472 0.74053 0.38623
 C584 C 0.38582 0.74824 0.41431
 C585 C 0.41240 0.77838 0.33615
 C586 C 0.38053 0.77081 0.30716
 H587 H 0.44587 0.69435 0.34475
 H588 H 0.38847 0.68084 0.29223
 H589 H 0.32759 0.74186 0.40540
 H590 H 0.38475 0.75759 0.45631
 H591 H 0.42976 0.80231 0.32847
 H592 H 0.37120 0.78843 0.27468
 C593 C 0.25265 0.91443 0.09837
 C594 C 0.27857 0.90781 0.14692
 C595 C 0.27396 0.87355 0.17016
 C596 C 0.24367 0.84948 0.14238
 C597 C 0.20918 0.87431 0.14468
 C598 C 0.21366 0.90768 0.12160
 C599 C 0.26038 0.88167 0.05973
 C600 C 0.25556 0.84804 0.08234
 H601 H 0.29853 0.92803 0.16167
 H602 H 0.29018 0.86504 0.20473
 H603 H 0.18360 0.86680 0.16517
 H604 H 0.19182 0.92832 0.12306
 H605 H 0.27196 0.88462 0.01926
 H606 H 0.26214 0.82251 0.06044
 C607 C 0.76173 0.41297 0.58104
 C608 C 0.79123 0.40765 0.62548
 C609 C 0.78722 0.37504 0.65360
 C610 C 0.75396 0.35115 0.63432
 C611 C 0.72095 0.37789 0.63944
 C612 C 0.72478 0.40955 0.61165
 C613 C 0.76493 0.37783 0.54557
 C614 C 0.76072 0.34581 0.57302
 H615 H 0.81307 0.42751 0.63410
 H616 H 0.80580 0.36748 0.68606
 H617 H 0.69700 0.37301 0.66524
 H618 H 0.70411 0.43132 0.61438
 H619 H 0.77343 0.37797 0.50324
 H620 H 0.76458 0.31890 0.55350
 C621 C 0.74590 0.07279 0.09744
 C622 C 0.76513 0.10545 0.07014
 C623 C 0.76949 0.13547 0.10261
 C624 C 0.75567 0.13053 0.16126
 C625 C 0.71457 0.11934 0.15420
 C626 C 0.70950 0.08907 0.12045
 C627 C 0.76939 0.06483 0.14770
 C628 C 0.77447 0.09487 0.18095
 H629 H 0.77527 0.10488 0.02858
 H630 H 0.78173 0.16078 0.08752
 H631 H 0.69146 0.13313 0.17403
 H632 H 0.68236 0.07755 0.11187
 H633 H 0.78039 0.03768 0.15699
 H634 H 0.78979 0.09326 0.21870
 C635 C 0.25013 0.58200 0.61725
 C636 C 0.22131 0.59081 0.66206
 C637 C 0.22942 0.62250 0.69189
 C638 C 0.26566 0.64200 0.67365
 C639 C 0.29500 0.61144 0.67746
 C640 C 0.28713 0.58053 0.64799
 C641 C 0.25150 0.61725 0.58380
 C642 C 0.25987 0.64817 0.61264
 H643 H 0.19735 0.57358 0.67026
 H644 H 0.21233 0.63172 0.72579
 H645 H 0.31899 0.61314 0.70381
 H646 H 0.30461 0.55610 0.64950
 H647 H 0.24150 0.61868 0.54250
 H648 H 0.25872 0.67542 0.59453
 C649 C 0.92165 0.74559 0.09490
 C650 C 0.91176 0.71521 0.13597
 C651 C 0.87878 0.72173 0.16316
 C652 C 0.85933 0.75812 0.14625
 C653 C 0.88890 0.78801 0.15585
 C654 C 0.92105 0.78170 0.12907
 C655 C 0.88787 0.74722 0.05799
 C656 C 0.85572 0.75389 0.08428
 H657 H 0.92901 0.69124 0.14339
 H658 H 0.86838 0.70315 0.19389
 H659 H 0.88544 0.81136 0.18376
 H660 H 0.94486 0.79973 0.13464
 H661 H 0.88849 0.73913 0.01542
 H662 H 0.82935 0.75289 0.06322
 C663 C 0.41939 0.25542 0.63750
 C664 C 0.41119 0.22759 0.68307
 C665 C 0.37977 0.23614 0.71292
 C666 C 0.35990 0.27177 0.69399
 C667 C 0.39030 0.30152 0.69675
 C668 C 0.42094 0.29322 0.66722
 C669 C 0.38382 0.25569 0.60427
 C670 C 0.35314 0.26436 0.63317
 H671 H 0.42853 0.20386 0.69153
 H672 H 0.37082 0.21957 0.74694
 H673 H 0.38855 0.32635 0.72210
 H674 H 0.44515 0.31108 0.66774
 H675 H 0.38213 0.24522 0.56289
 H676 H 0.32576 0.26269 0.61521
 C677 C 0.07621 0.24220 0.13847
 C678 C 0.06929 0.21341 0.18276
 C679 C 0.09988 0.20555 0.21281
 C680 C 0.13477 0.22728 0.19617
 C681 C 0.13913 0.21986 0.13470
 C682 C 0.10865 0.22663 0.10531
 C683 C 0.09213 0.27616 0.16908
 C684 C 0.12276 0.26841 0.19949
 H685 H 0.04254 0.20071 0.19033
 H686 H 0.09919 0.18618 0.24612
 H687 H 0.16430 0.20990 0.11548
 H688 H 0.10744 0.21993 0.06226
 H689 H 0.08028 0.30373 0.16745
 H690 H 0.13656 0.28984 0.22310
 C691 C 0.58277 0.74790 0.59552
 C692 C 0.61265 0.72842 0.56141
 C693 C 0.64467 0.72288 0.58770
 C694 C 0.64439 0.73544 0.64776
 C695 C 0.63379 0.77694 0.64503
 C696 C 0.60155 0.78339 0.61748
 C697 C 0.57791 0.72331 0.64551
 C698 C 0.61006 0.71671 0.67263
 H699 H 0.60849 0.71816 0.52023
 H700 H 0.66815 0.71016 0.56723
 H701 H 0.65001 0.79951 0.66207
 H702 H 0.59058 0.81105 0.61195
 H703 H 0.55140 0.71245 0.65884
 H704 H 0.61092 0.70023 0.70915
   
