data_POSCAR
  _audit_creation_date              2014-09-24
  _audit_creation_method            'ToBaCCo'
  _symmetry_space_group_name_H-M    'P1'
  _symmetry_Int_Tables_number       1
  _symmetry_cell_setting            triclinic
  loop_
  _symmetry_equiv_pos_as_xyz
 x,y,z
_cell_length_a 37.1238
_cell_length_b 25.4398
_cell_length_c 25.4375
_cell_angle_alpha 90.004200
_cell_angle_beta 89.987900
_cell_angle_gamma 89.981900
loop_
  _atom_site_label
  _atom_site_type_symbol
  _atom_site_fract_x
  _atom_site_fract_y
  _atom_site_fract_z
Si1 Si 1.24993 0.24993 0.24953
 Si2 Si 0.74998 -0.25004 0.24982
 Si3 Si 0.75008 0.24966 -0.25014
 Si4 Si 1.25014 -0.25026 -0.25051
 Si5 Si 0.24996 0.25001 0.75010
 Si6 Si 0.74991 0.75019 0.74973
 Si7 Si 0.75013 0.24989 0.24979
 Si8 Si 0.25006 0.74991 0.25004
 O9 O 1.05103 0.08831 0.09763
 O10 O 1.09087 0.04190 0.04665
 C11 C 1.08350 0.07524 0.08371
 O12 O 0.94990 -0.09832 0.09031
 O13 O 0.91022 -0.04714 0.04385
 C14 C 0.91747 -0.08428 0.07715
 O15 O 1.05121 -0.09354 0.09571
 O16 O 1.09098 -0.04578 0.04594
 C17 C 1.08372 -0.08010 0.08223
 O18 O 0.94989 0.09379 0.09249
 O19 O 0.91018 0.04393 0.04480
 C20 C 0.91744 0.08030 0.07894
 Zr21 Zr 1.00044 0.06421 0.06778
 O22 O 0.99622 0.06315 0.15078
 O23 O 1.00459 0.14720 0.06905
 Zr24 Zr 1.00055 -0.06845 0.06638
 O25 O 0.99639 -0.06910 0.14939
 O26 O 1.00463 -0.15146 0.06567
 O27 O 1.03266 -0.00222 0.07750
 O28 O 0.96914 -0.00221 0.07670
 O29 O 0.94997 0.09569 -0.08937
 O30 O 0.91019 0.04478 -0.04287
 C31 C 0.91748 0.08181 -0.07634
 O32 O 1.05066 -0.09131 -0.09694
 O33 O 1.09036 -0.04514 -0.04578
 C34 C 1.08307 -0.07826 -0.08303
 O35 O 0.94987 -0.09615 -0.09133
 O36 O 0.91017 -0.04627 -0.04359
 C37 C 0.91742 -0.08256 -0.07782
 O38 O 1.05116 0.09052 -0.09417
 O39 O 1.09094 0.04293 -0.04424
 C40 C 1.08362 0.07708 -0.08061
 Zr41 Zr 1.00054 0.06579 -0.06494
 O42 O 0.99650 0.06674 -0.14796
 O43 O 1.00466 0.14879 -0.06394
 Zr44 Zr 1.00046 -0.06698 -0.06635
 O45 O 0.99630 -0.06655 -0.14935
 O46 O 1.00459 -0.15000 -0.06655
 Zr47 Zr 1.05421 -0.00137 0.00079
 Zr48 Zr 0.94689 -0.00125 0.00062
 O49 O 0.96922 -0.00045 -0.07540
 O50 O 1.03267 -0.00051 -0.07595
 O51 O 0.96836 0.07545 0.00149
 O52 O 1.03187 -0.07737 -0.00011
 O53 O 1.03182 0.07466 0.00157
 O54 O 0.96835 -0.07802 -0.00011
 H55 H 0.95278 -0.00247 0.10748
 H56 H 1.04819 -0.10819 -0.00047
 H57 H 0.95291 -0.00011 -0.10623
 H58 H 1.04811 0.10550 0.00194
 H59 H 0.98474 -0.16503 0.04366
 H60 H 0.98400 -0.16399 -0.04621
 H61 H 1.01573 -0.04374 -0.16299
 H62 H 1.01677 0.04580 -0.16205
 H63 H 0.98443 0.16240 -0.04262
 H64 H 0.98481 0.16134 0.04719
 H65 H 1.01640 0.04172 0.16440
 H66 H 1.01669 -0.04823 0.16343
 O67 O 1.05106 0.59034 0.59590
 O68 O 1.09084 0.54405 0.54472
 C69 C 1.08351 0.57724 0.58193
 O70 O 0.95024 0.40316 0.58910
 O71 O 0.91050 0.45431 0.54296
 C72 C 0.91777 0.41714 0.57626
 O73 O 1.05060 0.40875 0.59451
 O74 O 1.09032 0.45607 0.54447
 C75 C 1.08303 0.42209 0.58098
 O76 O 0.94980 0.59560 0.59111
 O77 O 0.91003 0.54579 0.54341
 C78 C 0.91733 0.58205 0.57766
 Zr79 Zr 1.00041 0.56633 0.56616
 O80 O 0.99630 0.56515 0.64918
 O81 O 1.00449 0.64933 0.56745
 Zr82 Zr 1.00041 0.43351 0.56417
 O83 O 0.99681 0.42964 0.64711
 O84 O 1.00230 0.35077 0.55718
 O85 O 1.03254 0.49981 0.57549
 O86 O 0.96911 0.49979 0.57493
 O87 O 0.94982 0.59806 0.40956
 O88 O 0.91007 0.54694 0.45593
 C89 C 0.91737 0.58410 0.42269
 O90 O 1.05098 0.41114 0.40191
 O91 O 1.09079 0.45773 0.45277
 C92 C 1.08345 0.42434 0.41574
 O93 O 0.94982 0.40557 0.40750
 O94 O 0.91000 0.45600 0.45463
 C95 C 0.91733 0.41937 0.42075
 O96 O 1.05112 0.59321 0.40420
 O97 O 1.09095 0.54541 0.45385
 C98 C 1.08366 0.57980 0.41764
 Zr99 Zr 1.00044 0.56800 0.43345
 O100 O 0.99629 0.56870 0.35044
 O101 O 1.00448 0.65101 0.43400
 Zr102 Zr 1.00041 0.43537 0.43174
 O103 O 0.99626 0.43662 0.34874
 O104 O 1.00390 0.35235 0.43062
 Zr105 Zr 1.05414 0.50095 0.49880
 Zr106 Zr 0.94672 0.50090 0.49900
 O107 O 0.96905 0.50181 0.42295
 O108 O 1.03259 0.50184 0.42212
 O109 O 0.96828 0.57758 0.49997
 O110 O 1.03193 0.42488 0.49786
 O111 O 1.03172 0.57692 0.49991
 O112 O 0.96819 0.42428 0.49791
 H113 H 0.95290 0.49932 0.60588
 H114 H 1.04828 0.39409 0.49750
 H115 H 0.95270 0.50215 0.39217
 H116 H 1.04801 0.60777 0.50026
 H117 H 1.00234 0.33683 0.59356
 H118 H 0.98717 0.33904 0.45782
 H119 H 1.01646 0.45804 0.33519
 H120 H 1.01670 0.54806 0.33635
 H121 H 0.98476 0.66459 0.45635
 H122 H 0.98442 0.66347 0.54614
 H123 H 1.01684 0.54448 0.66281
 H124 H 1.01429 0.45521 0.66144
 O125 O 0.55005 0.08938 0.59573
 O126 O 0.58990 0.04288 0.54487
 C127 C 0.58257 0.07636 0.58188
 O128 O 0.44901 -0.09771 0.58846
 O129 O 0.40924 -0.04667 0.54203
 C130 C 0.41656 -0.08377 0.57535
 O131 O 0.55017 -0.09243 0.59386
 O132 O 0.58992 -0.04471 0.54400
 C133 C 0.58263 -0.07887 0.58036
 O134 O 0.44889 0.09434 0.59059
 O135 O 0.40915 0.04437 0.54302
 C136 C 0.41644 0.08078 0.57715
 Zr137 Zr 0.49944 0.06488 0.56591
 O138 O 0.49527 0.06358 0.64892
 O139 O 0.50346 0.14788 0.56729
 Zr140 Zr 0.49957 -0.06780 0.56438
 O141 O 0.49537 -0.06893 0.64737
 O142 O 0.50381 -0.15079 0.56334
 O143 O 0.53165 -0.00151 0.57559
 O144 O 0.46817 -0.00159 0.57479
 O145 O 0.44897 0.09642 0.40927
 O146 O 0.40920 0.04520 0.45550
 C147 C 0.41652 0.08243 0.42234
 O148 O 0.54977 -0.09065 0.40125
 O149 O 0.58938 -0.04433 0.45243
 C150 C 0.58217 -0.07754 0.41525
 O151 O 0.44886 -0.09563 0.40648
 O152 O 0.40912 -0.04591 0.45433
 C153 C 0.41636 -0.08217 0.41996
 O154 O 0.55018 0.09136 0.40401
 O155 O 0.58992 0.04368 0.45392
 C156 C 0.58264 0.07789 0.41761
 Zr157 Zr 0.49955 0.06641 0.43315
 O158 O 0.49542 0.06697 0.35013
 O159 O 0.50362 0.14941 0.43358
 Zr160 Zr 0.49948 -0.06634 0.43168
 O161 O 0.49538 -0.06575 0.34867
 O162 O 0.50364 -0.14936 0.43149
 Zr163 Zr 0.55320 -0.00055 0.49889
 Zr164 Zr 0.44589 -0.00073 0.49872
 O165 O 0.46820 0.00016 0.42269
 O166 O 0.53169 0.00017 0.42214
 O167 O 0.46737 0.07600 0.49962
 O168 O 0.53091 -0.07662 0.49793
 O169 O 0.53078 0.07542 0.49968
 O170 O 0.46737 -0.07747 0.49791
 H171 H 0.45183 -0.00192 0.60559
 H172 H 0.54726 -0.10741 0.49763
 H173 H 0.45186 0.00051 0.39190
 H174 H 0.54705 0.10629 0.50004
 H175 H 0.48371 -0.16440 0.54177
 H176 H 0.48305 -0.16335 0.45181
 H177 H 0.51490 -0.04305 0.33510
 H178 H 0.51598 0.04663 0.33606
 H179 H 0.48386 0.16305 0.45581
 H180 H 0.48366 0.16199 0.54544
 H181 H 0.51571 0.04268 0.66251
 H182 H 0.51524 -0.04722 0.66149
 O183 O 0.55023 0.59020 0.09790
 O184 O 0.59004 0.54384 0.04675
 C185 C 0.58271 0.57708 0.08392
 O186 O 0.44903 0.40365 0.09018
 O187 O 0.40928 0.45488 0.04396
 C188 C 0.41658 0.41762 0.07709
 O189 O 0.55025 0.40880 0.09551
 O190 O 0.59010 0.45645 0.04571
 C191 C 0.58275 0.42222 0.08198
 O192 O 0.44892 0.59570 0.09319
 O193 O 0.40918 0.54599 0.04536
 C194 C 0.41641 0.58224 0.07974
 Zr195 Zr 0.49954 0.56635 0.06800
 O196 O 0.49547 0.56556 0.15101
 O197 O 0.50369 0.64935 0.06885
 Zr198 Zr 0.49959 0.43372 0.06632
 O199 O 0.49542 0.43291 0.14933
 O200 O 0.50371 0.35072 0.06577
 O201 O 0.53174 0.49987 0.07754
 O202 O 0.46824 0.49991 0.07687
 O203 O 0.44906 0.59792 -0.08879
 O204 O 0.40931 0.54689 -0.04238
 C205 C 0.41661 0.58398 -0.07570
 O206 O 0.54991 0.41040 -0.09660
 O207 O 0.58963 0.45677 -0.04566
 C208 C 0.58237 0.42336 -0.08272
 O209 O 0.44904 0.40600 -0.09116
 O210 O 0.40925 0.45590 -0.04353
 C211 C 0.41657 0.41955 -0.07771
 O212 O 0.54986 0.59320 -0.09453
 O213 O 0.58958 0.54558 -0.04471
 C214 C 0.58230 0.57971 -0.08107
 Zr215 Zr 0.49961 0.56802 -0.06466
 O216 O 0.49541 0.56921 -0.14765
 O217 O 0.50376 0.65102 -0.06319
 Zr218 Zr 0.49961 0.43532 -0.06640
 O219 O 0.49545 0.43680 -0.14941
 O220 O 0.50362 0.35230 -0.06751
 Zr221 Zr 0.55338 0.50074 0.00083
 Zr222 Zr 0.44597 0.50089 0.00084
 O223 O 0.46829 0.50181 -0.07521
 O224 O 0.53183 0.50176 -0.07586
 O225 O 0.46742 0.57761 0.00180
 O226 O 0.53093 0.42479 -0.00014
 O227 O 0.53097 0.57677 0.00181
 O228 O 0.46747 0.42416 -0.00017
 H229 H 0.45190 0.49952 0.10767
 H230 H 0.54717 0.39388 -0.00048
 H231 H 0.45196 0.50220 -0.10601
 H232 H 0.54728 0.60759 0.00217
 H233 H 0.48396 0.33709 0.04355
 H234 H 0.48358 0.33823 -0.04611
 H235 H 0.51586 0.45777 -0.16297
 H236 H 0.51521 0.54739 -0.16182
 H237 H 0.48346 0.66456 -0.04195
 H238 H 0.48340 0.66345 0.04797
 H239 H 0.51537 0.54354 0.16456
 H240 H 0.51576 0.45368 0.16343
 C241 C 1.17062 0.15280 0.16279
 C242 C 1.17799 0.11817 0.12142
 C243 C 1.14972 0.09220 0.09590
 C244 C 1.22080 0.20742 0.21166
 C245 C 1.10687 0.13530 0.15358
 C246 C 1.13508 0.16103 0.17894
 C247 C 1.19892 0.18139 0.18846
 C248 C 1.11379 0.10083 0.11152
 H249 H 1.20547 0.11163 0.10861
 H250 H 1.15597 0.06593 0.06365
 H251 H 1.07961 0.14281 0.16678
 H252 H 1.12912 0.18781 0.21092
 C253 C 1.17078 0.65350 0.66193
 C254 C 1.17812 0.61866 0.62071
 C255 C 1.14979 0.59319 0.59484
 C256 C 1.22106 0.70734 0.71143
 C257 C 1.10695 0.63724 0.65181
 C258 C 1.13521 0.66247 0.67751
 C259 C 1.19916 0.68159 0.68797
 C260 C 1.11384 0.60253 0.60993
 H261 H 1.20562 0.61156 0.60833
 H262 H 1.15602 0.56670 0.56276
 H263 H 1.07967 0.64529 0.66460
 H264 H 1.12927 0.68945 0.70935
 C265 C 0.66999 0.15396 0.66145
 C266 C 0.63432 0.16337 0.67643
 C267 C 0.60605 0.13777 0.65088
 C268 C 0.72060 0.20763 0.71126
 C269 C 0.64898 0.09248 0.59516
 C270 C 0.67732 0.11830 0.62087
 C271 C 0.69851 0.18209 0.68767
 C272 C 0.61295 0.10217 0.60972
 H273 H 0.62830 0.19090 0.70775
 H274 H 0.57875 0.14620 0.66328
 H275 H 0.65528 0.06535 0.56366
 H276 H 0.70484 0.11073 0.60890
 C277 C 0.67023 0.65354 0.16317
 C278 C 0.67743 0.61843 0.12214
 C279 C 0.64901 0.59288 0.09657
 C280 C 0.72079 0.70747 0.21202
 C281 C 0.60634 0.63737 0.15347
 C282 C 0.63470 0.66269 0.17889
 C283 C 0.69875 0.68170 0.18886
 C284 C 0.61309 0.60241 0.11177
 H285 H 0.70489 0.61117 0.10966
 H286 H 0.65515 0.56619 0.06462
 H287 H 0.57910 0.64558 0.16632
 H288 H 0.62888 0.68988 0.21059
 C289 C 0.82982 -0.16336 0.15354
 C290 C 0.86533 -0.17919 0.16266
 C291 C 0.89373 -0.15381 0.13736
 C292 C 0.77922 -0.21221 0.20740
 C293 C 0.85114 -0.09673 0.09297
 C294 C 0.82268 -0.12226 0.11849
 C295 C 0.80128 -0.18904 0.18166
 C296 C 0.88703 -0.11205 0.10246
 H297 H 0.87111 -0.21095 0.18978
 H298 H 0.92095 -0.16676 0.14553
 H299 H 0.84505 -0.06473 0.06634
 H300 H 0.79524 -0.10970 0.11127
 C301 C 0.83030 0.33778 0.65402
 C302 C 0.86595 0.32263 0.66326
 C303 C 0.89424 0.34809 0.63758
 C304 C 0.77965 0.28814 0.70782
 C305 C 0.85135 0.40408 0.59257
 C306 C 0.82300 0.37845 0.61846
 C307 C 0.80176 0.31166 0.68224
 C308 C 0.88737 0.38935 0.60209
 H309 H 0.87195 0.29124 0.69070
 H310 H 0.92153 0.33557 0.64590
 H311 H 0.84507 0.43566 0.56553
 H312 H 0.79549 0.39056 0.61102
 C313 C 0.32941 -0.16309 0.65263
 C314 C 0.36495 -0.17918 0.66090
 C315 C 0.39316 -0.15373 0.63527
 C316 C 0.27924 -0.21222 0.70708
 C317 C 0.35032 -0.09605 0.59218
 C318 C 0.32203 -0.12167 0.61806
 C319 C 0.30110 -0.18890 0.68112
 C320 C 0.38625 -0.11162 0.60086
 H321 H 0.37091 -0.21120 0.68764
 H322 H 0.42042 -0.16689 0.64281
 H323 H 0.34408 -0.06377 0.56596
 H324 H 0.29456 -0.10891 0.61149
 C325 C 0.32934 0.33740 0.15321
 C326 C 0.36489 0.32153 0.16178
 C327 C 0.39314 0.34731 0.13657
 C328 C 0.27907 0.28791 0.20713
 C329 C 0.35031 0.40489 0.09333
 C330 C 0.32199 0.37896 0.11878
 C331 C 0.30098 0.31135 0.18136
 C332 C 0.38626 0.38953 0.10229
 H333 H 0.37083 0.28943 0.18843
 H334 H 0.42041 0.33429 0.14431
 H335 H 0.34409 0.43724 0.06718
 H336 H 0.29451 0.39157 0.11200
 C337 C 0.83004 0.16132 -0.15407
 C338 C 0.86570 0.17653 -0.16316
 C339 C 0.89396 0.15101 -0.13749
 C340 C 0.77950 0.21107 -0.20797
 C341 C 0.85106 0.09486 -0.09274
 C342 C 0.82272 0.12054 -0.11863
 C343 C 0.80155 0.18749 -0.18232
 C344 C 0.88708 0.10964 -0.10214
 H345 H 0.87172 0.20800 -0.19050
 H346 H 0.92125 0.16359 -0.14570
 H347 H 0.84477 0.06319 -0.06582
 H348 H 0.79521 0.10838 -0.11131
 C349 C 0.82981 0.66341 0.34629
 C350 C 0.86532 0.67934 0.33739
 C351 C 0.89370 0.65390 0.36270
 C352 C 0.77924 0.71223 0.29231
 C353 C 0.85107 0.59659 0.40669
 C354 C 0.82264 0.62217 0.38115
 C355 C 0.80130 0.68909 0.31810
 C356 C 0.88697 0.61198 0.39741
 H357 H 0.87113 0.71120 0.31041
 H358 H 0.92092 0.66690 0.35470
 H359 H 0.84495 0.56446 0.43316
 H360 H 0.79520 0.60953 0.38820
 C361 C 0.32930 0.16251 0.34599
 C362 C 0.32195 0.12094 0.38039
 C363 C 0.35026 0.09505 0.40592
 C364 C 0.27906 0.21195 0.29195
 C365 C 0.39309 0.15273 0.36283
 C366 C 0.36484 0.17846 0.33754
 C367 C 0.30096 0.18853 0.31776
 C368 C 0.38620 0.11048 0.39707
 H369 H 0.29447 0.10828 0.38708
 H370 H 0.34403 0.06268 0.43204
 H371 H 0.42035 0.16580 0.35517
 H372 H 0.37078 0.21058 0.31091
 C373 C 0.32945 0.66304 -0.15325
 C374 C 0.36497 0.67933 -0.16130
 C375 C 0.39319 0.65399 -0.13556
 C376 C 0.27927 0.71188 -0.20796
 C377 C 0.35038 0.59603 -0.09278
 C378 C 0.32210 0.62154 -0.11876
 C379 C 0.30114 0.68869 -0.18189
 C380 C 0.38630 0.61179 -0.10125
 H381 H 0.37091 0.71141 -0.18796
 H382 H 0.42043 0.66730 -0.14293
 H383 H 0.34417 0.56367 -0.06664
 H384 H 0.29464 0.60862 -0.11236
 C385 C 1.17043 -0.15432 -0.16312
 C386 C 1.17772 -0.11957 -0.12182
 C387 C 1.14935 -0.09416 -0.09592
 C388 C 1.22086 -0.20802 -0.21255
 C389 C 1.10658 -0.13809 -0.15304
 C390 C 1.13488 -0.16327 -0.17878
 C391 C 1.19887 -0.18236 -0.18915
 C392 C 1.11342 -0.10348 -0.11108
 H393 H 1.20520 -0.11249 -0.10938
 H394 H 1.15554 -0.06775 -0.06378
 H395 H 1.07932 -0.14612 -0.16588
 H396 H 1.12899 -0.19017 -0.21068
 C397 C 1.17060 0.34702 0.33641
 C398 C 1.17796 0.38145 0.37794
 C399 C 1.14968 0.40735 0.40355
 C400 C 1.22080 0.29244 0.28742
 C401 C 1.10686 0.36456 0.34563
 C402 C 1.13508 0.33891 0.32019
 C403 C 1.19892 0.31845 0.31067
 C404 C 1.11375 0.39883 0.38786
 H405 H 1.20542 0.38789 0.39081
 H406 H 1.15590 0.43346 0.43592
 H407 H 1.07961 0.35716 0.33237
 H408 H 1.12913 0.31228 0.28808
 C409 C 0.66991 -0.15385 0.33625
 C410 C 0.63442 -0.16307 0.32042
 C411 C 0.60598 -0.13780 0.34576
 C412 C 0.72064 -0.20766 0.28755
 C413 C 0.64850 -0.09324 0.40279
 C414 C 0.67700 -0.11873 0.37730
 C415 C 0.69851 -0.18195 0.31064
 C416 C 0.61262 -0.10283 0.38748
 H417 H 0.62869 -0.19026 0.28870
 H418 H 0.57877 -0.14605 0.33284
 H419 H 0.65455 -0.06655 0.43475
 H420 H 0.70442 -0.11143 0.38986
 C421 C 0.66989 0.34563 -0.16208
 C422 C 0.67716 0.38110 -0.12132
 C423 C 0.64879 0.40698 -0.09569
 C424 C 0.72055 0.29178 -0.21167
 C425 C 0.60594 0.36214 -0.15186
 C426 C 0.63424 0.33647 -0.17732
 C427 C 0.69843 0.31740 -0.18817
 C428 C 0.61278 0.39754 -0.11051
 H429 H 0.70465 0.38847 -0.10913
 H430 H 0.65504 0.43395 -0.06404
 H431 H 0.57866 0.35389 -0.16445
 H432 H 0.62827 0.30909 -0.20878
 C433 C 1.17069 0.15491 -0.16016
 C434 C 1.17820 0.11900 -0.11990
 C435 C 1.14996 0.09313 -0.09407
 C436 C 1.22086 0.20837 -0.21070
 C437 C 1.10685 0.13902 -0.14904
 C438 C 1.13500 0.16464 -0.17469
 C439 C 1.19901 0.18290 -0.18668
 C440 C 1.11391 0.10310 -0.10824
 H441 H 1.20578 0.11122 -0.10834
 H442 H 1.15634 0.06573 -0.06284
 H443 H 1.07951 0.14764 -0.16113
 H444 H 1.12889 0.19238 -0.20578
 C445 C 1.17132 0.65793 0.33833
 C446 C 1.13556 0.66894 0.32487
 C447 C 1.10724 0.64335 0.35044
 C448 C 1.22207 0.71082 0.28746
 C449 C 1.15021 0.59497 0.40332
 C450 C 1.17861 0.62076 0.37758
 C451 C 1.19996 0.68564 0.31162
 C452 C 1.11411 0.60610 0.39014
 H453 H 1.12952 0.69760 0.29461
 H454 H 1.07991 0.65300 0.33912
 H455 H 1.15653 0.56656 0.43365
 H456 H 1.20616 0.61186 0.38840
 C457 C 0.67016 0.15546 0.33886
 C458 C 0.67744 0.11889 0.37860
 C459 C 0.64903 0.09317 0.40416
 C460 C 0.72079 0.20845 0.28882
 C461 C 0.60619 0.14048 0.34995
 C462 C 0.63452 0.16599 0.32457
 C463 C 0.69871 0.18320 0.31261
 C464 C 0.61304 0.10389 0.39021
 H465 H 0.70496 0.11049 0.38998
 H466 H 0.65526 0.06523 0.43497
 H467 H 0.57890 0.14970 0.33808
 H468 H 0.62860 0.19424 0.29386
 C469 C 0.66981 0.65639 -0.16072
 C470 C 0.67709 0.61993 -0.12090
 C471 C 0.64869 0.59453 -0.09502
 C472 C 0.72048 0.70888 -0.21122
 C473 C 0.60582 0.64201 -0.14904
 C474 C 0.63416 0.66719 -0.17475
 C475 C 0.69837 0.68384 -0.18728
 C476 C 0.61268 0.60549 -0.10870
 H477 H 0.70463 0.61133 -0.10972
 H478 H 0.65492 0.56664 -0.06417
 H479 H 0.57852 0.65140 -0.16072
 H480 H 0.62822 0.69538 -0.20550
 C481 C 0.82988 -0.16108 -0.15553
 C482 C 0.86550 -0.17555 -0.16592
 C483 C 0.89384 -0.15026 -0.14034
 C484 C 0.77925 -0.21090 -0.20872
 C485 C 0.85102 -0.09580 -0.09324
 C486 C 0.82261 -0.12127 -0.11903
 C487 C 0.80132 -0.18721 -0.18339
 C488 C 0.88701 -0.10991 -0.10383
 H489 H 0.87142 -0.20632 -0.19411
 H490 H 0.92113 -0.16226 -0.14946
 H491 H 0.84481 -0.06492 -0.06537
 H492 H 0.79510 -0.10975 -0.11073
 C493 C 0.82996 0.33959 0.34390
 C494 C 0.86563 0.32548 0.33333
 C495 C 0.89391 0.35122 0.35859
 C496 C 0.77944 0.28901 0.29119
 C497 C 0.85095 0.40544 0.40569
 C498 C 0.82260 0.37952 0.38022
 C499 C 0.80146 0.31300 0.31633
 C500 C 0.88698 0.39167 0.39495
 H501 H 0.87162 0.29464 0.30525
 H502 H 0.92122 0.33947 0.34934
 H503 H 0.84466 0.43638 0.43347
 H504 H 0.79505 0.39077 0.38864
 C505 C 0.32869 -0.16167 0.34206
 C506 C 0.36444 -0.17532 0.33127
 C507 C 0.39276 -0.14969 0.35679
 C508 C 0.27800 -0.21263 0.28917
 C509 C 0.34979 -0.09635 0.40471
 C510 C 0.32140 -0.12216 0.37897
 C511 C 0.30007 -0.18842 0.31437
 C512 C 0.38589 -0.10973 0.39377
 H513 H 0.37049 -0.20579 0.30282
 H514 H 0.42008 -0.16118 0.34731
 H515 H 0.34348 -0.06581 0.43290
 H516 H 0.29384 -0.11117 0.38769
 C517 C 0.32947 0.33986 -0.15531
 C518 C 0.36517 0.32564 -0.16544
 C519 C 0.39334 0.35136 -0.13992
 C520 C 0.27921 0.28919 -0.20846
 C521 C 0.35022 0.40579 -0.09337
 C522 C 0.32196 0.37989 -0.11913
 C523 C 0.30111 0.31325 -0.18314
 C524 C 0.38628 0.39190 -0.10370
 H525 H 0.37128 0.29473 -0.19338
 H526 H 0.42068 0.33949 -0.14883
 H527 H 0.34384 0.43681 -0.06574
 H528 H 0.29438 0.39121 -0.11104
 C529 C 1.17141 -0.15805 0.16167
 C530 C 1.17869 -0.12112 0.12220
 C531 C 1.15028 -0.09536 0.09641
 C532 C 1.22212 -0.21096 0.21258
 C533 C 1.10733 -0.14330 0.14972
 C534 C 1.13566 -0.16885 0.17532
 C535 C 1.20004 -0.18576 0.18839
 C536 C 1.11419 -0.10630 0.10978
 H537 H 1.20624 -0.11239 0.11121
 H538 H 1.15659 -0.06714 0.06590
 H539 H 1.08001 -0.15279 0.16120
 H540 H 1.12962 -0.19733 0.20577
 C541 C 1.17021 0.34466 0.66070
 C542 C 1.17767 0.38082 0.62064
 C543 C 1.14938 0.40654 0.59477
 C544 C 1.22058 0.29148 0.71112
 C545 C 1.10632 0.36005 0.64931
 C546 C 1.13452 0.33456 0.67500
 C547 C 1.19861 0.31681 0.68720
 C548 C 1.11333 0.39621 0.60871
 H549 H 1.20523 0.38888 0.60925
 H550 H 1.15573 0.43413 0.56370
 H551 H 1.07898 0.35114 0.66119
 H552 H 1.12845 0.30663 0.70593
 C553 C 0.67010 -0.15562 0.66007
 C554 C 0.63444 -0.16631 0.67412
 C555 C 0.60613 -0.14109 0.64841
 C556 C 0.72066 -0.20832 0.71059
 C557 C 0.64903 -0.09375 0.59432
 C558 C 0.67741 -0.11919 0.62022
 C559 C 0.69862 -0.18316 0.68661
 C560 C 0.61301 -0.10463 0.60803
 H561 H 0.62848 -0.19446 0.70490
 H562 H 0.57882 -0.15042 0.66011
 H563 H 0.65528 -0.06590 0.56344
 H564 H 0.70496 -0.11068 0.60901
 C565 C 0.67017 0.34443 0.16076
 C566 C 0.63451 0.33386 0.17493
 C567 C 0.60621 0.35944 0.14955
 C568 C 0.72077 0.29134 0.21079
 C569 C 0.64912 0.40689 0.09558
 C570 C 0.67749 0.38110 0.12114
 C571 C 0.69870 0.31662 0.18702
 C572 C 0.61310 0.39614 0.10940
 H573 H 0.62855 0.30553 0.20555
 H574 H 0.57890 0.35019 0.16132
 H575 H 0.65538 0.43492 0.06487
 H576 H 0.70503 0.38954 0.10987
 C577 C 0.82999 0.16012 0.15568
 C578 C 0.86565 0.17420 0.16630
 C579 C 0.89395 0.14844 0.14108
 C580 C 0.77944 0.21073 0.20836
 C581 C 0.85104 0.09427 0.09389
 C582 C 0.82266 0.12020 0.11933
 C583 C 0.80147 0.18672 0.18322
 C584 C 0.88706 0.10800 0.10470
 H585 H 0.87161 0.20503 0.19439
 H586 H 0.92126 0.16017 0.15036
 H587 H 0.84479 0.06333 0.06611
 H588 H 0.79512 0.10898 0.11088
 C589 C 0.82986 0.66094 0.65530
 C590 C 0.82255 0.62131 0.61864
 C591 C 0.85094 0.59569 0.59291
 C592 C 0.77924 0.71110 0.70830
 C593 C 0.89383 0.64964 0.64041
 C594 C 0.86551 0.67508 0.66593
 C595 C 0.80131 0.68726 0.68305
 C596 C 0.88695 0.60948 0.60371
 H597 H 0.79502 0.61006 0.61016
 H598 H 0.84470 0.56497 0.56488
 H599 H 0.92113 0.66139 0.64970
 H600 H 0.87145 0.70570 0.69425
 C601 C 0.32934 0.16045 0.65488
 C602 C 0.36502 0.17503 0.66454
 C603 C 0.39319 0.14934 0.63894
 C604 C 0.27914 0.21094 0.70839
 C605 C 0.35009 0.09425 0.59321
 C606 C 0.32184 0.12012 0.61905
 C607 C 0.30101 0.18697 0.68290
 C608 C 0.38614 0.10846 0.60311
 H609 H 0.37112 0.20618 0.69221
 H610 H 0.42052 0.16148 0.64752
 H611 H 0.34373 0.06296 0.56588
 H612 H 0.29427 0.10851 0.61133
 C613 C 0.32872 0.66157 0.15789
 C614 C 0.32144 0.62203 0.12102
 C615 C 0.34984 0.59628 0.09519
 C616 C 0.27802 0.71245 0.21090
 C617 C 0.39279 0.64974 0.14294
 C618 C 0.36447 0.67531 0.16856
 C619 C 0.30010 0.68827 0.18567
 C620 C 0.38593 0.60975 0.10600
 H621 H 0.29390 0.61098 0.11238
 H622 H 0.34354 0.56572 0.06702
 H623 H 0.42011 0.66130 0.15234
 H624 H 0.37051 0.70580 0.19698
   
