data_POSCAR
  _audit_creation_date              2014-09-24
  _audit_creation_method            'ToBaCCo'
  _symmetry_space_group_name_H-M    'P1'
  _symmetry_Int_Tables_number       1
  _symmetry_cell_setting            triclinic
  loop_
  _symmetry_equiv_pos_as_xyz
 x,y,z
_cell_length_a 46.9866
_cell_length_b 50.3827
_cell_length_c 43.7254
_cell_angle_alpha 92.342500
_cell_angle_beta 88.166600
_cell_angle_gamma 92.560900
loop_
  _atom_site_label
  _atom_site_type_symbol
  _atom_site_fract_x
  _atom_site_fract_y
  _atom_site_fract_z
C1 C 0.17334 0.20277 0.19483
 N2 N 0.19653 0.19080 0.18252
 C3 C 0.21211 0.20216 0.15953
 N4 N 0.20443 0.22556 0.14867
 C5 C 0.18121 0.23763 0.16099
 N6 N 0.16558 0.22619 0.18402
 C7 C -0.20167 0.79675 0.22134
 N8 N -0.22193 0.80954 0.20707
 C9 C -0.23355 0.79868 0.18124
 N10 N -0.22475 0.77499 0.16945
 C11 C -0.20447 0.76211 0.18372
 N12 N -0.19280 0.77305 0.20960
 C13 C -0.22298 0.22018 -0.25526
 N14 N -0.24722 0.20826 -0.24379
 C15 C -0.26231 0.22031 -0.22067
 N16 N -0.25291 0.24424 -0.20861
 C17 C -0.22865 0.25627 -0.22008
 N18 N -0.21353 0.24413 -0.24325
 C19 C 0.19786 0.79234 -0.24351
 N20 N 0.18888 0.76799 -0.23394
 C21 C 0.20457 0.75534 -0.21390
 N22 N 0.22903 0.76717 -0.20321
 C23 C 0.23796 0.79150 -0.21286
 N24 N 0.22230 0.80407 -0.23286
 C25 C 0.21473 1.20130 0.78620
 N26 N 0.23713 1.19108 0.79987
 C27 C 0.24598 1.20169 0.82721
 N28 N 0.23223 1.22234 0.84100
 C29 C 0.20983 1.23250 0.82728
 N30 N 0.20108 1.22189 0.80000
 C31 C 0.81286 0.80382 0.78178
 N32 N 0.82414 0.78247 0.79399
 C33 C 0.81115 0.77099 0.81857
 N34 N 0.78689 0.78098 0.83113
 C35 C 0.77555 0.80235 0.81893
 N36 N 0.78860 0.81384 0.79431
 C37 C 0.21944 0.77538 1.25776
 N38 N 0.20743 0.75220 1.24646
 C39 C 0.21953 0.73941 1.22180
 N40 N 0.24349 0.75001 1.20809
 C41 C 0.25558 0.77321 1.21938
 N42 N 0.24341 0.78601 1.24407
 C43 C 0.80597 1.20468 1.25510
 N44 N 0.78079 1.19421 1.24468
 C45 C 0.76698 1.20677 1.22299
 N46 N 0.77854 1.22958 1.21147
 C47 C 0.80369 1.24001 1.22190
 N48 N 0.81745 1.22747 1.24356
 O49 O 0.51577 0.96514 0.96235
 O50 O 0.47267 0.97341 1.06646
 O51 O 0.55949 0.99406 1.03447
 O52 O 0.46450 0.96412 0.96988
 O53 O 0.52647 0.97592 1.06522
 O54 O 0.47933 0.98647 0.93092
 O55 O 0.46482 0.95434 1.02257
 O56 O 0.55481 0.98507 0.97878
 C57 C 0.54206 0.96502 0.96624
 C58 C 0.46511 0.95321 1.05077
 C59 C 0.55179 0.97802 1.05509
 C60 C 0.46123 0.96914 0.94213
 O61 O 0.48389 1.02961 0.96305
 O62 O 0.52610 1.02688 1.06953
 O63 O 0.53673 1.03692 0.97559
 O64 O 0.44209 1.00168 1.03858
 O65 O 0.47311 1.02581 1.06442
 O66 O 0.52841 1.00964 0.93965
 O67 O 0.44578 1.01373 0.98511
 O68 O 0.54163 1.04385 1.02766
 Co69 Co 0.49898 0.99723 0.96444
 Co70 Co 0.49952 1.00046 1.06113
 Co71 Co 0.54447 1.01363 1.00432
 Co72 Co 0.45831 0.98503 1.00450
 O73 O 0.50163 1.00013 1.01072
 C74 C 0.45840 1.03183 0.97052
 C75 C 0.53916 1.04504 1.05584
 C76 C 0.54010 1.03095 0.94811
 C77 C 0.44848 1.02202 1.05497
 O78 O 0.02770 0.48437 0.03795
 O79 O 0.02411 0.52341 -0.06805
 O80 O -0.00314 0.44513 -0.03802
 O81 O 0.03533 0.53342 0.02610
 O82 O 0.02250 0.47397 -0.06371
 O83 O 0.00625 0.52594 0.06184
 O84 O 0.04265 0.53776 -0.02594
 O85 O 0.01050 0.44882 0.01538
 C86 C 0.02997 0.46056 0.03021
 C87 C 0.04376 0.53543 -0.05415
 C88 C 0.01833 0.45096 -0.05469
 C89 C 0.02892 0.53702 0.05350
 O90 O -0.04146 0.51405 0.03879
 O91 O -0.03372 0.47399 -0.06551
 O92 O -0.04235 0.46622 0.03111
 O93 O -0.01049 0.55479 -0.03295
 O94 O -0.03058 0.52420 -0.06388
 O95 O -0.01808 0.48019 0.07006
 O96 O -0.02020 0.55042 0.02258
 O97 O -0.05362 0.46640 -0.02162
 Co98 Co -0.00705 0.49847 0.03666
 Co99 Co -0.00444 0.49883 -0.06001
 Co100 Co -0.02051 0.46038 -0.00373
 Co101 Co 0.01036 0.54066 -0.00277
 O102 O -0.00434 0.50077 -0.00962
 C103 C -0.04162 0.53855 0.03501
 C104 C -0.05506 0.46652 -0.04983
 C105 C -0.03622 0.46287 0.05860
 C106 C -0.02777 0.54786 -0.05377
 O107 O 1.05887 0.03200 0.47011
 O108 O 0.94542 0.01181 0.53352
 O109 O 0.98415 0.01889 0.44350
 O110 O 1.02745 0.04672 0.54620
 O111 O 0.96511 0.03337 0.48580
 O112 O 1.06599 0.03126 0.52656
 O113 O 0.97885 0.03925 0.54254
 O114 O 1.03413 0.00833 0.43695
 C115 C 1.04969 0.02853 0.44379
 C116 C 0.95338 0.03287 0.54659
 C117 C 0.97062 0.03631 0.45822
 C118 C 1.05355 0.04852 0.54224
 O119 O 1.06307 -0.01967 0.52500
 O120 O 0.93585 -0.01029 0.48035
 O121 O 1.02137 -0.04019 0.46039
 O122 O 0.98313 -0.01319 0.55948
 O123 O 0.96680 -0.03202 0.51749
 O124 O 1.06198 -0.02020 0.46736
 O125 O 1.03528 -0.00374 0.56260
 O126 O 0.97209 -0.03154 0.46242
 Co127 Co 1.05753 0.00570 0.49742
 Co128 Co 0.96758 0.00060 0.50062
 Co129 Co 1.00355 -0.00967 0.45515
 Co130 Co 1.00624 0.01603 0.54864
 O131 O 1.01072 0.00425 0.50185
 C132 C 1.05469 -0.01888 0.55263
 C133 C 0.94600 -0.02703 0.46011
 C134 C 1.04767 -0.04080 0.46016
 C135 C 0.97104 -0.03288 0.54553
 C136 C 1.15772 0.19074 0.21741
 C137 C 1.14466 0.17894 0.23718
 C138 C 1.13012 0.16354 0.26039
 C139 C 1.13006 0.17254 0.29111
 C140 C 1.11816 0.15637 0.31388
 C141 C 1.10632 0.13091 0.30618
 C142 C 1.10587 0.12234 0.27516
 C143 C 1.11772 0.13854 0.25246
 C144 C 1.09553 0.11292 0.33043
 C145 C 1.10150 0.08577 0.32843
 C146 C 1.09197 0.06886 0.35150
 C147 C 1.07633 0.07879 0.37686
 C148 C 1.07015 0.10575 0.37904
 C149 C 1.07972 0.12274 0.35599
 C150 C 1.06683 0.06128 0.40067
 C151 C 1.05901 0.04640 0.42044
 H152 H 1.13981 0.19177 0.29752
 H153 H 1.11910 0.16340 0.33757
 H154 H 1.09655 0.10301 0.26848
 H155 H 1.11772 0.13134 0.22877
 H156 H 1.11400 0.07770 0.30930
 H157 H 1.09695 0.04805 0.34964
 H158 H 1.05798 0.11363 0.39856
 H159 H 1.07456 0.14348 0.35802
 C160 C 0.81047 -0.19150 0.24650
 C161 C 0.82087 -0.17991 0.26837
 C162 C 0.83293 -0.16480 0.29380
 C163 C 0.86174 -0.16661 0.30025
 C164 C 0.87391 -0.15031 0.32343
 C165 C 0.85741 -0.13190 0.34039
 C166 C 0.82834 -0.13061 0.33412
 C167 C 0.81622 -0.14695 0.31097
 C168 C 0.87076 -0.11344 0.36366
 C169 C 0.86387 -0.08650 0.36576
 C170 C 0.87757 -0.06877 0.38651
 C171 C 0.89824 -0.07773 0.40548
 C172 C 0.90487 -0.10458 0.40396
 C173 C 0.89123 -0.12233 0.38321
 C174 C 0.91383 -0.05926 0.42534
 C175 C 0.92789 -0.04420 0.44149
 H176 H 0.87493 -0.18019 0.28693
 H177 H 0.89643 -0.15153 0.32743
 H178 H 0.81502 -0.11688 0.34701
 H179 H 0.79391 -0.14533 0.30610
 H180 H 0.84850 -0.07897 0.35074
 H181 H 0.87244 -0.04799 0.38734
 H182 H 0.92088 -0.11172 0.41851
 H183 H 0.89674 -0.14299 0.38238
 C184 C 0.79276 0.20698 0.72297
 C185 C 0.80632 0.19410 0.70431
 C186 C 0.82207 0.17748 0.68293
 C187 C 0.80767 0.15756 0.66543
 C188 C 0.82298 0.13990 0.64650
 C189 C 0.85294 0.14190 0.64485
 C190 C 0.86720 0.16232 0.66208
 C191 C 0.85184 0.17995 0.68103
 C192 C 0.86931 0.12229 0.62602
 C193 C 0.89379 0.13050 0.60896
 C194 C 0.90977 0.11188 0.59218
 C195 C 0.90153 0.08484 0.59221
 C196 C 0.87703 0.07649 0.60882
 C197 C 0.86099 0.09509 0.62560
 C198 C 0.91882 0.06572 0.57594
 C199 C 0.93410 0.05029 0.56248
 H200 H 0.78462 0.15541 0.66682
 H201 H 0.81139 0.12461 0.63323
 H202 H 0.89026 0.16417 0.66161
 H203 H 0.86321 0.19514 0.69469
 H204 H 0.90054 0.15131 0.60854
 H205 H 0.92870 0.11856 0.57939
 H206 H 0.87054 0.05559 0.60912
 H207 H 0.84247 0.08811 0.63883
 C208 C 1.18107 -0.19356 0.73623
 C209 C 1.16766 -0.18064 0.71962
 C210 C 1.15248 -0.16414 0.70021
 C211 C 1.13086 -0.14841 0.71269
 C212 C 1.11768 -0.13072 0.69442
 C213 C 1.12606 -0.12847 0.66342
 C214 C 1.14742 -0.14477 0.65094
 C215 C 1.16055 -0.16245 0.66925
 C216 C 1.11320 -0.10866 0.64441
 C217 C 1.13036 -0.09367 0.62389
 C218 C 1.11839 -0.07488 0.60613
 C219 C 1.08914 -0.07077 0.60862
 C220 C 1.07187 -0.08552 0.62901
 C221 C 1.08381 -0.10433 0.64684
 C222 C 1.07684 -0.05194 0.58962
 C223 C 1.06670 -0.03654 0.57311
 H224 H 1.12461 -0.14939 0.73670
 H225 H 1.10155 -0.11823 0.70477
 H226 H 1.15404 -0.14377 0.62706
 H227 H 1.17732 -0.17448 0.65937
 H228 H 1.15311 -0.09623 0.62185
 H229 H 1.13194 -0.06357 0.59041
 H230 H 1.04917 -0.08261 0.63098
 H231 H 1.07001 -0.11574 0.66221
 C232 C 0.23489 1.18957 1.14707
 C233 C 0.25474 1.17747 1.13661
 C234 C 0.27793 1.16196 1.12490
 C235 C 0.30431 1.16417 1.13898
 C236 C 0.32610 1.14751 1.12925
 C237 C 0.32172 1.12834 1.10535
 C238 C 0.29532 1.12665 1.09094
 C239 C 0.27357 1.14335 1.10069
 C240 C 0.34424 1.10960 1.09620
 C241 C 0.33710 1.08256 1.08983
 C242 C 0.35831 1.06475 1.08184
 C243 C 0.38691 1.07371 1.08012
 C244 C 0.39424 1.10058 1.08628
 C245 C 0.37305 1.11843 1.09431
 C246 C 0.40867 1.05536 1.07176
 C247 C 0.42686 1.04003 1.06442
 H248 H 0.30781 1.17836 1.15792
 H249 H 0.34606 1.14907 1.14103
 H250 H 0.29144 1.11234 1.07222
 H251 H 0.25320 1.14142 1.08970
 H252 H 0.31517 1.07508 1.09153
 H253 H 0.35242 1.04399 1.07712
 H254 H 0.41631 1.10774 1.08486
 H255 H 0.37917 1.13917 1.09877
 C256 C 0.26166 0.80406 0.79867
 C257 C 0.28218 0.81613 0.80887
 C258 C 0.30597 0.83158 0.82112
 C259 C 0.31454 0.82778 0.85091
 C260 C 0.33619 0.84421 0.86364
 C261 C 0.34947 0.86475 0.84674
 C262 C 0.34109 0.86805 0.81658
 C263 C 0.31946 0.85157 0.80389
 C264 C 0.37110 0.88329 0.86101
 C265 C 0.37075 0.91078 0.85650
 C266 C 0.39003 0.92845 0.87137
 C267 C 0.40993 0.91888 0.89084
 C268 C 0.41081 0.89154 0.89502
 C269 C 0.39154 0.87384 0.88020
 C270 C 0.42847 0.93711 0.90781
 C271 C 0.44363 0.95203 0.92294
 H272 H 0.30407 0.81250 0.86453
 H273 H 0.34190 0.84140 0.88705
 H274 H 0.35115 0.88347 0.80289
 H275 H 0.31292 0.85473 0.78082
 H276 H 0.35502 0.91870 0.84221
 H277 H 0.38904 0.94959 0.86816
 H278 H 0.42612 0.88393 0.91009
 H279 H 0.39255 0.85277 0.88383
 C280 C 0.74692 0.81223 1.16672
 C281 C 0.72998 0.82524 1.15451
 C282 C 0.71024 0.84188 1.14084
 C283 C 0.68240 0.83240 1.13508
 C284 C 0.66289 0.84925 1.12340
 C285 C 0.67101 0.87582 1.11747
 C286 C 0.69917 0.88501 1.12292
 C287 C 0.71862 0.86814 1.13453
 C288 C 0.65008 0.89408 1.10632
 C289 C 0.64924 0.92041 1.11828
 C290 C 0.62938 0.93759 1.10804
 C291 C 0.61012 0.92871 1.08573
 C292 C 0.61081 0.90259 1.07361
 C293 C 0.63063 0.88535 1.08386
 C294 C 0.58963 0.94638 1.07527
 C295 C 0.57240 0.96101 1.06629
 H296 H 0.67565 0.81215 1.14007
 H297 H 0.64127 0.84171 1.11974
 H298 H 0.70615 0.90524 1.11818
 H299 H 0.74012 0.87567 1.13894
 H300 H 0.66367 0.92759 1.13590
 H301 H 0.62897 0.95775 1.11762
 H302 H 0.59604 0.89556 1.05623
 H303 H 0.63098 0.86530 1.07399
 C304 C 0.71466 1.20720 0.79196
 C305 C 0.69497 1.19444 0.80314
 C306 C 0.67255 1.17794 0.81656
 C307 C 0.66429 1.18209 0.84733
 C308 C 0.64468 1.16434 0.86125
 C309 C 0.63320 1.14213 0.84455
 C310 C 0.64105 1.13856 0.81339
 C311 C 0.66063 1.15635 0.79951
 C312 C 0.61438 1.12206 0.86005
 C313 C 0.61804 1.09473 0.85407
 C314 C 0.60179 1.07578 0.87028
 C315 C 0.58161 1.08387 0.89255
 C316 C 0.57735 1.11097 0.89817
 C317 C 0.59361 1.12996 0.88202
 C318 C 0.56649 1.06454 0.91096
 C319 C 0.55425 1.04882 0.92735
 H320 H 0.67360 1.19860 0.86081
 H321 H 0.63935 1.16744 0.88537
 H322 H 0.63230 1.12183 0.79987
 H323 H 0.66698 1.15290 0.77569
 H324 H 0.63415 1.08803 0.83762
 H325 H 0.60540 1.05485 0.86593
 H326 H 0.56182 1.11744 0.91543
 H327 H 0.59010 1.15083 0.88688
 C328 C 0.17267 0.26203 0.14896
 C329 C 0.16521 0.28231 0.13855
 C330 C 0.15574 0.30621 0.12591
 C331 C 0.13620 0.32176 0.14248
 C332 C 0.12565 0.34412 0.12957
 C333 C 0.13448 0.35123 0.09983
 C334 C 0.15456 0.33576 0.08357
 C335 C 0.16510 0.31340 0.09655
 C336 C 0.12146 0.37375 0.08534
 C337 C 0.11329 0.37134 0.05462
 C338 C 0.09810 0.39123 0.04196
 C339 C 0.09099 0.41383 0.05976
 C340 C 0.10003 0.41693 0.08993
 C341 C 0.11524 0.39706 0.10263
 C342 C 0.07144 0.43200 0.04842
 C343 C 0.05339 0.44591 0.03966
 H344 H 0.12869 0.31630 0.16515
 H345 H 0.10986 0.35531 0.14249
 H346 H 0.16197 0.34087 0.06077
 H347 H 0.18023 0.30149 0.08351
 H348 H 0.11741 0.35351 0.04081
 H349 H 0.09087 0.38845 0.01871
 H350 H 0.09445 0.43424 0.10399
 H351 H 0.12156 0.39966 0.12620
 C352 C -0.21781 0.28079 -0.20611
 C353 C -0.20821 0.30094 -0.19379
 C354 C -0.19603 0.32442 -0.17849
 C355 C -0.17113 0.33684 -0.19048
 C356 C -0.15791 0.35831 -0.17443
 C357 C -0.16939 0.36763 -0.14606
 C358 C -0.19483 0.35542 -0.13456
 C359 C -0.20803 0.33395 -0.15068
 C360 C -0.15383 0.38880 -0.12778
 C361 C -0.15125 0.38657 -0.09601
 C362 C -0.13400 0.40484 -0.07930
 C363 C -0.11920 0.42564 -0.09403
 C364 C -0.12249 0.42863 -0.12538
 C365 C -0.13973 0.41038 -0.14216
 C366 C -0.09816 0.44184 -0.07781
 C367 C -0.07920 0.45399 -0.06469
 H368 H -0.16154 0.32952 -0.21187
 H369 H -0.13812 0.36695 -0.18368
 H370 H -0.20435 0.36230 -0.11296
 H371 H -0.22728 0.32445 -0.14116
 H372 H -0.16147 0.37000 -0.08432
 H373 H -0.13133 0.40212 -0.05512
 H374 H -0.11097 0.44455 -0.13708
 H375 H -0.14156 0.41282 -0.16649
 C376 C 0.19444 0.73017 -0.20262
 C377 C 0.18552 0.70939 -0.19253
 C378 C 0.17424 0.68507 -0.17976
 C379 C 0.14797 0.67401 -0.18917
 C380 C 0.13583 0.65161 -0.17511
 C381 C 0.14981 0.63999 -0.15134
 C382 C 0.17657 0.65087 -0.14257
 C383 C 0.18868 0.67328 -0.15668
 C384 C 0.13559 0.61775 -0.13457
 C385 C 0.13643 0.61751 -0.10244
 C386 C 0.12048 0.59829 -0.08629
 C387 C 0.10360 0.57900 -0.10201
 C388 C 0.10346 0.57844 -0.13403
 C389 C 0.11940 0.59764 -0.15023
 C390 C 0.08400 0.56188 -0.08519
 C391 C 0.06631 0.54893 -0.07100
 H392 H 0.13652 0.68307 -0.20687
 H393 H 0.11501 0.64401 -0.18207
 H394 H 0.18798 0.64222 -0.12458
 H395 H 0.20902 0.68171 -0.14919
 H396 H 0.14833 0.63290 -0.08966
 H397 H 0.12047 0.59912 -0.06149
 H398 H 0.09031 0.56371 -0.14642
 H399 H 0.11860 0.59710 -0.17497
 C400 C -0.19443 0.73755 0.17059
 C401 C -0.18562 0.71721 0.15915
 C402 C -0.17451 0.69333 0.14511
 C403 C -0.15441 0.67941 0.16021
 C404 C -0.14224 0.65717 0.14585
 C405 C -0.14999 0.64855 0.11611
 C406 C -0.17065 0.66238 0.10136
 C407 C -0.18280 0.68463 0.11578
 C408 C -0.13539 0.62617 0.10006
 C409 C -0.12677 0.62778 0.06903
 C410 C -0.11054 0.60800 0.05470
 C411 C -0.10281 0.58629 0.07110
 C412 C -0.11211 0.58403 0.10165
 C413 C -0.12835 0.60379 0.11603
 C414 C -0.08286 0.56800 0.05765
 C415 C -0.06478 0.55383 0.04695
 H416 H -0.14770 0.68607 0.18284
 H417 H -0.12608 0.64725 0.15764
 H418 H -0.17727 0.65609 0.07860
 H419 H -0.19834 0.69527 0.10388
 H420 H -0.13149 0.64490 0.05621
 H421 H -0.10317 0.61012 0.03115
 H422 H -0.10610 0.56739 0.11462
 H423 H -0.13498 0.60181 0.13980
 C424 C 1.20483 0.19019 0.75956
 C425 C 1.19488 0.18057 0.73633
 C426 C 1.18170 0.16920 0.70926
 C427 C 1.16148 0.18335 0.69457
 C428 C 1.14683 0.17157 0.66984
 C429 C 1.15220 0.14541 0.65947
 C430 C 1.17308 0.13159 0.67392
 C431 C 1.18768 0.14341 0.69868
 C432 C 1.13505 0.13200 0.63490
 C433 C 1.14781 0.11491 0.61274
 C434 C 1.13116 0.10040 0.59143
 C435 C 1.10158 0.10280 0.59189
 C436 C 1.08880 0.12039 0.61319
 C437 C 1.10540 0.13495 0.63451
 C438 C 1.08419 0.08521 0.57276
 C439 C 1.06991 0.06919 0.55802
 H440 H 1.15664 0.20332 0.70262
 H441 H 1.13112 0.18281 0.65899
 H442 H 1.17740 0.11130 0.66680
 H443 H 1.20312 0.13219 0.71002
 H444 H 1.17060 0.11246 0.61223
 H445 H 1.14127 0.08671 0.57517
 H446 H 1.06589 0.12217 0.61401
 H447 H 1.09488 0.14765 0.65151
 C448 C 0.82651 -0.18441 0.75769
 C449 C 0.83923 -0.17410 0.73659
 C450 C 0.85501 -0.16178 0.71179
 C451 C 0.84226 -0.14318 0.69434
 C452 C 0.85794 -0.13052 0.67099
 C453 C 0.88666 -0.13627 0.66480
 C454 C 0.89918 -0.15524 0.68224
 C455 C 0.88344 -0.16790 0.70556
 C456 C 0.90368 -0.12175 0.64106
 C457 C 0.93187 -0.11259 0.64658
 C458 C 0.94710 -0.09705 0.62533
 C459 C 0.93445 -0.09057 0.59822
 C460 C 0.90676 -0.10028 0.59208
 C461 C 0.89148 -0.11581 0.61331
 C462 C 0.94862 -0.07176 0.57834
 C463 C 0.95951 -0.05472 0.56269
 H464 H 0.82031 -0.13820 0.69904
 H465 H 0.84781 -0.11571 0.65832
 H466 H 0.92113 -0.16030 0.67783
 H467 H 0.89352 -0.18230 0.71890
 H468 H 0.94175 -0.11653 0.66787
 H469 H 0.96839 -0.08938 0.63049
 H470 H 0.89668 -0.09525 0.57127
 H471 H 0.86998 -0.12286 0.60821
 C472 C 1.20609 -0.21113 0.28118
 C473 C 1.19337 -0.19914 0.30133
 C474 C 1.17726 -0.18467 0.32451
 C475 C 1.15026 -0.19453 0.33411
 C476 C 1.13355 -0.17956 0.35479
 C477 C 1.14365 -0.15447 0.36613
 C478 C 1.17111 -0.14501 0.35689
 C479 C 1.18776 -0.16001 0.33618
 C480 C 1.12514 -0.13758 0.38619
 C481 C 1.13661 -0.12207 0.41070
 C482 C 1.11967 -0.10445 0.42785
 C483 C 1.09106 -0.10214 0.42081
 C484 C 1.07923 -0.11804 0.39708
 C485 C 1.09611 -0.13569 0.37991
 C486 C 1.07471 -0.08173 0.43599
 C487 C 1.06181 -0.06361 0.44765
 H488 H 1.14190 -0.21359 0.32517
 H489 H 1.11265 -0.18750 0.36173
 H490 H 1.17932 -0.12561 0.36483
 H491 H 1.20854 -0.15209 0.32873
 H492 H 1.15878 -0.12331 0.41632
 H493 H 1.12909 -0.09213 0.44608
 H494 H 1.05719 -0.11619 0.39121
 H495 H 1.08674 -0.14707 0.36094
 C496 C 0.82063 0.19166 0.27569
 C497 C 0.83443 0.18024 0.29343
 C498 C 0.85163 0.16661 0.31390
 C499 C 0.85114 0.17338 0.34528
 C500 C 0.86817 0.16023 0.36497
 C501 C 0.88598 0.14016 0.35347
 C502 C 0.88637 0.13361 0.32187
 C503 C 0.86933 0.14675 0.30226
 C504 C 0.90341 0.12547 0.37434
 C505 C 0.93112 0.11817 0.36535
 C506 C 0.94659 0.10246 0.38392
 C507 C 0.93465 0.09396 0.41177
 C508 C 0.90748 0.10180 0.42134
 C509 C 0.89197 0.11750 0.40282
 C510 C 0.94892 0.07509 0.42903
 C511 C 0.95965 0.05806 0.44280
 H512 H 0.83764 0.18884 0.35451
 H513 H 0.86760 0.16591 0.38912
 H514 H 0.89945 0.11796 0.31236
 H515 H 0.86988 0.14135 0.27801
 H516 H 0.94067 0.12430 0.34375
 H517 H 0.96753 0.09637 0.37618
 H518 H 0.89789 0.09507 0.44269
 H519 H 0.87060 0.12250 0.41023
 C520 C 0.19517 0.25247 -0.15879
 C521 C 0.18105 0.26986 -0.14735
 C522 C 0.16294 0.29016 -0.13486
 C523 C 0.17459 0.31357 -0.12108
 C524 C 0.15674 0.33364 -0.11030
 C525 C 0.12703 0.33053 -0.11333
 C526 C 0.11555 0.30677 -0.12685
 C527 C 0.13340 0.28676 -0.13753
 C528 C 0.10802 0.35211 -0.10300
 C529 C 0.08513 0.35844 -0.12096
 C530 C 0.06708 0.37862 -0.11128
 C531 C 0.07163 0.39275 -0.08354
 C532 C 0.09438 0.38668 -0.06551
 C533 C 0.11252 0.36651 -0.07519
 C534 C 0.05283 0.41336 -0.07356
 C535 C 0.03703 0.43055 -0.06514
 H536 H 0.19745 0.31645 -0.11903
 H537 H 0.16620 0.35182 -0.10027
 H538 H 0.09275 0.30363 -0.12909
 H539 H 0.12415 0.26871 -0.14814
 H540 H 0.08138 0.34798 -0.14268
 H541 H 0.04958 0.38321 -0.12544
 H542 H 0.09803 0.39746 -0.04394
 H543 H 0.12977 0.36190 -0.06073
 C544 C -0.18389 0.26199 0.20932
 C545 C -0.17209 0.28106 0.19792
 C546 C -0.15710 0.30318 0.18398
 C547 C -0.13017 0.29971 0.17023
 C548 C -0.11542 0.32095 0.15643
 C549 C -0.12742 0.34603 0.15621
 C550 C -0.15452 0.34936 0.17014
 C551 C -0.16925 0.32805 0.18398
 C552 C -0.11180 0.36839 0.14106
 C553 C -0.12622 0.38552 0.12287
 C554 C -0.11119 0.40570 0.10732
 C555 C -0.08162 0.40906 0.10986
 C556 C -0.06717 0.39246 0.12836
 C557 C -0.08214 0.37227 0.14389
 C558 C -0.06589 0.42871 0.09242
 C559 C -0.05245 0.44462 0.07728
 H560 H -0.12062 0.28052 0.17002
 H561 H -0.09482 0.31763 0.14548
 H562 H -0.16417 0.36850 0.17060
 H563 H -0.19006 0.33096 0.19465
 H564 H -0.14898 0.38284 0.11996
 H565 H -0.12255 0.41836 0.09291
 H566 H -0.04428 0.39489 0.13048
 H567 H -0.07050 0.35965 0.15807
 C568 C -0.17690 0.75008 -0.16896
 C569 C -0.16546 0.73175 -0.15833
 C570 C -0.15079 0.71021 -0.14622
 C571 C -0.16558 0.69103 -0.12887
 C572 C -0.15107 0.67010 -0.11736
 C573 C -0.12159 0.66811 -0.12317
 C574 C -0.10695 0.68756 -0.14056
 C575 C -0.12147 0.70844 -0.15199
 C576 C -0.10603 0.64592 -0.11116
 C577 C -0.08487 0.63346 -0.12936
 C578 C -0.06961 0.61310 -0.11783
 C579 C -0.07529 0.60488 -0.08800
 C580 C -0.09648 0.61695 -0.06978
 C581 C -0.11181 0.63732 -0.08129
 C582 C -0.05888 0.58449 -0.07593
 C583 C -0.04481 0.56763 -0.06586
 H584 H -0.18830 0.69219 -0.12432
 H585 H -0.16296 0.65528 -0.10431
 H586 H -0.08419 0.68683 -0.14501
 H587 H -0.10979 0.72324 -0.16530
 H588 H -0.08021 0.63938 -0.15259
 H589 H -0.05328 0.60387 -0.13214
 H590 H -0.10096 0.61080 -0.04660
 H591 H -0.12774 0.64672 -0.06662
 C592 C 0.20547 0.71594 0.20879
 C593 C 0.19262 0.69684 0.19778
 C594 C 0.17618 0.67479 0.18444
 C595 C 0.15360 0.66286 0.20128
 C596 C 0.13600 0.64301 0.18753
 C597 C 0.14075 0.63488 0.15669
 C598 C 0.16393 0.64656 0.14018
 C599 C 0.18149 0.66642 0.15397
 C600 C 0.12085 0.61529 0.14130
 C601 C 0.13116 0.59592 0.12019
 C602 C 0.11223 0.57875 0.10413
 C603 C 0.08280 0.58067 0.10897
 C604 C 0.07234 0.59946 0.13043
 C605 C 0.09122 0.61664 0.14654
 C606 C 0.06339 0.56457 0.09051
 C607 C 0.04742 0.55168 0.07413
 H608 H 0.14925 0.66925 0.22486
 H609 H 0.11853 0.63418 0.20092
 H610 H 0.16790 0.64102 0.11629
 H611 H 0.19876 0.67569 0.14065
 H612 H 0.15384 0.59419 0.11593
 H613 H 0.12054 0.56430 0.08751
 H614 H 0.04959 0.60126 0.13418
 H615 H 0.08260 0.63157 0.16231
 C616 C 0.26905 1.19030 0.84214
 C617 C 0.28814 1.18028 0.85473
 C618 C 0.31056 1.16772 0.86968
 C619 C 0.32976 1.15230 0.85244
 C620 C 0.35058 1.13886 0.86701
 C621 C 0.35247 1.14062 0.89911
 C622 C 0.33337 1.15657 0.91620
 C623 C 0.31256 1.17000 0.90157
 C624 C 0.37338 1.12485 0.91462
 C625 C 0.36546 1.11176 0.94163
 C626 C 0.38421 1.09501 0.95475
 C627 C 0.41115 1.09116 0.94114
 C628 C 0.41959 1.10473 0.91483
 C629 C 0.40088 1.12152 0.90169
 C630 C 0.42898 1.07148 0.95253
 C631 C 0.44301 1.05395 0.96123
 H632 H 0.32833 1.15026 0.82777
 H633 H 0.36462 1.12643 0.85320
 H634 H 0.33446 1.15857 0.94089
 H635 H 0.29780 1.18188 0.91515
 H636 H 0.34435 1.11361 0.95195
 H637 H 0.37735 1.08442 0.97495
 H638 H 0.44035 1.10182 0.90403
 H639 H 0.40778 1.13160 0.88117
 C640 C 0.27987 0.78530 1.20374
 C641 C 0.29968 0.79596 1.19014
 C642 C 0.32259 0.80936 1.17342
 C643 C 0.31841 0.81700 1.14355
 C644 C 0.33983 0.83150 1.12779
 C645 C 0.36580 0.83864 1.14173
 C646 C 0.37005 0.83039 1.17157
 C647 C 0.34856 0.81586 1.18730
 C648 C 0.38757 0.85589 1.12579
 C649 C 0.40202 0.87683 1.14197
 C650 C 0.42038 0.89471 1.12654
 C651 C 0.42466 0.89189 1.09478
 C652 C 0.41115 0.87062 1.07859
 C653 C 0.39277 0.85269 1.09399
 C654 C 0.44061 0.91229 1.07863
 C655 C 0.45263 0.93041 1.06556
 H656 H 0.29833 0.81221 1.13264
 H657 H 0.33566 0.83790 1.10508
 H658 H 0.38991 0.83532 1.18280
 H659 H 0.35204 0.81005 1.21042
 H660 H 0.39821 0.88009 1.16636
 H661 H 0.43049 0.91127 1.13926
 H662 H 0.41418 0.86832 1.05398
 H663 H 0.38227 0.83658 1.08094
 C664 C 0.74110 1.19511 1.21075
 C665 C 0.71977 1.18513 1.19974
 C666 C 0.69485 1.17287 1.18580
 C667 C 0.68183 1.18534 1.16222
 C668 C 0.65885 1.17259 1.14722
 C669 C 0.64860 1.14715 1.15560
 C670 C 0.66147 1.13505 1.17979
 C671 C 0.68445 1.14782 1.19473
 C672 C 0.62567 1.13263 1.13823
 C673 C 0.60467 1.11679 1.15339
 C674 C 0.58473 1.10121 1.13671
 C675 C 0.58543 1.10133 1.10469
 C676 C 0.60564 1.11767 1.08945
 C677 C 0.62559 1.13326 1.10607
 C678 C 0.56742 1.08277 1.08743
 C679 C 0.55367 1.06614 1.07295
 H680 H 0.68972 1.20473 1.15510
 H681 H 0.64921 1.18255 1.12894
 H682 H 0.65441 1.11532 1.18649
 H683 H 0.69448 1.13790 1.21281
 H684 H 0.60395 1.11613 1.17813
 H685 H 0.56929 1.08852 1.14875
 H686 H 0.60660 1.11768 1.06466
 H687 H 0.64168 1.14494 1.09367
 C688 C 0.75033 0.81340 0.83271
 C689 C 0.72940 0.82302 0.84445
 C690 C 0.70474 0.83503 0.85856
 C691 C 0.69032 0.85374 0.84289
 C692 C 0.66723 0.86643 0.85702
 C693 C 0.65823 0.86061 0.88712
 C694 C 0.67260 0.84145 0.90253
 C695 C 0.69570 0.82877 0.88833
 C696 C 0.63483 0.87537 0.90272
 C697 C 0.63702 0.88433 0.93351
 C698 C 0.61623 0.90020 0.94742
 C699 C 0.59290 0.90724 0.93084
 C700 C 0.59006 0.89775 0.90052
 C701 C 0.61083 0.88188 0.88655
 C702 C 0.57350 0.92622 0.94395
 C703 C 0.55840 0.94329 0.95443
 H704 H 0.69721 0.85886 0.81991
 H705 H 0.65696 0.88138 0.84471
 H706 H 0.66603 0.83633 0.92559
 H707 H 0.70670 0.81430 0.90068
 H708 H 0.65539 0.88000 0.94647
 H709 H 0.61882 0.90767 0.97080
 H710 H 0.57218 0.90319 0.88740
 H711 H 0.60833 0.87500 0.86296
   
