data_POSCAR
  _audit_creation_date              2014-09-24
  _audit_creation_method            'ToBaCCo'
  _symmetry_space_group_name_H-M    'P1'
  _symmetry_Int_Tables_number       1
  _symmetry_cell_setting            triclinic
  loop_
  _symmetry_equiv_pos_as_xyz
 x,y,z
_cell_length_a 36.3178
_cell_length_b 36.3795
_cell_length_c 36.4922
_cell_angle_alpha 90.018900
_cell_angle_beta 90.059100
_cell_angle_gamma 89.945500
loop_
  _atom_site_label
  _atom_site_type_symbol
  _atom_site_fract_x
  _atom_site_fract_y
  _atom_site_fract_z
C1 C 0.33736 0.39333 1.36493
 C2 C 0.36350 0.39495 1.33670
 C3 C 0.39127 0.36885 1.33488
 C4 C 0.39324 0.34082 1.36117
 C5 C 0.36742 0.33924 1.38905
 C6 C 0.33935 0.36563 1.39095
 C7 C 0.30617 0.41361 1.37232
 N8 N 0.28960 0.39878 1.40209
 C9 C 0.30940 0.36948 1.41374
 C10 C 0.37465 0.30808 1.40924
 N11 N 0.40415 0.29103 1.39420
 C12 C 0.41580 0.31055 1.36482
 C13 C 0.41132 0.37586 1.30368
 N14 N 0.39638 0.40547 1.28680
 C15 C 0.36713 0.41742 1.30651
 H16 H 0.29580 0.43672 1.35670
 H17 H 0.30203 0.35175 1.43641
 H18 H 0.35904 0.29803 1.43244
 H19 H 0.43827 0.30278 1.34692
 H20 H 0.43443 0.36007 1.29346
 H21 H 0.34935 0.44008 1.29891
 C22 C 1.16144 0.60978 0.87140
 C23 C 1.13474 0.60813 0.84369
 C24 C 1.10704 0.63431 0.84219
 C25 C 1.10571 0.66245 0.86843
 C26 C 1.13214 0.66408 0.89584
 C27 C 1.16021 0.63760 0.89733
 C28 C 1.19267 0.58939 0.87809
 N29 N 1.21015 0.60421 0.90737
 C30 C 1.19080 0.63368 0.91942
 C31 C 1.12535 0.69532 0.91605
 N32 N 1.09554 0.71235 0.90152
 C33 C 1.08326 0.69276 0.87241
 C34 C 1.08647 0.62723 0.81124
 N35 N 1.10111 0.59750 0.79428
 C36 C 1.13059 0.58557 0.81367
 H37 H 1.20252 0.56621 0.86223
 H38 H 1.19891 0.65148 0.94181
 H39 H 1.14142 0.70542 0.93895
 H40 H 1.06041 0.70048 0.85493
 H41 H 1.06331 0.64307 0.80122
 H42 H 1.14825 0.56288 0.80590
 C43 C 0.66139 -0.10922 0.12859
 C44 C 0.63473 -0.10763 0.15629
 C45 C 0.60709 -0.13382 0.15772
 C46 C 0.60577 -0.16191 0.13143
 C47 C 0.63216 -0.16348 0.10403
 C48 C 0.66017 -0.13699 0.10260
 C49 C 0.69258 -0.08883 0.12197
 N50 N 0.71003 -0.10359 0.09268
 C51 C 0.69073 -0.13304 0.08055
 C52 C 0.62542 -0.19471 0.08379
 N53 N 0.59568 -0.21178 0.09830
 C54 C 0.58341 -0.19223 0.12742
 C55 C 0.58657 -0.12685 0.18868
 N56 N 0.60118 -0.09717 0.20573
 C57 C 0.63059 -0.08517 0.18638
 H58 H 0.70241 -0.06568 0.13789
 H59 H 0.69885 -0.15080 0.05813
 H60 H 0.64150 -0.20479 0.06090
 H61 H 0.56063 -0.20000 0.14490
 H62 H 0.56346 -0.14273 0.19866
 H63 H 0.64822 -0.06250 0.19423
 C64 C -0.16307 1.10657 -0.36525
 C65 C -0.13691 1.10495 -0.33699
 C66 C -0.10912 1.13098 -0.33520
 C67 C -0.10716 1.15894 -0.36157
 C68 C -0.13301 1.16052 -0.38948
 C69 C -0.16111 1.13419 -0.39134
 C70 C -0.19426 1.08633 -0.37260
 N71 N -0.21089 1.10110 -0.40242
 C72 C -0.19110 1.13034 -0.41413
 C73 C -0.12577 1.19162 -0.40973
 N74 N -0.09623 1.20862 -0.39469
 C75 C -0.08458 1.18912 -0.36526
 C76 C -0.08906 1.12403 -0.30395
 N77 N -0.10403 1.09452 -0.28700
 C78 C -0.13328 1.08257 -0.30672
 H79 H -0.20461 1.06327 -0.35692
 H80 H -0.19850 1.14801 -0.43687
 H81 H -0.14139 1.20167 -0.43296
 H82 H -0.06208 1.19687 -0.34734
 H83 H -0.06596 1.13981 -0.29373
 H84 H -0.15109 1.06000 -0.29906
 C85 C 0.66021 0.60973 0.62911
 C86 C 0.63356 0.60835 0.65683
 C87 C 0.60599 0.63466 0.65822
 C88 C 0.60473 0.66268 0.63185
 C89 C 0.63111 0.66403 0.60443
 C90 C 0.65905 0.63741 0.60306
 C91 C 0.69136 0.58922 0.62254
 N92 N 0.70887 0.60381 0.59324
 C93 C 0.68960 0.63327 0.58105
 C94 C 0.62446 0.69521 0.58410
 N95 N 0.59478 0.71248 0.59857
 C96 C 0.58246 0.69310 0.62776
 C97 C 0.58549 0.62786 0.68923
 N98 N 0.60006 0.59816 0.70632
 C99 C 0.62941 0.58599 0.68696
 H100 H 0.70118 0.56611 0.63850
 H101 H 0.69779 0.65091 0.55860
 H102 H 0.64056 0.70513 0.56118
 H103 H 0.55971 0.70105 0.64523
 H104 H 0.56244 0.64387 0.69921
 H105 H 0.64700 0.56326 0.69483
 C106 C 0.83681 0.39286 0.13557
 C107 C 0.86299 0.39422 0.16384
 C108 C 0.89068 0.36801 0.16550
 C109 C 0.89252 0.34014 0.13901
 C110 C 0.86665 0.33882 0.11110
 C111 C 0.83866 0.36532 0.10936
 C112 C 0.80570 0.41333 0.12828
 N113 N 0.78904 0.39877 0.09839
 C114 C 0.80871 0.36945 0.08656
 C115 C 0.87378 0.30778 0.09068
 N116 N 0.90327 0.29056 0.10562
 C117 C 0.91500 0.30986 0.13515
 C118 C 0.91082 0.37477 0.19674
 N119 N 0.89601 0.40434 0.21381
 C120 C 0.86677 0.41650 0.19417
 H121 H 0.79545 0.43639 0.14406
 H122 H 0.80125 0.35191 0.06375
 H123 H 0.85812 0.29792 0.06740
 H124 H 0.93748 0.30191 0.15301
 H125 H 0.93390 0.35886 0.20685
 H126 H 0.84910 0.43920 0.20190
 C127 C 0.33616 0.10621 0.86422
 C128 C 0.36232 0.10472 0.83599
 C129 C 0.39007 0.13080 0.83436
 C130 C 0.39200 0.15867 0.86083
 C131 C 0.36617 0.16013 0.88870
 C132 C 0.33811 0.13376 0.89042
 C133 C 0.30500 0.08591 0.87149
 N134 N 0.28840 0.10057 0.90135
 C135 C 0.30817 0.12980 0.91318
 C136 C 0.37338 0.19117 0.90906
 N137 N 0.40287 0.20829 0.89415
 C138 C 0.41452 0.18888 0.86468
 C139 C 0.41016 0.12397 0.80314
 N140 N 0.39526 0.09448 0.78605
 C141 C 0.36601 0.08243 0.80565
 H142 H 0.29466 0.06288 0.85572
 H143 H 0.30078 0.14739 0.93598
 H144 H 0.35778 0.20116 0.93230
 H145 H 0.43699 0.19675 0.84686
 H146 H 0.43326 0.13980 0.79306
 H147 H 0.34826 0.05983 0.79788
 C148 C 0.16128 0.89129 0.37108
 C149 C 0.13451 0.89281 0.34343
 C150 C 0.10690 0.86658 0.34206
 C151 C 0.10574 0.83852 0.36837
 C152 C 0.13223 0.83702 0.39571
 C153 C 0.16021 0.86355 0.39708
 C154 C 0.19249 0.91171 0.37759
 N155 N 0.21010 0.89698 0.40684
 C156 C 0.19087 0.86753 0.41903
 C157 C 0.12563 0.80578 0.41594
 N158 N 0.09588 0.78862 0.40151
 C159 C 0.08347 0.80816 0.37243
 C160 C 0.08628 0.87347 0.31111
 N161 N 0.10080 0.90314 0.29401
 C162 C 0.13025 0.91521 0.31332
 H163 H 0.20223 0.93483 0.36163
 H164 H 0.19912 0.84979 0.44142
 H165 H 0.14178 0.79572 0.43879
 H166 H 0.06063 0.80030 0.35501
 H167 H 0.06319 0.85752 0.30115
 H168 H 0.14785 0.93788 0.30542
 Zn169 Zn 0.00982 1.04507 -0.01953
 Zn170 Zn -0.02836 0.97232 -0.02551
 Zn171 Zn 0.04394 0.97857 0.01358
 Zn172 Zn -0.02338 1.01111 0.04676
 O173 O 0.00044 1.00170 0.00376
 O174 O -0.01146 1.04738 -0.06351
 O175 O -0.00654 0.92918 -0.03641
 O176 O 0.08324 1.00319 -0.00294
 O177 O -0.03951 0.99369 -0.06863
 O178 O 0.05784 1.05253 -0.02760
 O179 O 0.04657 0.93431 -0.00718
 O180 O 0.00111 0.99472 0.08612
 O181 O -0.07169 0.96096 -0.00448
 O182 O 0.05133 0.97098 0.06148
 O183 O -0.06760 0.98992 0.04867
 O184 O -0.03125 1.05909 0.05437
 O185 O -0.00649 1.08439 0.00520
 C186 C -0.03116 1.02500 -0.08160
 C187 C 0.02463 0.91615 -0.02729
 C188 C 0.08610 1.03345 -0.01998
 C189 C 0.03181 0.97834 0.08936
 C190 C -0.08528 0.96975 0.02639
 C191 C -0.02334 1.08731 0.03552
 Zn192 Zn 0.47706 0.01138 0.45261
 Zn193 Zn 0.47197 -0.02736 0.52486
 Zn194 Zn 0.54430 -0.02126 0.48600
 Zn195 Zn 0.51024 0.04530 0.51906
 O196 O 0.50083 0.00196 0.49569
 O197 O 0.43277 -0.00973 0.45058
 O198 O 0.49370 -0.07049 0.53584
 O199 O 0.55169 -0.02895 0.43812
 O200 O 0.42867 -0.03866 0.50371
 O201 O 0.50155 -0.00510 0.41332
 O202 O 0.54688 -0.06549 0.50682
 O203 O 0.55826 0.05274 0.52719
 O204 O 0.46077 -0.00598 0.56792
 O205 O 0.58363 0.00338 0.50252
 O206 O 0.48891 0.04767 0.56301
 O207 O 0.49401 0.08462 0.49429
 O208 O 0.46931 0.05938 0.44499
 C209 C 0.41508 -0.02987 0.47283
 C210 C 0.52487 -0.08358 0.52686
 C211 C 0.53221 -0.02157 0.41017
 C212 C 0.58651 0.03367 0.51954
 C213 C 0.46913 0.02531 0.58098
 C214 C 0.47724 0.08758 0.46390
 Zn215 Zn 1.01080 0.45395 0.48103
 Zn216 Zn 1.04472 0.52050 0.51416
 Zn217 Zn 0.97246 0.52663 0.47501
 Zn218 Zn 0.97748 0.48796 0.54734
 O219 O 1.00130 0.49732 0.50432
 O220 O 1.05884 0.44650 0.47301
 O221 O 1.04726 0.56472 0.49337
 O222 O 0.96135 0.50522 0.43191
 O223 O 1.08409 0.49587 0.49772
 O224 O 0.98953 0.45155 0.43701
 O225 O 0.99415 0.56975 0.46410
 O226 O 0.93318 0.50913 0.54918
 O227 O 1.05205 0.52821 0.56206
 O228 O 0.92911 0.53799 0.49600
 O229 O 1.00189 0.50446 0.58672
 O230 O 0.96972 0.43998 0.55494
 O231 O 0.99455 0.41466 0.50576
 C232 C 1.08705 0.46560 0.48069
 C233 C 1.02528 0.58283 0.47324
 C234 C 0.96976 0.47390 0.41893
 C235 C 0.91550 0.52926 0.52685
 C236 C 1.03253 0.52091 0.58995
 C237 C 0.97768 0.41176 0.53607
 Zn238 Zn 0.51032 0.45543 1.01974
 Zn239 Zn 0.47208 0.52821 1.02574
 Zn240 Zn 0.54433 0.52186 0.98664
 Zn241 Zn 0.47697 0.48944 0.95345
 O242 O 0.50086 0.49880 0.99646
 O243 O 0.48911 0.45312 1.06372
 O244 O 0.49390 0.57131 1.03664
 O245 O 0.58371 0.49715 1.00309
 O246 O 0.46102 0.50683 1.06885
 O247 O 0.55835 0.44787 1.02778
 O248 O 0.54698 0.56608 1.00745
 O249 O 0.50132 0.50590 0.91410
 O250 O 0.42869 0.53961 1.00470
 O251 O 0.55158 0.52955 0.93875
 O252 O 0.43270 0.51065 0.95156
 O253 O 0.46916 0.44147 0.94580
 O254 O 0.49398 0.41616 0.99500
 C255 C 0.46942 0.47550 1.08181
 C256 C 0.52506 0.58428 1.02753
 C257 C 0.58660 0.46687 1.02012
 C258 C 0.53198 0.52228 0.91086
 C259 C 0.41505 0.53083 0.97383
 C260 C 0.47711 0.41325 0.96467
 C261 C 1.19327 0.43011 0.44291
 C262 C 1.18990 0.46285 0.46277
 C263 C 1.15544 0.47412 0.47567
 C264 C 1.25766 0.40955 0.41603
 C265 C 1.12768 0.41961 0.44926
 C266 C 1.16215 0.40841 0.43641
 C267 C 1.22845 0.41907 0.42852
 C268 C 1.12387 0.45275 0.46881
 H269 H 1.21382 0.47985 0.46795
 H270 H 1.15347 0.49978 0.49059
 H271 H 1.10397 0.40253 0.44348
 H272 H 1.16447 0.38301 0.42106
 C273 C 0.30777 0.56969 0.94236
 C274 C 0.32793 0.54693 0.91890
 C275 C 0.36273 0.53429 0.92923
 C276 C 0.24250 0.59314 0.92016
 C277 C 0.35746 0.56710 0.98682
 C278 C 0.32255 0.57975 0.97637
 C279 C 0.27211 0.58275 0.93100
 C280 C 0.37797 0.54425 0.96330
 H281 H 0.31678 0.53899 0.89251
 H282 H 0.37770 0.51675 0.91045
 H283 H 0.36839 0.57527 1.01321
 H284 H 0.30717 0.59741 0.99474
 C285 C -0.19245 0.93094 0.05781
 C286 C -0.17771 0.92089 0.02380
 C287 C -0.14284 0.93352 0.01337
 C288 C -0.25765 0.90750 0.07993
 C289 C -0.13751 0.96629 0.07098
 C290 C -0.17227 0.95367 0.08129
 C291 C -0.22806 0.91789 0.06914
 C292 C -0.12232 0.95635 0.03692
 H293 H -0.19310 0.90326 0.00541
 H294 H -0.13194 0.92536 -0.01302
 H295 H -0.12252 0.98382 0.08978
 H296 H -0.18339 0.96160 0.10769
 C297 C 0.69274 0.06954 0.55698
 C298 C 0.66155 0.09115 0.56354
 C299 C 0.62707 0.07980 0.55083
 C300 C 0.75717 0.09031 0.58367
 C301 C 0.65496 0.02532 0.52447
 C302 C 0.68943 0.03673 0.53723
 C303 C 0.72794 0.08072 0.57125
 C304 C 0.62332 0.04660 0.53137
 H305 H 0.66381 0.11659 0.57882
 H306 H 0.60330 0.09683 0.55664
 H307 H 0.65304 -0.00038 0.50961
 H308 H 0.71341 0.01980 0.53201
 C309 C 0.44284 0.19416 0.42639
 C310 C 0.43561 0.16294 0.40518
 C311 C 0.44723 0.12831 0.41712
 C312 C 0.41766 0.25892 0.40495
 C313 C 0.47376 0.15609 0.47146
 C314 C 0.46209 0.19070 0.45945
 C315 C 0.42950 0.22953 0.41472
 C316 C 0.46622 0.12444 0.45054
 H317 H 0.42066 0.16531 0.37958
 H318 H 0.44098 0.10455 0.40036
 H319 H 0.48830 0.15408 0.49730
 H320 H 0.46776 0.21469 0.47612
 C321 C 0.94275 0.30531 0.57323
 C322 C 0.93558 0.33654 0.59446
 C323 C 0.94739 0.37112 0.58264
 C324 C 0.91732 0.24067 0.59454
 C325 C 0.97402 0.34327 0.52842
 C326 C 0.96216 0.30871 0.54031
 C327 C 0.92925 0.27000 0.58481
 C328 C 0.96653 0.37492 0.54934
 H329 H 0.92052 0.33422 0.61997
 H330 H 0.94117 0.39489 0.59940
 H331 H 0.98867 0.34523 0.50266
 H332 H 0.96780 0.28471 0.52364
 C333 C 0.05859 0.80931 -0.06463
 C334 C 0.02426 0.82335 -0.07519
 C335 C 0.01297 0.85810 -0.06303
 C336 C 0.08226 0.74447 -0.08746
 C337 C 0.07037 0.86470 -0.02970
 C338 C 0.08153 0.83006 -0.04185
 C339 C 0.07083 0.77388 -0.07728
 C340 C 0.03598 0.87920 -0.04018
 H341 H 0.00630 0.80751 -0.09287
 H342 H -0.01364 0.86847 -0.07158
 H343 H 0.08878 0.88014 -0.01214
 H344 H 0.10817 0.81949 -0.03353
 C345 C 0.55895 0.69117 1.06463
 C346 C 0.58192 0.67033 1.04198
 C347 C 0.57079 0.63566 1.02993
 C348 C 0.58251 0.75607 1.08731
 C349 C 0.51338 0.64242 1.06312
 C350 C 0.52463 0.67720 1.07518
 C351 C 0.57114 0.72664 1.07718
 C352 C 0.53641 0.62123 1.04038
 H353 H 0.60854 0.68084 1.03369
 H354 H 0.58921 0.62015 1.01246
 H355 H 0.48677 0.63211 1.07164
 H356 H 0.50665 0.69312 1.09277
 C357 C 0.43102 0.44264 1.18825
 C358 C 0.45330 0.41914 1.16758
 C359 C 0.46578 0.42993 1.13306
 C360 C 0.40789 0.41954 1.25295
 C361 C 0.43379 0.48807 1.13963
 C362 C 0.42129 0.47716 1.17426
 C363 C 0.41813 0.43079 1.22361
 C364 C 0.45616 0.46451 1.11861
 H365 H 0.46098 0.39236 1.17812
 H366 H 0.48295 0.41110 1.11768
 H367 H 0.42589 0.51485 1.12931
 H368 H 0.40401 0.49556 1.19005
 C369 C 0.56840 -0.05741 0.30396
 C370 C 0.53511 -0.03836 0.30759
 C371 C 0.52355 -0.02618 0.34206
 C372 C 0.58956 -0.08297 0.23949
 C373 C 0.57881 -0.05176 0.36935
 C374 C 0.59030 -0.06389 0.33486
 C375 C 0.57979 -0.07105 0.26873
 C376 C 0.54516 -0.03297 0.37339
 H377 H 0.51794 -0.03322 0.28384
 H378 H 0.49750 -0.01183 0.34422
 H379 H 0.59610 -0.05745 0.39287
 H380 H 0.61611 -0.07863 0.33235
 C381 C -0.06953 1.05767 -0.18820
 C382 C -0.07918 1.02316 -0.17419
 C383 C -0.06671 1.01232 -0.13949
 C384 C -0.09256 1.08056 -0.25306
 C385 C -0.03491 1.07052 -0.13290
 C386 C -0.04737 1.08124 -0.16748
 C387 C -0.08236 1.06941 -0.22364
 C388 C -0.04445 1.03595 -0.11843
 H389 H -0.09636 1.00471 -0.19001
 H390 H -0.07453 0.98555 -0.12916
 H391 H -0.01783 1.08940 -0.11749
 H392 H -0.03975 1.10801 -0.17804
 C393 C 1.06842 0.55727 0.69616
 C394 C 1.09041 0.56353 0.66533
 C395 C 1.07903 0.55120 0.63085
 C396 C 1.08947 0.58316 0.76057
 C397 C 1.02370 0.52585 0.65801
 C398 C 1.03516 0.53823 0.69247
 C399 C 1.07973 0.57110 0.73136
 C400 C 1.04540 0.53243 0.62674
 H401 H 1.11620 0.57825 0.66787
 H402 H 1.09638 0.55674 0.60738
 H403 H 0.99767 0.51153 0.65581
 H404 H 1.01792 0.53325 0.71617
 C405 C 0.80824 0.56822 0.55795
 C406 C 0.82305 0.57818 0.52397
 C407 C 0.85795 0.56548 0.51365
 C408 C 0.74302 0.59193 0.57984
 C409 C 0.86316 0.53282 0.57132
 C410 C 0.82836 0.54551 0.58153
 C411 C 0.77261 0.58139 0.56917
 C412 C 0.87843 0.54269 0.53728
 H413 H 0.80769 0.59580 0.50552
 H414 H 0.86890 0.57358 0.48727
 H415 H 0.87812 0.51532 0.59018
 H416 H 0.81718 0.53766 0.60791
 C417 C 0.69278 0.43081 1.05774
 C418 C 0.68950 0.46363 1.03801
 C419 C 0.65505 0.47510 1.02517
 C420 C 0.75713 0.40978 1.08449
 C421 C 0.62712 0.42065 1.05141
 C422 C 0.66157 0.40925 1.06420
 C423 C 0.72794 0.41952 1.07206
 C424 C 0.62340 0.45386 1.03198
 H425 H 0.71349 0.48053 1.03287
 H426 H 0.65316 0.50081 1.01034
 H427 H 0.60334 0.40366 1.05715
 H428 H 0.66380 0.38379 1.07944
 C429 C 0.19218 1.06902 -0.05788
 C430 C 0.18892 1.03628 -0.03805
 C431 C 0.15451 1.02498 -0.02511
 C432 C 0.25650 1.08972 -0.08474
 C433 C 0.12657 1.07946 -0.05145
 C434 C 0.16099 1.09069 -0.06433
 C435 C 0.22732 1.08013 -0.07228
 C436 C 0.12287 1.04632 -0.03191
 H437 H 0.21290 1.01930 -0.03290
 H438 H 0.15263 0.99931 -0.01021
 H439 H 0.10280 1.09652 -0.05719
 H440 H 0.16322 1.11610 -0.07966
 C441 C 0.30780 -0.06854 0.44144
 C442 C 0.32797 -0.04590 0.41791
 C443 C 0.36278 -0.03333 0.42820
 C444 C 0.24248 -0.09193 0.41947
 C445 C 0.35750 -0.06596 0.48587
 C446 C 0.32258 -0.07854 0.47546
 C447 C 0.27213 -0.08154 0.43017
 C448 C 0.37802 -0.04323 0.46228
 H449 H 0.31680 -0.03802 0.39150
 H450 H 0.37777 -0.01588 0.40938
 H451 H 0.36843 -0.07408 0.51227
 H452 H 0.30719 -0.09610 0.49388
 C453 C 0.55840 -0.19045 0.56445
 C454 C 0.58150 -0.16980 0.54181
 C455 C 0.57049 -0.13514 0.52958
 C456 C 0.58171 -0.25535 0.58746
 C457 C 0.51294 -0.14154 0.56256
 C458 C 0.52407 -0.17631 0.57480
 C459 C 0.57046 -0.22591 0.57719
 C460 C 0.53610 -0.12053 0.53984
 H461 H 0.60814 -0.18046 0.53366
 H462 H 0.58901 -0.11977 0.51212
 H463 H 0.48632 -0.13109 0.57095
 H464 H 0.50599 -0.19208 0.59238
 C465 C 1.05877 0.68974 0.43600
 C466 C 1.08183 0.66904 0.45872
 C467 C 1.07083 0.63436 0.47082
 C468 C 1.08205 0.75465 0.41319
 C469 C 1.01336 0.64085 0.43757
 C470 C 1.02449 0.67564 0.42546
 C471 C 1.07082 0.72521 0.42339
 C472 C 1.03649 0.61979 0.46036
 H473 H 1.10843 0.67966 0.46702
 H474 H 1.08932 0.61894 0.48834
 H475 H 0.98678 0.63044 0.42903
 H476 H 1.00643 0.69145 0.40782
 C477 C -0.05811 1.19380 0.07302
 C478 C -0.06526 1.16254 0.09417
 C479 C -0.05354 1.12795 0.08223
 C480 C -0.08330 1.25848 0.09467
 C481 C -0.02704 1.15582 0.02800
 C482 C -0.03882 1.19040 0.04001
 C483 C -0.07148 1.22913 0.08477
 C484 C -0.03449 1.12415 0.04886
 H485 H -0.08023 1.16486 0.11974
 H486 H -0.05973 1.10417 0.09895
 H487 H -0.01246 1.15387 0.00220
 H488 H -0.03319 1.21442 0.02340
 C489 C 0.44235 0.30680 0.92725
 C490 C 0.43513 0.33804 0.90606
 C491 C 0.44686 0.37262 0.91798
 C492 C 0.41713 0.24214 0.90569
 C493 C 0.47350 0.34476 0.97223
 C494 C 0.46172 0.31019 0.96024
 C495 C 0.42897 0.27147 0.91554
 C496 C 0.46598 0.37642 0.95134
 H497 H 0.42010 0.33572 0.88050
 H498 H 0.44061 0.39640 0.90124
 H499 H 0.48813 0.34671 0.99802
 H500 H 0.46740 0.28618 0.97688
 C501 C 0.56757 0.55846 0.80462
 C502 C 0.53433 0.53942 0.80834
 C503 C 0.52297 0.52712 0.84282
 C504 C 0.58847 0.58405 0.74011
 C505 C 0.57835 0.55255 0.86992
 C506 C 0.58964 0.56480 0.83542
 C507 C 0.57880 0.57216 0.76938
 C508 C 0.54475 0.53377 0.87407
 H509 H 0.51703 0.53438 0.78466
 H510 H 0.49695 0.51278 0.84506
 H511 H 0.59576 0.55814 0.89337
 H512 H 0.61543 0.57952 0.83283
 C513 C 0.43024 0.05785 0.68738
 C514 C 0.45253 0.08144 0.66687
 C515 C 0.46518 0.07076 0.63236
 C516 C 0.40687 0.08060 0.75214
 C517 C 0.43331 0.01258 0.63860
 C518 C 0.42066 0.02337 0.67322
 C519 C 0.41722 0.06952 0.72276
 C520 C 0.45570 0.03622 0.61776
 H521 H 0.46011 0.10819 0.67755
 H522 H 0.48236 0.08965 0.61711
 H523 H 0.42552 -0.01417 0.62816
 H524 H 0.40337 0.00490 0.68888
 C525 C 0.06794 0.94265 0.19568
 C526 C 0.08990 0.93619 0.16486
 C527 C 0.07843 0.94828 0.13034
 C528 C 0.08912 0.91723 0.26022
 C529 C 0.02308 0.97377 0.15744
 C530 C 0.03462 0.96163 0.19195
 C531 C 0.07933 0.92908 0.23095
 C532 C 0.04475 0.96700 0.12618
 H533 H 0.11574 0.92150 0.16746
 H534 H 0.09575 0.94260 0.10687
 H535 H -0.00299 0.98807 0.15519
 H536 H 0.01741 0.96676 0.21564
 C537 C 0.93106 0.44112 0.31247
 C538 C 0.92139 0.47563 0.32652
 C539 C 0.93399 0.48651 0.36115
 C540 C 0.90768 0.41822 0.24771
 C541 C 0.96598 0.42835 0.36762
 C542 C 0.95339 0.41759 0.33309
 C543 C 0.91805 0.42935 0.27709
 C544 C 0.95641 0.46292 0.38212
 H545 H 0.90407 0.49406 0.31077
 H546 H 0.92613 0.51327 0.37152
 H547 H 0.98318 0.40950 0.38296
 H548 H 0.96103 0.39081 0.32250
   
