data_POSCAR
  _audit_creation_date              2014-09-24
  _audit_creation_method            'ToBaCCo'
  _symmetry_space_group_name_H-M    'P1'
  _symmetry_Int_Tables_number       1
  _symmetry_cell_setting            triclinic
  loop_
  _symmetry_equiv_pos_as_xyz
 x,y,z
_cell_length_a 43.2245
_cell_length_b 42.7509
_cell_length_c 43.6798
_cell_angle_alpha 92.368100
_cell_angle_beta 88.078700
_cell_angle_gamma 86.482400
loop_
  _atom_site_label
  _atom_site_type_symbol
  _atom_site_fract_x
  _atom_site_fract_y
  _atom_site_fract_z
N1 N 0.58888 0.66931 0.62641
 N2 N 0.57784 0.65500 0.65011
 C3 C 0.55046 0.66954 0.65963
 C4 C 0.54391 0.69398 0.64062
 C5 C 0.56867 0.69305 0.61970
 H6 H 0.53614 0.66265 0.67865
 H7 H 0.57194 0.70886 0.60133
 Cu8 Cu 0.59991 0.61832 0.66575
 Cu9 Cu 0.62915 0.65693 0.60686
 Cu10 Cu 0.67026 0.59326 0.63592
 N11 N 0.62338 0.58271 0.68181
 N12 N 0.65130 0.57371 0.67074
 C13 C 0.66272 0.54947 0.68653
 C14 C 0.64055 0.54263 0.70853
 C15 C 0.61586 0.56416 0.70475
 H16 H 0.68522 0.53746 0.68184
 H17 H 0.59420 0.56631 0.71802
 N18 N 0.68554 0.61609 0.60077
 N19 N 0.67029 0.64086 0.59023
 C20 C 0.68696 0.65158 0.56670
 C21 C 0.71377 0.63240 0.56203
 C22 C 0.71205 0.61008 0.58388
 H23 H 0.67982 0.67137 0.55342
 H24 H 0.72900 0.59097 0.58721
 H25 H 0.62955 0.61018 0.61724
 H26 H 0.64805 0.63709 0.64492
 N27 N 0.91158 0.33222 0.09792
 N28 N 0.92199 0.34204 0.12434
 C29 C 0.94612 0.32269 0.13171
 C30 C 0.95144 0.29981 0.10843
 C31 C 0.92906 0.30669 0.08729
 H32 H 0.95915 0.32519 0.15229
 H33 H 0.92517 0.29378 0.06611
 Cu34 Cu 0.90339 0.37961 0.14602
 Cu35 Cu 0.87516 0.35223 0.08004
 Cu36 Cu 0.84082 0.41846 0.11895
 N37 N 0.88436 0.41724 0.16726
 N38 N 0.85929 0.43168 0.15703
 C39 C 0.85016 0.45605 0.17639
 C40 C 0.87083 0.45714 0.19983
 C41 C 0.89235 0.43232 0.19325
 H42 H 0.83028 0.47210 0.17337
 H43 H 0.91203 0.42558 0.20669
 N44 N 0.82558 0.40143 0.08007
 N45 N 0.83813 0.37572 0.06569
 C46 C 0.82153 0.36917 0.04092
 C47 C 0.79777 0.39210 0.03940
 C48 C 0.80102 0.41221 0.06452
 H49 H 0.82627 0.34921 0.02508
 H50 H 0.78603 0.43262 0.07141
 H51 H 0.88077 0.39666 0.09864
 H52 H 0.85496 0.37148 0.12064
 N53 N 0.41139 0.18062 -0.12597
 N54 N 0.42254 0.16666 -0.15174
 C55 C 0.44664 0.18219 -0.16227
 C56 C 0.45095 0.20696 -0.14180
 C57 C 0.42829 0.20518 -0.11897
 H58 H 0.46050 0.17558 -0.18285
 H59 H 0.42432 0.22075 -0.09890
 Cu60 Cu 0.40528 0.12876 -0.16814
 Cu61 Cu 0.37547 0.16629 -0.10376
 Cu62 Cu 0.34372 0.09926 -0.13318
 N63 N 0.38766 0.09091 -0.18414
 N64 N 0.36305 0.07997 -0.17088
 C65 C 0.35523 0.05425 -0.18696
 C66 C 0.37635 0.04854 -0.21130
 C67 C 0.39662 0.07224 -0.20883
 H68 H 0.33593 0.04040 -0.18114
 H69 H 0.41615 0.07581 -0.22413
 N70 N 0.32754 0.12220 -0.09531
 N71 N 0.33912 0.14819 -0.08462
 C72 C 0.32261 0.15879 -0.05920
 C73 C 0.29979 0.13833 -0.05345
 C74 C 0.30367 0.11533 -0.07664
 H75 H 0.32717 0.17955 -0.04553
 H76 H 0.28984 0.09528 -0.07978
 H77 H 0.38277 0.11948 -0.11765
 H78 H 0.35621 0.14419 -0.14092
 N79 N 0.08328 0.82804 0.38268
 N80 N 0.07526 0.83665 0.35538
 C81 C 0.05294 0.81861 0.34529
 C82 C 0.04640 0.79763 0.36767
 C83 C 0.06604 0.80446 0.39113
 H84 H 0.04213 0.82097 0.32349
 H85 H 0.06802 0.79272 0.41252
 Cu86 Cu 0.09434 0.87080 0.33552
 Cu87 Cu 0.11656 0.84703 0.40436
 Cu88 Cu 0.14578 0.91276 0.37309
 N89 N 0.10655 0.91088 0.32140
 N90 N 0.12765 0.92652 0.33534
 C91 C 0.13304 0.95225 0.31971
 C92 C 0.11389 0.95300 0.29501
 C93 C 0.09732 0.92644 0.29679
 H94 H 0.14941 0.96935 0.32597
 H95 H 0.08040 0.91863 0.28095
 N96 N 0.16094 0.89505 0.41116
 N97 N 0.15032 0.86956 0.42269
 C98 C 0.16625 0.86249 0.44774
 C99 C 0.18754 0.88487 0.45243
 C100 C 0.18354 0.90517 0.42886
 H101 H 0.16272 0.84256 0.46161
 H102 H 0.19672 0.92530 0.42447
 H103 H 0.10670 0.89040 0.38637
 H104 H 0.13946 0.86530 0.36747
 C105 C 0.10902 0.12645 0.15169
 C106 C 0.08571 0.15085 0.15294
 C107 C 0.08406 0.17255 0.12968
 C108 C 0.10590 0.16982 0.10506
 C109 C 0.12975 0.14599 0.10384
 C110 C 0.13130 0.12413 0.12718
 C111 C 0.11042 0.10433 0.17452
 C112 C 0.13432 0.08051 0.17362
 C113 C 0.15669 0.07851 0.14944
 C114 C 0.15514 0.09996 0.12600
 C115 C 0.17700 0.09763 0.10141
 C116 C 0.17562 0.11945 0.07822
 C117 C 0.15211 0.14369 0.07971
 H118 H 0.06858 0.15273 0.17174
 H119 H 0.10459 0.18663 0.08715
 H120 H 0.09323 0.10584 0.19327
 H121 H 0.17493 0.05989 0.14862
 H122 H 0.19542 0.07919 0.10057
 H123 H 0.15102 0.16052 0.06181
 C124 C 0.37831 0.86376 0.64554
 C125 C 0.40305 0.84088 0.64410
 C126 C 0.40527 0.81732 0.62065
 C127 C 0.38210 0.81624 0.59888
 C128 C 0.35684 0.83855 0.60043
 C129 C 0.35501 0.86256 0.62372
 C130 C 0.37665 0.88801 0.66826
 C131 C 0.35175 0.91078 0.66982
 C132 C 0.32843 0.90934 0.64823
 C133 C 0.33003 0.88551 0.62504
 C134 C 0.30724 0.88443 0.60295
 C135 C 0.30873 0.86033 0.58001
 C136 C 0.33353 0.83742 0.57891
 H137 H 0.42100 0.84176 0.66082
 H138 H 0.38361 0.79782 0.58098
 H139 H 0.39466 0.88911 0.68490
 H140 H 0.30945 0.92718 0.64906
 H141 H 0.28813 0.90214 0.60375
 H142 H 0.33503 0.81913 0.56088
 C143 C 0.91647 0.61755 0.36591
 C144 C 0.93721 0.64151 0.36703
 C145 C 0.93612 0.66337 0.39200
 C146 C 0.91374 0.66147 0.41583
 C147 C 0.89242 0.63802 0.41475
 C148 C 0.89388 0.61585 0.38979
 C149 C 0.91779 0.59540 0.34121
 C150 C 0.89642 0.57196 0.33979
 C151 C 0.87378 0.57057 0.36341
 C152 C 0.87259 0.59212 0.38857
 C153 C 0.85031 0.59047 0.41243
 C154 C 0.84864 0.61260 0.43720
 C155 C 0.86955 0.63646 0.43812
 H156 H 0.95448 0.64300 0.34864
 H157 H 0.91257 0.67862 0.43489
 H158 H 0.93500 0.59677 0.32275
 H159 H 0.85730 0.55246 0.36230
 H160 H 0.83386 0.57233 0.41148
 H161 H 0.86820 0.65355 0.45724
 C162 C 0.59755 0.37559 -0.14377
 C163 C 0.57469 0.35372 -0.14247
 C164 C 0.57560 0.33073 -0.12042
 C165 C 0.59995 0.32927 -0.09992
 C166 C 0.62335 0.35054 -0.10137
 C167 C 0.62209 0.37393 -0.12326
 C168 C 0.59626 0.39913 -0.16521
 C169 C 0.61945 0.42071 -0.16672
 C170 C 0.64407 0.41867 -0.14659
 C171 C 0.64535 0.39566 -0.12461
 C172 C 0.66946 0.39406 -0.10391
 C173 C 0.67101 0.37059 -0.08236
 C174 C 0.64795 0.34885 -0.08125
 H175 H 0.55586 0.35486 -0.15826
 H176 H 0.60092 0.31124 -0.08317
 H177 H 0.57747 0.40043 -0.18103
 H178 H 0.66193 0.43537 -0.14774
 H179 H 0.68727 0.41083 -0.10475
 H180 H 0.64886 0.33101 -0.06431
 C181 C 0.01414 0.24636 0.13219
 C182 C 0.02010 0.22703 0.10566
 N183 N 0.00298 0.23187 0.08063
 C184 C -0.01986 0.25523 0.08084
 C185 C -0.02560 0.27515 0.10723
 N186 N -0.00824 0.27006 0.13225
 N187 N 0.03066 0.24097 0.15754
 C188 C 0.05297 0.21710 0.15753
 C189 C 0.05940 0.19804 0.13079
 N190 N 0.04277 0.20359 0.10542
 H191 H -0.03288 0.25835 0.06037
 H192 H 0.06595 0.21339 0.17797
 C193 C 0.48265 0.75153 0.61670
 C194 C 0.46590 0.75886 0.64441
 N195 N 0.47457 0.74457 0.67022
 C196 C 0.49932 0.72328 0.66962
 C197 C 0.51652 0.71631 0.64202
 N198 N 0.50771 0.73073 0.61619
 N199 N 0.47354 0.76527 0.59074
 C200 C 0.44843 0.78610 0.59123
 C201 C 0.43191 0.79393 0.61906
 N202 N 0.44119 0.78009 0.64504
 H203 H 0.50580 0.71239 0.69058
 H204 H 0.44180 0.79692 0.57026
 C205 C 0.99954 0.73494 0.39312
 C206 C 0.98369 0.72755 0.36655
 N207 N 0.98851 0.74376 0.34096
 C208 C 1.00855 0.76705 0.34063
 C209 C 1.02502 0.77427 0.36709
 N210 N 1.01997 0.75783 0.39270
 N211 N 0.99417 0.71921 0.41895
 C212 C 0.97364 0.69635 0.41939
 C213 C 0.95805 0.68852 0.39265
 N214 N 0.96359 0.70437 0.36681
 H215 H 1.01179 0.77929 0.31972
 H216 H 0.96993 0.68402 0.44022
 C217 C 0.50567 0.26579 -0.11723
 C218 C 0.51997 0.27275 -0.14525
 N219 N 0.51165 0.25804 -0.17157
 C220 C 0.48966 0.23661 -0.17116
 C221 C 0.47499 0.22986 -0.14319
 N222 N 0.48338 0.24478 -0.11687
 N223 N 0.51453 0.27992 -0.09083
 C224 C 0.53711 0.30071 -0.09114
 C225 C 0.55125 0.30803 -0.11920
 N226 N 0.54217 0.29387 -0.14564
 H227 H 0.48343 0.22533 -0.19251
 H228 H 0.54363 0.31176 -0.06978
 C229 C 0.13746 0.01422 0.24281
 C230 C 0.11015 0.02058 0.22708
 N231 N 0.08467 0.00470 0.23365
 C232 C 0.08526 -0.01731 0.25527
 C233 C 0.11242 -0.02342 0.27140
 N234 N 0.13789 -0.00734 0.26478
 N235 N 0.16323 0.02938 0.23557
 C236 C 0.16294 0.05065 0.21325
 C237 C 0.13550 0.05742 0.19776
 N238 N 0.10968 0.04222 0.20519
 H239 H 0.06460 -0.02958 0.26008
 H240 H 0.18376 0.06247 0.20791
 C241 C 0.61652 0.49147 -0.23163
 C242 C 0.64401 0.47325 -0.22738
 N243 N 0.66983 0.47809 -0.24462
 C244 C 0.66948 0.50038 -0.26596
 C245 C 0.64205 0.51914 -0.27004
 N246 N 0.61626 0.51408 -0.25255
 N247 N 0.59046 0.48612 -0.21495
 C248 C 0.59065 0.46331 -0.19415
 C249 C 0.61827 0.44527 -0.18950
 N250 N 0.64437 0.45083 -0.20625
 H251 H 0.69057 0.50354 -0.27916
 H252 H 0.56960 0.45964 -0.18102
 C253 C 0.35017 0.98442 0.73783
 C254 C 0.37771 0.97444 0.72139
 N255 N 0.40416 0.98886 0.72705
 C256 C 0.40436 1.01288 0.74841
 C257 C 0.37690 1.02274 0.76520
 N258 N 0.35043 1.00811 0.75950
 N259 N 0.32358 0.97041 0.73167
 C260 C 0.32328 0.94686 0.70977
 C261 C 0.35092 0.93655 0.69349
 N262 N 0.37752 0.95065 0.69988
 H263 H 0.42584 1.02381 0.75250
 H264 H 0.30181 0.93595 0.70547
 C265 C 0.89763 0.50650 0.26435
 C266 C 0.86978 0.52219 0.27546
 N267 N 0.84292 0.51663 0.26158
 C268 C 0.84261 0.49604 0.23703
 C269 C 0.87038 0.47991 0.22610
 N270 N 0.89727 0.48553 0.24017
 N271 N 0.92460 0.51268 0.27777
 C272 C 0.92499 0.53386 0.30185
 C273 C 0.89706 0.54927 0.31334
 N274 N 0.87007 0.54291 0.29982
 H275 H 0.82083 0.49199 0.22651
 H276 H 0.94677 0.53824 0.31225
 C277 C 0.24210 0.11446 0.00450
 C278 C 0.23295 0.14323 0.01979
 N279 N 0.24585 0.16976 0.01108
 C280 C 0.26755 0.16886 -0.01225
 C281 C 0.27653 0.14016 -0.02790
 N282 N 0.26343 0.11361 -0.01911
 N283 N 0.22969 0.08783 0.01368
 C284 C 0.20850 0.08865 0.03749
 C285 C 0.19898 0.11750 0.05263
 N286 N 0.21146 0.14414 0.04324
 H287 H 0.27733 0.19043 -0.01876
 H288 H 0.19881 0.06710 0.04419
 C289 C 0.77927 0.60870 0.50732
 C290 C 0.78466 0.63707 0.49359
 N291 N 0.76680 0.66335 0.50234
 C292 C 0.74372 0.66257 0.52420
 C293 C 0.73848 0.63426 0.53825
 N294 N 0.75656 0.60801 0.52946
 N295 N 0.79655 0.58223 0.49801
 C296 C 0.81897 0.58280 0.47548
 C297 C 0.82464 0.61122 0.46185
 N298 N 0.80734 0.63776 0.47141
 H299 H 0.72991 0.68390 0.53076
 H300 H 0.83245 0.56137 0.46849
 C301 C 0.74335 0.36732 -0.01946
 C302 C 0.72727 0.39584 -0.02537
 N303 N 0.73448 0.42257 -0.01011
 C304 C 0.75702 0.42210 0.01089
 C305 C 0.77337 0.39362 0.01667
 N306 N 0.76615 0.36689 0.00118
 N307 N 0.73560 0.34045 -0.03412
 C308 C 0.71239 0.34078 -0.05440
 C309 C 0.69639 0.36934 -0.06057
 N310 N 0.70441 0.39625 -0.04593
 H311 H 0.76229 0.44378 0.02266
 H312 H 0.70673 0.31904 -0.06584
 C313 C 0.24056 0.85884 0.51272
 C314 C 0.25370 0.88690 0.52152
 N315 N 0.24502 0.91375 0.50769
 C316 C 0.22384 0.91381 0.48536
 C317 C 0.21043 0.88579 0.47664
 N318 N 0.21911 0.85896 0.49072
 N319 N 0.24980 0.83184 0.52600
 C320 C 0.27169 0.83160 0.54766
 C321 C 0.28476 0.85971 0.55671
 N322 N 0.27525 0.88676 0.54342
 H323 H 0.21734 0.93559 0.47480
 H324 H 0.27857 0.80977 0.55795
   
