data_POSCAR
  _audit_creation_date              2014-09-24
  _audit_creation_method            'ToBaCCo'
  _symmetry_space_group_name_H-M    'P1'
  _symmetry_Int_Tables_number       1
  _symmetry_cell_setting            triclinic
  loop_
  _symmetry_equiv_pos_as_xyz
 x,y,z
_cell_length_a 41.8556
_cell_length_b 41.3988
_cell_length_c 41.2723
_cell_angle_alpha 89.955200
_cell_angle_beta 90.010200
_cell_angle_gamma 89.947300
loop_
  _atom_site_label
  _atom_site_type_symbol
  _atom_site_fract_x
  _atom_site_fract_y
  _atom_site_fract_z
N1 N 0.18740 1.25282 0.16281
 N2 N 0.16505 1.25199 0.18519
 C3 C 0.14392 1.27593 0.17956
 C4 C 0.15357 1.29250 0.15214
 C5 C 0.18130 1.27727 0.14219
 H6 H 0.12275 1.28060 0.19384
 H7 H 0.19556 1.28311 0.12113
 Cu8 Cu 0.16515 1.21868 0.21844
 Cu9 Cu 0.22184 1.22113 0.16103
 Cu10 Cu 0.22217 1.16169 0.22045
 N11 N 0.16543 1.18542 0.25176
 N12 N 0.18790 1.16320 0.25241
 C13 C 0.18207 1.14257 0.27693
 C14 C 0.15438 1.15235 0.29238
 C15 C 0.14448 1.17967 0.27588
 H16 H 0.19647 1.12162 0.28266
 H17 H 0.12328 1.19382 0.28071
 N18 N 0.25472 1.16432 0.18599
 N19 N 0.25460 1.18694 0.16340
 C20 C 0.27885 1.18136 0.14267
 C21 C 0.29487 1.15395 0.15268
 C22 C 0.27905 1.14378 0.18020
 H23 H 0.28401 1.19560 0.12134
 H24 H 0.28441 1.12248 0.19437
 H25 H 0.19724 1.18406 0.18344
 H26 H 0.22218 1.21045 0.20990
 N27 N 0.81353 0.74813 0.16472
 N28 N 0.83617 0.74926 0.18679
 C29 C 0.85715 0.72518 0.18131
 C30 C 0.84711 0.70819 0.15437
 C31 C 0.81936 0.72335 0.14445
 H32 H 0.87847 0.72062 0.19540
 H33 H 0.80490 0.71720 0.12364
 Cu34 Cu 0.83640 0.78276 0.21981
 Cu35 Cu 0.77905 0.77975 0.16298
 Cu36 Cu 0.77941 0.83985 0.22162
 N37 N 0.83665 0.81667 0.25239
 N38 N 0.81411 0.83880 0.25310
 C39 C 0.82019 0.85969 0.27732
 C40 C 0.84809 0.85014 0.29252
 C41 C 0.85788 0.82271 0.27618
 H42 H 0.80576 0.88061 0.28303
 H43 H 0.87913 0.80861 0.28095
 N44 N 0.74641 0.83678 0.18765
 N45 N 0.74629 0.81394 0.16532
 C46 C 0.72174 0.81923 0.14487
 C47 C 0.70576 0.84668 0.15480
 C48 C 0.72193 0.85717 0.18197
 H49 H 0.71630 0.80475 0.12379
 H50 H 0.71670 0.87859 0.19597
 H51 H 0.80394 0.81704 0.18469
 H52 H 0.77925 0.79098 0.21172
 N53 N 0.81237 1.25223 -0.16360
 N54 N 0.83509 1.25162 -0.18560
 C55 C 0.85590 1.27569 -0.17957
 C56 C 0.84562 1.29214 -0.15239
 C57 C 0.81793 1.27668 -0.14287
 H58 H 0.87733 1.28051 -0.19339
 H59 H 0.80337 1.28235 -0.12199
 Cu60 Cu 0.83587 1.21838 -0.21887
 Cu61 Cu 0.77826 1.22023 -0.16236
 Cu62 Cu 0.77943 1.16095 -0.22180
 N63 N 0.83635 1.18525 -0.25225
 N64 N 0.81411 1.16285 -0.25327
 C65 C 0.82043 1.14240 -0.27779
 C66 C 0.84820 1.15248 -0.29286
 C67 C 0.85764 1.17980 -0.27612
 H68 H 0.80628 1.12139 -0.28380
 H69 H 0.87874 1.19416 -0.28067
 N70 N 0.74638 1.16318 -0.18784
 N71 N 0.74592 1.18575 -0.16523
 C72 C 0.72139 1.17995 -0.14492
 C73 C 0.70578 1.15245 -0.15522
 C74 C 0.72214 1.14246 -0.18247
 H75 H 0.71573 1.19411 -0.12368
 H76 H 0.71718 1.12117 -0.19677
 H77 H 0.80357 1.18345 -0.18441
 H78 H 0.77879 1.20970 -0.21126
 N79 N 0.18503 0.74727 -0.16301
 N80 N 0.16243 0.74831 -0.18514
 C81 C 0.14124 0.72452 -0.17931
 C82 C 0.15116 0.70779 -0.15213
 C83 C 0.17901 0.72281 -0.14240
 H84 H 0.11987 0.72002 -0.19331
 H85 H 0.19344 0.71677 -0.12151
 Cu86 Cu 0.16245 0.78163 -0.21838
 Cu87 Cu 0.21976 0.77861 -0.16166
 Cu88 Cu 0.21978 0.83809 -0.22104
 N89 N 0.16241 0.81496 -0.25160
 N90 N 0.18506 0.83695 -0.25253
 C91 C 0.17910 0.85765 -0.27697
 C92 C 0.15116 0.84815 -0.29208
 C93 C 0.14121 0.82094 -0.27544
 H94 H 0.19365 0.87840 -0.28291
 H95 H 0.11985 0.80700 -0.28003
 N96 N 0.25277 0.83511 -0.18703
 N97 N 0.25277 0.81247 -0.16445
 C98 C 0.27740 0.81772 -0.14412
 C99 C 0.29355 0.84494 -0.15437
 C100 C 0.27739 0.85533 -0.18162
 H101 H 0.28277 0.80338 -0.12289
 H102 H 0.28275 0.87658 -0.19586
 H103 H 0.19513 0.81596 -0.18374
 H104 H 0.21960 0.78937 -0.21048
 C105 C 0.49987 0.99867 -0.00133
 C106 C -0.00083 0.49919 1.00149
 C107 C 1.00111 0.00147 0.49970
 N108 N 0.09459 0.35364 1.13396
 C109 C 0.10651 0.36658 1.10631
 N110 N 0.13438 0.35504 1.09423
 N111 N 0.14984 0.33122 1.10931
 C112 C 0.13792 0.31807 1.13694
 N113 N 0.11004 0.32983 1.14904
 C114 C 0.08918 0.39122 1.08928
 C115 C 0.07435 0.41140 1.07450
 C116 C 0.05636 0.43474 1.05635
 N117 N 0.03656 0.45573 1.07159
 N118 N 0.01894 0.47650 1.05454
 C119 C 0.02053 0.47709 1.02161
 N120 N 0.04044 0.45590 1.00653
 N121 N 0.05804 0.43515 1.02358
 N122 N -0.13341 0.64358 1.09635
 C123 C -0.10539 0.63222 1.10830
 N124 N -0.09318 0.64554 1.13563
 N125 N -0.10852 0.66953 1.15053
 C126 C -0.13654 0.68103 1.13856
 N127 N -0.14875 0.66756 1.11125
 C128 C -0.08817 0.60739 1.09148
 C129 C -0.07335 0.58706 1.07693
 C130 C -0.05529 0.56356 1.05910
 N131 N -0.02298 0.56322 1.06098
 N132 N -0.00603 0.54245 1.04331
 C133 C -0.02077 0.52117 1.02314
 N134 N -0.05323 0.52168 1.02138
 N135 N -0.07018 0.54246 1.03906
 N136 N -0.09498 0.35444 0.86803
 C137 C -0.10736 0.36717 0.89556
 N138 N -0.13542 0.35554 0.90710
 N139 N -0.15061 0.33186 0.89161
 C140 C -0.13821 0.31899 0.86408
 N141 N -0.11016 0.33077 0.85253
 C142 C -0.09033 0.39169 0.91299
 C143 C -0.07566 0.41177 0.92799
 C144 C -0.05779 0.43501 0.94630
 N145 N -0.05948 0.43520 0.97908
 N146 N -0.04195 0.45586 0.99624
 C147 C -0.02212 0.47719 0.98127
 N148 N -0.02052 0.47682 0.94834
 N149 N -0.03807 0.45614 0.93118
 N150 N 0.13149 0.64374 0.90651
 C151 C 0.10347 0.63239 0.89462
 N152 N 0.09130 0.64557 0.86718
 N153 N 0.10667 0.66940 0.85210
 C154 C 0.13469 0.68089 0.86399
 N155 N 0.14687 0.66758 0.89143
 C156 C 0.08627 0.60763 0.91157
 C157 C 0.07148 0.58733 0.92618
 C158 C 0.05347 0.56384 0.94404
 N159 N 0.02116 0.56349 0.94218
 N160 N 0.00427 0.54265 0.95982
 C161 C 0.01906 0.52131 0.97994
 N162 N 0.05152 0.52183 0.98169
 N163 N 0.06841 0.54268 0.96404
 N164 N 1.13592 0.09450 0.35521
 C165 C 1.10804 0.10641 0.36693
 N166 N 1.09589 0.13392 0.35402
 N167 N 1.11111 0.14903 0.33006
 C168 C 1.13898 0.13710 0.31812
 N169 N 1.15114 0.10961 0.33124
 C170 C 1.09093 0.08934 0.39172
 C171 C 1.07623 0.07455 0.41199
 C172 C 1.05834 0.05638 0.43539
 N173 N 1.03840 0.07150 0.45635
 N174 N 1.02079 0.05443 0.47711
 C175 C 1.02254 0.02160 0.47771
 N176 N 1.04259 0.00665 0.45655
 N177 N 1.06019 0.02371 0.43582
 N178 N 1.13279 -0.09414 0.64492
 C179 C 1.10476 -0.10583 0.63341
 N180 N 1.09243 -0.13312 0.64657
 N181 N 1.10764 -0.14824 0.67056
 C182 C 1.13567 -0.13654 0.68227
 N183 N 1.14801 -0.10925 0.66891
 C184 C 1.08771 -0.08882 0.60852
 C185 C 1.07303 -0.07414 0.58813
 C186 C 1.05514 -0.05619 0.56455
 N187 N 1.02283 -0.05797 0.56404
 N188 N 1.00603 -0.04025 0.54315
 C189 C 1.02091 -0.02012 0.52191
 N190 N 1.05337 -0.01844 0.52260
 N191 N 1.07017 -0.03618 0.54350
 N192 N 0.86680 -0.09168 0.35487
 C193 C 0.89479 -0.10345 0.36649
 N194 N 0.90697 -0.13096 0.35364
 N195 N 0.89165 -0.14620 0.32984
 C196 C 0.86367 -0.13442 0.31801
 N197 N 0.85149 -0.10692 0.33106
 C198 C 0.91192 -0.08631 0.39119
 C199 C 0.92660 -0.07148 0.41142
 C200 C 0.94443 -0.05333 0.43485
 N201 N 0.96412 -0.06848 0.45606
 N202 N 0.98158 -0.05145 0.47695
 C203 C 0.97993 -0.01862 0.47745
 N204 N 0.96014 -0.00362 0.45603
 N205 N 0.94270 -0.02065 0.43517
 N206 N 0.90744 0.13503 0.64596
 C207 C 0.89568 0.10753 0.63276
 N208 N 0.86782 0.09529 0.64415
 N209 N 0.85224 0.11006 0.66808
 C210 C 0.86401 0.13755 0.68149
 N211 N 0.89186 0.14981 0.66989
 C212 C 0.91314 0.09085 0.60796
 C213 C 0.92812 0.07641 0.58765
 C214 C 0.94631 0.05869 0.56415
 N215 N 0.93154 0.03869 0.54293
 N216 N 0.94859 0.02112 0.52213
 C217 C 0.98105 0.02297 0.52171
 N218 N 0.99567 0.04310 0.54312
 N219 N 0.97862 0.06065 0.56391
 N220 N 0.35722 1.09443 0.13259
 C221 C 0.36913 1.10653 0.10456
 N222 N 0.35698 1.13446 0.09259
 N223 N 0.33357 1.14981 0.10815
 C224 C 0.32150 1.13769 0.13618
 N225 N 0.33381 1.10977 0.14816
 C226 C 0.39338 1.08928 0.08708
 C227 C 0.41324 1.07443 0.07205
 C228 C 0.43624 1.05632 0.05376
 N229 N 0.45712 1.03634 0.06891
 N230 N 0.47759 1.01856 0.05178
 C231 C 0.47800 1.02018 0.01884
 N232 N 0.45692 1.04028 0.00385
 N233 N 0.43646 1.05803 0.02098
 N234 N 0.64350 1.09255 -0.13637
 C235 C 0.63092 1.10457 -0.10861
 N236 N 0.64261 1.13257 -0.09643
 N237 N 0.66622 1.14806 -0.11151
 C238 C 0.67895 1.13603 -0.13926
 N239 N 0.66711 1.10803 -0.15146
 C240 C 0.60651 1.08714 -0.09159
 C241 C 0.58654 1.07213 -0.07690
 C242 C 0.56346 1.05383 -0.05893
 N243 N 0.54250 1.06886 -0.03895
 N244 N 0.52201 1.05170 -0.02122
 C245 C 0.52168 1.01887 -0.02287
 N246 N 0.54283 1.00400 -0.04297
 N247 N 0.56330 1.02116 -0.06069
 N248 N 0.35676 0.90370 -0.13514
 C249 C 0.36897 0.89142 -0.10731
 N250 N 0.35676 0.86358 -0.09523
 N251 N 0.33300 0.84852 -0.11047
 C252 C 0.32062 0.86083 -0.13829
 N253 N 0.33300 0.88864 -0.15040
 C254 C 0.39345 0.90847 -0.09002
 C255 C 0.41343 0.92317 -0.07505
 C256 C 0.43648 0.94112 -0.05670
 N257 N 0.43665 0.93934 -0.02392
 N258 N 0.45707 0.95704 -0.00670
 C259 C 0.47815 0.97715 -0.02160
 N260 N 0.47780 0.97883 -0.05454
 N261 N 0.45737 0.96112 -0.07176
 N262 N 0.64290 0.90579 0.13504
 C263 C 0.63066 0.89344 0.10727
 N264 N 0.64274 0.86546 0.09539
 N265 N 0.66641 0.85031 0.11078
 C266 C 0.67881 0.86268 0.13853
 N267 N 0.66656 0.89064 0.15043
 C268 C 0.60625 0.91058 0.08989
 C269 C 0.58632 0.92543 0.07493
 C270 C 0.56332 0.94365 0.05671
 N271 N 0.54255 0.92857 0.03658
 N272 N 0.52212 0.94568 0.01869
 C273 C 0.52165 0.97852 0.02033
 N274 N 0.54262 0.99343 0.04056
 N275 N 0.56303 0.97633 0.05844
   
