data_POSCAR
  _audit_creation_date              2014-09-24
  _audit_creation_method            'ToBaCCo'
  _symmetry_space_group_name_H-M    'P1'
  _symmetry_Int_Tables_number       1
  _symmetry_cell_setting            triclinic
  loop_
  _symmetry_equiv_pos_as_xyz
 x,y,z
_cell_length_a 19.7281
_cell_length_b 19.7621
_cell_length_c 37.4942
_cell_angle_alpha 86.787500
_cell_angle_beta 90.015500
_cell_angle_gamma 120.159100
loop_
  _atom_site_label
  _atom_site_type_symbol
  _atom_site_fract_x
  _atom_site_fract_y
  _atom_site_fract_z
C1 C 0.00283 0.06918 0.56268
 H2 H 0.02649 0.03385 0.57357
 C3 C 0.00346 0.12643 0.58300
 H4 H 0.02544 0.13276 0.60981
 C5 C -0.04878 0.10777 0.51367
 H6 H -0.06576 0.10229 0.48607
 C7 C -0.05018 0.16523 0.53328
 H8 H -0.06987 0.20277 0.52075
 N9 N -0.02260 0.06116 0.52862
 C10 C 0.07530 -0.08517 0.52591
 H11 H 0.12326 -0.04827 0.50719
 C12 C 0.07562 -0.14685 0.54616
 H13 H 0.12485 -0.15620 0.54328
 C14 C -0.04911 -0.12051 0.55125
 H15 H -0.09838 -0.11085 0.55239
 C16 C -0.05084 -0.18178 0.57214
 H17 H -0.10165 -0.21855 0.58950
 Zn18 Zn -0.00221 -0.00207 0.49958
 N19 N 0.01312 -0.07371 0.52878
 C20 C 0.15582 0.11361 0.48577
 N21 N 0.08597 0.06857 0.47037
 C22 C 0.07435 0.08351 0.43576
 C23 C 0.13368 0.14703 0.41542
 C24 C 0.21715 0.17756 0.46626
 C25 C -0.15968 -0.07631 0.47336
 C26 C -0.21998 -0.13200 0.45337
 C27 C -0.12734 -0.16401 0.42836
 C28 C -0.06958 -0.10853 0.44893
 N29 N -0.08632 -0.06597 0.47076
 H30 H 0.16263 0.10202 0.51369
 H31 H 0.01754 0.04900 0.42440
 H32 H 0.12227 0.15897 0.38823
 H33 H 0.27161 0.21403 0.47926
 H34 H -0.17209 -0.04324 0.49164
 H35 H -0.27808 -0.13963 0.45629
 H36 H -0.11122 -0.19675 0.41148
 H37 H -0.01095 -0.09999 0.44798
 C38 C 0.01150 -0.19643 0.56947
 C39 C -0.02222 0.17611 0.56818
 C40 C -0.20462 -0.17770 0.43054
 C41 C 0.20567 0.19608 0.43085
 C42 C 1.14633 0.08902 0.11287
 H43 H 1.14456 0.14295 0.11142
 C44 C 1.20271 0.08384 0.09276
 H45 H 1.24372 0.13395 0.07561
 C46 C 1.09666 -0.04037 0.13831
 H47 H 1.05622 -0.08784 0.15671
 C48 C 1.15329 -0.04760 0.11911
 H49 H 1.15504 -0.10148 0.12240
 N50 N 1.09426 0.02728 0.13477
 C51 C 0.90463 0.07471 0.15201
 H52 H 0.90311 0.07293 0.18090
 C53 C 0.84310 0.07360 0.13314
 H54 H 0.79498 0.07232 0.14767
 C55 C 0.96580 0.07167 0.09820
 H56 H 1.01116 0.06649 0.08473
 C57 C 0.90640 0.07248 0.07821
 H58 H 0.90767 0.06926 0.04950
 Zn59 Zn 1.02725 0.04617 0.16321
 N60 N 0.96312 0.07138 0.13449
 C61 C 1.10047 0.19956 0.19055
 N62 N 1.09422 0.12775 0.19180
 C63 C 1.14129 0.11127 0.21249
 C64 C 1.19743 0.16791 0.23322
 C65 C 1.15662 0.25856 0.21079
 C66 C 0.90613 -0.10950 0.17703
 C67 C 0.84367 -0.17132 0.19692
 C68 C 0.88691 -0.09475 0.24884
 C69 C 0.94890 -0.03482 0.22807
 N70 N 0.95683 -0.04276 0.19276
 H71 H 1.06307 0.21148 0.17342
 H72 H 1.13553 0.05386 0.21251
 H73 H 1.23439 0.15319 0.24928
 H74 H 1.16145 0.31569 0.20936
 H75 H 0.91234 -0.11332 0.14866
 H76 H 0.80283 -0.22319 0.18371
 H77 H 0.88058 -0.08635 0.27667
 H78 H 0.98808 0.01961 0.23983
 C79 C 0.84263 0.07048 0.09584
 C80 C 1.20723 0.01518 0.09599
 C81 C 0.83244 -0.16356 0.23314
 C82 C 1.20626 0.24300 0.23238
 C83 C 0.05362 0.90704 0.88661
 H84 H -0.00219 0.85291 0.88730
 C85 C 0.11481 0.91117 0.90672
 H86 H 0.10522 0.86014 0.92319
 C87 C 0.13439 1.03773 0.86275
 H88 H 0.14216 1.08609 0.84487
 C89 C 0.19791 1.04395 0.88197
 H90 H 0.25388 1.09795 0.87925
 N91 N 0.06392 0.96995 0.86553
 C92 C -0.17119 0.92735 0.84724
 H93 H -0.16849 0.93379 0.81835
 C94 C -0.23154 0.92851 0.86610
 H95 H -0.27556 0.93437 0.85119
 C96 C -0.11327 0.91812 0.90125
 H97 H -0.06508 0.91842 0.91498
 C98 C -0.17401 0.91634 0.92123
 H99 H -0.17180 0.91356 0.95011
 Zn100 Zn -0.02137 0.95223 0.83670
 N101 N -0.11218 0.92504 0.86491
 C102 C -0.09817 0.79912 0.80887
 N103 N -0.03442 0.87257 0.80732
 C104 C 0.02946 0.89214 0.78613
 C105 C 0.03129 0.83705 0.76526
 C106 C -0.09847 0.74147 0.78862
 C107 C 0.01715 1.10951 0.82380
 C108 C 0.01841 1.17248 0.80423
 C109 C -0.02054 1.09559 0.75237
 C110 C -0.01980 1.03470 0.77273
 N111 N -0.00179 1.04234 0.80785
 H112 H -0.14768 0.78478 0.82645
 H113 H 0.07978 0.95074 0.78596
 H114 H 0.08332 0.85415 0.74891
 H115 H -0.14910 0.68288 0.79040
 H116 H 0.02848 1.11306 0.85206
 H117 H 0.03224 1.22497 0.81752
 H118 H -0.03671 1.08765 0.72467
 H119 H -0.03766 0.97988 0.76085
 C120 C -0.23241 0.92538 0.90371
 C121 C 0.18835 0.97998 0.90428
 C122 C -0.00229 1.16519 0.76822
 C123 C -0.03275 0.76023 0.76661
 C124 C 0.44137 -0.00762 -0.01880
 C125 C 0.44474 -0.00128 0.01851
 C126 C 0.50941 0.00431 0.03646
 C127 C 0.57084 0.00282 0.01814
 C128 C 0.56365 -0.01146 -0.01887
 C129 C 0.50014 -0.01336 -0.03693
 H130 H 0.49429 -0.02248 -0.06527
 H131 H 0.51346 0.01363 0.06479
 C132 C -0.00970 0.41639 0.64900
 C133 C -0.01444 0.40995 0.68696
 C134 C -0.01865 0.46798 0.70519
 C135 C -0.01598 0.53305 0.68681
 C136 C -0.00722 0.54144 0.64911
 C137 C -0.00514 0.48264 0.63074
 H138 H -0.00033 0.48834 0.60177
 H139 H -0.02358 0.46276 0.73415
 C140 C 0.56657 0.59923 0.31392
 C141 C 0.56233 0.59452 0.35181
 C142 C 0.49916 0.52967 0.37017
 C143 C 0.43934 0.46900 0.35186
 C144 C 0.44126 0.47594 0.31399
 C145 C 0.50453 0.54063 0.29564
 H146 H 0.50616 0.54430 0.26666
 H147 H 0.49748 0.52583 0.39916
 N148 N 0.02992 0.26551 0.61712
 C149 C -0.01736 0.24018 0.58868
 N150 N -0.05955 0.27518 0.57943
 N151 N -0.05618 0.33173 0.59842
 C152 C -0.01038 0.35566 0.62736
 N153 N 0.03371 0.32243 0.63595
 N154 N 0.71823 0.70251 0.24178
 C155 C 0.76287 0.77494 0.25405
 N156 N 0.74142 0.79034 0.28565
 N157 N 0.67862 0.73532 0.30442
 C158 C 0.63490 0.66235 0.29256
 N159 N 0.65569 0.64737 0.26067
 N160 N 0.24100 -0.06651 -0.04673
 C161 C 0.25457 -0.01635 -0.07568
 N162 N 0.32999 0.03586 -0.08620
 N163 N 0.38941 0.03795 -0.06837
 C164 C 0.37560 -0.01169 -0.03922
 N165 N 0.30033 -0.06405 -0.02876
 N166 N -0.04886 0.69592 0.61635
 C167 C 0.00761 0.73568 0.59032
 N168 N 0.05855 0.71043 0.58333
 N169 N 0.05345 0.64833 0.60183
 C170 C -0.00252 0.60936 0.62814
 N171 N -0.05383 0.63409 0.63490
 N172 N 0.30927 0.28574 0.27707
 C173 C 0.26765 0.30421 0.25358
 N174 N 0.28443 0.37990 0.24970
 N175 N 0.34002 0.43459 0.26876
 C176 C 0.38059 0.41556 0.29257
 N177 N 0.36467 0.34027 0.29618
 N178 N 0.66831 -0.03830 -0.09388
 C179 C 0.71336 -0.06334 -0.07688
 N180 N 0.70778 -0.07280 -0.04060
 N181 N 0.66001 -0.05717 -0.02223
 C182 C 0.61738 -0.02914 -0.03915
 N183 N 0.62156 -0.02148 -0.07545
 N184 N 0.30510 0.05940 0.04647
 C185 C 0.26894 0.01038 0.07583
 N186 N 0.29180 -0.04172 0.08659
 N187 N 0.34835 -0.04482 0.06860
 C188 C 0.38370 0.00365 0.03903
 N189 N 0.36117 0.05594 0.02835
 N190 N 0.75435 0.72335 0.38962
 C191 C 0.73809 0.76634 0.41159
 N192 N 0.66271 0.75085 0.41412
 N193 N 0.60674 0.69572 0.39538
 C194 C 0.62388 0.65407 0.37317
 N195 N 0.69855 0.66843 0.37082
 N196 N 0.03153 0.30320 0.75786
 C197 C -0.00719 0.22849 0.74756
 N198 N -0.05098 0.21292 0.71792
 N199 N -0.05474 0.26996 0.69899
 C200 C -0.01400 0.34508 0.70865
 N201 N 0.02827 0.36033 0.73876
 N202 N 0.70046 0.01735 0.09213
 C203 C 0.77281 0.05728 0.07593
 N204 N 0.77883 0.08007 0.04068
 N205 N 0.71493 0.06325 0.02234
 C206 C 0.64233 0.02109 0.03826
 N207 N 0.63658 -0.00024 0.07369
 N208 N 0.24854 0.29474 0.38000
 C209 C 0.26646 0.26777 0.41059
 N210 N 0.34067 0.30882 0.42242
 N211 N 0.39502 0.37315 0.40398
 C212 C 0.37740 0.39926 0.37302
 N213 N 0.30276 0.35922 0.36168
 N214 N 0.02824 0.72256 0.72022
 C215 C -0.02925 0.70056 0.74570
 N216 N -0.08176 0.62292 0.75208
 N217 N -0.07714 0.56966 0.73354
 C218 C -0.02014 0.59202 0.70780
 N219 N 0.03270 0.66944 0.70162
   
