data_POSCAR
  _audit_creation_date              2014-09-24
  _audit_creation_method            'ToBaCCo'
  _symmetry_space_group_name_H-M    'P1'
  _symmetry_Int_Tables_number       1
  _symmetry_cell_setting            triclinic
  loop_
  _symmetry_equiv_pos_as_xyz
 x,y,z
_cell_length_a 18.3457
_cell_length_b 17.3366
_cell_length_c 19.1106
_cell_angle_alpha 90.346900
_cell_angle_beta 90.039100
_cell_angle_gamma 90.052000
loop_
  _atom_site_label
  _atom_site_type_symbol
  _atom_site_fract_x
  _atom_site_fract_y
  _atom_site_fract_z
C1 C -0.06214 0.49725 0.30740
 C2 C 0.00483 0.51432 0.27818
 C3 C 0.01777 0.58010 0.23724
 C4 C -0.03978 0.62367 0.21151
 C5 C -0.11057 0.59627 0.23431
 C6 C -0.12128 0.54165 0.28943
 C7 C 0.05454 0.45307 0.26833
 C8 C 0.04485 0.40869 0.20873
 C9 C 0.10514 0.37955 0.17353
 C10 C 0.17516 0.39618 0.19834
 C11 C 0.18220 0.43306 0.26365
 C12 C 0.12128 0.46010 0.29892
 H13 H -0.06722 0.44878 0.34260
 H14 H 0.07215 0.58875 0.21668
 H15 H -0.00979 0.39980 0.18838
 H16 H 0.12582 0.49171 0.34795
 H17 H -0.16079 0.61804 0.21612
 H18 H 0.22257 0.37295 0.17177
 C19 C -0.08040 0.50325 0.67536
 C20 C -0.00743 0.48329 0.68726
 C21 C 0.00955 0.42016 0.72884
 C22 C -0.04254 0.38693 0.77076
 C23 C -0.11551 0.41652 0.76740
 C24 C -0.13575 0.47068 0.71596
 C25 C 0.04815 0.54300 0.68742
 C26 C 0.03181 0.60812 0.72735
 C27 C 0.08549 0.65392 0.75845
 C28 C 0.15771 0.62287 0.75769
 C29 C 0.17448 0.55444 0.71904
 C30 C 0.12033 0.52143 0.67765
 H31 H -0.09284 0.54980 0.63968
 H32 H 0.06486 0.39949 0.73152
 H33 H -0.02436 0.61718 0.74192
 H34 H 0.13229 0.47119 0.64559
 H35 H -0.15753 0.39290 0.80089
 H36 H 0.20107 0.64974 0.78705
 C37 C 0.20347 -0.12523 0.51257
 C38 C 0.18627 -0.05151 0.53688
 C39 C 0.18367 -0.03692 0.60756
 C40 C 0.19867 -0.09533 0.65479
 C41 C 0.22440 -0.16777 0.63020
 C42 C 0.23438 -0.17962 0.55686
 C43 C 0.18581 0.01221 0.48782
 C44 C 0.15507 -0.00084 0.42228
 C45 C 0.18179 0.03706 0.36401
 C46 C 0.22847 0.10311 0.37727
 C47 C 0.25359 0.12364 0.44638
 C48 C 0.23248 0.07512 0.50034
 H49 H 0.19694 -0.13867 0.45772
 H50 H 0.16657 0.01964 0.62593
 H51 H 0.11878 -0.04951 0.41660
 H52 H 0.25575 0.08423 0.55190
 H53 H 0.23927 -0.21182 0.66753
 H54 H 0.24368 0.13773 0.33375
 C55 C 0.77878 -0.11276 0.48214
 C56 C 0.79242 -0.03483 0.47475
 C57 C 0.80558 -0.00399 0.40849
 C58 C 0.79849 -0.04934 0.34848
 C59 C 0.76047 -0.11988 0.35657
 C60 C 0.75344 -0.15425 0.42497
 C61 C 0.77430 0.01580 0.53304
 C62 C 0.78967 -0.00478 0.60199
 C63 C 0.77469 0.04605 0.65703
 C64 C 0.73885 0.11682 0.64125
 C65 C 0.72091 0.13556 0.57124
 C66 C 0.73741 0.08371 0.51873
 H67 H 0.76969 -0.13593 0.53408
 H68 H 0.82265 0.05566 0.40371
 H69 H 0.82163 -0.05613 0.61227
 H70 H 0.72296 0.09798 0.46535
 H71 H 0.73518 -0.14310 0.31046
 H72 H 0.72714 0.15819 0.68177
 C73 C 0.48188 0.32002 1.09090
 C74 C 0.47525 0.29141 1.02401
 C75 C 0.41183 0.25446 1.00156
 C76 C 0.35507 0.23906 1.04830
 C77 C 0.36255 0.26816 1.11894
 C78 C 0.42838 0.30735 1.14017
 C79 C 0.53864 0.29478 0.97953
 C80 C 0.60453 0.26382 1.00244
 C81 C 0.66434 0.25955 0.95769
 C82 C 0.65656 0.28948 0.88849
 C83 C 0.58961 0.32454 0.86714
 C84 C 0.53164 0.32557 0.91368
 H85 H 0.53186 0.34960 1.10586
 H86 H 0.40826 0.23420 0.94782
 H87 H 0.60739 0.23765 1.05386
 H88 H 0.47887 0.34760 0.89772
 H89 H 0.32016 0.25706 1.15678
 H90 H 0.70102 0.28446 0.85157
 C91 C 0.52019 0.70060 1.09070
 C92 C 0.53729 0.73413 1.02664
 C93 C 0.60822 0.76028 1.01329
 C94 C 0.66063 0.76095 1.06667
 C95 C 0.63953 0.73444 1.13388
 C96 C 0.57051 0.70071 1.14456
 C97 C 0.47901 0.74370 0.97530
 C98 C 0.41113 0.77103 0.99711
 C99 C 0.34999 0.76823 0.95342
 C100 C 0.36063 0.73682 0.88370
 C101 C 0.43242 0.71431 0.85939
 C102 C 0.49005 0.71987 0.90685
 H103 H 0.46631 0.67677 1.09967
 H104 H 0.62071 0.78652 0.96332
 H105 H 0.40537 0.79019 1.05093
 H106 H 0.54457 0.70319 0.89122
 H107 H 0.67457 0.74144 1.17845
 H108 H 0.31470 0.73262 0.84827
 B109 B 1.00916 1.08994 0.03823
 B110 B 1.05436 1.00552 0.07159
 B111 B 0.95801 1.01306 0.07414
 B112 B 0.92711 1.06003 0.00034
 B113 B 1.00406 1.08553 -0.05204
 B114 B 1.08425 1.04980 -0.00759
 B115 B 0.99887 0.92106 -0.04740
 B116 B 0.95537 1.00590 -0.07806
 B117 B 1.05025 0.99898 -0.07756
 B118 B 1.07664 0.94621 0.00078
 B119 B 0.99859 0.92567 0.04767
 B120 B 0.92216 0.95860 -0.00017
 B121 B 0.58882 0.51161 0.45782
 B122 B 0.58521 0.51251 0.55293
 B123 B 0.54929 0.58981 0.50362
 B124 B 0.50652 0.54940 0.42777
 B125 B 0.51732 0.44866 0.42758
 B126 B 0.56704 0.42646 0.50455
 B127 B 0.43452 0.49015 0.55252
 B128 B 0.43516 0.48375 0.45646
 B129 B 0.46788 0.41069 0.50539
 B130 B 0.51411 0.45186 0.57925
 B131 B 0.50343 0.55588 0.57622
 B132 B 0.44958 0.57274 0.49916
 C133 C 1.07712 1.18053 0.12288
 C134 C 1.11085 1.24516 0.14798
 C135 C 1.09133 1.31682 0.12434
 C136 C 1.03824 1.32315 0.07201
 C137 C 1.00108 1.25589 0.04718
 C138 C 1.02310 1.17925 0.07166
 C139 C 0.94362 1.27072 0.00087
 N140 N 0.92722 1.34282 -0.02122
 N141 N 0.96470 1.40402 0.00012
 C142 C 1.02020 1.39647 0.04581
 H143 H 1.09037 1.13123 0.15049
 H144 H 1.14822 1.23833 0.19104
 H145 H 0.91252 1.22586 -0.02043
 H146 H 1.04946 1.44780 0.06211
 C147 C 1.05236 0.80610 0.13545
 C148 C 1.04318 0.73267 0.16911
 C149 C 0.97546 0.69081 0.16637
 C150 C 0.92232 0.72721 0.12431
 C151 C 0.92692 0.80851 0.11868
 C152 C 0.99315 0.84520 0.10199
 C153 C 0.87958 0.84398 0.16504
 N154 N 0.81774 0.80739 0.18533
 N155 N 0.80266 0.73716 0.16038
 C156 C 0.85258 0.69827 0.12185
 H157 H 1.10597 0.83157 0.13664
 H158 H 1.08894 0.71143 0.19887
 H159 H 0.89954 0.89087 0.19464
 H160 H 0.84179 0.63970 0.10462
 C161 C 1.05731 1.23987 -0.11665
 C162 C 1.04163 1.30619 -0.15705
 C163 C 0.97555 1.31747 -0.19417
 C164 C 0.92676 1.25723 -0.19846
 C165 C 0.92841 1.19885 -0.14854
 C166 C 0.99799 1.17780 -0.10653
 C167 C 0.86354 1.16331 -0.14054
 N168 N 0.80520 1.17278 -0.18301
 N169 N 0.80979 1.21784 -0.23831
 C170 C 0.87189 1.25609 -0.25068
 H171 H 1.03243 1.19600 -0.10283
 H172 H 1.08252 1.35114 -0.15706
 H173 H 0.86642 1.11968 -0.10855
 H174 H 0.87550 1.29031 -0.29750
 C175 C 1.08682 0.82404 -0.12116
 C176 C 1.11120 0.76286 -0.16210
 C177 C 1.06333 0.72231 -0.20399
 C178 C 0.99291 0.75637 -0.20944
 C179 C 0.96426 0.80425 -0.15387
 C180 C 1.01251 0.84110 -0.10339
 C181 C 0.89182 0.82468 -0.16131
 N182 N 0.85732 0.81935 -0.22378
 N183 N 0.89002 0.78958 -0.27963
 C184 C 0.95654 0.75728 -0.27446
 H185 H 1.13070 0.86169 -0.10760
 H186 H 1.16926 0.75373 -0.16466
 H187 H 0.86415 0.85040 -0.12043
 H188 H 0.98163 0.73502 -0.32163
 C189 C 1.07451 0.95977 0.20820
 C190 C 1.10136 0.96396 0.27769
 C191 C 1.16421 1.00725 0.29482
 C192 C 1.20999 1.01909 0.23859
 C193 C 1.17966 1.02828 0.17046
 C194 C 1.10644 0.99886 0.15080
 C195 C 1.22259 1.07639 0.13079
 N196 N 1.29467 1.08797 0.14384
 N197 N 1.32682 1.05873 0.19979
 C198 C 1.28583 1.02476 0.24908
 H199 H 1.02334 0.93101 0.20241
 H200 H 1.06870 0.93707 0.31742
 H201 H 1.19661 1.11428 0.09896
 H202 H 1.31137 1.00633 0.29728
 C203 C 1.06232 0.94044 -0.20981
 C204 C 1.10105 0.90530 -0.26329
 C205 C 1.17411 0.92149 -0.27353
 C206 C 1.20394 0.98394 -0.23511
 C207 C 1.16067 1.02264 -0.18357
 C208 C 1.09520 0.98682 -0.15700
 C209 C 1.18043 1.09904 -0.16870
 N210 N 1.24471 1.12844 -0.19145
 N211 N 1.28982 1.08734 -0.23135
 C212 C 1.27159 1.01575 -0.25398
 H213 H 1.00645 0.92468 -0.20843
 H214 H 1.07205 0.86803 -0.29964
 H215 H 1.14546 1.13546 -0.13931
 H216 H 1.30793 0.98600 -0.28964
 C217 C 0.83346 1.01008 0.15590
 C218 C 0.79648 0.98802 0.21835
 C219 C 0.83478 0.97794 0.28157
 C220 C 0.90730 1.00642 0.28301
 C221 C 0.93768 1.04195 0.22249
 C222 C 0.90983 1.02361 0.15309
 C223 C 0.98447 1.10386 0.23805
 N224 N 1.01364 1.11363 0.30273
 N225 N 0.99862 1.06525 0.35433
 C226 C 0.94791 1.00949 0.34565
 H227 H 0.80151 1.01740 0.11012
 H228 H 0.73860 0.97649 0.21674
 H229 H 0.98878 1.15109 0.20470
 H230 H 0.93745 0.97126 0.38890
 C231 C 0.84369 0.98556 -0.16835
 C232 C 0.79685 0.99840 -0.22509
 C233 C 0.82022 1.03827 -0.28385
 C234 C 0.89411 1.06012 -0.28748
 C235 C 0.94079 1.05238 -0.22752
 C236 C 0.91565 1.01253 -0.16259
 C237 C 1.00820 1.09078 -0.23555
 N238 N 1.03093 1.12235 -0.29622
 N239 N 0.98914 1.12290 -0.35241
 C240 C 0.92131 1.09398 -0.34989
 H241 H 0.82158 0.95562 -0.12599
 H242 H 0.74156 0.97651 -0.22276
 H243 H 1.04323 1.09970 -0.19412
 H244 H 0.88920 1.09972 -0.39676
 C245 C 1.16563 1.18235 -0.00579
 C246 C 1.22601 1.22571 0.01761
 C247 C 1.29504 1.19297 0.02319
 C248 C 1.30308 1.11786 -0.00764
 C249 C 1.23974 1.07259 -0.02763
 C250 C 1.16596 1.10092 -0.01601
 C251 C 1.25386 1.00342 -0.06328
 N252 N 1.32280 0.97964 -0.07666
 N253 N 1.38031 1.01797 -0.05270
 C254 C 1.37263 1.08434 -0.01616
 H255 H 1.11723 1.21407 -0.00871
 H256 H 1.21821 1.28589 0.03135
 H257 H 1.21062 0.96591 -0.07897
 H258 H 1.42149 1.11043 0.00460
 C259 C 0.78591 1.09073 -0.02737
 C260 C 0.72967 1.13976 -0.04804
 C261 C 0.72396 1.21342 -0.02034
 C262 C 0.76720 1.22890 0.03979
 C263 C 0.82533 1.17682 0.05909
 C264 C 0.84493 1.11177 0.01426
 C265 C 0.86295 1.19531 0.11992
 N266 N 0.84792 1.25977 0.15769
 N267 N 0.79631 1.30889 0.13824
 C268 C 0.75594 1.29609 0.08010
 H269 H 0.79513 1.04459 -0.06069
 H270 H 0.69277 1.12070 -0.08905
 H271 H 0.90569 1.16050 0.13568
 H272 H 0.71528 1.33841 0.06614
 C273 C 1.21371 0.90116 0.04039
 C274 C 1.27979 0.86319 0.02468
 C275 C 1.28163 0.79634 -0.01788
 C276 C 1.21542 0.75491 -0.01939
 C277 C 1.14800 0.79171 0.00198
 C278 C 1.14621 0.87629 0.01437
 C279 C 1.08584 0.74273 0.00165
 N280 N 1.09091 0.66670 -0.01445
 N281 N 1.15372 0.63406 -0.03200
 C282 C 1.21579 0.67566 -0.03581
 H283 H 1.21831 0.95705 0.06216
 H284 H 1.32972 0.89290 0.03860
 H285 H 1.03189 0.76423 0.00779
 H286 H 1.26549 0.64555 -0.04911
 C287 C 0.84244 0.82266 -0.00349
 C288 C 0.78081 0.77584 0.01089
 C289 C 0.72500 0.80440 0.05521
 C290 C 0.72708 0.88415 0.07112
 C291 C 0.76565 0.92827 0.02111
 C292 C 0.83990 0.90441 0.00313
 C293 C 0.71167 0.95131 -0.02860
 N294 N 0.64548 0.97669 -0.00562
 N295 N 0.62466 0.96483 0.06021
 C296 C 0.66535 0.91868 0.10163
 H297 H 0.89203 0.79424 -0.01989
 H298 H 0.78112 0.71563 -0.00458
 H299 H 0.72044 0.95259 -0.08391
 H300 H 0.64198 0.89698 0.14962
 C301 C 0.71616 0.46201 0.38927
 C302 C 0.78358 0.46580 0.35332
 C303 C 0.81145 0.53561 0.32799
 C304 C 0.76889 0.60050 0.34129
 C305 C 0.69663 0.59408 0.36856
 C306 C 0.66951 0.52507 0.40486
 C307 C 0.65553 0.65952 0.35654
 N308 N 0.67810 0.71832 0.31600
 N309 N 0.74799 0.72593 0.30140
 C310 C 0.79557 0.67425 0.32519
 H311 H 0.70514 0.40790 0.40953
 H312 H 0.81322 0.41257 0.34495
 H313 H 0.61078 0.66947 0.38644
 H314 H 0.85286 0.68826 0.32249
 C315 C 0.31358 0.51106 0.38736
 C316 C 0.26634 0.50797 0.33233
 C317 C 0.25038 0.43802 0.30144
 C318 C 0.28876 0.37226 0.32094
 C319 C 0.35043 0.37999 0.36529
 C320 C 0.36473 0.45468 0.40242
 C321 C 0.39533 0.31333 0.36552
 N322 N 0.37808 0.24750 0.33113
 N323 N 0.31585 0.24029 0.29726
 C324 C 0.26873 0.29924 0.29461
 H325 H 0.30191 0.55562 0.42119
 H326 H 0.23311 0.55836 0.32174
 H327 H 0.44582 0.31126 0.39169
 H328 H 0.21691 0.28813 0.27112
 C329 C 0.67326 0.44455 0.64958
 C330 C 0.73652 0.43119 0.68840
 C331 C 0.78619 0.48995 0.69953
 C332 C 0.76153 0.56538 0.68704
 C333 C 0.69517 0.57880 0.64867
 C334 C 0.65490 0.51521 0.61659
 C335 C 0.66896 0.65419 0.65162
 N336 N 0.70542 0.71151 0.68471
 N337 N 0.76795 0.69849 0.71723
 C338 C 0.79770 0.62746 0.71906
 H339 H 0.64705 0.39315 0.63562
 H340 H 0.75047 0.37232 0.70161
 H341 H 0.61821 0.66751 0.63087
 H342 H 0.84663 0.61924 0.74964
 C343 C 0.35693 0.55796 0.65311
 C344 C 0.30279 0.57658 0.69921
 C345 C 0.24998 0.52334 0.71168
 C346 C 0.26827 0.44489 0.69822
 C347 C 0.33192 0.42584 0.65707
 C348 C 0.37082 0.48686 0.62101
 C349 C 0.35285 0.34818 0.65673
 N350 N 0.31146 0.29376 0.68850
 N351 N 0.25088 0.31171 0.72317
 C352 C 0.22823 0.38567 0.72942
 H353 H 0.37498 0.60599 0.62928
 H354 H 0.29405 0.63726 0.71042
 H355 H 0.40220 0.32984 0.63325
 H356 H 0.18204 0.39846 0.76240
 C357 C 0.55518 0.56277 0.29335
 C358 C 0.56845 0.59391 0.22789
 C359 C 0.54778 0.66828 0.21271
 C360 C 0.51260 0.71209 0.26465
 C361 C 0.49903 0.67961 0.33248
 C362 C 0.51248 0.59815 0.34765
 C363 C 0.48925 0.73388 0.38601
 N364 N 0.48056 0.81004 0.37266
 N365 N 0.48448 0.83778 0.30819
 C366 C 0.49984 0.79111 0.25343
 H367 H 0.58604 0.51144 0.30176
 H368 H 0.60045 0.56113 0.19042
 H369 H 0.48524 0.71520 0.43840
 H370 H 0.50619 0.81701 0.20243
 C371 C 0.52947 0.59785 0.71421
 C372 C 0.50345 0.62397 0.77949
 C373 C 0.45293 0.68475 0.78627
 C374 C 0.43725 0.72452 0.72408
 C375 C 0.45955 0.69357 0.65692
 C376 C 0.49841 0.61956 0.64988
 C377 C 0.43626 0.73518 0.59891
 N378 N 0.40386 0.80505 0.60559
 N379 N 0.38720 0.83486 0.66759
 C380 C 0.40186 0.79645 0.72706
 H381 H 0.57110 0.55473 0.71579
 H382 H 0.52433 0.59585 0.82573
 H383 H 0.45453 0.71899 0.54850
 H384 H 0.38755 0.82396 0.77593
 C385 C 0.46166 0.44382 0.29112
 C386 C 0.43304 0.40935 0.23070
 C387 C 0.45062 0.33462 0.21202
 C388 C 0.51022 0.30115 0.24843
 C389 C 0.54409 0.33957 0.30793
 C390 C 0.51267 0.40916 0.33959
 C391 C 0.60861 0.30660 0.33095
 N392 N 0.63411 0.23897 0.30482
 N393 N 0.59943 0.20103 0.25428
 C394 C 0.53812 0.22973 0.22537
 H395 H 0.43487 0.49740 0.30212
 H396 H 0.39382 0.44110 0.19969
 H397 H 0.63849 0.33316 0.36990
 H398 H 0.51231 0.19704 0.18378
 C399 C 0.49879 0.43840 0.72216
 C400 C 0.53084 0.41897 0.78646
 C401 C 0.57161 0.35084 0.79467
 C402 C 0.57016 0.29908 0.73815
 C403 C 0.54307 0.32453 0.67209
 C404 C 0.51873 0.40267 0.65916
 C405 C 0.53441 0.26937 0.62233
 N406 N 0.54821 0.19368 0.63360
 N407 N 0.57459 0.16972 0.69434
 C408 C 0.58741 0.22026 0.74697
 H409 H 0.45909 0.48328 0.72291
 H410 H 0.51906 0.45497 0.83153
 H411 H 0.51438 0.28922 0.57605
 H412 H 0.60675 0.19713 0.79578
 C413 C 0.68399 0.66209 0.50389
 C414 C 0.73190 0.71954 0.47804
 C415 C 0.70441 0.78615 0.44443
 C416 C 0.63057 0.80385 0.45871
 C417 C 0.59110 0.75490 0.50536
 C418 C 0.60683 0.67271 0.50765
 C419 C 0.56850 0.79745 0.56435
 N420 N 0.55025 0.87315 0.55845
 N421 N 0.56427 0.91218 0.50028
 C422 C 0.60483 0.87960 0.44903
 H423 H 0.70810 0.60691 0.51475
 H424 H 0.78991 0.70790 0.47736
 H425 H 0.56548 0.77270 0.61531
 H426 H 0.62451 0.91564 0.40708
 C427 C 0.60174 0.28278 0.48287
 C428 C 0.63141 0.21299 0.50434
 C429 C 0.69280 0.21166 0.54779
 C430 C 0.73484 0.27958 0.55141
 C431 C 0.70426 0.35104 0.52877
 C432 C 0.62817 0.35359 0.50643
 C433 C 0.75209 0.41515 0.52911
 N434 N 0.82293 0.40785 0.54801
 N435 N 0.85027 0.34091 0.56875
 C436 C 0.80838 0.27689 0.57207
 H437 H 0.55506 0.28224 0.44948
 H438 H 0.60391 0.15995 0.48971
 H439 H 0.73381 0.47191 0.51652
 H440 H 0.83387 0.22389 0.58828
 C441 C 0.30685 0.62242 0.53109
 C442 C 0.26545 0.68428 0.55647
 C443 C 0.27455 0.75738 0.52785
 C444 C 0.31677 0.75948 0.46430
 C445 C 0.35325 0.69091 0.44183
 C446 C 0.37220 0.63368 0.49253
 C447 C 0.35154 0.67328 0.36978
 N448 N 0.33368 0.73359 0.32498
 N449 N 0.32320 0.80762 0.34878
 C450 C 0.31933 0.82214 0.41824
 H451 H 0.28818 0.56684 0.54573
 H452 H 0.22317 0.67345 0.59477
 H453 H 0.33722 0.69525 0.31958
 H454 H 0.31270 0.88112 0.43544
 C455 C 0.42149 0.24686 0.49938
 C456 C 0.37524 0.18467 0.47999
 C457 C 0.30130 0.19370 0.46646
 C458 C 0.27232 0.26613 0.48507
 C459 C 0.31877 0.33191 0.50415
 C460 C 0.40088 0.32794 0.50700
 C461 C 0.27896 0.40051 0.51419
 N462 N 0.20531 0.40406 0.51199
 N463 N 0.16477 0.34274 0.49810
 C464 C 0.19583 0.27423 0.48379
 H465 H 0.47536 0.22561 0.49869
 H466 H 0.39912 0.12805 0.47229
 H467 H 0.30493 0.45323 0.51910
 H468 H 0.15994 0.22659 0.47132
   
