data_POSCAR
  _audit_creation_date              2014-09-24
  _audit_creation_method            'ToBaCCo'
  _symmetry_space_group_name_H-M    'P1'
  _symmetry_Int_Tables_number       1
  _symmetry_cell_setting            triclinic
  loop_
  _symmetry_equiv_pos_as_xyz
 x,y,z
_cell_length_a 48.7477
_cell_length_b 48.7341
_cell_length_c 48.7917
_cell_angle_alpha 90.004500
_cell_angle_beta 89.995000
_cell_angle_gamma 90.035300
loop_
  _atom_site_label
  _atom_site_type_symbol
  _atom_site_fract_x
  _atom_site_fract_y
  _atom_site_fract_z
N1 N 0.16339 0.22856 0.23516
 N2 N 0.17089 0.20687 0.24926
 C3 C 0.15334 0.20336 0.27033
 C4 C 0.13375 0.22401 0.26940
 C5 C 0.14091 0.23958 0.24670
 H6 H 0.15482 0.18706 0.28526
 H7 H 0.13062 0.25763 0.23902
 Cu8 Cu 0.20298 0.18564 0.23846
 Cu9 Cu 0.18331 0.24108 0.20286
 Cu10 Cu 0.24049 0.20327 0.18358
 N11 N 0.23508 0.16441 0.22764
 N12 N 0.24962 0.17151 0.20612
 C13 C 0.27055 0.15380 0.20307
 C14 C 0.26919 0.13439 0.22382
 C15 C 0.24631 0.14187 0.23903
 H16 H 0.28560 0.15507 0.18686
 H17 H 0.23843 0.13175 0.25710
 N18 N 0.22784 0.23604 0.16346
 N19 N 0.20612 0.25039 0.17080
 C20 C 0.20285 0.27137 0.15315
 C21 C 0.22351 0.27028 0.13367
 C22 C 0.23895 0.24753 0.14094
 H23 H 0.18659 0.28636 0.15446
 H24 H 0.25700 0.23987 0.13065
 H25 H 0.19898 0.20329 0.19186
 H26 H 0.22102 0.22533 0.21401
 N27 N 0.66380 0.72882 0.73512
 N28 N 0.67128 0.70708 0.74918
 C29 C 0.65377 0.70358 0.77025
 C30 C 0.63416 0.72421 0.76936
 C31 C 0.64132 0.73983 0.74669
 H32 H 0.65525 0.68723 0.78512
 H33 H 0.63103 0.75791 0.73906
 Cu34 Cu 0.70333 0.68586 0.73829
 Cu35 Cu 0.68371 0.74138 0.70282
 Cu36 Cu 0.74087 0.70357 0.68347
 N37 N 0.73541 0.66466 0.72747
 N38 N 0.74998 0.67180 0.70595
 C39 C 0.77088 0.65408 0.70286
 C40 C 0.76951 0.63463 0.72357
 C41 C 0.74665 0.64211 0.73882
 H42 H 0.78594 0.65537 0.68666
 H43 H 0.73877 0.63196 0.75685
 N44 N 0.72825 0.73635 0.66342
 N45 N 0.70653 0.75071 0.67078
 C46 C 0.70329 0.77172 0.65317
 C47 C 0.72396 0.77063 0.63371
 C48 C 0.73938 0.74786 0.64093
 H49 H 0.68705 0.78671 0.65450
 H50 H 0.75742 0.74019 0.63064
 H51 H 0.69937 0.70361 0.69174
 H52 H 0.72144 0.72559 0.71394
 N53 N 0.33581 0.77158 0.73518
 N54 N 0.32870 0.79362 0.74896
 C55 C 0.34631 0.79710 0.76995
 C56 C 0.36557 0.77612 0.76934
 C57 C 0.35811 0.76033 0.74689
 H58 H 0.34516 0.81370 0.78458
 H59 H 0.36810 0.74200 0.73948
 Cu60 Cu 0.29711 0.81562 0.73797
 Cu61 Cu 0.31578 0.75904 0.70303
 Cu62 Cu 0.25877 0.79682 0.68378
 N63 N 0.26448 0.83619 0.72727
 N64 N 0.24964 0.82870 0.70608
 C65 C 0.22853 0.84623 0.70311
 C66 C 0.23002 0.86602 0.72359
 C67 C 0.25325 0.85880 0.73854
 H68 H 0.21332 0.84453 0.68711
 H69 H 0.26149 0.86913 0.75630
 N70 N 0.27122 0.76396 0.66374
 N71 N 0.29292 0.74960 0.67109
 C72 C 0.29618 0.72858 0.65347
 C73 C 0.27552 0.72965 0.63399
 C74 C 0.26010 0.75244 0.64123
 H75 H 0.31246 0.71363 0.65478
 H76 H 0.24210 0.76014 0.63089
 H77 H 0.30044 0.79681 0.69175
 H78 H 0.27849 0.77542 0.71473
 N79 N 0.83692 0.27131 0.23564
 N80 N 0.82945 0.29307 0.24969
 C81 C 0.84690 0.29656 0.27080
 C82 C 0.86657 0.27590 0.26999
 C83 C 0.85938 0.26030 0.24724
 H84 H 0.84527 0.31292 0.28565
 H85 H 0.86959 0.24224 0.23949
 Cu86 Cu 0.79734 0.31426 0.23899
 Cu87 Cu 0.81706 0.25878 0.20334
 Cu88 Cu 0.75996 0.29661 0.18398
 N89 N 0.76537 0.33552 0.22797
 N90 N 0.75081 0.32835 0.20645
 C91 C 0.72991 0.34607 0.20336
 C92 C 0.73124 0.36551 0.22407
 C93 C 0.75409 0.35804 0.23933
 H94 H 0.71490 0.34481 0.18713
 H95 H 0.76190 0.36818 0.25742
 N96 N 0.77259 0.26384 0.16390
 N97 N 0.79429 0.24946 0.17127
 C98 C 0.79755 0.22847 0.15362
 C99 C 0.77690 0.22959 0.13412
 C100 C 0.76148 0.25236 0.14139
 H101 H 0.81378 0.21347 0.15494
 H102 H 0.74345 0.26005 0.13109
 H103 H 0.80146 0.29658 0.19236
 H104 H 0.77937 0.27454 0.21444
 N105 N 0.83646 0.72866 0.26486
 N106 N 0.82932 0.70656 0.25119
 C107 C 0.84679 0.70303 0.23009
 C108 C 0.86605 0.72404 0.23059
 C109 C 0.85871 0.73989 0.25303
 H110 H 0.84552 0.68645 0.21546
 H111 H 0.86869 0.75829 0.26033
 Cu112 Cu 0.79752 0.68521 0.26251
 Cu113 Cu 0.81645 0.74142 0.29705
 Cu114 Cu 0.75929 0.70348 0.31648
 N115 N 0.76528 0.66406 0.27294
 N116 N 0.75039 0.67152 0.29411
 C117 C 0.72929 0.65398 0.29700
 C118 C 0.73089 0.63432 0.27651
 C119 C 0.75407 0.64149 0.26159
 H120 H 0.71395 0.65555 0.31290
 H121 H 0.76217 0.63113 0.24377
 N122 N 0.77180 0.73643 0.33636
 N123 N 0.79351 0.75083 0.32898
 C124 C 0.79676 0.77184 0.34661
 C125 C 0.77611 0.77069 0.36609
 C126 C 0.76070 0.74791 0.35887
 H127 H 0.81303 0.78681 0.34531
 H128 H 0.74272 0.74015 0.36923
 H129 H 0.80080 0.70387 0.30870
 H130 H 0.77886 0.72523 0.28584
 N131 N 0.33652 0.22863 -0.23553
 N132 N 0.32900 0.20694 -0.24966
 C133 C 0.34665 0.20334 -0.27063
 C134 C 0.36640 0.22398 -0.26975
 C135 C 0.35910 0.23959 -0.24701
 H136 H 0.34513 0.18690 -0.28538
 H137 H 0.36934 0.25763 -0.23920
 Cu138 Cu 0.29680 0.18573 -0.23883
 Cu139 Cu 0.31644 0.24117 -0.20324
 Cu140 Cu 0.25919 0.20336 -0.18398
 N141 N 0.26466 0.16446 -0.22800
 N142 N 0.25011 0.17157 -0.20646
 C143 C 0.22923 0.15380 -0.20332
 C144 C 0.23059 0.13432 -0.22400
 C145 C 0.25346 0.14181 -0.23925
 H146 H 0.21419 0.15507 -0.18710
 H147 H 0.26140 0.13158 -0.25721
 N148 N 0.27173 0.23620 -0.16393
 N149 N 0.29348 0.25058 -0.17123
 C150 C 0.29665 0.27158 -0.15357
 C151 C 0.27592 0.27046 -0.13414
 C152 C 0.26053 0.24768 -0.14146
 H153 H 0.31292 0.28658 -0.15480
 H154 H 0.24248 0.23996 -0.13120
 H155 H 0.30066 0.20332 -0.19223
 H156 H 0.27865 0.22539 -0.21434
 N157 N 0.66372 0.27109 -0.23536
 N158 N 0.67116 0.29282 -0.24945
 C159 C 0.65363 0.29628 -0.27052
 C160 C 0.63395 0.27558 -0.26968
 C161 C 0.64123 0.26001 -0.24692
 H162 H 0.65520 0.31267 -0.28533
 H163 H 0.63106 0.24192 -0.23915
 Cu164 Cu 0.70326 0.31414 -0.23857
 Cu165 Cu 0.68375 0.25863 -0.20301
 Cu166 Cu 0.74090 0.29657 -0.18372
 N167 N 0.73537 0.33543 -0.22777
 N168 N 0.74994 0.32832 -0.20625
 C169 C 0.77085 0.34607 -0.20316
 C170 C 0.76948 0.36551 -0.22386
 C171 C 0.74662 0.35800 -0.23911
 H172 H 0.78590 0.34481 -0.18696
 H173 H 0.73874 0.36814 -0.25714
 N174 N 0.72835 0.26379 -0.16361
 N175 N 0.70665 0.24936 -0.17092
 C176 C 0.70349 0.22836 -0.15324
 C177 C 0.72421 0.22954 -0.13380
 C178 C 0.73955 0.25235 -0.14112
 H179 H 0.68728 0.21332 -0.15451
 H180 H 0.75759 0.26011 -0.13087
 H181 H 0.69946 0.29649 -0.19193
 H182 H 0.72153 0.27453 -0.21413
 N183 N 0.16367 0.77174 0.26483
 N184 N 0.17085 0.79381 0.25111
 C185 C 0.15336 0.79728 0.23000
 C186 C 0.13408 0.77628 0.23055
 C187 C 0.14142 0.76049 0.25303
 H188 H 0.15463 0.81383 0.21533
 H189 H 0.13142 0.74212 0.26037
 Cu190 Cu 0.20269 0.81518 0.26245
 Cu191 Cu 0.18362 0.75901 0.29705
 Cu192 Cu 0.24080 0.79692 0.31647
 N193 N 0.23500 0.83635 0.27287
 N194 N 0.24984 0.82890 0.29406
 C195 C 0.27097 0.84643 0.29698
 C196 C 0.26950 0.86616 0.27644
 C197 C 0.24626 0.85891 0.26150
 H198 H 0.28620 0.84473 0.31296
 H199 H 0.23809 0.86915 0.24365
 N200 N 0.22821 0.76397 0.33644
 N201 N 0.20649 0.74959 0.32904
 C202 C 0.20316 0.72861 0.34668
 C203 C 0.22376 0.72971 0.36622
 C204 C 0.23924 0.75247 0.35899
 H205 H 0.18686 0.71366 0.34537
 H206 H 0.25722 0.76019 0.36937
 H207 H 0.19924 0.79651 0.30864
 H208 H 0.22118 0.77509 0.28584
 N209 N 0.47841 0.41315 0.48543
 N210 N 0.45633 0.42025 0.49915
 C211 C 0.45286 0.40275 0.52026
 C212 C 0.47387 0.38351 0.51973
 C213 C 0.48967 0.39091 0.49725
 H214 H 0.43631 0.40400 0.53492
 H215 H 0.50806 0.38096 0.48992
 Cu216 Cu 0.43492 0.45205 0.48784
 Cu217 Cu 0.49107 0.43324 0.45318
 Cu218 Cu 0.45307 0.49032 0.43379
 N219 N 0.41372 0.48426 0.47741
 N220 N 0.42116 0.49915 0.45622
 C221 C 0.40359 0.52022 0.45332
 C222 C 0.38395 0.51860 0.47382
 C223 C 0.39115 0.49545 0.48877
 H224 H 0.40515 0.53554 0.43740
 H225 H 0.38082 0.48736 0.50661
 N226 N 0.48601 0.47789 0.41381
 N227 N 0.50044 0.45621 0.42118
 C228 C 0.52141 0.45300 0.40351
 C229 C 0.52024 0.47364 0.38399
 C230 C 0.49745 0.48901 0.39126
 H231 H 0.53640 0.43675 0.40479
 H232 H 0.48966 0.50698 0.38091
 H233 H 0.47486 0.47084 0.46439
 H234 H 0.45349 0.44884 0.44158
 N235 N -0.02150 -0.08627 0.98526
 N236 N -0.04314 -0.07875 0.99943
 C237 C -0.04663 -0.09627 1.02049
 C238 C -0.02603 -0.11589 1.01954
 C239 C -0.01047 -0.10877 0.99681
 H240 H -0.06298 -0.09479 1.03535
 H241 H 0.00754 -0.11911 0.98910
 Cu242 Cu -0.06472 -0.04698 0.98857
 Cu243 Cu -0.00913 -0.06638 0.95287
 Cu244 Cu -0.04692 -0.00931 0.93362
 N245 N -0.08555 -0.01469 0.97782
 N246 N -0.07850 -0.00021 0.95625
 C247 C -0.09622 0.02070 0.95315
 C248 C -0.11557 0.01933 0.97392
 C249 C -0.10807 -0.00348 0.98919
 H250 H -0.09499 0.03570 0.93690
 H251 H -0.11819 -0.01140 1.00722
 N252 N -0.01427 -0.02190 0.91342
 N253 N 0.00011 -0.04361 0.92074
 C254 C 0.02105 -0.04683 0.90303
 C255 C 0.01990 -0.02615 0.88355
 C256 C -0.00286 -0.01076 0.89088
 H257 H 0.03606 -0.06307 0.90432
 H258 H -0.01058 0.00729 0.88061
 H259 H -0.02508 -0.02866 0.96418
 H260 H -0.04709 -0.05077 0.94192
 N261 N 1.02163 0.58633 0.98525
 N262 N 1.04327 0.57879 0.99939
 C263 C 1.04685 0.59636 1.02042
 C264 C 1.02624 0.61598 1.01950
 C265 C 1.01065 0.60884 0.99680
 H266 H 1.06321 0.59490 1.03527
 H267 H 0.99260 0.61914 0.98914
 Cu268 Cu 1.06464 0.54688 0.98852
 Cu269 Cu 1.00917 0.56642 0.95290
 Cu270 Cu 1.04701 0.50932 0.93355
 N271 N 1.08570 0.51477 0.97769
 N272 N 1.07867 0.50029 0.95612
 C273 C 1.09644 0.47944 0.95298
 C274 C 1.11581 0.48083 0.97372
 C275 C 1.10831 0.50363 0.98901
 H276 H 1.09517 0.46441 0.93675
 H277 H 1.11845 0.51154 1.00703
 N278 N 1.01426 0.52188 0.91349
 N279 N 0.99987 0.54358 0.92083
 C280 C 0.97893 0.54683 0.90314
 C281 C 0.98011 0.52618 0.88363
 C282 C 1.00285 0.51077 0.89093
 H283 H 0.96395 0.56308 0.90442
 H284 H 1.01060 0.49276 0.88062
 H285 H 1.02496 0.52857 0.96404
 H286 H 1.04702 0.55071 0.94192
 N287 N 0.52175 0.08634 0.48535
 N288 N 0.54348 0.07889 0.49941
 C289 C 0.54705 0.09643 0.52045
 C290 C 0.52641 0.11603 0.51961
 C291 C 0.51076 0.10885 0.49694
 H292 H 0.56342 0.09495 0.53529
 H293 H 0.49267 0.11912 0.48934
 Cu294 Cu 0.56465 0.04670 0.48889
 Cu295 Cu 0.50926 0.06630 0.45308
 Cu296 Cu 0.54712 0.00932 0.43363
 N297 N 0.58598 0.01493 0.47758
 N298 N 0.57888 0.00040 0.45604
 C299 C 0.59669 -0.02041 0.45285
 C300 C 0.61613 -0.01896 0.47353
 C301 C 0.60861 0.00382 0.48884
 H302 H 0.59542 -0.03544 0.43663
 H303 H 0.61875 0.01171 0.50689
 N304 N 0.51428 0.02177 0.41364
 N305 N 0.49987 0.04344 0.42103
 C306 C 0.47888 0.04664 0.40338
 C307 C 0.48005 0.02600 0.38385
 C308 C 0.50284 0.01063 0.39111
 H309 H 0.46387 0.06287 0.40470
 H310 H 0.51060 -0.00736 0.38078
 H311 H 0.52516 0.02842 0.46420
 H312 H 0.54729 0.05065 0.44222
 N313 N -0.02197 0.08665 0.51461
 N314 N -0.04358 0.07906 0.50043
 C315 C -0.04719 0.09666 0.47945
 C316 C -0.02666 0.11637 0.48044
 C317 C -0.01107 0.10926 0.50313
 H318 H -0.06353 0.09516 0.46459
 H319 H 0.00694 0.11964 0.51082
 Cu320 Cu -0.06483 0.04684 0.51068
 Cu321 Cu -0.00949 0.06678 0.54695
 Cu322 Cu -0.04593 0.00855 0.56457
 N323 N -0.08639 0.01538 0.52256
 N324 N -0.07909 0.00069 0.54392
 C325 C -0.09692 -0.02010 0.54720
 C326 C -0.11660 -0.01845 0.52676
 C327 C -0.10922 0.00443 0.51154
 H328 H -0.09529 -0.03548 0.56305
 H329 H -0.11942 0.01236 0.49356
 N330 N -0.01434 0.02179 0.58595
 N331 N -0.00023 0.04381 0.57897
 C332 C 0.02049 0.04721 0.59690
 C333 C 0.01944 0.02635 0.61621
 C334 C -0.00304 0.01067 0.60854
 H335 H 0.03533 0.06362 0.59582
 H336 H -0.01054 -0.00765 0.61851
 H337 H -0.02429 0.02937 0.53441
 H338 H -0.04715 0.05009 0.55711
 N339 N 0.47863 0.58646 0.01490
 N340 N 0.45686 0.57902 0.00086
 C341 C 0.45336 0.59654 -0.02019
 C342 C 0.47406 0.61610 -0.01936
 C343 C 0.48968 0.60893 0.00331
 H344 H 0.43702 0.59505 -0.03506
 H345 H 0.50780 0.61920 0.01089
 Cu346 Cu 0.43560 0.54689 0.01146
 Cu347 Cu 0.49112 0.56646 0.04717
 Cu348 Cu 0.45316 0.50944 0.06651
 N349 N 0.41424 0.51501 0.02257
 N350 N 0.42135 0.50043 0.04407
 C351 C 0.40355 0.47957 0.04719
 C352 C 0.38411 0.48101 0.02649
 C353 C 0.39164 0.50385 0.01125
 H354 H 0.40480 0.46450 0.06337
 H355 H 0.38154 0.51174 -0.00680
 N356 N 0.48601 0.52190 0.08655
 N357 N 0.50044 0.54359 0.07919
 C358 C 0.52143 0.54681 0.09686
 C359 C 0.52024 0.52616 0.11637
 C360 C 0.49744 0.51077 0.10908
 H361 H 0.53644 0.56305 0.09556
 H362 H 0.48967 0.49277 0.11940
 H363 H 0.47524 0.52871 0.03593
 H364 H 0.45324 0.55086 0.05800
 N365 N 0.52155 -0.08641 0.01483
 N366 N 0.54326 -0.07892 0.00074
 C367 C 0.54680 -0.09648 -0.02029
 C368 C 0.52617 -0.11612 -0.01938
 C369 C 0.51055 -0.10895 0.00328
 H370 H 0.56322 -0.09507 -0.03508
 H371 H 0.49248 -0.11926 0.01093
 Cu372 Cu 0.56454 -0.04690 0.01162
 Cu373 Cu 0.50904 -0.06649 0.04718
 Cu374 Cu 0.54706 -0.00945 0.06659
 N375 N 0.58590 -0.01495 0.02251
 N376 N 0.57885 -0.00044 0.04408
 C377 C 0.59674 0.02033 0.04729
 C378 C 0.61618 0.01890 0.02659
 C379 C 0.60856 -0.00384 0.01124
 H380 H 0.59554 0.03534 0.06354
 H381 H 0.61873 -0.01180 -0.00674
 N382 N 0.51419 -0.02194 0.08665
 N383 N 0.49975 -0.04362 0.07926
 C384 C 0.47874 -0.04682 0.09690
 C385 C 0.47991 -0.02618 0.11643
 C386 C 0.50273 -0.01081 0.10917
 H387 H 0.46371 -0.06305 0.09557
 H388 H 0.51049 0.00719 0.11951
 H389 H 0.52492 -0.02876 0.03617
 H390 H 0.54693 -0.05095 0.05819
 N391 N 1.02131 0.41381 0.51444
 N392 N 1.04267 0.42161 0.49999
 C393 C 1.04615 0.40406 0.47895
 C394 C 1.02584 0.38414 0.48021
 C395 C 1.01048 0.39110 0.50311
 H396 H 1.06227 0.40573 0.46386
 H397 H 0.99267 0.38055 0.51103
 Cu398 Cu 1.06375 0.45402 0.51002
 Cu399 Cu 1.00901 0.43369 0.54678
 Cu400 Cu 1.04689 0.49062 0.56611
 N401 N 1.08523 0.48557 0.52171
 N402 N 1.07849 0.49972 0.54360
 C403 C 1.09649 0.52034 0.54700
 C404 C 1.11570 0.51917 0.52610
 C405 C 1.10784 0.49674 0.51044
 H406 H 1.09552 0.53508 0.56351
 H407 H 1.11776 0.48908 0.49219
 N408 N 1.01421 0.47809 0.58623
 N409 N 0.99977 0.45642 0.57888
 C410 C 0.97879 0.45323 0.59654
 C411 C 0.98000 0.47390 0.61603
 C412 C 1.00280 0.48926 0.60874
 H413 H 0.96373 0.43703 0.59522
 H414 H 1.01056 0.50729 0.61901
 H415 H 1.02460 0.47166 0.53565
 H416 H 1.04730 0.44930 0.55695
 C417 C 0.37398 -0.00035 0.25026
 C418 C 0.12564 -0.00043 0.74959
 C419 C 0.62593 0.49979 0.25015
 C420 C 0.87444 0.50014 0.74986
 C421 C 0.24989 0.37584 -0.00009
 C422 C 0.75032 0.12423 0.00025
 C423 C 0.24997 0.62407 0.49997
 C424 C 0.74997 0.87598 0.49989
 C425 C -0.00050 0.25017 0.37464
 C426 C 0.00005 0.75002 0.12502
 C427 C 0.50024 0.24971 0.62594
 C428 C 0.49985 0.75002 0.87473
 C429 C 0.06578 0.23712 0.32427
 C430 C 0.07009 0.25488 0.30218
 C431 C 0.09213 0.25063 0.28437
 C432 C 0.11027 0.22849 0.28837
 C433 C 0.10566 0.21072 0.31068
 C434 C 0.08357 0.21503 0.32847
 C435 C 0.04290 0.24149 0.34238
 C436 C 0.02348 0.24533 0.35720
 H437 H 0.05636 0.27200 0.29868
 H438 H 0.09478 0.26478 0.26752
 H439 H 0.11900 0.19343 0.31451
 H440 H 0.08034 0.20109 0.34547
 C441 C 0.56619 0.73717 0.82432
 C442 C 0.58401 0.71508 0.82846
 C443 C 0.60610 0.71083 0.81065
 C444 C 0.61070 0.72865 0.78837
 C445 C 0.59255 0.75080 0.78444
 C446 C 0.57050 0.75498 0.80227
 C447 C 0.54330 0.74148 0.84244
 C448 C 0.52385 0.74526 0.85727
 H449 H 0.58080 0.70109 0.84542
 H450 H 0.61945 0.69354 0.81443
 H451 H 0.59519 0.76498 0.76762
 H452 H 0.55676 0.77211 0.79881
 C453 C 0.43351 0.76288 0.82430
 C454 C 0.42889 0.74485 0.80248
 C455 C 0.40685 0.74910 0.78466
 C456 C 0.38901 0.77155 0.78835
 C457 C 0.39391 0.78958 0.81040
 C458 C 0.41600 0.78526 0.82820
 C459 C 0.45640 0.75853 0.84242
 C460 C 0.47584 0.75475 0.85726
 H461 H 0.44239 0.72749 0.79921
 H462 H 0.40396 0.73475 0.76802
 H463 H 0.38081 0.80710 0.81401
 H464 H 0.41944 0.79942 0.84497
 C465 C -0.06669 0.26311 0.32419
 C466 C -0.07093 0.24533 0.30213
 C467 C -0.09291 0.24952 0.28424
 C468 C -0.11119 0.27168 0.28807
 C469 C -0.10653 0.28948 0.31046
 C470 C -0.08449 0.28519 0.32830
 C471 C -0.04386 0.25879 0.34234
 C472 C -0.02445 0.25498 0.35718
 H473 H -0.05718 0.22821 0.29870
 H474 H -0.09531 0.23522 0.26749
 H475 H -0.11974 0.30682 0.31443
 H476 H -0.08131 0.29915 0.34530
 C477 C -0.06623 0.73716 0.17543
 C478 C -0.07076 0.75525 0.19720
 C479 C -0.09276 0.75104 0.21507
 C480 C -0.11062 0.72858 0.21147
 C481 C -0.10581 0.71049 0.18946
 C482 C -0.08377 0.71477 0.17160
 C483 C -0.04336 0.74145 0.15730
 C484 C -0.02393 0.74523 0.14247
 H485 H -0.05723 0.77261 0.20041
 H486 H -0.09559 0.76543 0.23168
 H487 H -0.11894 0.69297 0.18592
 H488 H -0.08037 0.70058 0.15485
 C489 C 0.43352 0.23681 0.67618
 C490 C 0.41566 0.21473 0.67203
 C491 C 0.39351 0.21044 0.68981
 C492 C 0.38876 0.22821 0.71221
 C493 C 0.40704 0.25040 0.71604
 C494 C 0.42912 0.25460 0.69821
 C495 C 0.45657 0.24112 0.65813
 C496 C 0.47612 0.24492 0.64338
 H497 H 0.41887 0.20077 0.65505
 H498 H 0.38027 0.19310 0.68580
 H499 H 0.40455 0.26472 0.73276
 H500 H 0.44285 0.27175 0.70168
 C501 C 0.56684 0.26271 0.67628
 C502 C 0.58469 0.28479 0.67212
 C503 C 0.60685 0.28909 0.68988
 C504 C 0.61161 0.27131 0.71226
 C505 C 0.59334 0.24912 0.71611
 C506 C 0.57124 0.24493 0.69831
 C507 C 0.54381 0.25838 0.65821
 C508 C 0.52429 0.25455 0.64343
 H509 H 0.58146 0.29876 0.65515
 H510 H 0.62007 0.30643 0.68586
 H511 H 0.59583 0.23482 0.73285
 H512 H 0.55751 0.22778 0.70180
 C513 C 0.06631 0.76297 0.17547
 C514 C 0.08384 0.78534 0.17157
 C515 C 0.10589 0.78969 0.18940
 C516 C 0.11072 0.77168 0.21146
 C517 C 0.09287 0.74922 0.21513
 C518 C 0.07086 0.74494 0.19728
 C519 C 0.04344 0.75862 0.15734
 C520 C 0.02402 0.75482 0.14249
 H521 H 0.08043 0.79949 0.15478
 H522 H 0.11902 0.80720 0.18580
 H523 H 0.09570 0.73487 0.23178
 H524 H 0.05733 0.72759 0.20055
 C525 C 0.32374 0.06619 0.23754
 C526 C 0.32815 0.08393 0.21546
 C527 C 0.31047 0.10607 0.21099
 C528 C 0.28803 0.11083 0.22859
 C529 C 0.28382 0.09277 0.25074
 C530 C 0.30154 0.07065 0.25515
 C531 C 0.34174 0.04320 0.24195
 C532 C 0.35653 0.02371 0.24567
 H533 H 0.34522 0.08062 0.20163
 H534 H 0.31450 0.11933 0.19370
 H535 H 0.26686 0.09557 0.26474
 H536 H 0.29788 0.05697 0.27227
 C537 C 0.82406 0.56650 0.73718
 C538 C 0.82845 0.58425 0.71511
 C539 C 0.81076 0.60637 0.71067
 C540 C 0.78833 0.61108 0.72828
 C541 C 0.78412 0.59299 0.75041
 C542 C 0.80186 0.57088 0.75478
 C543 C 0.84212 0.54358 0.74158
 C544 C 0.85696 0.52415 0.74530
 H545 H 0.84552 0.58096 0.70127
 H546 H 0.81478 0.61965 0.69340
 H547 H 0.76716 0.59575 0.76441
 H548 H 0.79821 0.55717 0.77188
 C549 C 0.82407 0.43372 0.76259
 C550 C 0.82844 0.41597 0.78465
 C551 C 0.81074 0.39382 0.78907
 C552 C 0.78832 0.38909 0.77144
 C553 C 0.78413 0.40719 0.74933
 C554 C 0.80187 0.42932 0.74497
 C555 C 0.84213 0.45666 0.75818
 C556 C 0.85697 0.47611 0.75445
 H557 H 0.84551 0.41927 0.79849
 H558 H 0.81475 0.38054 0.80634
 H559 H 0.76718 0.40442 0.73532
 H560 H 0.79824 0.44304 0.72787
 C561 C 0.32346 -0.06681 0.26298
 C562 C 0.30103 -0.07097 0.24563
 C563 C 0.28322 -0.09308 0.24998
 C564 C 0.28751 -0.11152 0.27190
 C565 C 0.31029 -0.10695 0.28923
 C566 C 0.32802 -0.08482 0.28478
 C567 C 0.34158 -0.04386 0.25859
 C568 C 0.35646 -0.02440 0.25486
 H569 H 0.29724 -0.05707 0.22872
 H570 H 0.26616 -0.09545 0.23604
 H571 H 0.31466 -0.12029 0.30636
 H572 H 0.34529 -0.08173 0.29843
 C573 C 0.17614 -0.06691 0.73699
 C574 C 0.19859 -0.07105 0.75432
 C575 C 0.21638 -0.09315 0.74997
 C576 C 0.21205 -0.11164 0.72809
 C577 C 0.18925 -0.10710 0.71078
 C578 C 0.17154 -0.08497 0.71522
 C579 C 0.15804 -0.04395 0.74136
 C580 C 0.14316 -0.02449 0.74504
 H581 H 0.20241 -0.05712 0.77121
 H582 H 0.23345 -0.09549 0.76389
 H583 H 0.18485 -0.12047 0.69367
 H584 H 0.15426 -0.08191 0.70159
 C585 C 0.67655 0.43358 0.23758
 C586 C 0.67226 0.41583 0.21549
 C587 C 0.69001 0.39374 0.21110
 C588 C 0.71239 0.38905 0.22876
 C589 C 0.71652 0.40716 0.25090
 C590 C 0.69872 0.42924 0.25524
 C591 C 0.65841 0.45644 0.24193
 C592 C 0.64348 0.47583 0.24560
 H593 H 0.65521 0.41908 0.20162
 H594 H 0.68604 0.38046 0.19381
 H595 H 0.73344 0.40443 0.26494
 H596 H 0.70230 0.44296 0.27235
 C597 C 0.67624 0.56622 0.26287
 C598 C 0.69869 0.57036 0.24551
 C599 C 0.71643 0.59249 0.24987
 C600 C 0.71199 0.61083 0.27173
 C601 C 0.68929 0.60639 0.28908
 C602 C 0.67160 0.58425 0.28466
 C603 C 0.65819 0.54329 0.25849
 C604 C 0.64336 0.52383 0.25477
 H605 H 0.70252 0.55644 0.22862
 H606 H 0.73359 0.59505 0.23606
 H607 H 0.68508 0.61987 0.30614
 H608 H 0.65432 0.58116 0.29830
 C609 C 0.17584 0.06620 0.76233
 C610 C 0.19807 0.07059 0.74475
 C611 C 0.21586 0.09269 0.74915
 C612 C 0.21169 0.11078 0.77128
 C613 C 0.18919 0.10611 0.78884
 C614 C 0.17144 0.08399 0.78437
 C615 C 0.15784 0.04319 0.75793
 C616 C 0.14308 0.02366 0.75419
 H617 H 0.20171 0.05688 0.72765
 H618 H 0.23283 0.09543 0.73517
 H619 H 0.18516 0.11942 0.80609
 H620 H 0.15432 0.08075 0.79817
 C621 C 0.23695 0.32538 0.06603
 C622 C 0.21481 0.32956 0.08374
 C623 C 0.21040 0.31168 0.10571
 C624 C 0.22811 0.28930 0.11028
 C625 C 0.25029 0.28531 0.09221
 C626 C 0.25464 0.30322 0.07027
 C627 C 0.24139 0.34355 0.04326
 C628 C 0.24522 0.35840 0.02388
 H629 H 0.20091 0.34660 0.08054
 H630 H 0.19307 0.31552 0.11899
 H631 H 0.26438 0.26840 0.09484
 H632 H 0.27179 0.29975 0.05657
 C633 C 0.73736 0.82568 0.56609
 C634 C 0.71527 0.82991 0.58385
 C635 C 0.71089 0.81206 0.60583
 C636 C 0.72859 0.78966 0.61036
 C637 C 0.75077 0.78567 0.59228
 C638 C 0.75508 0.80356 0.57033
 C639 C 0.74168 0.84376 0.54327
 C640 C 0.74539 0.85856 0.52386
 H641 H 0.70137 0.84696 0.58066
 H642 H 0.69359 0.81592 0.61912
 H643 H 0.76486 0.76876 0.59490
 H644 H 0.77221 0.80008 0.55660
 C645 C 0.76270 0.82567 0.43374
 C646 C 0.74502 0.80349 0.42952
 C647 C 0.74935 0.78561 0.40757
 C648 C 0.77151 0.78967 0.38948
 C649 C 0.78920 0.81210 0.39402
 C650 C 0.78480 0.82994 0.41600
 C651 C 0.75833 0.84376 0.45655
 C652 C 0.75457 0.85856 0.47594
 H653 H 0.72789 0.79997 0.44325
 H654 H 0.73528 0.76867 0.40496
 H655 H 0.80649 0.81600 0.38072
 H656 H 0.79867 0.84703 0.41919
 C657 C 0.26238 0.32540 -0.06634
 C658 C 0.24465 0.30326 -0.07067
 C659 C 0.24900 0.28540 -0.09267
 C660 C 0.27122 0.28944 -0.11071
 C661 C 0.28892 0.31184 -0.10608
 C662 C 0.28450 0.32965 -0.08406
 C663 C 0.25807 0.34350 -0.04347
 C664 C 0.25443 0.35836 -0.02406
 H665 H 0.22749 0.29974 -0.05700
 H666 H 0.23491 0.26849 -0.09537
 H667 H 0.30625 0.31573 -0.11932
 H668 H 0.29840 0.34670 -0.08081
 C669 C 0.73783 0.17465 -0.06600
 C670 C 0.75551 0.19683 -0.07033
 C671 C 0.75114 0.21466 -0.09234
 C672 C 0.72894 0.21057 -0.11039
 C673 C 0.71130 0.18813 -0.10576
 C674 C 0.71573 0.17034 -0.08373
 C675 C 0.74215 0.15658 -0.04312
 C676 C 0.74579 0.14173 -0.02370
 H677 H 0.77266 0.20038 -0.05665
 H678 H 0.76521 0.23159 -0.09504
 H679 H 0.69399 0.18418 -0.11903
 H680 H 0.70187 0.15326 -0.08050
 C681 C 0.23703 0.67458 0.43388
 C682 C 0.25471 0.69678 0.42970
 C683 C 0.25040 0.71471 0.40777
 C684 C 0.22827 0.71071 0.38964
 C685 C 0.21054 0.68830 0.39416
 C686 C 0.21491 0.67040 0.41613
 C687 C 0.24147 0.65638 0.45663
 C688 C 0.24531 0.64152 0.47600
 H689 H 0.27183 0.70026 0.44343
 H690 H 0.26449 0.73164 0.40519
 H691 H 0.19324 0.68445 0.38085
 H692 H 0.20101 0.65333 0.41928
 C693 C 0.26233 0.67453 0.56625
 C694 C 0.24457 0.69664 0.57048
 C695 C 0.24881 0.71455 0.59246
 C696 C 0.27095 0.71061 0.61059
 C697 C 0.28869 0.68822 0.60607
 C698 C 0.28438 0.67035 0.58407
 C699 C 0.25812 0.65640 0.54338
 C700 C 0.25451 0.64155 0.52396
 H701 H 0.22745 0.70009 0.55673
 H702 H 0.23470 0.73145 0.59506
 H703 H 0.30596 0.68438 0.61940
 H704 H 0.29830 0.65331 0.58092
 C705 C 0.76337 0.17458 0.06643
 C706 C 0.78551 0.17033 0.08414
 C707 C 0.78994 0.18818 0.10614
 C708 C 0.77227 0.21060 0.11072
 C709 C 0.75010 0.21464 0.09265
 C710 C 0.74573 0.19676 0.07070
 C711 C 0.75889 0.15645 0.04364
 C712 C 0.75502 0.14163 0.02424
 H713 H 0.79937 0.15326 0.08093
 H714 H 0.80726 0.18431 0.11941
 H715 H 0.73605 0.23157 0.09529
 H716 H 0.72859 0.20028 0.05699
 C717 C 0.48727 0.31581 0.57505
 C718 C 0.50527 0.32037 0.55320
 C719 C 0.50096 0.34233 0.53526
 C720 C 0.47848 0.36015 0.53887
 C721 C 0.46047 0.35530 0.56094
 C722 C 0.46484 0.33330 0.57885
 C723 C 0.49169 0.29302 0.59336
 C724 C 0.49549 0.27368 0.60835
 H725 H 0.52264 0.30689 0.54996
 H726 H 0.51529 0.34518 0.51861
 H727 H 0.44292 0.36838 0.56448
 H728 H 0.45069 0.32989 0.59563
 C729 C -0.01303 0.81623 0.07454
 C730 C -0.03512 0.83405 0.07869
 C731 C -0.03940 0.85610 0.06085
 C732 C -0.02161 0.86065 0.03854
 C733 C 0.00050 0.84247 0.03457
 C734 C 0.00471 0.82047 0.05244
 C735 C -0.00864 0.79340 0.09271
 C736 C -0.00477 0.77400 0.10756
 H737 H -0.04906 0.83087 0.09569
 H738 H -0.05668 0.86946 0.06466
 H739 H 0.01464 0.84509 0.01771
 H740 H 0.02181 0.80671 0.04896
 C741 C 0.01308 0.68376 0.07459
 C742 C -0.00466 0.67951 0.05249
 C743 C -0.00041 0.65751 0.03462
 C744 C 0.02174 0.63938 0.03856
 C745 C 0.03952 0.64394 0.06088
 C746 C 0.03519 0.66598 0.07873
 C747 C 0.00869 0.70661 0.09274
 C748 C 0.00485 0.72603 0.10757
 H749 H -0.02180 0.69322 0.04903
 H750 H -0.01455 0.65488 0.01776
 H751 H 0.05680 0.63059 0.06468
 H752 H 0.04911 0.66916 0.09575
 C753 C 0.51324 0.18358 0.57512
 C754 C 0.49546 0.17939 0.55302
 C755 C 0.49972 0.15750 0.53499
 C756 C 0.52192 0.13939 0.53876
 C757 C 0.53973 0.14387 0.56107
 C758 C 0.53540 0.16580 0.57907
 C759 C 0.50887 0.20634 0.59347
 C760 C 0.50504 0.22570 0.60843
 H761 H 0.47829 0.19309 0.54967
 H762 H 0.48555 0.15492 0.51815
 H763 H 0.55706 0.13055 0.56476
 H764 H 0.54938 0.16891 0.59605
 C765 C -0.01356 0.18399 0.42514
 C766 C -0.03564 0.16612 0.42103
 C767 C -0.03995 0.14415 0.43897
 C768 C -0.02221 0.13974 0.46135
 C769 C -0.00008 0.15793 0.46524
 C770 C 0.00417 0.17985 0.44727
 C771 C -0.00920 0.20679 0.40694
 C772 C -0.00535 0.22619 0.39209
 H773 H -0.04954 0.16919 0.40398
 H774 H -0.05721 0.13075 0.43519
 H775 H 0.01404 0.15540 0.48211
 H776 H 0.02129 0.19362 0.45069
 C777 C 0.48710 0.68383 0.92538
 C778 C 0.50493 0.67961 0.94744
 C779 C 0.50073 0.65763 0.96536
 C780 C 0.47856 0.63947 0.96152
 C781 C 0.46071 0.64399 0.93926
 C782 C 0.46497 0.66601 0.92136
 C783 C 0.49139 0.70664 0.90715
 C784 C 0.49513 0.72603 0.89224
 H785 H 0.52209 0.69335 0.95080
 H786 H 0.51492 0.65504 0.98218
 H787 H 0.44340 0.63064 0.93554
 H788 H 0.45099 0.66914 0.90439
 C789 C 0.51287 0.81623 0.92532
 C790 C 0.49511 0.82048 0.94741
 C791 C 0.49943 0.84241 0.96537
 C792 C 0.52166 0.86049 0.96152
 C793 C 0.53943 0.85596 0.93919
 C794 C 0.53505 0.83398 0.92126
 C795 C 0.50846 0.79342 0.90709
 C796 C 0.50462 0.77403 0.89220
 H797 H 0.47792 0.80679 0.95081
 H798 H 0.48527 0.84502 0.98221
 H799 H 0.55677 0.86927 0.93545
 H800 H 0.54899 0.83081 0.90426
 C801 C 0.01260 0.31637 0.42511
 C802 C 0.03449 0.33440 0.42074
 C803 C 0.03886 0.35641 0.43862
 C804 C 0.02135 0.36070 0.46120
 C805 C -0.00059 0.34234 0.46536
 C806 C -0.00489 0.32038 0.44746
 C807 C 0.00820 0.29355 0.40694
 C808 C 0.00434 0.27414 0.39210
 H809 H 0.04823 0.33143 0.40353
 H810 H 0.05598 0.36994 0.43464
 H811 H -0.01453 0.34477 0.48241
 H812 H -0.02186 0.30647 0.45108
 C813 C 0.31601 0.57335 0.48739
 C814 C 0.32007 0.55091 0.50479
 C815 C 0.34214 0.53311 0.50045
 C816 C 0.36048 0.53749 0.47857
 C817 C 0.35607 0.56015 0.46117
 C818 C 0.33400 0.57790 0.46556
 C819 C 0.29323 0.59155 0.49176
 C820 C 0.27391 0.60653 0.49542
 H821 H 0.30615 0.54714 0.52169
 H822 H 0.34467 0.51597 0.51428
 H823 H 0.36953 0.56432 0.44408
 H824 H 0.33094 0.59515 0.45189
 C825 C 0.81642 0.07379 -0.01244
 C826 C 0.82082 0.05163 0.00521
 C827 C 0.84289 0.03389 0.00082
 C828 C 0.86091 0.03810 -0.02136
 C829 C 0.85618 0.06048 -0.03901
 C830 C 0.83409 0.07816 -0.03455
 C831 C 0.79360 0.09185 -0.00804
 C832 C 0.77424 0.10674 -0.00434
 H833 H 0.80714 0.04802 0.02234
 H834 H 0.84567 0.01695 0.01485
 H835 H 0.86941 0.06448 -0.05632
 H836 H 0.83077 0.09522 -0.04840
 C837 C 0.68421 0.07358 0.01293
 C838 C 0.67985 0.05137 -0.00470
 C839 C 0.65780 0.03355 -0.00029
 C840 C 0.63976 0.03770 0.02188
 C841 C 0.64447 0.06012 0.03951
 C842 C 0.66652 0.07788 0.03505
 C843 C 0.70700 0.09177 0.00850
 C844 C 0.72635 0.10672 0.00481
 H845 H 0.69354 0.04780 -0.02183
 H846 H 0.65503 0.01660 -0.01432
 H847 H 0.63122 0.06410 0.05681
 H848 H 0.66981 0.09496 0.04889
 C849 C 0.18375 0.57369 0.51258
 C850 C 0.17911 0.55179 0.49466
 C851 C 0.15703 0.53403 0.49903
 C852 C 0.13926 0.53794 0.52145
 C853 C 0.14423 0.56006 0.53937
 C854 C 0.16632 0.57778 0.53493
 C855 C 0.20660 0.59175 0.50821
 C856 C 0.22600 0.60661 0.50453
 H857 H 0.19259 0.54841 0.47732
 H858 H 0.15404 0.51730 0.48478
 H859 H 0.13118 0.56384 0.55686
 H860 H 0.16982 0.59464 0.54898
 C861 C 0.18374 0.42625 -0.01266
 C862 C 0.16606 0.42191 -0.03477
 C863 C 0.14399 0.43961 -0.03920
 C864 C 0.13929 0.46200 -0.02154
 C865 C 0.15732 0.46618 0.00063
 C866 C 0.17938 0.44842 0.00500
 C867 C 0.20657 0.40818 -0.00830
 C868 C 0.22595 0.39332 -0.00464
 H869 H 0.16934 0.40484 -0.04861
 H870 H 0.13074 0.43562 -0.05650
 H871 H 0.15455 0.48311 0.01467
 H872 H 0.19306 0.45199 0.02213
 C873 C 0.68397 0.92646 0.48726
 C874 C 0.67963 0.94865 0.50489
 C875 C 0.65761 0.96644 0.50046
 C876 C 0.63961 0.96225 0.47827
 C877 C 0.64430 0.93983 0.46064
 C878 C 0.66633 0.92210 0.46513
 C879 C 0.70673 0.90836 0.49168
 C880 C 0.72606 0.89345 0.49535
 H881 H 0.69330 0.95224 0.52203
 H882 H 0.65484 0.98338 0.51448
 H883 H 0.63107 0.93583 0.44332
 H884 H 0.66963 0.90502 0.45131
 C885 C 0.81598 0.92650 0.51254
 C886 C 0.83381 0.92195 0.53448
 C887 C 0.85573 0.93981 0.53910
 C888 C 0.86010 0.96255 0.52182
 C889 C 0.84198 0.96686 0.49975
 C890 C 0.82007 0.94895 0.49519
 C891 C 0.79323 0.90837 0.50810
 C892 C 0.77389 0.89346 0.50442
 H893 H 0.83072 0.90463 0.54806
 H894 H 0.86911 0.93567 0.55626
 H895 H 0.84454 0.98401 0.48595
 H896 H 0.80627 0.95266 0.47817
 C897 C 0.31602 0.42645 0.01271
 C898 C 0.33368 0.42208 0.03484
 C899 C 0.35579 0.43978 0.03932
 C900 C 0.36057 0.46220 0.02172
 C901 C 0.34251 0.46644 -0.00043
 C902 C 0.32042 0.44869 -0.00486
 C903 C 0.29322 0.40829 0.00822
 C904 C 0.27386 0.39335 0.00449
 H905 H 0.33036 0.40498 0.04863
 H906 H 0.36902 0.43575 0.05663
 H907 H 0.34532 0.48341 -0.01442
 H908 H 0.30675 0.45232 -0.02200
 C909 C 0.57528 0.48706 0.31624
 C910 C 0.57950 0.46498 0.33403
 C911 C 0.56163 0.46059 0.35601
 C912 C 0.53921 0.47825 0.36054
 C913 C 0.53517 0.50038 0.34241
 C914 C 0.55307 0.50472 0.32045
 C915 C 0.59348 0.49143 0.29345
 C916 C 0.60841 0.49515 0.27410
 H917 H 0.59658 0.45112 0.33088
 H918 H 0.56552 0.44331 0.36933
 H919 H 0.51822 0.51444 0.34502
 H920 H 0.54956 0.52183 0.30671
 C921 C 0.07490 -0.01278 0.81573
 C922 C 0.07908 -0.03486 0.83352
 C923 C 0.06124 -0.03922 0.85553
 C924 C 0.03887 -0.02151 0.86010
 C925 C 0.03487 0.00066 0.84200
 C926 C 0.05275 0.00496 0.82000
 C927 C 0.09311 -0.00852 0.79291
 C928 C 0.10808 -0.00495 0.77356
 H929 H 0.09611 -0.04877 0.83034
 H930 H 0.06511 -0.05651 0.86883
 H931 H 0.01797 0.01476 0.84466
 H932 H 0.04926 0.02209 0.80628
 C933 C 0.07472 0.01249 0.68370
 C934 C 0.05272 -0.00538 0.67920
 C935 C 0.03472 -0.00090 0.65734
 C936 C 0.03845 0.02162 0.63960
 C937 C 0.06064 0.03951 0.64444
 C938 C 0.07860 0.03497 0.66632
 C939 C 0.09307 0.00795 0.70636
 C940 C 0.10809 0.00416 0.72563
 H941 H 0.04944 -0.02278 0.69264
 H942 H 0.01796 -0.01514 0.65449
 H943 H 0.06429 0.05708 0.63143
 H944 H 0.09549 0.04903 0.66970
 C945 C 0.57534 0.51257 0.18403
 C946 C 0.57958 0.53469 0.16628
 C947 C 0.56170 0.53913 0.14432
 C948 C 0.53924 0.52149 0.13978
 C949 C 0.53519 0.49932 0.15787
 C950 C 0.55310 0.49494 0.17981
 C951 C 0.59355 0.50814 0.20680
 C952 C 0.60846 0.50438 0.22616
 H953 H 0.59668 0.54855 0.16945
 H954 H 0.56560 0.55644 0.13103
 H955 H 0.51822 0.48528 0.15526
 H956 H 0.54956 0.47781 0.19352
 C957 C 0.42478 -0.01285 0.18417
 C958 C 0.42059 -0.03491 0.16634
 C959 C 0.43847 -0.03927 0.14437
 C960 C 0.46091 -0.02158 0.13986
 C961 C 0.46493 0.00053 0.15804
 C962 C 0.44700 0.00483 0.18000
 C963 C 0.40651 -0.00855 0.20694
 C964 C 0.39152 -0.00491 0.22628
 H965 H 0.40350 -0.04880 0.16946
 H966 H 0.43458 -0.05654 0.13103
 H967 H 0.48189 0.01460 0.15545
 H968 H 0.45052 0.02192 0.19376
 C969 C 0.92504 0.48748 0.68377
 C970 C 0.94727 0.50512 0.67952
 C971 C 0.96514 0.50075 0.65755
 C972 C 0.96104 0.47859 0.63945
 C973 C 0.93860 0.46094 0.64403
 C974 C 0.92077 0.46538 0.66602
 C975 C 0.90686 0.49187 0.70655
 C976 C 0.89193 0.49557 0.72589
 H977 H 0.95083 0.52225 0.69324
 H978 H 0.98211 0.51479 0.65490
 H979 H 0.93467 0.44364 0.63074
 H980 H 0.90367 0.45152 0.66921
 C981 C 0.92512 0.51275 0.81590
 C982 C 0.94729 0.49506 0.82013
 C983 C 0.96518 0.49939 0.84210
 C984 C 0.96115 0.52155 0.86020
 C985 C 0.93876 0.53924 0.85564
 C986 C 0.92092 0.53485 0.83366
 C987 C 0.90691 0.50840 0.79313
 C988 C 0.89196 0.50472 0.77380
 H989 H 0.95079 0.47793 0.80640
 H990 H 0.98209 0.48531 0.84473
 H991 H 0.93489 0.55654 0.86894
 H992 H 0.90387 0.54875 0.83048
 C993 C 0.42489 0.01249 0.31618
 C994 C 0.44714 -0.00513 0.32034
 C995 C 0.46510 -0.00076 0.34227
 C996 C 0.46107 0.02137 0.36041
 C997 C 0.43864 0.03903 0.35589
 C998 C 0.42073 0.03460 0.33395
 C999 C 0.40657 0.00803 0.29349
 C1000 C 0.39154 0.00426 0.27421
 H1001 H 0.45064 -0.02225 0.30661
 H1002 H 0.48206 -0.01480 0.34485
 H1003 H 0.43478 0.05633 0.36919
 H1004 H 0.40365 0.04846 0.33083
   
