data_POSCAR
  _audit_creation_date              2014-09-24
  _audit_creation_method            'ToBaCCo'
  _symmetry_space_group_name_H-M    'P1'
  _symmetry_Int_Tables_number       1
  _symmetry_cell_setting            triclinic
  loop_
  _symmetry_equiv_pos_as_xyz
 x,y,z
_cell_length_a 50.0457
_cell_length_b 50.1895
_cell_length_c 49.9471
_cell_angle_alpha 89.969500
_cell_angle_beta 90.004100
_cell_angle_gamma 89.935400
loop_
  _atom_site_label
  _atom_site_type_symbol
  _atom_site_fract_x
  _atom_site_fract_y
  _atom_site_fract_z
N1 N 0.15104 0.16892 0.22465
 N2 N 0.16969 0.15050 0.22444
 C3 C 0.16572 0.13384 0.24523
 C4 C 0.14327 0.14223 0.25936
 C5 C 0.13458 0.16465 0.24550
 H6 H 0.17832 0.11693 0.24964
 H7 H 0.11759 0.17712 0.25008
 Cu8 Cu 0.19735 0.15028 0.19696
 Cu9 Cu 0.14938 0.19720 0.19799
 Cu10 Cu 0.19836 0.19727 0.14893
 N11 N 0.22477 0.15054 0.16924
 N12 N 0.22499 0.16898 0.15058
 C13 C 0.24580 0.16471 0.13408
 C14 C 0.25961 0.14226 0.14275
 C15 C 0.24550 0.13386 0.16523
 H16 H 0.25038 0.17719 0.11707
 H17 H 0.24989 0.11692 0.17781
 N18 N 0.16970 0.22421 0.15066
 N19 N 0.15105 0.22416 0.16932
 C20 C 0.13450 0.24493 0.16515
 C21 C 0.14307 0.25883 0.14275
 C22 C 0.16549 0.24501 0.13414
 H23 H 0.11747 0.24955 0.17758
 H24 H 0.17789 0.24971 0.11710
 H25 H 0.16826 0.17630 0.16774
 H26 H 0.18979 0.19770 0.18938
 N27 N -0.15115 0.83084 0.22432
 N28 N -0.16981 0.84926 0.22407
 C29 C -0.16581 0.86595 0.24480
 C30 C -0.14340 0.85757 0.25886
 C31 C -0.13468 0.83516 0.24515
 H32 H -0.17833 0.88291 0.24929
 H33 H -0.11765 0.82279 0.24988
 Cu34 Cu -0.19750 0.84945 0.19666
 Cu35 Cu -0.14952 0.80254 0.19770
 Cu36 Cu -0.19860 0.80249 0.14870
 N37 N -0.22497 0.84920 0.16903
 N38 N -0.22524 0.83079 0.15037
 C39 C -0.24609 0.83511 0.13392
 C40 C -0.25986 0.85756 0.14265
 C41 C -0.24569 0.86590 0.16509
 H42 H -0.25073 0.82267 0.11691
 H43 H -0.25002 0.88283 0.17770
 N44 N -0.16993 0.77555 0.15043
 N45 N -0.15127 0.77559 0.16907
 C46 C -0.13473 0.75482 0.16492
 C47 C -0.14332 0.74092 0.14254
 C48 C -0.16574 0.75475 0.13392
 H49 H -0.11768 0.75019 0.17734
 H50 H -0.17817 0.75003 0.11691
 H51 H -0.16843 0.82345 0.16747
 H52 H -0.18993 0.80204 0.18915
 N53 N -0.15137 0.16951 -0.22397
 N54 N -0.16999 0.15108 -0.22376
 C55 C -0.16591 0.13441 -0.24451
 C56 C -0.14350 0.14282 -0.25853
 C57 C -0.13487 0.16521 -0.24479
 H58 H -0.17836 0.11742 -0.24901
 H59 H -0.11786 0.17760 -0.24949
 Cu60 Cu -0.19766 0.15085 -0.19630
 Cu61 Cu -0.14980 0.19777 -0.19734
 Cu62 Cu -0.19878 0.19778 -0.14827
 N63 N -0.22510 0.15110 -0.16861
 N64 N -0.22537 0.16950 -0.14993
 C65 C -0.24621 0.16522 -0.13348
 C66 C -0.26000 0.14281 -0.14222
 C67 C -0.24582 0.13444 -0.16467
 H68 H -0.25085 0.17767 -0.11647
 H69 H -0.25018 0.11755 -0.17730
 N70 N -0.17016 0.22473 -0.15000
 N71 N -0.15155 0.22471 -0.16869
 C72 C -0.13506 0.24549 -0.16457
 C73 C -0.14363 0.25939 -0.14217
 C74 C -0.16598 0.24554 -0.13350
 H75 H -0.11810 0.25017 -0.17708
 H76 H -0.17835 0.25022 -0.11642
 H77 H -0.16863 0.17684 -0.16710
 H78 H -0.19021 0.19826 -0.18872
 N79 N 0.15141 0.83058 -0.22384
 N80 N 0.17005 0.84897 -0.22361
 C81 C 0.16607 0.86564 -0.24438
 C82 C 0.14369 0.85727 -0.25847
 C83 C 0.13497 0.83489 -0.24472
 H84 H 0.17859 0.88257 -0.24889
 H85 H 0.11796 0.82254 -0.24945
 Cu86 Cu 0.19771 0.84914 -0.19616
 Cu87 Cu 0.14975 0.80232 -0.19715
 Cu88 Cu 0.19878 0.80222 -0.14810
 N89 N 0.22515 0.84888 -0.16849
 N90 N 0.22543 0.83047 -0.14980
 C91 C 0.24628 0.83475 -0.13336
 C92 C 0.26004 0.85717 -0.14213
 C93 C 0.24586 0.86554 -0.16457
 H94 H 0.25093 0.82231 -0.11634
 H95 H 0.25019 0.88245 -0.17721
 N96 N 0.17010 0.77534 -0.14979
 N97 N 0.15146 0.77541 -0.16845
 C98 C 0.13492 0.75468 -0.16428
 C99 C 0.14349 0.74076 -0.14188
 C100 C 0.16590 0.75454 -0.13326
 H101 H 0.11789 0.75009 -0.17672
 H102 H 0.17833 0.74980 -0.11624
 H103 H 0.16863 0.82321 -0.16691
 H104 H 0.19015 0.80175 -0.18853
 N105 N 0.17168 1.15364 0.77343
 N106 N 0.15148 1.17027 0.77532
 C107 C 0.13383 1.16492 0.75570
 C108 C 0.14351 1.14379 0.74063
 C109 C 0.16764 1.13721 0.75256
 H110 H 0.11531 1.17558 0.75269
 H111 H 0.18147 1.12182 0.74647
 Cu112 Cu 0.15051 1.19743 0.80308
 Cu113 Cu 0.20205 1.15486 0.79768
 Cu114 Cu 0.19672 1.19750 0.85200
 N115 N 0.15031 1.22423 0.83119
 N116 N 0.16814 1.22381 0.85049
 C117 C 0.16355 1.24430 0.86721
 C118 C 0.14161 1.25848 0.85797
 C119 C 0.13375 1.24504 0.83501
 H120 H 0.17557 1.24860 0.88464
 H121 H 0.11734 1.25010 0.82191
 N122 N 0.22439 1.16971 0.84927
 N123 N 0.22673 1.15387 0.82834
 C124 C 0.24772 1.13751 0.83213
 C125 C 0.25934 1.14339 0.85661
 C126 C 0.24394 1.16394 0.86688
 H127 H 0.25411 1.12253 0.81799
 H128 H 0.24669 1.17398 0.88579
 H129 H 0.17878 1.16782 0.82909
 H130 H 0.19851 1.19409 0.81138
 N131 N 0.83217 0.85023 0.77676
 N132 N 0.85025 0.83125 0.77660
 C133 C 0.86685 0.83510 0.75573
 C134 C 0.85872 0.85775 0.74200
 C135 C 0.83660 0.86677 0.75605
 H136 H 0.88347 0.82224 0.75086
 H137 H 0.82435 0.88391 0.75151
 Cu138 Cu 0.85017 0.80353 0.80383
 Cu139 Cu 0.80349 0.85167 0.80305
 Cu140 Cu 0.79849 0.79780 0.84623
 N141 N 0.84903 0.77545 0.83067
 N142 N 0.82879 0.77345 0.84729
 C143 C 0.83271 0.75243 0.86353
 C144 C 0.85680 0.74050 0.85682
 C145 C 0.86658 0.75574 0.83582
 H146 H 0.81882 0.74621 0.87887
 H147 H 0.88510 0.75279 0.82512
 N148 N 0.77358 0.82822 0.84701
 N149 N 0.77579 0.84892 0.83089
 C150 C 0.75615 0.86639 0.83645
 C151 C 0.74077 0.85629 0.85716
 C152 C 0.75253 0.83204 0.86336
 H153 H 0.75332 0.88511 0.82616
 H154 H 0.74621 0.81808 0.87855
 H155 H 0.82145 0.82926 0.83324
 H156 H 0.80214 0.81124 0.80682
 N157 N 0.16911 0.84879 1.22390
 N158 N 0.15026 0.83063 1.22333
 C159 C 0.13357 0.83466 1.24411
 C160 C 0.14243 0.85658 1.25850
 C161 C 0.16509 0.86498 1.24496
 H162 H 0.11629 0.82250 1.24838
 H163 H 0.17785 0.88158 1.24998
 Cu164 Cu 0.14948 0.80343 1.19556
 Cu165 Cu 0.19751 0.85026 1.19740
 Cu166 Cu 0.19761 0.80138 1.14849
 N167 N 0.15036 0.77566 1.16839
 N168 N 0.16922 0.77499 1.15012
 C169 C 0.16521 0.75392 1.13399
 C170 C 0.14255 0.74051 1.14253
 C171 C 0.13369 0.75498 1.16448
 H172 H 0.17799 0.74879 1.11734
 H173 H 0.11639 0.75083 1.17671
 N174 N 0.22462 0.82984 1.15023
 N175 N 0.22457 0.84843 1.16887
 C176 C 0.24536 0.86490 1.16471
 C177 C 0.25928 0.85633 1.14233
 C178 C 0.24546 0.83400 1.13371
 H179 H 0.24992 0.88194 1.17708
 H180 H 0.25019 0.82161 1.11668
 H181 H 0.17669 0.83185 1.16681
 H182 H 0.19727 0.80992 1.18895
 N183 N 0.83056 1.15105 1.22425
 N184 N 0.84895 1.16969 1.22405
 C185 C 0.86569 1.16571 1.24479
 C186 C 0.85735 1.14333 1.25880
 C187 C 0.83494 1.13461 1.24506
 H188 H 0.88266 1.17820 1.24930
 H189 H 0.82260 1.11760 1.24976
 Cu190 Cu 0.84911 1.19728 1.19666
 Cu191 Cu 0.80224 1.14937 1.19761
 Cu192 Cu 0.80205 1.19828 1.14860
 N193 N 0.84876 1.22461 1.16901
 N194 N 0.83031 1.22483 1.15031
 C195 C 0.83456 1.24563 1.13387
 C196 C 0.85695 1.25933 1.14267
 C197 C 0.86540 1.24531 1.16507
 H198 H 0.82217 1.25034 1.11680
 H199 H 0.88236 1.24981 1.17765
 N200 N 0.77517 1.16968 1.15031
 N201 N 0.77526 1.15107 1.16896
 C202 C 0.75449 1.13456 1.16479
 C203 C 0.74055 1.14313 1.14240
 C204 C 0.75434 1.16549 1.13379
 H205 H 0.74986 1.11760 1.17725
 H206 H 0.74962 1.17786 1.11673
 H207 H 0.82320 1.16826 1.16742
 H208 H 0.80162 1.18967 1.18906
 N209 N 0.52796 1.04720 0.97103
 N210 N 0.54810 1.06384 0.96759
 N211 N 0.47189 1.02842 0.95227
 N212 N 0.45158 1.03160 0.93570
 N213 N 0.47171 1.04695 0.97083
 N214 N 0.45129 1.06327 0.96742
 N215 N 0.52813 1.02864 0.95249
 N216 N 0.54839 1.03214 0.93592
 C217 C 0.56056 1.05414 0.94564
 C218 C 0.43903 1.05340 0.94545
 N219 N 0.47210 0.95258 0.97106
 N220 N 0.45189 0.93603 0.96762
 N221 N 0.52837 0.97122 0.95267
 N222 N 0.54878 0.96789 0.93625
 N223 N 0.52834 0.95276 0.97132
 N224 N 0.54871 0.93634 0.96813
 N225 N 0.47212 0.97104 0.95240
 N226 N 0.45192 0.96758 0.93575
 Mn227 Mn 0.50013 0.99983 0.95214
 C228 C 0.43959 0.94569 0.94555
 C229 C 0.56116 0.94608 0.94621
 N230 N 0.47145 1.04709 1.02853
 N231 N 0.45118 1.06362 1.03195
 N232 N 0.52772 1.02883 1.04736
 N233 N 0.54790 1.03233 1.06400
 N234 N 0.52769 1.04730 1.02871
 N235 N 0.54784 1.06389 1.03214
 N236 N 0.47149 1.02861 1.04717
 N237 N 0.45127 1.03204 1.06379
 Mn238 Mn 0.49970 1.04745 0.99977
 C239 C 0.43887 1.05391 1.05399
 C240 C 0.56015 1.05426 1.05420
 N241 N 0.52817 0.95287 1.02896
 N242 N 0.54847 0.93641 1.03252
 N243 N 0.47180 0.97122 1.04730
 N244 N 0.45154 0.96774 1.06385
 N245 N 0.47195 0.95269 1.02873
 N246 N 0.45181 0.93607 1.03212
 N247 N 0.52804 0.97142 1.04751
 N248 N 0.54823 0.96810 1.06420
 Mn249 Mn 0.50014 0.95241 1.00002
 Mn250 Mn 0.49976 1.00002 1.04765
 Cl251 Cl 0.49994 0.99993 0.99990
 C252 C 0.56069 0.94621 1.05454
 C253 C 0.43937 0.94577 1.05407
 N254 N 0.04713 0.47191 -0.02878
 N255 N 0.06369 0.45172 -0.03230
 N256 N 0.02864 0.52810 -0.04721
 N257 N 0.03211 0.54833 -0.06377
 N258 N 0.04719 0.52798 -0.02861
 N259 N 0.06382 0.54812 -0.03198
 N260 N 0.02856 0.47203 -0.04738
 N261 N 0.03196 0.45193 -0.06407
 C262 C 0.05392 0.43955 -0.05436
 C263 C 0.05410 0.56053 -0.05395
 N264 N -0.04750 0.52817 -0.02863
 N265 N -0.06397 0.54847 -0.03192
 N266 N -0.02901 0.47210 -0.04737
 N267 N -0.03244 0.45193 -0.06398
 N268 N -0.04755 0.47209 -0.02875
 N269 N -0.06412 0.45192 -0.03218
 N270 N -0.02893 0.52819 -0.04721
 N271 N -0.03224 0.54851 -0.06368
 Mn272 Mn -0.00019 0.50011 -0.04761
 C273 C -0.05415 0.56087 -0.05384
 C274 C -0.05440 0.43963 -0.05420
 N275 N 0.04719 0.52780 0.02906
 N276 N 0.06377 0.54795 0.03252
 N277 N 0.02858 0.47171 0.04753
 N278 N 0.03200 0.45148 0.06409
 N279 N 0.04713 0.47172 0.02892
 N280 N 0.06369 0.45149 0.03229
 N281 N 0.02862 0.52779 0.04764
 N282 N 0.03203 0.54793 0.06428
 Mn283 Mn 0.04748 0.49985 0.00015
 C284 C 0.05400 0.56022 0.05454
 C285 C 0.05395 0.43915 0.05429
 N286 N -0.04754 0.47196 0.02893
 N287 N -0.06415 0.45182 0.03236
 N288 N -0.02895 0.52795 0.04764
 N289 N -0.03234 0.54814 0.06424
 N290 N -0.04750 0.52802 0.02903
 N291 N -0.06405 0.54824 0.03245
 N292 N -0.02898 0.47189 0.04753
 N293 N -0.03242 0.45171 0.06413
 Mn294 Mn -0.04784 0.50005 0.00014
 Mn295 Mn -0.00018 0.49984 0.04790
 Cl296 Cl -0.00018 0.49996 0.00014
 C297 C -0.05440 0.43949 0.05437
 C298 C -0.05429 0.56051 0.05446
 N299 N 0.95303 -0.02829 0.47185
 N300 N 0.93635 -0.03165 0.45165
 N301 N 0.97171 -0.04697 0.52810
 N302 N 0.96824 -0.06366 0.54823
 N303 N 0.95315 -0.02845 0.52818
 N304 N 0.93652 -0.03200 0.54838
 N305 N 0.97156 -0.04685 0.47177
 N306 N 0.96801 -0.06336 0.45150
 C307 C 0.94600 -0.05357 0.43924
 C308 C 0.94626 -0.05401 0.56060
 N309 N 1.04785 -0.02860 0.52801
 N310 N 1.06448 -0.03205 0.54824
 N311 N 1.02912 -0.04699 0.47172
 N312 N 1.03253 -0.06362 0.45155
 N313 N 1.04771 -0.02854 0.47167
 N314 N 1.06431 -0.03209 0.45144
 N315 N 1.02928 -0.04707 0.52805
 N316 N 1.03275 -0.06362 0.54833
 Mn317 Mn 1.00042 -0.04728 0.49991
 C318 C 1.05477 -0.05394 0.56063
 C319 C 1.05452 -0.05401 0.43917
 N320 N 0.95319 0.02895 0.52832
 N321 N 0.93660 0.03236 0.54859
 N322 N 0.97167 0.04757 0.47197
 N323 N 0.96827 0.06415 0.45172
 N324 N 0.95308 0.02912 0.47197
 N325 N 0.93650 0.03261 0.45171
 N326 N 0.97175 0.04744 0.52832
 N327 N 0.96830 0.06396 0.54862
 Mn328 Mn 0.95280 0.00033 0.50008
 C329 C 0.94633 0.05423 0.56098
 C330 C 0.94628 0.05451 0.43938
 N331 N 1.04777 0.02888 0.47171
 N332 N 1.06433 0.03228 0.45142
 N333 N 1.02932 0.04732 0.52814
 N334 N 1.03264 0.06368 0.54855
 N335 N 1.04788 0.02879 0.52807
 N336 N 1.06437 0.03202 0.54845
 N337 N 1.02925 0.04745 0.47177
 N338 N 1.03268 0.06401 0.45150
 Mn339 Mn 1.04812 0.00014 0.49986
 Mn340 Mn 1.00050 0.04776 0.50005
 Cl341 Cl 1.00046 0.00024 0.49997
 C342 C 1.05462 0.05424 0.43909
 C343 C 1.05456 0.05384 0.56092
 C344 C 1.13183 0.09646 0.31737
 C345 C 1.10905 0.10778 0.32892
 C346 C 1.09761 0.13046 0.31742
 C347 C 1.10885 0.14184 0.29449
 C348 C 1.13188 0.13071 0.28253
 C349 C 1.14316 0.10776 0.29442
 C350 C 1.09740 0.09617 0.35258
 C351 C 1.08757 0.08655 0.37240
 C352 C 1.07603 0.07534 0.39562
 C353 C 1.06622 0.06575 0.41546
 H354 H 1.14087 0.07887 0.32612
 H355 H 1.07995 0.13941 0.32620
 H356 H 1.09927 0.15937 0.28637
 H357 H 1.16077 0.09833 0.28621
 C358 C 0.90276 -0.13002 0.31802
 C359 C 0.89134 -0.10725 0.32939
 C360 C 0.86858 -0.09591 0.31776
 C361 C 0.85727 -0.10729 0.29485
 C362 C 0.86859 -0.13024 0.28321
 C363 C 0.89152 -0.14144 0.29513
 C364 C 0.90298 -0.09558 0.35299
 C365 C 0.91281 -0.08591 0.37276
 C366 C 0.92438 -0.07465 0.39592
 C367 C 0.93427 -0.06505 0.41569
 H368 H 0.92039 -0.13897 0.32686
 H369 H 0.85956 -0.07826 0.32640
 H370 H 0.83969 -0.09801 0.28640
 H371 H 0.90090 -0.15903 0.28692
 C372 C 0.90324 0.13018 0.68277
 C373 C 0.89161 0.10774 0.67100
 C374 C 0.86852 0.09670 0.68221
 C375 C 0.85710 0.10804 0.70510
 C376 C 0.86861 0.13066 0.71715
 C377 C 0.89188 0.14156 0.70564
 C378 C 0.90335 0.09614 0.64739
 C379 C 0.91324 0.08652 0.62760
 C380 C 0.92484 0.07531 0.60441
 C381 C 0.93469 0.06573 0.58459
 H382 H 0.92112 0.13891 0.67426
 H383 H 0.85933 0.07932 0.67326
 H384 H 0.83924 0.09901 0.71321
 H385 H 0.90145 0.15887 0.71417
 C386 C 1.13179 -0.09628 0.68247
 C387 C 1.10908 -0.10761 0.67081
 C388 C 1.09764 -0.13034 0.68222
 C389 C 1.10885 -0.14174 0.70518
 C390 C 1.13174 -0.13056 0.71713
 C391 C 1.14306 -0.10764 0.70544
 C392 C 1.09750 -0.09597 0.64713
 C393 C 1.08772 -0.08632 0.62730
 C394 C 1.07622 -0.07507 0.60406
 C395 C 1.06641 -0.06546 0.58424
 H396 H 1.14083 -0.07867 0.67381
 H397 H 1.08005 -0.13929 0.67336
 H398 H 1.09946 -0.15931 0.71341
 H399 H 1.16061 -0.09837 0.71392
 C400 C 0.31755 1.13041 1.09699
 C401 C 0.32899 1.10770 1.10844
 C402 C 0.31743 1.09638 1.13124
 C403 C 0.29454 1.10772 1.14260
 C404 C 0.28272 1.13070 1.13132
 C405 C 0.29468 1.14183 1.10826
 C406 C 0.35259 1.09605 1.09679
 C407 C 0.37236 1.08636 1.08697
 C408 C 0.39552 1.07508 1.07545
 C409 C 0.41530 1.06544 1.06563
 H410 H 0.32633 1.13935 1.07932
 H411 H 0.32614 1.07876 1.14028
 H412 H 0.28634 1.09829 1.16022
 H413 H 0.28659 1.15938 1.09869
 C414 C 0.31816 0.86917 0.90335
 C415 C 0.32952 0.89183 0.89175
 C416 C 0.31784 0.90305 0.86896
 C417 C 0.29492 0.89169 0.85776
 C418 C 0.28318 0.86876 0.86918
 C419 C 0.29524 0.85773 0.89224
 C420 C 0.35317 0.90351 0.90323
 C421 C 0.37298 0.91322 0.91289
 C422 C 0.39619 0.92454 0.92425
 C423 C 0.41600 0.93418 0.93397
 H424 H 0.32703 0.86031 0.92103
 H425 H 0.32647 0.92063 0.85980
 H426 H 0.28662 0.90106 0.84013
 H427 H 0.28721 0.84022 0.90192
 C428 C 0.68238 0.90358 1.13143
 C429 C 0.67073 0.89237 1.10864
 C430 C 0.68209 0.86968 1.09709
 C431 C 0.70498 0.85818 1.10825
 C432 C 0.71703 0.86919 1.13131
 C433 C 0.70528 0.89216 1.14268
 C434 C 0.64711 0.90411 1.09712
 C435 C 0.62731 0.91385 1.08742
 C436 C 0.60411 0.92517 1.07601
 C437 C 0.58429 0.93479 1.06623
 H438 H 0.67374 0.92118 1.14055
 H439 H 0.67324 0.86083 1.07941
 H440 H 0.71302 0.84065 1.09861
 H441 H 0.71355 0.90151 1.16031
 C442 C 0.68219 1.09697 0.86900
 C443 C 0.67048 1.10827 0.89172
 C444 C 0.68181 1.13098 0.90322
 C445 C 0.70474 1.14239 0.89208
 C446 C 0.71685 1.13127 0.86910
 C447 C 0.70512 1.10830 0.85777
 C448 C 0.64685 1.09659 0.90325
 C449 C 0.62705 1.08685 0.91294
 C450 C 0.60388 1.07547 0.92433
 C451 C 0.58410 1.06576 0.93406
 H452 H 0.67358 1.07936 0.85991
 H453 H 0.67291 1.13992 0.92084
 H454 H 0.71275 1.15994 0.90168
 H455 H 0.71345 1.09886 0.84021
 C456 C 0.09663 0.31769 0.13070
 C457 C 0.10805 0.32927 0.10795
 C458 C 0.13086 0.31787 0.09652
 C459 C 0.14224 0.29500 0.10777
 C460 C 0.13095 0.28314 0.13070
 C461 C 0.10796 0.29482 0.14201
 C462 C 0.09639 0.35286 0.09639
 C463 C 0.08663 0.37264 0.08674
 C464 C 0.07522 0.39580 0.07545
 C465 C 0.06550 0.41559 0.06581
 H466 H 0.07896 0.32635 0.13974
 H467 H 0.13988 0.32668 0.07889
 H468 H 0.15987 0.28676 0.09840
 H469 H 0.09859 0.28644 0.15958
 C470 C -0.13200 0.31905 -0.09668
 C471 C -0.10869 0.32989 -0.10763
 C472 C -0.09677 0.31773 -0.12980
 C473 C -0.10808 0.29485 -0.14102
 C474 C -0.13156 0.28373 -0.13021
 C475 C -0.14337 0.29617 -0.10786
 C476 C -0.09702 0.35347 -0.09614
 C477 C -0.08721 0.37323 -0.08656
 C478 C -0.07573 0.39636 -0.07535
 C479 C -0.06596 0.41612 -0.06574
 H480 H -0.14142 0.32831 -0.07951
 H481 H -0.07870 0.32594 -0.13845
 H482 H -0.09827 0.28598 -0.15811
 H483 H -0.16141 0.28839 -0.09891
 C484 C 0.09738 0.68167 -0.13026
 C485 C 0.10853 0.67028 -0.10727
 C486 C 0.13105 0.68188 -0.09552
 C487 C 0.14242 0.70477 -0.10671
 C488 C 0.13140 0.71644 -0.12989
 C489 C 0.10869 0.70455 -0.14150
 C490 C 0.09685 0.64670 -0.09578
 C491 C 0.08704 0.62694 -0.08620
 C492 C 0.07553 0.60380 -0.07501
 C493 C 0.06573 0.58405 -0.06543
 H494 H 0.07993 0.67285 -0.13953
 H495 H 0.13985 0.67323 -0.07770
 H496 H 0.15981 0.71320 -0.09709
 H497 H 0.09954 0.71276 -0.15928
 C498 C -0.09719 0.68178 0.13085
 C499 C -0.10837 0.67043 0.10788
 C500 C -0.13092 0.68208 0.09617
 C501 C -0.14228 0.70497 0.10738
 C502 C -0.13123 0.71660 0.13054
 C503 C -0.10849 0.70467 0.14211
 C504 C -0.09673 0.64682 0.09638
 C505 C -0.08697 0.62703 0.08679
 C506 C -0.07554 0.60385 0.07558
 C507 C -0.06581 0.58406 0.06597
 H508 H -0.07971 0.67293 0.14010
 H509 H -0.13975 0.67346 0.07837
 H510 H -0.15969 0.71343 0.09779
 H511 H -0.09932 0.71286 0.15987
 C512 C 1.12996 0.09585 0.68341
 C513 C 1.10784 0.10775 0.67117
 C514 C 1.09718 0.13128 0.68171
 C515 C 1.10867 0.14296 0.70435
 C516 C 1.13104 0.13124 0.71679
 C517 C 1.14149 0.10747 0.70605
 C518 C 1.09626 0.09596 0.64764
 C519 C 1.08666 0.08615 0.62784
 C520 C 1.07550 0.07478 0.60458
 C521 C 1.06596 0.06517 0.58466
 H522 H 1.13835 0.07759 0.67543
 H523 H 1.08006 0.14069 0.67235
 H524 H 1.10012 0.16129 0.71184
 H525 H 1.15852 0.09770 0.71509
 C526 C 0.87049 -0.09665 0.68240
 C527 C 0.89309 -0.10823 0.67077
 C528 C 0.90456 -0.13088 0.68238
 C529 C 0.89346 -0.14194 0.70554
 C530 C 0.87067 -0.13048 0.71745
 C531 C 0.85935 -0.10765 0.70555
 C532 C 0.90452 -0.09677 0.64700
 C533 C 0.91403 -0.08704 0.62712
 C534 C 0.92517 -0.07554 0.60390
 C535 C 0.93473 -0.06569 0.58411
 H536 H 0.86145 -0.07909 0.67358
 H537 H 0.92209 -0.14000 0.67352
 H538 H 0.90284 -0.15944 0.71399
 H539 H 0.84187 -0.09817 0.71395
 C540 C 1.13057 -0.09753 0.31782
 C541 C 1.10781 -0.10886 0.32935
 C542 C 1.09631 -0.13149 0.31781
 C543 C 1.10751 -0.14276 0.29480
 C544 C 1.13044 -0.13152 0.28297
 C545 C 1.14181 -0.10873 0.29483
 C546 C 1.09630 -0.09720 0.35299
 C547 C 1.08675 -0.08731 0.37277
 C548 C 1.07560 -0.07566 0.39592
 C549 C 1.06604 -0.06573 0.41567
 H550 H 1.13964 -0.07999 0.32660
 H551 H 1.07867 -0.14043 0.32659
 H552 H 1.09813 -0.16026 0.28641
 H553 H 1.15938 -0.09940 0.28647
 C554 C 0.87024 0.09690 0.31754
 C555 C 0.89266 0.10866 0.32930
 C556 C 0.90363 0.13171 0.31806
 C557 C 0.89222 0.14299 0.29514
 C558 C 0.86960 0.13135 0.28311
 C559 C 0.85879 0.10811 0.29464
 C560 C 0.90431 0.09710 0.35293
 C561 C 0.91396 0.08733 0.37274
 C562 C 0.92519 0.07587 0.39595
 C563 C 0.93479 0.06610 0.41578
 H564 H 0.86159 0.07903 0.32608
 H565 H 0.92100 0.14099 0.32702
 H566 H 0.90119 0.16083 0.28701
 H567 H 0.84148 0.09846 0.28610
 C568 C 0.09550 0.31766 -0.13062
 C569 C 0.10703 0.32938 -0.10801
 C570 C 0.12974 0.31794 -0.09643
 C571 C 0.14094 0.29489 -0.10742
 C572 C 0.12957 0.28289 -0.13022
 C573 C 0.10665 0.29460 -0.14166
 C574 C 0.09557 0.35312 -0.09665
 C575 C 0.08604 0.37299 -0.08704
 C576 C 0.07489 0.39622 -0.07570
 C577 C 0.06536 0.41602 -0.06598
 H578 H 0.07788 0.32636 -0.13974
 H579 H 0.13882 0.32685 -0.07891
 H580 H 0.15854 0.28665 -0.09797
 H581 H 0.09721 0.28606 -0.15912
 C582 C -0.09649 0.31796 0.13077
 C583 C -0.10812 0.32981 0.10826
 C584 C -0.13108 0.31868 0.09694
 C585 C -0.14243 0.29579 0.10808
 C586 C -0.13095 0.28365 0.13077
 C587 C -0.10779 0.29505 0.14196
 C588 C -0.09651 0.35339 0.09675
 C589 C -0.08686 0.37315 0.08706
 C590 C -0.07558 0.39627 0.07567
 C591 C -0.06594 0.41601 0.06594
 H592 H -0.07868 0.32642 0.13969
 H593 H -0.14025 0.32771 0.07949
 H594 H -0.16020 0.28777 0.09882
 H595 H -0.09828 0.28641 0.15935
 C596 C -0.09698 0.68158 -0.13117
 C597 C -0.10769 0.67081 -0.10768
 C598 C -0.12986 0.68286 -0.09568
 C599 C -0.14137 0.70555 -0.10715
 C600 C -0.13083 0.71653 -0.13085
 C601 C -0.10844 0.70427 -0.14269
 C602 C -0.09606 0.64729 -0.09600
 C603 C -0.08639 0.62754 -0.08626
 C604 C -0.07514 0.60435 -0.07491
 C605 C -0.06556 0.58451 -0.06527
 H606 H -0.07982 0.67238 -0.14065
 H607 H -0.13829 0.67470 -0.07746
 H608 H -0.15841 0.71445 -0.09729
 H609 H -0.09982 0.71196 -0.16097
 C610 C 0.12992 0.68174 0.09629
 C611 C 0.10771 0.66989 0.10836
 C612 C 0.09683 0.68105 0.13159
 C613 C 0.10812 0.70398 0.14273
 C614 C 0.13050 0.71612 0.13076
 C615 C 0.14125 0.70466 0.10736
 C616 C 0.09608 0.64631 0.09689
 C617 C 0.08641 0.62656 0.08722
 C618 C 0.07512 0.60345 0.07585
 C619 C 0.06549 0.58371 0.06612
 H620 H 0.13850 0.67326 0.07828
 H621 H 0.07962 0.67202 0.14111
 H622 H 0.09926 0.71202 0.16073
 H623 H 0.15836 0.71331 0.09744
 C624 C 0.31684 1.09558 0.86943
 C625 C 0.32885 1.10710 0.89190
 C626 C 0.31806 1.13032 0.90299
 C627 C 0.29541 1.14206 0.89161
 C628 C 0.28321 1.13073 0.86892
 C629 C 0.29419 1.10729 0.85801
 C630 C 0.35238 1.09527 0.90343
 C631 C 0.37217 1.08550 0.91306
 C632 C 0.39541 1.07420 0.92432
 C633 C 0.41532 1.06466 0.93394
 H634 H 0.32502 1.07757 0.86071
 H635 H 0.32724 1.13943 0.92037
 H636 H 0.28775 1.16016 0.90051
 H637 H 0.28532 1.09782 0.84072
 C638 C 0.31865 0.90209 1.13087
 C639 C 0.32967 0.89133 1.10754
 C640 C 0.31776 0.86917 1.09551
 C641 C 0.29490 0.85778 1.10677
 C642 C 0.28358 0.86841 1.13029
 C643 C 0.29580 0.89075 1.14218
 C644 C 0.35323 0.90302 1.09599
 C645 C 0.37297 0.91284 1.08637
 C646 C 0.39609 0.92434 1.07515
 C647 C 0.41585 0.93415 1.06556
 H648 H 0.32773 0.91925 1.14035
 H649 H 0.32615 0.86069 1.07743
 H650 H 0.28619 0.84069 1.09693
 H651 H 0.28787 0.89956 1.16025
 C652 C 0.68221 1.09633 1.12988
 C653 C 0.67000 1.10831 1.10775
 C654 C 0.68080 1.13160 1.09688
 C655 C 0.70372 1.14293 1.10808
 C656 C 0.71621 1.13109 1.13040
 C657 C 0.70513 1.10760 1.14113
 C658 C 0.64639 1.09670 1.09624
 C659 C 0.62660 1.08697 1.08662
 C660 C 0.60344 1.07556 1.07537
 C661 C 0.58367 1.06583 1.06574
 H662 H 0.67402 1.07826 1.13845
 H663 H 0.67148 1.14104 1.07973
 H664 H 0.71147 1.16097 1.09920
 H665 H 0.71406 1.09777 1.15819
 C666 C 0.68218 0.90277 0.86973
 C667 C 0.67119 0.89184 0.89300
 C668 C 0.68297 0.86939 0.90470
 C669 C 0.70564 0.85785 0.89313
 C670 C 0.71684 0.86863 0.86965
 C671 C 0.70483 0.89128 0.85812
 C672 C 0.64770 0.90356 0.90469
 C673 C 0.62794 0.91339 0.91431
 C674 C 0.60473 0.92487 0.92543
 C675 C 0.58486 0.93461 0.93489
 H676 H 0.67318 0.92013 0.86048
 H677 H 0.67462 0.86078 0.92275
 H678 H 0.71434 0.84058 0.90273
 H679 H 0.71264 0.90009 0.84000
   
