data_POSCAR
  _audit_creation_date              2014-09-24
  _audit_creation_method            'ToBaCCo'
  _symmetry_space_group_name_H-M    'P1'
  _symmetry_Int_Tables_number       1
  _symmetry_cell_setting            triclinic
  loop_
  _symmetry_equiv_pos_as_xyz
 x,y,z
_cell_length_a 31.0193
_cell_length_b 31.0109
_cell_length_c 17.0033
_cell_angle_alpha 89.690500
_cell_angle_beta 89.139100
_cell_angle_gamma 93.632300
loop_
  _atom_site_label
  _atom_site_type_symbol
  _atom_site_fract_x
  _atom_site_fract_y
  _atom_site_fract_z
O1 O -0.04747 0.23828 0.08190
 O2 O 0.03154 0.23868 -0.08440
 O3 O -0.05491 0.23636 -0.06992
 O4 O 0.03743 0.23375 0.06870
 O5 O 0.02962 0.16244 0.06606
 O6 O -0.05500 0.16526 -0.07720
 O7 O 0.02920 0.16735 -0.08503
 O8 O -0.05247 0.16704 0.07416
 Cu9 Cu -0.00758 0.24414 -0.00116
 Cu10 Cu -0.01266 0.15864 -0.00595
 C11 C -0.06420 0.20183 0.10458
 C12 C 0.04454 0.20354 -0.11146
 C13 C -0.07109 0.20032 -0.09523
 C14 C 0.04883 0.19677 0.09023
 O15 O 0.46371 0.74747 0.56930
 O16 O 0.55318 0.75130 0.41890
 O17 O 0.46525 0.75147 0.41669
 O18 O 0.55072 0.74902 0.57049
 O19 O 0.54524 0.67771 0.56489
 O20 O 0.46474 0.68027 0.41291
 O21 O 0.54724 0.67995 0.41494
 O22 O 0.46250 0.67624 0.56387
 Cu23 Cu 0.50850 0.75733 0.49393
 Cu24 Cu 0.50441 0.67175 0.48868
 C25 C 0.44753 0.71033 0.59025
 C26 C 0.56629 0.71552 0.39452
 C27 C 0.44980 0.71528 0.39099
 C28 C 0.56312 0.71231 0.59134
 O29 O 1.03863 0.73831 0.07018
 O30 O 0.95642 0.76174 -0.07275
 O31 O 1.04071 0.74789 -0.08755
 O32 O 0.96304 0.76569 0.07336
 O33 O 0.98780 0.83414 0.07612
 O34 O 1.06349 0.81674 -0.08546
 O35 O 0.98001 0.83054 -0.07353
 O36 O 1.06441 0.80641 0.06896
 Cu37 Cu 0.99916 0.74642 -0.00660
 Cu38 Cu 1.02679 0.82859 -0.00432
 C39 C 1.06454 0.76800 0.09555
 C40 C 0.95257 0.80050 -0.09413
 C41 C 1.06493 0.77939 -0.11413
 C42 C 0.96167 0.80382 0.10037
 O43 O 0.45129 0.25549 0.42284
 O44 O 0.53596 0.26146 0.57678
 O45 O 0.44880 0.25611 0.57544
 O46 O 0.53861 0.25946 0.42529
 O47 O 0.53819 0.33069 0.42410
 O48 O 0.45175 0.32744 0.57075
 O49 O 0.53481 0.33264 0.57409
 O50 O 0.45546 0.32687 0.41973
 Cu51 Cu 0.49348 0.25065 0.50034
 Cu52 Cu 0.49499 0.33625 0.49690
 C53 C 0.43848 0.29105 0.39712
 C54 C 0.55058 0.29866 0.59900
 C55 C 0.43453 0.29196 0.59646
 C56 C 0.55447 0.29633 0.40201
 O57 O 0.77101 -0.03463 0.09344
 O58 O 0.74224 0.04229 -0.05890
 O59 O 0.76222 -0.03916 -0.05636
 O60 O 0.75903 0.04868 0.09220
 O61 O 0.82854 0.06273 0.06634
 O62 O 0.83035 -0.01845 -0.08383
 O63 O 0.81115 0.06094 -0.08271
 O64 O 0.84007 -0.01920 0.06498
 Cu65 Cu 0.75137 0.00299 0.01984
 Cu66 Cu 0.83428 0.02370 -0.01071
 C67 C 0.81053 -0.04142 0.10236
 C68 C 0.77145 0.06445 -0.09665
 C69 C 0.79767 -0.04406 -0.09332
 C70 C 0.79458 0.07027 0.10409
 O71 O 0.26208 0.53745 0.42972
 O72 O 0.25552 0.44969 0.58181
 O73 O 0.25880 0.53686 0.58093
 O74 O 0.25714 0.44980 0.42910
 O75 O 0.32845 0.45362 0.43145
 O76 O 0.33000 0.53639 0.58181
 O77 O 0.32688 0.45362 0.58252
 O78 O 0.33328 0.53711 0.43178
 Cu79 Cu 0.25093 0.49318 0.50503
 Cu80 Cu 0.33648 0.49516 0.50688
 C81 C 0.29935 0.55321 0.40804
 C82 C 0.29098 0.43633 0.60610
 C83 C 0.29539 0.55222 0.60449
 C84 C 0.29323 0.43627 0.40680
 O85 O 0.24699 0.95279 -0.08033
 O86 O 0.23360 1.03527 0.07251
 O87 O 0.23437 0.94811 0.07000
 O88 O 0.23849 1.03571 -0.08089
 O89 O 0.16776 1.02701 -0.09499
 O90 O 0.16359 0.94227 0.05578
 O91 O 0.16306 1.02715 0.05639
 O92 O 0.17636 0.94425 -0.09584
 Cu93 Cu 0.24542 0.99394 -0.00220
 Cu94 Cu 0.16070 0.98420 -0.01979
 C95 C 0.21449 0.93483 -0.11430
 C96 C 0.19579 1.04665 0.08737
 C97 C 0.19758 0.92922 0.08562
 C98 C 0.20387 1.04575 -0.11390
 O99 O 0.74717 0.55176 0.57940
 O100 O 0.74858 0.46530 0.42678
 O101 O 0.75023 0.55314 0.42789
 O102 O 0.74748 0.46492 0.57978
 O103 O 0.67626 0.46365 0.57626
 O104 O 0.67887 0.54770 0.42722
 O105 O 0.67736 0.46476 0.42504
 O106 O 0.67581 0.54579 0.57704
 Cu107 Cu 0.75589 0.50905 0.50327
 Cu108 Cu 0.67025 0.50491 0.50099
 C109 C 0.71052 0.56400 0.60175
 C110 C 0.71227 0.44972 0.40220
 C111 C 0.71439 0.56637 0.40499
 C112 C 0.71046 0.44904 0.60220
 C113 C 0.20732 0.15273 0.18637
 C114 C 0.16564 0.16580 0.17344
 C115 C 0.15419 0.20833 0.18615
 C116 C 0.18462 0.23836 0.21858
 C117 C 0.22678 0.22565 0.23489
 C118 C 0.23829 0.18282 0.21829
 C119 C 0.28042 0.17135 0.23363
 C120 C 0.31086 0.20128 0.26519
 C121 C 0.30025 0.24375 0.28115
 C122 C 0.25783 0.25622 0.26581
 C123 C 0.17390 0.28077 0.23480
 C124 C 0.20408 0.31051 0.26722
 C125 C 0.24614 0.29901 0.28256
 C126 C 0.27697 0.32920 0.31395
 C127 C 0.31893 0.31646 0.32567
 C128 C 0.33098 0.27429 0.31168
 H129 H 0.28998 0.13900 0.22176
 H130 H 0.34300 0.19112 0.27625
 H131 H 0.14186 0.29105 0.22322
 H132 H 0.19447 0.34283 0.27920
 H133 H 0.14247 0.14314 0.14664
 H134 H 0.34205 0.33911 0.35269
 C135 C 0.73205 0.67661 0.32400
 C136 C 0.68958 0.68897 0.33374
 C137 C 0.67826 0.73164 0.32222
 C138 C 0.71032 0.76302 0.29720
 C139 C 0.75329 0.75097 0.28428
 C140 C 0.76417 0.70769 0.29789
 C141 C 0.80676 0.69651 0.28446
 C142 C 0.83811 0.72708 0.25609
 C143 C 0.82804 0.76998 0.24239
 C144 C 0.78553 0.78232 0.25794
 C145 C 0.70041 0.80598 0.28406
 C146 C 0.73205 0.83664 0.25685
 C147 C 0.77467 0.82538 0.24320
 C148 C 0.80634 0.85583 0.21277
 C149 C 0.84853 0.84340 0.20065
 C150 C 0.85926 0.80054 0.21145
 H151 H 0.81585 0.66379 0.29428
 H152 H 0.87045 0.71697 0.24529
 H153 H 0.66791 0.81596 0.29351
 H154 H 0.72292 0.86930 0.24650
 H155 H 0.66531 0.66549 0.35685
 H156 H 0.87229 0.86639 0.17446
 C157 C 0.84088 0.21825 0.23279
 C158 C 0.82634 0.17467 0.23820
 C159 C 0.78215 0.16197 0.23692
 C160 C 0.75234 0.19259 0.25611
 C161 C 0.76723 0.23650 0.26592
 C162 C 0.81155 0.24963 0.25214
 C163 C 0.82521 0.29346 0.25837
 C164 C 0.79612 0.32388 0.28108
 C165 C 0.75222 0.31157 0.29458
 C166 C 0.73738 0.26760 0.28509
 C167 C 0.70822 0.18048 0.26495
 C168 C 0.67900 0.21084 0.28635
 C169 C 0.69295 0.25437 0.29674
 C170 C 0.66354 0.28503 0.31850
 C171 C 0.67872 0.32838 0.32557
 C172 C 0.72264 0.34203 0.31712
 H173 H 0.85875 0.30413 0.24808
 H174 H 0.80804 0.35727 0.28698
 H175 H 0.69631 0.14719 0.25738
 H176 H 0.64528 0.20012 0.29402
 H177 H 0.84935 0.15035 0.22853
 H178 H 0.65629 0.35145 0.34541
 C179 C 0.34109 0.72190 0.31115
 C180 C 0.32897 0.67819 0.32745
 C181 C 0.28645 0.66089 0.32150
 C182 C 0.25475 0.68764 0.29543
 C183 C 0.26633 0.73130 0.27376
 C184 C 0.30959 0.74867 0.28194
 C185 C 0.31993 0.79192 0.26004
 C186 C 0.28854 0.81741 0.22851
 C187 C 0.24555 0.80085 0.22035
 C188 C 0.23427 0.75769 0.24500
 C189 C 0.21166 0.67161 0.29075
 C190 C 0.18023 0.69766 0.26375
 C191 C 0.19099 0.74046 0.23985
 C192 C 0.15934 0.76573 0.20877
 C193 C 0.17069 0.80780 0.18317
 C194 C 0.21341 0.82600 0.18806
 H195 H 0.35262 0.80591 0.26555
 H196 H 0.29806 0.85031 0.21098
 H197 H 0.20197 0.63860 0.30736
 H198 H 0.14743 0.68366 0.26062
 H199 H 0.35251 0.65785 0.35193
 H200 H 0.14572 0.82628 0.15827
 C201 C 0.82341 0.21626 0.81453
 C202 C 0.80650 0.17296 0.81890
 C203 C 0.76478 0.16076 0.79410
 C204 C 0.73853 0.19221 0.76519
 C205 C 0.75454 0.23600 0.76062
 C206 C 0.79739 0.24809 0.78386
 C207 C 0.81296 0.29149 0.77535
 C208 C 0.78677 0.32251 0.74464
 C209 C 0.74375 0.31135 0.72449
 C210 C 0.72733 0.26771 0.73339
 C211 C 0.69597 0.18070 0.74271
 C212 C 0.66903 0.21185 0.71757
 C213 C 0.68396 0.25537 0.71321
 C214 C 0.65645 0.28675 0.68864
 C215 C 0.67270 0.32973 0.68285
 C216 C 0.71639 0.34242 0.69581
 H217 H 0.84565 0.30159 0.79167
 H218 H 0.80001 0.35554 0.73852
 H219 H 0.68288 0.14751 0.74555
 H220 H 0.63624 0.20160 0.70205
 H221 H 0.82577 0.14822 0.84262
 H222 H 0.65162 0.35313 0.66016
 C223 C 0.34067 0.71944 0.68383
 C224 C 0.32710 0.67547 0.67875
 C225 C 0.28362 0.66056 0.68646
 C226 C 0.25296 0.69012 0.70753
 C227 C 0.26639 0.73432 0.71915
 C228 C 0.31023 0.74910 0.70609
 C229 C 0.32233 0.79317 0.71450
 C230 C 0.29197 0.82229 0.73692
 C231 C 0.24843 0.80833 0.75060
 C232 C 0.23551 0.76412 0.74064
 C233 C 0.20917 0.67669 0.71628
 C234 C 0.17894 0.70606 0.73725
 C235 C 0.19157 0.74982 0.75002
 C236 C 0.16100 0.77933 0.77217
 C237 C 0.17435 0.82276 0.78637
 C238 C 0.21768 0.83769 0.77396
 H239 H 0.35551 0.80528 0.70476
 H240 H 0.30296 0.85588 0.74378
 H241 H 0.19807 0.64326 0.70759
 H242 H 0.14553 0.69407 0.74402
 H243 H 0.35026 0.65283 0.66021
 H244 H 0.15051 0.84555 0.80133
 C245 C 0.19865 0.14474 0.78069
 C246 C 0.15567 0.15567 0.79260
 C247 C 0.14410 0.19846 0.78195
 C248 C 0.17637 0.23110 0.76207
 C249 C 0.21991 0.22057 0.75242
 C250 C 0.23088 0.17722 0.76067
 C251 C 0.27389 0.16692 0.74683
 C252 C 0.30559 0.19870 0.72467
 C253 C 0.29544 0.24186 0.71641
 C254 C 0.25219 0.25308 0.73049
 C255 C 0.16578 0.27405 0.74974
 C256 C 0.19740 0.30607 0.72806
 C257 C 0.24067 0.29625 0.71838
 C258 C 0.27268 0.32831 0.69563
 C259 C 0.31562 0.31690 0.68789
 C260 C 0.32724 0.27402 0.69301
 H261 H 0.28336 0.13407 0.75289
 H262 H 0.33824 0.18930 0.71445
 H263 H 0.13284 0.28322 0.75683
 H264 H 0.18781 0.33871 0.71923
 H265 H 0.13064 0.13027 0.80331
 H266 H 0.33991 0.34142 0.66896
 C267 C 0.72393 0.67211 0.68811
 C268 C 0.68190 0.68418 0.67365
 C269 C 0.66913 0.72615 0.68672
 C270 C 0.69892 0.75672 0.71986
 C271 C 0.74151 0.74498 0.73649
 C272 C 0.75414 0.70271 0.71974
 C273 C 0.79655 0.69210 0.73512
 C274 C 0.82625 0.72247 0.76727
 C275 C 0.81452 0.76445 0.78431
 C276 C 0.77177 0.77585 0.76863
 C277 C 0.68721 0.79865 0.73685
 C278 C 0.71663 0.82858 0.77076
 C279 C 0.75892 0.81776 0.78675
 C280 C 0.78875 0.84795 0.82034
 C281 C 0.83122 0.83665 0.83314
 C282 C 0.84437 0.79524 0.81718
 H283 H 0.80690 0.66008 0.72291
 H284 H 0.85859 0.71292 0.77843
 H285 H 0.65498 0.80833 0.72501
 H286 H 0.70619 0.86050 0.78359
 H287 H 0.65953 0.66117 0.64560
 H288 H 0.85352 0.85949 0.86192
 N289 N 0.18897 0.08448 0.13227
 N290 N 0.21875 0.11145 0.15581
 N291 N 0.70632 0.60187 0.64714
 N292 N 0.73621 0.63088 0.65964
 N293 N 0.82223 0.92271 0.14822
 N294 N 0.79414 0.89601 0.17976
 N295 N 0.29272 0.39833 0.65288
 N296 N 0.26194 0.36995 0.66580
 N297 N 0.90063 0.19829 0.15966
 N298 N 0.88080 0.22914 0.18995
 N299 N 0.40915 0.70475 0.63697
 N300 N 0.38286 0.73349 0.65270
 N301 N 0.09133 0.75866 0.15051
 N302 N 0.11576 0.74787 0.20247
 N303 N 0.58848 0.30424 0.64480
 N304 N 0.61442 0.27492 0.65743
 N305 N 0.76025 0.09139 0.84944
 N306 N 0.74831 0.11653 0.79918
 N307 N 0.30490 0.59244 0.36402
 N308 N 0.27524 0.61812 0.35222
 N309 N 0.22093 0.90732 0.82936
 N310 N 0.22993 0.88310 0.77507
 N311 N 0.70809 0.41154 0.35613
 N312 N 0.73666 0.38436 0.34563
 N313 N 0.07341 0.20479 0.83147
 N314 N 0.09936 0.20741 0.77571
 N315 N 0.60598 0.71296 0.35236
 N316 N 0.63583 0.74294 0.34716
 N317 N 0.91480 0.81156 0.86524
 N318 N 0.88556 0.78315 0.84510
 N319 N 0.40108 0.29302 0.35029
 N320 N 0.37226 0.26260 0.34016
 N321 N 0.80389 0.91859 0.86121
 N322 N 0.77542 0.88794 0.85164
 N323 N 0.29627 0.39825 0.36076
 N324 N 0.26566 0.37052 0.34455
 N325 N 0.20570 0.07459 0.82966
 N326 N 0.20842 0.10029 0.77406
 N327 N 0.71185 0.60558 0.36176
 N328 N 0.74247 0.63443 0.35147
 N329 N 0.09158 0.77300 0.82785
 N330 N 0.11608 0.76547 0.77281
 N331 N 0.59399 0.30142 0.35821
 N332 N 0.62043 0.27225 0.34675
 N333 N 0.88986 0.19692 0.86146
 N334 N 0.86533 0.22731 0.84723
 N335 N 0.41171 0.71095 0.34508
 N336 N 0.38325 0.73842 0.33657
 N337 N 0.19311 0.89050 0.13148
 N338 N 0.22385 0.86808 0.15340
 N339 N 0.70471 0.41120 0.64988
 N340 N 0.73264 0.38432 0.66650
 N341 N 0.79830 0.10558 0.15651
 N342 N 0.76900 0.12254 0.19674
 N343 N 0.29998 0.59103 0.64877
 N344 N 0.27091 0.61771 0.65892
 N345 N 0.92740 0.81451 0.15148
 N346 N 0.89819 0.78676 0.17551
 N347 N 0.39612 0.29442 0.64289
 N348 N 0.36877 0.26346 0.66103
 N349 N 0.08614 0.19165 0.13564
 N350 N 0.11398 0.22129 0.15521
 N351 N 0.60053 0.70793 0.63762
 N352 N 0.62834 0.73803 0.65583
   
