data_POSCAR
  _audit_creation_date              2014-09-24
  _audit_creation_method            'ToBaCCo'
  _symmetry_space_group_name_H-M    'P1'
  _symmetry_Int_Tables_number       1
  _symmetry_cell_setting            triclinic
  loop_
  _symmetry_equiv_pos_as_xyz
 x,y,z
_cell_length_a 33.9017
_cell_length_b 34.5596
_cell_length_c 11.6046
_cell_angle_alpha 89.985700
_cell_angle_beta 91.377700
_cell_angle_gamma 119.284100
loop_
  _atom_site_label
  _atom_site_type_symbol
  _atom_site_fract_x
  _atom_site_fract_y
  _atom_site_fract_z
C1 C 0.15719 0.48031 0.35898
 C2 C 0.13064 0.47453 0.45394
 C3 C 0.14971 0.48480 0.56518
 C4 C 0.19706 0.50280 0.58209
 C5 C 0.22434 0.50969 0.48503
 C6 C 0.20424 0.49854 0.37296
 C7 C 0.23135 0.50432 0.27769
 C8 C 0.27736 0.51933 0.29272
 C9 C 0.29771 0.52930 0.40323
 C10 C 0.27131 0.52507 0.50023
 C11 C 0.21764 0.51246 0.69286
 C12 C 0.26406 0.52766 0.70785
 C13 C 0.29129 0.53350 0.61254
 C14 C 0.33771 0.54625 0.62573
 C15 C 0.36319 0.55059 0.52922
 C16 C 0.34357 0.54155 0.41878
 H17 H 0.21698 0.49655 0.19087
 H18 H 0.29689 0.52273 0.21713
 H19 H 0.19779 0.50780 0.76858
 H20 H 0.27839 0.53408 0.79472
 H21 H 0.09418 0.45902 0.44187
 H22 H 0.39809 0.55810 0.54071
 C23 C 0.47830 -0.19282 0.56068
 C24 C 0.47352 -0.17903 0.45026
 C25 C 0.48486 -0.19414 0.35196
 C26 C 0.49767 -0.22691 0.36195
 C27 C 0.50062 -0.24315 0.47240
 C28 C 0.49066 -0.22622 0.57241
 C29 C 0.49648 -0.24080 0.68135
 C30 C 0.51294 -0.27074 0.69207
 C31 C 0.52450 -0.28668 0.59414
 C32 C 0.51768 -0.27314 0.48340
 C33 C 0.50964 -0.24216 0.26425
 C34 C 0.52552 -0.27222 0.27480
 C35 C 0.53070 -0.28725 0.38379
 C36 C 0.55039 -0.31463 0.39561
 C37 C 0.55653 -0.32838 0.50426
 C38 C 0.54433 -0.31443 0.60346
 H39 H 0.48900 -0.22853 0.75904
 H40 H 0.51746 -0.28064 0.77775
 H41 H 0.50707 -0.23061 0.17908
 H42 H 0.53473 -0.28284 0.19700
 H43 H 0.46630 -0.15184 0.44169
 H44 H 0.57290 -0.34855 0.51212
 C45 C 1.20114 0.65712 0.62970
 C46 C 1.18258 0.62717 0.53855
 C47 C 1.19721 0.63909 0.42634
 C48 C 1.23521 0.68135 0.40575
 C49 C 1.25573 0.71165 0.49998
 C50 C 1.23891 0.69915 0.61245
 C51 C 1.25835 0.72995 0.70402
 C52 C 1.29224 0.77317 0.68463
 C53 C 1.30752 0.78715 0.57284
 C54 C 1.28988 0.75600 0.48019
 C55 C 1.25168 0.69547 0.29466
 C56 C 1.28493 0.73909 0.27533
 C57 C 1.30336 0.77017 0.36643
 C58 C 1.33337 0.81549 0.34595
 C59 C 1.35098 0.84565 0.43781
 C60 C 1.33791 0.83213 0.55045
 H61 H 1.24672 0.72096 0.79115
 H62 H 1.30557 0.79600 0.75742
 H63 H 1.23937 0.67345 0.22086
 H64 H 1.29557 0.74857 0.18771
 H65 H 1.15171 0.59614 0.55211
 H66 H 1.37228 0.88066 0.42045
 C67 C 0.64638 0.46147 0.60133
 C68 C 0.62573 0.45043 0.49185
 C69 C 0.65135 0.45902 0.39310
 C70 C 0.69828 0.47611 0.40417
 C71 C 0.71985 0.48727 0.51466
 C72 C 0.69393 0.48056 0.61402
 C73 C 0.71627 0.49316 0.72253
 C74 C 0.76340 0.51264 0.73257
 C75 C 0.78968 0.51941 0.63465
 C76 C 0.76749 0.50609 0.52503
 C77 C 0.72409 0.48282 0.30617
 C78 C 0.77053 0.49958 0.31664
 C79 C 0.79277 0.51156 0.42519
 C80 C 0.83980 0.52910 0.43487
 C81 C 0.86194 0.54349 0.54339
 C82 C 0.83747 0.53919 0.64298
 H83 H 0.69742 0.48853 0.80016
 H84 H 0.77915 0.52218 0.81771
 H85 H 0.70832 0.47431 0.22084
 H86 H 0.78899 0.50374 0.23854
 H87 H 0.58952 0.43775 0.48300
 H88 H 0.89829 0.55720 0.55103
 C89 C 0.46037 0.30690 0.38900
 C90 C 0.45120 0.32309 0.49071
 C91 C 0.45651 0.30891 0.60011
 C92 C 0.46935 0.27608 0.60884
 C93 C 0.47750 0.25815 0.50779
 C94 C 0.47361 0.27400 0.39750
 C95 C 0.48297 0.25644 0.29922
 C96 C 0.49525 0.22330 0.30899
 C97 C 0.49912 0.20704 0.41746
 C98 C 0.49046 0.22493 0.51767
 C99 C 0.47437 0.26095 0.71722
 C100 C 0.48660 0.22821 0.72676
 C101 C 0.49456 0.20962 0.62815
 C102 C 0.50687 0.17634 0.63869
 C103 C 0.51408 0.15776 0.53936
 C104 C 0.51012 0.17253 0.42821
 H105 H 0.48031 0.26790 0.21402
 H106 H 0.50168 0.21043 0.23082
 H107 H 0.46835 0.27399 0.79570
 H108 H 0.48949 0.21737 0.81256
 H109 H 0.44332 0.34985 0.48543
 H110 H 0.52324 0.13192 0.54849
 C111 C 0.68883 0.16069 0.61793
 C112 C 0.67677 0.13891 0.51157
 C113 C 0.69098 0.16131 0.40782
 C114 C 0.72335 0.20654 0.41081
 C115 C 0.73702 0.22964 0.51850
 C116 C 0.71849 0.20709 0.62319
 C117 C 0.73116 0.23147 0.72725
 C118 C 0.76077 0.27721 0.72833
 C119 C 0.78021 0.29971 0.62614
 C120 C 0.76894 0.27548 0.52085
 C121 C 0.74297 0.22890 0.30911
 C122 C 0.77683 0.27317 0.31300
 C123 C 0.79000 0.29694 0.41787
 C124 C 0.82346 0.34189 0.42186
 C125 C 0.83259 0.36619 0.52479
 C126 C 0.81096 0.34577 0.62614
 H127 H 0.71870 0.21573 0.80880
 H128 H 0.76925 0.29474 0.81038
 H129 H 0.73328 0.21179 0.22641
 H130 H 0.79192 0.28904 0.23296
 H131 H 0.65212 0.10384 0.51009
 H132 H 0.85798 0.40103 0.52675
 O133 O 1.09058 0.58864 0.21432
 O134 O 1.12285 0.56687 0.07545
 C135 C 1.12493 0.58783 0.16989
 O136 O 0.92471 0.41322 0.20031
 O137 O 0.88502 0.44629 0.12780
 C138 C 0.88887 0.41783 0.19317
 O139 O 1.04629 0.44334 0.16509
 O140 O 1.09993 0.49565 0.04979
 C141 C 1.08660 0.46407 0.12384
 O142 O 0.97410 0.56821 0.24996
 O143 O 0.90859 0.51870 0.15396
 C144 C 0.93062 0.54716 0.23710
 Zr145 Zr 1.02256 0.56055 0.15878
 O146 O 1.03173 0.56318 0.34005
 O147 O 1.04378 0.62914 0.15836
 Zr148 Zr 0.98924 0.45135 0.12798
 O149 O 0.99401 0.44428 0.30828
 O150 O 0.97106 0.38397 0.10156
 O151 O 1.04494 0.51417 0.15313
 O152 O 0.97024 0.49686 0.17806
 O153 O 0.95268 0.57756 -0.16067
 O154 O 0.89864 0.52467 -0.04683
 C155 C 0.91196 0.55640 -0.12120
 O156 O 1.02659 0.45107 -0.24223
 O157 O 1.09131 0.50086 -0.14390
 C158 C 1.06993 0.47000 -0.22099
 O159 O 0.90535 0.42131 -0.19783
 O160 O 0.87568 0.44873 -0.06558
 C161 C 0.87156 0.42254 -0.15046
 O162 O 1.07556 0.60880 -0.18935
 O163 O 1.11471 0.57525 -0.11646
 C164 C 1.11262 0.60682 -0.17145
 Zr165 Zr 1.00908 0.56767 -0.12739
 O166 O 0.99839 0.56769 -0.30799
 O167 O 1.03005 0.63614 -0.11576
 Zr168 Zr 0.97576 0.45876 -0.15799
 O169 O 0.96445 0.46295 -0.33670
 O170 O 0.95608 0.39062 -0.17033
 Zr171 Zr 1.06333 0.52470 -0.02110
 Zr172 Zr 0.93501 0.49483 0.02436
 O173 O 0.95392 0.50485 -0.14950
 O174 O 1.03020 0.52288 -0.17872
 O175 O 0.97966 0.56368 0.03197
 O176 O 1.01750 0.45604 -0.02983
 O177 O 1.05561 0.58080 0.00702
 O178 O 0.94140 0.43792 -0.00374
 H179 H 0.95556 0.49076 0.25369
 H180 H 1.02842 0.43454 -0.04223
 H181 H 0.93138 0.50140 -0.21037
 H182 H 1.08256 0.61069 0.01381
 H183 H 0.94283 0.37012 0.05373
 H184 H 0.94905 0.38233 -0.25306
 H185 H 0.99306 0.48657 -0.36775
 H186 H 1.02311 0.56547 -0.34567
 H187 H 1.01752 0.64074 -0.04418
 H188 H 1.05501 0.64009 0.23783
 H189 H 1.02547 0.53332 0.36390
 H190 H 1.02417 0.46791 0.33546
 O191 O 0.58094 0.49393 0.20066
 O192 O 0.54202 0.42901 0.09690
 C193 C 0.57140 0.45380 0.17587
 O194 O 0.41049 0.50342 0.21516
 O195 O 0.44580 0.56897 0.11803
 C196 C 0.41794 0.54318 0.19435
 O197 O 0.42866 0.40699 0.21709
 O198 O 0.47065 0.38833 0.10108
 C199 C 0.44532 0.38183 0.18952
 O200 O 0.57591 0.59774 0.19655
 O201 O 0.52448 0.61316 0.10629
 C202 C 0.55965 0.62374 0.17276
 Zr203 Zr 0.55277 0.53219 0.14059
 O204 O 0.55805 0.53697 0.32288
 O205 O 0.62372 0.56988 0.12435
 Zr206 Zr 0.43867 0.46680 0.14620
 O207 O 0.43386 0.46393 0.32755
 O208 O 0.36822 0.42221 0.13060
 O209 O 0.50034 0.46787 0.16341
 O210 O 0.49248 0.53078 0.17067
 O211 O 0.56478 0.59869 -0.19541
 O212 O 0.51821 0.61335 -0.08456
 C213 C 0.54928 0.62440 -0.15999
 O214 O 0.42274 0.41059 -0.22867
 O215 O 0.46736 0.39031 -0.12146
 C216 C 0.44032 0.38520 -0.20889
 O217 O 0.40015 0.50661 -0.18462
 O218 O 0.43979 0.56933 -0.07252
 C219 C 0.40760 0.54509 -0.14512
 O220 O 0.57577 0.49354 -0.21317
 O221 O 0.54124 0.43071 -0.10387
 C222 C 0.56923 0.45451 -0.18128
 Zr223 Zr 0.54679 0.53242 -0.14843
 O224 O 0.54027 0.53410 -0.33003
 O225 O 0.61797 0.57038 -0.15787
 Zr226 Zr 0.43283 0.46848 -0.14095
 O227 O 0.42217 0.47064 -0.32049
 O228 O 0.36322 0.42211 -0.12643
 Zr229 Zr 0.49956 0.44536 -0.00564
 Zr230 Zr 0.48621 0.55430 0.00851
 O231 O 0.48551 0.53230 -0.16133
 O232 O 0.49356 0.46852 -0.17047
 O233 O 0.55433 0.56964 -0.00032
 O234 O 0.43162 0.43027 -0.00157
 O235 O 0.56173 0.50499 -0.00697
 O236 O 0.42306 0.49551 0.00841
 H237 H 0.49292 0.54727 0.24097
 H238 H 0.40884 0.39829 -0.00336
 H239 H 0.48172 0.54904 -0.22597
 H240 H 0.59045 0.50400 -0.00758
 H241 H 0.35294 0.43971 0.11236
 H242 H 0.34848 0.43799 -0.09304
 H243 H 0.45207 0.48220 -0.35560
 H244 H 0.52913 0.50357 -0.35989
 H245 H 0.62864 0.59117 -0.09116
 H246 H 0.63697 0.57562 0.20374
 H247 H 0.54025 0.50658 0.35301
 H248 H 0.46497 0.48182 0.35951
 O249 O 0.40524 -0.03895 -0.23804
 O250 O 0.40933 -0.10036 -0.17908
 C251 C 0.39112 -0.08113 -0.23943
 O252 O 0.60887 0.06449 -0.18209
 O253 O 0.60035 0.10809 -0.04675
 C254 C 0.62065 0.10273 -0.13396
 O255 O 0.53368 -0.05367 -0.27236
 O256 O 0.47183 -0.10880 -0.18492
 C257 C 0.50169 -0.09449 -0.26459
 O258 O 0.47951 0.08051 -0.16929
 O259 O 0.53770 0.11398 -0.03528
 C260 C 0.51213 0.11533 -0.11822
 Zr261 Zr 0.45901 0.01253 -0.14333
 O262 O 0.46082 0.03029 -0.31855
 O263 O 0.40132 0.01904 -0.11324
 Zr264 Zr 0.55269 0.00106 -0.15972
 O265 O 0.56550 0.01982 -0.33402
 O266 O 0.60769 -0.01184 -0.15832
 O267 O 0.48349 -0.02903 -0.19990
 O268 O 0.52850 0.04531 -0.14873
 O269 O 0.46493 0.04017 0.24022
 O270 O 0.52981 0.09539 0.16287
 C271 C 0.49759 0.08063 0.23784
 O272 O 0.52160 -0.09119 0.15294
 O273 O 0.46303 -0.12678 0.02118
 C274 C 0.48771 -0.12673 0.10872
 O275 O 0.59944 0.02886 0.21158
 O276 O 0.59636 0.09008 0.14658
 C277 C 0.61352 0.07115 0.21148
 O278 O 0.39791 -0.08063 0.16593
 O279 O 0.40401 -0.11991 0.01476
 C280 C 0.38467 -0.11705 0.10610
 Zr281 Zr 0.45118 -0.01468 0.13545
 O282 O 0.44567 -0.02779 0.31426
 O283 O 0.39017 -0.01181 0.13454
 Zr284 Zr 0.54596 -0.02390 0.11719
 O285 O 0.55102 -0.03765 0.29271
 O286 O 0.60142 -0.03425 0.08557
 Zr287 Zr 0.46346 -0.07067 -0.05554
 Zr288 Zr 0.54064 0.05857 0.03002
 O289 O 0.52007 0.01583 0.17208
 O290 O 0.47552 -0.05883 0.12373
 O291 O 0.47112 0.03880 0.02332
 O292 O 0.53285 -0.05081 -0.04687
 O293 O 0.42575 -0.03810 -0.02773
 O294 O 0.57992 0.02724 0.00271
 H295 H 0.54114 0.06914 -0.20654
 H296 H 0.54153 -0.07384 -0.06213
 H297 H 0.52951 0.02810 0.25131
 H298 H 0.39230 -0.05521 -0.03470
 H299 H 0.63371 0.01337 -0.11849
 H300 H 0.62892 -0.00480 0.08250
 H301 H 0.52507 -0.03809 0.33085
 H302 H 0.45280 -0.05200 0.32772
 H303 H 0.39760 0.01872 0.11333
 H304 H 0.39311 0.02743 -0.18802
 H305 H 0.46693 0.00971 -0.36422
 H306 H 0.53838 0.02032 -0.36521
 N307 N 1.13729 0.46550 0.25849
 N308 N 1.11869 0.45185 0.16369
 N309 N 0.56667 0.67558 0.30639
 N310 N 0.58242 0.66688 0.22250
 N311 N 0.34068 -0.16945 0.24076
 N312 N 0.34613 -0.15692 0.14032
 N313 N 0.86385 0.52829 0.33562
 N314 N 0.90635 0.55243 0.32883
 N315 N 0.46188 0.32884 0.28194
 N316 N 0.43928 0.34927 0.27322
 N317 N 0.66713 0.13904 0.30306
 N318 N 0.64630 0.09684 0.29855
 N319 N 0.51440 0.16514 -0.25825
 N320 N 0.52284 0.15823 -0.15877
 N321 N 0.62039 0.45030 -0.30943
 N322 N 0.59536 0.43609 -0.22684
 N323 N 0.81942 0.37017 -0.28053
 N324 N 0.82674 0.39345 -0.19372
 N325 N 0.47921 -0.16661 -0.34213
 N326 N 0.49943 -0.12455 -0.35197
 N327 N 0.35787 0.55345 -0.27288
 N328 N 0.37822 0.56209 -0.17910
 N329 N 1.17700 0.64981 -0.27850
 N330 N 1.15442 0.64568 -0.19348
 N331 N 0.85941 0.55398 -0.25756
 N332 N 0.87938 0.56818 -0.16368
 N333 N 0.45560 0.33255 -0.29863
 N334 N 0.43440 0.35441 -0.29878
 N335 N 0.66549 0.13217 -0.28881
 N336 N 0.65323 0.14087 -0.19405
 N337 N 1.12191 0.46939 -0.34926
 N338 N 1.09407 0.45097 -0.27388
 N339 N 0.55609 0.67622 -0.29643
 N340 N 0.56864 0.66836 -0.20321
 N341 N 0.34595 -0.13715 -0.37246
 N342 N 0.35076 -0.10752 -0.30552
 N343 N 0.49892 -0.16444 0.25746
 N344 N 0.47312 -0.16627 0.17384
 N345 N 0.36597 0.53118 0.33211
 N346 N 0.39542 0.55933 0.26607
 N347 N 1.16297 0.61377 0.34129
 N348 N 1.16665 0.61047 0.23366
 N349 N 0.51381 0.15016 0.32730
 N350 N 0.49790 0.10835 0.33004
 N351 N 0.63226 0.46398 0.28725
 N352 N 0.59288 0.43632 0.24910
 N353 N 0.85303 0.36167 0.32797
 N354 N 0.85355 0.39341 0.27155
   
