data_POSCAR
  _audit_creation_date              2014-09-24
  _audit_creation_method            'ToBaCCo'
  _symmetry_space_group_name_H-M    'P1'
  _symmetry_Int_Tables_number       1
  _symmetry_cell_setting            triclinic
  loop_
  _symmetry_equiv_pos_as_xyz
 x,y,z
_cell_length_a 28.4091
_cell_length_b 28.5079
_cell_length_c 26.9612
_cell_angle_alpha 90.034400
_cell_angle_beta 89.905600
_cell_angle_gamma 96.257000
loop_
  _atom_site_label
  _atom_site_type_symbol
  _atom_site_fract_x
  _atom_site_fract_y
  _atom_site_fract_z
O1 O -0.04619 0.28681 0.04883
 O2 O 0.04637 0.28670 -0.04701
 O3 O -0.04482 0.29234 -0.04793
 O4 O 0.04463 0.28355 0.04916
 O5 O 0.03215 0.20581 0.04571
 O6 O -0.05670 0.21464 -0.05272
 O7 O 0.03404 0.20899 -0.05089
 O8 O -0.05931 0.20916 0.04358
 Cu9 Cu 0.00112 0.29517 0.00103
 Cu10 Cu -0.01370 0.20185 -0.00397
 C11 C -0.06839 0.24787 0.06260
 C12 C 0.05622 0.24771 -0.06509
 C13 C -0.06595 0.25514 -0.06697
 C14 C 0.05364 0.24324 0.06409
 O15 O 0.46428 0.78631 0.54621
 O16 O 0.55116 0.78612 0.44454
 O17 O 0.45943 0.78592 0.44922
 O18 O 0.55577 0.78889 0.54071
 O19 O 0.54741 0.71099 0.54318
 O20 O 0.45265 0.70802 0.44976
 O21 O 0.54428 0.70822 0.44688
 O22 O 0.45552 0.70835 0.54591
 Cu23 Cu 0.50827 0.79468 0.49496
 Cu24 Cu 0.49922 0.70108 0.49653
 C25 C 0.44516 0.74725 0.56332
 C26 C 0.56282 0.74696 0.42879
 C27 C 0.43977 0.74648 0.43373
 C28 C 0.56789 0.75044 0.55767
 O29 O 1.04553 0.71056 0.04537
 O30 O 0.95599 0.71447 -0.05348
 O31 O 1.04684 0.70889 -0.05136
 O32 O 0.95351 0.70912 0.04294
 O33 O 0.96354 0.78700 0.04531
 O34 O 1.05680 0.78676 -0.05067
 O35 O 0.96633 0.79237 -0.05112
 O36 O 1.05564 0.78844 0.04600
 Cu37 Cu 0.99945 0.70299 -0.00421
 Cu38 Cu 1.01163 0.79639 -0.00231
 C39 C 1.06606 0.74920 0.06231
 C40 C 0.94613 0.75437 -0.06914
 C41 C 1.06756 0.74753 -0.06750
 C42 C 0.94244 0.74782 0.06016
 O43 O 0.53507 0.19240 0.54807
 O44 O 0.44137 0.18904 0.45342
 O45 O 0.53356 0.19079 0.45125
 O46 O 0.44362 0.19151 0.55011
 O47 O 0.45159 0.26949 0.54854
 O48 O 0.53865 0.26855 0.44755
 O49 O 0.44673 0.26697 0.45383
 O50 O 0.54421 0.27026 0.54372
 Cu51 Cu 0.48775 0.18309 0.50082
 Cu52 Cu 0.49629 0.27668 0.49831
 C53 C 0.55607 0.23193 0.56136
 C54 C 0.42725 0.22739 0.43862
 C55 C 0.55129 0.22960 0.43244
 C56 C 0.43192 0.23068 0.56562
 O57 O 0.70585 0.04758 -0.05685
 O58 O 0.70873 -0.04724 0.03525
 O59 O 0.70417 0.04348 0.03995
 O60 O 0.70895 -0.04325 -0.06072
 O61 O 0.78706 -0.03123 -0.06022
 O62 O 0.78231 0.05426 0.04185
 O63 O 0.78684 -0.03597 0.03608
 O64 O 0.78392 0.06007 -0.05456
 Cu65 Cu 0.69908 -0.00089 -0.01069
 Cu66 Cu 0.79289 0.01304 -0.00925
 C67 C 0.74451 0.07004 -0.07132
 C68 C 0.74827 -0.05800 0.05122
 C69 C 0.74236 0.06335 0.05836
 C70 C 0.74876 -0.05221 -0.07746
 O71 O 0.21319 0.54242 0.45530
 O72 O 0.21467 0.44902 0.54996
 O73 O 0.21257 0.54025 0.55200
 O74 O 0.21049 0.45100 0.45353
 O75 O 0.28867 0.45899 0.45108
 O76 O 0.29075 0.54822 0.55114
 O77 O 0.29284 0.45699 0.54766
 O78 O 0.29139 0.55067 0.45444
 Cu79 Cu 0.20493 0.49487 0.50292
 Cu80 Cu 0.29873 0.50456 0.50093
 C81 C 0.25229 0.56242 0.43878
 C82 C 0.25415 0.43701 0.56474
 C83 C 0.25180 0.55946 0.56846
 C84 C 0.24892 0.43978 0.43539
 O85 O 0.29050 0.95941 -0.04826
 O86 O 0.28370 1.04861 0.04956
 O87 O 0.28639 0.95710 0.04882
 O88 O 0.28920 1.05003 -0.04642
 O89 O 0.21126 1.03868 -0.05175
 O90 O 0.20827 0.94781 0.04573
 O91 O 0.20566 1.03906 0.04470
 O92 O 0.21242 0.94752 -0.05040
 Cu93 Cu 0.29530 1.00465 0.00156
 Cu94 Cu 0.20158 0.99226 -0.00323
 C95 C 0.25252 0.93833 -0.06614
 C96 C 0.24347 1.05955 0.06323
 C97 C 0.24685 0.93664 0.06355
 C98 C 0.25077 1.06001 -0.06564
 O99 O 0.80626 0.45836 0.44936
 O100 O 0.81364 0.55630 0.54019
 O101 O 0.80711 0.46476 0.54580
 O102 O 0.82013 0.55033 0.44390
 O103 O 0.74250 0.55070 0.44077
 O104 O 0.72932 0.46396 0.54328
 O105 O 0.73585 0.55505 0.53721
 O106 O 0.72864 0.45905 0.44657
 Cu107 Cu 0.81955 0.50746 0.49500
 Cu108 Cu 0.72634 0.50718 0.49154
 C109 C 0.76588 0.44216 0.43252
 C110 C 0.77561 0.57185 0.55458
 C111 C 0.76636 0.44993 0.56217
 C112 C 0.78379 0.56523 0.42496
 C113 C 0.24017 0.21051 0.21667
 C114 C 0.20480 0.24177 0.21880
 C115 C 0.20752 0.27676 0.25581
 C116 C 0.24501 0.28213 0.28988
 C117 C 0.27997 0.25015 0.28830
 C118 C 0.27724 0.21535 0.25136
 H119 H 0.30361 0.19058 0.25081
 H120 H 0.18020 0.30043 0.25807
 C121 C 0.74600 0.78610 0.19552
 C122 C 0.77756 0.75088 0.19559
 C123 C 0.77049 0.71332 0.22939
 C124 C 0.73371 0.71083 0.26459
 C125 C 0.70363 0.74714 0.26607
 C126 C 0.71037 0.78437 0.23195
 H127 H 0.68701 0.81191 0.23356
 H128 H 0.79360 0.68551 0.22777
 C129 C 0.78015 0.25198 0.21229
 C130 C 0.74508 0.21263 0.21432
 C131 C 0.71114 0.20991 0.25228
 C132 C 0.71200 0.24454 0.28925
 C133 C 0.74864 0.28252 0.28935
 C134 C 0.78112 0.28646 0.24972
 H135 H 0.80613 0.31773 0.24692
 H136 H 0.68357 0.18042 0.25303
 C137 C 0.20997 0.74848 0.21738
 C138 C 0.24695 0.78600 0.21712
 C139 C 0.28556 0.78418 0.24935
 C140 C 0.28807 0.74590 0.28170
 C141 C 0.25090 0.70862 0.28209
 C142 C 0.21238 0.71034 0.24985
 H143 H 0.18396 0.68171 0.25001
 H144 H 0.31395 0.81282 0.24929
 C145 C 0.70376 0.26446 0.71642
 C146 C 0.74401 0.29869 0.71490
 C147 C 0.78007 0.29654 0.75000
 C148 C 0.77699 0.26190 0.78705
 C149 C 0.73607 0.22879 0.78998
 C150 C 0.69981 0.23108 0.75484
 H151 H 0.66787 0.20671 0.75715
 H152 H 0.81111 0.32230 0.74848
 C153 C 0.29660 0.75357 0.71588
 C154 C 0.25958 0.71596 0.71687
 C155 C 0.22440 0.71533 0.75345
 C156 C 0.22569 0.75038 0.79006
 C157 C 0.26426 0.78642 0.79143
 C158 C 0.29879 0.78776 0.75376
 H159 H 0.32744 0.81575 0.75368
 H160 H 0.19543 0.68720 0.75332
 C161 C 0.25184 0.28600 0.71835
 C162 C 0.28716 0.25449 0.72057
 C163 C 0.28504 0.22074 0.75855
 C164 C 0.24824 0.21658 0.79345
 C165 C 0.21336 0.24844 0.79209
 C166 C 0.21528 0.28211 0.75380
 H167 H 0.18861 0.30638 0.75198
 H168 H 0.31206 0.19669 0.76055
 C169 C 0.76584 0.72922 0.69787
 C170 C 0.72929 0.75928 0.69948
 C171 C 0.72825 0.79087 0.73954
 C172 C 0.76292 0.79379 0.77666
 C173 C 0.79856 0.76272 0.77566
 C174 C 0.80029 0.73195 0.73510
 H175 H 0.82839 0.70924 0.73244
 H176 H 0.70001 0.81332 0.74262
 C177 C 0.23994 0.09656 0.10071
 C178 C 0.27837 0.12168 0.11975
 C179 C 0.27746 0.16002 0.15671
 C180 C 0.23836 0.17211 0.17922
 H181 H 0.31314 0.11457 0.10722
 H182 H 0.31141 0.17931 0.16545
 H183 H 0.20470 0.10333 0.11151
 H184 H 0.20419 0.15382 0.17050
 C185 C 0.77764 0.60954 0.59213
 C186 C 0.73830 0.62010 0.61528
 C187 C 0.73735 0.65652 0.65399
 C188 C 0.76955 0.69419 0.65811
 H189 H 0.70475 0.59967 0.60730
 H190 H 0.70706 0.65328 0.67873
 H191 H 0.81198 0.62725 0.60200
 H192 H 0.80032 0.69856 0.63420
 C193 C 0.75005 0.90582 0.08574
 C194 C 0.71091 0.88012 0.10274
 C195 C 0.71045 0.84204 0.14004
 C196 C 0.74898 0.82388 0.15718
 H197 H 0.67645 0.88764 0.08973
 H198 H 0.67572 0.82769 0.15286
 H199 H 0.78468 0.89928 0.09879
 H200 H 0.78312 0.83557 0.14163
 C201 C 0.25596 0.39950 0.60200
 C202 C 0.21678 0.37673 0.62216
 C203 C 0.21639 0.33825 0.65908
 C204 C 0.25478 0.32571 0.68253
 H205 H 0.18246 0.38575 0.61037
 H206 H 0.18212 0.31917 0.66691
 H207 H 0.29066 0.39051 0.61202
 H208 H 0.28952 0.34362 0.67500
 C209 C 0.89495 0.24687 0.10119
 C210 C 0.89177 0.28315 0.13212
 C211 C 0.85763 0.28074 0.17351
 C212 C 0.81372 0.25842 0.16980
 H213 H 0.91764 0.31396 0.13004
 H214 H 0.86978 0.29772 0.20773
 H215 H 0.87191 0.21432 0.10608
 H216 H 0.80239 0.24297 0.13452
 C217 C 0.41042 0.74626 0.60376
 C218 C 0.40766 0.78307 0.63405
 C219 C 0.37461 0.78095 0.67638
 C220 C 0.33059 0.75866 0.67361
 H221 H 0.43278 0.81430 0.63032
 H222 H 0.38751 0.79848 0.71000
 H223 H 0.38836 0.71339 0.61040
 H224 H 0.31892 0.74297 0.63854
 C225 C 0.10070 0.74969 0.09892
 C226 C 0.11460 0.71042 0.11911
 C227 C 0.15288 0.71076 0.15641
 C228 C 0.16898 0.74865 0.18351
 H229 H 0.09919 0.67612 0.10630
 H230 H 0.16875 0.67818 0.16106
 H231 H 0.11732 0.78400 0.11006
 H232 H 0.15297 0.78111 0.18021
 C233 C 0.59465 0.23299 0.59760
 C234 C 0.63181 0.26604 0.59572
 C235 C 0.67148 0.26717 0.63087
 C236 C 0.66461 0.26157 0.67976
 H237 H 0.63488 0.29137 0.56563
 H238 H 0.70680 0.27557 0.61608
 H239 H 0.59387 0.20461 0.62441
 H240 H 0.62893 0.25250 0.69358
 C241 C 0.74430 0.10823 0.89212
 C242 C 0.70624 0.11395 0.86441
 C243 C 0.70702 0.15028 0.82542
 C244 C 0.73049 0.19342 0.83065
 H245 H 0.67486 0.08887 0.86723
 H246 H 0.68799 0.14045 0.79164
 H247 H 0.77709 0.13076 0.88626
 H248 H 0.74805 0.20243 0.86553
 C249 C 0.25329 0.59983 0.40110
 C250 C 0.21392 0.61295 0.38032
 C251 C 0.21381 0.65119 0.34317
 C252 C 0.25182 0.66816 0.31650
 H253 H 0.17967 0.59640 0.39234
 H254 H 0.18063 0.66599 0.33798
 H255 H 0.28776 0.61716 0.39119
 H256 H 0.28488 0.65322 0.32062
 C257 C 0.25405 0.90486 0.89639
 C258 C 0.29414 0.89713 0.87289
 C259 C 0.29401 0.86351 0.83138
 C260 C 0.26919 0.82075 0.83336
 H261 H 0.32704 0.91870 0.88092
 H262 H 0.31467 0.87514 0.79917
 H263 H 0.22080 0.88586 0.88455
 H264 H 0.25084 0.81073 0.86761
 C265 C 0.76102 0.40367 0.39595
 C266 C 0.79756 0.38136 0.38064
 C267 C 0.79348 0.34382 0.34239
 C268 C 0.75249 0.31857 0.32970
 H269 H 0.83269 0.39236 0.39481
 H270 H 0.82629 0.33619 0.32533
 H271 H 0.72604 0.39454 0.38071
 H272 H 0.72115 0.32329 0.35080
 C273 C 0.09162 0.24653 0.89918
 C274 C 0.11786 0.28556 0.88289
 C275 C 0.15559 0.28569 0.84493
 C276 C 0.17566 0.24727 0.83073
 H277 H 0.11094 0.31982 0.89679
 H278 H 0.16838 0.31987 0.82987
 H279 H 0.09718 0.21228 0.88445
 H280 H 0.16569 0.21438 0.84948
 C281 C 0.59840 0.74555 0.38936
 C282 C 0.61957 0.78464 0.36772
 C283 C 0.65670 0.78442 0.32921
 C284 C 0.66460 0.74627 0.30264
 H285 H 0.61099 0.81888 0.38002
 H286 H 0.67847 0.81747 0.32275
 H287 H 0.60787 0.71109 0.37929
 H288 H 0.64257 0.71335 0.30774
 C289 C 0.91131 0.75773 0.89114
 C290 C 0.88644 0.71981 0.87109
 C291 C 0.85201 0.72216 0.83025
 C292 C 0.83306 0.76151 0.81701
 H293 H 0.89247 0.68493 0.88380
 H294 H 0.84070 0.68912 0.81186
 H295 H 0.90724 0.79281 0.87783
 H296 H 0.84109 0.79307 0.83868
 C297 C 0.38748 0.22583 0.40382
 C298 C 0.35611 0.25753 0.40641
 C299 C 0.31540 0.25668 0.37265
 C300 C 0.31985 0.25043 0.32375
 H301 H 0.35860 0.28337 0.43605
 H302 H 0.28191 0.26390 0.38840
 H303 H 0.38232 0.19681 0.37772
 H304 H 0.35370 0.24268 0.30904
 C305 C 0.74972 0.91207 0.88317
 C306 C 0.79016 0.90118 0.86267
 C307 C 0.79245 0.86482 0.82384
 C308 C 0.75901 0.82848 0.81681
 H309 H 0.82343 0.92064 0.87352
 H310 H 0.82423 0.86720 0.80127
 H311 H 0.71600 0.89473 0.87086
 H312 H 0.72677 0.82509 0.83849
 C313 C 0.24619 0.40368 0.39607
 C314 C 0.28457 0.38930 0.37418
 C315 C 0.28295 0.35162 0.33600
 C316 C 0.24477 0.32088 0.32652
 H317 H 0.31933 0.40588 0.38435
 H318 H 0.31566 0.34789 0.31643
 H319 H 0.21105 0.38902 0.38526
 H320 H 0.21137 0.32414 0.34468
 C321 C 0.25277 0.09492 0.89787
 C322 C 0.21415 0.10671 0.87428
 C323 C 0.21528 0.14387 0.83589
 C324 C 0.24938 0.18010 0.83223
 H325 H 0.17987 0.08749 0.88191
 H326 H 0.18525 0.14243 0.81099
 H327 H 0.28737 0.11223 0.88822
 H328 H 0.27991 0.18267 0.85636
 C329 C 0.79059 0.60006 0.38456
 C330 C 0.75454 0.61639 0.36080
 C331 C 0.76318 0.65297 0.32223
 C332 C 0.72703 0.67076 0.30007
 H333 H 0.71840 0.60347 0.37055
 H334 H 0.79929 0.66698 0.31366
 H335 H 0.82662 0.61302 0.37441
 H336 H 0.69137 0.65717 0.31063
 C337 C 0.10234 0.74593 0.89601
 C338 C 0.12526 0.78481 0.87543
 C339 C 0.16288 0.78453 0.83733
 C340 C 0.18631 0.74732 0.82657
 H341 H 0.11595 0.81925 0.88621
 H342 H 0.17316 0.81778 0.81878
 H343 H 0.11000 0.71137 0.88401
 H344 H 0.17627 0.71327 0.84329
 C345 C 0.58753 0.22902 0.39331
 C346 C 0.60507 0.26844 0.36958
 C347 C 0.64269 0.27051 0.33146
 C348 C 0.67432 0.23911 0.32735
 H349 H 0.59066 0.30130 0.37747
 H350 H 0.64614 0.30117 0.30744
 H351 H 0.59960 0.19539 0.38404
 H352 H 0.67196 0.20794 0.35043
 C353 C 0.89818 0.25975 0.89442
 C354 C 0.87573 0.22221 0.87106
 C355 C 0.83786 0.22428 0.83364
 C356 C 0.81676 0.26290 0.82276
 H357 H 0.88511 0.18733 0.87980
 H358 H 0.82563 0.19134 0.81539
 H359 H 0.89056 0.29510 0.88563
 H360 H 0.82923 0.29678 0.83858
 C361 C 0.40138 0.74450 0.39692
 C362 C 0.38651 0.78345 0.37708
 C363 C 0.34711 0.78317 0.34113
 C364 C 0.32936 0.74514 0.31521
 H365 H 0.40259 0.81779 0.38903
 H366 H 0.33208 0.81617 0.33623
 H367 H 0.38474 0.70984 0.38712
 H368 H 0.34435 0.71218 0.31919
 C369 C 0.24487 0.89913 0.10134
 C370 C 0.28395 0.88494 0.12184
 C371 C 0.28394 0.84590 0.15816
 C372 C 0.24558 0.82680 0.18304
 H373 H 0.31837 0.90128 0.11008
 H374 H 0.31756 0.83219 0.16407
 H375 H 0.21014 0.88229 0.11097
 H376 H 0.21196 0.84033 0.17774
 C377 C 0.76316 0.41591 0.60338
 C378 C 0.72217 0.40023 0.62555
 C379 C 0.71764 0.36461 0.66582
 C380 C 0.75112 0.33665 0.67731
 H381 H 0.68989 0.41402 0.61395
 H382 H 0.68391 0.35954 0.68493
 H383 H 0.79615 0.40434 0.61571
 H384 H 0.78546 0.34132 0.65968
 C385 C 0.73966 0.09750 0.09904
 C386 C 0.77842 0.11684 0.12292
 C387 C 0.77874 0.15276 0.16266
 C388 C 0.74126 0.17448 0.17663
 H389 H 0.81264 0.10628 0.11277
 H390 H 0.81265 0.16298 0.18008
 H391 H 0.70487 0.10629 0.10908
 H392 H 0.70643 0.16375 0.16188
 C393 C 0.25112 0.59535 0.60779
 C394 C 0.29071 0.61626 0.62883
 C395 C 0.29196 0.65354 0.66734
 C396 C 0.25527 0.67723 0.67973
 H397 H 0.32461 0.60560 0.61765
 H398 H 0.32585 0.66301 0.68507
 H399 H 0.21673 0.60412 0.61941
 H400 H 0.22058 0.66771 0.66405
 C401 C 0.90420 0.74617 0.09731
 C402 C 0.89140 0.78483 0.11964
 C403 C 0.85239 0.78398 0.15626
 C404 C 0.81610 0.74977 0.15878
 H405 H 0.91103 0.81880 0.11204
 H406 H 0.85265 0.81414 0.18077
 H407 H 0.88670 0.71169 0.10663
 H408 H 0.81488 0.71906 0.13507
 C409 C 0.39431 0.23087 0.60305
 C410 C 0.36400 0.26366 0.60218
 C411 C 0.32349 0.26300 0.63638
 C412 C 0.32737 0.25509 0.68510
 H413 H 0.36635 0.28962 0.57268
 H414 H 0.29026 0.27085 0.62068
 H415 H 0.38902 0.20170 0.62893
 H416 H 0.36091 0.24627 0.69949
 C417 C 0.08951 0.23946 0.10298
 C418 C 0.11331 0.27788 0.12357
 C419 C 0.15072 0.27760 0.16177
 C420 C 0.16551 0.23884 0.18213
 H421 H 0.10571 0.31248 0.11146
 H422 H 0.16774 0.31192 0.17261
 H423 H 0.09621 0.20437 0.11394
 H424 H 0.14994 0.20435 0.17082
 C425 C 0.60602 0.75093 0.59466
 C426 C 0.63008 0.79117 0.61077
 C427 C 0.66785 0.79346 0.64873
 C428 C 0.69218 0.75713 0.66019
 H429 H 0.62059 0.82464 0.59720
 H430 H 0.67685 0.82746 0.66606
 H431 H 0.61344 0.71720 0.60928
 H432 H 0.68574 0.72520 0.63877
   
