data_POSCAR
  _audit_creation_date              2014-09-24
  _audit_creation_method            'ToBaCCo'
  _symmetry_space_group_name_H-M    'P1'
  _symmetry_Int_Tables_number       1
  _symmetry_cell_setting            triclinic
  loop_
  _symmetry_equiv_pos_as_xyz
 x,y,z
_cell_length_a 69.4727
_cell_length_b 41.0568
_cell_length_c 23.1384
_cell_angle_alpha 89.858000
_cell_angle_beta 90.031800
_cell_angle_gamma 90.039300
loop_
  _atom_site_label
  _atom_site_type_symbol
  _atom_site_fract_x
  _atom_site_fract_y
  _atom_site_fract_z
C1 C 0.74936 0.24758 0.47246
 C2 C 0.74903 0.24788 0.53151
 C3 C 0.73388 0.26535 0.56470
 C4 C 0.76390 0.23051 0.56593
 C5 C 0.76585 0.23337 0.44005
 C6 C 0.73332 0.26130 0.43734
 C7 C 0.72941 0.29794 0.55305
 C8 C 0.71464 0.31365 0.58302
 C9 C 0.70393 0.29745 0.62689
 C10 C 0.70938 0.26483 0.63949
 C11 C 0.72400 0.24921 0.60889
 C12 C 0.77503 0.24769 0.60618
 C13 C 0.78984 0.23207 0.63622
 C14 C 0.79366 0.19885 0.62697
 C15 C 0.78204 0.18145 0.58796
 C16 C 0.76724 0.19711 0.55790
 C17 C 0.76247 0.21042 0.39630
 C18 C 0.77786 0.19608 0.36700
 C19 C 0.79690 0.20427 0.38127
 C20 C 0.80029 0.22779 0.42402
 C21 C 0.78490 0.24259 0.45250
 C22 C 0.71411 0.25256 0.44814
 C23 C 0.69917 0.26666 0.41631
 C24 C 0.70315 0.28919 0.37194
 C25 C 0.72248 0.29684 0.35974
 C26 C 0.73737 0.28310 0.39218
 H27 H 0.73713 0.31115 0.51976
 H28 H 0.71130 0.33801 0.56863
 H29 H 0.70310 0.25104 0.67446
 H30 H 0.72753 0.22422 0.61960
 H31 H 0.77261 0.27346 0.61303
 H32 H 0.79864 0.24624 0.66550
 H33 H 0.75855 0.18331 0.52777
 H34 H 0.74791 0.20316 0.38562
 H35 H 0.77492 0.17797 0.33419
 H36 H 0.81486 0.23485 0.43505
 H37 H 0.78785 0.26099 0.48476
 H38 H 0.71065 0.23515 0.48180
 H39 H 0.68449 0.26036 0.42730
 H40 H 0.72614 0.31341 0.32500
 H41 H 0.75210 0.28984 0.38250
 H42 H 0.78437 0.15571 0.58075
 C43 C 0.24930 0.74663 0.47107
 C44 C 0.24915 0.74709 0.53016
 C45 C 0.23414 0.76474 0.56367
 C46 C 0.26408 0.72964 0.56429
 C47 C 0.26575 0.73243 0.43845
 C48 C 0.23317 0.76022 0.43612
 C49 C 0.22923 0.79713 0.55063
 C50 C 0.21447 0.81276 0.58077
 C51 C 0.20466 0.79669 0.62579
 C52 C 0.21026 0.76478 0.64042
 C53 C 0.22476 0.74898 0.60958
 C54 C 0.27527 0.74672 0.60457
 C55 C 0.29003 0.73096 0.63464
 C56 C 0.29376 0.69771 0.62536
 C57 C 0.28212 0.68044 0.58622
 C58 C 0.26736 0.69623 0.55618
 C59 C 0.26233 0.70929 0.39505
 C60 C 0.27769 0.69491 0.36570
 C61 C 0.29674 0.70327 0.37957
 C62 C 0.30016 0.72701 0.42191
 C63 C 0.28479 0.74184 0.45044
 C64 C 0.21397 0.75158 0.44745
 C65 C 0.19896 0.76570 0.41591
 C66 C 0.20285 0.78815 0.37133
 C67 C 0.22215 0.79565 0.35857
 C68 C 0.23712 0.78190 0.39068
 H69 H 0.23662 0.81015 0.51645
 H70 H 0.21052 0.83722 0.56789
 H71 H 0.20345 0.75191 0.67581
 H72 H 0.22849 0.72418 0.62108
 H73 H 0.27290 0.77249 0.61152
 H74 H 0.29884 0.74502 0.66403
 H75 H 0.25862 0.68249 0.52606
 H76 H 0.24776 0.70189 0.38474
 H77 H 0.27473 0.67663 0.33321
 H78 H 0.31473 0.73422 0.43261
 H79 H 0.28776 0.76037 0.48244
 H80 H 0.21058 0.73429 0.48137
 H81 H 0.18430 0.75949 0.42733
 H82 H 0.22574 0.81215 0.32364
 H83 H 0.25183 0.78857 0.38058
 H84 H 0.28438 0.65469 0.57896
 C85 C 0.24913 0.25422 -0.47108
 C86 C 0.24974 0.25234 -0.53000
 C87 C 0.26639 0.26474 -0.56402
 C88 C 0.23355 0.23820 -0.56354
 C89 C 0.23354 0.23818 -0.43714
 C90 C 0.26410 0.27207 -0.43764
 C91 C 0.26325 0.28600 -0.61044
 C92 C 0.27872 0.29908 -0.64122
 C93 C 0.29797 0.29145 -0.62636
 C94 C 0.30086 0.26896 -0.58065
 C95 C 0.28530 0.25561 -0.55048
 C96 C 0.21489 0.25069 -0.55835
 C97 C 0.19966 0.23679 -0.58907
 C98 C 0.20264 0.20987 -0.62617
 C99 C 0.22170 0.19806 -0.63169
 C100 C 0.23688 0.21218 -0.60110
 C101 C 0.22893 0.20531 -0.44569
 C102 C 0.21397 0.19069 -0.41475
 C103 C 0.20338 0.20827 -0.37287
 C104 C 0.20873 0.24113 -0.36337
 C105 C 0.22351 0.25576 -0.39510
 C106 C 0.27330 0.25671 -0.39101
 C107 C 0.28803 0.27251 -0.36102
 C108 C 0.29398 0.30401 -0.37723
 C109 C 0.28427 0.31975 -0.42280
 C110 C 0.26932 0.30412 -0.45213
 H111 H 0.24874 0.29286 -0.62251
 H112 H 0.27526 0.31456 -0.67759
 H113 H 0.31507 0.26249 -0.56563
 H114 H 0.28807 0.23867 -0.51550
 H115 H 0.21213 0.27137 -0.53057
 H116 H 0.18572 0.24818 -0.58474
 H117 H 0.25123 0.20218 -0.60553
 H118 H 0.23678 0.19096 -0.47699
 H119 H 0.21047 0.16589 -0.42604
 H120 H 0.20206 0.25575 -0.33022
 H121 H 0.22709 0.28102 -0.38688
 H122 H 0.26932 0.23217 -0.37848
 H123 H 0.29478 0.25995 -0.32518
 H124 H 0.28851 0.34388 -0.43685
 H125 H 0.26209 0.31679 -0.48703
 H126 H 0.22505 0.17691 -0.65745
 C127 C -0.25025 0.75236 -0.47007
 C128 C -0.25017 0.75195 -0.52911
 C129 C -0.23372 0.76544 -0.56271
 C130 C -0.26645 0.73812 -0.56304
 C131 C -0.26540 0.73561 -0.43557
 C132 C -0.23512 0.76991 -0.43705
 C133 C -0.23705 0.78822 -0.60666
 C134 C -0.22170 0.80190 -0.63723
 C135 C -0.20241 0.79330 -0.62463
 C136 C -0.19937 0.76949 -0.58120
 C137 C -0.21479 0.75558 -0.55132
 C138 C -0.28549 0.74764 -0.55259
 C139 C -0.30068 0.73359 -0.58336
 C140 C -0.29727 0.70993 -0.62661
 C141 C -0.27787 0.70163 -0.63810
 C142 C -0.26277 0.71547 -0.60675
 C143 C -0.27034 0.70306 -0.44603
 C144 C -0.28521 0.68813 -0.41512
 C145 C -0.29540 0.70513 -0.37161
 C146 C -0.28961 0.73753 -0.35993
 C147 C -0.27491 0.75244 -0.39149
 C148 C -0.22391 0.75307 -0.39643
 C149 C -0.20903 0.76895 -0.36718
 C150 C -0.20523 0.80212 -0.37755
 C151 C -0.21688 0.81914 -0.41712
 C152 C -0.23172 0.80321 -0.44645
 H153 H -0.25160 0.79569 -0.61702
 H154 H -0.22530 0.81854 -0.67180
 H155 H -0.18511 0.76225 -0.56774
 H156 H -0.21189 0.73746 -0.51836
 H157 H -0.28866 0.76562 -0.51977
 H158 H -0.31506 0.74060 -0.57079
 H159 H -0.24813 0.70825 -0.61641
 H160 H -0.26290 0.68930 -0.47907
 H161 H -0.28905 0.66369 -0.42782
 H162 H -0.29591 0.75155 -0.32534
 H163 H -0.27107 0.77742 -0.38178
 H164 H -0.22636 0.72738 -0.38854
 H165 H -0.20021 0.75504 -0.33750
 H166 H -0.21459 0.84484 -0.42522
 H167 H -0.24048 0.81675 -0.47689
 H168 H -0.27399 0.68513 -0.67246
 O169 O -0.02600 0.94156 0.10464
 O170 O -0.04739 0.97180 0.05158
 C171 C -0.04338 0.95004 0.09045
 O172 O 0.02746 1.05898 0.10391
 O173 O 0.04857 1.02888 0.04977
 C174 C 0.04477 1.05093 0.08816
 O175 O -0.02645 1.05591 0.11016
 O176 O -0.04761 1.02674 0.05456
 C177 C -0.04375 1.04742 0.09523
 O178 O 0.02793 0.93942 0.09705
 O179 O 0.04877 0.97246 0.04718
 C180 C 0.04516 0.94874 0.08266
 Zr181 Zr 0.00076 0.95844 0.07243
 O182 O 0.00326 0.95780 0.16364
 O183 O -0.00116 0.90700 0.07110
 Zr184 Zr 0.00040 1.04068 0.07660
 O185 O 0.00274 1.03842 0.16776
 O186 O -0.00182 1.09207 0.07965
 O187 O -0.01662 0.99912 0.08621
 O188 O 0.01735 0.99959 0.08480
 O189 O 0.02744 0.94381 -0.10283
 O190 O 0.04856 0.97392 -0.04838
 C191 C 0.04474 0.95210 -0.08717
 O192 O -0.02703 1.05869 -0.10154
 O193 O -0.04785 1.02831 -0.04671
 C194 C -0.04426 1.04976 -0.08646
 O195 O 0.02698 1.06199 -0.09709
 O196 O 0.04831 1.03058 -0.04579
 C197 C 0.04434 1.05357 -0.08242
 O198 O -0.02688 0.94597 -0.10618
 O199 O -0.04797 0.97419 -0.04876
 C200 C -0.04420 0.95401 -0.09025
 Zr201 Zr 0.00033 0.96096 -0.07362
 O202 O 0.00218 0.96243 -0.16491
 O203 O -0.00157 0.90950 -0.07575
 Zr204 Zr 0.00005 1.04318 -0.06942
 O205 O 0.00195 1.04524 -0.16066
 O206 O -0.00230 1.09455 -0.06543
 Zr207 Zr -0.02834 1.00039 0.00215
 Zr208 Zr 0.02896 1.00120 0.00094
 O209 O 0.01688 1.00246 -0.08243
 O210 O -0.01702 1.00204 -0.08242
 O211 O 0.01771 0.95352 -0.00133
 O212 O -0.01655 1.04762 0.00417
 O213 O -0.01615 0.95350 -0.00054
 O214 O 0.01736 1.04858 0.00353
 H215 H 0.02623 0.99907 0.11830
 H216 H -0.02533 1.06663 0.00510
 H217 H 0.02551 1.00315 -0.11649
 H218 H -0.02476 0.93426 -0.00142
 H219 H 0.00850 1.10109 0.05490
 H220 H 0.00903 1.10280 -0.04405
 H221 H -0.00830 1.03106 -0.17636
 H222 H -0.00874 0.97562 -0.17920
 H223 H 0.00966 0.90074 -0.05451
 H224 H 0.00877 0.89901 0.04404
 H225 H -0.00794 0.96961 0.17954
 H226 H -0.00827 1.02552 0.18228
 O227 O 0.47416 0.44151 0.10455
 O228 O 0.45275 0.47184 0.05163
 C229 C 0.45677 0.45000 0.09039
 O230 O 0.52766 0.55943 0.10200
 O231 O 0.54872 0.52872 0.04880
 C232 C 0.54495 0.55116 0.08647
 O233 O 0.47361 0.55548 0.10914
 O234 O 0.45246 0.52587 0.05407
 C235 C 0.45630 0.54675 0.09445
 O236 O 0.52822 0.43929 0.09688
 O237 O 0.54897 0.47227 0.04655
 C238 C 0.54542 0.44862 0.08224
 Zr239 Zr 0.50101 0.45817 0.07243
 O240 O 0.50356 0.45776 0.16362
 O241 O 0.49911 0.40672 0.07170
 Zr242 Zr 0.50061 0.54050 0.07594
 O243 O 0.50314 0.53817 0.16706
 O244 O 0.49825 0.59183 0.07977
 O245 O 0.48368 0.49890 0.08609
 O246 O 0.51758 0.49944 0.08430
 O247 O 0.52758 0.44318 -0.10302
 O248 O 0.54867 0.47358 -0.04913
 C249 C 0.54489 0.45160 -0.08766
 O250 O 0.47275 0.55775 -0.10156
 O251 O 0.45206 0.52716 -0.04647
 C252 C 0.45555 0.54863 -0.08630
 O253 O 0.52701 0.56150 -0.09808
 O254 O 0.54837 0.53020 -0.04666
 C255 C 0.54438 0.55311 -0.08339
 O256 O 0.47334 0.44582 -0.10717
 O257 O 0.45238 0.47339 -0.04844
 C258 C 0.45608 0.45354 -0.09045
 Zr259 Zr 0.50048 0.46034 -0.07376
 O260 O 0.50239 0.46099 -0.16505
 O261 O 0.49846 0.40888 -0.07449
 Zr262 Zr 0.50007 0.54271 -0.07020
 O263 O 0.50188 0.54456 -0.16148
 O264 O 0.49765 0.59408 -0.06689
 Zr265 Zr 0.47198 0.49996 0.00205
 Zr266 Zr 0.52911 0.50088 0.00029
 O267 O 0.51694 0.50195 -0.08301
 O268 O 0.48311 0.50143 -0.08272
 O269 O 0.51791 0.45314 -0.00148
 O270 O 0.48360 0.54729 0.00359
 O271 O 0.48407 0.45302 -0.00046
 O272 O 0.51745 0.54826 0.00259
 H273 H 0.52653 0.49909 0.11765
 H274 H 0.47475 0.56619 0.00448
 H275 H 0.52554 0.50257 -0.11714
 H276 H 0.47540 0.43384 -0.00122
 H277 H 0.50793 0.60098 0.05292
 H278 H 0.50899 0.60247 -0.04577
 H279 H 0.49133 0.53095 -0.17702
 H280 H 0.49216 0.47563 -0.17950
 H281 H 0.50996 0.40019 -0.05451
 H282 H 0.50892 0.39869 0.04426
 H283 H 0.49235 0.46961 0.17945
 H284 H 0.49195 0.52579 0.18182
 C285 C 0.34539 0.33639 0.28702
 C286 C 0.34785 0.30684 0.31650
 C287 C 0.33232 0.29186 0.34434
 C288 C 0.31379 0.30620 0.34417
 C289 C 0.31161 0.33609 0.31419
 C290 C 0.32713 0.35076 0.28592
 C291 C 0.36187 0.35244 0.25788
 C292 C 0.35982 0.36525 0.20191
 C293 C 0.37526 0.38080 0.17470
 C294 C 0.39305 0.38422 0.20313
 C295 C 0.39505 0.37134 0.25923
 C296 C 0.37966 0.35547 0.28616
 C297 C 0.40942 0.40121 0.17446
 C298 C 0.42843 0.39038 0.18256
 C299 C 0.44379 0.40636 0.15572
 C300 C 0.44051 0.43339 0.11965
 C301 C 0.42150 0.44415 0.11129
 C302 C 0.40617 0.42839 0.13863
 H303 H 0.36177 0.29497 0.31714
 H304 H 0.33499 0.26842 0.36405
 H305 H 0.29820 0.34937 0.31421
 H306 H 0.32493 0.37392 0.26437
 H307 H 0.34631 0.36287 0.17890
 H308 H 0.37330 0.38981 0.13108
 H309 H 0.40841 0.37401 0.28284
 H310 H 0.38153 0.34616 0.32964
 H311 H 0.43145 0.36920 0.20899
 H312 H 0.45823 0.39724 0.16273
 H313 H 0.41844 0.46486 0.08376
 H314 H 0.39177 0.43776 0.13214
 C315 C -0.15505 0.83895 0.28911
 C316 C -0.15284 0.80847 0.31583
 C317 C -0.16834 0.79332 0.34344
 C318 C -0.18666 0.80829 0.34593
 C319 C -0.18869 0.83898 0.31862
 C320 C -0.17321 0.85388 0.29056
 C321 C -0.13850 0.85521 0.26012
 C322 C -0.13629 0.88925 0.26272
 C323 C -0.12084 0.90457 0.23514
 C324 C -0.10713 0.88619 0.20496
 C325 C -0.10917 0.85220 0.20265
 C326 C -0.12475 0.83689 0.22963
 C327 C -0.09079 0.90248 0.17571
 C328 C -0.07197 0.89052 0.18212
 C329 C -0.05654 0.90608 0.15481
 C330 C -0.05966 0.93367 0.11991
 C331 C -0.07855 0.94540 0.11316
 C332 C -0.09392 0.93011 0.14113
 H333 H -0.13902 0.79630 0.31593
 H334 H -0.16579 0.76933 0.36110
 H335 H -0.20197 0.85260 0.32037
 H336 H -0.17553 0.87723 0.26987
 H337 H -0.14634 0.90409 0.28677
 H338 H -0.11944 0.93079 0.23814
 H339 H -0.09890 0.83754 0.17904
 H340 H -0.12616 0.81072 0.22579
 H341 H -0.06919 0.86937 0.20890
 H342 H -0.04220 0.89634 0.16077
 H343 H -0.08149 0.96645 0.08634
 H344 H -0.10832 0.93960 0.13505
 C345 C 0.65624 0.66404 0.28353
 C346 C 0.65371 0.69444 0.31003
 C347 C 0.66891 0.70964 0.33897
 C348 C 0.68726 0.69484 0.34290
 C349 C 0.68960 0.66422 0.31584
 C350 C 0.67441 0.64925 0.28656
 C351 C 0.63999 0.64767 0.25328
 C352 C 0.63777 0.61364 0.25630
 C353 C 0.62253 0.59823 0.22796
 C354 C 0.60903 0.61650 0.19647
 C355 C 0.61114 0.65048 0.19350
 C356 C 0.62651 0.66588 0.22134
 C357 C 0.59268 0.60013 0.16732
 C358 C 0.57394 0.61261 0.17232
 C359 C 0.55844 0.59672 0.14610
 C360 C 0.56139 0.56821 0.11376
 C361 C 0.58021 0.55601 0.10812
 C362 C 0.59566 0.57170 0.13492
 H363 H 0.63986 0.70650 0.30892
 H364 H 0.66614 0.73355 0.35646
 H365 H 0.70290 0.65070 0.31872
 H366 H 0.67697 0.62594 0.26617
 H367 H 0.64763 0.59889 0.28141
 H368 H 0.62107 0.57204 0.23160
 H369 H 0.60105 0.66508 0.16893
 H370 H 0.62795 0.69204 0.21719
 H371 H 0.57123 0.63435 0.19744
 H372 H 0.54415 0.60683 0.15112
 H373 H 0.58299 0.53413 0.08346
 H374 H 0.61000 0.56175 0.12996
 C375 C 0.15602 1.16453 0.28446
 C376 C 0.17491 1.16154 0.26401
 C377 C 0.19017 1.17662 0.29283
 C378 C 0.18706 1.19506 0.34359
 C379 C 0.16787 1.19792 0.36351
 C380 C 0.15265 1.18299 0.33428
 C381 C 0.13988 1.14819 0.25422
 C382 C 0.12246 1.16468 0.24462
 C383 C 0.10717 1.14915 0.21673
 C384 C 0.10889 1.11667 0.19823
 C385 C 0.12637 1.10024 0.20776
 C386 C 0.14171 1.11587 0.23525
 C387 C 0.09246 1.09991 0.16970
 C388 C 0.09560 1.07804 0.12400
 C389 C 0.08016 1.06206 0.09768
 C390 C 0.06117 1.06779 0.11609
 C391 C 0.05803 1.08973 0.16166
 C392 C 0.07349 1.10550 0.18825
 H393 H 0.17787 1.14795 0.22495
 H394 H 0.20426 1.17455 0.27341
 H395 H 0.16441 1.21041 0.40321
 H396 H 0.13823 1.18520 0.35161
 H397 H 0.12076 1.18975 0.25809
 H398 H 0.09405 1.16272 0.20912
 H399 H 0.12809 1.07506 0.19500
 H400 H 0.15490 1.10245 0.24278
 H401 H 0.11000 1.07350 0.10808
 H402 H 0.08311 1.04531 0.06274
 H403 H 0.04362 1.09456 0.17723
 H404 H 0.07057 1.12173 0.22398
 C405 C 0.65751 0.34328 -0.28661
 C406 C 0.67105 0.36175 -0.31738
 C407 C 0.68647 0.34678 -0.34556
 C408 C 0.68897 0.31244 -0.34454
 C409 C 0.67509 0.29426 -0.31291
 C410 C 0.65981 0.30941 -0.28450
 C411 C 0.64098 0.35919 -0.25712
 C412 C 0.62275 0.34427 -0.25647
 C413 C 0.60723 0.35906 -0.22858
 C414 C 0.60947 0.38931 -0.20101
 C415 C 0.62768 0.40431 -0.20184
 C416 C 0.64325 0.38939 -0.22937
 C417 C 0.59288 0.40515 -0.17170
 C418 C 0.59552 0.42252 -0.11997
 C419 C 0.57995 0.43759 -0.09273
 C420 C 0.56134 0.43542 -0.11629
 C421 C 0.55865 0.41786 -0.16771
 C422 C 0.57425 0.40305 -0.19523
 H423 H 0.66969 0.38798 -0.32013
 H424 H 0.69667 0.36299 -0.36589
 H425 H 0.67507 0.26800 -0.31158
 H426 H 0.64972 0.29437 -0.26075
 H427 H 0.62040 0.32125 -0.27806
 H428 H 0.59350 0.34660 -0.22818
 H429 H 0.62988 0.42779 -0.18172
 H430 H 0.65712 0.40139 -0.22840
 H431 H 0.60959 0.42415 -0.10006
 H432 H 0.58248 0.45069 -0.05286
 H433 H 0.54452 0.41594 -0.18722
 H434 H 0.57173 0.39037 -0.23550
 C435 C 0.15729 0.84334 -0.28596
 C436 C 0.17317 0.86167 -0.30522
 C437 C 0.18861 0.84658 -0.33315
 C438 C 0.18846 0.81281 -0.34330
 C439 C 0.17255 0.79453 -0.32418
 C440 C 0.15727 0.80953 -0.29550
 C441 C 0.14076 0.85935 -0.25645
 C442 C 0.12187 0.84793 -0.26474
 C443 C 0.10637 0.86269 -0.23672
 C444 C 0.10926 0.88964 -0.20033
 C445 C 0.12813 0.90123 -0.19236
 C446 C 0.14368 0.88616 -0.21972
 C447 C 0.09266 0.90559 -0.17106
 C448 C 0.09467 0.91888 -0.11536
 C449 C 0.07913 0.93411 -0.08823
 C450 C 0.06114 0.93592 -0.11575
 C451 C 0.05902 0.92241 -0.17104
 C452 C 0.07463 0.90768 -0.19859
 H453 H 0.17361 0.88781 -0.29942
 H454 H 0.20070 0.86142 -0.34647
 H455 H 0.17173 0.76859 -0.33198
 H456 H 0.14549 0.79447 -0.28051
 H457 H 0.11897 0.82772 -0.29339
 H458 H 0.09211 0.85270 -0.24329
 H459 H 0.13093 0.92221 -0.16540
 H460 H 0.15802 0.89538 -0.21156
 H461 H 0.10819 0.91718 -0.09226
 H462 H 0.08113 0.94405 -0.04530
 H463 H 0.04536 0.92376 -0.19351
 H464 H 0.07260 0.89838 -0.24189
 C465 C 0.34144 0.65126 -0.28798
 C466 C 0.33721 0.64403 -0.34598
 C467 C 0.32168 0.65890 -0.37389
 C468 C 0.30997 0.68131 -0.34446
 C469 C 0.31411 0.68835 -0.28634
 C470 C 0.32966 0.67352 -0.25845
 C471 C 0.35816 0.63587 -0.25856
 C472 C 0.35686 0.62582 -0.20057
 C473 C 0.37264 0.61164 -0.17278
 C474 C 0.39011 0.60711 -0.20234
 C475 C 0.39140 0.61708 -0.26037
 C476 C 0.37563 0.63131 -0.28813
 C477 C 0.40691 0.59210 -0.17272
 C478 C 0.42563 0.60390 -0.18251
 C479 C 0.44143 0.58980 -0.15458
 C480 C 0.43885 0.56364 -0.11604
 C481 C 0.42012 0.55183 -0.10628
 C482 C 0.40435 0.56586 -0.13435
 H483 H 0.34586 0.62670 -0.36976
 H484 H 0.31902 0.65323 -0.41888
 H485 H 0.30526 0.70525 -0.26229
 H486 H 0.33265 0.67990 -0.21396
 H487 H 0.34356 0.62866 -0.17675
 H488 H 0.37123 0.60457 -0.12787
 H489 H 0.40457 0.61360 -0.28457
 H490 H 0.37719 0.63912 -0.33261
 H491 H 0.42807 0.62437 -0.21118
 H492 H 0.45564 0.59958 -0.16292
 H493 H 0.41761 0.53154 -0.07724
 H494 H 0.39016 0.55585 -0.12656
 C495 C -0.15836 1.15298 -0.28696
 C496 C -0.17013 1.17525 -0.25738
 C497 C -0.18579 1.18987 -0.28506
 C498 C -0.19003 1.18263 -0.34303
 C499 C -0.17833 1.16025 -0.37253
 C500 C -0.16270 1.14556 -0.34481
 C501 C -0.14157 1.13773 -0.25771
 C502 C -0.12419 1.13298 -0.28760
 C503 C -0.10838 1.11874 -0.26003
 C504 C -0.10957 1.10897 -0.20188
 C505 C -0.12694 1.11376 -0.17197
 C506 C -0.14276 1.12792 -0.19958
 C507 C -0.09278 1.09378 -0.17252
 C508 C -0.09542 1.06777 -0.13374
 C509 C -0.07968 1.05359 -0.10579
 C510 C -0.06090 1.06496 -0.11615
 C511 C -0.05823 1.09088 -0.15515
 C512 C -0.07400 1.10517 -0.18292
 H513 H -0.16706 1.18177 -0.21301
 H514 H -0.19463 1.20675 -0.26096
 H515 H -0.18107 1.15446 -0.41743
 H516 H -0.15407 1.12822 -0.36861
 H517 H -0.12272 1.14062 -0.33220
 H518 H -0.09528 1.11507 -0.28449
 H519 H -0.12827 1.10687 -0.12695
 H520 H -0.15600 1.13089 -0.17549
 H521 H -0.10965 1.05806 -0.12548
 H522 H -0.08228 1.03355 -0.07629
 H523 H -0.04397 1.10033 -0.16395
 H524 H -0.07150 1.12546 -0.21194
 C525 C 0.65740 0.66111 -0.28191
 C526 C 0.67141 0.64184 -0.30896
 C527 C 0.68696 0.65613 -0.33777
 C528 C 0.68899 0.69038 -0.34114
 C529 C 0.67475 0.70949 -0.31358
 C530 C 0.65935 0.69509 -0.28434
 C531 C 0.64076 0.64587 -0.25162
 C532 C 0.62242 0.66035 -0.25375
 C533 C 0.60679 0.64607 -0.22539
 C534 C 0.60902 0.61672 -0.19465
 C535 C 0.62734 0.60219 -0.19264
 C536 C 0.64302 0.61666 -0.22050
 C537 C 0.59229 0.60117 -0.16528
 C538 C 0.59468 0.58473 -0.11235
 C539 C 0.57910 0.56931 -0.08565
 C540 C 0.56071 0.57031 -0.11086
 C541 C 0.55819 0.58722 -0.16314
 C542 C 0.57383 0.60230 -0.19023
 H543 H 0.67032 0.61553 -0.30837
 H544 H 0.69758 0.63982 -0.35564
 H545 H 0.67481 0.73576 -0.31600
 H546 H 0.64894 0.71076 -0.26350
 H547 H 0.62006 0.68259 -0.27796
 H548 H 0.59297 0.65819 -0.22726
 H549 H 0.62955 0.57936 -0.17012
 H550 H 0.65695 0.60504 -0.21722
 H551 H 0.60858 0.58393 -0.09124
 H552 H 0.58146 0.55676 -0.04502
 H553 H 0.54422 0.58818 -0.18383
 H554 H 0.57149 0.61425 -0.23139
 C555 C 0.15664 1.16407 -0.28100
 C556 C 0.17091 1.14490 -0.30702
 C557 C 0.18630 1.15928 -0.33643
 C558 C 0.18790 1.19353 -0.34171
 C559 C 0.17340 1.21255 -0.31521
 C560 C 0.15817 1.19808 -0.28521
 C561 C 0.14016 1.14865 -0.25008
 C562 C 0.12168 1.16256 -0.25244
 C563 C 0.10618 1.14792 -0.22394
 C564 C 0.10867 1.11873 -0.19291
 C565 C 0.12716 1.10483 -0.19052
 C566 C 0.14271 1.11969 -0.21839
 C567 C 0.09205 1.10264 -0.16380
 C568 C 0.09454 1.08589 -0.11118
 C569 C 0.07906 1.07001 -0.08478
 C570 C 0.06064 1.07090 -0.10985
 C571 C 0.05804 1.08803 -0.16187
 C572 C 0.07358 1.10351 -0.18874
 H573 H 0.17016 1.11858 -0.30518
 H574 H 0.19714 1.14302 -0.35324
 H575 H 0.17313 1.23877 -0.31896
 H576 H 0.14756 1.21371 -0.26520
 H577 H 0.11907 1.18458 -0.27704
 H578 H 0.09225 1.15964 -0.22607
 H579 H 0.12962 1.08214 -0.16778
 H580 H 0.15676 1.10851 -0.21478
 H581 H 0.10843 1.08522 -0.09002
 H582 H 0.08149 1.05722 -0.04448
 H583 H 0.04405 1.08891 -0.18253
 H584 H 0.07115 1.11560 -0.22972
 C585 C 0.34232 0.35028 -0.29295
 C586 C 0.32654 0.36884 -0.31213
 C587 C 0.31079 0.35388 -0.33876
 C588 C 0.31050 0.32000 -0.34759
 C589 C 0.32632 0.30148 -0.32858
 C590 C 0.34194 0.31637 -0.30126
 C591 C 0.35911 0.36612 -0.26440
 C592 C 0.37787 0.35422 -0.27302
 C593 C 0.39358 0.36858 -0.24525
 C594 C 0.39101 0.39555 -0.20873
 C595 C 0.37228 0.40777 -0.20079
 C596 C 0.35654 0.39312 -0.22793
 C597 C 0.40774 0.41062 -0.17860
 C598 C 0.40573 0.42326 -0.12247
 C599 C 0.42140 0.43736 -0.09411
 C600 C 0.43953 0.43872 -0.12081
 C601 C 0.44164 0.42596 -0.17668
 C602 C 0.42590 0.41229 -0.20543
 H603 H 0.32641 0.39505 -0.30721
 H604 H 0.29878 0.36890 -0.35210
 H605 H 0.32681 0.27542 -0.33543
 H606 H 0.35365 0.30117 -0.28628
 H607 H 0.38049 0.33384 -0.30153
 H608 H 0.40772 0.35819 -0.25187
 H609 H 0.36975 0.42881 -0.17376
 H610 H 0.34231 0.40274 -0.21962
 H611 H 0.39211 0.42183 -0.09990
 H612 H 0.41936 0.44675 -0.05082
 H613 H 0.45541 0.42697 -0.19855
 H614 H 0.42793 0.40340 -0.24899
 C615 C -0.15754 0.84934 -0.29226
 C616 C -0.16193 0.85648 -0.35025
 C617 C -0.17743 0.84131 -0.37775
 C618 C -0.18897 0.81872 -0.34789
 C619 C -0.18467 0.81175 -0.28980
 C620 C -0.16912 0.82683 -0.26235
 C621 C -0.14089 0.86515 -0.26318
 C622 C -0.14214 0.87484 -0.20508
 C623 C -0.12644 0.88941 -0.17758
 C624 C -0.10912 0.89478 -0.20756
 C625 C -0.10789 0.88520 -0.26572
 C626 C -0.12357 0.87051 -0.29317
 C627 C -0.09241 0.91023 -0.17816
 C628 C -0.07355 0.89942 -0.18889
 C629 C -0.05788 0.91373 -0.16073
 C630 C -0.06072 0.93909 -0.12094
 C631 C -0.07958 0.94999 -0.11040
 C632 C -0.09522 0.93580 -0.13878
 H633 H -0.15345 0.87399 -0.37434
 H634 H -0.18020 0.84693 -0.42274
 H635 H -0.19339 0.79475 -0.26536
 H636 H -0.16602 0.82048 -0.21788
 H637 H -0.15532 0.87143 -0.18090
 H638 H -0.12780 0.89612 -0.13255
 H639 H -0.09484 0.88931 -0.29027
 H640 H -0.12204 0.86299 -0.33774
 H641 H -0.07091 0.87947 -0.21835
 H642 H -0.04356 0.90464 -0.16968
 H643 H -0.08230 0.96961 -0.08031
 H644 H -0.10951 0.94511 -0.13025
 C645 C 0.34416 0.65534 0.29564
 C646 C 0.34341 0.65775 0.35629
 C647 C 0.32810 0.67359 0.38340
 C648 C 0.31304 0.68691 0.35061
 C649 C 0.31358 0.68431 0.29020
 C650 C 0.32905 0.66894 0.26296
 C651 C 0.36062 0.63884 0.26669
 C652 C 0.35782 0.62086 0.21570
 C653 C 0.37332 0.60574 0.18819
 C654 C 0.39201 0.60780 0.21134
 C655 C 0.39476 0.62548 0.26268
 C656 C 0.37932 0.64099 0.28972
 C657 C 0.40856 0.59185 0.18188
 C658 C 0.42690 0.60642 0.18225
 C659 C 0.44243 0.59154 0.15456
 C660 C 0.43995 0.56201 0.12500
 C661 C 0.42165 0.54746 0.12427
 C662 C 0.40617 0.56206 0.15277
 H663 H 0.35453 0.64701 0.38300
 H664 H 0.32784 0.67495 0.43015
 H665 H 0.30218 0.69468 0.26405
 H666 H 0.32928 0.66817 0.21621
 H667 H 0.34361 0.61820 0.19711
 H668 H 0.37065 0.59277 0.14832
 H669 H 0.40886 0.62721 0.28237
 H670 H 0.38213 0.65498 0.32839
 H671 H 0.42924 0.62966 0.20310
 H672 H 0.45632 0.60354 0.15537
 H673 H 0.41931 0.52461 0.10212
 H674 H 0.39239 0.54977 0.15243
 C675 C -0.15570 1.15642 0.29706
 C676 C -0.15651 1.15850 0.35774
 C677 C -0.17181 1.17434 0.38496
 C678 C -0.18679 1.18797 0.35223
 C679 C -0.18616 1.18572 0.29178
 C680 C -0.17071 1.17036 0.26445
 C681 C -0.13926 1.13986 0.26799
 C682 C -0.14206 1.12227 0.21658
 C683 C -0.12660 1.10712 0.18895
 C684 C -0.10794 1.10873 0.21242
 C685 C -0.10518 1.12601 0.26418
 C686 C -0.12059 1.14156 0.29133
 C687 C -0.09142 1.09272 0.18284
 C688 C -0.07299 1.10694 0.18393
 C689 C -0.05749 1.09201 0.15616
 C690 C -0.06009 1.06276 0.12579
 C691 C -0.07848 1.04858 0.12430
 C692 C -0.09393 1.06322 0.15289
 H693 H -0.14548 1.14749 0.38441
 H694 H -0.17213 1.17543 0.43173
 H695 H -0.19749 1.19635 0.26567
 H696 H -0.17042 1.16986 0.21769
 H697 H -0.15626 1.11995 0.19772
 H698 H -0.12928 1.09447 0.14876
 H699 H -0.09111 1.12739 0.28413
 H700 H -0.11777 1.15525 0.33035
 H701 H -0.07054 1.12996 0.20541
 H702 H -0.04353 1.10373 0.15757
 H703 H -0.08092 1.02597 0.10148
 H704 H -0.10779 1.05118 0.15196
 C705 C 0.65678 0.33581 0.27867
 C706 C 0.67386 0.35280 0.29110
 C707 C 0.68883 0.33770 0.32126
 C708 C 0.68725 0.30505 0.33915
 C709 C 0.67027 0.28791 0.32607
 C710 C 0.65519 0.30314 0.29651
 C711 C 0.64063 0.35222 0.24786
 C712 C 0.62902 0.33495 0.20858
 C713 C 0.61369 0.35031 0.18045
 C714 C 0.60979 0.38337 0.19034
 C715 C 0.62145 0.40077 0.22902
 C716 C 0.63661 0.38534 0.25777
 C717 C 0.59345 0.39962 0.16110
 C718 C 0.59591 0.43018 0.13474
 C719 C 0.58038 0.44586 0.10826
 C720 C 0.56200 0.43149 0.10843
 C721 C 0.55958 0.40083 0.13463
 C722 C 0.57519 0.38495 0.16034
 H723 H 0.67575 0.37781 0.27730
 H724 H 0.70154 0.35186 0.33126
 H725 H 0.66863 0.26261 0.33840
 H726 H 0.64217 0.28938 0.28842
 H727 H 0.63189 0.30962 0.19901
 H728 H 0.60500 0.33647 0.15033
 H729 H 0.61856 0.42619 0.23795
 H730 H 0.64495 0.39927 0.28856
 H731 H 0.60990 0.44186 0.13442
 H732 H 0.58271 0.46946 0.08848
 H733 H 0.54562 0.38908 0.13522
 H734 H 0.57292 0.36149 0.18072
 C735 C 0.15633 0.83509 0.27905
 C736 C 0.17349 0.85195 0.29109
 C737 C 0.18849 0.83675 0.32095
 C738 C 0.18688 0.80412 0.33896
 C739 C 0.16981 0.78712 0.32634
 C740 C 0.15470 0.80244 0.29705
 C741 C 0.14018 0.85160 0.24841
 C742 C 0.12846 0.83439 0.20932
 C743 C 0.11315 0.84987 0.18122
 C744 C 0.10938 0.88299 0.19096
 C745 C 0.12113 0.90031 0.22951
 C746 C 0.13626 0.88476 0.25820
 C747 C 0.09307 0.89939 0.16168
 C748 C 0.09559 0.93001 0.13558
 C749 C 0.08010 0.94581 0.10907
 C750 C 0.06170 0.93150 0.10892
 C751 C 0.05923 0.90078 0.13487
 C752 C 0.07479 0.88479 0.16063
 H753 H 0.17542 0.87692 0.27718
 H754 H 0.20128 0.85082 0.33061
 H755 H 0.16813 0.76185 0.33881
 H756 H 0.14162 0.78879 0.28926
 H757 H 0.13123 0.80902 0.19984
 H758 H 0.10441 0.83607 0.15121
 H759 H 0.11834 0.92577 0.23837
 H760 H 0.14468 0.89866 0.28885
 H761 H 0.10959 0.94165 0.13546
 H762 H 0.08247 0.96948 0.08954
 H763 H 0.04526 0.88906 0.13523
 H764 H 0.07246 0.86129 0.18082
   
