data_POSCAR
  _audit_creation_date              2014-09-24
  _audit_creation_method            'ToBaCCo'
  _symmetry_space_group_name_H-M    'P1'
  _symmetry_Int_Tables_number       1
  _symmetry_cell_setting            triclinic
  loop_
  _symmetry_equiv_pos_as_xyz
 x,y,z
_cell_length_a 58.6596
_cell_length_b 33.4547
_cell_length_c 20.0251
_cell_angle_alpha 89.969000
_cell_angle_beta 89.866600
_cell_angle_gamma 90.179100
loop_
  _atom_site_label
  _atom_site_type_symbol
  _atom_site_fract_x
  _atom_site_fract_y
  _atom_site_fract_z
C1 C 0.74964 0.25031 0.46799
 C2 C 0.74946 0.25045 0.53611
 C3 C 0.73090 0.26999 0.57467
 C4 C 0.76782 0.23104 0.57535
 C5 C 0.76932 0.23458 0.42934
 C6 C 0.73016 0.26582 0.42858
 C7 C 0.72529 0.31026 0.56363
 C8 C 0.70733 0.32794 0.59879
 C9 C 0.69495 0.30564 0.64591
 C10 C 0.70084 0.26573 0.65821
 C11 C 0.71878 0.24808 0.62297
 C12 C 0.77985 0.25319 0.62336
 C13 C 0.79771 0.23566 0.65888
 C14 C 0.80357 0.19574 0.64717
 C15 C 0.79128 0.17320 0.60054
 C16 C 0.77341 0.19068 0.56504
 C17 C 0.76577 0.20487 0.38093
 C18 C 0.78416 0.18937 0.34491
 C19 C 0.80625 0.20363 0.35652
 C20 C 0.80987 0.23378 0.40384
 C21 C 0.79149 0.24936 0.43986
 C22 C 0.70795 0.25105 0.43870
 C23 C 0.68973 0.26645 0.40201
 C24 C 0.69357 0.29642 0.35442
 C25 C 0.71571 0.31066 0.34318
 C26 C 0.73393 0.29533 0.37987
 H27 H 0.73472 0.32789 0.52749
 H28 H 0.70309 0.35890 0.58885
 H29 H 0.69150 0.24806 0.69458
 H30 H 0.72294 0.21708 0.63247
 H31 H 0.77571 0.28426 0.63228
 H32 H 0.80708 0.25333 0.69495
 H33 H 0.76405 0.17289 0.52912
 H34 H 0.74880 0.19327 0.37180
 H35 H 0.78116 0.16610 0.30834
 H36 H 0.82690 0.24514 0.41303
 H37 H 0.79452 0.27281 0.47605
 H38 H 0.70476 0.22774 0.47513
 H39 H 0.67267 0.25513 0.41092
 H40 H 0.71886 0.33381 0.30642
 H41 H 0.75093 0.30691 0.37106
 H42 H 0.79562 0.14223 0.59131
 C43 C 0.24985 0.74907 0.46620
 C44 C 0.24999 0.74912 0.53432
 C45 C 0.23062 0.76540 0.57355
 C46 C 0.26951 0.73288 0.57281
 C47 C 0.26782 0.72837 0.42707
 C48 C 0.23172 0.76970 0.42773
 C49 C 0.23454 0.79525 0.62147
 C50 C 0.21632 0.81185 0.65684
 C51 C 0.19405 0.79852 0.64506
 C52 C 0.19008 0.76807 0.59855
 C53 C 0.20828 0.75141 0.56320
 C54 C 0.29182 0.74677 0.56132
 C55 C 0.31014 0.73029 0.59623
 C56 C 0.30632 0.70010 0.64344
 C57 C 0.28407 0.68684 0.65627
 C58 C 0.26575 0.70326 0.62134
 C59 C 0.27266 0.68779 0.43823
 C60 C 0.29038 0.66916 0.40353
 C61 C 0.30326 0.69076 0.35684
 C62 C 0.29809 0.73088 0.34411
 C63 C 0.28039 0.74956 0.37884
 C64 C 0.21904 0.74848 0.38000
 C65 C 0.20128 0.76714 0.34568
 C66 C 0.19615 0.80728 0.35831
 C67 C 0.20911 0.82892 0.40456
 C68 C 0.22689 0.81030 0.43886
 H69 H 0.25165 0.80625 0.63040
 H70 H 0.21957 0.83535 0.69283
 H71 H 0.17291 0.75742 0.58928
 H72 H 0.20497 0.72789 0.52735
 H73 H 0.29504 0.77013 0.52500
 H74 H 0.32727 0.74090 0.58614
 H75 H 0.24866 0.69233 0.63117
 H76 H 0.26289 0.67074 0.47437
 H77 H 0.29418 0.63806 0.41356
 H78 H 0.30793 0.74784 0.30798
 H79 H 0.27683 0.78079 0.36929
 H80 H 0.22257 0.71724 0.37047
 H81 H 0.19139 0.75015 0.30988
 H82 H 0.20536 0.86004 0.41449
 H83 H 0.23675 0.82739 0.47457
 H84 H 0.28092 0.66356 0.69280
 C85 C 0.24958 0.25061 -0.46842
 C86 C 0.24974 0.25063 -0.53654
 C87 C 0.26935 0.26683 -0.57521
 C88 C 0.23030 0.23446 -0.57560
 C89 C 0.23132 0.23008 -0.42977
 C90 C 0.26767 0.27114 -0.42944
 C91 C 0.26573 0.29656 -0.62353
 C92 C 0.28414 0.31300 -0.65859
 C93 C 0.30634 0.29963 -0.64610
 C94 C 0.31000 0.26930 -0.59907
 C95 C 0.29158 0.25283 -0.56407
 C96 C 0.20803 0.24853 -0.56497
 C97 C 0.18975 0.23200 -0.60016
 C98 C 0.19357 0.20156 -0.64685
 C99 C 0.21581 0.18816 -0.65889
 C100 C 0.23409 0.20466 -0.62364
 C101 C 0.22626 0.18953 -0.44089
 C102 C 0.20840 0.17098 -0.40629
 C103 C 0.19558 0.19266 -0.35968
 C104 C 0.20095 0.23280 -0.34712
 C105 C 0.21879 0.25135 -0.38178
 C106 C 0.28009 0.24981 -0.38140
 C107 C 0.29787 0.26834 -0.34672
 C108 C 0.30325 0.30844 -0.35931
 C109 C 0.29053 0.33019 -0.40583
 C110 C 0.27273 0.31171 -0.44048
 H111 H 0.24870 0.30757 -0.63308
 H112 H 0.28105 0.33637 -0.69494
 H113 H 0.32706 0.25852 -0.58911
 H114 H 0.29467 0.22939 -0.52791
 H115 H 0.20482 0.27203 -0.52901
 H116 H 0.17265 0.24279 -0.59055
 H117 H 0.25115 0.19360 -0.63278
 H118 H 0.23601 0.17240 -0.47680
 H119 H 0.20452 0.13986 -0.41630
 H120 H 0.19122 0.24992 -0.31109
 H121 H 0.22252 0.28256 -0.37225
 H122 H 0.27636 0.21858 -0.37195
 H123 H 0.30758 0.25127 -0.31072
 H124 H 0.29450 0.36129 -0.41573
 H125 H 0.26307 0.32886 -0.47646
 H126 H 0.21903 0.16469 -0.69498
 C127 C -0.25021 0.74991 -0.53490
 C128 C -0.25016 0.75002 -0.46678
 C129 C -0.26973 0.73432 -0.42746
 C130 C -0.23053 0.76588 -0.42805
 C131 C -0.23176 0.76952 -0.57407
 C132 C -0.26871 0.73024 -0.57352
 C133 C -0.29189 0.74895 -0.43761
 C134 C -0.31021 0.73335 -0.40109
 C135 C -0.30652 0.70330 -0.35359
 C136 C -0.28439 0.68923 -0.34232
 C137 C -0.26609 0.70477 -0.37887
 C138 C -0.23415 0.79549 -0.37952
 C139 C -0.21582 0.81109 -0.34340
 C140 C -0.19371 0.79703 -0.35501
 C141 C -0.19003 0.76698 -0.40244
 C142 C -0.20836 0.75130 -0.43857
 C143 C -0.21968 0.74753 -0.62213
 C144 C -0.20176 0.76523 -0.65765
 C145 C -0.19587 0.80523 -0.64587
 C146 C -0.20823 0.82761 -0.59912
 C147 C -0.22617 0.80992 -0.56365
 C148 C -0.27438 0.68990 -0.56254
 C149 C -0.29229 0.67211 -0.59773
 C150 C -0.30457 0.69433 -0.64477
 C151 C -0.29863 0.73427 -0.65703
 C152 C -0.28074 0.75207 -0.62179
 H153 H -0.29498 0.77229 -0.47395
 H154 H -0.32723 0.74463 -0.41016
 H155 H -0.28128 0.66603 -0.30567
 H156 H -0.24911 0.69332 -0.37005
 H157 H -0.25112 0.80693 -0.37040
 H158 H -0.21886 0.83429 -0.30675
 H159 H -0.20528 0.72792 -0.47484
 H160 H -0.22383 0.71643 -0.63113
 H161 H -0.19238 0.74758 -0.69377
 H162 H -0.20394 0.85863 -0.58970
 H163 H -0.23557 0.82758 -0.52769
 H164 H -0.26502 0.67233 -0.52643
 H165 H -0.29661 0.64113 -0.58793
 H166 H -0.30793 0.75180 -0.69338
 H167 H -0.27654 0.78311 -0.63125
 H168 H -0.17300 0.75577 -0.41163
 O169 O 0.03172 0.92933 -0.11903
 O170 O 0.05693 0.96629 -0.05665
 C171 C 0.05216 0.94001 -0.10199
 O172 O -0.03186 1.07192 -0.11897
 O173 O -0.05703 1.03450 -0.05682
 C174 C -0.05230 1.06150 -0.10109
 O175 O 0.03193 1.06832 -0.12525
 O176 O 0.05702 1.03345 -0.05957
 C177 C 0.05235 1.05824 -0.10723
 O178 O -0.03201 0.92579 -0.11261
 O179 O -0.05714 0.96487 -0.05379
 C180 C -0.05243 0.93663 -0.09578
 Zr181 Zr -0.00011 0.94892 -0.08126
 O182 O -0.00264 0.94714 -0.18667
 O183 O 0.00237 0.88583 -0.07713
 Zr184 Zr 0.00002 1.04983 -0.08575
 O185 O -0.00253 1.04829 -0.19117
 O186 O 0.00268 1.11297 -0.08728
 O187 O 0.02033 0.99920 -0.09675
 O188 O -0.01987 0.99916 -0.09563
 O189 O -0.03207 0.92933 0.12065
 O190 O -0.05713 0.96665 0.05878
 C191 C -0.05248 0.93968 0.10300
 O192 O 0.03187 1.07212 0.12002
 O193 O 0.05700 1.03525 0.05733
 C194 C 0.05229 1.06150 0.10275
 O195 O -0.03186 1.07547 0.11427
 O196 O -0.05707 1.03629 0.05574
 C197 C -0.05230 1.06456 0.09765
 O198 O 0.03174 0.93310 0.12615
 O199 O 0.05692 0.96808 0.06020
 C200 C 0.05218 0.94325 0.10788
 Zr201 Zr -0.00013 0.95152 0.08707
 O202 O -0.00269 0.95310 0.19252
 O203 O 0.00237 0.88840 0.08864
 Zr204 Zr -0.00000 1.05243 0.08257
 O205 O -0.00256 1.05422 0.18801
 O206 O 0.00264 1.11553 0.07840
 Zr207 Zr 0.03409 1.00073 0.00046
 Zr208 Zr -0.03418 1.00062 0.00085
 O209 O -0.01990 1.00213 0.09717
 O210 O 0.02031 1.00222 0.09784
 O211 O -0.02055 0.94236 0.00336
 O212 O 0.01991 1.05844 -0.00202
 O213 O 0.01977 0.94298 0.00311
 O214 O -0.02041 1.05893 -0.00181
 H215 H -0.03008 0.99854 -0.13496
 H216 H 0.03024 1.08193 -0.00312
 H217 H -0.03012 1.00272 0.13661
 H218 H 0.03003 0.91952 0.00408
 H219 H -0.01038 1.12376 -0.06177
 H220 H -0.01045 1.12551 0.05229
 H221 H 0.00995 1.03779 0.20625
 H222 H 0.00996 0.96991 0.20928
 H223 H -0.01069 0.87756 0.06319
 H224 H -0.01075 0.87581 -0.05086
 H225 H 0.00994 0.96357 -0.20504
 H226 H 0.01004 1.03143 -0.20808
 O227 O 0.46858 0.42773 0.11854
 O228 O 0.44353 0.46466 0.05602
 C229 C 0.44818 0.43838 0.10144
 O230 O 0.53226 0.57036 0.12000
 O231 O 0.55741 0.53338 0.05753
 C232 C 0.55270 0.56011 0.10216
 O233 O 0.46824 0.56623 0.12488
 O234 O 0.44321 0.53127 0.05864
 C235 C 0.44783 0.55598 0.10648
 O236 O 0.53238 0.42433 0.11098
 O237 O 0.55763 0.46413 0.05314
 C238 C 0.55284 0.43555 0.09457
 Zr239 Zr 0.50043 0.44724 0.08020
 O240 O 0.50261 0.44260 0.18538
 O241 O 0.49929 0.38447 0.06886
 Zr242 Zr 0.50037 0.54830 0.08627
 O243 O 0.50275 0.54605 0.19170
 O244 O 0.49784 0.61139 0.08908
 O245 O 0.48009 0.49742 0.09637
 O246 O 0.52017 0.49759 0.09559
 O247 O 0.53232 0.42832 -0.12075
 O248 O 0.55743 0.46584 -0.05884
 C249 C 0.55274 0.43883 -0.10308
 O250 O 0.46890 0.57134 -0.12003
 O251 O 0.44368 0.53415 -0.05771
 C252 C 0.44846 0.56055 -0.10298
 O253 O 0.53255 0.57497 -0.11357
 O254 O 0.55755 0.53558 -0.05524
 C255 C 0.55293 0.56401 -0.09689
 O256 O 0.46835 0.43244 -0.12649
 O257 O 0.44327 0.46747 -0.06058
 C258 C 0.44794 0.44269 -0.10828
 Zr259 Zr 0.50043 0.45070 -0.08789
 O260 O 0.50305 0.45315 -0.19330
 O261 O 0.49819 0.38758 -0.09075
 Zr262 Zr 0.50066 0.55171 -0.08224
 O263 O 0.50333 0.55415 -0.18761
 O264 O 0.49813 0.61477 -0.07701
 Zr265 Zr 0.46645 0.49944 -0.00091
 Zr266 Zr 0.53453 0.49965 -0.00076
 O267 O 0.52038 0.50145 -0.09723
 O268 O 0.48023 0.50145 -0.09824
 O269 O 0.52085 0.44137 -0.00421
 O270 O 0.48066 0.55724 0.00231
 O271 O 0.48047 0.44167 -0.00411
 O272 O 0.52092 0.55790 0.00254
 H273 H 0.53032 0.49675 0.13502
 H274 H 0.47034 0.58062 0.00353
 H275 H 0.53067 0.50218 -0.13652
 H276 H 0.47009 0.41825 -0.00528
 H277 H 0.51077 0.62240 0.06310
 H278 H 0.51131 0.62467 -0.05103
 H279 H 0.49111 0.53705 -0.20612
 H280 H 0.49005 0.46905 -0.20994
 H281 H 0.50904 0.37715 -0.05729
 H282 H 0.49938 0.37323 0.11465
 H283 H 0.49187 0.46228 0.20438
 H284 H 0.48975 0.52995 0.20833
 C285 C 0.39645 0.35363 0.25303
 C286 C 0.37783 0.37603 0.29311
 C287 C 0.35954 0.35061 0.25822
 C288 C 0.37786 0.32792 0.21866
 C289 C 0.39422 0.38473 0.19697
 C290 C 0.37593 0.35932 0.16206
 C291 C 0.37590 0.40742 0.23653
 C292 C 0.35731 0.38172 0.20216
 C293 C 0.34023 0.33177 0.29258
 C294 C 0.32433 0.31653 0.32118
 C295 C 0.41353 0.40379 0.16293
 C296 C 0.42938 0.41954 0.13491
 H297 H 0.41276 0.34230 0.27357
 H298 H 0.37840 0.38268 0.34739
 H299 H 0.37844 0.29502 0.21169
 H300 H 0.37537 0.35268 0.10778
 H301 H 0.37531 0.44032 0.24349
 H302 H 0.34100 0.39306 0.18162
 C303 C -0.10538 0.85566 0.25306
 C304 C -0.12364 0.87911 0.29286
 C305 C -0.14234 0.85468 0.25787
 C306 C -0.12438 0.83094 0.21858
 C307 C -0.10700 0.88679 0.19686
 C308 C -0.12569 0.86236 0.16183
 C309 C -0.12496 0.91052 0.23615
 C310 C -0.14395 0.88581 0.20167
 C311 C -0.16194 0.83683 0.29228
 C312 C -0.17794 0.82207 0.32107
 C313 C -0.08736 0.90500 0.16317
 C314 C -0.07133 0.92049 0.13564
 H315 H -0.08931 0.84346 0.27381
 H316 H -0.12303 0.88582 0.34711
 H317 H -0.12438 0.79802 0.21174
 H318 H -0.12630 0.85567 0.10758
 H319 H -0.12496 0.94344 0.24300
 H320 H -0.16003 0.89802 0.18093
 C321 C 0.62534 0.63847 0.16275
 C322 C 0.62382 0.66858 0.22136
 C323 C 0.64216 0.64467 0.25860
 C324 C 0.64398 0.61485 0.20054
 C325 C 0.60702 0.61263 0.19695
 C326 C 0.62536 0.58873 0.23419
 C327 C 0.60521 0.64245 0.25501
 C328 C 0.62384 0.61882 0.29277
 C329 C 0.66165 0.66254 0.29329
 C330 C 0.67758 0.67737 0.32219
 C331 C 0.58749 0.59449 0.16287
 C332 C 0.57151 0.57911 0.13506
 H333 H 0.62573 0.64636 0.10890
 H334 H 0.62341 0.70163 0.21646
 H335 H 0.66013 0.60368 0.17853
 H336 H 0.62578 0.55568 0.23910
 H337 H 0.58905 0.65361 0.27703
 H338 H 0.62344 0.61092 0.34661
 C339 C 0.11864 1.09786 0.25765
 C340 C 0.14166 1.10888 0.22424
 C341 C 0.14065 1.15009 0.25791
 C342 C 0.11792 1.13936 0.29185
 C343 C 0.10609 1.11558 0.19732
 C344 C 0.10507 1.15679 0.23099
 C345 C 0.12881 1.12630 0.16336
 C346 C 0.12810 1.16782 0.19757
 C347 C 0.15987 1.16912 0.29199
 C348 C 0.17570 1.18452 0.32046
 C349 C 0.08685 1.09632 0.16365
 C350 C 0.07104 1.08044 0.13592
 H351 H 0.11453 1.06888 0.28196
 H352 H 0.15693 1.08940 0.22184
 H353 H 0.11366 1.14496 0.34507
 H354 H 0.08980 1.17626 0.23339
 H355 H 0.13306 1.12070 0.11014
 H356 H 0.13221 1.19679 0.17326
 C357 C 0.62548 0.36089 -0.16286
 C358 C 0.62400 0.33040 -0.22093
 C359 C 0.64232 0.35433 -0.25881
 C360 C 0.64410 0.38454 -0.20129
 C361 C 0.60714 0.38627 -0.19729
 C362 C 0.62547 0.41019 -0.23517
 C363 C 0.60537 0.35606 -0.25481
 C364 C 0.62398 0.37971 -0.29320
 C365 C 0.66184 0.33654 -0.29347
 C366 C 0.67778 0.32181 -0.32238
 C367 C 0.58758 0.40438 -0.16334
 C368 C 0.57159 0.41977 -0.13571
 H369 H 0.62586 0.35335 -0.10888
 H370 H 0.62362 0.29738 -0.21545
 H371 H 0.66024 0.39607 -0.17968
 H372 H 0.62585 0.44321 -0.24066
 H373 H 0.58923 0.34453 -0.27643
 H374 H 0.62359 0.38727 -0.34717
 C375 C 0.11082 0.88927 -0.27205
 C376 C 0.13630 0.89664 -0.25590
 C377 C 0.14030 0.85128 -0.25765
 C378 C 0.11512 0.84362 -0.27433
 C379 C 0.10584 0.88591 -0.19692
 C380 C 0.10984 0.84056 -0.19865
 C381 C 0.13102 0.89357 -0.18023
 C382 C 0.13533 0.84792 -0.18250
 C383 C 0.15947 0.83215 -0.29178
 C384 C 0.17524 0.81665 -0.32029
 C385 C 0.08665 0.90521 -0.16316
 C386 C 0.07088 0.92110 -0.13532
 H387 H 0.10053 0.90650 -0.30848
 H388 H 0.14740 0.91948 -0.27981
 H389 H 0.10880 0.82286 -0.31340
 H390 H 0.09873 0.81773 -0.17473
 H391 H 0.13734 0.91435 -0.14116
 H392 H 0.14562 0.83070 -0.14608
 C393 C 0.39276 0.61874 -0.27429
 C394 C 0.36762 0.60463 -0.26988
 C395 C 0.36025 0.64821 -0.25929
 C396 C 0.38510 0.66261 -0.26423
 C397 C 0.39476 0.61414 -0.19820
 C398 C 0.38740 0.65772 -0.18759
 C399 C 0.36992 0.59974 -0.19326
 C400 C 0.36225 0.64361 -0.18319
 C401 C 0.34104 0.66703 -0.29356
 C402 C 0.32522 0.68227 -0.32207
 C403 C 0.41397 0.59511 -0.16424
 C404 C 0.42974 0.57938 -0.13631
 H405 H 0.40551 0.60830 -0.31137
 H406 H 0.35927 0.58301 -0.30409
 H407 H 0.39112 0.68868 -0.29379
 H408 H 0.39575 0.67933 -0.15337
 H409 H 0.36390 0.57366 -0.16372
 H410 H 0.34950 0.65404 -0.14612
 C411 C -0.12527 1.13868 -0.15924
 C412 C -0.12390 1.16984 -0.21641
 C413 C -0.14198 1.14592 -0.25501
 C414 C -0.14365 1.11505 -0.19838
 C415 C -0.10669 1.11410 -0.19436
 C416 C -0.12477 1.09019 -0.23295
 C417 C -0.10502 1.14497 -0.25098
 C418 C -0.12340 1.12133 -0.29009
 C419 C -0.16155 1.16358 -0.28925
 C420 C -0.17753 1.17816 -0.31794
 C421 C -0.08710 1.09601 -0.16087
 C422 C -0.07110 1.08061 -0.13352
 H423 H -0.12580 1.14562 -0.10505
 H424 H -0.12378 1.20280 -0.20999
 H425 H -0.15975 1.10293 -0.17714
 H426 H -0.12491 1.05723 -0.23939
 H427 H -0.08893 1.15707 -0.27223
 H428 H -0.12286 1.11438 -0.34427
 C429 C 0.63141 0.61935 -0.16582
 C430 C 0.63912 0.60922 -0.23787
 C431 C 0.64079 0.65414 -0.25318
 C432 C 0.63339 0.66458 -0.18167
 C433 C 0.60656 0.62007 -0.18981
 C434 C 0.60822 0.66499 -0.20509
 C435 C 0.61399 0.60965 -0.26131
 C436 C 0.61594 0.65484 -0.27715
 C437 C 0.65986 0.67261 -0.28912
 C438 C 0.67561 0.68728 -0.31921
 C439 C 0.58747 0.60063 -0.15543
 C440 C 0.57171 0.58416 -0.12814
 H441 H 0.63755 0.60454 -0.11964
 H442 H 0.65203 0.58649 -0.25177
 H443 H 0.64159 0.68740 -0.14935
 H444 H 0.59529 0.68769 -0.19118
 H445 H 0.60581 0.58684 -0.29367
 H446 H 0.60979 0.66965 -0.32333
 C447 C 0.12794 1.12562 -0.16888
 C448 C 0.14335 1.10421 -0.22053
 C449 C 0.14215 1.14135 -0.26552
 C450 C 0.12703 1.16304 -0.21439
 C451 C 0.10684 1.10890 -0.20476
 C452 C 0.10564 1.14604 -0.24976
 C453 C 0.12195 1.08720 -0.25588
 C454 C 0.12105 1.12462 -0.30141
 C455 C 0.16172 1.15967 -0.29942
 C456 C 0.17770 1.17502 -0.32753
 C457 C 0.08722 1.09090 -0.17061
 C458 C 0.07120 1.07606 -0.14202
 H459 H 0.13055 1.12584 -0.11399
 H460 H 0.15907 1.08722 -0.20888
 H461 H 0.12935 1.19442 -0.19768
 H462 H 0.08992 1.16303 -0.26141
 H463 H 0.11963 1.05581 -0.27257
 H464 H 0.11844 1.12441 -0.35630
 C465 C 0.37470 0.41636 -0.24090
 C466 C 0.37589 0.38630 -0.29965
 C467 C 0.35784 0.36033 -0.26451
 C468 C 0.35634 0.39011 -0.20630
 C469 C 0.39331 0.39249 -0.20477
 C470 C 0.37526 0.36653 -0.16964
 C471 C 0.39480 0.36272 -0.26298
 C472 C 0.37645 0.33648 -0.22837
 C473 C 0.33819 0.34218 -0.29787
 C474 C 0.32216 0.32696 -0.32562
 C475 C 0.41300 0.41031 -0.17113
 C476 C 0.42907 0.42501 -0.14285
 H477 H 0.37422 0.44940 -0.24569
 H478 H 0.37592 0.39424 -0.35348
 H479 H 0.34031 0.40116 -0.18337
 H480 H 0.37523 0.35859 -0.11581
 H481 H 0.41084 0.35167 -0.28591
 H482 H 0.37694 0.30344 -0.22356
 C483 C -0.13073 0.89537 -0.18617
 C484 C -0.13240 0.89053 -0.26291
 C485 C -0.14006 0.84698 -0.25290
 C486 C -0.13869 0.85152 -0.17666
 C487 C -0.10592 0.88087 -0.18930
 C488 C -0.11357 0.83731 -0.17923
 C489 C -0.10732 0.87632 -0.26553
 C490 C -0.11526 0.83247 -0.25604
 C491 C -0.15910 0.82857 -0.28887
 C492 C -0.17483 0.81391 -0.31887
 C493 C -0.08688 0.90020 -0.15473
 C494 C -0.07117 0.91657 -0.12726
 H495 H -0.13687 0.92144 -0.15705
 H496 H -0.14035 0.91222 -0.29772
 H497 H -0.15180 0.84111 -0.14053
 H498 H -0.10561 0.81566 -0.14440
 H499 H -0.09422 0.88673 -0.30169
 H500 H -0.10912 0.80641 -0.28518
 C501 C 0.39081 0.61136 0.27865
 C502 C 0.38225 0.65457 0.26716
 C503 C 0.35774 0.63850 0.26226
 C504 C 0.36600 0.59556 0.27427
 C505 C 0.39318 0.60618 0.20274
 C506 C 0.36868 0.59010 0.19782
 C507 C 0.38492 0.64912 0.19074
 C508 C 0.36012 0.63332 0.18635
 C509 C 0.33812 0.65678 0.29551
 C510 C 0.32212 0.67211 0.32319
 C511 C 0.41287 0.58830 0.16919
 C512 C 0.42894 0.57360 0.14098
 H513 H 0.40365 0.60213 0.31621
 H514 H 0.38760 0.68130 0.29605
 H515 H 0.35798 0.57374 0.30895
 H516 H 0.36334 0.56336 0.16894
 H517 H 0.39293 0.67094 0.15605
 H518 H 0.34728 0.64254 0.14877
 C519 C -0.12428 1.14544 0.15753
 C520 C -0.14263 1.12286 0.19879
 C521 C -0.13997 1.15392 0.25474
 C522 C -0.12193 1.17682 0.21407
 C523 C -0.10577 1.12016 0.19130
 C524 C -0.10311 1.15121 0.24725
 C525 C -0.12383 1.09729 0.23198
 C526 C -0.12145 1.12862 0.28844
 C527 C -0.15904 1.17226 0.29062
 C528 C -0.17481 1.18684 0.32052
 C529 C -0.08671 1.10090 0.15677
 C530 C -0.07101 1.08457 0.12926
 H531 H -0.12523 1.15213 0.10330
 H532 H -0.15910 1.11140 0.17926
 H533 H -0.12136 1.20973 0.20713
 H534 H -0.08664 1.16266 0.26678
 H535 H -0.12441 1.06438 0.23894
 H536 H -0.12049 1.12191 0.34266
 C537 C 0.62019 0.40014 0.24296
 C538 C 0.61839 0.36149 0.28524
 C539 C 0.64019 0.34599 0.25152
 C540 C 0.64227 0.38437 0.20976
 C541 C 0.60617 0.37980 0.18782
 C542 C 0.62796 0.36432 0.15404
 C543 C 0.60408 0.34142 0.22958
 C544 C 0.62618 0.32562 0.19639
 C545 C 0.65914 0.32767 0.28766
 C546 C 0.67479 0.31313 0.31789
 C547 C 0.58719 0.39910 0.15329
 C548 C 0.57152 0.41548 0.12590
 H549 H 0.61752 0.43100 0.26169
 H550 H 0.61467 0.36013 0.33957
 H551 H 0.65818 0.40183 0.20203
 H552 H 0.63166 0.36571 0.09970
 H553 H 0.58816 0.32398 0.23731
 H554 H 0.62887 0.29476 0.17768
 C555 C 0.11249 0.89831 0.27819
 C556 C 0.11684 0.85279 0.28429
 C557 C 0.14180 0.85980 0.26386
 C558 C 0.13776 0.90503 0.25828
 C559 C 0.10655 0.89242 0.20416
 C560 C 0.13151 0.89944 0.18372
 C561 C 0.11060 0.84720 0.20975
 C562 C 0.13585 0.85393 0.18983
 C563 C 0.16135 0.84139 0.29717
 C564 C 0.17730 0.82599 0.32482
 C565 C 0.08697 0.91051 0.17054
 C566 C 0.07098 0.92540 0.14231
 H567 H 0.10267 0.91675 0.31415
 H568 H 0.11102 0.83340 0.32603
 H569 H 0.14915 0.92861 0.27858
 H570 H 0.13733 0.91883 0.14199
 H571 H 0.09921 0.82362 0.18945
 H572 H 0.14568 0.83549 0.15384
   
