data_POSCAR
  _audit_creation_date              2014-09-24
  _audit_creation_method            'ToBaCCo'
  _symmetry_space_group_name_H-M    'P1'
  _symmetry_Int_Tables_number       1
  _symmetry_cell_setting            triclinic
  loop_
  _symmetry_equiv_pos_as_xyz
 x,y,z
_cell_length_a 34.5234
_cell_length_b 34.4970
_cell_length_c 23.0378
_cell_angle_alpha 90.045000
_cell_angle_beta 90.015900
_cell_angle_gamma 90.976500
loop_
  _atom_site_label
  _atom_site_type_symbol
  _atom_site_fract_x
  _atom_site_fract_y
  _atom_site_fract_z
C1 C -0.10417 0.27155 -0.00144
 C2 C -0.08461 0.27198 0.05208
 C3 C -0.04386 0.27156 0.05221
 C4 C -0.02245 0.26688 0.00050
 C5 C -0.04348 0.26351 -0.05204
 C6 C -0.08398 0.26731 -0.05391
 C7 C 0.02134 0.26503 0.00126
 C8 C 0.04303 0.26935 -0.05047
 C9 C 0.08338 0.26564 -0.05101
 C10 C 0.10314 0.26104 0.00154
 C11 C 0.08289 0.25806 0.05404
 C12 C 0.04217 0.25862 0.05332
 H13 H -0.13532 0.27307 -0.00213
 H14 H -0.02928 0.27497 0.09331
 H15 H -0.02879 0.25747 -0.09222
 H16 H 0.02919 0.27568 -0.09123
 H17 H 0.13424 0.25828 0.00138
 H18 H 0.02734 0.25371 0.09388
 C19 C 0.39618 0.76543 0.49766
 C20 C 0.41620 0.76929 0.55033
 C21 C 0.45677 0.77208 0.54972
 C22 C 0.47803 0.76772 0.49779
 C23 C 0.45696 0.76219 0.44571
 C24 C 0.41626 0.76232 0.44505
 C25 C 0.52174 0.76807 0.49830
 C26 C 0.54333 0.77505 0.44713
 C27 C 0.58397 0.77360 0.44699
 C28 C 0.60357 0.76822 0.49960
 C29 C 0.58309 0.76217 0.55138
 C30 C 0.54246 0.76071 0.54996
 H31 H 0.36494 0.76339 0.49778
 H32 H 0.47132 0.77758 0.59044
 H33 H 0.47177 0.75722 0.40521
 H34 H 0.52901 0.78157 0.40674
 H35 H 0.63481 0.76728 0.50001
 H36 H 0.52744 0.75342 0.58964
 C37 C 1.10405 0.72825 -0.00215
 C38 C 1.08413 0.72590 0.05093
 C39 C 1.04344 0.72617 0.05044
 C40 C 1.02236 0.73305 -0.00097
 C41 C 1.04365 0.73804 -0.05301
 C42 C 1.08422 0.73424 -0.05456
 C43 C 0.97863 0.73549 0.00003
 C44 C 0.95663 0.73294 -0.05167
 C45 C 0.91619 0.73650 -0.05118
 C46 C 0.89686 0.73954 0.00201
 C47 C 0.91755 0.74119 0.05426
 C48 C 0.95819 0.74070 0.05271
 H49 H 1.13521 0.72685 -0.00244
 H50 H 1.02863 0.72097 0.09094
 H51 H 1.02910 0.74523 -0.09288
 H52 H 0.97031 0.72806 -0.09304
 H53 H 0.86574 0.74214 0.00262
 H54 H 0.97332 0.74476 0.09324
 C55 C 0.60409 0.23479 0.50047
 C56 C 0.58440 0.22877 0.55299
 C57 C 0.54376 0.22602 0.55269
 C58 C 0.52225 0.23239 0.50146
 C59 C 0.54305 0.24040 0.44988
 C60 C 0.58368 0.24022 0.44861
 C61 C 0.47855 0.23146 0.50189
 C62 C 0.45727 0.22643 0.44995
 C63 C 0.41671 0.22797 0.44932
 C64 C 0.39671 0.23124 0.50199
 C65 C 0.41682 0.23503 0.55460
 C66 C 0.45751 0.23641 0.55395
 H67 H 0.63533 0.23673 0.50019
 H68 H 0.52937 0.21900 0.59300
 H69 H 0.52809 0.24723 0.41016
 H70 H 0.47181 0.22137 0.40924
 H71 H 0.36548 0.23232 0.50186
 H72 H 0.47235 0.24188 0.59444
 C73 C 0.73274 -0.09997 0.00241
 C74 C 0.73874 -0.07938 0.05447
 C75 C 0.74034 -0.03862 0.05262
 C76 C 0.73312 -0.01814 0.00079
 C77 C 0.72635 -0.03985 -0.05036
 C78 C 0.72777 -0.08051 -0.05038
 C79 C 0.73315 0.02556 0.00004
 C80 C 0.74024 0.04627 -0.05183
 C81 C 0.73867 0.08698 -0.05369
 C82 C 0.73283 0.10737 -0.00162
 C83 C 0.72801 0.08776 0.05121
 C84 C 0.72655 0.04706 0.05123
 H85 H 0.73334 -0.13121 0.00240
 H86 H 0.74742 -0.02304 0.09199
 H87 H 0.71996 -0.02551 -0.09081
 H88 H 0.74721 0.03092 -0.09124
 H89 H 0.73346 0.13863 -0.00161
 H90 H 0.72027 0.03252 0.09172
 C91 C 0.23128 0.39180 0.50101
 C92 C 0.22767 0.41203 0.55344
 C93 C 0.22511 0.45257 0.55241
 C94 C 0.22954 0.47373 0.50024
 C95 C 0.23506 0.45240 0.44849
 C96 C 0.23455 0.41170 0.44824
 C97 C 0.22936 0.51755 0.49997
 C98 C 0.22490 0.53849 0.44774
 C99 C 0.22726 0.57911 0.44660
 C100 C 0.23063 0.59955 0.49901
 C101 C 0.23385 0.57984 0.55186
 C102 C 0.23457 0.53915 0.55172
 H103 H 0.23307 0.36059 0.50140
 H104 H 0.21979 0.46702 0.59307
 H105 H 0.24033 0.46690 0.40776
 H106 H 0.21971 0.52379 0.40710
 H107 H 0.23226 0.63083 0.49852
 H108 H 0.23978 0.52489 0.59252
 C109 C 0.26833 1.10014 -0.00058
 C110 C 0.27166 1.07973 0.05171
 C111 C 0.27334 1.03920 0.05043
 C112 C 0.26791 1.01821 -0.00166
 C113 C 0.26219 1.03964 -0.05323
 C114 C 0.26394 1.08047 -0.05363
 C115 C 0.26775 0.97441 -0.00194
 C116 C 0.27274 0.95340 -0.05401
 C117 C 0.27110 0.91264 -0.05506
 C118 C 0.26816 0.89250 -0.00219
 C119 C 0.26386 0.91238 0.05037
 C120 C 0.26223 0.95299 0.04981
 H121 H 0.26762 1.13138 0.00049
 H122 H 0.27882 1.02454 0.09086
 H123 H 0.25602 1.02493 -0.09359
 H124 H 0.27808 0.96834 -0.09440
 H125 H 0.26764 0.86124 -0.00180
 H126 H 0.25627 0.96740 0.09030
 C127 C 0.76800 0.60811 0.50221
 C128 C 0.77241 0.58778 0.55437
 C129 C 0.77459 0.54719 0.55293
 C130 C 0.76916 0.52621 0.50073
 C131 C 0.76290 0.54763 0.44932
 C132 C 0.76364 0.58836 0.44940
 C133 C 0.76922 0.48243 0.50012
 C134 C 0.77480 0.46166 0.44795
 C135 C 0.77273 0.42100 0.44646
 C136 C 0.76830 0.40048 0.49861
 C137 C 0.76380 0.42007 0.55141
 C138 C 0.76295 0.46077 0.55149
 H139 H 0.76648 0.63934 0.50287
 H140 H 0.78042 0.53242 0.59318
 H141 H 0.75695 0.53309 0.40873
 H142 H 0.78068 0.47666 0.40773
 H143 H 0.76687 0.36920 0.49794
 H144 H 0.75689 0.47509 0.59205
 O145 O 0.21650 0.26251 0.17903
 O146 O 0.31177 0.25299 0.24993
 O147 O 0.27096 0.21223 0.17721
 O148 O 0.25907 0.30647 0.24825
 O149 O 0.23129 0.27765 0.32340
 O150 O 0.24380 0.18275 0.25235
 O151 O 0.28329 0.22487 0.32514
 O152 O 0.18851 0.23377 0.25405
 Cu153 Cu 0.26726 0.26171 0.20623
 Cu154 Cu 0.23362 0.22695 0.29610
 C155 C 0.18635 0.24902 0.20407
 C156 C 0.31365 0.23722 0.29970
 C157 C 0.25965 0.18146 0.20259
 C158 C 0.24388 0.30816 0.29830
 O159 O 0.76268 0.81807 0.25456
 O160 O 0.76900 0.72260 0.32591
 O161 O 0.81394 0.76379 0.25649
 O162 O 0.71891 0.77765 0.32534
 O163 O 0.68996 0.75104 0.24927
 O164 O 0.78511 0.73632 0.18100
 O165 O 0.74025 0.69510 0.25042
 O166 O 0.73468 0.78998 0.17884
 Cu167 Cu 0.76908 0.77318 0.29820
 Cu168 Cu 0.73458 0.74009 0.20753
 C169 C 0.74805 0.82008 0.20404
 C170 C 0.75519 0.69268 0.30060
 C171 C 0.81563 0.74855 0.20639
 C172 C 0.68827 0.76675 0.29909
 O173 O 0.81008 0.24621 0.24798
 O174 O 0.71533 0.23783 0.32073
 O175 O 0.75381 0.19372 0.24938
 O176 O 0.77122 0.28807 0.32027
 O177 O 0.74480 0.31769 0.24546
 O178 O 0.72669 0.22298 0.17488
 O179 O 0.68782 0.26705 0.24650
 O180 O 0.78229 0.27440 0.17306
 Cu181 Cu 0.76539 0.23823 0.29179
 Cu182 Cu 0.73253 0.27337 0.20253
 C183 C 0.81232 0.26195 0.19822
 C184 C 0.68558 0.25175 0.29652
 C185 C 0.73749 0.19222 0.20000
 C186 C 0.76085 0.31892 0.29511
 O187 O 0.25577 0.68332 0.24635
 O188 O 0.26799 0.77873 0.17555
 O189 O 0.31081 0.73640 0.24472
 O190 O 0.21634 0.72397 0.17336
 O191 O 0.18751 0.75057 0.24879
 O192 O 0.28268 0.76413 0.31974
 O193 O 0.23977 0.80641 0.25053
 O194 O 0.22855 0.71174 0.32163
 Cu195 Cu 0.26584 0.72791 0.20264
 Cu196 Cu 0.23191 0.76130 0.29253
 C197 C 0.23999 0.68141 0.29617
 C198 C 0.25510 0.80872 0.20058
 C199 C 0.31287 0.75173 0.29471
 C200 C 0.18586 0.73493 0.19883
 O201 O 0.76917 0.28608 0.67510
 O202 O 0.76267 0.19040 0.74638
 O203 O 0.71905 0.22936 0.67548
 O204 O 0.81383 0.24652 0.74511
 O205 O 0.78476 0.27272 0.82060
 O206 O 0.68988 0.25501 0.75131
 O207 O 0.73434 0.21745 0.82186
 O208 O 0.74032 0.31259 0.75049
 Cu209 Cu 0.76916 0.23555 0.70292
 Cu210 Cu 0.73438 0.26740 0.79338
 C211 C 0.75533 0.31553 0.70036
 C212 C 0.74785 0.18784 0.79675
 C213 C 0.68834 0.23922 0.70151
 C214 C 0.81534 0.26157 0.79540
 O215 O 0.24390 0.80944 0.74710
 O216 O 0.23050 0.71399 0.67652
 O217 O 0.18823 0.75679 0.74626
 O218 O 0.28288 0.76816 0.67457
 O219 O 0.31133 0.74106 0.74987
 O220 O 0.21622 0.72896 0.82127
 O221 O 0.25827 0.68608 0.75166
 O222 O 0.27073 0.78074 0.82241
 Cu223 Cu 0.23324 0.76479 0.70374
 Cu224 Cu 0.26683 0.73110 0.79364
 C225 C 0.25969 0.81118 0.79692
 C226 C 0.24299 0.68388 0.70166
 C227 C 0.18612 0.74167 0.79639
 C228 C 0.31323 0.75678 0.70001
 O229 O 0.18812 0.23842 0.75025
 O230 O 0.28334 0.22867 0.67962
 O231 O 0.24079 0.18475 0.74884
 O232 O 0.22911 0.27914 0.67795
 O233 O 0.25642 0.30851 0.75316
 O234 O 0.26825 0.21363 0.82428
 O235 O 0.31133 0.25717 0.75494
 O236 O 0.21661 0.26666 0.82545
 Cu237 Cu 0.23265 0.22956 0.70678
 Cu238 Cu 0.26628 0.26427 0.79685
 C239 C 0.18625 0.25438 0.79991
 C240 C 0.31348 0.24204 0.70485
 C241 C 0.25576 0.18310 0.79906
 C242 C 0.24056 0.30988 0.70341
 O243 O 0.71454 0.76915 0.67958
 O244 O 0.80929 0.76420 0.75225
 O245 O 0.77041 0.72077 0.68030
 O246 O 0.75289 0.81453 0.75112
 O247 O 0.72609 0.78428 0.82579
 O248 O 0.74388 0.69022 0.75500
 O249 O 0.78172 0.73462 0.82693
 O250 O 0.68706 0.73908 0.75389
 Cu251 Cu 0.76454 0.77049 0.70861
 Cu252 Cu 0.73180 0.73414 0.79787
 C253 C 0.68480 0.75425 0.70382
 C254 C 0.81168 0.74823 0.80176
 C255 C 0.76000 0.68955 0.70543
 C256 C 0.73676 0.81543 0.80063
 N257 N 0.25903 0.11073 0.19869
 N258 N 0.26279 0.08286 0.15954
 C259 C 0.27058 0.10026 0.10821
 C260 C 0.27167 0.13981 0.11743
 N261 N 0.26421 0.14504 0.17406
 H262 H 0.27585 0.16279 0.08600
 N263 N 0.76180 0.61889 0.70173
 N264 N 0.76556 0.59102 0.66257
 C265 C 0.77194 0.60845 0.61085
 C266 C 0.77222 0.64808 0.61992
 N267 N 0.76569 0.65327 0.67683
 H268 H 0.77505 0.67107 0.58821
 N269 N 0.75500 0.89060 0.19817
 N270 N 0.75274 0.91833 0.15853
 C271 C 0.74365 0.90100 0.10750
 C272 C 0.74010 0.86157 0.11764
 N273 N 0.74734 0.85643 0.17433
 H274 H 0.73302 0.83856 0.08732
 N275 N 0.24127 0.38062 0.69997
 N276 N 0.23731 0.40861 0.66112
 C277 C 0.22934 0.39134 0.60970
 C278 C 0.22837 0.35176 0.61856
 N279 N 0.23606 0.34637 0.67508
 H280 H 0.22399 0.32888 0.58695
 N281 N 0.88298 0.26262 0.19601
 N282 N 0.91139 0.26595 0.15755
 C283 C 0.89482 0.27095 0.10492
 C284 C 0.85504 0.27091 0.11288
 N285 N 0.84904 0.26548 0.16989
 H286 H 0.83235 0.27334 0.08076
 N287 N 0.38388 0.75634 0.69680
 N288 N 0.41207 0.76018 0.65806
 C289 C 0.39521 0.76769 0.60642
 C290 C 0.35563 0.76849 0.61503
 N291 N 0.34986 0.76119 0.67165
 H292 H 0.33300 0.77257 0.58323
 N293 N 0.11520 0.73172 0.19592
 N294 N 0.08715 0.72870 0.15679
 C295 C 0.10421 0.72543 0.10418
 C296 C 0.14391 0.72610 0.11281
 N297 N 0.14938 0.73024 0.17019
 H298 H 0.16687 0.72536 0.08093
 N299 N 0.61769 0.23626 0.69980
 N300 N 0.58925 0.23301 0.66133
 C301 C 0.60585 0.22810 0.60879
 C302 C 0.64557 0.22816 0.61662
 N303 N 0.65164 0.23343 0.67369
 H304 H 0.66806 0.22648 0.58407
 N305 N 0.75474 0.11755 0.80257
 N306 N 0.75251 0.08973 0.84221
 C307 C 0.74348 0.10676 0.89325
 C308 C 0.73991 0.14606 0.88313
 N309 N 0.74709 0.15145 0.82642
 H310 H 0.73287 0.16884 0.91346
 N311 N 0.24090 0.61069 0.29992
 N312 N 0.23699 0.58265 0.33892
 C313 C 0.22897 0.59974 0.39024
 C314 C 0.22791 0.63926 0.38118
 N315 N 0.23560 0.64481 0.32463
 H316 H 0.22346 0.66204 0.41266
 N317 N 0.26345 0.88195 0.79989
 N318 N 0.26718 0.90994 0.83909
 C319 C 0.27046 0.89272 0.89157
 C320 C 0.26904 0.85304 0.88281
 N321 N 0.26451 0.84770 0.82550
 H322 H 0.26989 0.82999 0.91457
 N323 N 0.76258 0.38965 0.29895
 N324 N 0.76619 0.41760 0.33821
 C325 C 0.77243 0.40035 0.38994
 C326 C 0.77279 0.36075 0.38079
 N327 N 0.76644 0.35537 0.32380
 H328 H 0.77553 0.33783 0.41248
 N329 N 0.11557 0.25249 0.80278
 N330 N 0.08739 0.25602 0.84140
 C331 C 0.10434 0.26408 0.89300
 C332 C 0.14391 0.26557 0.88454
 N333 N 0.14963 0.25808 0.82802
 H334 H 0.16655 0.27030 0.91638
 N335 N 0.61760 0.76720 0.30036
 N336 N 0.58907 0.76945 0.33866
 C337 C 0.60553 0.77497 0.39130
 C338 C 0.64527 0.77634 0.38370
 N339 N 0.65149 0.77126 0.32666
 H340 H 0.66769 0.77884 0.41638
 N341 N 0.88227 0.75251 0.80413
 N342 N 0.91089 0.74884 0.84200
 C343 C 0.89459 0.73932 0.89347
 C344 C 0.85493 0.73714 0.88569
 N345 N 0.84854 0.74566 0.82968
 H346 H 0.83269 0.73093 0.91762
 N347 N 0.38432 0.23982 0.30285
 N348 N 0.41253 0.23687 0.34157
 C349 C 0.39569 0.22885 0.39323
 C350 C 0.35610 0.22679 0.38464
 N351 N 0.35030 0.23389 0.32801
 H352 H 0.33347 0.22203 0.41646
 N353 N 0.73441 0.88603 0.80277
 N354 N 0.73159 0.91443 0.84125
 C355 C 0.72673 0.89778 0.89387
 C356 C 0.72639 0.85795 0.88600
 N357 N 0.73136 0.85196 0.82884
 H358 H 0.72468 0.83540 0.91854
 N359 N 0.25107 0.37847 0.30304
 N360 N 0.24916 0.40673 0.34189
 C361 C 0.23881 0.39024 0.39285
 C362 C 0.23404 0.35081 0.38362
 N363 N 0.24197 0.34477 0.32728
 H364 H 0.22631 0.32848 0.41469
 N365 N 0.25128 0.11253 0.80288
 N366 N 0.25310 0.08428 0.84170
 C367 C 0.26052 0.10097 0.89373
 C368 C 0.26363 0.14068 0.88501
 N369 N 0.25770 0.14651 0.82806
 H370 H 0.26912 0.16340 0.91650
 N371 N 0.74500 0.62260 0.30529
 N372 N 0.74674 0.59414 0.34380
 C373 C 0.75865 0.61012 0.39443
 C374 C 0.76450 0.64942 0.38534
 N375 N 0.75566 0.65593 0.32943
 H376 H 0.77383 0.67135 0.41616
 N377 N 0.11586 0.74754 0.80154
 N378 N 0.08784 0.74596 0.84086
 C379 C 0.10445 0.73742 0.89236
 C380 C 0.14385 0.73339 0.88271
 N381 N 0.14960 0.73993 0.82584
 H382 H 0.16649 0.72711 0.91360
 N383 N 0.61601 0.26205 0.30421
 N384 N 0.58818 0.25955 0.34376
 C385 C 0.60463 0.24668 0.39318
 C386 C 0.64349 0.24103 0.38231
 N387 N 0.64932 0.25093 0.32658
 H388 H 0.66556 0.23100 0.41180
 N389 N 0.88577 0.25824 0.80081
 N390 N 0.91346 0.25922 0.84069
 C391 C 0.89629 0.26580 0.89245
 C392 C 0.85691 0.26937 0.88241
 N393 N 0.85171 0.26446 0.82504
 H394 H 0.83388 0.27383 0.91340
 N395 N 0.38299 0.74515 0.29971
 N396 N 0.41121 0.74744 0.33866
 C397 C 0.39489 0.75782 0.38949
 C398 C 0.35562 0.76221 0.38008
 N399 N 0.34949 0.75403 0.32376
 H400 H 0.33344 0.76985 0.41101
 N401 N 0.24715 0.87872 0.19560
 N402 N 0.24891 0.90697 0.15668
 C403 C 0.25975 0.89086 0.10588
 C404 C 0.26496 0.85168 0.11532
 N405 N 0.25679 0.84539 0.17159
 H406 H 0.27308 0.82961 0.08445
 N407 N 0.74514 0.38526 0.69555
 N408 N 0.74686 0.41375 0.65700
 C409 C 0.75879 0.39816 0.60641
 C410 C 0.76467 0.35906 0.61557
 N411 N 0.75582 0.35228 0.67149
 H412 H 0.77401 0.33744 0.58478
 N413 N 0.73522 0.12153 0.19797
 N414 N 0.73227 0.09301 0.15954
 C415 C 0.72717 0.10946 0.10696
 C416 C 0.72681 0.14928 0.11478
 N417 N 0.73202 0.15548 0.17189
 H418 H 0.72494 0.17176 0.08223
 N419 N 0.24981 0.61377 0.69716
 N420 N 0.24796 0.58541 0.65837
 C421 C 0.23787 0.60152 0.60726
 C422 C 0.23320 0.64083 0.61634
 N423 N 0.24092 0.64717 0.67276
 H424 H 0.22573 0.66290 0.58512
 N425 N 0.88603 0.75544 0.20097
 N426 N 0.91387 0.75414 0.16142
 C427 C 0.89688 0.74448 0.11048
 C428 C 0.85762 0.73944 0.12047
 N429 N 0.85213 0.74654 0.17719
 H430 H 0.83500 0.73221 0.08960
 N431 N 0.38361 0.25118 0.69992
 N432 N 0.41181 0.24988 0.66097
 C433 C 0.39549 0.23887 0.61015
 C434 C 0.35624 0.23308 0.61958
 N435 N 0.35011 0.24108 0.67587
 H436 H 0.33407 0.22461 0.58866
 N437 N 0.11613 0.24007 0.19895
 N438 N 0.08787 0.24195 0.16010
 C439 C 0.10421 0.25328 0.10949
 C440 C 0.14352 0.25866 0.11896
 N441 N 0.14968 0.25012 0.17506
 H442 H 0.16568 0.26742 0.08822
 N443 N 0.61522 0.74153 0.69596
 N444 N 0.58745 0.74304 0.65630
 C445 C 0.60395 0.75645 0.60691
 C446 C 0.64278 0.76345 0.61793
 N447 N 0.64856 0.75379 0.67369
 H448 H 0.66488 0.77423 0.58850
   
