data_POSCAR
  _audit_creation_date              2014-09-24
  _audit_creation_method            'ToBaCCo'
  _symmetry_space_group_name_H-M    'P1'
  _symmetry_Int_Tables_number       1
  _symmetry_cell_setting            triclinic
  loop_
  _symmetry_equiv_pos_as_xyz
 x,y,z
_cell_length_a 26.7594
_cell_length_b 26.6171
_cell_length_c 28.1821
_cell_angle_alpha 90.766400
_cell_angle_beta 90.815300
_cell_angle_gamma 84.971900
loop_
  _atom_site_label
  _atom_site_type_symbol
  _atom_site_fract_x
  _atom_site_fract_y
  _atom_site_fract_z
C1 C 0.29736 0.23391 0.21623
 C2 C 0.30393 0.20059 0.25447
 C3 C 0.26986 0.20412 0.29195
 C4 C 0.22982 0.24180 0.29163
 C5 C 0.22260 0.27499 0.25333
 C6 C 0.25686 0.27109 0.21601
 H7 H 0.33495 0.17153 0.25466
 H8 H 0.20384 0.24478 0.32091
 H9 H 0.25161 0.29658 0.18631
 C10 C 0.69896 -0.21991 0.20932
 C11 C 0.69476 -0.18569 0.24797
 C12 C 0.72709 -0.19194 0.28745
 C13 C 0.76349 -0.23301 0.28899
 C14 C 0.76705 -0.26934 0.25217
 C15 C 0.73509 -0.26172 0.21226
 H16 H 0.66743 -0.15316 0.24702
 H17 H 0.78741 -0.23776 0.32027
 H18 H 0.73813 -0.28895 0.18332
 C19 C 0.71312 0.26393 0.79362
 C20 C 0.74691 0.30122 0.79334
 C21 C 0.77590 0.30860 0.75294
 C22 C 0.77206 0.27510 0.71395
 C23 C 0.73964 0.23654 0.71493
 C24 C 0.70993 0.23130 0.75465
 H25 H 0.75098 0.32374 0.82524
 H26 H 0.79317 0.27947 0.68197
 H27 H 0.68416 0.20208 0.75512
 C28 C 0.28374 -0.26120 0.78001
 C29 C 0.28512 -0.22608 0.74365
 C30 C 0.25131 -0.22667 0.70535
 C31 C 0.21684 -0.26337 0.70277
 C32 C 0.21525 -0.29916 0.73897
 C33 C 0.24815 -0.29675 0.77826
 H34 H 0.31222 -0.19811 0.74534
 H35 H 0.19033 -0.26307 0.67329
 H36 H 0.24769 -0.32399 0.80650
 C37 C 0.69946 -0.22082 0.79139
 C38 C 0.69612 -0.18171 0.75838
 C39 C 0.73062 -0.18214 0.72137
 C40 C 0.76977 -0.22061 0.71863
 C41 C 0.77202 -0.26114 0.75016
 C42 C 0.73655 -0.26106 0.78645
 H43 H 0.66611 -0.15171 0.76081
 H44 H 0.79632 -0.22080 0.68989
 H45 H 0.73837 -0.29184 0.81142
 C46 C 0.29498 0.23841 0.78572
 C47 C 0.25470 0.27573 0.78572
 C48 C 0.21779 0.27607 0.74995
 C49 C 0.22122 0.23894 0.71417
 C50 C 0.26125 0.20115 0.71411
 C51 C 0.29874 0.20185 0.74944
 H52 H 0.25157 0.30385 0.81395
 H53 H 0.19211 0.23880 0.68703
 H54 H 0.33008 0.17314 0.74949
 C55 C 0.28673 -0.26350 0.21341
 C56 C 0.29078 -0.23057 0.25275
 C57 C 0.25525 -0.22777 0.28887
 C58 C 0.21560 -0.25854 0.28689
 C59 C 0.21043 -0.29111 0.24817
 C60 C 0.24505 -0.29265 0.21116
 H61 H 0.32217 -0.20762 0.25623
 H62 H 0.18853 -0.25681 0.31525
 H63 H 0.23853 -0.31594 0.18025
 C64 C 0.71070 0.26461 0.21931
 C65 C 0.74850 0.29775 0.21773
 C66 C 0.78530 0.29716 0.25371
 C67 C 0.78436 0.26308 0.29113
 C68 C 0.74698 0.22943 0.29233
 C69 C 0.71010 0.23048 0.25660
 H70 H 0.74933 0.32387 0.18863
 H71 H 0.81320 0.26198 0.31860
 H72 H 0.68140 0.20417 0.25738
 O73 O 0.22918 0.04346 0.45240
 O74 O 0.21909 -0.05327 0.54259
 O75 O 0.22742 0.04280 0.54474
 O76 O 0.22425 -0.05433 0.45095
 O77 O 0.30683 -0.06712 0.45503
 O78 O 0.31019 0.03023 0.54848
 O79 O 0.30164 -0.06568 0.54714
 O80 O 0.31173 0.03092 0.45573
 Cu81 Cu 0.21673 -0.00392 0.49697
 Cu82 Cu 0.31596 -0.01914 0.50160
 C83 C 0.27200 0.05428 0.43904
 C84 C 0.25850 -0.07519 0.56109
 C85 C 0.26924 0.05234 0.56302
 C86 C 0.26503 -0.07818 0.43790
 O87 O 0.77270 0.06470 0.54987
 O88 O 0.76599 -0.03644 0.45986
 O89 O 0.77587 0.05976 0.45754
 O90 O 0.76554 -0.03179 0.55224
 O91 O 0.68318 -0.01691 0.55027
 O92 O 0.69338 0.07409 0.45410
 O93 O 0.68372 -0.02176 0.45684
 O94 O 0.69024 0.07979 0.54607
 Cu95 Cu 0.77827 0.01260 0.50517
 Cu96 Cu 0.67931 0.03007 0.50164
 C97 C 0.73253 0.08971 0.56297
 C98 C 0.72366 -0.04646 0.44286
 C99 C 0.73654 0.08193 0.43911
 C100 C 0.72271 -0.04006 0.56758
 O101 O 0.46519 0.19542 0.04768
 O102 O 0.56147 0.20652 -0.04233
 O103 O 0.55976 0.20850 0.04976
 O104 O 0.46485 0.19822 -0.04535
 O105 O 0.45025 0.28114 -0.04552
 O106 O 0.54124 0.29109 0.05191
 O107 O 0.54657 0.28940 -0.04036
 O108 O 0.44667 0.27760 0.04653
 Cu109 Cu 0.51436 0.19382 0.00209
 Cu110 Cu 0.49457 0.29310 0.00307
 C111 C 0.43913 0.23442 0.06244
 C112 C 0.57134 0.24977 -0.05587
 C113 C 0.56566 0.25167 0.06764
 C114 C 0.44122 0.23805 -0.06149
 O115 O 0.52408 0.80882 0.04721
 O116 O 0.43262 0.79235 -0.04939
 O117 O 0.42926 0.79068 0.04283
 O118 O 0.52706 0.80679 -0.04518
 O119 O 0.54607 0.72438 -0.04685
 O120 O 0.45283 0.70950 0.04509
 O121 O 0.45171 0.70999 -0.04812
 O122 O 0.54737 0.72708 0.04459
 Cu123 Cu 0.47604 0.80791 -0.00085
 Cu124 Cu 0.50120 0.70943 -0.00107
 C125 C 0.55228 0.77096 0.06127
 C126 C 0.42717 0.74849 -0.06575
 C127 C 0.42424 0.74711 0.05912
 C128 C 0.55319 0.76819 -0.06107
 O129 O 0.04700 0.45389 0.21311
 O130 O -0.05744 0.55397 0.21163
 O131 O 0.04032 0.55253 0.20974
 O132 O -0.05000 0.45650 0.20995
 O133 O -0.05000 0.45854 0.28827
 O134 O 0.04218 0.55370 0.28807
 O135 O -0.05526 0.55676 0.29008
 O136 O 0.04694 0.45517 0.29159
 Cu137 Cu -0.00484 0.50427 0.20323
 Cu138 Cu -0.00386 0.50639 0.29738
 C139 C 0.06385 0.43686 0.25267
 C140 C -0.07427 0.57198 0.25081
 C141 C 0.05632 0.56990 0.24866
 C142 C -0.06500 0.44063 0.24904
 O143 O 0.04579 0.55215 0.78054
 O144 O -0.05593 0.46852 0.79033
 O145 O 0.04106 0.45584 0.78588
 O146 O -0.05298 0.56538 0.78112
 O147 O -0.05833 0.55677 0.70313
 O148 O 0.03942 0.45085 0.70761
 O149 O -0.05759 0.45994 0.71227
 O150 O 0.03989 0.54845 0.70267
 Cu151 Cu -0.00518 0.51156 0.79233
 Cu152 Cu -0.00944 0.50355 0.69857
 C153 C 0.06112 0.56385 0.74003
 C154 C -0.07387 0.44972 0.75285
 C155 C 0.05614 0.43457 0.74743
 C156 C -0.07263 0.57868 0.74143
 C157 C 0.33871 0.18834 0.14510
 C158 C 0.33287 0.23064 0.17625
 C159 C 0.35996 0.27221 0.16844
 C160 C 0.39320 0.27235 0.13110
 C161 C 0.40118 0.23073 0.10016
 C162 C 0.37330 0.18801 0.10681
 C163 C 0.30962 0.14700 0.15035
 C164 C 0.31485 0.10579 0.11936
 C165 C 0.34853 0.10511 0.08228
 C166 C 0.37722 0.14566 0.07577
 H167 H 0.28207 0.14631 0.17797
 H168 H 0.29231 0.07440 0.12388
 H169 H 0.35210 0.07315 0.05803
 H170 H 0.40155 0.14300 0.04571
 H171 H 0.35542 0.30500 0.19171
 H172 H 0.41350 0.30544 0.12689
 C173 C 0.68055 0.77395 0.12219
 C174 C 0.66535 0.78520 0.16985
 C175 C 0.61399 0.79807 0.17828
 C176 C 0.57811 0.79462 0.14235
 C177 C 0.59207 0.77797 0.09684
 C178 C 0.64355 0.76875 0.08594
 C179 C 0.73157 0.77104 0.10901
 C180 C 0.74586 0.75940 0.06249
 C181 C 0.70979 0.75145 0.02784
 C182 C 0.65910 0.75633 0.03922
 H183 H 0.76079 0.77907 0.13418
 H184 H 0.78511 0.75702 0.05318
 H185 H 0.72105 0.74259 -0.00827
 H186 H 0.63233 0.75141 0.01084
 H187 H 0.60071 0.80734 0.21372
 H188 H 0.53881 0.80276 0.15074
 C189 C 0.69238 0.22727 -0.12735
 C190 C 0.67979 0.26005 -0.16561
 C191 C 0.63432 0.29022 -0.16552
 C192 C 0.60046 0.28727 -0.12889
 C193 C 0.61104 0.25402 -0.09121
 C194 C 0.65804 0.22462 -0.08942
 C195 C 0.73865 0.19748 -0.12581
 C196 C 0.75133 0.16642 -0.08726
 C197 C 0.71851 0.16479 -0.04955
 C198 C 0.67242 0.19366 -0.05033
 H199 H 0.76547 0.19826 -0.15412
 H200 H 0.78703 0.14391 -0.08640
 H201 H 0.72894 0.14121 -0.01937
 H202 H 0.64893 0.19207 -0.01964
 H203 H 0.62464 0.31572 -0.19454
 H204 H 0.56497 0.31020 -0.13069
 C205 C 0.36875 0.71069 -0.18471
 C206 C 0.32114 0.73807 -0.18097
 C207 C 0.30943 0.76699 -0.14025
 C208 C 0.34424 0.76939 -0.10329
 C209 C 0.39172 0.74271 -0.10581
 C210 C 0.40461 0.71326 -0.14704
 C211 C 0.38171 0.68144 -0.22560
 C212 C 0.42925 0.65597 -0.22971
 C213 C 0.46473 0.65937 -0.19352
 C214 C 0.45280 0.68778 -0.15266
 H215 H 0.35539 0.67823 -0.25477
 H216 H 0.43875 0.63383 -0.26132
 H217 H 0.50181 0.64005 -0.19720
 H218 H 0.48202 0.68990 -0.12615
 H219 H 0.27318 0.78829 -0.13729
 H220 H 0.33398 0.79232 -0.07229
 C221 C 0.12923 0.30362 0.25759
 C222 C 0.17989 0.31459 0.25249
 C223 C 0.19060 0.36483 0.24676
 C224 C 0.15251 0.40396 0.24669
 C225 C 0.10268 0.39420 0.25342
 C226 C 0.09059 0.34396 0.25957
 C227 C 0.11577 0.25351 0.25947
 C228 C 0.06597 0.24361 0.26568
 C229 C 0.02864 0.28316 0.26988
 C230 C 0.04068 0.33289 0.26683
 H231 H 0.14324 0.22153 0.25542
 H232 H 0.05629 0.20503 0.26723
 H233 H -0.00992 0.27528 0.27494
 H234 H 0.01060 0.36249 0.27000
 H235 H 0.22898 0.37388 0.24260
 H236 H 0.16204 0.44229 0.24188
 C237 C 0.17457 0.63134 0.69762
 C238 C 0.17992 0.66447 0.73718
 C239 C 0.14920 0.66064 0.77661
 C240 C 0.11135 0.62818 0.77619
 C241 C 0.10359 0.59641 0.73716
 C242 C 0.13698 0.59618 0.69807
 C243 C 0.20856 0.62933 0.65944
 C244 C 0.20514 0.59483 0.62226
 C245 C 0.16920 0.56032 0.62295
 C246 C 0.13606 0.56025 0.66060
 H247 H 0.23924 0.65309 0.65848
 H248 H 0.23149 0.59392 0.59341
 H249 H 0.16775 0.53256 0.59464
 H250 H 0.11155 0.53026 0.66027
 H251 H 0.15276 0.68501 0.80739
 H252 H 0.08729 0.62859 0.80681
 C253 C -0.20625 0.63879 0.23958
 C254 C -0.19645 0.68867 0.25431
 C255 C -0.14764 0.69689 0.27020
 C256 C -0.10879 0.65865 0.26870
 C257 C -0.11693 0.61082 0.25097
 C258 C -0.16583 0.60015 0.23668
 C259 C -0.25564 0.62517 0.23135
 C260 C -0.26443 0.57642 0.21679
 C261 C -0.22461 0.53970 0.21141
 C262 C -0.17580 0.55109 0.22173
 H263 H -0.28813 0.65139 0.23749
 H264 H -0.30246 0.56691 0.21027
 H265 H -0.23169 0.50183 0.20036
 H266 H -0.14621 0.52087 0.21878
 H267 H -0.13849 0.73401 0.28175
 H268 H -0.07160 0.66683 0.28048
 C269 C -0.19962 0.39536 0.77419
 C270 C -0.18990 0.34666 0.75232
 C271 C -0.14307 0.33520 0.73061
 C272 C -0.10642 0.36902 0.73166
 C273 C -0.11390 0.41511 0.75580
 C274 C -0.16038 0.42841 0.77825
 C275 C -0.24833 0.41395 0.78862
 C276 C -0.25673 0.46052 0.81164
 C277 C -0.21737 0.49045 0.81947
 C278 C -0.16981 0.47509 0.80239
 H279 H -0.28078 0.39361 0.78107
 H280 H -0.29414 0.47371 0.82296
 H281 H -0.22414 0.52668 0.83720
 H282 H -0.14125 0.50103 0.80713
 H283 H -0.13336 0.29875 0.71412
 H284 H -0.07111 0.35848 0.71425
 C285 C 0.30973 0.16710 0.36759
 C286 C 0.27387 0.16642 0.33019
 C287 C 0.23917 0.13012 0.32968
 C288 C 0.23970 0.09430 0.36515
 C289 C 0.27475 0.09366 0.40266
 C290 C 0.30984 0.13090 0.40460
 C291 C 0.34451 0.20399 0.36970
 C292 C 0.37833 0.20571 0.40762
 C293 C 0.37769 0.17135 0.44434
 C294 C 0.34367 0.13452 0.44321
 H295 H 0.34555 0.23202 0.34236
 H296 H 0.40474 0.23428 0.40885
 H297 H 0.40346 0.17351 0.47412
 H298 H 0.34377 0.10994 0.47336
 H299 H 0.21136 0.12950 0.30138
 H300 H 0.21243 0.06652 0.36312
 C301 C 0.71192 0.21506 0.63125
 C302 C 0.73711 0.20120 0.67428
 C303 C 0.76113 0.15265 0.67898
 C304 C 0.76029 0.11761 0.64196
 C305 C 0.73487 0.12988 0.59933
 C306 C 0.71101 0.17920 0.59329
 C307 C 0.68740 0.26374 0.62522
 C308 C 0.66351 0.27718 0.58236
 C309 C 0.66366 0.24260 0.54486
 C310 C 0.68718 0.19409 0.55006
 H311 H 0.68652 0.29176 0.65344
 H312 H 0.64502 0.31471 0.57814
 H313 H 0.64551 0.25344 0.51151
 H314 H 0.68698 0.16879 0.51978
 H315 H 0.78066 0.14181 0.71172
 H316 H 0.77869 0.08011 0.64704
 C317 C 0.21786 -0.14251 0.67211
 C318 C 0.25060 -0.18714 0.66907
 C319 C 0.28484 -0.19356 0.63205
 C320 C 0.28677 -0.15670 0.59771
 C321 C 0.25442 -0.11232 0.59923
 C322 C 0.21987 -0.10449 0.63717
 C323 C 0.18386 -0.13448 0.70990
 C324 C 0.15296 -0.08973 0.71367
 C325 C 0.15550 -0.05214 0.68025
 C326 C 0.18855 -0.05915 0.64246
 H327 H 0.18115 -0.16247 0.73703
 H328 H 0.12726 -0.08399 0.74296
 H329 H 0.13198 -0.01710 0.68380
 H330 H 0.18991 -0.02799 0.61858
 H331 H 0.31036 -0.22741 0.62980
 H332 H 0.31358 -0.16317 0.56935
 C333 C 0.68244 -0.15216 0.35947
 C334 C 0.72318 -0.15546 0.32768
 C335 C 0.76258 -0.12505 0.33529
 C336 C 0.76185 -0.09080 0.37302
 C337 C 0.72175 -0.08571 0.40482
 C338 C 0.68169 -0.11732 0.39858
 C339 C 0.64310 -0.18394 0.35395
 C340 C 0.60385 -0.18167 0.38603
 C341 C 0.60329 -0.14837 0.42445
 C342 C 0.64176 -0.11676 0.43095
 H343 H 0.64254 -0.21120 0.32518
 H344 H 0.57400 -0.20632 0.38137
 H345 H 0.57306 -0.14731 0.44967
 H346 H 0.63986 -0.09295 0.46206
 H347 H 0.79419 -0.12764 0.31149
 H348 H 0.79287 -0.06745 0.37692
 C349 C 0.66277 0.81333 -0.13086
 C350 C 0.66293 0.77903 -0.16980
 C351 C 0.62870 0.74227 -0.17136
 C352 C 0.59380 0.73957 -0.13567
 C353 C 0.59182 0.77360 -0.09722
 C354 C 0.62711 0.81047 -0.09402
 C355 C 0.69840 0.84932 -0.12700
 C356 C 0.69911 0.88165 -0.08772
 C357 C 0.66487 0.87845 -0.05145
 C358 C 0.62933 0.84319 -0.05427
 H359 H 0.72640 0.85239 -0.15388
 H360 H 0.72676 0.90894 -0.08516
 H361 H 0.66613 0.90314 -0.02070
 H362 H 0.60465 0.84136 -0.02450
 H363 H 0.62892 0.71549 -0.20069
 H364 H 0.56773 0.71074 -0.13839
 C365 C 0.32868 0.20198 -0.13668
 C366 C 0.33167 0.23586 -0.17465
 C367 C 0.36947 0.26888 -0.17454
 C368 C 0.40462 0.26852 -0.13767
 C369 C 0.40317 0.23502 -0.09982
 C370 C 0.36460 0.20158 -0.09881
 C371 C 0.28983 0.16942 -0.13495
 C372 C 0.28641 0.13713 -0.09684
 C373 C 0.32103 0.13713 -0.05956
 C374 C 0.35953 0.16917 -0.06026
 H375 H 0.26145 0.16909 -0.16263
 H376 H 0.25641 0.11241 -0.09597
 H377 H 0.31780 0.11249 -0.02971
 H378 H 0.38455 0.16875 -0.03003
 H379 H 0.37174 0.29518 -0.20329
 H380 H 0.43350 0.29458 -0.13881
 C381 C 0.33863 0.69079 0.14988
 C382 C 0.32199 0.73545 0.17596
 C383 C 0.33957 0.78132 0.16221
 C384 C 0.37135 0.78391 0.12403
 C385 C 0.38628 0.74119 0.09648
 C386 C 0.36767 0.69435 0.10798
 C387 C 0.32989 0.64217 0.16585
 C388 C 0.34227 0.59940 0.13801
 C389 C 0.36418 0.60391 0.09408
 C390 C 0.37693 0.65073 0.07910
 H391 H 0.31427 0.63648 0.20032
 H392 H 0.33430 0.56264 0.15037
 H393 H 0.37219 0.57079 0.07182
 H394 H 0.39301 0.65204 0.04432
 H395 H 0.32744 0.81647 0.18006
 H396 H 0.38449 0.82020 0.11613
 C397 C 0.62150 0.28171 0.18912
 C398 C 0.67230 0.26436 0.18129
 C399 C 0.68667 0.24358 0.13716
 C400 C 0.65141 0.23924 0.10089
 C401 C 0.60100 0.25616 0.10762
 C402 C 0.58543 0.27734 0.15203
 C403 C 0.60578 0.30335 0.23305
 C404 C 0.55543 0.31920 0.24058
 C405 C 0.51993 0.31384 0.20471
 C406 C 0.53460 0.29312 0.16084
 H407 H 0.63217 0.30824 0.26184
 H408 H 0.54386 0.33554 0.27449
 H409 H 0.48082 0.32577 0.21089
 H410 H 0.50573 0.28918 0.13423
 H411 H 0.72541 0.22990 0.13104
 H412 H 0.66365 0.22293 0.06713
 C413 C -0.20348 0.64820 0.73543
 C414 C -0.19117 0.69833 0.74485
 C415 C -0.14055 0.70801 0.74907
 C416 C -0.10259 0.66873 0.74805
 C417 C -0.11388 0.61902 0.74006
 C418 C -0.16431 0.60851 0.73194
 C419 C -0.25355 0.63698 0.72672
 C420 C -0.26466 0.58792 0.71577
 C421 C -0.22636 0.54929 0.71239
 C422 C -0.17665 0.55934 0.72018
 H423 H -0.28446 0.66599 0.72729
 H424 H -0.30317 0.57996 0.70931
 H425 H -0.23516 0.51131 0.70359
 H426 H -0.14807 0.52829 0.71662
 H427 H -0.13042 0.74606 0.75564
 H428 H -0.06403 0.67716 0.75359
 C429 C -0.13436 0.32355 0.21933
 C430 C -0.17446 0.33153 0.25156
 C431 C -0.17658 0.37300 0.28263
 C432 C -0.14037 0.40737 0.28144
 C433 C -0.10091 0.40139 0.24911
 C434 C -0.09703 0.35858 0.21809
 C435 C -0.13004 0.28072 0.18904
 C436 C -0.08973 0.27233 0.15836
 C437 C -0.05289 0.30603 0.15748
 C438 C -0.05623 0.34861 0.18700
 H439 H -0.15736 0.25306 0.18920
 H440 H -0.08678 0.23923 0.13550
 H441 H -0.02126 0.29891 0.13407
 H442 H -0.02573 0.37249 0.18576
 H443 H -0.20698 0.37915 0.30762
 H444 H -0.14379 0.43959 0.30546
 C445 C 0.13476 0.31302 0.78276
 C446 C 0.17469 0.31465 0.75051
 C447 C 0.17347 0.35326 0.71727
 C448 C 0.13421 0.39110 0.71646
 C449 C 0.09481 0.39138 0.74874
 C450 C 0.09407 0.35136 0.78154
 C451 C 0.13388 0.27338 0.81546
 C452 C 0.09359 0.27122 0.84595
 C453 C 0.05329 0.30792 0.84406
 C454 C 0.05317 0.34746 0.81207
 H455 H 0.16394 0.24348 0.81741
 H456 H 0.09334 0.24053 0.87075
 H457 H 0.02171 0.30553 0.86726
 H458 H 0.02025 0.37401 0.81099
 H459 H 0.20363 0.35447 0.69217
 H460 H 0.13518 0.42112 0.69098
 C461 C 0.12682 0.68397 0.21635
 C462 C 0.16902 0.67562 0.24702
 C463 C 0.17181 0.63524 0.27847
 C464 C 0.13437 0.60217 0.27901
 C465 C 0.09282 0.60852 0.24820
 C466 C 0.08800 0.65053 0.21729
 C467 C 0.12178 0.72562 0.18564
 C468 C 0.07928 0.73447 0.15677
 C469 C 0.04085 0.70257 0.15839
 C470 C 0.04481 0.66120 0.18848
 H471 H 0.15027 0.75196 0.18405
 H472 H 0.07584 0.76663 0.13348
 H473 H 0.00755 0.71018 0.13649
 H474 H 0.01321 0.63863 0.18952
 H475 H 0.20373 0.62886 0.30240
 H476 H 0.13847 0.57059 0.30304
 C477 C 0.68586 -0.14648 0.64783
 C478 C 0.72399 -0.14463 0.68314
 C479 C 0.75900 -0.10894 0.68012
 C480 C 0.75700 -0.07519 0.64280
 C481 C 0.71999 -0.07598 0.60707
 C482 C 0.68373 -0.11191 0.60939
 C483 C 0.65086 -0.18323 0.64904
 C484 C 0.61440 -0.18576 0.61353
 C485 C 0.61240 -0.15235 0.57594
 C486 C 0.64674 -0.11602 0.57361
 H487 H 0.65156 -0.21065 0.67707
 H488 H 0.58785 -0.21412 0.61495
 H489 H 0.58434 -0.15486 0.54815
 H490 H 0.64402 -0.09198 0.54318
 H491 H 0.78857 -0.10761 0.70667
 H492 H 0.78500 -0.04818 0.64174
 C493 C 0.28981 -0.20287 0.36897
 C494 C 0.25910 -0.19165 0.32855
 C495 C 0.23064 -0.14517 0.32564
 C496 C 0.23282 -0.10928 0.36172
 C497 C 0.26356 -0.11880 0.40182
 C498 C 0.29167 -0.16641 0.40632
 C499 C 0.31800 -0.24997 0.37337
 C500 C 0.34680 -0.26131 0.41406
 C501 C 0.34766 -0.22632 0.45113
 C502 C 0.32027 -0.17943 0.44760
 H503 H 0.31769 -0.27849 0.34565
 H504 H 0.36811 -0.29764 0.41707
 H505 H 0.36944 -0.23566 0.48296
 H506 H 0.32117 -0.15423 0.47787
 H507 H 0.20680 -0.13649 0.29490
 H508 H 0.21084 -0.07335 0.35794
 C509 C 0.77736 0.14466 0.32604
 C510 C 0.74746 0.19110 0.32959
 C511 C 0.71454 0.19997 0.36743
 C512 C 0.71135 0.16387 0.40221
 C513 C 0.74090 0.11776 0.40012
 C514 C 0.77363 0.10727 0.36124
 C515 C 0.80995 0.13413 0.28750
 C516 C 0.83769 0.08752 0.28329
 C517 C 0.83310 0.05043 0.31688
 C518 C 0.80126 0.05989 0.35533
 H519 H 0.81398 0.16161 0.26016
 H520 H 0.86241 0.07990 0.25349
 H521 H 0.85405 0.01397 0.31296
 H522 H 0.79797 0.02928 0.37951
 H523 H 0.69099 0.23514 0.36991
 H524 H 0.68578 0.17224 0.43128
 C525 C 0.26746 0.10885 0.68796
 C526 C 0.26368 0.16102 0.67699
 C527 C 0.26221 0.17570 0.62932
 C528 C 0.26466 0.13994 0.59276
 C529 C 0.26988 0.08849 0.60279
 C530 C 0.27228 0.07239 0.65051
 C531 C 0.26498 0.09191 0.73513
 C532 C 0.27001 0.04055 0.74522
 C533 C 0.27723 0.00508 0.70872
 C534 C 0.27826 0.02069 0.66177
 H535 H 0.25829 0.11791 0.76454
 H536 H 0.26824 0.02823 0.78156
 H537 H 0.28134 -0.03475 0.71674
 H538 H 0.28356 -0.00803 0.63444
 H539 H 0.25908 0.21532 0.62034
 H540 H 0.26257 0.15249 0.55630
   
