data_POSCAR
  _audit_creation_date              2014-09-24
  _audit_creation_method            'ToBaCCo'
  _symmetry_space_group_name_H-M    'P1'
  _symmetry_Int_Tables_number       1
  _symmetry_cell_setting            triclinic
  loop_
  _symmetry_equiv_pos_as_xyz
 x,y,z
_cell_length_a 37.8812
_cell_length_b 44.0437
_cell_length_c 38.2001
_cell_angle_alpha 90.047500
_cell_angle_beta 89.820000
_cell_angle_gamma 89.726700
loop_
  _atom_site_label
  _atom_site_type_symbol
  _atom_site_fract_x
  _atom_site_fract_y
  _atom_site_fract_z
C1 C 1.25073 0.24850 0.24890
 C2 C 0.74984 -0.25121 0.24748
 C3 C 0.75075 0.25051 -0.25272
 C4 C 1.25019 -0.24933 -0.25095
 C5 C 0.24950 0.24979 0.75111
 C6 C 0.75023 0.74978 0.75227
 C7 C 0.74974 0.25152 0.25253
 C8 C 0.25035 0.75168 0.25070
 N9 N 1.06130 0.03150 0.03860
 N10 N 1.08466 0.05299 0.04473
 N11 N 1.03638 -0.03231 0.06242
 N12 N 1.04264 -0.05360 0.08595
 N13 N 1.06103 -0.03240 0.03817
 N14 N 1.08474 -0.05375 0.04455
 N15 N 1.03667 0.03153 0.06288
 N16 N 1.04257 0.05305 0.08617
 C17 C 1.07245 0.06634 0.07435
 C18 C 1.07271 -0.06694 0.07427
 N19 N 0.93582 -0.03128 0.03804
 N20 N 0.91252 -0.05296 0.04361
 N21 N 0.96065 0.03216 0.06288
 N22 N 0.95458 0.05354 0.08639
 N23 N 0.93621 0.03254 0.03858
 N24 N 0.91282 0.05419 0.04488
 N25 N 0.96030 -0.03167 0.06230
 N26 N 0.95434 -0.05360 0.08506
 Mn27 Mn 0.99849 -0.00008 0.06298
 C28 C 0.92458 -0.06676 0.07289
 C29 C 0.92482 0.06720 0.07464
 N30 N 1.06111 -0.03198 -0.03738
 N31 N 1.08441 -0.05371 -0.04364
 N32 N 1.03702 0.03219 -0.06118
 N33 N 1.04337 0.05366 -0.08441
 N34 N 1.06152 0.03187 -0.03692
 N35 N 1.08523 0.05312 -0.04301
 N36 N 1.03662 -0.03162 -0.06164
 N37 N 1.04258 -0.05309 -0.08507
 Mn38 Mn 1.06163 -0.00026 0.00061
 C39 C 1.07231 -0.06678 -0.07332
 C40 C 1.07336 0.06663 -0.07257
 N41 N 0.93634 0.03302 -0.03688
 N42 N 0.91288 0.05465 -0.04294
 N43 N 0.96054 -0.03095 -0.06166
 N44 N 0.95448 -0.05247 -0.08494
 N45 N 0.93596 -0.03083 -0.03734
 N46 N 0.91251 -0.05226 -0.04338
 N47 N 0.96093 0.03292 -0.06119
 N48 N 0.95489 0.05448 -0.08445
 Mn49 Mn 0.93571 0.00087 0.00060
 Mn50 Mn 0.99879 0.00064 -0.06178
 Cl51 Cl 0.99866 0.00030 0.00060
 C52 C 0.92499 0.06797 -0.07254
 C53 C 0.92456 -0.06565 -0.07301
 N54 N 1.06447 0.53211 0.53667
 N55 N 1.08810 0.55336 0.54293
 N56 N 1.03965 0.46834 0.56059
 N57 N 1.04576 0.44685 0.58386
 N58 N 1.06421 0.46826 0.53624
 N59 N 1.08774 0.44670 0.54232
 N60 N 1.03995 0.53214 0.56106
 N61 N 1.04620 0.55340 0.58456
 C62 C 1.07615 0.56656 0.57274
 C63 C 1.07566 0.43341 0.57196
 N64 N 0.93903 0.46914 0.53688
 N65 N 0.91549 0.44774 0.54290
 N66 N 0.96388 0.53269 0.56152
 N67 N 0.95767 0.55389 0.58523
 N68 N 0.93932 0.53299 0.53734
 N69 N 0.91571 0.55440 0.54393
 N70 N 0.96360 0.46883 0.56105
 N71 N 0.95746 0.44722 0.58418
 Mn72 Mn 1.00178 0.50050 0.56140
 C73 C 0.92751 0.43414 0.57235
 C74 C 0.92771 0.56737 0.57371
 N75 N 1.06403 0.46861 0.46071
 N76 N 1.08720 0.44676 0.45451
 N77 N 1.03980 0.53278 0.43694
 N78 N 1.04620 0.55408 0.41349
 N79 N 1.06440 0.53250 0.46109
 N80 N 1.08823 0.55360 0.45470
 N81 N 1.03944 0.46892 0.43656
 N82 N 1.04519 0.44730 0.41325
 Mn83 Mn 1.06466 0.50037 0.49867
 C84 C 1.07493 0.43357 0.42496
 C85 C 1.07633 0.56701 0.42508
 N86 N 0.93920 0.53339 0.46192
 N87 N 0.91566 0.55497 0.45604
 N88 N 0.96334 0.46951 0.43699
 N89 N 0.95707 0.44807 0.41368
 N90 N 0.93893 0.46958 0.46148
 N91 N 0.91539 0.44821 0.45553
 N92 N 0.96365 0.53335 0.43746
 N93 N 0.95741 0.55490 0.41427
 Mn94 Mn 0.93876 0.50128 0.49940
 Mn95 Mn 1.00155 0.50114 0.43662
 Cl96 Cl 1.00170 0.50084 0.49902
 C97 C 0.92757 0.56832 0.42639
 C98 C 0.92722 0.43488 0.42578
 N99 N 0.56366 0.03137 0.53735
 N100 N 0.58712 0.05284 0.54323
 N101 N 0.53894 -0.03220 0.56206
 N102 N 0.54504 -0.05349 0.58561
 N103 N 0.56354 -0.03249 0.53776
 N104 N 0.58707 -0.05397 0.54411
 N105 N 0.53908 0.03165 0.56166
 N106 N 0.54513 0.05332 0.58476
 C107 C 0.57505 0.06645 0.57274
 C108 C 0.57499 -0.06700 0.57388
 N109 N 0.43846 -0.03183 0.53769
 N110 N 0.41506 -0.05331 0.54375
 N111 N 0.46299 0.03199 0.56165
 N112 N 0.45663 0.05341 0.58504
 N113 N 0.43850 0.03197 0.53738
 N114 N 0.41480 0.05339 0.54361
 N115 N 0.46289 -0.03182 0.56201
 N116 N 0.45679 -0.05330 0.58529
 Mn117 Mn 0.50097 -0.00009 0.56221
 C118 C 0.42702 -0.06660 0.57338
 C119 C 0.42666 0.06669 0.57325
 N120 N 0.56369 -0.03293 0.46231
 N121 N 0.58704 -0.05471 0.45648
 N122 N 0.53937 0.03091 0.43760
 N123 N 0.54542 0.05247 0.41439
 N124 N 0.56380 0.03090 0.46192
 N125 N 0.58714 0.05245 0.45594
 N126 N 0.53924 -0.03294 0.43800
 N127 N 0.54528 -0.05472 0.41497
 Mn128 Mn 0.56405 -0.00079 0.49982
 C129 C 0.57503 -0.06820 0.42701
 C130 C 0.57517 0.06580 0.42635
 N131 N 0.43872 0.03158 0.46196
 N132 N 0.41541 0.05331 0.45594
 N133 N 0.46311 -0.03253 0.43792
 N134 N 0.45670 -0.05384 0.41448
 N135 N 0.43853 -0.03226 0.46224
 N136 N 0.41473 -0.05338 0.45602
 N137 N 0.46328 0.03134 0.43761
 N138 N 0.45734 0.05289 0.41435
 Mn139 Mn 0.43819 -0.00013 0.49982
 Mn140 Mn 0.50126 -0.00081 0.43740
 Cl141 Cl 0.50112 -0.00046 0.49981
 C142 C 0.42754 0.06650 0.42631
 C143 C 0.42660 -0.06679 0.42631
 N144 N 0.56097 0.53151 0.03754
 N145 N 0.58438 0.55301 0.04339
 N146 N 0.53633 0.46799 0.06232
 N147 N 0.54250 0.44678 0.08595
 N148 N 0.56094 0.46769 0.03803
 N149 N 0.58454 0.44629 0.04446
 N150 N 0.53635 0.53180 0.06183
 N151 N 0.54234 0.55351 0.08488
 C152 C 0.57224 0.56664 0.07285
 C153 C 0.57249 0.43332 0.07427
 N154 N 0.43589 0.46826 0.03786
 N155 N 0.41260 0.44666 0.04377
 N156 N 0.46023 0.53214 0.06185
 N157 N 0.45355 0.55334 0.08545
 N158 N 0.43580 0.53210 0.03753
 N159 N 0.41183 0.55327 0.04392
 N160 N 0.46027 0.46829 0.06222
 N161 N 0.45424 0.44671 0.08541
 Mn162 Mn 0.49830 0.50006 0.06242
 C163 C 0.42455 0.43333 0.07338
 C164 C 0.42346 0.56648 0.07372
 N165 N 0.56135 0.46717 -0.03744
 N166 N 0.58502 0.44569 -0.04351
 N167 N 0.53697 0.53102 -0.06223
 N168 N 0.54327 0.55236 -0.08566
 N169 N 0.56136 0.53103 -0.03788
 N170 N 0.58491 0.55237 -0.04404
 N171 N 0.53696 0.46715 -0.06181
 N172 N 0.54338 0.44564 -0.08511
 Mn173 Mn 0.56152 0.49935 0.00007
 C174 C 0.57328 0.43232 -0.07316
 C175 C 0.57311 0.56559 -0.07378
 N176 N 0.43625 0.53160 -0.03795
 N177 N 0.41258 0.55295 -0.04434
 N178 N 0.46085 0.46754 -0.06183
 N179 N 0.45478 0.44594 -0.08500
 N180 N 0.43623 0.46780 -0.03755
 N181 N 0.41273 0.44640 -0.04352
 N182 N 0.46083 0.53135 -0.06228
 N183 N 0.45454 0.55253 -0.08591
 Mn184 Mn 0.43568 0.49995 -0.00003
 Mn185 Mn 0.49890 0.49927 -0.06241
 Cl186 Cl 0.49860 0.49966 0.00001
 C187 C 0.42453 0.56593 -0.07416
 C188 C 0.42483 0.43285 -0.07305
 N189 N 1.20811 0.17957 0.21049
 C190 C 1.18486 0.19190 0.18765
 N191 N 1.18263 0.22253 0.18489
 N192 N 1.20326 0.24027 0.20426
 C193 C 1.22701 0.22806 0.22699
 N194 N 1.22871 0.19729 0.22982
 C195 C 1.16335 0.17252 0.16644
 C196 C 1.14599 0.15538 0.14901
 C197 C 1.12609 0.13401 0.12881
 N198 N 1.09506 0.12309 0.14117
 N199 N 1.07763 0.10186 0.12346
 C200 C 1.09072 0.09080 0.09285
 N201 N 1.12171 0.10187 0.08043
 N202 N 1.13913 0.12311 0.09815
 N203 N 1.22379 0.68925 0.68729
 C204 C 1.18829 0.69275 0.68568
 N205 N 1.17263 0.71518 0.70454
 N206 N 1.19193 0.73354 0.72447
 C207 C 1.22759 0.73005 0.72636
 N208 N 1.24309 0.70758 0.70720
 C209 C 1.16756 0.67245 0.66488
 C210 C 1.15052 0.65489 0.64769
 C211 C 1.13069 0.63338 0.62766
 N212 N 1.09960 0.62260 0.64003
 N213 N 1.08193 0.60160 0.62221
 C214 C 1.09480 0.59067 0.59145
 N215 N 1.12586 0.60159 0.57904
 N216 N 1.14353 0.62260 0.59687
 N217 N 0.67184 0.21407 0.70592
 C218 C 0.68715 0.19505 0.68238
 N219 N 0.72280 0.19456 0.67941
 N220 N 0.74256 0.21236 0.69953
 C221 C 0.72745 0.23126 0.72352
 N222 N 0.69161 0.23190 0.72605
 C223 C 0.66610 0.17462 0.66198
 C224 C 0.64893 0.15679 0.64524
 C225 C 0.62910 0.13481 0.62579
 N226 N 0.64190 0.12352 0.59523
 N227 N 0.62438 0.10202 0.57803
 C228 C 0.59350 0.09107 0.59086
 N229 N 0.58066 0.10250 0.62139
 N230 N 0.59818 0.12400 0.63859
 N231 N 0.72105 0.69290 0.17999
 C232 C 0.68542 0.69383 0.18299
 N233 N 0.67040 0.71299 0.20655
 N234 N 0.69046 0.73058 0.22666
 C235 C 0.72629 0.72953 0.22409
 N236 N 0.74110 0.71046 0.20009
 C237 C 0.66405 0.67379 0.16250
 C238 C 0.64664 0.65625 0.14566
 C239 C 0.62659 0.63459 0.12607
 N240 N 0.59563 0.62388 0.13885
 N241 N 0.57796 0.60254 0.12156
 C242 C 0.59072 0.59118 0.09097
 N243 N 0.62163 0.60205 0.07814
 N244 N 0.63929 0.62339 0.09543
 N245 N 0.82858 -0.21518 0.20508
 C246 C 0.81317 -0.19619 0.18172
 N247 N 0.77752 -0.19554 0.17922
 N248 N 0.75782 -0.21320 0.19964
 C249 C 0.77302 -0.23207 0.22347
 N250 N 0.80887 -0.23286 0.22552
 C251 C 0.83415 -0.17584 0.16115
 C252 C 0.85126 -0.15799 0.14438
 C253 C 0.87103 -0.13591 0.12505
 N254 N 0.85818 -0.12440 0.09471
 N255 N 0.87557 -0.10266 0.07775
 C256 C 0.90634 -0.09167 0.09063
 N257 N 0.91924 -0.10333 0.12091
 N258 N 0.90184 -0.12507 0.13787
 N259 N 0.77924 0.30641 0.67952
 C260 C 0.81486 0.30593 0.68255
 N261 N 0.82999 0.28695 0.70612
 N262 N 0.81006 0.26915 0.72622
 C263 C 0.77424 0.26976 0.72362
 N264 N 0.75932 0.28863 0.69960
 C265 C 0.83606 0.32629 0.66212
 C266 C 0.85331 0.34408 0.64532
 C267 C 0.87322 0.36599 0.62575
 N268 N 0.90417 0.37675 0.63835
 N269 N 0.92176 0.39819 0.62104
 C270 C 0.90896 0.40960 0.59058
 N271 N 0.87805 0.39869 0.57794
 N272 N 0.86046 0.37726 0.59525
 N273 N 0.31772 -0.19277 0.72070
 C274 C 0.31477 -0.19336 0.68539
 N275 N 0.29113 -0.21233 0.67043
 N276 N 0.27106 -0.23022 0.69024
 C277 C 0.27390 -0.22983 0.72575
 N278 N 0.29767 -0.21064 0.74050
 C279 C 0.33549 -0.17325 0.66430
 C280 C 0.35263 -0.15574 0.64711
 C281 C 0.37261 -0.13416 0.62729
 N282 N 0.35999 -0.12325 0.59658
 N283 N 0.37768 -0.10202 0.57906
 C284 C 0.40851 -0.09099 0.59174
 N285 N 0.42117 -0.10206 0.62240
 N286 N 0.40348 -0.12329 0.63991
 N287 N 0.32870 0.28709 0.20818
 C288 C 0.31324 0.30439 0.18319
 N289 N 0.27778 0.30310 0.17902
 N290 N 0.25834 0.28505 0.19924
 C291 C 0.27361 0.26754 0.22438
 N292 N 0.30926 0.26905 0.22841
 C293 C 0.33388 0.32498 0.16263
 C294 C 0.35089 0.34289 0.14584
 C295 C 0.37066 0.36489 0.12641
 N296 N 0.35806 0.37595 0.09577
 N297 N 0.37556 0.39749 0.07857
 C298 C 0.40619 0.40869 0.09149
 N299 N 0.41884 0.39749 0.12210
 N300 N 0.40134 0.37595 0.13930
 N301 N 0.81478 0.22442 -0.18450
 C302 C 0.81220 0.19378 -0.18668
 N303 N 0.78962 0.18149 -0.21011
 N304 N 0.77032 0.19924 -0.23084
 C305 C 0.77292 0.23001 -0.22910
 N306 N 0.79544 0.24221 -0.20526
 C307 C 0.83322 0.17434 -0.16481
 C308 C 0.85049 0.15713 -0.14715
 C309 C 0.87058 0.13569 -0.12695
 N310 N 0.90171 0.12472 -0.13934
 N311 N 0.91937 0.10349 -0.12166
 C312 C 0.90645 0.09247 -0.09103
 N313 N 0.87536 0.10360 -0.07858
 N314 N 0.85770 0.12484 -0.09627
 N315 N 0.81480 0.72333 0.31500
 C316 C 0.81242 0.69268 0.31299
 N317 N 0.78964 0.68015 0.28993
 N318 N 0.76992 0.69770 0.26936
 C319 C 0.77232 0.72848 0.27093
 N320 N 0.79505 0.74091 0.29440
 C321 C 0.83391 0.67351 0.33463
 C322 C 0.85159 0.65657 0.35217
 C323 C 0.87213 0.63546 0.37228
 N324 N 0.85967 0.62467 0.40315
 N325 N 0.87771 0.60364 0.42076
 C326 C 0.90875 0.59267 0.40804
 N327 N 0.92127 0.60363 0.37722
 N328 N 0.90322 0.62466 0.35961
 N329 N 0.29289 0.21384 0.32830
 C330 C 0.31559 0.19355 0.31370
 N331 N 0.31755 0.19139 0.27839
 N332 N 0.29735 0.20889 0.25823
 C333 C 0.27429 0.22918 0.27261
 N334 N 0.27267 0.23138 0.30813
 C335 C 0.33631 0.17367 0.33520
 C336 C 0.35345 0.15622 0.35258
 C337 C 0.37343 0.13459 0.37248
 N338 N 0.40436 0.12344 0.35981
 N339 N 0.42196 0.10206 0.37730
 C340 C 0.40915 0.09110 0.40799
 N341 N 0.37827 0.10240 0.42071
 N342 N 0.36067 0.12378 0.40322
 N343 N 0.27572 0.69214 -0.18490
 C344 C 0.31144 0.69251 -0.18665
 N345 N 0.32748 0.71196 -0.20898
 N346 N 0.30837 0.73054 -0.22893
 C347 C 0.27247 0.73046 -0.22724
 N348 N 0.25660 0.71072 -0.20486
 C349 C 0.33197 0.67188 -0.16594
 C350 C 0.34909 0.65418 -0.14890
 C351 C 0.36917 0.63260 -0.12904
 N352 N 0.40024 0.62167 -0.14162
 N353 N 0.41821 0.60070 -0.12384
 C354 C 0.40567 0.58999 -0.09292
 N355 N 0.37464 0.60108 -0.08031
 N356 N 0.35667 0.62204 -0.09809
 N357 N 1.18470 -0.22291 -0.18377
 C358 C 1.18530 -0.19236 -0.18799
 N359 N 1.20669 -0.18023 -0.21269
 N360 N 1.22703 -0.19806 -0.23248
 C361 C 1.22691 -0.22874 -0.22827
 N362 N 1.20507 -0.24076 -0.20360
 C363 C 1.16389 -0.17289 -0.16647
 C364 C 1.14648 -0.15573 -0.14883
 C365 C 1.12642 -0.13439 -0.12842
 N366 N 1.09545 -0.12318 -0.14069
 N367 N 1.07785 -0.10198 -0.12277
 C368 C 1.09069 -0.09126 -0.09203
 N369 N 1.12161 -0.10264 -0.07971
 N370 N 1.13921 -0.12384 -0.09764
 N371 N 1.18090 0.27580 0.31094
 C372 C 1.18669 0.30615 0.31165
 N373 N 1.21311 0.31785 0.29196
 N374 N 1.23313 0.29980 0.27212
 C375 C 1.22744 0.26934 0.27107
 N376 N 1.20095 0.25771 0.29105
 C377 C 1.16532 0.32588 0.33293
 C378 C 1.14804 0.34332 0.35036
 C379 C 1.12822 0.36502 0.37053
 N380 N 1.09735 0.37638 0.35818
 N381 N 1.08002 0.39790 0.37587
 C382 C 1.09305 0.40881 0.40645
 N383 N 1.12387 0.39730 0.41884
 N384 N 1.14120 0.37578 0.40115
 N385 N 0.68585 -0.22515 0.31608
 C386 C 0.68832 -0.19452 0.31381
 N387 N 0.71085 -0.18221 0.29025
 N388 N 0.73023 -0.19994 0.26943
 C389 C 0.72773 -0.23070 0.27124
 N390 N 0.70527 -0.24293 0.29523
 C391 C 0.66714 -0.17513 0.33566
 C392 C 0.64973 -0.15793 0.35326
 C393 C 0.62949 -0.13647 0.37333
 N394 N 0.59850 -0.12553 0.36080
 N395 N 0.58077 -0.10413 0.37828
 C396 C 0.59352 -0.09292 0.40882
 N397 N 0.62447 -0.10402 0.42141
 N398 N 0.64219 -0.12543 0.40392
 N399 N 0.68595 0.27650 -0.18472
 C400 C 0.68839 0.30715 -0.18692
 N401 N 0.71118 0.31948 -0.21024
 N402 N 0.73080 0.30176 -0.23086
 C403 C 0.72833 0.27099 -0.22912
 N404 N 0.70561 0.25875 -0.20539
 C405 C 0.66698 0.32654 -0.16521
 C406 C 0.64936 0.34367 -0.14765
 C407 C 0.62887 0.36499 -0.12752
 N408 N 0.59779 0.37578 -0.14004
 N409 N 0.57974 0.39689 -0.12238
 C410 C 0.59221 0.40795 -0.09165
 N411 N 0.62325 0.39700 -0.07908
 N412 N 0.64129 0.37589 -0.09674
 N413 N 1.22209 0.19226 -0.18254
 C414 C 1.18642 0.19311 -0.18471
 N415 N 1.17095 0.21258 -0.20750
 N416 N 1.19060 0.23056 -0.22764
 C417 C 1.22647 0.22963 -0.22590
 N418 N 1.24172 0.21022 -0.20267
 C419 C 1.16544 0.17290 -0.16392
 C420 C 1.14824 0.15535 -0.14679
 C421 C 1.12824 0.13379 -0.12688
 N422 N 1.09710 0.12322 -0.13922
 N423 N 1.07932 0.10212 -0.12158
 C424 C 1.09212 0.09087 -0.09105
 N425 N 1.12322 0.10158 -0.07866
 N426 N 1.14100 0.12269 -0.09631
 N427 N 1.22455 0.69029 0.31046
 C428 C 1.18912 0.69411 0.31282
 N429 N 1.17362 0.71712 0.29493
 N430 N 1.19295 0.73567 0.27515
 C431 C 1.22860 0.73185 0.27229
 N432 N 1.24389 0.70879 0.29070
 C433 C 1.16829 0.67353 0.33340
 C434 C 1.15121 0.65575 0.35041
 C435 C 1.13131 0.63400 0.37030
 N436 N 1.10014 0.62340 0.35805
 N437 N 1.08237 0.60233 0.37579
 C438 C 1.09519 0.59114 0.40635
 N439 N 1.12634 0.60187 0.41863
 N440 N 1.14410 0.62294 0.40089
 N441 N 0.67140 0.21404 0.29392
 C442 C 0.68696 0.19455 0.31662
 N443 N 0.72263 0.19388 0.31889
 N444 N 0.74219 0.21203 0.29891
 C445 C 0.72685 0.23142 0.27573
 N446 N 0.69097 0.23219 0.27394
 C447 C 0.66608 0.17398 0.33700
 C448 C 0.64896 0.15610 0.35373
 C449 C 0.62915 0.13412 0.37317
 N450 N 0.64176 0.12306 0.40381
 N451 N 0.62424 0.10156 0.42106
 C452 C 0.59356 0.09040 0.40818
 N453 N 0.58090 0.10160 0.37757
 N454 N 0.59843 0.12310 0.36033
 N455 N 0.72232 0.69189 -0.18196
 C456 C 0.68667 0.69270 -0.18448
 N457 N 0.67139 0.71231 -0.20723
 N458 N 0.69121 0.73045 -0.22701
 C459 C 0.72706 0.72955 -0.22494
 N460 N 0.74212 0.71001 -0.20173
 C461 C 0.66550 0.67229 -0.16414
 C462 C 0.64815 0.65461 -0.14735
 C463 C 0.62806 0.63292 -0.12772
 N464 N 0.59724 0.62204 -0.14050
 N465 N 0.57940 0.60087 -0.12303
 C466 C 0.59184 0.58986 -0.09223
 N467 N 0.62262 0.60088 -0.07942
 N468 N 0.64045 0.62205 -0.09690
 N469 N 0.77793 -0.19685 -0.17713
 C470 C 0.81308 -0.19423 -0.18298
 N471 N 0.82815 -0.21026 -0.20943
 N472 N 0.80863 -0.22834 -0.22946
 C473 C 0.77331 -0.23112 -0.22374
 N474 N 0.75840 -0.21493 -0.19714
 C475 C 0.83374 -0.17362 -0.16252
 C476 C 0.85075 -0.15572 -0.14576
 C477 C 0.87051 -0.13376 -0.12630
 N478 N 0.90138 -0.12288 -0.13912
 N479 N 0.91892 -0.10144 -0.12185
 C480 C 0.90612 -0.09016 -0.09123
 N481 N 0.87529 -0.10119 -0.07838
 N482 N 0.85776 -0.12262 -0.09565
 N483 N 0.77856 0.30505 0.32252
 C484 C 0.81367 0.30744 0.31628
 N485 N 0.82832 0.29127 0.28973
 N486 N 0.80844 0.27326 0.26997
 C487 C 0.77317 0.27070 0.27608
 N488 N 0.75867 0.28705 0.30277
 C489 C 0.83474 0.32787 0.33655
 C490 C 0.85210 0.34558 0.35319
 C491 C 0.87223 0.36732 0.37257
 N492 N 0.90303 0.37813 0.35950
 N493 N 0.92090 0.39938 0.37674
 C494 C 0.90850 0.41053 0.40758
 N495 N 0.87775 0.39957 0.42068
 N496 N 0.85989 0.37832 0.40345
 N497 N 0.28951 -0.21166 0.32853
 C498 C 0.31349 -0.19290 0.31363
 N499 N 0.31701 -0.19271 0.27835
 N500 N 0.29720 -0.21072 0.25853
 C501 C 0.27305 -0.22981 0.27315
 N502 N 0.26967 -0.22970 0.30873
 C503 C 0.33406 -0.17264 0.33475
 C504 C 0.35116 -0.15508 0.35195
 C505 C 0.37125 -0.13354 0.37183
 N506 N 0.40243 -0.12303 0.35934
 N507 N 0.42035 -0.10206 0.37698
 C508 C 0.40767 -0.09087 0.40770
 N509 N 0.37652 -0.10153 0.42023
 N510 N 0.35859 -0.12250 0.40258
 N511 N 0.27741 0.30320 -0.17842
 C512 C 0.31263 0.30546 -0.18404
 N513 N 0.32766 0.28927 -0.21037
 N514 N 0.30805 0.27134 -0.23050
 C515 C 0.27266 0.26892 -0.22500
 N516 N 0.25778 0.28529 -0.19854
 C517 C 0.33342 0.32582 -0.16337
 C518 C 0.35053 0.34349 -0.14641
 C519 C 0.37043 0.36520 -0.12673
 N520 N 0.40148 0.37587 -0.13935
 N521 N 0.41913 0.39713 -0.12192
 C522 C 0.40628 0.40844 -0.09133
 N523 N 0.37527 0.39762 -0.07868
 N524 N 0.35762 0.37635 -0.09611
 N525 N 1.20753 -0.17973 0.21433
 C526 C 1.18651 -0.19168 0.18931
 N527 N 1.18616 -0.22217 0.18465
 N528 N 1.20648 -0.24014 0.20426
 C529 C 1.22821 -0.22839 0.22921
 N530 N 1.22782 -0.19767 0.23390
 C531 C 1.16521 -0.17205 0.16790
 C532 C 1.14784 -0.15486 0.15030
 C533 C 1.12771 -0.13361 0.12987
 N534 N 1.14058 -0.12296 0.09909
 N535 N 1.12277 -0.10205 0.08103
 C536 C 1.09150 -0.09106 0.09319
 N537 N 1.07858 -0.10186 0.12393
 N538 N 1.09640 -0.12276 0.14198
 N539 N 1.18351 0.27724 0.68537
 C540 C 1.18753 0.30777 0.68691
 N541 N 1.21139 0.31961 0.70937
 N542 N 1.23070 0.30150 0.72968
 C543 C 1.22682 0.27081 0.72843
 N544 N 1.20284 0.25910 0.70570
 C545 C 1.16683 0.32750 0.66517
 C546 C 1.14981 0.34477 0.64742
 C547 C 1.12993 0.36614 0.62702
 N548 N 1.14302 0.37690 0.59639
 N549 N 1.12542 0.39801 0.57845
 C550 C 1.09419 0.40906 0.59060
 N551 N 1.08106 0.39813 0.62118
 N552 N 1.09866 0.37703 0.63911
 N553 N 0.68428 -0.22273 0.68654
 C554 C 0.68784 -0.19218 0.68856
 N555 N 0.71153 -0.18034 0.71121
 N556 N 0.73105 -0.19848 0.73129
 C557 C 0.72759 -0.22918 0.72959
 N558 N 0.70382 -0.24089 0.70663
 C559 C 0.66687 -0.17244 0.66711
 C560 C 0.64963 -0.15520 0.64953
 C561 C 0.62959 -0.13390 0.62920
 N562 N 0.64242 -0.12338 0.59835
 N563 N 0.62469 -0.10238 0.58038
 C564 C 0.59359 -0.09120 0.59270
 N565 N 0.58071 -0.10189 0.62350
 N566 N 0.59844 -0.12288 0.64147
 N567 N 0.71043 0.32118 0.21153
 C568 C 0.68651 0.30920 0.18922
 N569 N 0.68300 0.27864 0.18741
 N570 N 0.70281 0.26059 0.20738
 C571 C 0.72682 0.27244 0.22999
 N572 N 0.73023 0.30316 0.23149
 C573 C 0.66529 0.32878 0.16785
 C574 C 0.64785 0.34586 0.15029
 C575 C 0.62760 0.36695 0.12988
 N576 N 0.64028 0.37736 0.09894
 N577 N 0.62238 0.39818 0.08086
 C578 C 0.59123 0.40928 0.09319
 N579 N 0.57851 0.39870 0.12409
 N580 N 0.59642 0.37788 0.14216
 N581 N 0.79166 0.21526 0.17373
 C582 C 0.81304 0.19418 0.18855
 N583 N 0.81408 0.19185 0.22387
 N584 N 0.79424 0.20998 0.24381
 C585 C 0.77244 0.23105 0.22921
 N586 N 0.77180 0.23341 0.19368
 C587 C 0.83360 0.17394 0.16720
 C588 C 0.85062 0.15635 0.14975
 C589 C 0.87051 0.13473 0.12960
 N590 N 0.90144 0.12353 0.14196
 N591 N 0.91908 0.10231 0.12411
 C592 C 0.90633 0.09159 0.09335
 N593 N 0.87543 0.10295 0.08094
 N594 N 0.85779 0.12417 0.09879
 N595 N 0.81507 0.69034 0.72395
 C596 C 0.81443 0.69284 0.68862
 N597 N 0.79315 0.71396 0.67371
 N598 N 0.77303 0.73198 0.69357
 C599 C 0.77327 0.72945 0.72908
 N600 N 0.79495 0.70834 0.74379
 C601 C 0.83529 0.67276 0.66733
 C602 C 0.85253 0.65536 0.64982
 C603 C 0.87263 0.63400 0.62948
 N604 N 0.85999 0.62352 0.59860
 N605 N 0.87787 0.60260 0.58050
 C606 C 0.90894 0.59146 0.59273
 N607 N 0.92163 0.60208 0.62357
 N608 N 0.90375 0.62301 0.64166
 N609 N 0.29198 0.21380 0.67242
 C610 C 0.31328 0.19267 0.68728
 N611 N 0.31410 0.19022 0.72261
 N612 N 0.29412 0.20829 0.74251
 C613 C 0.27241 0.22941 0.72786
 N614 N 0.27200 0.23187 0.69234
 C615 C 0.33402 0.17252 0.66594
 C616 C 0.35121 0.15507 0.64847
 C617 C 0.37136 0.13363 0.62829
 N618 N 0.40256 0.12287 0.64052
 N619 N 0.42050 0.10186 0.62264
 C620 C 0.40780 0.09090 0.59196
 N621 N 0.37663 0.10181 0.57967
 N622 N 0.35869 0.12283 0.59756
 N623 N 0.32645 0.71302 0.20911
 C624 C 0.31019 0.69370 0.18685
 N625 N 0.27448 0.69370 0.18532
 N626 N 0.25560 0.71253 0.20536
 C627 C 0.27158 0.73231 0.22769
 N628 N 0.30757 0.73185 0.22915
 C629 C 0.33050 0.67279 0.16597
 C630 C 0.34748 0.65489 0.14882
 C631 C 0.36756 0.63314 0.12889
 N632 N 0.35505 0.62233 0.09809
 N633 N 0.37311 0.60136 0.08023
 C634 C 0.40429 0.59050 0.09258
 N635 N 0.41682 0.60145 0.12335
 N636 N 0.39875 0.62242 0.14120
   
