data_POSCAR
  _audit_creation_date              2014-09-24
  _audit_creation_method            'ToBaCCo'
  _symmetry_space_group_name_H-M    'P1'
  _symmetry_Int_Tables_number       1
  _symmetry_cell_setting            triclinic
  loop_
  _symmetry_equiv_pos_as_xyz
 x,y,z
_cell_length_a 23.8433
_cell_length_b 21.6636
_cell_length_c 19.0620
_cell_angle_alpha 88.688900
_cell_angle_beta 89.861600
_cell_angle_gamma 91.230400
loop_
  _atom_site_label
  _atom_site_type_symbol
  _atom_site_fract_x
  _atom_site_fract_y
  _atom_site_fract_z
O1 O 0.21612 0.30385 0.15550
 O2 O 0.32283 0.20310 0.23232
 O3 O 0.22681 0.18315 0.17324
 O4 O 0.31234 0.31978 0.22060
 O5 O 0.26874 0.32129 0.32295
 O6 O 0.18297 0.18587 0.27531
 O7 O 0.27918 0.20399 0.33479
 O8 O 0.17229 0.30593 0.25755
 Cu9 Cu 0.27301 0.25275 0.18445
 Cu10 Cu 0.22069 0.25498 0.30751
 C11 C 0.17621 0.32223 0.19330
 C12 C 0.31972 0.18714 0.29665
 C13 C 0.19181 0.16017 0.21741
 C14 C 0.30692 0.34158 0.28141
 O15 O 0.81525 0.32520 0.26705
 O16 O 0.72967 0.19600 0.34195
 O17 O 0.82612 0.20809 0.27964
 O18 O 0.71862 0.31644 0.33401
 O19 O 0.67573 0.30662 0.23220
 O20 O 0.78260 0.19604 0.17842
 O21 O 0.68600 0.18650 0.24054
 O22 O 0.77232 0.31412 0.16538
 Cu23 Cu 0.77607 0.26302 0.31629
 Cu24 Cu 0.72436 0.25024 0.19412
 C25 C 0.80994 0.33963 0.20256
 C26 C 0.69436 0.16841 0.30325
 C27 C 0.82292 0.18391 0.21978
 C28 C 0.67894 0.32997 0.29255
 O29 O 0.77907 0.79870 0.84985
 O30 O 0.67749 0.69520 0.76278
 O31 O 0.77093 0.67870 0.82902
 O32 O 0.68171 0.81115 0.78643
 O33 O 0.72694 0.82499 0.68581
 O34 O 0.81577 0.69273 0.72816
 O35 O 0.72321 0.70952 0.66242
 O36 O 0.82469 0.81197 0.74951
 Cu37 Cu 0.72342 0.74492 0.81780
 Cu38 Cu 0.77802 0.76206 0.69701
 C39 C 0.81945 0.82259 0.81424
 C40 C 0.68267 0.68559 0.69761
 C41 C 0.80698 0.66198 0.78467
 C42 C 0.68734 0.83840 0.72720
 O43 O 0.27724 0.71233 0.66312
 O44 O 0.17609 0.80926 0.75288
 O45 O 0.27379 0.82785 0.68782
 O46 O 0.18460 0.69074 0.72904
 O47 O 0.22964 0.67751 0.82925
 O48 O 0.31880 0.81445 0.78800
 O49 O 0.22170 0.79624 0.85262
 O50 O 0.32285 0.69870 0.76298
 Cu51 Cu 0.22259 0.76227 0.69877
 Cu52 Cu 0.27722 0.74590 0.81885
 C53 C 0.31743 0.68931 0.69781
 C54 C 0.18133 0.81884 0.81788
 C55 C 0.31338 0.84235 0.72931
 C56 C 0.19349 0.65968 0.78500
 C57 C 0.96990 -0.16791 -0.08779
 C58 C 1.02737 -0.16963 -0.08696
 C59 C 1.04601 -0.11472 -0.05842
 N60 N 1.00203 -0.07928 -0.04237
 C61 C 0.95544 -0.11173 -0.06029
 C62 C 1.10289 -0.09783 -0.04823
 C63 C 1.12028 -0.05189 -0.00144
 C64 C 1.17542 -0.03187 0.00672
 C65 C 1.17599 0.00792 0.06205
 C66 C 1.12110 0.01155 0.08523
 N67 N 1.08746 -0.02517 0.04662
 C68 C 1.10461 0.04316 0.14518
 C69 C 1.04846 0.05732 0.16021
 C70 C 1.03050 0.08189 0.22234
 C71 C 0.97369 0.08966 0.21587
 C72 C 0.95867 0.06969 0.14953
 N73 N 1.00483 0.05028 0.11569
 C74 C 0.90423 0.07104 0.11905
 C75 C 0.88920 0.03517 0.06067
 C76 C 0.83862 0.03989 0.02526
 C77 C 0.83685 -0.00650 -0.02292
 C78 C 0.88661 -0.03773 -0.01618
 N79 N 0.91809 -0.01262 0.03528
 C80 C 0.90022 -0.08999 -0.05488
 H81 H 0.94218 -0.20450 -0.10551
 H82 H 1.05230 -0.20787 -0.10346
 H83 H 0.95373 -0.03179 0.05715
 H84 H 1.21168 -0.04598 -0.02268
 H85 H 1.21269 0.03078 0.08360
 H86 H 1.05559 0.09239 0.26796
 H87 H 0.94727 0.10585 0.25732
 H88 H 0.80279 -0.01627 -0.05871
 H89 H 1.04630 -0.03751 0.05888
 H90 H 0.80573 0.07246 0.03435
 C91 C 0.47195 0.67700 0.60874
 C92 C 0.52937 0.67699 0.60727
 C93 C 0.54448 0.62411 0.57302
 N94 N 0.49817 0.59233 0.55286
 C95 C 0.45370 0.62421 0.57510
 C96 C 0.60037 0.60584 0.56232
 C97 C 0.61602 0.55737 0.51852
 C98 C 0.67018 0.53596 0.51416
 C99 C 0.66881 0.48798 0.46826
 C100 C 0.61378 0.48116 0.44582
 N101 N 0.58203 0.52464 0.47555
 C102 C 0.59544 0.43378 0.40085
 C103 C 0.53827 0.41903 0.38718
 C104 C 0.51924 0.36418 0.35855
 C105 C 0.46188 0.36568 0.35831
 C106 C 0.44729 0.42134 0.38686
 N107 N 0.49406 0.45372 0.40462
 C108 C 0.39138 0.44021 0.39713
 C109 C 0.37619 0.48996 0.43916
 C110 C 0.32189 0.51083 0.44488
 C111 C 0.32328 0.55759 0.49247
 C112 C 0.37844 0.56418 0.51427
 N113 N 0.41035 0.52220 0.48220
 C114 C 0.39672 0.60829 0.56308
 H115 H 0.44690 0.71337 0.62963
 H116 H 0.55657 0.71297 0.62749
 H117 H 0.45151 0.51201 0.49392
 H118 H 0.70679 0.55251 0.54211
 H119 H 0.70422 0.46028 0.45428
 H120 H 0.54339 0.32511 0.34295
 H121 H 0.43440 0.32840 0.34191
 H122 H 0.28774 0.58408 0.50878
 H123 H 0.54067 0.53399 0.46406
 H124 H 0.28501 0.49394 0.41774
 C125 C 0.02954 0.56932 -0.23598
 C126 C -0.02807 0.57070 -0.23592
 C127 C -0.04530 0.55382 -0.16863
 N128 N -0.00042 0.54326 -0.12731
 C129 C 0.04525 0.55148 -0.16877
 C130 C -0.10175 0.54882 -0.14680
 C131 C -0.11889 0.52564 -0.08021
 C132 C -0.17301 0.52863 -0.05406
 C133 C -0.17444 0.49413 0.00763
 C134 C -0.12126 0.47079 0.01698
 N135 N -0.08770 0.49041 -0.03657
 C136 C -0.10725 0.42655 0.06902
 C137 C -0.05184 0.40632 0.08039
 C138 C -0.03835 0.35162 0.11482
 C139 C 0.01895 0.34824 0.11355
 C140 C 0.03880 0.40106 0.07853
 N141 N -0.00458 0.43665 0.05842
 C142 C 0.09607 0.41553 0.06509
 C143 C 0.11384 0.45958 0.01369
 C144 C 0.16885 0.48024 0.00476
 C145 C 0.17029 0.51644 -0.05565
 C146 C 0.11609 0.51692 -0.08164
 N147 N 0.08200 0.48213 -0.03914
 C148 C 0.10108 0.54322 -0.14712
 H149 H 0.05672 0.57949 -0.28051
 H150 H -0.05429 0.58229 -0.28038
 H151 H 0.04178 0.46691 -0.05121
 H152 H -0.20820 0.55167 -0.07804
 H153 H -0.21100 0.48519 0.04039
 H154 H -0.06663 0.31616 0.13598
 H155 H 0.04260 0.30963 0.13347
 H156 H 0.20727 0.53844 -0.07890
 H157 H -0.04882 0.47291 -0.04818
 H158 H 0.20454 0.46880 0.03718
 C159 C 0.52839 0.86901 0.65624
 C160 C 0.47088 0.87039 0.65661
 C161 C 0.45629 0.92707 0.62761
 N162 N 0.50302 0.96026 0.60948
 C163 C 0.54716 0.92467 0.62654
 C164 C 0.40079 0.94764 0.61800
 C165 C 0.38812 0.99871 0.57444
 C166 C 0.33783 1.02931 0.57585
 C167 C 0.33934 1.07152 0.52069
 C168 C 0.39020 1.06467 0.48647
 N169 N 0.41974 1.02016 0.51980
 C170 C 0.40434 1.09372 0.42145
 C171 C 0.45885 1.09023 0.39135
 C172 C 0.47380 1.10238 0.32169
 C173 C 0.53070 1.09451 0.31676
 C174 C 0.54875 1.07787 0.38312
 N175 N 0.50517 1.07584 0.42863
 C176 C 0.60482 1.06566 0.40078
 C177 C 0.62109 1.04214 0.46674
 C178 C 0.67601 1.04072 0.49001
 C179 C 0.67561 1.00581 0.55127
 C180 C 0.62051 0.98648 0.56298
 N181 N 0.58748 1.00942 0.51162
 C182 C 0.60407 0.94108 0.61330
 H183 H 0.55304 0.82999 0.67274
 H184 H 0.44343 0.83264 0.67384
 H185 H 0.54671 0.99500 0.50114
 H186 H 0.30325 1.02109 0.61199
 H187 H 0.30576 1.10191 0.50569
 H188 H 0.44742 1.11316 0.27739
 H189 H 0.55576 1.09963 0.26948
 H190 H 0.71211 0.99326 0.58164
 H191 H 0.45515 0.99906 0.50073
 H192 H 0.71273 1.06076 0.46405
 N193 N 1.16741 0.10699 0.20540
 N194 N 1.14679 0.05514 0.19668
 N195 N 0.64083 0.64950 0.66323
 N196 N 0.64462 0.63799 0.59825
 N197 N -0.14963 0.38057 0.17021
 N198 N -0.15261 0.39488 0.10525
 N199 N 0.35576 0.88615 0.70718
 N200 N 0.35430 0.91188 0.64659
 N201 N -0.16700 0.61024 -0.20496
 N202 N -0.14421 0.56003 -0.19814
 N203 N 0.36341 1.15098 0.32614
 N204 N 0.36055 1.12880 0.38832
 N205 N 1.14013 -0.14584 -0.14772
 N206 N 1.14581 -0.13039 -0.08411
 N207 N 0.63654 0.37089 0.31445
 N208 N 0.63834 0.39445 0.37495
 N209 N 0.86123 -0.14027 -0.15251
 N210 N 0.85545 -0.12212 -0.08996
 N211 N 0.34761 0.38531 0.30541
 N212 N 0.34644 0.40376 0.36826
 N213 N 0.16743 0.60666 -0.20487
 N214 N 0.14486 0.55530 -0.19733
 N215 N 0.66874 1.11831 0.32676
 N216 N 0.64671 1.06914 0.34688
 N217 N 0.13416 0.36027 0.16285
 N218 N 0.13911 0.38105 0.10010
 N219 N 0.64581 0.88084 0.70454
 N220 N 0.64795 0.90439 0.64287
 N221 N 0.86604 0.14348 0.19888
 N222 N 0.86147 0.11126 0.14426
 N223 N 0.35814 0.65357 0.66322
 N224 N 0.35412 0.64181 0.59832
   
