data_POSCAR
  _audit_creation_date              2014-09-24
  _audit_creation_method            'ToBaCCo'
  _symmetry_space_group_name_H-M    'P1'
  _symmetry_Int_Tables_number       1
  _symmetry_cell_setting            triclinic
  loop_
  _symmetry_equiv_pos_as_xyz
 x,y,z
_cell_length_a 37.9136
_cell_length_b 37.0955
_cell_length_c 37.0964
_cell_angle_alpha 90.186800
_cell_angle_beta 89.895300
_cell_angle_gamma 90.089000
loop_
  _atom_site_label
  _atom_site_type_symbol
  _atom_site_fract_x
  _atom_site_fract_y
  _atom_site_fract_z
Si1 Si 1.25122 0.24970 0.25060
 Si2 Si 0.75032 -0.25059 0.25046
 Si3 Si 0.75059 0.24964 -0.24964
 Si4 Si 1.25117 -0.25060 -0.24984
 Si5 Si 0.24953 0.25065 0.74936
 Si6 Si 0.74900 0.75030 0.74962
 Si7 Si 0.74894 0.25053 0.24971
 Si8 Si 0.24956 0.75034 0.24981
 N9 N 0.96354 0.06331 0.03974
 N10 N 0.94011 0.08852 0.04740
 N11 N 1.03776 0.03848 0.06450
 N12 N 1.06133 0.04604 0.08957
 N13 N 1.03766 0.06350 0.03949
 N14 N 1.06117 0.08873 0.04690
 N15 N 0.96363 0.03833 0.06478
 N16 N 0.94026 0.04591 0.09013
 C17 C 0.92549 0.07692 0.07855
 C18 C 1.07601 0.07710 0.07784
 N19 N 1.03792 -0.06454 0.03951
 N20 N 1.06088 -0.09009 0.04737
 N21 N 0.96376 -0.03952 0.06467
 N22 N 0.94022 -0.04696 0.08985
 N23 N 0.96377 -0.06461 0.03958
 N24 N 0.94023 -0.08979 0.04703
 N25 N 1.03791 -0.03944 0.06460
 N26 N 1.06087 -0.04729 0.09015
 Mn27 Mn 1.00077 -0.00052 0.06494
 C28 C 1.07535 -0.07859 0.07867
 C29 C 0.92547 -0.07804 0.07811
 N30 N 1.03756 0.06345 -0.03835
 N31 N 1.06077 0.08888 -0.04606
 N32 N 0.96342 0.03817 -0.06324
 N33 N 0.94028 0.04587 -0.08866
 N34 N 0.96341 0.06327 -0.03816
 N35 N 0.94027 0.08868 -0.04587
 N36 N 1.03757 0.03836 -0.06343
 N37 N 1.06079 0.04606 -0.08886
 Mn38 Mn 1.00054 0.06368 0.00070
 C39 C 1.07537 0.07729 -0.07727
 C40 C 0.92571 0.07708 -0.07708
 N41 N 0.96367 -0.06476 -0.03826
 N42 N 0.94030 -0.09012 -0.04582
 N43 N 1.03769 -0.03948 -0.06344
 N44 N 1.06120 -0.04690 -0.08868
 N45 N 1.03779 -0.06448 -0.03841
 N46 N 1.06136 -0.08956 -0.04598
 N47 N 0.96357 -0.03973 -0.06325
 N48 N 0.94015 -0.04740 -0.08845
 Mn49 Mn 1.00079 -0.06490 0.00059
 Mn50 Mn 1.00056 -0.00068 -0.06364
 Cl51 Cl 1.00067 -0.00061 0.00065
 C52 C 0.92554 -0.07855 -0.07685
 C53 C 1.07604 -0.07785 -0.07705
 N54 N 1.03676 0.43650 0.53839
 N55 N 1.05983 0.41105 0.54612
 N56 N 0.96264 0.46194 0.56309
 N57 N 0.93951 0.45415 0.58859
 N58 N 0.96266 0.43685 0.53801
 N59 N 0.93954 0.41134 0.54578
 N60 N 1.03674 0.46158 0.56348
 N61 N 1.05980 0.45387 0.58893
 C62 C 1.07431 0.42265 0.57735
 C63 C 0.92496 0.42291 0.57702
 N64 N 0.96358 0.56481 0.53814
 N65 N 0.94038 0.59026 0.54568
 N66 N 1.03726 0.53935 0.56352
 N67 N 1.06055 0.54676 0.58890
 N68 N 1.03765 0.56435 0.53850
 N69 N 1.06122 0.58943 0.54620
 N70 N 0.96319 0.53977 0.56312
 N71 N 0.93972 0.54753 0.58830
 Mn72 Mn 0.99995 0.50067 0.56360
 C73 C 0.92540 0.57873 0.57667
 C74 C 1.07558 0.57769 0.57733
 N75 N 0.96327 0.43683 0.46017
 N76 N 0.93981 0.41165 0.45241
 N77 N 1.03773 0.46148 0.43563
 N78 N 1.06132 0.45379 0.41055
 N79 N 1.03733 0.43647 0.46063
 N80 N 1.06064 0.41110 0.45323
 N81 N 0.96366 0.46181 0.43514
 N82 N 0.94047 0.45428 0.40968
 Mn83 Mn 1.00000 0.43636 0.49929
 C84 C 0.92549 0.42329 0.42121
 C85 C 1.07569 0.42266 0.42230
 N86 N 1.03828 0.56444 0.46065
 N87 N 1.06126 0.59005 0.45275
 N88 N 0.96420 0.53959 0.43528
 N89 N 0.94088 0.54709 0.41002
 N90 N 0.96418 0.56467 0.46036
 N91 N 0.94085 0.58992 0.45286
 N92 N 1.03830 0.53935 0.43555
 N93 N 1.06129 0.54726 0.40995
 Mn94 Mn 1.00093 0.56487 0.49942
 Mn95 Mn 1.00098 0.50055 0.43510
 Cl96 Cl 1.00047 0.50061 0.49935
 C97 C 1.07577 0.57858 0.42144
 C98 C 0.92624 0.57819 0.42174
 N99 N 0.56199 0.03794 0.53819
 N100 N 0.58711 0.06137 0.54601
 N101 N 0.53768 -0.03767 0.56362
 N102 N 0.54537 -0.06108 0.58916
 N103 N 0.56215 -0.03776 0.53850
 N104 N 0.58713 -0.06122 0.54627
 N105 N 0.53752 0.03804 0.56331
 N106 N 0.54537 0.06155 0.58890
 C107 C 0.57598 0.07627 0.57731
 C108 C 0.57592 -0.07590 0.57755
 N109 N 0.43718 -0.03837 0.53848
 N110 N 0.41255 -0.06235 0.54608
 N111 N 0.46135 0.03766 0.56326
 N112 N 0.45363 0.06152 0.58856
 N113 N 0.43691 0.03730 0.53820
 N114 N 0.41193 0.06090 0.54577
 N115 N 0.46160 -0.03802 0.56357
 N116 N 0.45422 -0.06177 0.58892
 Mn117 Mn 0.49952 0.00001 0.56375
 C118 C 0.42394 -0.07705 0.57722
 C119 C 0.42310 0.07613 0.57686
 N120 N 0.56212 -0.03838 0.46083
 N121 N 0.58696 -0.06215 0.45343
 N122 N 0.53755 0.03695 0.43534
 N123 N 0.54511 0.06053 0.40986
 N124 N 0.56196 0.03729 0.46044
 N125 N 0.58674 0.06109 0.45272
 N126 N 0.53769 -0.03874 0.43575
 N127 N 0.54529 -0.06277 0.41060
 Mn128 Mn 0.56234 -0.00022 0.49948
 C129 C 0.57571 -0.07748 0.42243
 C130 C 0.57548 0.07570 0.42148
 N131 N 0.43699 0.03669 0.46053
 N132 N 0.41229 0.06052 0.45307
 N133 N 0.46149 -0.03911 0.43558
 N134 N 0.45346 -0.06240 0.40983
 N135 N 0.43703 -0.03902 0.46072
 N136 N 0.41175 -0.06222 0.45272
 N137 N 0.46146 0.03661 0.43541
 N138 N 0.45405 0.06039 0.41016
 Mn139 Mn 0.43674 -0.00086 0.49950
 Mn140 Mn 0.49956 -0.00108 0.43520
 Cl141 Cl 0.49954 -0.00054 0.49948
 C142 C 0.42368 0.07540 0.42195
 C143 C 0.42274 -0.07700 0.42131
 N144 N 0.46126 0.56461 -0.03659
 N145 N 0.45383 0.58985 -0.06039
 N146 N 0.43690 0.53931 0.03907
 N147 N 0.41164 0.54731 0.06231
 N148 N 0.46136 0.56445 0.03913
 N149 N 0.45334 0.59020 0.06242
 N150 N 0.43680 0.53949 -0.03664
 N151 N 0.41209 0.54693 -0.06046
 C152 C 0.42346 0.57804 -0.07536
 C153 C 0.42264 0.57872 0.07707
 N154 N 0.46153 0.43646 0.03805
 N155 N 0.45418 0.41110 0.06181
 N156 N 0.43676 0.46181 -0.03724
 N157 N 0.41176 0.45424 -0.06082
 N158 N 0.46121 0.43675 -0.03763
 N159 N 0.45348 0.41146 -0.06148
 N160 N 0.43710 0.46154 0.03842
 N161 N 0.41248 0.45393 0.06243
 Mn162 Mn 0.43661 0.50053 0.00091
 C163 C 0.42390 0.42280 0.07711
 C164 C 0.42294 0.42316 -0.07606
 N165 N 0.53755 0.56430 0.03866
 N166 N 0.54516 0.58945 0.06268
 N167 N 0.56176 0.53961 -0.03739
 N168 N 0.58654 0.54735 -0.06119
 N169 N 0.53735 0.56471 -0.03702
 N170 N 0.54489 0.59021 -0.06058
 N171 N 0.56199 0.53923 0.03827
 N172 N 0.58686 0.54663 0.06201
 Mn173 Mn 0.49939 0.56484 0.00105
 C174 C 0.57561 0.57763 0.07735
 C175 C 0.57527 0.57860 -0.07578
 N176 N 0.53738 0.43672 -0.03811
 N177 N 0.54524 0.41113 -0.06161
 N178 N 0.56207 0.46155 0.03766
 N179 N 0.58706 0.45382 0.06111
 N180 N 0.53761 0.43643 0.03761
 N181 N 0.54533 0.41091 0.06103
 N182 N 0.56184 0.46186 -0.03804
 N183 N 0.58694 0.45404 -0.06149
 Mn184 Mn 0.49942 0.43628 -0.00003
 Mn185 Mn 0.56220 0.50058 0.00012
 Cl186 Cl 0.49940 0.50055 0.00052
 C187 C 0.57583 0.42273 -0.07636
 C188 C 0.57587 0.42254 0.07582
 C189 C 1.18552 0.17940 0.17996
 N190 N 1.17622 0.14582 0.19082
 N191 N 1.15584 0.12512 0.17006
 C192 C 1.14423 0.13733 0.13778
 N193 N 1.15357 0.17089 0.12690
 N194 N 1.17394 0.19160 0.14765
 C195 C 1.20682 0.20198 0.20265
 C196 C 1.22455 0.22102 0.22178
 C197 C 1.12110 0.11563 0.11612
 C198 C 1.10096 0.09778 0.09836
 C199 C 1.18368 0.68001 0.68069
 N200 N 1.17442 0.69112 0.64723
 N201 N 1.15424 0.67036 0.62633
 C202 C 1.14284 0.63784 0.63824
 N203 N 1.15213 0.62672 0.67168
 N204 N 1.17230 0.64747 0.69258
 C205 C 1.20513 0.70246 0.70326
 C206 C 1.22329 0.72130 0.72213
 C207 C 1.12007 0.61612 0.61629
 C208 C 1.10022 0.59829 0.59823
 C209 C 0.68061 0.18292 0.68048
 N210 N 0.64878 0.17180 0.69302
 N211 N 0.62757 0.15195 0.67230
 C212 C 0.63749 0.14271 0.63837
 N213 N 0.66930 0.15386 0.62581
 N214 N 0.69052 0.17371 0.64653
 C215 C 0.70352 0.20411 0.70290
 C216 C 0.72256 0.22203 0.72181
 C217 C 0.61520 0.12026 0.61651
 C218 C 0.59695 0.10067 0.59843
 C219 C 0.68014 0.67948 0.18462
 N220 N 0.64784 0.69164 0.17485
 N221 N 0.62650 0.67102 0.15507
 C222 C 0.63678 0.63759 0.14461
 N223 N 0.66906 0.62541 0.15443
 N224 N 0.69041 0.64603 0.17421
 C225 C 0.70319 0.70182 0.20553
 C226 C 0.72232 0.72076 0.22323
 C227 C 0.61451 0.61606 0.12202
 C228 C 0.59635 0.59830 0.10216
 C229 C 0.81591 -0.18012 0.18010
 N230 N 0.82622 -0.19167 0.14700
 N231 N 0.84660 -0.17096 0.12631
 C232 C 0.85722 -0.13804 0.13808
 N233 N 0.84687 -0.12647 0.17116
 N234 N 0.82649 -0.14718 0.19184
 C235 C 0.79463 -0.20275 0.20269
 C236 C 0.77692 -0.22183 0.22174
 C237 C 0.88036 -0.11638 0.11644
 C238 C 0.90052 -0.09861 0.09868
 C239 C 0.81791 0.31934 0.68066
 N240 N 0.82704 0.30839 0.64699
 N241 N 0.84710 0.32926 0.62612
 C242 C 0.85856 0.36177 0.63824
 N243 N 0.84941 0.37272 0.67190
 N244 N 0.82935 0.35185 0.69277
 C245 C 0.79648 0.29675 0.70323
 C246 C 0.77837 0.27785 0.72214
 C247 C 0.88111 0.38375 0.61620
 C248 C 0.90069 0.40187 0.59806
 C249 C 0.32096 -0.18473 0.68001
 N250 N 0.31104 -0.17601 0.64604
 N251 N 0.33210 -0.15614 0.62526
 C252 C 0.36372 -0.14452 0.63779
 N253 N 0.37366 -0.15328 0.67174
 N254 N 0.35260 -0.17315 0.69253
 C255 C 0.29817 -0.20571 0.70253
 C256 C 0.27917 -0.22342 0.72154
 C257 C 0.38563 -0.12183 0.61603
 C258 C 0.40350 -0.10191 0.59808
 C259 C 0.32100 0.31989 0.18476
 N260 N 0.31113 0.35392 0.17621
 N261 N 0.33218 0.37473 0.15635
 C262 C 0.36374 0.36216 0.14458
 N263 N 0.37362 0.32814 0.15317
 N264 N 0.35258 0.30733 0.17302
 C265 C 0.29822 0.29735 0.20572
 C266 C 0.27922 0.27833 0.22342
 C267 C 0.38563 0.38394 0.12190
 C268 C 0.40349 0.40191 0.10198
 C269 C 0.81703 0.17959 -0.17958
 N270 N 0.82742 0.19121 -0.14654
 N271 N 0.84779 0.17056 -0.12590
 C272 C 0.85837 0.13761 -0.13761
 N273 N 0.84796 0.12598 -0.17064
 N274 N 0.82758 0.14663 -0.19128
 C275 C 0.79553 0.20211 -0.20209
 C276 C 0.77760 0.22106 -0.22104
 C277 C 0.88131 0.11584 -0.11585
 C278 C 0.90117 0.09792 -0.09792
 C279 C 0.81799 0.68040 0.31946
 N280 N 0.82847 0.64744 0.30775
 N281 N 0.84870 0.62675 0.32846
 C282 C 0.85897 0.63837 0.36151
 N283 N 0.84846 0.67132 0.37323
 N284 N 0.82823 0.69201 0.35253
 C285 C 0.79646 0.70276 0.29708
 C286 C 0.77826 0.72150 0.27835
 C287 C 0.88177 0.61668 0.38323
 C288 C 0.90163 0.59884 0.40108
 C289 C 0.32076 0.18346 0.32020
 N290 N 0.31047 0.17379 0.35383
 N291 N 0.33149 0.15380 0.37441
 C292 C 0.36345 0.14303 0.36200
 N293 N 0.37376 0.15274 0.32838
 N294 N 0.35274 0.17272 0.30781
 C295 C 0.29803 0.20456 0.29790
 C296 C 0.27909 0.22238 0.27905
 C297 C 0.38536 0.12025 0.38351
 C298 C 0.40324 0.10029 0.40127
 C299 C 0.32064 0.67973 -0.18359
 N300 N 0.35269 0.69204 -0.17299
 N301 N 0.37368 0.67147 -0.15297
 C302 C 0.36327 0.63794 -0.14309
 N303 N 0.33124 0.62561 -0.15373
 N304 N 0.31025 0.64619 -0.17374
 C305 C 0.29793 0.70205 -0.20471
 C306 C 0.27902 0.72091 -0.22253
 C307 C 0.38515 0.61643 -0.12027
 C308 C 0.40302 0.59869 -0.10028
 C309 C 1.18549 -0.17999 -0.17945
 N310 N 1.17591 -0.19103 -0.14601
 N311 N 1.15555 -0.17028 -0.12527
 C312 C 1.14422 -0.13782 -0.13732
 N313 N 1.15384 -0.12676 -0.17073
 N314 N 1.17420 -0.14751 -0.19147
 C315 C 1.20678 -0.20266 -0.20207
 C316 C 1.22451 -0.22178 -0.22113
 C317 C 1.12111 -0.11616 -0.11559
 C318 C 1.10098 -0.09839 -0.09773
 C319 C 1.18379 0.31922 0.32003
 N320 N 1.17209 0.30720 0.35240
 N321 N 1.15193 0.32813 0.37315
 C322 C 1.14297 0.36172 0.36219
 N323 N 1.15470 0.37376 0.32984
 N324 N 1.17486 0.35283 0.30908
 C325 C 1.20523 0.29662 0.29757
 C326 C 1.22336 0.27773 0.27873
 C327 C 1.12020 0.38370 0.38389
 C328 C 1.10034 0.40177 0.40171
 C329 C 0.68014 -0.18482 0.32050
 N330 N 0.69051 -0.17427 0.35387
 N331 N 0.66918 -0.15449 0.37452
 C332 C 0.63683 -0.14481 0.36245
 N333 N 0.62645 -0.15540 0.32909
 N334 N 0.64778 -0.17517 0.30845
 C335 C 0.70319 -0.20572 0.29811
 C336 C 0.72232 -0.22339 0.27915
 C337 C 0.61458 -0.12220 0.38399
 C338 C 0.59643 -0.10232 0.40176
 C339 C 0.68054 0.31955 -0.18298
 N340 N 0.69069 0.35327 -0.17324
 N341 N 0.66946 0.37400 -0.15340
 C342 C 0.63739 0.36168 -0.14279
 N343 N 0.62723 0.32797 -0.15256
 N344 N 0.64845 0.30724 -0.17240
 C345 C 0.70346 0.29712 -0.20414
 C346 C 0.72252 0.27820 -0.22206
 C347 C 0.61507 0.38352 -0.12036
 C348 C 0.59681 0.40160 -0.10077
 C349 C 1.18372 0.18018 -0.18020
 N350 N 1.17331 0.14712 -0.19180
 N351 N 1.15308 0.12634 -0.17102
 C352 C 1.14268 0.13795 -0.13796
 N353 N 1.15311 0.17099 -0.12634
 N354 N 1.17335 0.19177 -0.14712
 C355 C 1.20500 0.20283 -0.20285
 C356 C 1.22276 0.22191 -0.22193
 C357 C 1.11981 0.11611 -0.11611
 C358 C 1.09995 0.09814 -0.09813
 C359 C 1.18334 0.68219 0.31793
 N360 N 1.17329 0.69357 0.35119
 N361 N 1.15305 0.67276 0.37197
 C362 C 1.14228 0.63988 0.36018
 N363 N 1.15235 0.62850 0.32693
 N364 N 1.17258 0.64930 0.30615
 C365 C 1.20498 0.70473 0.29541
 C366 C 1.22322 0.72360 0.27655
 C367 C 1.11962 0.61787 0.38219
 C368 C 1.10002 0.59971 0.40033
 C369 C 0.67891 0.18401 0.31936
 N370 N 0.64780 0.17157 0.30626
 N371 N 0.62671 0.15146 0.32679
 C372 C 0.63605 0.14326 0.36106
 N373 N 0.66715 0.15573 0.37418
 N374 N 0.68824 0.17585 0.35365
 C375 C 0.70178 0.20528 0.29710
 C376 C 0.72083 0.22319 0.27826
 C377 C 0.61403 0.12044 0.38267
 C378 C 0.59605 0.10050 0.40056
 C379 C 0.67887 0.68070 -0.18392
 N380 N 0.64779 0.69386 -0.17145
 N381 N 0.62664 0.67335 -0.15137
 C382 C 0.63591 0.63903 -0.14326
 N383 N 0.66698 0.62586 -0.15576
 N384 N 0.68812 0.64637 -0.17583
 C385 C 0.70178 0.70294 -0.20516
 C386 C 0.72087 0.72176 -0.22305
 C387 C 0.61384 0.61743 -0.12046
 C388 C 0.59585 0.59954 -0.10055
 C389 C 0.81559 -0.18016 -0.17954
 N390 N 0.82794 -0.19297 -0.14778
 N391 N 0.84851 -0.17253 -0.12694
 C392 C 0.85731 -0.13861 -0.13720
 N393 N 0.84493 -0.12579 -0.16895
 N394 N 0.82436 -0.14624 -0.18979
 C395 C 0.79399 -0.20245 -0.20232
 C396 C 0.77601 -0.22126 -0.22150
 C397 C 0.88053 -0.11707 -0.11539
 C398 C 0.90067 -0.09928 -0.09751
 C399 C 0.81664 0.32045 0.31879
 N400 N 0.82520 0.31010 0.35269
 N401 N 0.84558 0.33095 0.37329
 C402 C 0.85796 0.36283 0.36065
 N403 N 0.84937 0.37320 0.32675
 N404 N 0.82898 0.35235 0.30615
 C405 C 0.79498 0.29783 0.29647
 C406 C 0.77676 0.27886 0.27775
 C407 C 0.88090 0.38468 0.38237
 C408 C 0.90083 0.40260 0.40032
 C409 C 0.31791 -0.18379 0.31803
 N410 N 0.30773 -0.17396 0.35173
 N411 N 0.32889 -0.15396 0.37239
 C412 C 0.36093 -0.14326 0.36004
 N413 N 0.37112 -0.15311 0.32635
 N414 N 0.34996 -0.17310 0.30569
 C415 C 0.29506 -0.20522 0.29566
 C416 C 0.27608 -0.22334 0.27680
 C417 C 0.38328 -0.12078 0.38192
 C418 C 0.40162 -0.10126 0.40005
 C419 C 0.31923 0.32076 -0.18408
 N420 N 0.30859 0.35402 -0.17342
 N421 N 0.32965 0.37471 -0.15337
 C422 C 0.36201 0.36279 -0.14348
 N423 N 0.37266 0.32955 -0.15417
 N424 N 0.35160 0.30886 -0.17422
 C425 C 0.29645 0.29831 -0.20531
 C426 C 0.27749 0.27934 -0.22321
 C427 C 0.38409 0.38447 -0.12072
 C428 C 0.40216 0.40235 -0.10083
 C429 C 1.18405 -0.18127 0.18141
 N430 N 1.17361 -0.19290 0.14839
 N431 N 1.15315 -0.17229 0.12777
 C432 C 1.14251 -0.13935 0.13948
 N433 N 1.15297 -0.12771 0.17249
 N434 N 1.17344 -0.14832 0.19311
 C435 C 1.20573 -0.20374 0.20389
 C436 C 1.22381 -0.22265 0.22280
 C437 C 1.11957 -0.11755 0.11765
 C438 C 1.09977 -0.09956 0.09965
 C439 C 1.18187 0.31982 0.68018
 N440 N 1.17156 0.30821 0.64713
 N441 N 1.15137 0.32894 0.62640
 C442 C 1.14097 0.36195 0.63806
 N443 N 1.15131 0.37358 0.67110
 N444 N 1.17149 0.35285 0.69183
 C445 C 1.20341 0.29741 0.70259
 C446 C 1.22162 0.27864 0.72136
 C447 C 1.11832 0.38379 0.61622
 C448 C 1.09865 0.40178 0.59823
 C449 C 0.67949 -0.18287 0.68021
 N450 N 0.68798 -0.17648 0.64528
 N451 N 0.66692 -0.15656 0.62467
 C452 C 0.63668 -0.14255 0.63834
 N453 N 0.62818 -0.14897 0.67326
 N454 N 0.64924 -0.16889 0.69387
 C455 C 0.70224 -0.20411 0.70249
 C456 C 0.72116 -0.22207 0.72128
 C457 C 0.61467 -0.12003 0.61656
 C458 C 0.59664 -0.10037 0.59855
 C459 C 0.67947 0.32003 0.18292
 N460 N 0.68982 0.35362 0.17313
 N461 N 0.66879 0.37425 0.15319
 C462 C 0.63674 0.36194 0.14254
 N463 N 0.62638 0.32837 0.15235
 N464 N 0.64741 0.30774 0.17229
 C465 C 0.70218 0.29772 0.20414
 C466 C 0.72109 0.27890 0.22210
 C467 C 0.61467 0.38364 0.11999
 C468 C 0.59661 0.40159 0.10031
 C469 C 0.81552 0.17968 0.18014
 N470 N 0.82434 0.18994 0.14623
 N471 N 0.84491 0.16910 0.12578
 C472 C 0.85725 0.13731 0.13859
 N473 N 0.84839 0.12704 0.17249
 N474 N 0.82782 0.14788 0.19293
 C475 C 0.79392 0.20247 0.20242
 C476 C 0.77593 0.22165 0.22124
 C477 C 0.88047 0.11549 0.11705
 C478 C 0.90061 0.09760 0.09927
 C479 C 0.81663 0.68119 0.67962
 N480 N 0.82478 0.64710 0.68971
 N481 N 0.84515 0.62649 0.66883
 C482 C 0.85790 0.63932 0.63718
 N483 N 0.84972 0.67340 0.62707
 N484 N 0.82935 0.69401 0.64795
 C485 C 0.79500 0.70350 0.70228
 C486 C 0.77679 0.72223 0.72127
 C487 C 0.88083 0.61758 0.61530
 C488 C 0.90074 0.59963 0.59737
 C489 C 0.31932 0.18413 0.67925
 N490 N 0.30849 0.17302 0.64621
 N491 N 0.32956 0.15298 0.62552
 C492 C 0.36213 0.14355 0.63721
 N493 N 0.37297 0.15469 0.67024
 N494 N 0.35190 0.17473 0.69093
 C495 C 0.29652 0.20535 0.70170
 C496 C 0.27753 0.22324 0.72067
 C497 C 0.38423 0.12080 0.61554
 C498 C 0.40233 0.10090 0.59767
 C499 C 0.31790 0.68209 0.18392
 N500 N 0.34960 0.69472 0.17251
 N501 N 0.37075 0.67404 0.15251
 C502 C 0.36090 0.64005 0.14337
 N503 N 0.32921 0.62741 0.15480
 N504 N 0.30806 0.64809 0.17480
 C505 C 0.29505 0.70447 0.20535
 C506 C 0.27608 0.72335 0.22348
 C507 C 0.38322 0.61814 0.12088
 C508 C 0.40154 0.59999 0.10134
   
