data_POSCAR
  _audit_creation_date              2014-09-24
  _audit_creation_method            'ToBaCCo'
  _symmetry_space_group_name_H-M    'P1'
  _symmetry_Int_Tables_number       1
  _symmetry_cell_setting            triclinic
  loop_
  _symmetry_equiv_pos_as_xyz
 x,y,z
_cell_length_a 26.3626
_cell_length_b 24.5488
_cell_length_c 13.5250
_cell_angle_alpha 89.704100
_cell_angle_beta 90.479300
_cell_angle_gamma 89.896600
loop_
  _atom_site_label
  _atom_site_type_symbol
  _atom_site_fract_x
  _atom_site_fract_y
  _atom_site_fract_z
C1 C 0.66282 0.36943 0.48495
 C2 C 0.68960 0.36002 0.57485
 C3 C 0.73120 0.32375 0.57411
 C4 C 0.74474 0.29551 0.48810
 C5 C 0.71721 0.30543 0.40058
 C6 C 0.67791 0.34387 0.39668
 C7 C 0.78828 0.25641 0.48866
 C8 C 0.81881 0.25075 0.40427
 C9 C 0.85816 0.21199 0.40165
 C10 C 0.86977 0.18276 0.48820
 C11 C 0.84048 0.18772 0.57264
 C12 C 0.79916 0.22392 0.57233
 H13 H 0.63244 0.39910 0.48195
 H14 H 0.75282 0.31629 0.64096
 H15 H 0.72636 0.28304 0.33438
 H16 H 0.81101 0.27605 0.34051
 H17 H 0.90266 0.15661 0.49156
 H18 H 0.77534 0.22637 0.63691
 C19 C 0.13380 0.82819 0.48878
 C20 C 0.16493 0.81988 0.57340
 C21 C 0.20353 0.78017 0.56828
 C22 C 0.21051 0.74821 0.48378
 C23 C 0.17933 0.75747 0.40095
 C24 C 0.14234 0.79872 0.40020
 C25 C 0.25170 0.70634 0.48111
 C26 C 0.27885 0.69711 0.39387
 C27 C 0.31783 0.65822 0.39035
 C28 C 0.33251 0.63118 0.47840
 C29 C 0.30566 0.63942 0.56732
 C30 C 0.26441 0.67600 0.56619
 H31 H 0.10491 0.85947 0.49033
 H32 H 0.22818 0.77294 0.63106
 H33 H 0.18482 0.73266 0.33639
 H34 H 0.26998 0.72074 0.32824
 H35 H 0.36270 0.60135 0.47602
 H36 H 0.24282 0.68257 0.63254
 C37 C 0.37217 0.31356 -0.48394
 C38 C 0.34135 0.31065 -0.56760
 C39 C 0.29847 0.27693 -0.56634
 C40 C 0.28635 0.24653 -0.48108
 C41 C 0.31683 0.25238 -0.39556
 C42 C 0.35905 0.28716 -0.39610
 C43 C 0.24172 0.20937 -0.48137
 C44 C 0.21157 0.20331 -0.39668
 C45 C 0.17065 0.16631 -0.39430
 C46 C 0.15825 0.13841 -0.48245
 C47 C 0.18770 0.14443 -0.56796
 C48 C 0.22973 0.17911 -0.56614
 H49 H 0.40657 0.33729 -0.48723
 H50 H 0.27402 0.27514 -0.63093
 H51 H 0.30737 0.23038 -0.32883
 H52 H 0.22065 0.22778 -0.33304
 H53 H 0.12664 0.11052 -0.48503
 H54 H 0.25305 0.18279 -0.63134
 C55 C -0.16937 0.87091 -0.48314
 C56 C -0.19492 0.86184 -0.57420
 C57 C -0.23673 0.82594 -0.57484
 C58 C -0.25183 0.79786 -0.48910
 C59 C -0.22569 0.80779 -0.40025
 C60 C -0.18608 0.84562 -0.39528
 C61 C -0.29546 0.75893 -0.49184
 C62 C -0.32654 0.75158 -0.40825
 C63 C -0.36666 0.71410 -0.41003
 C64 C -0.37792 0.68680 -0.49762
 C65 C -0.34733 0.69215 -0.58024
 C66 C -0.30588 0.72794 -0.57727
 H67 H -0.13877 0.90014 -0.47899
 H68 H -0.25744 0.81873 -0.64260
 H69 H -0.23594 0.78588 -0.33381
 H70 H -0.31920 0.77433 -0.34157
 H71 H -0.41099 0.66095 -0.50167
 H72 H -0.28139 0.73076 -0.64086
 O73 O -0.05175 0.95782 0.19620
 O74 O 0.05267 0.93207 -0.13982
 O75 O -0.10194 0.97603 -0.08326
 O76 O 0.06363 0.91747 0.04106
 O77 O -0.03956 0.92521 -0.13269
 O78 O 0.04252 0.94726 0.18554
 O79 O 0.12309 0.96373 -0.07670
 O80 O -0.10888 0.99410 0.09562
 C81 C -0.09701 0.96356 0.16838
 C82 C 0.10064 0.93684 -0.14791
 C83 C -0.08594 0.93287 -0.12312
 C84 C 0.06020 0.91023 0.13280
 O85 O 0.05078 1.05538 0.17560
 O86 O -0.05221 1.02350 -0.20879
 O87 O -0.07106 1.09508 0.06239
 O88 O 0.08352 1.05593 -0.05262
 O89 O 0.04162 1.03956 -0.18621
 O90 O -0.04191 1.06217 0.19832
 O91 O 0.10692 1.00755 0.10140
 O92 O -0.05607 1.07921 -0.09683
 Co93 Co 0.00007 1.00514 0.17190
 Co94 Co 0.00069 0.98295 -0.14982
 Co95 Co -0.07849 1.03303 -0.00572
 Co96 Co 0.06962 0.98770 -0.00768
 O97 O -0.00485 1.00372 0.01031
 C98 C 0.09611 1.04372 0.16266
 C99 C -0.06645 1.06909 -0.18138
 C100 C -0.06229 1.10003 0.15098
 C101 C 0.07262 1.06841 -0.13947
 O102 O 0.45885 0.47027 0.24343
 O103 O 0.54814 0.45029 -0.19110
 O104 O 0.43751 0.40734 -0.05646
 O105 O 0.59601 0.47595 0.07881
 O106 O 0.45362 0.44339 -0.19694
 O107 O 0.53114 0.43339 0.14102
 O108 O 0.60342 0.49457 -0.10066
 O109 O 0.44076 0.42970 0.10792
 C110 C 0.42958 0.43620 0.19699
 C111 C 0.59300 0.45960 -0.16656
 C112 C 0.44079 0.40300 -0.14660
 C113 C 0.57785 0.43611 0.12684
 O114 O 0.54683 0.52752 0.21385
 O115 O 0.44788 0.54974 -0.19291
 O116 O 0.39788 0.52929 0.07039
 O117 O 0.55859 0.59409 -0.06788
 O118 O 0.54200 0.55524 -0.20449
 O119 O 0.46219 0.56061 0.14947
 O120 O 0.55117 0.57841 0.09288
 O121 O 0.39283 0.50465 -0.10528
 Co122 Co 0.49511 0.49651 0.13805
 Co123 Co 0.49785 0.49990 -0.17889
 Co124 Co 0.42364 0.47088 0.00277
 Co125 Co 0.57174 0.53286 0.00016
 O126 O 0.49899 0.50191 -0.01582
 C127 C 0.56444 0.57004 0.17840
 C128 C 0.40307 0.53988 -0.17074
 C129 C 0.41658 0.56389 0.12768
 C130 C 0.55480 0.59662 -0.15798
 N131 N 0.36832 0.36023 0.18997
 N132 N 0.34445 0.32730 0.25108
 C133 C 0.35511 0.34267 0.34416
 C134 C 0.38654 0.38835 0.34197
 C135 C 0.39417 0.39774 0.24272
 H136 H 0.40378 0.40980 0.40329
 H137 H 0.36895 0.35486 0.11349
 H138 H 0.32399 0.29305 0.22881
 N139 N -0.18263 0.92195 0.18357
 N140 N -0.20954 0.89299 0.25491
 C141 C -0.18009 0.88850 0.33717
 C142 C -0.13381 0.91412 0.31870
 C143 C -0.13691 0.93390 0.22205
 H144 H -0.10148 0.91741 0.36810
 H145 H -0.19610 0.93168 0.11282
 H146 H -0.24699 0.88039 0.24496
 N147 N 0.62216 0.64897 0.17542
 N148 N 0.64673 0.68058 0.23791
 C149 C 0.63930 0.66149 0.32994
 C150 C 0.60944 0.61462 0.32544
 C151 C 0.59905 0.60869 0.22613
 H152 H 0.59458 0.59045 0.38569
 H153 H 0.61953 0.65657 0.09949
 H154 H 0.66524 0.71649 0.21776
 N155 N 0.18556 1.06803 0.20537
 N156 N 0.20961 1.09471 0.27632
 C157 C 0.17520 1.11370 0.34107
 C158 C 0.12714 1.09887 0.30917
 C159 C 0.13543 1.07012 0.22297
 H160 H 0.09120 1.10730 0.34410
 H161 H 0.20333 1.04856 0.14651
 H162 H 0.24899 1.09857 0.28108
 N163 N 0.67986 0.42033 -0.18361
 N164 N 0.70634 0.39161 -0.25566
 C165 C 0.67591 0.38661 -0.33635
 C166 C 0.62955 0.41139 -0.31622
 C167 C 0.63348 0.43130 -0.22033
 H168 H 0.59646 0.41386 -0.36396
 H169 H 0.69387 0.43018 -0.11352
 H170 H 0.74404 0.37932 -0.24736
 N171 N 0.17946 0.88928 -0.19456
 N172 N 0.19715 0.85652 -0.27052
 C173 C 0.15970 0.85101 -0.33877
 C174 C 0.11719 0.88036 -0.30643
 C175 C 0.13121 0.90297 -0.21539
 H176 H 0.08065 0.88396 -0.34289
 H177 H 0.20058 0.90021 -0.13209
 H178 H 0.23448 0.84254 -0.27392
 N179 N 0.31572 0.57723 -0.19168
 N180 N 0.28888 0.60587 -0.26464
 C181 C 0.31938 0.61192 -0.34405
 C182 C 0.36610 0.58784 -0.32233
 C183 C 0.36232 0.56736 -0.22665
 H184 H 0.39935 0.58648 -0.36864
 H185 H 0.30183 0.56690 -0.12197
 H186 H 0.25102 0.61757 -0.25772
 N187 N -0.12531 1.14693 -0.18295
 N188 N -0.15128 1.17725 -0.24592
 C189 C -0.14420 1.15764 -0.33728
 C190 C -0.11283 1.11159 -0.33170
 C191 C -0.10143 1.10678 -0.23227
 H192 H -0.09796 1.08724 -0.39132
 H193 H -0.12259 1.15519 -0.10741
 H194 H -0.17060 1.21274 -0.22653
 N195 N 0.58666 0.69198 -0.16475
 N196 N 0.60786 0.72374 -0.23193
 C197 C 0.60579 0.69815 -0.31990
 C198 C 0.58163 0.64854 -0.30783
 C199 C 0.57084 0.64595 -0.20916
 H200 H 0.57761 0.61570 -0.36035
 H201 H 0.58562 0.70054 -0.08921
 H202 H 0.62519 0.76091 -0.21604
 N203 N 0.12831 1.15000 -0.14364
 N204 N 0.15651 1.17699 -0.21563
 C205 C 0.14453 1.15543 -0.30488
 C206 C 0.10723 1.11587 -0.29069
 C207 C 0.09905 1.11314 -0.18969
 H208 H 0.09142 1.08814 -0.34452
 H209 H 0.13312 1.15466 -0.06743
 H210 H 0.18432 1.20565 -0.19858
 N211 N 0.40361 0.30965 -0.14823
 N212 N 0.38140 0.27833 -0.21506
 C213 C 0.38688 0.30181 -0.30480
 C214 C 0.41441 0.34939 -0.29401
 C215 C 0.42347 0.35328 -0.19461
 H216 H 0.42145 0.38094 -0.34830
 H217 H 0.40227 0.30287 -0.07198
 H218 H 0.36081 0.24330 -0.19797
 N219 N -0.16853 0.88524 -0.14135
 N220 N -0.19492 0.86295 -0.21406
 C221 C -0.16607 0.86117 -0.29613
 C222 C -0.11867 0.88244 -0.27339
 C223 C -0.12188 0.89703 -0.17440
 H224 H -0.08775 0.89047 -0.32350
 H225 H -0.18317 0.89463 -0.07195
 H226 H -0.23319 0.85249 -0.20871
 N227 N 0.34040 0.62333 0.13615
 N228 N 0.31419 0.64764 0.20620
 C229 C 0.33995 0.64375 0.29281
 C230 C 0.38533 0.61659 0.27574
 C231 C 0.38393 0.60425 0.17561
 H232 H 0.41311 0.60293 0.32980
 H233 H 0.32720 0.61720 0.06402
 H234 H 0.27758 0.66299 0.19551
 N235 N -0.10065 1.19223 0.15365
 N236 N -0.12408 1.22402 0.22520
 C237 C -0.11648 1.19928 0.31364
 C238 C -0.08680 1.15299 0.30003
 C239 C -0.07924 1.14932 0.20020
 H240 H -0.07753 1.12113 0.35265
 H241 H -0.10429 1.19819 0.07741
 H242 H -0.14621 1.25818 0.20877
 N243 N 0.65729 0.38216 0.14193
 N244 N 0.68371 0.35857 0.21373
 C245 C 0.65660 0.35972 0.29813
 C246 C 0.61018 0.38447 0.27777
 C247 C 0.61227 0.39796 0.17783
 H248 H 0.58091 0.39544 0.32968
 H249 H 0.67104 0.38976 0.07098
 H250 H 0.72112 0.34532 0.20586
 N251 N 0.10254 0.81859 0.14477
 N252 N 0.12364 0.78893 0.21624
 C253 C 0.11642 0.81370 0.30461
 C254 C 0.08855 0.86061 0.28724
 C255 C 0.08106 0.86257 0.18556
 H256 H 0.07878 0.89198 0.33967
 H257 H 0.10476 0.80979 0.06945
 H258 H 0.14418 0.75347 0.20258
   
