data_POSCAR
  _audit_creation_date              2014-09-24
  _audit_creation_method            'ToBaCCo'
  _symmetry_space_group_name_H-M    'P1'
  _symmetry_Int_Tables_number       1
  _symmetry_cell_setting            triclinic
  loop_
  _symmetry_equiv_pos_as_xyz
 x,y,z
_cell_length_a 40.1991
_cell_length_b 37.9261
_cell_length_c 51.5999
_cell_angle_alpha 89.999700
_cell_angle_beta 89.999700
_cell_angle_gamma 90.000000
loop_
  _atom_site_label
  _atom_site_type_symbol
  _atom_site_fract_x
  _atom_site_fract_y
  _atom_site_fract_z
B1 B 0.26093 0.23433 0.22255
 B2 B 0.26920 0.27557 0.23227
 B3 B 0.23022 0.26394 0.22448
 B4 B 0.22330 0.22212 0.23418
 B5 B 0.25918 0.20798 0.24856
 B6 B 0.28784 0.24128 0.24712
 B7 B 0.23557 0.26405 0.27634
 B8 B 0.22726 0.22285 0.26662
 B9 B 0.26633 0.23443 0.27438
 B10 B 0.27320 0.27627 0.26469
 B11 B 0.23728 0.29042 0.25031
 B12 B 0.20866 0.25710 0.25175
 B13 B 0.73324 0.76551 0.27443
 B14 B 0.77231 0.77710 0.26667
 B15 B 0.76401 0.73589 0.27639
 B16 B 0.72638 0.72367 0.26474
 B17 B 0.71174 0.75867 0.24717
 B18 B 0.74039 0.79196 0.24861
 B19 B 0.76936 0.73601 0.22453
 B20 B 0.73038 0.72438 0.23232
 B21 B 0.73865 0.76562 0.22261
 B22 B 0.77628 0.77783 0.23424
 B23 B 0.79092 0.74285 0.25180
 B24 B 0.76230 0.70953 0.25036
 B25 B 0.73866 0.23430 -0.22193
 B26 B 0.73039 0.27554 -0.23165
 B27 B 0.76937 0.26391 -0.22385
 B28 B 0.77629 0.22209 -0.23356
 B29 B 0.74040 0.20796 -0.24793
 B30 B 0.71175 0.24125 -0.24650
 B31 B 0.76402 0.26403 -0.27572
 B32 B 0.77232 0.22282 -0.26600
 B33 B 0.73325 0.23441 -0.27376
 B34 B 0.72639 0.27625 -0.26407
 B35 B 0.76231 0.29039 -0.24969
 B36 B 0.79093 0.25707 -0.25112
 B37 B 0.26094 0.76560 -0.22188
 B38 B 0.26921 0.72436 -0.23159
 B39 B 0.23023 0.73599 -0.22380
 B40 B 0.22330 0.77781 -0.23350
 B41 B 0.25919 0.79195 -0.24788
 B42 B 0.28784 0.75866 -0.24644
 B43 B 0.23557 0.73588 -0.27566
 B44 B 0.22727 0.77709 -0.26594
 B45 B 0.26634 0.76550 -0.27370
 B46 B 0.27320 0.72366 -0.26401
 B47 B 0.23729 0.70952 -0.24963
 B48 B 0.20866 0.74284 -0.25107
 B49 B 1.24137 1.26891 0.72298
 B50 B 1.22649 1.22930 0.73151
 B51 B 1.26679 1.23402 0.72393
 B52 B 1.28035 1.27333 0.73490
 B53 B 1.24722 1.29300 0.74982
 B54 B 1.21357 1.26561 0.74738
 B55 B 1.26126 1.23199 0.77583
 B56 B 1.27618 1.27156 0.76728
 B57 B 1.23581 1.26687 0.77485
 B58 B 1.22230 1.22754 0.76387
 B59 B 1.25543 1.20789 0.74897
 B60 B 1.28906 1.23527 0.75140
 B61 B 0.75822 0.73106 0.72293
 B62 B 0.77311 0.77066 0.73145
 B63 B 0.73280 0.76595 0.72388
 B64 B 0.71925 0.72664 0.73485
 B65 B 0.75238 0.70696 0.74977
 B66 B 0.78602 0.73435 0.74733
 B67 B 0.73834 0.76798 0.77578
 B68 B 0.72342 0.72841 0.76723
 B69 B 0.76379 0.73310 0.77479
 B70 B 0.77730 0.77242 0.76382
 B71 B 0.74417 0.79208 0.74892
 B72 B 0.71054 0.76470 0.75135
 B73 B 1.24138 0.73102 0.27769
 B74 B 1.22650 0.77062 0.26916
 B75 B 1.26680 0.76590 0.27674
 B76 B 1.28036 0.72660 0.26577
 B77 B 1.24723 0.70692 0.25085
 B78 B 1.21358 0.73431 0.25329
 B79 B 1.26126 0.76793 0.22484
 B80 B 1.27618 0.72836 0.23339
 B81 B 1.23581 0.73305 0.22583
 B82 B 1.22231 0.77238 0.23680
 B83 B 1.25543 0.79203 0.25170
 B84 B 1.28907 0.76465 0.24926
 B85 B 0.76379 1.26684 0.22589
 B86 B 0.72342 1.27153 0.23345
 B87 B 0.73834 1.23195 0.22490
 B88 B 0.77730 1.22751 0.23686
 B89 B 0.78603 1.26558 0.25335
 B90 B 0.75238 1.29297 0.25091
 B91 B 0.73281 1.23399 0.27680
 B92 B 0.77311 1.22927 0.26922
 B93 B 0.75823 1.26887 0.27775
 B94 B 0.71925 1.27329 0.26583
 B95 B 0.71054 1.23524 0.24933
 B96 B 0.74418 1.20786 0.25176
 O97 O 0.48095 1.06055 0.03229
 O98 O 0.51871 0.93939 0.03228
 O99 O 0.44277 0.98234 0.03287
 O100 O 0.55689 1.01759 0.03287
 O101 O 0.46224 0.93318 0.01965
 O102 O 0.53742 1.06675 0.01966
 O103 O 0.56374 0.95860 0.01664
 O104 O 0.43593 1.04134 0.01665
 C105 C 0.45056 1.05709 0.03435
 C106 C 0.54910 0.94284 0.03435
 C107 C 0.44573 0.95018 0.03600
 C108 C 0.55392 1.04975 0.03600
 O109 O 0.51871 1.06055 -0.03160
 O110 O 0.48095 0.93939 -0.03161
 O111 O 0.44278 1.01760 -0.03219
 O112 O 0.55689 0.98235 -0.03219
 O113 O 0.53743 0.93319 -0.01898
 O114 O 0.46224 1.06675 -0.01897
 O115 O 0.56374 1.04134 -0.01596
 O116 O 0.43592 0.95860 -0.01597
 Co117 Co 0.49983 1.05745 0.00034
 Co118 Co 0.49983 0.94249 0.00034
 Co119 Co 0.44549 0.99997 0.00034
 Co120 Co 0.55417 0.99997 0.00034
 O121 O 0.49983 0.99997 0.00034
 C122 C 0.54910 1.05709 -0.03367
 C123 C 0.45057 0.94285 -0.03367
 C124 C 0.44574 1.04976 -0.03532
 C125 C 0.55393 0.95019 -0.03532
 O126 O 0.96216 0.56677 0.51954
 O127 O 1.03750 0.43318 0.51954
 O128 O 0.93589 0.45863 0.51680
 O129 O 1.06377 0.54132 0.51680
 O130 O 0.98101 0.43940 0.53231
 O131 O 1.01865 0.56054 0.53231
 O132 O 1.05685 0.48232 0.53282
 O133 O 0.94281 0.51763 0.53282
 C134 C 0.94567 0.54979 0.53588
 C135 C 1.05399 0.45016 0.53589
 C136 C 0.95061 0.44272 0.53441
 C137 C 1.04905 0.55723 0.53441
 O138 O 1.03750 0.56677 0.48113
 O139 O 0.96216 0.43317 0.48114
 O140 O 0.93589 0.54131 0.48388
 O141 O 1.06377 0.45863 0.48388
 O142 O 1.01865 0.43940 0.46837
 O143 O 0.98101 0.56054 0.46837
 O144 O 1.05685 0.51762 0.46785
 O145 O 0.94281 0.48232 0.46786
 Co146 Co 0.99983 0.55745 0.50034
 Co147 Co 0.99983 0.44250 0.50034
 Co148 Co 0.94551 0.49997 0.50034
 Co149 Co 1.05415 0.49997 0.50034
 O150 O 0.99983 0.49997 0.50034
 C151 C 1.05399 0.54978 0.46479
 C152 C 0.94567 0.45015 0.46480
 C153 C 0.95061 0.55722 0.46627
 C154 C 1.04905 0.44272 0.46627
 O155 O 1.02348 0.46001 0.04904
 O156 O 1.02348 0.53992 -0.04837
 O157 O 1.02170 0.43192 -0.02997
 O158 O 1.02169 0.56801 0.03064
 O159 O 1.04080 0.48047 -0.04381
 O160 O 1.04080 0.51946 0.04448
 O161 O 1.04148 0.56099 -0.01287
 O162 O 1.04148 0.43894 0.01354
 C163 C 1.04557 0.44385 0.03698
 C164 C 1.04557 0.55608 -0.03630
 C165 C 1.04376 0.44821 -0.04194
 C166 C 1.04376 0.55172 0.04262
 O167 O 0.97600 0.53990 0.04905
 O168 O 0.97600 0.46003 -0.04838
 O169 O 0.97779 0.43190 0.03063
 O170 O 0.97779 0.56802 -0.02995
 O171 O 0.95868 0.51947 -0.04381
 O172 O 0.95868 0.48045 0.04448
 O173 O 0.95800 0.56098 0.01355
 O174 O 0.95800 0.43895 -0.01288
 Co175 Co 0.99974 0.49995 0.04229
 Co176 Co 0.99974 0.49997 -0.04162
 Co177 Co 0.99974 0.44197 0.00033
 Co178 Co 0.99974 0.55796 0.00034
 O179 O 0.99974 0.49996 0.00034
 C180 C 0.95392 0.55607 0.03699
 C181 C 0.95392 0.44386 -0.03632
 C182 C 0.95572 0.44819 0.04261
 C183 C 0.95572 0.55173 -0.04194
 O184 O 0.52425 0.96040 0.54892
 O185 O 0.52426 1.03953 0.45176
 O186 O 0.52091 0.93172 0.46984
 O187 O 0.52090 1.06822 0.53084
 O188 O 0.54059 0.98001 0.45624
 O189 O 0.54059 1.01993 0.54444
 O190 O 0.54162 1.06106 0.48741
 O191 O 0.54162 0.93887 0.51327
 C192 C 0.54606 0.94397 0.53668
 C193 C 0.54607 1.05597 0.46400
 C194 C 0.54325 0.94775 0.45807
 C195 C 0.54324 1.05219 0.54260
 O196 O 0.47521 1.03953 0.54892
 O197 O 0.47522 0.96041 0.45175
 O198 O 0.47856 0.93172 0.53083
 O199 O 0.47857 1.06822 0.46984
 O200 O 0.45889 1.01994 0.45624
 O201 O 0.45888 0.98001 0.54443
 O202 O 0.45785 1.06106 0.51327
 O203 O 0.45786 0.93888 0.48740
 Co204 Co 0.49973 0.99997 0.54224
 Co205 Co 0.49974 0.99997 0.45843
 Co206 Co 0.49974 0.94190 0.50034
 Co207 Co 0.49974 1.05804 0.50034
 O208 O 0.49974 0.99997 0.50034
 C209 C 0.45341 1.05597 0.53668
 C210 C 0.45341 0.94397 0.46399
 C211 C 0.45622 0.94775 0.54260
 C212 C 0.45623 1.05220 0.45807
 O213 O 1.05703 1.04276 0.48428
 O214 O 0.94271 1.04275 0.51642
 O215 O 0.98509 1.04484 0.45587
 O216 O 1.01464 1.04480 0.54482
 O217 O 0.93826 1.02919 0.47235
 O218 O 1.06147 1.02916 0.52834
 O219 O 0.95985 1.01887 0.55042
 O220 O 1.03988 1.01891 0.45027
 C221 C 1.05359 1.04428 0.46063
 C222 C 0.94614 1.04425 0.54007
 C223 C 0.95502 1.05048 0.45902
 C224 C 1.04471 1.05045 0.54168
 O225 O 1.05703 0.95716 0.51640
 O226 O 0.94271 0.95717 0.48425
 O227 O 1.01465 0.95512 0.45586
 O228 O 0.98508 0.95508 0.54480
 O229 O 0.93825 0.97073 0.52832
 O230 O 1.06148 0.97076 0.47234
 O231 O 1.03988 0.98101 0.55041
 O232 O 0.95986 0.98105 0.45025
 Co233 Co 1.05382 0.99996 0.50034
 Co234 Co 0.94592 0.99996 0.50033
 Co235 Co 0.99987 0.99998 0.45787
 Co236 Co 0.99986 0.99994 0.54280
 O237 O 0.99987 0.99996 0.50034
 C238 C 1.05358 0.95564 0.54005
 C239 C 0.94615 0.95567 0.46060
 C240 C 1.04472 0.94947 0.45900
 C241 C 0.95501 0.94944 0.54165
 O242 O 0.56136 0.52932 -0.02762
 O243 O 0.43836 0.52933 0.02828
 O244 O 0.45979 0.51874 -0.04987
 O245 O 0.53993 0.51875 0.05054
 O246 O 0.44272 0.54265 -0.01584
 O247 O 0.55701 0.54265 0.01651
 O248 O 0.48524 0.54485 0.04478
 O249 O 0.51449 0.54484 -0.04411
 C250 C 0.54454 0.55056 -0.04097
 C251 C 0.45518 0.55057 0.04163
 C252 C 0.44580 0.54396 -0.03953
 C253 C 0.55392 0.54398 0.04019
 O254 O 0.56136 0.47059 0.02829
 O255 O 0.43837 0.47058 -0.02761
 O256 O 0.53994 0.48116 -0.04986
 O257 O 0.45979 0.48117 0.05054
 O258 O 0.44272 0.45726 0.01651
 O259 O 0.55701 0.45726 -0.01583
 O260 O 0.51448 0.45507 0.04478
 O261 O 0.48524 0.45506 -0.04411
 Co262 Co 0.55377 0.49996 0.00034
 Co263 Co 0.44596 0.49995 0.00033
 Co264 Co 0.49986 0.49995 -0.04212
 Co265 Co 0.49986 0.49996 0.04279
 O266 O 0.49986 0.49996 0.00034
 C267 C 0.54454 0.44935 0.04164
 C268 C 0.45518 0.44934 -0.04096
 C269 C 0.55392 0.45593 -0.03952
 C270 C 0.44580 0.45595 0.04020
 C271 C 0.31071 1.18596 0.15845
 N272 N 0.28133 1.17261 0.16708
 N273 N 0.26453 1.18870 0.18601
 C274 C 0.27634 1.21891 0.19676
 N275 N 0.30536 1.23242 0.18770
 N276 N 0.32216 1.21639 0.16890
 C277 C 0.33136 1.16664 0.13973
 N278 N 0.36307 1.17725 0.13501
 N279 N 0.38265 1.15902 0.11908
 C280 C 0.37124 1.12947 0.10724
 N281 N 0.33947 1.11893 0.11183
 N282 N 0.31992 1.13707 0.12790
 C283 C 0.39263 1.10960 0.08935
 N284 N 0.37956 1.08351 0.07456
 N285 N 0.39843 1.06637 0.05752
 C286 C 0.43116 1.07438 0.05479
 N287 N 0.44444 1.10016 0.06982
 N288 N 0.42546 1.11751 0.08679
 C289 C 0.80110 0.67625 0.65849
 N290 N 0.80015 0.71205 0.65872
 N291 N 0.78486 0.72926 0.67784
 C292 C 0.76991 0.71139 0.69744
 N293 N 0.77014 0.67559 0.69679
 N294 N 0.78532 0.65835 0.67766
 C295 C 0.82137 0.65722 0.63929
 N296 N 0.82293 0.62144 0.63962
 N297 N 0.84307 0.60420 0.62348
 C298 C 0.86261 0.62211 0.60652
 N299 N 0.86092 0.65788 0.60609
 N300 N 0.84072 0.67511 0.62220
 C301 C 0.88524 0.60314 0.58895
 N302 N 0.90573 0.62119 0.57277
 N303 N 0.92567 0.60410 0.55641
 C304 C 0.92598 0.56831 0.55565
 N305 N 0.90569 0.55023 0.57197
 N306 N 0.88578 0.56733 0.58838
 C307 C 0.68889 0.81398 0.15849
 N308 N 0.71827 0.82732 0.16712
 N309 N 0.73506 0.81123 0.18605
 C310 C 0.72324 0.78104 0.19681
 N311 N 0.69422 0.76753 0.18775
 N312 N 0.67743 0.78356 0.16895
 C313 C 0.66825 0.83330 0.13976
 N314 N 0.63654 0.82270 0.13505
 N315 N 0.61696 0.84093 0.11910
 C316 C 0.62839 0.87046 0.10725
 N317 N 0.66017 0.88099 0.11184
 N318 N 0.67970 0.86286 0.12792
 C319 C 0.60701 0.89034 0.08936
 N320 N 0.62009 0.91641 0.07456
 N321 N 0.60123 0.93355 0.05752
 C322 C 0.56850 0.92555 0.05479
 N323 N 0.55520 0.89978 0.06982
 N324 N 0.57417 0.88244 0.08679
 C325 C 1.19850 0.32371 0.65854
 N326 N 1.21427 0.34161 0.67771
 N327 N 1.22944 0.32438 0.69685
 C328 C 1.22968 0.28858 0.69750
 N329 N 1.21474 0.27070 0.67789
 N330 N 1.19946 0.28792 0.65876
 C331 C 1.17824 0.34274 0.63933
 N332 N 1.15889 0.32485 0.62223
 N333 N 1.13871 0.34208 0.60612
 C334 C 1.13702 0.37785 0.60655
 N335 N 1.15654 0.39575 0.62351
 N336 N 1.17668 0.37852 0.63966
 C337 C 1.11439 0.39681 0.58897
 N338 N 1.11386 0.43262 0.58840
 N339 N 1.09395 0.44973 0.57198
 C340 C 1.07367 0.43164 0.55566
 N341 N 1.07398 0.39585 0.55642
 N342 N 1.09391 0.37876 0.57279
 C343 C 0.68890 1.18593 -0.15782
 N344 N 0.71828 1.17259 -0.16644
 N345 N 0.73507 1.18868 -0.18538
 C346 C 0.72325 1.21888 -0.19614
 N347 N 0.69423 1.23239 -0.18708
 N348 N 0.67744 1.21636 -0.16828
 C349 C 0.66826 1.16662 -0.13908
 N350 N 0.63655 1.17723 -0.13437
 N351 N 0.61697 1.15900 -0.11843
 C352 C 0.62840 1.12946 -0.10658
 N353 N 0.66017 1.11893 -0.11117
 N354 N 0.67971 1.13706 -0.12725
 C355 C 0.60702 1.10959 -0.08868
 N356 N 0.62010 1.08352 -0.07388
 N357 N 0.60123 1.06638 -0.05684
 C358 C 0.56850 1.07438 -0.05411
 N359 N 0.55521 1.10015 -0.06915
 N360 N 0.57418 1.11749 -0.08612
 C361 C 1.19852 0.67622 0.34214
 N362 N 1.19947 0.71202 0.34191
 N363 N 1.21475 0.72923 0.32279
 C364 C 1.22969 0.71135 0.30318
 N365 N 1.22945 0.67555 0.30383
 N366 N 1.21428 0.65832 0.32297
 C367 C 1.17825 0.65719 0.36134
 N368 N 1.17668 0.62142 0.36102
 N369 N 1.15655 0.60418 0.37717
 C370 C 1.13702 0.62209 0.39413
 N371 N 1.13872 0.65786 0.39456
 N372 N 1.15891 0.67509 0.37845
 C373 C 1.11439 0.60313 0.41171
 N374 N 1.09392 0.62118 0.42789
 N375 N 1.07398 0.60409 0.44426
 C376 C 1.07367 0.56831 0.44501
 N377 N 1.09395 0.55022 0.42870
 N378 N 1.11386 0.56732 0.41228
 C379 C 0.31072 0.81397 -0.15777
 N380 N 0.28134 0.82732 -0.16640
 N381 N 0.26454 0.81123 -0.18533
 C382 C 0.27635 0.78102 -0.19608
 N383 N 0.30536 0.76751 -0.18702
 N384 N 0.32216 0.78354 -0.16823
 C385 C 0.33137 0.83329 -0.13905
 N386 N 0.36307 0.82268 -0.13434
 N387 N 0.38266 0.84091 -0.11840
 C388 C 0.37125 0.87046 -0.10656
 N389 N 0.33947 0.88100 -0.11115
 N390 N 0.31993 0.86286 -0.12722
 C391 C 0.39263 0.89034 -0.08867
 N392 N 0.37956 0.91642 -0.07388
 N393 N 0.39843 0.93356 -0.05684
 C394 C 0.43116 0.92556 -0.05411
 N395 N 0.44445 0.89977 -0.06914
 N396 N 0.42547 0.88243 -0.08611
 C397 C 0.80110 0.32369 0.34219
 N398 N 0.78533 0.34158 0.32302
 N399 N 0.77015 0.32435 0.30389
 C400 C 0.76992 0.28855 0.30323
 N401 N 0.78487 0.27067 0.32284
 N402 N 0.80016 0.28789 0.34196
 C403 C 0.82138 0.34272 0.36139
 N404 N 0.84073 0.32483 0.37848
 N405 N 0.86092 0.34206 0.39459
 C406 C 0.86261 0.37783 0.39416
 N407 N 0.84308 0.39573 0.37720
 N408 N 0.82294 0.37850 0.36105
 C409 C 0.88525 0.39680 0.41173
 N410 N 0.88578 0.43261 0.41230
 N411 N 0.90569 0.44971 0.42871
 C412 C 0.92598 0.43163 0.44502
 N413 N 0.92567 0.39584 0.44427
 N414 N 0.90573 0.37875 0.42791
 C415 C 1.18265 0.31514 0.16038
 N416 N 1.19828 0.28375 0.15658
 N417 N 1.21256 0.26691 0.17644
 C418 C 1.21138 0.28082 0.20073
 N419 N 1.19542 0.31189 0.20437
 N420 N 1.18136 0.32867 0.18465
 C421 C 1.16723 0.33512 0.13917
 N422 N 1.15520 0.36778 0.14424
 N423 N 1.13980 0.38625 0.12598
 C424 C 1.13579 0.37290 0.10183
 N425 N 1.14813 0.34029 0.09650
 N426 N 1.16372 0.32172 0.11487
 C427 C 1.11571 0.39282 0.08308
 N428 N 1.10937 0.38060 0.05880
 N429 N 1.08822 0.39772 0.04327
 C430 C 1.07269 0.42749 0.05162
 N431 N 1.07955 0.43985 0.07566
 N432 N 1.10074 0.42297 0.09101
 C433 C 0.68899 0.81887 0.65867
 N434 N 0.69744 0.78423 0.65670
 N435 N 0.71118 0.76736 0.67677
 C436 C 0.71681 0.78456 0.69948
 N437 N 0.70825 0.81905 0.70131
 N438 N 0.69467 0.83583 0.68135
 C439 C 0.67266 0.83813 0.63744
 N440 N 0.66405 0.87232 0.64115
 N441 N 0.64746 0.89001 0.62306
 C442 C 0.63890 0.87432 0.60042
 N443 N 0.64787 0.84016 0.59642
 N444 N 0.66450 0.82235 0.61464
 C445 C 0.61763 0.89361 0.58205
 N446 N 0.60963 0.88030 0.55838
 N447 N 0.58796 0.89711 0.54310
 C448 C 0.57347 0.92763 0.55109
 N449 N 0.58184 0.94098 0.57456
 N450 N 0.60363 0.92444 0.58965
 C451 C 1.18265 0.68479 -0.15970
 N452 N 1.19829 0.71618 -0.15590
 N453 N 1.21257 0.73302 -0.17576
 C454 C 1.21138 0.71912 -0.20005
 N455 N 1.19542 0.68804 -0.20369
 N456 N 1.18136 0.67127 -0.18397
 C457 C 1.16723 0.66481 -0.13849
 N458 N 1.15520 0.63216 -0.14356
 N459 N 1.13980 0.61368 -0.12530
 C460 C 1.13579 0.62702 -0.10115
 N461 N 1.14813 0.65964 -0.09582
 N462 N 1.16372 0.67821 -0.11420
 C463 C 1.11572 0.60711 -0.08241
 N464 N 1.10937 0.61933 -0.05812
 N465 N 1.08822 0.60221 -0.04260
 C466 C 1.07269 0.57244 -0.05094
 N467 N 1.07955 0.56008 -0.07498
 N468 N 1.10074 0.57696 -0.09033
 C469 C 0.68901 1.18107 0.34201
 N470 N 0.69469 1.16410 0.31934
 N471 N 0.70827 1.18088 0.29938
 C472 C 0.71682 1.21538 0.30120
 N473 N 0.71118 1.23258 0.32391
 N474 N 0.69744 1.21571 0.34398
 C475 C 0.67268 1.16181 0.36324
 N476 N 0.66451 1.17759 0.38604
 N477 N 0.64788 1.15978 0.40426
 C478 C 0.63892 1.12561 0.40027
 N479 N 0.64749 1.10992 0.37763
 N480 N 0.66408 1.12761 0.35955
 C481 C 0.61765 1.10633 0.41864
 N482 N 0.60365 1.07549 0.41104
 N483 N 0.58187 1.05895 0.42613
 C484 C 0.57349 1.07230 0.44960
 N485 N 0.58797 1.10283 0.45758
 N486 N 0.60964 1.11964 0.44231
 C487 C 0.81692 0.68481 0.16043
 N488 N 0.81825 0.67130 0.18470
 N489 N 0.80420 0.68808 0.20443
 C490 C 0.78820 0.71913 0.20078
 N491 N 0.78698 0.73302 0.17649
 N492 N 0.80126 0.71618 0.15662
 C493 C 0.83232 0.66482 0.13922
 N494 N 0.83580 0.67821 0.11491
 N495 N 0.85138 0.65963 0.09653
 C496 C 0.86373 0.62702 0.10186
 N497 N 0.85976 0.61369 0.12602
 N498 N 0.84437 0.63217 0.14429
 C499 C 0.88379 0.60710 0.08311
 N500 N 0.89877 0.57695 0.09104
 N501 N 0.91995 0.56007 0.07568
 C502 C 0.92680 0.57242 0.05163
 N503 N 0.91127 0.60220 0.04330
 N504 N 0.89013 0.61932 0.05883
 C505 C 0.31056 1.18109 0.65871
 N506 N 0.30212 1.21573 0.65674
 N507 N 0.28839 1.23260 0.67682
 C508 C 0.28278 1.21541 0.69953
 N509 N 0.29134 1.18092 0.70136
 N510 N 0.30491 1.16413 0.68140
 C511 C 0.32687 1.16183 0.63747
 N512 N 0.33547 1.12763 0.64117
 N513 N 0.35204 1.10993 0.62307
 C514 C 0.36060 1.12562 0.60043
 N515 N 0.35164 1.15979 0.59645
 N516 N 0.33503 1.17761 0.61467
 C517 C 0.38185 1.10633 0.58206
 N518 N 0.38986 1.11965 0.55839
 N519 N 0.41152 1.10284 0.54311
 C520 C 0.42599 1.07230 0.55109
 N521 N 0.41761 1.05894 0.57456
 N522 N 0.39584 1.07548 0.58964
 C523 C 0.81693 0.31511 -0.15976
 N524 N 0.81826 0.32861 -0.18403
 N525 N 0.80421 0.31183 -0.20375
 C526 C 0.78821 0.28078 -0.20010
 N527 N 0.78699 0.26690 -0.17581
 N528 N 0.80126 0.28374 -0.15594
 C529 C 0.83233 0.33510 -0.13854
 N530 N 0.83581 0.32171 -0.11424
 N531 N 0.85138 0.34029 -0.09586
 C532 C 0.86374 0.37290 -0.10119
 N533 N 0.85977 0.38623 -0.12535
 N534 N 0.84438 0.36775 -0.14361
 C535 C 0.88380 0.39283 -0.08244
 N536 N 0.89878 0.42298 -0.09036
 N537 N 0.91995 0.43986 -0.07500
 C538 C 0.92680 0.42750 -0.05096
 N539 N 0.91127 0.39773 -0.04262
 N540 N 0.89013 0.38060 -0.05815
 C541 C 0.31058 0.81884 0.34195
 N542 N 0.30493 0.83580 0.31926
 N543 N 0.29136 0.81901 0.29931
 C544 C 0.28279 0.78452 0.30113
 N545 N 0.28840 0.76733 0.32385
 N546 N 0.30213 0.78420 0.34393
 C547 C 0.32690 0.83810 0.36319
 N548 N 0.33504 0.82233 0.38599
 N549 N 0.35165 0.84015 0.40422
 C550 C 0.36062 0.87431 0.40023
 N551 N 0.35207 0.89000 0.37758
 N552 N 0.33550 0.87230 0.35949
 C553 C 0.38187 0.89360 0.41860
 N554 N 0.39586 0.92445 0.41101
 N555 N 0.41763 0.94099 0.42610
 C556 C 0.42600 0.92764 0.44958
 N557 N 0.41152 0.89711 0.45756
 N558 N 0.38987 0.88029 0.44228
 C559 C 1.17046 1.16769 0.32368
 N560 N 1.20408 1.16856 0.32497
 N561 N 1.22170 1.18346 0.30615
 C562 C 1.20659 1.19799 0.28523
 N563 N 1.17288 1.19634 0.28359
 N564 N 1.15513 1.18124 0.30242
 C565 C 1.15136 1.15407 0.34570
 N566 N 1.11799 1.14933 0.34403
 N567 N 1.10099 1.13682 0.36420
 C568 C 1.11664 1.12913 0.38685
 N569 N 1.14994 1.13428 0.38860
 N570 N 1.16696 1.14657 0.36839
 C571 C 1.09843 1.11201 0.40800
 N572 N 1.11310 1.10586 0.43133
 N573 N 1.09791 1.08618 0.44922
 C574 C 1.06761 1.07192 0.44424
 N575 N 1.05277 1.07874 0.42116
 N576 N 1.06775 1.09861 0.40346
 C577 C 0.66212 0.67761 -0.17635
 N578 N 0.69284 0.66506 -0.18198
 N579 N 0.71102 0.67976 -0.20056
 C580 C 0.69932 0.70767 -0.21417
 N581 N 0.66817 0.71974 -0.20902
 N582 N 0.64980 0.70485 -0.19048
 C583 C 0.64381 0.66293 -0.15432
 N584 N 0.61120 0.67051 -0.15027
 N585 N 0.59509 0.65670 -0.13007
 C586 C 0.61123 0.63535 -0.11306
 N587 N 0.64387 0.62817 -0.11703
 N588 N 0.65984 0.64168 -0.13727
 C589 C 0.59353 0.61776 -0.09189
 N590 N 0.61082 0.59841 -0.07436
 N591 N 0.59502 0.57861 -0.05701
 C592 C 0.56132 0.57741 -0.05656
 N593 N 0.54394 0.59744 -0.07369
 N594 N 0.55978 0.61740 -0.09101
 C595 C 0.82916 1.16768 0.67696
 N596 N 0.84446 1.18115 0.69826
 N597 N 0.82670 1.19624 0.71708
 C598 C 0.79300 1.19797 0.71539
 N599 N 0.77791 1.18353 0.69442
 N600 N 0.79555 1.16863 0.67561
 C601 C 0.84829 1.15405 0.65495
 N602 N 0.83272 1.14662 0.63223
 N603 N 0.84977 1.13432 0.61204
 C604 C 0.88306 1.12909 0.61383
 N605 N 0.89867 1.13671 0.63651
 N606 N 0.88165 1.14923 0.65666
 C607 C 0.90128 1.11197 0.59269
 N608 N 0.93193 1.09851 0.59727
 N609 N 0.94691 1.07863 0.57956
 C610 C 0.93212 1.07188 0.55647
 N611 N 0.90185 1.08619 0.55146
 N612 N 0.88665 1.10587 0.56934
 C613 C 0.33751 0.67758 0.17698
 N614 N 0.34983 0.70480 0.19113
 N615 N 0.33145 0.71967 0.20967
 C616 C 0.30028 0.70763 0.21479
 N617 N 0.28858 0.67975 0.20115
 N618 N 0.30678 0.66505 0.18258
 C619 C 0.35583 0.66291 0.15495
 N620 N 0.33982 0.64168 0.13789
 N621 N 0.35581 0.62818 0.11765
 C622 C 0.38845 0.63535 0.11371
 N623 N 0.40458 0.65668 0.13074
 N624 N 0.38845 0.67048 0.15093
 C625 C 0.40617 0.61777 0.09254
 N626 N 0.43992 0.61739 0.09168
 N627 N 0.45577 0.59744 0.07436
 C628 C 0.43840 0.57742 0.05722
 N629 N 0.40470 0.57863 0.05765
 N630 N 0.38888 0.59843 0.07499
 C631 C 1.17047 0.83225 0.67700
 N632 N 1.20409 0.83138 0.67571
 N633 N 1.22170 0.81648 0.69453
 C634 C 1.20659 0.80195 0.71545
 N635 N 1.17289 0.80360 0.71709
 N636 N 1.15514 0.81869 0.69826
 C637 C 1.15136 0.84587 0.65498
 N638 N 1.11799 0.85061 0.65665
 N639 N 1.10099 0.86312 0.63648
 C640 C 1.11664 0.87081 0.61383
 N641 N 1.14994 0.86566 0.61208
 N642 N 1.16697 0.85337 0.63229
 C643 C 1.09843 0.88792 0.59268
 N644 N 1.11310 0.89408 0.56935
 N645 N 1.09791 0.91375 0.55146
 C646 C 1.06761 0.92800 0.55644
 N647 N 1.05277 0.92119 0.57952
 N648 N 1.06775 0.90132 0.59722
 C649 C 0.66211 0.32232 0.17703
 N650 N 0.69283 0.33488 0.18266
 N651 N 0.71102 0.32017 0.20124
 C652 C 0.69932 0.29226 0.21485
 N653 N 0.66817 0.28019 0.20970
 N654 N 0.64980 0.29507 0.19116
 C655 C 0.64381 0.33700 0.15501
 N656 N 0.61120 0.32941 0.15096
 N657 N 0.59509 0.34322 0.13075
 C658 C 0.61122 0.36457 0.11375
 N659 N 0.64386 0.37176 0.11771
 N660 N 0.65983 0.35825 0.13796
 C661 C 0.59352 0.38216 0.09257
 N662 N 0.61082 0.40151 0.07504
 N663 N 0.59502 0.42131 0.05769
 C664 C 0.56131 0.42250 0.05724
 N665 N 0.54393 0.40247 0.07436
 N666 N 0.55977 0.38252 0.09169
 C667 C 0.82915 0.83224 0.32372
 N668 N 0.79554 0.83129 0.32506
 N669 N 0.77790 0.81639 0.30625
 C670 C 0.79299 0.80195 0.28528
 N671 N 0.82669 0.80369 0.28359
 N672 N 0.84445 0.81878 0.30241
 C673 C 0.84828 0.84587 0.34572
 N674 N 0.88164 0.85070 0.34400
 N675 N 0.89867 0.86322 0.36416
 C676 C 0.88305 0.87084 0.38684
 N677 N 0.84977 0.86560 0.38863
 N678 N 0.83272 0.85330 0.36844
 C679 C 0.90128 0.88796 0.40798
 N680 N 0.88665 0.89406 0.43133
 N681 N 0.90185 0.91373 0.44921
 C682 C 0.93212 0.92805 0.44420
 N683 N 0.94691 0.92130 0.42110
 N684 N 0.93192 0.90142 0.40340
 C685 C 0.33752 0.32234 -0.17631
 N686 N 0.34983 0.29511 -0.19046
 N687 N 0.33145 0.28024 -0.20900
 C688 C 0.30029 0.29229 -0.21412
 N689 N 0.28859 0.32018 -0.20049
 N690 N 0.30679 0.33488 -0.18191
 C691 C 0.35584 0.33700 -0.15429
 N692 N 0.33982 0.35823 -0.13722
 N693 N 0.35581 0.37173 -0.11698
 C694 C 0.38846 0.36456 -0.11304
 N695 N 0.40458 0.34323 -0.13007
 N696 N 0.38846 0.32944 -0.15027
 C697 C 0.40618 0.38214 -0.09187
 N698 N 0.43993 0.38252 -0.09101
 N699 N 0.45578 0.40247 -0.07369
 C700 C 0.43841 0.42249 -0.05656
 N701 N 0.40471 0.42128 -0.05699
 N702 N 0.38889 0.40148 -0.07433
 C703 C 1.18919 0.31891 -0.16077
 N704 N 1.19254 0.28321 -0.16069
 N705 N 1.20759 0.26671 -0.18034
 C706 C 1.21970 0.28537 -0.20075
 N707 N 1.21611 0.32095 -0.20076
 N708 N 1.20133 0.33739 -0.18115
 C709 C 1.17136 0.33769 -0.14006
 N710 N 1.17034 0.37347 -0.14021
 N711 N 1.15255 0.39100 -0.12268
 C712 C 1.13499 0.37343 -0.10433
 N713 N 1.13623 0.33760 -0.10397
 N714 N 1.15414 0.32003 -0.12150
 C715 C 1.11330 0.39296 -0.08642
 N716 N 1.09269 0.37560 -0.06994
 N717 N 1.07120 0.39335 -0.05522
 C718 C 1.06955 0.42909 -0.05639
 N719 N 1.09047 0.44649 -0.07259
 N720 N 1.11193 0.42874 -0.08734
 C721 C 0.68386 0.81618 0.33801
 N722 N 0.69063 0.83361 0.31574
 N723 N 0.70545 0.81728 0.29615
 C724 C 0.71438 0.78289 0.29801
 N725 N 0.70750 0.76516 0.32027
 N726 N 0.69231 0.78153 0.33993
 C727 C 0.66722 0.83523 0.35910
 N728 N 0.65274 0.81807 0.37927
 N729 N 0.63581 0.83603 0.39719
 C730 C 0.63303 0.87171 0.39565
 N731 N 0.64797 0.88876 0.37572
 N732 N 0.66465 0.87086 0.35778
 C733 C 0.61214 0.89158 0.41385
 N734 N 0.61048 0.92729 0.41226
 N735 N 0.58932 0.94539 0.42701
 C736 C 0.56894 0.92838 0.44382
 N737 N 0.57091 0.89271 0.44569
 N738 N 0.59217 0.87462 0.43100
 C739 C 0.81039 0.68105 -0.16082
 N740 N 0.79827 0.66258 -0.18121
 N741 N 0.78351 0.67902 -0.20082
 C742 C 0.77991 0.71460 -0.20081
 N743 N 0.79199 0.73325 -0.18038
 N744 N 0.80703 0.71675 -0.16073
 C745 C 0.82821 0.66227 -0.14010
 N746 N 0.84541 0.67993 -0.12153
 N747 N 0.86331 0.66235 -0.10400
 C748 C 0.86454 0.62653 -0.10435
 N749 N 0.84700 0.60896 -0.12271
 N750 N 0.82923 0.62649 -0.14025
 C751 C 0.88622 0.60699 -0.08643
 N752 N 0.88759 0.57122 -0.08735
 N753 N 0.90903 0.55346 -0.07260
 C754 C 0.92994 0.57086 -0.05639
 N755 N 0.92830 0.60660 -0.05522
 N756 N 0.90681 0.62435 -0.06994
 C757 C 0.31570 1.18376 0.33797
 N758 N 0.30897 1.16635 0.31568
 N759 N 0.29417 1.18268 0.29609
 C760 C 0.28519 1.21706 0.29796
 N761 N 0.29202 1.23477 0.32024
 N762 N 0.30720 1.21840 0.33990
 C763 C 0.33232 1.16472 0.35907
 N764 N 0.34676 1.18187 0.37925
 N765 N 0.36368 1.16391 0.39717
 C766 C 0.36647 1.12823 0.39563
 N767 N 0.35158 1.11118 0.37568
 N768 N 0.33490 1.12909 0.35774
 C769 C 0.38735 1.10837 0.41384
 N770 N 0.38902 1.07265 0.41225
 N771 N 0.41018 1.05456 0.42699
 C772 C 0.43054 1.07156 0.44382
 N773 N 0.42857 1.10723 0.44569
 N774 N 0.40732 1.12532 0.43099
 C775 C 1.18918 0.68101 0.16145
 N776 N 1.19255 0.71671 0.16136
 N777 N 1.20759 0.73321 0.18101
 C778 C 1.21969 0.71455 0.20143
 N779 N 1.21609 0.67898 0.20144
 N780 N 1.20132 0.66254 0.18183
 C781 C 1.17135 0.66223 0.14074
 N782 N 1.17033 0.62645 0.14089
 N783 N 1.15254 0.60892 0.12336
 C784 C 1.13499 0.62649 0.10501
 N785 N 1.13623 0.66232 0.10465
 N786 N 1.15414 0.67990 0.12218
 C787 C 1.11329 0.60696 0.08709
 N788 N 1.09269 0.62432 0.07061
 N789 N 1.07120 0.60658 0.05589
 C790 C 1.06955 0.57084 0.05706
 N791 N 1.09047 0.55344 0.07327
 N792 N 1.11192 0.57119 0.08802
 C793 C 0.68386 1.18374 0.66266
 N794 N 0.69232 1.21840 0.66074
 N795 N 0.70751 1.23476 0.68040
 C796 C 0.71439 1.21704 0.70267
 N797 N 0.70546 1.18264 0.70452
 N798 N 0.69064 1.16631 0.68493
 C799 C 0.66722 1.16470 0.64157
 N800 N 0.66466 1.12907 0.64289
 N801 N 0.64797 1.11117 0.62495
 C802 C 0.63304 1.12822 0.60503
 N803 N 0.63581 1.16390 0.60349
 N804 N 0.65275 1.18186 0.62141
 C805 C 0.61214 1.10836 0.58683
 N806 N 0.59217 1.12532 0.56968
 N807 N 0.57091 1.10722 0.55499
 C808 C 0.56894 1.07155 0.55686
 N809 N 0.58932 1.05455 0.57367
 N810 N 0.61048 1.07264 0.58841
 C811 C 0.81039 0.31888 0.16150
 N812 N 0.80703 0.28318 0.16141
 N813 N 0.79199 0.26668 0.18106
 C814 C 0.77990 0.28534 0.20148
 N815 N 0.78350 0.32091 0.20150
 N816 N 0.79826 0.33735 0.18188
 C817 C 0.82820 0.33766 0.14078
 N818 N 0.82922 0.37344 0.14093
 N819 N 0.84699 0.39097 0.12339
 C820 C 0.86454 0.37340 0.10503
 N821 N 0.86330 0.33758 0.10467
 N822 N 0.84540 0.32000 0.12221
 C823 C 0.88622 0.39294 0.08710
 N824 N 0.90681 0.37558 0.07062
 N825 N 0.92830 0.39333 0.05589
 C826 C 0.92994 0.42907 0.05706
 N827 N 0.90903 0.44646 0.07327
 N828 N 0.88758 0.42871 0.08803
 C829 C 0.31570 0.81618 0.66271
 N830 N 0.30897 0.83359 0.68500
 N831 N 0.29417 0.81725 0.70459
 C832 C 0.28520 0.78287 0.70272
 N833 N 0.29202 0.76517 0.68044
 N834 N 0.30720 0.78154 0.66078
 C835 C 0.33232 0.83522 0.64161
 N836 N 0.34676 0.81807 0.62143
 N837 N 0.36367 0.83603 0.60350
 C838 C 0.36647 0.87171 0.60505
 N839 N 0.35157 0.88876 0.62500
 N840 N 0.33490 0.87085 0.64294
 C841 C 0.38735 0.89158 0.58684
 N842 N 0.38901 0.92729 0.58843
 N843 N 0.41017 0.94539 0.57368
 C844 C 0.43053 0.92838 0.55686
 N845 N 0.42856 0.89271 0.55498
 N846 N 0.40730 0.87462 0.56968
 C847 C 0.30361 1.17689 -0.15955
 N848 N 0.30218 1.21269 -0.15951
 N849 N 0.28708 1.22997 -0.17871
 C850 C 0.27285 1.21217 -0.19868
 N851 N 0.27357 1.17636 -0.19830
 N852 N 0.28852 1.15907 -0.17909
 C853 C 0.32355 1.15777 -0.14014
 N854 N 0.32515 1.12199 -0.14056
 N855 N 0.34489 1.10466 -0.12416
 C856 C 0.36398 1.12246 -0.10683
 N857 N 0.36226 1.15823 -0.10632
 N858 N 0.34246 1.17557 -0.12268
 C859 C 0.38621 1.10337 -0.08897
 N860 N 0.40648 1.12132 -0.07257
 N861 N 0.42609 1.10414 -0.05601
 C862 C 0.42627 1.06835 -0.05524
 N863 N 0.40617 1.05035 -0.07175
 N864 N 0.38660 1.06754 -0.08837
 C865 C 0.81324 0.68725 0.34077
 N866 N 0.82554 0.71692 0.32973
 N867 N 0.80901 0.73305 0.31082
 C868 C 0.77940 0.72043 0.30224
 N869 N 0.76677 0.69097 0.31355
 N870 N 0.78331 0.67478 0.33258
 C871 C 0.83346 0.66780 0.35977
 N872 N 0.82127 0.63896 0.37213
 N873 N 0.84036 0.62075 0.38849
 C874 C 0.87242 0.63047 0.39288
 N875 N 0.88458 0.65929 0.38052
 N876 N 0.86545 0.67759 0.36429
 C877 C 0.89340 0.61045 0.41104
 N878 N 0.92641 0.61762 0.41349
 N879 N 0.94508 0.60010 0.43057
 C880 C 0.93134 0.57485 0.44584
 N881 N 0.89842 0.56760 0.44325
 N882 N 0.87984 0.58492 0.42611
 C883 C 0.69601 1.17685 0.16028
 N884 N 0.69746 1.21265 0.16023
 N885 N 0.71255 1.22994 0.17944
 C886 C 0.72676 1.21213 0.19942
 N887 N 0.72602 1.17633 0.19904
 N888 N 0.71107 1.15903 0.17983
 C889 C 0.67608 1.15774 0.14086
 N890 N 0.67446 1.12196 0.14128
 N891 N 0.65473 1.10463 0.12488
 C892 C 0.63565 1.12243 0.10754
 N893 N 0.63739 1.15821 0.10703
 N894 N 0.65718 1.17554 0.12340
 C895 C 0.61343 1.10335 0.08967
 N896 N 0.59317 1.12130 0.07327
 N897 N 0.57357 1.10413 0.05670
 C898 C 0.57338 1.06834 0.05593
 N899 N 0.59348 1.05033 0.07245
 N900 N 0.61304 1.06752 0.08907
 C901 C 1.18636 0.68724 0.65995
 N902 N 1.17405 0.71690 0.67100
 N903 N 1.19057 0.73303 0.68991
 C904 C 1.22019 0.72042 0.69849
 N905 N 1.23283 0.69097 0.68718
 N906 N 1.21629 0.67478 0.66814
 C907 C 1.16615 0.66780 0.64094
 N908 N 1.17835 0.63897 0.62858
 N909 N 1.15927 0.62076 0.61221
 C910 C 1.12721 0.63047 0.60781
 N911 N 1.11504 0.65927 0.62018
 N912 N 1.13416 0.67758 0.63642
 C913 C 1.10624 0.61045 0.58965
 N914 N 1.07323 0.61761 0.58720
 N915 N 1.05456 0.60009 0.57012
 C916 C 1.06832 0.57485 0.55483
 N917 N 1.10123 0.56761 0.55742
 N918 N 1.11981 0.58494 0.57457
 C919 C 0.69602 0.82308 -0.15960
 N920 N 0.71108 0.84090 -0.17914
 N921 N 0.72603 0.82361 -0.19835
 C922 C 0.72676 0.78780 -0.19873
 N923 N 0.71254 0.77000 -0.17876
 N924 N 0.69746 0.78728 -0.15955
 C925 C 0.67609 0.84219 -0.14018
 N926 N 0.65719 0.82440 -0.12272
 N927 N 0.63739 0.84173 -0.10635
 C928 C 0.63566 0.87750 -0.10686
 N929 N 0.65474 0.89530 -0.12419
 N930 N 0.67447 0.87797 -0.14059
 C931 C 0.61344 0.89659 -0.08899
 N932 N 0.61305 0.93241 -0.08839
 N933 N 0.59349 0.94960 -0.07176
 C934 C 0.57339 0.93160 -0.05525
 N935 N 0.57357 0.89581 -0.05602
 N936 N 0.59317 0.87863 -0.07259
 C937 C 1.18636 0.31270 0.34073
 N938 N 1.21629 0.32516 0.33254
 N939 N 1.23283 0.30897 0.31350
 C940 C 1.22019 0.27952 0.30219
 N941 N 1.19057 0.26691 0.31077
 N942 N 1.17404 0.28304 0.32968
 C943 C 1.16615 0.33214 0.35974
 N944 N 1.13416 0.32236 0.36426
 N945 N 1.11504 0.34067 0.38050
 C946 C 1.12721 0.36948 0.39287
 N947 N 1.15927 0.37918 0.38847
 N948 N 1.17835 0.36097 0.37210
 C949 C 1.10624 0.38949 0.41103
 N950 N 1.11981 0.41501 0.42611
 N951 N 1.10123 0.43233 0.44325
 C952 C 1.06832 0.42509 0.44584
 N953 N 1.05456 0.39986 0.43056
 N954 N 1.07323 0.38234 0.41348
 C955 C 0.30360 0.82303 0.16022
 N956 N 0.28851 0.84086 0.17976
 N957 N 0.27356 0.82356 0.19896
 C958 C 0.27285 0.78775 0.19935
 N959 N 0.28709 0.76995 0.17938
 N960 N 0.30218 0.78724 0.16018
 C961 C 0.32354 0.84215 0.14081
 N962 N 0.34246 0.82436 0.12335
 N963 N 0.36226 0.84170 0.10700
 C964 C 0.36398 0.87747 0.10750
 N965 N 0.34488 0.89527 0.12483
 N966 N 0.32514 0.87793 0.14122
 C967 C 0.38620 0.89656 0.08964
 N968 N 0.38659 0.93239 0.08905
 N969 N 0.40616 0.94958 0.07242
 C970 C 0.42627 0.93159 0.05591
 N971 N 0.42609 0.89579 0.05668
 N972 N 0.40648 0.87861 0.07325
 C973 C 0.81325 0.31268 0.65991
 N974 N 0.78332 0.32515 0.66810
 N975 N 0.76677 0.30895 0.68713
 C976 C 0.77940 0.27949 0.69844
 N977 N 0.80902 0.26688 0.68985
 N978 N 0.82555 0.28301 0.67095
 C979 C 0.83346 0.33213 0.64091
 N980 N 0.86546 0.32234 0.63639
 N981 N 0.88458 0.34065 0.62016
 C982 C 0.87243 0.36947 0.60779
 N983 N 0.84037 0.37918 0.61219
 N984 N 0.82127 0.36096 0.62855
 C985 C 0.89341 0.38949 0.58964
 N986 N 0.87984 0.41501 0.57457
 N987 N 0.89842 0.43234 0.55743
 C988 C 0.93134 0.42509 0.55483
 N989 N 0.94508 0.39984 0.57011
 N990 N 0.92641 0.38232 0.58719
 C991 C 1.16497 1.17833 0.67531
 N992 N 1.15219 1.20435 0.69041
 N993 N 1.17073 1.21927 0.70883
 C994 C 1.20253 1.20843 0.71290
 N995 N 1.21481 1.18179 0.69825
 N996 N 1.19643 1.16706 0.67979
 C997 C 1.14616 1.16354 0.65358
 N998 N 1.16201 1.14314 0.63588
 N999 N 1.14553 1.12945 0.61595
 C1000 C 1.11253 1.13562 0.61295
 N1001 N 1.09657 1.15613 0.63060
 N1002 N 1.11318 1.17009 0.65050
 C1003 C 1.09439 1.11783 0.59209
 N1004 N 1.06062 1.11699 0.59183
 N1005 N 1.04450 1.09696 0.57471
 C1006 C 1.06161 1.07732 0.55718
 N1007 N 1.09530 1.07897 0.55703
 N1008 N 1.11138 1.09886 0.57416
 C1009 C 0.67380 0.66772 0.17591
 N1010 N 0.65842 0.68209 0.19685
 N1011 N 0.67611 0.69776 0.21544
 C1012 C 0.70982 0.69923 0.21389
 N1013 N 0.72505 0.68384 0.19333
 N1014 N 0.70745 0.66838 0.17472
 C1015 C 0.65460 0.65347 0.15414
 N1016 N 0.67000 0.64523 0.13151
 N1017 N 0.65272 0.63259 0.11153
 C1018 C 0.61937 0.62782 0.11348
 N1019 N 0.60396 0.63620 0.13609
 N1020 N 0.62120 0.64905 0.15600
 C1021 C 0.60073 0.61066 0.09256
 N1022 N 0.56998 0.59766 0.09743
 N1023 N 0.55442 0.57807 0.07985
 C1024 C 0.56871 0.57117 0.05659
 N1025 N 0.59912 0.58498 0.05132
 N1026 N 0.61491 0.60436 0.06907
 C1027 C 1.16498 0.82159 0.32537
 N1028 N 1.19645 0.83286 0.32089
 N1029 N 1.21483 0.81814 0.30243
 C1030 C 1.20254 0.79149 0.28778
 N1031 N 1.17074 0.78067 0.29184
 N1032 N 1.15220 0.79558 0.31027
 C1033 C 1.14617 0.83638 0.34710
 N1034 N 1.11319 0.82984 0.35018
 N1035 N 1.09658 0.84379 0.37007
 C1036 C 1.11254 0.86431 0.38773
 N1037 N 1.14554 0.87046 0.38473
 N1038 N 1.16203 0.85678 0.36480
 C1039 C 1.09440 0.88209 0.40859
 N1040 N 1.11139 0.90106 0.42652
 N1041 N 1.09531 0.92095 0.44365
 C1042 C 1.06162 0.92260 0.44349
 N1043 N 1.04451 0.90296 0.42596
 N1044 N 1.06063 0.88293 0.40884
 C1045 C 0.67381 0.33219 -0.17523
 N1046 N 0.65843 0.31783 -0.19617
 N1047 N 0.67612 0.30216 -0.21476
 C1048 C 0.70983 0.30069 -0.21321
 N1049 N 0.72506 0.31608 -0.19266
 N1050 N 0.70746 0.33154 -0.17404
 C1051 C 0.65461 0.34645 -0.15347
 N1052 N 0.67001 0.35469 -0.13083
 N1053 N 0.65273 0.36732 -0.11086
 C1054 C 0.61938 0.37209 -0.11280
 N1055 N 0.60397 0.36371 -0.13541
 N1056 N 0.62121 0.35086 -0.15533
 C1057 C 0.60074 0.38925 -0.09188
 N1058 N 0.56999 0.40224 -0.09675
 N1059 N 0.55442 0.42184 -0.07918
 C1060 C 0.56872 0.42874 -0.05591
 N1061 N 0.59913 0.41493 -0.05064
 N1062 N 0.61491 0.39555 -0.06839
 C1063 C 0.83466 1.17834 0.32543
 N1064 N 0.80319 1.16707 0.32097
 N1065 N 0.78479 1.18179 0.30252
 C1066 C 0.79707 1.20841 0.28784
 N1067 N 0.82889 1.21923 0.29188
 N1068 N 0.84744 1.20433 0.31030
 C1069 C 0.85349 1.16355 0.34715
 N1070 N 0.88648 1.17009 0.35020
 N1071 N 0.90310 1.15614 0.37010
 C1072 C 0.88715 1.13565 0.38777
 N1073 N 0.85415 1.12950 0.38480
 N1074 N 0.83764 1.14318 0.36487
 C1075 C 0.90531 1.11787 0.40862
 N1076 N 0.88833 1.09891 0.42656
 N1077 N 0.90443 1.07902 0.44369
 C1078 C 0.93811 1.07736 0.44352
 N1079 N 0.95521 1.09699 0.42598
 N1080 N 0.93908 1.11702 0.40886
 C1081 C 0.32581 0.66771 -0.17519
 N1082 N 0.29216 0.66841 -0.17397
 N1083 N 0.27456 0.68387 -0.19258
 C1084 C 0.28977 0.69922 -0.21316
 N1085 N 0.32347 0.69771 -0.21474
 N1086 N 0.34118 0.68204 -0.19615
 C1087 C 0.34503 0.65345 -0.15344
 N1088 N 0.37842 0.64900 -0.15533
 N1089 N 0.39568 0.63615 -0.13542
 C1090 C 0.38029 0.62780 -0.11280
 N1091 N 0.34695 0.63261 -0.11082
 N1092 N 0.32966 0.64525 -0.13079
 C1093 C 0.39895 0.61063 -0.09189
 N1094 N 0.38480 0.60436 -0.06838
 N1095 N 0.40060 0.58498 -0.05064
 C1096 C 0.43099 0.57115 -0.05593
 N1097 N 0.44526 0.57802 -0.07921
 N1098 N 0.42969 0.59761 -0.09677
 C1099 C 0.83465 0.82160 0.67525
 N1100 N 0.84743 0.79561 0.69037
 N1101 N 0.82888 0.78071 0.70880
 C1102 C 0.79707 0.79152 0.71284
 N1103 N 0.78478 0.81814 0.69816
 N1104 N 0.80317 0.83286 0.67970
 C1105 C 0.85348 0.83638 0.65352
 N1106 N 0.83763 0.85675 0.63580
 N1107 N 0.85414 0.87043 0.61587
 C1108 C 0.88714 0.86428 0.61290
 N1109 N 0.90309 0.84379 0.63058
 N1110 N 0.88647 0.82984 0.65047
 C1111 C 0.90530 0.88205 0.59205
 N1112 N 0.93907 0.88291 0.59181
 N1113 N 0.95520 0.90293 0.57469
 C1114 C 0.93811 0.92257 0.55715
 N1115 N 0.90442 0.92091 0.55698
 N1116 N 0.88832 0.90102 0.57411
 C1117 C 0.32581 0.33221 0.17587
 N1118 N 0.34117 0.31789 0.19683
 N1119 N 0.32347 0.30222 0.21541
 C1120 C 0.28977 0.30071 0.21383
 N1121 N 0.27455 0.31606 0.19326
 N1122 N 0.29216 0.33152 0.17465
 C1123 C 0.34503 0.34646 0.15411
 N1124 N 0.32965 0.35467 0.13146
 N1125 N 0.34695 0.36731 0.11150
 C1126 C 0.38029 0.37211 0.11347
 N1127 N 0.39568 0.36376 0.13609
 N1128 N 0.37842 0.35091 0.15600
 C1129 C 0.39895 0.38927 0.09256
 N1130 N 0.42969 0.40229 0.09744
 N1131 N 0.44526 0.42188 0.07987
 C1132 C 0.43099 0.42876 0.05660
 N1133 N 0.40060 0.41493 0.05130
 N1134 N 0.38480 0.39555 0.06905
   
