data_POSCAR
  _audit_creation_date              2014-09-24
  _audit_creation_method            'ToBaCCo'
  _symmetry_space_group_name_H-M    'P1'
  _symmetry_Int_Tables_number       1
  _symmetry_cell_setting            triclinic
  loop_
  _symmetry_equiv_pos_as_xyz
 x,y,z
_cell_length_a 61.9855
_cell_length_b 61.1423
_cell_length_c 61.5981
_cell_angle_alpha 89.609800
_cell_angle_beta 90.269900
_cell_angle_gamma 89.812600
loop_
  _atom_site_label
  _atom_site_type_symbol
  _atom_site_fract_x
  _atom_site_fract_y
  _atom_site_fract_z
N1 N 0.27680 0.23528 0.20989
 N2 N 0.26817 0.25376 0.20311
 C3 C 0.27927 0.26111 0.18580
 C4 C 0.29580 0.24647 0.18146
 C5 C 0.29367 0.23026 0.19716
 H6 H 0.27550 0.27597 0.17696
 H7 H 0.30375 0.21596 0.19937
 Cu8 Cu 0.24331 0.26644 0.21757
 Cu9 Cu 0.26564 0.21916 0.23478
 Cu10 Cu 0.22079 0.24089 0.26036
 N11 N 0.21777 0.27803 0.23174
 N12 N 0.20903 0.26803 0.24844
 C13 C 0.19171 0.27952 0.25503
 C14 C 0.18940 0.29775 0.24170
 C15 C 0.20629 0.29620 0.22711
 H16 H 0.18151 0.27484 0.26844
 H17 H 0.21009 0.30757 0.21419
 N18 N 0.23501 0.21359 0.26999
 N19 N 0.25203 0.20528 0.26021
 C20 C 0.25804 0.18680 0.27064
 C21 C 0.24417 0.18325 0.28788
 C22 C 0.22978 0.20062 0.28691
 H23 H 0.27173 0.17684 0.26620
 H24 H 0.21642 0.20360 0.29771
 H25 H 0.23425 0.23028 0.23161
 H26 H 0.25226 0.24572 0.25042
 N27 N 0.72472 -0.22931 0.21743
 N28 N 0.73281 -0.24749 0.20965
 C29 C 0.71978 -0.25486 0.19376
 C30 C 0.70248 -0.24049 0.19136
 C31 C 0.70631 -0.22444 0.20677
 H32 H 0.72269 -0.26969 0.18480
 H33 H 0.69646 -0.21031 0.21025
 Cu34 Cu 0.75936 -0.26012 0.22127
 Cu35 Cu 0.73831 -0.21356 0.24115
 Cu36 Cu 0.78452 -0.23644 0.26364
 N37 N 0.78498 -0.27297 0.23465
 N38 N 0.79466 -0.26379 0.25124
 C39 C 0.81153 -0.27628 0.25746
 C40 C 0.81259 -0.29445 0.24404
 C41 C 0.79537 -0.29164 0.22974
 H42 H 0.82212 -0.27233 0.27083
 H43 H 0.79048 -0.30245 0.21684
 N44 N 0.77182 -0.20882 0.27393
 N45 N 0.75431 -0.20003 0.26525
 C46 C 0.74954 -0.18148 0.27591
 C47 C 0.76473 -0.17843 0.29216
 C48 C 0.77861 -0.19613 0.29037
 H49 H 0.73571 -0.17122 0.27242
 H50 H 0.79261 -0.19956 0.30035
 H51 H 0.76941 -0.22462 0.23603
 H52 H 0.75251 -0.24098 0.25518
 N53 N 0.71999 0.24378 0.77849
 N54 N 0.72671 0.26370 0.78258
 C55 C 0.71538 0.27194 0.79921
 C56 C 0.70056 0.25643 0.80593
 C57 C 0.70395 0.23875 0.79231
 H58 H 0.71783 0.28805 0.80588
 H59 H 0.69569 0.22321 0.79269
 Cu60 Cu 0.74979 0.27721 0.76624
 Cu61 Cu 0.73316 0.22578 0.75601
 Cu62 Cu 0.78074 0.24576 0.73458
 N63 N 0.77826 0.28647 0.75725
 N64 N 0.79076 0.27374 0.74569
 C65 C 0.80960 0.28398 0.74210
 C66 C 0.80885 0.30446 0.75177
 C67 C 0.78858 0.30533 0.76129
 H68 H 0.82252 0.27723 0.73249
 H69 H 0.78181 0.31846 0.77077
 N70 N 0.76776 0.21800 0.72528
 N71 N 0.74949 0.21042 0.73320
 C72 C 0.74425 0.19194 0.72261
 C73 C 0.75995 0.18775 0.70719
 C74 C 0.77459 0.20465 0.70946
 H75 H 0.72970 0.18266 0.72540
 H76 H 0.78898 0.20732 0.69999
 H77 H 0.76253 0.23995 0.76235
 H78 H 0.74754 0.25001 0.73771
 N79 N 0.27681 -0.23532 0.78806
 N80 N 0.26760 -0.25301 0.79584
 C81 C 0.27857 -0.25981 0.81359
 C82 C 0.29560 -0.24560 0.81715
 C83 C 0.29391 -0.23025 0.80056
 H84 H 0.27440 -0.27398 0.82323
 H85 H 0.30443 -0.21650 0.79759
 Cu86 Cu 0.24231 -0.26548 0.78185
 Cu87 Cu 0.26609 -0.22024 0.76221
 Cu88 Cu 0.22090 -0.24203 0.73710
 N89 N 0.21702 -0.27756 0.76754
 N90 N 0.20873 -0.26838 0.75005
 C91 C 0.19171 -0.28019 0.74331
 C92 C 0.18907 -0.29787 0.75736
 C93 C 0.20553 -0.29551 0.77257
 H94 H 0.18212 -0.27614 0.72915
 H95 H 0.20913 -0.30612 0.78619
 N96 N 0.23556 -0.21549 0.72650
 N97 N 0.25285 -0.20732 0.73598
 C98 C 0.25923 -0.18948 0.72485
 C99 C 0.24529 -0.18618 0.70750
 C100 C 0.23047 -0.20301 0.70911
 H101 H 0.27294 -0.17953 0.72916
 H102 H 0.21714 -0.20615 0.69821
 H103 H 0.23433 -0.23001 0.76542
 H104 H 0.25206 -0.24732 0.74803
 N105 N 0.72799 -0.23517 0.79292
 N106 N 0.73390 -0.25534 0.79748
 C107 C 0.72369 -0.26212 0.81552
 C108 C 0.71053 -0.24530 0.82266
 C109 C 0.71371 -0.22844 0.80787
 H110 H 0.72533 -0.27828 0.82258
 H111 H 0.70612 -0.21250 0.80787
 Cu112 Cu 0.75372 -0.27125 0.77908
 Cu113 Cu 0.73857 -0.21961 0.76744
 Cu114 Cu 0.77890 -0.24511 0.73817
 N115 N 0.77937 -0.28320 0.76563
 N116 N 0.78926 -0.27299 0.74975
 C117 C 0.80670 -0.28471 0.74391
 C118 C 0.80785 -0.30342 0.75686
 C119 C 0.79008 -0.30177 0.77045
 H120 H 0.81764 -0.27981 0.73119
 H121 H 0.78533 -0.31293 0.78321
 N122 N 0.76613 -0.21679 0.72947
 N123 N 0.75130 -0.20672 0.74107
 C124 C 0.74611 -0.18768 0.73124
 C125 C 0.75806 -0.18578 0.71244
 C126 C 0.77054 -0.20455 0.71179
 H127 H 0.73404 -0.17630 0.73693
 H128 H 0.78207 -0.20887 0.69941
 H129 H 0.74725 -0.24623 0.74876
 H130 H 0.76793 -0.23588 0.76839
 N131 N 0.27505 0.22993 0.78827
 N132 N 0.26747 0.24915 0.79390
 C133 C 0.27708 0.25536 0.81251
 C134 C 0.29144 0.23911 0.81892
 C135 C 0.28964 0.22320 0.80313
 H136 H 0.27396 0.27063 0.82069
 H137 H 0.29885 0.20820 0.80210
 Cu138 Cu 0.24626 0.26470 0.77622
 Cu139 Cu 0.26674 0.21581 0.76132
 Cu140 Cu 0.22568 0.24038 0.73179
 N141 N 0.22082 0.27612 0.76131
 N142 N 0.21300 0.26672 0.74387
 C143 C 0.19573 0.27812 0.73675
 C144 C 0.19244 0.29565 0.75050
 C145 C 0.20872 0.29380 0.76594
 H146 H 0.18616 0.27378 0.72273
 H147 H 0.21169 0.30460 0.77944
 N148 N 0.24051 0.21366 0.72223
 N149 N 0.25608 0.20417 0.73355
 C150 C 0.26293 0.18634 0.72284
 C151 C 0.25107 0.18444 0.70381
 C152 C 0.23702 0.20212 0.70404
 H153 H 0.27557 0.17551 0.72854
 H154 H 0.22520 0.20642 0.69179
 H155 H 0.25664 0.24328 0.74461
 H156 H 0.23619 0.22916 0.76200
 N157 N 0.27311 -0.23494 0.20972
 N158 N 0.26297 -0.25189 0.20165
 C159 C 0.27391 -0.25919 0.18427
 C160 C 0.29184 -0.24604 0.18124
 C161 C 0.29075 -0.23081 0.19776
 H162 H 0.26906 -0.27289 0.17443
 H163 H 0.30204 -0.21780 0.20102
 Cu164 Cu 0.23629 -0.26248 0.21446
 Cu165 Cu 0.26285 -0.21948 0.23520
 Cu166 Cu 0.21574 -0.23845 0.25880
 N167 N 0.21011 -0.27323 0.22817
 N168 N 0.20201 -0.26361 0.24532
 C169 C 0.18389 -0.27406 0.25132
 C170 C 0.18041 -0.29128 0.23721
 C171 C 0.19744 -0.29022 0.22274
 H172 H 0.17416 -0.26961 0.26512
 H173 H 0.20034 -0.30092 0.20917
 N174 N 0.23202 -0.21324 0.27003
 N175 N 0.24994 -0.20604 0.26105
 C176 C 0.25723 -0.18882 0.27242
 C177 C 0.24324 -0.18491 0.28944
 C178 C 0.22745 -0.20077 0.28737
 H179 H 0.27165 -0.17977 0.26852
 H180 H 0.21373 -0.20325 0.29783
 H181 H 0.24671 -0.24579 0.24878
 H182 H 0.23058 -0.22685 0.23113
 N183 N 0.72460 0.22919 0.21478
 N184 N 0.73394 0.24554 0.20462
 C185 C 0.72209 0.25093 0.18697
 C186 C 0.70433 0.23722 0.18604
 C187 C 0.70654 0.22363 0.20401
 H188 H 0.72586 0.26413 0.17588
 H189 H 0.69581 0.21063 0.20894
 Cu190 Cu 0.76040 0.25850 0.21575
 Cu191 Cu 0.73623 0.21650 0.24140
 Cu192 Cu 0.78273 0.23963 0.26229
 N193 N 0.78606 0.27184 0.22825
 N194 N 0.79478 0.26427 0.24629
 C195 C 0.81217 0.27639 0.25129
 C196 C 0.81449 0.29253 0.23559
 C197 C 0.79757 0.28912 0.22123
 H198 H 0.82212 0.27388 0.26555
 H199 H 0.79398 0.29847 0.20670
 N200 N 0.76807 0.21462 0.27612
 N201 N 0.75034 0.20585 0.26816
 C202 C 0.74410 0.18937 0.28129
 C203 C 0.75858 0.18760 0.29842
 C204 C 0.77358 0.20393 0.29453
 H205 H 0.72999 0.17943 0.27854
 H206 H 0.78739 0.20793 0.30447
 H207 H 0.75143 0.24479 0.25185
 H208 H 0.76811 0.22498 0.23610
 C209 C 0.24402 0.00950 0.49741
 C210 C 0.24337 -0.01270 0.49875
 C211 C 0.24259 -0.02434 0.51995
 C212 C 0.24305 -0.02678 0.47922
 C213 C 0.24345 0.02139 0.47631
 C214 C 0.24445 0.02327 0.51716
 C215 C 0.25850 -0.03991 0.52502
 C216 C 0.25738 -0.05205 0.54424
 C217 C 0.24016 -0.04900 0.55869
 C218 C 0.22428 -0.03326 0.55366
 C219 C 0.22547 -0.02104 0.53442
 C220 C 0.25958 -0.02588 0.46373
 C221 C 0.25966 -0.04041 0.44626
 C222 C 0.24331 -0.05618 0.44414
 C223 C 0.22665 -0.05674 0.45952
 C224 C 0.22659 -0.04227 0.47690
 C225 C 0.22650 0.01838 0.46144
 C226 C 0.22536 0.03101 0.44245
 C227 C 0.24105 0.04700 0.43806
 C228 C 0.25810 0.04978 0.45291
 C229 C 0.25924 0.03715 0.47185
 C230 C 0.22800 0.03868 0.52036
 C231 C 0.22802 0.05181 0.53878
 C232 C 0.24463 0.04993 0.55430
 C233 C 0.26129 0.03468 0.55093
 C234 C 0.26120 0.02144 0.53249
 H235 H 0.27172 -0.04281 0.51395
 H236 H 0.26967 -0.06427 0.54751
 H237 H 0.21092 -0.03046 0.56457
 H238 H 0.21286 -0.00931 0.53062
 H239 H 0.27264 -0.01429 0.46546
 H240 H 0.27282 -0.03974 0.43478
 H241 H 0.21369 -0.04322 0.48868
 H242 H 0.21390 0.00661 0.46478
 H243 H 0.21210 0.02838 0.43127
 H244 H 0.27023 0.06221 0.45025
 H245 H 0.27231 0.03989 0.48323
 H246 H 0.21503 0.04042 0.50861
 H247 H 0.21518 0.06367 0.54075
 H248 H 0.27425 0.03285 0.56266
 H249 H 0.27419 0.00981 0.53013
 H250 H 0.21363 -0.06841 0.45812
 C251 C 0.74682 0.00996 0.50469
 C252 C 0.74756 -0.01227 0.50427
 C253 C 0.74938 -0.02489 0.48383
 C254 C 0.74705 -0.02544 0.52453
 C255 C 0.74643 0.02214 0.52551
 C256 C 0.74658 0.02341 0.48452
 C257 C 0.73493 -0.04206 0.47996
 C258 C 0.73758 -0.05563 0.46206
 C259 C 0.75479 -0.05238 0.44766
 C260 C 0.76894 -0.03482 0.45117
 C261 C 0.76635 -0.02127 0.46922
 C262 C 0.72833 -0.02651 0.53719
 C263 C 0.72762 -0.04030 0.55539
 C264 C 0.74575 -0.05290 0.56130
 C265 C 0.76457 -0.05143 0.54881
 C266 C 0.76513 -0.03801 0.53042
 C267 C 0.76293 0.01951 0.54101
 C268 C 0.76282 0.03180 0.56007
 C269 C 0.74636 0.04718 0.56388
 C270 C 0.72990 0.04978 0.54827
 C271 C 0.72998 0.03743 0.52928
 C272 C 0.76187 0.04007 0.48197
 C273 C 0.76148 0.05356 0.46362
 C274 C 0.74567 0.05080 0.44745
 C275 C 0.73040 0.03400 0.44994
 C276 C 0.73080 0.02047 0.46837
 H277 H 0.72175 -0.04518 0.49103
 H278 H 0.72626 -0.06885 0.45958
 H279 H 0.78247 -0.03209 0.44045
 H280 H 0.77797 -0.00842 0.47215
 H281 H 0.71417 -0.01706 0.53267
 H282 H 0.71295 -0.04121 0.56483
 H283 H 0.77962 -0.03746 0.52068
 H284 H 0.77609 0.00820 0.53821
 H285 H 0.77566 0.02928 0.57182
 H286 H 0.71722 0.06177 0.55047
 H287 H 0.71725 0.03992 0.51739
 H288 H 0.77418 0.04261 0.49423
 H289 H 0.77365 0.06613 0.46204
 H290 H 0.71784 0.03167 0.43791
 H291 H 0.71860 0.00796 0.47021
 H292 H 0.77865 -0.06119 0.55292
 C293 C 0.50197 0.25036 0.00793
 C294 C 0.50122 0.25186 -0.01405
 C295 C 0.48050 0.25273 -0.02606
 C296 C 0.52103 0.25198 -0.02747
 C297 C 0.52264 0.24991 0.02013
 C298 C 0.48216 0.24875 0.02125
 C299 C 0.46671 0.23461 -0.02666
 C300 C 0.44800 0.23521 -0.03945
 C301 C 0.44274 0.25400 -0.05177
 C302 C 0.45642 0.27228 -0.05057
 C303 C 0.47520 0.27155 -0.03803
 C304 C 0.52388 0.23558 -0.04297
 C305 C 0.54222 0.23531 -0.05598
 C306 C 0.55805 0.25156 -0.05388
 C307 C 0.55509 0.26817 -0.03846
 C308 C 0.53671 0.26837 -0.02533
 C309 C 0.52648 0.26594 0.03581
 C310 C 0.54508 0.26514 0.04860
 C311 C 0.56017 0.24814 0.04612
 C312 C 0.55647 0.23223 0.03014
 C313 C 0.53779 0.23306 0.01729
 C314 C 0.46677 0.26564 0.02156
 C315 C 0.44923 0.26451 0.03578
 C316 C 0.44694 0.24655 0.04999
 C317 C 0.46213 0.22947 0.04916
 C318 C 0.47959 0.23063 0.03502
 H319 H 0.47075 0.21986 -0.01767
 H320 H 0.43802 0.22074 -0.04017
 H321 H 0.45265 0.28720 -0.05939
 H322 H 0.48570 0.28568 -0.03767
 H323 H 0.51190 0.22288 -0.04495
 H324 H 0.54383 0.22256 -0.06799
 H325 H 0.53464 0.28132 -0.01361
 H326 H 0.51494 0.27903 0.03823
 H327 H 0.54763 0.27783 0.06051
 H328 H 0.56766 0.21879 0.02805
 H329 H 0.53491 0.22032 0.00551
 H330 H 0.46869 0.27994 0.01129
 H331 H 0.43790 0.27802 0.03619
 H332 H 0.46061 0.21524 0.05959
 H333 H 0.49131 0.21744 0.03498
 H334 H 0.56705 0.28088 -0.03649
 C335 C 0.50273 0.75182 -0.00832
 C336 C 0.50095 0.75036 0.01366
 C337 C 0.47970 0.75148 0.02464
 C338 C 0.52016 0.74838 0.02810
 C339 C 0.52399 0.75274 -0.01932
 C340 C 0.48347 0.75311 -0.02273
 C341 C 0.46607 0.76967 0.02182
 C342 C 0.44682 0.77121 0.03345
 C343 C 0.44093 0.75463 0.04819
 C344 C 0.45453 0.73635 0.05079
 C345 C 0.47377 0.73485 0.03919
 C346 C 0.52278 0.76322 0.04517
 C347 C 0.54043 0.76150 0.05922
 C348 C 0.55582 0.74481 0.05656
 C349 C 0.55319 0.72991 0.03946
 C350 C 0.53542 0.73159 0.02544
 C351 C 0.52846 0.73806 -0.03612
 C352 C 0.54769 0.73957 -0.04770
 C353 C 0.56287 0.75586 -0.04279
 C354 C 0.55845 0.77046 -0.02581
 C355 C 0.53914 0.76898 -0.01424
 C356 C 0.46771 0.73666 -0.02260
 C357 C 0.45033 0.73762 -0.03716
 C358 C 0.44853 0.75496 -0.05221
 C359 C 0.46421 0.77151 -0.05205
 C360 C 0.48153 0.77053 -0.03754
 H361 H 0.47056 0.78287 0.01094
 H362 H 0.43659 0.78541 0.03101
 H363 H 0.45061 0.72350 0.06227
 H364 H 0.48420 0.72081 0.04175
 H365 H 0.51121 0.77630 0.04751
 H366 H 0.54219 0.77341 0.07203
 H367 H 0.53348 0.71971 0.01262
 H368 H 0.51689 0.72557 -0.04043
 H369 H 0.55037 0.72835 -0.06095
 H370 H 0.56987 0.78311 -0.02154
 H371 H 0.53583 0.78073 -0.00160
 H372 H 0.46912 0.72289 -0.01153
 H373 H 0.43864 0.72450 -0.03706
 H374 H 0.46308 0.78527 -0.06316
 H375 H 0.49350 0.78339 -0.03787
 H376 H 0.56466 0.71674 0.03719
 C377 C -0.01261 0.49938 0.25401
 C378 C 0.00934 0.49947 0.25402
 C379 C 0.02218 0.47890 0.25437
 C380 C 0.02207 0.52002 0.25325
 C381 C -0.02553 0.51989 0.25454
 C382 C -0.02507 0.47866 0.25329
 C383 C 0.02013 0.46353 0.27128
 C384 C 0.03358 0.44511 0.27211
 C385 C 0.04945 0.44192 0.25618
 C386 C 0.05114 0.45716 0.23910
 C387 C 0.03770 0.47547 0.23825
 C388 C 0.03850 0.52324 0.26863
 C389 C 0.05245 0.54100 0.26678
 C390 C 0.05032 0.55591 0.24945
 C391 C 0.03341 0.55312 0.23442
 C392 C 0.01948 0.53522 0.23622
 C393 C -0.04193 0.52317 0.23908
 C394 C -0.05514 0.54165 0.23994
 C395 C -0.05229 0.55724 0.25634
 C396 C -0.03570 0.55411 0.27171
 C397 C -0.02252 0.53550 0.27091
 C398 C -0.02231 0.46367 0.23635
 C399 C -0.03483 0.44470 0.23548
 C400 C -0.05045 0.44047 0.25145
 C401 C -0.05319 0.45558 0.26833
 C402 C -0.04067 0.47449 0.26919
 H403 H 0.00849 0.46609 0.28408
 H404 H 0.03205 0.43374 0.28557
 H405 H 0.06296 0.45496 0.22640
 H406 H 0.03952 0.48713 0.22507
 H407 H 0.04081 0.51168 0.28185
 H408 H 0.06513 0.54291 0.27876
 H409 H 0.00718 0.53281 0.22393
 H410 H -0.04456 0.51133 0.22635
 H411 H -0.06760 0.54377 0.22772
 H412 H -0.03331 0.56573 0.28468
 H413 H -0.01027 0.53306 0.28329
 H414 H -0.01063 0.46679 0.22368
 H415 H -0.03225 0.43332 0.22235
 H416 H -0.06534 0.45301 0.28064
 H417 H -0.04322 0.48598 0.28225
 H418 H 0.03155 0.56423 0.22078
 C419 C 0.01329 0.49919 0.74743
 C420 C -0.00861 0.49919 0.74783
 C421 C -0.02084 0.47848 0.74866
 C422 C -0.02169 0.51956 0.74733
 C423 C 0.02607 0.51963 0.74620
 C424 C 0.02585 0.47851 0.74853
 C425 C -0.02246 0.46520 0.73027
 C426 C -0.03548 0.44658 0.73070
 C427 C -0.04673 0.44085 0.74965
 C428 C -0.04461 0.45390 0.76820
 C429 C -0.03194 0.47273 0.76762
 C430 C -0.03790 0.52203 0.73154
 C431 C -0.05139 0.54033 0.73155
 C432 C -0.04906 0.55651 0.74746
 C433 C -0.03256 0.55424 0.76308
 C434 C -0.01907 0.53583 0.76311
 C435 C 0.04232 0.52321 0.76167
 C436 C 0.05553 0.54155 0.76021
 C437 C 0.05285 0.55669 0.74316
 C438 C 0.03636 0.55331 0.72779
 C439 C 0.02316 0.53482 0.72921
 C440 C 0.02511 0.46502 0.76703
 C441 C 0.03841 0.44656 0.76862
 C442 C 0.05269 0.44131 0.75174
 C443 C 0.05311 0.45470 0.73310
 C444 C 0.03990 0.47320 0.73159
 H445 H -0.01408 0.46958 0.71548
 H446 H -0.03690 0.43671 0.71624
 H447 H -0.05331 0.44989 0.78290
 H448 H -0.03089 0.48294 0.78188
 H449 H -0.04020 0.50969 0.71922
 H450 H -0.06373 0.54178 0.71911
 H451 H -0.00694 0.53402 0.77571
 H452 H 0.04483 0.51169 0.77489
 H453 H 0.06786 0.54392 0.77247
 H454 H 0.03410 0.56462 0.71436
 H455 H 0.01098 0.53215 0.71686
 H456 H 0.01462 0.46909 0.78043
 H457 H 0.03765 0.43648 0.78311
 H458 H 0.06416 0.45127 0.71999
 H459 H 0.04082 0.48358 0.71730
 H460 H -0.03055 0.56635 0.77567
 C461 C 0.31442 0.26707 0.15147
 C462 C 0.33006 0.26846 0.13523
 C463 C 0.34401 0.25085 0.13127
 C464 C 0.34159 0.23151 0.14352
 C465 C 0.32596 0.23011 0.15974
 C466 C 0.31225 0.24791 0.16403
 C467 C 0.36051 0.25303 0.11401
 C468 C 0.37903 0.24160 0.11417
 C469 C 0.39601 0.24379 0.09741
 C470 C 0.41704 0.23706 0.10274
 C471 C 0.43351 0.23817 0.08742
 C472 C 0.42932 0.24586 0.06626
 C473 C 0.40828 0.25264 0.06085
 C474 C 0.39174 0.25154 0.07623
 H475 H 0.30423 0.28115 0.15423
 H476 H 0.33144 0.28348 0.12591
 H477 H 0.35147 0.21726 0.14042
 H478 H 0.32457 0.21493 0.16873
 H479 H 0.35776 0.26534 0.10159
 H480 H 0.38257 0.23087 0.12778
 H481 H 0.42078 0.23100 0.11890
 H482 H 0.44962 0.23315 0.09222
 H483 H 0.40450 0.25833 0.04458
 H484 H 0.37562 0.25627 0.07127
 C485 C 0.66843 0.77401 0.17655
 C486 C 0.65095 0.77247 0.16226
 C487 C 0.64939 0.75508 0.14765
 C488 C 0.66564 0.73898 0.14781
 C489 C 0.68315 0.74047 0.16212
 C490 C 0.68488 0.75803 0.17677
 C491 C 0.63023 0.75403 0.13318
 C492 C 0.62950 0.74257 0.11468
 C493 C 0.61028 0.74236 0.10025
 C494 C 0.61301 0.73836 0.07801
 C495 C 0.59532 0.73880 0.06383
 C496 C 0.57449 0.74313 0.07165
 C497 C 0.57166 0.74636 0.09402
 C498 C 0.58931 0.74588 0.10819
 H499 H 0.66879 0.78782 0.18740
 H500 H 0.63859 0.78503 0.16260
 H501 H 0.66475 0.72495 0.13726
 H502 H 0.69515 0.72763 0.16163
 H503 H 0.61654 0.76410 0.13755
 H504 H 0.64379 0.73415 0.10909
 H505 H 0.62896 0.73536 0.07152
 H506 H 0.59801 0.73632 0.04666
 H507 H 0.55572 0.74916 0.10060
 H508 H 0.58639 0.74808 0.12533
 C509 C 0.68690 0.27479 -0.16043
 C510 C 0.67206 0.27651 -0.14350
 C511 C 0.65490 0.26174 -0.14174
 C512 C 0.65258 0.24544 -0.15761
 C513 C 0.66745 0.24366 -0.17449
 C514 C 0.68482 0.25829 -0.17610
 C515 C 0.63932 0.26429 -0.12372
 C516 C 0.62773 0.24758 -0.11581
 C517 C 0.61127 0.24971 -0.09854
 C518 C 0.60430 0.23063 -0.08796
 C519 C 0.58756 0.23138 -0.07292
 C520 C 0.57723 0.25125 -0.06820
 C521 C 0.58455 0.27051 -0.07828
 C522 C 0.60134 0.26978 -0.09338
 H523 H 0.70011 0.28629 -0.16104
 H524 H 0.67411 0.28933 -0.13161
 H525 H 0.63906 0.23429 -0.15734
 H526 H 0.66509 0.23102 -0.18647
 H527 H 0.63811 0.28025 -0.11633
 H528 H 0.63064 0.23129 -0.12194
 H529 H 0.61164 0.21498 -0.09160
 H530 H 0.58249 0.21632 -0.06516
 H531 H 0.57670 0.28602 -0.07516
 H532 H 0.60582 0.28481 -0.10148
 C533 C 0.31400 0.73471 -0.15188
 C534 C 0.32979 0.73364 -0.13561
 C535 C 0.34420 0.75099 -0.13252
 C536 C 0.34209 0.76979 -0.14566
 C537 C 0.32631 0.77088 -0.16191
 C538 C 0.31215 0.75331 -0.16534
 C539 C 0.36089 0.74910 -0.11527
 C540 C 0.37975 0.75978 -0.11612
 C541 C 0.39696 0.75768 -0.09943
 C542 C 0.41809 0.76340 -0.10515
 C543 C 0.43479 0.76230 -0.08990
 C544 C 0.43072 0.75561 -0.06844
 C545 C 0.40958 0.74983 -0.06264
 C546 C 0.39284 0.75091 -0.07794
 H547 H 0.30347 0.72082 -0.15398
 H548 H 0.33095 0.71904 -0.12558
 H549 H 0.35234 0.78386 -0.14326
 H550 H 0.32516 0.78565 -0.17161
 H551 H 0.35797 0.73753 -0.10226
 H552 H 0.38335 0.76975 -0.13022
 H553 H 0.42174 0.76867 -0.12156
 H554 H 0.45095 0.76654 -0.09497
 H555 H 0.40589 0.74496 -0.04614
 H556 H 0.37670 0.74694 -0.07269
 C557 C 0.17054 0.33058 0.22586
 C558 C 0.15527 0.34735 0.22705
 C559 C 0.14168 0.34916 0.24510
 C560 C 0.14378 0.33380 0.26211
 C561 C 0.15911 0.31699 0.26093
 C562 C 0.17274 0.31523 0.24282
 C563 C 0.12640 0.36784 0.24581
 C564 C 0.10885 0.36862 0.25848
 C565 C 0.09396 0.38766 0.25847
 C566 C 0.07217 0.38456 0.26377
 C567 C 0.05766 0.40216 0.26326
 C568 C 0.06474 0.42323 0.25757
 C569 C 0.08669 0.42643 0.25299
 C570 C 0.10115 0.40891 0.25353
 H571 H 0.18055 0.32974 0.21157
 H572 H 0.15409 0.35900 0.21377
 H573 H 0.13406 0.33497 0.27659
 H574 H 0.16049 0.30567 0.27443
 H575 H 0.12938 0.38118 0.23459
 H576 H 0.10448 0.35455 0.26824
 H577 H 0.06628 0.36840 0.26788
 H578 H 0.04083 0.39920 0.26686
 H579 H 0.09274 0.44260 0.24917
 H580 H 0.11798 0.41216 0.25030
 C581 C 0.17306 0.66853 0.77205
 C582 C 0.15806 0.65162 0.77071
 C583 C 0.14302 0.65090 0.75368
 C584 C 0.14330 0.66758 0.73786
 C585 C 0.15829 0.68459 0.73919
 C586 C 0.17354 0.68530 0.75625
 C587 C 0.12815 0.63196 0.75269
 C588 C 0.11005 0.63128 0.74067
 C589 C 0.09574 0.61188 0.74044
 C590 C 0.07365 0.61462 0.73599
 C591 C 0.05968 0.59668 0.73647
 C592 C 0.06760 0.57565 0.74136
 C593 C 0.08982 0.57281 0.74499
 C594 C 0.10375 0.59066 0.74442
 H595 H 0.18425 0.66815 0.78555
 H596 H 0.15828 0.63894 0.78309
 H597 H 0.13237 0.66740 0.72414
 H598 H 0.15795 0.69693 0.72654
 H599 H 0.13206 0.61819 0.76315
 H600 H 0.10479 0.64559 0.73166
 H601 H 0.06711 0.63075 0.73261
 H602 H 0.04262 0.59932 0.73359
 H603 H 0.09646 0.55669 0.74818
 H604 H 0.12080 0.58770 0.74693
 C605 C -0.17346 0.67094 0.22971
 C606 C -0.15887 0.65351 0.23067
 C607 C -0.14276 0.65261 0.24670
 C608 C -0.14166 0.66957 0.26197
 C609 C -0.15623 0.68709 0.26101
 C610 C -0.17245 0.68806 0.24488
 C611 C -0.12815 0.63332 0.24724
 C612 C -0.10929 0.63248 0.25803
 C613 C -0.09507 0.61290 0.25806
 C614 C -0.07290 0.61547 0.26207
 C615 C -0.05897 0.59741 0.26177
 C616 C -0.06698 0.57640 0.25753
 C617 C -0.08925 0.57373 0.25418
 C618 C -0.10316 0.59172 0.25456
 H619 H -0.18547 0.67073 0.21695
 H620 H -0.16021 0.64062 0.21876
 H621 H -0.12992 0.66928 0.27500
 H622 H -0.15476 0.69964 0.27319
 H623 H -0.13292 0.61950 0.23746
 H624 H -0.10336 0.64686 0.26623
 H625 H -0.06629 0.63155 0.26508
 H626 H -0.04187 0.59995 0.26440
 H627 H -0.09595 0.55764 0.25148
 H628 H -0.12023 0.58885 0.25238
 C629 C -0.17982 0.34219 0.75879
 C630 C -0.16427 0.35864 0.75774
 C631 C -0.14357 0.35414 0.74993
 C632 C -0.13870 0.33294 0.74282
 C633 C -0.15437 0.31655 0.74341
 C634 C -0.17522 0.32089 0.75142
 C635 C -0.12768 0.37201 0.74851
 C636 C -0.10663 0.36894 0.75245
 C637 C -0.09106 0.38711 0.75124
 C638 C -0.07470 0.38866 0.76694
 C639 C -0.06020 0.40612 0.76644
 C640 C -0.06147 0.42192 0.74982
 C641 C -0.07745 0.42000 0.73373
 C642 C -0.09224 0.40282 0.73451
 H643 H -0.19557 0.34652 0.76493
 H644 H -0.16836 0.37494 0.76320
 H645 H -0.12293 0.32912 0.73637
 H646 H -0.14988 0.30048 0.73775
 H647 H -0.13366 0.38840 0.74531
 H648 H -0.10088 0.35312 0.75807
 H649 H -0.07350 0.37664 0.77990
 H650 H -0.04796 0.40730 0.77898
 H651 H -0.07879 0.43208 0.72085
 H652 H -0.10451 0.40176 0.72199
 C653 C 0.25803 0.14666 0.30072
 C654 C 0.25888 0.12975 0.31610
 C655 C 0.24650 0.13073 0.33507
 C656 C 0.23341 0.14924 0.33850
 C657 C 0.23254 0.16614 0.32312
 C658 C 0.24485 0.16510 0.30404
 C659 C 0.24853 0.11279 0.35132
 C660 C 0.23354 0.10852 0.36642
 C661 C 0.23592 0.09149 0.38359
 C662 C 0.21747 0.08486 0.39497
 C663 C 0.21904 0.07001 0.41226
 C664 C 0.23919 0.06149 0.41867
 C665 C 0.25765 0.06785 0.40709
 C666 C 0.25609 0.08274 0.38982
 H667 H 0.26769 0.14517 0.28623
 H668 H 0.26925 0.11580 0.31312
 H669 H 0.22421 0.15108 0.35325
 H670 H 0.22249 0.18019 0.32649
 H671 H 0.26269 0.10248 0.35026
 H672 H 0.21853 0.11759 0.36612
 H673 H 0.20176 0.09148 0.39070
 H674 H 0.20455 0.06576 0.42106
 H675 H 0.27339 0.06148 0.41154
 H676 H 0.27083 0.08774 0.38195
 C677 C 0.77409 0.17150 0.67278
 C678 C 0.77430 0.15512 0.65711
 C679 C 0.76085 0.13681 0.65899
 C680 C 0.74740 0.13503 0.67730
 C681 C 0.74715 0.15150 0.69299
 C682 C 0.76041 0.17000 0.69086
 C683 C 0.76175 0.12007 0.64164
 C684 C 0.74644 0.10500 0.63814
 C685 C 0.74710 0.08944 0.61972
 C686 C 0.72768 0.08041 0.61221
 C687 C 0.72744 0.06646 0.59432
 C688 C 0.74669 0.06104 0.58362
 C689 C 0.76624 0.06946 0.59159
 C690 C 0.76648 0.08341 0.60948
 H691 H 0.78448 0.18548 0.67044
 H692 H 0.78491 0.15692 0.64329
 H693 H 0.73726 0.12089 0.67980
 H694 H 0.73671 0.14961 0.70690
 H695 H 0.77510 0.12126 0.63045
 H696 H 0.73209 0.10491 0.64806
 H697 H 0.71255 0.08447 0.61998
 H698 H 0.71215 0.05992 0.58885
 H699 H 0.78135 0.06567 0.58371
 H700 H 0.78190 0.08932 0.61518
 C701 C 0.26516 -0.15631 0.68799
 C702 C 0.26628 -0.14013 0.67192
 C703 C 0.24853 -0.13575 0.65836
 C704 C 0.22964 -0.14818 0.66099
 C705 C 0.22855 -0.16444 0.67701
 C706 C 0.24630 -0.16871 0.69070
 C707 C 0.25076 -0.11898 0.64103
 C708 C 0.23401 -0.10793 0.63242
 C709 C 0.23601 -0.09184 0.61435
 C710 C 0.21745 -0.08632 0.60232
 C711 C 0.21866 -0.07201 0.58457
 C712 C 0.23850 -0.06285 0.57849
 C713 C 0.25695 -0.06775 0.59094
 C714 C 0.25574 -0.08197 0.60874
 H715 H 0.27926 -0.15928 0.69801
 H716 H 0.28110 -0.13096 0.67008
 H717 H 0.21584 -0.14581 0.65040
 H718 H 0.21375 -0.17362 0.67862
 H719 H 0.26695 -0.11582 0.63542
 H720 H 0.21791 -0.11113 0.63835
 H721 H 0.20202 -0.09350 0.60636
 H722 H 0.20419 -0.06865 0.57520
 H723 H 0.27237 -0.06054 0.58690
 H724 H 0.27031 -0.08496 0.61800
 C725 C 0.75268 -0.14174 0.30576
 C726 C 0.75268 -0.12540 0.32153
 C727 C 0.76514 -0.12770 0.34047
 C728 C 0.77834 -0.14633 0.34293
 C729 C 0.77841 -0.16262 0.32713
 C730 C 0.76537 -0.16068 0.30848
 C731 C 0.76397 -0.11046 0.35724
 C732 C 0.76732 -0.11459 0.37840
 C733 C 0.76446 -0.09808 0.39565
 C734 C 0.75966 -0.10542 0.41669
 C735 C 0.75654 -0.09056 0.43347
 C736 C 0.75840 -0.06797 0.42967
 C737 C 0.76377 -0.06056 0.40875
 C738 C 0.76674 -0.07546 0.39185
 H739 H 0.74270 -0.13945 0.29147
 H740 H 0.74258 -0.11108 0.31911
 H741 H 0.78873 -0.14836 0.35697
 H742 H 0.78849 -0.17687 0.32979
 H743 H 0.75850 -0.09439 0.35213
 H744 H 0.77069 -0.13120 0.38364
 H745 H 0.75808 -0.12274 0.42011
 H746 H 0.75287 -0.09678 0.44954
 H747 H 0.76539 -0.04323 0.40540
 H748 H 0.77104 -0.06923 0.37598
 C749 C 0.69763 0.73835 -0.14229
 C750 C 0.68286 0.73736 -0.12524
 C751 C 0.66561 0.75223 -0.12418
 C752 C 0.66345 0.76819 -0.14065
 C753 C 0.67829 0.76925 -0.15763
 C754 C 0.69545 0.75423 -0.15875
 C755 C 0.64959 0.74963 -0.10651
 C756 C 0.63569 0.76538 -0.10063
 C757 C 0.61836 0.76231 -0.08432
 C758 C 0.60776 0.78091 -0.07635
 C759 C 0.59017 0.77886 -0.06237
 C760 C 0.58271 0.75810 -0.05607
 C761 C 0.59362 0.73948 -0.06361
 C762 C 0.61114 0.74151 -0.07765
 H763 H 0.71074 0.72662 -0.14253
 H764 H 0.68484 0.72480 -0.11289
 H765 H 0.65001 0.77949 -0.14099
 H766 H 0.67590 0.78146 -0.17021
 H767 H 0.64964 0.73414 -0.09796
 H768 H 0.63697 0.78147 -0.10792
 H769 H 0.61281 0.79712 -0.08133
 H770 H 0.58193 0.79354 -0.05715
 H771 H 0.58839 0.72325 -0.05890
 H772 H 0.61838 0.72667 -0.08370
 C773 C 0.31577 0.21971 -0.15460
 C774 C 0.33090 0.21998 -0.13770
 C775 C 0.33743 0.23983 -0.12854
 C776 C 0.32775 0.25938 -0.13586
 C777 C 0.31246 0.25910 -0.15260
 C778 C 0.30657 0.23930 -0.16240
 C779 C 0.35448 0.23963 -0.11164
 C780 C 0.36886 0.25584 -0.10976
 C781 C 0.38736 0.25501 -0.09451
 C782 C 0.40636 0.26593 -0.10021
 C783 C 0.42430 0.26544 -0.08644
 C784 C 0.42351 0.25438 -0.06635
 C785 C 0.40431 0.24367 -0.06050
 C786 C 0.38642 0.24394 -0.07445
 H787 H 0.31134 0.20415 -0.16155
 H788 H 0.33795 0.20468 -0.13216
 H789 H 0.33197 0.27491 -0.12868
 H790 H 0.30566 0.27448 -0.15816
 H791 H 0.35640 0.22492 -0.10192
 H792 H 0.36820 0.26947 -0.12108
 H793 H 0.40747 0.27456 -0.11558
 H794 H 0.43891 0.27347 -0.09174
 H795 H 0.40299 0.23534 -0.04500
 H796 H 0.37180 0.23582 -0.06933
 C797 C 0.31035 0.73314 0.15160
 C798 C 0.32631 0.73137 0.13574
 C799 C 0.34063 0.74866 0.13185
 C800 C 0.33890 0.76770 0.14444
 C801 C 0.32301 0.76943 0.16035
 C802 C 0.30854 0.75217 0.16415
 C803 C 0.35779 0.74581 0.11541
 C804 C 0.36710 0.76259 0.10492
 C805 C 0.38523 0.76011 0.08945
 C806 C 0.39804 0.77846 0.08489
 C807 C 0.41584 0.77681 0.07116
 C808 C 0.42119 0.75674 0.06157
 C809 C 0.40800 0.73852 0.06554
 C810 C 0.39016 0.74017 0.07925
 H811 H 0.29967 0.71942 0.15419
 H812 H 0.32745 0.71644 0.12644
 H813 H 0.35007 0.78111 0.14246
 H814 H 0.32214 0.78434 0.16964
 H815 H 0.36275 0.72921 0.11210
 H816 H 0.36177 0.77911 0.10823
 H817 H 0.39457 0.79404 0.09239
 H818 H 0.42579 0.79110 0.06856
 H819 H 0.41146 0.72297 0.05799
 H820 H 0.38033 0.72580 0.08159
 C821 C 0.66715 0.22636 0.17418
 C822 C 0.65019 0.22684 0.15920
 C823 C 0.65220 0.23813 0.13942
 C824 C 0.67158 0.24919 0.13500
 C825 C 0.68856 0.24879 0.15006
 C826 C 0.68653 0.23739 0.16984
 C827 C 0.63335 0.23887 0.12454
 C828 C 0.63462 0.24322 0.10320
 C829 C 0.61534 0.24426 0.08888
 C830 C 0.61755 0.23980 0.06667
 C831 C 0.59966 0.24087 0.05274
 C832 C 0.57925 0.24672 0.06073
 C833 C 0.57712 0.25138 0.08293
 C834 C 0.59494 0.25027 0.09682
 H835 H 0.66483 0.21763 0.18931
 H836 H 0.63536 0.21838 0.16313
 H837 H 0.67358 0.25859 0.12022
 H838 H 0.70325 0.25744 0.14614
 H839 H 0.61784 0.23481 0.13148
 H840 H 0.65024 0.24518 0.09568
 H841 H 0.63313 0.23536 0.06011
 H842 H 0.60185 0.23743 0.03567
 H843 H 0.56159 0.25575 0.08963
 H844 H 0.59267 0.25450 0.11368
 C845 C -0.17840 0.66118 0.77001
 C846 C -0.16304 0.64445 0.76950
 C847 C -0.14516 0.64586 0.75577
 C848 C -0.14309 0.66426 0.74215
 C849 C -0.15855 0.68097 0.74248
 C850 C -0.17648 0.67976 0.75646
 C851 C -0.12968 0.62736 0.75539
 C852 C -0.10896 0.62936 0.74956
 C853 C -0.09387 0.61050 0.74921
 C854 C -0.07172 0.61406 0.75244
 C855 C -0.05711 0.59656 0.75208
 C856 C -0.06437 0.57520 0.74811
 C857 C -0.08651 0.57171 0.74462
 C858 C -0.10109 0.58913 0.74510
 H859 H -0.19184 0.65920 0.78094
 H860 H -0.16513 0.63031 0.77998
 H861 H -0.12984 0.66561 0.73086
 H862 H -0.15627 0.69477 0.73167
 H863 H -0.13547 0.61169 0.76116
 H864 H -0.10248 0.64538 0.74590
 H865 H -0.06574 0.63040 0.75541
 H866 H -0.04011 0.59976 0.75457
 H867 H -0.09261 0.55542 0.74165
 H868 H -0.11793 0.58582 0.74187
 C869 C -0.17188 0.32858 0.22163
 C870 C -0.15636 0.34512 0.22118
 C871 C -0.13750 0.34341 0.23378
 C872 C -0.13419 0.32442 0.24643
 C873 C -0.14975 0.30792 0.24695
 C874 C -0.16884 0.30987 0.23468
 C875 C -0.12169 0.36159 0.23303
 C876 C -0.10711 0.36530 0.24875
 C877 C -0.09213 0.38420 0.24868
 C878 C -0.08319 0.39097 0.26849
 C879 C -0.06946 0.40902 0.26935
 C880 C -0.06422 0.42066 0.25036
 C881 C -0.07265 0.41352 0.23041
 C882 C -0.08638 0.39544 0.22954
 H883 H -0.18639 0.33069 0.21201
 H884 H -0.15926 0.35947 0.21115
 H885 H -0.11953 0.32200 0.25572
 H886 H -0.14664 0.29354 0.25681
 H887 H -0.12318 0.37304 0.21964
 H888 H -0.10696 0.35501 0.26310
 H889 H -0.08708 0.38245 0.28343
 H890 H -0.06290 0.41385 0.28491
 H891 H -0.06896 0.42217 0.21550
 H892 H -0.09230 0.39035 0.21384
 C893 C 0.16317 0.31524 0.72974
 C894 C 0.14709 0.33126 0.72821
 C895 C 0.14256 0.34488 0.74585
 C896 C 0.15481 0.34243 0.76502
 C897 C 0.17096 0.32645 0.76653
 C898 C 0.17530 0.31262 0.74893
 C899 C 0.12561 0.36191 0.74325
 C900 C 0.11490 0.37075 0.75994
 C901 C 0.09835 0.38821 0.75739
 C902 C 0.09375 0.40150 0.77528
 C903 C 0.07871 0.41850 0.77355
 C904 C 0.06779 0.42251 0.75388
 C905 C 0.07193 0.40885 0.73611
 C906 C 0.08696 0.39182 0.73784
 H907 H 0.16621 0.30514 0.71573
 H908 H 0.13809 0.33297 0.71317
 H909 H 0.15236 0.35306 0.77875
 H910 H 0.17997 0.32496 0.78155
 H911 H 0.12191 0.36709 0.72683
 H912 H 0.11863 0.36548 0.77634
 H913 H 0.10215 0.39900 0.79056
 H914 H 0.07602 0.42886 0.78747
 H915 H 0.06341 0.41126 0.72088
 H916 H 0.08933 0.38146 0.72390
 C917 C 0.14414 0.69613 0.25039
 C918 C 0.12756 0.68067 0.25109
 C919 C 0.12913 0.66117 0.23932
 C920 C 0.14734 0.65777 0.22620
 C921 C 0.16388 0.67324 0.22545
 C922 C 0.16259 0.69253 0.23768
 C923 C 0.11149 0.64491 0.24096
 C924 C 0.11469 0.62341 0.23814
 C925 C 0.09764 0.60671 0.24103
 C926 C 0.10391 0.58527 0.24634
 C927 C 0.08852 0.56891 0.24919
 C928 C 0.06645 0.57355 0.24652
 C929 C 0.06011 0.59491 0.24080
 C930 C 0.07554 0.61138 0.23811
 H931 H 0.14238 0.71091 0.25977
 H932 H 0.11359 0.68382 0.26110
 H933 H 0.14883 0.64330 0.21631
 H934 H 0.17775 0.66988 0.21541
 H935 H 0.09585 0.65072 0.24618
 H936 H 0.13085 0.61745 0.23504
 H937 H 0.12082 0.58118 0.24844
 H938 H 0.09393 0.55250 0.25318
 H939 H 0.04320 0.59891 0.23859
 H940 H 0.07013 0.62758 0.23341
 C941 C 0.75194 -0.14648 0.70266
 C942 C 0.75107 -0.12951 0.68736
 C943 C 0.75474 -0.13373 0.66534
 C944 C 0.76000 -0.15511 0.65892
 C945 C 0.76134 -0.17199 0.67429
 C946 C 0.75714 -0.16786 0.69626
 C947 C 0.75373 -0.11551 0.64948
 C948 C 0.74577 -0.11806 0.62942
 C949 C 0.74514 -0.10016 0.61317
 C950 C 0.72854 -0.09975 0.59761
 C951 C 0.72826 -0.08381 0.58123
 C952 C 0.74490 -0.06835 0.57984
 C953 C 0.76145 -0.06866 0.59547
 C954 C 0.76153 -0.08434 0.61207
 H955 H 0.74886 -0.14282 0.71953
 H956 H 0.74724 -0.11310 0.69267
 H957 H 0.76341 -0.15872 0.64210
 H958 H 0.76533 -0.18832 0.66892
 H959 H 0.75867 -0.09944 0.65485
 H960 H 0.73875 -0.13360 0.62491
 H961 H 0.71586 -0.11189 0.59805
 H962 H 0.71548 -0.08403 0.56919
 H963 H 0.77446 -0.05690 0.59464
 H964 H 0.77482 -0.08454 0.62354
 C965 C 0.26351 -0.15469 0.30803
 C966 C 0.26510 -0.13867 0.32405
 C967 C 0.24828 -0.13542 0.33883
 C968 C 0.22948 -0.14809 0.33684
 C969 C 0.22784 -0.16405 0.32080
 C970 C 0.24489 -0.16769 0.30628
 C971 C 0.25062 -0.11845 0.35575
 C972 C 0.24057 -0.11973 0.37494
 C973 C 0.24263 -0.10319 0.39231
 C974 C 0.23743 -0.10941 0.41360
 C975 C 0.23806 -0.09425 0.43041
 C976 C 0.24371 -0.07238 0.42630
 C977 C 0.24917 -0.06612 0.40503
 C978 C 0.24857 -0.08134 0.38816
 H979 H 0.27699 -0.15692 0.29720
 H980 H 0.27967 -0.12898 0.32509
 H981 H 0.21582 -0.14551 0.34740
 H982 H 0.21308 -0.17335 0.31976
 H983 H 0.26184 -0.10529 0.35265
 H984 H 0.23103 -0.13406 0.37865
 H985 H 0.23280 -0.12610 0.41725
 H986 H 0.23412 -0.09968 0.44668
 H987 H 0.25330 -0.04931 0.40133
 H988 H 0.25214 -0.07574 0.37189
 C989 C 0.77478 0.17121 0.33238
 C990 C 0.77410 0.15658 0.34989
 C991 C 0.75676 0.14210 0.35236
 C992 C 0.73985 0.14280 0.33706
 C993 C 0.74050 0.15747 0.31956
 C994 C 0.75798 0.17187 0.31695
 C995 C 0.75650 0.12731 0.37155
 C996 C 0.74509 0.10871 0.37256
 C997 C 0.74509 0.09420 0.39196
 C998 C 0.74072 0.07184 0.38943
 C999 C 0.74079 0.05770 0.40740
 C1000 C 0.74502 0.06571 0.42832
 C1001 C 0.74881 0.08820 0.43090
 C1002 C 0.74880 0.10229 0.41297
 H1003 H 0.78853 0.18196 0.33105
 H1004 H 0.78724 0.15654 0.36155
 H1005 H 0.72584 0.13244 0.33875
 H1006 H 0.72709 0.15760 0.30828
 H1007 H 0.76696 0.13156 0.38498
 H1008 H 0.73627 0.10322 0.35842
 H1009 H 0.73758 0.06524 0.37345
 H1010 H 0.73792 0.04044 0.40487
 H1011 H 0.75153 0.09497 0.44687
 H1012 H 0.75134 0.11955 0.41573
 C1013 C 0.27007 0.15217 0.68731
 C1014 C 0.27175 0.13611 0.67133
 C1015 C 0.25626 0.13468 0.65473
 C1016 C 0.23932 0.15004 0.65411
 C1017 C 0.23764 0.16607 0.67005
 C1018 C 0.25295 0.16733 0.68690
 C1019 C 0.25865 0.11760 0.63791
 C1020 C 0.24184 0.10975 0.62663
 C1021 C 0.24363 0.09337 0.60906
 C1022 C 0.22480 0.08270 0.60223
 C1023 C 0.22525 0.06823 0.58481
 C1024 C 0.24457 0.06416 0.57371
 C1025 C 0.26354 0.07450 0.58072
 C1026 C 0.26309 0.08906 0.59814
 H1027 H 0.28233 0.15272 0.69984
 H1028 H 0.28513 0.12468 0.67201
 H1029 H 0.22750 0.15005 0.64113
 H1030 H 0.22426 0.17742 0.66904
 H1031 H 0.27461 0.11089 0.63549
 H1032 H 0.22572 0.11516 0.63069
 H1033 H 0.20958 0.08574 0.61027
 H1034 H 0.21042 0.06030 0.57993
 H1035 H 0.27859 0.07191 0.57223
 H1036 H 0.27787 0.09736 0.60241
   
