data_POSCAR
  _audit_creation_date              2014-09-24
  _audit_creation_method            'ToBaCCo'
  _symmetry_space_group_name_H-M    'P1'
  _symmetry_Int_Tables_number       1
  _symmetry_cell_setting            triclinic
  loop_
  _symmetry_equiv_pos_as_xyz
 x,y,z
_cell_length_a 28.3389
_cell_length_b 28.3572
_cell_length_c 26.5898
_cell_angle_alpha 87.697200
_cell_angle_beta 86.991400
_cell_angle_gamma 84.420300
loop_
  _atom_site_label
  _atom_site_type_symbol
  _atom_site_fract_x
  _atom_site_fract_y
  _atom_site_fract_z
C1 C 0.29734 0.26170 0.22887
 N2 N 0.30864 0.22581 0.26278
 C3 C 0.27604 0.21283 0.29859
 N4 N 0.23168 0.23620 0.30051
 C5 C 0.22005 0.27199 0.26644
 N6 N 0.25311 0.28460 0.23088
 C7 C 0.70842 -0.22753 0.21955
 N8 N 0.73901 -0.26539 0.20596
 C9 C 0.78119 -0.27465 0.22800
 N10 N 0.79263 -0.24585 0.26434
 C11 C 0.76240 -0.20799 0.27823
 N12 N 0.72051 -0.19878 0.25540
 C13 C 0.70843 0.30235 0.74627
 N14 N 0.70206 0.26742 0.71461
 C15 C 0.73436 0.25605 0.67672
 N16 N 0.77324 0.28046 0.66961
 C17 C 0.77978 0.31603 0.70058
 N18 N 0.74738 0.32657 0.73921
 C19 C 0.28015 -0.28625 0.80741
 N20 N 0.25077 -0.32121 0.80671
 C21 C 0.21988 -0.32219 0.76974
 N22 N 0.21831 -0.28765 0.73287
 C23 C 0.24786 -0.25263 0.73257
 N24 N 0.27869 -0.25172 0.77014
 C25 C 0.70525 -0.22466 0.79900
 N26 N 0.71546 -0.19249 0.76167
 C27 C 0.75533 -0.20010 0.73132
 N28 N 0.78513 -0.23973 0.73877
 C29 C 0.77565 -0.27218 0.77597
 N30 N 0.73553 -0.26454 0.80600
 C31 C 0.26756 0.21643 0.81207
 N32 N 0.25962 0.18449 0.77761
 C33 C 0.22174 0.19204 0.74806
 N34 N 0.19162 0.23196 0.75328
 C35 C 0.19923 0.26428 0.78774
 N36 N 0.23723 0.25635 0.81708
 C37 C 0.25632 -0.27350 0.24927
 N38 N 0.22502 -0.30686 0.25536
 C39 C 0.19134 -0.30500 0.29372
 N40 N 0.18935 -0.26936 0.32649
 C41 C 0.22049 -0.23579 0.32121
 N42 N 0.25398 -0.23777 0.28238
 C43 C 0.73610 0.27260 0.18269
 N44 N 0.72894 0.23460 0.21379
 C45 C 0.75540 0.22459 0.25438
 N46 N 0.78921 0.25318 0.26449
 C47 C 0.79650 0.29176 0.23413
 N48 N 0.76960 0.30151 0.19320
 O49 O 0.29853 0.03543 0.46922
 O50 O 0.32651 -0.06579 0.55902
 O51 O 0.31656 -0.05635 0.46130
 O52 O 0.31606 0.02546 0.56457
 O53 O 0.23915 0.02142 0.57990
 O54 O 0.24013 -0.06289 0.47678
 O55 O 0.24973 -0.07054 0.57396
 O56 O 0.22206 0.02893 0.48459
 Cu57 Cu 0.32201 -0.01486 0.51174
 Cu58 Cu 0.23015 -0.02139 0.53019
 C59 C 0.25525 0.04951 0.46203
 C60 C 0.29250 -0.08496 0.58231
 C61 C 0.27878 -0.07386 0.45148
 C62 C 0.27795 0.03740 0.58986
 O63 O 0.80576 0.04348 0.53722
 O64 O 0.77936 -0.04710 0.44930
 O65 O 0.81057 0.03659 0.44120
 O66 O 0.77584 -0.04108 0.54806
 O67 O 0.70179 -0.00888 0.54646
 O68 O 0.73607 0.06747 0.43829
 O69 O 0.70499 -0.01560 0.44842
 O70 O 0.73152 0.07504 0.53431
 Cu71 Cu 0.80023 -0.00582 0.49438
 Cu72 Cu 0.71104 0.03237 0.49174
 C73 C 0.77320 0.07554 0.54951
 C74 C 0.73771 -0.04623 0.43340
 C75 C 0.77919 0.06587 0.42211
 C76 C 0.73321 -0.03790 0.56589
 O77 O 0.47164 0.27444 0.05292
 O78 O 0.54338 0.28751 -0.06629
 O79 O 0.45246 0.29321 -0.04070
 O80 O 0.56208 0.27515 0.02862
 O81 O 0.56514 0.19808 0.01769
 O82 O 0.45370 0.21592 -0.04911
 O83 O 0.54326 0.21057 -0.07647
 O84 O 0.47638 0.19700 0.04347
 Cu85 Cu 0.50720 0.29039 -0.00546
 Cu86 Cu 0.51000 0.19773 -0.01733
 C87 C 0.46219 0.23318 0.06844
 C88 C 0.55512 0.25080 -0.09174
 C89 C 0.43410 0.25778 -0.05622
 C90 C 0.58208 0.23351 0.03532
 O91 O 0.53103 0.78392 0.07039
 O92 O 0.44205 0.80506 -0.02668
 O93 O 0.43900 0.80561 0.07328
 O94 O 0.53328 0.78315 -0.02658
 O95 O 0.52273 0.70688 -0.02190
 O96 O 0.42800 0.72956 0.07691
 O97 O 0.43165 0.72887 -0.02243
 O98 O 0.52004 0.70775 0.07411
 Cu99 Cu 0.48682 0.80226 0.02240
 Cu100 Cu 0.47377 0.71080 0.02727
 C101 C 0.54174 0.74191 0.08743
 C102 C 0.42268 0.77014 -0.04208
 C103 C 0.41789 0.77124 0.09263
 C104 C 0.54472 0.74097 -0.04039
 O105 O 0.04285 0.43494 0.25240
 O106 O -0.04165 0.53829 0.27591
 O107 O -0.04951 0.45081 0.25056
 O108 O 0.05004 0.52476 0.26499
 O109 O 0.05074 0.54140 0.18304
 O110 O -0.04808 0.47039 0.16930
 O111 O -0.04133 0.55733 0.19451
 O112 O 0.04467 0.45258 0.17073
 Cu113 Cu 0.00014 0.48527 0.26903
 Cu114 Cu 0.00132 0.50703 0.17135
 C115 C 0.05912 0.42654 0.20803
 C116 C -0.05544 0.56577 0.23983
 C117 C -0.06565 0.44836 0.20695
 C118 C 0.06735 0.54541 0.22574
 O119 O 0.04716 0.54250 0.75569
 O120 O -0.05236 0.46907 0.77588
 O121 O 0.03961 0.45113 0.76469
 O122 O -0.04530 0.55889 0.76396
 O123 O -0.04805 0.55513 0.68131
 O124 O 0.03468 0.44745 0.68234
 O125 O -0.05679 0.46478 0.69350
 O126 O 0.04329 0.53865 0.67326
 Cu127 Cu -0.00197 0.50577 0.77333
 Cu128 Cu -0.00701 0.50098 0.67435
 C129 C 0.06187 0.55364 0.71126
 C130 C -0.07174 0.45468 0.73820
 C131 C 0.05103 0.43069 0.72348
 C132 C -0.06108 0.57517 0.72218
 C133 C 0.33198 0.27546 0.18917
 C134 C 0.37235 0.24860 0.17884
 C135 C 0.40371 0.25999 0.13519
 C136 C 0.43426 0.22607 0.11561
 H137 H 0.38081 0.21597 0.20058
 H138 H 0.39941 0.29489 0.11686
 H139 H 0.32269 0.30693 0.16590
 H140 H 0.43600 0.19052 0.13249
 C141 C 0.66505 0.78255 0.19686
 C142 C 0.64810 0.75254 0.16634
 C143 C 0.60372 0.76513 0.14054
 C144 C 0.58148 0.73141 0.12072
 H145 H 0.66706 0.71802 0.15996
 H146 H 0.59023 0.80211 0.13624
 H147 H 0.64410 0.81564 0.20520
 H148 H 0.59446 0.69449 0.12695
 C149 C 0.67480 0.31197 -0.21030
 C150 C 0.63895 0.28519 -0.20017
 C151 C 0.60891 0.28890 -0.15346
 C152 C 0.58269 0.25347 -0.13976
 H153 H 0.63334 0.25735 -0.22538
 H154 H 0.61037 0.31847 -0.12917
 H155 H 0.68125 0.33923 -0.18477
 H156 H 0.58377 0.22311 -0.16351
 C157 C 0.31052 0.71304 -0.15287
 C158 C 0.33766 0.74757 -0.14395
 C159 C 0.36832 0.74191 -0.10053
 C160 C 0.39033 0.77753 -0.08404
 H161 H 0.33695 0.77959 -0.16770
 H162 H 0.37293 0.70734 -0.08148
 H163 H 0.31095 0.68254 -0.12681
 H164 H 0.38530 0.81240 -0.10227
 C165 C 0.17257 0.29832 0.26941
 C166 C 0.15668 0.32718 0.23158
 C167 C 0.11269 0.35895 0.23782
 C168 C 0.09693 0.38776 0.19988
 H169 H 0.17766 0.32940 0.19642
 H170 H 0.09491 0.36113 0.27489
 H171 H 0.15090 0.29505 0.30397
 H172 H 0.11450 0.38510 0.16275
 C173 C 0.18677 0.64080 0.77231
 C174 C 0.15949 0.63288 0.73463
 C175 C 0.12440 0.59784 0.74163
 C176 C 0.10004 0.58532 0.70339
 H177 H 0.16231 0.65281 0.69912
 H178 H 0.11769 0.58275 0.77915
 H179 H 0.18448 0.61952 0.80701
 H180 H 0.10755 0.59941 0.66563
 C181 C -0.18795 0.68649 0.21280
 C182 C -0.14773 0.67268 0.23568
 C183 C -0.11663 0.63077 0.21970
 C184 C -0.08712 0.60825 0.25213
 H185 H -0.13828 0.69117 0.26809
 H186 H -0.11903 0.61741 0.18237
 H187 H -0.19783 0.66612 0.18199
 H188 H -0.08748 0.62031 0.29036
 C189 C -0.18049 0.34129 0.69202
 C190 C -0.17000 0.37462 0.72272
 C191 C -0.12838 0.40118 0.71180
 C192 C -0.11247 0.42667 0.74733
 H193 H -0.19184 0.38226 0.75668
 H194 H -0.11042 0.39950 0.67480
 H195 H -0.15711 0.33305 0.65929
 H196 H -0.12941 0.42640 0.78486
 C197 C 0.28978 0.17342 0.33441
 C198 C 0.25865 0.15355 0.36606
 C199 C 0.27409 0.11310 0.39995
 C200 C 0.24224 0.09023 0.42766
 H201 H 0.22137 0.16651 0.36635
 H202 H 0.31162 0.10165 0.40176
 H203 H 0.32678 0.15939 0.33360
 H204 H 0.20478 0.10161 0.42493
 C205 C 0.72641 0.21714 0.64447
 C206 C 0.76184 0.18901 0.62338
 C207 C 0.75102 0.14885 0.59412
 C208 C 0.78431 0.11442 0.58063
 H209 H 0.79845 0.19465 0.62907
 H210 H 0.71471 0.14740 0.58372
 H211 H 0.69006 0.20921 0.64112
 H212 H 0.82049 0.11535 0.59165
 C213 C 0.24356 -0.21504 0.69276
 C214 C 0.27705 -0.18596 0.68023
 C215 C 0.26837 -0.14858 0.64065
 C216 C 0.30280 -0.12377 0.62007
 H217 H 0.31042 -0.18974 0.69881
 H218 H 0.23253 -0.14124 0.62802
 H219 H 0.21140 -0.21195 0.67199
 H220 H 0.33898 -0.13183 0.63133
 C221 C 0.77547 -0.17743 0.31783
 C222 C 0.74481 -0.14341 0.33737
 C223 C 0.75836 -0.11266 0.37649
 C224 C 0.72631 -0.08011 0.39645
 H225 H 0.70901 -0.13793 0.32430
 H226 H 0.79461 -0.11610 0.38830
 H227 H 0.81095 -0.18345 0.33163
 H228 H 0.69020 -0.07720 0.38420
 C229 C 0.66402 0.78418 -0.17028
 C230 C 0.64871 0.75257 -0.13596
 C231 C 0.60597 0.76443 -0.10321
 C232 C 0.58491 0.73051 -0.07687
 H233 H 0.66751 0.71755 -0.13187
 H234 H 0.59198 0.80124 -0.10026
 H235 H 0.64325 0.81810 -0.17523
 H236 H 0.59813 0.69368 -0.08147
 C237 C 0.30977 0.20759 -0.15765
 C238 C 0.32573 0.24104 -0.13083
 C239 C 0.36975 0.23120 -0.10359
 C240 C 0.38950 0.26605 -0.08264
 H241 H 0.30715 0.27630 -0.13022
 H242 H 0.38670 0.19524 -0.10164
 H243 H 0.32953 0.17292 -0.15932
 H244 H 0.37285 0.30207 -0.08559
 C245 C 0.29011 0.72267 0.20898
 C246 C 0.32078 0.75477 0.19633
 C247 C 0.35555 0.74640 0.15342
 C248 C 0.38191 0.78014 0.13433
 H249 H 0.32021 0.78701 0.21702
 H250 H 0.35951 0.71174 0.13704
 H251 H 0.29078 0.69168 0.18620
 H252 H 0.37723 0.81515 0.14984
 C253 C 0.70603 0.28322 0.13930
 C254 C 0.68193 0.24973 0.12136
 C255 C 0.64585 0.26041 0.08368
 C256 C 0.62416 0.22522 0.06570
 H257 H 0.68719 0.21366 0.13664
 H258 H 0.63499 0.29703 0.07315
 H259 H 0.70255 0.31895 0.12300
 H260 H 0.63602 0.18875 0.07597
 C261 C -0.19335 0.68685 0.78325
 C262 C -0.15532 0.67652 0.75208
 C263 C -0.12300 0.63307 0.75849
 C264 C -0.09416 0.61824 0.71976
 H265 H -0.14823 0.69982 0.71978
 H266 H -0.12357 0.61280 0.79393
 H267 H -0.20103 0.66243 0.81436
 H268 H -0.09623 0.63745 0.68371
 C269 C -0.16872 0.32070 0.24605
 C270 C -0.15825 0.35878 0.21789
 C271 C -0.12022 0.38739 0.23118
 C272 C -0.10521 0.42018 0.19837
 H273 H -0.17692 0.36847 0.18385
 H274 H -0.10344 0.38054 0.26680
 H275 H -0.14903 0.31125 0.27947
 H276 H -0.12126 0.42529 0.16216
 C277 C 0.16746 0.30838 0.79276
 C278 C 0.13701 0.32349 0.75756
 C279 C 0.10651 0.36843 0.76182
 C280 C 0.08284 0.38653 0.72225
 H281 H 0.13529 0.30303 0.72422
 H282 H 0.10383 0.38686 0.79695
 H283 H 0.17054 0.32979 0.82508
 H284 H 0.08707 0.36828 0.68699
 C285 C 0.15799 0.66163 0.29916
 C286 C 0.15572 0.62787 0.26582
 C287 C 0.11740 0.59611 0.26913
 C288 C 0.10753 0.57411 0.22806
 H289 H 0.18071 0.62527 0.23349
 H290 H 0.09563 0.59305 0.30365
 H291 H 0.13187 0.66462 0.33046
 H292 H 0.12785 0.58015 0.19306
 C293 C 0.76716 -0.16652 0.69009
 C294 C 0.73668 -0.13106 0.67372
 C295 C 0.75067 -0.10041 0.63061
 C296 C 0.71959 -0.06802 0.60963
 H297 H 0.70123 -0.12540 0.69115
 H298 H 0.78697 -0.10505 0.61524
 H299 H 0.80198 -0.17243 0.67122
 H300 H 0.68316 -0.06375 0.62459
 C301 C 0.21684 -0.19800 0.35809
 C302 C 0.24975 -0.16777 0.36151
 C303 C 0.24501 -0.13261 0.40136
 C304 C 0.28087 -0.10734 0.41025
 H305 H 0.28099 -0.16996 0.33606
 H306 H 0.21245 -0.12856 0.42474
 H307 H 0.18651 -0.19622 0.38479
 H308 H 0.31376 -0.11254 0.38756
 C309 C 0.74478 0.18457 0.28831
 C310 C 0.77577 0.16399 0.32032
 C311 C 0.76159 0.12654 0.35605
 C312 C 0.79358 0.09946 0.38206
 H313 H 0.81126 0.17519 0.32068
 H314 H 0.72415 0.12184 0.36195
 H315 H 0.71024 0.17143 0.28659
 H316 H 0.83110 0.10303 0.37492
 C317 C 0.21401 0.15819 0.70930
 C318 C 0.24830 0.12529 0.69431
 C319 C 0.24211 0.09324 0.65342
 C320 C 0.28022 0.06952 0.63147
 H321 H 0.28256 0.12310 0.71106
 H322 H 0.20697 0.09009 0.64041
 H323 H 0.18047 0.16188 0.69106
 H324 H 0.31522 0.07491 0.64353
   
