data_POSCAR
  _audit_creation_date              2014-09-24
  _audit_creation_method            'ToBaCCo'
  _symmetry_space_group_name_H-M    'P1'
  _symmetry_Int_Tables_number       1
  _symmetry_cell_setting            triclinic
  loop_
  _symmetry_equiv_pos_as_xyz
 x,y,z
_cell_length_a 20.8652
_cell_length_b 20.4098
_cell_length_c 44.9710
_cell_angle_alpha 94.143500
_cell_angle_beta 87.879600
_cell_angle_gamma 118.049000
loop_
  _atom_site_label
  _atom_site_type_symbol
  _atom_site_fract_x
  _atom_site_fract_y
  _atom_site_fract_z
C1 C 0.02318 -0.02399 0.48569
 C2 C 0.96860 0.00029 0.16864
 C3 C 0.01946 1.02946 0.83738
 O4 O 0.39988 -0.06023 -0.03762
 O5 O 0.50112 -0.08584 0.02158
 O6 O 0.37370 -0.09308 0.01835
 O7 O 0.52802 -0.05185 -0.03326
 O8 O 0.57250 0.06787 -0.02009
 O9 O 0.42195 0.02614 0.03285
 O10 O 0.55083 0.03419 0.03495
 O11 O 0.44367 0.05848 -0.02280
 Cu12 Cu 0.44556 -0.08477 -0.00919
 Cu13 Cu 0.50161 0.05863 0.00768
 C14 C 0.40406 0.00314 -0.04022
 C15 C 0.54462 -0.03008 0.03779
 C16 C 0.37196 -0.04031 0.03455
 C17 C 0.57693 0.01514 -0.03515
 O18 O 0.09144 0.48046 0.63448
 O19 O 0.06499 0.59737 0.69484
 O20 O 0.08925 0.48289 0.69228
 O21 O 0.07085 0.59790 0.63692
 O22 O -0.04742 0.52326 0.63527
 O23 O -0.02924 0.40941 0.69074
 O24 O -0.05341 0.52334 0.69321
 O25 O -0.02686 0.40585 0.63312
 Cu26 Cu 0.09103 0.54723 0.66470
 Cu27 Cu -0.05113 0.45817 0.66281
 C28 C 0.03694 0.42244 0.62395
 C29 C 0.00123 0.58019 0.70432
 C30 C 0.03308 0.42634 0.70082
 C31 C 0.00837 0.58039 0.62689
 O32 O 0.58510 0.53153 0.35636
 O33 O 0.46692 0.40877 0.29504
 O34 O 0.57834 0.54230 0.29960
 O35 O 0.48089 0.39539 0.35145
 O36 O 0.40419 0.44015 0.36201
 O37 O 0.50087 0.58645 0.30923
 O38 O 0.38944 0.45240 0.30585
 O39 O 0.50798 0.57621 0.36602
 Cu40 Cu 0.53542 0.46493 0.32449
 Cu41 Cu 0.44273 0.51807 0.33664
 C42 C 0.56660 0.57512 0.37149
 C43 C 0.40734 0.40907 0.29037
 C44 C 0.55717 0.59012 0.29592
 C45 C 0.42638 0.39297 0.36573
 C46 C -0.00244 0.02465 0.50427
 C47 C 0.04047 0.07408 0.52728
 C48 C 0.02680 0.13262 0.54296
 C49 C 0.08418 0.19098 0.55892
 C50 C 0.07446 0.24732 0.57450
 C51 C 0.00674 0.24662 0.57445
 C52 C -0.05105 0.18774 0.55878
 C53 C -0.04123 0.13129 0.54307
 C54 C -0.00642 0.30338 0.59211
 C55 C 0.04921 0.37303 0.60172
 H56 H 0.08980 0.07266 0.53293
 H57 H 0.13691 0.19288 0.55949
 H58 H 0.11973 0.28994 0.58716
 H59 H -0.10410 0.18517 0.55884
 H60 H -0.08732 0.08628 0.53169
 H61 H -0.06191 0.28896 0.59838
 H62 H -0.04898 0.02857 0.49659
 H63 H 0.10440 0.39060 0.59418
 C64 C 0.92260 0.92922 0.18438
 C65 C 0.87227 0.92627 0.20642
 C66 C 0.81943 0.85767 0.22043
 C67 C 0.76060 0.85866 0.23626
 C68 C 0.70963 0.79590 0.25024
 C69 C 0.71642 0.73033 0.24870
 C70 C 0.77558 0.72952 0.23303
 C71 C 0.82660 0.79235 0.21904
 C72 C 0.66602 0.66350 0.26444
 C73 C 0.59934 0.65210 0.27681
 H74 H 0.86886 0.97692 0.21250
 H75 H 0.75415 0.90846 0.23794
 H76 H 0.66631 0.80008 0.26270
 H77 H 0.78279 0.68017 0.23184
 H78 H 0.87198 0.78958 0.20777
 H79 H 0.68323 0.62171 0.26696
 H80 H 0.92450 0.87889 0.17640
 H81 H 0.57857 0.69066 0.27372
 C82 C 0.07652 0.04980 -0.14117
 C83 C 0.14866 0.07098 -0.14949
 C84 C 0.20282 0.07661 -0.12786
 C85 C 0.25229 0.05047 -0.13675
 C86 C 0.30024 0.04937 -0.11614
 C87 C 0.30035 0.07574 -0.08637
 C88 C 0.25363 0.10567 -0.07789
 C89 C 0.20468 0.10546 -0.09838
 C90 C 0.34787 0.07163 -0.06381
 C91 C 0.36203 0.01132 -0.06385
 H92 H 0.16285 0.07340 -0.17296
 H93 H 0.25223 0.02871 -0.15945
 H94 H 0.33710 0.02784 -0.12349
 H95 H 0.25354 0.12719 -0.05516
 H96 H 0.16828 0.12767 -0.09114
 H97 H 0.36612 0.11293 -0.04522
 H98 H 0.06249 0.04233 -0.11775
 H99 H 0.33751 -0.03402 -0.08068
 C100 C 0.05121 0.93634 0.50475
 C101 C 0.01263 0.90094 0.52997
 C102 C 0.02614 0.84845 0.54643
 C103 C -0.02921 0.80117 0.56511
 C104 C -0.02014 0.75020 0.58117
 C105 C 0.04486 0.74529 0.57897
 C106 C 0.10108 0.79374 0.56084
 C107 C 0.09181 0.84470 0.54455
 C108 C 0.05627 0.69285 0.59646
 C109 C -0.00119 0.62719 0.60597
 H110 H -0.03401 0.90820 0.53690
 H111 H -0.07998 0.80356 0.56728
 H112 H -0.06368 0.71600 0.59578
 H113 H 0.15217 0.79195 0.55921
 H114 H 0.13643 0.88152 0.53100
 H115 H 0.11141 0.70633 0.60196
 H116 H 0.09479 0.92594 0.49597
 H117 H -0.05591 0.61017 0.59865
 C118 C 0.01746 0.06143 0.19108
 C119 C 0.07535 0.12798 0.18234
 C120 C 0.12843 0.18334 0.20383
 C121 C 0.20154 0.22276 0.19528
 C122 C 0.25340 0.27410 0.21541
 C123 C 0.23259 0.28778 0.24431
 C124 C 0.15907 0.25008 0.25250
 C125 C 0.10746 0.19784 0.23256
 C126 C 0.28551 0.34239 0.26609
 C127 C 0.35814 0.35781 0.26697
 H128 H 0.08629 0.13609 0.15879
 H129 H 0.21869 0.21296 0.17312
 H130 H 0.30934 0.30377 0.20816
 H131 H 0.14164 0.26053 0.27451
 H132 H 0.05116 0.16971 0.23951
 H133 H 0.26514 0.36736 0.28350
 H134 H 0.00895 0.05198 0.21462
 H135 H 0.37807 0.32828 0.25154
 C136 C 0.94627 0.00031 -0.14660
 C137 C 0.93162 0.04592 -0.12571
 C138 C 0.86046 0.02586 -0.11109
 C139 C 0.85619 0.07741 -0.08979
 C140 C 0.79059 0.06284 -0.07566
 C141 C 0.72711 -0.00374 -0.08270
 C142 C 0.73134 -0.05597 -0.10366
 C143 C 0.79715 -0.04135 -0.11788
 C144 C 0.65695 -0.02146 -0.06763
 C145 C 0.64120 0.03308 -0.05410
 H146 H 0.97554 0.10113 -0.12024
 H147 H 0.90406 0.12934 -0.08392
 H148 H 0.79052 0.10340 -0.05883
 H149 H 0.68338 -0.10806 -0.10922
 H150 H 0.79743 -0.08279 -0.13414
 H151 H 0.61663 -0.07939 -0.06699
 H152 H 0.90429 -0.05518 -0.15281
 H153 H 0.67884 0.09133 -0.05605
 C154 C 0.01561 -0.01210 0.14461
 C155 C 0.06558 -0.03691 0.15051
 C156 C 0.12386 -0.02907 0.12910
 C157 C 0.14883 -0.08217 0.12690
 C158 C 0.20525 -0.07419 0.10717
 C159 C 0.23844 -0.01199 0.08976
 C160 C 0.21451 0.04186 0.09258
 C161 C 0.15759 0.03332 0.11189
 C162 C 0.30005 0.00058 0.06951
 C163 C 0.31098 -0.05654 0.05538
 H164 H 0.06308 -0.06067 0.17156
 H165 H 0.12447 -0.12994 0.14039
 H166 H 0.22385 -0.11565 0.10613
 H167 H 0.23998 0.09082 0.07976
 H168 H 0.14136 0.07663 0.11387
 H169 H 0.33595 0.05735 0.06406
 H170 H 0.01694 0.00802 0.12281
 H171 H 0.27259 -0.11408 0.05851
 C172 C 0.96242 0.91640 0.46664
 C173 C 0.89287 0.87068 0.47743
 C174 C 0.83841 0.80700 0.45908
 C175 C 0.76440 0.78513 0.46347
 C176 C 0.71214 0.72728 0.44544
 C177 C 0.73321 0.68997 0.42274
 C178 C 0.80694 0.70930 0.41950
 C179 C 0.85907 0.76714 0.43744
 C180 C 0.68061 0.63164 0.40183
 C181 C 0.61352 0.62650 0.39533
 H182 H 0.87697 0.88373 0.49933
 H183 H 0.74711 0.81386 0.48049
 H184 H 0.65561 0.71210 0.44946
 H185 H 0.82448 0.68046 0.40262
 H186 H 0.91538 0.78013 0.43436
 H187 H 0.69801 0.59563 0.38910
 H188 H 0.97593 0.90417 0.44414
 H189 H 0.59627 0.66420 0.40660
 C190 C 0.03028 0.09288 0.82146
 C191 C -0.01874 0.08577 0.79938
 C192 C -0.01591 0.14774 0.78326
 C193 C 0.04661 0.21715 0.78203
 C194 C 0.04645 0.27287 0.76561
 C195 C -0.01614 0.25993 0.74999
 C196 C -0.07847 0.19090 0.75163
 C197 C -0.07823 0.13544 0.76789
 C198 C -0.01950 0.31552 0.73155
 C199 C 0.04080 0.37910 0.72215
 H200 H -0.06423 0.03113 0.79452
 H201 H 0.09609 0.22847 0.79319
 H202 H 0.09533 0.32558 0.76535
 H203 H -0.12749 0.17936 0.73992
 H204 H -0.12712 0.08249 0.76843
 H205 H -0.07249 0.30320 0.72341
 H206 H 0.07373 0.14754 0.82799
 H207 H 0.09497 0.39300 0.72909
 C208 C 0.91811 0.02307 0.15411
 C209 C 0.86639 -0.02585 0.13336
 C210 C 0.81211 -0.01199 0.11848
 C211 C 0.76784 -0.06551 0.09672
 C212 C 0.71502 -0.05666 0.08203
 C213 C 0.70453 0.00592 0.08896
 C214 C 0.74930 0.06014 0.11045
 C215 C 0.80238 0.05122 0.12525
 C216 C 0.65012 0.01747 0.07299
 C217 C 0.58963 -0.04129 0.05911
 H218 H 0.86568 -0.07876 0.12776
 H219 H 0.77444 -0.11444 0.09085
 H220 H 0.68384 -0.09832 0.06480
 H221 H 0.74287 0.10929 0.11592
 H222 H 0.83493 0.09377 0.14192
 H223 H 0.65903 0.07388 0.07145
 H224 H 0.92240 0.07722 0.16016
 H225 H 0.57761 -0.09809 0.06204
 C226 C 0.08081 0.02657 0.46463
 C227 C 0.15155 0.07743 0.47325
 C228 C 0.19672 0.14120 0.45521
 C229 C 0.27196 0.16753 0.45324
 C230 C 0.31474 0.22723 0.43577
 C231 C 0.28278 0.26218 0.42041
 C232 C 0.20804 0.23773 0.42351
 C233 C 0.16535 0.17775 0.44062
 C234 C 0.32525 0.32456 0.40129
 C235 C 0.38877 0.33413 0.38660
 H236 H 0.17359 0.07135 0.49367
 H237 H 0.29741 0.14119 0.46485
 H238 H 0.37266 0.24632 0.43468
 H239 H 0.18238 0.26454 0.41233
 H240 H 0.10786 0.16068 0.44271
 H241 H 0.30254 0.36088 0.39676
 H242 H 0.06253 0.03265 0.44322
 H243 H 0.40996 0.29564 0.38925
 C244 C 0.02010 0.96966 0.81520
 C245 C 0.00567 0.89918 0.82326
 C246 C 0.01682 0.84654 0.80213
 C247 C -0.02954 0.76994 0.80303
 C248 C -0.02076 0.71955 0.78265
 C249 C 0.03541 0.74517 0.76131
 C250 C 0.08354 0.82153 0.76131
 C251 C 0.07425 0.87182 0.78140
 C252 C 0.04619 0.69424 0.73903
 C253 C -0.01030 0.62659 0.72827
 H254 H -0.01574 0.88182 0.84526
 H255 H -0.07328 0.74921 0.81921
 H256 H -0.05740 0.66079 0.78391
 H257 H 0.12797 0.84247 0.74544
 H258 H 0.11260 0.93036 0.78090
 H259 H 0.09960 0.71344 0.72905
 H260 H 0.03820 0.98439 0.79258
 H261 H -0.06514 0.60872 0.73637
   
