data_POSCAR
  _audit_creation_date              2014-09-24
  _audit_creation_method            'ToBaCCo'
  _symmetry_space_group_name_H-M    'P1'
  _symmetry_Int_Tables_number       1
  _symmetry_cell_setting            triclinic
  loop_
  _symmetry_equiv_pos_as_xyz
 x,y,z
_cell_length_a 51.5569
_cell_length_b 54.7520
_cell_length_c 48.1961
_cell_angle_alpha 91.514400
_cell_angle_beta 88.932500
_cell_angle_gamma 92.845800
loop_
  _atom_site_label
  _atom_site_type_symbol
  _atom_site_fract_x
  _atom_site_fract_y
  _atom_site_fract_z
C1 C 0.17687 0.21477 0.19742
 C2 C 0.18006 0.23385 0.17854
 C3 C 0.20012 0.23371 0.15891
 C4 C 0.21721 0.21455 0.15790
 C5 C 0.21407 0.19584 0.17663
 C6 C 0.19388 0.19595 0.19640
 C7 C 0.15858 0.20937 0.21795
 N8 N 0.16441 0.18787 0.22911
 C9 C 0.18584 0.17949 0.21617
 C10 C 0.23259 0.17926 0.17038
 N11 N 0.24680 0.18751 0.14837
 C12 C 0.23770 0.20900 0.14041
 C13 C 0.19799 0.25388 0.14279
 N14 N 0.17728 0.26610 0.15224
 C15 C 0.16611 0.25413 0.17399
 H16 H 0.14209 0.21996 0.22394
 H17 H 0.19460 0.16244 0.22047
 H18 H 0.23522 0.16224 0.18071
 H19 H 0.24509 0.21949 0.12297
 H20 H 0.21028 0.25908 0.12524
 H21 H 0.14891 0.25959 0.18530
 C22 C -0.19822 0.78017 0.21954
 C23 C -0.19959 0.76148 0.19902
 C24 C -0.21733 0.76231 0.17779
 C25 C -0.23389 0.78183 0.17678
 C26 C -0.23254 0.80018 0.19711
 C27 C -0.21469 0.79935 0.21853
 C28 C -0.18202 0.78501 0.24173
 N29 N -0.18857 0.80651 0.25389
 C30 C -0.20839 0.81547 0.23995
 C31 C -0.24969 0.81740 0.19035
 N32 N -0.26135 0.80988 0.16649
 C33 C -0.25195 0.78823 0.15784
 C34 C -0.21357 0.74249 0.16026
 N35 N -0.19415 0.72979 0.17045
 C36 C -0.18535 0.74114 0.19401
 H37 H -0.16631 0.77410 0.24807
 H38 H -0.21709 0.83275 0.24462
 H39 H -0.25295 0.83443 0.20151
 H40 H -0.25733 0.77827 0.13892
 H41 H -0.22381 0.73789 0.14127
 H42 H -0.16949 0.73528 0.20622
 C43 C -0.21942 0.23241 -0.26299
 C44 C -0.22105 0.25167 -0.24330
 C45 C -0.24185 0.25201 -0.22463
 C46 C -0.26125 0.23311 -0.22537
 C47 C -0.25966 0.21419 -0.24488
 C48 C -0.23869 0.21383 -0.26375
 C49 C -0.20033 0.22600 -0.28191
 N50 N -0.20783 0.20416 -0.29390
 C51 C -0.23111 0.19650 -0.28300
 C52 C -0.27949 0.19724 -0.23916
 N53 N -0.29300 0.20551 -0.21677
 C54 C -0.28211 0.22733 -0.20802
 C55 C -0.23736 0.27164 -0.20662
 N56 N -0.21452 0.28313 -0.21402
 C57 C -0.20427 0.27115 -0.23628
 H58 H -0.18196 0.23590 -0.28576
 H59 H -0.24121 0.17913 -0.28783
 H60 H -0.28301 0.17963 -0.24956
 H61 H -0.28806 0.23756 -0.18963
 H62 H -0.24935 0.27674 -0.18891
 H63 H -0.18564 0.27580 -0.24601
 C64 C 0.19297 0.77758 -0.23999
 C65 C 0.19699 0.75752 -0.22329
 C66 C 0.21933 0.75707 -0.20772
 C67 C 0.23793 0.77664 -0.20866
 C68 C 0.23397 0.79634 -0.22524
 C69 C 0.21144 0.79682 -0.24093
 C70 C 0.17245 0.78384 -0.25592
 N71 N 0.17833 0.80625 -0.26631
 C72 C 0.20199 0.81440 -0.25732
 C73 C 0.25402 0.81340 -0.22072
 N74 N 0.26994 0.80446 -0.20187
 C75 C 0.26042 0.78207 -0.19420
 C76 C 0.21734 0.73623 -0.19229
 N77 N 0.19449 0.72415 -0.19825
 C78 C 0.18181 0.73691 -0.21703
 H79 H 0.15441 0.77322 -0.25913
 H80 H 0.21132 0.83206 -0.26179
 H81 H 0.25631 0.83136 -0.22963
 H82 H 0.26866 0.77104 -0.17859
 H83 H 0.23112 0.73057 -0.17733
 H84 H 0.16271 0.73188 -0.22494
 C85 C 0.22717 1.19902 0.78578
 C86 C 0.24461 1.19893 0.80780
 C87 C 0.24287 1.21592 0.82957
 C88 C 0.22365 1.23322 0.82957
 C89 C 0.20654 1.23328 0.80775
 C90 C 0.20831 1.21616 0.78581
 C91 C 0.22320 1.18388 0.76274
 N92 N 0.20251 1.19167 0.74909
 C93 C 0.19320 1.21129 0.76293
 C94 C 0.18917 1.25100 0.81367
 N95 N 0.19537 1.26164 0.83847
 C96 C 0.21633 1.25103 0.84855
 C97 C 0.26152 1.21089 0.84843
 N98 N 0.27439 1.19144 0.83851
 C99 C 0.26427 1.18389 0.81382
 H100 H 0.23398 1.16802 0.75684
 H101 H 0.17623 1.22080 0.75725
 H102 H 0.17282 1.25539 0.80123
 H103 H 0.22511 1.25548 0.86841
 H104 H 0.26523 1.22040 0.86806
 H105 H 0.27052 1.16841 0.80142
 C106 C 0.79551 0.80644 0.78379
 C107 C 0.77591 0.80617 0.80441
 C108 C 0.77538 0.78868 0.82476
 C109 C 0.79443 0.77125 0.82473
 C110 C 0.81371 0.77152 0.80430
 C111 C 0.81426 0.78916 0.78377
 C112 C 0.80164 0.82190 0.76223
 N113 N 0.82350 0.81420 0.74939
 C114 C 0.83144 0.79430 0.76229
 C115 C 0.83011 0.75329 0.80987
 N116 N 0.82118 0.74205 0.83308
 C117 C 0.79945 0.75277 0.84249
 C118 C 0.75483 0.79331 0.84248
 N119 N 0.74303 0.81304 0.83327
 C120 C 0.75568 0.82113 0.81013
 H121 H 0.79137 0.83780 0.75671
 H122 H 0.84873 0.78464 0.75683
 H123 H 0.84750 0.74881 0.79823
 H124 H 0.78848 0.74782 0.86105
 H125 H 0.74908 0.78332 0.86088
 H126 H 0.75070 0.83689 0.79859
 C127 C 0.23342 0.78536 1.25767
 C128 C 0.25253 0.78467 1.23654
 C129 C 0.25213 0.76543 1.21721
 C130 C 0.23264 0.74667 1.21873
 C131 C 0.21387 0.74734 1.23963
 C132 C 0.21427 0.76673 1.25918
 C133 C 0.22763 0.80267 1.27789
 N134 N 0.20562 0.79476 1.29142
 C135 C 0.19721 0.77294 1.28019
 C136 C 0.19623 0.72809 1.23475
 N137 N 0.20392 0.71586 1.21150
 C138 C 0.22607 0.72697 1.20141
 C139 C 0.27177 0.77035 1.19810
 N140 N 0.28397 0.79195 1.20549
 C141 C 0.27243 0.80096 1.22881
 H142 H 0.23803 0.82007 1.28175
 H143 H 0.17949 0.76281 1.28616
 H144 H 0.17852 0.72391 1.24648
 H145 H 0.23595 0.72174 1.18231
 H146 H 0.27637 0.75944 1.17976
 H147 H 0.27767 0.81838 1.23888
 C148 C 0.78912 1.20398 1.25726
 C149 C 0.76788 1.20459 1.23949
 C150 C 0.76552 1.22442 1.22256
 C151 C 0.78430 1.24383 1.22313
 C152 C 0.80523 1.24322 1.24065
 C153 C 0.80766 1.22322 1.25780
 C154 C 0.79734 1.18652 1.27478
 N155 N 0.82022 1.19488 1.28575
 C156 C 0.82681 1.21719 1.27555
 C157 C 0.82125 1.26352 1.23546
 N158 N 0.81042 1.27628 1.21536
 C159 C 0.78791 1.26450 1.20756
 C160 C 0.74410 1.21949 1.20634
 N161 N 0.73348 1.19730 1.21312
 C162 C 0.74776 1.18792 1.23325
 H163 H 0.78778 1.16885 1.27869
 H164 H 0.84451 1.22790 1.28014
 H165 H 0.83982 1.26822 1.24484
 H166 H 0.77562 1.27011 1.19114
 H167 H 0.73717 1.23086 1.19026
 H168 H 0.74420 1.17005 1.24207
 O169 O 0.51548 0.96875 0.96395
 O170 O 0.47671 0.97619 1.05792
 O171 O 0.55602 0.99449 1.02949
 O172 O 0.46877 0.96820 0.97033
 O173 O 0.52574 0.97783 1.05712
 O174 O 0.48257 0.98888 0.93497
 O175 O 0.46901 0.95897 1.01823
 O176 O 0.55144 0.98659 0.97902
 C177 C 0.53943 0.96834 0.96769
 C178 C 0.46938 0.95778 1.04382
 C179 C 0.54879 0.97960 1.04815
 C180 C 0.46592 0.97293 0.94506
 O181 O 0.48757 1.02842 0.96378
 O182 O 0.52636 1.02473 1.06073
 O183 O 0.53587 1.03456 0.97553
 O184 O 0.44927 1.00280 1.03208
 O185 O 0.47808 1.02437 1.05577
 O186 O 0.52768 1.00969 0.94311
 O187 O 0.45266 1.01403 0.98349
 O188 O 0.54050 1.04058 1.02278
 Co189 Co 0.50075 0.99844 0.96544
 Co190 Co 0.50165 1.00078 1.05308
 Co191 Co 0.54257 1.01285 1.00186
 Co192 Co 0.46362 0.98740 1.00148
 O193 O 0.50335 1.00081 1.00738
 C194 C 0.46441 1.03067 0.97027
 C195 C 0.53830 1.04153 1.04830
 C196 C 0.53869 1.02918 0.95066
 C197 C 0.45552 1.02119 1.04712
 O198 O 0.02888 0.48726 0.03403
 O199 O 0.02180 0.52108 -0.05866
 O200 O 0.00012 0.44776 -0.03050
 O201 O 0.02951 0.53158 0.02887
 O202 O 0.02019 0.47487 -0.05728
 O203 O 0.00786 0.51896 0.06503
 O204 O 0.03915 0.53115 -0.01952
 O205 O 0.00926 0.45332 0.01904
 C206 C 0.02899 0.46463 0.02937
 C207 C 0.04057 0.52999 -0.04516
 C208 C 0.01737 0.45355 -0.04849
 C209 C 0.02464 0.53453 0.05454
 O210 O -0.03431 0.51381 0.03849
 O211 O -0.02982 0.47419 -0.05966
 O212 O -0.04121 0.46902 0.02619
 O213 O -0.00796 0.54829 -0.03066
 O214 O -0.02893 0.52010 -0.05573
 O215 O -0.01423 0.47641 0.05716
 O216 O -0.01934 0.54627 0.01869
 O217 O -0.04815 0.46465 -0.02093
 Co218 Co -0.00252 0.50125 0.03472
 Co219 Co -0.00430 0.49770 -0.05298
 Co220 Co -0.01875 0.46176 -0.00175
 Co221 Co 0.00887 0.53577 -0.00110
 O222 O -0.00513 0.49811 -0.00717
 C223 C -0.03676 0.53550 0.03279
 C224 C -0.04874 0.46518 -0.04648
 C225 C -0.03497 0.46595 0.05043
 C226 C -0.02559 0.54185 -0.04754
 O227 O 1.05403 0.02779 0.47591
 O228 O 0.94851 0.00908 0.52882
 O229 O 0.98581 0.01657 0.44854
 O230 O 1.02299 0.04138 0.54232
 O231 O 0.96755 0.02928 0.48615
 O232 O 1.05850 0.02650 0.52757
 O233 O 0.97884 0.03444 0.53761
 O234 O 1.03148 0.00705 0.44470
 C235 C 1.04638 0.02503 0.45160
 C236 C 0.95557 0.02848 0.54063
 C237 C 0.97320 0.03237 0.46137
 C238 C 1.04687 0.04287 0.54009
 O239 O 1.05506 -0.02040 0.52605
 O240 O 0.94089 -0.01089 0.48035
 O241 O 1.01905 -0.03807 0.46505
 O242 O 0.98218 -0.01386 0.55386
 O243 O 0.96816 -0.03109 0.51534
 O244 O 1.05599 -0.02006 0.47365
 O245 O 1.02942 -0.00512 0.55868
 O246 O 0.97420 -0.03014 0.46535
 Co247 Co 1.05136 0.00336 0.50076
 Co248 Co 0.96934 -0.00098 0.49987
 Co249 Co 1.00309 -0.00986 0.45988
 Co250 Co 1.00352 0.01312 0.54450
 O251 O 1.00859 0.00237 0.50251
 C252 C 1.04675 -0.01954 0.55073
 C253 C 0.95047 -0.02610 0.46243
 C254 C 1.04298 -0.03871 0.46594
 C255 C 0.97148 -0.03199 0.54094
 C256 C 1.15097 0.17596 0.24867
 C257 C 1.13943 0.16429 0.26627
 C258 C 1.12683 0.14904 0.28686
 C259 C 1.11530 0.15932 0.31067
 C260 C 1.10442 0.14416 0.33121
 C261 C 1.10509 0.11855 0.32820
 C262 C 1.11640 0.10845 0.30401
 C263 C 1.12719 0.12359 0.28353
 C264 C 1.09458 0.10236 0.35040
 C265 C 1.10804 0.08182 0.35778
 C266 C 1.09816 0.06640 0.37849
 C267 C 1.07471 0.07126 0.39211
 C268 C 1.06120 0.09170 0.38503
 C269 C 1.07108 0.10720 0.36433
 C270 C 1.06455 0.05515 0.41322
 C271 C 1.05623 0.04145 0.43080
 H272 H 1.11508 0.17900 0.31355
 H273 H 1.09610 0.15247 0.34974
 H274 H 1.11689 0.08881 0.30089
 H275 H 1.13611 0.11544 0.26520
 H276 H 1.12636 0.07781 0.34775
 H277 H 1.10882 0.05068 0.38387
 H278 H 1.04298 0.09560 0.39541
 H279 H 1.06015 0.12272 0.35890
 C280 C 0.82347 -0.18186 0.27481
 C281 C 0.83404 -0.17055 0.29358
 C282 C 0.84607 -0.15594 0.31548
 C283 C 0.87300 -0.15548 0.31876
 C284 C 0.88478 -0.13991 0.33880
 C285 C 0.86975 -0.12453 0.35576
 C286 C 0.84266 -0.12543 0.35259
 C287 C 0.83092 -0.14103 0.33257
 C288 C 0.88240 -0.10712 0.37607
 C289 C 0.87420 -0.08304 0.37918
 C290 C 0.88682 -0.06633 0.39745
 C291 C 0.90773 -0.07349 0.41290
 C292 C 0.91580 -0.09749 0.41023
 C293 C 0.90324 -0.11420 0.39195
 C294 C 0.92166 -0.05611 0.43070
 C295 C 0.93424 -0.04203 0.44534
 H296 H 0.88493 -0.16679 0.30547
 H297 H 0.90571 -0.13939 0.34049
 H298 H 0.83056 -0.11403 0.36555
 H299 H 0.81006 -0.14120 0.33014
 H300 H 0.85844 -0.07694 0.36697
 H301 H 0.88054 -0.04775 0.39922
 H302 H 0.93199 -0.10321 0.42207
 H303 H 0.90980 -0.13268 0.39026
 C304 C 0.80642 0.19087 0.68884
 C305 C 0.81903 0.17816 0.67347
 C306 C 0.83360 0.16207 0.65575
 C307 C 0.82099 0.14172 0.64282
 C308 C 0.83523 0.12514 0.62698
 C309 C 0.86232 0.12870 0.62386
 C310 C 0.87478 0.14943 0.63658
 C311 C 0.86050 0.16598 0.65245
 C312 C 0.87761 0.11054 0.60803
 C313 C 0.89842 0.11826 0.59055
 C314 C 0.91329 0.10112 0.57635
 C315 C 0.90758 0.07606 0.57940
 C316 C 0.88678 0.06818 0.59653
 C317 C 0.87186 0.08530 0.61073
 C318 C 0.92365 0.05856 0.56561
 C319 C 0.93779 0.04443 0.55416
 H320 H 0.80018 0.13849 0.64526
 H321 H 0.82504 0.10954 0.61716
 H322 H 0.89565 0.15252 0.63487
 H323 H 0.87049 0.18158 0.66251
 H324 H 0.90313 0.13754 0.58778
 H325 H 0.92937 0.10741 0.56316
 H326 H 0.88230 0.04883 0.59919
 H327 H 0.85620 0.07878 0.62432
 C328 C 1.16302 -0.18089 0.71851
 C329 C 1.14964 -0.16855 0.70482
 C330 C 1.13461 -0.15288 0.68859
 C331 C 1.12467 -0.13176 0.70085
 C332 C 1.11186 -0.11544 0.68473
 C333 C 1.10886 -0.11999 0.65607
 C334 C 1.11842 -0.14154 0.64405
 C335 C 1.13127 -0.15784 0.66022
 C336 C 1.09667 -0.10192 0.63860
 C337 C 1.07986 -0.10971 0.61711
 C338 C 1.06922 -0.09267 0.60006
 C339 C 1.07523 -0.06764 0.60423
 C340 C 1.09171 -0.05969 0.62573
 C341 C 1.10235 -0.07669 0.64282
 C342 C 1.06506 -0.05023 0.58595
 C343 C 1.05668 -0.03596 0.57017
 H344 H 1.12722 -0.12770 0.72278
 H345 H 1.10439 -0.09919 0.69465
 H346 H 1.11669 -0.14543 0.62200
 H347 H 1.13907 -0.17402 0.65048
 H348 H 1.07489 -0.12897 0.61354
 H349 H 1.05645 -0.09902 0.58348
 H350 H 1.09659 -0.04037 0.62906
 H351 H 1.11551 -0.07012 0.65892
 C352 C 0.26569 1.17552 1.13603
 C353 C 0.28263 1.16392 1.12536
 C354 C 0.30237 1.14895 1.11359
 C355 C 0.29543 1.12560 1.10285
 C356 C 0.31460 1.11009 1.09346
 C357 C 0.34102 1.11773 1.09475
 C358 C 0.34779 1.14145 1.10501
 C359 C 0.32856 1.15694 1.11445
 C360 C 0.36138 1.10070 1.08625
 C361 C 0.38349 1.10900 1.07102
 C362 C 0.40270 1.09286 1.06329
 C363 C 0.40007 1.06832 1.07076
 C364 C 0.37817 1.05992 1.08591
 C365 C 0.35894 1.07598 1.09361
 C366 C 0.41974 1.05169 1.06276
 C367 C 0.43612 1.03771 1.05586
 H368 H 0.27522 1.11922 1.10217
 H369 H 0.30878 1.09207 1.08531
 H370 H 0.36798 1.14773 1.10653
 H371 H 0.33413 1.17492 1.12294
 H372 H 0.38576 1.12786 1.06483
 H373 H 0.41955 1.09951 1.05145
 H374 H 0.37599 1.04096 1.09183
 H375 H 0.34234 1.06915 1.10569
 C376 C 0.29001 0.81692 0.80928
 C377 C 0.30791 0.82883 0.81935
 C378 C 0.32863 0.84392 0.83136
 C379 C 0.33963 0.86370 0.81669
 C380 C 0.35849 0.87946 0.82900
 C381 C 0.36657 0.87564 0.85620
 C382 C 0.35574 0.85542 0.87058
 C383 C 0.33686 0.83970 0.85823
 C384 C 0.38550 0.89312 0.86991
 C385 C 0.40490 0.88466 0.88685
 C386 C 0.42194 0.90121 0.90077
 C387 C 0.41982 0.92641 0.89793
 C388 C 0.40084 0.93501 0.88082
 C389 C 0.38380 0.91849 0.86685
 C390 C 0.43637 0.94335 0.91361
 C391 C 0.44998 0.95716 0.92750
 H392 H 0.33336 0.86715 0.79589
 H393 H 0.36671 0.89467 0.81729
 H394 H 0.36131 0.85218 0.89167
 H395 H 0.32832 0.82454 0.86984
 H396 H 0.40688 0.86525 0.88936
 H397 H 0.43655 0.89436 0.91401
 H398 H 0.39892 0.95448 0.87864
 H399 H 0.36884 0.92558 0.85428
 C400 C 0.72203 0.82278 1.15309
 C401 C 0.70716 0.83522 1.14151
 C402 C 0.68982 0.85117 1.12877
 C403 C 0.66566 0.84216 1.11913
 C404 C 0.64835 0.85815 1.10826
 C405 C 0.65499 0.88336 1.10703
 C406 C 0.67948 0.89213 1.11640
 C407 C 0.69674 0.87613 1.12720
 C408 C 0.63633 0.90054 1.09654
 C409 C 0.63327 0.92334 1.11007
 C410 C 0.61564 0.93954 1.10032
 C411 C 0.60087 0.93319 1.07694
 C412 C 0.60378 0.91058 1.06330
 C413 C 0.62138 0.89432 1.07305
 C414 C 0.58265 0.94983 1.06701
 C415 C 0.56728 0.96361 1.05857
 H416 H 0.66007 0.82288 1.12042
 H417 H 0.62953 0.85091 1.10146
 H418 H 0.68529 0.91137 1.11535
 H419 H 0.71540 0.88329 1.13461
 H420 H 0.64425 0.92851 1.12843
 H421 H 0.61347 0.95697 1.11107
 H422 H 0.59248 0.90553 1.04512
 H423 H 0.62354 0.87703 1.06203
 C424 C 0.68856 1.19253 0.79658
 C425 C 0.67223 1.18014 0.80864
 C426 C 0.65355 1.16440 0.82292
 C427 C 0.64219 1.14392 0.80901
 C428 C 0.62574 1.12738 0.82336
 C429 C 0.62046 1.13109 0.85186
 C430 C 0.63147 1.15205 0.86551
 C431 C 0.64795 1.16857 0.85112
 C432 C 0.60442 1.11270 0.86755
 C433 C 0.58649 1.12011 0.88807
 C434 C 0.57235 1.10274 0.90373
 C435 C 0.57593 1.07778 0.89911
 C436 C 0.59342 1.07020 0.87847
 C437 C 0.60756 1.08753 0.86276
 C438 C 0.56251 1.06008 0.91644
 C439 C 0.55153 1.04567 0.93165
 H440 H 0.64644 1.14050 0.78719
 H441 H 0.61727 1.11159 0.81221
 H442 H 0.62803 1.15527 0.88750
 H443 H 0.65679 1.18426 0.86213
 H444 H 0.58344 1.13932 0.89202
 H445 H 0.55885 1.10880 0.91967
 H446 H 0.59645 1.05093 0.87483
 H447 H 0.62149 1.08127 0.84740
 C448 C 0.16812 0.28710 0.14050
 C449 C 0.16006 0.30503 0.13028
 C450 C 0.14995 0.32619 0.11801
 C451 C 0.13287 0.34063 0.13328
 C452 C 0.12194 0.36045 0.12101
 C453 C 0.12793 0.36611 0.09322
 C454 C 0.14549 0.35173 0.07817
 C455 C 0.15641 0.33190 0.09051
 C456 C 0.11481 0.38609 0.07973
 C457 C 0.10544 0.38280 0.05257
 C458 C 0.09066 0.40052 0.04093
 C459 C 0.08517 0.42179 0.05621
 C460 C 0.09524 0.42568 0.08281
 C461 C 0.11002 0.40798 0.09448
 C462 C 0.06688 0.43820 0.04590
 C463 C 0.05026 0.45093 0.03796
 H464 H 0.12762 0.33629 0.15452
 H465 H 0.10817 0.37088 0.13301
 H466 H 0.15066 0.35576 0.05684
 H467 H 0.16963 0.32084 0.07850
 H468 H 0.10851 0.36604 0.04080
 H469 H 0.08273 0.39721 0.02044
 H470 H 0.09097 0.44201 0.09487
 H471 H 0.11728 0.41121 0.11526
 C472 C -0.20242 0.30295 -0.19948
 C473 C -0.19189 0.31979 -0.18672
 C474 C -0.17900 0.33952 -0.17118
 C475 C -0.18903 0.34708 -0.14533
 C476 C -0.17574 0.36534 -0.12957
 C477 C -0.15219 0.37627 -0.13945
 C478 C -0.14252 0.36884 -0.16568
 C479 C -0.15583 0.35058 -0.18140
 C480 C -0.13710 0.39450 -0.12203
 C481 C -0.12394 0.41483 -0.13407
 C482 C -0.10803 0.43084 -0.11802
 C483 C -0.10512 0.42681 -0.08971
 C484 C -0.11869 0.40704 -0.07737
 C485 C -0.13463 0.39102 -0.09338
 C486 C -0.08645 0.44155 -0.07395
 C487 C -0.06980 0.45295 -0.06113
 H488 H -0.20697 0.33866 -0.13722
 H489 H -0.18384 0.37086 -0.10962
 H490 H -0.12427 0.37662 -0.17372
 H491 H -0.14782 0.34481 -0.20131
 H492 H -0.12571 0.41819 -0.15598
 H493 H -0.09750 0.44600 -0.12783
 H494 H -0.11636 0.40357 -0.05555
 H495 H -0.14420 0.37538 -0.08354
 C496 C 0.18465 0.70285 -0.18546
 C497 C 0.17595 0.68470 -0.17429
 C498 C 0.16504 0.66336 -0.16071
 C499 C 0.17617 0.65526 -0.13654
 C500 C 0.16457 0.63544 -0.12243
 C501 C 0.14166 0.62347 -0.13234
 C502 C 0.13096 0.63143 -0.15699
 C503 C 0.14257 0.65125 -0.17104
 C504 C 0.12806 0.60374 -0.11629
 C505 C 0.11600 0.58330 -0.12997
 C506 C 0.10082 0.56613 -0.11504
 C507 C 0.09759 0.56911 -0.08627
 C508 C 0.11032 0.58886 -0.07236
 C509 C 0.12551 0.60604 -0.08723
 C510 C 0.07890 0.55370 -0.07154
 C511 C 0.06203 0.54207 -0.05936
 H512 H 0.19359 0.66449 -0.12838
 H513 H 0.17340 0.62958 -0.10368
 H514 H 0.11313 0.62286 -0.16493
 H515 H 0.13373 0.65742 -0.18966
 H516 H 0.11788 0.58087 -0.15227
 H517 H 0.09091 0.55099 -0.12604
 H518 H 0.10768 0.59151 -0.05014
 H519 H 0.13425 0.62171 -0.07613
 C520 C -0.18387 0.70897 0.15779
 C521 C -0.17484 0.69121 0.14677
 C522 C -0.16361 0.67030 0.13345
 C523 C -0.17007 0.66350 0.10615
 C524 C -0.15804 0.64403 0.09269
 C525 C -0.13933 0.63113 0.10639
 C526 C -0.13336 0.63783 0.13403
 C527 C -0.14541 0.65729 0.14743
 C528 C -0.12509 0.61162 0.09158
 C529 C -0.11870 0.59045 0.10538
 C530 C -0.10318 0.57324 0.09222
 C531 C -0.09396 0.57688 0.06508
 C532 C -0.10091 0.59745 0.05085
 C533 C -0.11642 0.61469 0.06397
 C534 C -0.07524 0.56096 0.05292
 C535 C -0.05833 0.54867 0.04334
 H536 H -0.18416 0.67345 0.09515
 H537 H -0.16325 0.63915 0.07153
 H538 H -0.11877 0.62853 0.14501
 H539 H -0.14017 0.66248 0.16852
 H540 H -0.12535 0.58741 0.12651
 H541 H -0.09778 0.55745 0.10350
 H542 H -0.09363 0.60061 0.02995
 H543 H -0.12069 0.63093 0.05290
 C544 C 1.19144 0.18071 0.72717
 C545 C 1.18072 0.17093 0.70750
 C546 C 1.16694 0.15942 0.68458
 C547 C 1.17347 0.13628 0.67453
 C548 C 1.15898 0.12450 0.65343
 C549 C 1.13769 0.13569 0.64216
 C550 C 1.13154 0.15912 0.65211
 C551 C 1.14608 0.17089 0.67318
 C552 C 1.12132 0.12245 0.62106
 C553 C 1.09407 0.12290 0.62286
 C554 C 1.07857 0.10880 0.60440
 C555 C 1.09009 0.09420 0.58384
 C556 C 1.11718 0.09421 0.58135
 C557 C 1.13271 0.10826 0.59981
 C558 C 1.07429 0.07742 0.56711
 C559 C 1.06145 0.06227 0.55414
 H560 H 1.18943 0.12715 0.68337
 H561 H 1.16394 0.10630 0.64654
 H562 H 1.11541 0.16829 0.64368
 H563 H 1.14082 0.18878 0.68087
 H564 H 1.08471 0.13337 0.63922
 H565 H 1.05762 0.10870 0.60671
 H566 H 1.12629 0.08283 0.56562
 H567 H 1.15363 0.10777 0.59770
 C568 C 0.83621 -0.17478 0.72867
 C569 C 0.84816 -0.16486 0.71002
 C570 C 0.86294 -0.15306 0.68810
 C571 C 0.88890 -0.15855 0.68327
 C572 C 0.90360 -0.14654 0.66261
 C573 C 0.89251 -0.12884 0.64650
 C574 C 0.86631 -0.12367 0.65132
 C575 C 0.85165 -0.13569 0.67200
 C576 C 0.90841 -0.11511 0.62552
 C577 C 0.89773 -0.10926 0.60002
 C578 C 0.91199 -0.09460 0.58129
 C579 C 0.93713 -0.08569 0.58772
 C580 C 0.94823 -0.09202 0.61264
 C581 C 0.93401 -0.10669 0.63140
 C582 C 0.95040 -0.06809 0.57015
 C583 C 0.96063 -0.05223 0.55627
 H584 H 0.89783 -0.17198 0.69561
 H585 H 0.92363 -0.15109 0.65922
 H586 H 0.85732 -0.10987 0.63958
 H587 H 0.83162 -0.13121 0.67565
 H588 H 0.87821 -0.11575 0.59473
 H589 H 0.90313 -0.08968 0.56214
 H590 H 0.96756 -0.08498 0.61798
 H591 H 0.94268 -0.11062 0.65098
 C592 C 1.19270 -0.19268 0.31059
 C593 C 1.18038 -0.18146 0.32773
 C594 C 1.16481 -0.16823 0.34756
 C595 C 1.13976 -0.17734 0.35458
 C596 C 1.12390 -0.16384 0.37243
 C597 C 1.13289 -0.14102 0.38352
 C598 C 1.15833 -0.13227 0.37681
 C599 C 1.17415 -0.14579 0.35893
 C600 C 1.11548 -0.12582 0.40089
 C601 C 1.12512 -0.11216 0.42393
 C602 C 1.10920 -0.09636 0.43886
 C603 C 1.08344 -0.09405 0.43104
 C604 C 1.07345 -0.10807 0.40864
 C605 C 1.08933 -0.12390 0.39370
 C606 C 1.06809 -0.07572 0.44438
 C607 C 1.05604 -0.05938 0.45472
 H608 H 1.13234 -0.19472 0.34594
 H609 H 1.10455 -0.17120 0.37747
 H610 H 1.16571 -0.11463 0.38470
 H611 H 1.19347 -0.13851 0.35356
 H612 H 1.14505 -0.11348 0.43020
 H613 H 1.11718 -0.08549 0.45608
 H614 H 1.05363 -0.10624 0.40221
 H615 H 1.08141 -0.13393 0.37587
 C616 C 0.83482 0.18260 0.30237
 C617 C 0.84835 0.17151 0.31728
 C618 C 0.86480 0.15823 0.33473
 C619 C 0.87749 0.13802 0.32381
 C620 C 0.89343 0.12500 0.34063
 C621 C 0.89694 0.13204 0.36866
 C622 C 0.88420 0.15247 0.37942
 C623 C 0.86826 0.16549 0.36254
 C624 C 0.91316 0.11757 0.38669
 C625 C 0.90497 0.11229 0.41399
 C626 C 0.91912 0.09700 0.43014
 C627 C 0.94169 0.08688 0.41932
 C628 C 0.95047 0.09265 0.39253
 C629 C 0.93635 0.10794 0.37633
 C630 C 0.95433 0.06881 0.43468
 C631 C 0.96372 0.05270 0.44712
 H632 H 0.87494 0.13222 0.30232
 H633 H 0.90259 0.10913 0.33182
 H634 H 0.88671 0.15849 0.40083
 H635 H 0.85864 0.18118 0.37117
 H636 H 0.88709 0.11919 0.42248
 H637 H 0.91200 0.09246 0.45076
 H638 H 0.96785 0.08484 0.38390
 H639 H 0.94339 0.11198 0.35557
 C640 C 0.18168 0.27855 -0.14869
 C641 C 0.16846 0.29374 -0.13775
 C642 C 0.15149 0.31147 -0.12595
 C643 C 0.16151 0.33219 -0.11139
 C644 C 0.14479 0.34982 -0.10116
 C645 C 0.11787 0.34696 -0.10553
 C646 C 0.10802 0.32592 -0.11991
 C647 C 0.12472 0.30834 -0.13004
 C648 C 0.10011 0.36595 -0.09557
 C649 C 0.07978 0.37280 -0.11236
 C650 C 0.06292 0.39057 -0.10301
 C651 C 0.06613 0.40172 -0.07677
 C652 C 0.08632 0.39509 -0.05991
 C653 C 0.10325 0.37734 -0.06926
 C654 C 0.04871 0.41997 -0.06714
 C655 C 0.03425 0.43528 -0.05887
 H656 H 0.18222 0.33486 -0.10826
 H657 H 0.15296 0.36595 -0.09042
 H658 H 0.08737 0.32302 -0.12324
 H659 H 0.11677 0.29237 -0.14130
 H660 H 0.07710 0.36462 -0.13287
 H661 H 0.04740 0.39564 -0.11624
 H662 H 0.08892 0.40357 -0.03952
 H663 H 0.11854 0.37225 -0.05576
 C664 C -0.17796 0.29691 0.20270
 C665 C -0.16763 0.31440 0.19162
 C666 C -0.15472 0.33481 0.17804
 C667 C -0.16041 0.33963 0.15051
 C668 C -0.14663 0.35840 0.13666
 C669 C -0.12692 0.37259 0.15018
 C670 C -0.12173 0.36794 0.17806
 C671 C -0.13554 0.34915 0.19188
 C672 C -0.11106 0.39134 0.13480
 C673 C -0.08399 0.39366 0.13818
 C674 C -0.06878 0.41006 0.12227
 C675 C -0.08040 0.42439 0.10284
 C676 C -0.10738 0.42266 0.09980
 C677 C -0.12263 0.40626 0.11569
 C678 C -0.06451 0.43979 0.08496
 C679 C -0.05107 0.45206 0.06945
 H680 H -0.17514 0.32856 0.13958
 H681 H -0.15085 0.36129 0.11510
 H682 H -0.10690 0.37874 0.18913
 H683 H -0.13100 0.34558 0.21321
 H684 H -0.07445 0.38222 0.15244
 H685 H -0.04790 0.41116 0.12467
 H686 H -0.11657 0.43366 0.08481
 H687 H -0.14345 0.40512 0.11289
 C688 C -0.16720 0.72420 -0.15482
 C689 C -0.15606 0.70808 -0.14426
 C690 C -0.14182 0.68909 -0.13242
 C691 C -0.15463 0.67079 -0.11685
 C692 C -0.14061 0.65213 -0.10595
 C693 C -0.11360 0.65154 -0.11061
 C694 C -0.10093 0.67013 -0.12614
 C695 C -0.11496 0.68874 -0.13696
 C696 C -0.09865 0.63159 -0.09953
 C697 C -0.07892 0.62111 -0.11577
 C698 C -0.06452 0.60260 -0.10526
 C699 C -0.06961 0.59430 -0.07842
 C700 C -0.08928 0.60449 -0.06212
 C701 C -0.10375 0.62301 -0.07261
 C702 C -0.05435 0.57559 -0.06752
 C703 C -0.04131 0.56008 -0.05845
 H704 H -0.17544 0.67084 -0.11330
 H705 H -0.15093 0.63793 -0.09432
 H706 H -0.08013 0.67039 -0.12973
 H707 H -0.10485 0.70285 -0.14895
 H708 H -0.07477 0.62709 -0.13669
 H709 H -0.04936 0.59481 -0.11806
 H710 H -0.09330 0.59825 -0.04126
 H711 H -0.11859 0.63092 -0.05950
 C712 C 0.18944 0.69673 0.19832
 C713 C 0.17645 0.68062 0.18702
 C714 C 0.16019 0.66194 0.17353
 C715 C 0.13812 0.65209 0.18734
 C716 C 0.12142 0.63500 0.17375
 C717 C 0.12658 0.62755 0.14612
 C718 C 0.14904 0.63729 0.13255
 C719 C 0.16570 0.65440 0.14618
 C720 C 0.10827 0.61021 0.13125
 C721 C 0.11762 0.59187 0.11324
 C722 C 0.10034 0.57610 0.09857
 C723 C 0.07353 0.57842 0.10169
 C724 C 0.06402 0.59643 0.11975
 C725 C 0.08126 0.61222 0.13446
 C726 C 0.05586 0.56279 0.08570
 C727 C 0.04137 0.54983 0.07179
 H728 H 0.13364 0.65783 0.20850
 H729 H 0.10448 0.62760 0.18486
 H730 H 0.15336 0.63218 0.11117
 H731 H 0.18263 0.66204 0.13522
 H732 H 0.13828 0.58966 0.11058
 H733 H 0.10790 0.56221 0.08463
 H734 H 0.04330 0.59848 0.12220
 H735 H 0.07347 0.62636 0.14785
 C736 C 0.29434 1.18027 0.85205
 C737 C 0.31142 1.17041 0.86356
 C738 C 0.33160 1.15813 0.87706
 C739 C 0.33524 1.16139 0.90566
 C740 C 0.35406 1.14853 0.91890
 C741 C 0.36950 1.13224 0.90369
 C742 C 0.36594 1.12942 0.87486
 C743 C 0.34713 1.14227 0.86168
 C744 C 0.38844 1.11740 0.91785
 C745 C 0.41254 1.11264 0.90516
 C746 C 0.42937 1.09695 0.91736
 C747 C 0.42242 1.08590 0.94246
 C748 C 0.39886 1.09111 0.95570
 C749 C 0.38200 1.10680 0.94353
 C750 C 0.43826 1.06754 0.95325
 C751 C 0.45073 1.05122 0.96149
 H752 H 0.32336 1.17365 0.91777
 H753 H 0.35652 1.15131 0.94104
 H754 H 0.37720 1.11675 0.86260
 H755 H 0.34441 1.13953 0.83956
 H756 H 0.41824 1.12080 0.88561
 H757 H 0.44750 1.09297 0.90687
 H758 H 0.39317 1.08248 0.97500
 H759 H 0.36349 1.10984 0.95368
 C760 C 0.30397 0.80393 1.19020
 C761 C 0.32095 0.81436 1.17684
 C762 C 0.34078 0.82715 1.16062
 C763 C 0.36623 0.83011 1.17025
 C764 C 0.38515 0.84339 1.15489
 C765 C 0.37885 0.85385 1.12967
 C766 C 0.35330 0.85045 1.12001
 C767 C 0.33443 0.83721 1.13539
 C768 C 0.39839 0.86922 1.11406
 C769 C 0.39937 0.86819 1.08484
 C770 C 0.41602 0.88435 1.07014
 C771 C 0.43202 0.90162 1.08442
 C772 C 0.43187 0.90220 1.11347
 C773 C 0.41522 0.88609 1.12822
 C774 C 0.44662 0.92028 1.06945
 C775 C 0.45771 0.93686 1.05738
 H776 H 0.37138 0.82237 1.18973
 H777 H 0.40470 0.84549 1.16274
 H778 H 0.34769 0.85861 1.10094
 H779 H 0.31478 0.83512 1.12778
 H780 H 0.38695 0.85516 1.07336
 H781 H 0.41589 0.88379 1.04765
 H782 H 0.44398 0.91567 1.12474
 H783 H 0.41478 0.88753 1.15067
 C784 C 0.71231 1.18528 1.19984
 C785 C 0.69429 1.17499 1.18803
 C786 C 0.67315 1.16260 1.17340
 C787 C 0.66346 1.13960 1.18180
 C788 C 0.64389 1.12697 1.16673
 C789 C 0.63376 1.13718 1.14296
 C790 C 0.64331 1.16052 1.13497
 C791 C 0.66288 1.17313 1.15010
 C792 C 0.61419 1.12302 1.12595
 C793 C 0.61610 1.12286 1.09677
 C794 C 0.59891 1.10810 1.08076
 C795 C 0.57951 1.09338 1.09364
 C796 C 0.57702 1.09388 1.12262
 C797 C 0.59420 1.10862 1.13868
 C798 C 0.56371 1.07623 1.07733
 C799 C 0.55147 1.06093 1.06388
 H800 H 0.67135 1.13122 1.19971
 H801 H 0.63724 1.10890 1.17320
 H802 H 0.63571 1.16900 1.11699
 H803 H 0.67023 1.19094 1.14341
 H804 H 0.63149 1.13343 1.08634
 H805 H 0.60122 1.10764 1.05836
 H806 H 0.56218 1.08245 1.13283
 H807 H 0.59203 1.10855 1.16107
 C808 C 0.72177 0.82394 0.84619
 C809 C 0.70358 0.83353 0.85728
 C810 C 0.68209 0.84540 0.87042
 C811 C 0.66861 0.86236 0.85582
 C812 C 0.64842 0.87468 0.86882
 C813 C 0.64141 0.87022 0.89667
 C814 C 0.65487 0.85289 0.91106
 C815 C 0.67507 0.84057 0.89801
 C816 C 0.62091 0.88438 0.91085
 C817 C 0.62422 0.89331 0.93828
 C818 C 0.60598 0.90832 0.95084
 C819 C 0.58415 0.91456 0.93624
 C820 C 0.58027 0.90518 0.90926
 C821 C 0.59848 0.89015 0.89665
 C822 C 0.56712 0.93232 0.94795
 C823 C 0.55384 0.94821 0.95727
 H824 H 0.67396 0.86634 0.83451
 H825 H 0.63877 0.88819 0.85728
 H826 H 0.64978 0.84886 0.93241
 H827 H 0.68537 0.82747 0.90951
 H828 H 0.64141 0.88949 0.94965
 H829 H 0.60931 0.91567 0.97164
 H830 H 0.56351 0.90997 0.89770
 H831 H 0.59519 0.88331 0.87567
   
