data_POSCAR
  _audit_creation_date              2014-09-24
  _audit_creation_method            'ToBaCCo'
  _symmetry_space_group_name_H-M    'P1'
  _symmetry_Int_Tables_number       1
  _symmetry_cell_setting            triclinic
  loop_
  _symmetry_equiv_pos_as_xyz
 x,y,z
_cell_length_a 43.2551
_cell_length_b 46.4909
_cell_length_c 43.1166
_cell_angle_alpha 90.725200
_cell_angle_beta 89.861200
_cell_angle_gamma 91.030900
loop_
  _atom_site_label
  _atom_site_type_symbol
  _atom_site_fract_x
  _atom_site_fract_y
  _atom_site_fract_z
C1 C 0.18496 0.21063 0.22341
 C2 C 0.17188 0.23308 0.20649
 C3 C 0.18590 0.24318 0.17924
 C4 C 0.21238 0.22970 0.16771
 C5 C 0.22547 0.20652 0.18349
 C6 C 0.21229 0.19808 0.21203
 H7 H 0.15108 0.24333 0.21481
 H8 H 0.22235 0.23705 0.14607
 H9 H 0.22227 0.18045 0.22451
 C10 C -0.20322 0.79235 0.24782
 C11 C -0.23321 0.80135 0.24010
 C12 C -0.24944 0.78876 0.21492
 C13 C -0.23592 0.76598 0.19827
 C14 C -0.20609 0.75692 0.20541
 C15 C -0.18991 0.77022 0.22997
 H16 H -0.24359 0.81884 0.25300
 H17 H -0.24791 0.75619 0.17869
 H18 H -0.16681 0.76303 0.23515
 C19 C -0.18736 0.19806 -0.22113
 C20 C -0.21012 0.18121 -0.20594
 C21 C -0.22570 0.19176 -0.17961
 C22 C -0.21882 0.21973 -0.16872
 C23 C -0.19633 0.23698 -0.18339
 C24 C -0.18061 0.22591 -0.20940
 H25 H -0.21563 0.15968 -0.21435
 H26 H -0.23079 0.22796 -0.14848
 H27 H -0.16314 0.23918 -0.22058
 C28 C 0.20182 0.79327 -0.26217
 C29 C 0.19007 0.76836 -0.24758
 C30 C 0.20647 0.75528 -0.22361
 C31 C 0.23478 0.76751 -0.21395
 C32 C 0.24694 0.79245 -0.22782
 C33 C 0.23061 0.80484 -0.25229
 H34 H 0.16800 0.75914 -0.25470
 H35 H 0.24722 0.75773 -0.19517
 H36 H 0.23991 0.82416 -0.26287
 C37 C 0.20982 1.20973 0.77106
 C38 C 0.23367 1.19708 0.78808
 C39 C 0.23971 1.20578 0.81883
 C40 C 0.22248 1.22790 0.83239
 C41 C 0.19996 1.24194 0.81521
 C42 C 0.19392 1.23291 0.78463
 H43 H 0.24639 1.17927 0.77824
 H44 H 0.22699 1.23451 0.85617
 H45 H 0.17571 1.24328 0.77195
 C46 C 0.79686 0.81646 0.77013
 C47 C 0.76600 0.82181 0.77825
 C48 C 0.75022 0.80470 0.79999
 C49 C 0.76584 0.78207 0.81413
 C50 C 0.79709 0.77678 0.80712
 C51 C 0.81204 0.79377 0.78457
 H52 H 0.75410 0.83941 0.76755
 H53 H 0.75387 0.76922 0.83133
 H54 H 0.83596 0.78974 0.77873
 C55 C 0.21858 0.77952 1.26629
 C56 C 0.20383 0.75600 1.25120
 C57 C 0.21859 0.74086 1.22708
 C58 C 0.24844 0.74970 1.21781
 C59 C 0.26362 0.77310 1.23254
 C60 C 0.24893 0.78715 1.25739
 H61 H 0.18048 0.74981 1.25774
 H62 H 0.25960 0.73877 1.19862
 H63 H 0.26045 0.80546 1.26838
 C64 C 0.81771 1.19410 1.20669
 C65 C 0.79801 1.17995 1.18532
 C66 C 0.78333 1.19506 1.16184
 C67 C 0.78906 1.22465 1.15896
 C68 C 0.81001 1.23921 1.17898
 C69 C 0.82345 1.22382 1.20337
 H70 H 0.79316 1.15711 1.18739
 H71 H 0.77804 1.23593 1.14026
 H72 H 0.83919 1.23480 1.21924
 O73 O 0.52147 0.97143 0.94152
 O74 O 0.47121 0.96919 1.07141
 O75 O 0.53085 0.94016 1.03236
 O76 O 0.44963 0.94682 0.97630
 O77 O 0.52856 0.97120 1.06854
 O78 O 0.46610 0.97608 0.94105
 O79 O 0.44196 0.94878 1.03517
 O80 O 0.52586 0.94048 0.97723
 C81 C 0.52575 0.94594 0.94928
 C82 C 0.45183 0.95010 1.06247
 C83 C 0.53361 0.94600 1.06016
 C84 C 0.45409 0.95222 0.94845
 O85 O 0.47210 1.02964 0.96680
 O86 O 0.52754 1.02450 1.04772
 O87 O 0.55874 0.99090 0.97481
 O88 O 0.43160 1.00390 1.03188
 O89 O 0.46935 1.02437 1.05845
 O90 O 0.52683 1.02462 0.97010
 O91 O 0.43307 1.00204 0.97505
 O92 O 0.56033 0.99314 1.03055
 Co93 Co 0.49662 0.99915 0.95913
 Co94 Co 0.49891 0.99625 1.05603
 Co95 Co 0.53989 0.96777 1.00396
 Co96 Co 0.44447 0.97610 1.00444
 O97 O 0.49455 0.98505 1.00623
 C98 C 0.44374 1.02633 0.96834
 C99 C 0.55444 1.01830 1.03994
 C100 C 0.55386 1.01664 0.96900
 C101 C 0.44157 1.02301 1.05046
 O102 O 0.03176 0.48885 0.03774
 O103 O 0.02369 0.53713 -0.07070
 O104 O -0.00581 0.45236 -0.03842
 O105 O 0.04455 0.54131 0.02381
 O106 O 0.01996 0.48319 -0.06727
 O107 O 0.01431 0.53617 0.06101
 O108 O 0.04979 0.54518 -0.02960
 O109 O 0.00772 0.45351 0.01604
 C110 C 0.03059 0.46282 0.03090
 C111 C 0.04794 0.54582 -0.05812
 C112 C 0.01501 0.45799 -0.05831
 C113 C 0.03929 0.54598 0.05166
 O114 O -0.03944 0.52990 0.03958
 O115 O -0.03957 0.48655 -0.06710
 O116 O -0.04676 0.47862 0.03041
 O117 O -0.00644 0.57117 -0.03475
 O118 O -0.03489 0.54087 -0.06283
 O119 O -0.01795 0.48871 0.07023
 O120 O -0.01315 0.56657 0.02163
 O121 O -0.06003 0.47909 -0.02295
 Co122 Co -0.00438 0.50846 0.03669
 Co123 Co -0.00730 0.51183 -0.06146
 Co124 Co -0.02426 0.46971 -0.00426
 Co125 Co 0.01692 0.55266 -0.00492
 O126 O -0.00349 0.51173 -0.01039
 C127 C -0.03687 0.55650 0.03529
 C128 C -0.06195 0.47781 -0.05146
 C129 C -0.04042 0.47341 0.05843
 C130 C -0.02888 0.56593 -0.05311
 O131 O 1.05496 0.04443 0.47421
 O132 O 0.94806 0.04117 0.52542
 O133 O 0.97083 0.01344 0.43076
 O134 O 1.03028 0.02687 0.57468
 O135 O 0.94825 0.03799 0.46693
 O136 O 1.05551 0.03762 0.53054
 O137 O 0.99418 0.05410 0.54287
 O138 O 1.01716 0.04111 0.44235
 C139 C 1.04062 0.05414 0.45179
 C140 C 0.96558 0.05880 0.54035
 C141 C 0.95283 0.03306 0.43872
 C142 C 1.05383 0.03897 0.56034
 O143 O 1.05544 -0.02041 0.51904
 O144 O 0.94689 -0.02003 0.46932
 O145 O 1.02874 -0.00684 0.41908
 O146 O 0.97141 0.00665 0.56382
 O147 O 0.94746 -0.01673 0.52719
 O148 O 1.05597 -0.01347 0.46284
 O149 O 1.01716 -0.02066 0.55056
 O150 O 0.99251 -0.03360 0.45231
 Co151 Co 1.05046 0.01192 0.49672
 Co152 Co 0.95186 0.01070 0.49717
 Co153 Co 1.00630 0.00407 0.45100
 Co154 Co 1.00693 0.01655 0.54303
 O155 O 1.00063 0.01088 0.49692
 C156 C 1.04101 -0.03202 0.54066
 C157 C 0.96380 -0.03840 0.45555
 C158 C 1.05243 -0.01777 0.43349
 C159 C 0.95229 -0.01245 0.55543
 C160 C 1.14155 0.17832 0.30146
 N161 N 1.17039 0.16986 0.29350
 N162 N 1.18447 0.18047 0.26851
 C163 C 1.17048 0.20022 0.25054
 N164 N 1.14174 0.20897 0.25893
 N165 N 1.12747 0.19809 0.28372
 C166 C 1.12539 0.16507 0.32788
 N167 N 1.09406 0.16545 0.33005
 N168 N 1.07936 0.15142 0.35268
 C169 C 1.09550 0.13683 0.37422
 N170 N 1.12684 0.13690 0.37233
 N171 N 1.14150 0.15064 0.34953
 C172 C 1.07951 0.11887 0.39733
 N173 N 1.09550 0.10778 0.42130
 N174 N 1.08229 0.08853 0.43999
 C175 C 1.05261 0.07951 0.43535
 N176 N 1.03640 0.09101 0.41173
 N177 N 1.04954 0.11049 0.39319
 C178 C 0.84686 -0.16764 0.31815
 N179 N 0.81691 -0.16081 0.31315
 N180 N 0.80067 -0.17379 0.29059
 C181 C 0.81364 -0.19428 0.27218
 N182 N 0.84358 -0.20121 0.27754
 N183 N 0.85990 -0.18810 0.29993
 C184 C 0.86509 -0.15237 0.34213
 N185 N 0.89635 -0.15471 0.34321
 N186 N 0.91296 -0.13954 0.36392
 C187 C 0.89884 -0.12169 0.38448
 N188 N 0.86758 -0.11968 0.38362
 N189 N 0.85102 -0.13467 0.36282
 C190 C 0.91686 -0.10299 0.40574
 N191 N 0.90191 -0.08622 0.42666
 N192 N 0.91739 -0.06678 0.44369
 C193 C 0.94845 -0.06332 0.44054
 N194 N 0.96363 -0.08050 0.42007
 N195 N 0.94809 -0.10007 0.40302
 C196 C 0.85860 0.16629 0.70187
 N197 N 0.86797 0.19140 0.71554
 N198 N 0.85302 0.20175 0.74024
 C199 C 0.82836 0.18725 0.75258
 N200 N 0.81926 0.16201 0.73886
 N201 N 0.83393 0.15185 0.71394
 C202 C 0.87483 0.15461 0.67459
 N203 N 0.90453 0.16254 0.66809
 N204 N 0.91945 0.15073 0.64410
 C205 C 0.90501 0.13090 0.62550
 N206 N 0.87522 0.12332 0.63182
 N207 N 0.86047 0.13483 0.65596
 C208 C 0.92151 0.11602 0.60027
 N209 N 0.90524 0.10000 0.57926
 N210 N 0.91967 0.08335 0.55874
 C211 C 0.95098 0.08196 0.55837
 N212 N 0.96742 0.09850 0.57893
 N213 N 0.95293 0.11537 0.59941
 C214 C 1.15113 -0.16566 0.67096
 N215 N 1.13843 -0.18777 0.68713
 N216 N 1.15496 -0.20135 0.70831
 C217 C 1.18470 -0.19314 0.71454
 N218 N 1.19725 -0.17097 0.69821
 N219 N 1.18089 -0.15763 0.67676
 C220 C 1.13289 -0.14992 0.64823
 N221 N 1.14736 -0.13346 0.62665
 N222 N 1.13108 -0.11793 0.60699
 C223 C 1.09972 -0.11800 0.60833
 N224 N 1.08517 -0.13453 0.62985
 N225 N 1.10148 -0.15037 0.64932
 C226 C 1.08238 -0.09869 0.58828
 N227 N 1.05306 -0.09090 0.59551
 N228 N 1.03900 -0.07061 0.57937
 C229 C 1.05365 -0.05767 0.55523
 N230 N 1.08262 -0.06604 0.54759
 N231 N 1.09672 -0.08609 0.56383
 C232 C 0.29483 1.15843 1.14355
 N233 N 0.28048 1.17896 1.12708
 N234 N 0.25876 1.19507 1.14024
 C235 C 0.25012 1.19104 1.17029
 N236 N 0.26475 1.17053 1.18669
 N237 N 0.28678 1.15471 1.17368
 C238 C 0.31785 1.13975 1.12885
 N239 N 0.33894 1.12610 1.14638
 N240 N 0.35918 1.10840 1.13326
 C241 C 0.35877 1.10331 1.10218
 N242 N 0.33761 1.11687 1.08463
 N243 N 0.31764 1.13491 1.09770
 C244 C 0.38058 1.08305 1.08806
 N245 N 0.37405 1.06959 1.06063
 N246 N 0.39343 1.05043 1.04854
 C247 C 0.42023 1.04436 1.06326
 N248 N 0.42687 1.05806 1.09049
 N249 N 0.40731 1.07688 1.10278
 C250 C 0.32522 0.83343 0.81139
 N251 N 0.31030 0.84552 0.78727
 N252 N 0.28598 0.83219 0.77419
 C253 C 0.27560 0.80630 0.78473
 N254 N 0.29094 0.79413 0.80854
 N255 N 0.31520 0.80741 0.82161
 C256 C 0.35003 0.84910 0.82807
 N257 N 0.36189 0.83804 0.85438
 N258 N 0.38220 0.85315 0.87139
 C259 C 0.39158 0.87987 0.86268
 N260 N 0.38016 0.89078 0.83605
 N261 N 0.35972 0.87568 0.81906
 C262 C 0.41115 0.89757 0.88350
 N263 N 0.42157 0.92409 0.87506
 N264 N 0.43656 0.94115 0.89534
 C265 C 0.44147 0.93233 0.92481
 N266 N 0.43147 0.90567 0.93305
 N267 N 0.41672 0.88858 0.91275
 C268 C 0.66982 0.82612 1.18092
 N269 N 0.68093 0.80171 1.16779
 N270 N 0.70592 0.78936 1.17924
 C271 C 0.72088 0.80088 1.20428
 N272 N 0.70938 0.82507 1.21771
 N273 N 0.68437 0.83744 1.20626
 C274 C 0.64422 0.84128 1.16629
 N275 N 0.63435 0.86676 1.17806
 N276 N 0.61315 0.88177 1.16315
 C277 C 0.60105 0.87186 1.13592
 N278 N 0.61060 0.84619 1.12441
 N279 N 0.63175 0.83118 1.13932
 C280 C 0.58029 0.88980 1.11773
 N281 N 0.57137 0.88133 1.08881
 N282 N 0.55534 0.89881 1.07091
 C283 C 0.54755 0.92540 1.08130
 N284 N 0.55594 0.93368 1.11045
 N285 N 0.57202 0.91621 1.12833
 C286 C 0.71010 1.14007 0.86859
 N287 N 0.73147 1.12797 0.84961
 N288 N 0.75161 1.14436 0.83404
 C289 C 0.75131 1.17350 0.83696
 N290 N 0.72990 1.18554 0.85600
 N291 N 0.70962 1.16917 0.87140
 C292 C 0.68781 1.12201 0.88575
 N293 N 0.66331 1.13396 0.90048
 N294 N 0.64281 1.11755 0.91558
 C295 C 0.64623 1.08861 0.91677
 N296 N 0.67086 1.07669 0.90224
 N297 N 0.69123 1.09307 0.88695
 C298 C 0.62298 1.07034 0.93236
 N299 N 0.62820 1.04198 0.93684
 N300 N 0.60648 1.02506 0.94941
 C301 C 0.57868 1.03584 0.95779
 N302 N 0.57354 1.06425 0.95358
 N303 N 0.59535 1.08121 0.94122
 C304 C 0.14681 0.31179 0.13187
 N305 N 0.12865 0.29115 0.14501
 N306 N 0.14111 0.26949 0.16021
 C307 C 0.17227 0.26734 0.16243
 N308 N 0.19050 0.28790 0.14912
 N309 N 0.17800 0.30984 0.13427
 C310 C 0.13256 0.33524 0.11477
 N311 N 0.14724 0.36109 0.11103
 N312 N 0.13347 0.38231 0.09602
 C313 C 0.10476 0.37818 0.08385
 N314 N 0.09034 0.35227 0.08741
 N315 N 0.10386 0.33129 0.10273
 C316 C 0.08859 0.40103 0.06751
 N317 N 0.06481 0.39364 0.04849
 N318 N 0.04761 0.41369 0.03576
 C319 C 0.05328 0.44202 0.04163
 N320 N 0.07742 0.44964 0.06033
 N321 N 0.09492 0.42945 0.07293
 C322 C -0.17390 0.31945 -0.14824
 N323 N -0.16405 0.31105 -0.17681
 N324 N -0.17139 0.28500 -0.18806
 C325 C -0.18890 0.26630 -0.17122
 N326 N -0.19898 0.27489 -0.14274
 N327 N -0.19154 0.30090 -0.13142
 C328 C -0.16392 0.34740 -0.13506
 N329 N -0.16980 0.35420 -0.10491
 N330 N -0.15834 0.37844 -0.09228
 C331 C -0.14077 0.39684 -0.10939
 N332 N -0.13540 0.39027 -0.13968
 N333 N -0.14676 0.36601 -0.15228
 C334 C -0.12456 0.42147 -0.09469
 N335 N -0.10508 0.43821 -0.11169
 N336 N -0.08661 0.45767 -0.09793
 C337 C -0.08699 0.46126 -0.06664
 N338 N -0.10715 0.44514 -0.04967
 N339 N -0.12565 0.42563 -0.06345
 C340 C 0.16978 0.68276 -0.17832
 N341 N 0.19382 0.69803 -0.16588
 N342 N 0.20561 0.72083 -0.18044
 C343 C 0.19373 0.72942 -0.20791
 N344 N 0.16970 0.71403 -0.22035
 N345 N 0.15798 0.69114 -0.20586
 C346 C 0.15583 0.65841 -0.16162
 N347 N 0.13292 0.64222 -0.17489
 N348 N 0.11895 0.62122 -0.15913
 C349 C 0.12732 0.61563 -0.12951
 N350 N 0.15046 0.63163 -0.11632
 N351 N 0.16453 0.65258 -0.13213
 C352 C 0.10960 0.59445 -0.11136
 N353 N 0.11429 0.59179 -0.08037
 N354 N 0.09564 0.57505 -0.06342
 C355 C 0.07174 0.56029 -0.07691
 N356 N 0.06756 0.56247 -0.10797
 N357 N 0.08613 0.57920 -0.12487
 C358 C -0.16213 0.69528 0.14988
 N359 N -0.14577 0.71711 0.16355
 N360 N -0.15980 0.73643 0.18143
 C361 C -0.19082 0.73488 0.18608
 N362 N -0.20728 0.71309 0.17226
 N363 N -0.19316 0.69352 0.15462
 C364 C -0.14613 0.67434 0.13014
 N365 N -0.15885 0.64805 0.12344
 N366 N -0.14334 0.62895 0.10637
 C367 C -0.11478 0.63568 0.09513
 N368 N -0.10232 0.66205 0.10159
 N369 N -0.11762 0.68095 0.11888
 C370 C -0.09663 0.61480 0.07731
 N371 N -0.07101 0.62395 0.06191
 N372 N -0.05275 0.60525 0.04766
 C373 C -0.05925 0.57663 0.04840
 N374 N -0.08510 0.56736 0.06352
 N375 N -0.10357 0.58617 0.07765
 C376 C 1.17593 0.17086 0.69142
 N377 N 1.20242 0.16153 0.70440
 N378 N 1.21420 0.17478 0.72944
 C379 C 1.19999 0.19791 0.74241
 N380 N 1.17411 0.20771 0.72855
 N381 N 1.16222 0.19438 0.70374
 C382 C 1.15981 0.15375 0.66746
 N383 N 1.12894 0.15681 0.66375
 N384 N 1.11303 0.13928 0.64486
 C385 C 1.12745 0.11825 0.62862
 N386 N 1.15850 0.11550 0.63172
 N387 N 1.17439 0.13283 0.65103
 C388 C 1.10896 0.09753 0.61038
 N389 N 1.12062 0.08400 0.58492
 N390 N 1.10314 0.06526 0.56871
 C391 C 1.07372 0.05905 0.57787
 N392 N 1.06230 0.07239 0.60345
 N393 N 1.07952 0.09142 0.61928
 C394 C 0.84297 -0.13234 0.70706
 N395 N 0.85521 -0.15747 0.71626
 N396 N 0.84039 -0.17391 0.73675
 C397 C 0.81247 -0.16616 0.74844
 N398 N 0.80018 -0.14107 0.73883
 N399 N 0.81524 -0.12436 0.71875
 C400 C 0.85940 -0.11421 0.68474
 N401 N 0.85607 -0.08523 0.68533
 N402 N 0.87124 -0.06876 0.66509
 C403 C 0.88982 -0.08077 0.64328
 N404 N 0.89295 -0.10976 0.64256
 N405 N 0.87821 -0.12618 0.66312
 C406 C 0.90599 -0.06286 0.62058
 N407 N 0.91236 -0.07354 0.59189
 N408 N 0.92689 -0.05728 0.57104
 C409 C 0.93600 -0.02996 0.57834
 N410 N 0.92989 -0.01933 0.60712
 N411 N 0.91487 -0.03544 0.62782
 C412 C 1.17077 -0.16704 0.32575
 N413 N 1.15595 -0.18896 0.31054
 N414 N 1.17157 -0.20690 0.29225
 C415 C 1.20258 -0.20342 0.28806
 N416 N 1.21735 -0.18168 0.30380
 N417 N 1.20181 -0.16394 0.32237
 C418 C 1.15327 -0.14575 0.34360
 N419 N 1.16777 -0.12760 0.36402
 N420 N 1.15209 -0.10716 0.37883
 C421 C 1.12147 -0.10387 0.37335
 N422 N 1.10700 -0.12203 0.35297
 N423 N 1.12259 -0.14268 0.33845
 C424 C 1.10425 -0.08080 0.38867
 N425 N 1.07703 -0.07218 0.37666
 N426 N 1.06102 -0.05150 0.39058
 C427 C 1.07152 -0.03883 0.41713
 N428 N 1.09876 -0.04743 0.42921
 N429 N 1.11498 -0.06790 0.41506
 C430 C 0.85779 0.14804 0.27667
 N431 N 0.84172 0.13443 0.25371
 N432 N 0.82872 0.14938 0.23129
 C433 C 0.83152 0.17854 0.23062
 N434 N 0.84785 0.19210 0.25363
 N435 N 0.86059 0.17715 0.27632
 C436 C 0.87194 0.13127 0.30122
 N437 N 0.88072 0.14385 0.32847
 N438 N 0.89315 0.12824 0.35080
 C439 C 0.89750 0.09961 0.34649
 N440 N 0.88888 0.08712 0.31918
 N441 N 0.87616 0.10264 0.29702
 C442 C 0.91151 0.08233 0.37068
 N443 N 0.92343 0.05628 0.36349
 N444 N 0.93650 0.04054 0.38527
 C445 C 0.93772 0.05013 0.41509
 N446 N 0.92561 0.07610 0.42237
 N447 N 0.91284 0.09200 0.40050
 C448 C 0.14621 0.30697 -0.14539
 N449 N 0.15207 0.30634 -0.17631
 N450 N 0.16937 0.28579 -0.18873
 C451 C 0.18174 0.26525 -0.17068
 N452 N 0.17613 0.26607 -0.13966
 N453 N 0.15857 0.28650 -0.12725
 C454 C 0.12647 0.32926 -0.13207
 N455 N 0.11464 0.32669 -0.10302
 N456 N 0.09622 0.34680 -0.09131
 C457 C 0.08919 0.37025 -0.10819
 N458 N 0.10116 0.37285 -0.13716
 N459 N 0.11932 0.35264 -0.14895
 C460 C 0.06935 0.39269 -0.09537
 N461 N 0.06803 0.41863 -0.10932
 N462 N 0.05048 0.43933 -0.09758
 C463 C 0.03333 0.43473 -0.07167
 N464 N 0.03444 0.40872 -0.05780
 N465 N 0.05224 0.38807 -0.06940
 C466 C -0.15978 0.32153 0.15889
 N467 N -0.18268 0.30864 0.14204
 N468 N -0.19316 0.28246 0.14920
 C469 C -0.18116 0.26801 0.17347
 N470 N -0.15877 0.28138 0.19080
 N471 N -0.14822 0.30756 0.18361
 C472 C -0.14560 0.34860 0.14836
 N473 N -0.12015 0.35997 0.16266
 N474 N -0.10519 0.38262 0.15076
 C475 C -0.11516 0.39463 0.12413
 N476 N -0.14092 0.38357 0.11021
 N477 N -0.15586 0.36099 0.12210
 C478 C -0.09693 0.41722 0.10872
 N479 N -0.10499 0.42563 0.07989
 N480 N -0.08720 0.44408 0.06431
 C481 C -0.06072 0.45490 0.07698
 N482 N -0.05278 0.44687 0.10602
 N483 N -0.07056 0.42824 0.12160
 C484 C -0.15365 0.71627 -0.14530
 N485 N -0.18481 0.71767 -0.14195
 N486 N -0.20081 0.73715 -0.15730
 C487 C -0.18637 0.75571 -0.17699
 N488 N -0.15519 0.75394 -0.18042
 N489 N -0.13915 0.73476 -0.16480
 C490 C -0.13577 0.69497 -0.12857
 N491 N -0.10481 0.69878 -0.12478
 N492 N -0.08822 0.67905 -0.11054
 C493 C -0.10197 0.65463 -0.09989
 N494 N -0.13295 0.65082 -0.10365
 N495 N -0.14960 0.67074 -0.11754
 C496 C -0.08342 0.63201 -0.08617
 N497 N -0.09430 0.60448 -0.08579
 N498 N -0.07689 0.58353 -0.07501
 C499 C -0.04811 0.58939 -0.06388
 N500 N -0.03733 0.61699 -0.06383
 N501 N -0.05461 0.63792 -0.07501
 C502 C 0.17049 0.67494 0.17878
 N503 N 0.19798 0.68526 0.16800
 N504 N 0.21348 0.70583 0.18356
 C505 C 0.20207 0.71700 0.21045
 N506 N 0.17463 0.70646 0.22125
 N507 N 0.15917 0.68585 0.20577
 C508 C 0.15263 0.65319 0.16099
 N509 N 0.12545 0.64255 0.17220
 N510 N 0.10854 0.62378 0.15554
 C511 C 0.11815 0.61499 0.12702
 N512 N 0.14543 0.62549 0.11587
 N513 N 0.16238 0.64421 0.13256
 C514 C 0.09860 0.59553 0.10799
 N515 N 0.10668 0.58886 0.07834
 N516 N 0.08809 0.57252 0.06056
 C517 C 0.06080 0.56217 0.07184
 N518 N 0.05286 0.56861 0.10157
 N519 N 0.07141 0.58499 0.11931
 C520 C 0.30409 1.16085 0.87082
 N521 N 0.27800 1.17093 0.88432
 N522 N 0.25783 1.18573 0.86789
 C523 C 0.26281 1.19065 0.83728
 N524 N 0.28890 1.18052 0.82380
 N525 N 0.30927 1.16604 0.84032
 C526 C 0.32573 1.14358 0.88846
 N527 N 0.35512 1.14010 0.87821
 N528 N 0.37441 1.12331 0.89339
 C529 C 0.36490 1.10915 0.91914
 N530 N 0.33552 1.11266 0.92944
 N531 N 0.31633 1.12975 0.91447
 C532 C 0.38556 1.08905 0.93427
 N533 N 0.37400 1.06762 0.95225
 N534 N 0.39262 1.04789 0.96377
 C535 C 0.42347 1.04915 0.95800
 N536 N 0.43507 1.07090 0.94052
 N537 N 0.41643 1.09040 0.92872
 C538 C 0.34183 0.81248 1.19261
 N539 N 0.32766 0.78960 1.17843
 N540 N 0.30376 0.77617 1.19179
 C541 C 0.29299 0.78513 1.21984
 N542 N 0.30776 0.80758 1.23433
 N543 N 0.33169 0.82100 1.22100
 C544 C 0.36488 0.82987 1.17579
 N545 N 0.37754 0.85408 1.18885
 N546 N 0.39527 0.87184 1.17212
 C547 C 0.40081 0.86604 1.14169
 N548 N 0.38864 0.84156 1.12886
 N549 N 0.37105 0.82380 1.14558
 C550 C 0.41664 0.88711 1.12183
 N551 N 0.41507 0.88377 1.09061
 N552 N 0.42676 0.90378 1.07200
 C553 C 0.44065 0.92788 1.08381
 N554 N 0.44278 0.93113 1.11511
 N555 N 0.43077 0.91114 1.13382
 C556 C 0.72071 1.14931 1.10518
 N557 N 0.74617 1.13648 1.11644
 N558 N 0.76638 1.15127 1.13385
 C559 C 0.76203 1.17953 1.14053
 N560 N 0.73686 1.19256 1.12872
 N561 N 0.71645 1.17767 1.11150
 C562 C 0.69701 1.13198 1.08896
 N563 N 0.66811 1.14217 1.08490
 N564 N 0.64571 1.12516 1.07337
 C565 C 0.65148 1.09743 1.06533
 N566 N 0.68053 1.08746 1.06880
 N567 N 0.70286 1.10439 1.08049
 C568 C 0.62627 1.07773 1.05594
 N569 N 0.63241 1.05037 1.04679
 N570 N 0.60947 1.03159 1.04103
 C571 C 0.57958 1.03943 1.04449
 N572 N 0.57342 1.06688 1.05325
 N573 N 0.59637 1.08571 1.05887
 C574 C 0.66141 0.82870 0.82855
 N575 N 0.67488 0.84079 0.80334
 N576 N 0.70262 0.83246 0.79376
 C577 C 0.71810 0.81179 0.80903
 N578 N 0.70426 0.79927 0.83390
 N579 N 0.67648 0.80762 0.84353
 C580 C 0.63301 0.84081 0.84155
 N581 N 0.62127 0.83101 0.86873
 N582 N 0.59830 0.84472 0.88287
 C583 C 0.58623 0.86869 0.87035
 N584 N 0.59742 0.87803 0.84275
 N585 N 0.62036 0.86431 0.82859
 C586 C 0.56523 0.88666 0.88865
 N587 N 0.55716 0.91300 0.87842
 N588 N 0.54276 0.93143 0.89719
 C589 C 0.53595 0.92416 0.92685
 N590 N 0.54315 0.89751 0.93674
 N591 N 0.55752 0.87910 0.91799
   
