data_POSCAR
  _audit_creation_date              2014-09-24
  _audit_creation_method            'ToBaCCo'
  _symmetry_space_group_name_H-M    'P1'
  _symmetry_Int_Tables_number       1
  _symmetry_cell_setting            triclinic
  loop_
  _symmetry_equiv_pos_as_xyz
 x,y,z
_cell_length_a 28.9170
_cell_length_b 28.8814
_cell_length_c 48.7344
_cell_angle_alpha 90.317800
_cell_angle_beta 90.931500
_cell_angle_gamma 89.360700
loop_
  _atom_site_label
  _atom_site_type_symbol
  _atom_site_fract_x
  _atom_site_fract_y
  _atom_site_fract_z
C1 C 0.02013 0.35547 0.98660
 C2 C 0.01996 0.35549 1.01474
 C3 C 0.00942 0.40045 1.02294
 N4 N 0.00295 0.42769 1.00071
 C5 C 0.00980 0.40039 0.97849
 C6 C 0.00278 0.41484 1.05039
 C7 C -0.00478 0.46147 1.05837
 C8 C -0.02013 0.47562 1.08396
 C9 C -0.02053 0.52322 1.08403
 C10 C -0.00536 0.53704 1.05848
 N11 N 0.00444 0.49915 1.04308
 C12 C 0.00167 0.58357 1.05070
 C13 C 0.00916 0.59762 1.02339
 C14 C 0.02015 0.64224 1.01552
 C15 C 0.02137 0.64205 0.98740
 C16 C 0.01105 0.59736 0.97896
 N17 N 0.00331 0.57041 1.00098
 C18 C 0.00586 0.58307 0.95135
 C19 C -0.00138 0.53672 0.94308
 C20 C -0.01506 0.52303 0.91687
 C21 C -0.01570 0.47541 0.91679
 C22 C -0.00234 0.46128 0.94293
 N23 N 0.00664 0.49887 0.95874
 C24 C 0.00389 0.41468 0.95099
 H25 H 0.02664 0.32567 0.97361
 H26 H 0.02624 0.32567 1.02769
 H27 H 0.02240 0.49861 0.97802
 H28 H -0.02971 0.45387 1.10093
 H29 H -0.03043 0.54519 1.10107
 H30 H 0.02615 0.67198 1.02868
 H31 H 0.02844 0.67159 0.97462
 H32 H -0.02456 0.45367 0.89936
 H33 H 0.02143 0.49897 1.02449
 H34 H -0.02338 0.54504 0.89954
 C35 C 0.35348 0.00261 0.48682
 C36 C 0.35470 -0.00084 0.51486
 C37 C 0.40098 -0.00088 0.52282
 N38 N 0.42790 0.00227 0.50052
 C39 C 0.39906 0.00437 0.47846
 C40 C 0.41708 -0.00209 0.55037
 C41 C 0.46415 0.00003 0.55876
 C42 C 0.47894 0.00647 0.58572
 C43 C 0.52638 0.00746 0.58556
 C44 C 0.53966 0.00152 0.55848
 N45 N 0.50142 -0.00373 0.54236
 C46 C 0.58625 0.00097 0.54973
 C47 C 0.60009 0.00148 0.52198
 C48 C 0.64570 0.00180 0.51348
 C49 C 0.64442 0.00397 0.48540
 C50 C 0.59812 0.00486 0.47751
 N51 N 0.57123 0.00336 0.49991
 C52 C 0.58195 0.00572 0.44996
 C53 C 0.53479 0.00530 0.44159
 C54 C 0.51969 0.00027 0.41457
 C55 C 0.47221 0.00059 0.41479
 C56 C 0.45929 0.00572 0.44195
 N57 N 0.49768 0.00940 0.45808
 C58 C 0.41285 0.00644 0.45078
 H59 H 0.32250 0.00339 0.47406
 H60 H 0.32482 -0.00271 0.52787
 H61 H 0.49846 0.01747 0.47879
 H62 H 0.45775 0.01068 0.60369
 H63 H 0.54858 0.01249 0.60340
 H64 H 0.67674 0.00083 0.52619
 H65 H 0.67429 0.00461 0.47231
 H66 H 0.44978 -0.00330 0.39695
 H67 H 0.50085 -0.01295 0.52180
 H68 H 0.54068 -0.00383 0.39651
 C69 C 0.08716 0.00559 0.26112
 H70 H 0.08982 0.00567 0.23900
 C71 C 0.12716 0.00724 0.27757
 H72 H 0.16079 0.00844 0.26814
 C73 C 0.04014 0.00429 0.30053
 H74 H 0.00624 0.00384 0.30946
 C75 C 0.07921 0.00595 0.31770
 H76 H 0.07523 0.00625 0.33977
 N77 N 0.04478 0.00344 0.27277
 C78 C -0.04456 -0.06217 0.21119
 H79 H -0.07284 -0.03735 0.21036
 C80 C -0.04578 -0.10173 0.19459
 H81 H -0.07501 -0.10740 0.18084
 C82 C 0.02824 -0.08514 0.23003
 H83 H 0.05679 -0.07887 0.24405
 C84 C 0.02837 -0.12515 0.21379
 H85 H 0.05727 -0.14927 0.21514
 Zn86 Zn -0.00797 0.00107 0.24924
 N87 N -0.00752 -0.05419 0.22808
 C88 C -0.00577 0.04830 0.19826
 N89 N -0.00634 0.05347 0.22604
 C90 C -0.00416 0.09614 0.23798
 C91 C -0.00265 0.13586 0.22179
 C92 C -0.00426 0.08709 0.18134
 C93 C -0.07000 -0.03551 0.28658
 C94 C -0.10894 -0.03677 0.30312
 C95 C -0.13320 0.03729 0.28469
 C96 C -0.09377 0.03720 0.26849
 N97 N -0.06269 0.00151 0.27010
 H98 H -0.00623 0.01418 0.18913
 H99 H -0.00381 0.09922 0.26012
 H100 H -0.00130 0.16972 0.23144
 H101 H -0.00408 0.08268 0.15925
 H102 H -0.04507 -0.06371 0.28716
 H103 H -0.11403 -0.06595 0.31656
 H104 H -0.15741 0.06615 0.28364
 H105 H -0.08801 0.06576 0.25481
 C106 C -0.00879 -0.13329 0.19576
 C107 C 0.12309 0.00717 0.30612
 C108 C -0.14059 0.00017 0.30233
 C109 C -0.00289 0.13124 0.19321
 C110 C 0.00073 0.09195 0.76123
 H111 H 0.00007 0.09466 0.73909
 C112 C -0.00062 0.13199 0.77745
 H113 H -0.00216 0.16571 0.76783
 C114 C 0.00321 0.04477 0.80092
 H115 H 0.00401 0.01081 0.81005
 C116 C 0.00187 0.08388 0.81787
 H117 H 0.00218 0.07984 0.83996
 N118 N 0.00335 0.04945 0.77314
 C119 C 0.06781 -0.04135 0.71251
 H120 H 0.04320 -0.06929 0.71190
 C121 C 0.10685 -0.04335 0.69603
 H122 H 0.11232 -0.07284 0.68259
 C123 C 0.09077 0.03138 0.73067
 H124 H 0.08469 0.06021 0.74438
 C125 C 0.13026 0.03073 0.71453
 H126 H 0.15418 0.05931 0.71564
 Zn127 Zn 0.00543 -0.00344 0.74997
 N128 N 0.06006 -0.00397 0.72901
 C129 C -0.04305 -0.00088 0.69879
 N130 N -0.04752 -0.00110 0.72656
 C131 C -0.08988 0.00166 0.73829
 C132 C -0.12998 0.00329 0.72192
 C133 C -0.08223 0.00074 0.68169
 C134 C 0.04337 -0.06607 0.78789
 C135 C 0.04534 -0.10509 0.80468
 C136 C -0.02895 -0.12823 0.78613
 C137 C -0.02955 -0.08875 0.76968
 N138 N 0.00591 -0.05818 0.77123
 H139 H -0.00919 -0.00181 0.68980
 H140 H -0.09242 0.00225 0.76042
 H141 H -0.16358 0.00498 0.73140
 H142 H -0.07837 0.00053 0.65961
 H143 H 0.07139 -0.04155 0.78842
 H144 H 0.07489 -0.11066 0.81826
 H145 H -0.05763 -0.15203 0.78511
 H146 H -0.05847 -0.08255 0.75585
 C147 C 0.13813 -0.00679 0.69689
 C148 C 0.00023 0.12785 0.80603
 C149 C 0.00865 -0.13623 0.80394
 C150 C -0.12606 0.00258 0.69335
 C151 C -0.00384 -0.31607 0.10783
 N152 N -0.04372 -0.29193 0.11170
 N153 N -0.04513 -0.25693 0.12962
 C154 C -0.00669 -0.24503 0.14421
 N155 N 0.03318 -0.26921 0.14037
 N156 N 0.03459 -0.30420 0.12245
 C157 C -0.00192 -0.35262 0.08782
 C158 C -0.00025 -0.38275 0.07062
 C159 C -0.00778 -0.20630 0.16277
 C160 C -0.00842 -0.17327 0.17800
 C161 C 0.00128 0.31485 0.10717
 N162 N -0.03900 0.30174 0.11854
 N163 N -0.03960 0.26667 0.13618
 C164 C 0.00006 0.24365 0.14299
 N165 N 0.04033 0.25681 0.13165
 N166 N 0.04093 0.29188 0.11401
 C167 C 0.00169 0.35136 0.08734
 C168 C 0.00213 0.38137 0.07025
 C169 C -0.00085 0.20475 0.16115
 C170 C -0.00171 0.17152 0.17599
 C171 C 0.31747 -0.00568 0.60894
 N172 N 0.29155 -0.04417 0.61175
 N173 N 0.25730 -0.04486 0.62971
 C174 C 0.24793 -0.00709 0.64540
 N175 N 0.27389 0.03138 0.64262
 N176 N 0.30815 0.03207 0.62466
 C177 C 0.35316 -0.00441 0.58887
 C178 C 0.38252 -0.00333 0.57160
 C179 C 0.20994 -0.00727 0.66397
 C180 C 0.17749 -0.00720 0.67919
 C181 C -0.31171 0.00353 0.60651
 N182 N -0.30224 -0.03398 0.62233
 N183 N -0.26672 -0.03364 0.64011
 C184 C -0.23961 0.00422 0.64259
 N185 N -0.24912 0.04175 0.62679
 N186 N -0.28463 0.04141 0.60902
 C187 C -0.34885 0.00261 0.58665
 C188 C -0.37948 0.00182 0.56956
 C189 C -0.20030 0.00395 0.66094
 C190 C -0.16673 0.00348 0.67594
 C191 C 0.00829 -0.31577 0.89304
 N192 N 0.04586 -0.28835 0.89114
 N193 N 0.04634 -0.25398 0.87303
 C194 C 0.00926 -0.24598 0.85625
 N195 N -0.02830 -0.27344 0.85812
 N196 N -0.02878 -0.30783 0.87624
 C197 C 0.00732 -0.35185 0.91312
 C198 C 0.00659 -0.38166 0.93032
 C199 C 0.00923 -0.20800 0.83741
 C200 C 0.00907 -0.17556 0.82194
 C201 C 0.00109 0.31238 0.89266
 N202 N 0.04073 0.29764 0.88077
 N203 N 0.04016 0.26246 0.86296
 C204 C -0.00007 0.24096 0.85650
 N205 N -0.03972 0.25575 0.86837
 N206 N -0.03915 0.29093 0.88618
 C207 C 0.00200 0.34899 0.91266
 C208 C 0.00284 0.37915 0.92987
 C209 C -0.00034 0.20186 0.83822
 C210 C -0.00027 0.16842 0.82330
 C211 C -0.31887 0.00319 0.39104
 N212 N -0.29794 -0.03738 0.38413
 N213 N -0.26394 -0.03817 0.36599
 C214 C -0.24986 0.00159 0.35421
 N215 N -0.27084 0.04216 0.36110
 N216 N -0.30484 0.04295 0.37924
 C217 C -0.35432 0.00420 0.41130
 C218 C -0.38353 0.00496 0.42867
 C219 C -0.21210 0.00096 0.33547
 C220 C -0.17980 0.00052 0.32014
 C221 C 0.30862 0.00862 0.39303
 N222 N 0.29988 -0.02907 0.37713
 N223 N 0.26432 -0.02886 0.35937
 C224 C 0.23645 0.00904 0.35699
 N225 N 0.24524 0.04674 0.37287
 N226 N 0.28079 0.04653 0.39062
 C227 C 0.34584 0.00785 0.41284
 C228 C 0.37656 0.00719 0.42987
 C229 C 0.19717 0.00867 0.33863
 C230 C 0.16366 0.00814 0.32360
   
