data_POSCAR
  _audit_creation_date              2014-09-24
  _audit_creation_method            'ToBaCCo'
  _symmetry_space_group_name_H-M    'P1'
  _symmetry_Int_Tables_number       1
  _symmetry_cell_setting            triclinic
  loop_
  _symmetry_equiv_pos_as_xyz
 x,y,z
_cell_length_a 31.8539
_cell_length_b 40.3396
_cell_length_c 18.9208
_cell_angle_alpha 90.147500
_cell_angle_beta 90.016100
_cell_angle_gamma 90.096400
loop_
  _atom_site_label
  _atom_site_type_symbol
  _atom_site_fract_x
  _atom_site_fract_y
  _atom_site_fract_z
O1 O 0.23220 0.28156 0.16107
 O2 O 0.30327 0.21719 0.22933
 O3 O 0.23229 0.21695 0.16120
 O4 O 0.30308 0.28191 0.22930
 O5 O 0.26875 0.28184 0.33076
 O6 O 0.19796 0.21699 0.26258
 O7 O 0.26893 0.21733 0.33077
 O8 O 0.19779 0.28157 0.26245
 Cu9 Cu 0.27117 0.24939 0.18505
 Cu10 Cu 0.22990 0.24944 0.30680
 C11 C 0.20296 0.29256 0.20021
 C12 C 0.29813 0.20628 0.29163
 C13 C 0.20309 0.20584 0.20033
 C14 C 0.29788 0.29297 0.29159
 O15 O 0.80337 0.28193 0.26972
 O16 O 0.73269 0.21710 0.33791
 O17 O 0.80357 0.21721 0.26956
 O18 O 0.73257 0.28171 0.33807
 O19 O 0.69807 0.28151 0.23675
 O20 O 0.76909 0.21708 0.16823
 O21 O 0.69820 0.21696 0.23665
 O22 O 0.76896 0.28162 0.16832
 Cu23 Cu 0.77154 0.24950 0.31397
 Cu24 Cu 0.73012 0.24927 0.19232
 C25 C 0.79811 0.29286 0.20746
 C26 C 0.70341 0.20594 0.29889
 C27 C 0.79834 0.20612 0.20729
 C28 C 0.70329 0.29262 0.29899
 O29 O 0.73100 0.78279 0.66865
 O30 O 0.80188 0.71835 0.73693
 O31 O 0.73089 0.71827 0.66870
 O32 O 0.80201 0.78294 0.73667
 O33 O 0.76786 0.78301 0.83823
 O34 O 0.69657 0.71838 0.77015
 O35 O 0.76747 0.71842 0.83830
 O36 O 0.69683 0.78312 0.77024
 Cu37 Cu 0.76990 0.75057 0.69256
 Cu38 Cu 0.72871 0.75076 0.81440
 C39 C 0.70196 0.79400 0.70790
 C40 C 0.79666 0.70736 0.79915
 C41 C 0.70171 0.70726 0.70790
 C42 C 0.79705 0.79406 0.79899
 O43 O 0.30127 0.78285 0.76447
 O44 O 0.23030 0.71830 0.83272
 O45 O 0.30120 0.71830 0.76432
 O46 O 0.23039 0.78285 0.83289
 O47 O 0.19586 0.78277 0.73166
 O48 O 0.26674 0.71823 0.66297
 O49 O 0.19592 0.71806 0.73128
 O50 O 0.26670 0.78282 0.66322
 Cu51 Cu 0.26924 0.75059 0.80878
 Cu52 Cu 0.22781 0.75047 0.68713
 C53 C 0.29602 0.79385 0.70228
 C54 C 0.20115 0.70710 0.79352
 C55 C 0.29598 0.70725 0.70204
 C56 C 0.20111 0.79391 0.79394
 C57 C 1.02309 0.02695 0.02745
 C58 C 0.97866 0.02678 0.02885
 C59 C 0.95691 -0.00055 0.00100
 C60 C 0.97814 -0.02779 -0.02814
 C61 C 1.02258 -0.02767 -0.02942
 C62 C 1.04433 -0.00031 -0.00163
 H63 H 1.07838 -0.00028 -0.00255
 H64 H 0.92285 -0.00058 0.00193
 C65 C 0.52162 0.52722 0.52983
 C66 C 0.47720 0.52751 0.52739
 C67 C 0.45602 0.50029 0.49774
 C68 C 0.47781 0.47293 0.47046
 C69 C 0.52222 0.47262 0.47295
 C70 C 0.54341 0.49985 0.50258
 H71 H 0.57746 0.49983 0.50422
 H72 H 0.42197 0.50032 0.49609
 C73 C -0.02234 0.47279 0.02946
 C74 C 0.02207 0.47246 0.02710
 C75 C 0.04330 0.49964 -0.00232
 C76 C 0.02154 0.52699 -0.02950
 C77 C -0.02287 0.52730 -0.02720
 C78 C -0.04410 0.50013 0.00225
 H79 H -0.07815 0.50017 0.00381
 H80 H 0.07735 0.49960 -0.00387
 C81 C 0.47798 0.97316 0.52752
 C82 C 0.52240 0.97343 0.52961
 C83 C 0.54425 1.00071 0.50206
 C84 C 0.52311 1.02785 0.47251
 C85 C 0.47868 1.02760 0.47048
 C86 C 0.45684 1.00032 0.49803
 H87 H 0.42279 1.00029 0.49665
 H88 H 0.57830 1.00074 0.50344
 C89 C 1.12556 0.13214 0.12603
 N90 N 1.15672 0.14450 0.08480
 N91 N 1.18176 0.16852 0.10877
 C92 C 1.17659 0.18106 0.17490
 N93 N 1.14533 0.16872 0.21603
 N94 N 1.12029 0.14472 0.19204
 C95 C 1.09837 0.10532 0.10002
 N96 N 1.06745 0.09278 0.14148
 N97 N 1.04313 0.06816 0.11822
 C98 C 1.04856 0.05533 0.05250
 N99 N 1.07984 0.06763 0.01139
 N100 N 1.10418 0.09225 0.03459
 C101 C 0.62316 0.63212 0.63167
 N102 N 0.61933 0.64325 0.69915
 N103 N 0.64417 0.66735 0.72334
 C104 C 0.67380 0.68114 0.68098
 N105 N 0.67759 0.67003 0.61350
 N106 N 0.65269 0.64599 0.58927
 C107 C 0.59618 0.60527 0.60515
 N108 N 0.59887 0.59518 0.53681
 N109 N 0.57466 0.57065 0.51282
 C110 C 0.54666 0.55548 0.55612
 N111 N 0.54451 0.56517 0.62475
 N112 N 0.56863 0.58977 0.64875
 C113 C -0.12376 0.36806 0.13121
 N114 N -0.15322 0.35399 0.08879
 N115 N -0.17800 0.32993 0.11302
 C116 C -0.17415 0.31901 0.18051
 N117 N -0.14459 0.33301 0.22289
 N118 N -0.11987 0.35712 0.19870
 C119 C -0.09686 0.39489 0.10471
 N120 N -0.06941 0.41058 0.14837
 N121 N -0.04532 0.43514 0.12440
 C122 C -0.04741 0.44461 0.05572
 N123 N -0.07532 0.42926 0.01235
 N124 N -0.09950 0.40477 0.03632
 C125 C 0.37524 0.86839 0.62626
 N126 N 0.38103 0.85555 0.69179
 N127 N 0.35589 0.83170 0.71591
 C128 C 0.32405 0.81981 0.67535
 N129 N 0.31832 0.83259 0.60975
 N130 N 0.34345 0.85646 0.58565
 C131 C 0.40254 0.89505 0.60013
 N132 N 0.39587 0.90867 0.53559
 N133 N 0.42025 0.93319 0.51236
 C134 C 0.45243 0.94485 0.55252
 N135 N 0.45877 0.93141 0.61731
 N136 N 0.43440 0.90690 0.64062
 C137 C -0.12475 0.63250 -0.12523
 N138 N -0.11885 0.64542 -0.19068
 N139 N -0.14377 0.66938 -0.21466
 C140 C -0.17547 0.68133 -0.17402
 N141 N -0.18130 0.66848 -0.10849
 N142 N -0.15640 0.64449 -0.08455
 C143 C -0.09773 0.60569 -0.09930
 N144 N -0.10455 0.59195 -0.03491
 N145 N -0.08038 0.56731 -0.01185
 C146 C -0.04828 0.55566 -0.05204
 N147 N -0.04180 0.56921 -0.11669
 N148 N -0.06595 0.59384 -0.13983
 C149 C 0.37697 1.13182 0.36833
 N150 N 0.38101 1.14293 0.30099
 N151 N 0.35606 1.16680 0.27663
 C152 C 0.32610 1.18037 0.31870
 N153 N 0.32210 1.16928 0.38605
 N154 N 0.34710 1.14547 0.41043
 C155 C 0.40406 1.10522 0.39500
 N156 N 0.40084 1.09491 0.46302
 N157 N 0.42509 1.07055 0.48710
 C158 C 0.45368 1.05576 0.44422
 N159 N 0.45640 1.06570 0.37590
 N160 N 0.43223 1.09012 0.35182
 C161 C 1.12405 -0.13253 -0.13075
 N162 N 1.11886 -0.14471 -0.19714
 N163 N 1.14371 -0.16871 -0.22147
 C164 C 1.17472 -0.18138 -0.18035
 N165 N 1.17981 -0.16922 -0.11388
 N166 N 1.15493 -0.14526 -0.08953
 C167 C 1.09708 -0.10576 -0.10420
 N168 N 1.10185 -0.09402 -0.03738
 N169 N 1.07770 -0.06950 -0.01351
 C170 C 1.04766 -0.05597 -0.05536
 N171 N 1.04336 -0.06738 -0.12251
 N172 N 1.06745 -0.09194 -0.14640
 C173 C 0.62436 0.36736 0.37488
 N174 N 0.61840 0.35423 0.30950
 N175 N 0.64343 0.33030 0.28545
 C176 C 0.67530 0.31860 0.32594
 N177 N 0.68119 0.33166 0.39141
 N178 N 0.65618 0.35562 0.41543
 C179 C 0.59724 0.39415 0.40087
 N180 N 0.60421 0.40820 0.46507
 N181 N 0.57999 0.43285 0.48813
 C182 C 0.54767 0.44421 0.44814
 N183 N 0.54103 0.43034 0.38369
 N184 N 0.56524 0.40571 0.36054
 C185 C 0.87509 -0.13257 -0.12680
 N186 N 0.84413 -0.14504 -0.08528
 N187 N 0.81891 -0.16893 -0.10924
 C188 C 0.82371 -0.18127 -0.17562
 N189 N 0.85479 -0.16884 -0.21703
 N190 N 0.87998 -0.14493 -0.19307
 C191 C 0.90247 -0.10586 -0.10080
 N192 N 0.93261 -0.09274 -0.14305
 N193 N 0.95707 -0.06821 -0.11978
 C194 C 0.95263 -0.05612 -0.05323
 N195 N 0.92210 -0.06898 -0.01131
 N196 N 0.89759 -0.09348 -0.03454
 C197 C 0.37624 0.36817 0.36810
 N198 N 0.34681 0.35416 0.41051
 N199 N 0.32195 0.33012 0.38617
 C200 C 0.32569 0.31914 0.31859
 N201 N 0.35521 0.33307 0.27622
 N202 N 0.38001 0.35717 0.30051
 C203 C 0.40322 0.39499 0.39475
 N204 N 0.43060 0.41067 0.35113
 N205 N 0.45472 0.43523 0.37525
 C206 C 0.45276 0.44471 0.44404
 N207 N 0.42493 0.42936 0.48737
 N208 N 0.40071 0.40487 0.46325
 C209 C 0.12295 0.63186 -0.13060
 N210 N 0.11908 0.64287 -0.19803
 N211 N 0.14381 0.66701 -0.22209
 C212 C 0.17336 0.68095 -0.17963
 N213 N 0.17720 0.66996 -0.11219
 N214 N 0.15240 0.64589 -0.08808
 C215 C 0.09605 0.60499 -0.10426
 N216 N 0.09869 0.59502 -0.03594
 N217 N 0.07452 0.57049 -0.01212
 C218 C 0.04661 0.55520 -0.05560
 N219 N 0.04452 0.56477 -0.12421
 N220 N 0.06860 0.58936 -0.14802
 C221 C 0.62576 1.13261 0.37357
 N222 N 0.65712 1.14494 0.41458
 N223 N 0.68220 1.16883 0.39048
 C224 C 0.67689 1.18127 0.32442
 N225 N 0.64544 1.16896 0.28351
 N226 N 0.62034 1.14508 0.30764
 C227 C 0.59851 1.10592 0.39972
 N228 N 0.56716 1.09361 0.35871
 N229 N 0.54281 1.06910 0.38206
 C230 C 0.54863 1.05613 0.44743
 N231 N 0.58032 1.06823 0.48810
 N232 N 0.60469 1.09275 0.46483
 C233 C 0.12408 0.36725 0.12468
 N234 N 0.15580 0.35535 0.08399
 N235 N 0.18078 0.33141 0.10789
 C236 C 0.17497 0.31851 0.17338
 N237 N 0.14321 0.33035 0.21401
 N238 N 0.11821 0.35427 0.19009
 C239 C 0.09700 0.39403 0.09883
 N240 N 0.06516 0.40578 0.13936
 N241 N 0.04098 0.43041 0.11633
 C242 C 0.04749 0.44407 0.05180
 N243 N 0.07965 0.43252 0.01161
 N244 N 0.10385 0.40788 0.03455
 C245 C 0.62370 0.86892 0.63156
 N246 N 0.61983 0.85798 0.69906
 N247 N 0.64459 0.83395 0.72329
 C248 C 0.67417 0.82006 0.68095
 N249 N 0.67800 0.83098 0.61345
 N250 N 0.65318 0.85494 0.58918
 C251 C 0.59679 0.89566 0.60500
 N252 N 0.59957 0.90563 0.53669
 N253 N 0.57542 0.93007 0.51267
 C254 C 0.54738 0.94527 0.55591
 N255 N 0.54513 0.93570 0.62451
 N256 N 0.56920 0.91120 0.64853
 C257 C 0.87699 0.13137 0.13060
 N258 N 0.84691 0.14476 0.08867
 N259 N 0.82197 0.16868 0.11304
 C260 C 0.82625 0.18012 0.18019
 N261 N 0.85642 0.16681 0.22208
 N262 N 0.88132 0.14285 0.19774
 C263 C 0.90403 0.10466 0.10400
 N264 N 0.93260 0.08999 0.14697
 N265 N 0.95675 0.06549 0.12297
 C266 C 0.95360 0.05502 0.05496
 N267 N 0.92461 0.06938 0.01231
 N268 N 0.90038 0.09383 0.03629
 C269 C 0.37493 0.63258 0.62590
 N270 N 0.38077 0.64557 0.69144
 N271 N 0.35572 0.66947 0.71558
 C272 C 0.32395 0.68127 0.67502
 N273 N 0.31818 0.66836 0.60940
 N274 N 0.34320 0.64443 0.58529
 C275 C 0.40209 0.60584 0.59980
 N276 N 0.39533 0.59201 0.53532
 N277 N 0.41960 0.56741 0.51215
 C278 C 0.45175 0.55588 0.55231
 N279 N 0.45817 0.56953 0.61704
 N280 N 0.43392 0.59412 0.64029
   
