data_POSCAR
  _audit_creation_date              2014-09-24
  _audit_creation_method            'ToBaCCo'
  _symmetry_space_group_name_H-M    'P1'
  _symmetry_Int_Tables_number       1
  _symmetry_cell_setting            triclinic
  loop_
  _symmetry_equiv_pos_as_xyz
 x,y,z
_cell_length_a 33.2545
_cell_length_b 34.9498
_cell_length_c 22.4779
_cell_angle_alpha 90.105300
_cell_angle_beta 89.940900
_cell_angle_gamma 121.458700
loop_
  _atom_site_label
  _atom_site_type_symbol
  _atom_site_fract_x
  _atom_site_fract_y
  _atom_site_fract_z
O1 O 0.06077 0.49043 -0.01383
 O2 O -0.01246 0.52971 -0.08048
 O3 O 0.06310 0.56535 -0.01353
 O4 O -0.01528 0.45370 -0.08002
 O5 O -0.05903 0.43262 0.00120
 O6 O 0.01813 0.54413 0.06675
 O7 O -0.05701 0.50869 0.00009
 O8 O 0.01648 0.46995 0.06704
 Cu9 Cu 0.02828 0.51180 -0.05530
 Cu10 Cu -0.02516 0.48659 0.04158
 C11 C 0.05174 0.47456 0.03856
 C12 C -0.04716 0.52592 -0.05153
 C13 C 0.05438 0.57326 0.03857
 C14 C -0.05043 0.42404 -0.05055
 O15 O 0.57079 0.51756 0.01264
 O16 O 0.45218 0.45580 0.07891
 O17 O 0.50284 0.43473 0.01219
 O18 O 0.52091 0.53917 0.07779
 O19 O 0.49159 0.55122 -0.00322
 O20 O 0.47342 0.44670 -0.06877
 O21 O 0.42236 0.46671 -0.00250
 O22 O 0.54101 0.52867 -0.06875
 Cu23 Cu 0.51437 0.48552 0.05370
 Cu24 Cu 0.47884 0.49961 -0.04366
 C25 C 0.57583 0.53272 -0.03987
 C26 C 0.41715 0.45087 0.04964
 C27 C 0.48643 0.42367 -0.04023
 C28 C 0.50955 0.56308 0.04833
 O29 O 0.41767 0.94850 -0.00507
 O30 O 0.53689 1.00619 -0.07131
 O31 O 0.48651 0.93291 -0.00659
 O32 O 0.46633 1.01733 -0.07349
 O33 O 0.49382 1.05874 0.00776
 O34 O 0.51548 0.97460 0.07418
 O35 O 0.56532 1.04739 0.00999
 O36 O 0.44723 0.98941 0.07631
 Cu37 Cu 0.47414 0.97178 -0.04708
 Cu38 Cu 0.50859 1.02177 0.05004
 C39 C 0.41242 0.95921 0.04718
 C40 C 0.57113 1.03750 -0.04233
 C41 C 0.50352 0.93885 0.04546
 C42 C 0.47666 1.05244 -0.04441
 O43 O 1.05313 0.56031 0.50086
 O44 O 0.97782 0.44901 0.56765
 O45 O 1.05261 0.48495 0.50039
 O46 O 0.97726 0.52209 0.56615
 O47 O 0.93246 0.49950 0.48572
 O48 O 1.00877 0.46343 0.41926
 O49 O 0.93331 0.42617 0.48698
 O50 O 1.00863 0.53800 0.42024
 Cu51 Cu 1.02001 0.50650 0.54157
 Cu52 Cu 0.96655 0.47957 0.44471
 C53 C 1.04362 0.56821 0.44935
 C54 C 0.94212 0.41907 0.53941
 C55 C 1.04366 0.46795 0.44854
 C56 C 0.94141 0.51609 0.53777
 O57 O 0.42289 0.47451 0.51280
 O58 O 0.54155 0.53635 0.57893
 O59 O 0.49111 0.55734 0.51191
 O60 O 0.47251 0.45310 0.57876
 O61 O 0.50147 0.44022 0.49792
 O62 O 0.52055 0.54459 0.43137
 O63 O 0.57114 0.52449 0.49786
 O64 O 0.45252 0.46275 0.43163
 Cu65 Cu 0.47931 0.50669 0.55389
 Cu66 Cu 0.51462 0.49162 0.45687
 C67 C 0.41778 0.45904 0.46040
 C68 C 0.57647 0.54082 0.54978
 C69 C 0.50782 0.56800 0.45961
 C70 C 0.48362 0.42883 0.54957
 O71 O 0.45849 -0.01290 0.42875
 O72 O 0.57766 0.04498 0.49516
 O73 O 0.52908 -0.02395 0.42658
 O74 O 0.50870 0.06043 0.49369
 O75 O 0.47965 0.01874 0.57431
 O76 O 0.50158 -0.06530 0.50773
 O77 O 0.54808 0.00413 0.57644
 O78 O 0.43004 -0.05408 0.50991
 Cu79 Cu 0.52121 0.02159 0.45310
 Cu80 Cu 0.48673 -0.02834 0.55008
 C81 C 0.42426 -0.04425 0.45761
 C82 C 0.58290 0.03432 0.54737
 C83 C 0.51873 -0.05905 0.45555
 C84 C 0.49156 0.05445 0.54569
 C85 C 0.11485 0.43933 0.24640
 C86 C 0.13632 0.43881 0.19288
 C87 C 0.17307 0.43012 0.19462
 C88 C 0.18679 0.41918 0.24834
 C89 C 0.16227 0.41733 0.30072
 C90 C 0.12833 0.42971 0.30071
 C91 C 0.22811 0.41242 0.25048
 C92 C 0.25212 0.41750 0.30447
 C93 C 0.29174 0.41320 0.30702
 C94 C 0.30964 0.40657 0.25416
 C95 C 0.28849 0.40405 0.19919
 C96 C 0.24632 0.40429 0.19827
 H97 H 0.08900 0.44915 0.24611
 H98 H 0.19121 0.43269 0.15387
 H99 H 0.16953 0.40666 0.34220
 H100 H 0.24181 0.42709 0.34455
 H101 H 0.34077 0.40422 0.25568
 H102 H 0.22888 0.39966 0.15630
 C103 C 0.52245 0.65728 0.25068
 C104 C 0.52842 0.67904 0.19612
 C105 C 0.53427 0.72189 0.19579
 C106 C 0.53025 0.74165 0.24862
 C107 C 0.52237 0.71781 0.30244
 C108 C 0.52012 0.67662 0.30420
 C109 C 0.53210 0.78576 0.24779
 C110 C 0.54028 0.81063 0.30065
 C111 C 0.53521 0.84795 0.30275
 C112 C 0.52745 0.86414 0.24968
 C113 C 0.52249 0.84228 0.19529
 C114 C 0.52332 0.80238 0.19519
 H115 H 0.51766 0.62426 0.25136
 H116 H 0.54205 0.73949 0.15402
 H117 H 0.51747 0.73077 0.34345
 H118 H 0.55027 0.80113 0.34105
 H119 H 0.52334 0.89279 0.25110
 H120 H 0.51642 0.78417 0.15411
 C121 C 0.31090 0.89698 0.25459
 C122 C 0.28811 0.87825 0.20037
 C123 C 0.24662 0.83574 0.20061
 C124 C 0.23092 0.80928 0.25262
 C125 C 0.25620 0.82829 0.30585
 C126 C 0.29521 0.87243 0.30759
 C127 C 0.19068 0.76114 0.25044
 C128 C 0.16622 0.73842 0.30263
 C129 C 0.13203 0.69235 0.30186
 C130 C 0.11900 0.66965 0.24720
 C131 C 0.14096 0.69163 0.19409
 C132 C 0.17767 0.73674 0.19645
 H133 H 0.34153 0.93057 0.25542
 H134 H 0.22762 0.82279 0.15956
 H135 H 0.24717 0.80831 0.34569
 H136 H 0.17364 0.75629 0.34425
 H137 H 0.09297 0.63421 0.24618
 H138 H 0.19623 0.75235 0.15593
 C139 C 0.87862 0.55227 0.74501
 C140 C 0.85642 0.55179 0.69177
 C141 C 0.81952 0.56024 0.69378
 C142 C 0.80650 0.57204 0.74748
 C143 C 0.83168 0.57481 0.79956
 C144 C 0.86584 0.56269 0.79934
 C145 C 0.76533 0.57893 0.74990
 C146 C 0.74145 0.57398 0.80399
 C147 C 0.70192 0.57843 0.80674
 C148 C 0.68408 0.58518 0.75399
 C149 C 0.70516 0.58762 0.69895
 C150 C 0.74719 0.58715 0.69783
 H151 H 0.90466 0.54269 0.74442
 H152 H 0.80078 0.55689 0.65327
 H153 H 0.82479 0.58612 0.84084
 H154 H 0.75183 0.56440 0.84395
 H155 H 0.65304 0.58767 0.75566
 H156 H 0.76464 0.59168 0.65584
 C157 C 0.47096 0.33510 0.75241
 C158 C 0.46470 0.31323 0.69775
 C159 C 0.45878 0.27033 0.69720
 C160 C 0.46310 0.25068 0.74982
 C161 C 0.47122 0.27459 0.80369
 C162 C 0.47356 0.31582 0.80576
 C163 C 0.46149 0.20669 0.74872
 C164 C 0.45364 0.18193 0.80150
 C165 C 0.45917 0.14487 0.80337
 C166 C 0.46704 0.12880 0.75016
 C167 C 0.47166 0.15053 0.69586
 C168 C 0.47036 0.19017 0.69596
 H169 H 0.47582 0.36815 0.75329
 H170 H 0.45078 0.25261 0.65544
 H171 H 0.47630 0.26168 0.84453
 H172 H 0.44360 0.19133 0.84203
 H173 H 0.47154 0.10037 0.75141
 H174 H 0.47698 0.20830 0.65492
 C175 C 0.68461 0.09611 0.75483
 C176 C 0.70748 0.11482 0.70069
 C177 C 0.74924 0.15714 0.70119
 C178 C 0.76509 0.18356 0.75337
 C179 C 0.73964 0.16457 0.80649
 C180 C 0.70042 0.12055 0.80798
 C181 C 0.80556 0.23168 0.75146
 C182 C 0.82937 0.25463 0.80390
 C183 C 0.86344 0.30073 0.80333
 C184 C 0.87721 0.32331 0.74869
 C185 C 0.85591 0.30110 0.69533
 C186 C 0.81928 0.25594 0.69748
 H187 H 0.65380 0.06263 0.75548
 H188 H 0.76832 0.16991 0.66020
 H189 H 0.74866 0.18446 0.84648
 H190 H 0.82152 0.23701 0.84570
 H191 H 0.90312 0.35879 0.74794
 H192 H 0.80125 0.24020 0.65674
 N193 N 0.14631 0.46059 0.08441
 N194 N 0.12353 0.46925 0.04362
 C195 C 0.08357 0.46317 0.06776
 C196 C 0.08062 0.44996 0.12628
 C197 C 0.12132 0.44894 0.13562
 H198 H 0.05315 0.44341 0.15781
 H199 H 0.17914 0.46431 0.07707
 H200 H 0.13605 0.48051 0.00064
 N201 N 0.51315 0.66444 0.08645
 N202 N 0.50752 0.63351 0.04767
 C203 C 0.51640 0.60448 0.07506
 C204 C 0.52857 0.61763 0.13357
 C205 C 0.52566 0.65568 0.13952
 H206 H 0.53617 0.60036 0.16747
 H207 H 0.50608 0.68960 0.07702
 H208 H 0.49623 0.63162 0.00382
 N209 N 0.29158 0.88713 0.08862
 N210 N 0.32492 0.90794 0.04800
 C211 C 0.36599 0.93533 0.07581
 C212 C 0.35856 0.93223 0.13646
 C213 C 0.31094 0.90069 0.14330
 H214 H 0.38539 0.94736 0.17056
 H215 H 0.25678 0.86285 0.07831
 H216 H 0.31977 0.90204 0.00227
 N217 N 0.84534 0.52783 0.58401
 N218 N 0.86819 0.51912 0.54325
 C219 C 0.90894 0.52681 0.56683
 C220 C 0.91233 0.54114 0.62490
 C221 C 0.87108 0.54110 0.63462
 H222 H 0.94051 0.54913 0.65593
 H223 H 0.81199 0.52308 0.57721
 H224 H 0.85524 0.50678 0.50072
 N225 N 0.47921 0.32722 0.58792
 N226 N 0.48484 0.35802 0.54909
 C227 C 0.47661 0.38750 0.57661
 C228 C 0.46490 0.37481 0.63532
 C229 C 0.46737 0.33650 0.64120
 H230 H 0.45786 0.39248 0.66935
 H231 H 0.48584 0.30177 0.57832
 H232 H 0.49564 0.35948 0.50507
 N233 N 0.70381 0.10624 0.58882
 N234 N 0.67042 0.08558 0.54822
 C235 C 0.62935 0.05820 0.57600
 C236 C 0.63684 0.06116 0.63664
 C237 C 0.68451 0.09260 0.64350
 H238 H 0.61004 0.04596 0.67075
 H239 H 0.73862 0.13048 0.57853
 H240 H 0.67554 0.09155 0.50252
 N241 N 0.47375 0.14892 0.91315
 N242 N 0.47972 0.12326 0.95567
 C243 C 0.47018 0.08484 0.92920
 C244 C 0.45741 0.08468 0.87040
 C245 C 0.46083 0.12564 0.86155
 H246 H 0.44954 0.05907 0.83749
 H247 H 0.48253 0.18197 0.91987
 H248 H 0.49198 0.13377 0.99895
 N249 N 0.69572 0.57551 0.91842
 N250 N 0.66242 0.56368 0.95892
 C251 C 0.62208 0.55327 0.93123
 C252 C 0.62994 0.55880 0.87063
 C253 C 0.67706 0.57249 0.86401
 H254 H 0.60393 0.55057 0.83618
 H255 H 0.73029 0.58471 0.92837
 H256 H 0.66710 0.56158 1.00448
 N257 N 0.85829 0.31303 0.91220
 N258 N 0.88195 0.34819 0.95267
 C259 C 0.91952 0.38188 0.92454
 C260 C 0.92113 0.36905 0.86654
 C261 C 0.88181 0.32599 0.86003
 H262 H 0.94640 0.38958 0.83271
 H263 H 0.82584 0.28391 0.92055
 H264 H 0.87060 0.34834 0.99597
 N265 N 0.52107 0.84419 0.41264
 N266 N 0.51543 0.87003 0.45534
 C267 C 0.52510 0.90847 0.42900
 C268 C 0.53767 0.90847 0.37012
 C269 C 0.53394 0.86738 0.36106
 H270 H 0.54553 0.93406 0.33728
 H271 H 0.51207 0.81108 0.41924
 H272 H 0.50319 0.85959 0.49863
 N273 N 0.29791 0.41614 0.41871
 N274 N 0.33120 0.42803 0.45920
 C275 C 0.37156 0.43847 0.43149
 C276 C 0.36373 0.43290 0.37087
 C277 C 0.31660 0.41917 0.36428
 H278 H 0.38975 0.44114 0.33642
 H279 H 0.26332 0.40688 0.42870
 H280 H 0.32649 0.43012 0.50478
 N281 N 0.13338 0.68065 0.41194
 N282 N 0.11045 0.64772 0.45059
 C283 C 0.07418 0.61261 0.42258
 C284 C 0.07368 0.62372 0.36372
 C285 C 0.11224 0.66718 0.35828
 H286 H 0.04991 0.60204 0.32935
 H287 H 0.16442 0.71077 0.42197
 H288 H 0.12065 0.64888 0.49481
 N289 N 0.86448 0.55080 0.90975
 N290 N 0.88702 0.54052 0.94887
 C291 C 0.92297 0.54061 0.92123
 C292 C 0.92368 0.55182 0.86212
 C293 C 0.88556 0.55759 0.85613
 H294 H 0.94719 0.55295 0.82793
 H295 H 0.83366 0.55058 0.91948
 H296 H 0.87670 0.53195 0.99314
 N297 N 0.49672 0.33170 0.91375
 N298 N 0.49958 0.36169 0.95704
 C299 C 0.48441 0.38696 0.93228
 C300 C 0.47125 0.37368 0.87378
 C301 C 0.47989 0.33936 0.86339
 H302 H 0.45835 0.38825 0.84242
 H303 H 0.50840 0.30947 0.91987
 H304 H 0.51335 0.36482 0.99974
 N305 N 0.69122 0.11645 0.91927
 N306 N 0.65722 0.09422 0.95859
 C307 C 0.61773 0.06411 0.92964
 C308 C 0.62695 0.06717 0.86924
 C309 C 0.67399 0.10120 0.86424
 H310 H 0.60191 0.04929 0.83392
 H311 H 0.72535 0.14197 0.93044
 H312 H 0.66086 0.10052 1.00431
 N313 N 0.13361 0.44606 0.40995
 N314 N 0.11039 0.45786 0.45094
 C315 C 0.07307 0.45502 0.42318
 C316 C 0.07118 0.44094 0.36490
 C317 C 0.11009 0.43636 0.35782
 H318 H 0.04610 0.43711 0.33123
 H319 H 0.16590 0.44874 0.41796
 H320 H 0.12193 0.46895 0.49429
 N321 N 0.49835 0.66087 0.41280
 N322 N 0.49594 0.63274 0.45393
 C323 C 0.51056 0.60673 0.43005
 C324 C 0.52288 0.61878 0.37131
 C325 C 0.51438 0.65317 0.36164
 H326 H 0.53503 0.60354 0.33983
 H327 H 0.48750 0.68366 0.41979
 H328 H 0.48308 0.63060 0.49698
 N329 N 0.30432 0.87644 0.41888
 N330 N 0.33824 0.89875 0.45829
 C331 C 0.37770 0.92902 0.42947
 C332 C 0.36852 0.92599 0.36907
 C333 C 0.32155 0.89181 0.36393
 H334 H 0.39356 0.94399 0.33381
 H335 H 0.27023 0.85079 0.42993
 H336 H 0.33458 0.89239 0.50397
 N337 N 0.49888 0.83773 0.08751
 N338 N 0.49458 0.86343 0.04814
 C339 C 0.50778 0.90316 0.07365
 C340 C 0.52117 0.90282 0.13178
 C341 C 0.51481 0.86049 0.13931
 H342 H 0.53282 0.92952 0.16411
 H343 H 0.48957 0.80477 0.07879
 H344 H 0.48162 0.85332 0.00501
 N345 N 0.29517 0.40036 0.08765
 N346 N 0.32949 0.41355 0.04825
 C347 C 0.37025 0.42790 0.07742
 C348 C 0.36155 0.42337 0.13788
 C349 C 0.31344 0.40632 0.14298
 H350 H 0.38761 0.43517 0.17296
 H351 H 0.26031 0.38901 0.07612
 H352 H 0.32514 0.41413 0.00231
 N353 N 0.15190 0.67918 0.08608
 N354 N 0.12865 0.64826 0.04486
 C355 C 0.08752 0.61583 0.06808
 C356 C 0.08432 0.62651 0.12637
 C357 C 0.12605 0.66688 0.13659
 H358 H 0.05595 0.60669 0.15725
 H359 H 0.18557 0.70719 0.07967
 H360 H 0.14156 0.64883 0.00228
 N361 N 0.49558 0.15532 0.58815
 N362 N 0.50017 0.12975 0.54867
 C363 C 0.48704 0.09003 0.57397
 C364 C 0.47340 0.09023 0.63205
 C365 C 0.47954 0.13247 0.63979
 H366 H 0.46173 0.06350 0.66422
 H367 H 0.50481 0.18826 0.57965
 H368 H 0.51327 0.13994 0.50563
 N369 N 0.69844 0.59120 0.58747
 N370 N 0.66409 0.57799 0.54816
 C371 C 0.62339 0.56383 0.57743
 C372 C 0.63216 0.56851 0.63786
 C373 C 0.68024 0.58543 0.64284
 H374 H 0.60613 0.55683 0.67299
 H375 H 0.73326 0.60241 0.57586
 H376 H 0.66836 0.57725 0.50221
 N377 N 0.84591 0.31249 0.58670
 N378 N 0.86911 0.34327 0.54544
 C379 C 0.90958 0.37647 0.56910
 C380 C 0.91240 0.36645 0.62781
 C381 C 0.87113 0.32562 0.63773
 H382 H 0.94018 0.38698 0.65909
 H383 H 0.81266 0.28401 0.57986
 H384 H 0.85655 0.34206 0.50248
   
