data_POSCAR
  _audit_creation_date              2014-09-24
  _audit_creation_method            'ToBaCCo'
  _symmetry_space_group_name_H-M    'P1'
  _symmetry_Int_Tables_number       1
  _symmetry_cell_setting            triclinic
  loop_
  _symmetry_equiv_pos_as_xyz
 x,y,z
_cell_length_a 33.5122
_cell_length_b 31.4830
_cell_length_c 32.1974
_cell_angle_alpha 88.652400
_cell_angle_beta 89.472900
_cell_angle_gamma 89.001800
loop_
  _atom_site_label
  _atom_site_type_symbol
  _atom_site_fract_x
  _atom_site_fract_y
  _atom_site_fract_z
C1 C 0.28682 0.23884 0.23513
 C2 C 0.26826 0.21761 0.26857
 C3 C 0.23332 0.23388 0.28554
 C4 C 0.21674 0.27203 0.26962
 C5 C 0.23528 0.29325 0.23676
 C6 C 0.27044 0.27642 0.21924
 C7 C 0.31938 0.22865 0.21080
 N8 N 0.32284 0.25897 0.18044
 C9 C 0.29341 0.28857 0.18545
 C10 C 0.21220 0.32865 0.22718
 N11 N 0.18044 0.32942 0.25360
 C12 C 0.18264 0.29482 0.27940
 C13 C 0.22150 0.20600 0.31666
 N14 N 0.24829 0.17316 0.31867
 C15 C 0.27730 0.18034 0.28978
 H16 H 0.33830 0.20055 0.21389
 H17 H 0.28829 0.31591 0.16506
 H18 H 0.21777 0.35196 0.20264
 H19 H 0.16091 0.28685 0.30329
 H20 H 0.19531 0.20921 0.33636
 H21 H 0.30321 0.16000 0.28477
 C22 C 0.71747 -0.22142 0.21922
 C23 C 0.73483 -0.20603 0.25522
 C24 C 0.77255 -0.22018 0.26687
 C25 C 0.79296 -0.25048 0.24309
 C26 C 0.77555 -0.26605 0.20807
 C27 C 0.73774 -0.25104 0.19578
 C28 C 0.68153 -0.21314 0.20020
 N29 N 0.67987 -0.23575 0.16464
 C30 C 0.71407 -0.25979 0.16254
 C31 C 0.80057 -0.29733 0.19316
 N32 N 0.83349 -0.30084 0.21774
 C33 C 0.82862 -0.27201 0.24849
 C34 C 0.78198 -0.19992 0.30280
 N35 N 0.75081 -0.17412 0.31314
 C36 C 0.72191 -0.17735 0.28423
 H37 H 0.65776 -0.19335 0.21262
 H38 H 0.72210 -0.28112 0.13782
 H39 H 0.79332 -0.31828 0.16825
 H40 H 0.84921 -0.26709 0.27354
 H41 H 0.80934 -0.20360 0.32023
 H42 H 0.69375 -0.15997 0.28435
 C43 C 0.71454 0.22914 0.77416
 C44 C 0.73180 0.21152 0.73850
 C45 C 0.76795 0.22639 0.72335
 C46 C 0.78717 0.25918 0.74364
 C47 C 0.77042 0.27582 0.77916
 C48 C 0.73403 0.26063 0.79453
 C49 C 0.67804 0.22417 0.79350
 N50 N 0.67447 0.25257 0.82474
 C51 C 0.70943 0.27397 0.82607
 C52 C 0.79305 0.30965 0.79004
 N53 N 0.82257 0.31526 0.76119
 C54 C 0.81981 0.28343 0.73340
 C55 C 0.77645 0.20518 0.68735
 N56 N 0.74630 0.17813 0.68036
 C57 C 0.71895 0.18156 0.71148
 H58 H 0.65492 0.20308 0.78374
 H59 H 0.71708 0.29729 0.84871
 H60 H 0.78805 0.32885 0.81712
 H61 H 0.83835 0.27990 0.70594
 H62 H 0.80227 0.20945 0.66733
 H63 H 0.69159 0.16384 0.71390
 C64 C 0.29446 -0.26295 0.76597
 C65 C 0.27402 -0.24216 0.73342
 C66 C 0.23884 -0.25857 0.71904
 C67 C 0.22377 -0.29599 0.73712
 C68 C 0.24397 -0.31654 0.76921
 C69 C 0.27967 -0.29981 0.78382
 C70 C 0.32920 -0.25408 0.78595
 N71 N 0.33694 -0.28524 0.81502
 C72 C 0.30605 -0.31291 0.81432
 C73 C 0.22224 -0.35176 0.78059
 N74 N 0.18966 -0.35364 0.75566
 C75 C 0.19031 -0.31900 0.72948
 C76 C 0.22587 -0.23228 0.68693
 N77 N 0.25248 -0.20060 0.68168
 C78 C 0.28210 -0.20634 0.70973
 H79 H 0.34654 -0.22573 0.78071
 H80 H 0.30331 -0.34127 0.83373
 H81 H 0.22887 -0.37324 0.80647
 H82 H 0.16843 -0.31140 0.70578
 H83 H 0.19936 -0.23599 0.66850
 H84 H 0.30763 -0.18602 0.71245
 C85 C 0.72575 -0.23432 0.77750
 C86 C 0.74102 -0.21848 0.73965
 C87 C 0.77584 -0.23575 0.72321
 C88 C 0.79589 -0.26890 0.74466
 C89 C 0.78098 -0.28419 0.78209
 C90 C 0.74546 -0.26697 0.79853
 C91 C 0.69251 -0.22378 0.80059
 N92 N 0.69132 -0.24908 0.83555
 C93 C 0.72355 -0.27609 0.83391
 C94 C 0.80731 -0.31501 0.79647
 N95 N 0.83828 -0.31891 0.76887
 C96 C 0.83060 -0.29122 0.73655
 C97 C 0.78473 -0.21276 0.68748
 N98 N 0.75611 -0.18218 0.68213
 C99 C 0.72912 -0.18549 0.71359
 H100 H 0.67111 -0.19883 0.79262
 H101 H 0.72972 -0.30214 0.85558
 H102 H 0.80449 -0.33218 0.82583
 H103 H 0.84781 -0.28854 0.70804
 H104 H 0.81070 -0.21690 0.66764
 H105 H 0.70361 -0.16442 0.71788
 C106 C 0.28359 0.21256 0.77456
 C107 C 0.26918 0.19819 0.73667
 C108 C 0.23340 0.21424 0.72126
 C109 C 0.21191 0.24515 0.74317
 C110 C 0.22606 0.25912 0.78064
 C111 C 0.26207 0.24249 0.79647
 C112 C 0.31768 0.20326 0.79666
 N113 N 0.31715 0.22591 0.83231
 C114 C 0.28318 0.25046 0.83177
 C115 C 0.19971 0.28989 0.79437
 N116 N 0.17015 0.29468 0.76607
 C117 C 0.17728 0.26763 0.73462
 C118 C 0.22580 0.19347 0.68517
 N119 N 0.25614 0.16542 0.67831
 C120 C 0.28285 0.16791 0.70954
 H121 H 0.34209 0.18328 0.78594
 H122 H 0.27380 0.27220 0.85565
 H123 H 0.20225 0.30820 0.82224
 H124 H 0.15902 0.26525 0.70724
 H125 H 0.19971 0.19759 0.66580
 H126 H 0.30949 0.14821 0.71282
 C127 C 0.28450 -0.24235 0.22246
 C128 C 0.26523 -0.22346 0.25641
 C129 C 0.22755 -0.23655 0.26850
 C130 C 0.20863 -0.26838 0.24669
 C131 C 0.22762 -0.28697 0.21334
 C132 C 0.26586 -0.27388 0.20116
 C133 C 0.32081 -0.23572 0.20333
 N134 N 0.32531 -0.26319 0.17141
 C135 C 0.29122 -0.28605 0.16964
 C136 C 0.20230 -0.31684 0.19837
 N137 N 0.16792 -0.31642 0.22134
 C138 C 0.17215 -0.28720 0.25149
 C139 C 0.21587 -0.21270 0.30187
 N140 N 0.24549 -0.18542 0.31012
 C141 C 0.27596 -0.19188 0.28282
 H142 H 0.34151 -0.21116 0.21107
 H143 H 0.28541 -0.31055 0.14754
 H144 H 0.20831 -0.33678 0.17201
 H145 H 0.15110 -0.28127 0.27648
 H146 H 0.18782 -0.21461 0.31872
 H147 H 0.30356 -0.17450 0.28203
 C148 C 0.70643 0.25168 0.22590
 C149 C 0.72363 0.22883 0.25924
 C150 C 0.75823 0.24303 0.27698
 C151 C 0.77593 0.28032 0.26172
 C152 C 0.75875 0.30321 0.22927
 C153 C 0.72375 0.28873 0.21103
 C154 C 0.67347 0.24473 0.20206
 N155 N 0.67072 0.27624 0.17274
 C156 C 0.70091 0.30372 0.17827
 C157 C 0.78225 0.33799 0.22150
 N158 N 0.81326 0.33720 0.24876
 C159 C 0.80972 0.30117 0.27278
 C160 C 0.76708 0.21600 0.30996
 N161 N 0.73842 0.18617 0.31280
 C162 C 0.71207 0.19321 0.28152
 H163 H 0.65350 0.21814 0.20503
 H164 H 0.70626 0.33191 0.15926
 H165 H 0.77641 0.36256 0.19817
 H166 H 0.83120 0.28934 0.29532
 H167 H 0.79159 0.21874 0.33136
 H168 H 0.68568 0.17472 0.27648
 O169 O 0.21797 0.02941 0.45952
 O170 O 0.21674 -0.05413 0.54123
 O171 O 0.22015 0.02847 0.53966
 O172 O 0.21412 -0.05271 0.45974
 O173 O 0.27985 -0.05716 0.45689
 O174 O 0.28592 0.02423 0.53676
 O175 O 0.28250 -0.05852 0.53867
 O176 O 0.28386 0.02458 0.45624
 Cu177 Cu 0.21062 -0.01213 0.50046
 Cu178 Cu 0.28967 -0.01751 0.49709
 C179 C 0.25107 0.04100 0.44392
 C180 C 0.24944 -0.06985 0.55461
 C181 C 0.25406 0.04089 0.55119
 C182 C 0.24593 -0.06757 0.44353
 O183 O 0.77533 0.04482 0.53462
 O184 O 0.77800 -0.03848 0.45643
 O185 O 0.77100 0.04446 0.45436
 O186 O 0.78012 -0.03756 0.53733
 O187 O 0.71448 -0.04151 0.54096
 O188 O 0.70563 0.03934 0.45694
 O189 O 0.71244 -0.04303 0.46022
 O190 O 0.70975 0.04091 0.53808
 Cu191 Cu 0.78270 0.00360 0.49517
 Cu192 Cu 0.70399 -0.00146 0.49931
 C193 C 0.74209 0.05738 0.54953
 C194 C 0.74577 -0.05536 0.44534
 C195 C 0.73667 0.05646 0.44178
 C196 C 0.74880 -0.05295 0.55381
 O197 O 0.46124 0.22377 0.04395
 O198 O 0.54006 0.22474 -0.03652
 O199 O 0.53858 0.23274 0.04300
 O200 O 0.46259 0.21422 -0.03569
 O201 O 0.45405 0.28315 -0.04533
 O202 O 0.53008 0.30215 0.03409
 O203 O 0.53027 0.29359 -0.04596
 O204 O 0.45235 0.29301 0.03494
 Cu205 Cu 0.50140 0.21691 0.00460
 Cu206 Cu 0.49070 0.29995 -0.00628
 C207 C 0.44294 0.25812 0.05264
 C208 C 0.54925 0.25966 -0.05447
 C209 C 0.54766 0.27047 0.05146
 C210 C 0.44550 0.24530 -0.05443
 O211 O 0.53559 0.78095 0.03300
 O212 O 0.46214 0.76636 -0.04936
 O213 O 0.45843 0.77389 0.03183
 O214 O 0.53945 0.77469 -0.04631
 O215 O 0.54793 0.70536 -0.03689
 O216 O 0.46424 0.70398 0.03824
 O217 O 0.46982 0.69673 -0.04234
 O218 O 0.54057 0.71163 0.04279
 Cu219 Cu 0.49780 0.78092 -0.00863
 Cu220 Cu 0.50610 0.69734 0.00085
 C221 C 0.55047 0.74892 0.05234
 C222 C 0.45393 0.72905 -0.06026
 C223 C 0.44800 0.73889 0.04864
 C224 C 0.55851 0.74044 -0.05358
 O225 O 0.03796 0.45821 0.20574
 O226 O -0.03982 0.54118 0.19175
 O227 O 0.03723 0.53984 0.19336
 O228 O -0.04001 0.45817 0.20422
 O229 O -0.04159 0.46722 0.27172
 O230 O 0.03294 0.55087 0.26084
 O231 O -0.04376 0.54848 0.25924
 O232 O 0.03698 0.46907 0.27331
 Cu233 Cu -0.00117 0.49813 0.19197
 Cu234 Cu -0.00406 0.50943 0.27316
 C235 C 0.05155 0.45059 0.24184
 C236 C -0.05520 0.55935 0.22294
 C237 C 0.04752 0.55979 0.22525
 C238 C -0.05393 0.44846 0.24000
 O239 O 0.04428 0.52100 0.80235
 O240 O -0.04091 0.44823 0.80125
 O241 O 0.03623 0.43932 0.80227
 O242 O -0.03366 0.53072 0.80305
 O243 O -0.03345 0.53278 0.73444
 O244 O 0.03784 0.44228 0.73368
 O245 O -0.03918 0.44980 0.73258
 O246 O 0.04396 0.52422 0.73367
 Cu247 Cu 0.00125 0.48474 0.80915
 Cu248 Cu 0.00219 0.48763 0.72671
 C249 C 0.05875 0.53458 0.76803
 C250 C -0.05408 0.43626 0.76663
 C251 C 0.04887 0.42513 0.76790
 C252 C -0.04524 0.54754 0.76892
 C253 C 0.34960 0.22795 0.11545
 C254 C 0.35137 0.25837 0.14701
 C255 C 0.38132 0.28869 0.14577
 C256 C 0.41042 0.28834 0.11464
 C257 C 0.41032 0.25764 0.08380
 C258 C 0.37913 0.22766 0.08334
 C259 C 0.31830 0.19861 0.11456
 C260 C 0.31609 0.16952 0.08272
 C261 C 0.34457 0.16952 0.05099
 C262 C 0.37565 0.19840 0.05098
 H263 H 0.29497 0.19829 0.13800
 H264 H 0.29187 0.14724 0.08236
 H265 H 0.34233 0.14731 0.02599
 H266 H 0.39620 0.19798 0.02494
 H267 H 0.38246 0.31232 0.16963
 H268 H 0.43372 0.31176 0.11508
 C269 C 0.62239 0.79864 0.12935
 C270 C 0.64870 0.76318 0.13721
 C271 C 0.64122 0.72500 0.11709
 C272 C 0.60869 0.72098 0.09124
 C273 C 0.58135 0.75456 0.08467
 C274 C 0.58695 0.79320 0.10578
 C275 C 0.63159 0.84016 0.14163
 C276 C 0.60394 0.87348 0.13729
 C277 C 0.56695 0.86646 0.11986
 C278 C 0.55848 0.82689 0.10396
 H279 H 0.66057 0.84782 0.15345
 H280 H 0.61119 0.90484 0.14770
 H281 H 0.54506 0.89210 0.11769
 H282 H 0.52922 0.82317 0.09100
 H283 H 0.66007 0.69716 0.12214
 H284 H 0.60526 0.69107 0.07580
 C285 C 0.63255 0.29651 -0.12955
 C286 C 0.64223 0.25730 -0.14896
 C287 C 0.61916 0.22166 -0.13857
 C288 C 0.58960 0.22339 -0.10806
 C289 C 0.58217 0.26045 -0.08581
 C290 C 0.60499 0.29721 -0.09548
 C291 C 0.64766 0.33564 -0.14467
 C292 C 0.64160 0.37287 -0.12278
 C293 C 0.61982 0.37207 -0.08589
 C294 C 0.60148 0.33481 -0.07233
 H295 H 0.66344 0.33819 -0.17401
 H296 H 0.65420 0.40235 -0.13430
 H297 H 0.61631 0.40072 -0.06817
 H298 H 0.58533 0.33610 -0.04328
 H299 H 0.62508 0.19135 -0.15274
 H300 H 0.57260 0.19501 -0.10150
 C301 C 0.40618 0.73112 -0.16775
 C302 C 0.36818 0.71360 -0.15759
 C303 C 0.36216 0.69693 -0.11705
 C304 C 0.39064 0.70142 -0.08629
 C305 C 0.42586 0.72326 -0.09461
 C306 C 0.43420 0.73791 -0.13561
 C307 C 0.41830 0.73917 -0.20935
 C308 C 0.45482 0.75788 -0.21858
 C309 C 0.48060 0.76780 -0.18679
 C310 C 0.47071 0.75747 -0.14571
 H311 H 0.40050 0.72973 -0.23526
 H312 H 0.46335 0.76428 -0.25059
 H313 H 0.50889 0.78239 -0.19410
 H314 H 0.49218 0.76419 -0.12209
 H315 H 0.33417 0.68263 -0.10807
 H316 H 0.38434 0.68933 -0.05516
 C317 C 0.15500 0.40300 0.26404
 C318 C 0.14866 0.36049 0.25285
 C319 C 0.11098 0.34845 0.23956
 C320 C 0.07977 0.37811 0.23631
 C321 C 0.08528 0.42043 0.24700
 C322 C 0.12310 0.43336 0.26098
 C323 C 0.19242 0.41588 0.27839
 C324 C 0.19859 0.45808 0.28852
 C325 C 0.16771 0.48804 0.28465
 C326 C 0.13026 0.47596 0.27107
 H327 H 0.21709 0.39351 0.28201
 H328 H 0.22751 0.46762 0.29934
 H329 H 0.17276 0.52081 0.29227
 H330 H 0.10722 0.50029 0.26839
 H331 H 0.10606 0.31594 0.23088
 H332 H 0.05105 0.36797 0.22538
 C333 C 0.16620 0.57337 0.76819
 C334 C 0.15949 0.61745 0.75834
 C335 C 0.12004 0.63184 0.75138
 C336 C 0.08792 0.60479 0.75581
 C337 C 0.09370 0.56226 0.76756
 C338 C 0.13286 0.54608 0.77407
 C339 C 0.20492 0.55474 0.76858
 C340 C 0.21075 0.51170 0.77842
 C341 C 0.17826 0.48592 0.78685
 C342 C 0.13963 0.50268 0.78426
 H343 H 0.23103 0.57240 0.75959
 H344 H 0.24065 0.49814 0.77887
 H345 H 0.18297 0.45250 0.79430
 H346 H 0.11517 0.48123 0.78967
 H347 H 0.11360 0.66493 0.74387
 H348 H 0.05815 0.61737 0.75028
 C349 C -0.12542 0.64820 0.17828
 C350 C -0.13715 0.66810 0.21596
 C351 C -0.11997 0.65283 0.25311
 C352 C -0.09447 0.61773 0.25400
 C353 C -0.08521 0.59498 0.21807
 C354 C -0.10210 0.60958 0.17956
 C355 C -0.13426 0.66712 0.13912
 C356 C -0.12611 0.64581 0.10254
 C357 C -0.10862 0.60553 0.10414
 C358 C -0.09660 0.58751 0.14204
 H359 H -0.14661 0.69898 0.13625
 H360 H -0.13383 0.66043 0.07286
 H361 H -0.10363 0.58842 0.07572
 H362 H -0.08406 0.55590 0.14091
 H363 H -0.12760 0.66668 0.28261
 H364 H -0.08222 0.60813 0.28386
 C365 C -0.15819 0.38877 0.77422
 C366 C -0.14961 0.34677 0.76026
 C367 C -0.11071 0.33729 0.74595
 C368 C -0.08031 0.36665 0.74839
 C369 C -0.08739 0.40637 0.76568
 C370 C -0.12644 0.41787 0.77870
 C371 C -0.19775 0.40402 0.78031
 C372 C -0.20538 0.44470 0.79501
 C373 C -0.17401 0.47167 0.80259
 C374 C -0.13493 0.45870 0.79398
 H375 H -0.22331 0.38569 0.77213
 H376 H -0.23584 0.45557 0.79993
 H377 H -0.18008 0.50326 0.81391
 H378 H -0.11152 0.48113 0.79859
 H379 H -0.10311 0.30609 0.73452
 H380 H -0.05064 0.35788 0.73758
 C381 C 0.25320 0.09563 0.33697
 C382 C 0.24770 0.13855 0.34866
 C383 C 0.24268 0.14790 0.39075
 C384 C 0.24400 0.11584 0.42123
 C385 C 0.25119 0.07361 0.41056
 C386 C 0.25618 0.06307 0.36831
 C387 C 0.25449 0.08411 0.29486
 C388 C 0.26063 0.04184 0.28397
 C389 C 0.26534 0.01032 0.31464
 C390 C 0.26311 0.02069 0.35646
 H391 H 0.24990 0.10728 0.27001
 H392 H 0.26160 0.03349 0.25155
 H393 H 0.27018 -0.02242 0.30603
 H394 H 0.26653 -0.00475 0.37933
 H395 H 0.23824 0.18048 0.40005
 H396 H 0.23985 0.12409 0.45350
 C397 C 0.71368 0.15336 0.61640
 C398 C 0.74432 0.14974 0.64626
 C399 C 0.77366 0.11798 0.64269
 C400 C 0.77237 0.08888 0.61093
 C401 C 0.74168 0.09058 0.58154
 C402 C 0.71227 0.12369 0.58363
 C403 C 0.68519 0.18684 0.61771
 C404 C 0.65565 0.19095 0.58765
 C405 C 0.65431 0.16229 0.55550
 C406 C 0.68241 0.12922 0.55323
 H407 H 0.68585 0.21054 0.64145
 H408 H 0.63401 0.21681 0.58899
 H409 H 0.63164 0.16599 0.53191
 H410 H 0.68075 0.10885 0.52702
 H411 H 0.79740 0.11535 0.66526
 H412 H 0.79532 0.06426 0.60978
 C413 C 0.22498 -0.13141 0.65576
 C414 C 0.25046 -0.16716 0.65078
 C415 C 0.27535 -0.16962 0.61586
 C416 C 0.27468 -0.13761 0.58530
 C417 C 0.24919 -0.10205 0.58886
 C418 C 0.22460 -0.09818 0.62490
 C419 C 0.20068 -0.12761 0.69149
 C420 C 0.17674 -0.09151 0.69710
 C421 C 0.17699 -0.05850 0.66759
 C422 C 0.20078 -0.06151 0.63196
 H423 H 0.20032 -0.15223 0.71551
 H424 H 0.15831 -0.08890 0.72473
 H425 H 0.15888 -0.03022 0.67248
 H426 H 0.20077 -0.03443 0.61077
 H427 H 0.29522 -0.19680 0.61224
 H428 H 0.29392 -0.14091 0.55829
 C429 C 0.72380 -0.15406 0.38218
 C430 C 0.74949 -0.14646 0.34785
 C431 C 0.77452 -0.11146 0.34749
 C432 C 0.77333 -0.08294 0.37983
 C433 C 0.74720 -0.08871 0.41370
 C434 C 0.72292 -0.12532 0.41576
 C435 C 0.69979 -0.19040 0.38425
 C436 C 0.67556 -0.19854 0.41884
 C437 C 0.67525 -0.17109 0.45210
 C438 C 0.69882 -0.13499 0.45087
 H439 H 0.69997 -0.21305 0.35949
 H440 H 0.65736 -0.22662 0.42011
 H441 H 0.65693 -0.17802 0.47920
 H442 H 0.69853 -0.11559 0.47809
 H443 H 0.79453 -0.10582 0.32141
 H444 H 0.79235 -0.05546 0.37785
 C445 C 0.66687 0.73902 -0.09271
 C446 C 0.66089 0.75031 -0.13552
 C447 C 0.62177 0.76026 -0.14863
 C448 C 0.58929 0.75655 -0.12177
 C449 C 0.59415 0.74198 -0.08086
 C450 C 0.63312 0.73327 -0.06578
 C451 C 0.70534 0.73708 -0.07496
 C452 C 0.71063 0.72552 -0.03328
 C453 C 0.67781 0.71700 -0.00793
 C454 C 0.63939 0.72136 -0.02373
 H455 H 0.73164 0.74629 -0.09229
 H456 H 0.74036 0.72385 -0.02040
 H457 H 0.68209 0.70824 0.02446
 H458 H 0.61477 0.71616 -0.00247
 H459 H 0.61569 0.76927 -0.18061
 H460 H 0.55991 0.76444 -0.13345
 C461 C 0.37362 0.19249 -0.12995
 C462 C 0.34700 0.22743 -0.13869
 C463 C 0.35331 0.26575 -0.11835
 C464 C 0.38552 0.27062 -0.09218
 C465 C 0.41382 0.23792 -0.08562
 C466 C 0.40884 0.19880 -0.10622
 C467 C 0.36500 0.15073 -0.14188
 C468 C 0.39296 0.11780 -0.13687
 C469 C 0.42977 0.12558 -0.11938
 C470 C 0.43775 0.16554 -0.10405
 H471 H 0.33625 0.14271 -0.15409
 H472 H 0.38617 0.08621 -0.14698
 H473 H 0.45197 0.10027 -0.11686
 H474 H 0.46705 0.16984 -0.09142
 H475 H 0.33410 0.29323 -0.12377
 H476 H 0.38824 0.30074 -0.07694
 C477 C 0.39696 0.74241 0.15512
 C478 C 0.35663 0.73487 0.14365
 C479 C 0.34872 0.72631 0.10176
 C480 C 0.37858 0.72809 0.07148
 C481 C 0.41742 0.73869 0.08173
 C482 C 0.42708 0.74586 0.12364
 C483 C 0.40893 0.74311 0.19713
 C484 C 0.44824 0.75161 0.20759
 C485 C 0.47682 0.75819 0.17665
 C486 C 0.46659 0.75476 0.13507
 H487 H 0.38871 0.73544 0.22238
 H488 H 0.45669 0.75251 0.23993
 H489 H 0.50731 0.76474 0.18491
 H490 H 0.48999 0.75844 0.11207
 H491 H 0.31870 0.72014 0.09170
 H492 H 0.37112 0.72178 0.03955
 C493 C 0.65145 0.27606 0.09815
 C494 C 0.64108 0.27875 0.14080
 C495 C 0.60077 0.28100 0.15260
 C496 C 0.57071 0.28016 0.12304
 C497 C 0.58020 0.27703 0.08084
 C498 C 0.62072 0.27563 0.06792
 C499 C 0.69160 0.27204 0.08494
 C500 C 0.70125 0.26936 0.04283
 C501 C 0.67124 0.27001 0.01322
 C502 C 0.63133 0.27280 0.02556
 H503 H 0.71587 0.27043 0.10679
 H504 H 0.73218 0.26655 0.03313
 H505 H 0.67887 0.26792 -0.01943
 H506 H 0.60892 0.27269 0.00174
 H507 H 0.59265 0.28260 0.18517
 H508 H 0.53980 0.28074 0.13323
 C509 C -0.09264 0.65848 0.75206
 C510 C -0.13056 0.65208 0.77182
 C511 C -0.13637 0.61351 0.79393
 C512 C -0.10791 0.58092 0.79345
 C513 C -0.07309 0.58451 0.76958
 C514 C -0.06480 0.62372 0.74902
 C515 C -0.08012 0.69920 0.73844
 C516 C -0.04368 0.70459 0.71794
 C517 C -0.01823 0.66994 0.71181
 C518 C -0.02829 0.62998 0.72767
 H519 H -0.09730 0.72760 0.74507
 H520 H -0.03487 0.73596 0.70732
 H521 H 0.01009 0.67433 0.69598
 H522 H -0.00670 0.60448 0.72391
 H523 H -0.16406 0.60715 0.81022
 H524 H -0.11394 0.55198 0.81091
 C525 C -0.13347 0.37337 0.28567
 C526 C -0.15586 0.36545 0.24918
 C527 C -0.14401 0.38563 0.21174
 C528 C -0.11051 0.41102 0.20948
 C529 C -0.08645 0.41680 0.24420
 C530 C -0.09685 0.39589 0.28240
 C531 C -0.14768 0.36199 0.32583
 C532 C -0.12372 0.36584 0.36062
 C533 C -0.08547 0.38172 0.35630
 C534 C -0.07207 0.39680 0.31770
 H535 H -0.17775 0.35113 0.33105
 H536 H -0.13477 0.35607 0.39101
 H537 H -0.06639 0.38329 0.38315
 H538 H -0.04194 0.40827 0.31602
 H539 H -0.15990 0.38076 0.18321
 H540 H -0.10352 0.42652 0.17997
 C541 C 0.10544 0.32116 0.79429
 C542 C 0.13853 0.32585 0.76719
 C543 C 0.14048 0.36111 0.74015
 C544 C 0.11069 0.39241 0.74042
 C545 C 0.07789 0.38923 0.76761
 C546 C 0.07448 0.35278 0.79423
 C547 C 0.10213 0.28503 0.82070
 C548 C 0.06873 0.27983 0.84634
 C549 C 0.03798 0.31014 0.84570
 C550 C 0.04054 0.34615 0.81979
 H551 H 0.12504 0.26038 0.82140
 H552 H 0.06646 0.25189 0.86640
 H553 H 0.01181 0.30554 0.86515
 H554 H 0.01531 0.36799 0.81948
 H555 H 0.16570 0.36460 0.71915
 H556 H 0.11374 0.41990 0.71981
 C557 C 0.09643 0.66840 0.22749
 C558 C 0.13662 0.65645 0.21743
 C559 C 0.14448 0.61449 0.20505
 C560 C 0.11496 0.58396 0.20678
 C561 C 0.07660 0.59412 0.22102
 C562 C 0.06662 0.63667 0.23061
 C563 C 0.08441 0.71142 0.23139
 C564 C 0.04517 0.72244 0.24185
 C565 C 0.01674 0.69112 0.24741
 C566 C 0.02709 0.64867 0.24138
 H567 H 0.10461 0.73713 0.22482
 H568 H 0.03663 0.75553 0.24501
 H569 H -0.01374 0.69987 0.25527
 H570 H 0.00363 0.62563 0.24422
 H571 H 0.17438 0.60420 0.19659
 H572 H 0.12263 0.55160 0.19862
 C573 C 0.78002 -0.11325 0.65357
 C574 C 0.75594 -0.14943 0.65048
 C575 C 0.72999 -0.15269 0.61706
 C576 C 0.72811 -0.12098 0.58623
 C577 C 0.75208 -0.08499 0.58801
 C578 C 0.77790 -0.08044 0.62236
 C579 C 0.80537 -0.10858 0.68782
 C580 C 0.82800 -0.07215 0.69152
 C581 C 0.82541 -0.03964 0.66157
 C582 C 0.80051 -0.04347 0.62743
 H583 H 0.80760 -0.13277 0.71216
 H584 H 0.84726 -0.06890 0.71802
 H585 H 0.84256 -0.01113 0.66497
 H586 H 0.79875 -0.01682 0.60579
 H587 H 0.71116 -0.18014 0.61493
 H588 H 0.70798 -0.12478 0.56049
 C589 C 0.21831 -0.11922 0.34093
 C590 C 0.24467 -0.15477 0.34241
 C591 C 0.27073 -0.16035 0.37576
 C592 C 0.27037 -0.13188 0.40820
 C593 C 0.24386 -0.09691 0.40832
 C594 C 0.21782 -0.08985 0.37401
 C595 C 0.19344 -0.11154 0.30636
 C596 C 0.16845 -0.07575 0.30428
 C597 C 0.16807 -0.04681 0.33625
 C598 C 0.19251 -0.05351 0.37068
 H599 H 0.19356 -0.13265 0.28034
 H600 H 0.14964 -0.07015 0.27748
 H601 H 0.14906 -0.01870 0.33414
 H602 H 0.19191 -0.02917 0.39370
 H603 H 0.29123 -0.18733 0.37677
 H604 H 0.29081 -0.13745 0.43372
 C605 C 0.70346 0.15347 0.37387
 C606 C 0.73560 0.15404 0.34504
 C607 C 0.76620 0.12363 0.34857
 C608 C 0.76529 0.09235 0.37973
 C609 C 0.73367 0.09019 0.40862
 C610 C 0.70198 0.12108 0.40570
 C611 C 0.67349 0.18553 0.37252
 C612 C 0.64196 0.18526 0.40095
 C613 C 0.63992 0.15350 0.43151
 C614 C 0.66956 0.12196 0.43418
 H615 H 0.67433 0.21151 0.35001
 H616 H 0.61914 0.20999 0.39944
 H617 H 0.61538 0.15352 0.45361
 H618 H 0.66628 0.09899 0.45904
 H619 H 0.79104 0.12421 0.32682
 H620 H 0.78974 0.06938 0.38113
 C621 C 0.28426 0.13866 0.61203
 C622 C 0.25728 0.13503 0.64585
 C623 C 0.22985 0.10213 0.64725
 C624 C 0.22933 0.07223 0.61617
 C625 C 0.25610 0.07446 0.58249
 C626 C 0.28343 0.10852 0.57965
 C627 C 0.31117 0.17253 0.60917
 C628 C 0.33660 0.17700 0.57490
 C629 C 0.33526 0.14828 0.54275
 C630 C 0.30882 0.11454 0.54479
 H631 H 0.31244 0.19605 0.63307
 H632 H 0.35706 0.20321 0.57300
 H633 H 0.35456 0.15240 0.51587
 H634 H 0.30806 0.09410 0.51836
 H635 H 0.20886 0.09954 0.67293
 H636 H 0.20801 0.04680 0.61871
   
