data_POSCAR
  _audit_creation_date              2014-09-24
  _audit_creation_method            'ToBaCCo'
  _symmetry_space_group_name_H-M    'P1'
  _symmetry_Int_Tables_number       1
  _symmetry_cell_setting            triclinic
  loop_
  _symmetry_equiv_pos_as_xyz
 x,y,z
_cell_length_a 33.3939
_cell_length_b 35.3602
_cell_length_c 31.2182
_cell_angle_alpha 92.181000
_cell_angle_beta 90.093000
_cell_angle_gamma 92.594800
loop_
  _atom_site_label
  _atom_site_type_symbol
  _atom_site_fract_x
  _atom_site_fract_y
  _atom_site_fract_z
C1 C 0.18947 0.54660 1.06926
 H2 H 0.18829 0.56551 1.04289
 C3 C 0.15716 0.54325 1.09718
 H4 H 0.13178 0.56079 1.09293
 C5 C 0.22381 0.50047 1.10612
 H6 H 0.24967 0.48346 1.10907
 C7 C 0.19185 0.49592 1.13462
 H8 H 0.19345 0.47483 1.15875
 N9 N 0.22094 0.52390 1.07279
 C10 C 0.31323 0.57003 0.98742
 H11 H 0.31451 0.54759 0.96298
 C12 C 0.33933 0.60184 0.98542
 H13 H 0.36113 0.60343 0.95982
 C14 C 0.28399 0.59489 1.05095
 H15 H 0.26270 0.59191 1.07676
 C16 C 0.30882 0.62774 1.04948
 H17 H 0.30643 0.64995 1.07409
 Zn18 Zn 0.25470 0.52088 1.02438
 N19 N 0.28710 0.56648 1.02060
 C20 C 0.19071 0.48671 0.97651
 N21 N 0.21981 0.51496 0.97622
 C22 C 0.22177 0.53997 0.94411
 C23 C 0.19450 0.53646 0.91012
 C24 C 0.16259 0.48241 0.94333
 C25 C 0.32710 0.48069 1.01966
 C26 C 0.35032 0.44884 1.01919
 C27 C 0.29160 0.41091 1.03783
 C28 C 0.26904 0.44319 1.03582
 N29 N 0.28694 0.47741 1.02696
 H30 H 0.18858 0.46811 1.00311
 H31 H 0.24396 0.56310 0.94498
 H32 H 0.19644 0.55645 0.88469
 H33 H 0.13929 0.46013 0.94416
 H34 H 0.34152 0.50787 1.01404
 H35 H 0.38204 0.45209 1.01232
 H36 H 0.27709 0.38443 1.04695
 H37 H 0.23733 0.44098 1.04251
 C38 C 0.33803 0.63068 1.01738
 C39 C 0.15656 0.51536 1.12820
 C40 C 0.33262 0.41323 1.02800
 C41 C 0.16473 0.50723 0.90941
 C42 C 0.81166 0.47560 -0.06518
 H43 H 0.80980 0.45744 -0.03806
 C44 C 0.84340 0.47279 -0.09390
 H45 H 0.86593 0.45225 -0.08914
 C46 C 0.78594 0.52622 -0.10297
 H47 H 0.76401 0.54757 -0.10564
 C48 C 0.81716 0.52428 -0.13258
 H49 H 0.81899 0.54393 -0.15836
 N50 N 0.78386 0.50207 -0.07009
 C51 C 0.68764 0.55220 -0.06133
 H52 H 0.68269 0.52795 -0.08317
 C53 C 0.66180 0.58220 -0.06185
 H54 H 0.63678 0.58103 -0.08405
 C55 C 0.72434 0.58212 -0.00335
 H56 H 0.74792 0.58156 0.02025
 C57 C 0.69963 0.61285 -0.00316
 H58 H 0.70430 0.63577 0.02060
 Zn59 Zn 0.74601 0.50769 -0.02591
 N60 N 0.71748 0.55225 -0.03158
 C61 C 0.80895 0.53349 0.02805
 N62 N 0.77521 0.51042 0.02592
 C63 C 0.76519 0.48688 0.05805
 C64 C 0.79039 0.48493 0.09345
 C65 C 0.83509 0.53231 0.06281
 C66 C 0.71523 0.43280 -0.04850
 C67 C 0.68797 0.40174 -0.04601
 C68 C 0.64762 0.43915 0.00213
 C69 C 0.67573 0.46928 -0.00092
 N70 N 0.70884 0.46560 -0.02576
 H71 H 0.81646 0.55148 0.00169
 H72 H 0.73863 0.46836 0.05548
 H73 H 0.78323 0.46486 0.11798
 H74 H 0.86291 0.54931 0.06327
 H75 H 0.74164 0.43046 -0.06816
 H76 H 0.69350 0.37556 -0.06369
 H77 H 0.62139 0.44244 0.02207
 H78 H 0.67142 0.49564 0.01686
 C79 C 0.66707 0.61229 -0.03156
 C80 C 0.84630 0.49736 -0.12803
 C81 C 0.65360 0.40495 -0.02064
 C82 C 0.82626 0.50704 0.09523
 C83 C -0.04825 0.29395 0.46142
 H84 H -0.06515 0.29528 0.49094
 C85 C -0.05265 0.32151 0.43122
 H86 H -0.07202 0.34448 0.43905
 C87 C 0.00222 0.26579 0.41971
 H88 H 0.02557 0.24598 0.41619
 C89 C -0.00242 0.29176 0.38782
 H90 H 0.01592 0.28933 0.35937
 N91 N -0.02119 0.26671 0.45530
 C92 C -0.05656 0.17562 0.53918
 H93 H -0.02859 0.17349 0.55622
 C94 C -0.08751 0.14844 0.54440
 H95 H -0.08281 0.12509 0.56502
 C96 C -0.09517 0.20683 0.48871
 H97 H -0.09757 0.22899 0.46610
 C98 C -0.12736 0.18067 0.49377
 H99 H -0.15449 0.18311 0.47523
 Zn100 Zn -0.01440 0.23529 0.50249
 N101 N -0.06062 0.20375 0.51126
 C102 C -0.02955 0.27110 0.58405
 N103 N -0.00482 0.26921 0.54954
 C104 C 0.02540 0.29557 0.54390
 C105 C 0.03016 0.32684 0.57218
 C106 C -0.02542 0.30176 0.61363
 C107 C 0.03498 0.18407 0.45785
 C108 C 0.06738 0.16088 0.45271
 C109 C 0.08411 0.17320 0.52731
 C110 C 0.05351 0.19882 0.52996
 N111 N 0.02957 0.20370 0.49550
 H112 H -0.05361 0.24995 0.58751
 H113 H 0.04429 0.29338 0.51588
 H114 H 0.05302 0.34867 0.56608
 H115 H -0.04597 0.30391 0.64032
 H116 H 0.01412 0.18630 0.43167
 H117 H 0.07275 0.14781 0.42146
 H118 H 0.10165 0.16850 0.55566
 H119 H 0.04789 0.21375 0.56007
 C120 C -0.12362 0.15082 0.52173
 C121 C -0.03010 0.32052 0.39307
 C122 C 0.09128 0.15352 0.48829
 C123 C 0.00365 0.33080 0.60660
 C124 C 1.03192 0.68260 0.51727
 H125 H 1.03232 0.67319 0.48404
 C126 C 1.03603 0.65600 0.54854
 H127 H 1.03903 0.62649 0.53900
 C128 C 1.02622 0.73163 0.57046
 H129 H 1.02105 0.76087 0.57902
 C130 C 1.03050 0.70587 0.60289
 H131 H 1.02935 0.71558 0.63617
 N132 N 1.02724 0.71974 0.52845
 C133 C 0.97191 0.81251 0.46519
 H134 H 0.99392 0.81756 0.44043
 C135 C 0.94005 0.83649 0.47043
 H136 H 0.93752 0.86014 0.44969
 C137 C 0.94856 0.77580 0.52287
 H138 H 0.95175 0.75188 0.54290
 C139 C 0.91622 0.79915 0.52924
 H140 H 0.89483 0.79342 0.55449
 Zn141 Zn 1.02161 0.75402 0.48319
 N142 N 0.97591 0.78321 0.49163
 C143 C 0.97726 0.70893 0.42330
 N144 N 1.01485 0.72393 0.43173
 C145 C 1.04725 0.71069 0.41047
 C146 C 1.04254 0.68117 0.37981
 C147 C 0.97153 0.67793 0.39448
 C148 C 1.07963 0.80649 0.51848
 C149 C 1.11249 0.83231 0.51914
 C150 C 1.12067 0.81979 0.44327
 C151 C 1.08678 0.79520 0.44379
 N152 N 1.06765 0.78800 0.48131
 H153 H 0.95215 0.71891 0.44166
 H154 H 1.07718 0.72050 0.41980
 H155 H 1.06877 0.67025 0.36413
 H156 H 0.94193 0.66441 0.39055
 H157 H 1.06306 0.80213 0.54757
 H158 H 1.12027 0.84794 0.54872
 H159 H 1.13549 0.82497 0.41309
 H160 H 1.07518 0.78303 0.41385
 C161 C 0.91221 0.83018 0.50318
 C162 C 1.03588 0.66762 0.59190
 C163 C 1.13398 0.83879 0.48134
 C164 C 1.00479 0.66267 0.37396
 C165 C 0.47290 -0.01147 0.31181
 H166 H 0.49946 -0.02627 0.31956
 C167 C 0.43970 -0.01340 0.33888
 H168 H 0.44072 -0.02963 0.36756
 C169 C 0.43941 0.02861 0.26569
 H170 H 0.43961 0.04530 0.23742
 C171 C 0.40543 0.02720 0.29174
 H172 H 0.37959 0.04294 0.28356
 N173 N 0.47231 0.00950 0.27615
 C174 C 0.53949 -0.02688 0.16578
 H175 H 0.55324 -0.00003 0.15696
 C176 C 0.54129 -0.05841 0.13764
 H177 H 0.55653 -0.05538 0.10727
 C178 C 0.50418 -0.06347 0.21663
 H179 H 0.48950 -0.06526 0.24733
 C180 C 0.50593 -0.09586 0.18985
 H181 H 0.49154 -0.12209 0.19996
 Zn182 Zn 0.51937 0.01318 0.24240
 N183 N 0.52088 -0.02985 0.20432
 C184 C 0.59313 -0.01188 0.27199
 N185 N 0.56430 0.01347 0.27985
 C186 C 0.56456 0.03543 0.31665
 C187 C 0.59355 0.03095 0.34825
 C188 C 0.62271 -0.01710 0.30258
 C189 C 0.49721 0.05622 0.17336
 C190 C 0.49567 0.08790 0.14822
 C191 C 0.53707 0.12319 0.20067
 C192 C 0.53871 0.09046 0.22434
 N193 N 0.51894 0.05781 0.21035
 H194 H 0.59230 -0.02920 0.24271
 H195 H 0.54097 0.05495 0.32244
 H196 H 0.59245 0.04731 0.37823
 H197 H 0.64464 -0.03833 0.29665
 H198 H 0.48103 0.03019 0.16332
 H199 H 0.47859 0.08595 0.11863
 H200 H 0.55207 0.14926 0.21269
 H201 H 0.55529 0.09134 0.25413
 C202 C 0.52531 -0.09388 0.14993
 C203 C 0.40555 0.00609 0.32882
 C204 C 0.51598 0.12189 0.16161
 C205 C 0.62222 0.00357 0.34177
 C206 C 0.53727 0.01121 0.68521
 H207 H 0.50831 0.01431 0.67091
 C208 C 0.56985 0.00526 0.65837
 H209 H 0.56570 0.00444 0.62391
 C210 C 0.57790 0.00545 0.74671
 H211 H 0.58053 0.00382 0.78106
 C212 C 0.61144 -0.00062 0.72085
 H213 H 0.63994 -0.00616 0.73540
 N214 N 0.54160 0.01125 0.72863
 C215 C 0.48393 -0.02679 0.83958
 H216 H 0.47802 0.00060 0.85419
 C217 C 0.48369 -0.05860 0.86482
 H218 H 0.47767 -0.05557 0.89883
 C219 C 0.49953 -0.06422 0.77774
 H220 H 0.50614 -0.06601 0.74383
 C221 C 0.49974 -0.09674 0.80184
 H222 H 0.50671 -0.12360 0.78644
 Zn223 Zn 0.49469 0.01362 0.76351
 N224 N 0.49186 -0.03011 0.79689
 C225 C 0.42262 -0.01617 0.72266
 N226 N 0.44919 0.01412 0.72676
 C227 C 0.44533 0.04526 0.70301
 C228 C 0.41455 0.04639 0.67294
 C229 C 0.39136 -0.01625 0.69275
 C230 C 0.52820 0.06714 0.82627
 C231 C 0.52739 0.09761 0.85621
 C232 C 0.46004 0.10875 0.83324
 C233 C 0.46199 0.07803 0.80403
 N234 N 0.49571 0.05781 0.80094
 H235 H 0.42619 -0.04065 0.74177
 H236 H 0.46696 0.06888 0.70671
 H237 H 0.41234 0.07104 0.65364
 H238 H 0.37100 -0.04086 0.68879
 H239 H 0.55441 0.05045 0.82415
 H240 H 0.55311 0.10430 0.87675
 H241 H 0.43284 0.12425 0.83561
 H242 H 0.43591 0.06970 0.78490
 C243 C 0.49157 -0.09409 0.84590
 C244 C 0.60722 -0.00116 0.67619
 C245 C 0.49269 0.11830 0.86036
 C246 C 0.38732 0.01531 0.66743
 C247 C 0.22044 0.04675 0.48569
 C248 C 0.24854 0.05066 0.52507
 C249 C 0.27471 0.02217 0.52734
 C250 C 0.27135 -0.00715 0.48963
 C251 C 0.24883 0.04415 0.44728
 C252 C 0.27532 0.01631 0.44944
 C253 C 0.20119 0.00689 0.49001
 C254 C 0.22724 -0.02135 0.49015
 H255 H 0.24614 0.07175 0.55082
 H256 H 0.29305 -0.03000 0.49081
 H257 H 0.24915 0.06391 0.42159
 H258 H 0.16910 0.00119 0.49205
 C259 C 0.78804 -0.05806 0.51416
 C260 C 0.75842 -0.05847 0.55190
 C261 C 0.73279 -0.02951 0.55302
 C262 C 0.73954 -0.00186 0.51670
 C263 C 0.76080 -0.05615 0.47404
 C264 C 0.73516 -0.02719 0.47591
 C265 C 0.80918 -0.01870 0.51673
 C266 C 0.78418 0.01037 0.51891
 H267 H 0.75789 -0.08005 0.57562
 H268 H 0.71921 0.02218 0.51774
 H269 H 0.76142 -0.07475 0.44590
 H270 H 0.84149 -0.01417 0.51649
 C271 C 0.45018 0.29634 1.02271
 C272 C 0.44877 0.26721 0.98444
 C273 C 0.48161 0.24576 0.98131
 C274 C 0.51446 0.25697 1.01426
 C275 C 0.46003 0.27353 1.06193
 C276 C 0.49322 0.25247 1.05771
 C277 C 0.48869 0.32000 1.01393
 C278 C 0.52205 0.29991 1.00975
 H279 H 0.42503 0.26406 0.96086
 H280 H 0.54155 0.24022 1.00976
 H281 H 0.44015 0.27175 1.08922
 H282 H 0.48921 0.35010 1.00844
 C283 C 0.54550 0.72682 -0.01559
 C284 C 0.54007 0.75360 -0.05294
 C285 C 0.50978 0.77779 -0.04673
 C286 C 0.48738 0.77339 -0.00395
 C287 C 0.55133 0.75455 0.02331
 C288 C 0.52076 0.77828 0.03031
 C289 C 0.50379 0.70757 -0.01083
 C290 C 0.47377 0.73140 -0.00359
 H291 H 0.55968 0.75625 -0.08018
 H292 H 0.46246 0.79286 0.00081
 H293 H 0.57899 0.75704 0.04157
 H294 H 0.49871 0.67705 -0.01128
 C295 C 0.97580 0.44857 0.28164
 C296 C 0.94124 0.45103 0.24988
 C297 C 0.94319 0.48246 0.22624
 C298 C 0.98052 0.50887 0.23553
 C299 C 1.01334 0.45149 0.25241
 C300 C 1.01583 0.48304 0.22856
 C301 C 0.97679 0.48596 0.30773
 C302 C 0.98067 0.51736 0.28409
 H303 H 0.91831 0.42865 0.24469
 H304 H 0.98236 0.53463 0.21621
 H305 H 1.03501 0.42988 0.24833
 H306 H 0.97779 0.48727 0.34246
 C307 C 0.02538 0.54216 0.70865
 C308 C -0.01396 0.53768 0.73454
 C309 C -0.01735 0.50569 0.75766
 C310 C 0.01876 0.48046 0.75248
 C311 C 0.05801 0.53896 0.74265
 C312 C 0.05504 0.50695 0.76552
 C313 C 0.02559 0.50543 0.68118
 C314 C 0.02222 0.47332 0.70345
 H315 H -0.03743 0.55759 0.73597
 H316 H 0.01624 0.45451 0.77139
 H317 H 0.08031 0.56156 0.74975
 H318 H 0.02500 0.50496 0.64644
 C319 C 0.11983 0.09104 0.46070
 C320 C 0.12387 0.12594 0.48487
 C321 C 0.16080 0.13586 0.50478
 C322 C 0.19221 0.11126 0.50351
 C323 C 0.18885 0.07648 0.48027
 C324 C 0.15393 0.06876 0.45433
 C325 C 0.08263 0.07698 0.44349
 C326 C 0.08047 0.04558 0.41508
 C327 C 0.11508 0.02734 0.40370
 C328 C 0.15149 0.03867 0.42307
 H329 H 0.05479 0.08964 0.45210
 H330 H 0.05189 0.03568 0.40145
 H331 H 0.11355 0.00364 0.38068
 H332 H 0.17745 0.02327 0.41365
 H333 H 0.16537 0.16281 0.52214
 H334 H 0.21939 0.12005 0.52064
 C335 C 0.61139 0.64211 0.01063
 C336 C 0.63613 0.64073 -0.02609
 C337 C 0.63141 0.66664 -0.05809
 C338 C 0.60298 0.69418 -0.05426
 C339 C 0.57797 0.69712 -0.01805
 C340 C 0.58265 0.67065 0.01526
 C341 C 0.61408 0.61490 0.04251
 C342 C 0.59019 0.61636 0.07893
 C343 C 0.56290 0.64454 0.08423
 C344 C 0.55897 0.67115 0.05293
 H345 H 0.63428 0.59192 0.03952
 H346 H 0.59276 0.59540 0.10305
 H347 H 0.54426 0.64558 0.11256
 H348 H 0.53666 0.69152 0.05897
 H349 H 0.65009 0.66557 -0.08642
 H350 H 0.60110 0.71287 -0.08051
 C351 C 0.87905 -0.11711 0.54546
 C352 C 0.87941 -0.14346 0.51022
 C353 C 0.84866 -0.14413 0.47994
 C354 C 0.81854 -0.11826 0.48280
 C355 C 0.81827 -0.08979 0.51568
 C356 C 0.84804 -0.09055 0.54886
 C357 C 0.90951 -0.11616 0.57699
 C358 C 0.90902 -0.09056 0.61195
 C359 C 0.87841 -0.06540 0.61617
 C360 C 0.84832 -0.06525 0.58521
 H361 H 0.93402 -0.13511 0.57499
 H362 H 0.93247 -0.09031 0.63595
 H363 H 0.87805 -0.04570 0.64356
 H364 H 0.82557 -0.04499 0.59066
 H365 H 0.84823 -0.16474 0.45333
 H366 H 0.79582 -0.12111 0.45830
 C367 C 0.34815 0.34374 1.00959
 C368 C 0.35814 0.37971 1.02980
 C369 C 0.39368 0.38413 1.05372
 C370 C 0.42097 0.35568 1.05400
 C371 C 0.41399 0.32129 1.03050
 C372 C 0.37477 0.31347 1.01349
 C373 C 0.31261 0.33687 0.98540
 C374 C 0.30087 0.30024 0.97092
 C375 C 0.32406 0.26992 0.98045
 C376 C 0.36054 0.27637 1.00185
 H377 H 0.29354 0.35945 0.97744
 H378 H 0.27314 0.29523 0.95318
 H379 H 0.31390 0.24132 0.97094
 H380 H 0.37690 0.25202 1.01022
 H381 H 0.40115 0.41051 1.07135
 H382 H 0.44891 0.36144 1.07122
 C383 C 0.83267 0.10358 0.56272
 C384 C 0.84503 0.11960 0.52357
 C385 C 0.83155 0.10214 0.48471
 C386 C 0.80913 0.06796 0.48405
 C387 C 0.80009 0.04989 0.52211
 C388 C 0.81143 0.06772 0.56192
 C389 C 0.84136 0.12217 0.60270
 C390 C 0.83144 0.10485 0.64090
 C391 C 0.81278 0.06881 0.64003
 C392 C 0.80289 0.05027 0.60098
 H393 H 0.85554 0.15031 0.60473
 H394 H 0.83850 0.11935 0.67132
 H395 H 0.80565 0.05527 0.66977
 H396 H 0.78846 0.02232 0.60168
 H397 H 0.84059 0.11374 0.45441
 H398 H 0.80108 0.05425 0.45342
 C399 C 0.39616 0.66993 0.05193
 C400 C 0.36853 0.66262 0.01761
 C401 C 0.37242 0.68394 -0.01932
 C402 C 0.40461 0.70995 -0.02411
 C403 C 0.43345 0.71599 0.00823
 C404 C 0.42775 0.69792 0.04762
 C405 C 0.39469 0.64883 0.08955
 C406 C 0.42188 0.65695 0.12298
 C407 C 0.45119 0.68588 0.11959
 C408 C 0.45416 0.70611 0.08225
 H409 H 0.37310 0.62561 0.09358
 H410 H 0.42015 0.64073 0.15169
 H411 H 0.47197 0.69240 0.14577
 H412 H 0.47692 0.72852 0.08061
 H413 H 0.35159 0.67878 -0.04576
 H414 H 0.40840 0.72339 -0.05443
 C415 C 0.19586 -0.12431 0.51251
 C416 C 0.16576 -0.13032 0.48036
 C417 C 0.16239 -0.10341 0.44894
 C418 C 0.18536 -0.06980 0.45105
 C419 C 0.21202 -0.06125 0.48512
 C420 C 0.21849 -0.08903 0.51558
 C421 C 0.20376 -0.15242 0.54188
 C422 C 0.23167 -0.14529 0.57482
 C423 C 0.25223 -0.11021 0.57907
 C424 C 0.24578 -0.08227 0.54982
 H425 H 0.18875 -0.18018 0.53937
 H426 H 0.23725 -0.16705 0.59727
 H427 H 0.27352 -0.10469 0.60500
 H428 H 0.26246 -0.05560 0.55427
 H429 H 0.13982 -0.10711 0.42399
 H430 H 0.18009 -0.04900 0.42731
 C431 C 0.59909 0.35913 0.94844
 C432 C 0.62386 0.37285 0.98314
 C433 C 0.61744 0.35855 1.02392
 C434 C 0.58604 0.33243 1.03129
 C435 C 0.56042 0.31921 0.99798
 C436 C 0.56712 0.33209 0.95600
 C437 C 0.60391 0.37313 0.90690
 C438 C 0.57847 0.36021 0.87348
 C439 C 0.54741 0.33372 0.88084
 C440 C 0.54146 0.31999 0.92171
 H441 H 0.62698 0.39436 0.89981
 H442 H 0.58264 0.37109 0.84177
 H443 H 0.52754 0.32405 0.85486
 H444 H 0.51648 0.30007 0.92622
 H445 H 0.63575 0.36920 1.05082
 H446 H 0.58008 0.32467 1.06393
 C447 C 0.54663 0.17844 1.12223
 C448 C 0.51282 0.15627 1.13590
 C449 C 0.47437 0.16701 1.12505
 C450 C 0.46886 0.19857 1.10088
 C451 C 0.50153 0.22139 1.08721
 C452 C 0.54085 0.21196 1.09918
 C453 C 0.58614 0.16773 1.13008
 C454 C 0.61902 0.19076 1.11846
 C455 C 0.61327 0.22473 1.09881
 C456 C 0.57465 0.23529 1.08930
 H457 H 0.59214 0.14141 1.14483
 H458 H 0.64911 0.18233 1.12505
 H459 H 0.63886 0.24288 1.09059
 H460 H 0.57153 0.26200 1.07460
 H461 H 0.44814 0.15055 1.13513
 H462 H 0.43851 0.20459 1.09203
 C463 C 0.06973 0.61355 0.62674
 C464 C 0.03832 0.63904 0.62526
 C465 C 0.00650 0.63542 0.65384
 C466 C 0.00363 0.60561 0.68151
 C467 C 0.03218 0.57738 0.68139
 C468 C 0.06670 0.58230 0.65448
 C469 C 0.10438 0.61886 0.60137
 C470 C 0.13498 0.59347 0.60204
 C471 C 0.13190 0.56253 0.62810
 C472 C 0.09841 0.55694 0.65408
 H473 H 0.10843 0.64297 0.58126
 H474 H 0.16130 0.59789 0.58234
 H475 H 0.15578 0.54284 0.62847
 H476 H 0.09836 0.53255 0.67371
 H477 H -0.01742 0.65513 0.65361
 H478 H -0.02211 0.60514 0.70208
 C479 C 0.46934 0.83871 -0.13455
 C480 C 0.49382 0.87225 -0.12726
 C481 C 0.52234 0.87370 -0.09416
 C482 C 0.52719 0.84271 -0.06875
 C483 C 0.50358 0.80932 -0.07544
 C484 C 0.47487 0.80679 -0.10891
 C485 C 0.43907 0.83628 -0.16628
 C486 C 0.41597 0.80279 -0.17366
 C487 C 0.42251 0.77121 -0.14971
 C488 C 0.45171 0.77307 -0.11763
 H489 H 0.43274 0.86019 -0.18538
 H490 H 0.39297 0.80128 -0.19822
 H491 H 0.40479 0.74517 -0.15592
 H492 H 0.45633 0.74788 -0.10004
 H493 H 0.54144 0.89896 -0.08829
 H494 H 0.54974 0.84474 -0.04367
 C495 C 0.93270 0.36891 0.35401
 C496 C 0.96826 0.34979 0.36320
 C497 C 1.00442 0.36326 0.34508
 C498 C 1.00618 0.39460 0.31975
 C499 C 0.97198 0.41469 0.31103
 C500 C 0.93528 0.40332 0.33141
 C501 C 0.89427 0.35388 0.36506
 C502 C 0.86035 0.37489 0.36056
 C503 C 0.86389 0.41101 0.34462
 C504 C 0.90085 0.42520 0.33018
 H505 H 0.89001 0.32565 0.37692
 H506 H 0.83130 0.36331 0.37013
 H507 H 0.83772 0.42784 0.34259
 H508 H 0.90184 0.45352 0.31846
 H509 H 1.03263 0.35102 0.35249
 H510 H 1.03554 0.40391 0.30899
 C511 C 0.53785 0.83761 0.13596
 C512 C 0.52710 0.87375 0.12200
 C513 C 0.51618 0.87713 0.07892
 C514 C 0.51345 0.84577 0.05070
 C515 C 0.52251 0.80968 0.06371
 C516 C 0.53456 0.80526 0.10701
 C517 C 0.55429 0.83325 0.17723
 C518 C 0.56351 0.79772 0.19113
 C519 C 0.55738 0.76589 0.16414
 C520 C 0.54336 0.76954 0.12255
 H521 H 0.56108 0.85723 0.19892
 H522 H 0.57560 0.79491 0.22299
 H523 H 0.56421 0.73825 0.17520
 H524 H 0.53972 0.74395 0.10311
 H525 H 0.50773 0.90412 0.06718
 H526 H 0.50422 0.85003 0.01809
 C527 C -0.02660 0.39159 0.63472
 C528 C 0.00537 0.36642 0.63322
 C529 C 0.04149 0.37703 0.65411
 C530 C 0.04630 0.41154 0.67678
 C531 C 0.01474 0.43611 0.68066
 C532 C -0.02194 0.42660 0.65879
 C533 C -0.06253 0.38352 0.61144
 C534 C -0.09359 0.40856 0.61314
 C535 C -0.08938 0.44231 0.63736
 C536 C -0.05391 0.45150 0.65968
 H537 H -0.06695 0.35818 0.59126
 H538 H -0.12099 0.40183 0.59532
 H539 H -0.11361 0.46165 0.63856
 H540 H -0.05203 0.47814 0.67783
 H541 H 0.06668 0.35878 0.65183
 H542 H 0.07559 0.41960 0.68961
 C543 C 0.46085 0.14785 0.92678
 C544 C 0.48989 0.14921 0.89364
 C545 C 0.51648 0.18089 0.89163
 C546 C 0.51363 0.21169 0.92054
 C547 C 0.48370 0.21204 0.95188
 C548 C 0.45760 0.17956 0.95597
 C549 C 0.43576 0.11515 0.93238
 C550 C 0.40774 0.11395 0.96540
 C551 C 0.40444 0.14493 0.99376
 C552 C 0.42918 0.17735 0.98938
 H553 H 0.43800 0.08998 0.91192
 H554 H 0.38878 0.08868 0.96928
 H555 H 0.38290 0.14370 1.01960
 H556 H 0.42613 0.20023 1.01284
 H557 H 0.53926 0.18204 0.86699
 H558 H 0.53469 0.23567 0.91799
 C559 C 1.02498 0.59475 0.36089
 C560 C 1.00092 0.62533 0.35053
 C561 C 0.97268 0.62022 0.31724
 C562 C 0.96747 0.58546 0.29480
 C563 C 0.99108 0.55515 0.30422
 C564 C 1.02190 0.56046 0.33558
 C565 C 1.05137 0.59694 0.39652
 C566 C 1.07715 0.56795 0.40391
 C567 C 1.07706 0.53618 0.37631
 C568 C 1.04976 0.53232 0.34248
 H569 H 1.05215 0.62065 0.41940
 H570 H 1.09755 0.57034 0.43096
 H571 H 1.09781 0.51414 0.38151
 H572 H 1.05094 0.50722 0.32173
 H573 H 0.95404 0.64318 0.30904
 H574 H 0.94414 0.58192 0.27066
 C575 C 1.08266 0.50182 0.13040
 C576 C 1.12099 0.50597 0.15087
 C577 C 1.12333 0.50027 0.19511
 C578 C 1.08899 0.49321 0.21928
 C579 C 1.05081 0.49188 0.20051
 C580 C 1.04743 0.49652 0.15567
 C581 C 1.07862 0.49959 0.08510
 C582 C 1.04105 0.49650 0.06557
 C583 C 1.00671 0.49446 0.09045
 C584 C 1.00992 0.49406 0.13487
 H585 H 1.10426 0.49886 0.06410
 H586 H 1.03861 0.49528 0.03095
 H587 H 0.97747 0.49211 0.07530
 H588 H 0.98279 0.49133 0.15251
 H589 H 1.15191 0.50269 0.21170
 H590 H 1.09223 0.48936 0.25336
 C591 C 0.64244 -0.04752 0.62733
 C592 C 0.64067 -0.01109 0.64755
 C593 C 0.66867 0.01754 0.63691
 C594 C 0.69807 0.01077 0.60634
 C595 C 0.70081 -0.02497 0.58572
 C596 C 0.67232 -0.05450 0.59572
 C597 C 0.61450 -0.07701 0.63742
 C598 C 0.61517 -0.11230 0.61611
 C599 C 0.64337 -0.11883 0.58428
 C600 C 0.67155 -0.09034 0.57399
 H601 H 0.59187 -0.07303 0.66176
 H602 H 0.59347 -0.13459 0.62405
 H603 H 0.64336 -0.14612 0.56734
 H604 H 0.69211 -0.09682 0.54852
 H605 H 0.66709 0.04569 0.65161
 H606 H 0.71863 0.03396 0.59845
 C607 C -0.11067 0.46477 0.81582
 C608 C -0.11885 0.49663 0.84278
 C609 C -0.09302 0.52884 0.84266
 C610 C -0.05979 0.53025 0.81602
 C611 C -0.05099 0.49954 0.78836
 C612 C -0.07610 0.46591 0.78891
 C613 C -0.13682 0.43220 0.81410
 C614 C -0.12867 0.40102 0.78744
 C615 C -0.09459 0.40171 0.76197
 C616 C -0.06865 0.43372 0.76263
 H617 H -0.16400 0.43062 0.83286
 H618 H -0.14894 0.37623 0.78649
 H619 H -0.08830 0.37740 0.74133
 H620 H -0.04289 0.43268 0.74241
 H621 H -0.09873 0.55325 0.86342
 H622 H -0.04083 0.55597 0.81671
 C623 C 0.33302 -0.01065 0.34785
 C624 C 0.37113 0.00646 0.35859
 C625 C 0.37679 0.02537 0.39850
 C626 C 0.34534 0.02812 0.42744
 C627 C 0.30745 0.01163 0.41761
 C628 C 0.30086 -0.00793 0.37764
 C629 C 0.32626 -0.03084 0.30845
 C630 C 0.28856 -0.04749 0.29844
 C631 C 0.25707 -0.04448 0.32739
 C632 C 0.26303 -0.02494 0.36668
 H633 H 0.35001 -0.03414 0.28526
 H634 H 0.28377 -0.06287 0.26808
 H635 H 0.22789 -0.05746 0.31941
 H636 H 0.23791 -0.02330 0.38836
 H637 H 0.40569 0.03879 0.40697
 H638 H 0.35042 0.04397 0.45742
 C639 C 0.13216 0.47171 0.84509
 C640 C 0.13522 0.50372 0.87385
 C641 C 0.11050 0.53401 0.86805
 C642 C 0.08372 0.53355 0.83388
 C643 C 0.08060 0.50280 0.80413
 C644 C 0.10422 0.47102 0.81036
 C645 C 0.15725 0.44090 0.84912
 C646 C 0.15407 0.40966 0.82053
 C647 C 0.12630 0.40867 0.78724
 C648 C 0.10184 0.43907 0.78208
 H649 H 0.17978 0.44071 0.87399
 H650 H 0.17337 0.38619 0.82412
 H651 H 0.12390 0.38436 0.76508
 H652 H 0.08103 0.43731 0.75598
 H653 H 0.11237 0.55857 0.88993
 H654 H 0.06565 0.55793 0.83018
 C655 C 0.64683 -0.04090 0.39698
 C656 C 0.64968 -0.00551 0.37695
 C657 C 0.67899 0.02182 0.39079
 C658 C 0.70616 0.01424 0.42297
 C659 C 0.70513 -0.02100 0.44209
 C660 C 0.67485 -0.04880 0.42963
 C661 C 0.61591 -0.06823 0.38613
 C662 C 0.61298 -0.10266 0.40644
 C663 C 0.64037 -0.11044 0.43814
 C664 C 0.67088 -0.08385 0.44983
 H665 H 0.59335 -0.06312 0.36242
 H666 H 0.58911 -0.12328 0.39778
 H667 H 0.63776 -0.13711 0.45405
 H668 H 0.69087 -0.09102 0.47509
 H669 H 0.68110 0.04915 0.37618
 H670 H 0.72863 0.03595 0.43266
 C671 C 0.87909 0.46661 0.12483
 C672 C 0.85689 0.49981 0.12755
 C673 C 0.86458 0.52684 0.16077
 C674 C 0.89305 0.52089 0.19216
 C675 C 0.91438 0.48772 0.19120
 C676 C 0.90812 0.46043 0.15686
 C677 C 0.87383 0.43993 0.09013
 C678 C 0.89664 0.40793 0.08711
 C679 C 0.92541 0.40207 0.11808
 C680 C 0.93138 0.42802 0.15245
 H681 H 0.85254 0.44374 0.06469
 H682 H 0.89234 0.38784 0.06029
 H683 H 0.94356 0.37751 0.11519
 H684 H 0.95525 0.42285 0.17456
 H685 H 0.84811 0.55256 0.16260
 H686 H 0.89800 0.54205 0.21786
 C687 C 0.31479 0.01400 0.64176
 C688 C 0.35651 0.01522 0.63322
 C689 C 0.36982 0.01678 0.59078
 C690 C 0.34276 0.01795 0.55701
 C691 C 0.30153 0.01809 0.56453
 C692 C 0.28703 0.01479 0.60704
 C693 C 0.30000 0.01252 0.68402
 C694 C 0.25888 0.01013 0.69179
 C695 C 0.23179 0.00923 0.65781
 C696 C 0.24556 0.01152 0.61581
 H697 H 0.31995 0.01320 0.71138
 H698 H 0.24797 0.00872 0.72435
 H699 H 0.19992 0.00684 0.66402
 H700 H 0.22343 0.01015 0.59042
 H701 H 0.40161 0.01730 0.58375
 H702 H 0.35427 0.01946 0.52476
   
