data_POSCAR
  _audit_creation_date              2014-09-24
  _audit_creation_method            'ToBaCCo'
  _symmetry_space_group_name_H-M    'P1'
  _symmetry_Int_Tables_number       1
  _symmetry_cell_setting            triclinic
  loop_
  _symmetry_equiv_pos_as_xyz
 x,y,z
_cell_length_a 16.5851
_cell_length_b 16.5426
_cell_length_c 28.1991
_cell_angle_alpha 90.897600
_cell_angle_beta 91.144600
_cell_angle_gamma 91.202600
loop_
  _atom_site_label
  _atom_site_type_symbol
  _atom_site_fract_x
  _atom_site_fract_y
  _atom_site_fract_z
O1 O -0.06172 0.57653 0.95438
 O2 O -0.06816 0.42362 1.04752
 O3 O -0.06217 0.58015 1.04648
 O4 O -0.06257 0.41763 0.95548
 O5 O 0.07074 0.41808 0.95858
 O6 O 0.07122 0.57999 1.04952
 O7 O 0.06519 0.42342 1.05080
 O8 O 0.07161 0.57712 0.95748
 Cu9 Cu -0.07710 0.49943 1.00037
 Cu10 Cu 0.08316 0.49952 1.00412
 C11 C 0.00584 0.60379 0.94079
 C12 C -0.00274 0.39802 1.06508
 C13 C 0.00471 0.60727 1.06343
 C14 C 0.00412 0.38963 0.94218
 O15 O 0.58161 -0.07229 0.54275
 O16 O 0.41965 -0.07072 0.45178
 O17 O 0.57575 -0.06585 0.45054
 O18 O 0.42290 -0.07172 0.54380
 O19 O 0.42471 0.06193 0.54695
 O20 O 0.57665 0.06786 0.45387
 O21 O 0.42058 0.06301 0.45484
 O22 O 0.58328 0.06134 0.54587
 Cu23 Cu 0.50001 -0.08366 0.49722
 Cu24 Cu 0.50146 0.07701 0.50101
 C25 C 0.61078 -0.00588 0.55913
 C26 C 0.39294 -0.00371 0.43785
 C27 C 0.60149 0.00219 0.43628
 C28 C 0.39691 -0.00567 0.56046
 C29 C -0.00891 0.01016 0.25006
 C30 C 0.00634 -0.00747 0.74911
 C31 C 0.00672 -0.20387 0.15777
 C32 C 0.02424 -0.12749 0.13989
 C33 C 0.02095 -0.05906 0.16919
 C34 C 0.00531 -0.32862 0.09817
 C35 C -0.01380 -0.14353 0.23530
 C36 C -0.01063 -0.21212 0.20578
 C37 C 0.00608 -0.27294 0.12621
 C38 C -0.00312 -0.06505 0.21692
 H39 H 0.04037 -0.12070 0.10309
 H40 H 0.03802 -0.00183 0.15398
 H41 H -0.02690 -0.15146 0.27242
 H42 H -0.02230 -0.27136 0.22031
 C43 C -0.01363 0.22556 0.16250
 C44 C 0.04112 0.22313 0.20076
 C45 C 0.04148 0.15636 0.23058
 C46 C -0.00570 0.34139 0.09926
 C47 C -0.07082 0.09670 0.18538
 C48 C -0.07110 0.16337 0.15574
 C49 C -0.00913 0.28972 0.12882
 C50 C -0.01105 0.08922 0.22141
 H51 H 0.08436 0.27229 0.20715
 H52 H 0.08344 0.15791 0.26037
 H53 H -0.11506 0.04855 0.17875
 H54 H -0.11493 0.16539 0.12679
 C55 C 0.21067 -0.00639 0.65295
 C56 C 0.16072 -0.07494 0.65678
 C57 C 0.09537 -0.07406 0.68728
 C58 C 0.33298 -0.00707 0.59405
 C59 C 0.12818 0.06485 0.70935
 C60 C 0.19354 0.06378 0.67877
 C61 C 0.27772 -0.00711 0.62124
 C62 C 0.07977 -0.00539 0.71591
 H63 H 0.17209 -0.12907 0.63607
 H64 H 0.05730 -0.12785 0.68925
 H65 H 0.11546 0.12147 0.72696
 H66 H 0.23027 0.11812 0.67490
 C67 C -0.20003 -0.00943 0.64958
 C68 C -0.18262 -0.07932 0.67473
 C69 C -0.11632 -0.08031 0.70616
 C70 C -0.32607 -0.00686 0.59054
 C71 C -0.08298 0.05790 0.68611
 C72 C -0.14925 0.05871 0.65477
 C73 C -0.26893 -0.00808 0.61768
 C74 C -0.06729 -0.01022 0.71428
 H75 H -0.22010 -0.13336 0.66985
 H76 H -0.10361 -0.13663 0.72338
 H77 H -0.04453 0.11151 0.68929
 H78 H -0.16091 0.11262 0.63463
 C79 C 0.00837 -0.21048 0.84715
 C80 C 0.07792 -0.19079 0.82232
 C81 C 0.07835 -0.12602 0.79108
 C82 C 0.00761 -0.33227 0.90695
 C83 C -0.06005 -0.09886 0.81035
 C84 C -0.06028 -0.16370 0.84157
 C85 C 0.00819 -0.27717 0.87942
 C86 C 0.00803 -0.08082 0.78272
 H87 H 0.13230 -0.22502 0.82749
 H88 H 0.13468 -0.11112 0.77439
 H89 H -0.11374 -0.06306 0.80720
 H90 H -0.11398 -0.17708 0.86150
 C91 C 0.00442 0.19841 0.84885
 C92 C -0.06529 0.17754 0.82248
 C93 C -0.06576 0.11178 0.79076
 C94 C 0.00427 0.32327 0.90874
 C95 C 0.07294 0.08581 0.81268
 C96 C 0.07321 0.15169 0.84439
 C97 C 0.00452 0.26656 0.88131
 C98 C 0.00470 0.06669 0.78345
 H99 H -0.11977 0.21173 0.82675
 H100 H -0.12221 0.09612 0.77282
 H101 H 0.12675 0.05013 0.81034
 H102 H 0.12706 0.16601 0.86550
 C103 C -0.22381 0.01373 0.33705
 C104 C -0.16215 0.07176 0.34376
 C105 C -0.09567 0.07186 0.31428
 C106 C -0.33914 0.00524 0.40012
 C107 C -0.15450 -0.04115 0.26929
 C108 C -0.22109 -0.04118 0.29896
 C109 C -0.28772 0.00886 0.37063
 C110 C -0.08785 0.01193 0.27846
 H111 H -0.16442 0.11572 0.37257
 H112 H -0.04790 0.11651 0.32088
 H113 H -0.15580 -0.08326 0.23963
 H114 H -0.26986 -0.08484 0.29260
 C115 C 0.20449 -0.00454 0.34309
 C116 C 0.12834 -0.02239 0.36078
 C117 C 0.06011 -0.01934 0.33125
 C118 C 0.32894 -0.00362 0.40300
 C119 C 0.14436 0.01589 0.26533
 C120 C 0.21274 0.01295 0.29508
 C121 C 0.27339 -0.00405 0.37483
 C122 C 0.06607 0.00480 0.28348
 H123 H 0.12156 -0.03867 0.39758
 H124 H 0.00307 -0.03672 0.34632
 H125 H 0.15228 0.02906 0.22821
 H126 H 0.27182 0.02484 0.28070
   
