data_POSCAR
  _audit_creation_date              2014-09-24
  _audit_creation_method            'ToBaCCo'
  _symmetry_space_group_name_H-M    'P1'
  _symmetry_Int_Tables_number       1
  _symmetry_cell_setting            triclinic
  loop_
  _symmetry_equiv_pos_as_xyz
 x,y,z
_cell_length_a 23.6885
_cell_length_b 23.8020
_cell_length_c 22.4914
_cell_angle_alpha 90.661400
_cell_angle_beta 90.332900
_cell_angle_gamma 90.810700
loop_
  _atom_site_label
  _atom_site_type_symbol
  _atom_site_fract_x
  _atom_site_fract_y
  _atom_site_fract_z
O1 O 0.56413 0.09605 0.01579
 O2 O 0.44390 -0.05733 -0.11988
 O3 O 0.58016 0.03509 -0.07288
 O4 O 0.38782 0.06754 0.00927
 O5 O 0.54797 -0.04052 -0.11742
 O6 O 0.46518 0.11259 0.00254
 O7 O 0.39471 0.01484 -0.08877
 O8 O 0.63619 0.04009 0.02110
 C9 C 0.61680 0.09063 0.02561
 C10 C 0.40829 -0.01866 -0.12981
 C11 C 0.57422 0.00631 -0.11958
 C12 C 0.41325 0.11124 -0.00376
 O13 O 0.44016 0.04708 0.10091
 O14 O 0.55198 -0.10996 -0.01849
 O15 O 0.57841 -0.04003 0.06644
 O16 O 0.38206 -0.07638 -0.03188
 O17 O 0.45603 -0.12372 -0.02097
 O18 O 0.54161 0.02975 0.11109
 O19 O 0.38988 -0.02451 0.06589
 O20 O 0.61980 -0.05586 -0.03457
 Co21 Co 0.50164 0.06435 0.05215
 Co22 Co 0.49977 -0.07667 -0.06478
 Co23 Co 0.57553 -0.00106 -0.00202
 Co24 Co 0.39851 -0.00478 -0.01088
 O25 O 0.49077 -0.00735 -0.00739
 C26 C 0.40416 0.00745 0.10829
 C27 C 0.60321 -0.10482 -0.02760
 C28 C 0.56947 -0.01440 0.11359
 C29 C 0.40406 -0.12241 -0.02325
 O30 O -0.10110 0.44865 -0.00840
 O31 O 0.07471 0.54921 0.11662
 O32 O -0.02744 0.41620 0.07387
 O33 O -0.05997 0.61772 0.01164
 O34 O 0.04447 0.45011 0.12012
 O35 O -0.11310 0.54583 -0.00566
 O36 O -0.00057 0.59620 0.09837
 O37 O -0.04671 0.38370 -0.03056
 C38 C -0.09557 0.39814 -0.02031
 C39 C 0.03629 0.58140 0.13393
 C40 C -0.00103 0.42258 0.12122
 C41 C -0.10781 0.59650 0.00650
 O42 O -0.04443 0.56330 -0.09883
 O43 O 0.10632 0.43064 0.01912
 O44 O 0.04516 0.42549 -0.06734
 O45 O 0.08903 0.60590 0.02888
 O46 O 0.12555 0.52634 0.01033
 O47 O -0.03113 0.45854 -0.10713
 O48 O 0.02387 0.61552 -0.05849
 O49 O 0.04806 0.35993 0.01938
 Co50 Co -0.06547 0.50373 -0.05010
 Co51 Co 0.08002 0.49076 0.06191
 Co52 Co 0.01044 0.42413 0.00504
 Co53 Co 0.01284 0.59927 0.01958
 O54 O 0.00564 0.50863 0.00841
 C55 C -0.00868 0.60381 -0.10176
 C56 C 0.09972 0.37816 0.02496
 C57 C 0.01527 0.43310 -0.11264
 C58 C 0.12845 0.57798 0.00813
 O59 O -0.04491 -0.10029 0.44005
 O60 O 0.09878 0.04857 0.56082
 O61 O 0.05799 0.03850 0.38303
 O62 O -0.03730 -0.05766 0.61820
 O63 O 0.10532 0.03217 0.46089
 O64 O -0.02807 -0.10514 0.54071
 O65 O 0.06079 -0.02411 0.60161
 O66 O 0.02627 -0.06000 0.39768
 C67 C -0.00023 -0.10393 0.41011
 C68 C 0.10408 0.00368 0.58926
 C69 C 0.10385 0.02870 0.40657
 C70 C -0.02660 -0.10350 0.59516
 O71 O -0.11536 -0.02799 0.56264
 O72 O 0.02519 0.11583 0.43836
 O73 O -0.07743 -0.02593 0.38293
 O74 O 0.02357 0.07852 0.61795
 O75 O 0.00986 0.12386 0.54056
 O76 O -0.12396 -0.01482 0.46059
 O77 O -0.07452 0.04453 0.60359
 O78 O -0.04583 0.07314 0.39621
 Co79 Co -0.07215 -0.05579 0.50109
 Co80 Co 0.05364 0.07409 0.50005
 Co81 Co -0.00970 0.00676 0.40173
 Co82 Co -0.00710 0.01017 0.59831
 O83 O -0.00891 0.00887 0.50020
 C84 C -0.11847 0.01665 0.59313
 C85 C -0.01905 0.11762 0.40707
 C86 C -0.12405 -0.01970 0.40618
 C87 C 0.01553 0.12458 0.59489
 C88 C -0.26880 0.23020 0.01355
 C89 C -0.32726 0.23962 0.01292
 C90 C -0.36475 0.19424 0.01890
 C91 C -0.34426 0.13962 0.02528
 C92 C -0.28567 0.13219 0.02705
 N93 N -0.25006 0.17688 0.02074
 C94 C -0.22651 0.27553 0.00385
 N95 N -0.17395 0.26081 -0.01420
 C96 C -0.13215 0.29923 -0.02355
 C97 C -0.14192 0.35660 -0.01415
 C98 C -0.19574 0.37302 0.00429
 C99 C -0.23814 0.33269 0.01345
 H100 H -0.40972 0.20170 0.01692
 H101 H -0.26802 0.09080 0.03197
 H102 H -0.09117 0.28474 -0.03756
 H103 H -0.20475 0.41689 0.01262
 H104 H -0.34422 0.28095 0.00587
 H105 H -0.27879 0.34633 0.02921
 C106 C 0.30276 0.73464 -0.02760
 C107 C 0.27865 0.78760 -0.03283
 C108 C 0.31262 0.83521 -0.02950
 C109 C 0.37143 0.83085 -0.02166
 C110 C 0.39391 0.77670 -0.01488
 N111 N 0.35929 0.73045 -0.01754
 C112 C 0.26572 0.68464 -0.02893
 N113 N 0.26977 0.64607 0.01506
 C114 C 0.22865 0.60656 0.02370
 C115 C 0.17963 0.60672 -0.01146
 C116 C 0.17658 0.64315 -0.05942
 C117 C 0.21996 0.68179 -0.06886
 H118 H 0.29239 0.87550 -0.03416
 H119 H 0.43875 0.77100 -0.00803
 H120 H 0.23196 0.57849 0.06106
 H121 H 0.13941 0.64358 -0.08754
 H122 H 0.23353 0.79230 -0.03856
 H123 H 0.21601 0.71171 -0.10452
 C124 C 0.29089 0.23657 -0.01251
 C125 C 0.28689 0.18994 -0.05095
 C126 C 0.33064 0.15180 -0.05274
 C127 C 0.37910 0.16046 -0.01768
 C128 C 0.38421 0.21050 0.01554
 N129 N 0.34000 0.24658 0.01809
 C130 C 0.24113 0.27193 -0.00136
 N131 N 0.24835 0.32748 0.01186
 C132 C 0.20385 0.36172 0.02211
 C133 C 0.14825 0.34023 0.01970
 C134 C 0.14002 0.28278 0.00824
 C135 C 0.18623 0.24857 -0.00230
 H136 H 0.32474 0.11323 -0.07802
 H137 H 0.42080 0.21824 0.04367
 H138 H 0.21192 0.40586 0.03120
 H139 H 0.09794 0.26446 0.00636
 H140 H 0.24922 0.18142 -0.07719
 H141 H 0.17892 0.20416 -0.01051
 C142 C -0.28454 0.75786 -0.00619
 C143 C -0.34301 0.74757 -0.00826
 C144 C -0.37958 0.79244 -0.01612
 C145 C -0.35814 0.84738 -0.02211
 C146 C -0.29953 0.85584 -0.02008
 N147 N -0.26481 0.81158 -0.01196
 C148 C -0.24316 0.71266 0.00286
 N149 N -0.19120 0.72736 0.02431
 C150 C -0.14897 0.68989 0.02978
 C151 C -0.15713 0.63369 0.01154
 C152 C -0.21090 0.61685 -0.00889
 C153 C -0.25410 0.65621 -0.01328
 H154 H -0.42468 0.78423 -0.01697
 H155 H -0.28130 0.89757 -0.02406
 H156 H -0.10829 0.70479 0.04605
 H157 H -0.21875 0.57410 -0.02408
 H158 H -0.36058 0.70581 -0.00257
 H159 H -0.29442 0.64292 -0.03177
 C160 C 0.03644 -0.31025 0.28413
 C161 C -0.01251 -0.34176 0.26985
 C162 C -0.01128 -0.38100 0.22346
 C163 C 0.03874 -0.38998 0.19218
 C164 C 0.08778 -0.36071 0.21038
 N165 N 0.08513 -0.32097 0.25433
 C166 C 0.03345 -0.26055 0.32416
 N167 N 0.06422 -0.21351 0.31110
 C168 C 0.05703 -0.16373 0.34040
 C169 C 0.01575 -0.15908 0.38467
 C170 C -0.01391 -0.20791 0.40115
 C171 C -0.00507 -0.25860 0.37125
 H172 H -0.05014 -0.40207 0.20972
 H173 H 0.12687 -0.36590 0.18635
 H174 H 0.08147 -0.12732 0.32698
 H175 H -0.04539 -0.20658 0.43585
 H176 H -0.05246 -0.33329 0.29099
 H177 H -0.02939 -0.29541 0.38375
 C178 C 0.03892 0.32429 0.73966
 C179 C 0.08315 0.33213 0.78097
 C180 C 0.07793 0.37175 0.82665
 C181 C 0.02910 0.40414 0.83084
 C182 C -0.01120 0.39942 0.78480
 N183 N -0.00596 0.35934 0.74159
 C184 C 0.03643 0.27403 0.70031
 N185 N 0.01030 0.27590 0.64613
 C186 C 0.00356 0.22924 0.61075
 C187 C 0.02199 0.17682 0.63059
 C188 C 0.04839 0.17426 0.68644
 C189 C 0.05591 0.22245 0.72106
 H190 H 0.11035 0.37434 0.86078
 H191 H -0.04914 0.42421 0.78586
 H192 H -0.01702 0.23286 0.56789
 H193 H 0.06342 0.13478 0.70355
 H194 H 0.12005 0.30581 0.77993
 H195 H 0.07500 0.21879 0.76467
 C196 C -0.03700 0.31640 0.26788
 C197 C 0.00396 0.35957 0.27425
 C198 C 0.01273 0.39735 0.22804
 C199 C -0.01908 0.39262 0.17543
 C200 C -0.06223 0.35152 0.17243
 N201 N -0.06921 0.31442 0.21748
 C202 C -0.04075 0.26869 0.31002
 N203 N -0.06439 0.21912 0.29067
 C204 C -0.06240 0.17116 0.32306
 C205 C -0.03346 0.17088 0.37763
 C206 C -0.01182 0.22207 0.40012
 C207 C -0.01594 0.27106 0.36696
 H208 H 0.04668 0.42815 0.23212
 H209 H -0.08783 0.34633 0.13266
 H210 H -0.08007 0.13264 0.30432
 H211 H 0.01002 0.22384 0.44257
 H212 H 0.03179 0.36238 0.31240
 H213 H 0.00169 0.30961 0.38541
 C214 C -0.00485 -0.28986 0.75276
 C215 C -0.03990 -0.33793 0.75057
 C216 C -0.04028 -0.37494 0.79859
 C217 C -0.00552 -0.36438 0.84878
 C218 C 0.03071 -0.31684 0.84731
 N219 N 0.02932 -0.28124 0.80078
 C220 C -0.00795 -0.24461 0.70840
 N221 N 0.00505 -0.19138 0.72701
 C222 C 0.00087 -0.14638 0.69096
 C223 C -0.01723 -0.15343 0.63193
 C224 C -0.02894 -0.20807 0.61067
 C225 C -0.02473 -0.25389 0.64897
 H226 H -0.06896 -0.41080 0.79692
 H227 H 0.05826 -0.30593 0.88432
 H228 H 0.01105 -0.10500 0.70879
 H229 H -0.04286 -0.21507 0.56520
 H230 H -0.06868 -0.34558 0.71373
 H231 H -0.03444 -0.29575 0.63226
 C232 C 0.30672 -0.01884 0.72038
 C233 C 0.30995 0.02914 0.75657
 C234 C 0.34620 0.03027 0.80521
 C235 C 0.38065 -0.01596 0.81763
 C236 C 0.37982 -0.06132 0.77655
 N237 N 0.34178 -0.06253 0.73073
 C238 C 0.26123 -0.02306 0.67588
 N239 N 0.21638 -0.05811 0.68575
 C240 C 0.16686 -0.05367 0.65516
 C241 C 0.16009 -0.01051 0.61377
 C242 C 0.20717 0.02356 0.60051
 C243 C 0.25760 0.01758 0.63168
 H244 H 0.34619 0.06715 0.83375
 H245 H 0.40575 -0.09780 0.78352
 H246 H 0.13185 -0.08133 0.66602
 H247 H 0.20416 0.05698 0.56842
 H248 H 0.28231 0.06429 0.74912
 H249 H 0.29234 0.04665 0.62403
 C250 C -0.32300 -0.04388 0.26025
 C251 C -0.32918 -0.08568 0.21593
 C252 C -0.36847 -0.07886 0.17031
 C253 C -0.40226 -0.03101 0.16930
 C254 C -0.39939 0.00636 0.21815
 N255 N -0.35950 -0.00023 0.26120
 C256 C -0.27294 -0.04197 0.29994
 N257 N -0.27584 -0.01749 0.35499
 C258 C -0.22939 -0.01054 0.39068
 C259 C -0.17612 -0.02696 0.37029
 C260 C -0.17250 -0.05182 0.31365
 C261 C -0.22049 -0.05959 0.27867
 H262 H -0.36972 -0.10904 0.13388
 H263 H -0.42533 0.04341 0.21950
 H264 H -0.23384 0.00877 0.43418
 H265 H -0.13232 -0.06526 0.29611
 H266 H -0.30180 -0.12170 0.21463
 H267 H -0.21595 -0.07723 0.23442
 C268 C 0.29613 -0.00213 0.25766
 C269 C 0.30248 -0.04939 0.22078
 C270 C 0.34098 -0.04750 0.17446
 C271 C 0.37345 0.00130 0.16484
 C272 C 0.36961 0.04584 0.20604
 N273 N 0.33075 0.04346 0.25042
 C274 C 0.24761 0.00143 0.29815
 N275 N 0.25337 0.02641 0.35269
 C276 C 0.20845 0.03353 0.38947
 C277 C 0.15403 0.01705 0.37059
 C278 C 0.14740 -0.00858 0.31466
 C279 C 0.19403 -0.01695 0.27863
 H280 H 0.34330 -0.08326 0.14439
 H281 H 0.39446 0.08391 0.20056
 H282 H 0.21489 0.05384 0.43235
 H283 H 0.10603 -0.02169 0.29858
 H284 H 0.27604 -0.08648 0.22603
 H285 H 0.18787 -0.03564 0.23490
 C286 C -0.31887 0.03719 0.73227
 C287 C -0.36251 -0.00342 0.72725
 C288 C -0.40038 -0.01059 0.77396
 C289 C -0.39529 0.02246 0.82576
 C290 C -0.35377 0.06519 0.82739
 N291 N -0.31659 0.07064 0.78185
 C292 C -0.27095 0.03948 0.68976
 N293 N -0.22167 0.06488 0.70773
 C294 C -0.17338 0.06216 0.67535
 C295 C -0.17236 0.03063 0.62231
 C296 C -0.22325 0.00691 0.60112
 C297 C -0.27266 0.01179 0.63417
 H298 H -0.43164 -0.04417 0.77086
 H299 H -0.34830 0.09173 0.86647
 H300 H -0.13512 0.08155 0.69300
 H301 H -0.22446 -0.01694 0.55980
 H302 H -0.36574 -0.03210 0.68980
 H303 H -0.31094 -0.00743 0.61668
   
