data_POSCAR
  _audit_creation_date              2014-09-24
  _audit_creation_method            'ToBaCCo'
  _symmetry_space_group_name_H-M    'P1'
  _symmetry_Int_Tables_number       1
  _symmetry_cell_setting            triclinic
  loop_
  _symmetry_equiv_pos_as_xyz
 x,y,z
_cell_length_a 42.6400
_cell_length_b 23.2073
_cell_length_c 17.4394
_cell_angle_alpha 89.925300
_cell_angle_beta 89.960800
_cell_angle_gamma 90.054400
loop_
  _atom_site_label
  _atom_site_type_symbol
  _atom_site_fract_x
  _atom_site_fract_y
  _atom_site_fract_z
O1 O 0.76535 0.17906 0.57302
 O2 O 0.71061 0.22840 0.42356
 O3 O 0.76564 0.17892 0.42454
 O4 O 0.71041 0.22869 0.57282
 O5 O 0.73325 0.31398 0.57259
 O6 O 0.78839 0.26422 0.42434
 O7 O 0.73342 0.31371 0.42341
 O8 O 0.78814 0.26441 0.57280
 Cu9 Cu 0.73565 0.19528 0.49847
 Cu10 Cu 0.76302 0.29767 0.49824
 C11 C 0.78638 0.21306 0.59780
 C12 C 0.71251 0.27963 0.39821
 C13 C 0.78683 0.21275 0.39971
 C14 C 0.71228 0.27997 0.59786
 O15 O 0.26557 0.67899 0.57569
 O16 O 0.21039 0.72903 0.42747
 O17 O 0.26522 0.67902 0.42720
 O18 O 0.21063 0.72879 0.57673
 O19 O 0.23359 0.81397 0.57639
 O20 O 0.28818 0.76423 0.42693
 O21 O 0.23339 0.81417 0.42721
 O22 O 0.28847 0.76415 0.57542
 Cu23 Cu 0.23559 0.69548 0.50183
 Cu24 Cu 0.26315 0.79770 0.50148
 C25 C 0.28682 0.71270 0.60029
 C26 C 0.21235 0.78028 0.40218
 C27 C 0.28631 0.71288 0.40214
 C28 C 0.21263 0.78002 0.60186
 O29 O 0.26518 0.32083 -0.57726
 O30 O 0.21008 0.27100 -0.42845
 O31 O 0.26497 0.32078 -0.42882
 O32 O 0.21011 0.27113 -0.57774
 O33 O 0.23289 0.18597 -0.57762
 O34 O 0.28776 0.23550 -0.42875
 O35 O 0.23290 0.18578 -0.42841
 O36 O 0.28791 0.23560 -0.57719
 Cu37 Cu 0.23524 0.30441 -0.50315
 Cu38 Cu 0.26258 0.20213 -0.50306
 C39 C 0.28638 0.28708 -0.60195
 C40 C 0.21199 0.21977 -0.40309
 C41 C 0.28602 0.28685 -0.40395
 C42 C 0.21189 0.21986 -0.60295
 O43 O -0.28955 0.77163 -0.42687
 O44 O -0.23449 0.82130 -0.57569
 O45 O -0.28947 0.77145 -0.57613
 O46 O -0.23461 0.82141 -0.42721
 O47 O -0.21181 0.73614 -0.42689
 O48 O -0.26660 0.68626 -0.57576
 O49 O -0.21168 0.73614 -0.57535
 O50 O -0.26670 0.68643 -0.42659
 Cu51 Cu -0.26438 0.80493 -0.50154
 Cu52 Cu -0.23697 0.70266 -0.50115
 C53 C -0.28766 0.72042 -0.40148
 C54 C -0.21329 0.78755 -0.60032
 C55 C -0.28755 0.72017 -0.60114
 C56 C -0.21356 0.78753 -0.40223
 O57 O -0.04339 0.90144 0.14345
 O58 O -0.07802 0.95249 0.06896
 C59 C -0.07149 0.91649 0.12341
 O60 O 0.04447 1.10494 0.13567
 O61 O 0.07906 1.05026 0.06572
 C62 C 0.07258 1.08937 0.11620
 O63 O -0.04331 1.09971 0.14302
 O64 O -0.07799 1.04853 0.06882
 C65 C -0.07143 1.08456 0.12312
 O66 O 0.04438 0.89645 0.13644
 O67 O 0.07902 0.95107 0.06619
 C68 C 0.07250 0.91204 0.11694
 Zr69 Zr 0.00042 0.92763 0.09773
 O70 O 0.00376 0.92471 0.21875
 O71 O -0.00314 0.83665 0.09321
 Zr72 Zr 0.00047 1.07365 0.09723
 O73 O 0.00383 1.07699 0.21821
 O74 O -0.00306 1.16461 0.09192
 O75 O -0.02742 1.00063 0.11267
 O76 O 0.02750 1.00067 0.11178
 O77 O 0.04450 0.89621 -0.13342
 O78 O 0.07908 0.95094 -0.06345
 C79 C 0.07260 0.91182 -0.11393
 O80 O -0.04320 1.09950 -0.14140
 O81 O -0.07793 1.04846 -0.06690
 C82 C -0.07133 1.08440 -0.12141
 O83 O 0.04454 1.10461 -0.13433
 O84 O 0.07910 1.05010 -0.06400
 C85 C 0.07263 1.08905 -0.11485
 O86 O -0.04325 0.90139 -0.14093
 O87 O -0.07796 0.95248 -0.06675
 C88 C -0.07138 0.91651 -0.12109
 Zr89 Zr 0.00050 0.92744 -0.09500
 O90 O 0.00395 0.92399 -0.21597
 O91 O -0.00312 0.83648 -0.08960
 Zr92 Zr 0.00054 1.07348 -0.09549
 O93 O 0.00395 1.07665 -0.21649
 O94 O -0.00296 1.16444 -0.09068
 Zr95 Zr -0.04655 1.00051 0.00108
 Zr96 Zr 0.04729 1.00058 0.00112
 O97 O 0.02757 1.00045 -0.10954
 O98 O -0.02732 1.00043 -0.11048
 O99 O 0.02868 0.91633 0.00142
 O100 O -0.02707 1.08391 0.00082
 O101 O -0.02712 0.91715 0.00136
 O102 O 0.02874 1.08480 0.00083
 H103 H 0.04131 1.00073 0.15744
 H104 H -0.04148 1.11738 0.00073
 H105 H 0.04140 1.00039 -0.15522
 H106 H -0.04155 0.88365 0.00141
 H107 H 0.01621 1.17936 0.06706
 H108 H 0.01635 1.17922 -0.06613
 H109 H -0.01143 1.04884 -0.23721
 H110 H -0.01126 0.95201 -0.23690
 H111 H 0.01616 0.82174 -0.06489
 H112 H 0.01607 0.82188 0.06822
 H113 H -0.01180 0.95217 0.23940
 H114 H -0.01149 1.04907 0.23908
 O115 O 0.45656 0.40106 0.14191
 O116 O 0.42179 0.45144 0.06697
 C117 C 0.42840 0.41579 0.12178
 O118 O 0.54423 0.60329 0.13445
 O119 O 0.57885 0.54908 0.06391
 C120 C 0.57235 0.58791 0.11478
 O121 O 0.45645 0.59846 0.14117
 O122 O 0.42176 0.54730 0.06701
 C123 C 0.42834 0.58328 0.12134
 O124 O 0.54418 0.39511 0.13337
 O125 O 0.57882 0.44999 0.06338
 C126 C 0.57231 0.41078 0.11391
 Zr127 Zr 0.50023 0.42596 0.09426
 O128 O 0.50134 0.41606 0.21475
 O129 O 0.49898 0.33563 0.07976
 Zr130 Zr 0.50023 0.57206 0.09580
 O131 O 0.50322 0.57336 0.21695
 O132 O 0.49686 0.66308 0.09259
 O133 O 0.47247 0.49892 0.11036
 O134 O 0.52732 0.49901 0.10941
 O135 O 0.54406 0.39556 -0.13655
 O136 O 0.57868 0.45025 -0.06665
 C137 C 0.57217 0.41121 -0.11725
 O138 O 0.45645 0.59923 -0.14270
 O139 O 0.42175 0.54776 -0.06864
 C140 C 0.42833 0.58398 -0.12285
 O141 O 0.54419 0.60457 -0.13555
 O142 O 0.57879 0.54978 -0.06574
 C143 C 0.57230 0.58900 -0.11618
 O144 O 0.45640 0.40077 -0.14347
 O145 O 0.42173 0.45181 -0.06912
 C146 C 0.42829 0.41589 -0.12354
 Zr147 Zr 0.50018 0.42708 -0.09800
 O148 O 0.50356 0.42532 -0.21907
 O149 O 0.49701 0.33604 -0.09435
 Zr150 Zr 0.50022 0.57312 -0.09698
 O151 O 0.50361 0.57707 -0.21793
 O152 O 0.49666 0.66404 -0.09117
 Zr153 Zr 0.45318 0.49955 -0.00107
 Zr154 Zr 0.54706 0.49976 -0.00120
 O155 O 0.52729 0.50020 -0.11181
 O156 O 0.47235 0.50014 -0.11267
 O157 O 0.52850 0.41553 -0.00190
 O158 O 0.47267 0.58292 -0.00049
 O159 O 0.47248 0.41613 -0.00170
 O160 O 0.52844 0.58391 -0.00055
 H161 H 0.54123 0.49893 0.15487
 H162 H 0.45829 0.61645 -0.00033
 H163 H 0.54112 0.50038 -0.15747
 H164 H 0.45799 0.38270 -0.00163
 H165 H 0.51578 0.67795 0.06631
 H166 H 0.51599 0.67873 -0.06666
 H167 H 0.48852 0.54885 -0.23889
 H168 H 0.48750 0.45193 -0.23947
 H169 H 0.51480 0.32179 -0.06325
 H170 H 0.49849 0.31904 0.13210
 H171 H 0.50477 0.45477 0.23661
 H172 H 0.48696 0.54681 0.23691
 C173 C 0.35599 0.34951 0.24673
 C174 C 0.33166 0.38571 0.27053
 C175 C 0.30813 0.36477 0.31902
 C176 C 0.30867 0.30713 0.34486
 C177 C 0.33292 0.27075 0.31875
 C178 C 0.35638 0.29189 0.27024
 C179 C 0.38128 0.37213 0.20100
 C180 C 0.40273 0.39165 0.16415
 H181 H 0.33117 0.43045 0.25269
 H182 H 0.28992 0.39419 0.33743
 H183 H 0.33422 0.22616 0.33692
 H184 H 0.37513 0.26351 0.25215
 C185 C -0.14392 0.84986 0.24772
 C186 C -0.16828 0.88602 0.27146
 C187 C -0.19173 0.86510 0.32018
 C188 C -0.19107 0.80754 0.34629
 C189 C -0.16681 0.77119 0.32022
 C190 C -0.14343 0.79230 0.27148
 C191 C -0.11867 0.87254 0.20203
 C192 C -0.09721 0.89217 0.16535
 H193 H -0.16884 0.93071 0.25344
 H194 H -0.20996 0.89449 0.33855
 H195 H -0.16543 0.72666 0.33861
 H196 H -0.12464 0.76398 0.25346
 C197 C 0.64397 0.65731 0.23886
 C198 C 0.66823 0.62132 0.26378
 C199 C 0.69096 0.64213 0.31445
 C200 C 0.68966 0.69931 0.34110
 C201 C 0.66556 0.73554 0.31436
 C202 C 0.64285 0.71459 0.26367
 C203 C 0.61920 0.63431 0.19192
 C204 C 0.59801 0.61386 0.15514
 H205 H 0.66924 0.57680 0.24526
 H206 H 0.70918 0.61311 0.33387
 H207 H 0.66387 0.77974 0.33374
 H208 H 0.62407 0.74275 0.24506
 C209 C 0.14437 1.15857 0.23973
 C210 C 0.16854 1.12239 0.26459
 C211 C 0.19132 1.14295 0.31526
 C212 C 0.19020 1.20020 0.34228
 C213 C 0.16615 1.23662 0.31515
 C214 C 0.14341 1.21584 0.26446
 C215 C 0.11951 1.13575 0.19297
 C216 C 0.09826 1.11537 0.15637
 H217 H 0.16942 1.07787 0.24603
 H218 H 0.20941 1.11351 0.33436
 H219 H 0.16443 1.28092 0.33418
 H220 H 0.12471 1.24415 0.24580
 C221 C 0.64375 0.34227 -0.24184
 C222 C 0.64263 0.28504 -0.26687
 C223 C 0.66533 0.26430 -0.31773
 C224 C 0.68943 0.30068 -0.34440
 C225 C 0.69072 0.35781 -0.31758
 C226 C 0.66800 0.37843 -0.26674
 C227 C 0.61899 0.36505 -0.19469
 C228 C 0.59782 0.38537 -0.15775
 H229 H 0.62386 0.25677 -0.24830
 H230 H 0.66366 0.22013 -0.33727
 H231 H 0.70893 0.38694 -0.33697
 H232 H 0.66899 0.42291 -0.24807
 C233 C 0.14429 0.84252 -0.23765
 C234 C 0.14316 0.78524 -0.26247
 C235 C 0.16584 0.76441 -0.31329
 C236 C 0.18992 0.80076 -0.34015
 C237 C 0.19125 0.85792 -0.31345
 C238 C 0.16854 0.87862 -0.26264
 C239 C 0.11949 0.86543 -0.19078
 C240 C 0.09828 0.88584 -0.15411
 H241 H 0.12438 0.75702 -0.24381
 H242 H 0.16414 0.72023 -0.33274
 H243 H 0.20945 0.88702 -0.33298
 H244 H 0.16954 0.92314 -0.24412
 C245 C 0.35606 0.65042 -0.24764
 C246 C 0.33171 0.61422 -0.27150
 C247 C 0.30832 0.63511 -0.32031
 C248 C 0.30902 0.69267 -0.34640
 C249 C 0.33329 0.72905 -0.32027
 C250 C 0.35661 0.70797 -0.27143
 C251 C 0.38124 0.62781 -0.20172
 C252 C 0.40265 0.60826 -0.16489
 H253 H 0.33110 0.56953 -0.25347
 H254 H 0.29009 0.60569 -0.33873
 H255 H 0.33471 0.77358 -0.33863
 H256 H 0.37539 0.73634 -0.25334
 C257 C -0.14352 1.15038 -0.24665
 C258 C -0.16758 1.11381 -0.27136
 C259 C -0.19091 1.13456 -0.32040
 C260 C -0.19040 1.19221 -0.34555
 C261 C -0.16648 1.22894 -0.31898
 C262 C -0.14319 1.20809 -0.26992
 C263 C -0.11836 1.12797 -0.20057
 C264 C -0.09698 1.10854 -0.16359
 H265 H -0.16798 1.06899 -0.25387
 H266 H -0.20896 1.10516 -0.33985
 H267 H -0.16540 1.27350 -0.33728
 H268 H -0.12461 1.23670 -0.25128
 C269 C 0.64394 0.65826 -0.24053
 C270 C 0.66817 0.62213 -0.26520
 C271 C 0.69087 0.64271 -0.31624
 C272 C 0.68955 0.69976 -0.34349
 C273 C 0.66549 0.73614 -0.31699
 C274 C 0.64281 0.71544 -0.26594
 C275 C 0.61915 0.63545 -0.19339
 C276 C 0.59795 0.61505 -0.15652
 H277 H 0.66916 0.57768 -0.24624
 H278 H 0.70908 0.61360 -0.33546
 H279 H 0.66381 0.78027 -0.33682
 H280 H 0.62404 0.74367 -0.24754
 C281 C 0.14402 1.15774 -0.24080
 C282 C 0.16814 1.12155 -0.26600
 C283 C 0.19067 1.14206 -0.31755
 C284 C 0.18931 1.19912 -0.34481
 C285 C 0.16534 1.23554 -0.31786
 C286 C 0.14283 1.21490 -0.26630
 C287 C 0.11940 1.13503 -0.19300
 C288 C 0.09829 1.11479 -0.15564
 H289 H 0.16917 1.07712 -0.24700
 H290 H 0.20880 1.11291 -0.33711
 H291 H 0.16362 1.27966 -0.33770
 H292 H 0.12414 1.24319 -0.24752
 C293 C 0.35609 0.34976 -0.24856
 C294 C 0.33202 0.38623 -0.27336
 C295 C 0.30870 0.36541 -0.32237
 C296 C 0.30924 0.30778 -0.34739
 C297 C 0.33316 0.27114 -0.32074
 C298 C 0.35644 0.29207 -0.27170
 C299 C 0.38123 0.37225 -0.20253
 C300 C 0.40262 0.39173 -0.16561
 H301 H 0.33159 0.43104 -0.25595
 H302 H 0.29064 0.39474 -0.34187
 H303 H 0.33426 0.22659 -0.33892
 H304 H 0.37503 0.26353 -0.25298
 C305 C -0.14351 0.85052 -0.24669
 C306 C -0.16750 0.88706 -0.27183
 C307 C -0.19080 0.86623 -0.32092
 C308 C -0.19033 0.80853 -0.34568
 C309 C -0.16648 0.77186 -0.31874
 C310 C -0.14322 0.79279 -0.26963
 C311 C -0.11840 0.87297 -0.20044
 C312 C -0.09703 0.89239 -0.16335
 H313 H -0.16788 0.93190 -0.25460
 H314 H -0.20880 0.89560 -0.34066
 H315 H -0.16542 0.72726 -0.33673
 H316 H -0.12470 0.76419 -0.25067
 C317 C 0.35620 0.64966 0.24640
 C318 C 0.35665 0.70738 0.26942
 C319 C 0.33342 0.72841 0.31854
 C320 C 0.30945 0.69186 0.34541
 C321 C 0.30880 0.63421 0.32049
 C322 C 0.33207 0.61327 0.27139
 C323 C 0.38131 0.62705 0.20032
 C324 C 0.40268 0.60749 0.16340
 H325 H 0.37528 0.73585 0.25056
 H326 H 0.33461 0.77298 0.33664
 H327 H 0.29070 0.60494 0.34015
 H328 H 0.33156 0.56845 0.25407
 C329 C -0.14380 1.15073 0.24783
 C330 C -0.16810 1.11442 0.27189
 C331 C -0.19153 1.13522 0.32063
 C332 C -0.19093 1.19281 0.34644
 C333 C -0.16671 1.22930 0.32009
 C334 C -0.14334 1.20831 0.27133
 C335 C -0.11857 1.12822 0.20198
 C336 C -0.09713 1.10874 0.16517
 H337 H -0.16863 1.06971 0.25408
 H338 H -0.20972 1.10572 0.33923
 H339 H -0.16537 1.27385 0.33824
 H340 H -0.12460 1.23676 0.25307
 C341 C 0.64402 0.34174 0.23784
 C342 C 0.64294 0.28449 0.26300
 C343 C 0.66567 0.26379 0.31379
 C344 C 0.68974 0.30023 0.34027
 C345 C 0.69101 0.35736 0.31324
 C346 C 0.66826 0.37793 0.26246
 C347 C 0.61919 0.36453 0.19095
 C348 C 0.59796 0.38486 0.15424
 H349 H 0.62418 0.25620 0.24462
 H350 H 0.66402 0.21962 0.33348
 H351 H 0.70920 0.38652 0.33247
 H352 H 0.66921 0.42243 0.24368
 C353 C 0.14400 0.84288 0.24164
 C354 C 0.16829 0.87892 0.26637
 C355 C 0.19095 0.85820 0.31730
 C356 C 0.18955 0.80110 0.34440
 C357 C 0.16540 0.76484 0.31791
 C358 C 0.14276 0.78568 0.26696
 C359 C 0.11928 0.86578 0.19442
 C360 C 0.09814 0.88616 0.15745
 H361 H 0.16937 0.92338 0.24748
 H362 H 0.20921 0.88724 0.33653
 H363 H 0.16364 0.72070 0.33765
 H364 H 0.12395 0.75751 0.24852
   
