data_POSCAR
  _audit_creation_date              2014-09-24
  _audit_creation_method            'ToBaCCo'
  _symmetry_space_group_name_H-M    'P1'
  _symmetry_Int_Tables_number       1
  _symmetry_cell_setting            triclinic
  loop_
  _symmetry_equiv_pos_as_xyz
 x,y,z
_cell_length_a 27.5289
_cell_length_b 27.6283
_cell_length_c 27.6071
_cell_angle_alpha 103.510700
_cell_angle_beta 76.220200
_cell_angle_gamma 76.583800
loop_
  _atom_site_label
  _atom_site_type_symbol
  _atom_site_fract_x
  _atom_site_fract_y
  _atom_site_fract_z
C1 C 0.51181 0.47628 0.00348
 C2 C 0.47446 0.51335 -0.00394
 C3 C 0.42239 0.50721 -0.00491
 C4 C 0.48323 0.56288 -0.01045
 C5 C 0.56170 0.48497 0.00939
 C6 C 0.50569 0.42451 0.00492
 C7 C 0.40365 0.51507 -0.04644
 C8 C 0.35335 0.51309 -0.04628
 C9 C 0.32094 0.50353 -0.00439
 C10 C 0.33952 0.49531 0.03707
 C11 C 0.38990 0.49731 0.03689
 C12 C 0.52625 0.56256 -0.05019
 C13 C 0.53348 0.60964 -0.05599
 C14 C 0.49754 0.65736 -0.02245
 C15 C 0.45436 0.65782 0.01678
 C16 C 0.44714 0.61089 0.02264
 C17 C 0.56160 0.52784 0.04873
 C18 C 0.60901 0.53486 0.05413
 C19 C 0.65687 0.49887 0.02058
 C20 C 0.65712 0.45589 -0.01829
 C21 C 0.60986 0.44888 -0.02375
 C22 C 0.51371 0.40597 0.04653
 C23 C 0.51185 0.35590 0.04670
 C24 C 0.50224 0.32363 0.00512
 C25 C 0.49384 0.34192 -0.03637
 C26 C 0.49572 0.39206 -0.03659
 H27 H 0.42791 0.52315 -0.07882
 H28 H 0.33964 0.51972 -0.07859
 H29 H 0.31490 0.48818 0.06997
 H30 H 0.40311 0.49227 0.06984
 H31 H 0.55399 0.52593 -0.07674
 H32 H 0.56691 0.60883 -0.08662
 H33 H 0.41358 0.61196 0.05329
 H34 H 0.52488 0.55559 0.07533
 H35 H 0.60836 0.56813 0.08450
 H36 H 0.69389 0.42775 -0.04440
 H37 H 0.61079 0.41543 -0.05410
 H38 H 0.52186 0.43020 0.07869
 H39 H 0.51861 0.34211 0.07889
 H40 H 0.48673 0.31714 -0.06893
 H41 H 0.49056 0.40509 -0.06962
 H42 H 0.42626 0.69450 0.04288
 C43 C -0.00093 0.52773 0.53086
 C44 C -0.00777 0.49025 0.49355
 C45 C -0.00982 0.43891 0.50027
 C46 C -0.01285 0.49794 0.44335
 C47 C 0.00428 0.57777 0.52268
 C48 C 0.00087 0.52119 0.58234
 C49 C 0.03182 0.40609 0.50971
 C50 C 0.03057 0.35655 0.51275
 C51 C -0.01209 0.33930 0.50605
 C52 C -0.05374 0.37193 0.49687
 C53 C -0.05255 0.42140 0.49384
 C54 C 0.02118 0.46134 0.39596
 C55 C 0.01601 0.46667 0.34828
 C56 C -0.02344 0.50844 0.34738
 C57 C -0.05771 0.54509 0.39446
 C58 C -0.05259 0.53977 0.44233
 C59 C -0.02971 0.62519 0.55910
 C60 C -0.02511 0.67270 0.55258
 C61 C 0.01373 0.67341 0.50979
 C62 C 0.04815 0.62629 0.47349
 C63 C 0.04362 0.57862 0.48001
 C64 C -0.04067 0.51108 0.61503
 C65 C -0.03910 0.50679 0.66414
 C66 C 0.00377 0.51295 0.68115
 C67 C 0.04515 0.52320 0.64883
 C68 C 0.04364 0.52747 0.59974
 H69 H 0.06561 0.41845 0.51370
 H70 H 0.06318 0.33142 0.51950
 H71 H -0.08681 0.35887 0.49139
 H72 H -0.08482 0.44600 0.48614
 H73 H 0.05183 0.42866 0.39598
 H74 H 0.04268 0.43807 0.31208
 H75 H -0.07983 0.56784 0.47851
 H76 H -0.06006 0.62536 0.59239
 H77 H -0.05187 0.70892 0.58094
 H78 H 0.07850 0.62641 0.44036
 H79 H 0.07085 0.54245 0.45204
 H80 H -0.07450 0.50718 0.60278
 H81 H -0.07153 0.49926 0.68906
 H82 H 0.07835 0.52832 0.66173
 H83 H 0.07584 0.53566 0.57525
 H84 H -0.08850 0.57746 0.39415
 C85 C 0.52899 -0.00172 0.46928
 C86 C 0.49127 -0.00788 0.50729
 C87 C 0.49880 -0.01198 0.55792
 C88 C 0.43969 -0.01001 0.50097
 C89 C 0.52251 -0.00072 0.41752
 C90 C 0.57916 0.00387 0.47711
 C91 C 0.54079 -0.05108 0.55967
 C92 C 0.54572 -0.05554 0.60790
 C93 C 0.50849 -0.02121 0.65475
 C94 C 0.46660 0.01771 0.65309
 C95 C 0.46170 0.02218 0.60502
 C96 C 0.42193 -0.05229 0.50830
 C97 C 0.37229 -0.05358 0.50540
 C98 C 0.33977 -0.01249 0.49545
 C99 C 0.35724 0.02974 0.48793
 C100 C 0.40694 0.03110 0.49085
 C101 C 0.52931 0.04123 0.39896
 C102 C 0.52513 0.04202 0.34967
 C103 C 0.51442 0.00073 0.31817
 C104 C 0.50775 -0.04135 0.33632
 C105 C 0.51196 -0.04220 0.38566
 C106 C 0.57980 0.04366 0.51912
 C107 C 0.62758 0.04850 0.52544
 C108 C 0.67506 0.01388 0.48955
 C109 C 0.67453 -0.02541 0.44734
 C110 C 0.62688 -0.03027 0.44106
 H111 H 0.56926 -0.07843 0.52377
 H112 H 0.57824 -0.08597 0.60856
 H113 H 0.43746 0.04452 0.68895
 H114 H 0.42889 0.05235 0.60451
 H115 H 0.44649 -0.08413 0.51654
 H116 H 0.35904 -0.08630 0.51152
 H117 H 0.41950 0.06454 0.48616
 H118 H 0.53784 0.07339 0.42274
 H119 H 0.53063 0.07464 0.33596
 H120 H 0.49985 -0.07372 0.31212
 H121 H 0.50765 -0.07544 0.39874
 H122 H 0.54338 0.07100 0.54676
 H123 H 0.62740 0.07923 0.55815
 H124 H 0.71094 -0.05240 0.41922
 H125 H 0.62717 -0.06096 0.40827
 H126 H 0.33218 0.06192 0.48059
 O127 O 0.46978 -0.00989 -0.07212
 O128 O 0.46691 0.00564 0.06500
 O129 O 0.46589 0.06664 0.00535
 O130 O 0.46896 -0.07029 -0.01206
 O131 O 0.55577 -0.09511 -0.03710
 O132 O 0.55270 0.04225 -0.01988
 O133 O 0.55371 -0.01885 0.03979
 O134 O 0.55659 -0.03459 -0.09720
 Cu135 Cu 0.45916 0.00049 -0.00094
 Cu136 Cu 0.56344 -0.02902 -0.03109
 C137 C 0.51365 -0.02440 -0.10772
 C138 C 0.50993 -0.00453 0.07544
 C139 C 0.50874 0.07754 -0.00487
 C140 C 0.51272 -0.10574 -0.02699
 O141 O -0.09432 0.55580 1.03545
 O142 O 0.04345 0.55273 1.01976
 O143 O -0.01658 0.55322 0.95911
 O144 O -0.03488 0.55696 1.09650
 O145 O -0.01018 0.47056 1.07216
 O146 O 0.00794 0.46682 0.93466
 O147 O 0.06788 0.46634 0.99530
 O148 O -0.06950 0.46941 1.01115
 Cu149 Cu -0.02802 0.56340 1.03013
 Cu150 Cu 0.00152 0.45958 1.00087
 C151 C -0.10502 0.51297 1.02546
 C152 C 0.07884 0.50899 1.00536
 C153 C -0.00184 0.50950 0.92379
 C154 C -0.02516 0.51435 1.10745
 O155 O 0.02398 -0.07698 0.45527
 O156 O 0.00780 0.06017 0.45893
 O157 O 0.08449 -0.01684 0.45513
 O158 O -0.05277 0.00005 0.45814
 O159 O -0.07802 0.02434 0.54474
 O160 O 0.05950 0.00762 0.54174
 O161 O -0.01739 0.08442 0.54554
 O162 O -0.00105 -0.05248 0.54187
 Cu163 Cu 0.01833 -0.01087 0.44812
 Cu164 Cu -0.01181 0.01837 0.55223
 C165 C 0.01388 -0.08778 0.49808
 C166 C -0.00693 0.09533 0.50284
 C167 C 0.09509 -0.00686 0.49794
 C168 C -0.08850 0.01466 0.50182
 C169 C -0.29401 0.50547 1.02567
 C170 C -0.25195 0.50946 1.02835
 C171 C -0.20169 0.51238 1.02954
 C172 C -0.15797 0.51343 1.02875
 C173 C 0.27307 0.50384 0.99667
 C174 C 0.22877 0.50474 0.99774
 C175 C 0.17671 0.50627 0.99945
 C176 C 0.13210 0.50764 1.00161
 C177 C 0.01781 -0.27723 0.50369
 C178 C 0.01955 -0.23496 0.50019
 C179 C 0.01962 -0.18450 0.49787
 C180 C 0.01796 -0.14068 0.49726
 C181 C -0.01241 0.28748 0.50670
 C182 C -0.01244 0.24382 0.50641
 C183 C -0.01182 0.19240 0.50540
 C184 C -0.01031 0.14822 0.50425
 C185 C 0.51228 -0.02549 -0.29800
 C186 C 0.51416 -0.02782 -0.25537
 C187 C 0.51488 -0.02865 -0.20458
 C188 C 0.51462 -0.02768 -0.16062
 C189 C 0.51176 0.00097 0.26673
 C190 C 0.51027 0.00097 0.22341
 C191 C 0.50935 0.00034 0.17231
 C192 C 0.50925 -0.00114 0.12832
 C193 C 0.50448 -0.29388 -0.02778
 C194 C 0.50874 -0.25207 -0.03055
 C195 C 0.51193 -0.20207 -0.03169
 C196 C 0.51313 -0.15851 -0.03071
 C197 C 0.50283 0.27117 0.00427
 C198 C 0.50401 0.22703 0.00330
 C199 C 0.50581 0.17513 0.00156
 C200 C 0.50733 0.13065 -0.00076
 C201 C -0.27815 0.01796 0.49529
 C202 C -0.23587 0.01999 0.49896
 C203 C -0.18539 0.02031 0.50154
 C204 C -0.14151 0.01876 0.50237
 C205 C 0.28783 -0.01292 0.49477
 C206 C 0.24404 -0.01293 0.49497
 C207 C 0.19247 -0.01218 0.49581
 C208 C 0.14814 -0.01050 0.49678
 C209 C -0.02834 0.51298 1.29782
 C210 C -0.03059 0.51508 1.25529
 C211 C -0.03100 0.51590 1.20453
 C212 C -0.02941 0.51558 1.16049
 C213 C 0.00459 0.51037 0.73240
 C214 C 0.00480 0.50902 0.77565
 C215 C 0.00409 0.50834 0.82673
 C216 C 0.00225 0.50848 0.87080
   
