data_POSCAR
  _audit_creation_date              2014-09-24
  _audit_creation_method            'ToBaCCo'
  _symmetry_space_group_name_H-M    'P1'
  _symmetry_Int_Tables_number       1
  _symmetry_cell_setting            triclinic
  loop_
  _symmetry_equiv_pos_as_xyz
 x,y,z
_cell_length_a 36.7991
_cell_length_b 40.5973
_cell_length_c 39.6482
_cell_angle_alpha 89.840200
_cell_angle_beta 88.374500
_cell_angle_gamma 90.996300
loop_
  _atom_site_label
  _atom_site_type_symbol
  _atom_site_fract_x
  _atom_site_fract_y
  _atom_site_fract_z
C1 C 0.24742 0.24598 0.24864
 C2 C 0.73950 0.75043 0.25761
 C3 C 0.75868 0.24600 0.74880
 C4 C 0.25202 0.74019 0.75574
 C5 C 0.05744 0.04077 0.00808
 H6 H 0.06052 0.03946 -0.01910
 C7 C 0.08053 0.06131 0.02633
 H8 H 0.10137 0.07582 0.01304
 C9 C 0.02584 0.02412 0.05836
 H10 H 0.00420 0.00997 0.07074
 C11 C 0.04800 0.04463 0.07751
 H12 H 0.04359 0.04558 0.10461
 N13 N 0.03108 0.02233 0.02431
 C14 C 0.00719 -0.05671 -0.04691
 H15 H -0.02215 -0.05538 -0.04672
 C16 C 0.02491 -0.07916 -0.06796
 H17 H 0.00907 -0.09520 -0.08390
 C18 C 0.06347 -0.03741 -0.02627
 H19 H 0.07840 -0.02124 -0.00987
 C20 C 0.08229 -0.05986 -0.04660
 H21 H 0.11168 -0.06038 -0.04608
 Zn22 Zn -0.00006 -0.00450 -0.00177
 N23 N 0.02663 -0.03572 -0.02739
 C24 C -0.02398 0.01920 -0.06485
 N25 N -0.02561 0.02356 -0.03083
 C26 C -0.04562 0.04805 -0.01667
 C27 C -0.06640 0.06835 -0.03680
 C28 C -0.04457 0.03868 -0.08585
 C29 C -0.01913 -0.05088 0.04814
 C30 C -0.04207 -0.06995 0.06930
 C31 C -0.09365 -0.04331 0.04544
 C32 C -0.06972 -0.02477 0.02470
 N33 N -0.03319 -0.02860 0.02665
 H34 H -0.00695 0.00051 -0.07589
 H35 H -0.04602 0.05133 0.01041
 H36 H -0.08297 0.08714 -0.02506
 H37 H -0.04331 0.03459 -0.11283
 H38 H 0.01001 -0.05372 0.04887
 H39 H -0.03029 -0.08714 0.08664
 H40 H -0.12265 -0.04015 0.04328
 H41 H -0.08047 -0.00763 0.00682
 C42 C 0.06297 -0.08063 -0.06824
 C43 C 0.07585 0.06346 0.06151
 C44 C -0.07990 -0.06625 0.06816
 C45 C -0.06649 0.06333 -0.07181
 C46 C 0.04848 0.56044 0.50778
 H47 H 0.04797 0.56384 0.48072
 C48 C 0.06845 0.58232 0.52740
 H49 H 0.08278 0.60273 0.51509
 C50 C 0.02878 0.53049 0.55646
 H51 H 0.01285 0.51066 0.56786
 C52 C 0.04893 0.55141 0.57699
 H53 H 0.04891 0.54659 0.60385
 N54 N 0.02937 0.53501 0.52244
 C55 C 0.01881 0.45885 0.44598
 H56 H -0.01049 0.45665 0.44513
 C57 C 0.04060 0.43827 0.42620
 H58 H 0.02784 0.42051 0.40978
 C59 C 0.07091 0.48491 0.46842
 H60 H 0.08258 0.50279 0.48529
 C61 C 0.09374 0.46490 0.44895
 H62 H 0.12291 0.46758 0.45108
 Zn63 Zn 0.00250 0.50747 0.49337
 N64 N 0.03418 0.48168 0.46643
 C65 C -0.01900 0.53648 0.43194
 N66 N -0.02483 0.53545 0.46597
 C67 C -0.04895 0.55578 0.48161
 C68 C -0.06917 0.57763 0.46279
 C69 C -0.03827 0.55832 0.41220
 C70 C -0.01313 0.45602 0.53912
 C71 C -0.03480 0.43434 0.55868
 C72 C -0.08790 0.45687 0.53335
 C73 C -0.06522 0.47838 0.51457
 N74 N -0.02859 0.47808 0.51830
 H75 H 0.00090 0.52069 0.42008
 H76 H -0.05243 0.55495 0.50879
 H77 H -0.08829 0.59363 0.47561
 H78 H -0.03349 0.55878 0.38513
 H79 H 0.01614 0.45569 0.54097
 H80 H -0.02188 0.41793 0.57605
 H81 H -0.11694 0.45744 0.52979
 H82 H -0.07699 0.49512 0.49691
 C83 C 0.07862 0.44114 0.42753
 C84 C 0.06919 0.57784 0.56257
 C85 C -0.07282 0.43475 0.55618
 C86 C -0.06383 0.57910 0.42765
 C87 C 0.54226 0.05891 0.51619
 H88 H 0.54552 0.05838 0.48899
 C89 C 0.56244 0.08147 0.53491
 H90 H 0.58125 0.09837 0.52202
 C91 C 0.51348 0.03773 0.56612
 H92 H 0.49424 0.02078 0.57820
 C93 C 0.53266 0.06017 0.58573
 H94 H 0.52841 0.05996 0.61287
 N95 N 0.51890 0.03720 0.53204
 C96 C 0.51026 -0.04528 0.46207
 H97 H 0.48102 -0.04792 0.46089
 C98 C 0.53264 -0.06628 0.44336
 H99 H 0.52026 -0.08455 0.42728
 C100 C 0.56160 -0.01782 0.48420
 H101 H 0.57284 0.00061 0.50066
 C102 C 0.58500 -0.03849 0.46617
 H103 H 0.61404 -0.03557 0.46905
 Zn104 Zn 0.49267 0.00653 0.50582
 N105 N 0.52496 -0.02113 0.48137
 C106 C 0.46495 0.02526 0.44227
 N107 N 0.46337 0.03064 0.47614
 C108 C 0.44140 0.05404 0.48975
 C109 C 0.41922 0.07256 0.46916
 C110 C 0.44291 0.04291 0.42084
 C111 C 0.48151 -0.04295 0.55383
 C112 C 0.46224 -0.06407 0.57595
 C113 C 0.40641 -0.03976 0.55819
 C114 C 0.42674 -0.01935 0.53606
 N115 N 0.46364 -0.02103 0.53462
 H116 H 0.48331 0.00738 0.43167
 H117 H 0.44105 0.05819 0.51670
 H118 H 0.40157 0.09080 0.48044
 H119 H 0.44447 0.03827 0.39396
 H120 H 0.51086 -0.04384 0.55204
 H121 H 0.47693 -0.08110 0.59135
 H122 H 0.37705 -0.03812 0.55917
 H123 H 0.41300 -0.00213 0.52024
 C124 C 0.57063 -0.06293 0.44508
 C125 C 0.55775 0.08218 0.57015
 C126 C 0.42421 -0.06244 0.57848
 C127 C 0.41960 0.06683 0.43426
 C128 C 0.56022 0.54604 0.01200
 H129 H 0.56507 0.54536 -0.01502
 C130 C 0.58152 0.56655 0.03189
 H131 H 0.60291 0.58165 0.02015
 C132 C 0.52612 0.52744 0.06022
 H133 H 0.50424 0.51245 0.07110
 C134 C 0.54626 0.54818 0.08097
 H135 H 0.54018 0.54863 0.10786
 N136 N 0.53381 0.52636 0.02647
 C137 C 0.52293 0.44939 -0.04953
 H138 H 0.49380 0.44913 -0.05257
 C139 C 0.54478 0.42853 -0.06900
 H140 H 0.53231 0.41251 -0.08733
 C141 C 0.57456 0.47091 -0.02218
 H142 H 0.58608 0.48681 -0.00337
 C143 C 0.59740 0.45061 -0.04120
 H144 H 0.62635 0.45137 -0.03698
 Zn145 Zn 0.50683 0.49885 -0.00248
 N146 N 0.53813 0.47056 -0.02721
 C147 C 0.48738 0.52623 -0.06578
 N148 N 0.48208 0.52712 -0.03170
 C149 C 0.45999 0.54969 -0.01686
 C150 C 0.44169 0.57227 -0.03647
 C151 C 0.46945 0.54830 -0.08639
 C152 C 0.48697 0.45107 0.04578
 C153 C 0.46374 0.43030 0.06485
 C154 C 0.41296 0.45188 0.03503
 C155 C 0.43715 0.47247 0.01673
 N156 N 0.47337 0.47192 0.02261
 H157 H 0.50582 0.50876 -0.07707
 H158 H 0.45666 0.55010 0.01033
 H159 H 0.42381 0.58973 -0.02419
 H160 H 0.47416 0.54744 -0.11345
 H161 H 0.51595 0.45084 0.04963
 H162 H 0.47515 0.41459 0.08379
 H163 H 0.38431 0.45238 0.02958
 H164 H 0.42698 0.48855 -0.00246
 C165 C 0.58261 0.42934 -0.06526
 C166 C 0.57465 0.56764 0.06681
 C167 C 0.42612 0.43049 0.05963
 C168 C 0.44628 0.57173 -0.07174
 C169 C 0.22459 -0.25000 -0.18516
 C170 C 0.20270 -0.23168 -0.16313
 C171 C 0.18256 -0.20553 -0.17503
 C172 C 0.18351 -0.19844 -0.20966
 C173 C 0.20571 -0.21643 -0.23176
 C174 C 0.22866 -0.24150 -0.21990
 N175 N 0.16190 -0.18631 -0.15136
 N176 N 0.13968 -0.16463 -0.16063
 C177 C 0.12019 -0.14461 -0.13683
 C178 C 0.09206 -0.12506 -0.14816
 C179 C 0.07308 -0.10465 -0.12574
 C180 C 0.08239 -0.10310 -0.09164
 C181 C 0.11072 -0.12267 -0.08029
 C182 C 0.12934 -0.14344 -0.10265
 H183 H 0.23783 -0.27100 -0.17451
 H184 H 0.20121 -0.23809 -0.13659
 H185 H 0.16753 -0.17870 -0.21963
 H186 H 0.20577 -0.21018 -0.25834
 H187 H 0.08489 -0.12560 -0.17446
 H188 H 0.05161 -0.08955 -0.13518
 H189 H 0.11828 -0.12203 -0.05410
 H190 H 0.15115 -0.15820 -0.09334
 C191 C 0.19788 0.25485 0.29422
 C192 C 0.17767 0.27444 0.31648
 C193 C 0.18531 0.30814 0.31898
 C194 C 0.21428 0.32194 0.29964
 C195 C 0.23446 0.30243 0.27728
 C196 C 0.22549 0.26872 0.27280
 N197 N 0.16322 0.32781 0.34110
 N198 N 0.16919 0.35853 0.34489
 C199 C 0.14665 0.37846 0.36634
 C200 C 0.15563 0.41186 0.37005
 C201 C 0.13375 0.43220 0.39012
 C202 C 0.10229 0.41943 0.40675
 C203 C 0.09344 0.38581 0.40312
 C204 C 0.11544 0.36547 0.38314
 H205 H 0.19149 0.22874 0.29313
 H206 H 0.15589 0.26332 0.33179
 H207 H 0.22143 0.34781 0.30184
 H208 H 0.25739 0.31399 0.26408
 H209 H 0.17954 0.42219 0.35712
 H210 H 0.14106 0.45806 0.39213
 H211 H 0.06965 0.37517 0.41596
 H212 H 0.10793 0.33970 0.38070
 C213 C 0.68061 -0.23887 0.29285
 C214 C 0.66037 -0.22033 0.31600
 C215 C 0.67529 -0.19187 0.33013
 C216 C 0.71152 -0.18293 0.32209
 C217 C 0.73198 -0.20172 0.29925
 C218 C 0.71623 -0.22889 0.28252
 N219 N 0.65303 -0.17255 0.35237
 N220 N 0.66299 -0.14419 0.36253
 C221 C 0.64025 -0.12479 0.38430
 C222 C 0.65030 -0.09204 0.39052
 C223 C 0.62788 -0.07200 0.41040
 C224 C 0.59504 -0.08454 0.42477
 C225 C 0.58544 -0.11772 0.41902
 C226 C 0.60773 -0.13762 0.39886
 H227 H 0.66822 -0.26118 0.28331
 H228 H 0.63280 -0.22804 0.32280
 H229 H 0.72405 -0.16156 0.33354
 H230 H 0.76011 -0.19467 0.29417
 H231 H 0.67524 -0.08184 0.37935
 H232 H 0.63591 -0.04648 0.41384
 H233 H 0.56077 -0.12840 0.43020
 H234 H 0.59950 -0.16297 0.39463
 C235 C 0.70764 0.25138 -0.20643
 C236 C 0.68626 0.26935 -0.18364
 C237 C 0.69286 0.30301 -0.17919
 C238 C 0.72188 0.31840 -0.19716
 C239 C 0.74316 0.30052 -0.22010
 C240 C 0.73534 0.26693 -0.22649
 N241 N 0.66974 0.32104 -0.15648
 N242 N 0.67549 0.35141 -0.15037
 C243 C 0.65216 0.37001 -0.12840
 C244 C 0.66168 0.40274 -0.12149
 C245 C 0.63925 0.42191 -0.10076
 C246 C 0.60665 0.40864 -0.08671
 C247 C 0.59712 0.37571 -0.09367
 C248 C 0.61974 0.35649 -0.11427
 H249 H 0.70213 0.22523 -0.20897
 H250 H 0.66445 0.25700 -0.16940
 H251 H 0.72820 0.34425 -0.19347
 H252 H 0.76603 0.31322 -0.23226
 H253 H 0.68650 0.41347 -0.13238
 H254 H 0.64706 0.44731 -0.09621
 H255 H 0.57234 0.36477 -0.08295
 H256 H 0.61179 0.33122 -0.11932
 C257 C -0.19235 0.24012 -0.20731
 C258 C -0.17188 0.22200 -0.18494
 C259 C -0.17745 0.18803 -0.18163
 C260 C -0.20468 0.17244 -0.20021
 C261 C -0.22549 0.19057 -0.22235
 C262 C -0.21868 0.22463 -0.22746
 N263 N -0.15527 0.17001 -0.15919
 N264 N -0.15590 0.13868 -0.15815
 C265 C -0.13374 0.12047 -0.13588
 C266 C -0.13235 0.08624 -0.13934
 C267 C -0.11044 0.06771 -0.11856
 C268 C -0.08980 0.08316 -0.09364
 C269 C -0.09162 0.11750 -0.08983
 C270 C -0.11326 0.13608 -0.11093
 H271 H -0.18736 0.26643 -0.20924
 H272 H -0.15139 0.23443 -0.17032
 H273 H -0.21021 0.14629 -0.19732
 H274 H -0.24718 0.17771 -0.23489
 H275 H -0.14810 0.07394 -0.15839
 H276 H -0.10988 0.04123 -0.12173
 H277 H -0.07583 0.13000 -0.07094
 H278 H -0.11398 0.16253 -0.10774
 C279 C -0.25484 0.70247 0.29902
 C280 C -0.23526 0.68272 0.32064
 C281 C -0.19840 0.68915 0.32550
 C282 C -0.18162 0.71666 0.30976
 C283 C -0.20133 0.73680 0.28854
 C284 C -0.23784 0.72900 0.28121
 N285 N -0.17870 0.66738 0.34646
 N286 N -0.14414 0.66806 0.34709
 C287 C -0.12454 0.64610 0.36794
 C288 C -0.08684 0.64394 0.36311
 C289 C -0.06706 0.62205 0.38239
 C290 C -0.08472 0.60233 0.40723
 C291 C -0.12249 0.60489 0.41241
 C292 C -0.14231 0.62644 0.39279
 H293 H -0.28333 0.69666 0.29572
 H294 H -0.24873 0.66199 0.33325
 H295 H -0.15339 0.72278 0.31411
 H296 H -0.18777 0.75850 0.27806
 H297 H -0.07284 0.65901 0.34409
 H298 H -0.03792 0.62075 0.37815
 H299 H -0.13674 0.58981 0.43128
 H300 H -0.17144 0.62774 0.39705
 C301 C 0.29628 0.24007 0.29262
 C302 C 0.31625 0.22214 0.31553
 C303 C 0.30985 0.18838 0.31983
 C304 C 0.28229 0.17282 0.30163
 C305 C 0.26190 0.19081 0.27895
 C306 C 0.26949 0.22463 0.27293
 N307 N 0.33150 0.17063 0.34296
 N308 N 0.33057 0.13933 0.34490
 C309 C 0.35235 0.12170 0.36803
 C310 C 0.35439 0.08744 0.36525
 C311 C 0.37621 0.06958 0.38678
 C312 C 0.39599 0.08575 0.41184
 C313 C 0.39342 0.12011 0.41501
 C314 C 0.37195 0.13800 0.39316
 H315 H 0.30196 0.26622 0.28994
 H316 H 0.33702 0.23457 0.32983
 H317 H 0.27614 0.14686 0.30527
 H318 H 0.23991 0.17803 0.26678
 H319 H 0.33934 0.07459 0.34608
 H320 H 0.37743 0.04309 0.38403
 H321 H 0.40858 0.13319 0.43395
 H322 H 0.37072 0.16448 0.39587
 C323 C 0.28182 0.68431 -0.23706
 C324 C 0.30568 0.66396 -0.22035
 C325 C 0.32658 0.67622 -0.19427
 C326 C 0.32484 0.70973 -0.18607
 C327 C 0.30120 0.73027 -0.20290
 C328 C 0.27717 0.71770 -0.22737
 N329 N 0.34882 0.65396 -0.17628
 N330 N 0.36644 0.66272 -0.15055
 C331 C 0.38766 0.63994 -0.13213
 C332 C 0.40432 0.65058 -0.10273
 C333 C 0.42369 0.62855 -0.08325
 C334 C 0.42684 0.59542 -0.09302
 C335 C 0.41065 0.58493 -0.12293
 C336 C 0.39115 0.60696 -0.14229
 H337 H 0.26749 0.67350 -0.25784
 H338 H 0.30772 0.63836 -0.22765
 H339 H 0.34156 0.72003 -0.16656
 H340 H 0.30077 0.75608 -0.19606
 H341 H 0.40189 0.67593 -0.09467
 H342 H 0.43628 0.63743 -0.06058
 H343 H 0.41233 0.55951 -0.13092
 H344 H 0.37846 0.59811 -0.16492
 C345 C -0.20765 -0.24263 0.21456
 C346 C -0.18623 -0.22421 0.19154
 C347 C -0.19400 -0.19128 0.18517
 C348 C -0.22438 -0.17718 0.20130
 C349 C -0.24589 -0.19560 0.22434
 C350 C -0.23675 -0.22821 0.23289
 N351 N -0.17064 -0.17283 0.16231
 N352 N -0.17567 -0.14257 0.15572
 C353 C -0.15177 -0.12416 0.13327
 C354 C -0.15882 -0.09096 0.12719
 C355 C -0.13562 -0.07214 0.10594
 C356 C -0.10483 -0.08630 0.09041
 C357 C -0.09793 -0.11974 0.09645
 C358 C -0.12118 -0.13852 0.11766
 H359 H -0.20113 -0.26823 0.21843
 H360 H -0.16341 -0.23564 0.17863
 H361 H -0.23163 -0.15200 0.19598
 H362 H -0.26986 -0.18419 0.23510
 H363 H -0.18223 -0.07958 0.13917
 H364 H -0.14144 -0.04637 0.10212
 H365 H -0.07474 -0.13148 0.08449
 H366 H -0.11516 -0.16418 0.12190
 C367 C -0.17999 0.26038 0.71765
 C368 C -0.15921 0.27947 0.69468
 C369 C -0.17474 0.30558 0.67759
 C370 C -0.21187 0.31176 0.68276
 C371 C -0.23283 0.29245 0.70538
 C372 C -0.21698 0.26738 0.72458
 N373 N -0.15230 0.32528 0.65508
 N374 N -0.16335 0.35195 0.64230
 C375 C -0.14079 0.37173 0.61995
 C376 C -0.15227 0.40317 0.61118
 C377 C -0.13034 0.42358 0.59039
 C378 C -0.09658 0.41266 0.57759
 C379 C -0.08548 0.38073 0.58597
 C380 C -0.10728 0.36051 0.60709
 H381 H -0.16693 0.23983 0.72937
 H382 H -0.13080 0.27392 0.69022
 H383 H -0.22475 0.33133 0.66915
 H384 H -0.26157 0.29738 0.70837
 H385 H -0.17801 0.41212 0.62102
 H386 H -0.13954 0.44816 0.58497
 H387 H -0.06004 0.37124 0.57607
 H388 H -0.09797 0.33614 0.61330
 C389 C 0.29813 -0.25106 0.70851
 C390 C 0.32079 -0.23106 0.68802
 C391 C 0.32346 -0.19727 0.69389
 C392 C 0.30499 -0.18391 0.72191
 C393 C 0.28274 -0.20391 0.74284
 C394 C 0.27661 -0.23773 0.73533
 N395 N 0.34480 -0.17704 0.67095
 N396 N 0.34281 -0.14578 0.67107
 C397 C 0.36378 -0.12541 0.64797
 C398 C 0.35621 -0.09181 0.64606
 C399 C 0.37560 -0.07136 0.62327
 C400 C 0.40331 -0.08420 0.60231
 C401 C 0.41115 -0.11789 0.60450
 C402 C 0.39141 -0.13840 0.62700
 H403 H 0.29640 -0.27708 0.70271
 H404 H 0.33568 -0.24185 0.66698
 H405 H 0.30792 -0.15799 0.72779
 H406 H 0.27069 -0.19241 0.76489
 H407 H 0.33501 -0.08152 0.66211
 H408 H 0.36930 -0.04542 0.62232
 H409 H 0.43221 -0.12842 0.58848
 H410 H 0.39778 -0.16431 0.62805
 C411 C 0.30922 0.25773 0.21705
 C412 C 0.33084 0.27603 0.19405
 C413 C 0.31629 0.30222 0.17629
 C414 C 0.27919 0.30900 0.18053
 C415 C 0.25738 0.29044 0.20319
 C416 C 0.27237 0.26563 0.22337
 N417 N 0.33983 0.32161 0.15444
 N418 N 0.32978 0.34840 0.14113
 C419 C 0.35372 0.36796 0.11978
 C420 C 0.34283 0.39926 0.10979
 C421 C 0.36617 0.41952 0.09014
 C422 C 0.40085 0.40864 0.07982
 C423 C 0.41137 0.37686 0.08938
 C424 C 0.38813 0.35676 0.10928
 H425 H 0.32163 0.23723 0.22948
 H426 H 0.35920 0.26997 0.19028
 H427 H 0.26705 0.32861 0.16638
 H428 H 0.22877 0.29601 0.20572
 H429 H 0.31643 0.40821 0.11781
 H430 H 0.35733 0.44398 0.08369
 H431 H 0.43753 0.36739 0.08134
 H432 H 0.39707 0.33253 0.11646
 C433 C 0.18546 0.23220 0.22131
 C434 C 0.16412 0.21310 0.20002
 C435 C 0.17933 0.18746 0.18131
 C436 C 0.21661 0.18143 0.18357
 C437 C 0.23797 0.20030 0.20512
 C438 C 0.22257 0.22518 0.22563
 N439 N 0.15623 0.16787 0.16055
 N440 N 0.16851 0.14637 0.14009
 C441 C 0.14484 0.12636 0.12023
 C442 C 0.15988 0.10622 0.09506
 C443 C 0.13749 0.08607 0.07563
 C444 C 0.09962 0.08540 0.08146
 C445 C 0.08459 0.10562 0.10677
 C446 C 0.10695 0.12604 0.12588
 H447 H 0.17260 0.25271 0.23382
 H448 H 0.13557 0.21854 0.19782
 H449 H 0.22918 0.16203 0.16892
 H450 H 0.26669 0.19517 0.20623
 H451 H 0.18904 0.10614 0.09052
 H452 H 0.14980 0.07052 0.05648
 H453 H 0.05547 0.10582 0.11157
 H454 H 0.09464 0.14130 0.14526
 C455 C 0.20270 0.69725 0.74976
 C456 C 0.17819 0.67899 0.73071
 C457 C 0.17530 0.68512 0.69626
 C458 C 0.19537 0.71126 0.68143
 C459 C 0.21931 0.73005 0.70051
 C460 C 0.22561 0.72209 0.73476
 N461 N 0.15225 0.66432 0.67670
 N462 N 0.15603 0.66283 0.64474
 C463 C 0.13349 0.64212 0.62463
 C464 C 0.14471 0.63539 0.59144
 C465 C 0.12402 0.61447 0.57137
 C466 C 0.09110 0.60037 0.58395
 C467 C 0.07958 0.60780 0.61722
 C468 C 0.10073 0.62824 0.63748
 H469 H 0.20467 0.69129 0.77628
 H470 H 0.16214 0.65939 0.74266
 H471 H 0.19232 0.71735 0.65507
 H472 H 0.23258 0.75083 0.68796
 H473 H 0.17001 0.64588 0.58132
 H474 H 0.13425 0.60891 0.54621
 H475 H 0.05406 0.59810 0.62761
 H476 H 0.09134 0.63343 0.66301
 C477 C 0.75227 0.20149 0.70368
 C478 C 0.73235 0.18285 0.68086
 C479 C 0.69513 0.18771 0.67777
 C480 C 0.67819 0.21239 0.69693
 C481 C 0.69813 0.23133 0.71949
 C482 C 0.73530 0.22518 0.72460
 N483 N 0.67516 0.16738 0.65508
 N484 N 0.64059 0.16754 0.65459
 C485 C 0.62036 0.14709 0.63223
 C486 C 0.58261 0.14441 0.63701
 C487 C 0.56217 0.12354 0.61664
 C488 C 0.57920 0.10537 0.59076
 C489 C 0.61700 0.10872 0.58541
 C490 C 0.63749 0.12926 0.60612
 H491 H 0.78111 0.19715 0.70538
 H492 H 0.74592 0.16433 0.66573
 H493 H 0.64962 0.21734 0.69416
 H494 H 0.68419 0.25107 0.73233
 H495 H 0.56910 0.15811 0.65698
 H496 H 0.53303 0.12160 0.62107
 H497 H 0.63077 0.09479 0.56576
 H498 H 0.66665 0.13105 0.60187
 C499 C 0.68608 0.74328 0.21791
 C500 C 0.66505 0.72480 0.19582
 C501 C 0.67469 0.69269 0.18734
 C502 C 0.70598 0.67928 0.20093
 C503 C 0.72661 0.69745 0.22359
 C504 C 0.71615 0.72935 0.23374
 N505 N 0.65226 0.67410 0.16515
 N506 N 0.66346 0.64810 0.15067
 C507 C 0.64071 0.62868 0.12950
 C508 C 0.65679 0.60588 0.10757
 C509 C 0.63530 0.58633 0.08681
 C510 C 0.59728 0.58878 0.08835
 C511 C 0.58109 0.61136 0.11066
 C512 C 0.60267 0.63144 0.13089
 H513 H 0.67852 0.76845 0.22308
 H514 H 0.64140 0.73569 0.18492
 H515 H 0.71436 0.65466 0.19424
 H516 H 0.75098 0.68645 0.23281
 H517 H 0.68605 0.60343 0.10644
 H518 H 0.64827 0.56889 0.06993
 H519 H 0.55181 0.61366 0.11214
 H520 H 0.58967 0.64872 0.14790
   
