data_POSCAR
  _audit_creation_date              2014-09-24
  _audit_creation_method            'ToBaCCo'
  _symmetry_space_group_name_H-M    'P1'
  _symmetry_Int_Tables_number       1
  _symmetry_cell_setting            triclinic
  loop_
  _symmetry_equiv_pos_as_xyz
 x,y,z
_cell_length_a 25.5619
_cell_length_b 25.5244
_cell_length_c 25.4980
_cell_angle_alpha 90.143600
_cell_angle_beta 89.953300
_cell_angle_gamma 89.924200
loop_
  _atom_site_label
  _atom_site_type_symbol
  _atom_site_fract_x
  _atom_site_fract_y
  _atom_site_fract_z
C1 C 0.49695 1.00520 -0.64421
 C2 C 0.45032 0.99945 -0.61633
 C3 C 0.45096 0.99837 -0.56139
 C4 C 0.49805 1.00615 -0.53320
 C5 C 0.54458 1.01345 -0.56249
 C6 C 0.54413 1.01140 -0.61743
 C7 C 0.49864 1.00650 -0.47403
 C8 C 0.54572 0.99889 -0.44574
 C9 C 0.54623 1.00047 -0.39083
 C10 C 0.49964 1.00669 -0.36308
 C11 C 0.45256 1.01281 -0.38989
 C12 C 0.45209 1.01426 -0.44479
 H13 H 0.49653 1.00476 -0.68681
 H14 H 0.41441 0.99108 -0.54142
 H15 H 0.58153 1.02095 -0.54338
 H16 H 0.58235 0.99135 -0.46547
 H17 H 0.50001 1.00663 -0.32052
 H18 H 0.41508 1.02161 -0.46378
 C19 C -0.64440 1.49491 0.00589
 C20 C -0.61576 1.44878 0.01188
 C21 C -0.56098 1.45042 0.01300
 C22 C -0.53367 1.49804 0.00496
 C23 C -0.56381 1.54406 -0.00255
 C24 C -0.61859 1.54258 -0.00056
 C25 C -0.47458 1.49962 0.00439
 C26 C -0.44702 1.54752 0.00980
 C27 C -0.39227 1.54879 0.00779
 C28 C -0.36391 1.50235 0.00338
 C29 C -0.38990 1.45461 -0.00063
 C30 C -0.44463 1.45320 -0.00167
 H31 H -0.68689 1.49372 0.00626
 H32 H -0.54053 1.41416 0.02043
 H33 H -0.54560 1.58141 -0.01020
 H34 H -0.46710 1.58427 0.01578
 H35 H -0.32146 1.50339 0.00292
 H36 H -0.46283 1.41552 -0.00755
 C37 C 0.01071 0.35825 0.49873
 C38 C 0.00065 0.38521 0.45225
 C39 C -0.00340 0.43997 0.45270
 C40 C 0.00539 0.46888 0.49932
 C41 C 0.01677 0.44064 0.54564
 C42 C 0.01803 0.38578 0.54545
 C43 C 0.00283 0.52780 0.49956
 C44 C -0.00626 0.55606 0.54655
 C45 C -0.00710 0.61098 0.54674
 C46 C -0.00169 0.63845 0.49979
 C47 C 0.00600 0.61143 0.45282
 C48 C 0.00964 0.55670 0.45275
 H49 H 0.01280 0.31576 0.49865
 H50 H -0.01367 0.45937 0.41649
 H51 H 0.02500 0.46056 0.58215
 H52 H -0.01293 0.53601 0.58325
 H53 H -0.00331 0.68096 0.49973
 H54 H 0.01813 0.53742 0.41593
 O55 O -0.07064 0.99901 -0.13717
 O56 O -0.07356 1.00236 0.13304
 O57 O -0.13761 0.93125 -0.00401
 O58 O -0.13475 1.07278 -0.00097
 O59 O -0.06956 1.13537 -0.00030
 O60 O -0.07491 0.86600 -0.00347
 O61 O -0.13666 1.00416 0.06828
 O62 O -0.13516 0.99987 -0.07371
 Zr63 Zr -0.09348 1.00113 -0.00228
 O64 O -0.04843 1.04765 0.04585
 O65 O -0.04934 0.95268 -0.04952
 C66 C -0.11900 0.99877 -0.12190
 C67 C -0.12153 1.00458 0.11679
 C68 C -0.12282 0.88266 -0.00441
 C69 C -0.11809 1.12069 0.00006
 H70 H -0.07294 0.93096 0.06777
 O71 O -0.05012 0.95283 0.04547
 H72 H -0.06862 1.07049 -0.07187
 O73 O -0.04722 1.04760 -0.04915
 O74 O 0.06763 0.99610 0.13457
 O75 O 0.07067 0.99994 -0.13564
 O76 O -0.00215 0.86420 0.06908
 O77 O -0.00189 1.13411 0.06983
 O78 O 0.00530 1.13395 -0.07178
 O79 O -0.00592 0.86437 -0.07260
 O80 O 0.13185 0.92531 0.00088
 O81 O 0.13480 1.06693 -0.00039
 O82 O 0.06654 0.86287 -0.00008
 O83 O 0.07219 1.13229 -0.00082
 O84 O -0.00180 0.92817 0.13330
 O85 O -0.00360 0.92837 -0.13643
 O86 O 0.00429 1.06996 -0.13596
 O87 O -0.00376 1.07008 0.13366
 O88 O 0.13217 0.99412 0.07113
 O89 O 0.13383 0.99913 -0.07090
 Zr90 Zr -0.00247 0.99911 0.09096
 Zr91 Zr -0.00045 0.99920 -0.09360
 Zr92 Zr -0.00328 0.90701 -0.00164
 Zr93 Zr 0.00044 1.09134 -0.00107
 Zr94 Zr 0.09063 0.99710 -0.00034
 O95 O 0.04747 1.04557 -0.04814
 O96 O 0.04455 0.95057 0.04659
 C97 C 0.11597 0.99401 0.11932
 C98 C 0.11867 1.00062 -0.11937
 C99 C -0.00108 0.87990 0.11743
 C100 C -0.00377 1.11838 0.11807
 C101 C 0.00703 1.11815 -0.12010
 C102 C -0.00610 0.88012 -0.12087
 C103 C 0.11508 0.87740 0.00101
 C104 C 0.12011 1.11555 -0.00058
 H105 H 0.06741 0.92816 -0.07093
 O106 O 0.04539 0.95085 -0.04846
 H107 H 0.06847 1.06716 0.06960
 O108 O 0.04614 1.04535 0.04668
 C109 C 0.23067 0.99421 0.23078
 C110 C 0.25708 1.04184 0.24114
 C111 C 0.30055 1.04243 0.27584
 C112 C 0.31731 0.99537 0.29997
 C113 C 0.28963 0.94816 0.29116
 C114 C 0.24613 0.94758 0.25645
 C115 C 0.21920 0.89989 0.24801
 C116 C 0.23476 0.85408 0.27325
 C117 C 0.27735 0.85463 0.30711
 C118 C 0.30466 0.90102 0.31607
 C119 C 0.32662 1.09045 0.28525
 C120 C 0.31018 1.13655 0.26111
 C121 C 0.26769 1.13596 0.22715
 C122 C 0.24128 1.08928 0.21715
 C123 C 0.36432 0.99532 0.33189
 C124 C 0.40429 0.99646 0.35694
 C125 C 0.18900 0.99301 0.19221
 C126 C 0.15525 0.99291 0.15928
 H127 H 0.18578 0.89754 0.22208
 H128 H 0.21364 0.81800 0.26656
 H129 H 0.28926 0.81893 0.32660
 H130 H 0.33745 0.89957 0.34286
 H131 H 0.35981 1.09295 0.31145
 H132 H 0.33053 1.17293 0.26880
 H133 H 0.25509 1.17186 0.20847
 H134 H 0.20833 1.09088 0.19058
 C135 C -0.23797 1.00923 0.22658
 C136 C -0.25398 1.05738 0.24917
 C137 C -0.29733 1.05872 0.28412
 C138 C -0.32435 1.01189 0.29623
 C139 C -0.30729 0.96349 0.27485
 C140 C -0.26394 0.96216 0.23995
 C141 C -0.24773 0.91337 0.21888
 C142 C -0.27359 0.86720 0.23197
 C143 C -0.31608 0.86849 0.26597
 C144 C -0.33292 0.91595 0.28728
 C145 C -0.31286 1.10733 0.30597
 C146 C -0.28622 1.15333 0.29373
 C147 C -0.24381 1.15202 0.25959
 C148 C -0.22773 1.10472 0.23740
 C149 C -0.37085 1.01350 0.32895
 C150 C -0.41035 1.01343 0.35483
 C151 C -0.19590 1.00819 0.18837
 C152 C -0.16163 1.00680 0.15594
 H153 H -0.21488 0.91033 0.19224
 H154 H -0.26064 0.83023 0.21553
 H155 H -0.33611 0.83252 0.27593
 H156 H -0.36607 0.91490 0.31366
 H157 H -0.34555 1.11027 0.33281
 H158 H -0.29855 1.19019 0.31086
 H159 H -0.22324 1.18784 0.25026
 H160 H -0.19447 1.10566 0.21112
 C161 C -0.23368 0.99850 -0.23343
 C162 C -0.26322 1.04479 -0.24118
 C163 C -0.30630 1.04451 -0.27635
 C164 C -0.31949 0.99797 -0.30367
 C165 C -0.28883 0.95220 -0.29727
 C166 C -0.24574 0.95247 -0.26204
 C167 C -0.21575 0.90622 -0.25611
 C168 C -0.22792 0.86101 -0.28431
 C169 C -0.27011 0.86071 -0.31866
 C170 C -0.30040 0.90567 -0.32519
 C171 C -0.33555 1.09117 -0.28307
 C172 C -0.32242 1.13682 -0.25605
 C173 C -0.28013 1.13713 -0.22186
 C174 C -0.25085 1.09173 -0.21419
 C175 C -0.36579 0.99693 -0.33659
 C176 C -0.40532 0.99753 -0.36232
 C177 C -0.19207 0.99796 -0.19478
 C178 C -0.15832 0.99807 -0.16183
 H179 H -0.18252 0.90457 -0.22989
 H180 H -0.20443 0.82607 -0.27953
 H181 H -0.27939 0.82547 -0.34044
 H182 H -0.33275 0.90363 -0.35247
 H183 H -0.36868 1.09297 -0.30940
 H184 H -0.34515 1.17217 -0.26176
 H185 H -0.26997 1.17273 -0.20110
 H186 H -0.21835 1.09394 -0.18712
 C187 C 0.23445 1.00738 -0.22958
 C188 C 0.25016 1.05626 -0.25043
 C189 C 0.29276 1.05867 -0.28621
 C190 C 0.31942 1.01219 -0.30076
 C191 C 0.30284 0.96315 -0.28084
 C192 C 0.26022 0.96075 -0.24514
 C193 C 0.24461 0.91135 -0.22540
 C194 C 0.27038 0.86561 -0.24053
 C195 C 0.31208 0.86793 -0.27543
 C196 C 0.32829 0.91600 -0.29549
 C197 C 0.30794 1.10797 -0.30637
 C198 C 0.28177 1.15363 -0.29159
 C199 C 0.24019 1.15129 -0.25651
 C200 C 0.22440 1.10328 -0.23601
 C201 C 0.36534 1.01472 -0.33419
 C202 C 0.40454 1.01504 -0.36050
 C203 C 0.19278 1.00510 -0.19105
 C204 C 0.15871 1.00299 -0.15851
 H205 H 0.21236 0.90751 -0.19817
 H206 H 0.25795 0.82819 -0.22503
 H207 H 0.33199 0.83229 -0.28706
 H208 H 0.36086 0.91573 -0.32262
 H209 H 0.34003 1.11170 -0.33381
 H210 H 0.29381 1.19102 -0.30744
 H211 H 0.21992 1.18685 -0.24522
 H212 H 0.19172 1.10345 -0.20900
 C213 C 0.23277 1.22859 0.00857
 C214 C 0.26316 1.24224 -0.03574
 C215 C 0.29825 1.28530 -0.03287
 C216 C 0.30267 1.31443 0.01428
 C217 C 0.27402 1.29926 0.05928
 C218 C 0.23897 1.25616 0.05643
 C219 C 0.21038 1.24197 0.10181
 C220 C 0.21625 1.26961 0.14863
 C221 C 0.25052 1.31175 0.15140
 C222 C 0.27915 1.32662 0.10734
 C223 C 0.32790 1.29853 -0.07783
 C224 C 0.32313 1.26994 -0.12422
 C225 C 0.28884 1.22781 -0.12699
 C226 C 0.25902 1.21399 -0.08340
 C227 C 0.33398 1.36184 0.01534
 C228 C 0.35840 1.40222 0.01465
 C229 C 0.19368 1.18764 0.00445
 C230 C 0.16039 1.15440 0.00155
 H231 H 0.18338 1.20936 0.10166
 H232 H 0.19409 1.25825 0.18293
 H233 H 0.25497 1.33305 0.18789
 H234 H 0.30545 1.35957 0.11141
 H235 H 0.35525 1.33086 -0.07754
 H236 H 0.34621 1.28051 -0.15819
 H237 H 0.28538 1.20567 -0.16306
 H238 H 0.23295 1.18085 -0.08742
 C239 C 0.22153 0.75789 0.00077
 C240 C 0.21424 0.71574 0.03600
 C241 C 0.24912 0.67236 0.03490
 C242 C 0.29102 0.67134 -0.00152
 C243 C 0.29842 0.71359 -0.03660
 C244 C 0.26353 0.75701 -0.03548
 C245 C 0.27146 0.79866 -0.07116
 C246 C 0.31271 0.79745 -0.10692
 C247 C 0.34684 0.75500 -0.10798
 C248 C 0.33998 0.71344 -0.07329
 C249 C 0.24089 0.63056 0.07040
 C250 C 0.19922 0.63145 0.10565
 C251 C 0.16495 0.67373 0.10649
 C252 C 0.17231 0.71561 0.07236
 C253 C 0.32562 0.62621 -0.00319
 C254 C 0.35274 0.58753 -0.00294
 C255 C 0.18489 0.80134 0.00101
 C256 C 0.15351 0.83658 0.00120
 H257 H 0.24594 0.83251 -0.07181
 H258 H 0.31824 0.82964 -0.13392
 H259 H 0.37883 0.75427 -0.13583
 H260 H 0.36752 0.68127 -0.07555
 H261 H 0.26639 0.59671 0.07123
 H262 H 0.19342 0.59908 0.13237
 H263 H 0.13243 0.67405 0.13369
 H264 H 0.14469 0.74770 0.07471
 C265 C -0.23374 0.76762 -0.00349
 C266 C -0.27534 0.76847 0.03323
 C267 C -0.31071 0.72559 0.03586
 C268 C -0.30424 0.68224 0.00174
 C269 C -0.26328 0.68195 -0.03575
 C270 C -0.22790 0.72474 -0.03833
 C271 C -0.18686 0.72328 -0.07568
 C272 C -0.18088 0.68067 -0.10941
 C273 C -0.21560 0.63892 -0.10709
 C274 C -0.25639 0.63933 -0.07079
 C275 C -0.35173 0.72707 0.07312
 C276 C -0.35773 0.76978 0.10679
 C277 C -0.32322 0.81174 0.10416
 C278 C -0.28236 0.81127 0.06794
 C279 C -0.33827 0.63695 0.00599
 C280 C -0.36432 0.59767 0.00795
 C281 C -0.19568 0.80971 -0.00420
 C282 C -0.16292 0.84358 -0.00458
 H283 H -0.15895 0.75491 -0.07920
 H284 H -0.14908 0.68001 -0.13745
 H285 H -0.21086 0.60596 -0.13348
 H286 H -0.28234 0.60588 -0.07055
 H287 H -0.37958 0.69536 0.07652
 H288 H -0.38938 0.77034 0.13503
 H289 H -0.32818 0.84489 0.13026
 H290 H -0.25650 0.84480 0.06736
 C291 C -0.22654 1.23836 0.00243
 C292 C -0.21777 1.28230 0.03523
 C293 C -0.25330 1.32513 0.03441
 C294 C -0.29740 1.32375 0.00078
 C295 C -0.30679 1.27929 -0.03113
 C296 C -0.27125 1.23641 -0.03027
 C297 C -0.28143 1.19233 -0.06247
 C298 C -0.32559 1.19062 -0.09445
 C299 C -0.36020 1.23265 -0.09546
 C300 C -0.35109 1.27661 -0.06426
 C301 C -0.24358 1.36875 0.06742
 C302 C -0.20003 1.36998 0.10024
 C303 C -0.16525 1.32811 0.10097
 C304 C -0.17386 1.28463 0.06900
 C305 C -0.33231 1.36857 -0.00136
 C306 C -0.35966 1.40707 -0.00194
 C307 C -0.18885 1.19585 0.00158
 C308 C -0.15680 1.16123 0.00090
 H309 H -0.25560 1.15871 -0.06307
 H310 H -0.33301 1.15646 -0.11855
 H311 H -0.39437 1.23115 -0.12047
 H312 H -0.37918 1.30830 -0.06624
 H313 H -0.26948 1.40231 0.06831
 H314 H -0.19322 1.40364 0.12523
 H315 H -0.13141 1.32930 0.12644
 H316 H -0.14577 1.25296 0.07114
 C317 C -0.00445 1.22905 0.23402
 C318 C 0.04231 1.23765 0.26247
 C319 C 0.04244 1.27282 0.30574
 C320 C -0.00422 1.29914 0.32032
 C321 C -0.05058 1.29170 0.29089
 C322 C -0.05069 1.25654 0.24756
 C323 C -0.09755 1.24947 0.21886
 C324 C -0.14301 1.27643 0.23258
 C325 C -0.14291 1.31078 0.27497
 C326 C -0.09733 1.31845 0.30397
 C327 C 0.08960 1.28048 0.33383
 C328 C 0.13525 1.25410 0.31962
 C329 C 0.13508 1.21963 0.27736
 C330 C 0.08930 1.21141 0.24891
 C331 C -0.00464 1.33204 0.36685
 C332 C -0.00320 1.35783 0.40651
 C333 C -0.00516 1.19063 0.19204
 C334 C -0.00491 1.15792 0.15792
 H335 H -0.09950 1.22327 0.18548
 H336 H -0.17846 1.27073 0.21010
 H337 H -0.17832 1.33165 0.28542
 H338 H -0.09909 1.34565 0.33656
 H339 H 0.09178 1.30695 0.36696
 H340 H 0.17095 1.26043 0.34154
 H341 H 0.17061 1.19917 0.26652
 H342 H 0.09124 1.18436 0.21621
 C343 C 0.02403 1.22781 -0.23540
 C344 C 0.05779 1.21681 -0.27811
 C345 C 0.06076 1.25222 -0.32094
 C346 C 0.02990 1.29834 -0.32082
 C347 C -0.00215 1.31039 -0.27710
 C348 C -0.00512 1.27500 -0.23426
 C349 C -0.03791 1.28756 -0.19126
 C350 C -0.06688 1.33385 -0.19057
 C351 C -0.06395 1.36849 -0.23245
 C352 C -0.03205 1.35708 -0.27534
 C353 C 0.09435 1.24016 -0.36346
 C354 C 0.12408 1.19435 -0.36372
 C355 C 0.12102 1.15962 -0.32195
 C356 C 0.08845 1.17058 -0.27945
 C357 C 0.02808 1.33121 -0.36717
 C358 C 0.02462 1.35704 -0.40654
 C359 C 0.01791 1.18973 -0.19368
 C360 C 0.01269 1.15740 -0.15973
 H361 H -0.04139 1.26189 -0.15773
 H362 H -0.09172 1.34289 -0.15734
 H363 H -0.08650 1.40441 -0.23170
 H364 H -0.03091 1.38531 -0.30692
 H365 H 0.09810 1.26603 -0.39681
 H366 H 0.14959 1.18573 -0.39654
 H367 H 0.14405 1.12400 -0.32244
 H368 H 0.08764 1.14249 -0.24774
 C369 C -0.00995 0.76901 -0.23643
 C370 C -0.05745 0.74487 -0.25159
 C371 C -0.05802 0.70903 -0.29437
 C372 C -0.01110 0.69759 -0.32166
 C373 C 0.03665 0.72067 -0.30551
 C374 C 0.03721 0.75651 -0.26280
 C375 C 0.08534 0.77946 -0.24770
 C376 C 0.13159 0.76733 -0.27402
 C377 C 0.13107 0.73224 -0.31577
 C378 C 0.08429 0.70907 -0.33151
 C379 C -0.10599 0.68567 -0.30911
 C380 C -0.15211 0.69730 -0.28226
 C381 C -0.15155 0.73232 -0.24042
 C382 C -0.10488 0.75599 -0.22510
 C383 C -0.01195 0.66424 -0.36787
 C384 C -0.01075 0.63826 -0.40742
 C385 C -0.00958 0.80779 -0.19474
 C386 C -0.00836 0.84062 -0.16074
 H387 H 0.08780 0.80693 -0.21540
 H388 H 0.16802 0.78526 -0.26195
 H389 H 0.16711 0.72290 -0.33609
 H390 H 0.08596 0.68194 -0.36414
 H391 H -0.10830 0.65811 -0.34134
 H392 H -0.18847 0.67903 -0.29398
 H393 H -0.18747 0.74118 -0.21968
 H394 H -0.10639 0.78290 -0.19226
 C395 C 0.00317 0.76942 0.23297
 C396 C 0.05092 0.74501 0.24696
 C397 C 0.05250 0.70981 0.29005
 C398 C 0.00632 0.69927 0.31882
 C399 C -0.04172 0.72262 0.30389
 C400 C -0.04328 0.75782 0.26085
 C401 C -0.09165 0.78106 0.24694
 C402 C -0.13719 0.76981 0.27476
 C403 C -0.13569 0.73535 0.31684
 C404 C -0.08863 0.71193 0.33142
 C405 C 0.10072 0.68616 0.30357
 C406 C 0.14611 0.69692 0.27526
 C407 C 0.14456 0.73134 0.23313
 C408 C 0.09764 0.75526 0.21897
 C409 C 0.00829 0.66631 0.36510
 C410 C 0.00832 0.64040 0.40456
 C411 C 0.00200 0.80776 0.19112
 C412 C 0.00064 0.84039 0.15710
 H413 H -0.09485 0.80805 0.21444
 H414 H -0.17383 0.78794 0.26359
 H415 H -0.17118 0.72671 0.33832
 H416 H -0.08952 0.68532 0.36438
 H417 H 0.10380 0.65904 0.33599
 H418 H 0.18266 0.67842 0.28605
 H419 H 0.17989 0.73944 0.21116
 H420 H 0.09837 0.78162 0.18580
   
