data_POSCAR
  _audit_creation_date              2014-09-24
  _audit_creation_method            'ToBaCCo'
  _symmetry_space_group_name_H-M    'P1'
  _symmetry_Int_Tables_number       1
  _symmetry_cell_setting            triclinic
  loop_
  _symmetry_equiv_pos_as_xyz
 x,y,z
_cell_length_a 43.5198
_cell_length_b 43.4526
_cell_length_c 43.5558
_cell_angle_alpha 89.929200
_cell_angle_beta 90.023900
_cell_angle_gamma 89.967600
loop_
  _atom_site_label
  _atom_site_type_symbol
  _atom_site_fract_x
  _atom_site_fract_y
  _atom_site_fract_z
C1 C 0.60304 0.64685 0.62570
 N2 N 0.62510 0.64691 0.60368
 C3 C 0.64715 0.62480 0.60363
 N4 N 0.64712 0.60263 0.62561
 C5 C 0.62506 0.60256 0.64763
 N6 N 0.60303 0.62468 0.64767
 C7 C 0.89791 0.35239 0.12539
 N8 N 0.87587 0.35245 0.10333
 C9 C 0.85391 0.37464 0.10321
 N10 N 0.85399 0.39678 0.12517
 C11 C 0.87602 0.39673 0.14724
 N12 N 0.89797 0.37453 0.14734
 C13 C 0.39691 0.14728 -0.12509
 N14 N 0.39691 0.12518 -0.14707
 C15 C 0.37491 0.10306 -0.14699
 N16 N 0.35290 0.10305 -0.12494
 C17 C 0.35289 0.12515 -0.10296
 N18 N 0.37489 0.14727 -0.10303
 C19 C 0.10204 0.85306 0.37435
 N20 N 0.12409 0.85310 0.39640
 C21 C 0.14607 0.87525 0.39643
 N22 N 0.14601 0.89736 0.37439
 C23 C 0.12397 0.89733 0.35233
 N24 N 0.10199 0.87518 0.35232
 N25 N 0.08776 0.17364 0.11256
 N26 N 0.07572 0.16107 0.13729
 C27 C 0.05097 0.17758 0.14592
 C28 C 0.04750 0.20156 0.12545
 C29 C 0.07109 0.19852 0.10459
 H30 H 0.03658 0.17265 0.16555
 H31 H 0.07577 0.21328 0.08514
 Cu32 Cu 0.09396 0.12450 0.15559
 Cu33 Cu 0.12420 0.15696 0.09258
 Cu34 Cu 0.15688 0.09182 0.12534
 N35 N 0.11219 0.08790 0.17384
 N36 N 0.13693 0.07530 0.16186
 C37 C 0.14495 0.05054 0.17866
 C38 C 0.12415 0.04763 0.20231
 C39 C 0.10366 0.07157 0.19875
 H40 H 0.16442 0.03577 0.17405
 H41 H 0.08411 0.07663 0.21321
 N42 N 0.17359 0.11194 0.08834
 N43 N 0.16109 0.13669 0.07583
 C44 C 0.17761 0.14482 0.05095
 C45 C 0.20145 0.12422 0.04785
 C46 C 0.19838 0.10369 0.07175
 H47 H 0.17275 0.16424 0.03618
 H48 H 0.21314 0.08426 0.07663
 H49 H 0.11820 0.11200 0.10675
 H50 H 0.14291 0.13688 0.13136
 N51 N 0.41080 0.82564 0.61282
 N52 N 0.42296 0.83837 0.63737
 C53 C 0.44798 0.82214 0.64583
 C54 C 0.45144 0.79812 0.62549
 C55 C 0.42760 0.80088 0.60484
 H56 H 0.46263 0.82737 0.66520
 H57 H 0.42291 0.78606 0.58546
 Cu58 Cu 0.40488 0.87501 0.65554
 Cu59 Cu 0.37432 0.84228 0.59282
 Cu60 Cu 0.34219 0.90797 0.62480
 N61 N 0.38664 0.91165 0.67353
 N62 N 0.36214 0.92449 0.66126
 C63 C 0.35422 0.94934 0.67791
 C64 C 0.37487 0.95207 0.70172
 C65 C 0.39516 0.92794 0.69842
 H66 H 0.33490 0.96426 0.67312
 H67 H 0.41456 0.92274 0.71305
 N68 N 0.32536 0.88771 0.58798
 N69 N 0.33747 0.86259 0.57592
 C70 C 0.32077 0.85429 0.55122
 C71 C 0.29723 0.87519 0.54775
 C72 C 0.30065 0.89605 0.57126
 H73 H 0.32534 0.83458 0.53678
 H74 H 0.28618 0.91576 0.57580
 H75 H 0.38085 0.88739 0.60645
 H76 H 0.35583 0.86301 0.63131
 N77 N 0.91216 0.67456 0.38759
 N78 N 0.92412 0.66206 0.36282
 C79 C 0.94896 0.67848 0.35423
 C80 C 0.95249 0.70237 0.37472
 C81 C 0.92890 0.69934 0.39559
 H82 H 0.96340 0.67350 0.33466
 H83 H 0.92430 0.71403 0.41508
 Cu84 Cu 0.90597 0.62543 0.34466
 Cu85 Cu 0.87577 0.65785 0.40768
 Cu86 Cu 0.84340 0.59247 0.37529
 N87 N 0.88781 0.58879 0.32650
 N88 N 0.86332 0.57597 0.33874
 C89 C 0.85544 0.55108 0.32211
 C90 C 0.87613 0.54828 0.29834
 C91 C 0.89639 0.57243 0.30165
 H92 H 0.83616 0.53615 0.32693
 H93 H 0.91584 0.57759 0.28708
 N94 N 0.82662 0.61262 0.41224
 N95 N 0.83893 0.63751 0.42456
 C96 C 0.82228 0.64575 0.44931
 C97 C 0.79854 0.62506 0.45255
 C98 C 0.80181 0.60438 0.42884
 H99 H 0.82697 0.66531 0.46389
 H100 H 0.78716 0.58487 0.42408
 H101 H 0.88212 0.61289 0.39374
 H102 H 0.85709 0.63757 0.36917
 N103 N 0.58916 0.32571 -0.11323
 N104 N 0.57691 0.33855 -0.13772
 C105 C 0.55196 0.32228 -0.14621
 C106 C 0.54861 0.29817 -0.12590
 C107 C 0.57245 0.30088 -0.10527
 H108 H 0.53732 0.32751 -0.16560
 H109 H 0.57723 0.28597 -0.08595
 Cu110 Cu 0.59507 0.37513 -0.15601
 Cu111 Cu 0.62568 0.34221 -0.09327
 Cu112 Cu 0.65777 0.40792 -0.12531
 N113 N 0.61317 0.41193 -0.17392
 N114 N 0.63775 0.42464 -0.16173
 C115 C 0.64572 0.44947 -0.17844
 C116 C 0.62505 0.45232 -0.20224
 C117 C 0.60470 0.42825 -0.19887
 H118 H 0.66513 0.46428 -0.17371
 H119 H 0.58531 0.42308 -0.21351
 N120 N 0.67468 0.38754 -0.08852
 N121 N 0.66255 0.36241 -0.07642
 C122 C 0.67927 0.35404 -0.05173
 C123 C 0.70284 0.37487 -0.04829
 C124 C 0.69941 0.39579 -0.07182
 H125 H 0.67468 0.33432 -0.03727
 H126 H 0.71388 0.41549 -0.07637
 H127 H 0.61915 0.38722 -0.10696
 H128 H 0.64413 0.36285 -0.13187
 C129 C -0.08013 0.33016 0.12551
 C130 C -0.06063 0.31043 0.12560
 C131 C -0.03780 0.28734 0.12573
 C132 C -0.01829 0.26764 0.12580
 C133 C 0.00458 0.24459 0.12583
 C134 C 0.02414 0.22493 0.12574
 C135 C 0.57974 0.67024 0.62576
 C136 C 0.56018 0.68989 0.62582
 C137 C 0.53727 0.71290 0.62587
 C138 C 0.51769 0.73252 0.62588
 C139 C 0.49470 0.75545 0.62583
 C140 C 0.47500 0.77496 0.62571
 C141 C 1.08007 0.83088 0.37430
 C142 C 1.06057 0.81118 0.37425
 C143 C 1.03775 0.78810 0.37421
 C144 C 1.01827 0.76839 0.37421
 C145 C 0.99543 0.74533 0.37428
 C146 C 0.97588 0.72569 0.37442
 C147 C 0.42017 0.17066 -0.12524
 C148 C 0.43974 0.19027 -0.12544
 C149 C 0.46270 0.21319 -0.12571
 C150 C 0.48233 0.23273 -0.12591
 C151 C 0.50536 0.25556 -0.12606
 C152 C 0.52507 0.27503 -0.12607
 C153 C 0.12390 -0.08053 0.33030
 C154 C 0.12384 -0.06087 0.31075
 C155 C 0.12378 -0.03784 0.28786
 C156 C 0.12376 -0.01819 0.26831
 C157 C 0.12379 0.00480 0.24539
 C158 C 0.12389 0.02438 0.22577
 C159 C 0.62500 0.58036 -0.33038
 C160 C 0.62493 0.56067 -0.31086
 C161 C 0.62483 0.53763 -0.28798
 C162 C 0.62478 0.51799 -0.26841
 C163 C 0.62479 0.49505 -0.24544
 C164 C 0.62486 0.47552 -0.22576
 C165 C 0.37493 1.07970 0.82978
 C166 C 0.37498 1.06008 0.81026
 C167 C 0.37506 1.03714 0.78738
 C168 C 0.37512 1.01757 0.76781
 C169 C 0.37514 0.99471 0.74484
 C170 C 0.37508 0.97523 0.72519
 C171 C 0.87612 0.42016 0.17046
 C172 C 0.87624 0.43981 0.18998
 C173 C 0.87637 0.46283 0.21286
 C174 C 0.87646 0.48246 0.23240
 C175 C 0.87649 0.50543 0.25532
 C176 C 0.87641 0.52500 0.27492
 C177 C 0.32961 0.12510 -0.07965
 C178 C 0.31001 0.12497 -0.06011
 C179 C 0.28704 0.12476 -0.03726
 C180 C 0.26741 0.12458 -0.01776
 C181 C 0.24443 0.12439 0.00508
 C182 C 0.22481 0.12428 0.02459
 C183 C 0.67048 0.62486 0.58033
 C184 C 0.69006 0.62492 0.56076
 C185 C 0.71301 0.62498 0.53785
 C186 C 0.73261 0.62502 0.51830
 C187 C 0.75556 0.62505 0.49539
 C188 C 0.77517 0.62506 0.47584
 C189 C 0.83062 0.37469 0.07985
 C190 C 0.81107 0.37469 0.06023
 C191 C 0.78819 0.37471 0.03724
 C192 C 0.76865 0.37472 0.01762
 C193 C 0.74574 0.37476 -0.00535
 C194 C 0.72618 0.37482 -0.02495
 C195 C 0.16938 0.87528 0.41974
 C196 C 0.18897 0.87532 0.43931
 C197 C 0.21190 0.87534 0.46224
 C198 C 0.23147 0.87533 0.48183
 C199 C 0.25438 0.87530 0.50478
 C200 C 0.27393 0.87524 0.52438
   
