data_POSCAR
  _audit_creation_date              2014-09-24
  _audit_creation_method            'ToBaCCo'
  _symmetry_space_group_name_H-M    'P1'
  _symmetry_Int_Tables_number       1
  _symmetry_cell_setting            triclinic
  loop_
  _symmetry_equiv_pos_as_xyz
 x,y,z
_cell_length_a 36.9112
_cell_length_b 37.4030
_cell_length_c 37.0756
_cell_angle_alpha 92.279700
_cell_angle_beta 93.507600
_cell_angle_gamma 89.726000
loop_
  _atom_site_label
  _atom_site_type_symbol
  _atom_site_fract_x
  _atom_site_fract_y
  _atom_site_fract_z
C1 C 0.20678 0.53891 1.07656
 H2 H 0.21235 0.56211 1.06130
 C3 C 0.17801 0.53980 1.09938
 H4 H 0.16193 0.56401 1.10121
 C5 C 0.21810 0.47798 1.08826
 H6 H 0.23174 0.45312 1.08206
 C7 C 0.19056 0.47815 1.11237
 H8 H 0.18568 0.45400 1.12649
 N9 N 0.22504 0.50786 1.07016
 C10 C 0.27967 0.57053 1.00167
 H11 H 0.25719 0.56974 0.98163
 C12 C 0.30719 0.59580 0.99947
 H13 H 0.30590 0.61414 0.97754
 C14 C 0.30973 0.54723 1.05400
 H15 H 0.31097 0.52772 1.07476
 C16 C 0.33770 0.57198 1.05284
 H17 H 0.36051 0.57126 1.07263
 Zn18 Zn 0.25152 0.50553 1.02786
 N19 N 0.28211 0.54609 1.02796
 C20 C 0.22480 0.50906 0.95292
 N21 N 0.21625 0.50391 0.98760
 C22 C 0.18127 0.49775 0.99540
 C23 C 0.15333 0.49798 0.96844
 C24 C 0.19750 0.50924 0.92492
 C25 C 0.29967 0.45369 1.05779
 C26 C 0.32770 0.42857 1.05700
 C27 C 0.32217 0.42791 0.99181
 C28 C 0.29333 0.45209 0.99381
 N29 N 0.28300 0.46501 1.02647
 H30 H 0.25266 0.51365 0.94697
 H31 H 0.17467 0.49267 1.02265
 H32 H 0.12566 0.49359 0.97539
 H33 H 0.20451 0.51360 0.89750
 H34 H 0.29255 0.46539 1.08351
 H35 H 0.34074 0.42000 1.08218
 H36 H 0.33111 0.41916 0.96559
 H37 H 0.28050 0.46181 0.96919
 C38 C 0.33695 0.59615 1.02491
 C39 C 0.16781 0.50829 1.11573
 C40 C 0.34046 0.41679 1.02370
 C41 C 0.16120 0.50435 0.93286
 C42 C 0.80217 0.52191 -0.05685
 H43 H 0.79880 0.54354 -0.03710
 C44 C 0.82957 0.52371 -0.08091
 H45 H 0.84724 0.54682 -0.07960
 C46 C 0.78501 0.46425 -0.08062
 H47 H 0.76846 0.44062 -0.07938
 C48 C 0.81223 0.46497 -0.10532
 H49 H 0.81616 0.44207 -0.12347
 N50 N 0.78077 0.49243 -0.05686
 C51 C 0.69774 0.53314 0.01234
 H52 H 0.70219 0.51512 0.03430
 C53 C 0.66915 0.55764 0.01271
 H54 H 0.65172 0.55873 0.03520
 C55 C 0.71364 0.55211 -0.04491
 H56 H 0.73023 0.54889 -0.06785
 C57 C 0.68533 0.57710 -0.04559
 H58 H 0.68058 0.59357 -0.06879
 Zn59 Zn 0.75055 0.49080 -0.01762
 N60 N 0.71887 0.53043 -0.01642
 C61 C 0.79347 0.52361 0.03962
 N62 N 0.78268 0.49151 0.02412
 C63 C 0.79954 0.46060 0.03365
 C64 C 0.82788 0.46108 0.06026
 C65 C 0.82313 0.52548 0.06497
 C66 C 0.69731 0.44599 -0.05106
 C67 C 0.66896 0.42124 -0.05258
 C68 C 0.68797 0.40470 0.00799
 C69 C 0.71544 0.43023 0.00864
 N70 N 0.71973 0.45022 -0.02069
 H71 H 0.78047 0.54796 0.03072
 H72 H 0.79196 0.43561 0.01964
 H73 H 0.84055 0.43610 0.06788
 H74 H 0.83260 0.55136 0.07568
 H75 H 0.70023 0.46330 -0.07339
 H76 H 0.65013 0.41961 -0.07615
 H77 H 0.68428 0.38976 0.03192
 H78 H 0.73162 0.43553 0.03348
 C79 C 0.66216 0.57919 -0.01696
 C80 C 0.83498 0.49495 -0.10540
 C81 C 0.66392 0.40040 -0.02264
 C82 C 0.84142 0.49397 0.07472
 C83 C -0.03906 0.30026 0.44653
 H84 H -0.06078 0.29525 0.46397
 C85 C -0.04307 0.32701 0.42137
 H86 H -0.06791 0.34255 0.42023
 C87 C 0.02147 0.28956 0.43123
 H88 H 0.04727 0.27651 0.43657
 C89 C 0.01870 0.31611 0.40585
 H90 H 0.04215 0.32173 0.39083
 N91 N -0.00724 0.28205 0.45091
 C92 C -0.03816 0.19975 0.52348
 H93 H -0.01695 0.20430 0.54458
 C94 C -0.06283 0.17203 0.52609
 H95 H -0.06053 0.15524 0.54926
 C96 C -0.06545 0.21460 0.46645
 H97 H -0.06547 0.23035 0.44265
 C98 C -0.09088 0.18717 0.46806
 H99 H -0.11083 0.18237 0.44577
 Zn100 Zn -0.00112 0.25291 0.49139
 N101 N -0.03980 0.22034 0.49402
 C102 C -0.02502 0.28870 0.55503
 N103 N 0.00199 0.28525 0.53174
 C104 C 0.03040 0.30840 0.53342
 C105 C 0.03177 0.33730 0.55841
 C106 C -0.02464 0.31724 0.58057
 C107 C 0.04973 0.20810 0.45841
 C108 C 0.07724 0.18244 0.45782
 C109 C 0.08532 0.18940 0.52286
 C110 C 0.05872 0.21608 0.52204
 N111 N 0.04131 0.22463 0.49015
 H112 H -0.04772 0.27045 0.55266
 H113 H 0.05117 0.30524 0.51417
 H114 H 0.05381 0.35633 0.55861
 H115 H -0.04680 0.32058 0.59827
 H116 H 0.03413 0.21382 0.43366
 H117 H 0.08334 0.16937 0.43231
 H118 H 0.09702 0.18118 0.54872
 H119 H 0.05036 0.22838 0.54709
 C120 C -0.08964 0.16556 0.49820
 C121 C -0.01382 0.33564 0.40066
 C122 C 0.09495 0.17220 0.49043
 C123 C 0.00346 0.34246 0.58155
 C124 C 0.97564 0.71495 0.57233
 H125 H 0.94921 0.72482 0.56327
 C126 C 0.97811 0.68797 0.59732
 H127 H 0.95361 0.67838 0.60835
 C128 C 1.03906 0.71219 0.56585
 H129 H 1.06239 0.72065 0.55211
 C130 C 1.04259 0.68441 0.58994
 H131 H 1.06877 0.67167 0.59464
 N132 N 1.00592 0.72667 0.55733
 C133 C 0.95060 0.79782 0.48113
 H134 H 0.96446 0.78871 0.45758
 C135 C 0.92509 0.82539 0.47829
 H136 H 0.91938 0.83730 0.45240
 C137 C 0.94466 0.79648 0.54434
 H138 H 0.95423 0.78703 0.57039
 C139 C 0.91838 0.82348 0.54256
 H140 H 0.90693 0.83359 0.56718
 Zn141 Zn 1.00167 0.75443 0.51578
 N142 N 0.95987 0.78393 0.51377
 C143 C 0.96819 0.70529 0.46525
 N144 N 1.00052 0.72057 0.47649
 C145 C 1.03234 0.70728 0.46489
 C146 C 1.03240 0.67797 0.44046
 C147 C 0.96711 0.67517 0.44165
 C148 C 1.04910 0.80746 0.54477
 C149 C 1.07153 0.83730 0.54321
 C150 C 1.07782 0.82269 0.47983
 C151 C 1.05468 0.79368 0.48237
 N152 N 1.04076 0.78666 0.51449
 H153 H 0.94339 0.71547 0.47598
 H154 H 1.05786 0.71852 0.47566
 H155 H 1.05795 0.66777 0.43139
 H156 H 0.94134 0.66250 0.43388
 H157 H 1.03669 0.80200 0.56965
 H158 H 1.07674 0.85457 0.56709
 H159 H 1.08815 0.82839 0.45395
 H160 H 1.04617 0.77820 0.45816
 C161 C 0.90854 0.83850 0.50925
 C162 C 1.01179 0.67182 0.60587
 C163 C 1.08512 0.84577 0.51011
 C164 C 0.99964 0.66064 0.42978
 C165 C 0.44393 -0.03135 0.28541
 H166 H 0.46015 -0.05460 0.27886
 C167 C 0.41795 -0.03351 0.31096
 H168 H 0.41426 -0.05852 0.32401
 C169 C 0.43157 0.03041 0.27892
 H170 H 0.43823 0.05554 0.26752
 C171 C 0.40514 0.02940 0.30436
 H172 H 0.39105 0.05373 0.31205
 N173 N 0.45054 0.00031 0.27030
 C174 C 0.52710 -0.05362 0.20482
 H175 H 0.55188 -0.04394 0.21889
 C176 C 0.52863 -0.08026 0.17742
 H177 H 0.55477 -0.09167 0.17166
 C178 C 0.46332 -0.04926 0.19455
 H179 H 0.43815 -0.03598 0.20044
 C180 C 0.46359 -0.07565 0.16692
 H181 H 0.43839 -0.08166 0.15141
 Zn182 Zn 0.49268 0.00206 0.24412
 N183 N 0.49474 -0.03881 0.21283
 C184 C 0.54122 -0.02757 0.29609
 N185 N 0.53171 0.00340 0.27988
 C186 C 0.54458 0.03550 0.29358
 C187 C 0.56875 0.03717 0.32400
 C188 C 0.56424 -0.02696 0.32748
 C189 C 0.46193 0.04773 0.19248
 C190 C 0.46254 0.07099 0.16394
 C191 C 0.52574 0.08279 0.18055
 C192 C 0.52428 0.05841 0.20792
 N193 N 0.49263 0.04157 0.21358
 H194 H 0.52953 -0.05263 0.28565
 H195 H 0.53483 0.06007 0.28207
 H196 H 0.57896 0.06292 0.33432
 H197 H 0.57047 -0.05167 0.34082
 H198 H 0.43742 0.03311 0.19663
 H199 H 0.43834 0.07442 0.14638
 H200 H 0.55121 0.09574 0.17623
 H201 H 0.54904 0.05149 0.22310
 C202 C 0.49653 -0.09189 0.15788
 C203 C 0.39848 -0.00281 0.32100
 C204 C 0.49509 0.08794 0.15707
 C205 C 0.57752 0.00587 0.34230
 C206 C 0.54675 -0.03709 0.69476
 H207 H 0.52687 -0.05833 0.69293
 C208 C 0.57176 -0.03502 0.66822
 H209 H 0.57110 -0.05479 0.64603
 C210 C 0.56981 0.01623 0.72421
 H211 H 0.56794 0.03705 0.74503
 C212 C 0.59591 0.01882 0.69867
 H213 H 0.61448 0.04124 0.70047
 N214 N 0.54537 -0.01102 0.72127
 C215 C 0.47269 -0.05361 0.79686
 H216 H 0.45052 -0.03486 0.79295
 C217 C 0.47167 -0.07876 0.82351
 H218 H 0.44855 -0.07940 0.84010
 C219 C 0.53119 -0.07358 0.78185
 H220 H 0.55478 -0.07050 0.76636
 C221 C 0.53126 -0.09927 0.80829
 H222 H 0.55478 -0.11630 0.81278
 Zn223 Zn 0.50346 -0.01105 0.74807
 N224 N 0.50230 -0.05117 0.77706
 C225 C 0.44932 -0.04398 0.70161
 N226 N 0.46390 -0.01189 0.71312
 C227 C 0.45524 0.01848 0.69551
 C228 C 0.42974 0.01762 0.66613
 C229 C 0.42510 -0.04634 0.67113
 C230 C 0.53026 0.03238 0.80589
 C231 C 0.53029 0.05923 0.83307
 C232 C 0.47183 0.07895 0.80840
 C233 C 0.47281 0.05154 0.78174
 N234 N 0.50203 0.02924 0.78064
 H235 H 0.45812 -0.06807 0.71479
 H236 H 0.46893 0.04327 0.70360
 H237 H 0.42297 0.04219 0.65273
 H238 H 0.41556 -0.07239 0.66103
 H239 H 0.55244 0.01339 0.80535
 H240 H 0.55260 0.06090 0.85345
 H241 H 0.44829 0.09629 0.80929
 H242 H 0.44959 0.04740 0.76294
 C243 C 0.50132 -0.10175 0.82965
 C244 C 0.59567 -0.00598 0.66923
 C245 C 0.50093 0.08307 0.83433
 C246 C 0.41450 -0.01516 0.65328
 C247 C 0.20776 -0.02937 0.49288
 C248 C 0.22882 0.00113 0.48900
 C249 C 0.21260 0.03505 0.48942
 C250 C 0.17575 0.03889 0.49637
 C251 C 0.15516 0.00812 0.50124
 C252 C 0.17057 -0.02613 0.49789
 C253 C 0.26821 -0.00273 0.48688
 C254 C 0.28409 -0.00318 0.45356
 C255 C 0.32141 -0.00992 0.45183
 C256 C 0.34261 -0.01608 0.48382
 C257 C 0.32692 -0.01516 0.51749
 C258 C 0.28973 -0.00756 0.51866
 H259 H 0.22030 -0.05563 0.49164
 H260 H 0.22880 0.05837 0.48493
 H261 H 0.26745 0.00148 0.42908
 H262 H 0.27728 -0.00550 0.54440
 H263 H 0.12669 0.01073 0.50653
 H264 H 0.37139 -0.02143 0.48244
 C265 C 0.78781 -0.02846 0.50572
 C266 C 0.76902 0.00412 0.50506
 C267 C 0.78804 0.03615 0.50301
 C268 C 0.82599 0.03589 0.50250
 C269 C 0.84457 0.00303 0.50166
 C270 C 0.82557 -0.02938 0.50282
 C271 C 0.72937 0.00474 0.50640
 C272 C 0.71347 0.00302 0.53965
 C273 C 0.67565 0.00409 0.54095
 C274 C 0.65385 0.00535 0.50865
 C275 C 0.66949 0.00825 0.47527
 C276 C 0.70746 0.00776 0.47441
 H277 H 0.77296 -0.05313 0.50795
 H278 H 0.77339 0.06134 0.50261
 H279 H 0.73048 0.00162 0.56445
 H280 H 0.72002 0.00971 0.44889
 H281 H 0.87383 0.00271 0.50043
 H282 H 0.62457 0.00475 0.50967
 C283 C 0.52868 0.28580 0.99171
 C284 C 0.49683 0.26875 1.00045
 C285 C 0.46628 0.28914 1.00886
 C286 C 0.46709 0.32660 1.00741
 C287 C 0.49854 0.34317 0.99662
 C288 C 0.52974 0.32312 0.98970
 C289 C 0.49535 0.22947 0.99929
 C290 C 0.49621 0.21062 1.03131
 C291 C 0.49707 0.17303 1.02983
 C292 C 0.49554 0.15465 0.99598
 C293 C 0.49576 0.17332 0.96400
 C294 C 0.49511 0.21078 0.96577
 H295 H 0.55268 0.26998 0.98676
 H296 H 0.44190 0.27586 1.01616
 H297 H 0.49734 0.22515 1.05724
 H298 H 0.49495 0.22539 0.94108
 H299 H 0.49905 0.37198 0.99441
 H300 H 0.49553 0.12565 0.99458
 C301 C 0.53487 0.70499 -0.01193
 C302 C 0.50394 0.72551 -0.00542
 C303 C 0.47163 0.70868 0.00217
 C304 C 0.47012 0.67138 0.00392
 C305 C 0.50124 0.65093 -0.00244
 C306 C 0.53366 0.66758 -0.01055
 C307 C 0.50513 0.76471 -0.00579
 C308 C 0.50606 0.78194 -0.03854
 C309 C 0.50319 0.81934 -0.03921
 C310 C 0.50093 0.83946 -0.00658
 C311 C 0.50028 0.82230 0.02639
 C312 C 0.50268 0.78489 0.02656
 H313 H 0.55988 0.71810 -0.01767
 H314 H 0.44760 0.72464 0.00666
 H315 H 0.50773 0.76623 -0.06360
 H316 H 0.50222 0.77140 0.05188
 H317 H 0.50031 0.62208 -0.00082
 H318 H 0.49882 0.86836 -0.00695
 C319 C 0.99650 0.53418 0.29871
 C320 C 0.99219 0.50322 0.27627
 C321 C 0.98584 0.47026 0.29135
 C322 C 0.98340 0.46816 0.32873
 C323 C 0.98644 0.49935 0.35089
 C324 C 0.99384 0.53242 0.33623
 C325 C 0.99585 0.50488 0.23716
 C326 C 1.03031 0.50853 0.22380
 C327 C 1.03403 0.50837 0.18648
 C328 C 1.00298 0.50660 0.16270
 C329 C 0.96848 0.50116 0.17559
 C330 C 0.96517 0.50053 0.21311
 H331 H 1.00216 0.55950 0.28700
 H332 H 0.98403 0.44611 0.27416
 H333 H 1.05421 0.50991 0.24229
 H334 H 0.93884 0.49637 0.22366
 H335 H 0.98411 0.49765 0.37977
 H336 H 1.00605 0.50779 0.13389
 C337 C 0.01273 0.53520 0.71561
 C338 C 0.00894 0.50222 0.73160
 C339 C 0.00680 0.47063 0.71006
 C340 C 0.00879 0.47183 0.67251
 C341 C 0.01409 0.50481 0.65680
 C342 C 0.01580 0.53676 0.67813
 C343 C 0.00642 0.50099 0.77088
 C344 C -0.02755 0.49848 0.78545
 C345 C -0.03027 0.49926 0.82306
 C346 C 0.00152 0.50085 0.84592
 C347 C 0.03566 0.50307 0.83142
 C348 C 0.03796 0.50329 0.79384
 H349 H 0.01277 0.55964 0.73233
 H350 H 0.00307 0.44523 0.72243
 H351 H -0.05190 0.49677 0.76758
 H352 H 0.06424 0.50518 0.78250
 H353 H 0.01604 0.50565 0.62779
 H354 H -0.00032 0.50109 0.87499
 C355 C 0.12556 0.07723 0.47349
 C356 C 0.10646 0.10921 0.47164
 C357 C 0.11909 0.14015 0.49092
 C358 C 0.15243 0.13855 0.51209
 C359 C 0.17091 0.10529 0.51566
 C360 C 0.15752 0.07443 0.49563
 C361 C 0.20174 0.10408 0.53988
 N362 N 0.21470 0.13456 0.55690
 N363 N 0.19879 0.16609 0.55162
 C364 C 0.16823 0.16915 0.52974
 H365 H 0.11491 0.05421 0.45768
 H366 H 0.08099 0.10944 0.45550
 H367 H 0.21551 0.07926 0.54580
 H368 H 0.15682 0.19552 0.52612
 C369 C 0.59691 0.65209 0.00878
 C370 C 0.62778 0.63065 0.00743
 C371 C 0.62960 0.60248 -0.01843
 C372 C 0.59974 0.59607 -0.04378
 C373 C 0.56847 0.61823 -0.04268
 C374 C 0.56684 0.64593 -0.01558
 C375 C 0.53984 0.61194 -0.06896
 N376 N 0.54196 0.58442 -0.09367
 N377 N 0.57075 0.56286 -0.09394
 C378 C 0.59962 0.56764 -0.06983
 H379 H 0.59608 0.67311 0.02969
 H380 H 0.65029 0.63573 0.02708
 H381 H 0.51590 0.62872 -0.07026
 H382 H 0.62204 0.54907 -0.07125
 C383 C 0.87426 -0.06808 0.52888
 C384 C 0.89359 -0.10002 0.53097
 C385 C 0.88454 -0.12943 0.50755
 C386 C 0.85478 -0.12641 0.48170
 C387 C 0.83600 -0.09330 0.47854
 C388 C 0.84550 -0.06405 0.50289
 C389 C 0.80876 -0.09050 0.45051
 N390 N 0.79939 -0.11953 0.42896
 N391 N 0.81556 -0.15108 0.43331
 C392 C 0.84280 -0.15555 0.45897
 H393 H 0.88190 -0.04619 0.54780
 H394 H 0.91634 -0.10155 0.55075
 H395 H 0.79500 -0.06553 0.44522
 H396 H 0.85457 -0.18191 0.46149
 C397 C 0.40143 0.34007 0.99727
 C398 C 0.37123 0.36213 1.00070
 C399 C 0.37347 0.39396 1.02201
 C400 C 0.40703 0.40329 1.04083
 C401 C 0.43715 0.37968 1.03902
 C402 C 0.43475 0.34863 1.01568
 C403 C 0.46882 0.38804 1.06077
 N404 N 0.47111 0.41934 1.08046
 N405 N 0.44385 0.44275 1.08003
 C406 C 0.41206 0.43595 1.06076
 H407 H 0.39897 0.31653 0.97930
 H408 H 0.34593 0.35453 0.98612
 H409 H 0.49171 0.36993 1.06253
 H410 H 0.39135 0.45641 1.06098
 C411 C 0.86739 0.07616 0.47331
 C412 C 0.88689 0.10779 0.47179
 C413 C 0.88581 0.13439 0.49943
 C414 C 0.86379 0.12923 0.52882
 C415 C 0.84459 0.09665 0.53082
 C416 C 0.84626 0.07004 0.50257
 C417 C 0.82495 0.09158 0.56159
 N418 N 0.82323 0.11811 0.58743
 N419 N 0.83998 0.14925 0.58476
 C420 C 0.86011 0.15575 0.55636
 H421 H 0.86891 0.05615 0.45150
 H422 H 0.90371 0.11118 0.44922
 H423 H 0.81115 0.06677 0.56557
 H424 H 0.87280 0.18166 0.55550
 C425 C 0.42037 0.62987 -0.01596
 C426 C 0.38769 0.61269 -0.01143
 C427 C 0.36916 0.61863 0.02013
 C428 C 0.38358 0.64316 0.04737
 C429 C 0.41714 0.66038 0.04298
 C430 C 0.43557 0.65362 0.01089
 C431 C 0.43145 0.68326 0.07132
 N432 N 0.41260 0.68945 0.10122
 N433 N 0.38057 0.67418 0.10480
 C434 C 0.36541 0.65130 0.07894
 H435 H 0.43400 0.62454 -0.04069
 H436 H 0.37723 0.59382 -0.03241
 H437 H 0.45750 0.69609 0.07020
 H438 H 0.33922 0.63992 0.08319
 C439 C 0.15787 -0.08385 0.52529
 C440 C 0.13707 -0.11441 0.52860
 C441 C 0.10528 -0.12044 0.50662
 C442 C 0.09394 -0.09468 0.48113
 C443 C 0.11596 -0.06438 0.47664
 C444 C 0.14779 -0.05855 0.49960
 C445 C 0.10553 -0.04120 0.44880
 N446 N 0.07389 -0.04664 0.42885
 N447 N 0.05210 -0.07380 0.43462
 C448 C 0.06093 -0.09788 0.46010
 H449 H 0.18206 -0.07986 0.54304
 H450 H 0.14603 -0.13371 0.54830
 H451 H 0.12226 -0.01900 0.44239
 H452 H 0.04185 -0.11904 0.46380
 C453 C 0.57614 0.36777 1.01036
 C454 C 0.60857 0.38584 1.00775
 C455 C 0.63071 0.37837 0.97899
 C456 C 0.61966 0.35174 0.95228
 C457 C 0.58592 0.33393 0.95440
 C458 C 0.56425 0.34180 0.98408
 C459 C 0.57484 0.30929 0.92627
 N460 N 0.59695 0.30169 0.89908
 N461 N 0.62924 0.31719 0.89798
 C462 C 0.64138 0.34185 0.92364
 H463 H 0.56016 0.37409 1.03336
 H464 H 0.61626 0.40627 1.02831
 H465 H 0.54875 0.29621 0.92541
 H466 H 0.66798 0.35324 0.92152
 C467 C 0.47366 0.15860 1.08891
 C468 C 0.47274 0.13760 1.11908
 C469 C 0.49748 0.10945 1.12444
 C470 C 0.52399 0.10264 1.09876
 C471 C 0.52620 0.12533 1.06921
 C472 C 0.49979 0.15258 1.06345
 C473 C 0.55501 0.11996 1.04635
 N474 N 0.57802 0.09197 1.05107
 N475 N 0.57432 0.06911 1.07718
 C476 C 0.54803 0.07331 1.10099
 H477 H 0.45330 0.17927 1.08502
 H478 H 0.45229 0.14318 1.13830
 H479 H 0.55966 0.13784 1.02493
 H480 H 0.54608 0.05341 1.12107
 C481 C -0.00874 0.57823 0.63241
 C482 C -0.01020 0.61082 0.61565
 C483 C 0.01367 0.63869 0.62692
 C484 C 0.03964 0.63324 0.65607
 C485 C 0.04214 0.59937 0.67223
 C486 C 0.01715 0.57184 0.66067
 C487 C 0.07011 0.59413 0.69904
 N488 N 0.09231 0.62161 0.71046
 N489 N 0.08863 0.65387 0.69674
 C490 C 0.06303 0.66066 0.67008
 H491 H -0.02825 0.55777 0.62324
 H492 H -0.03004 0.61412 0.59325
 H493 H 0.07482 0.56844 0.71083
 H494 H 0.06107 0.68749 0.66035
 C495 C 0.52972 0.86168 -0.07981
 C496 C 0.52984 0.87990 -0.11185
 C497 C 0.50227 0.87448 -0.13920
 C498 C 0.47457 0.84925 -0.13449
 C499 C 0.47403 0.83117 -0.10158
 C500 C 0.50202 0.83747 -0.07409
 C501 C 0.44487 0.80798 -0.09705
 N502 N 0.41915 0.80214 -0.12432
 N503 N 0.42045 0.81806 -0.15570
 C504 C 0.44725 0.84134 -0.16174
 H505 H 0.55129 0.86676 -0.05911
 H506 H 0.55109 0.89925 -0.11485
 H507 H 0.44205 0.79460 -0.07208
 H508 H 0.44708 0.85323 -0.18786
 C509 C 1.01320 0.42238 0.36584
 C510 C 1.01455 0.38960 0.38213
 C511 C 0.98471 0.36610 0.37905
 C512 C 0.95366 0.37567 0.35655
 C513 C 0.95234 0.40946 0.34020
 C514 C 0.98230 0.43293 0.34531
 C515 C 0.92096 0.41865 0.31914
 N516 N 0.89356 0.39475 0.31319
 N517 N 0.89552 0.36234 0.32677
 C518 C 0.92465 0.35187 0.34788
 H519 H 1.03651 0.43995 0.36960
 H520 H 1.03858 0.38376 0.39916
 H521 H 0.91806 0.44448 0.30716
 H522 H 0.92514 0.32477 0.35693
 C523 C 0.52537 0.86788 0.07097
 C524 C 0.52547 0.88753 0.10364
 C525 C 0.49773 0.88364 0.12767
 C526 C 0.47055 0.85713 0.11876
 C527 C 0.46984 0.83808 0.08477
 C528 C 0.49774 0.84340 0.06089
 C529 C 0.44103 0.81417 0.07580
 N530 N 0.41655 0.80748 0.10045
 N531 N 0.41888 0.82310 0.13338
 C532 C 0.44515 0.84732 0.14348
 H533 H 0.54710 0.87198 0.05321
 H534 H 0.54657 0.90740 0.10901
 H535 H 0.43772 0.80064 0.04951
 H536 H 0.44630 0.85806 0.17101
 C537 C 0.03107 0.41157 0.65457
 C538 C 0.02987 0.38046 0.63258
 C539 C 0.00246 0.37534 0.60505
 C540 C -0.02438 0.40220 0.59962
 C541 C -0.02344 0.43364 0.62236
 C542 C 0.00501 0.43856 0.64957
 C543 C -0.05133 0.45907 0.61720
 N544 N -0.07736 0.45389 0.59011
 N545 N -0.07748 0.42501 0.56793
 C546 C -0.05189 0.39908 0.57166
 H547 H 0.05293 0.41492 0.67529
 H548 H 0.05066 0.36027 0.63689
 H549 H -0.05286 0.48290 0.63451
 H550 H -0.05329 0.37643 0.55261
 C551 C 0.46919 0.12921 0.91869
 C552 C 0.47015 0.10783 0.88719
 C553 C 0.49924 0.10983 0.86478
 C554 C 0.52725 0.13506 0.87370
 C555 C 0.52671 0.15633 0.90624
 C556 C 0.49731 0.15322 0.92888
 C557 C 0.55626 0.17930 0.91539
 N558 N 0.58331 0.18200 0.89251
 N559 N 0.58302 0.16313 0.86129
 C560 C 0.55594 0.13982 0.85108
 H561 H 0.44658 0.12650 0.93570
 H562 H 0.44856 0.08864 0.88088
 H563 H 0.55834 0.19499 0.94051
 H564 H 0.55700 0.12544 0.82529
 C565 C 0.97641 0.59495 0.35203
 C566 C 0.97727 0.62546 0.37486
 C567 C 0.99942 0.62703 0.40696
 C568 C 1.02125 0.59693 0.41612
 C569 C 1.02185 0.56662 0.39186
 C570 C 0.99819 0.56517 0.36015
 C571 C 1.04648 0.53883 0.40013
 N572 N 1.06676 0.54009 0.43188
 N573 N 1.06428 0.56733 0.45581
 C574 C 1.04214 0.59564 0.44914
 H575 H 0.95814 0.59440 0.32801
 H576 H 0.96039 0.64809 0.36740
 H577 H 1.05009 0.51624 0.38161
 H578 H 1.04090 0.61657 0.46994
 C579 C 1.09234 0.53628 0.17325
 C580 C 1.12427 0.53650 0.15499
 C581 C 1.13486 0.50667 0.13353
 C582 C 1.11154 0.47606 0.13051
 C583 C 1.08082 0.47507 0.15159
 C584 C 1.07026 0.50600 0.17151
 C585 C 1.06070 0.44319 0.15127
 N586 N 1.06816 0.41569 0.12802
 N587 N 1.09431 0.41805 0.10511
 C588 C 1.11577 0.44738 0.10510
 H589 H 1.08453 0.56013 0.18845
 H590 H 1.14106 0.56021 0.15828
 H591 H 1.03900 0.44004 0.16919
 H592 H 1.13506 0.44817 0.08445
 C593 C 0.66156 -0.02551 0.59707
 C594 C 0.64188 -0.02799 0.62780
 C595 C 0.61817 -0.00051 0.63810
 C596 C 0.61500 0.03060 0.61733
 C597 C 0.63626 0.03367 0.58704
 C598 C 0.65841 0.00470 0.57600
 C599 C 0.63451 0.06577 0.56850
 N600 N 0.61113 0.09197 0.57817
 N601 N 0.58950 0.08825 0.60519
 C602 C 0.59045 0.05847 0.62494
 H603 H 0.67849 -0.04782 0.58902
 H604 H 0.64449 -0.05197 0.64323
 H605 H 0.65184 0.07040 0.54671
 H606 H 0.57174 0.05694 0.64607
 C607 C -0.07396 0.47005 0.86047
 C608 C -0.10687 0.46842 0.87684
 C609 C -0.13326 0.49514 0.87189
 C610 C -0.12674 0.52339 0.84872
 C611 C -0.09291 0.52550 0.83265
 C612 C -0.06632 0.49848 0.83866
 C613 C -0.08657 0.55528 0.81186
 N614 N -0.11302 0.58006 0.80618
 N615 N -0.14526 0.57727 0.82006
 C616 C -0.15304 0.54981 0.84107
 H617 H -0.05400 0.44918 0.86530
 H618 H -0.11124 0.44675 0.89463
 H619 H -0.06084 0.55934 0.80026
 H620 H -0.17977 0.54878 0.85138
 C621 C 0.36619 0.01669 0.41401
 C622 C 0.38398 0.01917 0.38219
 C623 C 0.37498 -0.00360 0.35207
 C624 C 0.34654 -0.02872 0.35391
 C625 C 0.32884 -0.03174 0.38662
 C626 C 0.33884 -0.00870 0.41690
 C627 C 0.30226 -0.05840 0.38807
 N628 N 0.29299 -0.07933 0.35826
 N629 N 0.30862 -0.07557 0.32721
 C630 C 0.33500 -0.05099 0.32399
 H631 H 0.37408 0.03461 0.43680
 H632 H 0.40580 0.03835 0.38146
 H633 H 0.28891 -0.06302 0.41259
 H634 H 0.34648 -0.04893 0.29802
 C635 C 0.07869 0.47443 0.87503
 C636 C 0.10926 0.47459 0.89895
 C637 C 0.13106 0.50516 0.90450
 C638 C 0.12175 0.53626 0.88520
 C639 C 0.09072 0.53595 0.86053
 C640 C 0.06902 0.50475 0.85569
 C641 C 0.08173 0.56741 0.84241
 N642 N 0.10248 0.59708 0.84867
 N643 N 0.13137 0.59751 0.87202
 C644 C 0.14158 0.56826 0.89063
 H645 H 0.06230 0.45043 0.87165
 H646 H 0.11575 0.45072 0.91370
 H647 H 0.05824 0.56888 0.82362
 H648 H 0.16484 0.57054 0.90970
 C649 C 0.65268 -0.01385 0.41245
 C650 C 0.63023 -0.01490 0.38083
 C651 C 0.59979 0.00752 0.37716
 C652 C 0.59196 0.03156 0.40635
 C653 C 0.61628 0.03435 0.43749
 C654 C 0.64612 0.01037 0.44119
 C655 C 0.61000 0.06149 0.46376
 N656 N 0.57960 0.08188 0.46074
 N657 N 0.55521 0.07719 0.43304
 C658 C 0.56021 0.05265 0.40590
 H659 H 0.67521 -0.03247 0.41462
 H660 H 0.63669 -0.03349 0.35897
 H661 H 0.62914 0.06702 0.48640
 H662 H 0.53909 0.04971 0.38452
 C663 C 0.90490 0.51706 0.15615
 C664 C 0.87470 0.51590 0.13164
 C665 C 0.87501 0.49538 0.09916
 C666 C 0.90679 0.47558 0.09146
 C667 C 0.93612 0.47417 0.11794
 C668 C 0.93599 0.49658 0.14982
 C669 C 0.96446 0.44986 0.11162
 N670 N 0.96550 0.43175 0.07932
 N671 N 0.93985 0.43597 0.05303
 C672 C 0.91071 0.45742 0.05787
 H673 H 0.90402 0.53441 0.18018
 H674 H 0.85086 0.53128 0.13812
 H675 H 0.98552 0.44475 0.13216
 H676 H 0.89118 0.46025 0.03527
 C677 C 0.38177 0.00066 0.55675
 C678 C 0.40222 0.00123 0.58953
 C679 C 0.39074 -0.01693 0.61921
 C680 C 0.35807 -0.03705 0.61496
 C681 C 0.33868 -0.03980 0.58063
 C682 C 0.34968 -0.01926 0.55175
 C683 C 0.30893 -0.06332 0.57640
 N684 N 0.29739 -0.08007 0.60534
 N685 N 0.31374 -0.07512 0.63814
 C686 C 0.34347 -0.05404 0.64400
 H687 H 0.39085 0.01662 0.53530
 H688 H 0.42726 0.01637 0.59173
 H689 H 0.29487 -0.06881 0.55035
 H690 H 0.35503 -0.05056 0.67136
   
