data_POSCAR
  _audit_creation_date              2014-09-24
  _audit_creation_method            'ToBaCCo'
  _symmetry_space_group_name_H-M    'P1'
  _symmetry_Int_Tables_number       1
  _symmetry_cell_setting            triclinic
  loop_
  _symmetry_equiv_pos_as_xyz
 x,y,z
_cell_length_a 46.3336
_cell_length_b 46.3238
_cell_length_c 46.3941
_cell_angle_alpha 90.022300
_cell_angle_beta 90.037600
_cell_angle_gamma 89.957400
loop_
  _atom_site_label
  _atom_site_type_symbol
  _atom_site_fract_x
  _atom_site_fract_y
  _atom_site_fract_z
C1 C 0.34032 0.38284 1.36434
 C2 C 0.36111 0.38425 1.34243
 C3 C 0.38286 0.36380 1.34114
 C4 C 0.38411 0.34166 1.36172
 C5 C 0.36360 0.34029 1.38333
 C6 C 0.34155 0.36101 1.38465
 C7 C 0.31609 0.39903 1.37015
 N8 N 0.30255 0.38751 1.39346
 C9 C 0.31803 0.36426 1.40250
 C10 C 0.36938 0.31602 1.39943
 N11 N 0.39286 0.30258 1.38806
 C12 C 0.40205 0.31817 1.36500
 C13 C 0.39913 0.36973 1.31705
 N14 N 0.38775 0.39323 1.30372
 C15 C 0.36450 0.40228 1.31909
 H16 H 0.30862 0.41750 1.35795
 H17 H 0.31236 0.35039 1.42040
 H18 H 0.35703 0.30844 1.41773
 H19 H 0.42011 0.31259 1.35128
 H20 H 0.41754 0.35751 1.30946
 H21 H 0.35075 0.42030 1.31339
 C22 C 1.16020 0.61759 0.86403
 C23 C 1.13941 0.61617 0.84209
 C24 C 1.11765 0.63661 0.84078
 C25 C 1.11640 0.65876 0.86138
 C26 C 1.13692 0.66014 0.88302
 C27 C 1.15897 0.63942 0.88436
 C28 C 1.18441 0.60139 0.86988
 N29 N 1.19795 0.61290 0.89323
 C30 C 1.18247 0.63616 0.90225
 C31 C 1.13110 0.68439 0.89913
 N32 N 1.10760 0.69782 0.88776
 C33 C 1.09844 0.68222 0.86467
 C34 C 1.10137 0.63065 0.81669
 N35 N 1.11274 0.60714 0.80337
 C36 C 1.13600 0.59811 0.81875
 H37 H 1.19188 0.58289 0.85769
 H38 H 1.18813 0.65002 0.92018
 H39 H 1.14343 0.69197 0.91748
 H40 H 1.08036 0.68778 0.85093
 H41 H 1.08294 0.64286 0.80909
 H42 H 1.14975 0.58008 0.81308
 C43 C 0.66014 -0.11727 0.13581
 C44 C 0.63935 -0.11586 0.15773
 C45 C 0.61762 -0.13629 0.15900
 C46 C 0.61639 -0.15842 0.13839
 C47 C 0.63690 -0.15979 0.11677
 C48 C 0.65893 -0.13908 0.11546
 C49 C 0.68434 -0.10108 0.13001
 N50 N 0.69788 -0.11258 0.10667
 C51 C 0.68243 -0.13582 0.09761
 C52 C 0.63112 -0.18405 0.10064
 N53 N 0.60764 -0.19747 0.11200
 C54 C 0.59846 -0.18188 0.13508
 C55 C 0.60136 -0.13037 0.18309
 N56 N 0.61272 -0.10689 0.19646
 C57 C 0.63595 -0.09784 0.18110
 H58 H 0.69179 -0.08260 0.14223
 H59 H 0.68811 -0.14968 0.07968
 H60 H 0.64345 -0.19164 0.08232
 H61 H 0.58040 -0.18744 0.14881
 H62 H 0.58296 -0.14259 0.19067
 H63 H 0.64969 -0.07983 0.18682
 C64 C -0.15984 1.11726 -0.36446
 C65 C -0.13903 1.11584 -0.34254
 C66 C -0.11727 1.13624 -0.34126
 C67 C -0.11604 1.15835 -0.36188
 C68 C -0.13657 1.15973 -0.38350
 C69 C -0.15863 1.13905 -0.38480
 C70 C -0.18407 1.10110 -0.37024
 N71 N -0.19765 1.11260 -0.39356
 C72 C -0.18217 1.13581 -0.40264
 C73 C -0.13078 1.18397 -0.39962
 N74 N -0.10727 1.19738 -0.38826
 C75 C -0.09808 1.18179 -0.36518
 C76 C -0.10100 1.13032 -0.31715
 N77 N -0.11239 1.10687 -0.30379
 C78 C -0.13564 1.09784 -0.31916
 H79 H -0.19153 1.08265 -0.35801
 H80 H -0.18787 1.14966 -0.42057
 H81 H -0.14313 1.19156 -0.41795
 H82 H -0.08000 1.18734 -0.35145
 H83 H -0.08258 1.14253 -0.30956
 H84 H -0.14941 1.07986 -0.31345
 C85 C 0.65974 0.61823 0.63749
 C86 C 0.63881 0.61748 0.65930
 C87 C 0.61741 0.63830 0.66020
 C88 C 0.61664 0.66016 0.63931
 C89 C 0.63729 0.66089 0.61779
 C90 C 0.65898 0.63979 0.61687
 C91 C 0.68374 0.60158 0.63206
 N92 N 0.69753 0.61255 0.60869
 C93 C 0.68254 0.63591 0.59923
 C94 C 0.63200 0.68503 0.60133
 N95 N 0.60867 0.69900 0.61237
 C96 C 0.59911 0.68388 0.63560
 C97 C 0.60092 0.63298 0.68428
 N98 N 0.61184 0.60947 0.69797
 C99 C 0.63501 0.59983 0.68285
 H100 H 0.69095 0.58319 0.64453
 H101 H 0.68865 0.64941 0.58120
 H102 H 0.64456 0.69215 0.58298
 H103 H 0.58106 0.68994 0.64914
 H104 H 0.58267 0.64560 0.69162
 H105 H 0.64843 0.58165 0.68884
 C106 C 0.83910 0.38154 0.13749
 C107 C 0.86017 0.38240 0.15919
 C108 C 0.88167 0.36167 0.15997
 C109 C 0.88239 0.33979 0.13907
 C110 C 0.86160 0.33895 0.11767
 C111 C 0.83981 0.35997 0.11687
 C112 C 0.81502 0.39811 0.13217
 N113 N 0.80107 0.38707 0.10885
 C114 C 0.81614 0.36375 0.09933
 C115 C 0.86689 0.31482 0.10118
 N116 N 0.89036 0.30097 0.11211
 C117 C 0.90000 0.31616 0.13528
 C118 C 0.89830 0.36708 0.18396
 N119 N 0.88738 0.39054 0.19771
 C120 C 0.86407 0.40008 0.18271
 H121 H 0.80793 0.41653 0.14470
 H122 H 0.81008 0.35019 0.08129
 H123 H 0.85425 0.30762 0.08290
 H124 H 0.91817 0.31020 0.14873
 H125 H 0.91665 0.35453 0.19118
 H126 H 0.85062 0.41821 0.18879
 C127 C 0.33876 0.11764 0.86239
 C128 C 0.35982 0.11673 0.84071
 C129 C 0.38142 0.13733 0.84003
 C130 C 0.38227 0.15910 0.86101
 C131 C 0.36150 0.15999 0.88241
 C132 C 0.33960 0.13912 0.88310
 C133 C 0.31460 0.10121 0.86764
 N134 N 0.30073 0.11224 0.89100
 C135 C 0.31593 0.13543 0.90062
 C136 C 0.36691 0.18404 0.89897
 N137 N 0.39041 0.19773 0.88810
 C138 C 0.39997 0.18263 0.86490
 C139 C 0.39801 0.13191 0.81604
 N140 N 0.38697 0.10858 0.80217
 C141 C 0.36362 0.09913 0.81710
 H142 H 0.30740 0.08289 0.85504
 H143 H 0.30996 0.14895 0.91871
 H144 H 0.35434 0.19136 0.91723
 H145 H 0.41813 0.18863 0.85151
 H146 H 0.41643 0.14437 0.80888
 H147 H 0.35008 0.08111 0.81094
 C148 C 0.16103 0.88227 0.36244
 C149 C 0.13996 0.88317 0.34074
 C150 C 0.11838 0.86256 0.34001
 C151 C 0.11756 0.84077 0.36097
 C152 C 0.13835 0.83989 0.38238
 C153 C 0.16023 0.86078 0.38312
 C154 C 0.18518 0.89873 0.36772
 N155 N 0.19908 0.88769 0.39106
 C156 C 0.18392 0.86449 0.40065
 C157 C 0.13297 0.81582 0.39890
 N158 N 0.10947 0.80212 0.38800
 C159 C 0.09988 0.81722 0.36481
 C160 C 0.10178 0.86797 0.31601
 N161 N 0.11279 0.89133 0.30219
 C162 C 0.13614 0.90079 0.31716
 H163 H 0.19235 0.91706 0.35514
 H164 H 0.18992 0.85096 0.41872
 H165 H 0.14556 0.80851 0.41717
 H166 H 0.08172 0.81121 0.35140
 H167 H 0.08337 0.85550 0.30881
 H168 H 0.14967 0.91882 0.31104
 Zn169 Zn 0.00641 1.03399 -0.01858
 Zn170 Zn -0.02330 0.97668 -0.02332
 Zn171 Zn 0.03392 0.98156 0.00651
 Zn172 Zn -0.01862 1.00660 0.03382
 O173 O -0.00044 0.99966 -0.00044
 O174 O -0.01054 1.03594 -0.05307
 O175 O -0.00617 0.94304 -0.03256
 O176 O 0.06442 1.00145 -0.00641
 O177 O -0.03260 0.99369 -0.05696
 O178 O 0.04396 1.04043 -0.02498
 O179 O 0.03602 0.94700 -0.01039
 O180 O 0.00128 0.99375 0.06434
 O181 O -0.05694 0.96737 -0.00631
 O182 O 0.04034 0.97520 0.04404
 O183 O -0.05310 0.98957 0.03582
 O184 O -0.02515 1.04416 0.04017
 O185 O -0.00661 1.06455 0.00123
 C186 C -0.02612 1.01833 -0.06707
 C187 C 0.01848 0.93295 -0.02602
 C188 C 0.06623 1.02556 -0.01924
 C189 C 0.02543 0.98096 0.06623
 C190 C -0.06707 0.97389 0.01828
 C191 C -0.01946 1.06641 0.02529
 Zn192 Zn 0.49351 -0.03386 0.48141
 Zn193 Zn 0.51856 -0.00642 0.53384
 Zn194 Zn 0.52323 0.02343 0.47670
 Zn195 Zn 0.46602 0.01861 0.50648
 O196 O 0.50037 0.00048 0.49957
 O197 O 0.50648 -0.06440 0.50125
 O198 O 0.55306 0.01058 0.53588
 O199 O 0.53252 0.00639 0.44309
 O200 O 0.52504 -0.04399 0.54022
 O201 O 0.51048 -0.03586 0.44694
 O202 O 0.55687 0.03273 0.49374
 O203 O 0.46394 0.05315 0.48958
 O204 O 0.49866 0.00646 0.56435
 O205 O 0.50612 0.05707 0.46747
 O206 O 0.45960 0.02497 0.54400
 O207 O 0.43551 -0.00129 0.49352
 O208 O 0.45596 -0.04028 0.47496
 C209 C 0.51931 -0.06624 0.52535
 C210 C 0.56702 0.02623 0.51834
 C211 C 0.52606 -0.01825 0.43296
 C212 C 0.48148 0.06718 0.47398
 C213 C 0.47451 0.01923 0.56621
 C214 C 0.43369 -0.02541 0.48069
 Zn215 Zn 1.01861 0.50617 0.46611
 Zn216 Zn 1.02332 0.47627 0.52324
 Zn217 Zn 0.99348 0.53354 0.51852
 Zn218 Zn 0.96611 0.48109 0.49334
 O219 O 1.00042 0.49922 0.50035
 O220 O 1.05314 0.48920 0.46413
 O221 O 1.03256 0.49329 0.55690
 O222 O 1.00643 0.56410 0.49875
 O223 O 1.05699 0.46698 0.50625
 O224 O 1.02504 0.54375 0.45979
 O225 O 1.01040 0.53551 0.55303
 O226 O 0.93556 0.50098 0.50621
 O227 O 1.00624 0.44261 0.53243
 O228 O 0.95591 0.53996 0.52486
 O229 O 0.96407 0.44656 0.51023
 O230 O 0.95976 0.47470 0.45580
 O231 O 0.99879 0.49328 0.43555
 C232 C 1.06713 0.47353 0.48168
 C233 C 1.02602 0.51792 0.56703
 C234 C 1.01929 0.56598 0.47469
 C235 C 0.93368 0.52508 0.51905
 C236 C 0.98162 0.43251 0.52586
 C237 C 0.97468 0.48046 0.43363
 Zn238 Zn 0.48156 0.49363 0.96640
 Zn239 Zn 0.47695 0.52359 1.02352
 Zn240 Zn 0.50669 0.46627 1.01882
 Zn241 Zn 0.53413 0.51864 0.99366
 O242 O 0.49979 0.50058 1.00064
 O243 O 0.44705 0.51065 0.96441
 O244 O 0.46770 0.50661 1.05717
 O245 O 0.49368 0.43571 0.99904
 O246 O 0.44327 0.53292 1.00651
 O247 O 0.47508 0.45606 0.96006
 O248 O 0.48980 0.46435 1.05332
 O249 O 0.56468 0.49871 1.00654
 O250 O 0.49408 0.55722 1.03272
 O251 O 0.54426 0.45979 1.02519
 O252 O 0.53624 0.55318 1.01057
 O253 O 0.54044 0.52503 0.95613
 O254 O 0.50136 0.50650 0.93586
 C255 C 0.43309 0.52636 0.98193
 C256 C 0.47421 0.48198 1.06730
 C257 C 0.48082 0.43383 0.97497
 C258 C 0.56652 0.47461 1.01939
 C259 C 0.51872 0.56727 1.02618
 C260 C 0.52548 0.51930 0.93395
 N261 N 1.24033 0.39248 0.43911
 C262 C 1.22656 0.41559 0.42760
 N263 N 1.23853 0.42938 0.40480
 N264 N 1.26348 0.42032 0.39376
 C265 C 1.27736 0.39709 0.40512
 N266 N 1.26531 0.38340 0.42809
 C267 C 1.19926 0.42499 0.43881
 C268 C 1.17612 0.43322 0.44739
 C269 C 1.14836 0.44349 0.45651
 N270 N 1.13247 0.46036 0.43869
 N271 N 1.10661 0.46990 0.44682
 C272 C 1.09572 0.46288 0.47305
 N273 N 1.11167 0.44596 0.49091
 N274 N 1.13758 0.43641 0.48276
 N275 N 0.26188 0.57092 0.90471
 C276 C 0.27384 0.58469 0.92756
 N277 N 0.26009 0.60783 0.93904
 N278 N 0.23516 0.61695 0.92796
 C279 C 0.22311 0.60328 0.90495
 N280 N 0.23697 0.58003 0.89362
 C281 C 0.30111 0.57523 0.93884
 C282 C 0.32422 0.56694 0.94748
 C283 C 0.35195 0.55660 0.95665
 N284 N 0.36778 0.53964 0.93887
 N285 N 0.39361 0.53004 0.94703
 C286 C 0.40453 0.53706 0.97328
 N287 N 0.38863 0.55407 0.99110
 N288 N 0.36275 0.56369 0.98291
 N289 N -0.23996 0.89248 0.06096
 C290 C -0.22624 0.91561 0.07249
 N291 N -0.23821 0.92936 0.09533
 N292 N -0.26312 0.92026 0.10638
 C293 C -0.27696 0.89703 0.09500
 N294 N -0.26490 0.88337 0.07200
 C295 C -0.19898 0.92506 0.06126
 C296 C -0.17587 0.93334 0.05265
 C297 C -0.14816 0.94367 0.04351
 N298 N -0.13231 0.96058 0.06133
 N299 N -0.10650 0.97017 0.05318
 C300 C -0.09561 0.96319 0.02692
 N301 N -0.11153 0.94624 0.00907
 N302 N -0.13739 0.93662 0.01724
 N303 N 0.73836 0.07074 0.59519
 C304 C 0.72634 0.08448 0.57237
 N305 N 0.74007 0.10757 0.56081
 N306 N 0.76505 0.11667 0.57181
 C307 C 0.77715 0.10301 0.59479
 N308 N 0.76331 0.07981 0.60620
 C309 C 0.69904 0.07505 0.56118
 C310 C 0.67591 0.06677 0.55262
 C311 C 0.64816 0.05645 0.54351
 N312 N 0.63735 0.06346 0.51724
 N313 N 0.61147 0.05385 0.50909
 C314 C 0.59558 0.03694 0.52698
 N315 N 0.60651 0.02999 0.55323
 N316 N 0.63234 0.03958 0.56136
 N317 N 0.40410 0.23845 0.42971
 C318 C 0.42710 0.22657 0.41610
 N319 N 0.43876 0.24044 0.39317
 N320 N 0.42771 0.26541 0.38411
 C321 C 0.40456 0.27738 0.39762
 N322 N 0.39304 0.26340 0.42066
 C323 C 0.43834 0.19927 0.42549
 C324 C 0.44697 0.17613 0.43372
 C325 C 0.45614 0.14838 0.44398
 N326 N 0.48246 0.13762 0.43695
 N327 N 0.49066 0.11172 0.44650
 C328 C 0.47279 0.09576 0.46336
 N329 N 0.44648 0.10664 0.47032
 N330 N 0.43830 0.13249 0.46080
 N331 N 0.93873 0.25937 0.60660
 C332 C 0.92707 0.27325 0.58366
 N333 N 0.90405 0.26143 0.57004
 N334 N 0.89295 0.23653 0.57910
 C335 C 0.90446 0.22253 0.60216
 N336 N 0.92764 0.23443 0.61568
 C337 C 0.93836 0.30051 0.57426
 C338 C 0.94702 0.32362 0.56604
 C339 C 0.95623 0.35135 0.55579
 N340 N 0.93843 0.36727 0.53892
 N341 N 0.94663 0.39310 0.52942
 C342 C 0.97292 0.40394 0.53646
 N343 N 0.99076 0.38795 0.55337
 N344 N 0.98254 0.36207 0.56289
 N345 N 0.09623 0.76188 -0.07049
 C346 C 0.07320 0.77372 -0.08410
 N347 N 0.06156 0.75985 -0.10707
 N348 N 0.07268 0.73491 -0.11617
 C349 C 0.09586 0.72298 -0.10265
 N350 N 0.10735 0.73696 -0.07957
 C351 C 0.06189 0.80098 -0.07466
 C352 C 0.05321 0.82409 -0.06640
 C353 C 0.04397 0.85181 -0.05609
 N354 N 0.06177 0.86772 -0.03922
 N355 N 0.05354 0.89355 -0.02967
 C356 C 0.02722 0.90439 -0.03666
 N357 N 0.00938 0.88841 -0.05357
 N358 N 0.01763 0.86253 -0.06314
 N359 N 0.56171 0.74047 1.10688
 C360 C 0.57336 0.72659 1.08393
 N361 N 0.59635 0.73841 1.07031
 N362 N 0.60743 0.76334 1.07937
 C363 C 0.59593 0.77735 1.10243
 N364 N 0.57278 0.76543 1.11595
 C365 C 0.56208 0.69931 1.07454
 C366 C 0.55342 0.67618 1.06632
 C367 C 0.54420 0.64844 1.05609
 N368 N 0.56199 0.63248 1.03927
 N369 N 0.55377 0.60664 1.02977
 C370 C 0.52746 0.59584 1.03678
 N371 N 0.50963 0.61187 1.05365
 N372 N 0.51788 0.63776 1.06316
 N373 N 0.39318 0.43953 1.24021
 C374 C 0.41632 0.42801 1.22652
 N375 N 0.43015 0.40518 1.23853
 N376 N 0.42109 0.39416 1.26345
 C377 C 0.39787 0.40557 1.27722
 N378 N 0.38411 0.42851 1.26515
 C379 C 0.42572 0.43920 1.19926
 C380 C 0.43395 0.44778 1.17615
 C381 C 0.44421 0.45688 1.14842
 N382 N 0.46103 0.43897 1.13257
 N383 N 0.47055 0.44708 1.10675
 C384 C 0.46359 0.47338 1.09585
 N385 N 0.44672 0.49133 1.11178
 N386 N 0.43718 0.48319 1.13765
 N387 N 0.60725 -0.06067 0.26006
 C388 C 0.58411 -0.07220 0.27373
 N389 N 0.57031 -0.09500 0.26167
 N390 N 0.57937 -0.10599 0.23673
 C391 C 0.60259 -0.09457 0.22298
 N392 N 0.61633 -0.07166 0.23510
 C393 C 0.57470 -0.06104 0.30101
 C394 C 0.56646 -0.05248 0.32413
 C395 C 0.55617 -0.04339 0.35187
 N396 N 0.53939 -0.06130 0.36770
 N397 N 0.52983 -0.05319 0.39352
 C398 C 0.53673 -0.02688 0.40443
 N399 N 0.55357 -0.00893 0.38852
 N400 N 0.56314 -0.01707 0.36265
 N401 N -0.07004 1.09497 -0.23850
 C402 C -0.08388 1.07220 -0.22647
 N403 N -0.10702 1.06070 -0.24018
 N404 N -0.11606 1.07168 -0.26516
 C405 C -0.10228 1.09456 -0.27725
 N406 N -0.07906 1.10596 -0.26346
 C407 C -0.07451 1.06105 -0.19916
 C408 C -0.06632 1.05250 -0.17601
 C409 C -0.05610 1.04342 -0.14825
 N410 N -0.06310 1.01711 -0.13749
 N411 N -0.05357 1.00899 -0.11160
 C412 C -0.03676 1.02694 -0.09563
 N413 N -0.02982 1.05323 -0.10651
 N414 N -0.03933 1.06133 -0.13236
 N415 N 1.07027 0.59507 0.73819
 C416 C 1.08408 0.57222 0.72620
 N417 N 1.10724 0.56073 0.73991
 N418 N 1.11634 0.57179 0.76484
 C419 C 1.10259 0.59475 0.77688
 N420 N 1.07935 0.60614 0.76309
 C421 C 1.07464 0.56097 0.69895
 C422 C 1.06639 0.55235 0.67585
 C423 C 1.05609 0.54318 0.64813
 N424 N 1.06315 0.51687 0.63738
 N425 N 1.05358 0.50868 0.61151
 C426 C 1.03666 0.52657 0.59558
 N427 N 1.02967 0.55288 0.60646
 N428 N 1.03922 0.56104 0.63227
 N429 N 0.76257 0.56936 0.59796
 C430 C 0.77488 0.58275 0.57509
 N431 N 0.76145 0.60586 0.56317
 N432 N 0.73647 0.61532 0.57383
 C433 C 0.72409 0.60200 0.59679
 N434 N 0.73760 0.57881 0.60862
 C435 C 0.80212 0.57297 0.56411
 C436 C 0.82516 0.56476 0.55528
 C437 C 0.85277 0.55499 0.54525
 N438 N 0.87683 0.57076 0.55057
 N439 N 0.90260 0.56135 0.54196
 C440 C 0.90518 0.53584 0.52776
 N441 N 0.88102 0.52013 0.52239
 N442 N 0.85524 0.52955 0.53100
 N443 N 0.73856 0.39344 1.06376
 C444 C 0.72516 0.41657 1.07568
 N445 N 0.73747 0.42990 1.09861
 N446 N 0.76239 0.42037 1.10934
 C447 C 0.77589 0.39713 1.09755
 N448 N 0.76349 0.38390 1.07448
 C449 C 0.69797 0.42643 1.06464
 C450 C 0.67495 0.43470 1.05575
 C451 C 0.64736 0.44453 1.04568
 N452 N 0.64495 0.46997 1.03143
 N453 N 0.61919 0.47945 1.02279
 C454 C 0.59500 0.46380 1.02812
 N455 N 0.59752 0.43829 1.04233
 N456 N 0.62327 0.42882 1.05097
 N457 N 0.23695 1.06978 -0.09887
 C458 C 0.22477 1.08309 -0.07588
 N459 N 0.23829 1.10609 -0.06388
 N460 N 0.26324 1.11552 -0.07459
 C461 C 0.27553 1.10231 -0.09772
 N462 N 0.26189 1.07920 -0.10960
 C463 C 0.19757 1.07333 -0.06481
 C464 C 0.17456 1.06515 -0.05588
 C465 C 0.14700 1.05541 -0.04574
 N466 N 0.12291 1.07119 -0.05095
 N467 N 0.09718 1.06181 -0.04224
 C468 C 0.09469 1.03631 -0.02803
 N469 N 0.11888 1.02058 -0.02276
 N470 N 0.14461 1.02998 -0.03148
 N471 N 0.26284 -0.06979 0.40122
 C472 C 0.27508 -0.08310 0.42419
 N473 N 0.26160 -0.10611 0.43617
 N474 N 0.23664 -0.11556 0.42545
 C475 C 0.22429 -0.10236 0.40235
 N476 N 0.23789 -0.07922 0.39050
 C477 C 0.30229 -0.07332 0.43524
 C478 C 0.32531 -0.06511 0.44414
 C479 C 0.35289 -0.05533 0.45425
 N480 N 0.35529 -0.02988 0.46849
 N481 N 0.38104 -0.02045 0.47717
 C482 C 0.40523 -0.03617 0.47190
 N483 N 0.40272 -0.06169 0.45770
 N484 N 0.37698 -0.07111 0.44902
 N485 N 0.56363 -0.23839 0.60615
 C486 C 0.57559 -0.22498 0.58312
 N487 N 0.59852 -0.23729 0.56980
 N488 N 0.60923 -0.26225 0.57925
 C489 C 0.59740 -0.27578 0.60241
 N490 N 0.57432 -0.26336 0.61562
 C491 C 0.56456 -0.19775 0.57332
 C492 C 0.55570 -0.17471 0.56509
 C493 C 0.54564 -0.14711 0.55529
 N494 N 0.53143 -0.14468 0.52985
 N495 N 0.52279 -0.11892 0.52041
 C496 C 0.52808 -0.09473 0.53610
 N497 N 0.54225 -0.09726 0.56161
 N498 N 0.55089 -0.12302 0.57104
 N499 N 1.09882 0.73694 0.43087
 C500 C 1.07579 0.72475 0.41757
 N501 N 1.06375 0.73830 0.39463
 N502 N 1.07444 0.76328 0.38524
 C503 C 1.09756 0.77555 0.39847
 N504 N 1.10951 0.76191 0.42150
 C505 C 1.06476 0.69751 0.42728
 C506 C 1.05586 0.67447 0.43540
 C507 C 1.04575 0.64687 0.44508
 N508 N 1.03148 0.64439 0.47047
 N509 N 1.02278 0.61862 0.47979
 C510 C 1.02808 0.59447 0.46404
 N511 N 1.04231 0.59705 0.43859
 N512 N 1.05100 0.62281 0.42927
 N513 N -0.06432 1.23857 0.10574
 C514 C -0.07636 1.22505 0.08278
 N515 N -0.09945 1.23722 0.06956
 N516 N -0.11022 1.26215 0.07903
 C517 C -0.09831 1.27579 0.10211
 N518 N -0.07509 1.26351 0.11523
 C519 C -0.06526 1.19785 0.07298
 C520 C -0.05630 1.17483 0.06478
 C521 C -0.04613 1.14725 0.05504
 N522 N -0.05130 1.12317 0.07082
 N523 N -0.04254 1.09743 0.06146
 C524 C -0.02832 1.09489 0.03599
 N525 N -0.02311 1.11906 0.02027
 N526 N -0.03187 1.14481 0.02964
 N527 N 0.40113 0.26291 0.93103
 C528 C 0.42416 0.27508 0.91775
 N529 N 0.43618 0.26152 0.89481
 N530 N 0.42547 0.23654 0.88540
 C531 C 0.40235 0.22429 0.89861
 N532 N 0.39042 0.23794 0.92163
 C533 C 0.43521 0.30231 0.92749
 C534 C 0.44412 0.32535 0.93563
 C535 C 0.45426 0.35295 0.94533
 N536 N 0.46854 0.35543 0.97072
 N537 N 0.47727 0.38119 0.98006
 C538 C 0.47199 0.40534 0.96431
 N539 N 0.45775 0.40276 0.93884
 N540 N 0.44903 0.37700 0.92951
 N541 N 0.56909 0.59890 0.76318
 C542 C 0.58241 0.57585 0.77533
 N543 N 0.60532 0.56376 0.76174
 N544 N 0.61466 0.57444 0.73677
 C545 C 0.60142 0.59759 0.72455
 N546 N 0.57842 0.60958 0.73821
 C547 C 0.57274 0.56482 0.80254
 C548 C 0.56465 0.55591 0.82557
 C549 C 0.55501 0.54578 0.85314
 N550 N 0.57090 0.55098 0.87713
 N551 N 0.56162 0.54227 0.90287
 C552 C 0.53612 0.52807 0.90548
 N553 N 0.52029 0.52282 0.88139
 N554 N 0.52958 0.53153 0.85565
 N555 N 0.39355 0.06315 0.73816
 C556 C 0.41668 0.07507 0.72483
 N557 N 0.43013 0.09790 0.73723
 N558 N 0.42070 0.10853 0.76220
 C559 C 0.39748 0.09671 0.77561
 N560 N 0.38411 0.07379 0.76313
 C561 C 0.42647 0.06411 0.69761
 C562 C 0.43469 0.05531 0.67458
 C563 C 0.44450 0.04532 0.64700
 N564 N 0.47001 0.03117 0.64455
 N565 N 0.47946 0.02260 0.61880
 C566 C 0.46373 0.02792 0.59467
 N567 N 0.43816 0.04203 0.59722
 N568 N 0.42871 0.05060 0.62296
 N569 N 0.06966 0.90204 0.23719
 C570 C 0.08309 0.92490 0.22486
 N571 N 0.10620 0.93683 0.23826
 N572 N 0.11563 0.92617 0.26323
 C573 C 0.10228 0.90321 0.27563
 N574 N 0.07908 0.89138 0.26215
 C575 C 0.07332 0.93589 0.19765
 C576 C 0.06512 0.94473 0.17462
 C577 C 0.05535 0.95476 0.14704
 N578 N 0.02986 0.96895 0.14456
 N579 N 0.02044 0.97757 0.11881
 C580 C 0.03619 0.97226 0.09470
 N581 N 0.06174 0.95810 0.09728
 N582 N 0.07115 0.94950 0.12303
 N583 N 0.89413 0.43622 0.26153
 C584 C 0.91719 0.42421 0.27497
 N585 N 0.93053 0.40124 0.26270
 N586 N 0.92108 0.39055 0.23776
 C587 C 0.89794 0.40246 0.22424
 N588 N 0.88467 0.42553 0.23658
 C589 C 0.92697 0.43522 0.30218
 C590 C 0.93516 0.44408 0.32520
 C591 C 0.94490 0.45415 0.35279
 N592 N 0.97035 0.46837 0.35529
 N593 N 0.97973 0.47702 0.38104
 C594 C 0.96397 0.47172 0.40515
 N595 N 0.93846 0.45754 0.40254
 N596 N 0.92909 0.44889 0.37680
   
