data_POSCAR
  _audit_creation_date              2014-09-24
  _audit_creation_method            'ToBaCCo'
  _symmetry_space_group_name_H-M    'P1'
  _symmetry_Int_Tables_number       1
  _symmetry_cell_setting            triclinic
  loop_
  _symmetry_equiv_pos_as_xyz
 x,y,z
_cell_length_a 20.8689
_cell_length_b 20.8689
_cell_length_c 17.0956
_cell_angle_alpha 90.000000
_cell_angle_beta 90.000000
_cell_angle_gamma 90.000000
loop_
  _atom_site_label
  _atom_site_type_symbol
  _atom_site_fract_x
  _atom_site_fract_y
  _atom_site_fract_z
C1 C 0.33675 -0.00000 0.25000
 C2 C 0.16325 -0.00000 0.75000
 C3 C 0.66325 0.50000 0.25000
 C4 C 0.83675 0.50000 0.75000
 C5 C 0.25000 0.41325 1.00000
 C6 C 0.75000 0.08675 1.00000
 C7 C 0.25000 0.58675 0.50000
 C8 C 0.75000 0.91325 0.50000
 C9 C 0.00000 0.25000 0.37500
 C10 C -0.00000 0.75000 0.12500
 C11 C 0.50000 0.25000 0.62500
 C12 C 0.50000 0.75000 0.87500
 C13 C -0.25000 0.58675 1.00000
 C14 C -0.25000 0.41325 0.50000
 C15 C 0.25000 -0.08675 -0.00000
 C16 C 0.25000 1.08675 0.50000
 C17 C 0.16325 0.50000 0.25000
 C18 C -0.16325 1.00000 0.25000
 C19 C 0.33675 0.50000 -0.25000
 C20 C 0.66325 -0.00000 -0.25000
 C21 C -0.00000 0.25000 0.87500
 C22 C 0.50000 0.25000 0.12500
 C23 C -0.00000 0.75000 0.62500
 C24 C 0.50000 0.75000 0.37500
 B25 B -0.04313 0.02901 1.06613
 B26 B -0.07168 0.01316 0.97684
 B27 B -0.01903 0.07338 0.98927
 B28 B 0.03421 0.05129 1.05957
 B29 B 0.01360 -0.02433 1.08841
 B30 B -0.05284 -0.04705 1.03697
 B31 B 0.04313 -0.02901 0.93387
 B32 B 0.07168 -0.01316 1.02316
 B33 B 0.01903 -0.07338 1.01073
 B34 B -0.03421 -0.05129 0.94043
 B35 B -0.01360 0.02433 0.91159
 B36 B 0.05284 0.04705 0.96303
 B37 B 0.45687 0.52901 0.56613
 B38 B 0.42832 0.51316 0.47684
 B39 B 0.48097 0.57338 0.48927
 B40 B 0.53421 0.55129 0.55957
 B41 B 0.51360 0.47567 0.58841
 B42 B 0.44716 0.45295 0.53697
 B43 B 0.54313 0.47099 0.43387
 B44 B 0.57168 0.48684 0.52316
 B45 B 0.51903 0.42662 0.51073
 B46 B 0.46579 0.44871 0.44043
 B47 B 0.48640 0.52433 0.41159
 B48 B 0.55284 0.54705 0.46303
 B49 B 0.54313 0.97099 0.56613
 B50 B 0.57168 0.98684 0.47684
 B51 B 0.51903 0.92662 0.48927
 B52 B 0.46579 0.94871 0.55957
 B53 B 0.48640 1.02433 0.58841
 B54 B 0.55284 1.04705 0.53697
 B55 B 0.45687 1.02901 0.43387
 B56 B 0.42832 1.01316 0.52316
 B57 B 0.48097 1.07338 0.51073
 B58 B 0.53421 1.05129 0.44043
 B59 B 0.51360 0.97567 0.41159
 B60 B 0.44716 0.95295 0.46303
 B61 B 0.04313 0.47099 1.06613
 B62 B 0.07168 0.48684 0.97684
 B63 B 0.01903 0.42662 0.98927
 B64 B -0.03421 0.44871 1.05957
 B65 B -0.01360 0.52433 1.08841
 B66 B 0.05284 0.54705 1.03697
 B67 B -0.04313 0.52901 0.93387
 B68 B -0.07168 0.51316 1.02316
 B69 B -0.01903 0.57338 1.01073
 B70 B 0.03421 0.55129 0.94043
 B71 B 0.01360 0.47567 0.91159
 B72 B -0.05284 0.45295 0.96303
 B73 B 0.04313 0.52901 0.43387
 B74 B 0.07168 0.51316 0.52316
 B75 B 0.01903 0.57338 0.51073
 B76 B -0.03421 0.55129 0.44043
 B77 B -0.01360 0.47567 0.41159
 B78 B 0.05284 0.45295 0.46303
 B79 B -0.04313 0.47099 0.56613
 B80 B -0.07168 0.48684 0.47684
 B81 B -0.01903 0.42662 0.48927
 B82 B 0.03421 0.44871 0.55957
 B83 B 0.01360 0.52433 0.58841
 B84 B -0.05284 0.54705 0.53697
 B85 B 0.54313 0.02901 -0.06613
 B86 B 0.57168 0.01316 0.02316
 B87 B 0.51903 0.07338 0.01073
 B88 B 0.46579 0.05129 -0.05957
 B89 B 0.48640 -0.02433 -0.08841
 B90 B 0.55284 -0.04705 -0.03697
 B91 B 0.45687 -0.02901 0.06613
 B92 B 0.42832 -0.01316 -0.02316
 B93 B 0.48097 -0.07338 -0.01073
 B94 B 0.53421 -0.05129 0.05957
 B95 B 0.51360 0.02433 0.08841
 B96 B 0.44716 0.04705 0.03697
 B97 B 0.45687 0.47099 -0.06613
 B98 B 0.42832 0.48684 0.02316
 B99 B 0.48097 0.42662 0.01073
 B100 B 0.53421 0.44871 -0.05957
 B101 B 0.51360 0.52433 -0.08841
 B102 B 0.44716 0.54705 -0.03697
 B103 B 0.54313 0.52901 0.06613
 B104 B 0.57168 0.51316 -0.02316
 B105 B 0.51903 0.57338 -0.01073
 B106 B 0.46579 0.55129 0.05957
 B107 B 0.48640 0.47567 0.08841
 B108 B 0.55284 0.45295 0.03697
 B109 B -0.04313 0.97099 0.43387
 B110 B -0.07168 0.98684 0.52316
 B111 B -0.01903 0.92662 0.51073
 B112 B 0.03421 0.94871 0.44043
 B113 B 0.01360 1.02433 0.41159
 B114 B -0.05284 1.04705 0.46303
 B115 B 0.04313 1.02901 0.56613
 B116 B 0.07168 1.01316 0.47684
 B117 B 0.01903 1.07338 0.48927
 B118 B -0.03421 1.05129 0.55957
 B119 B -0.01360 0.97567 0.58841
 B120 B 0.05284 0.95295 0.53697
 B121 B 0.77901 0.20687 0.18387
 B122 B 0.76316 0.17832 0.27316
 B123 B 0.82338 0.23097 0.26073
 B124 B 0.80129 0.28421 0.19043
 B125 B 0.72567 0.26360 0.16159
 B126 B 0.70295 0.19716 0.21303
 B127 B 0.72099 0.29313 0.31613
 B128 B 0.73684 0.32168 0.22684
 B129 B 0.67662 0.26903 0.23927
 B130 B 0.69871 0.21579 0.30957
 B131 B 0.77433 0.23640 0.33841
 B132 B 0.79705 0.30284 0.28697
 B133 B 0.72099 0.79313 0.68387
 B134 B 0.73684 0.82168 0.77316
 B135 B 0.67662 0.76903 0.76073
 B136 B 0.69871 0.71579 0.69043
 B137 B 0.77433 0.73640 0.66159
 B138 B 0.79705 0.80284 0.71303
 B139 B 0.77901 0.70687 0.81613
 B140 B 0.76316 0.67832 0.72684
 B141 B 0.82338 0.73097 0.73927
 B142 B 0.80129 0.78421 0.80957
 B143 B 0.72567 0.76360 0.83841
 B144 B 0.70295 0.69716 0.78697
 B145 B 0.27901 0.29313 0.81613
 B146 B 0.26316 0.32168 0.72684
 B147 B 0.32338 0.26903 0.73927
 B148 B 0.30129 0.21579 0.80957
 B149 B 0.22567 0.23640 0.83841
 B150 B 0.20295 0.30284 0.78697
 B151 B 0.22099 0.20687 0.68387
 B152 B 0.23684 0.17832 0.77316
 B153 B 0.17662 0.23097 0.76073
 B154 B 0.19871 0.28421 0.69043
 B155 B 0.27433 0.26360 0.66159
 B156 B 0.29705 0.19716 0.71303
 B157 B 0.22099 0.70687 0.31613
 B158 B 0.23684 0.67832 0.22684
 B159 B 0.17662 0.73097 0.23927
 B160 B 0.19871 0.78421 0.30957
 B161 B 0.27433 0.76360 0.33841
 B162 B 0.29705 0.69716 0.28697
 B163 B 0.27901 0.79313 0.18387
 B164 B 0.26316 0.82168 0.27316
 B165 B 0.32338 0.76903 0.26073
 B166 B 0.30129 0.71579 0.19043
 B167 B 0.22567 0.73640 0.16159
 B168 B 0.20295 0.80284 0.21303
 B169 B 0.27901 0.70687 0.68387
 B170 B 0.26316 0.67832 0.77316
 B171 B 0.32338 0.73097 0.76073
 B172 B 0.30129 0.78421 0.69043
 B173 B 0.22567 0.76360 0.66159
 B174 B 0.20295 0.69716 0.71303
 B175 B 0.22099 0.79313 0.81613
 B176 B 0.23684 0.82168 0.72684
 B177 B 0.17662 0.76903 0.73927
 B178 B 0.19871 0.71579 0.80957
 B179 B 0.27433 0.73640 0.83841
 B180 B 0.29705 0.80284 0.78697
 B181 B 0.22099 0.29313 0.18387
 B182 B 0.23684 0.32168 0.27316
 B183 B 0.17662 0.26903 0.26073
 B184 B 0.19871 0.21579 0.19043
 B185 B 0.27433 0.23640 0.16159
 B186 B 0.29705 0.30284 0.21303
 B187 B 0.27901 0.20687 0.31613
 B188 B 0.26316 0.17832 0.22684
 B189 B 0.32338 0.23097 0.23927
 B190 B 0.30129 0.28421 0.30957
 B191 B 0.22567 0.26360 0.33841
 B192 B 0.20295 0.19716 0.28697
 B193 B 0.77901 0.79313 0.31613
 B194 B 0.76316 0.82168 0.22684
 B195 B 0.82338 0.76903 0.23927
 B196 B 0.80129 0.71579 0.30957
 B197 B 0.72567 0.73640 0.33841
 B198 B 0.70295 0.80284 0.28697
 B199 B 0.72099 0.70687 0.18387
 B200 B 0.73684 0.67832 0.27316
 B201 B 0.67662 0.73097 0.26073
 B202 B 0.69871 0.78421 0.19043
 B203 B 0.77433 0.76360 0.16159
 B204 B 0.79705 0.69716 0.21303
 B205 B 0.72099 0.20687 0.81613
 B206 B 0.73684 0.17832 0.72684
 B207 B 0.67662 0.23097 0.73927
 B208 B 0.69871 0.28421 0.80957
 B209 B 0.77433 0.26360 0.83841
 B210 B 0.79705 0.19716 0.78697
 B211 B 0.77901 0.29313 0.68387
 B212 B 0.76316 0.32168 0.77316
 B213 B 0.82338 0.26903 0.76073
 B214 B 0.80129 0.21579 0.69043
 B215 B 0.72567 0.23640 0.66159
 B216 B 0.70295 0.30284 0.71303
 C217 C 0.37723 1.02454 0.31249
 C218 C 0.41200 1.03881 0.36557
 C219 C -0.12277 0.52454 0.81249
 C220 C -0.08800 0.53881 0.86557
 C221 C 0.12277 -0.02454 0.81249
 C222 C 0.08800 -0.03881 0.86557
 C223 C 0.62277 0.47546 0.31249
 C224 C 0.58800 0.46119 0.36557
 C225 C 0.62277 0.52454 0.18751
 C226 C 0.58800 0.53881 0.13443
 C227 C 0.12277 1.02454 0.68751
 C228 C 0.08800 1.03881 0.63443
 C229 C -0.12277 0.47546 0.68751
 C230 C -0.08800 0.46119 0.63443
 C231 C 0.37723 -0.02454 0.18751
 C232 C 0.41200 -0.03881 0.13443
 C233 C 0.30463 0.45054 0.02654
 C234 C 0.35755 0.47178 0.03556
 C235 C -0.19537 0.95054 0.52654
 C236 C -0.14245 0.97178 0.53556
 C237 C -0.19537 0.04946 0.97346
 C238 C -0.14245 0.02822 0.96444
 C239 C 0.30463 0.54946 0.47346
 C240 C 0.35755 0.52822 0.46444
 C241 C 0.19537 0.54946 0.52654
 C242 C 0.14245 0.52822 0.53556
 C243 C 0.69537 0.04946 0.02654
 C244 C 0.64245 0.02822 0.03556
 C245 C 0.69537 0.95054 0.47346
 C246 C 0.64245 0.97178 0.46444
 C247 C 0.19537 0.45054 0.97346
 C248 C 0.14245 0.47178 0.96444
 C249 C -0.01702 0.30584 0.42544
 C250 C -0.02538 0.35559 0.46159
 C251 C 0.48298 -0.19416 -0.07456
 C252 C 0.47462 -0.14441 -0.03841
 C253 C 0.01702 -0.19416 1.07456
 C254 C 0.02538 -0.14441 1.03841
 C255 C 0.51702 0.30584 0.57456
 C256 C 0.52538 0.35559 0.53841
 C257 C 0.48298 1.19416 0.57456
 C258 C 0.47462 1.14441 0.53841
 C259 C -0.01702 0.69416 1.07456
 C260 C -0.02538 0.64441 1.03841
 C261 C 0.51702 0.69416 -0.07456
 C262 C 0.52538 0.64441 -0.03841
 C263 C 0.01702 1.19416 0.42544
 C264 C 0.02538 1.14441 0.46159
 C265 C 0.77454 0.62723 0.93751
 C266 C 0.78881 0.66200 0.88443
 C267 C 0.27454 0.12723 0.43751
 C268 C 0.28881 0.16200 0.38443
 C269 C 0.72546 0.37277 0.43751
 C270 C 0.71119 0.33800 0.38443
 C271 C 0.22546 0.87277 0.93751
 C272 C 0.21119 0.83800 0.88443
 C273 C 0.27454 0.87277 0.06249
 C274 C 0.28881 0.83800 0.11557
 C275 C 0.77454 0.37277 0.56249
 C276 C 0.78881 0.33800 0.61557
 C277 C 0.22546 0.12723 0.56249
 C278 C 0.21119 0.16200 0.61557
 C279 C 0.72546 0.62723 0.06249
 C280 C 0.71119 0.66200 0.11557
 C281 C 0.20054 0.55463 0.22346
 C282 C 0.22178 0.60755 0.21444
 C283 C 0.70054 0.05463 0.72346
 C284 C 0.72178 0.10755 0.71444
 C285 C 0.79946 0.05463 0.27654
 C286 C 0.77822 0.10755 0.28556
 C287 C 0.29946 0.55463 0.77654
 C288 C 0.27822 0.60755 0.78556
 C289 C 0.29946 0.44537 0.72346
 C290 C 0.27822 0.39245 0.71444
 C291 C 0.79946 0.94537 0.22346
 C292 C 0.77822 0.89245 0.21444
 C293 C 0.70054 0.94537 0.77654
 C294 C 0.72178 0.89245 0.78556
 C295 C 0.20054 0.44537 0.27654
 C296 C 0.22178 0.39245 0.28556
 C297 C 0.05584 0.23298 0.82456
 C298 C 0.10559 0.22462 0.78841
 C299 C 0.55584 0.73298 0.32456
 C300 C 0.60559 0.72462 0.28841
 C301 C 0.55584 0.26702 0.17544
 C302 C 0.60559 0.27538 0.21159
 C303 C 0.05584 0.76702 0.67544
 C304 C 0.10559 0.77538 0.71159
 C305 C 0.94416 0.73298 0.67544
 C306 C 0.89441 0.72462 0.71159
 C307 C 0.44416 0.23298 0.17544
 C308 C 0.39441 0.22462 0.21159
 C309 C 0.44416 0.76702 0.32456
 C310 C 0.39441 0.77538 0.28841
 C311 C 0.94416 0.26702 0.82456
 C312 C 0.89441 0.27538 0.78841
 C313 C 0.62277 0.97546 0.68751
 C314 C 0.58800 0.96119 0.63443
 C315 C 0.12277 0.47546 1.18751
 C316 C 0.08800 0.46119 1.13443
 C317 C -0.12277 0.02454 1.18751
 C318 C -0.08800 0.03881 1.13443
 C319 C 0.37723 0.52454 0.68751
 C320 C 0.41200 0.53881 0.63443
 C321 C 0.37723 0.47546 -0.18751
 C322 C 0.41200 0.46119 -0.13443
 C323 C -0.12277 0.97546 0.31249
 C324 C -0.08800 0.96119 0.36557
 C325 C 0.12277 0.52454 0.31249
 C326 C 0.08800 0.53881 0.36557
 C327 C 0.62277 0.02454 -0.18751
 C328 C 0.58800 0.03881 -0.13443
 C329 C 0.69537 0.54946 -0.02654
 C330 C 0.64245 0.52822 -0.03556
 C331 C 0.19537 1.04946 0.47346
 C332 C 0.14245 1.02822 0.46444
 C333 C 0.19537 -0.04946 1.02654
 C334 C 0.14245 -0.02822 1.03556
 C335 C 0.69537 0.45054 0.52654
 C336 C 0.64245 0.47178 0.53556
 C337 C -0.19537 0.45054 0.47346
 C338 C -0.14245 0.47178 0.46444
 C339 C 0.30463 -0.04946 -0.02654
 C340 C 0.35755 -0.02822 -0.03556
 C341 C 0.30463 1.04946 0.52654
 C342 C 0.35755 1.02822 0.53556
 C343 C -0.19537 0.54946 1.02654
 C344 C -0.14245 0.52822 1.03556
 C345 C 0.01702 0.69416 0.57456
 C346 C 0.02538 0.64441 0.53841
 C347 C 0.51702 0.19416 0.07456
 C348 C 0.52538 0.14441 0.03841
 C349 C -0.01702 0.19416 0.92544
 C350 C -0.02538 0.14441 0.96159
 C351 C 0.48298 0.69416 0.42544
 C352 C 0.47462 0.64441 0.46159
 C353 C 0.51702 0.80584 0.42544
 C354 C 0.52538 0.85559 0.46159
 C355 C 0.01702 0.30584 0.92544
 C356 C 0.02538 0.35559 0.96159
 C357 C 0.48298 0.30584 0.07456
 C358 C 0.47462 0.35559 0.03841
 C359 C -0.01702 0.80584 0.57456
 C360 C -0.02538 0.85559 0.53841
 C361 C 0.22546 0.37277 0.06249
 C362 C 0.21119 0.33800 0.11557
 C363 C 0.72546 0.87277 0.56249
 C364 C 0.71119 0.83800 0.61557
 C365 C 0.27454 0.62723 0.56249
 C366 C 0.28881 0.66200 0.61557
 C367 C 0.77454 0.12723 0.06249
 C368 C 0.78881 0.16200 0.11557
 C369 C 0.72546 0.12723 0.93751
 C370 C 0.71119 0.16200 0.88443
 C371 C 0.22546 0.62723 0.43751
 C372 C 0.21119 0.66200 0.38443
 C373 C 0.77454 0.87277 0.43751
 C374 C 0.78881 0.83800 0.38443
 C375 C 0.27454 0.37277 0.93751
 C376 C 0.28881 0.33800 0.88443
 C377 C 0.79946 0.44537 0.77654
 C378 C 0.77822 0.39245 0.78556
 C379 C 0.29946 0.94537 0.27654
 C380 C 0.27822 0.89245 0.28556
 C381 C 0.20054 0.94537 0.72346
 C382 C 0.22178 0.89245 0.71444
 C383 C 0.70054 0.44537 0.22346
 C384 C 0.72178 0.39245 0.21444
 C385 C 0.70054 0.55463 0.27654
 C386 C 0.72178 0.60755 0.28556
 C387 C 0.20054 0.05463 0.77654
 C388 C 0.22178 0.10755 0.78556
 C389 C 0.29946 0.05463 0.22346
 C390 C 0.27822 0.10755 0.21444
 C391 C 0.79946 0.55463 0.72346
 C392 C 0.77822 0.60755 0.71444
 C393 C 0.94416 0.76702 0.17544
 C394 C 0.89441 0.77538 0.21159
 C395 C 0.44416 0.26702 0.67544
 C396 C 0.39441 0.27538 0.71159
 C397 C 0.44416 0.73298 0.82456
 C398 C 0.39441 0.72462 0.78841
 C399 C 0.94416 0.23298 0.32456
 C400 C 0.89441 0.22462 0.28841
 C401 C 0.05584 0.26702 0.32456
 C402 C 0.10559 0.27538 0.28841
 C403 C 0.55584 0.76702 0.82456
 C404 C 0.60559 0.77538 0.78841
 C405 C 0.55584 0.23298 0.67544
 C406 C 0.60559 0.22462 0.71159
 C407 C 0.05584 0.73298 0.17544
 C408 C 0.10559 0.72462 0.21159
   
