data_POSCAR
  _audit_creation_date              2014-09-24
  _audit_creation_method            'ToBaCCo'
  _symmetry_space_group_name_H-M    'P1'
  _symmetry_Int_Tables_number       1
  _symmetry_cell_setting            triclinic
  loop_
  _symmetry_equiv_pos_as_xyz
 x,y,z
_cell_length_a 59.5275
_cell_length_b 59.3535
_cell_length_c 23.6199
_cell_angle_alpha 90.277100
_cell_angle_beta 89.944200
_cell_angle_gamma 119.795400
loop_
  _atom_site_label
  _atom_site_type_symbol
  _atom_site_fract_x
  _atom_site_fract_y
  _atom_site_fract_z
C1 C 0.19719 0.51210 0.49319
 C2 C 0.20934 0.51257 0.44175
 C3 C 0.23290 0.51250 0.44345
 C4 C 0.24397 0.51106 0.49504
 C5 C 0.23081 0.50979 0.54581
 C6 C 0.20741 0.51034 0.54569
 C7 C 0.26877 0.51014 0.49580
 C8 C 0.28448 0.51752 0.54482
 C9 C 0.30669 0.51498 0.54750
 C10 C 0.31404 0.50627 0.49943
 C11 C 0.29964 0.50008 0.44937
 C12 C 0.27683 0.50150 0.44800
 H13 H 0.17929 0.51260 0.49219
 H14 H 0.24310 0.51476 0.40416
 H15 H 0.23782 0.50662 0.58544
 H16 H 0.27978 0.52550 0.58118
 H17 H 0.33108 0.50415 0.50076
 H18 H 0.26528 0.49511 0.40984
 C19 C 0.48445 -0.31830 0.49517
 C20 C 0.47570 -0.31192 0.44588
 C21 C 0.46803 -0.29306 0.44978
 C22 C 0.47190 -0.27855 0.50008
 C23 C 0.48023 -0.28598 0.54918
 C24 C 0.48639 -0.30600 0.54727
 C25 C 0.47004 -0.25415 0.49947
 C26 C 0.46729 -0.24302 0.55026
 C27 C 0.47009 -0.21811 0.55058
 C28 C 0.47335 -0.20507 0.49940
 C29 C 0.47503 -0.21600 0.44819
 C30 C 0.47376 -0.24022 0.44846
 H31 H 0.48789 -0.33458 0.49382
 H32 H 0.46075 -0.28846 0.41237
 H33 H 0.48394 -0.27508 0.58811
 H34 H 0.46420 -0.25291 0.59023
 H35 H 0.47499 -0.18604 0.49962
 H36 H 0.47720 -0.24715 0.40883
 C37 C 1.31832 0.79919 0.52266
 C38 C 1.30883 0.79254 0.46704
 C39 C 1.28619 0.76849 0.45788
 C40 C 1.27339 0.75106 0.50275
 C41 C 1.28437 0.75800 0.55759
 C42 C 1.30618 0.78229 0.56765
 C43 C 1.24744 0.72721 0.49311
 C44 C 1.22941 0.71656 0.53785
 C45 C 1.20395 0.69604 0.52881
 C46 C 1.19644 0.68697 0.47307
 C47 C 1.21384 0.69714 0.42801
 C48 C 1.23950 0.71635 0.43836
 H49 H 1.33573 0.81740 0.53172
 H50 H 1.27747 0.76449 0.41634
 H51 H 1.27573 0.74517 0.59321
 H52 H 1.23441 0.72543 0.57929
 H53 H 1.17719 0.67110 0.46403
 H54 H 1.25272 0.72328 0.40295
 C55 C 0.79590 0.47314 0.51148
 C56 C 0.78862 0.47889 0.45960
 C57 C 0.76666 0.48174 0.45704
 C58 C 0.75124 0.47801 0.50540
 C59 C 0.75838 0.47108 0.55664
 C60 C 0.78106 0.46936 0.56049
 C61 C 0.72898 0.48311 0.50293
 C62 C 0.72128 0.49161 0.55149
 C63 C 0.70232 0.49921 0.54829
 C64 C 0.69156 0.49872 0.49497
 C65 C 0.69860 0.49007 0.44655
 C66 C 0.71650 0.48142 0.45104
 H67 H 0.81356 0.47214 0.51369
 H68 H 0.76254 0.48804 0.41748
 H69 H 0.74650 0.46715 0.59397
 H70 H 0.73125 0.49406 0.59121
 H71 H 0.67650 0.50379 0.49085
 H72 H 0.72113 0.47415 0.41334
 C73 C 0.52467 0.32070 0.49661
 C74 C 0.51451 0.30420 0.44966
 C75 C 0.50694 0.27787 0.45491
 C76 C 0.51089 0.26798 0.50588
 C77 C 0.52093 0.28502 0.55276
 C78 C 0.52673 0.31109 0.54956
 C79 C 0.50420 0.24001 0.51035
 C80 C 0.49965 0.22757 0.56351
 C81 C 0.49317 0.20133 0.56810
 C82 C 0.48982 0.18715 0.51785
 C83 C 0.49414 0.19891 0.46474
 C84 C 0.50211 0.22537 0.46134
 H85 H 0.52860 0.34049 0.49245
 H86 H 0.49790 0.26539 0.41874
 H87 H 0.52507 0.27847 0.59188
 H88 H 0.49984 0.23774 0.60165
 H89 H 0.48553 0.16717 0.51947
 H90 H 0.50639 0.23420 0.41998
 C91 C 0.68609 0.19666 0.49499
 C92 C 0.69813 0.20939 0.44489
 C93 C 0.72097 0.23356 0.44755
 C94 C 0.73174 0.24579 0.50017
 C95 C 0.71869 0.23249 0.54999
 C96 C 0.69643 0.20796 0.54742
 C97 C 0.75630 0.27194 0.50319
 C98 C 0.77029 0.28137 0.55468
 C99 C 0.79226 0.30637 0.55879
 C100 C 0.80164 0.32100 0.50915
 C101 C 0.78962 0.31135 0.45698
 C102 C 0.76639 0.28769 0.45450
 H103 H 0.66869 0.17779 0.49322
 H104 H 0.73025 0.24199 0.40790
 H105 H 0.72511 0.24083 0.59153
 H106 H 0.76390 0.26986 0.59250
 H107 H 0.81960 0.33939 0.50991
 H108 H 0.75710 0.28171 0.41375
 O109 O 0.96270 0.51696 -0.11149
 O110 O 0.93558 0.48805 -0.04531
 C111 C 0.93982 0.50069 -0.09246
 O112 O 1.03451 0.47650 -0.09867
 O113 O 1.06520 0.51427 -0.05665
 C114 C 1.05835 0.49452 -0.09031
 O115 O 0.96210 0.44300 -0.09301
 O116 O 0.93564 0.45177 -0.03767
 C117 C 0.93942 0.43863 -0.07683
 O118 O 1.03489 0.55753 -0.11370
 O119 O 1.06527 0.55307 -0.06309
 C120 C 1.05867 0.56391 -0.10224
 Zr121 Zr 0.99965 0.52937 -0.07659
 O122 O 0.99888 0.53108 -0.16585
 O123 O 0.99608 0.56314 -0.07380
 Zr124 Zr 0.99946 0.47224 -0.06665
 O125 O 0.99873 0.46795 -0.15574
 O126 O 0.99643 0.43540 -0.05614
 O127 O 0.97656 0.48912 -0.07890
 O128 O 1.02142 0.51121 -0.08622
 O129 O 1.04176 0.56752 0.08342
 O130 O 1.06864 0.55779 0.03232
 C131 C 1.06457 0.57238 0.06721
 O132 O 0.96981 0.45246 0.11466
 O133 O 0.93918 0.45601 0.06280
 C134 C 0.94602 0.44616 0.10370
 O135 O 1.04181 0.48571 0.09803
 O136 O 1.06846 0.51896 0.03903
 C137 C 1.06455 0.50273 0.07952
 O138 O 0.97033 0.52955 0.10419
 O139 O 0.93943 0.49336 0.05786
 C140 C 0.94650 0.51160 0.09573
 Zr141 Zr 1.00470 0.53611 0.06392
 O142 O 1.01089 0.54424 0.15158
 O143 O 1.00114 0.56959 0.05275
 Zr144 Zr 1.00468 0.47913 0.07436
 O145 O 1.01075 0.48416 0.16292
 O146 O 1.00159 0.44206 0.07896
 Zr147 Zr 0.96336 0.48520 0.00540
 Zr148 Zr 1.04074 0.52313 -0.00792
 O149 O 1.02736 0.51910 0.07599
 O150 O 0.98227 0.49690 0.08446
 O151 O 1.02556 0.54856 -0.01110
 O152 O 0.97926 0.46049 0.00838
 O153 O 0.97911 0.52551 -0.00331
 O154 O 1.02535 0.48273 0.00061
 H155 H 1.03161 0.51516 -0.12162
 H156 H 0.96734 0.44157 0.01232
 H157 H 1.03998 0.52634 0.10755
 H158 H 0.96670 0.53206 -0.00383
 H159 H 1.01306 0.43825 -0.04050
 H160 H 1.01605 0.44275 0.05690
 H161 H 0.99710 0.48720 0.17888
 H162 H 1.00235 0.52736 0.17125
 H163 H 1.01660 0.58253 0.03191
 H164 H 1.01362 0.57823 -0.06834
 H165 H 0.99871 0.51534 -0.18025
 H166 H 0.98606 0.47263 -0.17066
 O167 O 0.44452 0.47604 0.09792
 O168 O 0.44819 0.50963 0.04369
 C169 C 0.43729 0.49257 0.08357
 O170 O 0.56080 0.52585 0.09796
 O171 O 0.55664 0.49094 0.04721
 C172 C 0.56812 0.50922 0.08467
 O173 O 0.51914 0.55649 0.10006
 O174 O 0.48416 0.54852 0.04521
 C175 C 0.50084 0.56106 0.08498
 O176 O 0.48247 0.44134 0.09397
 O177 O 0.51952 0.45102 0.04523
 C178 C 0.50147 0.43733 0.08146
 Zr179 Zr 0.47433 0.47032 0.06512
 O180 O 0.47285 0.46669 0.15427
 O181 O 0.43876 0.43507 0.05770
 Zr182 Zr 0.52889 0.52907 0.06912
 O183 O 0.52903 0.52708 0.15863
 O184 O 0.56139 0.56698 0.07168
 O185 O 0.48875 0.51002 0.07773
 O186 O 0.51392 0.48964 0.07848
 O187 O 0.48525 0.44251 -0.10481
 O188 O 0.52097 0.45171 -0.05135
 C189 C 0.50393 0.43847 -0.08987
 O190 O 0.52092 0.55726 -0.10517
 O191 O 0.48502 0.54910 -0.05342
 C192 C 0.50228 0.56175 -0.09196
 O193 O 0.56306 0.52664 -0.09908
 O194 O 0.55794 0.49158 -0.04829
 C195 C 0.57012 0.50996 -0.08488
 O196 O 0.44920 0.47902 -0.11610
 O197 O 0.45005 0.51076 -0.05892
 C198 C 0.44150 0.49531 -0.10241
 Zr199 Zr 0.47627 0.47110 -0.07649
 O200 O 0.47547 0.46668 -0.16541
 O201 O 0.44027 0.43618 -0.07183
 Zr202 Zr 0.53081 0.53001 -0.07301
 O203 O 0.53388 0.52999 -0.16233
 O204 O 0.56325 0.56795 -0.06918
 Zr205 Zr 0.48113 0.51760 -0.00510
 Zr206 Zr 0.52416 0.48292 -0.00261
 O207 O 0.51610 0.49063 -0.08475
 O208 O 0.49109 0.51092 -0.08682
 O209 O 0.48416 0.45576 -0.00521
 O210 O 0.52122 0.54391 -0.00240
 O211 O 0.45867 0.47685 -0.00691
 O212 O 0.54701 0.52374 -0.00093
 H213 H 0.51994 0.48440 0.11241
 H214 H 0.52747 0.56280 -0.00198
 H215 H 0.52289 0.48577 -0.11812
 H216 H 0.43961 0.46913 -0.00861
 H217 H 0.57518 0.56684 0.04859
 H218 H 0.57711 0.56698 -0.04821
 H219 H 0.51720 0.52687 -0.17829
 H220 H 0.48783 0.48392 -0.18081
 H221 H 0.44369 0.42234 -0.05885
 H222 H 0.44243 0.42197 0.04073
 H223 H 0.47869 0.48418 0.17015
 H224 H 0.51256 0.52535 0.17250
 O225 O 0.52489 -0.03391 0.10160
 O226 O 0.48958 -0.06415 0.05191
 C227 C 0.50752 -0.05770 0.08993
 O228 O 0.47734 0.03474 0.10797
 O229 O 0.51066 0.06423 0.05282
 C230 C 0.49368 0.05834 0.09278
 O231 O 0.44686 -0.03735 0.11449
 O232 O 0.45168 -0.06594 0.05707
 C233 C 0.44121 -0.06067 0.09965
 O234 O 0.56061 0.03817 0.09304
 O235 O 0.55041 0.06595 0.04738
 C236 C 0.56492 0.06127 0.08089
 Zr237 Zr 0.53020 0.00144 0.06853
 O238 O 0.53538 0.00456 0.15746
 O239 O 0.56539 0.00154 0.05568
 Zr240 Zr 0.47223 -0.00112 0.07787
 O241 O 0.47148 -0.00005 0.16734
 O242 O 0.43550 -0.00385 0.07411
 O243 O 0.49098 -0.02271 0.08496
 O244 O 0.51191 0.02273 0.08370
 O245 O 0.55487 0.03743 -0.10297
 O246 O 0.54725 0.06538 -0.04962
 C247 C 0.55953 0.06059 -0.08901
 O248 O 0.43964 -0.03911 -0.09347
 O249 O 0.44875 -0.06667 -0.04364
 C250 C 0.43535 -0.06215 -0.08059
 O251 O 0.47066 0.03295 -0.08818
 O252 O 0.50761 0.06345 -0.04341
 C253 C 0.48782 0.05680 -0.07650
 O254 O 0.51931 -0.03525 -0.10678
 O255 O 0.48697 -0.06485 -0.04974
 C256 C 0.50298 -0.05888 -0.09180
 Zr257 Zr 0.52620 0.00062 -0.07279
 O258 O 0.52573 0.00282 -0.16216
 O259 O 0.56137 -0.00014 -0.07589
 Zr260 Zr 0.46817 -0.00227 -0.06340
 O261 O 0.46693 0.00005 -0.15269
 O262 O 0.43072 -0.00668 -0.05690
 Zr263 Zr 0.48127 -0.03937 0.00327
 Zr264 Zr 0.51706 0.03861 0.00221
 O265 O 0.50716 0.02162 -0.07899
 O266 O 0.48626 -0.02402 -0.07911
 O267 O 0.54337 0.02467 -0.00306
 O268 O 0.45550 -0.02484 0.00846
 O269 O 0.52179 -0.02176 -0.00236
 O270 O 0.47648 0.02150 0.00764
 H271 H 0.51832 0.03452 0.11692
 H272 H 0.43669 -0.03733 0.01098
 H273 H 0.51138 0.03292 -0.11264
 H274 H 0.52964 -0.03307 -0.00405
 H275 H 0.42999 -0.00438 0.11389
 H276 H 0.43178 0.00652 -0.02958
 H277 H 0.46906 -0.01417 -0.16891
 H278 H 0.50857 -0.01100 -0.17528
 H279 H 0.57403 0.01424 -0.05170
 H280 H 0.57245 0.00194 0.09389
 H281 H 0.51868 -0.00816 0.17467
 H282 H 0.48916 0.00533 0.18070
 C283 C 1.19848 0.49737 0.34328
 C284 C 1.18387 0.49397 0.29436
 C285 C 1.16905 0.50616 0.28939
 C286 C 1.16905 0.52198 0.33364
 C287 C 1.18274 0.52457 0.38342
 C288 C 1.19741 0.51200 0.38953
 N289 N 1.15240 0.50078 0.24158
 N290 N 1.14771 0.51800 0.22241
 C291 C 1.12863 0.51238 0.17971
 C292 C 1.13105 0.53245 0.14499
 C293 C 1.11085 0.52858 0.10898
 C294 C 1.08742 0.50487 0.10903
 C295 C 1.08541 0.48438 0.14232
 C296 C 1.10603 0.48801 0.17692
 H297 H 1.20904 0.48692 0.34624
 H298 H 1.18382 0.48153 0.26060
 H299 H 1.15759 0.53149 0.33057
 H300 H 1.18204 0.53679 0.41677
 H301 H 1.14835 0.55136 0.14701
 H302 H 1.11305 0.54458 0.08342
 H303 H 1.06764 0.46585 0.14300
 H304 H 1.10372 0.47234 0.20401
 C305 C 0.45744 0.67120 0.35052
 C306 C 0.45747 0.65830 0.30053
 C307 C 0.47637 0.65115 0.29184
 C308 C 0.49531 0.65716 0.33353
 C309 C 0.49500 0.66938 0.38350
 C310 C 0.47586 0.67632 0.39362
 N311 N 0.47571 0.63670 0.24243
 N312 N 0.49549 0.63472 0.23032
 C313 C 0.49659 0.61872 0.18638
 C314 C 0.52013 0.61938 0.17827
 C315 C 0.52159 0.60123 0.14336
 C316 C 0.49941 0.58202 0.11560
 C317 C 0.47598 0.58227 0.12095
 C318 C 0.47451 0.60047 0.15659
 H319 H 0.44213 0.67580 0.35637
 H320 H 0.44263 0.65365 0.26888
 H321 H 0.51023 0.65197 0.32809
 H322 H 0.51043 0.67400 0.41358
 H323 H 0.53720 0.63333 0.20123
 H324 H 0.53999 0.60179 0.13945
 H325 H 0.45863 0.56769 0.09989
 H326 H 0.45606 0.59958 0.16271
 C327 C 0.33485 -0.16291 0.43157
 C328 C 0.34835 -0.14569 0.38810
 C329 C 0.34930 -0.15487 0.33424
 C330 C 0.33565 -0.18165 0.32324
 C331 C 0.32155 -0.19905 0.36649
 C332 C 0.32145 -0.18999 0.42195
 N333 N 0.36473 -0.13634 0.29234
 N334 N 0.37078 -0.14227 0.24512
 C335 C 0.38688 -0.12224 0.20620
 C336 C 0.39789 -0.12804 0.15990
 C337 C 0.41530 -0.10819 0.12424
 C338 C 0.42178 -0.08226 0.13445
 C339 C 0.40997 -0.07677 0.17993
 C340 C 0.39279 -0.09648 0.21537
 H341 H 0.33439 -0.15473 0.47230
 H342 H 0.35851 -0.12501 0.39667
 H343 H 0.33608 -0.18909 0.28156
 H344 H 0.31197 -0.21961 0.35692
 H345 H 0.39351 -0.14782 0.15233
 H346 H 0.42398 -0.11306 0.08944
 H347 H 0.41426 -0.05712 0.18893
 H348 H 0.38441 -0.09144 0.25050
 C349 C 0.79293 0.46987 0.35747
 C350 C 0.80815 0.47258 0.30996
 C351 C 0.83508 0.48854 0.31228
 C352 C 0.84666 0.50188 0.36287
 C353 C 0.83152 0.49889 0.41052
 C354 C 0.80453 0.48277 0.40838
 N355 N 0.85041 0.49030 0.26384
 N356 N 0.87435 0.50720 0.26165
 C357 C 0.89093 0.50898 0.21587
 C358 C 0.91635 0.52964 0.21601
 C359 C 0.93401 0.53103 0.17543
 C360 C 0.92662 0.51154 0.13381
 C361 C 0.90075 0.49119 0.13246
 C362 C 0.88300 0.48990 0.17323
 H363 H 0.77216 0.45722 0.35493
 H364 H 0.79898 0.46212 0.27138
 H365 H 0.86744 0.51427 0.36592
 H366 H 0.84090 0.50921 0.44911
 H367 H 0.92267 0.54444 0.24867
 H368 H 0.95369 0.54703 0.17787
 H369 H 0.89441 0.47588 0.10104
 H370 H 0.86341 0.47367 0.17246
 C371 C 0.48580 0.30328 0.37116
 C372 C 0.48153 0.31475 0.32381
 C373 C 0.50192 0.33719 0.30003
 C374 C 0.52684 0.34784 0.32363
 C375 C 0.53101 0.33668 0.37152
 C376 C 0.51048 0.31448 0.39604
 N377 N 0.49656 0.34997 0.25510
 N378 N 0.51459 0.36794 0.22630
 C379 C 0.50971 0.38255 0.18490
 C380 C 0.52993 0.39947 0.14962
 C381 C 0.52678 0.41629 0.11351
 C382 C 0.50344 0.41686 0.11302
 C383 C 0.48281 0.39911 0.14696
 C384 C 0.48587 0.38200 0.18237
 H385 H 0.46966 0.28628 0.38972
 H386 H 0.46221 0.30646 0.30629
 H387 H 0.54286 0.36530 0.30632
 H388 H 0.55019 0.34559 0.39006
 H389 H 0.54842 0.40011 0.15128
 H390 H 0.54301 0.42958 0.08778
 H391 H 0.46454 0.39894 0.14739
 H392 H 0.46997 0.36916 0.20945
 C393 C 0.68000 0.21010 0.34955
 C394 C 0.66670 0.19729 0.30009
 C395 C 0.66045 0.17156 0.28969
 C396 C 0.66806 0.15890 0.32906
 C397 C 0.68088 0.17149 0.37881
 C398 C 0.68671 0.19707 0.38979
 N399 N 0.64497 0.15796 0.24132
 N400 N 0.64238 0.13616 0.22642
 C401 C 0.62546 0.12023 0.18215
 C402 C 0.62559 0.09739 0.16844
 C403 C 0.60677 0.07901 0.13261
 C404 C 0.58728 0.08308 0.10972
 C405 C 0.58808 0.10680 0.12053
 C406 C 0.60704 0.12529 0.15679
 H407 H 0.68418 0.22980 0.35746
 H408 H 0.66086 0.20725 0.27035
 H409 H 0.66335 0.13896 0.32234
 H410 H 0.68594 0.16112 0.40922
 H411 H 0.63966 0.09329 0.18772
 H412 H 0.60688 0.06108 0.12472
 H413 H 0.57327 0.11042 0.10365
 H414 H 0.60656 0.14284 0.16703
 C415 C 0.50660 0.20403 -0.33200
 C416 C 0.50706 0.19159 -0.28204
 C417 C 0.49137 0.16470 -0.27653
 C418 C 0.47457 0.15046 -0.32099
 C419 C 0.47450 0.16264 -0.37121
 C420 C 0.49102 0.18958 -0.37845
 N421 N 0.49394 0.15175 -0.22788
 N422 N 0.47716 0.12820 -0.21827
 C423 C 0.47937 0.11277 -0.17469
 C424 C 0.45849 0.08782 -0.16674
 C425 C 0.46094 0.07022 -0.13224
 C426 C 0.48452 0.07718 -0.10497
 C427 C 0.50508 0.10285 -0.11000
 C428 C 0.50258 0.12057 -0.14494
 H429 H 0.51994 0.22466 -0.33536
 H430 H 0.52017 0.20283 -0.24817
 H431 H 0.46206 0.12965 -0.31780
 H432 H 0.46119 0.15077 -0.40417
 H433 H 0.44055 0.08161 -0.18951
 H434 H 0.44455 0.05076 -0.12878
 H435 H 0.52341 0.10885 -0.08923
 H436 H 0.51903 0.13981 -0.15074
 C437 C 0.68503 0.52497 -0.40718
 C438 C 0.67380 0.53031 -0.36103
 C439 C 0.67065 0.51758 -0.30970
 C440 C 0.68052 0.50060 -0.30356
 C441 C 0.69241 0.49564 -0.34948
 C442 C 0.69383 0.50690 -0.40293
 N443 N 0.65569 0.52096 -0.26657
 N444 N 0.64780 0.50712 -0.22216
 C445 C 0.63114 0.51019 -0.18277
 C446 C 0.61915 0.49192 -0.13971
 C447 C 0.60006 0.49243 -0.10587
 C448 C 0.59270 0.51132 -0.11471
 C449 C 0.60587 0.53048 -0.15591
 C450 C 0.62483 0.52990 -0.18961
 H451 H 0.68694 0.53531 -0.44612
 H452 H 0.66659 0.54373 -0.36595
 H453 H 0.67836 0.49062 -0.26395
 H454 H 0.69865 0.48150 -0.34389
 H455 H 0.62378 0.47659 -0.13396
 H456 H 0.59045 0.47749 -0.07428
 H457 H 0.60092 0.54546 -0.16366
 H458 H 0.63390 0.54438 -0.22234
 C459 C 0.81743 0.34356 -0.37826
 C460 C 0.83173 0.35424 -0.32897
 C461 C 0.83493 0.33845 -0.28965
 C462 C 0.82278 0.31166 -0.29933
 C463 C 0.80764 0.30070 -0.34796
 C464 C 0.80536 0.31662 -0.38921
 N465 N 0.85188 0.34976 -0.24208
 N466 N 0.85645 0.37159 -0.22211
 C467 C 0.87542 0.38527 -0.17918
 C468 C 0.87437 0.40512 -0.14935
 C469 C 0.89450 0.42139 -0.11304
 C470 C 0.91648 0.41856 -0.10738
 C471 C 0.91718 0.39812 -0.13609
 C472 C 0.89663 0.38137 -0.17129
 H473 H 0.81548 0.35654 -0.40734
 H474 H 0.84100 0.37503 -0.32248
 H475 H 0.82530 0.29928 -0.26950
 H476 H 0.79925 0.28001 -0.35469
 H477 H 0.85827 0.40851 -0.15563
 H478 H 0.89349 0.43708 -0.09189
 H479 H 0.93391 0.39555 -0.13256
 H480 H 0.89795 0.36632 -0.19461
 C481 C 0.45409 -0.21486 -0.35249
 C482 C 0.45634 -0.20021 -0.30380
 C483 C 0.47729 -0.17491 -0.29761
 C484 C 0.49631 -0.16468 -0.34007
 C485 C 0.49396 -0.17910 -0.38852
 C486 C 0.47265 -0.20411 -0.39573
 N487 N 0.47837 -0.15922 -0.25015
 N488 N 0.49736 -0.13625 -0.24474
 C489 C 0.49941 -0.11848 -0.20132
 C490 C 0.52057 -0.09333 -0.20308
 C491 C 0.52214 -0.07426 -0.16609
 C492 C 0.50251 -0.08006 -0.12610
 C493 C 0.48188 -0.10577 -0.12229
 C494 C 0.48019 -0.12486 -0.16003
 H495 H 0.43754 -0.23416 -0.35721
 H496 H 0.44153 -0.20834 -0.27150
 H497 H 0.51275 -0.14526 -0.33655
 H498 H 0.50874 -0.17059 -0.42087
 H499 H 0.53550 -0.08826 -0.23471
 H500 H 0.53847 -0.05479 -0.16984
 H501 H 0.46667 -0.11092 -0.09145
 H502 H 0.46367 -0.14427 -0.15790
 C503 C 0.34863 0.53044 -0.40072
 C504 C 0.36211 0.53049 -0.35248
 C505 C 0.34899 0.52068 -0.30118
 C506 C 0.32258 0.51255 -0.29781
 C507 C 0.30888 0.51195 -0.34652
 C508 C 0.32164 0.52000 -0.39900
 N509 N 0.36171 0.51641 -0.25450
 N510 N 0.37915 0.51049 -0.26435
 C511 C 0.39309 0.50573 -0.22133
 C512 C 0.39451 0.51426 -0.16517
 C513 C 0.40980 0.51041 -0.12554
 C514 C 0.42332 0.49753 -0.14147
 C515 C 0.42111 0.48848 -0.19743
 C516 C 0.40638 0.49282 -0.23694
 H517 H 0.35921 0.53763 -0.43993
 H518 H 0.38266 0.53738 -0.35559
 H519 H 0.31227 0.50499 -0.25843
 H520 H 0.28811 0.50372 -0.34368
 H521 H 0.38445 0.52445 -0.15251
 H522 H 0.41132 0.51776 -0.08283
 H523 H 0.43152 0.47882 -0.21141
 H524 H 0.40544 0.48627 -0.28020
 C525 C 1.15931 0.67349 -0.43456
 C526 C 1.14181 0.66069 -0.39095
 C527 C 1.15055 0.65852 -0.33761
 C528 C 1.17724 0.67043 -0.32723
 C529 C 1.19493 0.68369 -0.37059
 C530 C 1.18626 0.68481 -0.42569
 N531 N 1.13178 0.64311 -0.29597
 N532 N 1.13768 0.63662 -0.24944
 C533 C 1.11805 0.62017 -0.21017
 C534 C 1.12474 0.61003 -0.16395
 C535 C 1.10556 0.59212 -0.12790
 C536 C 1.07933 0.58422 -0.13750
 C537 C 1.07283 0.59517 -0.18287
 C538 C 1.09196 0.61289 -0.21890
 H539 H 1.15148 0.67488 -0.47488
 H540 H 1.12123 0.65185 -0.39915
 H541 H 1.18441 0.66904 -0.28604
 H542 H 1.21529 0.69158 -0.36140
 H543 H 1.14478 0.61547 -0.15679
 H544 H 1.11125 0.58413 -0.09327
 H545 H 1.05288 0.58964 -0.19144
 H546 H 1.08627 0.62053 -0.25418
 C547 C 0.78909 0.47869 -0.33506
 C548 C 0.80240 0.47937 -0.28561
 C549 C 0.81778 0.46764 -0.28457
 C550 C 0.81775 0.45310 -0.33170
 C551 C 0.80412 0.45198 -0.38064
 C552 C 0.79066 0.46582 -0.38392
 N553 N 0.83570 0.47331 -0.23894
 N554 N 0.85679 0.47341 -0.24831
 C555 C 0.87666 0.48000 -0.20704
 C556 C 0.90131 0.48682 -0.22674
 C557 C 0.92176 0.49427 -0.18910
 C558 C 0.91783 0.49441 -0.13050
 C559 C 0.89288 0.48697 -0.11022
 C560 C 0.87239 0.48016 -0.14847
 H561 H 0.77902 0.48966 -0.33608
 H562 H 0.80225 0.49066 -0.24960
 H563 H 0.82915 0.44346 -0.33146
 H564 H 0.80508 0.44121 -0.41679
 H565 H 0.90474 0.48666 -0.27175
 H566 H 0.94062 0.49933 -0.20593
 H567 H 0.88935 0.48660 -0.06516
 H568 H 0.85332 0.47475 -0.13250
 C569 C 0.54775 0.35391 -0.40327
 C570 C 0.54966 0.36936 -0.35667
 C571 C 0.53552 0.35807 -0.30752
 C572 C 0.52119 0.33095 -0.30340
 C573 C 0.51995 0.31535 -0.34918
 C574 C 0.53218 0.32662 -0.40102
 N575 N 0.53426 0.37450 -0.26459
 N576 N 0.51453 0.36669 -0.23279
 C577 C 0.51245 0.38340 -0.19181
 C578 C 0.48780 0.37821 -0.17483
 C579 C 0.48492 0.39584 -0.14044
 C580 C 0.50680 0.41850 -0.12103
 C581 C 0.53158 0.42299 -0.13553
 C582 C 0.53440 0.40573 -0.17130
 H583 H 0.55846 0.36347 -0.44112
 H584 H 0.56106 0.39029 -0.36004
 H585 H 0.51027 0.32185 -0.26544
 H586 H 0.50749 0.29457 -0.34514
 H587 H 0.47076 0.36103 -0.19034
 H588 H 0.46564 0.39200 -0.12966
 H589 H 0.54871 0.44045 -0.12137
 H590 H 0.55364 0.41000 -0.18363
 C591 C 0.69713 0.18365 -0.36757
 C592 C 0.68469 0.16768 -0.32122
 C593 C 0.65962 0.16188 -0.30629
 C594 C 0.64711 0.17241 -0.33811
 C595 C 0.65931 0.18788 -0.38524
 C596 C 0.68433 0.19348 -0.40035
 N597 N 0.64656 0.14390 -0.26141
 N598 N 0.62662 0.14223 -0.23756
 C599 C 0.61216 0.12288 -0.19598
 C600 C 0.59425 0.12560 -0.16254
 C601 C 0.57806 0.10588 -0.12545
 C602 C 0.57908 0.08275 -0.12230
 C603 C 0.59756 0.08034 -0.15490
 C604 C 0.61413 0.10033 -0.19111
 H605 H 0.71637 0.18760 -0.37908
 H606 H 0.69445 0.15952 -0.29733
 H607 H 0.62760 0.16794 -0.32775
 H608 H 0.64913 0.19520 -0.41040
 H609 H 0.59247 0.14284 -0.16608
 H610 H 0.56402 0.10832 -0.10102
 H611 H 0.59885 0.06278 -0.15328
 H612 H 0.62772 0.09773 -0.21690
 C613 C 1.20742 0.51927 -0.35182
 C614 C 1.19402 0.51878 -0.30251
 C615 C 1.16700 0.50686 -0.30276
 C616 C 1.15348 0.49543 -0.35301
 C617 C 1.16673 0.49644 -0.40244
 C618 C 1.19402 0.50860 -0.40319
 N619 N 1.15344 0.50718 -0.25274
 N620 N 1.12940 0.49103 -0.24751
 C621 C 1.11375 0.49120 -0.20167
 C622 C 1.08879 0.47002 -0.19652
 C623 C 1.07136 0.47062 -0.15800
 C624 C 1.07844 0.49272 -0.12409
 C625 C 1.10401 0.51362 -0.12734
 C626 C 1.12160 0.51286 -0.16590
 H627 H 1.22835 0.52925 -0.35009
 H628 H 1.20473 0.52779 -0.26412
 H629 H 1.13256 0.48603 -0.35439
 H630 H 1.15528 0.48680 -0.43959
 H631 H 1.08253 0.45327 -0.22397
 H632 H 1.05196 0.45408 -0.15652
 H633 H 1.11006 0.53096 -0.10200
 H634 H 1.14080 0.52957 -0.16959
 C635 C 0.51240 0.67717 -0.40902
 C636 C 0.51762 0.66565 -0.36355
 C637 C 0.50466 0.66199 -0.31229
 C638 C 0.48782 0.67198 -0.30520
 C639 C 0.48315 0.68443 -0.35042
 C640 C 0.49436 0.68595 -0.40402
 N641 N 0.50796 0.64656 -0.27033
 N642 N 0.49306 0.63657 -0.22798
 C643 C 0.49672 0.61978 -0.19017
 C644 C 0.47775 0.60536 -0.14978
 C645 C 0.47967 0.58681 -0.11674
 C646 C 0.50075 0.58249 -0.12358
 C647 C 0.52015 0.59767 -0.16283
 C648 C 0.51816 0.61605 -0.19574
 H649 H 0.52257 0.67913 -0.44835
 H650 H 0.53098 0.65842 -0.36914
 H651 H 0.47781 0.66957 -0.26547
 H652 H 0.46920 0.69090 -0.34451
 H653 H 0.46105 0.60791 -0.14515
 H654 H 0.46438 0.57546 -0.08692
 H655 H 0.53675 0.59507 -0.16904
 H656 H 0.53318 0.62695 -0.22643
 C657 C 0.33137 -0.21513 -0.34519
 C658 C 0.34445 -0.20148 -0.29614
 C659 C 0.34169 -0.18066 -0.27629
 C660 C 0.32435 -0.17477 -0.30400
 C661 C 0.31138 -0.18832 -0.35273
 C662 C 0.31532 -0.20809 -0.37452
 N663 N 0.35843 -0.16411 -0.23218
 N664 N 0.35882 -0.14305 -0.21937
 C665 C 0.37631 -0.12454 -0.17914
 C666 C 0.37692 -0.10076 -0.17440
 C667 C 0.39562 -0.08082 -0.14102
 C668 C 0.41398 -0.08439 -0.11097
 C669 C 0.41250 -0.10880 -0.11334
 C670 C 0.39394 -0.12870 -0.14768
 H671 H 0.33489 -0.23011 -0.36196
 H672 H 0.35779 -0.20620 -0.27541
 H673 H 0.32173 -0.15888 -0.28964
 H674 H 0.29925 -0.18249 -0.37524
 H675 H 0.36341 -0.09735 -0.19840
 H676 H 0.39598 -0.06240 -0.13969
 H677 H 0.42618 -0.11223 -0.09024
 H678 H 0.39376 -0.14700 -0.15061
 C679 C 0.46365 -0.21263 0.34736
 C680 C 0.46645 -0.19772 0.29924
 C681 C 0.48537 -0.17138 0.29770
 C682 C 0.50187 -0.16023 0.34458
 C683 C 0.49887 -0.17497 0.39279
 C684 C 0.47950 -0.20120 0.39500
 N685 N 0.48659 -0.15590 0.25001
 N686 N 0.50488 -0.13256 0.24517
 C687 C 0.50618 -0.11555 0.20089
 C688 C 0.52783 -0.09068 0.19879
 C689 C 0.52874 -0.07230 0.16086
 C690 C 0.50786 -0.07843 0.12413
 C691 C 0.48653 -0.10385 0.12453
 C692 C 0.48566 -0.12228 0.16274
 H693 H 0.44853 -0.23279 0.34822
 H694 H 0.45356 -0.20656 0.26354
 H695 H 0.51664 -0.13993 0.34466
 H696 H 0.51149 -0.16580 0.42878
 H697 H 0.54373 -0.08526 0.22803
 H698 H 0.54552 -0.05300 0.16163
 H699 H 0.47009 -0.10917 0.09700
 H700 H 0.46864 -0.14139 0.16382
 C701 C 0.31626 0.47343 0.40248
 C702 C 0.32896 0.46910 0.35759
 C703 C 0.33509 0.48409 0.30847
 C704 C 0.32699 0.50257 0.30328
 C705 C 0.31390 0.50666 0.34799
 C706 C 0.30912 0.49263 0.39858
 N707 N 0.35110 0.48130 0.26689
 N708 N 0.36055 0.49623 0.22437
 C709 C 0.37783 0.49364 0.18586
 C710 C 0.38965 0.51183 0.14249
 C711 C 0.40841 0.51110 0.10778
 C712 C 0.41571 0.49214 0.11612
 C713 C 0.40310 0.47340 0.15846
 C714 C 0.38440 0.47413 0.19291
 H715 H 0.31271 0.46233 0.44100
 H716 H 0.33505 0.45477 0.36205
 H717 H 0.33145 0.51433 0.26559
 H718 H 0.30872 0.52170 0.34426
 H719 H 0.38483 0.52701 0.13658
 H720 H 0.41763 0.52576 0.07547
 H721 H 0.40805 0.45842 0.16601
 H722 H 0.37554 0.45977 0.22594
 C723 C 1.21376 0.67598 0.33532
 C724 C 1.20136 0.66442 0.28406
 C725 C 1.17937 0.66549 0.26668
 C726 C 1.17071 0.67940 0.29989
 C727 C 1.18286 0.69065 0.35100
 C728 C 1.20404 0.68849 0.36987
 N729 N 1.16452 0.65032 0.21896
 N730 N 1.14376 0.65005 0.20475
 C731 C 1.12640 0.63351 0.16173
 C732 C 1.10271 0.63280 0.15579
 C733 C 1.08313 0.61383 0.12223
 C734 C 1.08700 0.59528 0.09325
 C735 C 1.11163 0.59745 0.09526
 C736 C 1.13114 0.61622 0.12996
 H737 H 1.23002 0.67403 0.34934
 H738 H 1.20821 0.65370 0.25909
 H739 H 1.15384 0.68064 0.28767
 H740 H 1.17517 0.70035 0.37694
 H741 H 1.09888 0.64609 0.17989
 H742 H 1.06457 0.61304 0.12093
 H743 H 1.11539 0.58387 0.07238
 H744 H 1.14944 0.61657 0.13360
 C745 C 0.50924 0.19193 0.37010
 C746 C 0.50636 0.17588 0.32375
 C747 C 0.48448 0.15097 0.31966
 C748 C 0.46535 0.14267 0.36133
 C749 C 0.46826 0.15856 0.40765
 C750 C 0.49042 0.18317 0.41302
 N751 N 0.48179 0.13299 0.27603
 N752 N 0.49858 0.13818 0.23745
 C753 C 0.49569 0.11884 0.19697
 C754 C 0.51518 0.12474 0.15694
 C755 C 0.51410 0.10536 0.12110
 C756 C 0.49348 0.07967 0.12513
 C757 C 0.47341 0.07412 0.16372
 C758 C 0.47447 0.09347 0.19920
 H759 H 0.52657 0.21076 0.37343
 H760 H 0.52143 0.18266 0.29202
 H761 H 0.44841 0.12352 0.35858
 H762 H 0.45331 0.15148 0.43976
 H763 H 0.53165 0.14420 0.15476
 H764 H 0.52984 0.11028 0.09177
 H765 H 0.45713 0.05462 0.16764
 H766 H 0.45906 0.08837 0.22954
 C767 C 0.67629 0.46944 0.35472
 C768 C 0.66374 0.47011 0.30510
 C769 C 0.66257 0.49243 0.29113
 C770 C 0.67497 0.51447 0.32627
 C771 C 0.68730 0.51376 0.37574
 C772 C 0.68759 0.49109 0.39111
 N773 N 0.64708 0.49181 0.24408
 N774 N 0.64483 0.51150 0.23230
 C775 C 0.62804 0.51148 0.18907
 C776 C 0.62523 0.53340 0.18398
 C777 C 0.60645 0.53305 0.14819
 C778 C 0.59024 0.51072 0.11629
 C779 C 0.59413 0.48922 0.11888
 C780 C 0.61278 0.48950 0.15540
 H781 H 0.67626 0.45175 0.36580
 H782 H 0.65421 0.45297 0.27849
 H783 H 0.67448 0.53201 0.31650
 H784 H 0.69623 0.53082 0.40273
 H785 H 0.63693 0.55045 0.20972
 H786 H 0.60413 0.55002 0.14677
 H787 H 0.58204 0.47181 0.09463
 H788 H 0.61467 0.47233 0.15864
 C789 C 0.79205 0.33298 0.36364
 C790 C 0.80658 0.34732 0.31679
 C791 C 0.83241 0.35330 0.31045
 C792 C 0.84334 0.34427 0.35090
 C793 C 0.82903 0.33028 0.39752
 C794 C 0.80344 0.32484 0.40488
 N795 N 0.84775 0.36938 0.26459
 N796 N 0.87104 0.37441 0.25876
 C797 C 0.88845 0.39115 0.21652
 C798 C 0.91351 0.39485 0.21597
 C799 C 0.93197 0.41234 0.17862
 C800 C 0.92567 0.42654 0.14068
 C801 C 0.90020 0.42232 0.14015
 C802 C 0.88168 0.40477 0.17805
 H803 H 0.77230 0.32891 0.36859
 H804 H 0.79788 0.35413 0.28599
 H805 H 0.86317 0.34844 0.34721
 H806 H 0.83808 0.32387 0.42842
 H807 H 0.91889 0.38444 0.24554
 H808 H 0.95130 0.41492 0.17998
 H809 H 0.89476 0.43295 0.11141
 H810 H 0.86236 0.40222 0.17797
   
