data_POSCAR
  _audit_creation_date              2014-09-24
  _audit_creation_method            'ToBaCCo'
  _symmetry_space_group_name_H-M    'P1'
  _symmetry_Int_Tables_number       1
  _symmetry_cell_setting            triclinic
  loop_
  _symmetry_equiv_pos_as_xyz
 x,y,z
_cell_length_a 40.8671
_cell_length_b 34.8582
_cell_length_c 30.8473
_cell_angle_alpha 90.540300
_cell_angle_beta 89.559600
_cell_angle_gamma 85.719300
loop_
  _atom_site_label
  _atom_site_type_symbol
  _atom_site_fract_x
  _atom_site_fract_y
  _atom_site_fract_z
C1 C 1.23259 0.22072 0.18828
 C2 C 1.24604 0.25700 0.16994
 C3 C 1.25848 0.28050 0.20027
 C4 C 1.25587 0.26532 0.24723
 C5 C 1.26144 0.20175 0.21365
 C6 C 1.27318 0.22458 0.24501
 C7 C 1.20760 0.23520 0.22279
 C8 C 1.21934 0.25816 0.25391
 H9 H 1.24891 0.26139 0.13544
 H10 H 1.26597 0.28407 0.27234
 H11 H 1.27153 0.17252 0.20831
 H12 H 1.18229 0.22792 0.22205
 C13 C 0.73346 -0.28321 0.20387
 C14 C 0.74798 -0.25206 0.17585
 C15 C 0.76509 -0.22664 0.19898
 C16 C 0.76578 -0.23433 0.24808
 C17 C 0.76311 -0.30157 0.22835
 C18 C 0.77996 -0.27620 0.25164
 C19 C 0.71305 -0.26037 0.23855
 C20 C 0.72982 -0.23523 0.26178
 H21 H 0.74744 -0.25173 0.14088
 H22 H 0.77903 -0.21346 0.26733
 H23 H 0.76965 -0.33226 0.22787
 H24 H 0.68729 -0.26402 0.24437
 C25 C 0.73077 0.22376 -0.30495
 C26 C 0.75071 0.24938 -0.32906
 C27 C 0.77077 0.27204 -0.30174
 C28 C 0.76530 0.26540 -0.25491
 C29 C 0.75405 0.20160 -0.27819
 C30 C 0.77298 0.22391 -0.25032
 C31 C 0.71136 0.24918 -0.27568
 C32 C 0.72978 0.27154 -0.24706
 H33 H 0.75003 0.25235 -0.36380
 H34 H 0.78003 0.28216 -0.23277
 H35 H 0.75598 0.17038 -0.27820
 H36 H 0.68490 0.25353 -0.27838
 C37 C 1.21784 -0.26739 -0.29943
 C38 C 1.23901 -0.24153 -0.32610
 C39 C 1.26251 -0.22478 -0.30295
 C40 C 1.26293 -0.23586 -0.25461
 C41 C 1.24233 -0.29644 -0.27759
 C42 C 1.26577 -0.28023 -0.25377
 C43 C 1.20440 -0.24082 -0.26247
 C44 C 1.22786 -0.22499 -0.23888
 H45 H 1.23465 -0.23549 -0.35998
 H46 H 1.28144 -0.22202 -0.23490
 H47 H 1.24033 -0.32720 -0.27963
 H48 H 1.17859 -0.23420 -0.25554
 C49 C 0.23076 0.21919 0.81063
 C50 C 0.24825 0.24929 0.83033
 C51 C 0.26177 0.27529 0.80028
 C52 C 0.25429 0.26590 0.75481
 C53 C 0.20471 0.24011 0.78215
 C54 C 0.21655 0.26429 0.75257
 C55 C 0.25479 0.19929 0.77741
 C56 C 0.26694 0.22346 0.74797
 H57 H 0.25371 0.24886 0.86458
 H58 H 0.26363 0.28516 0.73003
 H59 H 0.17899 0.23484 0.78431
 H60 H 0.25978 0.16852 0.77452
 C61 C 0.73323 0.71601 0.79794
 C62 C 0.74869 0.74456 0.82393
 C63 C 0.76575 0.77169 0.79920
 C64 C 0.76308 0.76529 0.75215
 C65 C 0.71199 0.73787 0.76802
 C66 C 0.72758 0.76628 0.74362
 C67 C 0.75927 0.69839 0.77007
 C68 C 0.77622 0.72526 0.74474
 H69 H 0.75036 0.74241 0.85886
 H70 H 0.77546 0.78659 0.73322
 H71 H 0.68724 0.73034 0.76162
 H72 H 0.76149 0.66805 0.76214
 C73 C 0.73220 0.22117 0.30391
 C74 C 0.75993 0.23926 0.32805
 C75 C 0.77745 0.26276 0.30312
 C76 C 0.76483 0.26678 0.25597
 C77 C 0.71140 0.25561 0.28599
 C78 C 0.72777 0.27872 0.25941
 C79 C 0.74908 0.20160 0.26417
 C80 C 0.76598 0.22513 0.23892
 H81 H 0.76563 0.23412 0.36169
 H82 H 0.77849 0.28616 0.23537
 H83 H 0.68502 0.25902 0.29052
 H84 H 0.74896 0.17095 0.25804
 C85 C 0.22071 0.73043 0.30528
 C86 C 0.24705 0.75126 0.32959
 C87 C 0.26679 0.77079 0.30329
 C88 C 0.25889 0.76723 0.25475
 C89 C 0.20287 0.76232 0.27890
 C90 C 0.22257 0.78150 0.25255
 C91 C 0.23980 0.70470 0.27178
 C92 C 0.25982 0.72358 0.24512
 H93 H 0.24857 0.75347 0.36442
 H94 H 0.27454 0.78363 0.23325
 H95 H 0.17668 0.76961 0.28159
 H96 H 0.23851 0.67380 0.27094
 O97 O 1.03960 0.07232 0.06835
 O98 O 1.07758 0.02999 0.03477
 C99 C 1.06957 0.05991 0.05886
 O100 O 0.95037 -0.06123 0.08040
 O101 O 0.91428 -0.02716 0.03601
 C102 C 0.92095 -0.05181 0.06667
 O103 O 1.04161 -0.06109 0.08855
 O104 O 1.07842 -0.03463 0.04336
 C105 C 1.07129 -0.05492 0.07655
 O106 O 0.94887 0.08211 0.05850
 O107 O 0.91329 0.04212 0.02756
 C108 C 0.91964 0.07298 0.04890
 Zr109 Zr 0.99474 0.05208 0.04777
 O110 O 0.99111 0.05235 0.11610
 O111 O 0.99534 0.11267 0.04879
 Zr112 Zr 0.99607 -0.04305 0.06013
 O113 O 0.99009 -0.03324 0.12769
 O114 O 1.00079 -0.10314 0.07029
 O115 O 1.02482 0.00373 0.06339
 O116 O 0.96594 0.00737 0.06067
 O117 O 0.95342 0.06365 -0.08517
 O118 O 0.91567 0.03542 -0.04277
 C119 C 0.92367 0.05862 -0.07307
 O120 O 1.04591 -0.08035 -0.06792
 O121 O 1.08047 -0.04250 -0.03154
 C122 C 1.07493 -0.07080 -0.05731
 O123 O 0.95433 -0.07609 -0.06897
 O124 O 0.91616 -0.03362 -0.03589
 C125 C 0.92426 -0.06337 -0.06047
 O126 O 1.04477 0.05489 -0.08388
 O127 O 1.08007 0.02211 -0.03742
 C128 C 1.07395 0.04579 -0.06890
 Zr129 Zr 0.99834 0.03980 -0.06143
 O130 O 0.99962 0.02621 -0.12832
 O131 O 1.00003 0.09914 -0.07435
 Zr132 Zr 0.99921 -0.05547 -0.04880
 O133 O 0.99851 -0.06168 -0.11714
 O134 O 1.00313 -0.11597 -0.04128
 Zr135 Zr 1.04602 -0.00449 0.00113
 Zr136 Zr 0.94772 0.00168 -0.00247
 O137 O 0.96996 -0.00660 -0.06397
 O138 O 1.02863 -0.01062 -0.06245
 O139 O 0.96763 0.05547 -0.00904
 O140 O 1.02618 -0.05815 0.00768
 O141 O 1.02439 0.05165 -0.00665
 O142 O 0.96856 -0.05502 0.00549
 H143 H 0.94979 0.01131 0.08474
 H144 H 1.04113 -0.08159 0.01137
 H145 H 0.95574 -0.00805 -0.08973
 H146 H 1.03788 0.07399 -0.00914
 H147 H 0.98648 -0.11496 0.04907
 H148 H 0.98409 -0.12284 -0.02376
 H149 H 1.01668 -0.04760 -0.12900
 H150 H 0.99966 0.05113 -0.14349
 H151 H 0.98559 0.11327 -0.05278
 H152 H 0.99540 0.12088 0.01823
 H153 H 0.98962 0.07978 0.12505
 H154 H 1.00810 -0.01781 0.13734
 O155 O 1.05505 0.44196 0.58276
 O156 O 1.02969 0.39819 0.54088
 C157 C 1.05067 0.40720 0.57016
 O158 O 0.93036 0.55288 0.56657
 O159 O 0.96348 0.59435 0.53325
 C160 C 0.93821 0.58714 0.55679
 O161 O 0.93923 0.44647 0.57708
 O162 O 0.97115 0.40073 0.53840
 C163 C 0.94847 0.41116 0.56692
 O164 O 1.05617 0.54692 0.57438
 O165 O 1.02364 0.59157 0.53696
 C166 C 1.04797 0.58181 0.56245
 Zr167 Zr 1.03523 0.49521 0.55960
 O168 O 1.02431 0.50115 0.62668
 O169 O 1.08555 0.49130 0.57564
 Zr170 Zr 0.95414 0.49830 0.55199
 O171 O 0.95163 0.49932 0.62071
 O172 O 0.90267 0.49775 0.54573
 O173 O 0.99562 0.46174 0.56452
 O174 O 0.99316 0.53158 0.56328
 O175 O 1.06234 0.54443 0.43478
 O176 O 1.02656 0.59020 0.46710
 C177 C 1.05278 0.57965 0.44475
 O178 O 0.94701 0.44314 0.41772
 O179 O 0.97505 0.39917 0.46137
 C180 C 0.95480 0.40823 0.42994
 O181 O 0.94104 0.54902 0.41963
 O182 O 0.96727 0.59239 0.46094
 C183 C 0.94703 0.58377 0.43063
 O184 O 1.06289 0.43908 0.42960
 O185 O 1.03272 0.39690 0.46685
 C186 C 1.05658 0.40473 0.44086
 Zr187 Zr 1.04165 0.49279 0.44995
 O188 O 1.03971 0.49368 0.38154
 O189 O 1.09354 0.48814 0.44805
 Zr190 Zr 0.96050 0.49574 0.44301
 O191 O 0.96561 0.49772 0.37470
 O192 O 0.90892 0.49491 0.43833
 Zr193 Zr 1.00029 0.43700 0.50185
 Zr194 Zr 0.99608 0.55363 0.50033
 O195 O 1.00048 0.52844 0.43811
 O196 O 1.00291 0.45895 0.43852
 O197 O 1.04400 0.52717 0.50482
 O198 O 0.95245 0.46349 0.49755
 O199 O 1.04607 0.46083 0.50566
 O200 O 0.94964 0.53151 0.49635
 H201 H 0.99159 0.55067 0.58734
 H202 H 0.93355 0.44730 0.49628
 H203 H 1.00176 0.54560 0.41281
 H204 H 1.06690 0.44446 0.50703
 H205 H 0.89345 0.49884 0.57559
 H206 H 0.89917 0.51144 0.46204
 H207 H 0.98102 0.47583 0.36558
 H208 H 1.06273 0.49405 0.37139
 H209 H 1.10094 0.49859 0.47592
 H210 H 1.09786 0.48865 0.54794
 H211 H 1.01871 0.47569 0.63721
 H212 H 0.95444 0.52579 0.63114
 O213 O 0.54177 0.06793 0.57348
 O214 O 0.57974 0.02768 0.53690
 C215 C 0.57171 0.05586 0.56362
 O216 O 0.45093 -0.06236 0.57946
 O217 O 0.41500 -0.02644 0.53648
 C218 C 0.42154 -0.05196 0.56639
 O219 O 0.54216 -0.06514 0.58681
 O220 O 0.57983 -0.03778 0.54364
 C221 C 0.57215 -0.05954 0.57550
 O222 O 0.45138 0.08123 0.56338
 O223 O 0.41498 0.04344 0.53039
 C224 C 0.42189 0.07320 0.55346
 Zr225 Zr 0.49680 0.05060 0.55080
 O226 O 0.49283 0.04960 0.61910
 O227 O 0.49924 0.11094 0.55292
 Zr228 Zr 0.49676 -0.04455 0.55971
 O229 O 0.49139 -0.03589 0.62752
 O230 O 0.50008 -0.10482 0.56848
 O231 O 0.52631 0.00127 0.56469
 O232 O 0.46727 0.00632 0.56207
 O233 O 0.45555 0.06642 0.41769
 O234 O 0.41712 0.03808 0.45873
 C235 C 0.42553 0.06154 0.42872
 O236 O 0.54563 -0.07890 0.43023
 O237 O 0.58145 -0.04435 0.46880
 C238 C 0.57497 -0.07148 0.44174
 O239 O 0.45459 -0.07209 0.42871
 O240 O 0.41663 -0.03084 0.46421
 C241 C 0.42470 -0.05928 0.43774
 O242 O 0.54643 0.05495 0.41788
 O243 O 0.58172 0.02131 0.46364
 C244 C 0.57565 0.04478 0.43181
 Zr245 Zr 0.50013 0.04162 0.44155
 O246 O 0.50079 0.03109 0.37395
 O247 O 0.50324 0.10145 0.43300
 Zr248 Zr 0.49957 -0.05376 0.45060
 O249 O 0.49895 -0.05891 0.38218
 O250 O 0.50217 -0.11437 0.45687
 Zr251 Zr 0.54755 -0.00567 0.50230
 Zr252 Zr 0.44878 0.00297 0.49883
 O253 O 0.47107 -0.00397 0.43721
 O254 O 0.52973 -0.00938 0.43867
 O255 O 0.46949 0.05642 0.49427
 O256 O 0.52658 -0.05886 0.50684
 O257 O 0.52673 0.05106 0.49658
 O258 O 0.46888 -0.05427 0.50473
 H259 H 0.45125 0.00989 0.58633
 H260 H 0.54099 -0.08286 0.50960
 H261 H 0.45703 -0.00438 0.41117
 H262 H 0.54089 0.07287 0.49484
 H263 H 0.48664 -0.11590 0.54570
 H264 H 0.48224 -0.12112 0.47260
 H265 H 0.51576 -0.04266 0.37057
 H266 H 0.50094 0.05662 0.36012
 H267 H 0.48631 0.11498 0.45184
 H268 H 0.49698 0.11989 0.52274
 H269 H 0.49221 0.07679 0.62887
 H270 H 0.51015 -0.02181 0.63748
 O271 O 0.54031 0.56096 0.08145
 O272 O 0.57844 0.52514 0.03999
 C273 C 0.57037 0.55037 0.07013
 O274 O 0.45160 0.43000 0.07364
 O275 O 0.41501 0.46840 0.03425
 C276 C 0.42194 0.44154 0.06254
 O277 O 0.54262 0.42783 0.07951
 O278 O 0.57971 0.45932 0.03958
 C279 C 0.57241 0.43530 0.06953
 O280 O 0.44905 0.57167 0.07224
 O281 O 0.41354 0.53673 0.03347
 C282 C 0.41982 0.56417 0.06031
 Zr283 Zr 0.49543 0.54499 0.05520
 O284 O 0.49178 0.54017 0.12327
 O285 O 0.49723 0.60543 0.05959
 Zr286 Zr 0.49721 0.44867 0.05321
 O287 O 0.49276 0.44819 0.12160
 O288 O 0.50201 0.38777 0.05064
 O289 O 0.52564 0.49507 0.06363
 O290 O 0.46718 0.49875 0.06117
 O291 O 0.45254 0.57255 -0.07284
 O292 O 0.41516 0.53670 -0.03883
 C293 C 0.42275 0.56439 -0.06421
 O294 O 0.54649 0.43012 -0.08098
 O295 O 0.58163 0.46069 -0.03704
 C296 C 0.57574 0.43777 -0.06900
 O297 O 0.45512 0.43052 -0.07947
 O298 O 0.41659 0.46762 -0.04005
 C299 C 0.42494 0.44120 -0.06906
 O300 O 0.54374 0.56318 -0.07507
 O301 O 0.58018 0.52572 -0.03445
 C302 C 0.57332 0.55228 -0.06291
 Zr303 Zr 0.49794 0.54536 -0.05426
 O304 O 0.49849 0.53892 -0.12243
 O305 O 0.49731 0.60578 -0.06069
 Zr306 Zr 0.49977 0.44919 -0.05587
 O307 O 0.49812 0.44838 -0.12444
 O308 O 0.50490 0.38828 -0.05491
 Zr309 Zr 0.54695 0.49437 0.00118
 Zr310 Zr 0.44804 0.50009 -0.00203
 O311 O 0.47002 0.49921 -0.06397
 O312 O 0.52859 0.49571 -0.06259
 O313 O 0.46746 0.55453 -0.00031
 O314 O 0.52745 0.44015 -0.00063
 O315 O 0.52495 0.55084 0.00157
 O316 O 0.46915 0.44300 -0.00237
 H317 H 0.45175 0.50005 0.08617
 H318 H 0.54289 0.41683 -0.00083
 H319 H 0.45564 0.50055 -0.08973
 H320 H 0.53887 0.57288 0.00290
 H321 H 0.48315 0.37911 0.03425
 H322 H 0.48519 0.37936 -0.04046
 H323 H 0.51279 0.46772 -0.13487
 H324 H 0.49735 0.56532 -0.13419
 H325 H 0.50426 0.61626 -0.03267
 H326 H 0.48360 0.61670 0.03586
 H327 H 0.49084 0.56681 0.13494
 H328 H 0.50696 0.46762 0.13313
 C329 C 1.17285 0.15140 0.11155
 C330 C 1.17368 0.19057 0.10221
 C331 C 1.19527 0.21247 0.12457
 C332 C 1.21650 0.19538 0.15571
 C333 C 1.21613 0.15541 0.16191
 N334 N 1.19450 0.13486 0.14019
 C335 C 1.14646 0.12884 0.09555
 N336 N 1.15267 0.09052 0.08744
 C337 C 1.12854 0.06770 0.07599
 C338 C 1.09593 0.08321 0.07359
 C339 C 1.08905 0.12251 0.08246
 C340 C 1.11421 0.14541 0.09325
 H341 H 1.19383 0.24322 0.11947
 H342 H 1.23094 0.14065 0.18626
 H343 H 1.13481 0.03751 0.06917
 H344 H 1.06428 0.13571 0.08040
 H345 H 1.15678 0.20446 0.07934
 H346 H 1.10831 0.17550 0.10101
 C347 C 1.14346 0.67739 0.62884
 C348 C 1.17344 0.68368 0.60864
 C349 C 1.19752 0.70113 0.63188
 C350 C 1.19166 0.71336 0.67499
 C351 C 1.16150 0.70544 0.69420
 N352 N 1.13848 0.68829 0.67091
 C353 C 1.11837 0.65607 0.60689
 N354 N 1.08592 0.66389 0.61686
 C355 C 1.06216 0.64236 0.60079
 C356 C 1.07103 0.61017 0.57468
 C357 C 1.10415 0.60192 0.56389
 C358 C 1.12780 0.62499 0.57932
 H359 H 1.22081 0.70475 0.61609
 H360 H 1.15625 0.71192 0.72795
 H361 H 1.03680 0.64910 0.61024
 H362 H 1.11184 0.57662 0.54469
 H363 H 1.17836 0.67506 0.57528
 H364 H 1.15335 0.61709 0.57182
 C365 C 0.66867 0.14721 0.63503
 C366 C 0.67052 0.14988 0.68001
 C367 C 0.69084 0.17513 0.69846
 C368 C 0.71017 0.19806 0.67260
 C369 C 0.70871 0.19305 0.62715
 N370 N 0.68800 0.16820 0.60975
 C371 C 0.64403 0.12387 0.61592
 N372 N 0.65180 0.09937 0.58216
 C373 C 0.62950 0.07617 0.56556
 C374 C 0.59757 0.07741 0.58303
 C375 C 0.58943 0.10262 0.61773
 C376 C 0.61244 0.12587 0.63403
 H377 H 0.69144 0.17697 0.73355
 H378 H 0.72344 0.20858 0.60525
 H379 H 0.63654 0.05734 0.53849
 H380 H 0.56509 0.10479 0.63211
 H381 H 0.65591 0.13291 0.70086
 H382 H 0.60552 0.14555 0.66049
 C383 C 0.67011 0.63574 0.14789
 C384 C 0.67768 0.63449 0.19207
 C385 C 0.69921 0.65978 0.20898
 C386 C 0.71324 0.68685 0.18238
 C387 C 0.70615 0.68586 0.13776
 N388 N 0.68501 0.66077 0.12198
 C389 C 0.64516 0.61166 0.12955
 N390 N 0.64874 0.59772 0.08825
 C391 C 0.62585 0.57670 0.06930
 C392 C 0.59689 0.56968 0.09178
 C393 C 0.59269 0.58389 0.13426
 C394 C 0.61683 0.60456 0.15335
 H395 H 0.70421 0.65906 0.24342
 H396 H 0.71646 0.70531 0.11537
 H397 H 0.62974 0.56670 0.03619
 H398 H 0.57060 0.57932 0.15254
 H399 H 0.66687 0.61440 0.21347
 H400 H 0.61278 0.61599 0.18586
 C401 C 0.82312 -0.14312 0.14066
 C402 C 0.79309 -0.15096 0.12168
 C403 C 0.77392 -0.17801 0.14070
 C404 C 0.78445 -0.19720 0.17851
 C405 C 0.81445 -0.18841 0.19641
 N406 N 0.83268 -0.16224 0.17726
 C407 C 0.84610 -0.11664 0.12161
 N408 N 0.87675 -0.11713 0.13857
 C409 C 0.90031 -0.09564 0.12262
 C410 C 0.89392 -0.07174 0.08682
 C411 C 0.86218 -0.06962 0.06946
 C412 C 0.83818 -0.09195 0.08673
 H413 H 0.75085 -0.18384 0.12590
 H414 H 0.82404 -0.20306 0.22488
 H415 H 0.92426 -0.09803 0.13752
 H416 H 0.85610 -0.05139 0.04202
 H417 H 0.78455 -0.13720 0.09222
 H418 H 0.81404 -0.08981 0.07254
 C419 C 0.85269 0.32595 0.64926
 C420 C 0.83952 0.33701 0.69012
 C421 C 0.81212 0.31984 0.70613
 C422 C 0.79716 0.29187 0.68151
 C423 C 0.81065 0.28276 0.64003
 N424 N 0.83755 0.29956 0.62551
 C425 C 0.88140 0.34348 0.62994
 N426 N 0.88645 0.34058 0.58621
 C427 C 0.91041 0.35866 0.56551
 C428 C 0.93040 0.38208 0.58903
 C429 C 0.92686 0.38396 0.63420
 C430 C 0.90280 0.36428 0.65489
 H431 H 0.80229 0.32974 0.73722
 H432 H 0.80114 0.26097 0.61957
 H433 H 0.91208 0.35719 0.53051
 H434 H 0.94181 0.40209 0.65327
 H435 H 0.84954 0.35928 0.70941
 H436 H 0.90067 0.36637 0.68977
 C437 C 0.32307 -0.14224 0.64132
 C438 C 0.29069 -0.14425 0.62689
 C439 C 0.27094 -0.17088 0.64529
 C440 C 0.28312 -0.19573 0.67802
 C441 C 0.31528 -0.19234 0.69208
 N442 N 0.33412 -0.16632 0.67351
 C443 C 0.34633 -0.11596 0.62225
 N444 N 0.37744 -0.11798 0.63779
 C445 C 0.40115 -0.09686 0.62150
 C446 C 0.39446 -0.07176 0.58674
 C447 C 0.36235 -0.06819 0.57075
 C448 C 0.33823 -0.09018 0.58831
 H449 H 0.24598 -0.17170 0.63406
 H450 H 0.32581 -0.21089 0.71702
 H451 H 0.42543 -0.10045 0.63533
 H452 H 0.35605 -0.04911 0.54410
 H453 H 0.28039 -0.12594 0.60167
 H454 H 0.31394 -0.08707 0.57470
 C455 C 0.31979 0.36384 0.14933
 C456 C 0.28813 0.36118 0.13261
 C457 C 0.26732 0.33579 0.15123
 C458 C 0.27765 0.31299 0.18659
 C459 C 0.30868 0.31797 0.20389
 N460 N 0.32883 0.34239 0.18468
 C461 C 0.34475 0.38626 0.12738
 N462 N 0.37699 0.37741 0.13623
 C463 C 0.40163 0.39475 0.11623
 C464 C 0.39471 0.42304 0.08466
 C465 C 0.36162 0.43326 0.07544
 C466 C 0.33664 0.41512 0.09674
 H467 H 0.24355 0.33277 0.13681
 H468 H 0.31775 0.30068 0.23082
 H469 H 0.42668 0.38606 0.12494
 H470 H 0.35502 0.45520 0.05179
 H471 H 0.27988 0.37677 0.10414
 H472 H 0.31143 0.42395 0.08922
 C473 C 0.83711 0.16154 -0.16741
 C474 C 0.82313 0.19756 -0.15314
 C475 C 0.80329 0.22011 -0.18151
 C476 C 0.79670 0.20589 -0.22313
 C477 C 0.81277 0.17061 -0.23633
 N478 N 0.83215 0.14985 -0.20867
 C479 C 0.85811 0.13555 -0.14058
 N480 N 0.88097 0.11172 -0.16156
 C481 C 0.90087 0.08553 -0.14052
 C482 C 0.89808 0.08183 -0.09565
 C483 C 0.87411 0.10517 -0.07304
 C484 C 0.85402 0.13241 -0.09552
 H485 H 0.79152 0.24714 -0.16983
 H486 H 0.81026 0.15934 -0.26885
 H487 H 0.91934 0.06815 -0.15879
 H488 H 0.87187 0.10335 -0.03811
 H489 H 0.82742 0.20809 -0.12072
 H490 H 0.83549 0.15037 -0.07809
 C491 C 0.86090 0.68314 0.33012
 C492 C 0.83989 0.71442 0.34498
 C493 C 0.81393 0.72857 0.31883
 C494 C 0.80883 0.71163 0.27822
 C495 C 0.83112 0.68166 0.26393
 N496 N 0.85596 0.66832 0.28989
 C497 C 0.88674 0.66302 0.35698
 N498 N 0.90401 0.63213 0.33855
 C499 C 0.92519 0.60839 0.36109
 C500 C 0.92967 0.61450 0.40548
 C501 C 0.91377 0.64723 0.42518
 C502 C 0.89214 0.67165 0.40103
 H503 H 0.79717 0.75176 0.33106
 H504 H 0.82859 0.66838 0.23240
 H505 H 0.93741 0.58365 0.34466
 H506 H 0.91658 0.65261 0.45955
 H507 H 0.84268 0.72742 0.37651
 H508 H 0.87907 0.69573 0.41740
 C509 C 0.33659 0.16334 0.33287
 C510 C 0.31031 0.18756 0.34958
 C511 C 0.29074 0.21022 0.32109
 C512 C 0.29737 0.20853 0.27641
 C513 C 0.32480 0.18563 0.26150
 N514 N 0.34330 0.16390 0.28961
 C515 C 0.35766 0.13684 0.35976
 N516 N 0.38696 0.12324 0.34243
 C517 C 0.40806 0.09824 0.36342
 C518 C 0.40024 0.08502 0.40477
 C519 C 0.36976 0.09759 0.42318
 C520 C 0.34834 0.12366 0.40077
 H521 H 0.26951 0.22742 0.33359
 H522 H 0.33072 0.18376 0.22723
 H523 H 0.43117 0.08907 0.34778
 H524 H 0.36295 0.08813 0.45513
 H525 H 0.30461 0.18876 0.38388
 H526 H 0.32486 0.13291 0.41526
 C527 C 0.33173 0.65655 -0.16816
 C528 C 0.34198 0.68888 -0.19008
 C529 C 0.32060 0.70913 -0.21823
 C530 C 0.28914 0.69715 -0.22543
 C531 C 0.28005 0.66412 -0.20384
 N532 N 0.30121 0.64502 -0.17617
 C533 C 0.35358 0.63424 -0.13753
 N534 N 0.34828 0.59684 -0.12883
 C535 C 0.36865 0.57430 -0.10309
 C536 C 0.39665 0.58909 -0.08530
 C537 C 0.40164 0.62792 -0.09218
 C538 C 0.38012 0.65061 -0.11767
 H539 H 0.32890 0.73388 -0.23480
 H540 H 0.25588 0.65401 -0.20806
 H541 H 0.36395 0.54446 -0.09847
 H542 H 0.42269 0.64059 -0.07843
 H543 H 0.36640 0.69832 -0.18637
 H544 H 0.38462 0.68051 -0.12184
 C545 C 1.18214 -0.15955 -0.13793
 C546 C 1.18918 -0.19918 -0.13214
 C547 C 1.20743 -0.22036 -0.16358
 C548 C 1.21898 -0.20196 -0.20010
 C549 C 1.21434 -0.16189 -0.20265
 N550 N 1.19570 -0.14185 -0.17215
 C551 C 1.15618 -0.13821 -0.11220
 N552 N 1.15825 -0.10014 -0.10330
 C553 C 1.13306 -0.07825 -0.08426
 C554 C 1.10333 -0.09433 -0.07503
 C555 C 1.10083 -0.13348 -0.08363
 C556 C 1.12723 -0.15555 -0.10186
 H557 H 1.21049 -0.25141 -0.16107
 H558 H 1.22296 -0.14705 -0.23071
 H559 H 1.13581 -0.04808 -0.07784
 H560 H 1.07836 -0.14693 -0.07655
 H561 H 1.17897 -0.21396 -0.10506
 H562 H 1.12434 -0.18542 -0.10980
 C563 C 1.15248 0.30599 0.35088
 C564 C 1.15031 0.26790 0.33698
 C565 C 1.17313 0.25175 0.30689
 C566 C 1.19811 0.27335 0.29039
 C567 C 1.20061 0.31047 0.30709
 N568 N 1.17790 0.32572 0.33616
 C569 C 1.12744 0.32632 0.37959
 N570 N 1.13578 0.35861 0.40040
 C571 C 1.11367 0.38194 0.42298
 C572 C 1.08047 0.37413 0.42452
 C573 C 1.07124 0.34008 0.40535
 C574 C 1.09472 0.31601 0.38266
 H575 H 1.17089 0.22244 0.29605
 H576 H 1.21953 0.32805 0.29555
 H577 H 1.12179 0.40772 0.43805
 H578 H 1.04579 0.33337 0.40566
 H579 H 1.13122 0.25073 0.34881
 H580 H 1.08679 0.29104 0.36582
 C581 C 0.67606 -0.16902 0.35813
 C582 C 0.67735 -0.20936 0.35962
 C583 C 0.69617 -0.23101 0.32918
 C584 C 0.71440 -0.21269 0.29805
 C585 C 0.71502 -0.17258 0.30004
 N586 N 0.69555 -0.15184 0.32921
 C587 C 0.65126 -0.14521 0.38367
 N588 N 0.65674 -0.10834 0.39506
 C589 C 0.63334 -0.08441 0.41528
 C590 C 0.60210 -0.09702 0.42354
 C591 C 0.59620 -0.13492 0.41242
 C592 C 0.62057 -0.15901 0.39271
 H593 H 0.69580 -0.26206 0.32911
 H594 H 0.72922 -0.15765 0.27669
 H595 H 0.63872 -0.05527 0.42337
 H596 H 0.57247 -0.14586 0.41845
 H597 H 0.66309 -0.22413 0.38303
 H598 H 0.61473 -0.18758 0.38296
 C599 C 0.67599 0.34616 -0.16044
 C600 C 0.66405 0.31119 -0.17248
 C601 C 0.68271 0.28602 -0.19926
 C602 C 0.71375 0.29509 -0.21455
 C603 C 0.72635 0.32883 -0.19798
 N604 N 0.70701 0.35381 -0.17249
 C605 C 0.65298 0.37546 -0.13955
 N606 N 0.65876 0.38989 -0.09933
 C607 C 0.63516 0.41185 -0.07679
 C608 C 0.60355 0.41892 -0.09421
 C609 C 0.59796 0.40567 -0.13635
 C610 C 0.62253 0.38423 -0.15903
 H611 H 0.67243 0.25932 -0.20805
 H612 H 0.75026 0.33699 -0.20796
 H613 H 0.64051 0.42201 -0.04453
 H614 H 0.57425 0.41104 -0.15147
 H615 H 0.63976 0.30406 -0.16254
 H616 H 0.61736 0.37306 -0.19096
 C617 C 1.17583 0.14153 -0.11670
 C618 C 1.20723 0.12836 -0.13139
 C619 C 1.22704 0.15412 -0.15123
 C620 C 1.21537 0.19280 -0.15695
 C621 C 1.18586 0.20552 -0.13585
 N622 N 1.16653 0.17975 -0.11813
 C623 C 1.15102 0.11481 -0.10515
 N624 N 1.11931 0.12459 -0.11593
 C625 C 1.09474 0.10171 -0.10718
 C626 C 1.10135 0.06689 -0.08543
 C627 C 1.13400 0.05594 -0.07435
 C628 C 1.15897 0.07973 -0.08444
 H629 H 1.25071 0.14301 -0.16351
 H630 H 1.17671 0.23544 -0.13704
 H631 H 1.06991 0.11167 -0.11565
 H632 H 1.14008 0.02957 -0.05693
 H633 H 1.21552 0.09816 -0.13041
 H634 H 1.18391 0.07134 -0.07499
 C635 C 1.14795 0.67386 0.37764
 C636 C 1.17547 0.68551 0.39960
 C637 C 1.19977 0.70291 0.37668
 C638 C 1.19661 0.70898 0.33184
 C639 C 1.16900 0.69562 0.31110
 N640 N 1.14556 0.67909 0.33421
 C641 C 1.12262 0.65355 0.39994
 N642 N 1.09072 0.65893 0.38724
 C643 C 1.06695 0.63766 0.40355
 C644 C 1.07543 0.60821 0.43272
 C645 C 1.10795 0.60255 0.44646
 C646 C 1.13154 0.62553 0.43072
 H647 H 1.22076 0.71115 0.39452
 H648 H 1.16582 0.69898 0.27651
 H649 H 1.04206 0.64221 0.39188
 H650 H 1.11534 0.57925 0.46806
 H651 H 1.17809 0.68143 0.43419
 H652 H 1.15682 0.61975 0.44046
 C653 C 0.67308 0.13795 0.36326
 C654 C 0.69877 0.15189 0.38748
 C655 C 0.71801 0.17933 0.36940
 C656 C 0.71157 0.19312 0.32734
 C657 C 0.68557 0.17829 0.30457
 N658 N 0.66732 0.15181 0.32282
 C659 C 0.65047 0.11046 0.38042
 N660 N 0.62123 0.10830 0.36013
 C661 C 0.59792 0.08571 0.37442
 C662 C 0.60317 0.06361 0.41182
 C663 C 0.63381 0.06369 0.43211
 C664 C 0.65755 0.08713 0.41658
 H665 H 0.73778 0.18915 0.38853
 H666 H 0.67990 0.18765 0.27193
 H667 H 0.57488 0.08615 0.35729
 H668 H 0.63901 0.04672 0.46077
 H669 H 0.70376 0.14241 0.42019
 H670 H 0.68083 0.08702 0.43299
 C671 C 0.67456 0.64163 -0.13111
 C672 C 0.70544 0.62697 -0.14636
 C673 C 0.72576 0.65125 -0.16801
 C674 C 0.71519 0.69022 -0.17540
 C675 C 0.68524 0.70408 -0.15572
 N676 N 0.66577 0.67974 -0.13564
 C677 C 0.64997 0.61686 -0.11324
 N678 N 0.61773 0.62859 -0.11799
 C679 C 0.59321 0.60799 -0.10309
 C680 C 0.60039 0.57326 -0.08122
 C681 C 0.63352 0.56058 -0.07553
 C682 C 0.65841 0.58218 -0.09173
 H683 H 0.74942 0.63892 -0.17905
 H684 H 0.67653 0.73409 -0.15816
 H685 H 0.56810 0.61927 -0.10778
 H686 H 0.64017 0.53417 -0.05846
 H687 H 0.71340 0.59683 -0.14322
 H688 H 0.68379 0.57224 -0.08662
 C689 C 0.82587 -0.15008 -0.14043
 C690 C 0.79913 -0.16315 -0.11766
 C691 C 0.77906 -0.18855 -0.13782
 C692 C 0.78507 -0.20093 -0.18103
 C693 C 0.81178 -0.18615 -0.20288
 N694 N 0.83135 -0.16212 -0.18212
 C695 C 0.84981 -0.12606 -0.11954
 N696 N 0.88141 -0.12939 -0.13404
 C697 C 0.90526 -0.10954 -0.11588
 C698 C 0.89791 -0.08414 -0.08091
 C699 C 0.86529 -0.07944 -0.06604
 C700 C 0.84120 -0.10045 -0.08511
 H701 H 0.75851 -0.19786 -0.11940
 H702 H 0.81869 -0.19526 -0.23544
 H703 H 0.92995 -0.11371 -0.12889
 H704 H 0.85848 -0.05990 -0.03946
 H705 H 0.79428 -0.15492 -0.08418
 H706 H 0.81619 -0.09635 -0.07326
 C707 C 0.86319 0.31185 0.35266
 C708 C 0.85593 0.27489 0.36552
 C709 C 0.82827 0.25884 0.34892
 C710 C 0.80769 0.27924 0.31935
 C711 C 0.81649 0.31541 0.30602
 N712 N 0.84342 0.33063 0.32296
 C713 C 0.89101 0.33184 0.37104
 N714 N 0.90045 0.36349 0.35031
 C715 C 0.92306 0.38609 0.36685
 C716 C 0.93718 0.37815 0.40753
 C717 C 0.92924 0.34461 0.42867
 C718 C 0.90609 0.32144 0.41068
 H719 H 0.82317 0.23023 0.35907
 H720 H 0.80150 0.33210 0.28320
 H721 H 0.92870 0.41147 0.34913
 H722 H 0.93931 0.33763 0.46023
 H723 H 0.87132 0.25824 0.38788
 H724 H 0.89901 0.29708 0.42898
 C725 C 0.33290 -0.15053 0.35316
 C726 C 0.34199 -0.17364 0.31670
 C727 C 0.32032 -0.19908 0.30034
 C728 C 0.28991 -0.20226 0.32046
 C729 C 0.28173 -0.17896 0.35694
 N730 N 0.30313 -0.15412 0.37216
 C731 C 0.35527 -0.12374 0.37278
 N732 N 0.34965 -0.11103 0.41437
 C733 C 0.37034 -0.08840 0.43538
 C734 C 0.39898 -0.07826 0.41461
 C735 C 0.40452 -0.08961 0.37135
 C736 C 0.38263 -0.11182 0.35016
 H737 H 0.32772 -0.21689 0.27262
 H738 H 0.25822 -0.18008 0.37304
 H739 H 0.36528 -0.08001 0.46876
 H740 H 0.42613 -0.08163 0.35405
 H741 H 0.36577 -0.17313 0.30129
 H742 H 0.38753 -0.11958 0.31664
 C743 C 0.32684 0.35617 -0.15419
 C744 C 0.32679 0.34633 -0.19852
 C745 C 0.30458 0.32081 -0.21416
 C746 C 0.28239 0.30431 -0.18583
 C747 C 0.28233 0.31687 -0.14205
 N748 N 0.30411 0.34175 -0.12778
 C749 C 0.35163 0.38049 -0.13483
 N750 N 0.34468 0.39975 -0.09671
 C751 C 0.36701 0.42042 -0.07581
 C752 C 0.39898 0.42169 -0.09257
 C753 C 0.40655 0.40214 -0.13189
 C754 C 0.38309 0.38181 -0.15309
 H755 H 0.30627 0.31298 -0.24808
 H756 H 0.26484 0.30741 -0.11880
 H757 H 0.36012 0.43482 -0.04550
 H758 H 0.43084 0.40216 -0.14618
 H759 H 0.34383 0.35788 -0.22105
 H760 H 0.39010 0.36619 -0.18260
 C761 C 1.17340 -0.13271 0.17560
 C762 C 1.19907 -0.15654 0.15672
 C763 C 1.21708 -0.18313 0.18254
 C764 C 1.20934 -0.18580 0.22663
 C765 C 1.18538 -0.15946 0.24473
 N766 N 1.16785 -0.13447 0.21900
 C767 C 1.14904 -0.10994 0.14962
 N768 N 1.11827 -0.10326 0.16654
 C769 C 1.09334 -0.08519 0.14416
 C770 C 1.09869 -0.07264 0.10191
 C771 C 1.13048 -0.07806 0.08413
 C772 C 1.15574 -0.09683 0.10785
 H773 H 1.23540 -0.20323 0.16761
 H774 H 1.17931 -0.16013 0.27893
 H775 H 1.06935 -0.08102 0.15933
 H776 H 1.13564 -0.06860 0.05160
 H777 H 1.20377 -0.15665 0.12217
 H778 H 1.18002 -0.10101 0.09358
 C779 C 1.15031 0.31837 0.66052
 C780 C 1.17836 0.33679 0.67298
 C781 C 1.20054 0.31889 0.70215
 C782 C 1.19489 0.28275 0.71891
 C783 C 1.16713 0.26481 0.70428
 N784 N 1.14569 0.28300 0.67648
 C785 C 1.12485 0.33733 0.63241
 N786 N 1.09258 0.33113 0.63913
 C787 C 1.06783 0.35049 0.61693
 C788 C 1.07525 0.37807 0.58644
 C789 C 1.10830 0.38331 0.57747
 C790 C 1.13312 0.36299 0.60016
 H791 H 1.22138 0.33389 0.71271
 H792 H 1.16221 0.23635 0.71500
 H793 H 1.04257 0.34605 0.62494
 H794 H 1.11484 0.40461 0.55420
 H795 H 1.18250 0.36534 0.66170
 H796 H 1.15844 0.36801 0.59320
 C797 C 0.67018 -0.15269 0.66867
 C798 C 0.70426 -0.15731 0.66130
 C799 C 0.72361 -0.18395 0.68589
 C800 C 0.70920 -0.20639 0.71769
 C801 C 0.67495 -0.20003 0.72396
 N802 N 0.65700 -0.17405 0.69993
 C803 C 0.64715 -0.12587 0.64442
 N804 N 0.61547 -0.12169 0.65867
 C805 C 0.59169 -0.09984 0.63805
 C806 C 0.59893 -0.08050 0.59993
 C807 C 0.63159 -0.08355 0.58477
 C808 C 0.65578 -0.10622 0.60685
 H809 H 0.74956 -0.18740 0.67863
 H810 H 0.66206 -0.21439 0.74899
 H811 H 0.56699 -0.09828 0.65120
 H812 H 0.63825 -0.06934 0.55526
 H813 H 0.71609 -0.14078 0.63711
 H814 H 0.68046 -0.10888 0.59380
 C815 C 0.67110 0.35053 0.17090
 C816 C 0.70049 0.36349 0.18728
 C817 C 0.71971 0.33994 0.21562
 C818 C 0.70947 0.30398 0.22778
 C819 C 0.68070 0.29177 0.20921
 N820 N 0.66254 0.31503 0.18225
 C821 C 0.64751 0.37406 0.14377
 N822 N 0.61639 0.36285 0.14143
 C823 C 0.59255 0.38179 0.11789
 C824 C 0.59923 0.41444 0.09409
 C825 C 0.63130 0.42653 0.09527
 C826 C 0.65552 0.40652 0.12023
 H827 H 0.74191 0.35022 0.22897
 H828 H 0.67240 0.26371 0.21622
 H829 H 0.56837 0.37107 0.11781
 H830 H 0.63752 0.45161 0.07739
 H831 H 0.70810 0.39169 0.17957
 H832 H 0.68007 0.41615 0.12055
 C833 C 0.82474 0.17464 0.13568
 C834 C 0.83564 0.20621 0.15885
 C835 C 0.81573 0.22403 0.19121
 C836 C 0.78514 0.21047 0.20066
 C837 C 0.77443 0.18020 0.17534
 N838 N 0.79441 0.16292 0.14443
 C839 C 0.84678 0.15075 0.10631
 N840 N 0.84123 0.11296 0.10033
 C841 C 0.86288 0.08782 0.07888
 C842 C 0.89258 0.10027 0.06358
 C843 C 0.89779 0.13949 0.06689
 C844 C 0.87484 0.16489 0.08771
 H845 H 0.82511 0.24688 0.21041
 H846 H 0.75064 0.16940 0.18102
 H847 H 0.85788 0.05782 0.07646
 H848 H 0.92018 0.15032 0.05451
 H849 H 0.85996 0.21577 0.15419
 H850 H 0.87968 0.19490 0.09018
 C851 C 0.85093 0.68552 0.65648
 C852 C 0.84377 0.66331 0.69218
 C853 C 0.81961 0.67692 0.72156
 C854 C 0.80225 0.71302 0.71590
 C855 C 0.81154 0.73525 0.68036
 N856 N 0.83484 0.72078 0.65143
 C857 C 0.87296 0.66817 0.62262
 N858 N 0.90603 0.67043 0.62557
 C859 C 0.92767 0.64753 0.60111
 C860 C 0.91615 0.61912 0.57388
 C861 C 0.88221 0.61747 0.56926
 C862 C 0.86055 0.64218 0.59328
 H863 H 0.81505 0.65899 0.74906
 H864 H 0.79913 0.76298 0.67373
 H865 H 0.95376 0.64929 0.60566
 H866 H 0.87252 0.59565 0.54878
 H867 H 0.85626 0.63511 0.69665
 H868 H 0.83440 0.63914 0.59140
 C869 C 0.32729 0.17314 0.64560
 C870 C 0.33544 0.20795 0.66508
 C871 C 0.31491 0.22555 0.69714
 C872 C 0.28658 0.20850 0.71013
 C873 C 0.27844 0.17493 0.68850
 N874 N 0.29884 0.15817 0.65770
 C875 C 0.34991 0.14994 0.61582
 N876 N 0.34405 0.11248 0.60773
 C877 C 0.36540 0.08788 0.58498
 C878 C 0.39523 0.10037 0.57019
 C879 C 0.40101 0.13925 0.57607
 C880 C 0.37837 0.16417 0.59831
 H881 H 0.32203 0.25131 0.71327
 H882 H 0.25630 0.16138 0.69689
 H883 H 0.35996 0.05815 0.58085
 H884 H 0.42355 0.15018 0.56439
 H885 H 0.35797 0.22085 0.65755
 H886 H 0.38385 0.19381 0.60234
 C887 C 0.32386 0.66257 0.15252
 C888 C 0.33269 0.69733 0.17103
 C889 C 0.31144 0.71756 0.20013
 C890 C 0.28144 0.70337 0.21167
 C891 C 0.27321 0.66882 0.19195
 N892 N 0.29438 0.64950 0.16362
 C893 C 0.34671 0.63856 0.12377
 N894 N 0.34255 0.60026 0.11873
 C895 C 0.36433 0.57598 0.09612
 C896 C 0.39272 0.58989 0.07826
 C897 C 0.39668 0.62937 0.08129
 C898 C 0.37363 0.65383 0.10329
 H899 H 0.31924 0.74360 0.21461
 H900 H 0.25007 0.65700 0.19907
 H901 H 0.36041 0.54564 0.09416
 H902 H 0.41803 0.64125 0.06714
 H903 H 0.35622 0.70845 0.16474
 H904 H 0.37740 0.68416 0.10453
   
