data_POSCAR
  _audit_creation_date              2014-09-24
  _audit_creation_method            'ToBaCCo'
  _symmetry_space_group_name_H-M    'P1'
  _symmetry_Int_Tables_number       1
  _symmetry_cell_setting            triclinic
  loop_
  _symmetry_equiv_pos_as_xyz
 x,y,z
_cell_length_a 50.8756
_cell_length_b 51.2640
_cell_length_c 35.8101
_cell_angle_alpha 89.918700
_cell_angle_beta 90.529700
_cell_angle_gamma 120.915700
loop_
  _atom_site_label
  _atom_site_type_symbol
  _atom_site_fract_x
  _atom_site_fract_y
  _atom_site_fract_z
C1 C 0.05444 0.50190 0.04857
 C2 C 0.06838 0.53297 0.05621
 C3 C 0.05592 0.55020 0.04353
 C4 C 0.02828 0.53577 0.02246
 C5 C 0.01342 0.50409 0.01487
 C6 C 0.02656 0.48714 0.02819
 C7 C 0.01163 0.45592 0.02053
 C8 C -0.01577 0.44140 0.00062
 C9 C -0.02919 0.45758 -0.01363
 C10 C -0.01457 0.48934 -0.00606
 C11 C 0.01549 0.55229 0.00809
 C12 C -0.01162 0.53808 -0.01263
 C13 C -0.02761 0.50646 -0.01952
 C14 C -0.05537 0.49168 -0.04079
 C15 C -0.07003 0.45999 -0.04602
 C16 C -0.05746 0.44266 -0.03361
 H17 H 0.02087 0.44216 0.02996
 H18 H -0.02629 0.41713 -0.00265
 H19 H 0.02663 0.57663 0.01212
 H20 H -0.01934 0.55269 -0.02339
 H21 H 0.08867 0.54364 0.07390
 H22 H -0.09171 0.44848 -0.06067
 C23 C 0.50236 0.56174 0.03268
 C24 C 0.47284 0.54250 0.04624
 C25 C 0.45469 0.51238 0.03402
 C26 C 0.46672 0.50073 0.00775
 C27 C 0.49684 0.51985 -0.00612
 C28 C 0.51471 0.55040 0.00652
 C29 C 0.54401 0.56914 -0.00834
 C30 C 0.55575 0.55822 -0.03492
 C31 C 0.53879 0.52793 -0.04778
 C32 C 0.50879 0.50862 -0.03340
 C33 C 0.44913 0.47082 -0.00590
 C34 C 0.46071 0.45986 -0.03271
 C35 C 0.49034 0.47836 -0.04690
 C36 C 0.50168 0.46764 -0.07501
 C37 C 0.53127 0.48668 -0.08842
 C38 C 0.55018 0.51679 -0.07592
 H39 H 0.55804 0.59275 -0.00015
 H40 H 0.57801 0.57437 -0.04581
 H41 H 0.42598 0.45568 0.00347
 H42 H 0.44596 0.43680 -0.04262
 H43 H 0.46404 0.55105 0.06741
 H44 H 0.54016 0.47685 -0.10762
 C45 C 0.42249 0.94911 0.04613
 C46 C 0.43915 0.93724 0.06261
 C47 C 0.46884 0.94605 0.05127
 C48 C 0.48240 0.96749 0.02213
 C49 C 0.46571 0.97961 0.00477
 C50 C 0.43550 0.97001 0.01648
 C51 C 0.41928 0.98192 -0.00133
 C52 C 0.43249 1.00320 -0.02972
 C53 C 0.46291 1.01424 -0.04097
 C54 C 0.47945 1.00173 -0.02396
 C55 C 0.51246 0.97772 0.01054
 C56 C 0.52593 0.99935 -0.01745
 C57 C 0.50988 1.01160 -0.03507
 C58 C 0.52385 1.03425 -0.06259
 C59 C 0.50722 1.04594 -0.07950
 C60 C 0.47700 1.03671 -0.06933
 H61 H 0.39607 0.97488 0.00650
 H62 H 0.41813 1.01047 -0.04277
 H63 H 0.52615 0.96950 0.02343
 H64 H 0.54927 1.00661 -0.02484
 H65 H 0.42831 0.92010 0.08409
 H66 H 0.51927 1.06399 -0.09949
 C67 C 0.96613 0.49716 0.57234
 C68 C 0.95474 0.46803 0.58696
 C69 C 0.96500 0.44890 0.57482
 C70 C 0.98695 0.45885 0.54615
 C71 C 0.99856 0.48824 0.53045
 C72 C 0.98795 0.50734 0.54349
 C73 C 1.00009 0.53643 0.52817
 C74 C 1.02223 0.54676 0.50055
 C75 C 1.03319 0.52835 0.48672
 C76 C 1.02128 0.49878 0.50223
 C77 C 0.99812 0.44052 0.53341
 C78 C 1.02050 0.45087 0.50608
 C79 C 1.03260 0.47997 0.49044
 C80 C 1.05551 0.49055 0.46301
 C81 C 1.06691 0.51949 0.44786
 C82 C 1.05686 0.53912 0.45959
 H83 H 0.99296 0.55182 0.53786
 H84 H 1.03087 0.56971 0.49114
 H85 H 0.98990 0.41808 0.54476
 H86 H 1.02819 0.43571 0.49730
 H87 H 0.93688 0.45974 0.60777
 H88 H 1.08395 0.52656 0.42623
 C89 C 0.52160 0.45657 0.53026
 C90 C 0.55314 0.47421 0.53737
 C91 C 0.57104 0.50375 0.52335
 C92 C 0.55699 0.51623 0.50126
 C93 C 0.52504 0.49863 0.49359
 C94 C 0.50727 0.46881 0.50834
 C95 C 0.47572 0.45178 0.50012
 C96 C 0.46176 0.46383 0.47839
 C97 C 0.47883 0.49330 0.46365
 C98 C 0.51082 0.51082 0.47098
 C99 C 0.57408 0.54558 0.48608
 C100 C 0.56015 0.55751 0.46390
 C101 C 0.52860 0.54047 0.45573
 C102 C 0.51416 0.55239 0.43330
 C103 C 0.48265 0.53445 0.42590
 C104 C 0.46485 0.50535 0.44088
 H105 H 0.46142 0.42874 0.50999
 H106 H 0.43745 0.44956 0.47280
 H107 H 0.59852 0.55960 0.49089
 H108 H 0.57446 0.58030 0.45326
 H109 H 0.56377 0.46522 0.55552
 H110 H 0.47163 0.54340 0.40836
 C111 C 0.54827 0.03367 0.56655
 C112 C 0.53388 0.04926 0.57811
 C113 C 0.50349 0.03946 0.56826
 C114 C 0.48706 0.01349 0.54508
 C115 C 0.50139 -0.00250 0.53269
 C116 C 0.53196 0.00744 0.54395
 C117 C 0.54569 -0.00869 0.53169
 C118 C 0.52998 -0.03390 0.50848
 C119 C 0.49994 -0.04386 0.49582
 C120 C 0.48520 -0.02834 0.50883
 C121 C 0.45660 0.00288 0.53432
 C122 C 0.44072 -0.02232 0.51110
 C123 C 0.45441 -0.03843 0.49797
 C124 C 0.43893 -0.06311 0.47258
 C125 C 0.45402 -0.07786 0.46004
 C126 C 0.48375 -0.06953 0.47187
 H127 H 0.56889 -0.00192 0.53976
 H128 H 0.54200 -0.04536 0.50102
 H129 H 0.44462 0.01401 0.54360
 H130 H 0.41771 -0.02850 0.50312
 H131 H 0.54675 0.06953 0.59513
 H132 H 0.44206 -0.09661 0.44062
 O133 O 0.24403 0.42421 0.27452
 O134 O 0.20128 0.44383 0.20757
 O135 O 0.25286 0.44482 0.20671
 O136 O 0.19116 0.42288 0.27533
 O137 O 0.21538 0.46977 0.29760
 O138 O 0.27642 0.49174 0.22898
 O139 O 0.22515 0.49072 0.22994
 O140 O 0.26729 0.47110 0.29675
 Cu141 Cu 0.21985 0.42906 0.23912
 Cu142 Cu 0.24840 0.48545 0.26573
 C143 C 0.26343 0.44460 0.29648
 C144 C 0.20619 0.47077 0.20729
 C145 C 0.27505 0.47218 0.20610
 C146 C 0.19255 0.44280 0.29765
 O147 O 0.54581 0.75616 0.20214
 O148 O 0.55269 0.80367 0.28354
 O149 O 0.54827 0.75085 0.27462
 O150 O 0.54941 0.80888 0.21146
 O151 O 0.49911 0.78602 0.21597
 O152 O 0.49776 0.72760 0.27612
 O153 O 0.50221 0.77931 0.28688
 O154 O 0.49543 0.73409 0.20433
 Cu155 Cu 0.55416 0.78218 0.24248
 Cu156 Cu 0.49360 0.75438 0.24588
 C157 C 0.51933 0.73702 0.18948
 C158 C 0.52846 0.79931 0.29919
 C159 C 0.52260 0.72942 0.28619
 C160 C 0.52433 0.80764 0.20385
 O161 O 0.17326 0.75663 0.29285
 O162 O 0.22773 0.81169 0.22365
 O163 O 0.17698 0.75837 0.21985
 O164 O 0.22246 0.81165 0.29550
 O165 O 0.24975 0.78943 0.30115
 O166 O 0.20569 0.73762 0.22357
 O167 O 0.25578 0.79032 0.22972
 O168 O 0.20177 0.73566 0.29609
 Cu169 Cu 0.19710 0.78659 0.25752
 Cu170 Cu 0.23089 0.76099 0.26301
 C171 C 0.17861 0.73680 0.30632
 C172 C 0.25148 0.81054 0.21579
 C173 C 0.18376 0.73914 0.20858
 C174 C 0.24404 0.80985 0.31088
 O175 O 0.75780 0.56422 0.77761
 O176 O 0.82213 0.57220 0.72122
 O177 O 0.77276 0.57487 0.70737
 O178 O 0.80663 0.55981 0.79092
 O179 O 0.77748 0.51055 0.77968
 O180 O 0.74868 0.52592 0.69358
 O181 O 0.79640 0.52254 0.71182
 O182 O 0.73074 0.51560 0.76210
 Cu183 Cu 0.79248 0.57279 0.75064
 Cu184 Cu 0.76068 0.51378 0.73552
 C185 C 0.73302 0.53859 0.77848
 C186 C 0.82046 0.54843 0.70795
 C187 C 0.75506 0.55275 0.68612
 C188 C 0.79767 0.53235 0.79925
 O189 O 0.46252 0.25588 0.69991
 O190 O 0.45045 0.20568 0.78058
 O191 O 0.44807 0.25542 0.77003
 O192 O 0.46268 0.20527 0.71086
 O193 O 0.51174 0.23194 0.72653
 O194 O 0.49773 0.28395 0.78142
 O195 O 0.49945 0.23479 0.79550
 O196 O 0.51211 0.28167 0.71288
 Cu197 Cu 0.45088 0.22792 0.73901
 Cu198 Cu 0.51012 0.26091 0.75565
 C199 C 0.48962 0.27715 0.69258
 C200 C 0.47332 0.21154 0.80124
 C201 C 0.47063 0.27873 0.78493
 C202 C 0.48963 0.20968 0.70949
 O203 O 0.79185 0.23853 0.80623
 O204 O 0.75033 0.18994 0.72437
 O205 O 0.80455 0.23886 0.73570
 O206 O 0.73877 0.18861 0.79547
 O207 O 0.71786 0.21618 0.78243
 O208 O 0.78492 0.26812 0.72696
 O209 O 0.73192 0.21981 0.71209
 O210 O 0.76932 0.26501 0.79577
 Cu211 Cu 0.77343 0.21107 0.76647
 Cu212 Cu 0.74890 0.24499 0.75289
 C213 C 0.78724 0.25991 0.81495
 C214 C 0.73406 0.19688 0.70432
 C215 C 0.80631 0.26261 0.72217
 C216 C 0.71712 0.19393 0.79902
 C217 C 0.06876 0.48531 0.06440
 C218 C 0.10045 0.49783 0.06343
 C219 C 0.11711 0.48626 0.08531
 C220 C 0.14839 0.50618 0.09263
 C221 C 0.16479 0.49726 0.11535
 C222 C 0.15021 0.46808 0.13119
 C223 C 0.11935 0.44754 0.12230
 C224 C 0.10283 0.45654 0.09969
 C225 C 0.16666 0.45875 0.15710
 C226 C 0.19009 0.47957 0.18059
 H227 H 0.11404 0.51895 0.04842
 H228 H 0.16007 0.52903 0.08141
 H229 H 0.18887 0.51328 0.12042
 H230 H 0.10781 0.42474 0.13364
 H231 H 0.07902 0.44017 0.09370
 H232 H 0.15875 0.43476 0.15963
 H233 H 0.05431 0.46422 0.07888
 H234 H 0.19631 0.50319 0.18052
 C235 C 0.51960 0.59339 0.04707
 C236 C 0.50540 0.61048 0.04942
 C237 C 0.51767 0.63939 0.07035
 C238 C 0.50244 0.65560 0.06656
 C239 C 0.51021 0.68064 0.08936
 C240 C 0.53328 0.68986 0.11676
 C241 C 0.54984 0.67489 0.11909
 C242 C 0.54200 0.64971 0.09630
 C243 C 0.53919 0.71370 0.14447
 C244 C 0.51556 0.71738 0.15762
 H245 H 0.48298 0.60122 0.03648
 H246 H 0.48380 0.64832 0.04661
 H247 H 0.49771 0.69236 0.08594
 H248 H 0.56786 0.68175 0.13985
 H249 H 0.55416 0.63775 0.10040
 H250 H 0.56147 0.72589 0.15804
 H251 H 0.54306 0.60274 0.05626
 H252 H 0.49257 0.70322 0.14656
 C253 C 0.39139 0.93862 0.06054
 C254 C 0.38687 0.93845 0.09894
 C255 C 0.35693 0.92041 0.11757
 C256 C 0.35721 0.91398 0.15559
 C257 C 0.33011 0.89403 0.17380
 C258 C 0.30199 0.88028 0.15448
 C259 C 0.30120 0.88828 0.11719
 C260 C 0.32855 0.90807 0.09866
 C261 C 0.27414 0.85616 0.17274
 C262 C 0.27564 0.83328 0.19187
 H263 H 0.40712 0.94920 0.11675
 H264 H 0.37864 0.92342 0.17097
 H265 H 0.33118 0.88868 0.20285
 H266 H 0.27965 0.87813 0.10198
 H267 H 0.32734 0.91311 0.06960
 H268 H 0.25274 0.85581 0.17021
 H269 H 0.37230 0.92912 0.04110
 H270 H 0.29662 0.83271 0.19052
 C271 C 0.95368 0.51556 0.58738
 C272 C 0.94934 0.51608 0.62575
 C273 C 0.92607 0.52155 0.64210
 C274 C 0.91731 0.54096 0.62579
 C275 C 0.89339 0.54339 0.64119
 C276 C 0.87775 0.52608 0.67265
 C277 C 0.88697 0.50724 0.68912
 C278 C 0.91117 0.50535 0.67435
 C279 C 0.85056 0.52543 0.68770
 C280 C 0.84703 0.55063 0.68896
 H281 H 0.95937 0.50654 0.64401
 H282 H 0.92868 0.55403 0.60117
 H283 H 0.88646 0.55788 0.62776
 H284 H 0.87522 0.49370 0.71337
 H285 H 0.91750 0.49023 0.68738
 H286 H 0.83369 0.50470 0.70139
 H287 H 0.94465 0.52530 0.56801
 H288 H 0.86508 0.57254 0.67916
 C289 C 0.50404 0.42617 0.54792
 C290 C 0.51517 0.40629 0.54844
 C291 C 0.50171 0.37757 0.57003
 C292 C 0.51690 0.36119 0.56956
 C293 C 0.50716 0.33565 0.59209
 C294 C 0.48197 0.32594 0.61579
 C295 C 0.46560 0.34112 0.61474
 C296 C 0.47541 0.36682 0.59226
 C297 C 0.47351 0.30125 0.64313
 C298 C 0.49589 0.29748 0.66071
 H299 H 0.53598 0.41292 0.53316
 H300 H 0.53693 0.36862 0.55238
 H301 H 0.51967 0.32382 0.59128
 H302 H 0.44592 0.33384 0.63250
 H303 H 0.46266 0.37833 0.59332
 H304 H 0.45015 0.28856 0.65303
 H305 H 0.48264 0.42005 0.56106
 H306 H 0.51971 0.31238 0.65354
 C307 C 0.58021 0.04537 0.57935
 C308 C 0.60223 0.07611 0.57557
 C309 C 0.63195 0.09183 0.59579
 C310 C 0.65380 0.12146 0.58487
 C311 C 0.67987 0.13930 0.60679
 C312 C 0.68440 0.12795 0.64045
 C313 C 0.66378 0.09759 0.65002
 C314 C 0.63763 0.07966 0.62803
 C315 C 0.70862 0.14805 0.66746
 C316 C 0.71663 0.17828 0.67198
 H317 H 0.59643 0.08996 0.55848
 H318 H 0.65011 0.13129 0.56002
 H319 H 0.69591 0.16230 0.59793
 H320 H 0.66691 0.08830 0.67573
 H321 H 0.62121 0.05705 0.63763
 H322 H 0.71654 0.13792 0.68786
 H323 H 0.58585 0.02993 0.59278
 H324 H 0.70632 0.18761 0.65392
 C325 C 0.46273 0.05181 0.91478
 C326 C 0.47174 0.06742 0.88078
 C327 C 0.46430 0.09054 0.86916
 C328 C 0.48631 0.11536 0.84864
 C329 C 0.48095 0.13818 0.83714
 C330 C 0.45316 0.13645 0.84537
 C331 C 0.43062 0.11118 0.86494
 C332 C 0.43629 0.08850 0.87728
 C333 C 0.44733 0.16012 0.83124
 C334 C 0.47100 0.19042 0.83047
 H335 H 0.48714 0.06474 0.86278
 H336 H 0.50792 0.11727 0.84175
 H337 H 0.49837 0.15689 0.82101
 H338 H 0.40880 0.10914 0.87087
 H339 H 0.41861 0.06920 0.89233
 H340 H 0.42570 0.15316 0.81734
 H341 H 0.44512 0.05287 0.93003
 H342 H 0.49155 0.19703 0.84681
 C343 C 0.58017 0.53418 0.90941
 C344 C 0.58752 0.52858 0.87381
 C345 C 0.61883 0.54001 0.85959
 C346 C 0.62150 0.53238 0.82277
 C347 C 0.64972 0.53890 0.80895
 C348 C 0.67609 0.55331 0.83164
 C349 C 0.67400 0.56261 0.86776
 C350 C 0.64551 0.55573 0.88189
 C351 C 0.70540 0.55771 0.81793
 C352 C 0.70577 0.53495 0.79710
 H353 H 0.56890 0.51422 0.85483
 H354 H 0.60145 0.52046 0.80485
 H355 H 0.65084 0.53226 0.78058
 H356 H 0.69417 0.57400 0.88556
 H357 H 0.64451 0.56189 0.91046
 H358 H 0.72666 0.57825 0.82528
 H359 H 0.59805 0.55250 0.92563
 H360 H 0.68463 0.51336 0.79329
 C361 C 0.92755 0.41139 0.95662
 C362 C 0.89589 0.39348 0.95042
 C363 C 0.88042 0.36306 0.93261
 C364 C 0.84860 0.34445 0.93648
 C365 C 0.83220 0.31776 0.91560
 C366 C 0.84727 0.30932 0.88994
 C367 C 0.87932 0.32675 0.88784
 C368 C 0.89582 0.35357 0.90880
 C369 C 0.82978 0.28424 0.86296
 C370 C 0.80253 0.27967 0.84729
 H371 H 0.88133 0.40187 0.95955
 H372 H 0.83622 0.35112 0.95481
 H373 H 0.80757 0.30426 0.91871
 H374 H 0.89142 0.32061 0.86834
 H375 H 0.92027 0.36752 0.90464
 H376 H 0.84044 0.27248 0.85128
 H377 H 0.94065 0.40034 0.95392
 H378 H 0.79377 0.29394 0.85616
 C379 C 0.49663 0.91352 0.45839
 C380 C 0.47855 0.88258 0.44939
 C381 C 0.48935 0.86492 0.42884
 C382 C 0.51505 0.87868 0.40545
 C383 C 0.52151 0.86083 0.38206
 C384 C 0.50234 0.82897 0.38174
 C385 C 0.47755 0.81536 0.40628
 C386 C 0.47113 0.83311 0.42954
 C387 C 0.50498 0.80937 0.35361
 C388 C 0.53058 0.81804 0.33147
 H389 H 0.45491 0.87018 0.45836
 H390 H 0.52919 0.90316 0.40356
 H391 H 0.54045 0.87218 0.36298
 H392 H 0.46237 0.79090 0.40649
 H393 H 0.45112 0.82195 0.44717
 H394 H 0.48492 0.78704 0.34903
 H395 H 0.52111 0.92399 0.45583
 H396 H 0.55206 0.83879 0.33720
 C397 C 0.43152 0.48872 0.43316
 C398 C 0.42031 0.48435 0.39667
 C399 C 0.38794 0.47338 0.38730
 C400 C 0.37614 0.45919 0.35268
 C401 C 0.34699 0.45222 0.34078
 C402 C 0.32933 0.45987 0.36313
 C403 C 0.34081 0.47336 0.39816
 C404 C 0.36975 0.47983 0.41035
 C405 C 0.30130 0.45820 0.34835
 C406 C 0.28308 0.43808 0.32018
 H407 H 0.43621 0.48994 0.37388
 H408 H 0.38992 0.45436 0.33429
 H409 H 0.33919 0.44257 0.31319
 H410 H 0.32781 0.47989 0.41556
 H411 H 0.37848 0.49145 0.43680
 H412 H 0.29628 0.47522 0.35791
 H413 H 0.41587 0.48022 0.45642
 H414 H 0.28541 0.41885 0.31302
 C415 C 0.07074 0.56877 0.44423
 C416 C 0.10111 0.58437 0.43193
 C417 C 0.11662 0.61514 0.41547
 C418 C 0.10090 0.62652 0.39507
 C419 C 0.11722 0.65448 0.37649
 C420 C 0.14946 0.67143 0.37826
 C421 C 0.16481 0.66039 0.39981
 C422 C 0.14863 0.63257 0.41800
 C423 C 0.16844 0.69885 0.35549
 C424 C 0.15787 0.71436 0.33379
 H425 H 0.11544 0.57485 0.43757
 H426 H 0.07622 0.61330 0.39200
 H427 H 0.10460 0.66201 0.35971
 H428 H 0.18961 0.67288 0.40161
 H429 H 0.16129 0.62431 0.43348
 H430 H 0.19265 0.70656 0.35425
 H431 H 0.05880 0.58109 0.44389
 H432 H 0.13469 0.70975 0.33616
 C433 C 0.93093 0.50751 0.94368
 C434 C 0.91190 0.49708 0.91183
 C435 C 0.89394 0.51006 0.89641
 C436 C 0.87025 0.49202 0.87112
 C437 C 0.85280 0.50279 0.85459
 C438 C 0.85854 0.53207 0.86291
 C439 C 0.88254 0.55047 0.88780
 C440 C 0.90000 0.53951 0.90473
 C441 C 0.84110 0.54413 0.84355
 C442 C 0.81125 0.52473 0.83060
 H443 H 0.90985 0.47797 0.89642
 H444 H 0.86528 0.46941 0.86382
 H445 H 0.83543 0.48836 0.83436
 H446 H 0.88780 0.57334 0.89405
 H447 H 0.91850 0.55440 0.92342
 H448 H 0.85278 0.56809 0.83671
 H449 H 0.93531 0.52849 0.95610
 H450 H 0.79915 0.50121 0.83944
 C451 C 0.48419 0.43626 0.90961
 C452 C 0.48438 0.43168 0.87121
 C453 C 0.48256 0.40440 0.85480
 C454 C 0.46486 0.37517 0.87015
 C455 C 0.46592 0.35056 0.85475
 C456 C 0.48510 0.35511 0.82432
 C457 C 0.50233 0.38420 0.80889
 C458 C 0.50071 0.40846 0.82359
 C459 C 0.48917 0.33072 0.80913
 C460 C 0.46549 0.30059 0.80534
 H461 H 0.49279 0.45143 0.85332
 H462 H 0.45044 0.37136 0.89402
 H463 H 0.45262 0.32833 0.86735
 H464 H 0.51726 0.38819 0.78546
 H465 H 0.51462 0.43078 0.81134
 H466 H 0.51115 0.33747 0.79681
 H467 H 0.47547 0.41732 0.92875
 H468 H 0.44249 0.29388 0.81385
 C469 C 0.55627 0.04740 0.92626
 C470 C 0.57573 0.07895 0.92552
 C471 C 0.60574 0.09554 0.90663
 C472 C 0.62169 0.12743 0.90793
 C473 C 0.64816 0.14458 0.88711
 C474 C 0.65933 0.13021 0.86434
 C475 C 0.64450 0.09836 0.86454
 C476 C 0.61775 0.08107 0.88525
 C477 C 0.68591 0.14815 0.83980
 C478 C 0.69082 0.17483 0.82293
 H479 H 0.56721 0.09259 0.93749
 H480 H 0.61318 0.13921 0.92439
 H481 H 0.65968 0.16913 0.88863
 H482 H 0.65296 0.08683 0.84751
 H483 H 0.60625 0.05659 0.88344
 H484 H 0.70063 0.13935 0.83308
 H485 H 0.56404 0.03230 0.91767
 H486 H 0.67436 0.18198 0.82687
 C487 C 0.07002 0.47312 0.45149
 C488 C 0.07447 0.46955 0.41391
 C489 C 0.09648 0.46091 0.40092
 C490 C 0.09255 0.44803 0.36527
 C491 C 0.11530 0.44384 0.34988
 C492 C 0.14271 0.45305 0.36970
 C493 C 0.14629 0.46519 0.40574
 C494 C 0.12330 0.46885 0.42141
 C495 C 0.16929 0.45420 0.35161
 C496 C 0.16661 0.43498 0.32240
 H497 H 0.06254 0.47504 0.39299
 H498 H 0.07227 0.44215 0.34878
 H499 H 0.11213 0.43513 0.32166
 H500 H 0.16740 0.47285 0.42130
 H501 H 0.12743 0.47957 0.44856
 H502 H 0.19195 0.47212 0.36027
 H503 H 0.07885 0.46466 0.47294
 H504 H 0.14464 0.41500 0.31592
 C505 C 0.53105 0.58324 0.41666
 C506 C 0.51880 0.60215 0.41813
 C507 C 0.52939 0.63024 0.39604
 C508 C 0.51506 0.64703 0.40219
 C509 C 0.52106 0.67144 0.37926
 C510 C 0.54151 0.67962 0.34939
 C511 C 0.55729 0.66410 0.34443
 C512 C 0.55114 0.63941 0.36734
 C513 C 0.54551 0.70339 0.32261
 C514 C 0.52068 0.70634 0.31218
 H515 H 0.49881 0.59487 0.43539
 H516 H 0.49844 0.64070 0.42425
 H517 H 0.50929 0.68363 0.38461
 H518 H 0.57338 0.67023 0.32178
 H519 H 0.56264 0.62709 0.36151
 H520 H 0.56739 0.71711 0.30908
 H521 H 0.55242 0.59043 0.40267
 H522 H 0.49821 0.69043 0.32309
 C523 C 0.40850 0.92576 0.46016
 C524 C 0.39894 0.91426 0.42402
 C525 C 0.36661 0.89576 0.41243
 C526 C 0.35794 0.89998 0.37673
 C527 C 0.32915 0.87900 0.36198
 C528 C 0.30896 0.85290 0.38232
 C529 C 0.31729 0.84911 0.41849
 C530 C 0.34576 0.87070 0.43376
 C531 C 0.28150 0.82776 0.36404
 C532 C 0.26384 0.83291 0.33855
 H533 H 0.41597 0.91893 0.40296
 H534 H 0.37396 0.91890 0.35966
 H535 H 0.32358 0.88211 0.33369
 H536 H 0.30220 0.82894 0.43439
 H537 H 0.35232 0.86668 0.46105
 H538 H 0.27639 0.80474 0.36877
 H539 H 0.39202 0.92657 0.47823
 H540 H 0.26641 0.85521 0.33689
 C541 C 0.48434 0.93137 0.06948
 C542 C 0.48173 0.92571 0.10784
 C543 C 0.48867 0.90417 0.12661
 C544 C 0.50932 0.89621 0.11232
 C545 C 0.51366 0.87442 0.13054
 C546 C 0.49722 0.86018 0.16309
 C547 C 0.47708 0.86858 0.17747
 C548 C 0.47313 0.89054 0.15970
 C549 C 0.49892 0.83540 0.18191
 C550 C 0.52437 0.83186 0.18156
 H551 H 0.47067 0.93497 0.12441
 H552 H 0.52208 0.90666 0.08719
 H553 H 0.52911 0.86817 0.11855
 H554 H 0.46415 0.85793 0.20249
 H555 H 0.45714 0.89628 0.17135
 H556 H 0.47963 0.82019 0.19913
 H557 H 0.49568 0.92300 0.05204
 H558 H 0.54507 0.84813 0.16731
 C559 C 0.42364 0.49374 0.05017
 C560 C 0.40495 0.50608 0.05497
 C561 C 0.37719 0.49289 0.07846
 C562 C 0.36506 0.51132 0.08699
 C563 C 0.34044 0.50122 0.11127
 C564 C 0.32729 0.47232 0.12765
 C565 C 0.33835 0.45322 0.11782
 C566 C 0.36321 0.46342 0.09361
 C567 C 0.30216 0.46179 0.15494
 C568 C 0.29965 0.48197 0.17868
 H569 H 0.41264 0.52829 0.04304
 H570 H 0.37508 0.53396 0.07540
 H571 H 0.33176 0.51613 0.11708
 H572 H 0.32823 0.43065 0.12964
 H573 H 0.37136 0.44820 0.08724
 H574 H 0.28645 0.43757 0.15798
 H575 H 0.41661 0.47117 0.05998
 H576 H 0.31690 0.50593 0.17808
 C577 C 0.07113 0.58251 0.05568
 C578 C 0.10308 0.60052 0.05785
 C579 C 0.12042 0.62813 0.08145
 C580 C 0.10620 0.64003 0.10349
 C581 C 0.12347 0.66378 0.12873
 C582 C 0.15528 0.67613 0.13244
 C583 C 0.16949 0.66481 0.10973
 C584 C 0.15231 0.64125 0.08440
 C585 C 0.17399 0.69914 0.16126
 C586 C 0.16551 0.71820 0.17811
 H587 H 0.11620 0.59198 0.04440
 H588 H 0.08174 0.63064 0.10239
 H589 H 0.11156 0.67144 0.14629
 H590 H 0.19392 0.67383 0.11208
 H591 H 0.16393 0.63254 0.06794
 H592 H 0.19565 0.70136 0.16929
 H593 H 0.05688 0.59089 0.06577
 H594 H 0.14530 0.71826 0.16860
 C595 C 0.49019 0.05767 0.58151
 C596 C 0.49596 0.06959 0.61772
 C597 C 0.48886 0.09259 0.63104
 C598 C 0.50518 0.11034 0.66214
 C599 C 0.50018 0.13298 0.67540
 C600 C 0.47854 0.13831 0.65791
 C601 C 0.46139 0.11990 0.62758
 C602 C 0.46662 0.09734 0.61402
 C603 C 0.47278 0.16205 0.67198
 C604 C 0.49573 0.18840 0.68942
 H605 H 0.50858 0.06340 0.63669
 H606 H 0.52214 0.10688 0.67608
 H607 H 0.51296 0.14590 0.69975
 H608 H 0.44416 0.12321 0.61416
 H609 H 0.45298 0.08355 0.59064
 H610 H 0.45006 0.15869 0.66855
 H611 H 0.47740 0.06303 0.56188
 H612 H 0.51901 0.19298 0.69015
 C613 C 0.60391 0.52135 0.53434
 C614 C 0.62169 0.50779 0.53396
 C615 C 0.65137 0.51966 0.55388
 C616 C 0.66163 0.54227 0.58175
 C617 C 0.68708 0.54898 0.60419
 C618 C 0.70266 0.53316 0.59918
 C619 C 0.69329 0.51178 0.57015
 C620 C 0.66799 0.50515 0.54776
 C621 C 0.72566 0.53501 0.62638
 C622 C 0.74051 0.55777 0.65337
 H623 H 0.61217 0.48588 0.52023
 H624 H 0.64919 0.55361 0.58787
 H625 H 0.69321 0.56517 0.62674
 H626 H 0.70477 0.49918 0.56578
 H627 H 0.66057 0.48759 0.52660
 H628 H 0.72947 0.51605 0.62687
 H629 H 0.61347 0.54443 0.54423
 H630 H 0.73995 0.57856 0.65183
 C631 C 0.95116 0.41838 0.59218
 C632 C 0.94696 0.41548 0.63078
 C633 C 0.92184 0.38830 0.64894
 C634 C 0.90934 0.35869 0.63447
 C635 C 0.88376 0.33419 0.65136
 C636 C 0.87022 0.33914 0.68251
 C637 C 0.88315 0.36857 0.69718
 C638 C 0.90892 0.39279 0.68091
 C639 C 0.84161 0.31482 0.69912
 C640 C 0.83386 0.28455 0.70167
 H641 H 0.95872 0.43609 0.64746
 H642 H 0.91904 0.35448 0.61010
 H643 H 0.87400 0.31170 0.63929
 H644 H 0.87307 0.37289 0.72115
 H645 H 0.91808 0.41537 0.69254
 H646 H 0.82717 0.32164 0.71285
 H647 H 0.94068 0.39856 0.57420
 H648 H 0.84941 0.27765 0.69169
   
