data_POSCAR
  _audit_creation_date              2014-09-24
  _audit_creation_method            'ToBaCCo'
  _symmetry_space_group_name_H-M    'P1'
  _symmetry_Int_Tables_number       1
  _symmetry_cell_setting            triclinic
  loop_
  _symmetry_equiv_pos_as_xyz
 x,y,z
_cell_length_a 22.6369
_cell_length_b 22.8813
_cell_length_c 37.0400
_cell_angle_alpha 85.266900
_cell_angle_beta 90.758000
_cell_angle_gamma 90.082200
loop_
  _atom_site_label
  _atom_site_type_symbol
  _atom_site_fract_x
  _atom_site_fract_y
  _atom_site_fract_z
O1 O 0.02280 0.55364 1.03394
 O2 O 0.02419 0.44544 0.96518
 O3 O 0.02360 0.55992 0.96327
 O4 O 0.02926 0.44063 1.03584
 O5 O -0.06812 0.43449 1.03464
 O6 O -0.07361 0.56035 0.96552
 O7 O -0.07324 0.44530 0.96434
 O8 O -0.07446 0.54790 1.03535
 Cu9 Cu 0.03471 0.50019 0.99934
 Cu10 Cu -0.08211 0.49659 0.99978
 C11 C -0.02632 0.56884 1.04660
 C12 C -0.02457 0.42666 0.95315
 C13 C -0.02571 0.58207 0.95273
 C14 C -0.01826 0.41692 1.04746
 O15 O 0.45359 0.06128 0.52562
 O16 O 0.56841 0.04764 0.45805
 O17 O 0.45365 0.04581 0.45727
 O18 O 0.56947 0.06080 0.52748
 O19 O 0.56931 -0.03525 0.53942
 O20 O 0.45354 -0.04998 0.47087
 O21 O 0.56966 -0.04824 0.47015
 O22 O 0.45497 -0.03451 0.53919
 Cu23 Cu 0.51154 0.06352 0.49091
 Cu24 Cu 0.51221 -0.05164 0.50600
 C25 C 0.43406 0.01589 0.54364
 C26 C 0.58881 -0.00235 0.45227
 C27 C 0.43299 -0.00483 0.45279
 C28 C 0.58895 0.01498 0.54554
 C29 C 0.00466 -0.03537 0.24887
 C30 C 0.01632 0.02904 0.75088
 C31 C -0.08213 -0.36374 0.08358
 C32 C -0.08394 -0.32156 0.10870
 C33 C -0.03201 -0.30345 0.12529
 C34 C 0.02222 -0.32834 0.11663
 C35 C 0.02421 -0.37024 0.09120
 C36 C -0.02797 -0.38816 0.07428
 N37 N -0.03542 -0.25789 0.14942
 N38 N 0.00881 -0.24236 0.16791
 C39 C 0.00543 -0.19453 0.19042
 C40 C 0.05439 -0.18155 0.21163
 C41 C 0.05440 -0.13224 0.23153
 C42 C 0.00575 -0.09324 0.22967
 C43 C -0.04496 -0.10943 0.21009
 C44 C -0.04495 -0.15894 0.19047
 H45 H -0.12310 -0.37646 0.07099
 H46 H -0.12592 -0.30247 0.11504
 H47 H 0.06303 -0.31472 0.12899
 H48 H 0.06655 -0.38834 0.08465
 H49 H 0.09306 -0.20948 0.21243
 H50 H 0.09307 -0.12540 0.24796
 H51 H -0.08402 -0.08201 0.20879
 H52 H -0.08379 -0.16841 0.17462
 C53 C 0.02929 0.36722 0.10284
 C54 C 0.03386 0.31988 0.12910
 C55 C -0.00443 0.27201 0.12807
 C56 C -0.04920 0.27298 0.10135
 C57 C -0.05496 0.32113 0.07574
 C58 C -0.01507 0.36811 0.07592
 N59 N 0.00351 0.22247 0.15385
 N60 N -0.01288 0.17148 0.14664
 C61 C -0.00645 0.12123 0.17202
 C62 C -0.00728 0.06570 0.15912
 C63 C -0.00203 0.01545 0.18296
 C64 C 0.00104 0.01925 0.22091
 C65 C 0.00389 0.07607 0.23338
 C66 C 0.00020 0.12635 0.20930
 H67 H 0.06030 0.40321 0.10358
 H68 H 0.06837 0.31969 0.14963
 H69 H -0.07961 0.23657 0.10033
 H70 H -0.08940 0.32089 0.05517
 H71 H -0.01106 0.06138 0.13028
 H72 H -0.00004 -0.02577 0.17090
 H73 H 0.00786 0.08136 0.26210
 H74 H 0.00132 0.16908 0.21986
 C75 C 0.34537 0.06889 0.56299
 C76 C 0.29692 0.07340 0.58549
 C77 C 0.28830 0.03223 0.61497
 C78 C 0.32869 -0.01409 0.62175
 C79 C 0.37652 -0.01953 0.59865
 C80 C 0.38523 0.02200 0.56907
 N81 N 0.23671 0.03709 0.63640
 N82 N 0.23211 0.01235 0.66829
 C83 C 0.17851 0.01645 0.68803
 C84 C 0.17982 0.00845 0.72580
 C85 C 0.12798 0.01351 0.74543
 C86 C 0.07305 0.02620 0.72775
 C87 C 0.07231 0.03088 0.68940
 C88 C 0.12438 0.02735 0.66996
 H89 H 0.35071 0.10120 0.54020
 H90 H 0.26583 0.10903 0.57990
 H91 H 0.32241 -0.04671 0.64425
 H92 H 0.40664 -0.05608 0.60387
 H93 H 0.22120 -0.00087 0.74010
 H94 H 0.13060 0.00776 0.77473
 H95 H 0.03198 0.03619 0.67371
 H96 H 0.12212 0.03178 0.64065
 C97 C -0.35369 -0.02980 0.59864
 C98 C -0.30883 -0.02808 0.62464
 C99 C -0.27401 0.02203 0.62643
 C100 C -0.28546 0.07157 0.60232
 C101 C -0.33100 0.07014 0.57633
 C102 C -0.36501 0.01903 0.57396
 N103 N -0.22633 0.01983 0.65223
 N104 N -0.18908 0.06101 0.65488
 C105 C -0.14112 0.05439 0.68062
 C106 C -0.09774 0.09782 0.68112
 C107 C -0.04837 0.08982 0.70416
 C108 C -0.04030 0.03731 0.72672
 C109 C -0.08676 -0.00419 0.72763
 C110 C -0.13584 0.00392 0.70466
 H111 H -0.37930 -0.06969 0.59776
 H112 H -0.30038 -0.06645 0.64311
 H113 H -0.25897 0.11084 0.60330
 H114 H -0.33873 0.10839 0.55765
 H115 H -0.10156 0.13743 0.66312
 H116 H -0.01509 0.12393 0.70356
 H117 H -0.08630 -0.04338 0.74594
 H118 H -0.16955 -0.02976 0.70557
 C119 C -0.07939 -0.33589 0.92086
 C120 C -0.07901 -0.28340 0.89863
 C121 C -0.02709 -0.26357 0.88160
 C122 C 0.02481 -0.29669 0.88705
 C123 C 0.02514 -0.34806 0.91024
 C124 C -0.02692 -0.36829 0.92769
 N125 N -0.02708 -0.20842 0.86036
 N126 N 0.00796 -0.19812 0.83402
 C127 C 0.01018 -0.14174 0.81433
 C128 C 0.01852 -0.13790 0.77697
 C129 C 0.01980 -0.08325 0.75723
 C130 C 0.01456 -0.03051 0.77448
 C131 C 0.00975 -0.03537 0.81268
 C132 C 0.00605 -0.09027 0.83213
 H133 H -0.12031 -0.34971 0.93380
 H134 H -0.11928 -0.25805 0.89468
 H135 H 0.06553 -0.28176 0.87433
 H136 H 0.06639 -0.37171 0.91458
 H137 H 0.02258 -0.17741 0.76299
 H138 H 0.02437 -0.08198 0.72810
 H139 H 0.00908 0.00245 0.82817
 H140 H 0.00147 -0.09265 0.86128
 C141 C -0.07819 0.35384 0.91786
 C142 C -0.07855 0.30912 0.89436
 C143 C -0.02613 0.29167 0.87888
 C144 C 0.02707 0.31993 0.88697
 C145 C 0.02761 0.36441 0.91075
 C146 C -0.02502 0.38165 0.92660
 N147 N -0.02796 0.24423 0.85594
 N148 N 0.01697 0.22907 0.83867
 C149 C 0.01556 0.18057 0.81655
 C150 C 0.06438 0.17045 0.79534
 C151 C 0.06531 0.12287 0.77403
 C152 C 0.01779 0.08247 0.77429
 C153 C -0.03223 0.09476 0.79490
 C154 C -0.03321 0.14275 0.81592
 H155 H -0.11947 0.36587 0.92970
 H156 H -0.11978 0.28762 0.88840
 H157 H 0.06825 0.30707 0.87539
 H158 H 0.06925 0.38495 0.91693
 H159 H 0.10183 0.19999 0.79508
 H160 H 0.10344 0.11914 0.75725
 H161 H -0.07052 0.06630 0.79510
 H162 H -0.07186 0.14992 0.83187
 C163 C -0.34903 0.04457 0.40498
 C164 C -0.30463 0.04174 0.37947
 C165 C -0.27650 -0.01128 0.37480
 C166 C -0.29414 -0.06238 0.39551
 C167 C -0.33943 -0.05994 0.42081
 C168 C -0.36709 -0.00617 0.42617
 N169 N -0.22978 -0.01114 0.34915
 N170 N -0.19572 -0.05464 0.34622
 C171 C -0.14900 -0.05117 0.32035
 C172 C -0.10525 -0.09432 0.32228
 C173 C -0.05698 -0.08919 0.29902
 C174 C -0.05070 -0.04014 0.27343
 C175 C -0.09774 0.00069 0.27010
 C176 C -0.14549 -0.00426 0.29358
 H177 H -0.36915 0.08680 0.40797
 H178 H -0.29140 0.08135 0.36358
 H179 H -0.27301 -0.10397 0.39217
 H180 H -0.35202 -0.09996 0.43649
 H181 H -0.10780 -0.13130 0.34242
 H182 H -0.02323 -0.12284 0.30166
 H183 H -0.09885 0.03679 0.24947
 H184 H -0.17977 0.02881 0.29075
 C185 C 0.34334 -0.05836 0.43417
 C186 C 0.29365 -0.06344 0.41199
 C187 C 0.28351 -0.02301 0.38220
 C188 C 0.32365 0.02321 0.37477
 C189 C 0.37277 0.02930 0.39760
 C190 C 0.38300 -0.01156 0.42749
 N191 N 0.23072 -0.02858 0.36113
 N192 N 0.22454 -0.00568 0.32882
 C193 C 0.16977 -0.01110 0.30958
 C194 C 0.16917 -0.00864 0.27180
 C195 C 0.11633 -0.01679 0.25285
 C196 C 0.06233 -0.02706 0.27122
 C197 C 0.06342 -0.02534 0.30933
 C198 C 0.11647 -0.01883 0.32818
 H199 H 0.34981 -0.09013 0.45723
 H200 H 0.26277 -0.09899 0.41807
 H201 H 0.31618 0.05528 0.35202
 H202 H 0.40268 0.06580 0.39195
 H203 H 0.20990 -0.00181 0.25704
 H204 H 0.11756 -0.01588 0.22359
 H205 H 0.02387 -0.02835 0.32524
 H206 H 0.11573 -0.01888 0.35741
   
