data_POSCAR
  _audit_creation_date              2014-09-24
  _audit_creation_method            'ToBaCCo'
  _symmetry_space_group_name_H-M    'P1'
  _symmetry_Int_Tables_number       1
  _symmetry_cell_setting            triclinic
  loop_
  _symmetry_equiv_pos_as_xyz
 x,y,z
_cell_length_a 24.6478
_cell_length_b 27.5968
_cell_length_c 25.4712
_cell_angle_alpha 90.416200
_cell_angle_beta 89.389100
_cell_angle_gamma 88.676300
loop_
  _atom_site_label
  _atom_site_type_symbol
  _atom_site_fract_x
  _atom_site_fract_y
  _atom_site_fract_z
C1 C 1.23472 0.20148 0.20668
 C2 C 1.26993 0.24180 0.18524
 C3 C 1.28885 0.27223 0.22292
 C4 C 1.26977 0.25978 0.27934
 C5 C 1.26957 0.17641 0.24822
 C6 C 1.28743 0.20627 0.28658
 C7 C 1.18955 0.22764 0.23839
 C8 C 1.20743 0.25851 0.27609
 H9 H 1.28084 0.24443 0.14410
 H10 H 1.28483 0.28440 0.31035
 H11 H 1.27531 0.13741 0.24994
 H12 H 1.14686 0.22204 0.23168
 C13 C 0.70534 -0.27315 0.21366
 C14 C 0.75141 -0.24645 0.18644
 C15 C 0.78958 -0.23010 0.22022
 C16 C 0.77951 -0.24461 0.27772
 C17 C 0.73276 -0.31453 0.24409
 C18 C 0.77146 -0.29965 0.27790
 C19 C 0.68430 -0.23791 0.25647
 C20 C 0.72307 -0.22310 0.28990
 H21 H 0.74859 -0.23431 0.14621
 H22 H 0.81146 -0.23269 0.30509
 H23 H 0.71677 -0.35076 0.24521
 H24 H 0.64245 -0.22551 0.25977
 C25 C 0.69946 0.23731 -0.30059
 C26 C 0.74440 0.26499 -0.32169
 C27 C 0.78477 0.27635 -0.28370
 C28 C 0.77217 0.25753 -0.23107
 C29 C 0.72518 0.19487 -0.27721
 C30 C 0.76453 0.20531 -0.23828
 C31 C 0.67786 0.26614 -0.25689
 C32 C 0.71787 0.27813 -0.21860
 H33 H 0.74711 0.27635 -0.36218
 H34 H 0.80328 0.26602 -0.20133
 H35 H 0.71662 0.15809 -0.28927
 H36 H 0.63624 0.27958 -0.25513
 C37 C 1.21844 -0.27726 -0.29517
 C38 C 1.26525 -0.24725 -0.31645
 C39 C 1.29668 -0.22769 -0.27886
 C40 C 1.27872 -0.23997 -0.22277
 C41 C 1.24613 -0.31516 -0.25959
 C42 C 1.27707 -0.29537 -0.22138
 C43 C 1.18723 -0.24256 -0.25737
 C44 C 1.21900 -0.22324 -0.21934
 H45 H 1.27306 -0.24215 -0.35791
 H46 H 1.30463 -0.22412 -0.19192
 H47 H 1.23780 -0.35350 -0.26121
 H48 H 1.14382 -0.23594 -0.25910
 C49 C 0.20989 0.22385 0.78020
 C50 C 0.24689 0.24683 0.81677
 C51 C 0.29034 0.27093 0.79040
 C52 C 0.28721 0.26880 0.73319
 C53 C 0.18975 0.26500 0.74473
 C54 C 0.23047 0.28820 0.71962
 C55 C 0.24566 0.19136 0.74411
 C56 C 0.28548 0.21522 0.71887
 H57 H 0.24379 0.24390 0.85904
 H58 H 0.31974 0.28830 0.71215
 H59 H 0.14718 0.27256 0.73752
 H60 H 0.23783 0.15340 0.73718
 C61 C 0.70127 0.72456 0.77581
 C62 C 0.73962 0.74974 0.80982
 C63 C 0.78263 0.77226 0.78075
 C64 C 0.77861 0.76485 0.72403
 C65 C 0.68245 0.76168 0.73899
 C66 C 0.72509 0.78376 0.71035
 C67 C 0.73437 0.69029 0.74404
 C68 C 0.77755 0.71267 0.71581
 H69 H 0.73479 0.75309 0.85202
 H70 H 0.81118 0.78224 0.70094
 H71 H 0.64049 0.77349 0.73520
 H72 H 0.72855 0.65148 0.74373
 C73 C 0.69078 0.23329 0.29000
 C74 C 0.73431 0.25091 0.32775
 C75 C 0.77734 0.27042 0.30256
 C76 C 0.77247 0.27174 0.24258
 C77 C 0.67537 0.27787 0.25761
 C78 C 0.71812 0.29782 0.23243
 C79 C 0.72075 0.19864 0.25128
 C80 C 0.76316 0.21924 0.22618
 H81 H 0.73204 0.24710 0.37000
 H82 H 0.80759 0.28828 0.22235
 H83 H 0.63391 0.29080 0.25312
 H84 H 0.70584 0.16338 0.24035
 C85 C 0.19828 0.73001 0.28133
 C86 C 0.24054 0.75345 0.31699
 C87 C 0.28045 0.77621 0.28984
 C88 C 0.27390 0.77417 0.22970
 C89 C 0.17728 0.77138 0.24674
 C90 C 0.21652 0.79460 0.21999
 C91 C 0.23122 0.69675 0.24359
 C92 C 0.27060 0.71978 0.21612
 H93 H 0.24032 0.75019 0.35933
 H94 H 0.30581 0.79341 0.20752
 H95 H 0.13501 0.78286 0.24510
 H96 H 0.22282 0.65871 0.23828
 N97 N 0.93087 0.09307 0.04547
 N98 N 0.89542 0.12903 0.05143
 N99 N 1.04415 0.06093 0.08820
 N100 N 1.08584 0.06710 0.11939
 N101 N 1.04458 0.09232 0.04978
 N102 N 1.08619 0.12142 0.05407
 N103 N 0.92963 0.06377 0.08597
 N104 N 0.89313 0.07965 0.12105
 C105 C 0.87165 0.11987 0.09804
 C106 C 1.11112 0.10511 0.09775
 N107 N 1.04506 -0.07952 0.06434
 N108 N 1.08493 -0.11052 0.07505
 N109 N 0.93092 -0.04180 0.09613
 N110 N 0.90325 -0.05359 0.13867
 N111 N 0.93124 -0.07782 0.06180
 N112 N 0.90325 -0.11441 0.08017
 N113 N 1.04502 -0.04247 0.09702
 N114 N 1.08555 -0.04671 0.13038
 Mn115 Mn 0.98727 0.01023 0.09235
 C116 C 1.10997 -0.08922 0.11584
 C117 C 0.88509 -0.09826 0.12746
 N118 N 1.05018 0.08283 -0.06164
 N119 N 1.08085 0.11860 -0.07712
 N120 N 0.93778 0.04800 -0.09972
 N121 N 0.90395 0.05467 -0.13877
 N122 N 0.93636 0.08551 -0.06767
 N123 N 0.90187 0.11939 -0.08477
 N124 N 1.05133 0.04727 -0.09635
 N125 N 1.08173 0.05904 -0.13709
 Mn126 Mn 0.99033 0.08871 -0.00839
 C127 C 1.10139 0.10272 -0.12344
 C128 C 0.88180 0.09902 -0.12892
 N129 N 0.93560 -0.08706 -0.05219
 N130 N 0.90623 -0.12467 -0.06610
 N131 N 1.05132 -0.05845 -0.08781
 N132 N 1.08786 -0.07361 -0.12307
 N133 N 1.04972 -0.08843 -0.04797
 N134 N 1.08601 -0.12394 -0.05415
 N135 N 0.93771 -0.05562 -0.09071
 N136 N 0.90976 -0.07082 -0.13106
 Mn137 Mn 0.99020 -0.08346 0.00653
 Mn138 Mn 0.99471 -0.00472 -0.09385
 Cl139 Cl 0.99031 0.00258 -0.00088
 C140 C 0.88901 -0.11302 -0.11487
 C141 C 1.10943 -0.11402 -0.10085
 N142 N 1.09836 0.55141 0.54225
 N143 N 1.12937 0.58953 0.54571
 N144 N 1.07776 0.44754 0.58197
 N145 N 1.09720 0.41725 0.61720
 N146 N 1.11116 0.45028 0.54153
 N147 N 1.15461 0.42233 0.54841
 N148 N 1.06595 0.54880 0.58344
 N149 N 1.07503 0.58462 0.61683
 C150 C 1.11435 0.60969 0.59225
 C151 C 1.14460 0.40161 0.59527
 N152 N 0.92092 0.43372 0.56503
 N153 N 0.88708 0.40094 0.58281
 N154 N 0.94956 0.53935 0.59732
 N155 N 0.94164 0.57498 0.63152
 N156 N 0.90708 0.53492 0.56699
 N157 N 0.86868 0.56710 0.58022
 N158 N 0.96223 0.43793 0.59698
 N159 N 0.95747 0.40818 0.63714
 Mn160 Mn 1.01394 0.49351 0.59037
 C161 C 0.91107 0.38476 0.62721
 C162 C 0.89085 0.59124 0.62084
 N163 N 1.09832 0.44890 0.42847
 N164 N 1.13293 0.41252 0.41761
 N165 N 1.04361 0.54923 0.40052
 N166 N 1.04305 0.58545 0.36705
 N167 N 1.08655 0.55074 0.43043
 N168 N 1.11702 0.58779 0.41786
 N169 N 1.05627 0.44746 0.39734
 N170 N 1.06045 0.41004 0.36510
 Mn171 Mn 1.09919 0.50020 0.48567
 C172 C 1.10858 0.38910 0.37744
 C173 C 1.08894 0.60901 0.37855
 N174 N 0.89443 0.53559 0.45388
 N175 N 0.85221 0.56546 0.44829
 N176 N 0.94239 0.43835 0.41145
 N177 N 0.93824 0.40220 0.37801
 N178 N 0.90839 0.43392 0.45111
 N179 N 0.87898 0.39470 0.44501
 N180 N 0.92830 0.53949 0.41398
 N181 N 0.91011 0.57186 0.38012
 Mn182 Mn 0.90706 0.48434 0.50925
 Mn183 Mn 0.99258 0.49386 0.40550
 Cl184 Cl 1.00309 0.49294 0.49783
 C185 C 0.86304 0.58803 0.40241
 C186 C 0.89890 0.37542 0.39936
 N187 N 0.58743 0.06886 0.55189
 N188 N 0.60958 0.11178 0.55254
 N189 N 0.57938 -0.03689 0.59597
 N190 N 0.59683 -0.07071 0.62854
 N191 N 0.61495 -0.03024 0.55819
 N192 N 0.65790 -0.05897 0.56390
 N193 N 0.55455 0.06361 0.59213
 N194 N 0.55416 0.10295 0.62226
 C195 C 0.58824 0.13264 0.59633
 C196 C 0.64582 -0.08385 0.60774
 N197 N 0.42619 -0.06545 0.56942
 N198 N 0.39565 -0.10096 0.58636
 N199 N 0.44167 0.04239 0.59855
 N200 N 0.43227 0.08259 0.62543
 N201 N 0.40264 0.03462 0.56491
 N202 N 0.36498 0.06941 0.56854
 N203 N 0.46508 -0.05690 0.60317
 N204 N 0.46192 -0.08623 0.64369
 Mn205 Mn 0.51017 0.00284 0.59808
 C206 C 0.41922 -0.11392 0.63214
 C207 C 0.38434 0.09840 0.60670
 N208 N 0.61009 -0.03721 0.44717
 N209 N 0.65298 -0.06605 0.44152
 N210 N 0.54538 0.05178 0.40675
 N211 N 0.54167 0.08621 0.37134
 N212 N 0.58351 0.06109 0.44061
 N213 N 0.60761 0.10180 0.42900
 N214 N 0.57249 -0.04764 0.41303
 N215 N 0.58894 -0.08425 0.38271
 Mn216 Mn 0.59938 0.01581 0.49947
 C217 C 0.63906 -0.09504 0.40146
 C218 C 0.58050 0.11698 0.38616
 N219 N 0.39772 0.02929 0.45175
 N220 N 0.36118 0.06509 0.44909
 N221 N 0.45818 -0.06827 0.41832
 N222 N 0.45236 -0.10073 0.38085
 N223 N 0.41980 -0.07185 0.45431
 N224 N 0.38604 -0.10675 0.44115
 N225 N 0.43257 0.03150 0.41244
 N226 N 0.42022 0.06824 0.38154
 Mn227 Mn 0.41077 -0.01858 0.51022
 Mn228 Mn 0.50219 -0.00845 0.41214
 Cl229 Cl 0.50542 -0.00248 0.50499
 C230 C 0.37560 0.08852 0.40471
 C231 C 0.40805 -0.12497 0.39575
 N232 N 0.58575 0.56629 0.05111
 N233 N 0.61484 0.60534 0.05791
 N234 N 0.57135 0.46285 0.09470
 N235 N 0.58973 0.43385 0.13179
 N236 N 0.60789 0.46718 0.05720
 N237 N 0.65223 0.44161 0.06764
 N238 N 0.54856 0.56298 0.08816
 N239 N 0.55026 0.60030 0.12053
 C240 C 0.59129 0.62631 0.10073
 C241 C 0.63992 0.42087 0.11389
 N242 N 0.41769 0.43674 0.06650
 N243 N 0.38419 0.40382 0.08477
 N244 N 0.43480 0.54533 0.09435
 N245 N 0.42310 0.58353 0.12410
 N246 N 0.39610 0.53767 0.06041
 N247 N 0.35655 0.57071 0.06644
 N248 N 0.45591 0.44523 0.10091
 N249 N 0.44917 0.41864 0.14326
 Mn250 Mn 0.50275 0.50399 0.09488
 C251 C 0.40518 0.39231 0.13218
 C252 C 0.37399 0.59845 0.10686
 N253 N 0.60607 0.45949 -0.05476
 N254 N 0.64836 0.42984 -0.06141
 N255 N 0.54562 0.55185 -0.09580
 N256 N 0.54752 0.58386 -0.13397
 N257 N 0.58434 0.55933 -0.06184
 N258 N 0.61436 0.59613 -0.07638
 N259 N 0.56862 0.45103 -0.08970
 N260 N 0.58447 0.41504 -0.12136
 Mn261 Mn 0.59635 0.51319 -0.00209
 C262 C 0.63414 0.40225 -0.10281
 C263 C 0.59032 0.61121 -0.12106
 N264 N 0.39443 0.53038 -0.05300
 N265 N 0.35415 0.56203 -0.05945
 N266 N 0.45409 0.43360 -0.08456
 N267 N 0.45138 0.39882 -0.11974
 N268 N 0.41563 0.42969 -0.04868
 N269 N 0.38470 0.39216 -0.05976
 N270 N 0.43035 0.53340 -0.09134
 N271 N 0.41487 0.56664 -0.12558
 Mn272 Mn 0.40528 0.48338 0.00628
 Mn273 Mn 0.49957 0.49248 -0.09083
 Cl274 Cl 0.50080 0.49810 0.00206
 C275 C 0.36722 0.58379 -0.10508
 C276 C 0.40875 0.37291 -0.10374
 N277 N 1.20348 0.09729 0.12823
 N278 N 1.23782 0.12218 0.15681
 C279 C 1.21491 0.16648 0.16558
 C280 C 1.16533 0.16798 0.14051
 N281 N 1.15996 0.12425 0.11788
 H282 H 1.13408 0.19615 0.14269
 N283 N 1.16001 0.68560 0.58251
 N284 N 1.18772 0.71647 0.61100
 C285 C 1.18452 0.70188 0.66140
 C286 C 1.15283 0.66104 0.66287
 N287 N 1.13874 0.65216 0.61281
 H288 H 1.14474 0.63792 0.69606
 N289 N 0.62708 0.21119 0.58469
 N290 N 0.65876 0.24031 0.61139
 C291 C 0.65910 0.22468 0.66151
 C292 C 0.62450 0.18573 0.66464
 N293 N 0.60640 0.17801 0.61583
 H294 H 0.61977 0.16107 0.69718
 N295 N 0.57974 0.69999 0.15115
 N296 N 0.60886 0.72744 0.18223
 C297 C 0.66086 0.71125 0.17789
 C298 C 0.66288 0.67350 0.14216
 N299 N 0.61148 0.66771 0.12667
 H300 H 0.69704 0.64952 0.13273
 N301 N 0.86424 -0.12110 0.21723
 N302 N 0.84135 -0.15679 0.24321
 C303 C 0.82404 -0.18878 0.20711
 C304 C 0.83698 -0.17136 0.15787
 N305 N 0.86171 -0.12906 0.16606
 H306 H 0.82830 -0.18715 0.11994
 N307 N 0.90346 0.34427 0.71194
 N308 N 0.86984 0.31553 0.73741
 C309 C 0.82969 0.30481 0.70395
 C310 C 0.84006 0.32810 0.65690
 N311 N 0.88623 0.35226 0.66362
 H312 H 0.81590 0.32880 0.62169
 N313 N 0.41326 -0.15346 0.71712
 N314 N 0.38097 -0.18329 0.74259
 C315 C 0.34238 -0.19630 0.70848
 C316 C 0.35197 -0.17354 0.66131
 N317 N 0.39642 -0.14729 0.66838
 H318 H 0.32803 -0.17442 0.62595
 N319 N 0.39071 0.36233 0.22077
 N320 N 0.35977 0.33159 0.24650
 C321 C 0.32741 0.31097 0.21077
 C322 C 0.33952 0.33033 0.16203
 N323 N 0.37924 0.36209 0.17010
 H324 H 0.32165 0.32200 0.12450
 N325 N 0.81215 0.09299 -0.19346
 N326 N 0.78094 0.12023 -0.22353
 C327 C 0.79069 0.16695 -0.21176
 C328 C 0.82928 0.16736 -0.17213
 N329 N 0.84132 0.12020 -0.16217
 H330 H 0.84781 0.19825 -0.15377
 N331 N 0.77920 0.63615 0.39852
 N332 N 0.75356 0.66601 0.36613
 C333 C 0.78607 0.67084 0.32366
 C334 C 0.83260 0.64311 0.33090
 N335 N 0.82662 0.62204 0.37812
 H336 H 0.86684 0.63810 0.30428
 N337 N 0.31994 0.16292 0.41401
 N338 N 0.29784 0.19673 0.38353
 C339 C 0.31323 0.18583 0.33374
 C340 C 0.34543 0.14423 0.33478
 N341 N 0.34841 0.13106 0.38527
 H342 H 0.36205 0.12373 0.30170
 N343 N 0.31087 0.65661 -0.09635
 N344 N 0.28705 0.68983 -0.12606
 C345 C 0.29777 0.67712 -0.17636
 C346 C 0.32947 0.63516 -0.17676
 N347 N 0.33670 0.62375 -0.12596
 H348 H 0.34551 0.61501 -0.21032
 N349 N 1.19215 -0.16285 -0.09740
 N350 N 1.22210 -0.19219 -0.12780
 C351 C 1.19861 -0.19271 -0.17537
 C352 C 1.15340 -0.16204 -0.17345
 N353 N 1.15119 -0.14407 -0.12415
 H354 H 1.12432 -0.15463 -0.20409
 N355 N 1.09070 0.31108 0.33967
 N356 N 1.11530 0.27602 0.31231
 C357 C 1.16844 0.28638 0.30985
 C358 C 1.17578 0.32929 0.33758
 N359 N 1.12598 0.34337 0.35537
 H360 H 1.21233 0.35009 0.34058
 N361 N 0.72439 -0.14054 0.39742
 N362 N 0.74846 -0.17485 0.36832
 C363 C 0.71214 -0.18781 0.33193
 C364 C 0.66518 -0.16056 0.33940
 N365 N 0.67461 -0.13166 0.38044
 H366 H 0.62837 -0.16047 0.31661
 N367 N 0.71985 0.35708 -0.11049
 N368 N 0.74381 0.32370 -0.14103
 C369 C 0.70707 0.31065 -0.17707
 C370 C 0.65953 0.33723 -0.16742
 N371 N 0.66942 0.36578 -0.12582
 H372 H 0.62212 0.33728 -0.18927
 N373 N 1.10116 0.14208 -0.20743
 N374 N 1.12603 0.17734 -0.23199
 C375 C 1.16408 0.19438 -0.19925
 C376 C 1.16226 0.16752 -0.15369
 N377 N 1.12282 0.13528 -0.16083
 H378 H 1.18865 0.16929 -0.12008
 N379 N 1.07244 0.67916 0.32425
 N380 N 1.09988 0.71220 0.29850
 C381 C 1.15294 0.70448 0.30910
 C382 C 1.15711 0.66548 0.34270
 N383 N 1.10599 0.65089 0.35096
 H384 H 1.19364 0.64774 0.35697
 N385 N 0.56495 0.17764 0.31943
 N386 N 0.59314 0.21001 0.29335
 C387 C 0.64286 0.21060 0.31511
 C388 C 0.64453 0.17734 0.35489
 N389 N 0.59527 0.15791 0.35641
 H390 H 0.67940 0.16534 0.37726
 N391 N 0.57655 0.67411 -0.18533
 N392 N 0.60474 0.70529 -0.21301
 C393 C 0.65699 0.70153 -0.19748
 C394 C 0.65959 0.66638 -0.15872
 N395 N 0.60855 0.65046 -0.15254
 H396 H 0.69532 0.65186 -0.13948
 N397 N 0.88846 -0.14800 -0.20095
 N398 N 0.86092 -0.17830 -0.22993
 C399 C 0.82263 -0.19770 -0.19882
 C400 C 0.82837 -0.17850 -0.14851
 N401 N 0.86979 -0.14734 -0.15217
 H402 H 0.80306 -0.18389 -0.11416
 N403 N 0.90737 0.31085 0.33587
 N404 N 0.87583 0.28245 0.30826
 C405 C 0.82561 0.28755 0.32910
 C406 C 0.82718 0.31986 0.37071
 N407 N 0.87906 0.33362 0.37337
 H408 H 0.79322 0.33613 0.39224
 N409 N 0.40957 -0.17588 0.31862
 N410 N 0.37700 -0.20158 0.28906
 C411 C 0.32866 -0.20238 0.31403
 C412 C 0.33273 -0.17615 0.36068
 N413 N 0.38412 -0.16010 0.36169
 H414 H 0.30082 -0.16685 0.38874
 N415 N 0.41320 0.32375 -0.18103
 N416 N 0.38214 0.29761 -0.21136
 C417 C 0.33482 0.29206 -0.18548
 C418 C 0.33813 0.31560 -0.13707
 N419 N 0.38777 0.33558 -0.13665
 H420 H 0.30614 0.32196 -0.10822
 N421 N 1.19408 -0.08841 0.16593
 N422 N 1.22507 -0.11921 0.19279
 C423 C 1.20325 -0.16332 0.18713
 C424 C 1.15808 -0.15862 0.15599
 N425 N 1.15382 -0.11158 0.14361
 H426 H 1.12889 -0.18600 0.14655
 N427 N 1.23376 0.36389 0.60723
 N428 N 1.25846 0.33451 0.64074
 C429 C 1.22105 0.32296 0.67736
 C430 C 1.17277 0.34596 0.66542
 N431 N 1.18243 0.37089 0.62152
 H432 H 1.13427 0.34457 0.68616
 N433 N 0.73372 -0.12388 0.61773
 N434 N 0.75649 -0.15933 0.64513
 C435 C 0.71691 -0.17824 0.67516
 C436 C 0.66903 -0.15300 0.66549
 N437 N 0.68148 -0.11950 0.62968
 H438 H 0.62930 -0.15782 0.68292
 N439 N 0.72824 0.38242 0.12827
 N440 N 0.75083 0.35004 0.15991
 C441 C 0.71178 0.33686 0.19409
 C442 C 0.66464 0.36222 0.18265
 N443 N 0.67664 0.38995 0.14142
 H444 H 0.62503 0.35973 0.20106
 N445 N 0.82401 0.19689 0.10161
 N446 N 0.79575 0.22474 0.13479
 C447 C 0.78898 0.19875 0.17877
 C448 C 0.81409 0.15378 0.17177
 N449 N 0.83560 0.15438 0.12296
 H450 H 0.81883 0.12492 0.20002
 N451 N 0.89223 0.67644 0.64232
 N452 N 0.86241 0.70993 0.66718
 C453 C 0.81754 0.68822 0.68555
 C454 C 0.82060 0.63986 0.67049
 N455 N 0.86776 0.63440 0.64360
 H456 H 0.79217 0.61150 0.67867
 N457 N 0.38349 0.18485 0.62013
 N458 N 0.35939 0.21697 0.65194
 C459 C 0.31982 0.19343 0.67742
 C460 C 0.31963 0.14625 0.65958
 N461 N 0.35943 0.14262 0.62354
 H462 H 0.29594 0.11650 0.67399
 N463 N 0.36802 0.68581 0.11659
 N464 N 0.34259 0.71895 0.14634
 C465 C 0.30555 0.69567 0.17553
 C466 C 0.30890 0.64684 0.16214
 N467 N 0.34786 0.64246 0.12483
 H468 H 0.28747 0.61715 0.17972
   
