data_POSCAR
  _audit_creation_date              2014-09-24
  _audit_creation_method            'ToBaCCo'
  _symmetry_space_group_name_H-M    'P1'
  _symmetry_Int_Tables_number       1
  _symmetry_cell_setting            triclinic
  loop_
  _symmetry_equiv_pos_as_xyz
 x,y,z
_cell_length_a 8.0796
_cell_length_b 8.0751
_cell_length_c 21.0452
_cell_angle_alpha 90.339800
_cell_angle_beta 90.113200
_cell_angle_gamma 120.252600
loop_
  _atom_site_label
  _atom_site_type_symbol
  _atom_site_fract_x
  _atom_site_fract_y
  _atom_site_fract_z
C1 C -0.06798 0.11319 0.54378
 C2 C -0.23776 -0.03722 0.50313
 C3 C -0.18984 -0.14864 0.46586
 C4 C 0.02133 -0.09633 0.47300
 C5 C 0.00017 -0.00056 0.58078
 C6 C 0.04048 -0.11490 0.54542
 C7 C 0.08647 0.22601 0.49622
 C8 C 0.13621 0.12292 0.45873
 H9 H -0.37767 -0.04989 0.50236
 H10 H 0.06308 -0.18336 0.44329
 H11 H -0.01378 -0.01344 0.63215
 H12 H 0.14606 0.37942 0.49065
 C13 C 0.88685 -0.18219 0.21205
 C14 C 1.03544 -0.20094 0.17101
 C15 C 1.14647 -0.03980 0.13458
 C16 C 1.09455 0.11942 0.14309
 C17 C 0.99601 -0.00907 0.24805
 C18 C 1.11228 0.15550 0.21178
 C19 C 0.77294 -0.14127 0.16432
 C20 C 0.87513 0.01371 0.12780
 H21 H 1.04741 -0.32853 0.16944
 H22 H 1.18089 0.24946 0.11403
 H23 H 1.01364 -0.01037 0.29927
 H24 H 0.61959 -0.23646 0.15815
 C25 C 0.18522 1.07273 0.87850
 C26 C 0.20574 1.24009 0.83730
 C27 C 0.04562 1.18988 0.79991
 C28 C -0.11497 0.97899 0.80747
 C29 C 0.00334 1.00725 0.91539
 C30 C -0.15194 0.96462 0.87991
 C31 C 0.14153 0.91519 0.83133
 C32 C -0.01198 0.86288 0.79377
 H33 H 0.33371 1.38029 0.83655
 H34 H -0.24434 0.93547 0.77770
 H35 H 0.00498 1.02402 0.96673
 H36 H 0.23509 0.85564 0.82597
 O37 O 0.73629 0.13826 -0.06123
 O38 O 0.42116 0.13765 0.06688
 O39 O 0.79553 0.20397 0.06026
 O40 O 0.47785 0.23725 -0.05852
 O41 O 0.29887 -0.07776 -0.05430
 O42 O 0.62411 -0.11088 0.05329
 O43 O 0.27153 -0.17879 0.06465
 O44 O 0.55465 -0.17765 -0.06792
 Cu45 Cu 0.62055 0.20980 0.00428
 Cu46 Cu 0.42183 -0.16322 -0.00139
 C47 C 0.69787 -0.02343 -0.08571
 C48 C 0.28868 -0.02573 0.08718
 C49 C 0.76628 0.04080 0.07639
 C50 C 0.33282 0.08291 -0.07650
 O51 O 0.11431 0.73840 0.71964
 O52 O 0.08358 0.38015 0.61135
 O53 O 0.18281 0.73653 0.59870
 O54 O 0.18499 0.45540 0.73092
 O55 O -0.13126 0.28636 0.73170
 O56 O -0.13308 0.59902 0.60361
 O57 O -0.23141 0.24126 0.60598
 O58 O -0.20044 0.59238 0.72471
 Cu59 Cu 0.16825 0.58942 0.66500
 Cu60 Cu -0.20446 0.41180 0.66884
 C61 C -0.03776 0.72755 0.74189
 C62 C -0.07718 0.25170 0.58860
 C63 C 0.02858 0.72357 0.57998
 C64 C 0.03204 0.31840 0.75268
 O65 O 0.61925 0.70016 0.27814
 O66 O 0.25788 0.37025 0.38379
 O67 O 0.54266 0.72343 0.39673
 O68 O 0.26310 0.44272 0.26203
 O69 O 0.39069 0.25705 0.26907
 O70 O 0.71058 0.57609 0.39720
 O71 O 0.40363 0.20238 0.39013
 O72 O 0.75287 0.52059 0.27162
 Cu73 Cu 0.40858 0.57349 0.32982
 Cu74 Cu 0.58230 0.37592 0.33392
 C75 C 0.74632 0.66738 0.25551
 C76 C 0.26932 0.23028 0.40673
 C77 C 0.67969 0.70773 0.41851
 C78 C 0.27002 0.29735 0.24407
   
