data_POSCAR
  _audit_creation_date              2014-09-24
  _audit_creation_method            'ToBaCCo'
  _symmetry_space_group_name_H-M    'P1'
  _symmetry_Int_Tables_number       1
  _symmetry_cell_setting            triclinic
  loop_
  _symmetry_equiv_pos_as_xyz
 x,y,z
_cell_length_a 42.7766
_cell_length_b 41.9175
_cell_length_c 42.2889
_cell_angle_alpha 89.783600
_cell_angle_beta 90.083300
_cell_angle_gamma 90.920500
loop_
  _atom_site_label
  _atom_site_type_symbol
  _atom_site_fract_x
  _atom_site_fract_y
  _atom_site_fract_z
N1 N 0.18808 1.25484 0.16505
 N2 N 0.17018 1.25590 0.19019
 C3 C 0.14866 1.27862 0.18612
 C4 C 0.15327 1.29279 0.15665
 C5 C 0.17885 1.27709 0.14420
 H6 H 0.13044 1.28352 0.20301
 H7 H 0.18901 1.28014 0.12100
 Cu8 Cu 0.17467 1.22540 0.22449
 Cu9 Cu 0.21897 1.22173 0.15948
 Cu10 Cu 0.23193 1.17176 0.22355
 N11 N 0.17327 1.18784 0.25146
 N12 N 0.19540 1.16650 0.25081
 C13 C 0.18817 1.14284 0.27128
 C14 C 0.15979 1.14968 0.28565
 C15 C 0.15123 1.17863 0.27234
 H16 H 0.20262 1.12227 0.27515
 H17 H 0.13031 1.19195 0.27686
 N18 N 0.25875 1.17253 0.18560
 N19 N 0.25375 1.19147 0.16119
 C20 C 0.27484 1.18530 0.13854
 C21 C 0.29398 1.16101 0.14893
 C22 C 0.28300 1.15358 0.17899
 H23 H 0.27554 1.19707 0.11579
 H24 H 0.29128 1.13508 0.19461
 H25 H 0.20145 1.18761 0.19114
 H26 H 0.22887 1.21882 0.20669
 N27 N 0.80534 0.74425 0.17262
 N28 N 0.82447 0.74365 0.19693
 C29 C 0.84657 0.72176 0.19178
 C30 C 0.84096 0.70777 0.16260
 C31 C 0.81449 0.72267 0.15123
 H32 H 0.86568 0.71703 0.20778
 H33 H 0.80353 0.71923 0.12842
 Cu34 Cu 0.81996 0.77307 0.23189
 Cu35 Cu 0.77192 0.77510 0.16897
 Cu36 Cu 0.77066 0.83445 0.22565
 N37 N 0.82284 0.80939 0.26014
 N38 N 0.80337 0.83317 0.25776
 C39 C 0.81155 0.85587 0.27870
 C40 C 0.83790 0.84602 0.29515
 C41 C 0.84419 0.81614 0.28265
 H42 H 0.79977 0.87836 0.28072
 H43 H 0.86343 0.80079 0.28848
 N44 N 0.73977 0.83137 0.19110
 N45 N 0.74021 0.80870 0.16956
 C46 C 0.71791 0.81442 0.14788
 C47 C 0.70269 0.84219 0.15596
 C48 C 0.71718 0.85211 0.18367
 H49 H 0.71400 0.80010 0.12703
 H50 H 0.71265 0.87363 0.19673
 H51 H 0.79711 0.80932 0.19376
 H52 H 0.76671 0.78621 0.21633
 N53 N 0.81267 1.25463 -0.17519
 N54 N 0.83705 1.25197 -0.19381
 C55 C 0.85921 1.27327 -0.18497
 C56 C 0.84817 1.29044 -0.15943
 C57 C 0.81836 1.27797 -0.15408
 H58 H 0.88208 1.27522 -0.19566
 H59 H 0.80229 1.28446 -0.13559
 Cu60 Cu 0.83804 1.21903 -0.22594
 Cu61 Cu 0.77613 1.22620 -0.17871
 Cu62 Cu 0.78872 1.15712 -0.22206
 N63 N 0.83816 1.18636 -0.25842
 N64 N 0.81852 1.16202 -0.25671
 C65 C 0.82527 1.14100 -0.27955
 C66 C 0.85089 1.15255 -0.29654
 C67 C 0.85817 1.18168 -0.28243
 H68 H 0.81328 1.11829 -0.28228
 H69 H 0.87741 1.19766 -0.28809
 N70 N 0.75329 1.16194 -0.19285
 N71 N 0.74821 1.18824 -0.17671
 C72 C 0.72338 1.18332 -0.15766
 C73 C 0.71218 1.15242 -0.16209
 C74 C 0.73172 1.13972 -0.18473
 H75 H 0.71484 1.20065 -0.14104
 H76 H 0.73118 1.11561 -0.19366
 H77 H 0.80531 1.18987 -0.18840
 H78 H 0.78262 1.20469 -0.22297
 N79 N 0.18398 0.74589 -0.16527
 N80 N 0.16282 0.74702 -0.18776
 C81 C 0.14060 0.72458 -0.18206
 C82 C 0.14820 0.70851 -0.15442
 C83 C 0.17603 0.72270 -0.14458
 H84 H 0.11985 0.72108 -0.19631
 H85 H 0.18875 0.71779 -0.12306
 Cu86 Cu 0.16446 0.78008 -0.22024
 Cu87 Cu 0.21833 0.77681 -0.16237
 Cu88 Cu 0.22170 0.83599 -0.21978
 N89 N 0.16675 0.81340 -0.25242
 N90 N 0.18911 0.83522 -0.25198
 C91 C 0.18384 0.85682 -0.27489
 C92 C 0.15641 0.84837 -0.29065
 C93 C 0.14642 0.82040 -0.27570
 H94 H 0.19839 0.87775 -0.27876
 H95 H 0.12524 0.80684 -0.28035
 N96 N 0.25253 0.83275 -0.18529
 N97 N 0.25126 0.81022 -0.16345
 C98 C 0.27396 0.81582 -0.14198
 C99 C 0.29032 0.84331 -0.15058
 C100 C 0.27607 0.85326 -0.17828
 H101 H 0.27757 0.80151 -0.12104
 H102 H 0.28141 0.87472 -0.19155
 H103 H 0.19545 0.81375 -0.18476
 H104 H 0.22013 0.78776 -0.20996
 C105 C 0.46755 0.98113 -0.01912
 C106 C 0.48459 1.00349 -0.00123
 C107 C 0.46889 1.02642 0.01651
 C108 C 0.43606 1.02715 0.01644
 C109 C 0.41926 1.00462 -0.00164
 C110 C 0.43475 0.98151 -0.01946
 C111 C 0.51893 1.00273 -0.00120
 C112 C 0.53603 1.02267 -0.02173
 C113 C 0.56873 1.02079 -0.02317
 C114 C 0.58410 0.99907 -0.00337
 C115 C 0.56723 0.97906 0.01741
 C116 C 0.53451 0.98102 0.01831
 H117 H 0.47989 0.96331 -0.03252
 H118 H 0.48226 1.04375 0.03012
 H119 H 0.52374 1.03893 -0.03719
 H120 H 0.52105 0.96537 0.03377
 H121 H 0.39395 1.00504 -0.00178
 H122 H 0.60940 0.99818 -0.00372
 C123 C -0.02436 0.46506 0.98613
 C124 C -0.00597 0.48224 1.00783
 C125 C 0.01250 0.46597 1.02980
 C126 C 0.01271 0.43249 1.03024
 C127 C -0.00602 0.41548 1.00859
 C128 C -0.02451 0.43155 0.98633
 C129 C -0.00570 0.51731 1.00732
 C130 C -0.02333 0.53411 1.02942
 C131 C -0.02322 0.56761 1.02915
 C132 C -0.00496 0.58405 1.00658
 C133 C 0.01290 0.56747 0.98434
 C134 C 0.01230 0.53395 0.98484
 H135 H -0.03818 0.47784 0.96888
 H136 H 0.02672 0.47940 1.04647
 H137 H -0.03698 0.52102 1.04687
 H138 H 0.02568 0.52073 0.96769
 H139 H -0.00591 0.38963 1.00884
 H140 H -0.00470 0.60989 1.00630
 C141 C 0.98145 -0.02070 0.46399
 C142 C 1.00405 -0.00206 0.47970
 C143 C 1.02596 0.01592 0.46228
 C144 C 1.02549 0.01535 0.42909
 C145 C 1.00283 -0.00351 0.41359
 C146 C 0.98067 -0.02153 0.43080
 C147 C 1.00464 -0.00099 0.51443
 C148 C 1.02598 -0.01954 0.53132
 C149 C 1.02744 -0.01781 0.56445
 C150 C 1.00741 0.00292 0.58039
 C151 C 0.98593 0.02159 0.56370
 C152 C 0.98451 0.01931 0.53062
 H153 H 0.96435 -0.03423 0.47762
 H154 H 1.04340 0.03022 0.47461
 H155 H 1.04163 -0.03499 0.51861
 H156 H 0.96833 0.03386 0.51737
 H157 H 1.00234 -0.00403 0.38799
 H158 H 1.00796 0.00392 0.60599
 C159 C 0.09528 0.35885 1.10916
 C160 C 0.12389 0.34992 1.09600
 C161 C 0.14325 0.32863 1.11187
 C162 C 0.13464 0.31584 1.14156
 C163 C 0.10640 0.32594 1.15520
 C164 C 0.08688 0.34694 1.13906
 C165 C 0.07367 0.37926 1.09098
 C166 C 0.04187 0.37076 1.08845
 C167 C 0.02190 0.38842 1.06922
 C168 C 0.03328 0.41514 1.05242
 C169 C 0.06485 0.42426 1.05574
 C170 C 0.08491 0.40638 1.07469
 H171 H 0.16485 0.32221 1.10048
 H172 H 0.09863 0.31709 1.17795
 H173 H -0.00240 0.38102 1.06721
 H174 H 0.07424 0.44462 1.04285
 H175 H 0.06506 0.35375 1.14989
 H176 H 0.03267 0.34981 1.10051
 H177 H 0.13089 0.35865 1.07289
 H178 H 0.10929 0.41354 1.07639
 C179 C -0.10131 0.64239 1.11134
 C180 C -0.13227 0.64779 1.10183
 C181 C -0.15116 0.66848 1.11884
 C182 C -0.13956 0.68429 1.14577
 C183 C -0.10883 0.67826 1.15575
 C184 C -0.08991 0.65759 1.13868
 C185 C -0.08071 0.62201 1.09201
 C186 C -0.04956 0.63140 1.08615
 C187 C -0.03071 0.61339 1.06630
 C188 C -0.04257 0.58556 1.05187
 C189 C -0.07345 0.57571 1.05838
 C190 C -0.09233 0.59376 1.07820
 H191 H -0.17478 0.67223 1.11061
 H192 H -0.09904 0.69000 1.17631
 H193 H -0.00687 0.62136 1.06205
 H194 H -0.08330 0.55450 1.04743
 H195 H -0.06627 0.65362 1.14681
 H196 H -0.03999 0.65319 1.09619
 H197 H -0.14166 0.63669 1.08070
 H198 H -0.11613 0.58572 1.08256
 C199 C -0.09922 0.35672 0.89858
 C200 C -0.13019 0.34833 0.90640
 C201 C -0.14754 0.32745 0.88722
 C202 C -0.13434 0.31451 0.85973
 C203 C -0.10370 0.32389 0.85142
 C204 C -0.08636 0.34466 0.87062
 C205 C -0.07991 0.37679 0.92017
 C206 C -0.04873 0.36880 0.92647
 C207 C -0.03075 0.38675 0.94770
 C208 C -0.04348 0.41319 0.96307
 C209 C -0.07449 0.42157 0.95642
 C210 C -0.09258 0.40346 0.93528
 H211 H -0.17104 0.32101 0.89447
 H212 H -0.09272 0.31493 0.83031
 H213 H -0.00680 0.37997 0.95208
 H214 H -0.08494 0.44173 0.96807
 H215 H -0.06274 0.35115 0.86367
 H216 H -0.03839 0.34821 0.91547
 H217 H -0.14067 0.35706 0.92792
 H218 H -0.11645 0.41034 0.93068
 C219 C 0.09107 0.64179 0.89886
 C220 C 0.07920 0.65670 0.87167
 C221 C 0.09793 0.67767 0.85391
 C222 C 0.12902 0.68430 0.86293
 C223 C 0.14117 0.66855 0.88957
 C224 C 0.12242 0.64758 0.90733
 C225 C 0.07050 0.62150 0.91918
 C226 C 0.08180 0.59360 0.93346
 C227 C 0.06291 0.57568 0.95409
 C228 C 0.03234 0.58531 0.96095
 C229 C 0.02082 0.61277 0.94610
 C230 C 0.03967 0.63066 0.92549
 H231 H 0.08766 0.68917 0.83355
 H232 H 0.16505 0.67268 0.89713
 H233 H 0.07251 0.55474 0.96534
 H234 H -0.00278 0.62057 0.95058
 H235 H 0.13222 0.63669 0.92828
 H236 H 0.10532 0.58572 0.92881
 H237 H 0.05528 0.65235 0.86425
 H238 H 0.03035 0.65219 0.91516
 C239 C 1.10773 0.09330 0.35128
 C240 C 1.13557 0.08190 0.33831
 C241 C 1.15308 0.10064 0.31715
 C242 C 1.14297 0.13121 0.30809
 C243 C 1.11524 0.14267 0.32170
 C244 C 1.09796 0.12401 0.34304
 C245 C 1.08825 0.07287 0.37243
 C246 C 1.07417 0.08566 0.39949
 C247 C 1.05441 0.06677 0.41837
 C248 C 1.04813 0.03479 0.41041
 C249 C 1.06267 0.02186 0.38369
 C250 C 1.08258 0.04067 0.36495
 H251 H 1.17416 0.09064 0.30757
 H252 H 1.10647 0.16603 0.31600
 H253 H 1.04332 0.07741 0.43868
 H254 H 1.05845 -0.00280 0.37717
 H255 H 1.07644 0.13333 0.35248
 H256 H 1.07831 0.11035 0.40594
 H257 H 1.14382 0.05840 0.34453
 H258 H 1.09282 0.03027 0.34407
 C259 C 1.10736 -0.09721 0.64100
 C260 C 1.13632 -0.08642 0.65276
 C261 C 1.15292 -0.10471 0.67456
 C262 C 1.14087 -0.13429 0.68547
 C263 C 1.11229 -0.14549 0.67264
 C264 C 1.09581 -0.12719 0.65073
 C265 C 1.08850 -0.07659 0.61996
 C266 C 1.07210 -0.08951 0.59404
 C267 C 1.05289 -0.07026 0.57547
 C268 C 1.04949 -0.03779 0.58264
 C269 C 1.06638 -0.02477 0.60815
 C270 C 1.08571 -0.04393 0.62656
 H271 H 1.17490 -0.09505 0.68314
 H272 H 1.10205 -0.16813 0.67976
 H273 H 1.03998 -0.08097 0.55607
 H274 H 1.06445 0.00025 0.61401
 H275 H 1.07343 -0.13606 0.64221
 H276 H 1.07401 -0.11454 0.58824
 H277 H 1.14606 -0.06363 0.64526
 H278 H 1.09778 -0.03335 0.64655
 C279 C 0.89322 -0.09962 0.35943
 C280 C 0.86538 -0.08739 0.34714
 C281 C 0.84674 -0.10557 0.32667
 C282 C 0.85555 -0.13653 0.31766
 C283 C 0.88300 -0.14909 0.33103
 C284 C 0.90155 -0.13086 0.35162
 C285 C 0.91428 -0.07927 0.37897
 C286 C 0.92913 -0.09159 0.40595
 C287 C 0.95012 -0.07261 0.42332
 C288 C 0.95687 -0.04109 0.41383
 C289 C 0.94158 -0.02865 0.38719
 C290 C 0.92050 -0.04750 0.36999
 H291 H 0.82571 -0.09482 0.31768
 H292 H 0.89079 -0.17276 0.32527
 H293 H 0.96172 -0.08284 0.44366
 H294 H 0.94609 -0.00432 0.37954
 H295 H 0.92301 -0.14085 0.36061
 H296 H 0.92457 -0.11592 0.41354
 H297 H 0.85810 -0.06356 0.35322
 H298 H 0.90967 -0.03746 0.34912
 C299 C 0.90460 0.10238 0.63620
 C300 C 0.87612 0.08953 0.64719
 C301 C 0.85790 0.10644 0.66859
 C302 C 0.86769 0.13674 0.67960
 C303 C 0.89553 0.15014 0.66713
 C304 C 0.91378 0.13310 0.64590
 C305 C 0.92551 0.08306 0.61622
 C306 C 0.95769 0.08227 0.62280
 C307 C 0.97729 0.06262 0.60545
 C308 C 0.96519 0.04346 0.58101
 C309 C 0.93315 0.04477 0.57389
 C310 C 0.91345 0.06427 0.59144
 H311 H 0.83653 0.09516 0.67687
 H312 H 0.90402 0.17344 0.67426
 H313 H 1.00196 0.06231 0.61123
 H314 H 0.92321 0.03009 0.55528
 H315 H 0.93538 0.14383 0.63734
 H316 H 0.96759 0.09620 0.64197
 H317 H 0.86849 0.06583 0.64020
 H318 H 0.88876 0.06457 0.58574
 C319 C 0.36261 1.11119 0.09389
 C320 C 0.35518 1.10101 0.12471
 C321 C 0.33354 1.11758 0.14288
 C322 C 0.31882 1.14478 0.13068
 C323 C 0.32725 1.15561 0.10027
 C324 C 0.34882 1.13899 0.08211
 C325 C 0.38311 1.09180 0.07346
 C326 C 0.37500 1.08633 0.04170
 C327 C 0.39271 1.06607 0.02299
 C328 C 0.41900 1.05084 0.03556
 C329 C 0.42779 1.05711 0.06699
 C330 C 0.40995 1.07731 0.08579
 H331 H 0.32786 1.10844 0.16613
 H332 H 0.31693 1.17665 0.09008
 H333 H 0.38558 1.06197 -0.00126
 H334 H 0.44782 1.04554 0.07736
 H335 H 0.35449 1.14773 0.05864
 H336 H 0.35429 1.09688 0.03158
 H337 H 0.36521 1.07950 0.13436
 H338 H 0.41695 1.08134 0.11008
 C339 C 0.64388 1.09954 -0.10745
 C340 C 0.65424 1.12986 -0.09750
 C341 C 0.67570 1.14753 -0.11567
 C342 C 0.68724 1.13524 -0.14419
 C343 C 0.67583 1.10548 -0.15471
 C344 C 0.65444 1.08785 -0.13655
 C345 C 0.62358 1.07937 -0.08681
 C346 C 0.62974 1.04674 -0.08317
 C347 C 0.61169 1.02777 -0.06282
 C348 C 0.58702 1.04095 -0.04561
 C349 C 0.58045 1.07347 -0.04960
 C350 C 0.59865 1.09254 -0.06991
 H351 H 0.68397 1.17029 -0.10674
 H352 H 0.68363 1.09548 -0.17682
 H353 H 0.61705 1.00270 -0.06053
 H354 H 0.56166 1.08429 -0.03650
 H355 H 0.64637 1.06484 -0.14516
 H356 H 0.64901 1.03596 -0.09555
 H357 H 0.64670 1.13940 -0.07506
 H358 H 0.59322 1.11756 -0.07243
 C359 C 0.35857 0.89612 -0.09576
 C360 C 0.35245 0.90463 -0.12730
 C361 C 0.33097 0.88699 -0.14536
 C362 C 0.31505 0.86044 -0.13230
 C363 C 0.32205 0.85133 -0.10106
 C364 C 0.34351 0.86897 -0.08303
 C365 C 0.37930 0.91643 -0.07574
 C366 C 0.37087 0.92317 -0.04439
 C367 C 0.38924 0.94372 -0.02597
 C368 C 0.41647 0.95807 -0.03846
 C369 C 0.42537 0.95075 -0.06954
 C370 C 0.40693 0.93020 -0.08803
 H371 H 0.32657 0.89459 -0.16940
 H372 H 0.31048 0.83103 -0.09010
 H373 H 0.38202 0.94858 -0.00196
 H374 H 0.44615 0.96159 -0.07984
 H375 H 0.34811 0.86152 -0.05894
 H376 H 0.34958 0.91323 -0.03433
 H377 H 0.36349 0.92557 -0.13774
 H378 H 0.41419 0.92520 -0.11200
 C379 C 0.63770 0.89519 0.09890
 C380 C 0.64611 0.90590 0.12921
 C381 C 0.66646 0.88829 0.14809
 C382 C 0.67893 0.85952 0.13709
 C383 C 0.66952 0.84827 0.10719
 C384 C 0.64920 0.86591 0.08833
 C385 C 0.61833 0.91524 0.07777
 C386 C 0.62614 0.91864 0.04565
 C387 C 0.60919 0.93888 0.02601
 C388 C 0.58401 0.95621 0.03799
 C389 C 0.57570 0.95229 0.06993
 C390 C 0.59275 0.93208 0.08964
 H391 H 0.67282 0.89772 0.17101
 H392 H 0.67823 0.82617 0.09786
 H393 H 0.61590 0.94112 0.00141
 H394 H 0.55652 0.96549 0.07986
 H395 H 0.64272 0.85676 0.06528
 H396 H 0.64593 0.90629 0.03585
 H397 H 0.63784 0.92850 0.13794
 H398 H 0.58601 0.92971 0.11422
   
