data_POSCAR
  _audit_creation_date              2014-09-24
  _audit_creation_method            'ToBaCCo'
  _symmetry_space_group_name_H-M    'P1'
  _symmetry_Int_Tables_number       1
  _symmetry_cell_setting            triclinic
  loop_
  _symmetry_equiv_pos_as_xyz
 x,y,z
_cell_length_a 33.1982
_cell_length_b 33.3603
_cell_length_c 18.8611
_cell_angle_alpha 89.948400
_cell_angle_beta 89.549100
_cell_angle_gamma 96.706700
loop_
  _atom_site_label
  _atom_site_type_symbol
  _atom_site_fract_x
  _atom_site_fract_y
  _atom_site_fract_z
C1 C -0.02897 0.26358 0.01865
 C2 C -0.03584 0.26124 -0.05616
 C3 C -0.00422 0.25214 -0.10095
 C4 C 0.03387 0.24622 -0.07502
 C5 C 0.04403 0.25539 -0.00314
 C6 C 0.01135 0.26213 0.04313
 H7 H 0.01705 0.26344 0.09958
 H8 H -0.00982 0.24811 -0.15721
 C9 C 0.46863 0.77484 0.54115
 C10 C 0.46672 0.77401 0.46639
 C11 C 0.50230 0.77182 0.42714
 C12 C 0.53927 0.77069 0.46160
 C13 C 0.54095 0.77148 0.53612
 C14 C 0.50558 0.77352 0.57534
 H15 H 0.50678 0.77402 0.63280
 H16 H 0.50121 0.77080 0.36972
 C17 C 1.03700 0.72751 0.03607
 C18 C 1.03644 0.73597 -0.03749
 C19 C 0.99977 0.73917 -0.07170
 C20 C 0.96323 0.73696 -0.03374
 C21 C 0.96372 0.72895 0.04001
 C22 C 1.00010 0.72331 0.07368
 H23 H 1.00008 0.71927 0.13077
 H24 H 0.99989 0.74420 -0.12857
 C25 C 0.54304 0.23898 0.49774
 C26 C 0.53170 0.22768 0.42711
 C27 C 0.49173 0.22791 0.40419
 C28 C 0.46125 0.23658 0.45117
 C29 C 0.47031 0.24358 0.52329
 C30 C 0.51095 0.24524 0.54567
 H31 H 0.51734 0.25095 0.60120
 H32 H 0.48422 0.22108 0.34932
 C33 C 0.72200 -0.04091 0.04418
 C34 C 0.71829 -0.04133 -0.03090
 C35 C 0.71261 -0.00566 -0.06692
 C36 C 0.71220 0.03073 -0.03015
 C37 C 0.71448 0.03106 0.04450
 C38 C 0.71825 -0.00484 0.08087
 H39 H 0.72035 -0.00420 0.13825
 H40 H 0.71228 -0.00547 -0.12441
 C41 C 0.22224 0.46259 0.54363
 C42 C 0.21894 0.46152 0.46898
 C43 C 0.21743 0.49744 0.43121
 C44 C 0.21870 0.53445 0.46654
 C45 C 0.22188 0.53565 0.54127
 C46 C 0.22394 0.49966 0.57900
 H47 H 0.22699 0.50054 0.63619
 H48 H 0.21574 0.49664 0.37383
 C49 C 0.27358 1.04171 0.04227
 C50 C 0.27851 1.04265 -0.03308
 C51 C 0.28047 1.00590 -0.06915
 C52 C 0.27897 0.96916 -0.03251
 C53 C 0.28061 0.96942 0.04237
 C54 C 0.27786 1.00556 0.07846
 H55 H 0.27774 1.00527 0.13600
 H56 H 0.28017 1.00550 -0.12667
 C57 C 0.77182 0.53750 0.54176
 C58 C 0.77197 0.53725 0.46707
 C59 C 0.77308 0.50084 0.43071
 C60 C 0.77484 0.46447 0.46753
 C61 C 0.77384 0.46470 0.54274
 C62 C 0.77232 0.50125 0.57889
 H63 H 0.77167 0.50150 0.63638
 H64 H 0.77262 0.50085 0.37324
 O65 O 0.21431 0.27842 0.35082
 O66 O 0.23142 0.18275 0.26555
 O67 O 0.27134 0.23060 0.35555
 O68 O 0.17433 0.23052 0.25837
 O69 O 0.20771 0.26672 0.17386
 O70 O 0.30397 0.26243 0.26561
 O71 O 0.26154 0.21601 0.17567
 O72 O 0.24965 0.31199 0.26537
 Cu73 Cu 0.21947 0.22727 0.31650
 Cu74 Cu 0.25894 0.26762 0.21133
 C75 C 0.22972 0.31140 0.32310
 C76 C 0.24854 0.18268 0.20532
 C77 C 0.30413 0.24657 0.32673
 C78 C 0.17489 0.24888 0.19917
 O79 O 0.76460 0.81522 0.25633
 O80 O 0.77522 0.71947 0.34641
 O81 O 0.81726 0.76383 0.25254
 O82 O 0.72114 0.77067 0.34510
 O83 O 0.68831 0.73837 0.25654
 O84 O 0.78471 0.72769 0.16789
 O85 O 0.74031 0.68596 0.26144
 O86 O 0.73463 0.78184 0.16697
 Cu87 Cu 0.77291 0.77045 0.30925
 Cu88 Cu 0.73357 0.73002 0.20447
 C89 C 0.74861 0.81509 0.19554
 C90 C 0.75959 0.68653 0.31935
 C91 C 0.81725 0.74458 0.19455
 C92 C 0.68838 0.75666 0.31536
 O93 O 0.73210 0.21626 0.15743
 O94 O 0.75624 0.31516 0.24326
 O95 O 0.79626 0.26962 0.15856
 O96 O 0.69391 0.26022 0.24255
 O97 O 0.71779 0.22720 0.33049
 O98 O 0.82140 0.24284 0.25315
 O99 O 0.77740 0.28472 0.33772
 O100 O 0.75961 0.18676 0.24685
 Cu101 Cu 0.74269 0.26858 0.19106
 Cu102 Cu 0.77185 0.23275 0.30126
 C103 C 0.74144 0.18467 0.18774
 C104 C 0.76917 0.31642 0.30641
 C105 C 0.82608 0.25756 0.19109
 C106 C 0.68815 0.24125 0.30107
 O107 O 0.25311 0.68774 0.25431
 O108 O 0.27644 0.78609 0.16555
 O109 O 0.31343 0.74479 0.25706
 O110 O 0.21652 0.72860 0.16236
 O111 O 0.18667 0.75812 0.25004
 O112 O 0.28355 0.77379 0.34536
 O113 O 0.24729 0.81527 0.25392
 O114 O 0.22331 0.71691 0.34208
 Cu115 Cu 0.26791 0.73388 0.20099
 Cu116 Cu 0.23212 0.76900 0.30659
 C117 C 0.23409 0.68547 0.31317
 C118 C 0.26615 0.81762 0.19490
 C119 C 0.31486 0.76179 0.31730
 C120 C 0.18521 0.74071 0.19015
 O121 O 0.74726 0.18475 0.75890
 O122 O 0.76458 0.28228 0.66654
 O123 O 0.80455 0.24402 0.75466
 O124 O 0.70574 0.22389 0.67075
 O125 O 0.67658 0.25544 0.75641
 O126 O 0.77630 0.27047 0.84692
 O127 O 0.73790 0.31179 0.75745
 O128 O 0.71573 0.21287 0.84611
 Cu129 Cu 0.75802 0.23061 0.70372
 Cu130 Cu 0.72352 0.26540 0.81087
 C131 C 0.72916 0.18229 0.81851
 C132 C 0.75523 0.31385 0.69700
 C133 C 0.80761 0.26041 0.81535
 C134 C 0.67461 0.23706 0.69733
 O135 O 0.31436 0.74751 0.75485
 O136 O 0.21211 0.73203 0.83102
 O137 O 0.25470 0.68946 0.75010
 O138 O 0.27318 0.78609 0.84436
 O139 O 0.24890 0.81707 0.75306
 O140 O 0.23257 0.72036 0.65679
 O141 O 0.18860 0.76133 0.73738
 O142 O 0.29067 0.77926 0.66404
 Cu143 Cu 0.26605 0.73535 0.80414
 Cu144 Cu 0.23790 0.77252 0.69337
 C145 C 0.31985 0.76664 0.69670
 C146 C 0.18321 0.74533 0.79804
 C147 C 0.24068 0.68846 0.68774
 C148 C 0.26337 0.81782 0.81537
 O149 O 0.19046 0.23018 0.73985
 O150 O 0.29186 0.23263 0.65726
 O151 O 0.24865 0.18445 0.74577
 O152 O 0.23360 0.27943 0.65475
 O153 O 0.26002 0.31419 0.74612
 O154 O 0.27588 0.21950 0.83639
 O155 O 0.31900 0.26818 0.74709
 O156 O 0.21679 0.26426 0.83198
 Cu157 Cu 0.23868 0.22828 0.69021
 Cu158 Cu 0.27079 0.27005 0.79927
 C159 C 0.18622 0.24620 0.80013
 C160 C 0.32271 0.25102 0.68747
 C161 C 0.26446 0.18597 0.80694
 C162 C 0.24340 0.31294 0.68567
 O163 O 0.72289 0.77499 0.65862
 O164 O 0.81784 0.76524 0.75013
 O165 O 0.77441 0.72119 0.66012
 O166 O 0.76399 0.81558 0.75702
 O167 O 0.72706 0.78086 0.83937
 O168 O 0.74199 0.68659 0.74743
 O169 O 0.78398 0.73385 0.83872
 O170 O 0.68864 0.73813 0.74148
 Cu171 Cu 0.77306 0.77261 0.69769
 Cu172 Cu 0.73205 0.73103 0.80010
 C173 C 0.68967 0.75852 0.68443
 C174 C 0.81729 0.74958 0.81128
 C175 C 0.76056 0.68773 0.68833
 C176 C 0.74343 0.81418 0.81440
 C177 C 0.28474 0.14548 0.11662
 C178 C 0.29086 0.11201 0.07586
 C179 C 0.26556 0.07558 0.08322
 C180 C 0.23319 0.07328 0.13380
 C181 C 0.22831 0.10675 0.17874
 C182 C 0.25385 0.14397 0.16831
 C183 C 0.19693 0.10155 0.23028
 N184 N 0.17113 0.06699 0.23291
 N185 N 0.17410 0.03699 0.18766
 C186 C 0.20379 0.03912 0.13788
 H187 H 0.30499 0.17297 0.10792
 H188 H 0.31620 0.11454 0.03893
 H189 H 0.19147 0.12410 0.26841
 H190 H 0.20350 0.01427 0.10116
 C191 C 0.73087 0.62233 0.63998
 C192 C 0.73352 0.58596 0.60502
 C193 C 0.77105 0.57555 0.58182
 C194 C 0.80675 0.60187 0.59540
 C195 C 0.80407 0.63919 0.63010
 C196 C 0.76562 0.64952 0.65186
 C197 C 0.84027 0.66428 0.64368
 N198 N 0.87641 0.65272 0.62310
 N199 N 0.87885 0.61768 0.59054
 C200 C 0.84531 0.59180 0.57632
 H201 H 0.70132 0.62967 0.65678
 H202 H 0.70603 0.56594 0.59518
 H203 H 0.84037 0.69268 0.67121
 H204 H 0.84911 0.56339 0.55105
 C205 C 0.71231 0.85388 0.11070
 C206 C 0.70553 0.88848 0.07392
 C207 C 0.73090 0.92472 0.08243
 C208 C 0.76486 0.92542 0.12848
 C209 C 0.77177 0.88997 0.16667
 C210 C 0.74474 0.85375 0.15791
 C211 C 0.80657 0.89201 0.20978
 N212 N 0.83241 0.92648 0.21350
 N213 N 0.82642 0.95915 0.17658
 C214 C 0.79396 0.95970 0.13386
 H215 H 0.69121 0.82694 0.10301
 H216 H 0.67923 0.88715 0.03997
 H217 H 0.81470 0.86679 0.23959
 H218 H 0.79207 0.98672 0.10317
 C219 C 0.26730 0.38266 0.64788
 C220 C 0.26209 0.41904 0.61481
 C221 C 0.22478 0.42514 0.58508
 C222 C 0.19161 0.39454 0.59128
 C223 C 0.19708 0.35710 0.62338
 C224 C 0.23555 0.35105 0.65116
 C225 C 0.16333 0.32746 0.62829
 N226 N 0.12686 0.33508 0.60297
 N227 N 0.12171 0.37041 0.57362
 C228 C 0.15275 0.40045 0.56733
 H229 H 0.29674 0.37875 0.66949
 H230 H 0.28767 0.44229 0.61072
 H231 H 0.16528 0.29852 0.65265
 H232 H 0.14668 0.42885 0.54452
 C233 C 0.86816 0.23269 0.09628
 C234 C 0.90347 0.23356 0.05569
 C235 C 0.93765 0.26202 0.06789
 C236 C 0.93617 0.28815 0.12777
 C237 C 0.90069 0.28523 0.17193
 C238 C 0.86591 0.25850 0.15398
 C239 C 0.90063 0.31045 0.23145
 N240 N 0.93277 0.33842 0.24387
 N241 N 0.96480 0.34299 0.20047
 C242 C 0.96741 0.31927 0.14265
 H243 H 0.84224 0.21135 0.08255
 H244 H 0.90377 0.21163 0.01344
 H245 H 0.87528 0.30821 0.26811
 H246 H 0.99350 0.32576 0.10831
 C247 C 0.38148 0.73870 0.65983
 C248 C 0.41708 0.74039 0.62059
 C249 C 0.43221 0.77585 0.58518
 C250 C 0.41269 0.81105 0.59248
 C251 C 0.37637 0.80941 0.63246
 C252 C 0.36024 0.77243 0.66436
 C253 C 0.35797 0.84511 0.64022
 N254 N 0.37483 0.87973 0.60882
 N255 N 0.40893 0.88113 0.57079
 C256 C 0.42854 0.84803 0.56180
 H257 H 0.36946 0.71029 0.68408
 H258 H 0.43233 0.71350 0.61589
 H259 H 0.33088 0.84614 0.67199
 H260 H 0.45654 0.85102 0.53159
 C261 C 0.13807 0.76614 0.10647
 C262 C 0.10226 0.76271 0.06819
 C263 C 0.07374 0.72812 0.07369
 C264 C 0.08235 0.69610 0.11908
 C265 C 0.11910 0.69973 0.15784
 C266 C 0.14676 0.73516 0.15152
 C267 C 0.12732 0.66738 0.20110
 N268 N 0.10063 0.63342 0.20455
 N269 N 0.06653 0.62957 0.16722
 C270 C 0.05663 0.65949 0.12429
 H271 H 0.15909 0.79343 0.10140
 H272 H 0.09612 0.78816 0.03604
 H273 H 0.15491 0.66862 0.23146
 H274 H 0.02911 0.65402 0.09383
 C275 C 0.62096 0.26939 0.63680
 C276 C 0.59526 0.27304 0.57850
 C277 C 0.58726 0.24369 0.52474
 C278 C 0.61581 0.21355 0.52114
 C279 C 0.63023 0.20087 0.60905
 C280 C 0.63761 0.23381 0.65391
 C281 C 0.64854 0.15305 0.62806
 N282 N 0.65608 0.11708 0.57082
 N283 N 0.65062 0.11201 0.48999
 C284 C 0.63409 0.14388 0.43414
 H285 H 0.62751 0.29550 0.67074
 H286 H 0.57901 0.29938 0.57753
 H287 H 0.65743 0.14850 0.68226
 H288 H 0.62768 0.13584 0.37898
 C289 C 0.68742 0.12229 0.86857
 C290 C 0.68337 0.08511 0.90353
 C291 C 0.71754 0.06896 0.92922
 C292 C 0.75658 0.09012 0.91837
 C293 C 0.76067 0.12779 0.88302
 C294 C 0.72578 0.14378 0.85760
 C295 C 0.79974 0.14870 0.87549
 N296 N 0.83243 0.13243 0.90038
 N297 N 0.82866 0.09661 0.93243
 C298 C 0.79192 0.07486 0.94217
 H299 H 0.66054 0.13418 0.84926
 H300 H 0.65339 0.06901 0.91127
 H301 H 0.80447 0.17791 0.85058
 H302 H 0.79071 0.04594 0.96856
 C303 C 0.25717 0.62063 0.34664
 C304 C 0.25356 0.58422 0.38330
 C305 C 0.21892 0.57180 0.42387
 C306 C 0.18637 0.59568 0.42485
 C307 C 0.18999 0.63303 0.38779
 C308 C 0.22629 0.64593 0.34948
 C309 C 0.15655 0.65542 0.38906
 N310 N 0.12241 0.64142 0.42552
 N311 N 0.11918 0.60644 0.46029
 C312 C 0.14988 0.58301 0.46088
 H313 H 0.28503 0.62972 0.31757
 H314 H 0.27858 0.56608 0.38176
 H315 H 0.15661 0.68345 0.36052
 H316 H 0.14531 0.55448 0.48869
 C317 C 0.29869 0.88578 0.84050
 C318 C 0.30211 0.92255 0.87652
 C319 C 0.27283 0.93071 0.92689
 C320 C 0.23880 0.90160 0.93922
 C321 C 0.23717 0.86315 0.90711
 C322 C 0.26680 0.85570 0.85597
 C323 C 0.20531 0.83357 0.92654
 N324 N 0.17550 0.84304 0.97084
 N325 N 0.17545 0.88009 0.99692
 C326 C 0.20581 0.90978 0.98201
 H327 H 0.32142 0.88048 0.80116
 H328 H 0.32797 0.94469 0.86557
 H329 H 0.20368 0.80314 0.90657
 H330 H 0.20397 0.93946 1.00393
 C331 C 0.74347 0.35940 0.39790
 C332 C 0.74454 0.39507 0.43640
 C333 C 0.77588 0.42659 0.42601
 C334 C 0.80640 0.42198 0.37430
 C335 C 0.80391 0.38648 0.33238
 C336 C 0.77261 0.35480 0.34549
 C337 C 0.83330 0.38365 0.27922
 N338 N 0.86417 0.41371 0.27080
 N339 N 0.86751 0.44633 0.31194
 C340 C 0.83985 0.45144 0.36347
 H341 H 0.71912 0.33544 0.40800
 H342 H 0.72048 0.39816 0.47438
 H343 H 0.83189 0.35791 0.24423
 H344 H 0.84457 0.47824 0.39584
 C345 C 0.11290 0.25358 0.79049
 C346 C 0.07287 0.25035 0.81581
 C347 C 0.06140 0.23062 0.88004
 C348 C 0.08700 0.20656 0.91158
 C349 C 0.13571 0.22406 0.89795
 C350 C 0.14496 0.24311 0.83220
 C351 C 0.17196 0.21502 0.95268
 N352 N 0.15918 0.18725 1.01788
 N353 N 0.10462 0.16561 1.03498
 C354 C 0.07010 0.17557 0.98076
 H355 H 0.11947 0.26797 0.73963
 H356 H 0.05178 0.26692 0.78771
 H357 H 0.20348 0.22599 0.94373
 H358 H 0.03829 0.16620 0.99117
 C359 C 0.62412 0.72746 0.36875
 C360 C 0.58776 0.73085 0.40377
 C361 C 0.57616 0.76886 0.41912
 C362 C 0.60075 0.80420 0.39727
 C363 C 0.63805 0.80082 0.36258
 C364 C 0.64978 0.76204 0.34936
 C365 C 0.66195 0.83647 0.34111
 N366 N 0.64906 0.87287 0.35430
 N367 N 0.61389 0.87599 0.38706
 C368 C 0.58924 0.84292 0.40882
 H369 H 0.63283 0.69769 0.35829
 H370 H 0.56887 0.70370 0.42030
 H371 H 0.69048 0.83581 0.31343
 H372 H 0.56075 0.84716 0.43428
 C373 C 0.85865 0.71675 0.89704
 C374 C 0.89370 0.71366 0.93545
 C375 C 0.92723 0.74327 0.93023
 C376 C 0.92423 0.77779 0.88689
 C377 C 0.88878 0.78064 0.84622
 C378 C 0.85568 0.74931 0.85109
 C379 C 0.88742 0.81578 0.80469
 N380 N 0.91860 0.84581 0.80557
 N381 N 0.95099 0.84366 0.84564
 C382 C 0.95458 0.81105 0.88674
 H383 H 0.83390 0.69265 0.90187
 H384 H 0.89520 0.68681 0.96715
 H385 H 0.86179 0.82098 0.77301
 H386 H 0.98049 0.81211 0.92070
 C387 C 0.35345 0.20958 0.39002
 C388 C 0.39174 0.20680 0.41835
 C389 C 0.42050 0.24091 0.42255
 C390 C 0.41043 0.27863 0.39846
 C391 C 0.37169 0.28147 0.36904
 C392 C 0.34324 0.24636 0.36370
 C393 C 0.36264 0.31969 0.34681
 N394 N 0.39075 0.35240 0.35285
 N395 N 0.42730 0.34956 0.37957
 C396 C 0.43814 0.31384 0.40243
 H397 H 0.33215 0.18248 0.38623
 H398 H 0.39916 0.17776 0.43651
 H399 H 0.33346 0.32409 0.32530
 H400 H 0.46825 0.31334 0.42361
 C401 C 0.70039 0.86519 0.85594
 C402 C 0.69447 0.90056 0.89196
 C403 C 0.72678 0.92325 0.92619
 C404 C 0.76609 0.91077 0.92203
 C405 C 0.77182 0.87428 0.88716
 C406 C 0.73878 0.85173 0.85305
 C407 C 0.81041 0.86102 0.88909
 N408 N 0.84161 0.88398 0.92065
 N409 N 0.83669 0.91926 0.95051
 C410 C 0.80007 0.93352 0.95201
 H411 H 0.67479 0.84809 0.83034
 H412 H 0.66430 0.90986 0.89455
 H413 H 0.81578 0.83240 0.86668
 H414 H 0.79787 0.96247 0.97648
 C415 C 0.25854 0.36921 0.39423
 C416 C 0.25598 0.40555 0.42901
 C417 C 0.21983 0.42337 0.42918
 C418 C 0.18561 0.40431 0.39283
 C419 C 0.18813 0.36699 0.35813
 C420 C 0.22499 0.34961 0.35891
 C421 C 0.15361 0.34842 0.32330
 N422 N 0.11893 0.36625 0.32345
 N423 N 0.11651 0.40130 0.35603
 C424 C 0.14861 0.42093 0.39068
 H425 H 0.28681 0.35606 0.39567
 H426 H 0.28243 0.41989 0.45630
 H427 H 0.15389 0.31994 0.29610
 H428 H 0.14480 0.44920 0.41643
 C429 C 0.23911 0.13378 0.89365
 C430 C 0.24256 0.09913 0.93325
 C431 C 0.27656 0.07792 0.92587
 C432 C 0.30752 0.09232 0.87616
 C433 C 0.30363 0.12756 0.83566
 C434 C 0.26922 0.14830 0.84497
 C435 C 0.33491 0.14157 0.78805
 N436 N 0.36825 0.12189 0.78221
 N437 N 0.37251 0.08941 0.82122
 C438 C 0.34358 0.07416 0.86825
 H439 H 0.21262 0.14940 0.90085
 H440 H 0.21804 0.08841 0.96919
 H441 H 0.33329 0.16819 0.75602
 H442 H 0.34948 0.04844 0.89972
 C443 C 0.72987 0.62609 0.38462
 C444 C 0.73291 0.59001 0.42027
 C445 C 0.77035 0.57488 0.42619
 C446 C 0.80539 0.59625 0.39496
 C447 C 0.80249 0.63343 0.36012
 C448 C 0.76435 0.64829 0.35522
 C449 C 0.83791 0.65421 0.33029
 N450 N 0.87368 0.63851 0.33515
 N451 N 0.87636 0.60347 0.36764
 C452 C 0.84348 0.58179 0.39758
 H453 H 0.70053 0.63715 0.38096
 H454 H 0.70588 0.57379 0.44377
 H455 H 0.83752 0.68265 0.30299
 H456 H 0.84741 0.55348 0.42300
 C457 C 0.12869 0.70791 0.86780
 C458 C 0.09380 0.70583 0.90921
 C459 C 0.07361 0.73992 0.91860
 C460 C 0.08845 0.77679 0.88530
 C461 C 0.12290 0.77860 0.84041
 C462 C 0.14352 0.74378 0.83302
 C463 C 0.13657 0.81595 0.80797
 N464 N 0.11737 0.84888 0.82130
 N465 N 0.08578 0.84730 0.86541
 C466 C 0.07096 0.81253 0.89830
 H467 H 0.14446 0.68135 0.86327
 H468 H 0.08269 0.67757 0.93488
 H469 H 0.16280 0.82006 0.77368
 H470 H 0.04663 0.81343 0.93618
 C471 C 0.61346 0.24582 0.29421
 C472 C 0.57330 0.23936 0.31896
 C473 C 0.56195 0.21512 0.37817
 C474 C 0.58904 0.19240 0.40900
 C475 C 0.63733 0.21269 0.39734
 C476 C 0.64623 0.23404 0.33297
 C477 C 0.67361 0.20515 0.45371
 N478 N 0.66152 0.17610 0.51740
 N479 N 0.60775 0.15151 0.53188
 C480 C 0.57313 0.16008 0.47686
 H481 H 0.61918 0.26321 0.24593
 H482 H 0.55105 0.25589 0.29389
 H483 H 0.70428 0.21970 0.44986
 H484 H 0.54160 0.14891 0.48605
 C485 C 0.87338 0.23530 0.83276
 C486 C 0.91100 0.23515 0.86352
 C487 C 0.92603 0.26509 0.91194
 C488 C 0.90216 0.29709 0.92653
 C489 C 0.86285 0.29663 0.89607
 C490 C 0.84810 0.26477 0.84964
 C491 C 0.84081 0.32933 0.91041
 N492 N 0.85700 0.36021 0.95174
 N493 N 0.89400 0.36111 0.97873
 C494 C 0.91728 0.33102 0.96672
 H495 H 0.86360 0.21107 0.79635
 H496 H 0.92777 0.21000 0.85128
 H497 H 0.81143 0.33154 0.88783
 H498 H 0.94770 0.33439 0.98749
 C499 C 0.36264 0.73598 0.39979
 C500 C 0.39930 0.73896 0.43579
 C501 C 0.42769 0.77329 0.42848
 C502 C 0.41876 0.80542 0.38418
 C503 C 0.38135 0.80237 0.34773
 C504 C 0.35342 0.76722 0.35552
 C505 C 0.37313 0.83473 0.30448
 N506 N 0.40074 0.86791 0.29844
 N507 N 0.43587 0.87085 0.33277
 C508 C 0.44582 0.84082 0.37543
 H509 H 0.34142 0.70892 0.40601
 H510 H 0.40585 0.71404 0.46896
 H511 H 0.34500 0.83402 0.27575
 H512 H 0.47464 0.84504 0.40230
 C513 C 0.24509 0.88424 0.16723
 C514 C 0.24862 0.92083 0.13125
 C515 C 0.28113 0.93174 0.08469
 C516 C 0.31245 0.90646 0.07886
 C517 C 0.30922 0.86918 0.11635
 C518 C 0.27429 0.85740 0.15908
 C519 C 0.34184 0.84582 0.11131
 N520 N 0.37466 0.85861 0.07051
 N521 N 0.37742 0.89334 0.03504
 C522 C 0.34762 0.91779 0.03819
 H523 H 0.21842 0.87630 0.20009
 H524 H 0.22470 0.94008 0.13741
 H525 H 0.34238 0.81812 0.14059
 H526 H 0.35199 0.94612 0.00972
 C527 C 0.73232 0.37836 0.66050
 C528 C 0.73677 0.41462 0.62323
 C529 C 0.77241 0.42704 0.58509
 C530 C 0.80504 0.40328 0.58737
 C531 C 0.80058 0.36623 0.62537
 C532 C 0.76338 0.35332 0.66081
 C533 C 0.83413 0.34408 0.62823
 N534 N 0.86917 0.35787 0.59420
 N535 N 0.87315 0.39247 0.55818
 C536 C 0.84241 0.41574 0.55395
 H537 H 0.70383 0.36918 0.68760
 H538 H 0.71168 0.43268 0.62245
 H539 H 0.83331 0.31642 0.65824
 H540 H 0.84762 0.44396 0.52525
 C541 C 0.76295 0.12023 0.14734
 C542 C 0.75638 0.08308 0.11334
 C543 C 0.71845 0.06949 0.08470
 C544 C 0.68603 0.09317 0.09291
 C545 C 0.69269 0.13116 0.12734
 C546 C 0.73183 0.14499 0.15349
 C547 C 0.65945 0.15334 0.13625
 N548 N 0.62246 0.13854 0.11137
 N549 N 0.61634 0.10297 0.07881
 C550 C 0.64678 0.07971 0.06907
 H551 H 0.79292 0.13017 0.16756
 H552 H 0.78140 0.06514 0.10785
 H553 H 0.66218 0.18192 0.16372
 H554 H 0.63997 0.05077 0.04334
 C555 C 0.26316 0.63992 0.60223
 C556 C 0.25894 0.60276 0.56791
 C557 C 0.22494 0.57447 0.58048
 C558 C 0.19468 0.58386 0.62924
 C559 C 0.19928 0.62155 0.66474
 C560 C 0.23381 0.64956 0.65085
 C561 C 0.16876 0.63019 0.71255
 N562 N 0.13577 0.60282 0.72351
 N563 N 0.13125 0.56754 0.68980
 C564 C 0.15947 0.55715 0.64301
 H565 H 0.28982 0.66111 0.59152
 H566 H 0.28247 0.59592 0.53127
 H567 H 0.17072 0.65850 0.74090
 H568 H 0.15387 0.52830 0.61670
 C569 C 0.86858 0.70418 0.14736
 C570 C 0.90482 0.70039 0.11198
 C571 C 0.92838 0.73454 0.08495
 C572 C 0.91644 0.77340 0.09638
 C573 C 0.87932 0.77717 0.13119
 C574 C 0.85557 0.74222 0.15714
 C575 C 0.86665 0.81581 0.13700
 N576 N 0.89074 0.84856 0.11230
 N577 N 0.92655 0.84517 0.08204
 C578 C 0.94028 0.80876 0.07343
 H579 H 0.85045 0.67727 0.16694
 H580 H 0.91393 0.67060 0.10352
 H581 H 0.83768 0.82016 0.16007
 H582 H 0.96972 0.80779 0.04903
 C583 C 0.37402 0.21439 0.62749
 C584 C 0.41019 0.21237 0.59029
 C585 C 0.43662 0.24725 0.57510
 C586 C 0.42694 0.28484 0.60108
 C587 C 0.39014 0.28696 0.63979
 C588 C 0.36322 0.25126 0.65262
 C589 C 0.38079 0.32521 0.66115
 N590 N 0.40681 0.35863 0.64611
 N591 N 0.44137 0.35651 0.61073
 C592 C 0.45225 0.32082 0.58755
 H593 H 0.35386 0.18680 0.63560
 H594 H 0.41683 0.18338 0.57040
 H595 H 0.35294 0.32908 0.68888
 H596 H 0.48053 0.32091 0.55867
 C597 C 0.12342 0.28373 0.13656
 C598 C 0.09673 0.28748 0.07965
 C599 C 0.08788 0.25814 0.02617
 C600 C 0.11590 0.22737 0.02215
 C601 C 0.13056 0.21473 0.10991
 C602 C 0.13848 0.24746 0.15478
 C603 C 0.14641 0.16606 0.12969
 N604 N 0.15121 0.12887 0.07350
 N605 N 0.14449 0.12312 -0.00691
 C606 C 0.12912 0.15539 -0.06325
 H607 H 0.13094 0.30986 0.17001
 H608 H 0.08094 0.31413 0.07907
 H609 H 0.15494 0.16159 0.18387
 H610 H 0.12142 0.14697 -0.11778
 C611 C 0.62798 0.72896 0.62350
 C612 C 0.59232 0.73217 0.58673
 C613 C 0.57934 0.76996 0.57434
 C614 C 0.60237 0.80525 0.59995
 C615 C 0.63897 0.80209 0.63640
 C616 C 0.65174 0.76354 0.64783
 C617 C 0.66103 0.83773 0.66179
 N618 N 0.64721 0.87387 0.65067
 N619 N 0.61278 0.87679 0.61629
 C620 C 0.58984 0.84374 0.59075
 H621 H 0.63744 0.69934 0.63213
 H622 H 0.57461 0.70498 0.56789
 H623 H 0.68887 0.83725 0.69090
 H624 H 0.56195 0.84783 0.56394
   
