data_POSCAR
  _audit_creation_date              2014-09-24
  _audit_creation_method            'ToBaCCo'
  _symmetry_space_group_name_H-M    'P1'
  _symmetry_Int_Tables_number       1
  _symmetry_cell_setting            triclinic
  loop_
  _symmetry_equiv_pos_as_xyz
 x,y,z
_cell_length_a 25.3753
_cell_length_b 24.6256
_cell_length_c 24.6404
_cell_angle_alpha 89.923500
_cell_angle_beta 90.580700
_cell_angle_gamma 89.776500
loop_
  _atom_site_label
  _atom_site_type_symbol
  _atom_site_fract_x
  _atom_site_fract_y
  _atom_site_fract_z
N1 N 0.19614 1.30691 0.16118
 N2 N 0.16029 1.30511 0.19925
 C3 C 0.11945 1.33723 0.18521
 C4 C 0.13004 1.36077 0.13531
 C5 C 0.17950 1.34094 0.12167
 H6 H 0.08439 1.34157 0.20931
 H7 H 0.20078 1.34906 0.08472
 Cu8 Cu 0.16791 1.25818 0.26206
 Cu9 Cu 0.25971 1.26171 0.16486
 Cu10 Cu 0.24603 1.15024 0.24973
 N11 N 0.16219 1.19686 0.31113
 N12 N 0.19391 1.15485 0.30704
 C13 C 0.17793 1.11567 0.34116
 C14 C 0.13274 1.13342 0.36709
 C15 C 0.12449 1.18575 0.34748
 H16 H 0.19530 1.07556 0.34385
 H17 H 0.09211 1.21282 0.35635
 N18 N 0.30242 1.15606 0.19569
 N19 N 0.30777 1.19820 0.16306
 C20 C 0.34599 1.18706 0.12700
 C21 C 0.36555 1.13537 0.13742
 C22 C 0.33704 1.11736 0.18156
 H23 H 0.35643 1.21301 0.09336
 H24 H 0.33864 1.07767 0.19999
 H25 H 0.21204 1.20404 0.19408
 H26 H 0.25977 1.23210 0.24449
 N27 N 0.80460 0.69386 0.15750
 N28 N 0.83910 0.69257 0.19759
 C29 C 0.87853 0.65836 0.18498
 C30 C 0.86828 0.63684 0.13401
 C31 C 0.82061 0.65988 0.11816
 H32 H 0.91280 0.65145 0.21045
 H33 H 0.80043 0.65420 0.07971
 Cu34 Cu 0.83245 0.74009 0.25976
 Cu35 Cu 0.74398 0.74287 0.15802
 Cu36 Cu 0.74410 0.84089 0.26010
 N37 N 0.84108 0.80234 0.30705
 N38 N 0.80626 0.84191 0.30714
 C39 C 0.82292 0.88123 0.34100
 C40 C 0.87152 0.86605 0.36255
 C41 C 0.88152 0.81528 0.34024
 H42 H 0.80238 0.91918 0.34769
 H43 H 0.91599 0.78999 0.34606
 N44 N 0.69469 0.84185 0.19785
 N45 N 0.69446 0.80494 0.15904
 C46 C 0.65992 0.82039 0.12004
 C47 C 0.63790 0.86973 0.13460
 C48 C 0.66063 0.88175 0.18447
 H49 H 0.65340 0.79907 0.08224
 H50 H 0.65496 0.91797 0.20834
 H51 H 0.78547 0.80160 0.19996
 H52 H 0.73860 0.75973 0.23944
 N53 N 0.80119 1.30762 -0.16272
 N54 N 0.83729 1.30594 -0.20056
 C55 C 0.87774 1.33808 -0.18625
 C56 C 0.86662 1.36147 -0.13654
 C57 C 0.81733 1.34159 -0.12314
 H58 H 0.91309 1.34249 -0.20986
 H59 H 0.79591 1.34952 -0.08623
 Cu60 Cu 0.83068 1.25887 -0.26319
 Cu61 Cu 0.73809 1.26222 -0.16674
 Cu62 Cu 0.75309 1.15106 -0.25160
 N63 N 0.83747 1.19753 -0.31197
 N64 N 0.80585 1.15564 -0.30827
 C65 C 0.82240 1.11647 -0.34213
 C66 C 0.86785 1.13408 -0.36746
 C67 C 0.87570 1.18632 -0.34777
 H68 H 0.80521 1.07644 -0.34506
 H69 H 0.90809 1.21327 -0.35625
 N70 N 0.69625 1.15669 -0.19804
 N71 N 0.69045 1.19870 -0.16537
 C72 C 0.65221 1.18737 -0.12946
 C73 C 0.63317 1.13567 -0.13997
 C74 C 0.66192 1.11789 -0.18405
 H75 H 0.64151 1.21313 -0.09577
 H76 H 0.66076 1.07823 -0.20247
 H77 H 0.78636 1.20457 -0.19561
 H78 H 0.73883 1.23295 -0.24633
 N79 N 0.19552 0.69299 -0.15515
 N80 N 0.16257 0.69028 -0.19652
 C81 C 0.12413 0.65471 -0.18512
 C82 C 0.13331 0.63395 -0.13355
 C83 C 0.17946 0.65867 -0.11618
 H84 H 0.09075 0.64691 -0.21148
 H85 H 0.19781 0.65465 -0.07656
 Cu86 Cu 0.16834 0.73926 -0.25767
 Cu87 Cu 0.25142 0.74714 -0.15146
 Cu88 Cu 0.25871 0.83722 -0.26028
 N89 N 0.15995 0.80186 -0.30481
 N90 N 0.19560 0.84033 -0.30607
 C91 C 0.17921 0.87970 -0.34033
 C92 C 0.13002 0.86564 -0.36094
 C93 C 0.11933 0.81553 -0.33758
 H94 H 0.20050 0.91685 -0.34810
 H95 H 0.08441 0.79106 -0.34255
 N96 N 0.30717 0.83929 -0.19724
 N97 N 0.30482 0.80504 -0.15607
 C98 C 0.33942 0.82081 -0.11745
 C99 C 0.36392 0.86786 -0.13452
 C100 C 0.34284 0.87795 -0.18565
 H101 H 0.34408 0.80179 -0.07812
 H102 H 0.35064 0.91233 -0.21157
 H103 H 0.21375 0.80414 -0.20045
 H104 H 0.26110 0.75679 -0.23313
 C105 C 0.50022 1.00400 -0.00092
 C106 C -0.00027 0.49765 1.00021
 C107 C 1.00077 0.00005 0.50031
 C108 C 0.09671 0.39502 1.10254
 C109 C 0.04143 0.40590 1.12472
 C110 C 0.01104 0.43818 1.09248
 C111 C 0.03721 0.45840 1.03932
 C112 C 0.08958 0.48399 1.06073
 C113 C 0.11985 0.45136 1.09305
 C114 C 0.08696 0.37211 1.04574
 C115 C 0.05682 0.40445 1.01317
 H116 H 0.02601 0.38914 1.16196
 H117 H -0.02881 0.44666 1.10454
 H118 H 0.10255 0.52480 1.05269
 H119 H 0.15682 0.46499 1.11084
 H120 H 0.10295 0.33367 1.03175
 H121 H 0.04926 0.39177 0.97205
 C122 C -0.09703 0.60047 1.10015
 C123 C -0.04200 0.58947 1.12364
 C124 C -0.01162 0.55706 1.09223
 C125 C -0.03774 0.53690 1.03846
 C126 C -0.09025 0.51151 1.05875
 C127 C -0.12045 0.54432 1.09028
 C128 C -0.08718 0.62336 1.04356
 C129 C -0.05719 0.59089 1.01170
 H130 H -0.02687 0.60652 1.16117
 H131 H 0.02819 0.54856 1.10524
 H132 H -0.10339 0.47078 1.05045
 H133 H -0.15757 0.53103 1.10723
 H134 H -0.10316 0.66180 1.02918
 H135 H -0.04970 0.60343 0.97064
 C136 C -0.09831 0.39706 0.89817
 C137 C -0.08900 0.37398 0.95499
 C138 C -0.05851 0.40569 0.98752
 C139 C -0.03821 0.45921 0.96121
 C140 C -0.01224 0.43842 0.90812
 C141 C -0.04301 0.40674 0.87600
 C142 C -0.12087 0.45378 0.90743
 C143 C -0.09027 0.48586 0.93966
 H144 H -0.10567 0.33596 0.96898
 H145 H -0.05123 0.39293 1.02873
 H146 H 0.02770 0.44609 0.89602
 H147 H -0.02804 0.38960 0.83873
 H148 H -0.15773 0.46795 0.88957
 H149 H -0.10281 0.52691 0.94762
 C150 C 0.09797 0.59834 0.90018
 C151 C 0.04287 0.58854 0.87653
 C152 C 0.01195 0.55681 0.90796
 C153 C 0.03769 0.53609 0.96187
 C154 C 0.08993 0.50958 0.94178
 C155 C 0.12065 0.54173 0.91030
 C156 C 0.08814 0.62148 0.95667
 C157 C 0.05770 0.58967 0.98852
 H158 H 0.02809 0.60606 0.83896
 H159 H -0.02797 0.54922 0.89495
 H160 H 0.10249 0.46853 0.95011
 H161 H 0.15762 0.52763 0.89346
 H162 H 0.10433 0.65968 0.97098
 H163 H 0.05019 0.60248 1.02946
 C164 C 1.09900 0.10105 0.40043
 C165 C 1.04363 0.12404 0.40963
 C166 C 1.01282 0.09225 0.44111
 C167 C 1.03875 0.03868 0.46221
 C168 C 1.05902 0.01210 0.40898
 C169 C 1.08931 0.04425 0.37732
 C170 C 1.12149 0.09121 0.45733
 C171 C 1.09079 0.05939 0.48918
 H172 H 1.02830 0.16106 0.39151
 H173 H 0.97269 0.10462 0.44793
 H174 H 1.05160 -0.02894 0.39615
 H175 H 1.10519 0.02994 0.33913
 H176 H 1.15835 0.10841 0.47187
 H177 H 1.10326 0.05112 0.53031
 C178 C 1.09705 -0.10170 0.60430
 C179 C 1.08724 -0.04483 0.62698
 C180 C 1.05744 -0.01238 0.59415
 C181 C 1.03811 -0.03875 0.54006
 C182 C 1.09063 -0.05988 0.51523
 C183 C 1.12060 -0.09212 0.54828
 C184 C 1.04187 -0.12416 0.59273
 C185 C 1.01177 -0.09210 0.56002
 H186 H 1.10304 -0.03068 0.66556
 H187 H 1.04994 0.02883 0.60651
 H188 H 1.10395 -0.05159 0.47467
 H189 H 1.15770 -0.10967 0.53523
 H190 H 1.02626 -0.16142 0.60941
 H191 H 0.97194 -0.10438 0.55123
 C192 C 0.90463 -0.10150 0.39700
 C193 C 0.88110 -0.09152 0.45295
 C194 C 0.91106 -0.05941 0.48576
 C195 C 0.96356 -0.03873 0.46079
 C196 C 0.98995 -0.09236 0.44113
 C197 C 0.95983 -0.12435 0.40865
 C198 C 0.91444 -0.04480 0.37392
 C199 C 0.94421 -0.01244 0.40652
 H200 H 0.84404 -0.10878 0.46615
 H201 H 0.89777 -0.05095 0.52629
 H202 H 1.02984 -0.10481 0.44991
 H203 H 0.97542 -0.16173 0.39201
 H204 H 0.89873 -0.03071 0.33520
 H205 H 0.95171 0.02863 0.39382
 C206 C 0.90194 0.10165 0.59949
 C207 C 0.87958 0.09165 0.54264
 C208 C 0.91050 0.05968 0.51104
 C209 C 0.96262 0.03894 0.53820
 C210 C 0.98825 0.09254 0.55900
 C211 C 0.95718 0.12453 0.59022
 C212 C 0.91194 0.04493 0.62299
 C213 C 0.94247 0.01262 0.59160
 H214 H 0.84266 0.10892 0.52792
 H215 H 0.89814 0.05138 0.46992
 H216 H 1.02831 0.10478 0.55210
 H217 H 0.97221 0.16164 0.60806
 H218 H 0.89611 0.03082 0.66126
 H219 H 0.95014 -0.02836 0.60476
 C220 C 0.40180 1.10210 0.10195
 C221 C 0.45589 1.12719 0.09196
 C222 C 0.48744 1.09692 0.05900
 C223 C 0.46293 1.04271 0.03800
 C224 C 0.44481 1.01497 0.09138
 C225 C 0.41399 1.04531 0.12391
 C226 C 0.37872 1.09271 0.04530
 C227 C 0.40997 1.06279 0.01223
 H228 H 0.46847 1.16556 0.10931
 H229 H 0.52645 1.11119 0.04959
 H230 H 0.45445 0.97435 0.10416
 H231 H 0.40085 1.02947 0.16246
 H232 H 0.34134 1.10969 0.03153
 H233 H 0.39757 1.05646 -0.02917
 C234 C 0.59734 1.10218 -0.10443
 C235 C 0.58606 1.04517 -0.12597
 C236 C 0.55560 1.01475 -0.09324
 C237 C 0.53700 1.04266 -0.04013
 C238 C 0.58962 1.06324 -0.01445
 C239 C 0.62047 1.09324 -0.04767
 C240 C 0.54287 1.12690 -0.09475
 C241 C 0.51171 1.09655 -0.06163
 H242 H 0.59960 1.02924 -0.16433
 H243 H 0.54655 0.97397 -0.10565
 H244 H 0.60211 1.05719 0.02699
 H245 H 0.65759 1.11052 -0.03398
 H246 H 0.52974 1.16507 -0.11245
 H247 H 0.47245 1.11053 -0.05246
 C248 C 0.39959 0.90361 -0.10062
 C249 C 0.45450 0.87963 -0.09136
 C250 C 0.48657 0.91083 -0.05973
 C251 C 0.46178 0.96493 -0.03889
 C252 C 0.44079 0.99177 -0.09223
 C253 C 0.40915 0.96034 -0.12368
 C254 C 0.37835 0.91374 -0.04372
 C255 C 0.41019 0.94462 -0.01181
 H256 H 0.46741 0.84134 -0.10862
 H257 H 0.52636 0.89738 -0.05157
 H258 H 0.44814 1.03290 -0.10482
 H259 H 0.39150 0.97595 -0.16079
 H260 H 0.34155 0.89712 -0.02907
 H261 H 0.39884 0.95180 0.02952
 C262 C 0.60193 0.90490 0.10001
 C263 C 0.62316 0.91446 0.04303
 C264 C 0.59104 0.94500 0.01066
 C265 C 0.53914 0.96535 0.03740
 C266 C 0.51496 0.91131 0.05882
 C267 C 0.54731 0.88060 0.09095
 C268 C 0.59161 0.96182 0.12230
 C269 C 0.55971 0.99276 0.09042
 H270 H 0.66009 0.89762 0.02869
 H271 H 0.60232 0.95186 -0.03076
 H272 H 0.47539 0.89754 0.05066
 H273 H 0.53483 0.84240 0.10862
 H274 H 0.60870 0.97791 0.15936
 H275 H 0.55179 1.03394 0.10256
   
