data_POSCAR
  _audit_creation_date              2014-09-24
  _audit_creation_method            'ToBaCCo'
  _symmetry_space_group_name_H-M    'P1'
  _symmetry_Int_Tables_number       1
  _symmetry_cell_setting            triclinic
  loop_
  _symmetry_equiv_pos_as_xyz
 x,y,z
_cell_length_a 35.4131
_cell_length_b 35.5328
_cell_length_c 35.5979
_cell_angle_alpha 97.990200
_cell_angle_beta 76.579000
_cell_angle_gamma 101.571000
loop_
  _atom_site_label
  _atom_site_type_symbol
  _atom_site_fract_x
  _atom_site_fract_y
  _atom_site_fract_z
O1 O 0.54798 0.50102 0.02862
 O2 O 0.44475 0.49080 0.01908
 O3 O 0.48962 0.44414 0.02808
 O4 O 0.50301 0.54837 0.02178
 O5 O 0.52160 0.53924 -0.04188
 O6 O 0.50895 0.43445 -0.03548
 O7 O 0.46374 0.48104 -0.04442
 O8 O 0.56668 0.49197 -0.03505
 Cu9 Cu 0.49435 0.49707 0.03073
 Cu10 Cu 0.51697 0.48578 -0.04560
 C11 C 0.57495 0.49784 -0.00164
 C12 C 0.43651 0.48421 -0.01442
 C13 C 0.49766 0.42149 -0.00240
 C14 C 0.51458 0.56175 -0.01102
 O15 O -0.02567 0.55352 0.50346
 O16 O -0.01915 0.45069 0.49421
 O17 O -0.01732 0.50664 0.54999
 O18 O -0.02548 0.49855 0.44769
 O19 O 0.03928 0.51286 0.42999
 O20 O 0.04736 0.52148 0.53200
 O21 O 0.04559 0.46503 0.47655
 O22 O 0.03894 0.56840 0.48526
 Cu23 Cu -0.02836 0.50080 0.50073
 Cu24 Cu 0.04930 0.51832 0.47932
 C25 C 0.00530 0.57863 0.49532
 C26 C 0.01423 0.44014 0.48372
 C27 C 0.01650 0.51555 0.55849
 C28 C 0.00555 0.50479 0.42137
 O29 O 0.48487 0.02409 0.57529
 O30 O 0.49676 0.02945 0.47025
 O31 O 0.43922 0.03221 0.53038
 O32 O 0.54336 0.02387 0.51576
 O33 O 0.52758 -0.03954 0.50743
 O34 O 0.42292 -0.03112 0.52121
 O35 O 0.48114 -0.03396 0.46167
 O36 O 0.46846 -0.03918 0.56636
 Cu37 Cu 0.49273 0.03373 0.52372
 Cu38 Cu 0.47350 -0.04229 0.51323
 C39 C 0.47464 -0.00860 0.58886
 C40 C 0.49056 -0.00140 0.44804
 C41 C 0.41323 0.00214 0.52810
 C42 C 0.55334 -0.00917 0.50964
 C43 C 0.49752 -0.08238 -0.06579
 C44 C 0.48689 -0.04740 -0.06961
 C45 C 0.48546 -0.01867 -0.03826
 C46 C 0.49687 -0.02334 -0.00398
 C47 C 0.50817 -0.05858 -0.00124
 C48 C 0.50765 -0.08848 -0.03156
 C49 C 0.49708 0.00854 0.02848
 C50 C 0.49240 0.00066 0.06727
 C51 C 0.49252 0.03060 0.09759
 C52 C 0.49567 0.06867 0.08922
 C53 C 0.49956 0.07723 0.05112
 C54 C 0.50151 0.04731 0.02093
 H55 H 0.49786 -0.10499 -0.08957
 H56 H 0.47478 0.00710 -0.04083
 H57 H 0.51812 -0.06291 0.02409
 H58 H 0.48775 -0.02875 0.07440
 H59 H 0.49598 0.09195 0.11235
 H60 H 0.50595 0.05458 -0.00844
 C61 C -0.06832 0.50676 1.07112
 C62 C -0.07604 0.50263 1.03378
 C63 C -0.04478 0.50036 1.00146
 C64 C -0.00544 0.50485 1.00594
 C65 C 0.00144 0.51042 1.04399
 C66 C -0.02981 0.51014 1.07653
 C67 C 0.02815 0.50393 0.97124
 C68 C 0.06427 0.49463 0.97412
 C69 C 0.09624 0.49521 0.94216
 C70 C 0.09118 0.50253 0.90609
 C71 C 0.05529 0.51071 0.90204
 C72 C 0.02458 0.51263 0.93487
 H73 H -0.09262 0.50635 1.09608
 H74 H -0.05153 0.49547 0.97293
 H75 H 0.03111 0.51566 1.04890
 H76 H 0.06816 0.48735 1.00127
 H77 H 0.11504 0.50098 0.88092
 H78 H -0.00180 0.52163 0.93169
 C79 C -0.08539 -0.07538 0.49735
 C80 C -0.04670 -0.08134 0.49352
 C81 C -0.01605 -0.04934 0.49227
 C82 C -0.02379 -0.01129 0.49747
 C83 C -0.06319 -0.00617 0.50224
 C84 C -0.09390 -0.03798 0.50126
 C85 C 0.00897 0.02275 0.49856
 C86 C 0.00595 0.05888 0.48835
 C87 C 0.03645 0.09085 0.48983
 C88 C 0.07114 0.08615 0.49984
 C89 C 0.07533 0.05041 0.50918
 C90 C 0.04378 0.01935 0.50969
 H91 H -0.10886 -0.10007 0.49648
 H92 H 0.01378 -0.05451 0.48781
 H93 H -0.07052 0.02247 0.50762
 H94 H -0.01971 0.06238 0.47853
 H95 H 0.09472 0.11065 0.50128
 H96 H 0.04694 -0.00757 0.51841
 C97 C -0.30598 0.50103 1.00876
 C98 C -0.31527 0.49627 0.97209
 C99 C -0.35390 0.49582 0.96868
 C100 C -0.38381 0.50012 1.00198
 C101 C -0.37408 0.50532 1.03873
 C102 C -0.33540 0.50575 1.04205
 C103 C -0.26637 0.50077 1.01226
 C104 C -0.23324 0.50062 1.01543
 C105 C -0.19379 0.50084 1.01977
 C106 C -0.17090 0.47526 0.99603
 C107 C -0.13257 0.47564 1.00048
 C108 C -0.11676 0.50161 1.02882
 C109 C -0.14004 0.52720 1.05247
 C110 C -0.17826 0.52678 1.04796
 H111 H -0.29272 0.49264 0.94613
 H112 H -0.36039 0.49172 0.93997
 H113 H -0.39639 0.50864 1.06491
 H114 H -0.32851 0.50951 1.07059
 H115 H -0.18270 0.45498 0.97416
 H116 H -0.11552 0.45534 0.98212
 H117 H -0.12848 0.54793 1.07414
 H118 H -0.19566 0.54678 1.06641
 C119 C 0.31940 0.47727 0.97294
 C120 C 0.32805 0.48342 1.00995
 C121 C 0.36666 0.48517 1.01430
 C122 C 0.39734 0.48091 0.98155
 C123 C 0.38801 0.47410 0.94447
 C124 C 0.34940 0.47236 0.94029
 C125 C 0.28020 0.47768 0.96817
 C126 C 0.24781 0.47900 0.96357
 C127 C 0.20971 0.48187 0.95746
 C128 C 0.20675 0.50943 0.93429
 C129 C 0.16991 0.51328 0.92892
 C130 C 0.13539 0.48956 0.94668
 C131 C 0.13866 0.46162 0.96963
 C132 C 0.17563 0.45782 0.97497
 H133 H 0.30505 0.48738 1.03544
 H134 H 0.37246 0.49037 1.04331
 H135 H 0.41057 0.47057 0.91851
 H136 H 0.34306 0.46770 0.91148
 H137 H 0.23290 0.52829 0.92070
 H138 H 0.16836 0.53544 0.91159
 H139 H 0.11270 0.44264 0.98333
 H140 H 0.17759 0.43631 0.99290
 C141 C -0.00545 -0.30502 0.49563
 C142 C 0.03188 -0.31557 0.48581
 C143 C 0.03568 -0.35395 0.48637
 C144 C 0.00205 -0.38238 0.49667
 C145 C -0.03529 -0.37110 0.50712
 C146 C -0.03891 -0.33279 0.50655
 C147 C -0.00989 -0.26592 0.49412
 C148 C -0.01502 -0.23356 0.49320
 C149 C -0.02267 -0.19537 0.49279
 C150 C 0.00242 -0.17006 0.46719
 C151 C -0.00546 -0.13302 0.46701
 C152 C -0.03861 -0.12096 0.49243
 C153 C -0.06368 -0.14674 0.51788
 C154 C -0.05575 -0.18364 0.51802
 H155 H 0.05801 -0.29423 0.47739
 H156 H 0.06491 -0.36133 0.47818
 H157 H -0.06192 -0.39190 0.51531
 H158 H -0.06795 -0.32490 0.51430
 H159 H 0.02800 -0.17893 0.44739
 H160 H 0.01415 -0.11397 0.44682
 H161 H -0.08906 -0.13810 0.53821
 H162 H -0.07535 -0.20300 0.53797
 C163 C 0.02021 0.31951 0.47466
 C164 C 0.05486 0.34670 0.46652
 C165 C 0.05302 0.38598 0.46916
 C166 C 0.01641 0.39855 0.48007
 C167 C -0.01825 0.37091 0.48788
 C168 C -0.01632 0.33170 0.48521
 C169 C 0.02211 0.27926 0.47350
 C170 C 0.02363 0.24564 0.47342
 C171 C 0.02566 0.20576 0.47449
 C172 C 0.06064 0.19188 0.45750
 C173 C 0.06373 0.15404 0.46127
 C174 C 0.03186 0.12958 0.48223
 C175 C -0.00360 0.14340 0.49815
 C176 C -0.00662 0.18129 0.49436
 H177 H 0.08332 0.33758 0.45846
 H178 H 0.08022 0.40649 0.46295
 H179 H -0.04690 0.37958 0.49632
 H180 H -0.04332 0.31093 0.49171
 H181 H 0.08579 0.21055 0.44202
 H182 H 0.09124 0.14406 0.44826
 H183 H -0.02848 0.12542 0.51480
 H184 H -0.03379 0.19178 0.50776
 C185 C 0.46579 -0.01684 -0.29200
 C186 C 0.47596 0.01932 -0.30644
 C187 C 0.47831 0.02225 -0.34575
 C188 C 0.47066 -0.01111 -0.37128
 C189 C 0.45978 -0.04730 -0.35611
 C190 C 0.45744 -0.05006 -0.31684
 C191 C 0.46567 -0.02024 -0.25215
 C192 C 0.46650 -0.02376 -0.21917
 C193 C 0.46873 -0.02864 -0.18033
 C194 C 0.48927 0.00106 -0.15878
 C195 C 0.49419 -0.00471 -0.12228
 C196 C 0.47869 -0.04037 -0.10689
 C197 C 0.45724 -0.06973 -0.12837
 C198 C 0.45235 -0.06388 -0.16487
 H199 H 0.48261 0.04523 -0.28744
 H200 H 0.48669 0.05061 -0.35613
 H201 H 0.45354 -0.07368 -0.37460
 H202 H 0.44965 -0.07822 -0.30597
 H203 H 0.50229 0.02836 -0.17057
 H204 H 0.51127 0.01826 -0.10668
 H205 H 0.44454 -0.09731 -0.11709
 H206 H 0.43642 -0.08708 -0.18133
 C207 C 0.49438 0.00427 0.32736
 C208 C 0.48623 -0.03151 0.34240
 C209 C 0.48574 -0.03340 0.38149
 C210 C 0.49336 0.00056 0.40613
 C211 C 0.50213 0.03638 0.39058
 C212 C 0.50259 0.03818 0.35146
 C213 C 0.49329 0.00633 0.28750
 C214 C 0.49203 0.00853 0.25431
 C215 C 0.49038 0.01208 0.21493
 C216 C 0.51260 -0.00816 0.18387
 C217 C 0.51241 -0.00305 0.14564
 C218 C 0.49008 0.02252 0.13802
 C219 C 0.46710 0.04198 0.16946
 C220 C 0.46730 0.03680 0.20761
 H221 H 0.47980 -0.05794 0.32403
 H222 H 0.47885 -0.06143 0.39252
 H223 H 0.50807 0.06304 0.40874
 H224 H 0.50891 0.06605 0.34013
 H225 H 0.53062 -0.02733 0.18920
 H226 H 0.53070 -0.01811 0.12205
 H227 H 0.44918 0.06144 0.16453
 H228 H 0.44986 0.05249 0.23141
 C229 C 0.52615 -0.31637 -0.01676
 C230 C 0.53421 -0.34088 -0.05088
 C231 C 0.53095 -0.38054 -0.04911
 C232 C 0.51946 -0.39615 -0.01311
 C233 C 0.51191 -0.37115 0.02103
 C234 C 0.51521 -0.33157 0.01917
 C235 C 0.52738 -0.27592 -0.01858
 C236 C 0.52727 -0.24223 -0.01992
 C237 C 0.52568 -0.20235 -0.02159
 C238 C 0.54310 -0.18469 -0.05570
 C239 C 0.53853 -0.14707 -0.05852
 C240 C 0.51632 -0.12667 -0.02724
 C241 C 0.50003 -0.14421 0.00738
 C242 C 0.50463 -0.18184 0.01012
 H243 H 0.54255 -0.32943 -0.07888
 H244 H 0.53697 -0.39898 -0.07590
 H245 H 0.50304 -0.38220 0.04921
 H246 H 0.50875 -0.31289 0.04575
 H247 H 0.55948 -0.20029 -0.08041
 H248 H 0.55187 -0.13414 -0.08535
 H249 H 0.48242 -0.12942 0.03177
 H250 H 0.49087 -0.19531 0.03661
 C251 C 0.49509 0.30230 0.00912
 C252 C 0.50749 0.31606 -0.02754
 C253 C 0.50741 0.35467 -0.03160
 C254 C 0.49499 0.37995 0.00105
 C255 C 0.48187 0.36556 0.03761
 C256 C 0.48194 0.32703 0.04157
 C257 C 0.49666 0.26317 0.01398
 C258 C 0.49781 0.23070 0.01933
 C259 C 0.49869 0.19225 0.02707
 C260 C 0.52524 0.17055 0.00266
 C261 C 0.52595 0.13323 0.01058
 C262 C 0.50011 0.11726 0.04309
 C263 C 0.47370 0.13945 0.06750
 C264 C 0.47304 0.17666 0.05953
 H265 H 0.51772 0.29713 -0.05285
 H266 H 0.51778 0.36488 -0.06011
 H267 H 0.47212 0.38421 0.06333
 H268 H 0.47224 0.31667 0.07007
 H269 H 0.54538 0.18245 -0.02243
 H270 H 0.54688 0.11701 -0.00851
 H271 H 0.45305 0.12775 0.09240
 H272 H 0.45237 0.19322 0.07861
 C273 C -0.32598 -0.01742 0.50338
 C274 C -0.35398 -0.05099 0.50010
 C275 C -0.39317 -0.04841 0.50137
 C276 C -0.40483 -0.01215 0.50602
 C277 C -0.37629 0.02141 0.50871
 C278 C -0.33716 0.01874 0.50741
 C279 C -0.28597 -0.02002 0.50348
 C280 C -0.25253 -0.02216 0.50388
 C281 C -0.21270 -0.02498 0.50446
 C282 C -0.20568 -0.05196 0.52600
 C283 C -0.16704 -0.05564 0.52568
 C284 C -0.13488 -0.03236 0.50372
 C285 C -0.14223 -0.00482 0.48273
 C286 C -0.18092 -0.00120 0.48309
 H287 H -0.34562 -0.07915 0.49697
 H288 H -0.41441 -0.07477 0.49928
 H289 H -0.38425 0.04976 0.51233
 H290 H -0.31573 0.04490 0.50998
 H291 H -0.23006 -0.07037 0.54280
 H292 H -0.16231 -0.07674 0.54254
 H293 H -0.11810 0.01319 0.46522
 H294 H -0.18604 0.01977 0.46629
 C295 C 0.29352 0.01498 0.53662
 C296 C 0.32199 0.04724 0.54314
 C297 C 0.36073 0.04291 0.54124
 C298 C 0.37157 0.00617 0.53270
 C299 C 0.34253 -0.02625 0.52711
 C300 C 0.30374 -0.02182 0.52898
 C301 C 0.25464 0.02017 0.53529
 C302 C 0.22276 0.02541 0.53283
 C303 C 0.18561 0.03252 0.52822
 C304 C 0.18493 0.05467 0.49893
 C305 C 0.14908 0.06096 0.49326
 C306 C 0.11331 0.04515 0.51686
 C307 C 0.11426 0.02325 0.54659
 C308 C 0.15025 0.01698 0.55221
 H309 H 0.31443 0.07586 0.54889
 H310 H 0.38233 0.06845 0.54576
 H311 H 0.34995 -0.05490 0.52047
 H312 H 0.28194 -0.04697 0.52368
 H313 H 0.21213 0.06673 0.48012
 H314 H 0.14930 0.07743 0.46977
 H315 H 0.08723 0.01106 0.56549
 H316 H 0.15048 -0.00015 0.57504
 C317 C -0.00338 0.50533 1.30328
 C318 C 0.03366 0.51201 1.31290
 C319 C 0.03660 0.51115 1.35123
 C320 C 0.00244 0.50359 1.38047
 C321 C -0.03467 0.49637 1.37039
 C322 C -0.03752 0.49726 1.33201
 C323 C -0.00638 0.50735 1.26405
 C324 C -0.00906 0.50914 1.23124
 C325 C -0.01266 0.51106 1.19219
 C326 C 0.00849 0.48976 1.16129
 C327 C 0.00366 0.49026 1.12351
 C328 C -0.02249 0.51204 1.11620
 C329 C -0.04302 0.53398 1.14737
 C330 C -0.03812 0.53345 1.18512
 H331 H 0.06026 0.51826 1.29086
 H332 H 0.06561 0.51686 1.35802
 H333 H -0.06151 0.49052 1.39220
 H334 H -0.06635 0.49202 1.32483
 H335 H 0.02821 0.47227 1.16648
 H336 H 0.01947 0.47270 1.10018
 H337 H -0.06299 0.55138 1.14256
 H338 H -0.05454 0.55015 1.20885
 C339 C 0.02744 0.52298 0.67709
 C340 C 0.06105 0.53063 0.64769
 C341 C 0.05746 0.52856 0.60915
 C342 C 0.02013 0.51874 0.59948
 C343 C -0.01354 0.51146 0.62930
 C344 C -0.00986 0.51355 0.66785
 C345 C 0.03142 0.52362 0.71651
 C346 C 0.03499 0.52344 0.74935
 C347 C 0.03939 0.52225 0.78832
 C348 C 0.07469 0.53970 0.79956
 C349 C 0.07970 0.53668 0.83680
 C350 C 0.04942 0.51609 0.86326
 C351 C 0.01380 0.49921 0.85186
 C352 C 0.00887 0.50227 0.81464
 H353 H 0.09008 0.53785 0.65451
 H354 H 0.08396 0.53435 0.58692
 H355 H -0.04269 0.50384 0.62284
 H356 H -0.03607 0.50746 0.69039
 H357 H 0.09851 0.55524 0.77939
 H358 H 0.10726 0.55035 0.84486
 H359 H -0.00984 0.48272 0.87135
 H360 H -0.01849 0.48847 0.80617
   
