data_POSCAR
  _audit_creation_date              2014-09-24
  _audit_creation_method            'ToBaCCo'
  _symmetry_space_group_name_H-M    'P1'
  _symmetry_Int_Tables_number       1
  _symmetry_cell_setting            triclinic
  loop_
  _symmetry_equiv_pos_as_xyz
 x,y,z
_cell_length_a 56.1248
_cell_length_b 57.8642
_cell_length_c 25.7777
_cell_angle_alpha 90.012100
_cell_angle_beta 90.011700
_cell_angle_gamma 90.036600
loop_
  _atom_site_label
  _atom_site_type_symbol
  _atom_site_fract_x
  _atom_site_fract_y
  _atom_site_fract_z
C1 C 0.19022 0.26113 0.15447
 C2 C 0.19038 0.23744 0.15444
 C3 C 0.20765 0.23061 0.18990
 N4 N 0.21771 0.24943 0.21198
 C5 C 0.20716 0.26807 0.19031
 C6 C 0.21178 0.20761 0.20649
 C7 C 0.23059 0.20172 0.24094
 C8 C 0.23269 0.18086 0.26723
 C9 C 0.25431 0.18113 0.29206
 C10 C 0.26533 0.20182 0.27926
 N11 N 0.25064 0.21437 0.24854
 C12 C 0.28887 0.20814 0.29391
 C13 C 0.29661 0.23148 0.29246
 C14 C 0.32018 0.23876 0.29492
 C15 C 0.31982 0.26243 0.29498
 C16 C 0.29613 0.26887 0.29160
 N17 N 0.28194 0.24998 0.29000
 C18 C 0.28787 0.29188 0.29279
 C19 C 0.26455 0.29805 0.27776
 C20 C 0.25387 0.31917 0.28791
 C21 C 0.23222 0.31899 0.26295
 C22 C 0.23030 0.29776 0.23827
 N23 N 0.25008 0.28510 0.24754
 C24 C 0.21125 0.29116 0.20562
 H25 H 0.17855 0.27199 0.13162
 H26 H 0.17851 0.22662 0.13201
 H27 H 0.25472 0.26970 0.22934
 H28 H 0.22027 0.16659 0.26803
 H29 H 0.26124 0.16740 0.31624
 H30 H 0.33604 0.22816 0.29610
 H31 H 0.33526 0.27363 0.29671
 H32 H 0.21944 0.33299 0.26261
 H33 H 0.25531 0.22937 0.22875
 H34 H 0.26106 0.33334 0.31042
 C35 C 0.81994 0.23797 0.19882
 C36 C 0.82000 0.26167 0.19941
 C37 C 0.79668 0.26849 0.20813
 N38 N 0.78238 0.24981 0.21268
 C39 C 0.79657 0.23112 0.20719
 C40 C 0.78870 0.29162 0.20871
 C41 C 0.76554 0.29806 0.22466
 C42 C 0.75527 0.31945 0.21542
 C43 C 0.73341 0.31930 0.23943
 C44 C 0.73092 0.29783 0.26275
 N45 N 0.75063 0.28501 0.25370
 C46 C 0.71130 0.29114 0.29371
 C47 C 0.70657 0.26799 0.30788
 C48 C 0.68883 0.26117 0.34190
 C49 C 0.68871 0.23748 0.34170
 C50 C 0.70665 0.23049 0.30801
 N51 N 0.71733 0.24926 0.28707
 C52 C 0.71114 0.20731 0.29265
 C53 C 0.73049 0.20101 0.25989
 C54 C 0.73382 0.17932 0.23780
 C55 C 0.75561 0.17961 0.21360
 C56 C 0.76530 0.20131 0.22198
 N57 N 0.74996 0.21420 0.25029
 C58 C 0.78853 0.20799 0.20680
 H59 H 0.83533 0.22704 0.19277
 H60 H 0.83544 0.27260 0.19390
 H61 H 0.75394 0.22993 0.26762
 H62 H 0.76277 0.33373 0.19378
 H63 H 0.72082 0.33346 0.23985
 H64 H 0.67684 0.27209 0.36380
 H65 H 0.67627 0.22680 0.36295
 H66 H 0.76365 0.16523 0.19325
 H67 H 0.75481 0.26936 0.27123
 H68 H 0.72224 0.16442 0.23995
 C69 C 0.69062 0.73824 0.65586
 C70 C 0.69040 0.76196 0.65627
 C71 C 0.70701 0.76882 0.69297
 N72 N 0.71734 0.75016 0.71500
 C73 C 0.70736 0.73146 0.69235
 C74 C 0.71126 0.79187 0.70827
 C75 C 0.73052 0.79826 0.74055
 C76 C 0.73271 0.81937 0.76558
 C77 C 0.75457 0.81936 0.78972
 C78 C 0.76509 0.79825 0.77872
 N79 N 0.75032 0.78548 0.74883
 C80 C 0.78854 0.79197 0.79256
 C81 C 0.79679 0.76895 0.79041
 C82 C 0.82050 0.76249 0.79288
 C83 C 0.82085 0.73881 0.79224
 C84 C 0.79728 0.73155 0.79035
 N85 N 0.78259 0.75007 0.78878
 C86 C 0.78952 0.70821 0.79170
 C87 C 0.76595 0.70201 0.77712
 C88 C 0.75460 0.68155 0.79075
 C89 C 0.73278 0.68159 0.76665
 C90 C 0.73116 0.70222 0.73960
 N91 N 0.75138 0.71465 0.74634
 C92 C 0.71185 0.70845 0.70737
 H93 H 0.67956 0.72726 0.63187
 H94 H 0.67915 0.77288 0.63259
 H95 H 0.75599 0.72968 0.72653
 H96 H 0.72000 0.83343 0.76594
 H97 H 0.76200 0.83343 0.81220
 H98 H 0.83595 0.77368 0.79444
 H99 H 0.83671 0.72820 0.79271
 H100 H 0.71955 0.66801 0.76894
 H101 H 0.75475 0.77014 0.73012
 H102 H 0.76132 0.66795 0.81558
 C103 C 0.30842 0.73811 0.65342
 C104 C 0.30841 0.76183 0.65341
 C105 C 0.29220 0.76863 0.69098
 N106 N 0.28230 0.74996 0.71384
 C107 C 0.29221 0.73130 0.69099
 C108 C 0.28822 0.79158 0.70704
 C109 C 0.26935 0.79768 0.74055
 C110 C 0.26819 0.81802 0.76877
 C111 C 0.24654 0.81803 0.79365
 C112 C 0.23488 0.79785 0.77920
 N113 N 0.24908 0.78537 0.74739
 C114 C 0.21121 0.79185 0.79307
 C115 C 0.20327 0.76862 0.79021
 C116 C 0.17962 0.76174 0.78777
 C117 C 0.17961 0.73808 0.78769
 C118 C 0.20324 0.73120 0.79008
 N119 N 0.21775 0.74991 0.79091
 C120 C 0.21115 0.70796 0.79282
 C121 C 0.23481 0.70198 0.77895
 C122 C 0.24645 0.68179 0.79333
 C123 C 0.26813 0.68184 0.76856
 C124 C 0.26933 0.70221 0.74044
 N125 N 0.24905 0.71449 0.74726
 C126 C 0.28824 0.70834 0.70706
 H127 H 0.31934 0.72715 0.62911
 H128 H 0.31933 0.77280 0.62910
 H129 H 0.24411 0.72929 0.72694
 H130 H 0.28157 0.83145 0.77122
 H131 H 0.24009 0.83146 0.81925
 H132 H 0.16400 0.77263 0.78543
 H133 H 0.16396 0.72719 0.78528
 H134 H 0.28150 0.66841 0.77099
 H135 H 0.24411 0.77059 0.72700
 H136 H 0.23997 0.66833 0.81884
 O137 O 1.02385 -0.02799 0.01717
 O138 O 0.97750 0.01308 0.05845
 O139 O 0.97750 -0.02799 0.01703
 O140 O 1.02386 0.01311 0.05853
 O141 O 1.02389 0.02870 -0.01953
 O142 O 0.97755 -0.01240 -0.06103
 O143 O 0.97754 0.02867 -0.01960
 O144 O 1.02390 -0.01240 -0.06088
 Cu145 Cu 1.00068 -0.00901 0.04562
 Cu146 Cu 1.00073 0.00971 -0.04808
 C147 C 1.03177 -0.02728 -0.02897
 C148 C 0.96961 0.02795 0.02653
 C149 C 0.96962 -0.02728 -0.02916
 C150 C 1.03178 0.02799 0.02665
 O151 O 0.52306 0.47130 0.51938
 O152 O 0.47685 0.51242 0.56126
 O153 O 0.47670 0.47145 0.51936
 O154 O 0.52322 0.51230 0.56124
 O155 O 0.52325 0.52808 0.48336
 O156 O 0.47674 0.48723 0.44149
 O157 O 0.47690 0.52820 0.48339
 O158 O 0.52309 0.48708 0.44151
 Cu159 Cu 0.49996 0.49029 0.54811
 Cu160 Cu 0.50001 0.50923 0.45464
 C161 C 0.53095 0.47210 0.47322
 C162 C 0.46899 0.52738 0.52953
 C163 C 0.46878 0.47231 0.47322
 C164 C 0.53117 0.52723 0.52950
 O165 O -0.02314 0.52829 0.01679
 O166 O 0.02309 0.48711 0.05827
 O167 O 0.02321 0.52819 0.01685
 O168 O -0.02327 0.48724 0.05827
 O169 O -0.02332 0.47160 -0.01977
 O170 O 0.02317 0.51256 -0.06119
 O171 O 0.02304 0.47148 -0.01977
 O172 O -0.02319 0.51265 -0.06124
 Cu173 Cu -0.00002 0.50927 0.04536
 Cu174 Cu -0.00008 0.49051 -0.04831
 C175 C -0.03105 0.52756 -0.02937
 C176 C 0.03094 0.47220 0.02639
 C177 C 0.03112 0.52744 -0.02930
 C178 C -0.03122 0.47236 0.02639
 O179 O 0.47671 1.02890 0.51971
 O180 O 0.52307 0.98788 0.56131
 O181 O 0.52307 1.02890 0.51961
 O182 O 0.47670 0.98790 0.56151
 O183 O 0.47663 0.97217 0.48358
 O184 O 0.52300 1.01315 0.44169
 O185 O 0.52299 0.97214 0.48338
 O186 O 0.47665 1.01315 0.44178
 Cu187 Cu 0.49990 1.00997 0.54835
 Cu188 Cu 0.49981 0.99107 0.45481
 C189 C 0.46878 1.02809 0.47358
 C190 C 0.53093 0.97294 0.52950
 C191 C 0.53094 1.02809 0.47343
 C192 C 0.46875 0.97298 0.52975
 C193 C 1.17945 0.16641 0.12078
 C194 C 1.16364 0.15623 0.15601
 C195 C 1.16392 0.16303 0.20813
 C196 C 1.17993 0.17994 0.22501
 C197 C 1.19596 0.19020 0.18990
 C198 C 1.19549 0.18334 0.13755
 C199 C 1.14693 0.13902 0.13862
 C200 C 1.13283 0.12468 0.12415
 C201 C 1.11620 0.10798 0.10733
 C202 C 1.10187 0.09382 0.09305
 C203 C 1.08461 0.07703 0.07611
 C204 C 1.07613 0.06032 0.11075
 C205 C 1.05904 0.04425 0.09461
 C206 C 1.05020 0.04471 0.04352
 C207 C 1.05895 0.06150 0.00891
 C208 C 1.07603 0.07755 0.02516
 H209 H 1.17934 0.16132 0.08033
 H210 H 1.15165 0.15536 0.23565
 H211 H 1.17963 0.18526 0.26531
 H212 H 1.20762 0.19103 0.10978
 H213 H 1.08264 0.05977 0.15030
 H214 H 1.05269 0.03156 0.12220
 H215 H 1.05252 0.06233 -0.03065
 H216 H 1.08246 0.09042 -0.00196
 C217 C 0.68688 0.65453 0.64380
 C218 C 0.66290 0.65565 0.65864
 C219 C 0.65497 0.67393 0.68978
 C220 C 0.67090 0.69107 0.70583
 C221 C 0.69493 0.69013 0.69072
 C222 C 0.70284 0.67168 0.65981
 C223 C 0.64637 0.63820 0.64163
 C224 C 0.63236 0.62373 0.62735
 C225 C 0.61578 0.60696 0.61062
 C226 C 0.60146 0.59279 0.59634
 C227 C 0.58418 0.57603 0.57930
 C228 C 0.57568 0.55927 0.61379
 C229 C 0.55854 0.54328 0.59755
 C230 C 0.54966 0.54387 0.54650
 C231 C 0.55843 0.56071 0.51203
 C232 C 0.57556 0.57668 0.52838
 H233 H 0.69320 0.64046 0.61974
 H234 H 0.63647 0.67495 0.70153
 H235 H 0.66455 0.70509 0.72996
 H236 H 0.72131 0.67068 0.64789
 H237 H 0.58222 0.55864 0.65332
 H238 H 0.55217 0.53055 0.62504
 H239 H 0.55196 0.56164 0.47250
 H240 H 0.58200 0.58960 0.50137
 C241 C -0.17127 0.34440 0.20722
 C242 C -0.16322 0.34432 0.15579
 C243 C -0.17111 0.32717 0.12150
 C244 C -0.18687 0.31008 0.13861
 C245 C -0.19484 0.30998 0.19025
 C246 C -0.18703 0.32731 0.22439
 C247 C -0.14663 0.36163 0.13841
 C248 C -0.13257 0.37600 0.12391
 C249 C -0.11594 0.39269 0.10704
 C250 C -0.10159 0.40682 0.09274
 C251 C -0.08428 0.42355 0.07579
 C252 C -0.07566 0.42295 0.02487
 C253 C -0.05850 0.43892 0.00864
 C254 C -0.04972 0.45571 0.04323
 C255 C -0.05860 0.45625 0.09428
 C256 C -0.07576 0.44026 0.11040
 H257 H -0.16527 0.35758 0.23408
 H258 H -0.16500 0.32695 0.08163
 H259 H -0.19282 0.29689 0.11174
 H260 H -0.19301 0.32745 0.26434
 H261 H -0.08211 0.41007 -0.00222
 H262 H -0.05204 0.43803 -0.03088
 H263 H -0.05222 0.46894 0.12186
 H264 H -0.08229 0.44087 0.14992
 C265 C 0.31300 0.84595 0.64513
 C266 C 0.33717 0.84435 0.65823
 C267 C 0.34530 0.82558 0.68757
 C268 C 0.32938 0.80843 0.70360
 C269 C 0.30516 0.80986 0.69027
 C270 C 0.29706 0.82879 0.66112
 C271 C 0.35367 0.86184 0.64134
 C272 C 0.36766 0.87634 0.62718
 C273 C 0.38422 0.89315 0.61058
 C274 C 0.39852 0.90735 0.59639
 C275 C 0.41579 0.92412 0.57942
 C276 C 0.42437 0.92353 0.52848
 C277 C 0.44150 0.93951 0.51218
 C278 C 0.45029 0.95631 0.54672
 C279 C 0.44145 0.95685 0.59779
 C280 C 0.42432 0.94085 0.61399
 H281 H 0.30652 0.86040 0.62247
 H282 H 0.36395 0.82418 0.69797
 H283 H 0.33590 0.79403 0.72638
 H284 H 0.27843 0.83017 0.65058
 H285 H 0.41791 0.91063 0.50141
 H286 H 0.44793 0.93861 0.47263
 H287 H 0.44784 0.96956 0.62533
 H288 H 0.41781 0.94145 0.65354
 C289 C -0.17675 0.65250 -0.20128
 C290 C -0.16263 0.65617 -0.15733
 C291 C -0.16450 0.67695 -0.12993
 C292 C -0.18031 0.69406 -0.14651
 C293 C -0.19456 0.69074 -0.19103
 C294 C -0.19260 0.66958 -0.21797
 C295 C -0.14605 0.63874 -0.14057
 C296 C -0.13201 0.62429 -0.12646
 C297 C -0.11541 0.60754 -0.10989
 C298 C -0.10109 0.59336 -0.09572
 C299 C -0.08384 0.57658 -0.07881
 C300 C -0.07524 0.57712 -0.02787
 C301 C -0.05816 0.56110 -0.01164
 C302 C -0.04944 0.54429 -0.04624
 C303 C -0.05831 0.54381 -0.09731
 C304 C -0.07539 0.55986 -0.11344
 H305 H -0.17537 0.63650 -0.22291
 H306 H -0.15375 0.67991 -0.09565
 H307 H -0.18175 0.70975 -0.12379
 H308 H -0.20288 0.66648 -0.25286
 H309 H -0.08164 0.59001 -0.00076
 H310 H -0.05171 0.56194 0.02791
 H311 H -0.05198 0.53111 -0.12490
 H312 H -0.08191 0.55930 -0.15299
 C313 C 0.33463 1.17692 0.37295
 C314 C 0.33687 1.15629 0.34513
 C315 C 0.32309 1.15271 0.30064
 C316 C 0.30720 1.16974 0.28384
 C317 C 0.30485 1.19073 0.31125
 C318 C 0.31878 1.19399 0.35626
 C319 C 0.35349 1.13892 0.36202
 C320 C 0.36756 1.12451 0.37620
 C321 C 0.38419 1.10780 0.39282
 C322 C 0.39854 1.09366 0.40702
 C323 C 0.41584 1.07693 0.42397
 C324 C 0.42434 1.06021 0.38940
 C325 C 0.44147 1.04422 0.40558
 C326 C 0.45034 1.04476 0.45665
 C327 C 0.44158 1.06157 0.49119
 C328 C 0.42446 1.07754 0.47491
 H329 H 0.34513 1.17982 0.40763
 H330 H 0.32475 1.13683 0.27868
 H331 H 0.29717 1.16672 0.24856
 H332 H 0.31706 1.20958 0.37922
 H333 H 0.41781 1.05960 0.34986
 H334 H 0.44783 1.03151 0.37803
 H335 H 0.44803 1.06247 0.53073
 H336 H 0.41802 1.09043 0.50197
 C337 C 1.17819 -0.15203 -0.19865
 C338 C 1.16317 -0.15616 -0.15638
 C339 C 1.16415 -0.17739 -0.13059
 C340 C 1.18001 -0.19449 -0.14706
 C341 C 1.19525 -0.19067 -0.18979
 C342 C 1.19410 -0.16909 -0.21522
 C343 C 1.14659 -0.13872 -0.13970
 C344 C 1.13257 -0.12424 -0.12568
 C345 C 1.11600 -0.10743 -0.10921
 C346 C 1.10172 -0.09321 -0.09512
 C347 C 1.08451 -0.07638 -0.07826
 C348 C 1.07594 -0.07685 -0.02730
 C349 C 1.05890 -0.06078 -0.01110
 C350 C 1.05017 -0.04402 -0.04578
 C351 C 1.05900 -0.04361 -0.09687
 C352 C 1.07604 -0.05969 -0.11296
 H353 H 1.17748 -0.13569 -0.21910
 H354 H 1.15267 -0.18073 -0.09764
 H355 H 1.18071 -0.21056 -0.12558
 H356 H 1.20502 -0.16561 -0.24897
 H357 H 1.08236 -0.08971 -0.00013
 H358 H 1.05248 -0.06158 0.02847
 H359 H 1.05265 -0.03094 -0.12452
 H360 H 1.08254 -0.05919 -0.15253
 C361 C 0.68560 0.34361 0.36155
 C362 C 0.66214 0.34353 0.34300
 C363 C 0.65480 0.32643 0.30802
 C364 C 0.67082 0.30941 0.29179
 C365 C 0.69431 0.30932 0.31057
 C366 C 0.70163 0.32659 0.34539
 C367 C 0.64553 0.36087 0.36015
 C368 C 0.63150 0.37527 0.37458
 C369 C 0.61496 0.39201 0.39151
 C370 C 0.60071 0.40619 0.40595
 C371 C 0.58353 0.42301 0.42312
 C372 C 0.57510 0.43981 0.38868
 C373 C 0.55810 0.45589 0.40504
 C374 C 0.54929 0.45535 0.45614
 C375 C 0.55799 0.43847 0.49056
 C376 C 0.57500 0.42241 0.47410
 H377 H 0.69146 0.35677 0.38861
 H378 H 0.63671 0.32622 0.29339
 H379 H 0.66495 0.29627 0.26472
 H380 H 0.71970 0.32676 0.36014
 H381 H 0.58158 0.44042 0.34912
 H382 H 0.55178 0.46865 0.37759
 H383 H 0.55159 0.43758 0.53013
 H384 H 0.58139 0.40946 0.50106
 C385 C 0.82730 -0.15433 -0.20636
 C386 C 0.83729 -0.15545 -0.15664
 C387 C 0.83116 -0.17363 -0.12334
 C388 C 0.81518 -0.19067 -0.13974
 C389 C 0.80520 -0.18970 -0.18967
 C390 C 0.81133 -0.17138 -0.22283
 C391 C 0.85405 -0.13814 -0.13997
 C392 C 0.86821 -0.12377 -0.12595
 C393 C 0.88494 -0.10708 -0.10950
 C394 C 0.89934 -0.09295 -0.09541
 C395 C 0.91668 -0.07622 -0.07856
 C396 C 0.92526 -0.07674 -0.02760
 C397 C 0.94239 -0.06074 -0.01138
 C398 C 0.95118 -0.04399 -0.04603
 C399 C 0.94236 -0.04354 -0.09714
 C400 C 0.92523 -0.05957 -0.11325
 H401 H 0.83195 -0.14037 -0.23246
 H402 H 0.83879 -0.17466 -0.08480
 H403 H 0.81060 -0.20465 -0.11363
 H404 H 0.80386 -0.17041 -0.26151
 H405 H 0.91878 -0.08958 -0.00045
 H406 H 0.94880 -0.06156 0.02819
 H407 H 0.94875 -0.03088 -0.12477
 H408 H 0.91872 -0.05903 -0.15281
 C409 C 0.32655 0.34563 0.29440
 C410 C 0.33619 0.34466 0.34446
 C411 C 0.32982 0.32659 0.37783
 C412 C 0.31396 0.30950 0.36116
 C413 C 0.30435 0.31031 0.31087
 C414 C 0.31070 0.32854 0.27765
 C415 C 0.35290 0.36198 0.36137
 C416 C 0.36704 0.37633 0.37556
 C417 C 0.38377 0.39297 0.39220
 C418 C 0.39819 0.40705 0.40644
 C419 C 0.41559 0.42370 0.42344
 C420 C 0.42423 0.42300 0.47434
 C421 C 0.44143 0.43890 0.49068
 C422 C 0.45025 0.45571 0.45622
 C423 C 0.44136 0.45635 0.40519
 C424 C 0.42414 0.44043 0.38895
 H425 H 0.33139 0.35952 0.26825
 H426 H 0.33719 0.32566 0.41663
 H427 H 0.30921 0.29560 0.38731
 H428 H 0.30351 0.32938 0.23870
 H429 H 0.41774 0.41010 0.50135
 H430 H 0.44791 0.43793 0.53020
 H431 H 0.44776 0.46906 0.37771
 H432 H 0.41759 0.44111 0.34944
 C433 C 0.17804 0.65184 -0.19913
 C434 C 0.16303 0.65595 -0.15684
 C435 C 0.16405 0.67716 -0.13095
 C436 C 0.17994 0.69426 -0.14736
 C437 C 0.19517 0.69047 -0.19011
 C438 C 0.19398 0.66890 -0.21564
 C439 C 0.14641 0.63851 -0.14021
 C440 C 0.13235 0.62405 -0.12619
 C441 C 0.11572 0.60729 -0.10969
 C442 C 0.10138 0.59311 -0.09556
 C443 C 0.08409 0.57634 -0.07868
 C444 C 0.07553 0.57687 -0.02771
 C445 C 0.05840 0.56086 -0.01149
 C446 C 0.04959 0.54411 -0.04615
 C447 C 0.05842 0.54365 -0.09724
 C448 C 0.07554 0.55967 -0.11335
 H449 H 0.17730 0.63551 -0.21965
 H450 H 0.15258 0.68048 -0.09798
 H451 H 0.18067 0.71032 -0.12580
 H452 H 0.20490 0.66544 -0.24940
 H453 H 0.08200 0.58971 -0.00056
 H454 H 0.05198 0.56170 0.02807
 H455 H 0.05201 0.53099 -0.12487
 H456 H 0.08203 0.55912 -0.15292
 C457 C 0.66432 1.16167 0.29049
 C458 C 0.66297 1.15594 0.34316
 C459 C 0.67774 1.16715 0.37898
 C460 C 0.69378 1.18407 0.36225
 C461 C 0.69527 1.18994 0.30938
 C462 C 0.68034 1.17858 0.27366
 C463 C 0.64623 1.13875 0.36051
 C464 C 0.63210 1.12445 0.37501
 C465 C 0.61544 1.10781 0.39194
 C466 C 0.60109 1.09369 0.40634
 C467 C 0.58380 1.07696 0.42345
 C468 C 0.57526 1.07759 0.47442
 C469 C 0.55817 1.06160 0.49084
 C470 C 0.54937 1.04476 0.45639
 C471 C 0.55818 1.04420 0.40528
 C472 C 0.57527 1.06021 0.38897
 H473 H 0.65289 1.15317 0.26249
 H474 H 0.67681 1.16286 0.41983
 H475 H 0.70512 1.19254 0.39048
 H476 H 0.68089 1.18304 0.23285
 H477 H 0.58173 1.09050 0.50142
 H478 H 0.55176 1.06251 0.53041
 H479 H 0.55179 1.03147 0.37780
 H480 H 0.58176 1.05958 0.34940
 C481 C 0.18591 0.34411 0.13901
 C482 C 0.16212 0.34339 0.15534
 C483 C 0.15442 0.32566 0.18830
 C484 C 0.17042 0.30867 0.20477
 C485 C 0.19426 0.30925 0.18828
 C486 C 0.20193 0.32712 0.15544
 C487 C 0.14556 0.36076 0.13813
 C488 C 0.13157 0.37520 0.12376
 C489 C 0.11503 0.39197 0.10700
 C490 C 0.10078 0.40619 0.09275
 C491 C 0.08359 0.42304 0.07582
 C492 C 0.07520 0.43979 0.11045
 C493 C 0.05817 0.45589 0.09432
 C494 C 0.04930 0.45543 0.04325
 C495 C 0.05797 0.43860 0.00865
 C496 C 0.07499 0.42252 0.02488
 H497 H 0.19206 0.35776 0.11354
 H498 H 0.13607 0.32496 0.20120
 H499 H 0.16426 0.29507 0.23032
 H500 H 0.22027 0.32781 0.14246
 H501 H 0.08172 0.44033 0.14999
 H502 H 0.05189 0.46861 0.12191
 H503 H 0.05151 0.43777 -0.03090
 H504 H 0.08135 0.40961 -0.00223
 C505 C 0.68623 0.84528 0.64291
 C506 C 0.66232 0.84434 0.65834
 C507 C 0.65445 0.82633 0.69032
 C508 C 0.67039 0.80928 0.70672
 C509 C 0.69435 0.81007 0.69115
 C510 C 0.70219 0.82822 0.65927
 C511 C 0.64581 0.86176 0.64117
 C512 C 0.63183 0.87622 0.62683
 C513 C 0.61530 0.89300 0.61011
 C514 C 0.60102 0.90720 0.59588
 C515 C 0.58379 0.92400 0.57895
 C516 C 0.57537 0.94075 0.61354
 C517 C 0.55827 0.95678 0.59741
 C518 C 0.54937 0.95626 0.54637
 C519 C 0.55807 0.93943 0.51180
 C520 C 0.57516 0.92342 0.52803
 H521 H 0.69251 0.85914 0.61817
 H522 H 0.63600 0.82546 0.70251
 H523 H 0.66409 0.79546 0.73151
 H524 H 0.72062 0.82907 0.64694
 H525 H 0.58191 0.94133 0.65306
 H526 H 0.55196 0.96950 0.62498
 H527 H 0.55160 0.93855 0.47227
 H528 H 0.58155 0.91051 0.50095
 C529 C 0.82936 0.15586 0.20609
 C530 C 0.83718 0.15573 0.15449
 C531 C 0.82891 0.17256 0.11986
 C532 C 0.81297 0.18951 0.13678
 C533 C 0.80520 0.18979 0.18856
 C534 C 0.81342 0.17281 0.22307
 C535 C 0.85392 0.13853 0.13729
 C536 C 0.86807 0.12423 0.12299
 C537 C 0.88480 0.10760 0.10637
 C538 C 0.89921 0.09351 0.09227
 C539 C 0.91658 0.07680 0.07553
 C540 C 0.92525 0.07736 0.02466
 C541 C 0.94241 0.06139 0.00858
 C542 C 0.95115 0.04463 0.04327
 C543 C 0.94223 0.04415 0.09429
 C544 C 0.92506 0.06014 0.11026
 H545 H 0.83566 0.14293 0.23320
 H546 H 0.83485 0.17263 0.07987
 H547 H 0.80672 0.20247 0.10968
 H548 H 0.80760 0.17281 0.26312
 H549 H 0.91882 0.09020 -0.00253
 H550 H 0.94891 0.06224 -0.03093
 H551 H 0.94857 0.03149 0.12195
 H552 H 0.91848 0.05957 0.14976
 C553 C 0.34542 0.67456 0.68782
 C554 C 0.33736 0.65577 0.65842
 C555 C 0.31321 0.65406 0.64527
 C556 C 0.29720 0.67114 0.66123
 C557 C 0.30523 0.69011 0.69041
 C558 C 0.32943 0.69164 0.70383
 C559 C 0.35394 0.63836 0.64147
 C560 C 0.36797 0.62393 0.62723
 C561 C 0.38457 0.60720 0.61054
 C562 C 0.39889 0.59304 0.59629
 C563 C 0.41615 0.57629 0.57929
 C564 C 0.42462 0.55954 0.61381
 C565 C 0.44172 0.54352 0.59758
 C566 C 0.45058 0.54408 0.54652
 C567 C 0.44185 0.56092 0.51203
 C568 C 0.42476 0.57691 0.52837
 H569 H 0.36406 0.67604 0.69827
 H570 H 0.30679 0.63958 0.62257
 H571 H 0.27858 0.66969 0.65063
 H572 H 0.33589 0.70606 0.72665
 H573 H 0.41809 0.55891 0.65333
 H574 H 0.44806 0.53079 0.62508
 H575 H 0.44830 0.56183 0.47250
 H576 H 0.41834 0.58983 0.50134
   
