data_POSCAR
  _audit_creation_date              2014-09-24
  _audit_creation_method            'ToBaCCo'
  _symmetry_space_group_name_H-M    'P1'
  _symmetry_Int_Tables_number       1
  _symmetry_cell_setting            triclinic
  loop_
  _symmetry_equiv_pos_as_xyz
 x,y,z
_cell_length_a 53.0049
_cell_length_b 42.9694
_cell_length_c 52.8533
_cell_angle_alpha 90.600300
_cell_angle_beta 89.886000
_cell_angle_gamma 90.222200
loop_
  _atom_site_label
  _atom_site_type_symbol
  _atom_site_fract_x
  _atom_site_fract_y
  _atom_site_fract_z
C1 C 0.29965 0.27232 0.23515
 H2 H 0.30838 0.25777 0.24914
 C3 C 0.31480 0.29037 0.21934
 H4 H 0.33508 0.28993 0.22170
 C5 C 0.26273 0.29048 0.21495
 H6 H 0.24240 0.29007 0.21323
 C7 C 0.27715 0.30892 0.19878
 H8 H 0.26774 0.32252 0.18451
 N9 N 0.27410 0.27291 0.23285
 C10 C 0.21793 0.25865 0.29198
 H11 H 0.21832 0.23354 0.29325
 C12 C 0.20246 0.27592 0.30821
 H13 H 0.19110 0.26390 0.32210
 C14 C 0.23301 0.30474 0.27281
 H15 H 0.24514 0.31593 0.25920
 C16 C 0.21782 0.32293 0.28867
 H17 H 0.21810 0.34798 0.28671
 Zn18 Zn 0.25326 0.24795 0.25357
 N19 N 0.23258 0.27318 0.27453
 C20 C 0.28644 0.23820 0.29353
 N21 N 0.27323 0.22317 0.27504
 C22 C 0.27376 0.19162 0.27269
 C23 C 0.28844 0.17397 0.28908
 C24 C 0.30120 0.22146 0.31042
 C25 C 0.20756 0.22379 0.23315
 C26 C 0.19294 0.20615 0.21632
 C27 C 0.23126 0.18713 0.19689
 C28 C 0.24515 0.20509 0.21411
 N29 N 0.23318 0.22280 0.23187
 H30 H 0.28547 0.26329 0.29512
 H31 H 0.26271 0.18003 0.25824
 H32 H 0.28852 0.14886 0.28708
 H33 H 0.31180 0.23386 0.32486
 H34 H 0.19835 0.23862 0.24691
 H35 H 0.17258 0.20766 0.21737
 H36 H 0.24115 0.17298 0.18304
 H37 H 0.26554 0.20510 0.21327
 C38 C 0.20221 0.30853 0.30663
 C39 C 0.30356 0.30904 0.20088
 C40 C 0.20478 0.18758 0.19782
 C41 C 0.30236 0.18891 0.30827
 C42 C 0.79184 0.80035 0.23396
 H43 H 0.79313 0.80399 0.25421
 C44 C 0.80671 0.81816 0.21766
 H45 H 0.81858 0.83595 0.22605
 C46 C 0.77367 0.77336 0.19929
 H47 H 0.76133 0.75527 0.19215
 C48 C 0.78813 0.79053 0.18230
 H49 H 0.78664 0.78441 0.16248
 N50 N 0.77537 0.77889 0.22457
 C51 C 0.71862 0.76760 0.28375
 H52 H 0.71860 0.74248 0.28498
 C53 C 0.70262 0.78510 0.29925
 H54 H 0.69058 0.77322 0.31264
 C55 C 0.73481 0.81340 0.26503
 H56 H 0.74708 0.82432 0.25138
 C57 C 0.71907 0.83185 0.28019
 H58 H 0.71944 0.85687 0.27803
 Zn59 Zn 0.75538 0.75556 0.24742
 N60 N 0.73455 0.78190 0.26733
 C61 C 0.77796 0.73866 0.29386
 N62 N 0.77748 0.73295 0.26850
 C63 C 0.79306 0.71153 0.25766
 C64 C 0.80908 0.69374 0.27264
 C65 C 0.79389 0.72169 0.30949
 C66 C 0.71635 0.74177 0.21384
 C67 C 0.70008 0.72342 0.19923
 C68 C 0.71868 0.67761 0.21749
 C69 C 0.73465 0.69688 0.23173
 N70 N 0.73358 0.72833 0.22927
 H71 H 0.76599 0.75637 0.30208
 H72 H 0.79273 0.70794 0.23737
 H73 H 0.82112 0.67647 0.26378
 H74 H 0.79366 0.72612 0.32970
 H75 H 0.71565 0.76686 0.21252
 H76 H 0.68713 0.73463 0.18644
 H77 H 0.71983 0.65263 0.21967
 H78 H 0.74784 0.68661 0.24471
 C79 C 0.70277 0.81771 0.29768
 C80 C 0.80492 0.81382 0.19116
 C81 C 0.70127 0.69084 0.20075
 C82 C 0.80949 0.69864 0.29894
 C83 C 0.78164 0.29623 0.73534
 H84 H 0.78262 0.30062 0.75551
 C85 C 0.79633 0.31387 0.71880
 H86 H 0.80830 0.33213 0.72642
 C87 C 0.76444 0.26736 0.70102
 H88 H 0.75239 0.24882 0.69416
 C89 C 0.77888 0.28429 0.68384
 H90 H 0.77771 0.27849 0.66389
 N91 N 0.76569 0.27395 0.72622
 C92 C 0.70960 0.26513 0.78626
 H93 H 0.70993 0.24017 0.78869
 C94 C 0.69395 0.28349 0.80148
 H95 H 0.68251 0.27246 0.81584
 C96 C 0.72465 0.30972 0.76488
 H97 H 0.73632 0.31981 0.75033
 C98 C 0.70926 0.32898 0.77969
 H99 H 0.70931 0.35380 0.77637
 Zn100 Zn 0.74584 0.25137 0.74963
 N101 N 0.72487 0.27846 0.76871
 C102 C 0.76959 0.23826 0.79625
 N103 N 0.76822 0.23022 0.77140
 C104 C 0.78344 0.20789 0.76147
 C105 C 0.79992 0.19145 0.77695
 C106 C 0.78613 0.22295 0.81238
 C107 C 0.70730 0.23565 0.71608
 C108 C 0.69139 0.21650 0.70174
 C109 C 0.70982 0.17176 0.72178
 C110 C 0.72542 0.19180 0.73574
 N111 N 0.72430 0.22309 0.73223
 H112 H 0.75781 0.25664 0.80374
 H113 H 0.78268 0.20271 0.74140
 H114 H 0.81199 0.17453 0.76778
 H115 H 0.78531 0.22944 0.83216
 H116 H 0.70654 0.26064 0.71393
 H117 H 0.67866 0.22700 0.68833
 H118 H 0.71105 0.14692 0.72474
 H119 H 0.73839 0.18225 0.74930
 C120 C 0.69378 0.31593 0.79844
 C121 C 0.79491 0.30816 0.69261
 C122 C 0.69272 0.18404 0.70427
 C123 C 0.80164 0.19852 0.80315
 C124 C 0.28475 0.78697 0.73788
 H125 H 0.28528 0.79153 0.75804
 C126 C 0.30040 0.80380 0.72164
 H127 H 0.31267 0.82163 0.72947
 C128 C 0.26767 0.75854 0.70326
 H129 H 0.25525 0.74052 0.69616
 C130 C 0.28306 0.77465 0.68638
 H131 H 0.28223 0.76875 0.66644
 N132 N 0.26839 0.76536 0.72843
 C133 C 0.20927 0.75973 0.78577
 H134 H 0.20855 0.73477 0.78817
 C135 C 0.19344 0.77892 0.80009
 H136 H 0.18084 0.76849 0.81378
 C137 C 0.22708 0.80346 0.76534
 H138 H 0.23990 0.81292 0.75149
 C139 C 0.21154 0.82353 0.77924
 H140 H 0.21264 0.84832 0.77592
 Zn141 Zn 0.24696 0.74401 0.75121
 N142 N 0.22600 0.77222 0.76917
 C143 C 0.26709 0.72893 0.79915
 N144 N 0.26767 0.72198 0.77399
 C145 C 0.28349 0.69985 0.76457
 C146 C 0.29873 0.68271 0.78081
 C147 C 0.28208 0.71250 0.81602
 C148 C 0.20894 0.72977 0.71674
 C149 C 0.19260 0.71126 0.70237
 C150 C 0.20942 0.66585 0.72286
 C151 C 0.22550 0.68527 0.73684
 N152 N 0.22529 0.71657 0.73321
 H153 H 0.25513 0.74735 0.80622
 H154 H 0.28394 0.69520 0.74442
 H155 H 0.31060 0.66454 0.77300
 H156 H 0.28141 0.71857 0.83595
 H157 H 0.20894 0.75477 0.71449
 H158 H 0.18031 0.72223 0.68880
 H159 H 0.20983 0.64100 0.72599
 H160 H 0.23806 0.67527 0.75057
 C161 C 0.19458 0.81133 0.79708
 C162 C 0.29947 0.79796 0.69545
 C163 C 0.19281 0.67879 0.70518
 C164 C 0.29796 0.68875 0.80698
 C165 C -0.02644 -0.00612 0.01498
 C166 C -0.01300 0.01041 -0.00341
 C167 C -0.02606 0.02690 -0.02195
 C168 C -0.05251 0.02684 -0.02233
 C169 C -0.06582 0.00982 -0.00409
 C170 C -0.05296 -0.00685 0.01465
 C171 C 0.01476 0.00937 -0.00401
 C172 C 0.02707 -0.00575 -0.02412
 C173 C 0.05352 -0.00699 -0.02506
 C174 C 0.06751 0.00778 -0.00580
 C175 C 0.05543 0.02357 0.01423
 C176 C 0.02893 0.02381 0.01519
 H177 H -0.01617 -0.01932 0.02894
 H178 H -0.01560 0.03951 -0.03623
 H179 H 0.01596 -0.01654 -0.03902
 H180 H 0.01925 0.03606 0.03036
 H181 H -0.08625 0.01010 -0.00422
 H182 H 0.08791 0.00642 -0.00609
 C183 C -0.03293 0.48223 0.51624
 C184 C -0.01814 0.49758 0.49822
 C185 C -0.02981 0.51379 0.47862
 C186 C -0.05621 0.51498 0.47700
 C187 C -0.07087 0.49921 0.49502
 C188 C -0.05940 0.48267 0.51472
 C189 C 0.00959 0.49655 0.49986
 C190 C 0.02368 0.48246 0.48046
 C191 C 0.05009 0.48091 0.48205
 C192 C 0.06229 0.49450 0.50305
 C193 C 0.04840 0.50906 0.52250
 C194 C 0.02195 0.50957 0.52087
 H195 H -0.02370 0.46925 0.53102
 H196 H -0.01828 0.52559 0.46470
 H197 H 0.01398 0.47254 0.46423
 H198 H 0.01089 0.52021 0.53588
 H199 H -0.09124 0.50060 0.49410
 H200 H 0.08267 0.49373 0.50425
 C201 C 0.47187 -0.02481 0.51934
 C202 C 0.48525 -0.00796 0.50108
 C203 C 0.47211 0.00900 0.48285
 C204 C 0.44565 0.00988 0.48316
 C205 C 0.43246 -0.00726 0.50144
 C206 C 0.44536 -0.02501 0.51943
 C207 C 0.51304 -0.00753 0.50136
 C208 C 0.52671 -0.02035 0.48112
 C209 C 0.55323 -0.02010 0.48132
 C210 C 0.56588 -0.00592 0.50182
 C211 C 0.55235 0.00750 0.52207
 C212 C 0.52587 0.00608 0.52183
 H213 H 0.48219 -0.03835 0.53303
 H214 H 0.48255 0.02236 0.46902
 H215 H 0.51661 -0.03058 0.46526
 H216 H 0.51512 0.01582 0.53745
 H217 H 0.41202 -0.00673 0.50163
 H218 H 0.58630 -0.00526 0.50199
 C219 C 0.47273 0.48823 0.02278
 C220 C 0.48528 0.50375 0.00322
 C221 C 0.47132 0.51895 -0.01543
 C222 C 0.44482 0.51900 -0.01455
 C223 C 0.43249 0.50283 0.00492
 C224 C 0.44626 0.48739 0.02366
 C225 C 0.51307 0.50424 0.00236
 C226 C 0.52586 0.49055 -0.01809
 C227 C 0.55235 0.49022 -0.01882
 C228 C 0.56591 0.50476 0.00090
 C229 C 0.55329 0.51902 0.02137
 C230 C 0.52679 0.51820 0.02209
 H231 H 0.48364 0.47677 0.03726
 H232 H 0.48120 0.53151 -0.03012
 H233 H 0.51508 0.47992 -0.03332
 H234 H 0.51674 0.52851 0.03794
 H235 H 0.41208 0.50166 0.00517
 H236 H 0.58633 0.50492 0.00035
 C237 C 0.14889 -0.12945 -0.15512
 C238 C 0.13898 -0.15730 -0.16525
 C239 C 0.15363 -0.17621 -0.18110
 C240 C 0.17855 -0.16779 -0.18716
 C241 C 0.18831 -0.13967 -0.17741
 C242 C 0.17364 -0.12071 -0.16161
 C243 C 0.13378 -0.11012 -0.13735
 N244 N 0.14289 -0.08258 -0.12833
 N245 N 0.12970 -0.06573 -0.11171
 C246 C 0.10683 -0.07569 -0.10334
 N247 N 0.09765 -0.10314 -0.11248
 N248 N 0.11083 -0.11998 -0.12913
 C249 C 0.09259 -0.05749 -0.08411
 C250 C 0.07012 -0.06929 -0.07368
 C251 C 0.05729 -0.05274 -0.05477
 C252 C 0.06659 -0.02397 -0.04588
 C253 C 0.08879 -0.01190 -0.05664
 C254 C 0.10165 -0.02847 -0.07550
 H255 H 0.11994 -0.16465 -0.16081
 H256 H 0.14541 -0.19746 -0.18864
 H257 H 0.20753 -0.13269 -0.18144
 H258 H 0.18192 -0.09946 -0.15412
 H259 H 0.06262 -0.09159 -0.07981
 H260 H 0.04041 -0.06284 -0.04666
 H261 H 0.09621 0.01044 -0.05050
 H262 H 0.11880 -0.01858 -0.08322
 C263 C 0.15493 0.36292 0.35662
 C264 C 0.14608 0.33482 0.34598
 C265 C 0.16137 0.31727 0.32971
 C266 C 0.18588 0.32738 0.32370
 C267 C 0.19470 0.35555 0.33423
 C268 C 0.17941 0.37312 0.35048
 C269 C 0.13885 0.38126 0.37422
 N270 N 0.14711 0.40876 0.38412
 N271 N 0.13282 0.42497 0.40026
 C272 C 0.10967 0.41437 0.40720
 N273 N 0.10138 0.38693 0.39722
 N274 N 0.11566 0.37074 0.38108
 C275 C 0.09401 0.43201 0.42565
 C276 C 0.07070 0.42005 0.43386
 C277 C 0.05634 0.43613 0.45189
 C278 C 0.06491 0.46456 0.46211
 C279 C 0.08803 0.47678 0.45363
 C280 C 0.10242 0.46069 0.43562
 H281 H 0.12730 0.32630 0.35019
 H282 H 0.15388 0.29591 0.32162
 H283 H 0.21362 0.36377 0.33024
 H284 H 0.18689 0.39458 0.35839
 H285 H 0.06365 0.39801 0.42664
 H286 H 0.03877 0.42591 0.45827
 H287 H 0.09496 0.49886 0.46088
 H288 H 0.12021 0.47068 0.42963
 C289 C 0.65532 -0.12872 0.34812
 C290 C 0.64632 -0.15627 0.33669
 C291 C 0.66154 -0.17332 0.32003
 C292 C 0.68618 -0.16329 0.31441
 C293 C 0.69504 -0.13544 0.32546
 C294 C 0.67979 -0.11834 0.34211
 C295 C 0.63952 -0.11143 0.36668
 N296 N 0.64774 -0.08430 0.37727
 N297 N 0.63382 -0.06931 0.39449
 C298 C 0.61110 -0.08083 0.40188
 N299 N 0.60283 -0.10787 0.39119
 N300 N 0.61673 -0.12283 0.37396
 C301 C 0.59591 -0.06470 0.42161
 C302 C 0.57353 -0.07823 0.43077
 C303 C 0.55962 -0.06361 0.44994
 C304 C 0.56768 -0.03505 0.46037
 C305 C 0.58986 -0.02129 0.45099
 C306 C 0.60383 -0.03596 0.43185
 H307 H 0.62752 -0.16486 0.34072
 H308 H 0.65399 -0.19439 0.31150
 H309 H 0.71402 -0.12725 0.32174
 H310 H 0.68736 -0.09725 0.35059
 H311 H 0.56689 -0.10038 0.42340
 H312 H 0.54281 -0.07504 0.45698
 H313 H 0.59637 0.00093 0.45835
 H314 H 0.62089 -0.02478 0.42516
 C315 C 0.64845 0.37277 -0.15154
 C316 C 0.67260 0.38272 -0.15908
 C317 C 0.68714 0.36452 -0.17559
 C318 C 0.67787 0.33596 -0.18496
 C319 C 0.65355 0.32630 -0.17780
 C320 C 0.63902 0.34447 -0.16128
 C321 C 0.63344 0.39135 -0.13314
 N322 N 0.61088 0.38068 -0.12454
 N323 N 0.59774 0.39684 -0.10742
 C324 C 0.60658 0.42440 -0.09817
 N325 N 0.62907 0.43518 -0.10688
 N326 N 0.64222 0.41899 -0.12398
 C327 C 0.59228 0.44186 -0.07852
 C328 C 0.60095 0.47088 -0.06949
 C329 C 0.58787 0.48678 -0.05036
 C330 C 0.56583 0.47401 -0.03980
 C331 C 0.55701 0.44519 -0.04904
 C332 C 0.57004 0.42933 -0.06818
 H333 H 0.68048 0.40435 -0.15193
 H334 H 0.70591 0.37245 -0.18051
 H335 H 0.64570 0.30467 -0.18501
 H336 H 0.62044 0.33616 -0.15602
 H337 H 0.61794 0.48130 -0.07710
 H338 H 0.59495 0.50915 -0.04391
 H339 H 0.54030 0.43450 -0.04106
 H340 H 0.56283 0.40700 -0.07459
 C341 C -0.15113 0.14822 -0.14776
 C342 C -0.15882 0.13525 -0.17093
 C343 C -0.17401 0.15208 -0.18745
 C344 C -0.18261 0.18242 -0.18113
 C345 C -0.17444 0.19516 -0.15765
 C346 C -0.15885 0.17845 -0.14145
 C347 C -0.13551 0.13013 -0.13003
 N348 N -0.12198 0.14471 -0.11156
 N349 N -0.10835 0.12840 -0.09526
 C350 C -0.10782 0.09683 -0.09663
 N351 N -0.12134 0.08225 -0.11510
 N352 N -0.13483 0.09857 -0.13152
 C353 C -0.09324 0.07870 -0.07807
 C354 C -0.09904 0.04724 -0.07380
 C355 C -0.08583 0.03041 -0.05565
 C356 C -0.06628 0.04455 -0.04176
 C357 C -0.06017 0.07581 -0.04631
 C358 C -0.07366 0.09281 -0.06413
 H359 H -0.15318 0.11190 -0.17631
 H360 H -0.18006 0.14001 -0.20443
 H361 H -0.17888 0.21869 -0.15187
 H362 H -0.15305 0.18921 -0.12377
 H363 H -0.11408 0.03575 -0.08417
 H364 H -0.09076 0.00625 -0.05257
 H365 H -0.04524 0.08724 -0.03571
 H366 H -0.06869 0.11698 -0.06707
 C367 C -0.14541 0.64261 0.34840
 C368 C -0.15924 0.62875 0.32856
 C369 C -0.17342 0.64702 0.31215
 C370 C -0.17431 0.67947 0.31541
 C371 C -0.16029 0.69338 0.33503
 C372 C -0.14587 0.67517 0.35126
 C373 C -0.13112 0.62321 0.36639
 N374 N -0.11426 0.63637 0.38263
 N375 N -0.10190 0.61907 0.39926
 C376 C -0.10598 0.58789 0.40046
 N377 N -0.12280 0.57471 0.38417
 N378 N -0.13507 0.59199 0.36745
 C379 C -0.09277 0.56883 0.41949
 C380 C -0.10096 0.53838 0.42469
 C381 C -0.08904 0.52084 0.44329
 C382 C -0.06851 0.53324 0.45687
 C383 C -0.06006 0.56345 0.45141
 C384 C -0.07214 0.58112 0.43302
 H385 H -0.15923 0.60375 0.32578
 H386 H -0.18423 0.63569 0.29730
 H387 H -0.16047 0.71839 0.33781
 H388 H -0.13545 0.68660 0.36634
 H389 H -0.11681 0.52822 0.41465
 H390 H -0.09578 0.49750 0.44700
 H391 H -0.04442 0.57366 0.46176
 H392 H -0.06532 0.60445 0.42944
 C393 C 0.34704 0.13593 0.36038
 C394 C 0.34735 0.12877 0.33436
 C395 C 0.33278 0.14587 0.31744
 C396 C 0.31777 0.17065 0.32616
 C397 C 0.31754 0.17791 0.35213
 C398 C 0.33193 0.16069 0.36906
 C399 C 0.36219 0.11763 0.37843
 N400 N 0.35912 0.12158 0.40377
 N401 N 0.37253 0.10501 0.42006
 C402 C 0.38968 0.08384 0.41172
 N403 N 0.39284 0.07994 0.38637
 N404 N 0.37935 0.09646 0.37007
 C405 C 0.40435 0.06520 0.42994
 C406 C 0.42455 0.04648 0.42173
 C407 C 0.43815 0.02873 0.43902
 C408 C 0.43168 0.02912 0.46480
 C409 C 0.41159 0.04791 0.47302
 C410 C 0.39814 0.06582 0.45582
 H411 H 0.35874 0.10985 0.32703
 H412 H 0.33349 0.13997 0.29749
 H413 H 0.30593 0.19666 0.35941
 H414 H 0.33123 0.16685 0.38896
 H415 H 0.42987 0.04552 0.40195
 H416 H 0.45347 0.01429 0.43217
 H417 H 0.40641 0.04895 0.49284
 H418 H 0.38273 0.07997 0.46282
 C419 C 0.34266 0.63593 -0.14064
 C420 C 0.35248 0.64394 -0.16444
 C421 C 0.33802 0.66100 -0.18149
 C422 C 0.31338 0.67032 -0.17515
 C423 C 0.30350 0.66197 -0.15146
 C424 C 0.31797 0.64509 -0.13441
 C425 C 0.35801 0.61837 -0.12226
 N426 N 0.34967 0.61429 -0.09821
 N427 N 0.36342 0.59874 -0.08155
 C428 C 0.38609 0.58652 -0.08821
 N429 N 0.39444 0.59052 -0.11229
 N430 N 0.38071 0.60617 -0.12896
 C431 C 0.40131 0.56930 -0.06951
 C432 C 0.42313 0.55306 -0.07693
 C433 C 0.43726 0.53668 -0.05917
 C434 C 0.42994 0.53630 -0.03359
 C435 C 0.40823 0.55275 -0.02619
 C436 C 0.39406 0.56895 -0.04392
 H437 H 0.37146 0.63736 -0.16982
 H438 H 0.34630 0.66736 -0.19946
 H439 H 0.28443 0.66823 -0.14616
 H440 H 0.30971 0.63912 -0.11634
 H441 H 0.42919 0.55275 -0.09650
 H442 H 0.45372 0.52395 -0.06554
 H443 H 0.40234 0.55346 -0.00656
 H444 H 0.37748 0.58139 -0.03748
 C445 C -0.15187 -0.13176 0.13937
 C446 C -0.14378 -0.13542 0.16443
 C447 C -0.15790 -0.15314 0.18148
 C448 C -0.18064 -0.16790 0.17400
 C449 C -0.18862 -0.16378 0.14874
 C450 C -0.17448 -0.14610 0.13180
 C451 C -0.13691 -0.11320 0.12113
 N452 N -0.14431 -0.11110 0.09662
 N453 N -0.13098 -0.09455 0.08013
 C454 C -0.10965 -0.07933 0.08739
 N455 N -0.10222 -0.08139 0.11191
 N456 N -0.11556 -0.09799 0.12843
 C457 C -0.09493 -0.06088 0.06889
 C458 C -0.07348 -0.04381 0.07644
 C459 C -0.05981 -0.02632 0.05889
 C460 C -0.06729 -0.02549 0.03340
 C461 C -0.08862 -0.04271 0.02585
 C462 C -0.10228 -0.06013 0.04335
 H463 H -0.12633 -0.12486 0.17088
 H464 H -0.15016 -0.15608 0.20020
 H465 H -0.20635 -0.17309 0.14193
 H466 H -0.18150 -0.14348 0.11271
 H467 H -0.06731 -0.04380 0.09596
 H468 H -0.04360 -0.01306 0.06535
 H469 H -0.09462 -0.04301 0.00627
 H470 H -0.11859 -0.07311 0.03679
 C471 C -0.16166 0.36264 0.63981
 C472 C -0.15137 0.35435 0.66328
 C473 C -0.16541 0.33668 0.68040
 C474 C -0.19010 0.32702 0.67450
 C475 C -0.20042 0.33552 0.65110
 C476 C -0.18636 0.35303 0.63394
 C477 C -0.14673 0.38105 0.62148
 N478 N -0.15532 0.38556 0.59760
 N479 N -0.14185 0.40186 0.58104
 C480 C -0.11923 0.41444 0.58764
 N481 N -0.11066 0.41002 0.61154
 N482 N -0.12410 0.39364 0.62809
 C483 C -0.10415 0.43234 0.56910
 C484 C -0.08234 0.44859 0.57673
 C485 C -0.06798 0.46515 0.55917
 C486 C -0.07499 0.46570 0.53353
 C487 C -0.09686 0.44955 0.52594
 C488 C -0.11130 0.43314 0.54352
 H489 H -0.13236 0.36123 0.66837
 H490 H -0.15675 0.33018 0.69811
 H491 H -0.21953 0.32896 0.64612
 H492 H -0.19494 0.35917 0.61611
 H493 H -0.07637 0.44865 0.59631
 H494 H -0.05148 0.47775 0.56573
 H495 H -0.10259 0.44910 0.50628
 H496 H -0.12791 0.42076 0.53695
 C497 C 0.34475 -0.14897 0.64326
 C498 C 0.35457 -0.15755 0.66686
 C499 C 0.33995 -0.17478 0.68382
 C500 C 0.31516 -0.18371 0.67758
 C501 C 0.30533 -0.17491 0.65405
 C502 C 0.31994 -0.15785 0.63708
 C503 C 0.36015 -0.13093 0.62507
 N504 N 0.35164 -0.12597 0.60124
 N505 N 0.36533 -0.10976 0.58482
 C506 C 0.38811 -0.09772 0.59150
 N507 N 0.39665 -0.10265 0.61535
 N508 N 0.38297 -0.11896 0.63178
 C509 C 0.40314 -0.07950 0.57313
 C510 C 0.42518 -0.06364 0.58066
 C511 C 0.43897 -0.04603 0.56328
 C512 C 0.43105 -0.04397 0.53798
 C513 C 0.40919 -0.06015 0.53042
 C514 C 0.39538 -0.07760 0.54778
 H515 H 0.37363 -0.15120 0.67218
 H516 H 0.34820 -0.18150 0.70166
 H517 H 0.28615 -0.18085 0.64883
 H518 H 0.31168 -0.15146 0.61917
 H519 H 0.43165 -0.06452 0.60006
 H520 H 0.45558 -0.03358 0.56975
 H521 H 0.40286 -0.05958 0.51097
 H522 H 0.37862 -0.08971 0.54124
 C523 C 0.34888 0.36468 0.15063
 C524 C 0.35653 0.33455 0.15725
 C525 C 0.34191 0.31658 0.17363
 C526 C 0.31928 0.32830 0.18376
 C527 C 0.31170 0.35847 0.17727
 C528 C 0.32633 0.37646 0.16092
 C529 C 0.36414 0.38354 0.13286
 N530 N 0.35663 0.41251 0.12622
 N531 N 0.37006 0.42923 0.10990
 C532 C 0.39160 0.41772 0.09952
 N533 N 0.39917 0.38880 0.10624
 N534 N 0.38573 0.37207 0.12256
 C535 C 0.40617 0.43604 0.08083
 C536 C 0.42815 0.42381 0.06964
 C537 C 0.44136 0.44065 0.05137
 C538 C 0.43289 0.47007 0.04386
 C539 C 0.41116 0.48252 0.05532
 C540 C 0.39797 0.46572 0.07360
 H541 H 0.37375 0.32469 0.14964
 H542 H 0.34810 0.29327 0.17801
 H543 H 0.29454 0.36831 0.18504
 H544 H 0.31988 0.39960 0.15631
 H545 H 0.43502 0.40102 0.07474
 H546 H 0.45788 0.43030 0.04268
 H547 H 0.40439 0.50534 0.05018
 H548 H 0.38121 0.47594 0.08189
 C549 C 0.16005 0.13620 0.14344
 C550 C 0.18227 0.15162 0.13598
 C551 C 0.19685 0.16802 0.15365
 C552 C 0.18957 0.16946 0.17921
 C553 C 0.16745 0.15392 0.18673
 C554 C 0.15288 0.13744 0.16906
 C555 C 0.14442 0.11923 0.12453
 N556 N 0.12315 0.10380 0.13157
 N557 N 0.10906 0.08878 0.11448
 C558 C 0.11564 0.08859 0.08961
 N559 N 0.13692 0.10400 0.08261
 N560 N 0.15099 0.11898 0.09969
 C561 C 0.10003 0.07201 0.07047
 C562 C 0.10666 0.07293 0.04472
 C563 C 0.09213 0.05731 0.02659
 C564 C 0.07062 0.04029 0.03371
 C565 C 0.06384 0.03947 0.05942
 C566 C 0.07840 0.05515 0.07761
 H567 H 0.18837 0.15122 0.11642
 H568 H 0.21359 0.18010 0.14720
 H569 H 0.16151 0.15431 0.20635
 H570 H 0.13593 0.12578 0.17549
 H571 H 0.12309 0.08581 0.03848
 H572 H 0.09761 0.05885 0.00689
 H573 H 0.04749 0.02632 0.06551
 H574 H 0.07275 0.05391 0.09727
 C575 C 0.14554 0.62202 0.65685
 C576 C 0.17000 0.61226 0.66320
 C577 C 0.18515 0.63038 0.67924
 C578 C 0.17619 0.65865 0.68934
 C579 C 0.15153 0.66802 0.68349
 C580 C 0.13639 0.64995 0.66742
 C581 C 0.13000 0.60378 0.63865
 N582 N 0.10749 0.61482 0.63050
 N583 N 0.09400 0.59911 0.61337
 C584 C 0.10241 0.57165 0.60365
 N585 N 0.12482 0.56047 0.61196
 N586 N 0.13834 0.57621 0.62907
 C587 C 0.08789 0.55486 0.58378
 C588 C 0.09595 0.52570 0.57462
 C589 C 0.08290 0.51058 0.55506
 C590 C 0.06155 0.52429 0.54416
 C591 C 0.05324 0.55318 0.55362
 C592 C 0.06622 0.56825 0.57322
 H593 H 0.17768 0.59091 0.65538
 H594 H 0.20416 0.62268 0.68313
 H595 H 0.14391 0.68939 0.69132
 H596 H 0.11759 0.65807 0.66310
 H597 H 0.11246 0.51460 0.58242
 H598 H 0.08954 0.48810 0.54848
 H599 H 0.03705 0.56456 0.54542
 H600 H 0.05950 0.59071 0.57975
 C601 C 0.64762 0.12543 0.65524
 C602 C 0.67243 0.11700 0.66150
 C603 C 0.68687 0.13569 0.67777
 C604 C 0.67685 0.16323 0.68821
 C605 C 0.65186 0.17127 0.68242
 C606 C 0.63743 0.15262 0.66613
 C607 C 0.63275 0.10658 0.63688
 N608 N 0.60963 0.11616 0.62921
 N609 N 0.59664 0.09988 0.61203
 C610 C 0.60617 0.07328 0.60179
 N611 N 0.62921 0.06356 0.60960
 N612 N 0.64223 0.07987 0.62676
 C613 C 0.59202 0.05579 0.58203
 C614 C 0.60128 0.02751 0.57219
 C615 C 0.58830 0.01162 0.55297
 C616 C 0.56579 0.02367 0.54310
 C617 C 0.55642 0.05177 0.55312
 C618 C 0.56934 0.06760 0.57237
 H619 H 0.68091 0.09626 0.65345
 H620 H 0.70616 0.12903 0.68160
 H621 H 0.64345 0.19206 0.69048
 H622 H 0.61833 0.15973 0.66189
 H623 H 0.61862 0.01765 0.57926
 H624 H 0.59582 -0.01020 0.54591
 H625 H 0.53934 0.06194 0.54569
 H626 H 0.56168 0.08936 0.57940
 C627 C 0.65436 0.63451 0.15166
 C628 C 0.64473 0.66153 0.16334
 C629 C 0.65978 0.67947 0.17960
 C630 C 0.68484 0.67088 0.18454
 C631 C 0.69433 0.64357 0.17323
 C632 C 0.67926 0.62558 0.15701
 C633 C 0.63875 0.61628 0.13352
 N634 N 0.64754 0.58944 0.12298
 N635 N 0.63380 0.57358 0.10612
 C636 C 0.61070 0.58390 0.09903
 N637 N 0.60187 0.61065 0.10966
 N638 N 0.61559 0.62648 0.12654
 C639 C 0.59569 0.56677 0.07970
 C640 C 0.57297 0.57918 0.07064
 C641 C 0.55918 0.56358 0.05189
 C642 C 0.56771 0.53511 0.04178
 C643 C 0.59028 0.52250 0.05103
 C644 C 0.60412 0.53816 0.06974
 H645 H 0.62559 0.66900 0.15981
 H646 H 0.65177 0.70009 0.18833
 H647 H 0.71365 0.63651 0.17638
 H648 H 0.68732 0.60496 0.14832
 H649 H 0.56594 0.60122 0.07779
 H650 H 0.54207 0.57415 0.04493
 H651 H 0.59716 0.50039 0.04391
 H652 H 0.62147 0.52784 0.07637
   
