data_POSCAR
  _audit_creation_date              2014-09-24
  _audit_creation_method            'ToBaCCo'
  _symmetry_space_group_name_H-M    'P1'
  _symmetry_Int_Tables_number       1
  _symmetry_cell_setting            triclinic
  loop_
  _symmetry_equiv_pos_as_xyz
 x,y,z
_cell_length_a 57.0804
_cell_length_b 57.1706
_cell_length_c 23.2852
_cell_angle_alpha 89.940000
_cell_angle_beta 90.057900
_cell_angle_gamma 120.007600
loop_
  _atom_site_label
  _atom_site_type_symbol
  _atom_site_fract_x
  _atom_site_fract_y
  _atom_site_fract_z
C1 C 0.18262 0.46550 0.44775
 C2 C 0.17068 0.46566 0.49995
 C3 C 0.18258 0.46555 0.55232
 C4 C 0.20716 0.46517 0.55314
 C5 C 0.21950 0.46494 0.50036
 C6 C 0.20720 0.46511 0.44735
 C7 C 0.21988 0.46501 0.39564
 C8 C 0.24421 0.46488 0.39588
 C9 C 0.25676 0.46485 0.44781
 C10 C 0.24431 0.46482 0.50058
 C11 C 0.21978 0.46515 0.60507
 C12 C 0.24412 0.46504 0.60526
 C13 C 0.25677 0.46494 0.55353
 C14 C 0.28164 0.46510 0.55303
 C15 C 0.29359 0.46506 0.50075
 C16 C 0.28156 0.46500 0.44852
 H17 H 0.21107 0.46508 0.35447
 H18 H 0.25315 0.46486 0.35490
 H19 H 0.21092 0.46527 0.64609
 H20 H 0.25301 0.46508 0.64640
 H21 H 0.15187 0.46614 0.49983
 H22 H 0.31279 0.46537 0.50057
 C23 C 0.53482 -0.28221 0.44937
 C24 C 0.53470 -0.29436 0.50146
 C25 C 0.53474 -0.28249 0.55389
 C26 C 0.53505 -0.25760 0.55480
 C27 C 0.53524 -0.24501 0.50205
 C28 C 0.53514 -0.25736 0.44906
 C29 C 0.53519 -0.24464 0.39734
 C30 C 0.53523 -0.22026 0.39755
 C31 C 0.53522 -0.20774 0.44948
 C32 C 0.53528 -0.22016 0.50226
 C33 C 0.53502 -0.24505 0.60675
 C34 C 0.53505 -0.22067 0.60695
 C35 C 0.53512 -0.20791 0.55522
 C36 C 0.53488 -0.18328 0.55470
 C37 C 0.53488 -0.17129 0.50240
 C38 C 0.53498 -0.18318 0.45018
 H39 H 0.53515 -0.25348 0.35623
 H40 H 0.53522 -0.21130 0.35656
 H41 H 0.53492 -0.25405 0.64775
 H42 H 0.53498 -0.21189 0.64809
 H43 H 0.53427 -0.31357 0.50106
 H44 H 0.53450 -0.15247 0.50221
 C45 C 1.18324 0.71850 0.55301
 C46 C 1.17129 0.70654 0.50070
 C47 C 1.18324 0.71858 0.44851
 C48 C 1.20783 0.74339 0.44786
 C49 C 1.22023 0.75585 0.50067
 C50 C 1.20791 0.74338 0.55359
 C51 C 1.22063 0.75603 0.60535
 C52 C 1.24504 0.78038 0.60523
 C53 C 1.25767 0.79301 0.55333
 C54 C 1.24512 0.78067 0.50052
 C55 C 1.22040 0.75597 0.39597
 C56 C 1.24481 0.78031 0.39580
 C57 C 1.25756 0.79298 0.44755
 C58 C 1.28249 0.81757 0.44801
 C59 C 1.29457 0.82951 0.50025
 C60 C 1.28259 0.81760 0.55258
 H61 H 1.21180 0.74713 0.64646
 H62 H 1.25400 0.78924 0.64627
 H63 H 1.21145 0.74703 0.35497
 H64 H 1.25367 0.78913 0.35466
 H65 H 1.15244 0.68733 0.50047
 H66 H 1.31383 0.84833 0.50019
 C67 C 0.71775 0.53478 0.55417
 C68 C 0.70571 0.53471 0.50187
 C69 C 0.71775 0.53486 0.44965
 C70 C 0.74265 0.53522 0.44896
 C71 C 0.75518 0.53535 0.50175
 C72 C 0.74271 0.53512 0.55470
 C73 C 0.75546 0.53511 0.60644
 C74 C 0.77990 0.53520 0.60624
 C75 C 0.79254 0.53530 0.55430
 C76 C 0.78009 0.53543 0.50155
 C77 C 0.75524 0.53530 0.39703
 C78 C 0.77968 0.53538 0.39684
 C79 C 0.79239 0.53539 0.44856
 C80 C 0.81704 0.53521 0.44888
 C81 C 0.82910 0.53513 0.50097
 C82 C 0.81722 0.53511 0.55340
 H83 H 0.74656 0.53499 0.64757
 H84 H 0.78883 0.53514 0.64725
 H85 H 0.74624 0.53525 0.35604
 H86 H 0.78853 0.53540 0.35573
 H87 H 0.68645 0.53425 0.50167
 H88 H 0.84797 0.53480 0.50058
 C89 C 0.46472 0.28121 0.44813
 C90 C 0.46483 0.29326 0.50029
 C91 C 0.46481 0.28131 0.55260
 C92 C 0.46456 0.25650 0.55342
 C93 C 0.46440 0.24399 0.50068
 C94 C 0.46447 0.25639 0.44772
 C95 C 0.46445 0.24373 0.39599
 C96 C 0.46447 0.21938 0.39618
 C97 C 0.46452 0.20683 0.44810
 C98 C 0.46443 0.21918 0.50089
 C99 C 0.46463 0.24397 0.60536
 C100 C 0.46465 0.21962 0.60559
 C101 C 0.46462 0.20690 0.55386
 C102 C 0.46492 0.18231 0.55334
 C103 C 0.46495 0.17037 0.50104
 C104 C 0.46482 0.18229 0.44881
 H105 H 0.46445 0.25261 0.35489
 H106 H 0.46449 0.21046 0.35519
 H107 H 0.46470 0.25296 0.64632
 H108 H 0.46475 0.21082 0.64674
 H109 H 0.46521 0.31244 0.50017
 H110 H 0.46536 0.15157 0.50086
 C111 C 0.71870 0.18344 0.44823
 C112 C 0.70665 0.17147 0.50042
 C113 C 0.71861 0.18340 0.55270
 C114 C 0.74344 0.20799 0.55346
 C115 C 0.75596 0.22037 0.50070
 C116 C 0.74354 0.20804 0.44776
 C117 C 0.75620 0.22069 0.39600
 C118 C 0.78057 0.24510 0.39613
 C119 C 0.79314 0.25770 0.44803
 C120 C 0.78078 0.24523 0.50085
 C121 C 0.75597 0.22058 0.60538
 C122 C 0.78034 0.24499 0.60555
 C123 C 0.79307 0.25770 0.55379
 C124 C 0.81768 0.28263 0.55322
 C125 C 0.82961 0.29462 0.50090
 C126 C 0.81769 0.28256 0.44869
 H127 H 0.74730 0.21182 0.35493
 H128 H 0.78948 0.25405 0.35512
 H129 H 0.74699 0.21166 0.64636
 H130 H 0.78915 0.25389 0.64668
 H131 H 0.68745 0.15264 0.50035
 H132 H 0.84842 0.31385 0.50067
 N133 N 0.97214 0.46121 0.10046
 N134 N 0.95380 0.44771 0.14014
 N135 N 1.02903 0.47320 0.06124
 N136 N 1.04736 0.46626 0.07355
 N137 N 1.02898 0.48967 0.10048
 N138 N 1.04725 0.49443 0.14035
 N139 N 0.97213 0.44472 0.06119
 N140 N 0.95376 0.41947 0.07325
 C141 C 0.94229 0.42185 0.12210
 C142 C 1.05877 0.48006 0.12250
 N143 N 1.02888 0.48967 -0.10222
 N144 N 1.04723 0.49455 -0.14189
 N145 N 0.97206 0.44469 -0.06293
 N146 N 0.95374 0.41943 -0.07506
 N147 N 0.97203 0.46118 -0.10223
 N148 N 0.95372 0.44766 -0.14199
 N149 N 1.02897 0.47322 -0.06289
 N150 N 1.04740 0.46641 -0.07490
 Mn151 Mn 1.00055 0.45869 -0.00085
 C152 C 1.05883 0.48027 -0.12378
 C153 C 0.94226 0.42179 -0.12399
 N154 N 1.02886 0.53993 0.10035
 N155 N 1.04720 0.55344 0.14004
 N156 N 0.97194 0.52794 0.06118
 N157 N 0.95360 0.53486 0.07344
 N158 N 0.97202 0.51147 0.10047
 N159 N 0.95377 0.50669 0.14033
 N160 N 1.02884 0.55642 0.06104
 N161 N 1.04719 0.58167 0.07308
 Mn162 Mn 1.00050 0.50057 0.10087
 C163 C 1.05868 0.57930 0.12195
 C164 C 0.94222 0.52105 0.12242
 N165 N 0.97194 0.51146 -0.10223
 N166 N 0.95352 0.50655 -0.14184
 N167 N 1.02879 0.55644 -0.06308
 N168 N 1.04712 0.58170 -0.07528
 N169 N 1.02878 0.53994 -0.10235
 N170 N 1.04706 0.55346 -0.14214
 N171 N 0.97189 0.52791 -0.06294
 N172 N 0.95342 0.53469 -0.07491
 Mn173 Mn 1.00041 0.50056 -0.10270
 Mn174 Mn 1.00036 0.54244 -0.00096
 Cl175 Cl 1.00045 0.50057 -0.00091
 C176 C 0.94193 0.52082 -0.12373
 C177 C 1.05855 0.57933 -0.12420
 N178 N 0.47209 0.44395 0.06155
 N179 N 0.46514 0.41869 0.07370
 N180 N 0.46023 0.48885 0.10073
 N181 N 0.44673 0.49369 0.14037
 N182 N 0.44369 0.47241 0.06140
 N183 N 0.41842 0.46555 0.07338
 N184 N 0.48860 0.46043 0.10085
 N185 N 0.49338 0.44692 0.14064
 C186 C 0.47897 0.42105 0.12265
 C187 C 0.42083 0.47938 0.12224
 N188 N 0.52717 0.55569 0.06167
 N189 N 0.53416 0.58094 0.07393
 N190 N 0.53902 0.51074 0.10090
 N191 N 0.55250 0.50587 0.14062
 N192 N 0.55557 0.52723 0.06165
 N193 N 0.58084 0.53409 0.07377
 N194 N 0.51064 0.53916 0.10090
 N195 N 0.50589 0.55263 0.14073
 Mn196 Mn 0.49962 0.49980 0.10128
 C197 C 0.52033 0.57852 0.12286
 C198 C 0.57841 0.52021 0.12262
 N199 N 0.44370 0.47246 -0.06272
 N200 N 0.41842 0.46555 -0.07495
 N201 N 0.48865 0.46055 -0.10184
 N202 N 0.49357 0.44707 -0.14136
 N203 N 0.47214 0.44404 -0.06255
 N204 N 0.46533 0.41881 -0.07444
 N205 N 0.46025 0.48894 -0.10198
 N206 N 0.44676 0.49376 -0.14179
 Mn207 Mn 0.45764 0.45795 -0.00059
 C208 C 0.42084 0.47939 -0.12388
 C209 C 0.47924 0.42122 -0.12321
 N210 N 0.55562 0.52731 -0.06247
 N211 N 0.58090 0.53420 -0.07453
 N212 N 0.51069 0.53925 -0.10181
 N213 N 0.50581 0.55276 -0.14141
 N214 N 0.52718 0.55573 -0.06246
 N215 N 0.53402 0.58097 -0.07439
 N216 N 0.53909 0.51086 -0.10179
 N217 N 0.55260 0.50606 -0.14150
 Mn218 Mn 0.54165 0.54176 -0.00041
 Mn219 Mn 0.49967 0.49990 -0.10230
 Cl220 Cl 0.49964 0.49985 -0.00050
 C221 C 0.57851 0.52040 -0.12345
 C222 C 0.52015 0.57860 -0.12325
 N223 N 0.44383 -0.02896 0.06198
 N224 N 0.41854 -0.04724 0.07427
 N225 N 0.48879 0.02785 0.10108
 N226 N 0.49364 0.04618 0.14069
 N227 N 0.47228 0.02786 0.06174
 N228 N 0.46539 0.04622 0.07369
 N229 N 0.46039 -0.02890 0.10130
 N230 N 0.44689 -0.04711 0.14121
 C231 C 0.42096 -0.05861 0.12330
 C232 C 0.47927 0.05769 0.12254
 N233 N 0.55576 0.02793 0.06209
 N234 N 0.58104 0.04627 0.07426
 N235 N 0.51080 -0.02885 0.10140
 N236 N 0.50596 -0.04716 0.14113
 N237 N 0.52731 -0.02889 0.06215
 N238 N 0.53419 -0.04725 0.07429
 N239 N 0.53921 0.02790 0.10131
 N240 N 0.55271 0.04619 0.14105
 Mn241 Mn 0.49980 -0.00050 0.10171
 C242 C 0.57863 0.05770 0.12313
 C243 C 0.52032 -0.05868 0.12315
 N244 N 0.47227 0.02784 -0.06238
 N245 N 0.46535 0.04617 -0.07461
 N246 N 0.46040 -0.02894 -0.10142
 N247 N 0.44691 -0.04727 -0.14107
 N248 N 0.44386 -0.02898 -0.06217
 N249 N 0.41859 -0.04737 -0.07423
 N250 N 0.48879 0.02781 -0.10160
 N251 N 0.49360 0.04610 -0.14140
 Mn252 Mn 0.45779 -0.00056 -0.00021
 C253 C 0.47920 0.05760 -0.12352
 C254 C 0.42101 -0.05881 -0.12304
 N255 N 0.52732 -0.02893 -0.06196
 N256 N 0.53425 -0.04726 -0.07399
 N257 N 0.53920 0.02784 -0.10136
 N258 N 0.55270 0.04623 -0.14095
 N259 N 0.55573 0.02789 -0.06200
 N260 N 0.58100 0.04633 -0.07388
 N261 N 0.51082 -0.02891 -0.10130
 N262 N 0.50602 -0.04721 -0.14100
 Mn263 Mn 0.54179 -0.00050 0.00007
 Mn264 Mn 0.49980 -0.00055 -0.10187
 Cl265 Cl 0.49980 -0.00053 -0.00007
 C266 C 0.52042 -0.05870 -0.12292
 C267 C 0.57859 0.05780 -0.12274
 C268 C 1.14106 0.46932 0.31140
 C269 C 1.14825 0.46464 0.25051
 C270 C 1.13240 0.46647 0.20870
 C271 C 1.11100 0.47279 0.23209
 C272 C 1.12699 0.49877 0.26724
 C273 C 1.14276 0.49695 0.30886
 C274 C 1.11082 0.44881 0.31824
 C275 C 1.09506 0.45063 0.27663
 C276 C 1.15753 0.46753 0.35774
 C277 C 1.16989 0.46641 0.39870
 C278 C 1.09348 0.47493 0.18875
 C279 C 1.07809 0.47707 0.15655
 H280 H 1.16431 0.46030 0.24111
 H281 H 1.13489 0.46369 0.16346
 H282 H 1.12609 0.51706 0.25994
 H283 H 1.15535 0.51368 0.33718
 H284 H 1.10252 0.43406 0.35270
 H285 H 1.07326 0.43744 0.27547
 C286 C 0.53102 0.67160 0.31078
 C287 C 0.50216 0.65351 0.28811
 C288 C 0.50036 0.63585 0.24668
 C289 C 0.52758 0.63801 0.23194
 C290 C 0.53854 0.63437 0.28941
 C291 C 0.54034 0.65198 0.33073
 C292 C 0.54812 0.68547 0.25727
 C293 C 0.54631 0.66778 0.21573
 C294 C 0.53279 0.68991 0.35686
 C295 C 0.53390 0.70344 0.39757
 C296 C 0.52545 0.61832 0.18884
 C297 C 0.52332 0.60080 0.15679
 H298 H 0.48470 0.65455 0.30311
 H299 H 0.48135 0.62178 0.22620
 H300 H 0.54444 0.61928 0.29698
 H301 H 0.54778 0.65194 0.37366
 H302 H 0.56048 0.70722 0.25241
 H303 H 0.55712 0.67435 0.17526
 C304 C 0.32788 -0.14083 0.31186
 C305 C 0.34267 -0.15378 0.28241
 C306 C 0.36031 -0.13796 0.24081
 C307 C 0.36143 -0.11076 0.23274
 C308 C 0.36800 -0.09772 0.29247
 C309 C 0.35041 -0.11348 0.33394
 C310 C 0.31437 -0.13388 0.26281
 C311 C 0.33205 -0.11804 0.22112
 C312 C 0.30960 -0.15731 0.35811
 C313 C 0.29612 -0.16968 0.39900
 C314 C 0.38112 -0.09324 0.18948
 C315 C 0.39864 -0.07788 0.15732
 H316 H 0.33947 -0.17365 0.29311
 H317 H 0.37223 -0.14430 0.21589
 H318 H 0.38500 -0.07777 0.30145
 H319 H 0.35237 -0.10701 0.37838
 H320 H 0.29287 -0.14084 0.26091
 H321 H 0.32569 -0.11141 0.18351
 C322 C 0.85958 0.53155 0.31032
 C323 C 0.88415 0.53058 0.33409
 C324 C 0.90000 0.52881 0.29280
 C325 C 0.88983 0.52818 0.23151
 C326 C 0.88734 0.55365 0.22664
 C327 C 0.87141 0.55542 0.26814
 C328 C 0.84468 0.50627 0.27253
 C329 C 0.86059 0.50450 0.23106
 C330 C 0.84299 0.53328 0.35638
 C331 C 0.83052 0.53435 0.39709
 C332 C 0.90744 0.52609 0.18841
 C333 C 0.92287 0.52399 0.15636
 H334 H 0.88873 0.53124 0.37954
 H335 H 0.91813 0.52796 0.30293
 H336 H 0.89712 0.56886 0.19348
 H337 H 0.86754 0.57215 0.27053
 H338 H 0.82348 0.49117 0.27771
 H339 H 0.85303 0.48787 0.20073
 C340 C 0.46845 0.32763 0.30985
 C341 C 0.45402 0.34329 0.32567
 C342 C 0.45580 0.36099 0.28448
 C343 C 0.47184 0.36138 0.23130
 C344 C 0.45788 0.33192 0.21062
 C345 C 0.45610 0.31413 0.25203
 C346 C 0.49761 0.34942 0.29582
 C347 C 0.49939 0.36714 0.25456
 C348 C 0.46670 0.30923 0.35578
 C349 C 0.46561 0.29563 0.39640
 C350 C 0.47394 0.38116 0.18836
 C351 C 0.47604 0.39873 0.15644
 H352 H 0.44326 0.34066 0.36575
 H353 H 0.44656 0.37349 0.28931
 H354 H 0.45015 0.32562 0.16741
 H355 H 0.44683 0.29259 0.24430
 H356 H 0.51532 0.35074 0.31633
 H357 H 0.51863 0.38365 0.23976
 C358 C 0.67218 0.14069 0.31011
 C359 C 0.64987 0.11333 0.33271
 C360 C 0.63215 0.09740 0.29161
 C361 C 0.63837 0.11029 0.23169
 C362 C 0.66775 0.11772 0.21959
 C363 C 0.68557 0.13374 0.26091
 C364 C 0.65712 0.15340 0.28081
 C365 C 0.63934 0.13742 0.23957
 C366 C 0.69062 0.15737 0.35597
 C367 C 0.70426 0.16990 0.39654
 C368 C 0.61856 0.09259 0.18882
 C369 C 0.60097 0.07711 0.15692
 H370 H 0.64815 0.10698 0.37722
 H371 H 0.61527 0.07742 0.30096
 H372 H 0.67401 0.11107 0.18193
 H373 H 0.70709 0.14081 0.25865
 H374 H 0.66022 0.17325 0.29134
 H375 H 0.62721 0.14358 0.21479
 C376 C 0.46872 0.14048 -0.31094
 C377 C 0.45535 0.14078 -0.25391
 C378 C 0.45714 0.12479 -0.21246
 C379 C 0.47212 0.11015 -0.23230
 C380 C 0.49970 0.13262 -0.25378
 C381 C 0.49791 0.14855 -0.29509
 C382 C 0.45529 0.11057 -0.32772
 C383 C 0.45707 0.09467 -0.28650
 C384 C 0.46696 0.15710 -0.35694
 C385 C 0.46584 0.16954 -0.39771
 C386 C 0.47421 0.09248 -0.18932
 C387 C 0.47629 0.07700 -0.15737
 H388 H 0.44543 0.15250 -0.24671
 H389 H 0.44875 0.12282 -0.16974
 H390 H 0.51895 0.13581 -0.23778
 H391 H 0.51564 0.16538 -0.31446
 H392 H 0.44518 0.10255 -0.36849
 H393 H 0.44848 0.07305 -0.29198
 C394 C 0.67208 0.53092 -0.31024
 C395 C 0.67266 0.55766 -0.29899
 C396 C 0.65490 0.55585 -0.25778
 C397 C 0.63827 0.52748 -0.23181
 C398 C 0.65931 0.52027 -0.21003
 C399 C 0.67713 0.52209 -0.25137
 C400 C 0.64247 0.51058 -0.32442
 C401 C 0.62474 0.50877 -0.28331
 C402 C 0.69050 0.53271 -0.35616
 C403 C 0.70407 0.53384 -0.39690
 C404 C 0.61846 0.52537 -0.18896
 C405 C 0.60086 0.52329 -0.15714
 H406 H 0.68595 0.57640 -0.32126
 H407 H 0.65297 0.57304 -0.24476
 H408 H 0.66016 0.51434 -0.16612
 H409 H 0.69325 0.51771 -0.24290
 H410 H 0.63596 0.49855 -0.36339
 H411 H 0.60308 0.49520 -0.28710
 C412 C 0.85948 0.32830 -0.31117
 C413 C 0.87288 0.31699 -0.27126
 C414 C 0.88883 0.33478 -0.22991
 C415 C 0.88976 0.36208 -0.23263
 C416 C 0.86007 0.35507 -0.22970
 C417 C 0.84413 0.33729 -0.27103
 C418 C 0.88293 0.35460 -0.33523
 C419 C 0.89880 0.37229 -0.29408
 C420 C 0.84288 0.30989 -0.35712
 C421 C 0.83044 0.29632 -0.39786
 C422 C 0.90741 0.38188 -0.18970
 C423 C 0.92287 0.39946 -0.15779
 H424 H 0.87003 0.29681 -0.27502
 H425 H 0.89965 0.32983 -0.19824
 H426 H 0.85224 0.36325 -0.19787
 H427 H 0.82265 0.33024 -0.27461
 H428 H 0.88676 0.35895 -0.38076
 H429 H 0.91620 0.39179 -0.30442
 C430 C 0.53104 -0.14154 -0.30970
 C431 C 0.53120 -0.15127 -0.24823
 C432 C 0.52937 -0.13530 -0.20687
 C433 C 0.52758 -0.11125 -0.23126
 C434 C 0.50336 -0.12381 -0.27249
 C435 C 0.50518 -0.13970 -0.31364
 C436 C 0.55430 -0.11216 -0.31127
 C437 C 0.55248 -0.09626 -0.27009
 C438 C 0.53284 -0.15813 -0.35562
 C439 C 0.53396 -0.17054 -0.39636
 C440 C 0.52545 -0.09358 -0.18841
 C441 C 0.52334 -0.07811 -0.15659
 H442 H 0.53263 -0.16905 -0.23812
 H443 H 0.52924 -0.13939 -0.16131
 H444 H 0.48620 -0.12058 -0.26951
 H445 H 0.48958 -0.15007 -0.34587
 H446 H 0.57083 -0.10452 -0.34192
 H447 H 0.56745 -0.07501 -0.26549
 C448 C 0.32733 0.46887 -0.31128
 C449 C 0.35140 0.46692 -0.33472
 C450 C 0.36910 0.46871 -0.29353
 C451 C 0.36112 0.47229 -0.23268
 C452 C 0.33234 0.44840 -0.22409
 C453 C 0.31454 0.44660 -0.26549
 C454 C 0.34004 0.49551 -0.27759
 C455 C 0.35781 0.49731 -0.23624
 C456 C 0.30891 0.46710 -0.35726
 C457 C 0.29534 0.46599 -0.39803
 C458 C 0.38092 0.47440 -0.18970
 C459 C 0.39851 0.47649 -0.15774
 H460 H 0.35428 0.46432 -0.37986
 H461 H 0.38713 0.46765 -0.30345
 H462 H 0.32645 0.43423 -0.18862
 H463 H 0.29340 0.43089 -0.26549
 H464 H 0.33540 0.51149 -0.28535
 H465 H 0.36841 0.51484 -0.20860
 C466 C 1.14138 0.67282 -0.31140
 C467 C 1.11601 0.64812 -0.33518
 C468 C 1.10012 0.63042 -0.29403
 C469 C 1.11106 0.63903 -0.23288
 C470 C 1.11482 0.66743 -0.22583
 C471 C 1.13079 0.68522 -0.26719
 C472 C 1.15581 0.66113 -0.27585
 C473 C 1.13986 0.64336 -0.23454
 C474 C 1.15800 0.69123 -0.35734
 C475 C 1.17046 0.70480 -0.39808
 C476 C 1.09340 0.61924 -0.18995
 C477 C 1.07794 0.60166 -0.15802
 H478 H 1.11093 0.64482 -0.38052
 H479 H 1.08145 0.61198 -0.30418
 H480 H 1.10583 0.67307 -0.19138
 H481 H 1.13548 0.70611 -0.26818
 H482 H 1.17673 0.66643 -0.28239
 H483 H 1.14711 0.63343 -0.20570
 C484 C 0.85909 0.53131 -0.31105
 C485 C 0.88416 0.53134 -0.33474
 C486 C 0.90001 0.52953 -0.29345
 C487 C 0.88933 0.52787 -0.23230
 C488 C 0.86036 0.50370 -0.23320
 C489 C 0.84444 0.50552 -0.27465
 C490 C 0.87012 0.55465 -0.26764
 C491 C 0.88606 0.55283 -0.22614
 C492 C 0.84252 0.53310 -0.35708
 C493 C 0.83008 0.53421 -0.39783
 C494 C 0.90696 0.52575 -0.18929
 C495 C 0.92246 0.52367 -0.15740
 H496 H 0.88906 0.53269 -0.38011
 H497 H 0.91849 0.52933 -0.30350
 H498 H 0.85299 0.48673 -0.20377
 H499 H 0.82342 0.49011 -0.28074
 H500 H 0.86575 0.57106 -0.26924
 H501 H 0.89535 0.56769 -0.19217
 C502 C 0.46872 0.32782 -0.30957
 C503 C 0.45874 0.31473 -0.25032
 C504 C 0.46057 0.33253 -0.20899
 C505 C 0.47219 0.36157 -0.23122
 C506 C 0.45401 0.35932 -0.28196
 C507 C 0.45219 0.34161 -0.32307
 C508 C 0.49767 0.35105 -0.29946
 C509 C 0.49949 0.36878 -0.25829
 C510 C 0.46691 0.30942 -0.35537
 C511 C 0.46577 0.29580 -0.39589
 C512 C 0.47432 0.38134 -0.18845
 C513 C 0.47640 0.39892 -0.15673
 H514 H 0.45098 0.29345 -0.24161
 H515 H 0.45438 0.32651 -0.16485
 H516 H 0.44341 0.37060 -0.28524
 H517 H 0.44003 0.33774 -0.36155
 H518 H 0.51522 0.35331 -0.32246
 H519 H 0.51861 0.38623 -0.24604
 C520 C 0.67207 0.14074 -0.30935
 C521 C 0.65301 0.11163 -0.32901
 C522 C 0.63530 0.09574 -0.28787
 C523 C 0.63831 0.11043 -0.23090
 C524 C 0.63561 0.13505 -0.24682
 C525 C 0.65337 0.15098 -0.28806
 C526 C 0.68590 0.13810 -0.25506
 C527 C 0.66809 0.12212 -0.21370
 C528 C 0.69048 0.15735 -0.35521
 C529 C 0.70411 0.16985 -0.39576
 C530 C 0.61852 0.09278 -0.18807
 C531 C 0.60093 0.07727 -0.15629
 H532 H 0.65342 0.10412 -0.37161
 H533 H 0.62055 0.07462 -0.29525
 H534 H 0.62111 0.13962 -0.22724
 H535 H 0.65408 0.16921 -0.30383
 H536 H 0.70767 0.14792 -0.24957
 H537 H 0.67460 0.11824 -0.17273
 C538 C 1.14109 0.46951 -0.31179
 C539 C 1.11525 0.44265 -0.29910
 C540 C 1.09949 0.44452 -0.25752
 C541 C 1.11112 0.47307 -0.23270
 C542 C 1.11557 0.49125 -0.28485
 C543 C 1.13129 0.48938 -0.32633
 C544 C 1.15547 0.47903 -0.25357
 C545 C 1.13967 0.48091 -0.21187
 C546 C 1.15750 0.46766 -0.35800
 C547 C 1.16983 0.46650 -0.39884
 C548 C 1.09362 0.47524 -0.18954
 C549 C 1.07822 0.47736 -0.15754
 H550 H 1.10986 0.42379 -0.32069
 H551 H 1.08060 0.42726 -0.24348
 H552 H 1.10715 0.50451 -0.28882
 H553 H 1.13631 0.50104 -0.36580
 H554 H 1.17616 0.48380 -0.24579
 H555 H 1.14680 0.48729 -0.16832
 C556 C 0.53081 0.67187 -0.31054
 C557 C 0.53620 0.64973 -0.33264
 C558 C 0.53436 0.63209 -0.29135
 C559 C 0.52731 0.63821 -0.23177
 C560 C 0.50103 0.63896 -0.24051
 C561 C 0.50287 0.65667 -0.28195
 C562 C 0.55089 0.68534 -0.26089
 C563 C 0.54905 0.66759 -0.21937
 C564 C 0.53263 0.69020 -0.35659
 C565 C 0.53379 0.70375 -0.39734
 C566 C 0.52515 0.61848 -0.18876
 C567 C 0.52304 0.60092 -0.15688
 H568 H 0.54107 0.64807 -0.37698
 H569 H 0.53767 0.61533 -0.30034
 H570 H 0.48263 0.62675 -0.21614
 H571 H 0.48606 0.65964 -0.29309
 H572 H 0.56520 0.70685 -0.25848
 H573 H 0.56177 0.67390 -0.18136
 C574 C 0.32801 -0.14094 -0.31137
 C575 C 0.34645 -0.15144 -0.28956
 C576 C 0.36406 -0.13570 -0.24791
 C577 C 0.36151 -0.11100 -0.23215
 C578 C 0.33167 -0.12253 -0.21568
 C579 C 0.31400 -0.13832 -0.25745
 C580 C 0.34733 -0.11182 -0.33064
 C581 C 0.36489 -0.09612 -0.28909
 C582 C 0.30977 -0.15734 -0.35765
 C583 C 0.29628 -0.16966 -0.39854
 C584 C 0.38116 -0.09354 -0.18890
 C585 C 0.39869 -0.07816 -0.15684
 H586 H 0.34566 -0.16969 -0.30527
 H587 H 0.37837 -0.14046 -0.22794
 H588 H 0.32502 -0.11869 -0.17490
 H589 H 0.29221 -0.14802 -0.25248
 H590 H 0.34719 -0.10417 -0.37326
 H591 H 0.37979 -0.07502 -0.29616
 C592 C 0.53114 -0.14080 0.31157
 C593 C 0.50920 -0.13338 0.32314
 C594 C 0.50734 -0.11767 0.28159
 C595 C 0.52760 -0.11085 0.23236
 C596 C 0.52254 -0.13830 0.21019
 C597 C 0.52441 -0.15409 0.25196
 C598 C 0.55729 -0.11369 0.30316
 C599 C 0.55543 -0.09794 0.26152
 C600 C 0.53296 -0.15723 0.35781
 C601 C 0.53409 -0.16964 0.39856
 C602 C 0.52543 -0.09338 0.18911
 C603 C 0.52328 -0.07801 0.15702
 H604 H 0.49619 -0.13996 0.36069
 H605 H 0.49273 -0.11080 0.28358
 H606 H 0.51796 -0.14472 0.16574
 H607 H 0.52143 -0.17406 0.24334
 H608 H 0.57569 -0.10745 0.32758
 H609 H 0.57224 -0.07821 0.25028
 C610 C 0.32778 0.46874 0.31009
 C611 C 0.33288 0.48995 0.26385
 C612 C 0.35055 0.49177 0.22224
 C613 C 0.36131 0.47220 0.23109
 C614 C 0.33599 0.44409 0.23543
 C615 C 0.31833 0.44227 0.27703
 C616 C 0.35591 0.47644 0.33310
 C617 C 0.37349 0.47826 0.29169
 C618 C 0.30950 0.46695 0.35622
 C619 C 0.29597 0.46586 0.39691
 C620 C 0.38098 0.47433 0.18795
 C621 C 0.39851 0.47645 0.15596
 H622 H 0.32340 0.50234 0.26370
 H623 H 0.35621 0.50573 0.18642
 H624 H 0.33221 0.42718 0.20814
 H625 H 0.29942 0.42379 0.28539
 H626 H 0.36156 0.48017 0.37812
 H627 H 0.39419 0.48355 0.30128
 C628 C 1.14087 0.67235 0.30999
 C629 C 1.11449 0.64857 0.33288
 C630 C 1.09876 0.63098 0.29144
 C631 C 1.11086 0.63880 0.23095
 C632 C 1.13901 0.64168 0.23581
 C633 C 1.15480 0.65933 0.27740
 C634 C 1.13200 0.68535 0.26338
 C635 C 1.11619 0.66767 0.22172
 C636 C 1.15732 0.69063 0.35615
 C637 C 1.16973 0.70416 0.39687
 C638 C 1.09338 0.61913 0.18778
 C639 C 1.07801 0.60160 0.15574
 H640 H 1.10864 0.64579 0.37782
 H641 H 1.07945 0.61315 0.30093
 H642 H 1.14597 0.63090 0.20883
 H643 H 1.17529 0.66368 0.28605
 H644 H 1.13770 0.70653 0.26303
 H645 H 1.10833 0.67369 0.18566
 C646 C 0.46861 0.13994 0.31034
 C647 C 0.45870 0.11082 0.32971
 C648 C 0.46050 0.09508 0.28828
 C649 C 0.47205 0.10992 0.23133
 C650 C 0.49937 0.13459 0.24715
 C651 C 0.49756 0.15037 0.28869
 C652 C 0.45200 0.13733 0.25631
 C653 C 0.45382 0.12150 0.21465
 C654 C 0.46683 0.15640 0.35649
 C655 C 0.46572 0.16880 0.39720
 C656 C 0.47419 0.09242 0.18820
 C657 C 0.47632 0.07703 0.15623
 H658 H 0.45087 0.10320 0.37232
 H659 H 0.45421 0.07397 0.29542
 H660 H 0.51844 0.13931 0.22730
 H661 H 0.51508 0.16862 0.30443
 H662 H 0.43997 0.14707 0.25119
 H663 H 0.44333 0.11766 0.17381
 C664 C 0.67144 0.53095 0.31104
 C665 C 0.68542 0.54754 0.25702
 C666 C 0.66774 0.54569 0.21526
 C667 C 0.63790 0.52744 0.23184
 C668 C 0.63456 0.53896 0.28872
 C669 C 0.65215 0.54080 0.33025
 C670 C 0.65297 0.50203 0.28938
 C671 C 0.63534 0.50019 0.24774
 C672 C 0.68972 0.53277 0.35727
 C673 C 0.70327 0.53391 0.39802
 C674 C 0.61824 0.52527 0.18858
 C675 C 0.60071 0.52314 0.15648
 H676 H 0.70721 0.55958 0.25199
 H677 H 0.67437 0.55615 0.17443
 H678 H 0.61968 0.54520 0.29575
 H679 H 0.65232 0.54861 0.37284
 H680 H 0.65375 0.48456 0.30519
 H681 H 0.62101 0.48113 0.22787
 C682 C 0.86005 0.32881 0.31017
 C683 C 0.87234 0.31697 0.26874
 C684 C 0.88816 0.33464 0.22709
 C685 C 0.89007 0.36236 0.23111
 C686 C 0.90001 0.37222 0.29234
 C687 C 0.88427 0.35463 0.33378
 C688 C 0.84485 0.33863 0.27165
 C689 C 0.86065 0.35630 0.23003
 C690 C 0.84360 0.31053 0.35632
 C691 C 0.83119 0.29699 0.39705
 C692 C 0.90756 0.38202 0.18793
 C693 C 0.92295 0.39955 0.15589
 H694 H 0.86887 0.29652 0.27174
 H695 H 0.89824 0.32934 0.19439
 H696 H 0.91791 0.39139 0.30232
 H697 H 0.88870 0.35876 0.37922
 H698 H 0.82356 0.33221 0.27649
 H699 H 0.85290 0.36501 0.19920
   
