data_POSCAR
  _audit_creation_date              2014-09-24
  _audit_creation_method            'ToBaCCo'
  _symmetry_space_group_name_H-M    'P1'
  _symmetry_Int_Tables_number       1
  _symmetry_cell_setting            triclinic
  loop_
  _symmetry_equiv_pos_as_xyz
 x,y,z
_cell_length_a 19.1328
_cell_length_b 19.0550
_cell_length_c 52.8934
_cell_angle_alpha 90.275600
_cell_angle_beta 89.922000
_cell_angle_gamma 117.060500
loop_
  _atom_site_label
  _atom_site_type_symbol
  _atom_site_fract_x
  _atom_site_fract_y
  _atom_site_fract_z
C1 C 0.01400 0.13726 0.51627
 H2 H 0.05713 0.16447 0.50164
 C3 C 0.00756 0.18491 0.53519
 H4 H 0.04450 0.24793 0.53424
 C5 C -0.08126 0.02258 0.53626
 H6 H -0.11325 -0.04102 0.53705
 C7 C -0.08942 0.06841 0.55578
 H8 H -0.12885 0.03946 0.57131
 N9 N -0.02873 0.05749 0.51732
 C10 C -0.01065 -0.14477 0.51550
 H11 H -0.05448 -0.17191 0.50101
 C12 C -0.00350 -0.19243 0.53412
 H13 H -0.04068 -0.25543 0.53309
 C14 C 0.08575 -0.03013 0.53550
 H15 H 0.11792 0.03347 0.53642
 C16 C 0.09465 -0.07593 0.55469
 H17 H 0.13480 -0.04694 0.57012
 Zn18 Zn 0.00154 -0.00362 0.49561
 N19 N 0.03232 -0.06501 0.51673
 C20 C 0.15826 0.08247 0.47366
 N21 N 0.08117 0.06599 0.47380
 C22 C 0.05210 0.09917 0.45681
 C23 C 0.10065 0.15196 0.43895
 C24 C 0.20954 0.13542 0.45582
 C25 C -0.15527 -0.08868 0.47352
 C26 C -0.20665 -0.14064 0.45536
 C27 C -0.09808 -0.15765 0.43820
 C28 C -0.04961 -0.10585 0.45641
 N29 N -0.07840 -0.07278 0.47364
 H30 H 0.17983 0.05472 0.48725
 H31 H -0.00951 0.08468 0.45731
 H32 H 0.07517 0.17718 0.42577
 H33 H 0.27071 0.14799 0.45575
 H34 H -0.17662 -0.06104 0.48734
 H35 H -0.26755 -0.15216 0.45553
 H36 H -0.07189 -0.18229 0.42494
 H37 H 0.01189 -0.09184 0.45694
 C38 C 0.04763 -0.15813 0.55454
 C39 C -0.04260 0.15064 0.55575
 C40 C -0.17818 -0.17595 0.43714
 C41 C 0.18056 0.17085 0.43814
 C42 C 1.13837 0.01520 0.14972
 H43 H 1.16532 0.05950 0.16416
 C44 C 1.18591 0.00804 0.13100
 H45 H 1.24859 0.04569 0.13193
 C46 C 1.02438 -0.08248 0.12994
 H47 H 0.96107 -0.11524 0.12917
 C48 C 1.07009 -0.09139 0.11064
 H49 H 1.04135 -0.13212 0.09527
 N50 N 1.05899 -0.02850 0.14869
 C51 C 0.85690 -0.01133 0.15027
 H52 H 0.83022 -0.05539 0.16468
 C53 C 0.80900 -0.00434 0.13172
 H54 H 0.74632 -0.04189 0.13272
 C55 C 0.97055 0.08586 0.13042
 H56 H 1.03385 0.11846 0.12953
 C57 C 0.92448 0.09459 0.11128
 H58 H 0.95296 0.13502 0.09593
 Zn59 Zn 0.99788 0.00183 0.17027
 N60 N 0.93628 0.03215 0.14910
 C61 C 1.08277 0.15923 0.19265
 N62 N 1.06702 0.08201 0.19224
 C63 C 1.10048 0.05297 0.20913
 C64 C 1.15268 0.10162 0.22720
 C65 C 1.13513 0.21065 0.21072
 C66 C 0.91382 -0.15546 0.19230
 C67 C 0.86222 -0.20682 0.21041
 C68 C 0.84494 -0.09788 0.22749
 C69 C 0.89635 -0.04928 0.20936
 N70 N 0.92936 -0.07830 0.19216
 H71 H 1.05479 0.18077 0.17914
 H72 H 1.08657 -0.00876 0.20840
 H73 H 1.17809 0.07613 0.24030
 H74 H 1.14707 0.27190 0.21103
 H75 H 0.94145 -0.17698 0.17855
 H76 H 0.85051 -0.26801 0.21051
 H77 H 0.81989 -0.07241 0.24085
 H78 H 0.91010 0.01241 0.20885
 C79 C 0.84265 0.04713 0.11141
 C80 C 1.15191 -0.04383 0.11066
 C81 C 0.82722 -0.17781 0.22837
 C82 C 1.17071 0.18164 0.22834
 C83 C 0.06465 0.94031 0.86541
 H84 H 0.01255 0.88815 0.85967
 C85 C 0.11241 0.93478 0.88420
 H86 H 0.09698 0.87775 0.89248
 C87 C 0.14477 1.07814 0.86208
 H88 H 0.15512 1.13410 0.85408
 C89 C 0.19492 1.07520 0.88096
 H90 H 0.24445 1.12918 0.88710
 N91 N 0.08068 1.01096 0.85495
 C92 C -0.15495 0.92260 0.86138
 H93 H -0.17308 0.86906 0.85056
 C94 C -0.20374 0.92634 0.88067
 H95 H -0.25930 0.87522 0.88420
 C96 C -0.06015 1.05318 0.87063
 H97 H -0.00375 1.10251 0.86667
 C98 C -0.10603 1.05931 0.88998
 H99 H -0.08366 1.11404 0.90056
 Zn100 Zn -0.00324 0.99977 0.83386
 N101 N -0.08443 0.98584 0.85685
 C102 C -0.08173 0.85091 0.80453
 N103 N -0.01687 0.91895 0.81052
 C104 C 0.05212 0.94050 0.79816
 C105 C 0.05832 0.89429 0.77881
 C106 C -0.07798 0.80208 0.78513
 C107 C 0.08003 1.14289 0.80408
 C108 C 0.07922 1.19357 0.78502
 C109 C -0.06253 1.12698 0.78599
 C110 C -0.05904 1.07855 0.80494
 N111 N 0.01115 1.08643 0.81345
 H112 H -0.13651 0.83516 0.81416
 H113 H 0.10271 0.99495 0.80323
 H114 H 0.11415 0.91383 0.76928
 H115 H -0.13012 0.74874 0.78019
 H116 H 0.13516 1.14605 0.81030
 H117 H 0.13416 1.23654 0.77704
 H118 H -0.11944 1.11779 0.77918
 H119 H -0.11294 1.03164 0.81210
 C120 C -0.17890 0.99533 0.89554
 C121 C 0.17768 1.00282 0.89262
 C122 C 0.00696 1.18420 0.77533
 C123 C -0.00725 0.82441 0.77182
 C124 C 0.34296 -0.01769 -0.02114
 C125 C 0.30242 -0.02898 0.00169
 C126 C 0.33847 -0.02613 0.02494
 C127 C 0.41784 -0.01275 0.02538
 C128 C 0.45822 -0.00571 0.00223
 C129 C 0.42035 -0.00893 -0.02111
 C130 C 0.46009 -0.00526 -0.04382
 C131 C 0.53576 0.00205 -0.04367
 C132 C 0.57508 0.00688 -0.02081
 C133 C 0.53665 0.00442 0.00238
 C134 C 0.45773 -0.00748 0.04817
 C135 C 0.53606 0.00767 0.04831
 C136 C 0.57652 0.01235 0.02567
 C137 C 0.65599 0.02605 0.02552
 C138 C 0.69262 0.02828 0.00241
 C139 C 0.65261 0.01608 -0.02055
 H140 H 0.43259 -0.00939 -0.06199
 H141 H 0.56361 0.00527 -0.06174
 H142 H 0.42941 -0.01460 0.06630
 H143 H 0.56393 0.01529 0.06654
 H144 H 0.24269 -0.03652 0.00140
 H145 H 0.75248 0.03619 0.00235
 C146 C -0.02180 0.33898 0.64179
 C147 C -0.02367 0.30368 0.66510
 C148 C -0.01197 0.34520 0.68784
 C149 C -0.00367 0.42273 0.68769
 C150 C -0.00175 0.45973 0.66431
 C151 C -0.00919 0.41845 0.64123
 C152 C -0.00510 0.45756 0.61838
 C153 C 0.00928 0.53600 0.61811
 C154 C 0.01423 0.57725 0.64069
 C155 C 0.00743 0.53815 0.66405
 C156 C 0.00100 0.46350 0.71034
 C157 C 0.00727 0.53910 0.71009
 C158 C 0.01011 0.57736 0.68719
 C159 C 0.01771 0.65467 0.68679
 C160 C 0.02898 0.69400 0.66376
 C161 C 0.02709 0.65678 0.64072
 H162 H -0.01261 0.42856 0.60030
 H163 H 0.01597 0.56325 0.59984
 H164 H -0.00144 0.43685 0.72855
 H165 H 0.01142 0.56776 0.72812
 H166 H -0.03094 0.24380 0.66551
 H167 H 0.03588 0.75376 0.66368
 C168 C 0.64340 0.64365 0.35681
 C169 C 0.67783 0.67702 0.33374
 C170 C 0.64394 0.64261 0.31064
 C171 C 0.57260 0.57214 0.31039
 C172 C 0.53678 0.53712 0.33368
 C173 C 0.57233 0.57291 0.35700
 C174 C 0.53675 0.53619 0.37976
 C175 C 0.46707 0.46617 0.37972
 C176 C 0.43063 0.42988 0.35692
 C177 C 0.46525 0.46616 0.33364
 C178 C 0.53536 0.53666 0.28760
 C179 C 0.46486 0.46753 0.28756
 C180 C 0.42855 0.43158 0.31033
 C181 C 0.35730 0.36103 0.31051
 C182 C 0.32432 0.32616 0.33356
 C183 C 0.35961 0.35907 0.35666
 H184 H 0.56261 0.56101 0.39787
 H185 H 0.44189 0.44102 0.39781
 H186 H 0.56013 0.56218 0.26951
 H187 H 0.43934 0.44240 0.26945
 H188 H 0.73251 0.73124 0.33377
 H189 H 0.26973 0.27183 0.33352
 N190 N 0.01667 0.27608 0.57936
 C191 C -0.04047 0.20040 0.57769
 N192 N -0.09198 0.17071 0.59714
 N193 N -0.08683 0.21524 0.61727
 C194 C -0.03016 0.29122 0.61873
 N195 N 0.02202 0.32039 0.59950
 N196 N 0.74689 0.80482 0.26630
 C197 C 0.77474 0.77205 0.24863
 N198 N 0.75587 0.69433 0.25072
 N199 N 0.71172 0.65174 0.26992
 C200 C 0.68451 0.68527 0.28760
 N201 N 0.70314 0.76257 0.28543
 N202 N 0.29528 0.05635 -0.07975
 C203 C 0.22322 -0.00265 -0.08553
 N204 N 0.19186 -0.06686 -0.07029
 N205 N 0.23049 -0.07207 -0.05008
 C206 C 0.30261 -0.01356 -0.04444
 N207 N 0.33428 0.05093 -0.05957
 N208 N 0.09782 0.82267 0.59572
 C209 C 0.04609 0.79241 0.57630
 N210 N -0.01101 0.71675 0.57800
 N211 N -0.01627 0.67313 0.59817
 C212 C 0.03597 0.70301 0.61741
 N213 N 0.09277 0.77886 0.61588
 N214 N 0.25329 0.19923 0.26569
 C215 C 0.22417 0.23185 0.24852
 N216 N 0.24266 0.30944 0.25106
 N217 N 0.28760 0.35200 0.27023
 C218 C 0.31602 0.31860 0.28742
 N219 N 0.29783 0.24147 0.28478
 N220 N 0.80562 0.06600 -0.06898
 C221 C 0.77638 0.00086 -0.08408
 N222 N 0.70446 -0.05871 -0.07849
 N223 N 0.66404 -0.05322 -0.05866
 C224 C 0.69395 0.01202 -0.04365
 N225 N 0.76562 0.07131 -0.04911
 N226 N 0.17171 -0.09531 0.06958
 C227 C 0.20143 -0.04276 0.08891
 N228 N 0.27682 0.01449 0.08723
 N229 N 0.32077 0.01906 0.06718
 C230 C 0.29150 -0.03406 0.04805
 N231 N 0.21586 -0.09094 0.04954
 N232 N 0.69822 0.75798 0.41652
 C233 C 0.77546 0.77567 0.41868
 N234 N 0.80628 0.74523 0.40113
 N235 N 0.76316 0.70100 0.38211
 C236 C 0.68666 0.68412 0.37988
 N237 N 0.65475 0.71335 0.39744
 N238 N -0.06377 0.19894 0.73864
 C239 C 0.00234 0.22852 0.75304
 N240 N 0.06377 0.29756 0.74604
 N241 N 0.05879 0.33555 0.72554
 C242 C -0.00756 0.30567 0.71125
 N243 N -0.06853 0.23646 0.71808
 N244 N 0.71742 -0.01177 0.08805
 C245 C 0.79284 0.04552 0.08972
 N246 N 0.82247 0.09737 0.07036
 N247 N 0.77829 0.09222 0.05028
 C248 C 0.70268 0.03522 0.04878
 N249 N 0.67343 -0.01712 0.06796
 N250 N 0.30797 0.24339 0.41577
 C251 C 0.23077 0.22507 0.41823
 N252 N 0.19851 0.25493 0.40118
 N253 N 0.24070 0.29993 0.38226
 C254 C 0.31742 0.31786 0.37969
 N255 N 0.35048 0.28877 0.39677
 N256 N 0.06172 0.81075 0.73432
 C257 C -0.00088 0.77811 0.75015
 N258 N -0.05699 0.70353 0.74534
 N259 N -0.05040 0.66343 0.72550
 C260 C 0.01257 0.69634 0.70980
 N261 N 0.06813 0.77095 0.71448
   
