data_POSCAR
  _audit_creation_date              2014-09-24
  _audit_creation_method            'ToBaCCo'
  _symmetry_space_group_name_H-M    'P1'
  _symmetry_Int_Tables_number       1
  _symmetry_cell_setting            triclinic
  loop_
  _symmetry_equiv_pos_as_xyz
 x,y,z
_cell_length_a 40.5719
_cell_length_b 42.2383
_cell_length_c 42.0559
_cell_angle_alpha 89.712700
_cell_angle_beta 90.253800
_cell_angle_gamma 89.510900
loop_
  _atom_site_label
  _atom_site_type_symbol
  _atom_site_fract_x
  _atom_site_fract_y
  _atom_site_fract_z
N1 N 0.16266 0.17742 0.17634
 N2 N -0.17045 0.81261 0.18041
 N3 N -0.18646 0.18486 -0.18640
 N4 N 0.18835 0.81764 -0.18158
 N5 N 0.17080 1.17089 0.82514
 N6 N 0.81684 0.82044 0.81895
 N7 N 0.17295 0.81387 1.18120
 N8 N 0.82751 1.18992 1.18260
 N9 N 0.46532 0.95029 0.97970
 N10 N 0.43898 0.93254 0.97566
 N11 N 0.53608 0.96892 0.95914
 N12 N 0.56169 0.96409 0.94052
 N13 N 0.53479 0.94714 0.98146
 N14 N 0.55954 0.92683 0.97857
 N15 N 0.46689 0.97201 0.95734
 N16 N 0.44179 0.96967 0.93752
 C17 C 0.42459 0.94493 0.94917
 C18 C 0.57611 0.93772 0.95286
 N19 N 0.53895 1.05933 0.97936
 N20 N 0.56499 1.07749 0.97571
 N21 N 0.46933 1.03995 0.95613
 N22 N 0.44361 1.04368 0.93708
 N23 N 0.46976 1.06219 0.97780
 N24 N 0.44439 1.08161 0.97412
 N25 N 0.53877 1.03674 0.95806
 N26 N 0.56487 1.03859 0.93959
 Mn27 Mn 0.50278 1.00441 0.95729
 C28 C 0.58091 1.06419 0.95082
 C29 C 0.42835 1.06989 0.94853
 N30 N 0.53325 0.94817 1.04999
 N31 N 0.55820 0.92832 1.05438
 N32 N 0.46420 0.97345 1.06992
 N33 N 0.43846 0.97087 1.08885
 N34 N 0.46387 0.95119 1.04823
 N35 N 0.43791 0.93291 1.05181
 N36 N 0.53356 0.97049 1.07161
 N37 N 0.55869 0.96643 1.09127
 Mn38 Mn 0.49929 0.94876 1.01486
 C39 C 0.57381 0.93997 1.08031
 C40 C 0.42225 0.94543 1.07727
 N41 N 0.46837 1.06324 1.04594
 N42 N 0.44286 1.08268 1.04730
 N43 N 0.53654 1.03857 1.07013
 N44 N 0.56222 1.04110 1.08937
 N45 N 0.53740 1.06045 1.04786
 N46 N 0.56329 1.07875 1.05161
 N47 N 0.46683 1.04170 1.06848
 N48 N 0.44007 1.04596 1.08581
 Mn49 Mn 0.50366 1.06166 1.01274
 Mn50 Mn 0.50027 1.00607 1.07049
 Cl51 Cl 0.50151 1.00519 1.01388
 C52 C 0.42547 1.07178 1.07236
 C53 C 0.57854 1.06643 1.07759
 N54 N 0.03871 0.46597 0.04398
 N55 N 0.04188 0.44135 0.06320
 N56 N 0.06147 0.53286 0.02257
 N57 N 0.08070 0.55758 0.02628
 N58 N 0.03800 0.53278 0.04397
 N59 N 0.04067 0.55757 0.06282
 N60 N 0.06256 0.46632 0.02298
 N61 N 0.08285 0.44208 0.02760
 C62 C 0.06957 0.42672 0.05279
 C63 C 0.06753 0.57278 0.05153
 N64 N 0.04081 0.53304 -0.06832
 N65 N 0.04305 0.55857 -0.08632
 N66 N 0.06455 0.46659 -0.04561
 N67 N 0.08501 0.44234 -0.04859
 N68 N 0.04197 0.46625 -0.06806
 N69 N 0.04620 0.44152 -0.08670
 N70 N 0.06345 0.53309 -0.04591
 N71 N 0.08200 0.55854 -0.04834
 Mn72 Mn 0.06343 0.49971 -0.01147
 C73 C 0.06899 0.57411 -0.07377
 C74 C 0.07324 0.42694 -0.07435
 N75 N -0.03300 0.53231 0.04189
 N76 N -0.03770 0.55641 0.06123
 N77 N -0.05443 0.46574 0.01911
 N78 N -0.07415 0.44123 0.02195
 N79 N -0.03223 0.46563 0.04191
 N80 N -0.03630 0.44099 0.06093
 N81 N -0.05529 0.53241 0.01916
 N82 N -0.07575 0.55666 0.02242
 Mn83 Mn 0.00288 0.49916 0.04336
 C84 C -0.06448 0.57141 0.04883
 C85 C -0.06262 0.42600 0.04818
 N86 N -0.02874 0.46607 -0.07045
 N87 N -0.03080 0.44133 -0.08931
 N88 N -0.05328 0.53264 -0.04929
 N89 N -0.07254 0.55778 -0.05285
 N90 N -0.02983 0.53261 -0.07068
 N91 N -0.03255 0.55764 -0.08942
 N92 N -0.05238 0.46579 -0.04927
 N93 N -0.07119 0.44071 -0.05315
 Mn94 Mn 0.00609 0.49947 -0.06975
 Mn95 Mn -0.05429 0.49916 -0.01509
 Cl96 Cl 0.00452 0.49937 -0.01321
 C97 C -0.05745 0.42573 -0.07835
 C98 C -0.05939 0.57307 -0.07812
 N99 N 0.94197 0.03447 0.53415
 N100 N 0.92191 0.03999 0.55823
 N101 N 0.96540 0.05514 0.46681
 N102 N 0.96210 0.07433 0.44208
 N103 N 0.94159 0.03430 0.46723
 N104 N 0.92145 0.03873 0.44290
 N105 N 0.96578 0.05531 0.53369
 N106 N 0.96269 0.07544 0.55733
 C107 C 0.93525 0.06566 0.57249
 C108 C 0.93448 0.06381 0.42741
 N109 N 1.05843 0.02923 0.46739
 N110 N 1.07846 0.03213 0.44289
 N111 N 1.03651 0.05211 0.53407
 N112 N 1.04114 0.07103 0.55856
 N113 N 1.05835 0.02901 0.53432
 N114 N 1.07840 0.03155 0.55891
 N115 N 1.03632 0.05208 0.46722
 N116 N 1.04071 0.07118 0.44275
 Mn117 Mn 1.00102 0.05403 0.50041
 C118 C 1.06711 0.05850 0.42778
 C119 C 1.06744 0.05791 0.57381
 N120 N 0.93901 -0.03377 0.46725
 N121 N 0.91941 -0.03605 0.44221
 N122 N 0.96118 -0.05691 0.53432
 N123 N 0.95700 -0.07548 0.55934
 N124 N 0.93931 -0.03381 0.53420
 N125 N 0.91966 -0.03607 0.55899
 N126 N 0.96117 -0.05660 0.46725
 N127 N 0.95726 -0.07499 0.44227
 Mn128 Mn 0.94004 0.00029 0.50075
 C129 C 0.93103 -0.06198 0.42690
 C130 C 0.93087 -0.06223 0.57444
 N131 N 1.05571 -0.03907 0.53467
 N132 N 1.07536 -0.04373 0.55942
 N133 N 1.03228 -0.05971 0.46726
 N134 N 1.03571 -0.07860 0.44247
 N135 N 1.05590 -0.03868 0.46779
 N136 N 1.07592 -0.04258 0.44355
 N137 N 1.03212 -0.06014 0.53430
 N138 N 1.03507 -0.07969 0.55871
 Mn139 Mn 1.05749 -0.00490 0.50108
 Mn140 Mn 0.99665 -0.05877 0.50075
 Cl141 Cl 0.99879 -0.00235 0.50075
 C142 C 1.06218 -0.06924 0.57417
 C143 C 1.06317 -0.06758 0.42793
 C144 C 1.11482 0.16626 0.21071
 C145 C 1.10167 0.15462 0.23907
 C146 C 1.12244 0.14294 0.26329
 C147 C 1.15679 0.14418 0.25901
 C148 C 1.16990 0.15577 0.23065
 C149 C 1.14905 0.16653 0.20605
 C150 C 1.10743 0.13046 0.29283
 C151 C 1.12279 0.10983 0.31239
 C152 C 1.10778 0.09709 0.34183
 C153 C 1.12050 0.06884 0.35493
 C154 C 1.10734 0.05619 0.38287
 C155 C 1.08127 0.07169 0.39834
 C156 C 1.06872 0.10009 0.38549
 C157 C 1.08193 0.11279 0.35766
 H158 H 1.09824 0.17451 0.19214
 H159 H 1.07515 0.15432 0.24192
 H160 H 1.17371 0.13667 0.27756
 H161 H 1.19640 0.15649 0.22793
 H162 H 1.08219 0.13739 0.29751
 H163 H 1.14682 0.10061 0.30603
 H164 H 1.14060 0.05642 0.34341
 H165 H 1.11752 0.03428 0.39230
 H166 H 1.04882 0.11270 0.39710
 H167 H 1.07213 0.13515 0.34909
 C168 C 0.85371 -0.19514 0.23403
 C169 C 0.86649 -0.18292 0.26228
 C170 C 0.86868 -0.15008 0.26682
 C171 C 0.85834 -0.12965 0.24207
 C172 C 0.84552 -0.14191 0.21382
 C173 C 0.84302 -0.17476 0.20954
 C174 C 0.88284 -0.13836 0.29714
 C175 C 0.87796 -0.10895 0.30828
 C176 C 0.89202 -0.09758 0.33879
 C177 C 0.87727 -0.07139 0.35369
 C178 C 0.88983 -0.05980 0.38236
 C179 C 0.91756 -0.07411 0.39664
 C180 C 0.93266 -0.10000 0.38157
 C181 C 0.92018 -0.11153 0.35290
 H182 H 0.85188 -0.22054 0.23135
 H183 H 0.87449 -0.19922 0.28079
 H184 H 0.86061 -0.10425 0.24406
 H185 H 0.83789 -0.12577 0.19505
 H186 H 0.89654 -0.15535 0.31141
 H187 H 0.86178 -0.09281 0.29550
 H188 H 0.85580 -0.05995 0.34321
 H189 H 0.87781 -0.03967 0.39334
 H190 H 0.95436 -0.11123 0.39181
 H191 H 0.93309 -0.13097 0.34170
 C192 C 0.82662 0.13553 0.78468
 C193 C 0.83846 0.11987 0.75785
 C194 C 0.85112 0.13696 0.73203
 C195 C 0.85132 0.17029 0.73351
 C196 C 0.83952 0.18597 0.76044
 C197 C 0.82702 0.16876 0.78630
 C198 C 0.86282 0.11915 0.70384
 C199 C 0.88400 0.13096 0.68256
 C200 C 0.89649 0.11304 0.65477
 C201 C 0.92570 0.12320 0.64040
 C202 C 0.93828 0.10760 0.61387
 C203 C 0.92179 0.08154 0.60091
 C204 C 0.89247 0.07130 0.61507
 C205 C 0.87981 0.08697 0.64170
 H206 H 0.81716 0.12164 0.80427
 H207 H 0.83779 0.09424 0.75731
 H208 H 0.85977 0.18447 0.71374
 H209 H 0.83943 0.21159 0.76078
 H210 H 0.85487 0.09487 0.70169
 H211 H 0.89421 0.15422 0.68634
 H212 H 0.93894 0.14329 0.64980
 H213 H 0.96094 0.11608 0.60346
 H214 H 0.87914 0.05141 0.60540
 H215 H 0.85671 0.07892 0.65142
 C216 C 1.19804 -0.15311 0.76826
 C217 C 1.18618 -0.13852 0.74053
 C218 C 1.15229 -0.13793 0.73355
 C219 C 1.13039 -0.15188 0.75534
 C220 C 1.14230 -0.16661 0.78296
 C221 C 1.17621 -0.16732 0.78974
 C222 C 1.14090 -0.12189 0.70389
 C223 C 1.11144 -0.12708 0.69029
 C224 C 1.09990 -0.11159 0.66040
 C225 C 1.07297 -0.12481 0.64430
 C226 C 1.06081 -0.11106 0.61631
 C227 C 1.07528 -0.08367 0.60376
 C228 C 1.10200 -0.07014 0.61989
 C229 C 1.11413 -0.08382 0.64803
 H230 H 1.22431 -0.15354 0.77286
 H231 H 1.20360 -0.12781 0.72435
 H232 H 1.10402 -0.15104 0.75164
 H233 H 1.12496 -0.17700 0.79940
 H234 H 1.15827 -0.10643 0.69230
 H235 H 1.09528 -0.14457 0.70052
 H236 H 1.06131 -0.14597 0.65337
 H237 H 1.04006 -0.12194 0.60448
 H238 H 1.11337 -0.04879 0.61093
 H239 H 1.13420 -0.07218 0.66008
 C240 C 0.19417 1.12903 1.16298
 C241 C 0.22278 1.11430 1.15181
 C242 C 0.24904 1.13235 1.14017
 C243 C 0.24600 1.16561 1.13991
 C244 C 0.21731 1.18030 1.15095
 C245 C 0.19130 1.16218 1.16293
 C246 C 0.27959 1.11574 1.13007
 C247 C 0.30214 1.12886 1.11099
 C248 C 0.33322 1.11288 1.10147
 C249 C 0.34990 1.12451 1.07477
 C250 C 0.37979 1.11104 1.06535
 C251 C 0.39379 1.08570 1.08256
 C252 C 0.37728 1.07399 1.10934
 C253 C 0.34733 1.08753 1.11886
 H254 H 0.17431 1.11460 1.17198
 H255 H 0.22450 1.08869 1.15245
 H256 H 0.26596 1.18055 1.13220
 H257 H 0.21587 1.20590 1.15112
 H258 H 0.28285 1.09150 1.13799
 H259 H 0.29737 1.15200 1.10076
 H260 H 0.33976 1.14412 1.06109
 H261 H 0.39194 1.12055 1.04455
 H262 H 0.38766 1.05457 1.12313
 H263 H 0.33586 1.07846 1.14015
 C264 C 0.23948 0.81126 0.85000
 C265 C 0.26523 0.82404 0.86776
 C266 C 0.26728 0.85683 0.87239
 C267 C 0.24245 0.87662 0.85944
 C268 C 0.21670 0.86379 0.84160
 C269 C 0.21507 0.83101 0.83656
 C270 C 0.29543 0.86916 0.89108
 C271 C 0.30618 0.89901 0.88879
 C272 C 0.33595 0.91054 0.90552
 C273 C 0.35231 0.93686 0.89294
 C274 C 0.38099 0.94807 0.90726
 C275 C 0.39383 0.93329 0.93467
 C276 C 0.37708 0.90747 0.94787
 C277 C 0.34832 0.89623 0.93352
 H278 H 0.23880 0.78591 0.84648
 H279 H 0.28385 0.80824 0.87762
 H280 H 0.24241 0.90189 0.86338
 H281 H 0.19775 0.87939 0.83205
 H282 H 0.30909 0.85222 0.90546
 H283 H 0.29438 0.91521 0.87221
 H284 H 0.34315 0.94853 0.87162
 H285 H 0.39323 0.96821 0.89670
 H286 H 0.38621 0.89594 0.96925
 H287 H 0.33580 0.87660 0.94464
 C288 C 0.79821 0.83098 1.13314
 C289 C 0.76986 0.84424 1.11936
 C290 C 0.74331 0.85395 1.13836
 C291 C 0.74551 0.84964 1.17154
 C292 C 0.77388 0.83635 1.18528
 C293 C 0.80050 0.82690 1.16623
 C294 C 0.71344 0.86731 1.12264
 C295 C 0.69172 0.88624 1.13742
 C296 C 0.66184 0.89966 1.12179
 C297 C 0.64731 0.92699 1.13465
 C298 C 0.61880 0.94014 1.12110
 C299 C 0.60402 0.92605 1.09451
 C300 C 0.61831 0.89856 1.08171
 C301 C 0.64687 0.88540 1.09525
 H302 H 0.81847 0.82393 1.11798
 H303 H 0.76872 0.84705 1.09376
 H304 H 0.72520 0.85574 1.18695
 H305 H 0.77487 0.83291 1.21080
 H306 H 0.71026 0.86241 1.09759
 H307 H 0.69658 0.89358 1.16160
 H308 H 0.65815 0.93830 1.15521
 H309 H 0.60830 0.96134 1.13150
 H310 H 0.60729 0.88709 1.06134
 H311 H 0.65663 0.86376 1.08522
 C312 C 0.75440 1.17288 0.81440
 C313 C 0.72666 1.16169 0.83031
 C314 C 0.72976 1.14854 0.86088
 C315 C 0.76090 1.14733 0.87565
 C316 C 0.78846 1.15927 0.86003
 C317 C 0.78533 1.17194 0.82932
 C318 C 0.70010 1.13722 0.87733
 C319 C 0.70024 1.11065 0.89474
 C320 C 0.67007 1.09894 0.90996
 C321 C 0.66242 1.06672 0.90804
 C322 C 0.63324 1.05541 0.92124
 C323 C 0.61191 1.07602 0.93747
 C324 C 0.62017 1.10805 0.94041
 C325 C 0.64888 1.11953 0.92642
 H326 H 0.75180 1.18289 0.79076
 H327 H 0.70281 1.16300 0.81866
 H328 H 0.76376 1.13784 0.89948
 H329 H 0.81228 1.15868 0.87175
 H330 H 0.67712 1.14995 0.87335
 H331 H 0.72225 1.09596 0.89589
 H332 H 0.67862 1.05049 0.89562
 H333 H 0.62744 1.03053 0.91895
 H334 H 0.60408 1.12432 0.95290
 H335 H 0.65467 1.14441 0.92863
 C336 C 0.13180 0.20177 0.13196
 C337 C 0.11829 0.22849 0.11688
 C338 C 0.12256 0.25867 0.12998
 C339 C 0.13968 0.26166 0.15895
 C340 C 0.15240 0.23483 0.17442
 C341 C 0.14876 0.20484 0.16085
 C342 C 0.10807 0.28657 0.11371
 C343 C 0.12397 0.31414 0.11165
 C344 C 0.10945 0.34222 0.09568
 C345 C 0.12978 0.36239 0.07803
 C346 C 0.11669 0.38956 0.06340
 C347 C 0.08326 0.39747 0.06707
 C348 C 0.06298 0.37748 0.08505
 C349 C 0.07588 0.34994 0.09900
 H350 H 0.12880 0.17865 0.12140
 H351 H 0.10495 0.22568 0.09471
 H352 H 0.14271 0.28462 0.16986
 H353 H 0.16544 0.23737 0.19677
 H354 H 0.08455 0.28382 0.10176
 H355 H 0.14896 0.31583 0.12065
 H356 H 0.15577 0.35698 0.07541
 H357 H 0.13283 0.40472 0.04980
 H358 H 0.03711 0.38311 0.08823
 H359 H 0.05980 0.33512 0.11304
 C360 C -0.19368 0.23838 -0.16413
 C361 C -0.18074 0.26579 -0.15080
 C362 C -0.14656 0.26949 -0.14748
 C363 C -0.12549 0.24498 -0.15795
 C364 C -0.13853 0.21753 -0.17145
 C365 C -0.17275 0.21391 -0.17448
 C366 C -0.13442 0.29868 -0.13196
 C367 C -0.10327 0.30889 -0.13365
 C368 C -0.09206 0.33865 -0.11862
 C369 C -0.06421 0.35373 -0.13099
 C370 C -0.05301 0.38200 -0.11787
 C371 C -0.06933 0.39569 -0.09188
 C372 C -0.09676 0.38034 -0.07896
 C373 C -0.10797 0.35202 -0.09209
 H374 H -0.22017 0.23621 -0.16626
 H375 H -0.19757 0.28414 -0.14287
 H376 H -0.09906 0.24635 -0.15508
 H377 H -0.12197 0.19871 -0.17874
 H378 H -0.15259 0.31304 -0.11980
 H379 H -0.08556 0.29623 -0.14805
 H380 H -0.05127 0.34379 -0.15114
 H381 H -0.03160 0.39317 -0.12816
 H382 H -0.10949 0.39015 -0.05864
 H383 H -0.12876 0.34055 -0.08106
 C384 C 0.17817 0.76086 -0.18916
 C385 C 0.16693 0.73183 -0.17759
 C386 C 0.15074 0.73015 -0.14822
 C387 C 0.14625 0.75792 -0.13039
 C388 C 0.15821 0.78677 -0.14163
 C389 C 0.17421 0.78836 -0.17104
 C390 C 0.14021 0.69909 -0.13591
 C391 C 0.11192 0.69538 -0.12017
 C392 C 0.10143 0.66420 -0.10824
 C393 C 0.06850 0.65517 -0.11196
 C394 C 0.05810 0.62561 -0.10110
 C395 C 0.08025 0.60510 -0.08536
 C396 C 0.11302 0.61448 -0.08082
 C397 C 0.12366 0.64368 -0.09253
 H398 H 0.19085 0.76183 -0.21174
 H399 H 0.17084 0.71065 -0.19155
 H400 H 0.13444 0.75714 -0.10737
 H401 H 0.15534 0.80787 -0.12736
 H402 H 0.15531 0.67853 -0.14132
 H403 H 0.09505 0.71523 -0.11771
 H404 H 0.05097 0.67079 -0.12377
 H405 H 0.03261 0.61897 -0.10459
 H406 H 0.13046 0.59905 -0.06865
 H407 H 0.14908 0.65046 -0.08890
 C408 C -0.12098 0.78258 0.16351
 C409 C -0.10646 0.75603 0.14943
 C410 C -0.12601 0.73162 0.13718
 C411 C -0.16053 0.73409 0.13988
 C412 C -0.17501 0.76065 0.15396
 C413 C -0.15540 0.78518 0.16585
 C414 C -0.10945 0.70357 0.12306
 C415 C -0.12425 0.68381 0.10266
 C416 C -0.10784 0.65545 0.08900
 C417 C -0.12072 0.64233 0.06099
 C418 C -0.10656 0.61514 0.04777
 C419 C -0.07933 0.60036 0.06246
 C420 C -0.06649 0.61330 0.09055
 C421 C -0.08065 0.64045 0.10380
 H422 H -0.10538 0.80123 0.17245
 H423 H -0.07984 0.75462 0.14795
 H424 H -0.17648 0.71536 0.13183
 H425 H -0.20158 0.76191 0.15600
 H426 H -0.08368 0.70002 0.12888
 H427 H -0.14903 0.68906 0.09451
 H428 H -0.14180 0.65321 0.04925
 H429 H -0.11700 0.60565 0.02611
 H430 H -0.04566 0.60226 0.10252
 H431 H -0.07060 0.64905 0.12594
 C432 C 1.12206 0.15895 0.79207
 C433 C 1.10806 0.14788 0.76390
 C434 C 1.12806 0.13632 0.73933
 C435 C 1.16255 0.13661 0.74335
 C436 C 1.17652 0.14762 0.77160
 C437 C 1.15641 0.15878 0.79627
 C438 C 1.11205 0.12521 0.70971
 C439 C 1.12657 0.10530 0.68924
 C440 C 1.11047 0.09375 0.65984
 C441 C 1.12256 0.06586 0.64595
 C442 C 1.10850 0.05421 0.61806
 C443 C 1.08214 0.07034 0.60332
 C444 C 1.07013 0.09840 0.61694
 C445 C 1.08424 0.11012 0.64485
 H446 H 1.10604 0.16753 0.81073
 H447 H 1.08148 0.14821 0.76133
 H448 H 1.17894 0.12906 0.72461
 H449 H 1.20309 0.14799 0.77399
 H450 H 1.08677 0.13259 0.70567
 H451 H 1.15070 0.09562 0.69481
 H452 H 1.14288 0.05292 0.65683
 H453 H 1.11830 0.03252 0.60805
 H454 H 1.04999 0.11144 0.60590
 H455 H 1.07486 0.13224 0.65413
 C456 C 0.84358 -0.18969 0.76829
 C457 C 0.85851 -0.17856 0.74060
 C458 C 0.86163 -0.14599 0.73490
 C459 C 0.84990 -0.12466 0.75793
 C460 C 0.83483 -0.13575 0.78563
 C461 C 0.83136 -0.16851 0.79139
 C462 C 0.87791 -0.13547 0.70512
 C463 C 0.87396 -0.10645 0.69245
 C464 C 0.88925 -0.09611 0.66213
 C465 C 0.87573 -0.06967 0.64632
 C466 C 0.88921 -0.05881 0.61784
 C467 C 0.91672 -0.07408 0.60453
 C468 C 0.93063 -0.10032 0.62040
 C469 C 0.91715 -0.11119 0.64900
 H470 H 0.84095 -0.21501 0.77132
 H471 H 0.86740 -0.19554 0.72336
 H472 H 0.85287 -0.09939 0.75515
 H473 H 0.82677 -0.11863 0.80310
 H474 H 0.89220 -0.15305 0.69248
 H475 H 0.85736 -0.08979 0.70368
 H476 H 0.85447 -0.05742 0.65597
 H477 H 0.87806 -0.03840 0.60624
 H478 H 0.95209 -0.11229 0.61086
 H479 H 0.92906 -0.13099 0.66085
 C480 C 1.12296 -0.16904 0.21002
 C481 C 1.10774 -0.15697 0.23717
 C482 C 1.12661 -0.14736 0.26340
 C483 C 1.16121 -0.15031 0.26193
 C484 C 1.17640 -0.16233 0.23470
 C485 C 1.15742 -0.17195 0.20857
 C486 C 1.10927 -0.13556 0.29209
 C487 C 1.12360 -0.11714 0.31396
 C488 C 1.10663 -0.10487 0.34262
 C489 C 1.12023 -0.07866 0.35805
 C490 C 1.10588 -0.06657 0.38556
 C491 C 1.07764 -0.08057 0.39850
 C492 C 1.06390 -0.10686 0.38324
 C493 C 1.07830 -0.11902 0.35559
 H494 H 1.10784 -0.17634 0.19012
 H495 H 1.08109 -0.15517 0.23770
 H496 H 1.17668 -0.14426 0.28194
 H497 H 1.20297 -0.16494 0.23432
 H498 H 1.08341 -0.14117 0.29428
 H499 H 1.14858 -0.10925 0.31017
 H500 H 1.14209 -0.06741 0.34876
 H501 H 1.11707 -0.04626 0.39677
 H502 H 1.04224 -0.11820 0.39283
 H503 H 1.06754 -0.13980 0.34498
 C504 C 0.85843 0.19816 0.23157
 C505 C 0.87262 0.18611 0.25949
 C506 C 0.87022 0.15387 0.26720
 C507 C 0.85362 0.13375 0.24603
 C508 C 0.83922 0.14578 0.21823
 C509 C 0.84151 0.17820 0.21031
 C510 C 0.88604 0.14217 0.29699
 C511 C 0.87791 0.11487 0.31130
 C512 C 0.89319 0.10289 0.34122
 C513 C 0.87721 0.07849 0.35769
 C514 C 0.89063 0.06592 0.38569
 C515 C 0.92043 0.07745 0.39788
 C516 C 0.93668 0.10169 0.38144
 C517 C 0.92333 0.11421 0.35328
 H518 H 0.86008 0.22334 0.22696
 H519 H 0.88530 0.20215 0.27530
 H520 H 0.85219 0.10854 0.25030
 H521 H 0.82714 0.12945 0.20229
 H522 H 0.90391 0.15751 0.30801
 H523 H 0.85806 0.10095 0.30157
 H524 H 0.85416 0.06910 0.34889
 H525 H 0.87760 0.04713 0.39778
 H526 H 0.95990 0.11076 0.39015
 H527 H 0.93708 0.13227 0.34096
 C528 C 0.14062 0.19863 -0.13260
 C529 C 0.12667 0.22633 -0.12027
 C530 C 0.13042 0.25530 -0.13627
 C531 C 0.14767 0.25608 -0.16518
 C532 C 0.16086 0.22827 -0.17786
 C533 C 0.15755 0.19949 -0.16154
 C534 C 0.11518 0.28421 -0.12312
 C535 C 0.13043 0.31216 -0.12384
 C536 C 0.11525 0.34112 -0.11079
 C537 C 0.13484 0.36244 -0.09383
 C538 C 0.12103 0.39017 -0.08151
 C539 C 0.08766 0.39749 -0.08693
 C540 C 0.06817 0.37646 -0.10445
 C541 C 0.08177 0.34830 -0.11602
 H542 H 0.13777 0.17642 -0.11999
 H543 H 0.11324 0.22523 -0.09810
 H544 H 0.15030 0.27804 -0.17829
 H545 H 0.17376 0.22905 -0.20033
 H546 H 0.09168 0.28209 -0.11118
 H547 H 0.15543 0.31357 -0.13268
 H548 H 0.16075 0.35739 -0.08979
 H549 H 0.13654 0.40615 -0.06820
 H550 H 0.04235 0.38164 -0.10889
 H551 H 0.06632 0.33247 -0.12957
 C552 C -0.12261 0.21582 0.16430
 C553 C -0.10735 0.24107 0.14884
 C554 C -0.12611 0.26496 0.13395
 C555 C -0.16071 0.26280 0.13453
 C556 C -0.17603 0.23748 0.14986
 C557 C -0.15730 0.21380 0.16565
 C558 C -0.10867 0.29241 0.11981
 C559 C -0.12248 0.31264 0.09884
 C560 C -0.10556 0.34095 0.08592
 C561 C -0.11790 0.35494 0.05791
 C562 C -0.10375 0.38237 0.04553
 C563 C -0.07700 0.39658 0.06103
 C564 C -0.06451 0.38268 0.08902
 C565 C -0.07871 0.35523 0.10147
 H566 H -0.10716 0.19771 0.17517
 H567 H -0.08067 0.24203 0.14872
 H568 H -0.17626 0.28108 0.12423
 H569 H -0.20270 0.23732 0.15071
 H570 H -0.08316 0.29544 0.12662
 H571 H -0.14697 0.30807 0.08982
 H572 H -0.13868 0.34464 0.04557
 H573 H -0.11391 0.39256 0.02389
 H574 H -0.04402 0.39325 0.10156
 H575 H -0.06903 0.34589 0.12362
 C576 C -0.19306 0.77101 -0.15292
 C577 C -0.18111 0.74308 -0.13900
 C578 C -0.14724 0.73618 -0.13851
 C579 C -0.12536 0.75835 -0.15159
 C580 C -0.13727 0.78622 -0.16568
 C581 C -0.17137 0.79304 -0.16678
 C582 C -0.13587 0.70602 -0.12367
 C583 C -0.10649 0.69250 -0.12965
 C584 C -0.09530 0.66185 -0.11572
 C585 C -0.06878 0.64594 -0.13009
 C586 C -0.05718 0.61709 -0.11792
 C587 C -0.07184 0.60350 -0.09100
 C588 C -0.09809 0.61947 -0.07628
 C589 C -0.10962 0.64844 -0.08836
 H590 H -0.21946 0.77498 -0.15365
 H591 H -0.19852 0.72654 -0.12895
 H592 H -0.09897 0.75471 -0.15059
 H593 H -0.11967 0.80293 -0.17510
 H594 H -0.15331 0.69389 -0.10865
 H595 H -0.09027 0.70336 -0.14680
 H596 H -0.05704 0.65581 -0.15095
 H597 H -0.03674 0.60541 -0.12963
 H598 H -0.10954 0.60973 -0.05522
 H599 H -0.12933 0.66029 -0.07582
 C600 C 0.15565 0.78194 0.13498
 C601 C 0.14170 0.75457 0.12227
 C602 C 0.13135 0.72985 0.14244
 C603 C 0.13484 0.73344 0.17544
 C604 C 0.14874 0.76079 0.18808
 C605 C 0.15927 0.78531 0.16799
 C606 C 0.11605 0.70047 0.13026
 C607 C 0.12033 0.68972 0.10058
 C608 C 0.10603 0.65973 0.08880
 C609 C 0.12082 0.64495 0.06261
 C610 C 0.10833 0.61669 0.05063
 C611 C 0.08056 0.60267 0.06444
 C612 C 0.06533 0.61761 0.09032
 C613 C 0.07785 0.64593 0.10235
 H614 H 0.16312 0.80080 0.11911
 H615 H 0.13848 0.75330 0.09678
 H616 H 0.12692 0.71492 0.19152
 H617 H 0.15139 0.76283 0.21362
 H618 H 0.10230 0.68642 0.14711
 H619 H 0.13655 0.70224 0.08461
 H620 H 0.14233 0.65519 0.05152
 H621 H 0.12047 0.60583 0.03051
 H622 H 0.04363 0.60751 0.10117
 H623 H 0.06502 0.65708 0.12186
 C624 C 0.20276 1.12304 0.84049
 C625 C 0.23101 1.10883 0.85352
 C626 C 0.25652 1.12737 0.86597
 C627 C 0.25327 1.16059 0.86480
 C628 C 0.22497 1.17476 0.85189
 C629 C 0.19952 1.15616 0.83942
 C630 C 0.28652 1.11131 0.87868
 C631 C 0.30757 1.12506 0.89896
 C632 C 0.33805 1.10962 0.91134
 C633 C 0.35296 1.12228 0.93859
 C634 C 0.38222 1.10930 0.95067
 C635 C 0.39735 1.08341 0.93566
 C636 C 0.38260 1.07067 0.90836
 C637 C 0.35333 1.08372 0.89618
 H638 H 0.18338 1.10821 0.83119
 H639 H 0.23294 1.08323 0.85390
 H640 H 0.27274 1.17586 0.87302
 H641 H 0.22333 1.20034 0.85091
 H642 H 0.29050 1.08694 0.87180
 H643 H 0.30189 1.14838 0.90803
 H644 H 0.34192 1.14233 0.95062
 H645 H 0.39301 1.11959 0.97179
 H646 H 0.39387 1.05081 0.89622
 H647 H 0.34331 1.07380 0.87460
 C648 C 0.22820 0.80784 1.15709
 C649 C 0.25666 0.82092 1.14404
 C650 C 0.26026 0.85388 1.14160
 C651 C 0.23435 0.87356 1.15217
 C652 C 0.20586 0.86044 1.16526
 C653 C 0.20247 0.82744 1.16785
 C654 C 0.29080 0.86647 1.12698
 C655 C 0.30157 0.89620 1.13088
 C656 C 0.33248 0.90828 1.11653
 C657 C 0.34770 0.93471 1.13019
 C658 C 0.37683 0.94683 1.11747
 C659 C 0.39127 0.93288 1.09063
 C660 C 0.37578 0.90682 1.07654
 C661 C 0.34665 0.89470 1.08922
 H662 H 0.22633 0.78235 1.15899
 H663 H 0.27606 0.80517 1.13594
 H664 H 0.23555 0.89902 1.14985
 H665 H 0.18618 0.87604 1.17295
 H666 H 0.30571 0.84985 1.11368
 H667 H 0.28833 0.91207 1.14649
 H668 H 0.33717 0.94587 1.15099
 H669 H 0.38809 0.96709 1.12872
 H670 H 0.38611 0.89583 1.05557
 H671 H 0.33516 0.87508 1.07720
 C672 C 0.77213 1.17194 1.19391
 C673 C 0.74189 1.16027 1.18339
 C674 C 0.73705 1.15313 1.15126
 C675 C 0.76249 1.15864 1.12951
 C676 C 0.79237 1.17144 1.13977
 C677 C 0.79782 1.17800 1.17223
 C678 C 0.70489 1.14117 1.14053
 C679 C 0.70228 1.11430 1.12405
 C680 C 0.67005 1.10238 1.11322
 C681 C 0.66269 1.07013 1.11651
 C682 C 0.63241 1.05848 1.10583
 C683 C 0.60964 1.07876 1.09063
 C684 C 0.61724 1.11092 1.08694
 C685 C 0.64701 1.12273 1.09851
 H686 H 0.77516 1.17720 1.21892
 H687 H 0.72235 1.15643 1.20042
 H688 H 0.75900 1.15356 1.10450
 H689 H 0.81163 1.17542 1.12249
 H690 H 0.68285 1.15380 1.14785
 H691 H 0.72409 1.10001 1.11966
 H692 H 0.68027 1.05405 1.12760
 H693 H 0.62715 1.03353 1.10865
 H694 H 0.60007 1.12697 1.07522
 H695 H 0.65240 1.14761 1.09527
 C696 C 0.76635 0.85146 0.81276
 C697 C 0.73917 0.86684 0.82618
 C698 C 0.73501 0.86767 0.85926
 C699 C 0.75927 0.85352 0.87879
 C700 C 0.78642 0.83806 0.86543
 C701 C 0.79041 0.83648 0.83212
 C702 C 0.70555 0.88410 0.87231
 C703 C 0.69359 0.87871 0.90156
 C704 C 0.66362 0.89455 0.91427
 C705 C 0.64716 0.88049 0.93998
 C706 C 0.61878 0.89450 0.95265
 C707 C 0.60633 0.92298 0.93991
 C708 C 0.62307 0.93742 0.91461
 C709 C 0.65149 0.92349 0.90201
 H710 H 0.76799 0.85045 0.78709
 H711 H 0.72100 0.87772 0.81056
 H712 H 0.75781 0.85471 0.90442
 H713 H 0.80478 0.82783 0.88127
 H714 H 0.69238 0.89993 0.85634
 H715 H 0.70502 0.86075 0.91647
 H716 H 0.65613 0.85841 0.95014
 H717 H 0.60650 0.88295 0.97230
 H718 H 0.61430 0.95963 0.90461
 H719 H 0.66400 0.93580 0.88304
   
