data_POSCAR
  _audit_creation_date              2014-09-24
  _audit_creation_method            'ToBaCCo'
  _symmetry_space_group_name_H-M    'P1'
  _symmetry_Int_Tables_number       1
  _symmetry_cell_setting            triclinic
  loop_
  _symmetry_equiv_pos_as_xyz
 x,y,z
_cell_length_a 21.2412
_cell_length_b 22.0887
_cell_length_c 20.2853
_cell_angle_alpha 90.631900
_cell_angle_beta 90.979800
_cell_angle_gamma 90.505600
loop_
  _atom_site_label
  _atom_site_type_symbol
  _atom_site_fract_x
  _atom_site_fract_y
  _atom_site_fract_z
O1 O 0.56092 0.12374 0.01133
 O2 O 0.44211 -0.05738 -0.13475
 O3 O 0.59727 0.02640 -0.09351
 O4 O 0.36492 0.06620 -0.00206
 O5 O 0.55777 -0.05550 -0.13109
 O6 O 0.44518 0.12762 0.00756
 O7 O 0.40619 0.02678 -0.10463
 O8 O 0.63625 0.05914 0.01499
 C9 C 0.61844 0.11274 0.01105
 C10 C 0.41170 -0.01106 -0.14909
 C11 C 0.58941 -0.00829 -0.14080
 C12 C 0.38711 0.11901 -0.00044
 O13 O 0.43711 0.05509 0.11091
 O14 O 0.55981 -0.11241 -0.01426
 O15 O 0.59701 -0.03329 0.07264
 O16 O 0.34782 -0.05802 -0.04147
 O17 O 0.43499 -0.11060 -0.01757
 O18 O 0.55913 0.05005 0.11655
 O19 O 0.39142 -0.02520 0.06483
 O20 O 0.64979 -0.06053 -0.02826
 Co21 Co 0.50070 0.08237 0.05591
 Co22 Co 0.49883 -0.07602 -0.06844
 Co23 Co 0.59055 -0.00614 -0.01305
 Co24 Co 0.40664 -0.00259 -0.02167
 O25 O 0.49902 0.00815 -0.01090
 C26 C 0.39830 0.01099 0.11347
 C27 C 0.62032 -0.11260 -0.02152
 C28 C 0.59110 0.00160 0.12185
 C29 C 0.37477 -0.11027 -0.03014
 O30 O -0.12740 0.44314 -0.02288
 O31 O 0.06009 0.55445 0.13271
 O32 O -0.02767 0.40836 0.09031
 O33 O -0.06488 0.63112 -0.00186
 O34 O 0.05804 0.44361 0.12869
 O35 O -0.12999 0.55525 -0.01856
 O36 O -0.02719 0.58875 0.10117
 O37 O -0.05937 0.37062 -0.01800
 C38 C -0.11497 0.38811 -0.01886
 C39 C 0.01111 0.58217 0.14642
 C40 C 0.00847 0.41405 0.13783
 C41 C -0.11990 0.61044 -0.00750
 O42 O -0.05000 0.56411 -0.11716
 O43 O 0.11773 0.44290 0.01300
 O44 O 0.03782 0.40690 -0.07384
 O45 O 0.06410 0.64597 0.04149
 O46 O 0.11727 0.56149 0.01704
 O47 O -0.04664 0.44396 -0.12279
 O48 O 0.03207 0.60497 -0.06512
 O49 O 0.06430 0.35644 0.02838
 Co50 Co -0.08139 0.50151 -0.06440
 Co51 Co 0.08001 0.50065 0.06664
 Co52 Co 0.00820 0.41397 0.01093
 Co53 Co 0.00586 0.58978 0.01972
 O54 O -0.00686 0.50168 0.00673
 C55 C -0.00459 0.60253 -0.11500
 C56 C 0.11827 0.38526 0.02258
 C57 C 0.00190 0.41010 -0.12387
 C58 C 0.11774 0.61877 0.03066
 O59 O 0.00040 -0.12572 0.46550
 O60 O 0.11503 0.05010 0.55294
 O61 O 0.07330 -0.01351 0.37160
 O62 O -0.01305 -0.04841 0.66590
 O63 O 0.10598 0.06492 0.43194
 O64 O -0.00689 -0.10737 0.57986
 O65 O 0.08008 -0.03455 0.59281
 O66 O -0.02004 -0.08467 0.37314
 C67 C -0.00262 -0.12951 0.40495
 C68 C 0.12506 0.00094 0.58245
 C69 C 0.11517 0.02435 0.38811
 C70 C -0.01560 -0.10281 0.64132
 O71 O -0.11790 -0.04838 0.56005
 O72 O -0.00288 0.12780 0.45406
 O73 O -0.09425 0.00828 0.38258
 O74 O 0.03312 0.06028 0.64308
 O75 O 0.00376 0.11438 0.56521
 O76 O -0.11412 -0.07130 0.44242
 O77 O -0.07613 0.03157 0.60264
 O78 O -0.00106 0.07703 0.36436
 Co79 Co -0.05503 -0.08028 0.51038
 Co80 Co 0.05127 0.08222 0.50090
 Co81 Co -0.01012 -0.00283 0.38480
 Co82 Co 0.00054 -0.00319 0.59347
 O83 O -0.00300 0.00235 0.49338
 C84 C -0.12347 -0.00084 0.59307
 C85 C -0.00740 0.12612 0.39369
 C86 C -0.13168 -0.03121 0.40204
 C87 C 0.02072 0.11165 0.62349
 C88 C -0.24840 0.25727 -0.00548
 C89 C -0.22753 0.19748 -0.00275
 C90 C -0.27093 0.15017 0.00251
 C91 C -0.33563 0.16242 0.00508
 C92 C -0.35614 0.22272 0.00209
 C93 C -0.31262 0.26995 -0.00315
 C94 C -0.20349 0.30540 -0.01036
 C95 C -0.16413 0.34433 -0.01431
 H96 H -0.17773 0.18748 -0.00455
 H97 H -0.25388 0.10416 0.00464
 H98 H -0.40575 0.23342 0.00399
 H99 H -0.32899 0.31622 -0.00525
 C100 C 0.25819 0.73922 -0.00377
 C101 C 0.23356 0.79349 -0.02673
 C102 C 0.27283 0.84309 -0.03664
 C103 C 0.33829 0.83977 -0.02374
 C104 C 0.36322 0.78394 -0.00280
 C105 C 0.32319 0.73407 0.00759
 C106 C 0.21457 0.69096 0.00982
 C107 C 0.17261 0.65541 0.02008
 H108 H 0.18340 0.79789 -0.03604
 H109 H 0.25107 0.88425 -0.05398
 H110 H 0.41318 0.77905 0.00721
 H111 H 0.34274 0.69202 0.02529
 C112 C 0.26076 0.26825 -0.00459
 C113 C 0.32443 0.27836 0.01070
 C114 C 0.36640 0.23001 0.00949
 C115 C 0.34471 0.17113 -0.00637
 C116 C 0.28107 0.16198 -0.02391
 C117 C 0.23942 0.21032 -0.02306
 C118 C 0.21547 0.31515 0.00404
 C119 C 0.17333 0.35011 0.01244
 H120 H 0.34119 0.32304 0.02542
 H121 H 0.41522 0.23831 0.02329
 H122 H 0.26316 0.11723 -0.03669
 H123 H 0.19007 0.20215 -0.03475
 C124 C -0.25964 0.73466 0.00220
 C125 C -0.24017 0.79202 0.02419
 C126 C -0.28060 0.84095 0.01867
 C127 C -0.34141 0.83331 -0.00879
 C128 C -0.36222 0.77505 -0.02770
 C129 C -0.32113 0.72581 -0.02272
 C130 C -0.21376 0.68727 0.00034
 C131 C -0.17195 0.65090 -0.00243
 H132 H -0.19281 0.79940 0.04357
 H133 H -0.26361 0.88515 0.03475
 H134 H -0.40887 0.76819 -0.04899
 H135 H -0.33653 0.68148 -0.04013
 C136 C 0.00388 -0.28936 0.30369
 C137 C 0.05833 -0.32365 0.29532
 C138 C 0.05899 -0.37032 0.24806
 C139 C 0.00535 -0.38249 0.20824
 C140 C -0.05042 -0.35081 0.22056
 C141 C -0.05106 -0.30452 0.26796
 C142 C 0.00545 -0.23462 0.34286
 C143 C 0.00388 -0.18702 0.37242
 H144 H 0.10115 -0.31224 0.32266
 H145 H 0.10274 -0.39365 0.23933
 H146 H -0.09237 -0.35905 0.19056
 H147 H -0.09348 -0.27829 0.27405
 C148 C 0.02052 0.26628 0.73574
 C149 C -0.03203 0.30412 0.73236
 C150 C -0.03593 0.35474 0.77427
 C151 C 0.01268 0.36787 0.82030
 C152 C 0.06701 0.33167 0.82033
 C153 C 0.07079 0.28123 0.77842
 C154 C 0.02162 0.21079 0.69766
 C155 C 0.02173 0.16463 0.66523
 H156 H -0.07110 0.29317 0.69919
 H157 H -0.07859 0.38121 0.77347
 H158 H 0.10521 0.34032 0.85532
 H159 H 0.11188 0.25259 0.78119
 C160 C -0.01216 0.28269 0.28872
 C161 C 0.04346 0.31718 0.28589
 C162 C 0.04866 0.36424 0.24048
 C163 C -0.00166 0.37692 0.19707
 C164 C -0.05878 0.34479 0.20353
 C165 C -0.06389 0.29792 0.24891
 C166 C -0.01385 0.22818 0.32718
 C167 C -0.01284 0.18156 0.35769
 H168 H 0.08389 0.30574 0.31642
 H169 H 0.09333 0.38778 0.23630
 H170 H -0.09837 0.35340 0.17069
 H171 H -0.10713 0.27164 0.25056
 C172 C -0.00122 -0.25507 0.75263
 C173 C -0.04466 -0.30250 0.74329
 C174 C -0.04312 -0.35281 0.78461
 C175 C 0.00160 -0.35604 0.83683
 C176 C 0.04807 -0.30985 0.84225
 C177 C 0.04627 -0.25977 0.80078
 C178 C -0.00667 -0.20068 0.71446
 C179 C -0.01123 -0.15532 0.68219
 H180 H -0.08114 -0.29968 0.70548
 H181 H -0.07930 -0.38730 0.77774
 H182 H 0.08402 -0.31042 0.88081
 H183 H 0.08071 -0.22369 0.80783
 C184 C 0.28806 -0.00691 0.68978
 C185 C 0.32910 -0.05575 0.69701
 C186 C 0.37464 -0.05526 0.74802
 C187 C 0.37850 -0.00643 0.79367
 C188 C 0.34011 0.04440 0.78226
 C189 C 0.29536 0.04391 0.73104
 C190 C 0.23394 -0.01008 0.64574
 C191 C 0.18541 -0.00819 0.61389
 H192 H 0.32407 -0.09530 0.66525
 H193 H 0.40358 -0.09501 0.75426
 H194 H 0.34187 0.08342 0.81515
 H195 H 0.26412 0.08215 0.72580
 C196 C -0.29314 -0.03097 0.29236
 C197 C -0.30033 -0.07570 0.24337
 C198 C -0.34122 -0.06672 0.18978
 C199 C -0.37535 -0.01260 0.18428
 C200 C -0.37095 0.03042 0.23584
 C201 C -0.32979 0.02137 0.28941
 C202 C -0.24063 -0.03396 0.33802
 C203 C -0.19270 -0.03421 0.37074
 H204 H -0.27164 -0.11601 0.24459
 H205 H -0.34361 -0.10081 0.15100
 H206 H -0.39649 0.07255 0.23298
 H207 H -0.32396 0.05672 0.32653
 C208 C 0.26981 0.00876 0.27384
 C209 C 0.26423 -0.03485 0.22330
 C210 C 0.30837 -0.03690 0.17292
 C211 C 0.35862 0.00493 0.17241
 C212 C 0.36570 0.04643 0.22537
 C213 C 0.32146 0.04843 0.27559
 C214 C 0.21914 0.01629 0.31947
 C215 C 0.17351 0.02155 0.35359
 H216 H 0.22424 -0.06566 0.22130
 H217 H 0.30141 -0.06917 0.13281
 H218 H 0.40385 0.07930 0.22650
 H219 H 0.32618 0.08249 0.31425
 C220 C -0.28450 0.01356 0.69835
 C221 C -0.32161 -0.03914 0.70227
 C222 C -0.36668 -0.04484 0.75164
 C223 C -0.37478 0.00203 0.79807
 C224 C -0.34019 0.05628 0.79102
 C225 C -0.29530 0.06187 0.74172
 C226 C -0.22980 0.01431 0.65686
 C227 C -0.18189 0.01075 0.62574
 H228 H -0.31336 -0.07715 0.66942
 H229 H -0.39219 -0.08723 0.75600
 H230 H -0.34522 0.09326 0.82601
 H231 H -0.26671 0.10265 0.73974
   
