data_POSCAR
  _audit_creation_date              2014-09-24
  _audit_creation_method            'ToBaCCo'
  _symmetry_space_group_name_H-M    'P1'
  _symmetry_Int_Tables_number       1
  _symmetry_cell_setting            triclinic
  loop_
  _symmetry_equiv_pos_as_xyz
 x,y,z
_cell_length_a 18.5050
_cell_length_b 17.4751
_cell_length_c 18.6108
_cell_angle_alpha 89.822800
_cell_angle_beta 90.674400
_cell_angle_gamma 89.326600
loop_
  _atom_site_label
  _atom_site_type_symbol
  _atom_site_fract_x
  _atom_site_fract_y
  _atom_site_fract_z
C1 C 0.27248 0.14786 0.25946
 C2 C 0.24707 0.11518 0.32411
 C3 C 0.17767 0.13443 0.34999
 C4 C 0.13796 0.19332 0.31487
 C5 C 0.16321 0.22797 0.25220
 C6 C 0.22956 0.20363 0.22301
 C7 C 0.33656 0.12070 0.22720
 C8 C 0.35406 0.14266 0.15627
 C9 C 0.31234 0.20098 0.12248
 C10 C 0.25096 0.23233 0.15553
 C11 C 0.20748 0.28767 0.11966
 C12 C 0.14230 0.31332 0.14975
 C13 C 0.12051 0.28312 0.21582
 H14 H 0.27884 0.07084 0.35084
 H15 H 0.08542 0.21066 0.33480
 H16 H 0.36781 0.07590 0.25391
 H17 H 0.32546 0.21925 0.06850
 H18 H 0.22329 0.30938 0.06770
 H19 H 0.06901 0.30103 0.23779
 C20 C -0.22158 0.87476 0.21032
 C21 C -0.18650 0.91573 0.26453
 C22 C -0.13970 0.87820 0.31295
 C23 C -0.12461 0.80009 0.30500
 C24 C -0.15337 0.76049 0.24594
 C25 C -0.20466 0.79692 0.19999
 C26 C -0.27216 0.91140 0.16571
 C27 C -0.31154 0.87078 0.11372
 C28 C -0.29306 0.79273 0.10137
 C29 C -0.23560 0.75710 0.14149
 C30 C -0.20373 0.68598 0.12186
 C31 C -0.14533 0.65431 0.16288
 C32 C -0.12604 0.68830 0.22817
 H33 H -0.19787 0.97634 0.27099
 H34 H -0.08612 0.77206 0.34112
 H35 H -0.28400 0.97159 0.17452
 H36 H -0.31981 0.76173 0.05856
 H37 H -0.21943 0.65918 0.07175
 H38 H -0.08152 0.66404 0.25956
 C39 C -0.26161 0.15470 -0.25888
 C40 C -0.23092 0.11158 -0.31441
 C41 C -0.15747 0.11878 -0.32990
 C42 C -0.11569 0.17260 -0.29351
 C43 C -0.14670 0.21875 -0.24054
 C44 C -0.21958 0.20884 -0.22187
 C45 C -0.33068 0.13813 -0.23443
 C46 C -0.35465 0.16816 -0.16847
 C47 C -0.31609 0.22797 -0.13604
 C48 C -0.24867 0.24886 -0.16274
 C49 C -0.20634 0.30267 -0.12639
 C50 C -0.13447 0.31308 -0.14619
 C51 C -0.10468 0.27071 -0.20236
 H52 H -0.26249 0.06845 -0.34193
 H53 H -0.05890 0.17723 -0.30563
 H54 H -0.36072 0.09329 -0.26120
 H55 H -0.33500 0.25300 -0.08630
 H56 H -0.22746 0.33258 -0.08005
 H57 H -0.04809 0.27646 -0.21474
 C58 C 0.25527 0.84439 -0.24594
 C59 C 0.23047 0.88040 -0.30971
 C60 C 0.16616 0.85696 -0.34333
 C61 C 0.13206 0.79044 -0.31691
 C62 C 0.15733 0.75286 -0.25431
 C63 C 0.21792 0.78188 -0.21706
 C64 C 0.31389 0.87404 -0.20789
 C65 C 0.33356 0.84714 -0.13851
 C66 C 0.29557 0.78536 -0.10930
 C67 C 0.23868 0.75133 -0.14911
 C68 C 0.19868 0.69092 -0.12013
 C69 C 0.13871 0.66071 -0.15751
 C70 C 0.11903 0.69123 -0.22495
 H71 H 0.25836 0.93006 -0.32987
 H72 H 0.08306 0.77014 -0.34268
 H73 H 0.34171 0.92213 -0.23116
 H74 H 0.30958 0.76457 -0.05600
 H75 H 0.21151 0.67010 -0.06646
 H76 H 0.07027 0.67139 -0.25148
 C77 C 0.13428 1.23907 0.75398
 C78 C 0.10011 1.20744 0.69239
 C79 C 0.12763 1.13962 0.66146
 C80 C 0.19257 1.10829 0.68847
 C81 C 0.22593 1.13833 0.74968
 C82 C 0.19517 1.20205 0.78451
 C83 C 0.10601 1.30368 0.78880
 C84 C 0.13157 1.32572 0.85811
 C85 C 0.19059 1.28665 0.88871
 C86 C 0.22363 1.22644 0.85154
 C87 C 0.28227 1.18708 0.88240
 C88 C 0.31351 1.12534 0.84639
 C89 C 0.28656 1.10180 0.77980
 H90 H 0.05083 1.23318 0.67111
 H91 H 0.21489 1.05705 0.66443
 H92 H 0.06043 1.33334 0.76396
 H93 H 0.21056 1.30277 0.94138
 H94 H 0.30294 1.20332 0.93488
 H95 H 0.31025 1.05240 0.75363
 C96 C 0.85048 0.75552 0.75801
 C97 C 0.87729 0.77588 0.69040
 C98 C 0.84416 0.83575 0.65124
 C99 C 0.77859 0.86749 0.67614
 C100 C 0.75596 0.85258 0.74590
 C101 C 0.79372 0.79837 0.78821
 C102 C 0.88328 0.69753 0.79862
 C103 C 0.86640 0.68841 0.87180
 C104 C 0.81549 0.73680 0.90378
 C105 C 0.77708 0.78975 0.86166
 C106 C 0.72394 0.83611 0.89219
 C107 C 0.68556 0.88833 0.84933
 C108 C 0.70026 0.89579 0.77619
 H109 H 0.92624 0.74885 0.67071
 H110 H 0.75056 0.91208 0.64572
 H111 H 0.92644 0.66384 0.77489
 H112 H 0.80425 0.73168 0.96062
 H113 H 0.71186 0.83137 0.94880
 H114 H 0.67086 0.93805 0.74412
 C115 C 0.15781 0.75279 1.26340
 C116 C 0.12413 0.78919 1.32178
 C117 C 0.14964 0.85972 1.34641
 C118 C 0.21131 0.89159 1.31594
 C119 C 0.24433 0.85722 1.25691
 C120 C 0.21697 0.78805 1.22969
 C121 C 0.12778 0.68712 1.23262
 C122 C 0.15080 0.66182 1.16465
 C123 C 0.21064 0.69596 1.13255
 C124 C 0.24437 0.75817 1.16491
 C125 C 0.29925 0.79649 1.12882
 C126 C 0.32492 0.86590 1.15514
 C127 C 0.29856 0.89549 1.21966
 H128 H 0.07518 0.76599 1.34424
 H129 H 0.22968 0.94681 1.33438
 H130 H 0.08039 0.66233 1.25688
 H131 H 0.22843 0.67670 1.08018
 H132 H 0.31774 0.77586 1.07723
 H133 H 0.31662 0.95090 1.23800
 C134 C 0.84257 1.24702 1.24479
 C135 C 0.87450 1.21652 1.30739
 C136 C 0.84194 1.15617 1.34355
 C137 C 0.77281 1.13183 1.32009
 C138 C 0.74155 1.16024 1.25617
 C139 C 0.77729 1.21781 1.21754
 C140 C 0.87877 1.30236 1.20641
 C141 C 0.85447 1.32745 1.13824
 C142 C 0.78944 1.29789 1.11004
 C143 C 0.75005 1.24335 1.15018
 C144 C 0.68666 1.21002 1.12256
 C145 C 0.65214 1.14958 1.15950
 C146 C 0.67892 1.12692 1.22722
 H147 H 0.92710 1.23642 1.32512
 H148 H 0.74601 1.08561 1.34774
 H149 H 0.92909 1.32307 1.22909
 H150 H 0.77046 1.31603 1.05734
 H151 H 0.66693 1.22788 1.07000
 H152 H 0.65366 1.08002 1.25532
 O153 O 0.56627 0.92699 0.86079
 O154 O 0.43227 0.90447 1.09368
 O155 O 0.64987 0.97821 1.05283
 O156 O 0.39176 0.90005 0.96802
 O157 O 0.56879 0.89636 1.08211
 O158 O 0.42881 0.93219 0.86341
 O159 O 0.32903 0.96451 1.06589
 O160 O 0.64907 0.98928 0.92372
 C161 C 0.63049 0.93631 0.88081
 C162 C 0.36504 0.91573 1.10740
 C163 C 0.63424 0.91256 1.07606
 C164 C 0.38943 0.89184 0.90112
 O165 O 0.43178 1.07939 0.85981
 O166 O 0.57851 1.03738 1.14124
 O167 O 0.58927 1.13440 0.93598
 O168 O 0.39108 1.09251 1.04912
 O169 O 0.44358 1.04805 1.14190
 O170 O 0.56654 1.06983 0.84358
 O171 O 0.34946 1.03829 0.93472
 O172 O 0.57999 1.11941 1.05957
 Co173 Co 0.49859 1.00242 0.86991
 Co174 Co 0.50586 0.97512 1.10332
 Co175 Co 0.60902 1.05191 0.99325
 Co176 Co 0.40025 0.99693 1.01002
 O177 O 0.50593 1.00892 0.98846
 C178 C 0.36814 1.07914 0.88243
 C179 C 0.59676 1.10287 1.12140
 C180 C 0.59505 1.12662 0.87067
 C181 C 0.40063 1.09635 1.11468
 O182 O 0.09367 0.43698 0.12076
 O183 O 0.06774 0.54959 -0.13323
 O184 O 0.09179 0.38494 -0.03665
 O185 O 0.10115 0.62512 0.05834
 O186 O 0.04222 0.41446 -0.13254
 O187 O 0.06119 0.57249 0.15296
 O188 O 0.05932 0.64824 -0.06377
 O189 O 0.04337 0.33916 0.06998
 C190 C 0.09271 0.36575 0.11009
 C191 C 0.08569 0.61602 -0.11671
 C192 C 0.09176 0.37968 -0.10265
 C193 C 0.10622 0.61473 0.12384
 O194 O -0.07976 0.53834 0.13738
 O195 O -0.09179 0.43182 -0.09801
 O196 O -0.09467 0.39176 0.03454
 O197 O -0.07546 0.65297 -0.02431
 O198 O -0.06937 0.57840 -0.11775
 O199 O -0.04459 0.40541 0.13445
 O200 O -0.03669 0.64416 0.10107
 O201 O -0.03740 0.32233 -0.06117
 Co202 Co 0.00802 0.48997 0.12478
 Co203 Co -0.01186 0.49521 -0.10651
 Co204 Co -0.00153 0.39497 -0.00283
 Co205 Co 0.01154 0.63002 0.01750
 O206 O 0.00492 0.50664 0.01091
 C207 C -0.08752 0.60871 0.12854
 C208 C -0.08612 0.35805 -0.10166
 C209 C -0.09652 0.38046 0.10006
 C210 C -0.09273 0.63737 -0.08759
 O211 O 1.17707 0.04429 0.44842
 O212 O 0.85627 0.06920 0.55427
 O213 O 0.94678 0.11978 0.40543
 O214 O 1.05583 0.03579 0.63962
 O215 O 0.85241 0.05515 0.41993
 O216 O 1.09830 0.09690 0.54807
 O217 O 0.92434 0.01892 0.64147
 O218 O 1.07691 0.10142 0.41759
 C219 C 1.14390 0.09219 0.40500
 C220 C 0.87651 0.06678 0.61904
 C221 C 0.88100 0.11240 0.39439
 C222 C 1.08749 0.09382 0.61431
 O223 O 1.15422 -0.03690 0.57706
 O224 O 0.87183 -0.09003 0.43096
 O225 O 1.06525 -0.04095 0.36209
 O226 O 0.94622 -0.12945 0.58983
 O227 O 0.84946 -0.07289 0.56497
 O228 O 1.11561 -0.08640 0.45720
 O229 O 1.06835 -0.11168 0.58468
 O230 O 0.93380 -0.02536 0.35081
 Co231 Co 1.10161 0.00551 0.49994
 Co232 Co 0.87130 -0.00966 0.49305
 Co233 Co 1.00456 0.03526 0.39331
 Co234 Co 0.99824 -0.04345 0.60597
 O235 O 0.99048 -0.00544 0.50084
 C236 C 1.13078 -0.09736 0.60373
 C237 C 0.89215 -0.08003 0.36734
 C238 C 1.10556 -0.08999 0.39148
 C239 C 0.88050 -0.12535 0.59702
   
