data_POSCAR
  _audit_creation_date              2014-09-24
  _audit_creation_method            'ToBaCCo'
  _symmetry_space_group_name_H-M    'P1'
  _symmetry_Int_Tables_number       1
  _symmetry_cell_setting            triclinic
  loop_
  _symmetry_equiv_pos_as_xyz
 x,y,z
_cell_length_a 52.6998
_cell_length_b 49.9444
_cell_length_c 49.4690
_cell_angle_alpha 91.196700
_cell_angle_beta 88.541100
_cell_angle_gamma 85.771000
loop_
  _atom_site_label
  _atom_site_type_symbol
  _atom_site_fract_x
  _atom_site_fract_y
  _atom_site_fract_z
N1 N 0.59255 0.66640 0.62443
 N2 N 0.58125 0.65376 0.64386
 C3 C 0.55921 0.66767 0.65113
 C4 C 0.55660 0.69024 0.63548
 C5 C 0.57818 0.68889 0.61877
 H6 H 0.54610 0.66199 0.66681
 H7 H 0.58325 0.70314 0.60377
 Cu8 Cu 0.59711 0.62103 0.65859
 Cu9 Cu 0.62543 0.65294 0.60865
 Cu10 Cu 0.63918 0.58482 0.61826
 N11 N 0.61216 0.58633 0.66945
 N12 N 0.62881 0.57230 0.65359
 C13 C 0.63617 0.54921 0.66562
 C14 C 0.62351 0.54876 0.69040
 C15 C 0.60834 0.57267 0.69220
 H16 H 0.64978 0.53390 0.65699
 H17 H 0.59567 0.57977 0.70877
 N18 N 0.65561 0.60488 0.58968
 N19 N 0.65114 0.63099 0.58668
 C20 C 0.66604 0.63889 0.56626
 C21 C 0.68062 0.61659 0.55603
 C22 C 0.67350 0.59544 0.57130
 H23 H 0.66600 0.65925 0.55927
 H24 H 0.68108 0.57475 0.56937
 H25 H 0.61184 0.61645 0.61146
 H26 H 0.63823 0.62237 0.63478
 N27 N 0.90880 0.33235 0.10911
 N28 N 0.91870 0.34954 0.12554
 C29 C 0.94199 0.33955 0.13249
 C30 C 0.94691 0.31473 0.11982
 C31 C 0.92542 0.31075 0.10508
 H32 H 0.95435 0.34949 0.14595
 H33 H 0.92207 0.29365 0.09226
 Cu34 Cu 0.90025 0.38314 0.13686
 Cu35 Cu 0.87536 0.33959 0.09381
 Cu36 Cu 0.83877 0.39451 0.12071
 N37 N 0.87790 0.41048 0.15565
 N38 N 0.85384 0.41468 0.14950
 C39 C 0.84279 0.43430 0.16584
 C40 C 0.86089 0.44286 0.18308
 C41 C 0.88301 0.42729 0.17610
 H42 H 0.82303 0.44179 0.16531
 H43 H 0.90134 0.42781 0.18535
 N44 N 0.82714 0.37154 0.09136
 N45 N 0.84108 0.35054 0.08110
 C46 C 0.82829 0.33942 0.06103
 C47 C 0.80528 0.35414 0.05853
 C48 C 0.80514 0.37436 0.07811
 H49 H 0.83529 0.32213 0.04878
 H50 H 0.79033 0.39015 0.08222
 H51 H 0.87164 0.38094 0.09908
 H52 H 0.86202 0.36044 0.12843
 N53 N 0.40774 0.17078 -0.10118
 N54 N 0.42314 0.15771 -0.11906
 C55 C 0.44287 0.17252 -0.12469
 C56 C 0.43958 0.19616 -0.10946
 C57 C 0.41711 0.19440 -0.09485
 H58 H 0.45808 0.16674 -0.13919
 H59 H 0.40824 0.20926 -0.08071
 Cu60 Cu 0.41540 0.12326 -0.13434
 Cu61 Cu 0.37692 0.15604 -0.08727
 Cu62 Cu 0.36201 0.09525 -0.11562
 N63 N 0.40163 0.09544 -0.15638
 N64 N 0.38066 0.08456 -0.14902
 C65 C 0.37568 0.06556 -0.16742
 C66 C 0.39454 0.06464 -0.18751
 C67 C 0.41067 0.08386 -0.17985
 H68 H 0.35962 0.05333 -0.16606
 H69 H 0.42781 0.08890 -0.19049
 N70 N 0.34109 0.11443 -0.08678
 N71 N 0.34675 0.13754 -0.07590
 C72 C 0.32902 0.14528 -0.05666
 C73 C 0.31133 0.12617 -0.05557
 C74 C 0.31947 0.10702 -0.07499
 H75 H 0.32889 0.16352 -0.04450
 H76 H 0.31033 0.08895 -0.08004
 H77 H 0.38814 0.11642 -0.09437
 H78 H 0.37080 0.13386 -0.12213
 N79 N 0.10316 0.81260 0.37954
 N80 N 0.09006 0.82591 0.36126
 C81 C 0.06793 0.81460 0.35771
 C82 C 0.06734 0.79281 0.37458
 C83 C 0.09002 0.79213 0.38807
 H84 H 0.05376 0.82142 0.34347
 H85 H 0.09655 0.77774 0.40289
 Cu86 Cu 0.10384 0.85568 0.34258
 Cu87 Cu 0.13654 0.82250 0.39024
 Cu88 Cu 0.15146 0.88623 0.37147
 N89 N 0.11301 0.89074 0.33135
 N90 N 0.13129 0.90286 0.34301
 C91 C 0.13381 0.92659 0.33118
 C92 C 0.11611 0.92940 0.31101
 C93 C 0.10324 0.90632 0.31172
 H94 H 0.14778 0.94041 0.33657
 H95 H 0.08804 0.90119 0.29873
 N96 N 0.16972 0.86566 0.39954
 N97 N 0.16436 0.84120 0.40618
 C98 C 0.18029 0.83232 0.42544
 C99 C 0.19651 0.85203 0.43110
 C100 C 0.18933 0.87292 0.41431
 H101 H 0.18005 0.81296 0.43481
 H102 H 0.19776 0.89192 0.41283
 H103 H 0.12389 0.86190 0.38568
 H104 H 0.14727 0.84763 0.35932
 C105 C 0.11259 0.12425 0.15491
 C106 C 0.09021 0.14069 0.15140
 C107 C 0.08890 0.15984 0.13102
 C108 C 0.11006 0.16197 0.11347
 C109 C 0.13252 0.14556 0.11660
 C110 C 0.13388 0.12678 0.13753
 C111 C 0.11404 0.10543 0.17558
 C112 C 0.13651 0.08890 0.17902
 C113 C 0.15774 0.09190 0.16192
 C114 C 0.15656 0.11058 0.14113
 C115 C 0.17766 0.11321 0.12379
 C116 C 0.17624 0.13137 0.10252
 C117 C 0.15366 0.14766 0.09915
 H118 H 0.07384 0.13884 0.16478
 H119 H 0.10901 0.17606 0.09712
 H120 H 0.09776 0.10410 0.18914
 H121 H 0.17517 0.07940 0.16461
 H122 H 0.19512 0.10078 0.12653
 H123 H 0.15263 0.16232 0.08330
 C124 C 0.39535 0.88714 0.62917
 C125 C 0.41569 0.86735 0.62745
 C126 C 0.41760 0.84826 0.60601
 C127 C 0.39921 0.84955 0.58594
 C128 C 0.37865 0.86908 0.58749
 C129 C 0.37669 0.88795 0.60920
 C130 C 0.39334 0.90606 0.65064
 C131 C 0.37295 0.92595 0.65233
 C132 C 0.35431 0.92640 0.63252
 C133 C 0.35608 0.90764 0.61093
 C134 C 0.33751 0.90820 0.59111
 C135 C 0.33910 0.88927 0.56962
 C136 C 0.35997 0.86996 0.56775
 H137 H 0.43017 0.86721 0.64258
 H138 H 0.40072 0.83500 0.56927
 H139 H 0.40741 0.90480 0.66621
 H140 H 0.33843 0.94152 0.63387
 H141 H 0.32160 0.92328 0.59251
 H142 H 0.36201 0.85576 0.55086
 C143 C 0.89154 0.64156 0.35274
 C144 C 0.90952 0.66092 0.35358
 C145 C 0.90683 0.68240 0.37239
 C146 C 0.88571 0.68464 0.39024
 C147 C 0.86765 0.66532 0.39001
 C148 C 0.87041 0.64354 0.37111
 C149 C 0.89480 0.62055 0.33355
 C150 C 0.87644 0.59930 0.33113
 C151 C 0.85471 0.60279 0.35159
 C152 C 0.85230 0.62411 0.37054
 C153 C 0.83161 0.62573 0.38895
 C154 C 0.82742 0.64791 0.41005
 C155 C 0.84719 0.66784 0.40869
 H156 H 0.92538 0.65949 0.33912
 H157 H 0.88354 0.70136 0.40467
 H158 H 0.91108 0.61944 0.31962
 H159 H 0.84058 0.58811 0.35148
 H160 H 0.81802 0.61050 0.38823
 H161 H 0.84551 0.68458 0.42309
 C162 C 0.59775 0.36973 -0.13547
 C163 C 0.58191 0.34837 -0.13490
 C164 C 0.58542 0.32807 -0.11575
 C165 C 0.60516 0.32918 -0.09732
 C166 C 0.62105 0.35051 -0.09751
 C167 C 0.61739 0.37084 -0.11671
 C168 C 0.59431 0.38998 -0.15456
 C169 C 0.61039 0.41116 -0.15537
 C170 C 0.62969 0.41238 -0.13633
 C171 C 0.63328 0.39235 -0.11705
 C172 C 0.65245 0.39357 -0.09802
 C173 C 0.65625 0.37345 -0.07882
 C174 C 0.64038 0.35196 -0.07865
 H175 H 0.56723 0.34735 -0.14973
 H176 H 0.60798 0.31349 -0.08263
 H177 H 0.57926 0.38915 -0.16903
 H178 H 0.64168 0.42908 -0.13616
 H179 H 0.66454 0.41023 -0.09816
 H180 H 0.64252 0.33666 -0.06353
 C181 C -0.03085 0.29800 0.12192
 C182 C -0.02750 0.27245 0.10973
 C183 C -0.00381 0.25490 0.11199
 C184 C -0.00500 0.22695 0.11023
 C185 C 0.01702 0.20979 0.11235
 C186 C 0.04074 0.22034 0.11600
 C187 C 0.04204 0.24830 0.11692
 C188 C 0.02000 0.26545 0.11506
 C189 C 0.06449 0.20285 0.11808
 C190 C 0.06500 0.17692 0.12819
 H191 H -0.04316 0.26426 0.09941
 H192 H -0.02306 0.21836 0.10740
 H193 H 0.01544 0.18835 0.11065
 H194 H 0.06016 0.25690 0.11925
 H195 H 0.02176 0.28690 0.11555
 H196 H 0.08229 0.21147 0.11336
 H197 H -0.01591 0.30518 0.13416
 H198 H 0.04759 0.16960 0.13626
 C199 C 0.53540 0.71116 0.63740
 C200 C 0.53346 0.73281 0.62000
 C201 C 0.51241 0.75419 0.62184
 C202 C 0.50693 0.76956 0.59900
 C203 C 0.48729 0.79000 0.59996
 C204 C 0.47275 0.79555 0.62394
 C205 C 0.47867 0.78065 0.64697
 C206 C 0.49824 0.76017 0.64598
 C207 C 0.45193 0.81716 0.62598
 C208 C 0.43880 0.82707 0.60367
 H209 H 0.54736 0.73367 0.60361
 H210 H 0.51786 0.76568 0.58030
 H211 H 0.48394 0.80164 0.58204
 H212 H 0.46806 0.78484 0.66582
 H213 H 0.50244 0.74949 0.66431
 H214 H 0.44568 0.82421 0.64606
 H215 H 0.52070 0.70888 0.65265
 H216 H 0.44286 0.81772 0.58395
 C217 C 1.04875 0.77447 0.37729
 C218 C 1.02577 0.77682 0.36375
 C219 C 1.00676 0.75651 0.36542
 C220 C 0.98106 0.76439 0.36139
 C221 C 0.96270 0.74556 0.36210
 C222 C 0.96983 0.71835 0.36656
 C223 C 0.99559 0.71039 0.37006
 C224 C 1.01390 0.72926 0.36965
 C225 C 0.95113 0.69767 0.36632
 C226 C 0.92540 0.70320 0.37327
 H227 H 1.02094 0.79460 0.35225
 H228 H 0.97516 0.78520 0.35766
 H229 H 0.94312 0.75227 0.35847
 H230 H 1.00159 0.68947 0.37309
 H231 H 1.03365 0.72231 0.37192
 H232 H 0.95821 0.67709 0.36193
 H233 H 1.05242 0.75794 0.39081
 H234 H 0.91889 0.72295 0.38121
 C235 C 0.45563 0.21906 -0.10905
 C236 C 0.47966 0.21793 -0.12170
 C237 C 0.49589 0.24088 -0.12170
 C238 C 0.52237 0.23584 -0.12464
 C239 C 0.53827 0.25704 -0.12494
 C240 C 0.52791 0.28378 -0.12255
 C241 C 0.50139 0.28884 -0.12033
 C242 C 0.48550 0.26764 -0.11979
 C243 C 0.54409 0.30675 -0.12331
 C244 C 0.56928 0.30506 -0.11500
 H245 H 0.48748 0.19912 -0.13084
 H246 H 0.53079 0.21542 -0.12661
 H247 H 0.55858 0.25241 -0.12759
 H248 H 0.49294 0.30928 -0.11893
 H249 H 0.46514 0.27232 -0.11843
 H250 H 0.53531 0.32603 -0.12897
 H251 H 0.44850 0.23693 -0.09773
 H252 H 0.57700 0.28677 -0.10595
 C253 C 0.11194 -0.04867 0.29180
 C254 C 0.12638 -0.02633 0.29172
 C255 C 0.12355 -0.00469 0.27171
 C256 C 0.14345 0.01220 0.26817
 C257 C 0.14186 0.03255 0.24918
 C258 C 0.12022 0.03643 0.23324
 C259 C 0.09996 0.02012 0.23740
 C260 C 0.10155 -0.00022 0.25640
 C261 C 0.11784 0.05746 0.21256
 C262 C 0.13875 0.06869 0.20052
 H263 H 0.14140 -0.02521 0.30613
 H264 H 0.16042 0.00952 0.28003
 H265 H 0.15749 0.04531 0.24738
 H266 H 0.08288 0.02301 0.22576
 H267 H 0.08537 -0.01207 0.25913
 H268 H 0.09900 0.06276 0.20527
 H269 H 0.09765 -0.05097 0.27682
 H270 H 0.15775 0.06106 0.20556
 C271 C 0.62633 0.52832 -0.29086
 C272 C 0.61223 0.52850 -0.26654
 C273 C 0.61587 0.50714 -0.24640
 C274 C 0.59548 0.50201 -0.22895
 C275 C 0.59835 0.48216 -0.20950
 C276 C 0.62183 0.46723 -0.20700
 C277 C 0.64239 0.47285 -0.22400
 C278 C 0.63946 0.49252 -0.24359
 C279 C 0.62579 0.44647 -0.18631
 C280 C 0.60617 0.43208 -0.17586
 H281 H 0.59715 0.54408 -0.26249
 H282 H 0.57725 0.51333 -0.23042
 H283 H 0.58232 0.47898 -0.19616
 H284 H 0.66078 0.46193 -0.22215
 H285 H 0.65584 0.49657 -0.25605
 H286 H 0.64514 0.44117 -0.18046
 H287 H 0.63985 0.51147 -0.29589
 H288 H 0.58743 0.43482 -0.18429
 C289 C 0.39776 1.04691 0.78828
 C290 C 0.38042 1.02804 0.78194
 C291 C 0.38331 1.00945 0.75811
 C292 C 0.36200 0.99658 0.74965
 C293 C 0.36388 0.97850 0.72761
 C294 C 0.38725 0.97290 0.71350
 C295 C 0.40867 0.98540 0.72225
 C296 C 0.40679 1.00349 0.74429
 C297 C 0.39026 0.95343 0.69042
 C298 C 0.36998 0.94593 0.67499
 H299 H 0.36347 1.02723 0.79462
 H300 H 0.34379 1.00046 0.76020
 H301 H 0.34711 0.96861 0.72217
 H302 H 0.42699 0.98109 0.71204
 H303 H 0.42390 1.01221 0.75063
 H304 H 0.40943 0.94581 0.68463
 H305 H 0.41409 1.04927 0.77513
 H306 H 0.35130 0.95605 0.67859
 C307 C 0.85664 0.46383 0.20440
 C308 C 0.87645 0.47326 0.21923
 C309 C 0.87249 0.49449 0.24057
 C310 C 0.89278 0.50994 0.24700
 C311 C 0.88975 0.53022 0.26698
 C312 C 0.86635 0.53523 0.28117
 C313 C 0.84622 0.51943 0.27511
 C314 C 0.84921 0.49925 0.25504
 C315 C 0.86241 0.55660 0.30232
 C316 C 0.88067 0.57456 0.30758
 H317 H 0.89583 0.46583 0.21411
 H318 H 0.91098 0.50648 0.23634
 H319 H 0.90574 0.54189 0.27128
 H320 H 0.82809 0.52271 0.28594
 H321 H 0.83339 0.48719 0.25128
 H322 H 0.84442 0.55860 0.31356
 H323 H 0.83739 0.47258 0.20773
 H324 H 0.87764 0.58658 0.31979
 C325 C 0.28846 0.12577 -0.03794
 C326 C 0.28443 0.14257 -0.01512
 C327 C 0.26186 0.14181 0.00313
 C328 C 0.26391 0.14873 0.03057
 C329 C 0.24298 0.14798 0.04841
 C330 C 0.21948 0.14061 0.03898
 C331 C 0.21720 0.13455 0.01137
 C332 C 0.23822 0.13496 -0.00640
 C333 C 0.19694 0.13974 0.05727
 C334 C 0.19882 0.13331 0.08450
 H335 H 0.29913 0.15547 -0.00936
 H336 H 0.28183 0.15449 0.03828
 H337 H 0.24516 0.15358 0.06943
 H338 H 0.19917 0.12923 0.00359
 H339 H 0.23579 0.13033 -0.02760
 H340 H 0.17831 0.14213 0.04849
 H341 H 0.27514 0.11089 -0.04239
 H342 H 0.21732 0.12736 0.09239
 C343 C 0.69976 0.61480 0.53375
 C344 C 0.70804 0.63739 0.52103
 C345 C 0.72775 0.63567 0.49906
 C346 C 0.74236 0.65766 0.49482
 C347 C 0.76146 0.65652 0.47458
 C348 C 0.76610 0.63338 0.45797
 C349 C 0.75105 0.61167 0.46177
 C350 C 0.73205 0.61276 0.48206
 C351 C 0.78648 0.63116 0.43676
 C352 C 0.80350 0.65084 0.43327
 H353 H 0.70096 0.65715 0.52845
 H354 H 0.73923 0.67563 0.50746
 H355 H 0.77259 0.67371 0.47206
 H356 H 0.75407 0.59374 0.44905
 H357 H 0.72062 0.59577 0.48409
 H358 H 0.78857 0.61311 0.42413
 H359 H 0.70818 0.59502 0.52805
 H360 H 0.81522 0.64854 0.42123
 C361 C 0.78589 0.34926 0.03842
 C362 C 0.76384 0.36628 0.03616
 C363 C 0.74444 0.36273 0.01548
 C364 C 0.72750 0.38473 0.00969
 C365 C 0.70891 0.38244 -0.00969
 C366 C 0.70686 0.35796 -0.02375
 C367 C 0.72333 0.33574 -0.01746
 C368 C 0.74198 0.33804 0.00191
 C369 C 0.68729 0.35471 -0.04430
 C370 C 0.67627 0.37620 -0.05865
 H371 H 0.76114 0.38388 0.04933
 H372 H 0.72868 0.40385 0.02017
 H373 H 0.69596 0.39977 -0.01318
 H374 H 0.72183 0.31652 -0.02764
 H375 H 0.75405 0.32033 0.00638
 H376 H 0.68257 0.33451 -0.04927
 H377 H 0.78978 0.33236 0.02456
 H378 H 0.68343 0.39582 -0.05606
 C379 C 0.21689 0.85030 0.45096
 C380 C 0.23265 0.87113 0.45550
 C381 C 0.25326 0.87002 0.47540
 C382 C 0.26316 0.89409 0.48373
 C383 C 0.28261 0.89404 0.50243
 C384 C 0.29261 0.86978 0.51325
 C385 C 0.28318 0.84565 0.50440
 C386 C 0.26373 0.84569 0.48570
 C387 C 0.31324 0.86870 0.53310
 C388 C 0.31888 0.89064 0.54930
 H389 H 0.22925 0.88959 0.44466
 H390 H 0.25576 0.91307 0.47577
 H391 H 0.28995 0.91300 0.50791
 H392 H 0.29085 0.82664 0.51204
 H393 H 0.25738 0.82658 0.47916
 H394 H 0.32321 0.84933 0.53620
 H395 H 0.21898 0.83218 0.46251
 H396 H 0.30694 0.90916 0.54852
   
