data_POSCAR
  _audit_creation_date              2014-09-24
  _audit_creation_method            'ToBaCCo'
  _symmetry_space_group_name_H-M    'P1'
  _symmetry_Int_Tables_number       1
  _symmetry_cell_setting            triclinic
  loop_
  _symmetry_equiv_pos_as_xyz
 x,y,z
_cell_length_a 26.3786
_cell_length_b 26.5329
_cell_length_c 27.9631
_cell_angle_alpha 89.945700
_cell_angle_beta 89.840800
_cell_angle_gamma 91.717100
loop_
  _atom_site_label
  _atom_site_type_symbol
  _atom_site_fract_x
  _atom_site_fract_y
  _atom_site_fract_z
O1 O -0.04337 0.31357 0.04130
 O2 O 0.05300 0.30426 -0.05350
 O3 O -0.04503 0.31477 -0.05245
 O4 O 0.05436 0.30175 0.03875
 O5 O 0.04107 0.21907 0.03900
 O6 O -0.05590 0.23190 -0.05372
 O7 O 0.04114 0.22197 -0.05427
 O8 O -0.05643 0.23089 0.03939
 Cu9 Cu 0.00570 0.31696 -0.00631
 Cu10 Cu -0.00879 0.21765 -0.00745
 C11 C -0.06619 0.27385 0.05638
 C12 C 0.06435 0.26145 -0.06981
 C13 C -0.06702 0.27525 -0.06891
 C14 C 0.06467 0.25821 0.05414
 O15 O 0.45318 0.79567 0.54745
 O16 O 0.55493 0.81009 0.45746
 O17 O 0.45681 0.80365 0.45453
 O18 O 0.55148 0.80875 0.55055
 O19 O 0.55918 0.72633 0.54569
 O20 O 0.45943 0.72082 0.45370
 O21 O 0.55832 0.72707 0.45252
 O22 O 0.46137 0.71300 0.54659
 Cu23 Cu 0.50349 0.81283 0.50291
 Cu24 Cu 0.51018 0.71349 0.49922
 C25 C 0.44031 0.75189 0.56256
 C26 C 0.57343 0.77075 0.43941
 C27 C 0.44101 0.76152 0.43826
 C28 C 0.57227 0.76864 0.56388
 O29 O 0.94872 0.70550 -0.03995
 O30 O 1.05702 0.70117 0.04232
 O31 O 0.95920 0.70906 0.05220
 O32 O 1.04687 0.70096 -0.05045
 O33 O 1.05424 0.78372 -0.05197
 O34 O 0.96547 0.79211 0.04851
 O35 O 1.06320 0.78440 0.04166
 O36 O 0.95739 0.78810 -0.04404
 Cu37 Cu 1.00236 0.69583 0.00127
 Cu38 Cu 1.01107 0.79538 -0.00157
 C39 C 0.93426 0.74735 -0.05623
 C40 C 1.07812 0.74205 0.05646
 C41 C 0.94753 0.75217 0.06787
 C42 C 1.06455 0.74127 -0.06974
 O43 O 0.45317 0.19289 0.44551
 O44 O 0.54717 0.20235 0.54235
 O45 O 0.44832 0.19286 0.53807
 O46 O 0.55094 0.20460 0.44854
 O47 O 0.54287 0.28719 0.44847
 O48 O 0.44301 0.27587 0.54021
 O49 O 0.54102 0.28517 0.54257
 O50 O 0.44448 0.27518 0.44805
 Cu51 Cu 0.50095 0.18989 0.49370
 Cu52 Cu 0.49267 0.28925 0.49479
 C53 C 0.43170 0.23223 0.43107
 C54 C 0.55944 0.24526 0.55950
 C55 C 0.42813 0.23236 0.55406
 C56 C 0.56309 0.24793 0.43210
 O57 O 0.72029 -0.03312 0.04857
 O58 O 0.71599 0.06485 -0.04504
 O59 O 0.71451 -0.03404 -0.04381
 O60 O 0.72229 0.06383 0.04891
 O61 O 0.80512 0.06911 0.04036
 O62 O 0.79821 -0.03483 -0.04677
 O63 O 0.79883 0.06194 -0.05333
 O64 O 0.80411 -0.02854 0.04616
 Cu65 Cu 0.70982 0.01567 0.00237
 Cu66 Cu 0.80997 0.01736 -0.00389
 C67 C 0.76307 -0.04646 0.06402
 C68 C 0.75653 0.07827 -0.06698
 C69 C 0.75512 -0.05185 -0.06031
 C70 C 0.76512 0.08242 0.06154
 O71 O 0.20605 0.54019 0.44625
 O72 O 0.19656 0.44010 0.53704
 O73 O 0.20543 0.53686 0.54015
 O74 O 0.20161 0.44086 0.44462
 O75 O 0.28538 0.43949 0.44435
 O76 O 0.28880 0.53256 0.54172
 O77 O 0.27963 0.43442 0.53652
 O78 O 0.28961 0.53731 0.44760
 Cu79 Cu 0.19409 0.49025 0.49146
 Cu80 Cu 0.29426 0.48606 0.49278
 C81 C 0.24923 0.55598 0.43157
 C82 C 0.23623 0.41916 0.55159
 C83 C 0.24794 0.54955 0.55849
 C84 C 0.24281 0.42348 0.42877
 O85 O 0.30256 1.04226 0.03633
 O86 O 0.30256 0.94183 -0.05438
 O87 O 0.29963 1.04085 -0.05573
 O88 O 0.30567 0.94469 0.03913
 O89 O 0.22199 0.94160 0.04285
 O90 O 0.21637 1.03290 -0.05586
 O91 O 0.21895 0.93507 -0.05015
 O92 O 0.21931 1.03885 0.03740
 Cu93 Cu 0.31101 0.99260 -0.00919
 Cu94 Cu 0.21077 0.98653 -0.00632
 C95 C 0.26102 1.05871 0.05196
 C96 C 0.26082 0.92109 -0.06725
 C97 C 0.25698 1.05401 -0.07166
 C98 C 0.26474 0.92799 0.05813
 O99 O 0.78993 0.56494 0.54679
 O100 O 0.78816 0.46878 0.45214
 O101 O 0.78454 0.56563 0.45268
 O102 O 0.78718 0.46625 0.54448
 O103 O 0.70348 0.46195 0.54437
 O104 O 0.70141 0.56639 0.45812
 O105 O 0.70433 0.46908 0.45136
 O106 O 0.70631 0.55975 0.55125
 Cu107 Cu 0.79589 0.51710 0.49916
 Cu108 Cu 0.69550 0.51420 0.50162
 C109 C 0.74864 0.57761 0.56608
 C110 C 0.74603 0.45345 0.43495
 C111 C 0.74231 0.58221 0.43872
 C112 C 0.74561 0.44616 0.55908
 C113 C 0.24978 0.20383 0.20368
 C114 C 0.21274 0.24126 0.20402
 C115 C 0.21015 0.27473 0.24255
 C116 C 0.24385 0.27172 0.28092
 C117 C 0.28043 0.23383 0.28117
 C118 C 0.28275 0.20013 0.24269
 H119 H 0.31114 0.17140 0.24266
 H120 H 0.18201 0.30371 0.24243
 C121 C 0.76417 0.80811 0.21771
 C122 C 0.79682 0.76688 0.21709
 C123 C 0.79183 0.72942 0.25219
 C124 C 0.75551 0.73291 0.28854
 C125 C 0.72448 0.77548 0.29062
 C126 C 0.72820 0.81193 0.25445
 H127 H 0.70334 0.84373 0.25515
 H128 H 0.81644 0.69742 0.25127
 C129 C 0.78806 0.27487 0.20988
 C130 C 0.75748 0.23018 0.21388
 C131 C 0.72197 0.22536 0.25110
 C132 C 0.71756 0.26346 0.28528
 C133 C 0.75012 0.30656 0.28306
 C134 C 0.78513 0.31189 0.24540
 H135 H 0.80955 0.34543 0.24333
 H136 H 0.69723 0.19205 0.25315
 C137 C 0.23089 0.73641 0.20366
 C138 C 0.26762 0.77604 0.20571
 C139 C 0.30189 0.77853 0.24375
 C140 C 0.29900 0.74303 0.28088
 C141 C 0.26235 0.70315 0.27890
 C142 C 0.22884 0.69992 0.24003
 H143 H 0.20008 0.66991 0.23886
 H144 H 0.32963 0.80947 0.24551
 C145 C 0.70804 0.25675 0.71067
 C146 C 0.74510 0.29610 0.70879
 C147 C 0.78172 0.30038 0.74478
 C148 C 0.78262 0.26525 0.78210
 C149 C 0.74670 0.22464 0.78308
 C150 C 0.70926 0.22114 0.74765
 H151 H 0.68135 0.19031 0.74854
 H152 H 0.80973 0.33112 0.74366
 C153 C 0.29218 0.73210 0.71410
 C154 C 0.25264 0.69519 0.71265
 C155 C 0.21439 0.69544 0.74748
 C156 C 0.21555 0.73145 0.78422
 C157 C 0.25745 0.76600 0.78775
 C158 C 0.29491 0.76637 0.75207
 H159 H 0.32580 0.79423 0.75329
 H160 H 0.18310 0.66809 0.74545
 C161 C 0.23378 0.26275 0.69712
 C162 C 0.26990 0.22437 0.69676
 C163 C 0.27132 0.19021 0.73497
 C164 C 0.23833 0.19424 0.77404
 C165 C 0.20283 0.23306 0.77479
 C166 C 0.20048 0.26638 0.73600
 H167 H 0.17358 0.29650 0.73684
 H168 H 0.29944 0.16122 0.73504
 C169 C 0.75350 0.72405 0.71882
 C170 C 0.71944 0.76399 0.71664
 C171 C 0.71924 0.79990 0.75330
 C172 C 0.75242 0.79653 0.79206
 C173 C 0.78686 0.75683 0.79420
 C174 C 0.78734 0.72115 0.75722
 H175 H 0.81368 0.69059 0.75867
 H176 H 0.69269 0.83028 0.75193
 C177 C 0.21406 0.13558 0.15241
 C178 C 0.21645 0.10164 0.11475
 C179 C 0.26052 0.09775 0.08654
 C180 C 0.30221 0.13249 0.09547
 C181 C 0.29909 0.16751 0.13396
 C182 C 0.25487 0.16841 0.16282
 C183 C 0.33993 0.20201 0.14150
 N184 N 0.38092 0.20199 0.11234
 N185 N 0.38367 0.17026 0.07577
 C186 C 0.34591 0.13608 0.06607
 H187 H 0.18001 0.13576 0.17415
 H188 H 0.18382 0.07655 0.10923
 H189 H 0.33943 0.22981 0.16967
 H190 H 0.35060 0.11380 0.03448
 C191 C 0.77585 0.69552 0.63733
 C192 C 0.77457 0.66017 0.60047
 C193 C 0.74994 0.61309 0.60670
 C194 C 0.72743 0.60086 0.65151
 C195 C 0.72912 0.63667 0.68909
 C196 C 0.75329 0.68438 0.68162
 C197 C 0.70591 0.62368 0.73294
 N198 N 0.68349 0.57743 0.73880
 N199 N 0.68270 0.54342 0.70382
 C200 C 0.70393 0.55350 0.66050
 H201 H 0.79420 0.73204 0.63120
 H202 H 0.79208 0.66998 0.56649
 H203 H 0.70523 0.64985 0.76252
 H204 H 0.70252 0.52432 0.63371
 C205 C 0.75125 0.83235 0.13325
 C206 C 0.75063 0.86739 0.09616
 C207 C 0.76504 0.91781 0.10421
 C208 C 0.78014 0.93335 0.15062
 C209 C 0.78073 0.89776 0.18842
 C210 C 0.76605 0.84685 0.17946
 C211 C 0.79623 0.91449 0.23398
 N212 N 0.80945 0.96370 0.24100
 N213 N 0.80814 0.99726 0.20563
 C214 C 0.79382 0.98377 0.16079
 H215 H 0.73953 0.79363 0.12600
 H216 H 0.73893 0.85501 0.06089
 H217 H 0.79803 0.88903 0.26407
 H218 H 0.79292 1.01251 0.13359
 C219 C 0.27339 0.33505 0.65346
 C220 C 0.27376 0.37216 0.61834
 C221 C 0.23257 0.37738 0.58720
 C222 C 0.19002 0.34299 0.59150
 C223 C 0.18979 0.30532 0.62779
 C224 C 0.23195 0.30141 0.65872
 C225 C 0.14769 0.27161 0.63125
 N226 N 0.10863 0.27504 0.60025
 N227 N 0.10891 0.30969 0.56587
 C228 C 0.14805 0.34346 0.56027
 H229 H 0.30570 0.33278 0.67712
 H230 H 0.30653 0.39769 0.61608
 H231 H 0.14567 0.24200 0.65781
 H232 H 0.14569 0.36914 0.53067
 C233 C 0.87601 0.28505 0.17865
 C234 C 0.91126 0.28318 0.14148
 C235 C 0.89518 0.27769 0.09406
 C236 C 0.84278 0.27679 0.08354
 C237 C 0.80713 0.28187 0.12100
 C238 C 0.82383 0.28267 0.16914
 C239 C 0.75567 0.28562 0.10899
 N240 N 0.74089 0.28095 0.06274
 N241 N 0.77419 0.27334 0.02779
 C242 C 0.82460 0.27098 0.03663
 H243 H 0.88949 0.28616 0.21520
 H244 H 0.95136 0.28423 0.14989
 H245 H 0.72713 0.29183 0.13604
 H246 H 0.84999 0.26455 0.00703
 C247 C 0.37737 0.71868 0.67965
 C248 C 0.41276 0.72267 0.64262
 C249 C 0.40055 0.74617 0.59944
 C250 C 0.35125 0.76466 0.59291
 C251 C 0.31555 0.76128 0.63075
 C252 C 0.32885 0.73779 0.67424
 C253 C 0.26748 0.78162 0.62372
 N254 N 0.25563 0.80200 0.58084
 N255 N 0.28861 0.80354 0.54470
 C256 C 0.33590 0.78545 0.54926
 H257 H 0.38786 0.70058 0.71277
 H258 H 0.45026 0.70811 0.64799
 H259 H 0.23915 0.78127 0.65177
 H260 H 0.36076 0.78665 0.51861
 C261 C 0.14795 0.76126 0.17210
 C262 C 0.11208 0.76431 0.13589
 C263 C 0.11927 0.74026 0.09194
 C264 C 0.16421 0.71348 0.08398
 C265 C 0.20100 0.71085 0.12076
 C266 C 0.19249 0.73484 0.16512
 C267 C 0.24544 0.68451 0.11173
 N268 N 0.25249 0.66263 0.06850
 N269 N 0.21819 0.66544 0.03380
 C270 C 0.17439 0.69018 0.03997
 H271 H 0.14116 0.78008 0.20578
 H272 H 0.07794 0.78482 0.14259
 H273 H 0.27460 0.68122 0.13859
 H274 H 0.14832 0.69185 0.01028
 C275 C 0.67740 0.22655 0.63190
 C276 C 0.64158 0.22410 0.59538
 C277 C 0.59545 0.24860 0.59980
 C278 C 0.58455 0.27479 0.64271
 C279 C 0.62075 0.27650 0.68012
 C280 C 0.66763 0.25272 0.67418
 C281 C 0.60882 0.30214 0.72249
 N282 N 0.56346 0.32439 0.72695
 N283 N 0.52928 0.32255 0.69202
 C284 C 0.53816 0.29849 0.65019
 H285 H 0.71327 0.20835 0.62701
 H286 H 0.65036 0.20377 0.56296
 H287 H 0.63509 0.30465 0.75209
 H288 H 0.50862 0.29789 0.62356
 C289 C 0.71528 0.18477 0.85811
 C290 C 0.71708 0.14836 0.89397
 C291 C 0.75434 0.11145 0.89368
 C292 C 0.78761 0.10892 0.85329
 C293 C 0.78406 0.14505 0.81597
 C294 C 0.74911 0.18426 0.81963
 C295 C 0.81468 0.14003 0.77506
 N296 N 0.84722 0.10169 0.77189
 N297 N 0.85051 0.06750 0.80645
 C298 C 0.82172 0.06942 0.84659
 H299 H 0.68755 0.21398 0.86064
 H300 H 0.69062 0.15082 0.92354
 H301 H 0.81277 0.16604 0.74535
 H302 H 0.82497 0.03886 0.87160
 C303 C 0.28177 0.62072 0.31519
 C304 C 0.27991 0.58603 0.35269
 C305 C 0.25242 0.59570 0.39449
 C306 C 0.22721 0.64195 0.39895
 C307 C 0.22901 0.67714 0.36068
 C308 C 0.25671 0.66633 0.31866
 C309 C 0.20301 0.72230 0.36584
 N310 N 0.17817 0.73202 0.40717
 N311 N 0.17750 0.69959 0.44356
 C312 C 0.20116 0.65499 0.44093
 H313 H 0.30333 0.61218 0.28334
 H314 H 0.29936 0.55087 0.34870
 H315 H 0.20218 0.74990 0.33740
 H316 H 0.19986 0.63057 0.47189
 C317 C 0.26019 0.85531 0.81403
 C318 C 0.26013 0.89272 0.84894
 C319 C 0.26101 0.88006 0.89746
 C320 C 0.26300 0.82883 0.91121
 C321 C 0.26427 0.79078 0.87569
 C322 C 0.26125 0.80417 0.82667
 C323 C 0.26936 0.74056 0.89056
 N324 N 0.27071 0.72930 0.93787
 N325 N 0.26790 0.76492 0.97123
 C326 C 0.26417 0.81427 0.95953
 H327 H 0.25827 0.86628 0.77676
 H328 H 0.25886 0.93187 0.83804
 H329 H 0.27250 0.71021 0.86506
 H330 H 0.26227 0.84168 0.98800
 C331 C 0.76595 0.33425 0.36616
 C332 C 0.76487 0.36957 0.40290
 C333 C 0.74582 0.41748 0.39492
 C334 C 0.72846 0.43044 0.34874
 C335 C 0.72960 0.39453 0.31130
 C336 C 0.74838 0.34602 0.32036
 C337 C 0.71176 0.40852 0.26597
 N338 N 0.69480 0.45566 0.25876
 N339 N 0.69462 0.48969 0.29373
 C340 C 0.71103 0.47871 0.33835
 H341 H 0.78072 0.29737 0.37343
 H342 H 0.77868 0.35932 0.43793
 H343 H 0.71126 0.38259 0.23618
 H344 H 0.71085 0.50785 0.36515
 C345 C 0.12951 0.20779 0.82553
 C346 C 0.09711 0.21426 0.86405
 C347 C 0.10141 0.25693 0.89389
 C348 C 0.14228 0.29277 0.88519
 C349 C 0.17682 0.28425 0.84693
 C350 C 0.16978 0.24176 0.81682
 C351 C 0.21823 0.31825 0.84023
 N352 N 0.22464 0.35844 0.86955
 N353 N 0.19273 0.36669 0.90537
 C354 C 0.15223 0.33545 0.91437
 H355 H 0.12250 0.17617 0.80181
 H356 H 0.06653 0.18648 0.86882
 H357 H 0.24600 0.31303 0.81230
 H358 H 0.12966 0.34449 0.94501
 C359 C 0.63537 0.77808 0.31863
 C360 C 0.59887 0.77533 0.35472
 C361 C 0.61326 0.77578 0.40283
 C362 C 0.66514 0.78090 0.41499
 C363 C 0.70210 0.78549 0.37834
 C364 C 0.68712 0.78150 0.32984
 C365 C 0.75306 0.79368 0.39156
 N366 N 0.76607 0.79440 0.43846
 N367 N 0.73150 0.78786 0.47290
 C368 C 0.68152 0.78102 0.46275
 H369 H 0.62330 0.77536 0.28169
 H370 H 0.55918 0.77161 0.34507
 H371 H 0.78260 0.79934 0.36502
 H372 H 0.65508 0.77548 0.49196
 C373 C 0.86030 0.79043 0.84019
 C374 C 0.89455 0.78925 0.87777
 C375 C 0.89414 0.74892 0.91052
 C376 C 0.85469 0.71092 0.90682
 C377 C 0.81949 0.71266 0.86837
 C378 C 0.82291 0.75250 0.83465
 C379 C 0.78068 0.67521 0.86577
 N380 N 0.77659 0.63912 0.89992
 N381 N 0.80824 0.63829 0.93683
 C382 C 0.84662 0.67301 0.94177
 H383 H 0.86343 0.82112 0.81468
 H384 H 0.92346 0.81910 0.87946
 H385 H 0.75293 0.67472 0.83744
 H386 H 0.86873 0.67135 0.97404
 C387 C 0.35370 0.27018 0.32540
 C388 C 0.38969 0.26962 0.36152
 C389 C 0.39205 0.22896 0.39349
 C390 C 0.35624 0.18788 0.38886
 C391 C 0.31948 0.18868 0.35176
 C392 C 0.31827 0.23038 0.32011
 C393 C 0.28401 0.14817 0.34828
 N394 N 0.28509 0.10960 0.37997
 N395 N 0.31901 0.10893 0.41504
 C396 C 0.35434 0.14659 0.42072
 H397 H 0.35351 0.30208 0.30118
 H398 H 0.41638 0.30133 0.36417
 H399 H 0.25497 0.14697 0.32110
 H400 H 0.37944 0.14380 0.45080
 C401 C 0.77564 0.88090 0.82360
 C402 C 0.77737 0.91687 0.85976
 C403 C 0.75239 0.90803 0.90335
 C404 C 0.72552 0.86161 0.91086
 C405 C 0.72437 0.82471 0.87421
 C406 C 0.74998 0.83457 0.83052
 C407 C 0.69756 0.77895 0.88257
 N408 N 0.67422 0.77062 0.92523
 N409 N 0.67584 0.80497 0.95993
 C410 C 0.70066 0.85010 0.95426
 H411 H 0.79536 0.88879 0.79026
 H412 H 0.79800 0.95214 0.85345
 H413 H 0.69487 0.74984 0.85557
 H414 H 0.70090 0.87630 0.98379
 C415 C 0.25723 0.35912 0.31010
 C416 C 0.25760 0.39568 0.34586
 C417 C 0.24136 0.38353 0.39224
 C418 C 0.22487 0.33349 0.40295
 C419 C 0.22362 0.29653 0.36640
 C420 C 0.24083 0.30942 0.31986
 C421 C 0.20496 0.24779 0.37775
 N422 N 0.19074 0.23652 0.42325
 N423 N 0.19370 0.27077 0.45799
 C424 C 0.21038 0.31878 0.44938
 H425 H 0.27054 0.36944 0.27463
 H426 H 0.27068 0.43375 0.33732
 H427 H 0.20139 0.21869 0.35085
 H428 H 0.21266 0.34490 0.47886
 C429 C 0.21036 0.11922 0.82085
 C430 C 0.21401 0.08642 0.85939
 C431 C 0.25411 0.09111 0.89233
 C432 C 0.28960 0.13265 0.88727
 C433 C 0.28448 0.16701 0.84859
 C434 C 0.24464 0.15991 0.81530
 C435 C 0.31897 0.20834 0.84485
 N436 N 0.35564 0.21541 0.87815
 N437 N 0.35982 0.18425 0.91512
 C438 C 0.32803 0.14361 0.92106
 H439 H 0.18056 0.11254 0.79488
 H440 H 0.18643 0.05540 0.86189
 H441 H 0.31681 0.23547 0.81609
 H442 H 0.33260 0.12163 0.95295
 C443 C 0.79022 0.68537 0.35635
 C444 C 0.78591 0.65037 0.39319
 C445 C 0.74181 0.61997 0.39926
 C446 C 0.70113 0.62484 0.36594
 C447 C 0.70628 0.66034 0.32794
 C448 C 0.75050 0.69164 0.32424
 C449 C 0.66733 0.66279 0.29382
 N450 N 0.62516 0.63285 0.29819
 N451 N 0.61964 0.60012 0.33399
 C452 C 0.65594 0.59490 0.36771
 H453 H 0.82446 0.70881 0.35361
 H454 H 0.81751 0.64748 0.41761
 H455 H 0.67015 0.68803 0.26348
 H456 H 0.64862 0.56653 0.39444
 C457 C 0.16200 0.69279 0.84821
 C458 C 0.12482 0.69509 0.88347
 C459 C 0.09647 0.73871 0.88982
 C460 C 0.10228 0.77859 0.85556
 C461 C 0.14022 0.77578 0.81955
 C462 C 0.17178 0.73362 0.81760
 C463 C 0.14438 0.81462 0.78532
 N464 N 0.11251 0.85363 0.78686
 N465 N 0.07611 0.85591 0.81971
 C466 C 0.06945 0.81969 0.85356
 H467 H 0.18492 0.65964 0.84613
 H468 H 0.12055 0.66343 0.90783
 H469 H 0.17202 0.81388 0.75673
 H470 H 0.03709 0.82278 0.87684
 C471 C 0.68378 0.23080 0.36251
 C472 C 0.64653 0.22734 0.39793
 C473 C 0.60085 0.25253 0.39307
 C474 C 0.59187 0.28042 0.35071
 C475 C 0.62980 0.28378 0.31471
 C476 C 0.67625 0.25933 0.32118
 C477 C 0.61961 0.31084 0.27272
 N478 N 0.57434 0.33298 0.26730
 N479 N 0.53848 0.32948 0.30082
 C480 C 0.54551 0.30380 0.34211
 H481 H 0.71904 0.21160 0.36760
 H482 H 0.65374 0.20543 0.42979
 H483 H 0.64691 0.31404 0.24389
 H484 H 0.51440 0.30136 0.36722
 C485 C 0.86670 0.24691 0.81557
 C486 C 0.90257 0.24913 0.85185
 C487 C 0.89510 0.27860 0.89266
 C488 C 0.85076 0.30733 0.89643
 C489 C 0.81317 0.30319 0.86030
 C490 C 0.82113 0.27204 0.82008
 C491 C 0.76854 0.33029 0.86577
 N492 N 0.76248 0.36006 0.90463
 N493 N 0.79793 0.36439 0.93831
 C494 C 0.84178 0.33913 0.93557
 H495 H 0.87431 0.22476 0.78406
 H496 H 0.93663 0.22761 0.84804
 H497 H 0.73852 0.32816 0.83950
 H498 H 0.86890 0.34408 0.96414
 C499 C 0.37135 0.71471 0.32895
 C500 C 0.40490 0.71924 0.36703
 C501 C 0.40217 0.75920 0.39977
 C502 C 0.36329 0.79504 0.39406
 C503 C 0.32885 0.78990 0.35519
 C504 C 0.33335 0.74957 0.32244
 C505 C 0.29016 0.82500 0.35069
 N506 N 0.28623 0.86275 0.38288
 N507 N 0.31821 0.86768 0.41936
 C508 C 0.35632 0.83530 0.42614
 H509 H 0.37537 0.68389 0.30397
 H510 H 0.43410 0.69158 0.37029
 H511 H 0.26266 0.82263 0.32218
 H512 H 0.37984 0.84165 0.45697
 C513 C 0.29670 0.81237 0.12846
 C514 C 0.29630 0.84935 0.09307
 C515 C 0.26671 0.89202 0.09831
 C516 C 0.23887 0.89873 0.14122
 C517 C 0.23944 0.86111 0.17721
 C518 C 0.26805 0.81743 0.17024
 C519 C 0.21126 0.86850 0.21928
 N520 N 0.18498 0.91122 0.22499
 N521 N 0.18517 0.94704 0.19161
 C522 C 0.21129 0.94240 0.15008
 H523 H 0.31894 0.77919 0.12296
 H524 H 0.31826 0.84396 0.06078
 H525 H 0.20997 0.84080 0.24768
 H526 H 0.21078 0.97329 0.12491
 C527 C 0.71256 0.37228 0.67008
 C528 C 0.71184 0.40746 0.63325
 C529 C 0.74598 0.40512 0.59484
 C530 C 0.77976 0.36450 0.59236
 C531 C 0.78007 0.32838 0.62980
 C532 C 0.74649 0.33286 0.66901
 C533 C 0.81356 0.28828 0.62641
 N534 N 0.84420 0.28444 0.58767
 N535 N 0.84340 0.31781 0.55211
 C536 C 0.81217 0.35750 0.55299
 H537 H 0.68654 0.37596 0.69980
 H538 H 0.68495 0.43738 0.63536
 H539 H 0.81536 0.25974 0.65395
 H540 H 0.81248 0.38241 0.52245
 C541 C 0.71951 0.17929 0.14859
 C542 C 0.72264 0.14562 0.11083
 C543 C 0.76713 0.11930 0.10176
 C544 C 0.80937 0.12672 0.13325
 C545 C 0.80568 0.16127 0.17193
 C546 C 0.76101 0.18877 0.17842
 C547 C 0.84656 0.16660 0.20390
 N548 N 0.88895 0.14002 0.19707
 N549 N 0.89290 0.10795 0.16084
 C550 C 0.85481 0.10017 0.12901
 H551 H 0.68493 0.19975 0.15342
 H552 H 0.68973 0.14062 0.08804
 H553 H 0.84504 0.19136 0.23453
 H554 H 0.86088 0.07240 0.10186
 C555 C 0.21860 0.66096 0.63630
 C556 C 0.21790 0.62601 0.59911
 C557 C 0.24962 0.58450 0.59983
 C558 C 0.28140 0.57721 0.64012
 C559 C 0.28264 0.61339 0.67751
 C560 C 0.25133 0.65570 0.67514
 C561 C 0.31459 0.60548 0.71684
 N562 N 0.34270 0.56362 0.71886
 N563 N 0.34069 0.52901 0.68444
 C564 C 0.31087 0.53412 0.64542
 H565 H 0.19403 0.69288 0.63438
 H566 H 0.19289 0.63191 0.56907
 H567 H 0.31710 0.63190 0.74623
 H568 H 0.30992 0.50382 0.61972
 C569 C 0.83120 0.72860 0.14362
 C570 C 0.86781 0.72492 0.10792
 C571 C 0.91184 0.75587 0.10847
 C572 C 0.91998 0.78992 0.14708
 C573 C 0.88276 0.79331 0.18354
 C574 C 0.83770 0.76314 0.18102
 C575 C 0.89232 0.82622 0.22209
 N576 N 0.93613 0.85417 0.22364
 N577 N 0.97117 0.85103 0.18953
 C578 C 0.96479 0.81978 0.15154
 H579 H 0.79707 0.70494 0.14167
 H580 H 0.86106 0.69855 0.07888
 H581 H 0.86574 0.82944 0.25131
 H582 H 0.99525 0.81816 0.12585
 C583 C 0.35967 0.23265 0.67180
 C584 C 0.39785 0.23535 0.63736
 C585 C 0.38655 0.22778 0.58903
 C586 C 0.33596 0.21632 0.57516
 C587 C 0.29736 0.21187 0.61037
 C588 C 0.30922 0.22175 0.65889
 C589 C 0.24812 0.19749 0.59573
 N590 N 0.23794 0.19071 0.54861
 N591 N 0.27380 0.19698 0.51532
 C592 C 0.32240 0.20963 0.52700
 H593 H 0.36935 0.24020 0.70880
 H594 H 0.43642 0.24390 0.64848
 H595 H 0.21780 0.19137 0.62134
 H596 H 0.34994 0.21464 0.49867
 C597 C 0.12613 0.23026 0.17162
 C598 C 0.09058 0.23327 0.13511
 C599 C 0.10444 0.25315 0.09043
 C600 C 0.15535 0.26925 0.08197
 C601 C 0.19136 0.26681 0.11929
 C602 C 0.17650 0.24666 0.16422
 C603 C 0.24111 0.28494 0.11035
 N604 N 0.25415 0.30226 0.06623
 N605 N 0.22072 0.30289 0.03064
 C606 C 0.17184 0.28693 0.03701
 H607 H 0.11440 0.21473 0.20590
 H608 H 0.05175 0.22075 0.14199
 H609 H 0.26965 0.28558 0.13802
 H610 H 0.14648 0.28751 0.00685
 C611 C 0.64292 0.73198 0.67432
 C612 C 0.60811 0.73288 0.63715
 C613 C 0.61117 0.77046 0.60191
 C614 C 0.65106 0.80771 0.60401
 C615 C 0.68712 0.80605 0.64159
 C616 C 0.68268 0.76792 0.67693
 C617 C 0.72730 0.84212 0.64200
 N618 N 0.73078 0.87772 0.60729
 N619 N 0.69703 0.87947 0.57209
 C620 C 0.65749 0.84578 0.56917
 H621 H 0.63885 0.70286 0.70134
 H622 H 0.57792 0.70428 0.63633
 H623 H 0.75621 0.84217 0.66934
 H624 H 0.63228 0.84892 0.53911
   
