data_POSCAR
  _audit_creation_date              2014-09-24
  _audit_creation_method            'ToBaCCo'
  _symmetry_space_group_name_H-M    'P1'
  _symmetry_Int_Tables_number       1
  _symmetry_cell_setting            triclinic
  loop_
  _symmetry_equiv_pos_as_xyz
 x,y,z
_cell_length_a 18.9459
_cell_length_b 18.9451
_cell_length_c 18.9441
_cell_angle_alpha 80.576600
_cell_angle_beta 99.519800
_cell_angle_gamma 80.491500
loop_
  _atom_site_label
  _atom_site_type_symbol
  _atom_site_fract_x
  _atom_site_fract_y
  _atom_site_fract_z
O1 O 0.60595 0.48938 0.07148
 O2 O 0.40835 0.50390 0.05199
 O3 O 0.51684 0.39525 0.07635
 O4 O 0.49454 0.59622 0.04657
 O5 O 0.48765 0.60173 -0.07188
 O6 O 0.50688 0.40154 -0.04253
 O7 O 0.39586 0.50967 -0.06693
 O8 O 0.59507 0.49122 -0.04685
 Cu9 Cu 0.50773 0.49548 0.07360
 Cu10 Cu 0.49481 0.50193 -0.06918
 C11 C 0.63402 0.48823 0.01528
 C12 C 0.36844 0.50846 -0.01000
 C13 C 0.51487 0.36447 0.02148
 C14 C 0.48862 0.63284 -0.01731
 O15 O -0.07024 0.60455 0.49005
 O16 O -0.05014 0.40538 0.50867
 O17 O -0.04583 0.49429 0.59853
 O18 O -0.07503 0.51307 0.39789
 O19 O 0.04346 0.50655 0.40418
 O20 O 0.07309 0.48389 0.60468
 O21 O 0.06816 0.39449 0.51044
 O22 O 0.04881 0.59200 0.49663
 Cu23 Cu -0.07240 0.50560 0.49793
 Cu24 Cu 0.07043 0.49263 0.50476
 C25 C -0.01327 0.63194 0.49164
 C26 C 0.01193 0.36644 0.51153
 C27 C 0.01827 0.48670 0.63545
 C28 C -0.02032 0.51288 0.36709
 O29 O 0.50229 0.05070 0.59217
 O30 O 0.48798 0.07034 0.39453
 O31 O 0.39364 0.07554 0.48347
 O32 O 0.59461 0.04592 0.50595
 O33 O 0.60038 -0.07251 0.51243
 O34 O 0.40015 -0.04334 0.49329
 O35 O 0.48994 -0.04798 0.40518
 O36 O 0.50852 -0.06824 0.60438
 Cu37 Cu 0.49386 0.07264 0.49276
 Cu38 Cu 0.50061 -0.07014 0.50538
 C39 C 0.50718 -0.01137 0.63196
 C40 C 0.48700 0.01412 0.36636
 C41 C 0.36296 0.02066 0.48533
 C42 C 0.63135 -0.01790 0.51163
 C43 C 0.51114 -0.01458 -0.07103
 C44 C 0.49600 -0.07008 -0.01875
 C45 C 0.48923 -0.05530 0.05047
 C46 C 0.49696 0.01188 0.07047
 C47 C 0.51432 0.06646 0.01931
 C48 C 0.52207 0.05134 -0.04943
 H49 H 0.53435 0.09393 -0.08827
 H50 H 0.47928 -0.09839 0.09059
 C51 C -0.01823 0.51308 1.06889
 C52 C -0.06952 0.49598 1.01411
 C53 C -0.04951 0.48817 0.94696
 C54 C 0.01968 0.49497 0.93229
 C55 C 0.07197 0.51024 0.98780
 C56 C 0.05052 0.52084 1.05385
 H57 H 0.08944 0.53297 1.09657
 H58 H -0.08963 0.47821 0.90378
 C59 C 0.06476 0.01900 0.48524
 C60 C 0.01006 0.07031 0.50241
 C61 C -0.05712 0.05036 0.51015
 C62 C -0.07180 -0.01888 0.50347
 C63 C -0.01625 -0.07125 0.48840
 C64 C 0.04970 -0.04976 0.47755
 H65 H 0.09234 -0.08871 0.46537
 H66 H -0.10027 0.09054 0.52003
 N67 N -0.25216 0.45065 0.97600
 C68 C -0.28776 0.48501 1.02093
 N69 N -0.25113 0.52125 1.06624
 N70 N -0.18130 0.52381 1.06569
 C71 C -0.14523 0.48901 1.02094
 N72 N -0.18225 0.45220 0.97645
 N73 N 0.26719 0.51173 1.04802
 C74 C 0.29431 0.51070 0.98642
 N75 N 0.24841 0.50920 0.92365
 N76 N 0.17785 0.50884 0.92308
 C77 C 0.15039 0.51062 0.98482
 N78 N 0.19706 0.51184 1.04707
 N79 N 0.04473 -0.26681 0.48897
 C80 C -0.01694 -0.29391 0.48929
 N81 N -0.07999 -0.24792 0.48978
 N82 N -0.08076 -0.17726 0.48976
 C83 C -0.01896 -0.14981 0.48863
 N84 N 0.04358 -0.19659 0.48851
 N85 N -0.02753 0.25267 0.54858
 C86 C 0.01747 0.28827 0.51444
 N87 N 0.06262 0.25173 0.47801
 N88 N 0.06187 0.18199 0.47509
 C89 C 0.01705 0.14593 0.50967
 N90 N -0.02728 0.18286 0.54666
 N91 N 0.50905 -0.07814 -0.24798
 C92 C 0.50975 -0.01514 -0.29384
 N93 N 0.51051 0.04641 -0.26652
 N94 N 0.51118 0.04520 -0.19626
 C95 C 0.51083 -0.01729 -0.14962
 N96 N 0.50927 -0.07898 -0.17727
 N97 N 0.45001 -0.02525 0.25241
 C98 C 0.48420 0.01967 0.28821
 N99 N 0.52094 0.06460 0.25195
 N100 N 0.52409 0.06373 0.18228
 C101 C 0.48946 0.01900 0.14601
 N102 N 0.45216 -0.02511 0.18265
 N103 N 0.53451 -0.25659 -0.05800
 C104 C 0.48471 -0.28810 -0.02702
 N105 N 0.43639 -0.24675 0.00232
 N106 N 0.43752 -0.17639 0.00043
 C107 C 0.48746 -0.14445 -0.03008
 N108 N 0.53648 -0.18638 -0.05859
 N109 N 0.47690 0.25001 0.06696
 C110 C 0.52122 0.28511 0.03059
 N111 N 0.56578 0.24718 -0.00506
 N112 N 0.56613 0.17683 -0.00452
 C113 C 0.52122 0.14140 0.03068
 N114 N 0.47635 0.17966 0.06635
 N115 N -0.25823 -0.05825 0.46529
 C116 C -0.28962 -0.02746 0.51532
 N117 N -0.24824 0.00190 0.56362
 N118 N -0.17793 0.00016 0.56228
 C119 C -0.14611 -0.03021 0.51213
 N120 N -0.18809 -0.05868 0.46310
 N121 N 0.24829 0.06649 0.52293
 C122 C 0.28357 0.02979 0.47887
 N123 N 0.24576 -0.00600 0.43435
 N124 N 0.17535 -0.00530 0.43381
 C125 C 0.13975 0.03022 0.47848
 N126 N 0.17789 0.06604 0.52330
 N127 N 0.00661 0.56375 1.25008
 C128 C -0.02932 0.51934 1.28770
 N129 N -0.06605 0.47542 1.25222
 N130 N -0.06548 0.47508 1.18183
 C131 C -0.02950 0.51977 1.14390
 N132 N 0.00603 0.56431 1.17969
 N133 N 0.05821 0.53353 0.74568
 C134 C 0.02800 0.48307 0.71446
 N135 N -0.00065 0.43438 0.75601
 N136 N 0.00121 0.43576 0.82633
 C137 C 0.03102 0.48632 0.85799
 N138 N 0.05879 0.53573 0.81584
   
