data_POSCAR
  _audit_creation_date              2014-09-24
  _audit_creation_method            'ToBaCCo'
  _symmetry_space_group_name_H-M    'P1'
  _symmetry_Int_Tables_number       1
  _symmetry_cell_setting            triclinic
  loop_
  _symmetry_equiv_pos_as_xyz
 x,y,z
_cell_length_a 33.3037
_cell_length_b 33.0124
_cell_length_c 32.0981
_cell_angle_alpha 88.708600
_cell_angle_beta 90.582100
_cell_angle_gamma 89.630300
loop_
  _atom_site_label
  _atom_site_type_symbol
  _atom_site_fract_x
  _atom_site_fract_y
  _atom_site_fract_z
C1 C 0.12558 0.15929 0.18141
 C2 C 0.13246 0.18766 0.14929
 C3 C 0.16588 0.18398 0.12432
 C4 C 0.19313 0.15201 0.13167
 C5 C 0.18610 0.12379 0.16318
 C6 C 0.15254 0.12790 0.18862
 C7 C 0.09623 0.15603 0.21110
 N8 N 0.10557 0.12425 0.23699
 C9 C 0.13992 0.10665 0.22324
 C10 C 0.21676 0.09577 0.16275
 N11 N 0.24287 0.10691 0.13253
 C12 C 0.22869 0.14143 0.11333
 C13 C 0.16483 0.21583 0.09588
 N14 N 0.13217 0.23899 0.10385
 C15 C 0.11212 0.22201 0.13634
 H16 H 0.07078 0.17623 0.21460
 H17 H 0.15467 0.08018 0.23692
 H18 H 0.22018 0.06948 0.18333
 H19 H 0.24232 0.15711 0.08716
 H20 H 0.18644 0.22212 0.07164
 H21 H 0.08457 0.23364 0.14929
 C22 C -0.12827 0.83921 0.17807
 C23 C -0.13407 0.81232 0.14533
 C24 C -0.16760 0.81622 0.11963
 C25 C -0.19615 0.84673 0.12678
 C26 C -0.19030 0.87332 0.15897
 C27 C -0.15641 0.86918 0.18515
 C28 C -0.09820 0.84298 0.20749
 N29 N -0.10787 0.87376 0.23300
 C30 C -0.14351 0.89006 0.21943
 C31 C -0.22166 0.90073 0.15742
 N32 N -0.24692 0.89096 0.12576
 C33 C -0.23157 0.85777 0.10687
 C34 C -0.16476 0.78674 0.09002
 N35 N -0.13092 0.76463 0.09782
 C36 C -0.11190 0.78005 0.13151
 H37 H -0.07150 0.82418 0.21057
 H38 H -0.15875 0.91572 0.23267
 H39 H -0.22582 0.92601 0.17792
 H40 H -0.24412 0.84348 0.07972
 H41 H -0.18585 0.78149 0.06485
 H42 H -0.08366 0.76902 0.14453
 C43 C -0.12594 0.14716 -0.18368
 C44 C -0.11911 0.17897 -0.15606
 C45 C -0.14606 0.18604 -0.12443
 C46 C -0.17987 0.16133 -0.11960
 C47 C -0.18693 0.13039 -0.14703
 C48 C -0.15936 0.12278 -0.17887
 C49 C -0.10487 0.13295 -0.21722
 N50 N -0.12428 0.10004 -0.23240
 C51 C -0.15742 0.09357 -0.20884
 C52 C -0.22252 0.11234 -0.13542
 N53 N -0.23664 0.13114 -0.10106
 C54 C -0.21042 0.16078 -0.09101
 C55 C -0.13246 0.21892 -0.10291
 N56 N -0.09774 0.23186 -0.12045
 C57 C -0.08904 0.20737 -0.15263
 H58 H -0.07683 0.14509 -0.22856
 H59 H -0.17878 0.06941 -0.21334
 H60 H -0.23619 0.08665 -0.15021
 H61 H -0.21364 0.18090 -0.06504
 H62 H -0.14653 0.23215 -0.07611
 H63 H -0.06299 0.21035 -0.17236
 C64 C 0.14256 0.83206 -0.18650
 C65 C 0.13826 0.80828 -0.15019
 C66 C 0.16060 0.81673 -0.11494
 C67 C 0.18851 0.84821 -0.11599
 C68 C 0.19368 0.87103 -0.15219
 C69 C 0.16976 0.86353 -0.18745
 C70 C 0.12234 0.83267 -0.22403
 N71 N 0.13556 0.86453 -0.24742
 C72 C 0.16517 0.88324 -0.22549
 C73 C 0.22431 0.89784 -0.14465
 N74 N 0.23759 0.89171 -0.10467
 C75 C 0.21527 0.86194 -0.08682
 C76 C 0.14977 0.78936 -0.08421
 N77 N 0.12197 0.76421 -0.10034
 C78 C 0.11446 0.77563 -0.14057
 H79 H 0.09800 0.81283 -0.23269
 H80 H 0.18154 0.90985 -0.23552
 H81 H 0.23586 0.91992 -0.16679
 H82 H 0.21938 0.84997 -0.05535
 H83 H 0.16169 0.78732 -0.05271
 H84 H 0.09313 0.76136 -0.16117
 C85 C 0.14799 1.12921 0.81537
 C86 C 0.18223 1.13420 0.84024
 C87 C 0.18401 1.16517 0.86863
 C88 C 0.15076 1.19136 0.87267
 C89 C 0.11629 1.18496 0.84924
 C90 C 0.11498 1.15393 0.82036
 C91 C 0.13910 1.10310 0.78389
 N92 N 0.10128 1.11160 0.76959
 C93 C 0.08606 1.14211 0.79238
 C94 C 0.08837 1.21340 0.86006
 N95 N 0.10504 1.23788 0.88868
 C96 C 0.14327 1.22461 0.89687
 C97 C 0.21986 1.16032 0.89040
 N98 N 0.23894 1.12690 0.87607
 C99 C 0.21625 1.11102 0.84537
 H100 H 0.15892 1.07985 0.77246
 H101 H 0.05669 1.15587 0.78770
 H102 H 0.05827 1.21669 0.84724
 H103 H 0.16392 1.23755 0.91908
 H104 H 0.22970 1.17772 0.91676
 H105 H 0.22295 1.08310 0.82968
 C106 C 0.82885 0.87217 0.81899
 C107 C 0.80267 0.87345 0.85258
 C108 C 0.80442 0.84368 0.88334
 C109 C 0.83171 0.81163 0.88030
 C110 C 0.85653 0.80892 0.84604
 C111 C 0.85532 0.83995 0.81501
 C112 C 0.83583 0.89950 0.78726
 N113 N 0.86561 0.88493 0.76335
 C114 C 0.87757 0.84816 0.77966
 C115 C 0.87945 0.77408 0.85214
 N116 N 0.86925 0.75660 0.88949
 C117 C 0.84030 0.77959 0.90673
 C118 C 0.77542 0.85247 0.91199
 N119 N 0.75554 0.88624 0.89844
 C120 C 0.77224 0.89969 0.86240
 H121 H 0.82089 0.92851 0.78243
 H122 H 0.90209 0.82989 0.76837
 H123 H 0.90272 0.76339 0.83174
 H124 H 0.82647 0.77343 0.93660
 H125 H 0.76818 0.83481 0.93971
 H126 H 0.76254 0.92620 0.84444
 C127 C 0.14921 0.87227 1.17990
 C128 C 0.18128 0.87813 1.15221
 C129 C 0.18604 0.85256 1.11886
 C130 C 0.15855 0.82108 1.11249
 C131 C 0.12689 0.81577 1.13958
 C132 C 0.12188 0.84176 1.17297
 C133 C 0.13718 0.89166 1.21543
 N134 N 0.10278 0.87396 1.22942
 C135 C 0.09312 0.84377 1.20327
 C136 C 0.10561 0.78268 1.12695
 N137 N 0.12344 0.76767 1.09269
 C138 C 0.15551 0.79122 1.08316
 C139 C 0.21930 0.86554 1.09720
 N140 N 0.23449 0.89857 1.11626
 C141 C 0.21134 0.90659 1.14971
 H142 H 0.15183 0.91740 1.22914
 H143 H 0.06729 0.82420 1.20646
 H144 H 0.07897 0.77051 1.14153
 H145 H 0.17552 0.78646 1.05732
 H146 H 0.23078 0.85270 1.06893
 H147 H 0.21588 0.93158 1.17048
 C148 C 0.83770 1.12335 1.18353
 C149 C 0.81245 1.12226 1.14849
 C150 C 0.81695 1.15030 1.11636
 C151 C 0.84608 1.18043 1.11932
 C152 C 0.87020 1.18265 1.15468
 C153 C 0.86616 1.15350 1.18708
 C154 C 0.84225 1.09739 1.21720
 N155 N 0.87261 1.11084 1.24158
 C156 C 0.88725 1.14555 1.22371
 C157 C 0.89570 1.21501 1.14833
 N158 N 0.88749 1.23171 1.11008
 C159 C 0.85753 1.21068 1.09204
 C160 C 0.78861 1.14195 1.08635
 N161 N 0.76648 1.11019 1.10017
 C162 C 0.78104 1.09758 1.13796
 H163 H 0.82544 1.06986 1.22293
 H164 H 0.91276 1.16245 1.23488
 H165 H 0.91912 1.22496 1.16929
 H166 H 0.84523 1.21687 1.06118
 H167 H 0.78348 1.15855 1.05727
 H168 H 0.76936 1.07260 1.15650
 O169 O 0.43734 0.95612 0.91103
 O170 O 0.39541 0.98747 0.95679
 C171 C 0.40194 0.96566 0.92446
 O172 O 0.55136 0.92347 1.05834
 O173 O 0.59681 0.96599 1.02699
 C174 C 0.58781 0.93469 1.05006
 O175 O 0.43845 0.92608 1.05357
 O176 O 0.39599 0.97472 1.02558
 C177 C 0.40287 0.94086 1.04582
 O178 O 0.55057 0.95343 0.90841
 O179 O 0.59593 0.97815 0.95556
 C180 C 0.58694 0.95886 0.92214
 Zr181 Zr 0.49504 0.96917 0.93610
 O182 O 0.49558 0.90536 0.93020
 O183 O 0.49427 0.97497 0.87033
 Zr184 Zr 0.49563 0.95071 1.04010
 O185 O 0.49675 0.88719 1.03300
 O186 O 0.49136 0.94257 1.10553
 O187 O 0.45914 0.95409 0.98677
 O188 O 0.52987 0.95078 0.98673
 O189 O 0.55757 1.08692 0.92961
 O190 O 0.60000 1.04340 0.96568
 C191 C 0.59311 1.07277 0.93905
 O192 O 0.44603 1.07703 1.07733
 O193 O 0.39986 1.04458 1.03664
 C194 C 0.40952 1.06949 1.06562
 O195 O 0.55775 1.06308 1.08339
 O196 O 0.59935 1.03253 1.03698
 C197 C 0.59305 1.05323 1.07006
 O198 O 0.44510 1.09960 0.93748
 O199 O 0.39946 1.05659 0.96768
 C200 C 0.40864 1.08890 0.94622
 Zr201 Zr 0.50029 1.06990 0.95278
 O202 O 0.50952 1.13208 0.96436
 O203 O 0.49510 1.08313 0.88813
 Zr204 Zr 0.50054 1.05115 1.05687
 O205 O 0.50898 1.11287 1.07060
 O206 O 0.49473 1.03712 1.12123
 Zr207 Zr 0.43801 1.01351 0.99647
 Zr208 Zr 0.55738 1.00704 0.99635
 O209 O 0.53563 1.06603 1.00589
 O210 O 0.46516 1.07022 1.00605
 O211 O 0.53304 1.01894 0.93632
 O212 O 0.46293 1.00155 1.05604
 O213 O 0.46279 1.02294 0.93698
 O214 O 0.53398 0.99752 1.05650
 H215 H 0.54696 0.92655 0.98260
 H216 H 0.44432 0.99847 1.07979
 H217 H 0.55521 1.08824 1.00924
 H218 H 0.44452 1.02878 0.91304
 H219 H 0.51731 0.95070 1.11796
 H220 H 0.51816 1.02025 1.12982
 H221 H 0.49405 1.12890 1.04911
 H222 H 0.48610 1.14197 0.97999
 H223 H 0.51281 1.06386 0.87375
 H224 H 0.48381 1.00230 0.86300
 H225 H 0.46864 0.89520 0.93766
 H226 H 0.48038 0.88141 1.00800
 O227 O 0.07958 0.44244 -0.05960
 O228 O 0.03834 0.39847 -0.02438
 C229 C 0.06883 0.40626 -0.04793
 O230 O 0.06400 0.56035 0.07952
 O231 O 0.02997 0.60326 0.03408
 C232 C 0.05419 0.59625 0.06531
 O233 O 0.06996 0.44668 0.08306
 O234 O 0.03510 0.40068 0.04445
 C235 C 0.06125 0.40998 0.07274
 O236 O 0.07057 0.55513 -0.07387
 O237 O 0.03290 0.60032 -0.03726
 C238 C 0.05946 0.59163 -0.06494
 Zr239 Zr 0.05216 0.49904 -0.04727
 O240 O 0.11537 0.50485 -0.04743
 O241 O 0.05039 0.49349 -0.11272
 Zr242 Zr 0.04764 0.50239 0.05778
 O243 O 0.11097 0.50773 0.06006
 O244 O 0.04541 0.50042 0.12369
 O245 O 0.05845 0.46484 0.00782
 O246 O 0.05673 0.53600 0.00369
 O247 O -0.06558 0.55347 -0.08317
 O248 O -0.03405 0.59946 -0.04171
 C249 C -0.05675 0.59026 -0.07309
 O250 O -0.07413 0.44407 0.07569
 O251 O -0.03457 0.39908 0.04095
 C252 C -0.06254 0.40754 0.06721
 O253 O -0.07128 0.55775 0.07491
 O254 O -0.03750 0.60186 0.03180
 C255 C -0.06224 0.59401 0.06182
 O256 O -0.07103 0.44031 -0.06985
 O257 O -0.03212 0.39714 -0.02924
 C258 C -0.05999 0.40431 -0.05704
 Zr259 Zr -0.04893 0.49788 -0.05299
 O260 O -0.11229 0.50295 -0.05626
 O261 O -0.04626 0.49086 -0.11826
 Zr262 Zr -0.05384 0.50084 0.05157
 O263 O -0.11677 0.50471 0.04178
 O264 O -0.06387 0.49977 0.11647
 Zr265 Zr 0.00051 0.43951 0.00569
 Zr266 Zr -0.00167 0.56052 -0.00078
 O267 O -0.05934 0.53496 -0.00300
 O268 O -0.05855 0.46288 0.00093
 O269 O 0.00144 0.53435 -0.05997
 O270 O -0.00269 0.46675 0.06428
 O271 O 0.00267 0.46266 -0.05581
 O272 O -0.00406 0.53773 0.06106
 H273 H 0.08002 0.55452 0.00386
 H274 H -0.00312 0.44953 0.08995
 H275 H -0.08269 0.55367 -0.00534
 H276 H 0.00427 0.44323 -0.07883
 H277 H 0.02731 0.52253 0.13230
 H278 H -0.03715 0.50047 0.13003
 H279 H -0.12646 0.47723 0.03541
 H280 H -0.12340 0.48153 -0.03776
 H281 H -0.02421 0.50824 -0.12853
 H282 H 0.07872 0.49348 -0.12183
 H283 H 0.12568 0.49028 -0.02227
 H284 H 0.12259 0.48297 0.04807
 O285 O 1.06941 -0.08395 0.44093
 O286 O 1.03385 -0.04138 0.39649
 C287 C 1.05966 -0.07029 0.40391
 O288 O 0.92554 -0.07740 0.55757
 O289 O 0.96666 -0.04652 0.60501
 C290 C 0.93760 -0.07071 0.59537
 O291 O 0.92420 -0.07003 0.44107
 O292 O 0.96590 -0.03519 0.39665
 C293 C 0.93593 -0.05914 0.40407
 O294 O 1.07341 -0.08767 0.55780
 O295 O 1.03804 -0.05060 0.60493
 C296 C 1.06504 -0.07723 0.59552
 Zr297 Zr 1.04898 -0.06566 0.50020
 O298 O 1.03714 -0.12866 0.50162
 O299 O 1.11101 -0.07902 0.49772
 Zr300 Zr 0.94856 -0.05547 0.50014
 O301 O 0.94674 -0.11961 0.49991
 O302 O 0.88509 -0.05320 0.50145
 O303 O 0.99788 -0.06623 0.46219
 O304 O 0.99855 -0.06986 0.53659
 O305 O 1.08437 0.04854 0.56334
 O306 O 1.04129 0.01537 0.60758
 C307 C 1.07222 0.03790 0.60025
 O308 O 0.94397 0.07711 0.44695
 O309 O 0.97307 0.03537 0.39952
 C310 C 0.95205 0.06696 0.40911
 O311 O 0.93964 0.06711 0.56294
 O312 O 0.97219 0.02243 0.60763
 C313 C 0.94879 0.05338 0.60003
 O314 O 1.08104 0.05851 0.44636
 O315 O 1.03946 0.02783 0.39918
 C316 C 1.06893 0.05144 0.40865
 Zr317 Zr 1.05880 0.03625 0.50419
 O318 O 1.06291 0.09980 0.51082
 O319 O 1.12211 0.03203 0.50040
 Zr320 Zr 0.95787 0.04635 0.50404
 O321 O 0.95936 0.10994 0.51008
 O322 O 0.89442 0.04939 0.49973
 Zr323 Zr 1.00331 -0.00592 0.43995
 Zr324 Zr 1.00377 -0.01300 0.56442
 O325 O 1.00928 0.04663 0.54055
 O326 O 1.00900 0.05135 0.46729
 O327 O 1.06187 -0.01751 0.53903
 O328 O 0.94566 -0.00144 0.46576
 O329 O 1.06117 -0.01329 0.46637
 O330 O 0.94529 -0.00586 0.53937
 H331 H 0.99744 -0.09437 0.55494
 H332 H 0.92247 0.00299 0.44660
 H333 H 1.01205 0.06942 0.55991
 H334 H 1.08514 -0.01432 0.44840
 H335 H 0.87658 -0.02659 0.48964
 H336 H 0.88364 0.03606 0.52516
 H337 H 0.98547 0.11903 0.49906
 H338 H 1.05238 0.11284 0.48484
 H339 H 1.13123 0.01141 0.52132
 H340 H 1.12512 -0.05327 0.50231
 H341 H 1.02921 -0.13640 0.47311
 H342 H 0.95749 -0.12859 0.47298
 C343 C 1.08375 0.11314 0.27087
 C344 C 1.09904 0.08963 0.30161
 C345 C 1.07453 0.07701 0.33709
 C346 C 1.09151 0.06978 0.37433
 H347 H 1.13031 0.08050 0.30171
 H348 H 1.04250 0.07295 0.33250
 H349 H 1.05372 0.12554 0.27419
 H350 H 1.12295 0.07663 0.37946
 C351 C 0.91533 -0.11460 0.26584
 C352 C 0.90157 -0.09075 0.29585
 C353 C 0.92752 -0.07892 0.33091
 C354 C 0.91197 -0.07331 0.36858
 H355 H 0.87038 -0.08134 0.29612
 H356 H 0.95949 -0.07545 0.32604
 H357 H 0.94558 -0.12680 0.26901
 H358 H 0.88055 -0.07991 0.37382
 C359 C 0.88688 0.07615 0.73541
 C360 C 0.91440 0.08738 0.70726
 C361 C 0.92580 0.06085 0.67277
 C362 C 0.93392 0.07697 0.63522
 H363 H 0.92738 0.11734 0.70789
 H364 H 0.92711 0.02832 0.67797
 H365 H 0.87147 0.04765 0.73117
 H366 H 0.92930 0.10922 0.62980
 C367 C 1.11838 -0.12372 0.71550
 C368 C 1.12509 -0.08749 0.69725
 C369 C 1.10117 -0.07224 0.66135
 C370 C 1.08891 -0.09533 0.62993
 H371 H 1.14467 -0.06586 0.71175
 H372 H 1.09474 -0.04000 0.66017
 H373 H 1.09567 -0.14305 0.70206
 H374 H 1.09857 -0.12663 0.62821
 C375 C 0.27637 1.08544 1.12304
 C376 C 0.30631 1.10149 1.10092
 C377 C 0.34031 1.07642 1.08837
 C378 C 0.37695 1.09207 1.08496
 H379 H 0.30641 1.13341 1.09241
 H380 H 0.33500 1.04501 1.08087
 H381 H 0.27963 1.05463 1.13521
 H382 H 0.38282 1.12251 1.09535
 C383 C 0.26858 0.91006 0.91521
 C384 C 0.29675 0.93133 0.89510
 C385 C 0.33099 0.94763 0.91837
 C386 C 0.36703 0.95123 0.90086
 H387 H 0.29650 0.93422 0.86145
 H388 H 0.32715 0.95450 0.95098
 H389 H 0.27230 0.90470 0.94854
 H390 H 0.37142 0.94156 0.86917
 C391 C 0.71960 0.91283 1.11473
 C392 C 0.69102 0.89899 1.08912
 C393 C 0.65687 0.92503 1.07602
 C394 C 0.62105 0.90934 1.06669
 H395 H 0.69204 0.86822 1.07822
 H396 H 0.66116 0.95756 1.07407
 H397 H 0.71524 0.94234 1.12831
 H398 H 0.61590 0.87722 1.07167
 C399 C 0.72989 1.12202 0.92134
 C400 C 0.69939 1.10048 0.90597
 C401 C 0.66473 1.08951 0.93198
 C402 C 0.62750 1.08951 0.91600
 H403 H 0.69903 1.09178 0.87365
 H404 H 0.66995 1.08084 0.96438
 H405 H 0.72689 1.13433 0.95223
 H406 H 0.62219 1.10110 0.88455
 C407 C 0.12023 0.27475 0.08091
 C408 C 0.10455 0.30636 0.10031
 C409 C 0.08834 0.34133 0.07672
 C410 C 0.08173 0.37657 0.09513
 H411 H 0.10299 0.30601 0.13404
 H412 H 0.08087 0.33792 0.04400
 H413 H 0.12458 0.27610 0.04747
 H414 H 0.09152 0.38091 0.12702
 C415 C -0.07351 0.26501 -0.10678
 C416 C -0.09023 0.29865 -0.09193
 C417 C -0.06585 0.33251 -0.07662
 C418 C -0.08168 0.36978 -0.07465
 H419 H -0.12266 0.30159 -0.09169
 H420 H -0.03497 0.32694 -0.06698
 H421 H -0.04120 0.26320 -0.11016
 H422 H -0.11171 0.37542 -0.08690
 C423 C 0.10392 0.73121 -0.07803
 C424 C 0.09520 0.69673 -0.09688
 C425 C 0.07700 0.66302 -0.07361
 C426 C 0.07830 0.62534 -0.08779
 H427 H 0.10253 0.69303 -0.12940
 H428 H 0.06289 0.66914 -0.04409
 H429 H 0.09946 0.73370 -0.04477
 H430 H 0.09421 0.61900 -0.11623
 C431 C -0.11718 0.73149 0.07341
 C432 C -0.09987 0.69884 0.09139
 C433 C -0.08470 0.66507 0.06665
 C434 C -0.08017 0.62810 0.08398
 H435 H -0.09747 0.69667 0.12507
 H436 H -0.07723 0.67049 0.03420
 H437 H -0.12264 0.73239 0.04004
 H438 H -0.09016 0.62249 0.11563
 C439 C 1.08145 0.09457 0.73723
 C440 C 1.10010 0.07259 0.70863
 C441 C 1.07752 0.05701 0.67307
 C442 C 1.09496 0.05257 0.63616
 H443 H 1.13233 0.06830 0.70949
 H444 H 1.04574 0.05099 0.67663
 H445 H 1.04975 0.10146 0.73274
 H446 H 1.12592 0.06153 0.63183
 C447 C 0.88140 -0.09347 0.73094
 C448 C 0.90471 -0.10980 0.70213
 C449 C 0.92123 -0.08386 0.66881
 C450 C 0.91870 -0.09448 0.62904
 H451 H 0.91006 -0.14216 0.70161
 H452 H 0.93442 -0.05514 0.67700
 H453 H 0.87325 -0.06167 0.72722
 H454 H 0.90278 -0.12180 0.62097
 C455 C 1.08017 -0.11588 0.26280
 C456 C 1.09446 -0.09423 0.29433
 C457 C 1.06852 -0.08348 0.32931
 C458 C 1.08209 -0.08641 0.36857
 H459 H 1.12583 -0.08590 0.29571
 H460 H 1.03820 -0.07288 0.32269
 H461 H 1.04996 -0.12782 0.26519
 H462 H 1.11140 -0.09978 0.37491
 C463 C 0.88672 0.08977 0.27567
 C464 C 0.91279 0.10483 0.30316
 C465 C 0.92814 0.07870 0.33756
 C466 C 0.93677 0.09341 0.37496
 H467 H 0.92203 0.13619 0.30127
 H468 H 0.93084 0.04640 0.33254
 H469 H 0.87556 0.05933 0.28138
 H470 H 0.93103 0.12507 0.38108
 C471 C 0.08510 0.26980 -0.09500
 C472 C 0.10344 0.29995 -0.07542
 C473 C 0.07939 0.33411 -0.06064
 C474 C 0.09335 0.37195 -0.06176
 H475 H 0.13585 0.30105 -0.07279
 H476 H 0.04882 0.32834 -0.05090
 H477 H 0.05296 0.27239 -0.10066
 H478 H 0.12293 0.37799 -0.07416
 C479 C -0.09156 0.26411 0.08986
 C480 C -0.09173 0.30130 0.10521
 C481 C -0.07338 0.33502 0.08165
 C482 C -0.08152 0.37368 0.09016
 H483 H -0.10700 0.30699 0.13419
 H484 H -0.05341 0.32791 0.05631
 H485 H -0.07916 0.25906 0.05929
 H486 H -0.10241 0.38065 0.11471
 C487 C -0.11470 0.72331 -0.09076
 C488 C -0.09258 0.69539 -0.10968
 C489 C -0.07594 0.66130 -0.08462
 C490 C -0.07317 0.62382 -0.09925
 H491 H -0.08807 0.69659 -0.14304
 H492 H -0.06770 0.66684 -0.05247
 H493 H -0.12176 0.71814 -0.05810
 H494 H -0.08412 0.61752 -0.13033
 C495 C 0.11042 0.73304 0.07005
 C496 C 0.09360 0.70133 0.08964
 C497 C 0.07813 0.66650 0.06678
 C498 C 0.07163 0.63109 0.08654
 H499 H 0.09143 0.70091 0.12331
 H500 H 0.07204 0.66984 0.03365
 H501 H 0.11544 0.73228 0.03676
 H502 H 0.08025 0.62719 0.11905
 C503 C 0.27255 1.10595 0.89477
 C504 C 0.30453 1.12504 0.90992
 C505 C 0.33796 1.10083 0.92792
 C506 C 0.37549 1.11482 0.93012
 H507 H 0.30649 1.15776 0.90768
 H508 H 0.33187 1.06983 0.93775
 H509 H 0.27267 1.07308 0.89441
 H510 H 0.38222 1.14496 0.91818
 C511 C 0.26750 0.92313 1.10238
 C512 C 0.29878 0.90744 1.08229
 C513 C 0.33242 0.93306 1.06810
 C514 C 0.36843 0.91675 1.06052
 H515 H 0.30019 0.87512 1.07727
 H516 H 0.32789 0.96552 1.06471
 H517 H 0.26768 0.95495 1.11007
 H518 H 0.37330 0.88464 1.06655
 C519 C 0.73255 1.09419 1.07859
 C520 C 0.69993 1.08208 1.09911
 C521 C 0.66466 1.06773 1.07626
 C522 C 0.62833 1.06690 1.09357
 H523 H 0.69872 1.08437 1.13270
 H524 H 0.66839 1.05892 1.04417
 H525 H 0.73236 1.09495 1.04479
 H526 H 0.62424 1.07776 1.12487
 C527 C 0.72163 0.90344 0.91852
 C528 C 0.69052 0.91843 0.89650
 C529 C 0.65603 0.93543 0.91802
 C530 C 0.62051 0.94156 0.89904
 H531 H 0.69025 0.91731 0.86278
 H532 H 0.65974 0.94230 0.95073
 H533 H 0.72035 0.90181 0.95227
 H534 H 0.61588 0.93271 0.86705
   
