data_POSCAR
  _audit_creation_date              2014-09-24
  _audit_creation_method            'ToBaCCo'
  _symmetry_space_group_name_H-M    'P1'
  _symmetry_Int_Tables_number       1
  _symmetry_cell_setting            triclinic
  loop_
  _symmetry_equiv_pos_as_xyz
 x,y,z
_cell_length_a 52.2201
_cell_length_b 52.1166
_cell_length_c 43.4663
_cell_angle_alpha 89.987700
_cell_angle_beta 90.033500
_cell_angle_gamma 85.937100
loop_
  _atom_site_label
  _atom_site_type_symbol
  _atom_site_fract_x
  _atom_site_fract_y
  _atom_site_fract_z
O1 O 0.01172 0.29527 -0.03041
 O2 O -0.03709 0.29119 0.03058
 O3 O 0.01290 0.29372 0.02926
 O4 O -0.03824 0.29305 -0.02913
 O5 O -0.03322 0.25068 -0.03085
 O6 O 0.01761 0.25133 0.02745
 O7 O -0.03178 0.24889 0.02900
 O8 O 0.01622 0.25288 -0.03233
 Cu9 Cu -0.01319 0.29757 0.00026
 Cu10 Cu -0.00731 0.24673 -0.00186
 C11 C 0.02235 0.27469 -0.04173
 C12 C -0.04285 0.26928 0.04025
 C13 C 0.02407 0.27258 0.03823
 C14 C -0.04451 0.27172 -0.03990
 O15 O 0.47776 0.79752 0.52476
 O16 O 0.53010 0.80088 0.46868
 O17 O 0.48021 0.79694 0.46515
 O18 O 0.52759 0.79945 0.52828
 O19 O 0.53235 0.75703 0.52817
 O20 O 0.48637 0.75460 0.46468
 O21 O 0.53564 0.75851 0.46847
 O22 O 0.48303 0.75514 0.52441
 Cu23 Cu 0.50337 0.80296 0.49667
 Cu24 Cu 0.50989 0.75210 0.49634
 C25 C 0.47139 0.77580 0.53413
 C26 C 0.54201 0.78030 0.45923
 C27 C 0.47514 0.77520 0.45429
 C28 C 0.53800 0.77852 0.53902
 O29 O 1.03620 0.71880 0.02638
 O30 O 0.98629 0.71530 -0.03318
 O31 O 1.03635 0.71677 -0.03324
 O32 O 0.98634 0.71819 0.02685
 O33 O 0.98132 0.76046 0.02241
 O34 O 1.03273 0.75913 -0.03501
 O35 O 0.98339 0.75763 -0.03696
 O36 O 1.03125 0.76112 0.02502
 Cu37 Cu 1.01166 0.71300 -0.00306
 Cu38 Cu 1.00686 0.76382 -0.00629
 C39 C 1.04222 0.74056 0.03610
 C40 C 0.97644 0.73585 -0.04543
 C41 C 1.04325 0.73781 -0.04429
 C42 C 0.97503 0.73965 0.03445
 O43 O 0.47190 0.20444 0.46851
 O44 O 0.51861 0.20764 0.53133
 O45 O 0.46892 0.20430 0.52868
 O46 O 0.52102 0.20939 0.47175
 O47 O 0.51388 0.25163 0.47227
 O48 O 0.46228 0.24664 0.52859
 O49 O 0.51196 0.24991 0.53239
 O50 O 0.46474 0.24672 0.46970
 Cu51 Cu 0.49576 0.20219 0.50008
 Cu52 Cu 0.48772 0.25298 0.50091
 C53 C 0.46024 0.22497 0.45852
 C54 C 0.52348 0.22927 0.54245
 C55 C 0.45645 0.22473 0.53784
 C56 C 0.52619 0.23149 0.46217
 O57 O 0.70307 0.03300 -0.02456
 O58 O 0.70435 -0.01836 0.03401
 O59 O 0.70544 0.03184 0.03525
 O60 O 0.70242 -0.01723 -0.02570
 O61 O 0.74476 -0.02119 -0.02699
 O62 O 0.74770 0.02929 0.03121
 O63 O 0.74663 -0.02090 0.03311
 O64 O 0.74531 0.02830 -0.02791
 Cu65 Cu 0.69957 0.00765 0.00504
 Cu66 Cu 0.75034 0.00336 0.00231
 C67 C 0.72399 0.03936 -0.03633
 C68 C 0.72572 -0.02845 0.04369
 C69 C 0.72716 0.03943 0.04289
 C70 C 0.72320 -0.02761 -0.03669
 O71 O 0.20978 0.46601 0.52421
 O72 O 0.20713 0.51828 0.46720
 O73 O 0.20707 0.46798 0.46453
 O74 O 0.21129 0.51602 0.52670
 O75 O 0.25355 0.51191 0.52337
 O76 O 0.24932 0.46508 0.46094
 O77 O 0.24940 0.51485 0.46386
 O78 O 0.25205 0.46248 0.52077
 Cu79 Cu 0.20456 0.49241 0.49596
 Cu80 Cu 0.25529 0.48820 0.49182
 C81 C 0.23135 0.45535 0.53230
 C82 C 0.22781 0.52566 0.45596
 C83 C 0.22761 0.45834 0.45215
 C84 C 0.23326 0.52208 0.53567
 O85 O 0.29747 0.96020 -0.03497
 O86 O 0.30066 1.01271 0.02190
 O87 O 0.30094 0.96260 0.02440
 O88 O 0.29807 1.01010 -0.03834
 O89 O 0.25601 1.01499 -0.03338
 O90 O 0.25862 0.96523 0.02659
 O91 O 0.25847 1.01470 0.02620
 O92 O 0.25524 0.96498 -0.03326
 Cu93 Cu 0.30355 0.98617 -0.00709
 Cu94 Cu 0.25286 0.99029 -0.00329
 C95 C 0.27568 0.95367 -0.04399
 C96 C 0.28004 1.02231 0.03420
 C97 C 0.28024 0.95561 0.03601
 C98 C 0.27655 1.02096 -0.04641
 O99 O 0.79956 0.47449 0.47613
 O100 O 0.80101 0.52596 0.53371
 O101 O 0.79835 0.47625 0.53565
 O102 O 0.80013 0.52463 0.47346
 O103 O 0.75778 0.52763 0.47218
 O104 O 0.75609 0.48201 0.53634
 O105 O 0.75875 0.53183 0.53167
 O106 O 0.75720 0.47822 0.47655
 Cu107 Cu 0.80402 0.49998 0.50477
 Cu108 Cu 0.75322 0.50536 0.50428
 C109 C 0.77818 0.46731 0.46676
 C110 C 0.78020 0.53788 0.54225
 C111 C 0.77678 0.47092 0.54662
 C112 C 0.77913 0.53410 0.46192
 O113 O 0.23631 0.19261 0.24800
 O114 O 0.21836 0.25226 0.29094
 O115 O 0.19889 0.22786 0.24529
 O116 O 0.25540 0.21687 0.29487
 O117 O 0.27864 0.23760 0.26196
 O118 O 0.22118 0.25051 0.21336
 O119 O 0.24200 0.27376 0.25929
 O120 O 0.25855 0.21454 0.21530
 Cu121 Cu 0.22503 0.22011 0.27298
 Cu122 Cu 0.25237 0.24624 0.23417
 C123 C 0.25010 0.19346 0.22397
 C124 C 0.22752 0.27316 0.28273
 C125 C 0.20027 0.24111 0.22092
 C126 C 0.27654 0.22565 0.28722
 O127 O 0.76876 0.79493 0.24917
 O128 O 0.78283 0.73595 0.29420
 O129 O 0.80502 0.75823 0.24907
 O130 O 0.74505 0.77144 0.29334
 O131 O 0.72446 0.74894 0.25955
 O132 O 0.78337 0.73739 0.21461
 O133 O 0.76205 0.71384 0.26017
 O134 O 0.74672 0.77353 0.21569
 Cu135 Cu 0.77742 0.76741 0.27489
 Cu136 Cu 0.75203 0.74125 0.23413
 C137 C 0.75573 0.79434 0.22454
 C138 C 0.77492 0.71481 0.28496
 C139 C 0.80420 0.74585 0.22393
 C140 C 0.72460 0.76188 0.28424
 O141 O 0.78446 0.24856 0.24424
 O142 O 0.73038 0.23613 0.29514
 O143 O 0.75120 0.21365 0.24749
 O144 O 0.76288 0.27168 0.29229
 O145 O 0.73574 0.29466 0.26257
 O146 O 0.72622 0.23735 0.21593
 O147 O 0.70395 0.25882 0.26426
 O148 O 0.75849 0.27312 0.21478
 Cu149 Cu 0.75998 0.24025 0.27282
 Cu150 Cu 0.72849 0.26831 0.23629
 C151 C 0.78076 0.26293 0.22081
 C152 C 0.70788 0.24523 0.28832
 C153 C 0.73684 0.21570 0.22390
 C154 C 0.75083 0.29299 0.28549
 O155 O 0.27146 0.76528 0.21606
 O156 O 0.26309 0.70616 0.25962
 O157 O 0.23973 0.72916 0.21290
 O158 O 0.29428 0.74269 0.26285
 O159 O 0.26775 0.76459 0.29428
 O160 O 0.21331 0.75135 0.24423
 O161 O 0.23629 0.72769 0.29105
 O162 O 0.24481 0.78711 0.24745
 Cu163 Cu 0.26976 0.73357 0.23473
 Cu164 Cu 0.23787 0.75972 0.27258
 C165 C 0.25949 0.78626 0.22413
 C166 C 0.24842 0.70679 0.28291
 C167 C 0.21727 0.73842 0.21971
 C168 C 0.29036 0.75610 0.28703
 O169 O 0.74505 0.28310 0.80351
 O170 O 0.68796 0.27299 0.75660
 O171 O 0.71047 0.24927 0.80355
 O172 O 0.72278 0.30597 0.75629
 O173 O 0.74689 0.28115 0.72510
 O174 O 0.73449 0.22460 0.77214
 O175 O 0.71177 0.24801 0.72528
 O176 O 0.76882 0.25803 0.77224
 Cu177 Cu 0.71416 0.28026 0.78320
 Cu178 Cu 0.74281 0.25044 0.74550
 C179 C 0.76668 0.27225 0.79596
 C180 C 0.69016 0.25901 0.73270
 C181 C 0.72064 0.22726 0.79608
 C182 C 0.73692 0.30322 0.73256
 O183 O 0.30071 0.72803 0.73834
 O184 O 0.24421 0.71786 0.78600
 O185 O 0.26471 0.69629 0.73696
 O186 O 0.27981 0.75055 0.78685
 O187 O 0.25587 0.77706 0.75734
 O188 O 0.24076 0.72301 0.70773
 O189 O 0.22059 0.74483 0.75671
 O190 O 0.27715 0.75488 0.70886
 Cu191 Cu 0.27476 0.72054 0.76502
 Cu192 Cu 0.24629 0.75261 0.72961
 C193 C 0.29859 0.74301 0.71531
 C194 C 0.22278 0.72972 0.77966
 C195 C 0.25014 0.70042 0.71379
 C196 C 0.27011 0.77306 0.78079
 O197 O 0.24304 0.27902 0.73667
 O198 O 0.25456 0.22422 0.78902
 O199 O 0.27939 0.24260 0.74260
 O200 O 0.21822 0.25999 0.78270
 O201 O 0.19867 0.23396 0.75192
 O202 O 0.25864 0.22005 0.70897
 O203 O 0.23660 0.19904 0.75563
 O204 O 0.22114 0.25519 0.70563
 Cu205 Cu 0.25086 0.25395 0.76592
 Cu206 Cu 0.22672 0.22460 0.72732
 C207 C 0.23009 0.27656 0.71225
 C208 C 0.24756 0.20231 0.78130
 C209 C 0.27928 0.22887 0.71843
 C210 C 0.19812 0.24929 0.77468
 O211 O 0.74344 0.78675 0.69963
 O212 O 0.80383 0.77126 0.74161
 O213 O 0.77988 0.75060 0.69535
 O214 O 0.76684 0.80684 0.74542
 O215 O 0.74558 0.78323 0.77736
 O216 O 0.76082 0.72634 0.72873
 O217 O 0.78340 0.74796 0.77469
 O218 O 0.72335 0.76180 0.73120
 Cu219 Cu 0.77566 0.78115 0.71723
 Cu220 Cu 0.75130 0.75240 0.75627
 C221 C 0.72312 0.77668 0.70801
 C222 C 0.80385 0.75752 0.76576
 C223 C 0.77231 0.72894 0.70330
 C224 C 0.75387 0.80471 0.76988
 C225 C 0.30239 0.05693 0.06155
 C226 C 0.30241 0.07653 0.08362
 C227 C 0.28119 0.08162 0.10295
 C228 C 0.25985 0.06684 0.09993
 C229 C 0.25964 0.04758 0.07764
 C230 C 0.28085 0.04244 0.05813
 N231 N 0.28120 0.10239 0.12460
 N232 N 0.26417 0.10533 0.14551
 C233 C 0.26272 0.12667 0.16638
 C234 C 0.24517 0.12680 0.19070
 C235 C 0.24173 0.14813 0.21014
 C236 C 0.25561 0.16993 0.20529
 C237 C 0.27366 0.16953 0.18122
 C238 C 0.27728 0.14803 0.16200
 H239 H 0.31897 0.05345 0.04679
 H240 H 0.31894 0.08785 0.08560
 H241 H 0.24314 0.07046 0.11443
 H242 H 0.24281 0.03667 0.07569
 H243 H 0.23377 0.11049 0.19424
 H244 H 0.22762 0.14786 0.22836
 H245 H 0.28467 0.18600 0.17692
 H246 H 0.29088 0.14841 0.14325
 C247 C 0.79977 0.55819 0.58777
 C248 C 0.80078 0.57849 0.60865
 C249 C 0.78373 0.60031 0.60591
 C250 C 0.76503 0.60133 0.58260
 C251 C 0.76349 0.58070 0.56229
 C252 C 0.78105 0.55911 0.56450
 N253 N 0.78548 0.62109 0.62715
 N254 N 0.77780 0.64402 0.61994
 C255 C 0.77829 0.66486 0.64128
 C256 C 0.77721 0.69005 0.63000
 C257 C 0.77640 0.71090 0.65026
 C258 C 0.77591 0.70682 0.68220
 C259 C 0.77712 0.68151 0.69353
 C260 C 0.77862 0.66065 0.67322
 H261 H 0.81342 0.54164 0.58997
 H262 H 0.81517 0.57744 0.62664
 H263 H 0.75148 0.61793 0.58033
 H264 H 0.74895 0.58183 0.54446
 H265 H 0.77683 0.69351 0.60544
 H266 H 0.77520 0.73022 0.64094
 H267 H 0.77671 0.67790 0.71806
 H268 H 0.77923 0.64130 0.68240
 C269 C 0.70332 0.94130 0.07531
 C270 C 0.70392 0.92090 0.09628
 C271 C 0.72720 0.91092 0.10882
 C272 C 0.75008 0.92151 0.09995
 C273 C 0.74962 0.94155 0.07849
 C274 C 0.72621 0.95177 0.06580
 N275 N 0.72725 0.88966 0.12979
 N276 N 0.74648 0.88344 0.14691
 C277 C 0.74732 0.86164 0.16710
 C278 C 0.76633 0.85934 0.18979
 C279 C 0.76848 0.83784 0.20907
 C280 C 0.75192 0.81791 0.20556
 C281 C 0.73272 0.82028 0.18283
 C282 C 0.73027 0.84210 0.16390
 H283 H 0.68490 0.94848 0.06612
 H284 H 0.68616 0.91286 0.10286
 H285 H 0.76836 0.91398 0.10918
 H286 H 0.76767 0.94901 0.07189
 H287 H 0.77965 0.87421 0.19239
 H288 H 0.78360 0.83650 0.22618
 H289 H 0.71971 0.80522 0.17957
 H290 H 0.71552 0.84339 0.14635
 C291 C 0.25541 0.42751 0.57100
 C292 C 0.25637 0.40794 0.59302
 C293 C 0.23457 0.39476 0.59939
 C294 C 0.21153 0.40156 0.58374
 C295 C 0.21043 0.42142 0.56205
 C296 C 0.23241 0.43449 0.55536
 N297 N 0.23637 0.37465 0.62184
 N298 N 0.21889 0.35910 0.62540
 C299 C 0.22108 0.33922 0.64817
 C300 C 0.20475 0.31908 0.64668
 C301 C 0.20739 0.29875 0.66772
 C302 C 0.22614 0.29858 0.69096
 C303 C 0.24197 0.31923 0.69294
 C304 C 0.23959 0.33928 0.67161
 H305 H 0.27260 0.43735 0.56645
 H306 H 0.27420 0.40288 0.60501
 H307 H 0.19440 0.39168 0.58842
 H308 H 0.19246 0.42636 0.55030
 H309 H 0.19035 0.31887 0.62876
 H310 H 0.19488 0.28313 0.66572
 H311 H 0.25665 0.31959 0.71052
 H312 H 0.25231 0.35475 0.67336
 C313 C 0.93327 0.24333 0.07560
 C314 C 0.91432 0.24136 0.09799
 C315 C 0.89969 0.26323 0.10809
 C316 C 0.90464 0.28741 0.09607
 C317 C 0.92396 0.28953 0.07406
 C318 C 0.93837 0.26746 0.06321
 N319 N 0.87986 0.26022 0.13030
 N320 N 0.86256 0.27798 0.13623
 C321 C 0.84281 0.27452 0.15844
 C322 C 0.82107 0.29184 0.15895
 C323 C 0.80091 0.28822 0.17934
 C324 C 0.80244 0.26743 0.20004
 C325 C 0.82462 0.25047 0.20007
 C326 C 0.84454 0.25385 0.17930
 H327 H 0.94393 0.22587 0.06810
 H328 H 0.91072 0.22263 0.10715
 H329 H 0.89365 0.30462 0.10372
 H330 H 0.92725 0.30845 0.06520
 H331 H 0.81952 0.30787 0.14305
 H332 H 0.78412 0.30166 0.17889
 H333 H 0.82631 0.23424 0.21569
 H334 H 0.86122 0.24028 0.17948
 C335 C 0.43307 0.79624 0.56164
 C336 C 0.41262 0.79491 0.58217
 C337 C 0.40906 0.77212 0.59808
 C338 C 0.42617 0.75046 0.59313
 C339 C 0.44643 0.75165 0.57230
 C340 C 0.45011 0.77457 0.55637
 N341 N 0.38774 0.77128 0.61866
 N342 N 0.38538 0.75238 0.63672
 C343 C 0.36378 0.75103 0.65675
 C344 C 0.36414 0.73142 0.67872
 C345 C 0.34313 0.72910 0.69814
 C346 C 0.32119 0.74624 0.69558
 C347 C 0.32089 0.76599 0.67352
 C348 C 0.34207 0.76847 0.65435
 H349 H 0.43534 0.81413 0.54959
 H350 H 0.39951 0.81170 0.58573
 H351 H 0.42373 0.73257 0.60507
 H352 H 0.45927 0.73466 0.56877
 H353 H 0.38074 0.71784 0.68071
 H354 H 0.34391 0.71361 0.71479
 H355 H 0.30427 0.77949 0.67104
 H356 H 0.34132 0.78373 0.63741
 C357 C 0.06684 0.76568 0.07176
 C358 C 0.08578 0.76689 0.09438
 C359 C 0.09979 0.74454 0.10430
 C360 C 0.09428 0.72072 0.09179
 C361 C 0.07502 0.71936 0.06959
 C362 C 0.06114 0.74187 0.05902
 N363 N 0.11947 0.74657 0.12698
 N364 N 0.13624 0.72822 0.13257
 C365 C 0.15578 0.73038 0.15541
 C366 C 0.17732 0.71278 0.15524
 C367 C 0.19727 0.71514 0.17634
 C368 C 0.19567 0.73487 0.19845
 C369 C 0.17365 0.75203 0.19918
 C370 C 0.15397 0.74995 0.17768
 H371 H 0.05661 0.78344 0.06443
 H372 H 0.08982 0.78537 0.10392
 H373 H 0.10475 0.70315 0.09927
 H374 H 0.07129 0.70065 0.06047
 H375 H 0.17890 0.69755 0.13826
 H376 H 0.21398 0.70161 0.17530
 H377 H 0.17194 0.76749 0.21585
 H378 H 0.13742 0.76367 0.17841
 C379 C 0.55994 0.20862 0.57294
 C380 C 0.57918 0.20969 0.59511
 C381 C 0.58172 0.23222 0.61194
 C382 C 0.56470 0.25384 0.60640
 C383 C 0.54560 0.25291 0.58390
 C384 C 0.54308 0.23029 0.56690
 N385 N 0.60227 0.23283 0.63367
 N386 N 0.60405 0.25132 0.65247
 C387 C 0.62528 0.25211 0.67324
 C388 C 0.62456 0.27100 0.69613
 C389 C 0.64540 0.27286 0.71601
 C390 C 0.66750 0.25600 0.71296
 C391 C 0.66810 0.23691 0.69010
 C392 C 0.64712 0.23487 0.67050
 H393 H 0.55858 0.19094 0.56013
 H394 H 0.59225 0.19296 0.59911
 H395 H 0.56641 0.27153 0.61904
 H396 H 0.53288 0.26989 0.57978
 H397 H 0.60787 0.28443 0.69841
 H398 H 0.64443 0.28785 0.73330
 H399 H 0.68484 0.22364 0.68723
 H400 H 0.64817 0.22016 0.65289
 C401 C 0.74536 0.06288 0.92174
 C402 C 0.74563 0.08302 0.90054
 C403 C 0.72454 0.10098 0.89784
 C404 C 0.70271 0.09819 0.91612
 C405 C 0.70225 0.07778 0.93705
 C406 C 0.72371 0.06009 0.94033
 N407 N 0.72607 0.12197 0.87676
 N408 N 0.70955 0.14114 0.87608
 C409 C 0.71175 0.16205 0.85499
 C410 C 0.69581 0.18460 0.85865
 C411 C 0.69843 0.20578 0.83935
 C412 C 0.71687 0.20458 0.81573
 C413 C 0.73240 0.18166 0.81164
 C414 C 0.72997 0.16066 0.83116
 H415 H 0.76214 0.04952 0.92361
 H416 H 0.76253 0.08493 0.88654
 H417 H 0.68612 0.11179 0.91433
 H418 H 0.68534 0.07617 0.95113
 H419 H 0.68166 0.18593 0.87689
 H420 H 0.68614 0.22312 0.84304
 H421 H 0.74683 0.18011 0.79372
 H422 H 0.74246 0.14341 0.82773
 C423 C 0.20439 0.56362 0.43066
 C424 C 0.20390 0.58476 0.41081
 C425 C 0.22562 0.58968 0.39356
 C426 C 0.24796 0.57312 0.39629
 C427 C 0.24858 0.55218 0.41640
 C428 C 0.22683 0.54726 0.43387
 N429 N 0.22485 0.61194 0.37419
 N430 N 0.24287 0.61566 0.35537
 C431 C 0.24299 0.63824 0.33667
 C432 C 0.26182 0.63937 0.31398
 C433 C 0.26324 0.66147 0.29610
 C434 C 0.24596 0.68303 0.30093
 C435 C 0.22691 0.68181 0.32363
 C436 C 0.22534 0.65953 0.34129
 H437 H 0.18737 0.56038 0.44393
 H438 H 0.18661 0.59742 0.40896
 H439 H 0.26505 0.57659 0.38329
 H440 H 0.26612 0.53989 0.41834
 H441 H 0.27556 0.62311 0.31032
 H442 H 0.27820 0.66183 0.27889
 H443 H 0.21332 0.69810 0.32784
 H444 H 0.21068 0.65912 0.35884
 C445 C 0.25007 0.92788 0.92241
 C446 C 0.24834 0.90807 0.90104
 C447 C 0.27033 0.89338 0.89152
 C448 C 0.29438 0.89906 0.90315
 C449 C 0.29627 0.91925 0.92412
 C450 C 0.27408 0.93382 0.93428
 N451 N 0.26758 0.87296 0.86998
 N452 N 0.28536 0.85555 0.86462
 C453 C 0.28195 0.83547 0.84275
 C454 C 0.29887 0.81339 0.84293
 C455 C 0.29521 0.79305 0.82271
 C456 C 0.27481 0.79476 0.80151
 C457 C 0.25827 0.81725 0.80086
 C458 C 0.26167 0.83732 0.82141
 H459 H 0.23252 0.93862 0.92943
 H460 H 0.22971 0.90391 0.89214
 H461 H 0.31167 0.88803 0.89591
 H462 H 0.31510 0.92315 0.93264
 H463 H 0.31461 0.81174 0.85920
 H464 H 0.30831 0.77599 0.82367
 H465 H 0.24233 0.81912 0.78488
 H466 H 0.24843 0.85426 0.82066
 C467 C 0.79987 0.42952 0.43938
 C468 C 0.79933 0.40900 0.41875
 C469 C 0.77688 0.40480 0.40253
 C470 C 0.75476 0.42131 0.40730
 C471 C 0.75516 0.44162 0.42823
 C472 C 0.77774 0.44596 0.44445
 N473 N 0.77683 0.38341 0.38187
 N474 N 0.75832 0.38067 0.36341
 C475 C 0.75765 0.35896 0.34334
 C476 C 0.73836 0.35895 0.32104
 C477 C 0.73653 0.33774 0.30176
 C478 C 0.75384 0.31595 0.30478
 C479 C 0.77335 0.31606 0.32707
 C480 C 0.77533 0.33746 0.34612
 H481 H 0.81751 0.43231 0.45166
 H482 H 0.81645 0.39636 0.41535
 H483 H 0.73712 0.41835 0.39513
 H484 H 0.73785 0.45400 0.43162
 H485 H 0.72460 0.37539 0.31875
 H486 H 0.72121 0.33820 0.28492
 H487 H 0.78696 0.29957 0.32992
 H488 H 0.79036 0.33701 0.36332
 C489 C 0.05520 0.29846 0.92989
 C490 C 0.07508 0.29899 0.90833
 C491 C 0.08204 0.27727 0.89044
 C492 C 0.06876 0.25495 0.89425
 C493 C 0.04920 0.25427 0.91607
 C494 C 0.04228 0.27596 0.93424
 N495 N 0.10323 0.27787 0.86954
 N496 N 0.10800 0.26010 0.84985
 C497 C 0.12980 0.25936 0.82982
 C498 C 0.13178 0.24083 0.80652
 C499 C 0.15361 0.23818 0.78792
 C500 C 0.17409 0.25387 0.79258
 C501 C 0.17187 0.27285 0.81563
 C502 C 0.14984 0.27566 0.83404
 H503 H 0.05037 0.31543 0.94366
 H504 H 0.08521 0.31628 0.90572
 H505 H 0.07386 0.23785 0.88083
 H506 H 0.03955 0.23669 0.91882
 H507 H 0.11651 0.22810 0.80313
 H508 H 0.15473 0.22331 0.77047
 H509 H 0.18731 0.28523 0.81978
 H510 H 0.14878 0.29005 0.85203
 C511 C 0.57637 0.80452 0.43468
 C512 C 0.59761 0.80547 0.41522
 C513 C 0.60622 0.78388 0.39802
 C514 C 0.59341 0.76114 0.40061
 C515 C 0.57246 0.76002 0.42043
 C516 C 0.56372 0.78170 0.43765
 N517 N 0.62825 0.78521 0.37859
 N518 N 0.63398 0.76790 0.35864
 C519 C 0.65629 0.76800 0.33957
 C520 C 0.65868 0.75065 0.31509
 C521 C 0.68060 0.74923 0.29670
 C522 C 0.70083 0.76493 0.30279
 C523 C 0.69837 0.78254 0.32731
 C524 C 0.67615 0.78419 0.34548
 H525 H 0.57016 0.82147 0.44784
 H526 H 0.60736 0.82307 0.41351
 H527 H 0.59980 0.74413 0.38769
 H528 H 0.56308 0.74220 0.42223
 H529 H 0.64354 0.73802 0.31041
 H530 H 0.68194 0.73535 0.27813
 H531 H 0.71364 0.79486 0.33255
 H532 H 0.67474 0.79766 0.36446
 C533 C 0.94318 0.71225 0.92668
 C534 C 0.92365 0.71153 0.90470
 C535 C 0.91746 0.73280 0.88576
 C536 C 0.93111 0.75493 0.88904
 C537 C 0.95036 0.75583 0.91130
 C538 C 0.95656 0.73453 0.93043
 N539 N 0.89670 0.73190 0.86427
 N540 N 0.89262 0.74896 0.84354
 C541 C 0.87119 0.74916 0.82292
 C542 C 0.86983 0.76669 0.79850
 C543 C 0.84835 0.76873 0.77920
 C544 C 0.82762 0.75345 0.78429
 C545 C 0.82926 0.73545 0.80847
 C546 C 0.85091 0.73322 0.82755
 H547 H 0.94745 0.69558 0.94117
 H548 H 0.91320 0.69439 0.90251
 H549 H 0.92659 0.77170 0.87481
 H550 H 0.96037 0.77324 0.91357
 H551 H 0.88528 0.77913 0.79475
 H552 H 0.84766 0.78286 0.76089
 H553 H 0.81362 0.72340 0.81298
 H554 H 0.85148 0.71959 0.84637
 C555 C 0.44373 0.20465 0.41106
 C556 C 0.42489 0.20302 0.38838
 C557 C 0.40259 0.21958 0.38914
 C558 C 0.39973 0.23850 0.41214
 C559 C 0.41888 0.24066 0.43423
 C560 C 0.44084 0.22352 0.43412
 N561 N 0.38296 0.21690 0.36664
 N562 N 0.35960 0.22339 0.37284
 C563 C 0.33945 0.22209 0.35075
 C564 C 0.31422 0.22157 0.36128
 C565 C 0.29388 0.22164 0.34046
 C566 C 0.29844 0.22300 0.30868
 C567 C 0.32382 0.22343 0.29805
 C568 C 0.34427 0.22266 0.31896
 H569 H 0.46060 0.19132 0.41050
 H570 H 0.42734 0.18844 0.37068
 H571 H 0.38274 0.25166 0.41291
 H572 H 0.41622 0.25528 0.45187
 H573 H 0.31032 0.22128 0.38575
 H574 H 0.27449 0.22158 0.34928
 H575 H 0.32780 0.22455 0.27365
 H576 H 0.36367 0.22332 0.31040
 C577 C 0.70069 0.93886 0.93444
 C578 C 0.70083 0.91944 0.91218
 C579 C 0.72258 0.91388 0.89388
 C580 C 0.74428 0.92796 0.89809
 C581 C 0.74431 0.94702 0.92059
 C582 C 0.72257 0.95263 0.93905
 N583 N 0.72269 0.89340 0.87191
 N584 N 0.74025 0.89048 0.85168
 C585 C 0.74192 0.86951 0.83040
 C586 C 0.75967 0.86988 0.80637
 C587 C 0.76307 0.84908 0.78622
 C588 C 0.74897 0.82731 0.79010
 C589 C 0.73090 0.82709 0.81406
 C590 C 0.72728 0.84811 0.83399
 H591 H 0.68371 0.94274 0.94845
 H592 H 0.68402 0.90865 0.90923
 H593 H 0.76139 0.92394 0.88438
 H594 H 0.76140 0.95739 0.92352
 H595 H 0.77114 0.88623 0.80351
 H596 H 0.77721 0.84979 0.76808
 H597 H 0.71973 0.81060 0.81755
 H598 H 0.71355 0.84738 0.85256
 C599 C 0.24766 0.43399 0.40781
 C600 C 0.24755 0.41462 0.38564
 C601 C 0.22664 0.39944 0.38310
 C602 C 0.20525 0.40441 0.40239
 C603 C 0.20515 0.42414 0.42431
 C604 C 0.22657 0.43883 0.42756
 N605 N 0.22817 0.37864 0.36150
 N606 N 0.21209 0.36139 0.36088
 C607 C 0.21472 0.34038 0.33956
 C608 C 0.19971 0.31941 0.34348
 C609 C 0.20341 0.29770 0.32461
 C610 C 0.22203 0.29680 0.30118
 C611 C 0.23639 0.31830 0.29658
 C612 C 0.23288 0.33982 0.31568
 H613 H 0.26437 0.44510 0.40962
 H614 H 0.26411 0.41099 0.37087
 H615 H 0.18882 0.39294 0.40074
 H616 H 0.18867 0.42741 0.43928
 H617 H 0.18563 0.31959 0.36178
 H618 H 0.19198 0.28149 0.32866
 H619 H 0.25090 0.31822 0.27878
 H620 H 0.24465 0.35584 0.31205
 C621 C 0.29732 0.04437 0.91281
 C622 C 0.29610 0.06335 0.89001
 C623 C 0.27338 0.07865 0.88516
 C624 C 0.25147 0.07414 0.90244
 C625 C 0.25235 0.05464 0.92450
 C626 C 0.27542 0.03976 0.93041
 N627 N 0.27289 0.09898 0.86305
 N628 N 0.25855 0.11945 0.86711
 C629 C 0.25683 0.13989 0.84517
 C630 C 0.25010 0.16487 0.85543
 C631 C 0.24783 0.18526 0.83461
 C632 C 0.25138 0.18077 0.80301
 C633 C 0.25776 0.15563 0.79258
 C634 C 0.26088 0.13532 0.81363
 H635 H 0.31537 0.03321 0.91644
 H636 H 0.31309 0.06664 0.87671
 H637 H 0.23365 0.08564 0.89873
 H638 H 0.23507 0.05172 0.93742
 H639 H 0.24679 0.16853 0.87968
 H640 H 0.24262 0.20448 0.84308
 H641 H 0.26052 0.15180 0.76827
 H642 H 0.26582 0.11603 0.80529
 C643 C 0.75727 0.55730 0.41784
 C644 C 0.75651 0.57591 0.39469
 C645 C 0.77737 0.59082 0.38998
 C646 C 0.79955 0.58632 0.40815
 C647 C 0.80050 0.56735 0.43107
 C648 C 0.77918 0.55295 0.43646
 N649 N 0.77503 0.61094 0.36747
 N650 N 0.79122 0.62798 0.36517
 C651 C 0.78811 0.64852 0.34323
 C652 C 0.80351 0.66929 0.34584
 C653 C 0.79955 0.69064 0.32650
 C654 C 0.78031 0.69137 0.30379
 C655 C 0.76551 0.67005 0.30039
 C656 C 0.76923 0.64886 0.32010
 H657 H 0.74061 0.54638 0.42128
 H658 H 0.73935 0.57916 0.38083
 H659 H 0.81596 0.59758 0.40485
 H660 H 0.81761 0.56443 0.44509
 H661 H 0.81812 0.66926 0.36353
 H662 H 0.81136 0.70671 0.32956
 H663 H 0.75052 0.67009 0.28316
 H664 H 0.75715 0.63296 0.31753
 C665 C 0.06896 0.76083 0.91942
 C666 C 0.08831 0.76086 0.89731
 C667 C 0.10202 0.73796 0.88890
 C668 C 0.09584 0.71471 0.90240
 C669 C 0.07615 0.71452 0.92420
 C670 C 0.06259 0.73765 0.93325
 N671 N 0.12227 0.73904 0.86692
 N672 N 0.13852 0.72016 0.86190
 C673 C 0.15873 0.72199 0.83994
 C674 C 0.17947 0.70345 0.84015
 C675 C 0.20025 0.70574 0.82031
 C676 C 0.20033 0.72642 0.79954
 C677 C 0.17909 0.74453 0.79869
 C678 C 0.15854 0.74244 0.81885
 H679 H 0.05898 0.77904 0.92553
 H680 H 0.09292 0.77888 0.88698
 H681 H 0.10616 0.69674 0.89608
 H682 H 0.07184 0.69629 0.93423
 H683 H 0.17980 0.68758 0.85626
 H684 H 0.21632 0.69143 0.82135
 H685 H 0.17863 0.76069 0.78298
 H686 H 0.14263 0.75692 0.81812
 C687 C 0.54810 0.25714 0.42274
 C688 C 0.56751 0.25980 0.40113
 C689 C 0.58605 0.23962 0.39576
 C690 C 0.58472 0.21637 0.41193
 C691 C 0.56505 0.21354 0.43328
 C692 C 0.54667 0.23400 0.43908
 N693 N 0.60607 0.24339 0.37407
 N694 N 0.62562 0.22757 0.37116
 C695 C 0.64557 0.23172 0.34948
 C696 C 0.66861 0.21636 0.35113
 C697 C 0.68885 0.22064 0.33115
 C698 C 0.68619 0.24017 0.30881
 C699 C 0.66281 0.25519 0.30672
 C700 C 0.64272 0.25112 0.32701
 H701 H 0.53413 0.27320 0.42655
 H702 H 0.56832 0.27777 0.38877
 H703 H 0.59881 0.20046 0.40805
 H704 H 0.56444 0.19551 0.44555
 H705 H 0.67103 0.20133 0.36830
 H706 H 0.70658 0.20867 0.33322
 H707 H 0.66020 0.27040 0.28979
 H708 H 0.62503 0.26318 0.32518
 C709 C 0.93169 0.24893 0.91967
 C710 C 0.91147 0.24807 0.89875
 C711 C 0.89371 0.26922 0.89525
 C712 C 0.89672 0.29168 0.91237
 C713 C 0.91717 0.29271 0.93301
 C714 C 0.93467 0.27122 0.93713
 N715 N 0.87257 0.26716 0.87466
 N716 N 0.85365 0.28392 0.87365
 C717 C 0.83249 0.28139 0.85318
 C718 C 0.81036 0.29790 0.85658
 C719 C 0.78895 0.29509 0.83788
 C720 C 0.78952 0.27586 0.81515
 C721 C 0.81200 0.25969 0.81133
 C722 C 0.83326 0.26232 0.83028
 H723 H 0.94495 0.23213 0.92223
 H724 H 0.90935 0.23069 0.88562
 H725 H 0.88325 0.30832 0.90992
 H726 H 0.91897 0.31012 0.94621
 H727 H 0.80957 0.31268 0.87412
 H728 H 0.77194 0.30791 0.84126
 H729 H 0.81302 0.24468 0.79406
 H730 H 0.85020 0.24939 0.82713
 C731 C 0.45557 0.75134 0.41145
 C732 C 0.43606 0.74862 0.38996
 C733 C 0.41600 0.76768 0.38686
 C734 C 0.41618 0.79015 0.40475
 C735 C 0.43598 0.79312 0.42594
 C736 C 0.45560 0.77349 0.42988
 N737 N 0.39544 0.76328 0.36613
 N738 N 0.37447 0.77730 0.36580
 C739 C 0.35391 0.77224 0.34529
 C740 C 0.33000 0.78573 0.34909
 C741 C 0.30929 0.78050 0.33022
 C742 C 0.31229 0.76181 0.30690
 C743 C 0.33646 0.74858 0.30281
 C744 C 0.35705 0.75363 0.32192
 H745 H 0.47050 0.73596 0.41387
 H746 H 0.43618 0.73127 0.37624
 H747 H 0.40092 0.80523 0.40261
 H748 H 0.43549 0.81034 0.43993
 H749 H 0.32732 0.80011 0.36701
 H750 H 0.29095 0.79111 0.33385
 H751 H 0.33939 0.73408 0.28507
 H752 H 0.37537 0.74297 0.31846
 C753 C 0.30390 0.92050 0.06609
 C754 C 0.30448 0.90131 0.08859
 C755 C 0.28263 0.89760 0.10617
 C756 C 0.26007 0.91337 0.10113
 C757 C 0.25936 0.93233 0.07840
 C758 C 0.28124 0.93601 0.06057
 N759 N 0.28343 0.87700 0.12797
 N760 N 0.26528 0.87441 0.14698
 C761 C 0.26535 0.85301 0.16758
 C762 C 0.24615 0.85262 0.18995
 C763 C 0.24466 0.83121 0.20905
 C764 C 0.26224 0.80969 0.20571
 C765 C 0.28180 0.81034 0.18358
 C766 C 0.28342 0.83186 0.16475
 H767 H 0.32103 0.92285 0.05264
 H768 H 0.32192 0.88917 0.09219
 H769 H 0.24288 0.91075 0.11434
 H770 H 0.24167 0.94407 0.07474
 H771 H 0.23207 0.86879 0.19225
 H772 H 0.22933 0.83122 0.22582
 H773 H 0.29566 0.79408 0.18055
 H774 H 0.29839 0.83169 0.14752
 C775 C 0.79677 0.43386 0.57719
 C776 C 0.79495 0.41431 0.59900
 C777 C 0.77216 0.41210 0.61543
 C778 C 0.75114 0.42987 0.60997
 C779 C 0.75280 0.44920 0.58791
 C780 C 0.77558 0.45131 0.57114
 N781 N 0.77047 0.39113 0.63652
 N782 N 0.75148 0.38976 0.65465
 C783 C 0.74902 0.36831 0.67482
 C784 C 0.72959 0.36977 0.69703
 C785 C 0.72597 0.34881 0.71625
 C786 C 0.74154 0.32581 0.71320
 C787 C 0.76114 0.32444 0.69096
 C788 C 0.76496 0.34555 0.67204
 H789 H 0.81452 0.43492 0.56455
 H790 H 0.81127 0.40069 0.60291
 H791 H 0.73327 0.42850 0.62227
 H792 H 0.73618 0.46238 0.58383
 H793 H 0.71712 0.38716 0.69931
 H794 H 0.71064 0.35044 0.73306
 H795 H 0.77349 0.30701 0.68811
 H796 H 0.78003 0.34390 0.65491
 C797 C 0.74779 0.07830 0.06051
 C798 C 0.74896 0.09945 0.07996
 C799 C 0.73169 0.10313 0.10436
 C800 C 0.71278 0.08561 0.10892
 C801 C 0.71108 0.06479 0.08882
 C802 C 0.72872 0.06092 0.06460
 N803 N 0.73344 0.12516 0.12359
 N804 N 0.72509 0.12609 0.15108
 C805 C 0.72683 0.14878 0.16923
 C806 C 0.72896 0.14665 0.20124
 C807 C 0.73234 0.16844 0.21917
 C808 C 0.73273 0.19276 0.20530
 C809 C 0.72965 0.19498 0.17331
 C810 C 0.72707 0.17311 0.15535
 H811 H 0.76142 0.07586 0.04178
 H812 H 0.76350 0.11294 0.07618
 H813 H 0.69910 0.08833 0.12754
 H814 H 0.69620 0.05163 0.09231
 H815 H 0.72875 0.12800 0.21218
 H816 H 0.73451 0.16634 0.24384
 H817 H 0.72994 0.21353 0.16213
 H818 H 0.72522 0.17516 0.13064
 C819 C 0.25875 0.54238 0.57649
 C820 C 0.26147 0.56111 0.59899
 C821 C 0.24125 0.57932 0.60548
 C822 C 0.21780 0.57815 0.58979
 C823 C 0.21490 0.55910 0.56757
 C824 C 0.23549 0.54126 0.56041
 N825 N 0.24534 0.59904 0.62753
 N826 N 0.22969 0.61865 0.63111
 C827 C 0.23439 0.63840 0.65293
 C828 C 0.21917 0.66158 0.65204
 C829 C 0.22415 0.68172 0.67193
 C830 C 0.24428 0.67882 0.69344
 C831 C 0.25914 0.65528 0.69481
 C832 C 0.25436 0.63529 0.67462
 H833 H 0.27491 0.52880 0.57162
 H834 H 0.27960 0.56179 0.61098
 H835 H 0.20185 0.59198 0.59455
 H836 H 0.19678 0.55871 0.55549
 H837 H 0.20371 0.66421 0.63546
 H838 H 0.21228 0.69958 0.67043
 H839 H 0.27480 0.65247 0.71109
 H840 H 0.26634 0.61750 0.67585
 C841 C 0.93341 0.75925 0.05396
 C842 C 0.91307 0.76010 0.07478
 C843 C 0.91333 0.74293 0.09949
 C844 C 0.93401 0.72439 0.10295
 C845 C 0.95409 0.72301 0.08154
 C846 C 0.95399 0.74059 0.05703
 N847 N 0.89194 0.74429 0.12005
 N848 N 0.89334 0.73573 0.14746
 C849 C 0.87105 0.73699 0.16668
 C850 C 0.87378 0.73829 0.19868
 C851 C 0.85205 0.74117 0.21758
 C852 C 0.82734 0.74194 0.20464
 C853 C 0.82472 0.73970 0.17262
 C854 C 0.84636 0.73754 0.15378
 H855 H 0.93284 0.77286 0.03510
 H856 H 0.89712 0.77434 0.07183
 H857 H 0.93437 0.71077 0.12178
 H858 H 0.96980 0.70848 0.08432
 H859 H 0.89273 0.73782 0.20888
 H860 H 0.85453 0.74274 0.24224
 H861 H 0.80590 0.74034 0.16205
 H862 H 0.84383 0.73631 0.12911
 C863 C 0.41214 0.23956 0.55311
 C864 C 0.39094 0.23894 0.57250
 C865 C 0.39180 0.22284 0.59825
 C866 C 0.41396 0.20660 0.60398
 C867 C 0.43500 0.20659 0.58390
 C868 C 0.43431 0.22338 0.55858
 N869 N 0.36976 0.22337 0.61783
 N870 N 0.37083 0.21673 0.64601
 C871 C 0.34799 0.21777 0.66437
 C872 C 0.34968 0.22136 0.69623
 C873 C 0.32737 0.22476 0.71409
 C874 C 0.30306 0.22384 0.70036
 C875 C 0.30151 0.21914 0.66861
 C876 C 0.32373 0.21641 0.65073
 H877 H 0.41114 0.25250 0.53357
 H878 H 0.37391 0.25142 0.56780
 H879 H 0.41485 0.19383 0.62366
 H880 H 0.45195 0.19398 0.58849
 H881 H 0.36827 0.22242 0.70703
 H882 H 0.32908 0.22826 0.73854
 H883 H 0.28305 0.21841 0.65740
 H884 H 0.32197 0.21345 0.62619
 C885 C 0.05807 0.29478 0.06645
 C886 C 0.07862 0.29420 0.08717
 C887 C 0.08603 0.27161 0.10325
 C888 C 0.07267 0.24949 0.09836
 C889 C 0.05243 0.24993 0.07736
 C890 C 0.04495 0.27255 0.06114
 N891 N 0.10748 0.27127 0.12383
 N892 N 0.11227 0.25267 0.14240
 C893 C 0.13404 0.25107 0.16243
 C894 C 0.13543 0.23225 0.18539
 C895 C 0.15676 0.22938 0.20473
 C896 C 0.17735 0.24508 0.20107
 C897 C 0.17595 0.26404 0.17799
 C898 C 0.15435 0.26714 0.15890
 H899 H 0.05279 0.31243 0.05413
 H900 H 0.08882 0.31134 0.09067
 H901 H 0.07811 0.23175 0.11040
 H902 H 0.04264 0.23254 0.07380
 H903 H 0.11993 0.21969 0.18819
 H904 H 0.15733 0.21451 0.22217
 H905 H 0.19152 0.27642 0.17469
 H906 H 0.15372 0.28172 0.14112
 C907 C 0.56272 0.75677 0.58201
 C908 C 0.58196 0.75628 0.60435
 C909 C 0.59631 0.77763 0.60878
 C910 C 0.59054 0.80002 0.59131
 C911 C 0.57094 0.80069 0.56925
 C912 C 0.55717 0.77888 0.56401
 N913 N 0.61720 0.77555 0.63019
 N914 N 0.63379 0.79223 0.63194
 C915 C 0.65507 0.78926 0.65279
 C916 C 0.67518 0.80544 0.64981
 C917 C 0.69716 0.80168 0.66813
 C918 C 0.69919 0.78181 0.69009
 C919 C 0.67856 0.76617 0.69379
 C920 C 0.65675 0.76975 0.67519
 H921 H 0.55232 0.73973 0.57864
 H922 H 0.58621 0.73895 0.61770
 H923 H 0.60134 0.81680 0.59445
 H924 H 0.56710 0.81795 0.55565
 H925 H 0.67412 0.82056 0.63266
 H926 H 0.71268 0.81413 0.66484
 H927 H 0.67956 0.75069 0.71048
 H928 H 0.64139 0.75704 0.67803
   
