data_POSCAR
  _audit_creation_date              2014-09-24
  _audit_creation_method            'ToBaCCo'
  _symmetry_space_group_name_H-M    'P1'
  _symmetry_Int_Tables_number       1
  _symmetry_cell_setting            triclinic
  loop_
  _symmetry_equiv_pos_as_xyz
 x,y,z
_cell_length_a 21.6619
_cell_length_b 21.6617
_cell_length_c 21.6615
_cell_angle_alpha 94.466000
_cell_angle_beta 85.538900
_cell_angle_gamma 94.460000
loop_
  _atom_site_label
  _atom_site_type_symbol
  _atom_site_fract_x
  _atom_site_fract_y
  _atom_site_fract_z
O1 O 0.57117 0.51671 0.06244
 O2 O 0.40456 0.50788 0.03626
 O3 O 0.48146 0.42843 0.06296
 O4 O 0.49307 0.59471 0.03590
 O5 O 0.51574 0.57193 -0.06410
 O6 O 0.50515 0.40571 -0.03687
 O7 O 0.42649 0.48304 -0.06342
 O8 O 0.59320 0.49322 -0.03753
 Cu9 Cu 0.48545 0.51409 0.05950
 Cu10 Cu 0.51225 0.48630 -0.06058
 C11 C 0.61050 0.50632 0.01691
 C12 C 0.38710 0.49415 -0.01807
 C13 C 0.49173 0.38882 0.01766
 C14 C 0.50599 0.61157 -0.01871
 O15 O -0.06249 0.57325 0.51698
 O16 O -0.03663 0.40655 0.50672
 O17 O -0.03597 0.49451 0.59422
 O18 O -0.06321 0.48401 0.42802
 O19 O 0.03680 0.50658 0.40522
 O20 O 0.06385 0.51830 0.57154
 O21 O 0.06336 0.42858 0.48332
 O22 O 0.03717 0.59519 0.49208
 Cu23 Cu -0.05969 0.48749 0.51364
 Cu24 Cu 0.06039 0.51429 0.48587
 C25 C -0.01715 0.61266 0.50589
 C26 C 0.01782 0.38925 0.49371
 C27 C 0.01855 0.50793 0.61113
 C28 C -0.01781 0.49365 0.38837
 O29 O 0.50826 0.03667 0.59511
 O30 O 0.51710 0.06285 0.42851
 O31 O 0.42883 0.06316 0.51820
 O32 O 0.59513 0.03610 0.50659
 O33 O 0.57235 -0.06389 0.48390
 O34 O 0.40614 -0.03667 0.49450
 O35 O 0.49361 -0.03712 0.40646
 O36 O 0.48345 -0.06301 0.57316
 Cu37 Cu 0.51452 0.05980 0.51420
 Cu38 Cu 0.48675 -0.06028 0.48739
 C39 C 0.49447 -0.01765 0.61257
 C40 C 0.50664 0.01733 0.38917
 C41 C 0.38923 0.01785 0.50795
 C42 C 0.61199 -0.01851 0.49368
 C43 C 0.49061 -0.05838 -0.13477
 C44 C 0.50089 -0.11873 -0.12076
 C45 C 0.51013 -0.13300 -0.06032
 C46 C 0.51369 -0.08431 -0.01274
 C47 C 0.49931 -0.02385 -0.02483
 C48 C 0.48547 -0.01136 -0.08545
 C49 C 0.46488 0.04708 -0.09424
 C50 C 0.46441 0.09407 -0.04670
 C51 C 0.48422 0.08471 0.01191
 C52 C 0.49863 0.02425 0.02394
 C53 C 0.53303 -0.09380 0.04606
 C54 C 0.53238 -0.04686 0.09361
 C55 C 0.51243 0.01175 0.08454
 C56 C 0.50791 0.05889 0.13369
 C57 C 0.49780 0.11927 0.11982
 C58 C 0.48807 0.13347 0.05945
 H59 H 0.44693 0.05689 -0.13727
 H60 H 0.44647 0.13727 -0.05617
 H61 H 0.55068 -0.13707 0.05569
 H62 H 0.54954 -0.05681 0.13701
 H63 H 0.50147 -0.15553 -0.15763
 H64 H 0.49762 0.15602 0.15675
 C65 C 0.06014 0.51101 0.86649
 C66 C 0.12057 0.50167 0.88075
 C67 C 0.13454 0.49124 0.94108
 C68 C 0.08521 0.48612 0.98809
 C69 C 0.02461 0.50002 0.97560
 C70 C 0.01253 0.51447 0.91516
 C71 C -0.04629 0.53375 0.90566
 C72 C -0.09387 0.53301 0.95258
 C73 C -0.08477 0.51310 1.01119
 C74 C -0.02416 0.49934 1.02370
 C75 C 0.09397 0.46548 1.04652
 C76 C 0.04646 0.46511 1.09353
 C77 C -0.01212 0.48499 1.08417
 C78 C -0.05962 0.48895 1.13295
 C79 C -0.12001 0.49859 1.11873
 C80 C -0.13392 0.50856 1.05833
 H81 H -0.05594 0.55141 0.86240
 H82 H -0.13730 0.55010 0.94262
 H83 H 0.13697 0.44745 1.05632
 H84 H 0.05591 0.44717 1.13673
 H85 H 0.15744 0.50229 0.84397
 H86 H -0.15693 0.49846 1.15548
 C87 C -0.05800 -0.13472 0.50945
 C88 C -0.11835 -0.12072 0.49916
 C89 C -0.13262 -0.06027 0.48990
 C90 C -0.08393 -0.01269 0.48634
 C91 C -0.02348 -0.02479 0.50073
 C92 C -0.01098 -0.08540 0.51458
 C93 C 0.04746 -0.09418 0.53517
 C94 C 0.09446 -0.04666 0.53561
 C95 C 0.08508 0.01195 0.51581
 C96 C 0.02462 0.02398 0.50141
 C97 C -0.09342 0.04610 0.46699
 C98 C -0.04649 0.09366 0.46766
 C99 C 0.01212 0.08458 0.48761
 C100 C 0.05925 0.13373 0.49214
 C101 C 0.11963 0.11985 0.50224
 C102 C 0.13384 0.05949 0.51195
 H103 H 0.05728 -0.13721 0.55313
 H104 H 0.13767 -0.05612 0.55353
 H105 H -0.13668 0.05573 0.44932
 H106 H -0.05644 0.13706 0.45051
 H107 H -0.15515 -0.15758 0.49858
 H108 H 0.15638 0.15679 0.50241
 N109 N -0.28222 0.48549 0.98237
 C110 C -0.32315 0.50863 1.02721
 N111 N -0.30184 0.53250 1.08201
 N112 N -0.24164 0.53365 1.09135
 C113 C -0.20040 0.51102 1.04628
 N114 N -0.22218 0.48617 0.99195
 N115 N 0.28237 0.51022 1.01855
 C116 C 0.32418 0.49189 0.97209
 N117 N 0.30352 0.47258 0.91569
 N118 N 0.24330 0.47109 0.90640
 C119 C 0.20123 0.48897 0.95299
 N120 N 0.22233 0.50946 1.00894
 N121 N 0.01947 -0.28256 0.49004
 C122 C -0.02699 -0.32441 0.50828
 N123 N -0.08337 -0.30378 0.52769
 N124 N -0.09265 -0.24355 0.52936
 C125 C -0.04608 -0.20144 0.51156
 N126 N 0.00986 -0.22251 0.49097
 N127 N -0.01670 0.28205 0.51479
 C128 C 0.02813 0.32291 0.49154
 N129 N 0.08294 0.30155 0.46776
 N130 N 0.09228 0.24138 0.46679
 C131 C 0.04722 0.20019 0.48952
 N132 N -0.00711 0.22202 0.51429
 N133 N 0.47258 -0.08383 -0.30386
 C134 C 0.49200 -0.02745 -0.32449
 N135 N 0.51015 0.01904 -0.28263
 N136 N 0.50913 0.00946 -0.22256
 C137 C 0.48855 -0.04647 -0.20149
 N138 N 0.47083 -0.09308 -0.24362
 N139 N 0.48539 -0.01712 0.28198
 C140 C 0.50873 0.02768 0.32284
 N141 N 0.53249 0.08250 0.30149
 N142 N 0.53337 0.09188 0.24133
 C143 C 0.51057 0.04685 0.20015
 N144 N 0.48580 -0.00749 0.22198
 N145 N 0.53332 -0.30105 -0.08388
 C146 C 0.50876 -0.32221 -0.02925
 N147 N 0.48536 -0.28120 0.01532
 N148 N 0.48647 -0.22119 0.00567
 C149 C 0.51208 -0.19951 -0.04841
 N150 N 0.53493 -0.24084 -0.09326
 N151 N 0.46476 0.30148 0.08298
 C152 C 0.48902 0.32260 0.02823
 N153 N 0.51225 0.28156 -0.01641
 N154 N 0.51125 0.22156 -0.00672
 C155 C 0.48597 0.19994 0.04751
 N156 N 0.46329 0.24129 0.09243
 N157 N -0.30063 -0.08374 0.46648
 C158 C -0.32180 -0.02909 0.49100
 N159 N -0.28081 0.01544 0.51449
 N160 N -0.22081 0.00575 0.51348
 C161 C -0.19912 -0.04835 0.48789
 N162 N -0.24044 -0.09317 0.46497
 N163 N 0.30187 0.08311 0.53505
 C164 C 0.32301 0.02838 0.51075
 N165 N 0.28196 -0.01631 0.48761
 N166 N 0.22194 -0.00666 0.48870
 C167 C 0.20031 0.04756 0.51401
 N168 N 0.24167 0.09251 0.53662
 N169 N 0.01638 0.51348 1.28097
 C170 C -0.02838 0.49071 1.32215
 N171 N -0.08323 0.46660 1.30114
 N172 N -0.09267 0.46485 1.24094
 C173 C -0.04765 0.48708 1.19944
 N174 N 0.00669 0.51221 1.22094
 N175 N 0.08362 0.53517 0.69864
 C176 C 0.02910 0.51047 0.67734
 N177 N -0.01535 0.48662 0.71820
 N178 N -0.00571 0.48745 0.77819
 C179 C 0.04826 0.51321 0.80001
 N180 N 0.09301 0.53649 0.75883
   
