data_POSCAR
  _audit_creation_date              2014-09-24
  _audit_creation_method            'ToBaCCo'
  _symmetry_space_group_name_H-M    'P1'
  _symmetry_Int_Tables_number       1
  _symmetry_cell_setting            triclinic
  loop_
  _symmetry_equiv_pos_as_xyz
 x,y,z
_cell_length_a 40.6008
_cell_length_b 40.6482
_cell_length_c 23.0986
_cell_angle_alpha 89.850400
_cell_angle_beta 90.074900
_cell_angle_gamma 120.011500
loop_
  _atom_site_label
  _atom_site_type_symbol
  _atom_site_fract_x
  _atom_site_fract_y
  _atom_site_fract_z
O1 O 0.45438 0.96372 0.55494
 O2 O 0.49152 1.03777 0.44208
 O3 O 0.45464 0.96381 0.44214
 O4 O 0.49161 1.03768 0.55492
 O5 O 0.54606 1.03764 0.55505
 O6 O 0.50912 0.96382 0.44236
 O7 O 0.54599 1.03778 0.44221
 O8 O 0.50884 0.96368 0.55516
 Cu9 Cu 0.46755 1.00075 0.49850
 Cu10 Cu 0.53300 1.00074 0.49871
 C11 C 0.47534 0.95123 0.57415
 C12 C 0.52499 1.05024 0.42301
 C13 C 0.47567 0.95138 0.42318
 C14 C 0.52507 1.05007 0.57409
 O15 O 0.03696 0.49120 0.55855
 O16 O -0.03706 0.45415 0.44577
 O17 O 0.03697 0.49138 0.44572
 O18 O -0.03710 0.45433 0.55859
 O19 O -0.03714 0.50871 0.55828
 O20 O 0.03688 0.54574 0.44550
 O21 O -0.03714 0.50851 0.44545
 O22 O 0.03692 0.54558 0.55833
 Cu23 Cu -0.00005 0.46728 0.50220
 Cu24 Cu -0.00013 0.53262 0.50188
 C25 C 0.04941 0.52462 0.57755
 C26 C -0.04954 0.47508 0.42649
 C27 C 0.04937 0.52480 0.42648
 C28 C -0.04959 0.47529 0.57754
 O29 O 0.50911 0.54527 0.55715
 O30 O 0.54605 0.50836 0.44445
 O31 O 0.50885 0.54515 0.44435
 O32 O 0.54600 0.50817 0.55729
 O33 O 0.49153 0.45375 0.55743
 O34 O 0.45440 0.49070 0.44457
 O35 O 0.49159 0.45392 0.44459
 O36 O 0.45463 0.49085 0.55737
 Cu37 Cu 0.53300 0.53222 0.50080
 Cu38 Cu 0.46755 0.46681 0.50101
 C39 C 0.47566 0.52429 0.57633
 C40 C 0.52504 0.47495 0.42541
 C41 C 0.47536 0.52413 0.42535
 C42 C 0.52500 0.47472 0.57649
 O43 O 0.38829 0.66845 -0.06700
 O44 O 0.39001 0.73259 -0.04864
 C45 C 0.36631 0.73755 -0.07803
 O46 O 0.33094 0.71985 -0.06742
 O47 O 0.26673 0.65745 -0.04842
 C48 C 0.26173 0.62879 -0.07760
 O49 O 0.27945 0.61117 -0.06689
 O50 O 0.34194 0.60946 -0.04807
 C51 C 0.37063 0.63312 -0.07743
 O52 O 0.39006 0.65753 0.04808
 O53 O 0.38833 0.71994 0.06645
 C54 C 0.37070 0.73765 0.07688
 O55 O 0.34201 0.73266 0.04753
 O56 O 0.27955 0.66852 0.06656
 C57 C 0.26187 0.63320 0.07736
 O58 O 0.26679 0.60951 0.04814
 O59 O 0.33100 0.61124 0.06692
 C60 C 0.36637 0.62888 0.07749
 Cr61 Cr 0.38713 0.69361 -0.00028
 Cr62 Cr 0.30583 0.69360 -0.00043
 Cr63 Cr 0.30582 0.61239 0.00001
 O64 O 0.33293 0.66653 -0.00023
 O65 O 0.61154 0.33148 -0.06720
 O66 O 0.60981 0.26734 -0.04837
 C67 C 0.63353 0.26242 -0.07764
 O68 O 0.66889 0.28009 -0.06697
 O69 O 0.73310 0.34247 -0.04820
 C70 C 0.73810 0.37113 -0.07762
 O71 O 0.72037 0.38874 -0.06715
 O72 O 0.65789 0.39046 -0.04859
 C73 C 0.62920 0.36681 -0.07788
 O74 O 0.60977 0.34235 0.04781
 O75 O 0.61149 0.27993 0.06665
 C76 C 0.62913 0.26223 0.07733
 O77 O 0.65781 0.26723 0.04804
 O78 O 0.72027 0.33136 0.06681
 C79 C 0.73796 0.36668 0.07738
 O80 O 0.73304 0.39038 0.04791
 O81 O 0.66884 0.38864 0.06647
 C82 C 0.63347 0.37097 0.07710
 Cr83 Cr 0.61270 0.30630 -0.00028
 Cr84 Cr 0.69400 0.30631 -0.00009
 Cr85 Cr 0.69401 0.38751 -0.00034
 O86 O 0.66690 0.33337 -0.00023
 C87 C 0.43355 0.81272 -0.18389
 C88 C 0.40841 0.81950 -0.21630
 C89 C 0.36946 0.79934 -0.20385
 C90 C 0.35569 0.77258 -0.15903
 C91 C 0.46094 0.92262 -0.38153
 C92 C 0.41988 0.78599 -0.13904
 C93 C 0.42264 0.84742 -0.26193
 C94 C 0.43466 0.87097 -0.29989
 C95 C 0.44882 0.89874 -0.34406
 C96 C 0.38077 0.76565 -0.12595
 H97 H 0.46376 0.82819 -0.19316
 H98 H 0.34975 0.80438 -0.22868
 H99 H 0.32544 0.75742 -0.15020
 H100 H 0.43997 0.78136 -0.11458
 C101 C 0.18642 0.62073 -0.18333
 C102 C 0.17963 0.58883 -0.21553
 C103 C 0.19981 0.57011 -0.20296
 C104 C 0.22661 0.58313 -0.15823
 C105 C 0.07647 0.53811 -0.38055
 C106 C 0.21319 0.63382 -0.13858
 C107 C 0.15169 0.57513 -0.26108
 C108 C 0.12813 0.56358 -0.29899
 C109 C 0.10035 0.54992 -0.34310
 C110 C 0.23356 0.61511 -0.12537
 H111 H 0.17094 0.63544 -0.19270
 H112 H 0.19476 0.54537 -0.22761
 H113 H 0.24179 0.56807 -0.14932
 H114 H 0.21784 0.65853 -0.11429
 C115 C 0.37870 0.56590 -0.18259
 C116 C 0.41064 0.59101 -0.21495
 C117 C 0.42939 0.62992 -0.20270
 C118 C 0.41635 0.64369 -0.15812
 C119 C 0.46142 0.53863 -0.37947
 C120 C 0.36559 0.57958 -0.13799
 C121 C 0.42437 0.57679 -0.26035
 C122 C 0.43595 0.56480 -0.29814
 C123 C 0.44962 0.55069 -0.34213
 C124 C 0.38432 0.61865 -0.12509
 H125 H 0.36397 0.53573 -0.19171
 H126 H 0.45417 0.64960 -0.22749
 H127 H 0.43142 0.67391 -0.14945
 H128 H 0.34084 0.55952 -0.11355
 C129 C 0.63050 0.20102 -0.20340
 C130 C 0.59158 0.18093 -0.21599
 C131 C 0.56640 0.18760 -0.18365
 C132 C 0.58002 0.21416 -0.13875
 C133 C 0.53937 0.07854 -0.38157
 C134 C 0.64422 0.22761 -0.15851
 C135 C 0.57741 0.15322 -0.26172
 C136 C 0.56546 0.12984 -0.29977
 C137 C 0.55140 0.10226 -0.34403
 C138 C 0.61911 0.23444 -0.12553
 H139 H 0.65025 0.19606 -0.22816
 H140 H 0.53620 0.17219 -0.19303
 H141 H 0.55990 0.21873 -0.11436
 H142 H 0.67446 0.24271 -0.14960
 C143 C 0.80001 0.42983 -0.20322
 C144 C 0.82019 0.41109 -0.21555
 C145 C 0.81339 0.37919 -0.18311
 C146 C 0.78662 0.36610 -0.13836
 C147 C 0.92335 0.46181 -0.38055
 C148 C 0.77321 0.41681 -0.15849
 C149 C 0.84812 0.42479 -0.26110
 C150 C 0.87168 0.43635 -0.29901
 C151 C 0.89946 0.45000 -0.34312
 C152 C 0.76626 0.38482 -0.12540
 H153 H 0.80506 0.45457 -0.22807
 H154 H 0.82886 0.36447 -0.19228
 H155 H 0.78197 0.34138 -0.11387
 H156 H 0.75804 0.43187 -0.14977
 C157 C 0.57053 0.36999 -0.20359
 C158 C 0.58930 0.40889 -0.21616
 C159 C 0.62122 0.43400 -0.18383
 C160 C 0.63429 0.42034 -0.13897
 C161 C 0.53851 0.46118 -0.38154
 C162 C 0.58354 0.35623 -0.15875
 C163 C 0.57560 0.42309 -0.26182
 C164 C 0.56403 0.43506 -0.29982
 C165 C 0.55035 0.44914 -0.34403
 C166 C 0.61554 0.38127 -0.12577
 H167 H 0.54578 0.35029 -0.22835
 H168 H 0.63595 0.46418 -0.19319
 H169 H 0.65902 0.44041 -0.11458
 H170 H 0.56845 0.32601 -0.14986
 C171 C 0.79939 0.36968 0.20357
 C172 C 0.81949 0.40855 0.21607
 C173 C 0.81282 0.43371 0.18350
 C174 C 0.78625 0.42011 0.13848
 C175 C 0.92194 0.46075 0.38207
 C176 C 0.77280 0.35598 0.15857
 C177 C 0.84720 0.42269 0.26193
 C178 C 0.87059 0.43464 0.30008
 C179 C 0.89819 0.44870 0.34445
 C180 C 0.76597 0.38107 0.12536
 H181 H 0.80435 0.34995 0.22851
 H182 H 0.82823 0.46386 0.19281
 H183 H 0.78168 0.44021 0.11392
 H184 H 0.75768 0.32578 0.14974
 C185 C 0.57044 0.20043 0.20303
 C186 C 0.58921 0.18028 0.21561
 C187 C 0.62113 0.18705 0.18328
 C188 C 0.63420 0.21377 0.13841
 C189 C 0.53849 0.07728 0.38104
 C190 C 0.58345 0.22718 0.15819
 C191 C 0.57552 0.15240 0.26128
 C192 C 0.56397 0.12888 0.29929
 C193 C 0.55031 0.10114 0.34352
 C194 C 0.61545 0.23411 0.12521
 H195 H 0.54569 0.19539 0.22779
 H196 H 0.63586 0.17160 0.19265
 H197 H 0.65893 0.21841 0.11403
 H198 H 0.56837 0.24232 0.14928
 C199 C 0.56631 0.37871 0.18305
 C200 C 0.59149 0.41053 0.21542
 C201 C 0.63042 0.42932 0.20286
 C202 C 0.64414 0.41644 0.15798
 C203 C 0.53934 0.46078 0.38105
 C204 C 0.57994 0.36577 0.13815
 C205 C 0.57732 0.42408 0.26116
 C206 C 0.56539 0.43552 0.29922
 C207 C 0.55135 0.44906 0.34350
 C208 C 0.61904 0.38454 0.12497
 H209 H 0.53611 0.36396 0.19241
 H210 H 0.65016 0.45400 0.22765
 H211 H 0.67438 0.43154 0.14910
 H212 H 0.55983 0.34111 0.11373
 C213 C 0.20043 0.63019 0.20331
 C214 C 0.18033 0.59132 0.21606
 C215 C 0.18699 0.56616 0.18374
 C216 C 0.21356 0.57976 0.13872
 C217 C 0.07788 0.53913 0.38207
 C218 C 0.22703 0.64389 0.15831
 C219 C 0.15262 0.57717 0.26192
 C220 C 0.12923 0.56523 0.30007
 C221 C 0.10163 0.55117 0.34445
 C222 C 0.23386 0.61881 0.12535
 H223 H 0.19548 0.64992 0.22806
 H224 H 0.17158 0.53600 0.19324
 H225 H 0.21813 0.55967 0.11435
 H226 H 0.24216 0.67409 0.14928
 C227 C 0.42947 0.79956 0.20215
 C228 C 0.41073 0.81974 0.21440
 C229 C 0.37879 0.81293 0.18203
 C230 C 0.36568 0.78617 0.13742
 C231 C 0.46144 0.92282 0.37898
 C232 C 0.41643 0.77276 0.15755
 C233 C 0.42445 0.84766 0.25982
 C234 C 0.43601 0.87121 0.29762
 C235 C 0.44965 0.89897 0.34162
 C236 C 0.38441 0.76581 0.12453
 H237 H 0.45424 0.80462 0.22695
 H238 H 0.36407 0.82840 0.19115
 H239 H 0.34093 0.78151 0.11298
 H240 H 0.43150 0.75760 0.14888
 C241 C 0.36955 0.57027 0.20332
 C242 C 0.40850 0.58900 0.21573
 C243 C 0.43364 0.62089 0.18328
 C244 C 0.41996 0.63395 0.13844
 C245 C 0.46097 0.53835 0.38102
 C246 C 0.35577 0.58327 0.15849
 C247 C 0.42273 0.57531 0.26137
 C248 C 0.43474 0.56377 0.29935
 C249 C 0.44887 0.55014 0.34353
 C250 C 0.38085 0.61523 0.12538
 H251 H 0.34984 0.54554 0.22817
 H252 H 0.46386 0.63560 0.19252
 H253 H 0.44005 0.65865 0.11394
 H254 H 0.32552 0.56820 0.14971
   
