data_POSCAR
  _audit_creation_date              2014-09-24
  _audit_creation_method            'ToBaCCo'
  _symmetry_space_group_name_H-M    'P1'
  _symmetry_Int_Tables_number       1
  _symmetry_cell_setting            triclinic
  loop_
  _symmetry_equiv_pos_as_xyz
 x,y,z
_cell_length_a 40.1650
_cell_length_b 40.1170
_cell_length_c 13.8850
_cell_angle_alpha 89.889600
_cell_angle_beta 90.051000
_cell_angle_gamma 119.967400
loop_
  _atom_site_label
  _atom_site_type_symbol
  _atom_site_fract_x
  _atom_site_fract_y
  _atom_site_fract_z
O1 O 0.20080 0.46564 0.40641
 O2 O 0.26568 0.46603 0.59355
 O3 O 0.20058 0.46602 0.59312
 O4 O 0.26637 0.46688 0.40831
 O5 O 0.29775 0.53052 0.40841
 O6 O 0.23192 0.52963 0.59332
 O7 O 0.29753 0.52963 0.59331
 O8 O 0.23162 0.52924 0.40708
 Cu9 Cu 0.23012 0.45975 0.50041
 Cu10 Cu 0.26778 0.53620 0.50064
 C11 C 0.20473 0.49727 0.37621
 C12 C 0.29333 0.49777 0.62294
 C13 C 0.20465 0.49770 0.62305
 C14 C 0.29381 0.49883 0.37914
 O15 O 0.53099 -0.20194 0.59498
 O16 O 0.53046 -0.26781 0.41004
 O17 O 0.53086 -0.20252 0.40933
 O18 O 0.53118 -0.26721 0.59601
 O19 O 0.46764 -0.29906 0.59641
 O20 O 0.46729 -0.23399 0.41027
 O21 O 0.46692 -0.29971 0.41119
 O22 O 0.46747 -0.23336 0.59519
 Cu23 Cu 0.53726 -0.23171 0.50267
 Cu24 Cu 0.46089 -0.26976 0.50354
 C25 C 0.49934 -0.20571 0.62410
 C26 C 0.49864 -0.29545 0.38099
 C27 C 0.49909 -0.20665 0.38017
 C28 C 0.49948 -0.29485 0.62561
 O29 O 1.26660 0.79855 0.40817
 O30 O 1.20091 0.73470 0.59547
 O31 O 1.26663 0.79902 0.59345
 O32 O 1.20094 0.73411 0.40864
 O33 O 1.23163 0.70119 0.41026
 O34 O 1.29755 0.76631 0.59494
 O35 O 1.23128 0.70151 0.59657
 O36 O 1.29777 0.76610 0.41028
 Cu37 Cu 1.23057 0.76978 0.50130
 Cu38 Cu 1.26756 0.73033 0.50317
 C39 C 1.29402 0.79390 0.37975
 C40 C 1.20446 0.70687 0.62659
 C41 C 1.29390 0.79437 0.62320
 C42 C 1.20473 0.70625 0.37944
 O43 O 0.79857 0.53327 0.40817
 O44 O 0.73381 0.53489 0.59318
 O45 O 0.79864 0.53466 0.59346
 O46 O 0.73407 0.53448 0.40634
 O47 O 0.70163 0.47087 0.40879
 O48 O 0.76668 0.47102 0.59578
 O49 O 0.70133 0.47131 0.59517
 O50 O 0.76660 0.46966 0.41093
 Cu51 Cu 0.76940 0.54071 0.50000
 Cu52 Cu 0.73068 0.46426 0.50285
 C53 C 0.79427 0.50123 0.38042
 C54 C 0.70623 0.50341 0.62451
 C55 C 0.79431 0.50296 0.62422
 C56 C 0.70647 0.50270 0.37723
 O57 O 0.46676 0.19955 0.59511
 O58 O 0.46596 0.26432 0.40823
 O59 O 0.46613 0.19947 0.40875
 O60 O 0.46603 0.26433 0.59472
 O61 O 0.52958 0.29665 0.59374
 O62 O 0.52968 0.23143 0.40812
 O63 O 0.52949 0.29677 0.40783
 O64 O 0.53028 0.23139 0.59393
 Cu65 Cu 0.45984 0.22870 0.50190
 Cu66 Cu 0.53619 0.26731 0.50094
 C67 C 0.49862 0.20388 0.62454
 C68 C 0.49753 0.29191 0.37760
 C69 C 0.49789 0.20399 0.37836
 C70 C 0.49774 0.29199 0.62405
 O71 O 0.73563 0.20170 0.40841
 O72 O 0.79995 0.26792 0.59400
 O73 O 0.73533 0.20218 0.59507
 O74 O 0.79952 0.26762 0.40850
 O75 O 0.76676 0.29849 0.40748
 O76 O 0.70239 0.23285 0.59398
 O77 O 0.76749 0.29905 0.59226
 O78 O 0.70238 0.23203 0.40781
 Cu79 Cu 0.77082 0.23168 0.50173
 Cu80 Cu 0.73133 0.26862 0.50044
 C81 C 0.70776 0.20521 0.37781
 C82 C 0.79545 0.29548 0.62221
 C83 C 0.70748 0.20590 0.62453
 C84 C 0.79464 0.29475 0.37840
 O85 O 0.94596 0.41739 0.17808
 O86 O 0.90342 0.42467 0.08208
 C87 C 0.91148 0.40834 0.15158
 O88 O 1.05384 0.58619 0.17252
 O89 O 1.09629 0.57652 0.08264
 C90 C 1.08830 0.59451 0.14783
 O91 O 0.94630 0.53002 0.18006
 O92 O 0.90365 0.48029 0.08443
 C93 C 0.91176 0.50453 0.15419
 O94 O 1.05321 0.46697 0.16905
 O95 O 1.09606 0.51920 0.08006
 C96 C 1.08782 0.49296 0.14496
 Zr97 Zr 0.99951 0.45741 0.11726
 O98 O 1.00147 0.45136 0.26802
 O99 O 0.99507 0.40283 0.10068
 Zr100 Zr 0.99995 0.54215 0.12177
 O101 O 1.00344 0.54493 0.27395
 O102 O 0.99617 0.59294 0.11748
 O103 O 0.96574 0.48282 0.13865
 O104 O 1.03281 0.51610 0.13791
 O105 O 1.05347 0.46833 -0.17382
 O106 O 1.09610 0.52029 -0.08372
 C107 C 1.08798 0.49422 -0.14873
 O108 O 0.94701 0.53130 -0.18024
 O109 O 0.90392 0.48136 -0.08541
 C110 C 0.91238 0.50603 -0.15445
 O111 O 1.05418 0.58775 -0.17052
 O112 O 1.09655 0.57772 -0.08132
 C113 C 1.08865 0.59600 -0.14619
 O114 O 0.94594 0.41771 -0.18220
 O115 O 0.90345 0.42539 -0.08743
 C116 C 0.91144 0.40894 -0.15666
 Zr117 Zr 0.99967 0.45909 -0.12397
 O118 O 1.00344 0.46013 -0.27614
 O119 O 0.99535 0.40427 -0.12025
 Zr120 Zr 1.00023 0.54388 -0.11941
 O121 O 1.00257 0.55185 -0.27022
 O122 O 0.99645 0.59440 -0.10310
 Zr123 Zr 0.94218 0.47206 -0.00147
 Zr124 Zr 1.05738 0.52916 -0.00076
 O125 O 1.03308 0.51798 -0.13970
 O126 O 0.96597 0.48475 -0.14132
 O127 O 1.03434 0.46898 -0.00337
 O128 O 0.96616 0.53221 0.00111
 O129 O 0.96560 0.43539 -0.00362
 O130 O 1.03492 0.56679 0.00160
 H131 H 1.04947 0.52416 0.19575
 H132 H 0.94843 0.54269 0.00168
 H133 H 1.04986 0.52650 -0.19733
 H134 H 0.94766 0.40723 -0.00420
 H135 H 1.02001 0.61336 0.08728
 H136 H 1.02211 0.61549 -0.08370
 H137 H 1.00247 0.52931 -0.29898
 H138 H 0.98405 0.46624 -0.30135
 H139 H 1.01879 0.40730 -0.08863
 H140 H 1.02074 0.40714 0.08241
 H141 H 1.00228 0.47421 0.29701
 H142 H 0.98441 0.51925 0.29901
 O143 O 0.41715 0.47042 0.18041
 O144 O 0.42308 0.51935 0.08273
 C145 C 0.40749 0.49540 0.15337
 O146 O 0.58592 0.53267 0.16885
 O147 O 0.57658 0.48050 0.07969
 C148 C 0.59456 0.50670 0.14431
 O149 O 0.52888 0.58322 0.17643
 O150 O 0.47825 0.57505 0.08260
 C151 C 0.50290 0.59173 0.15130
 O152 O 0.46752 0.41342 0.17082
 O153 O 0.51955 0.42295 0.08096
 C154 C 0.49359 0.40497 0.14644
 Zr155 Zr 0.45717 0.45706 0.11875
 O156 O 0.45251 0.45004 0.26988
 O157 O 0.40279 0.40655 0.10545
 Zr158 Zr 0.54126 0.54179 0.11878
 O159 O 0.54533 0.54221 0.27084
 O160 O 0.59155 0.59658 0.11136
 O161 O 0.48208 0.51630 0.13795
 O162 O 0.51598 0.48303 0.13711
 O163 O 0.46747 0.41325 -0.17329
 O164 O 0.51944 0.42292 -0.08280
 C165 C 0.49348 0.40482 -0.14787
 O166 O 0.52911 0.58356 -0.18003
 O167 O 0.47845 0.57526 -0.08633
 C168 C 0.50326 0.59215 -0.15457
 O169 O 0.58592 0.53289 -0.17282
 O170 O 0.57667 0.48063 -0.08365
 C171 C 0.59459 0.50689 -0.14864
 O172 O 0.41668 0.46987 -0.18353
 O173 O 0.42297 0.51928 -0.08771
 C174 C 0.40709 0.49499 -0.15756
 Zr175 Zr 0.45710 0.45696 -0.12207
 O176 O 0.45263 0.45011 -0.27319
 O177 O 0.40279 0.40636 -0.10852
 Zr178 Zr 0.54115 0.54172 -0.12301
 O179 O 0.54464 0.54163 -0.27515
 O180 O 0.59151 0.59650 -0.11714
 Zr181 Zr 0.47009 0.52802 -0.00218
 Zr182 Zr 0.52837 0.47095 -0.00161
 O183 O 0.51591 0.48294 -0.14055
 O184 O 0.48195 0.51623 -0.14212
 O185 O 0.46833 0.43325 -0.00143
 O186 O 0.53012 0.56455 -0.00221
 O187 O 0.43392 0.46787 -0.00178
 O188 O 0.56525 0.53113 -0.00203
 H189 H 0.52456 0.47487 0.19492
 H190 H 0.54056 0.59275 -0.00214
 H191 H 0.52447 0.47471 -0.19815
 H192 H 0.40577 0.45763 -0.00174
 H193 H 0.61214 0.59311 0.08254
 H194 H 0.61184 0.59322 -0.08586
 H195 H 0.51943 0.53615 -0.30100
 H196 H 0.47489 0.47314 -0.30082
 H197 H 0.40722 0.38530 -0.08753
 H198 H 0.40718 0.38539 0.08544
 H199 H 0.47502 0.47280 0.29752
 H200 H 0.51984 0.53556 0.29701
 O201 O 0.52945 -0.05426 0.18009
 O202 O 0.48007 -0.09672 0.08330
 C203 C 0.50415 -0.08875 0.15330
 O204 O 0.46823 0.05351 0.17204
 O205 O 0.52045 0.09611 0.08261
 C206 C 0.49431 0.08802 0.14735
 O207 O 0.41714 -0.05405 0.17935
 O208 O 0.42465 -0.09658 0.08431
 C209 C 0.40825 -0.08858 0.15354
 O210 O 0.58701 0.05313 0.17139
 O211 O 0.57784 0.09606 0.08186
 C212 C 0.59567 0.08779 0.14713
 Zr213 Zr 0.54309 -0.00059 0.11914
 O214 O 0.55048 0.00120 0.27008
 O215 O 0.59327 -0.00495 0.10378
 Zr216 Zr 0.45884 -0.00027 0.12176
 O217 O 0.45923 0.00310 0.27394
 O218 O 0.40430 -0.00414 0.11678
 O219 O 0.48391 -0.03448 0.13952
 O220 O 0.51763 0.03271 0.13889
 O221 O 0.58699 0.05393 -0.17144
 O222 O 0.57750 0.09643 -0.08106
 C223 C 0.59550 0.08844 -0.14614
 O224 O 0.41793 -0.05314 -0.18104
 O225 O 0.42448 -0.09616 -0.08494
 C226 C 0.40848 -0.08779 -0.15455
 O227 O 0.46857 0.05438 -0.17132
 O228 O 0.52040 0.09663 -0.08057
 C229 C 0.49454 0.08884 -0.14604
 O230 O 0.53021 -0.05390 -0.18054
 O231 O 0.47990 -0.09649 -0.08610
 C232 C 0.50441 -0.08845 -0.15513
 Zr233 Zr 0.54243 -0.00016 -0.12225
 O234 O 0.54577 0.00376 -0.27437
 O235 O 0.59289 -0.00440 -0.11736
 Zr236 Zr 0.45822 0.00024 -0.11970
 O237 O 0.45295 0.00254 -0.27064
 O238 O 0.40394 -0.00357 -0.10448
 Zr239 Zr 0.47167 -0.05789 -0.00068
 Zr240 Zr 0.52956 0.05738 0.00023
 O241 O 0.51698 0.03324 -0.13885
 O242 O 0.48320 -0.03396 -0.14057
 O243 O 0.56672 0.03439 -0.00135
 O244 O 0.43547 -0.03395 0.00077
 O245 O 0.53170 -0.03438 -0.00179
 O246 O 0.46952 0.03480 0.00137
 H247 H 0.52600 0.04939 0.19667
 H248 H 0.40730 -0.05171 0.00086
 H249 H 0.52546 0.05014 -0.19636
 H250 H 0.54193 -0.05233 -0.00205
 H251 H 0.40765 0.01946 0.08512
 H252 H 0.40843 0.02216 -0.08589
 H253 H 0.47608 0.00376 -0.29894
 H254 H 0.52025 -0.01533 -0.29994
 H255 H 0.61320 0.01916 -0.08596
 H256 H 0.61460 0.02073 0.08520
 H257 H 0.52853 0.00231 0.29850
 H258 H 0.46545 -0.01623 0.29921
 C259 C 1.15074 0.48477 0.16463
 C260 C 1.18215 0.52099 0.21747
 C261 C 1.17545 0.49657 0.30861
 C262 C 1.14455 0.46038 0.25678
 C263 C 1.14481 0.50592 0.34432
 C264 C 1.15103 0.53025 0.25263
 C265 C 1.12013 0.49407 0.20089
 C266 C 1.11366 0.46974 0.29214
 H267 H 1.15277 0.47606 0.09002
 H268 H 1.21065 0.54213 0.18750
 H269 H 1.14212 0.43158 0.25883
 H270 H 1.14264 0.51467 0.41883
 H271 H 1.15320 0.55890 0.24994
 H272 H 1.08534 0.44859 0.32296
 C273 C 0.47725 0.64182 0.18367
 C274 C 0.46355 0.63620 0.28984
 C275 C 0.49877 0.67529 0.31502
 C276 C 0.51249 0.68140 0.20982
 C277 C 0.52239 0.65570 0.33842
 C278 C 0.48727 0.61638 0.31260
 C279 C 0.50100 0.62238 0.20742
 C280 C 0.53616 0.66146 0.23256
 H281 H 0.45869 0.63575 0.11929
 H282 H 0.43370 0.62616 0.31404
 H283 H 0.52281 0.70845 0.16820
 H284 H 0.54096 0.66163 0.40271
 H285 H 0.47693 0.58936 0.35439
 H286 H 0.56605 0.67152 0.20850
 C287 C 0.38279 -0.12975 0.31392
 C288 C 0.34359 -0.13360 0.33931
 C289 C 0.32372 -0.17670 0.31454
 C290 C 0.36268 -0.17317 0.28979
 C291 C 0.31817 -0.16826 0.20956
 C292 C 0.33838 -0.12478 0.23368
 C293 C 0.37733 -0.12121 0.20896
 C294 C 0.35762 -0.16427 0.18383
 H295 H 0.40964 -0.11360 0.35636
 H296 H 0.33757 -0.12120 0.40390
 H297 H 0.37227 -0.19346 0.31345
 H298 H 0.29129 -0.18448 0.16726
 H299 H 0.32873 -0.10451 0.21017
 H300 H 0.36378 -0.17652 0.11915
 C301 C 0.87577 0.53827 0.23544
 C302 C 0.83236 0.51525 0.21091
 C303 C 0.82380 0.50097 0.31565
 C304 C 0.86683 0.52395 0.34086
 C305 C 0.82721 0.46548 0.29025
 C306 C 0.83622 0.47973 0.18454
 C307 C 0.87923 0.50284 0.21004
 C308 C 0.87058 0.48855 0.31477
 H309 H 0.89610 0.56824 0.21246
 H310 H 0.81627 0.52616 0.16876
 H311 H 0.87917 0.54209 0.40593
 H312 H 0.80691 0.43554 0.31334
 H313 H 0.82397 0.46153 0.11955
 H314 H 0.88661 0.47760 0.35704
 C315 C 0.47082 0.35632 0.29412
 C316 C 0.46077 0.31583 0.25900
 C317 C 0.49690 0.32061 0.31008
 C318 C 0.50695 0.36086 0.34555
 C319 C 0.52103 0.33793 0.21844
 C320 C 0.48485 0.33362 0.16635
 C321 C 0.49485 0.37377 0.20234
 C322 C 0.53099 0.37858 0.25334
 H323 H 0.45010 0.36398 0.32546
 H324 H 0.43182 0.28975 0.26170
 H325 H 0.51606 0.37184 0.41989
 H326 H 0.54172 0.33005 0.18803
 H327 H 0.47577 0.32280 0.09191
 H328 H 0.55978 0.40477 0.25002
 C329 C 0.62139 0.15112 0.25426
 C330 C 0.63936 0.14500 0.34631
 C331 C 0.67936 0.17563 0.31060
 C332 C 0.66178 0.18223 0.21910
 C333 C 0.68471 0.14464 0.25942
 C334 C 0.64444 0.11375 0.29476
 C335 C 0.62674 0.12013 0.20314
 C336 C 0.66665 0.15072 0.16691
 H337 H 0.59497 0.15333 0.25121
 H338 H 0.62833 0.14291 0.42071
 H339 H 0.66919 0.21072 0.18870
 H340 H 0.71104 0.14220 0.26191
 H341 H 0.63720 0.08541 0.32597
 H342 H 0.67750 0.15268 0.09241
 C343 C 0.51095 0.12950 -0.30595
 C344 C 0.47572 0.13300 -0.33524
 C345 C 0.49856 0.17622 -0.31182
 C346 C 0.53391 0.17306 -0.28325
 C347 C 0.48373 0.16839 -0.20753
 C348 C 0.46086 0.12472 -0.23023
 C349 C 0.49611 0.12147 -0.20161
 C350 C 0.51909 0.16468 -0.17793
 H351 H 0.52216 0.11322 -0.34592
 H352 H 0.45794 0.12014 -0.40062
 H353 H 0.56401 0.19310 -0.30553
 H354 H 0.47261 0.18475 -0.16763
 H355 H 0.43081 0.10454 -0.20784
 H356 H 0.53685 0.17731 -0.11242
 C357 C 0.64377 0.53062 -0.29522
 C358 C 0.68406 0.54017 -0.25960
 C359 C 0.67908 0.50420 -0.31196
 C360 C 0.63909 0.49467 -0.34803
 C361 C 0.66144 0.47946 -0.22128
 C362 C 0.66588 0.51546 -0.16788
 C363 C 0.62595 0.50599 -0.20436
 C364 C 0.62102 0.47004 -0.25672
 H365 H 0.63640 0.55172 -0.32578
 H366 H 0.71022 0.56909 -0.26108
 H367 H 0.62826 0.48610 -0.42271
 H368 H 0.66900 0.45839 -0.19154
 H369 H 0.67650 0.52400 -0.09308
 H370 H 0.59473 0.44127 -0.25463
 C371 C 0.87552 0.33898 -0.23663
 C372 C 0.83209 0.31844 -0.21199
 C373 C 0.82351 0.32390 -0.31687
 C374 C 0.86653 0.34404 -0.34226
 C375 C 0.82671 0.36276 -0.29229
 C376 C 0.83581 0.35785 -0.18637
 C377 C 0.87883 0.37788 -0.21198
 C378 C 0.87010 0.38318 -0.31691
 H379 H 0.89596 0.32952 -0.21331
 H380 H 0.81612 0.29154 -0.16941
 H381 H 0.87901 0.33815 -0.40691
 H382 H 0.80629 0.37222 -0.31576
 H383 H 0.82353 0.36392 -0.12161
 H384 H 0.88598 0.41010 -0.35951
 C385 C 0.48825 -0.12979 -0.31519
 C386 C 0.52327 -0.13419 -0.34114
 C387 C 0.49980 -0.17719 -0.31520
 C388 C 0.46467 -0.17315 -0.29002
 C389 C 0.51410 -0.16868 -0.21061
 C390 C 0.53761 -0.12524 -0.23576
 C391 C 0.50256 -0.12114 -0.21057
 C392 C 0.47898 -0.16414 -0.18444
 H393 H 0.47766 -0.11350 -0.35769
 H394 H 0.54153 -0.12204 -0.40615
 H395 H 0.43464 -0.19315 -0.31274
 H396 H 0.52465 -0.18502 -0.16816
 H397 H 0.56762 -0.10515 -0.21300
 H398 H 0.46075 -0.17610 -0.11931
 C399 C 0.33527 0.48358 -0.17577
 C400 C 0.33781 0.52005 -0.22206
 C401 C 0.32140 0.49749 -0.31601
 C402 C 0.31835 0.46103 -0.27067
 C403 C 0.36207 0.51010 -0.35317
 C404 C 0.37894 0.53257 -0.25845
 C405 C 0.37588 0.49613 -0.21323
 C406 C 0.35931 0.47366 -0.30731
 H407 H 0.32467 0.47267 -0.10208
 H408 H 0.32866 0.53913 -0.18762
 H409 H 0.29319 0.43153 -0.27576
 H410 H 0.37289 0.52105 -0.42675
 H411 H 0.40427 0.56179 -0.25202
 H412 H 0.36832 0.45459 -0.34246
 C413 C 1.15179 0.62169 -0.25431
 C414 C 1.14562 0.64008 -0.34558
 C415 C 1.17646 0.67991 -0.30958
 C416 C 1.18318 0.66195 -0.21895
 C417 C 1.14583 0.68543 -0.25712
 C418 C 1.11471 0.64530 -0.29268
 C419 C 1.12114 0.62716 -0.20187
 C420 C 1.15198 0.66693 -0.16543
 H421 H 1.15378 0.59510 -0.25222
 H422 H 1.14321 0.62921 -0.42025
 H423 H 1.21165 0.66908 -0.18932
 H424 H 1.14355 0.71189 -0.25855
 H425 H 1.08640 0.63835 -0.32315
 H426 H 1.15418 0.67757 -0.09063
 C427 C 0.84678 0.46846 -0.25370
 C428 C 0.81825 0.48100 -0.21701
 C429 C 0.82407 0.50339 -0.31129
 C430 C 0.85211 0.49077 -0.34865
 C431 C 0.85747 0.53993 -0.26695
 C432 C 0.85214 0.51757 -0.17170
 C433 C 0.88012 0.50500 -0.20949
 C434 C 0.88577 0.52731 -0.30386
 H435 H 0.84300 0.43924 -0.24692
 H436 H 0.79012 0.46198 -0.18208
 H437 H 0.85174 0.47969 -0.42213
 H438 H 0.86157 0.56935 -0.27268
 H439 H 0.85265 0.52860 -0.09813
 H440 H 0.91373 0.54632 -0.33956
 C441 C 0.50952 0.37993 -0.30665
 C442 C 0.53260 0.35960 -0.28253
 C443 C 0.49732 0.32088 -0.30961
 C444 C 0.47432 0.34099 -0.33433
 C445 C 0.48268 0.31444 -0.20520
 C446 C 0.51801 0.35368 -0.17716
 C447 C 0.49489 0.37364 -0.20225
 C448 C 0.45964 0.33494 -0.22925
 H449 H 0.52056 0.40720 -0.34780
 H450 H 0.56262 0.36944 -0.30509
 H451 H 0.45644 0.33557 -0.39980
 H452 H 0.47173 0.28716 -0.16422
 H453 H 0.53592 0.35927 -0.11170
 H454 H 0.42963 0.32516 -0.20671
 C455 C 0.66528 0.12466 -0.22861
 C456 C 0.65894 0.13337 -0.33348
 C457 C 0.67883 0.17645 -0.30879
 C458 C 0.68556 0.16819 -0.20461
 C459 C 0.64009 0.17279 -0.28092
 C460 C 0.61999 0.12941 -0.30499
 C461 C 0.62658 0.12101 -0.20082
 C462 C 0.64631 0.16405 -0.17579
 H463 H 0.67526 0.10451 -0.20646
 H464 H 0.66432 0.12104 -0.39920
 H465 H 0.71287 0.18458 -0.16406
 H466 H 0.62994 0.19281 -0.30298
 H467 H 0.59269 0.11313 -0.34571
 H468 H 0.64077 0.17625 -0.11007
 C469 C 1.12889 0.51000 -0.30758
 C470 C 1.17224 0.53275 -0.28340
 C471 C 1.17532 0.49725 -0.31062
 C472 C 1.13226 0.47458 -0.33540
 C473 C 1.16694 0.48249 -0.20625
 C474 C 1.16339 0.51804 -0.17809
 C475 C 1.12037 0.49526 -0.20321
 C476 C 1.12344 0.45978 -0.23034
 H477 H 1.11293 0.52135 -0.34868
 H478 H 1.19262 0.56278 -0.30586
 H479 H 1.11975 0.45678 -0.40092
 H480 H 1.18301 0.47125 -0.16532
 H481 H 1.17578 0.53588 -0.11259
 H482 H 1.10301 0.42977 -0.20788
 C483 C 0.48725 0.61795 -0.31347
 C484 C 0.46434 0.63834 -0.28774
 C485 C 0.49979 0.67716 -0.31333
 C486 C 0.52261 0.65706 -0.33982
 C487 C 0.51433 0.68274 -0.20902
 C488 C 0.47885 0.64335 -0.18239
 C489 C 0.50176 0.62334 -0.20911
 C490 C 0.53717 0.66220 -0.23469
 H491 H 0.47609 0.59100 -0.35577
 H492 H 0.43441 0.62897 -0.31021
 H493 H 0.54063 0.66295 -0.40518
 H494 H 0.52538 0.70968 -0.16678
 H495 H 0.46084 0.63727 -0.11695
 H496 H 0.56713 0.67161 -0.21236
 C497 C 0.33884 -0.12336 -0.23541
 C498 C 0.34396 -0.13306 -0.34016
 C499 C 0.32361 -0.17597 -0.31290
 C500 C 0.31813 -0.16667 -0.20888
 C501 C 0.36230 -0.17284 -0.28694
 C502 C 0.38291 -0.12959 -0.31351
 C503 C 0.37750 -0.12021 -0.20951
 C504 C 0.35731 -0.16308 -0.18194
 H505 H 0.32960 -0.10260 -0.21373
 H506 H 0.33815 -0.12101 -0.40591
 H507 H 0.29118 -0.18234 -0.16658
 H508 H 0.37155 -0.19358 -0.30864
 H509 H 0.40984 -0.11400 -0.35593
 H510 H 0.36322 -0.17502 -0.11611
 C511 C 0.48758 -0.12996 0.31327
 C512 C 0.46426 -0.17331 0.28853
 C513 C 0.49943 -0.17710 0.31476
 C514 C 0.52266 -0.13409 0.34017
 C515 C 0.51397 -0.16861 0.21038
 C516 C 0.47878 -0.16434 0.18314
 C517 C 0.50213 -0.12136 0.20891
 C518 C 0.53724 -0.12519 0.23507
 H519 H 0.47678 -0.11371 0.35496
 H520 H 0.43427 -0.19352 0.31112
 H521 H 0.54072 -0.12193 0.40543
 H522 H 0.52472 -0.18493 0.16884
 H523 H 0.46074 -0.17634 0.11777
 H524 H 0.56727 -0.10498 0.21256
 C525 C 0.35629 0.51948 0.18228
 C526 C 0.31734 0.48386 0.21058
 C527 C 0.32332 0.49890 0.31442
 C528 C 0.36179 0.53449 0.28713
 C529 C 0.34394 0.47656 0.34098
 C530 C 0.33832 0.46147 0.23641
 C531 C 0.37677 0.49701 0.20914
 C532 C 0.38268 0.51206 0.31298
 H533 H 0.36180 0.53715 0.11628
 H534 H 0.29015 0.47236 0.16920
 H535 H 0.37100 0.56450 0.30859
 H536 H 0.33859 0.45896 0.40709
 H537 H 0.32907 0.43144 0.21500
 H538 H 0.40984 0.52361 0.35450
 C539 C 1.12850 0.61878 0.30790
 C540 C 1.17196 0.63887 0.28519
 C541 C 1.17552 0.67766 0.31238
 C542 C 1.13236 0.65779 0.33569
 C543 C 1.16789 0.68447 0.20769
 C544 C 1.16385 0.64515 0.17954
 C545 C 1.12072 0.62543 0.20320
 C546 C 1.12430 0.66421 0.23032
 H547 H 1.11199 0.59143 0.34852
 H548 H 1.19189 0.62877 0.30848
 H549 H 1.11970 0.66319 0.40075
 H550 H 1.18452 0.71182 0.16723
 H551 H 1.17639 0.63959 0.11451
 H552 H 1.10434 0.67428 0.20709
 C553 C 0.51846 0.16356 0.17810
 C554 C 0.48298 0.16711 0.20685
 C555 C 0.49763 0.17500 0.31125
 C556 C 0.53305 0.17194 0.28349
 C557 C 0.47485 0.13180 0.33505
 C558 C 0.46016 0.12348 0.22997
 C559 C 0.49555 0.12039 0.20228
 C560 C 0.51018 0.12843 0.30669
 H561 H 0.53633 0.17619 0.11272
 H562 H 0.47188 0.18347 0.16662
 H563 H 0.56302 0.19217 0.30621
 H564 H 0.45697 0.11901 0.40037
 H565 H 0.43019 0.10319 0.20728
 H566 H 0.52139 0.11219 0.34713
 C567 C 0.66418 0.54079 0.22753
 C568 C 0.65768 0.52609 0.33272
 C569 C 0.67789 0.50307 0.30954
 C570 C 0.68478 0.51773 0.20503
 C571 C 0.63936 0.46775 0.28166
 C572 C 0.61893 0.49084 0.30423
 C573 C 0.62567 0.50549 0.19970
 C574 C 0.64571 0.48234 0.17617
 H575 H 0.67404 0.57083 0.20461
 H576 H 0.66279 0.54398 0.39796
 H577 H 0.71221 0.52870 0.16499
 H578 H 0.62951 0.43772 0.30467
 H579 H 0.59152 0.47975 0.34446
 H580 H 0.64045 0.46442 0.11094
 C581 C 0.87037 0.38341 0.31137
 C582 C 0.82703 0.36293 0.28665
 C583 C 0.82384 0.32418 0.31297
 C584 C 0.86684 0.34442 0.33835
 C585 C 0.83240 0.31826 0.20860
 C586 C 0.83607 0.35751 0.18125
 C587 C 0.87904 0.37758 0.20702
 C588 C 0.87580 0.33885 0.23328
 H589 H 0.88633 0.41050 0.35301
 H590 H 0.80659 0.37243 0.30921
 H591 H 0.87923 0.33874 0.40363
 H592 H 0.81637 0.29114 0.16711
 H593 H 0.82386 0.36333 0.11586
 H594 H 0.89627 0.32935 0.21079
   
