data_POSCAR
  _audit_creation_date              2014-09-24
  _audit_creation_method            'ToBaCCo'
  _symmetry_space_group_name_H-M    'P1'
  _symmetry_Int_Tables_number       1
  _symmetry_cell_setting            triclinic
  loop_
  _symmetry_equiv_pos_as_xyz
 x,y,z
_cell_length_a 44.3959
_cell_length_b 44.4899
_cell_length_c 44.3099
_cell_angle_alpha 92.284400
_cell_angle_beta 87.172800
_cell_angle_gamma 87.126100
loop_
  _atom_site_label
  _atom_site_type_symbol
  _atom_site_fract_x
  _atom_site_fract_y
  _atom_site_fract_z
C1 C 0.20231 0.53995 1.02795
 H2 H 0.20225 0.55708 1.01130
 C3 C 0.17978 0.54097 1.05118
 H4 H 0.16241 0.55905 1.05247
 C5 C 0.22387 0.49439 1.04544
 H6 H 0.24041 0.47573 1.04252
 C7 C 0.20176 0.49454 1.06901
 H8 H 0.20162 0.47612 1.08429
 N9 N 0.22358 0.51676 1.02535
 C10 C 0.29491 0.54734 0.96452
 H11 H 0.29505 0.52973 0.94695
 C12 C 0.31666 0.56890 0.96338
 H13 H 0.33351 0.56801 0.94478
 C14 C 0.27396 0.56889 1.01123
 H15 H 0.25790 0.56817 1.03029
 C16 C 0.29540 0.59088 1.01099
 H17 H 0.29564 0.60722 1.02975
 Zn18 Zn 0.24971 0.51415 0.99019
 N19 N 0.27431 0.54754 0.98830
 C20 C 0.22376 0.53414 0.93639
 N21 N 0.22467 0.51223 0.95698
 C22 C 0.20524 0.48954 0.95641
 C23 C 0.18356 0.48843 0.93471
 C24 C 0.20233 0.53389 0.91429
 C25 C 0.29619 0.47939 1.01287
 C26 C 0.31822 0.45603 1.01378
 C27 C 0.29925 0.43356 0.96839
 C28 C 0.27745 0.45741 0.96834
 N29 N 0.27636 0.47967 0.99043
 H30 H 0.23887 0.55239 0.93773
 H31 H 0.20607 0.47280 0.97344
 H32 H 0.16772 0.47068 0.93490
 H33 H 0.20116 0.55181 0.89847
 H34 H 0.29514 0.49766 1.02980
 H35 H 0.33415 0.45623 1.03153
 H36 H 0.30037 0.41614 0.95052
 H37 H 0.26196 0.45844 0.95032
 C38 C 0.31718 0.59060 0.98702
 C39 C 0.17926 0.51782 1.07165
 C40 C 0.31989 0.43302 0.99126
 C41 C 0.18185 0.51099 0.91369
 C42 C 0.79578 0.51180 -0.02197
 H43 H 0.79445 0.52854 -0.00349
 C44 C 0.81825 0.51275 -0.04499
 H45 H 0.83423 0.53037 -0.04436
 C46 C 0.77746 0.46753 -0.04463
 H47 H 0.76205 0.44951 -0.04392
 C48 C 0.79970 0.46763 -0.06812
 H49 H 0.80118 0.44984 -0.08563
 N50 N 0.77601 0.48941 -0.02214
 C51 C 0.70192 0.52472 0.03946
 H52 H 0.70204 0.50741 0.05593
 C53 C 0.67944 0.54792 0.04164
 H54 H 0.66227 0.54860 0.05994
 C55 C 0.72309 0.54405 -0.00553
 H56 H 0.73953 0.54191 -0.02439
 C57 C 0.70098 0.56763 -0.00419
 H58 H 0.70066 0.58376 -0.02187
 Zn59 Zn 0.74932 0.48823 0.01230
 N60 N 0.72303 0.52310 0.01604
 C61 C 0.77355 0.50778 0.06772
 N62 N 0.77393 0.48545 0.04575
 C63 C 0.79461 0.46178 0.04494
 C64 C 0.81644 0.46016 0.06649
 C65 C 0.79507 0.50704 0.08972
 C66 C 0.70507 0.45518 -0.01348
 C67 C 0.68346 0.43357 -0.01528
 C68 C 0.70225 0.41196 0.02978
 C69 C 0.72361 0.43399 0.03072
 N70 N 0.72446 0.45513 0.00935
 H71 H 0.75743 0.52678 0.06748
 H72 H 0.79477 0.44472 0.02683
 H73 H 0.83339 0.44170 0.06511
 H74 H 0.79530 0.52535 0.10656
 H75 H 0.70586 0.47263 -0.02978
 H76 H 0.66761 0.43426 -0.03310
 H77 H 0.70109 0.39570 0.04731
 H78 H 0.73869 0.43484 0.04911
 C79 C 0.67877 0.56935 0.01942
 C80 C 0.82041 0.49033 -0.06811
 C81 C 0.68179 0.41200 0.00675
 C82 C 0.81694 0.48321 0.08881
 C83 C -0.03885 0.29577 0.45756
 H84 H -0.05609 0.29603 0.47571
 C85 C -0.04029 0.31742 0.43566
 H86 H -0.05883 0.33430 0.43689
 C87 C 0.00739 0.27461 0.43497
 H88 H 0.02641 0.25853 0.43540
 C89 C 0.00685 0.29592 0.41262
 H90 H 0.02537 0.29595 0.39574
 N91 N -0.01514 0.27513 0.45700
 C92 C -0.04548 0.20651 0.51725
 H93 H -0.02788 0.20733 0.53326
 C94 C -0.06716 0.18500 0.51968
 H95 H -0.06637 0.16927 0.53771
 C96 C -0.06702 0.22492 0.47318
 H97 H -0.06630 0.23995 0.45462
 C98 C -0.08914 0.20364 0.47476
 H99 H -0.10559 0.20247 0.45754
 Zn100 Zn -0.01252 0.25064 0.49073
 N101 N -0.04569 0.22581 0.49421
 C102 C -0.03344 0.27846 0.54761
 N103 N -0.01146 0.27720 0.52499
 C104 C 0.01099 0.29691 0.52467
 C105 C 0.01193 0.31910 0.54771
 C106 C -0.03337 0.30039 0.57112
 C107 C 0.02405 0.20334 0.46382
 C108 C 0.04731 0.18093 0.46164
 C109 C 0.06705 0.20242 0.50708
 C110 C 0.04341 0.22448 0.50842
 N111 N 0.02242 0.22441 0.48703
 H112 H -0.05152 0.26311 0.54703
 H113 H 0.02783 0.29574 0.50610
 H114 H 0.02960 0.33503 0.54697
 H115 H -0.05124 0.30170 0.58874
 H116 H 0.00670 0.20346 0.44750
 H117 H 0.04800 0.16380 0.44350
 H118 H 0.08323 0.20210 0.52461
 H119 H 0.04127 0.24089 0.52713
 C120 C -0.08897 0.18332 0.49807
 C121 C -0.01701 0.31778 0.41324
 C122 C 0.06879 0.18028 0.48366
 C123 C -0.01059 0.32101 0.57100
 C124 C 0.98723 0.70519 0.54048
 H125 H 0.97104 0.70621 0.52303
 C126 C 0.98499 0.68376 0.56248
 H127 H 0.96691 0.66829 0.56211
 C128 C 1.03153 0.72308 0.56132
 H129 H 1.05008 0.73788 0.56021
 C130 C 1.03015 0.70186 0.58376
 H131 H 1.04750 0.70052 0.60007
 N132 N 1.01028 0.72421 0.54019
 C133 C 0.97937 0.79572 0.48317
 H134 H 0.99788 0.79440 0.46627
 C135 C 0.95631 0.81804 0.48203
 H136 H 0.95696 0.83393 0.46414
 C137 C 0.95657 0.77740 0.52790
 H138 H 0.95720 0.76201 0.54613
 C139 C 0.93302 0.79948 0.52763
 H140 H 0.91541 0.80089 0.54552
 Zn141 Zn 1.01334 0.74905 0.50673
 N142 N 0.97912 0.77598 0.50583
 C143 C 0.99459 0.72333 0.45140
 N144 N 1.01648 0.72291 0.47187
 C145 C 1.03956 0.70151 0.46988
 C146 C 1.04098 0.67901 0.44689
 C147 C 0.99518 0.70124 0.42804
 C148 C 1.04663 0.79385 0.53223
 C149 C 1.06818 0.81561 0.53299
 C150 C 1.09059 0.79418 0.48562
 C151 C 1.06861 0.77274 0.48575
 N152 N 1.04701 0.77323 0.50869
 H153 H 0.97599 0.73999 0.45384
 H154 H 1.05628 0.70135 0.48684
 H155 H 1.05892 0.66152 0.44602
 H156 H 0.97716 0.70113 0.41242
 H157 H 1.02880 0.79411 0.54979
 H158 H 1.06707 0.83258 0.55129
 H159 H 1.10705 0.79439 0.46676
 H160 H 1.06801 0.75668 0.46687
 C161 C 0.93305 0.82007 0.50457
 C162 C 1.00680 0.68185 0.58411
 C163 C 1.09004 0.81608 0.50923
 C164 C 1.01836 0.67866 0.42603
 C165 C 0.47840 -0.01176 0.29646
 H166 H 0.49671 -0.02882 0.29549
 C167 C 0.45525 -0.01220 0.31886
 H168 H 0.45560 -0.02974 0.33513
 C169 C 0.45626 0.03274 0.27727
 H170 H 0.45721 0.05064 0.26152
 C171 C 0.43265 0.03316 0.29940
 H172 H 0.41528 0.05122 0.30048
 N173 N 0.47853 0.01048 0.27628
 C174 C 0.53972 -0.02648 0.20263
 H175 H 0.55638 -0.00955 0.20247
 C176 C 0.54165 -0.04982 0.18050
 H177 H 0.55997 -0.05093 0.16332
 C178 C 0.49453 -0.04469 0.22419
 H179 H 0.47571 -0.04205 0.24064
 C180 C 0.49558 -0.06840 0.20243
 H181 H 0.47768 -0.08410 0.20245
 Zn182 Zn 0.51301 0.01080 0.24955
 N183 N 0.51633 -0.02423 0.22376
 C184 C 0.56816 -0.00975 0.27404
 N185 N 0.54643 0.01297 0.27415
 C186 C 0.54589 0.03671 0.29454
 C187 C 0.56748 0.03800 0.31631
 C188 C 0.59020 -0.00935 0.29552
 C189 C 0.48772 0.04415 0.20465
 C190 C 0.48612 0.06579 0.18278
 C191 C 0.53125 0.08661 0.20145
 C192 C 0.53199 0.06456 0.22307
 N193 N 0.51047 0.04381 0.22412
 H194 H 0.56770 -0.02878 0.25818
 H195 H 0.52797 0.05411 0.29449
 H196 H 0.56632 0.05654 0.33302
 H197 H 0.60685 -0.02796 0.29597
 H198 H 0.47130 0.02701 0.20562
 H199 H 0.46832 0.06544 0.16692
 H200 H 0.54886 0.10258 0.20017
 H201 H 0.55031 0.06341 0.23822
 C202 C 0.51917 -0.07077 0.18017
 C203 C 0.43231 0.01058 0.32050
 C204 C 0.50826 0.08699 0.18095
 C205 C 0.58957 0.01456 0.31708
 C206 C 0.52416 -0.03858 0.70231
 H207 H 0.50717 -0.05518 0.70262
 C208 C 0.54745 -0.04059 0.67985
 H209 H 0.54851 -0.05886 0.66286
 C210 C 0.54266 0.00647 0.72306
 H211 H 0.54019 0.02526 0.73934
 C212 C 0.56631 0.00530 0.70097
 H213 H 0.58215 0.02305 0.70050
 N214 N 0.52211 -0.01525 0.72325
 C215 C 0.46251 -0.04504 0.79606
 H216 H 0.44485 -0.02736 0.79637
 C217 C 0.46203 -0.06655 0.81814
 H218 H 0.44386 -0.06554 0.83546
 C219 C 0.50889 -0.06676 0.77435
 H220 H 0.52761 -0.06612 0.75790
 C221 C 0.50930 -0.08869 0.79608
 H222 H 0.52821 -0.10505 0.79614
 Zn223 Zn 0.48738 -0.01198 0.74990
 N224 N 0.48585 -0.04534 0.77494
 C225 C 0.43329 -0.03130 0.72483
 N226 N 0.45386 -0.00962 0.72530
 C227 C 0.45317 0.01303 0.70557
 C228 C 0.43141 0.01427 0.68394
 C229 C 0.41112 -0.03091 0.70346
 C230 C 0.51095 0.02245 0.79561
 C231 C 0.51230 0.04577 0.81738
 C232 C 0.46671 0.06887 0.79890
 C233 C 0.46624 0.04506 0.77734
 N234 N 0.48821 0.02249 0.77613
 H235 H 0.43473 -0.04952 0.74019
 H236 H 0.47021 0.02957 0.70605
 H237 H 0.43155 0.03194 0.66780
 H238 H 0.39536 -0.04870 0.70258
 H239 H 0.52778 0.00394 0.79447
 H240 H 0.53028 0.04530 0.83304
 H241 H 0.44893 0.08653 0.80014
 H242 H 0.44797 0.04428 0.76214
 C243 C 0.48587 -0.08828 0.81843
 C244 C 0.56852 -0.01828 0.67900
 C245 C 0.48990 0.06908 0.81919
 C246 C 0.41046 -0.00811 0.68261
 C247 C 0.21823 -0.02701 0.50084
 C248 C 0.23258 0.00017 0.49823
 C249 C 0.21550 0.02686 0.49390
 C250 C 0.18400 0.02664 0.49239
 C251 C 0.16989 -0.00082 0.49473
 C252 C 0.18683 -0.02781 0.49871
 C253 C 0.26562 0.00056 0.49918
 C254 C 0.28311 0.00479 0.47265
 C255 C 0.31469 0.00481 0.47311
 C256 C 0.32851 0.00100 0.50066
 C257 C 0.31119 -0.00304 0.52749
 C258 C 0.27965 -0.00343 0.52648
 H259 H 0.23170 -0.04763 0.50357
 H260 H 0.22684 0.04772 0.49159
 H261 H 0.27204 0.00801 0.45167
 H262 H 0.26596 -0.00687 0.54687
 H263 H 0.14554 -0.00111 0.49418
 H264 H 0.35287 0.00115 0.50123
 C265 C 0.78464 -0.02710 0.50223
 C266 C 0.76700 -0.00019 0.50105
 C267 C 0.78084 0.02743 0.50051
 C268 C 0.81233 0.02837 0.50159
 C269 C 0.82981 0.00122 0.50238
 C270 C 0.81622 -0.02663 0.50246
 C271 C 0.73398 -0.00095 0.50035
 C272 C 0.71674 -0.00616 0.52678
 C273 C 0.68516 -0.00668 0.52641
 C274 C 0.67113 -0.00227 0.49906
 C275 C 0.68822 0.00280 0.47235
 C276 C 0.71974 0.00358 0.47326
 H277 H 0.77376 -0.04837 0.50215
 H278 H 0.76698 0.04814 0.49999
 H279 H 0.72799 -0.00983 0.54758
 H280 H 0.73324 0.00781 0.45297
 H281 H 0.85415 0.00177 0.50287
 H282 H 0.64679 -0.00273 0.49856
 C283 C 0.52674 0.28100 1.00080
 C284 C 0.49946 0.26687 0.99782
 C285 C 0.47250 0.28424 0.99560
 C286 C 0.47258 0.31584 0.99682
 C287 C 0.50013 0.32971 0.99948
 C288 C 0.52732 0.31252 1.00151
 C289 C 0.49911 0.23386 0.99819
 C290 C 0.50227 0.21942 1.02548
 C291 C 0.50289 0.18789 1.02609
 C292 C 0.50063 0.17099 0.99891
 C293 C 0.49778 0.18517 0.97134
 C294 C 0.49663 0.21678 0.97123
 H295 H 0.54741 0.26738 1.00290
 H296 H 0.45143 0.27314 0.99393
 H297 H 0.50453 0.23280 1.04615
 H298 H 0.49479 0.22810 0.95015
 H299 H 0.50048 0.35404 0.99941
 H300 H 0.50049 0.14666 0.99929
 C301 C 0.52633 0.71696 0.00852
 C302 C 0.50007 0.73438 0.00327
 C303 C 0.47308 0.72031 -0.00162
 C304 C 0.47209 0.68883 -0.00107
 C305 C 0.49866 0.67159 0.00396
 C306 C 0.52593 0.68543 0.00862
 C307 C 0.50100 0.76739 0.00277
 C308 C 0.49753 0.78201 -0.02439
 C309 C 0.49969 0.81335 -0.02533
 C310 C 0.50447 0.82995 0.00151
 C311 C 0.50764 0.81560 0.02895
 C312 C 0.50616 0.78417 0.02929
 H313 H 0.54706 0.72803 0.01241
 H314 H 0.45292 0.73392 -0.00585
 H315 H 0.49416 0.76880 -0.04492
 H316 H 0.50909 0.77266 0.05013
 H317 H 0.49812 0.64729 0.00418
 H318 H 0.50502 0.85425 0.00116
 C319 C 1.00491 0.52386 0.28325
 C320 C 1.00049 0.49733 0.26626
 C321 C 0.99568 0.47053 0.28096
 C322 C 0.99544 0.46998 0.31262
 C323 C 0.99959 0.49678 0.32941
 C324 C 1.00403 0.52390 0.31498
 C325 C 0.99998 0.49777 0.23310
 C326 C 1.02649 0.50224 0.21569
 C327 C 1.02629 0.50171 0.18398
 C328 C 0.99897 0.49756 0.17001
 C329 C 0.97218 0.49339 0.18723
 C330 C 0.97298 0.49325 0.21885
 H331 H 1.00794 0.54462 0.27173
 H332 H 0.99197 0.45018 0.26768
 H333 H 1.04738 0.50515 0.22687
 H334 H 0.95263 0.48960 0.23246
 H335 H 0.99997 0.49643 0.35382
 H336 H 0.99842 0.49825 0.14563
 C337 C 0.00191 0.52844 0.71866
 C338 C -0.00019 0.50141 0.73365
 C339 C -0.00387 0.47445 0.71711
 C340 C -0.00530 0.47425 0.68553
 C341 C -0.00346 0.50153 0.67079
 C342 C -0.00014 0.52878 0.68716
 C343 C 0.00039 0.50147 0.76681
 C344 C -0.02621 0.49733 0.78414
 C345 C -0.02610 0.49756 0.81582
 C346 C 0.00117 0.50159 0.82990
 C347 C 0.02807 0.50557 0.81275
 C348 C 0.02742 0.50568 0.78110
 H349 H 0.00413 0.54928 0.73170
 H350 H -0.00580 0.45370 0.72892
 H351 H -0.04696 0.49390 0.77287
 H352 H 0.04787 0.50903 0.76753
 H353 H -0.00396 0.50149 0.64637
 H354 H 0.00147 0.50163 0.85433
 C355 C 0.12894 0.10791 0.48441
 C356 C 0.15347 0.10782 0.50309
 C357 C 0.17179 0.08155 0.50524
 C358 C 0.09102 0.15559 0.48349
 C359 C 0.14132 0.05552 0.46967
 C360 C 0.12308 0.08179 0.46752
 C361 C 0.10877 0.13419 0.48372
 C362 C 0.16569 0.05501 0.48881
 H363 H 0.15808 0.12786 0.51641
 H364 H 0.19017 0.08176 0.52041
 H365 H 0.13632 0.03556 0.45643
 H366 H 0.10413 0.08160 0.45302
 C367 C 0.60649 0.62964 0.01822
 C368 C 0.60751 0.65509 0.00070
 C369 C 0.58146 0.67363 -0.00191
 C370 C 0.65404 0.59155 0.01958
 C371 C 0.55337 0.64153 0.03093
 C372 C 0.57944 0.62307 0.03353
 C373 C 0.63266 0.60933 0.01923
 C374 C 0.55400 0.66684 0.01290
 H375 H 0.62828 0.66028 -0.01141
 H376 H 0.58257 0.69275 -0.01623
 H377 H 0.53268 0.63596 0.04291
 H378 H 0.57839 0.60340 0.04713
 C379 C 0.87251 -0.10801 0.50321
 C380 C 0.88047 -0.08485 0.48441
 C381 C 0.86197 -0.05859 0.48395
 C382 C 0.91044 -0.15559 0.50472
 C383 C 0.82709 -0.07865 0.52087
 C384 C 0.84571 -0.10496 0.52134
 C385 C 0.89255 -0.13433 0.50431
 C386 C 0.83520 -0.05506 0.50236
 H387 H 0.90114 -0.08700 0.47025
 H388 H 0.86857 -0.04104 0.46911
 H389 H 0.80673 -0.07645 0.53546
 H390 H 0.83940 -0.12272 0.53606
 C391 C 0.39111 0.37176 0.99359
 C392 C 0.41284 0.37876 1.01420
 C393 C 0.43908 0.36033 1.01545
 C394 C 0.34388 0.41002 0.99109
 C395 C 0.42183 0.32735 0.97573
 C396 C 0.39553 0.34592 0.97446
 C397 C 0.36493 0.39190 0.99178
 C398 C 0.44403 0.33458 0.99604
 H399 H 0.40963 0.39866 1.02915
 H400 H 0.45551 0.36620 1.03167
 H401 H 0.42515 0.30777 0.96038
 H402 H 0.37888 0.34036 0.95835
 C403 C 0.85761 0.11148 0.50125
 C404 C 0.86587 0.08910 0.52101
 C405 C 0.85077 0.06234 0.52146
 C406 C 0.89060 0.15923 0.49875
 C407 C 0.81852 0.08041 0.48273
 C408 C 0.83376 0.10721 0.48226
 C409 C 0.87482 0.13798 0.49969
 C410 C 0.82717 0.05753 0.50208
 H411 H 0.88429 0.09216 0.53580
 H412 H 0.85760 0.04534 0.53693
 H413 H 0.80059 0.07721 0.46740
 H414 H 0.82729 0.12433 0.46676
 C415 C 0.38980 0.64318 -0.01046
 C416 C 0.38959 0.67023 0.00683
 C417 C 0.41621 0.68553 0.00932
 C418 C 0.34165 0.61060 -0.01216
 C419 C 0.44317 0.64697 -0.02318
 C420 C 0.41657 0.63178 -0.02568
 C421 C 0.36314 0.62611 -0.01143
 C422 C 0.44339 0.67382 -0.00534
 H423 H 0.36903 0.67918 0.01884
 H424 H 0.41576 0.70599 0.02344
 H425 H 0.46363 0.63764 -0.03506
 H426 H 0.41699 0.61085 -0.03911
 C427 C 0.14159 -0.11081 0.50351
 C428 C 0.16470 -0.10501 0.52299
 C429 C 0.17971 -0.07814 0.52129
 C430 C 0.10972 -0.15924 0.50765
 C431 C 0.14863 -0.06300 0.48049
 C432 C 0.13373 -0.08983 0.48218
 C433 C 0.12491 -0.13760 0.50597
 C434 C 0.17163 -0.05673 0.50017
 H435 H 0.17084 -0.12103 0.53970
 H436 H 0.19715 -0.07382 0.53691
 H437 H 0.14223 -0.04718 0.46368
 H438 H 0.11587 -0.09409 0.46701
 C439 C 0.60972 0.35863 1.00715
 C440 C 0.60904 0.33237 0.98875
 C441 C 0.58241 0.31691 0.98739
 C442 C 0.65754 0.39173 1.00693
 C443 C 0.55729 0.35372 1.02319
 C444 C 0.58389 0.36907 1.02456
 C445 C 0.63622 0.37597 1.00706
 C446 C 0.55614 0.32768 1.00429
 H447 H 0.62886 0.32420 0.97504
 H448 H 0.58211 0.29707 0.97245
 H449 H 0.53756 0.36229 1.03679
 H450 H 0.58417 0.38938 1.03886
 C451 C 0.50874 0.14090 1.10861
 C452 C 0.52597 0.13045 1.08267
 C453 C 0.52454 0.14609 1.05603
 C454 C 0.50853 0.10739 1.15655
 C455 C 0.48908 0.18318 1.08134
 C456 C 0.49049 0.16744 1.10800
 C457 C 0.50868 0.12330 1.13516
 C458 C 0.50578 0.17242 1.05495
 H459 H 0.54014 0.10992 1.08289
 H460 H 0.53799 0.13750 1.03620
 H461 H 0.47424 0.20323 1.08109
 H462 H 0.47693 0.17562 1.12791
 C463 C 0.00300 0.61068 0.63912
 C464 C -0.01803 0.58942 0.63216
 C465 C -0.01926 0.56303 0.64806
 C466 C 0.00612 0.65795 0.60502
 C467 C 0.02136 0.57919 0.67847
 C468 C 0.02259 0.60564 0.66243
 C469 C 0.00502 0.63690 0.62127
 C470 C 0.00062 0.55745 0.67119
 H471 H -0.03331 0.59310 0.61417
 H472 H -0.03579 0.54695 0.64228
 H473 H 0.03708 0.57540 0.69602
 H474 H 0.03907 0.62190 0.66790
 C475 C 0.49277 0.85958 -0.10829
 C476 C 0.47339 0.83655 -0.10179
 C477 C 0.47578 0.82119 -0.07497
 C478 C 0.48770 0.89193 -0.15673
 C479 C 0.51708 0.85176 -0.06125
 C480 C 0.51469 0.86701 -0.08803
 C481 C 0.48973 0.87655 -0.13506
 C482 C 0.49750 0.82884 -0.05427
 H483 H 0.45623 0.83072 -0.11725
 H484 H 0.46024 0.80381 -0.07009
 H485 H 0.53434 0.85784 -0.04602
 H486 H 0.52982 0.88479 -0.09283
 C487 C 0.98554 0.38844 0.36016
 C488 C 1.00340 0.38801 0.33319
 C489 C 1.00611 0.41438 0.31729
 C490 C 0.98364 0.34082 0.39391
 C491 C 0.97270 0.44153 0.35508
 C492 C 0.96998 0.41517 0.37088
 C493 C 0.98439 0.36208 0.37789
 C494 C 0.99110 0.44152 0.32831
 H495 H 1.01570 0.36748 0.32480
 H496 H 1.02066 0.41376 0.29690
 H497 H 0.96053 0.46197 0.36388
 H498 H 0.95612 0.41577 0.39174
 C499 C 0.51749 0.87016 0.10975
 C500 C 0.53380 0.87605 0.08299
 C501 C 0.53112 0.85791 0.05689
 C502 C 0.51905 0.90817 0.15701
 C503 C 0.49623 0.82744 0.08438
 C504 C 0.49892 0.84566 0.11048
 C505 C 0.51857 0.89035 0.13583
 C506 C 0.51200 0.83363 0.05718
 H507 H 0.54821 0.89498 0.08217
 H508 H 0.54386 0.86298 0.03641
 H509 H 0.48110 0.80911 0.08522
 H510 H 0.48604 0.84103 0.13103
 C511 C -0.01151 0.39268 0.63146
 C512 C -0.02910 0.41851 0.62542
 C513 C -0.02760 0.44483 0.64342
 C514 C -0.01117 0.34531 0.59347
 C515 C 0.00866 0.41940 0.67411
 C516 C 0.00716 0.39308 0.65601
 C517 C -0.01145 0.36649 0.61133
 C518 C -0.00839 0.44570 0.66773
 H519 H -0.04361 0.41847 0.60646
 H520 H -0.04131 0.46459 0.63823
 H521 H 0.02386 0.41948 0.69249
 H522 H 0.02102 0.37325 0.66077
 C523 C 0.49346 0.12998 0.88999
 C524 C 0.47447 0.15603 0.89456
 C525 C 0.47612 0.17439 0.92080
 C526 C 0.49015 0.09201 0.84300
 C527 C 0.51594 0.14077 0.93768
 C528 C 0.51431 0.12256 0.91150
 C529 C 0.49121 0.11001 0.86393
 C530 C 0.49666 0.16672 0.94280
 H531 H 0.45817 0.16193 0.87809
 H532 H 0.46087 0.19413 0.92425
 H533 H 0.53232 0.13455 0.95396
 H534 H 0.52915 0.10248 0.90817
 C535 C 1.01252 0.60535 0.36873
 C536 C 1.03109 0.59949 0.34247
 C537 C 1.02827 0.57309 0.32476
 C538 C 1.01729 0.65364 0.40457
 C539 C 0.98823 0.55854 0.35952
 C540 C 0.99105 0.58488 0.37710
 C541 C 1.01557 0.63197 0.38765
 C542 C 1.00692 0.55223 0.33323
 H543 H 1.04785 0.61516 0.33582
 H544 H 1.04313 0.56873 0.30477
 H545 H 0.97125 0.54319 0.36636
 H546 H 0.97651 0.58922 0.39734
 C547 C 1.10745 0.51112 0.12883
 C548 C 1.08689 0.48977 0.12074
 C549 C 1.06066 0.48664 0.13879
 C550 C 1.15556 0.51647 0.09220
 C551 C 1.07551 0.52609 0.17346
 C552 C 1.10179 0.52923 0.15528
 C553 C 1.13396 0.51449 0.10947
 C554 C 1.05455 0.50488 0.16527
 H555 H 1.09108 0.47558 0.10036
 H556 H 1.04524 0.46977 0.13214
 H557 H 1.07129 0.54061 0.19358
 H558 H 1.11753 0.54589 0.16172
 C559 C 0.62935 -0.01682 0.60701
 C560 C 0.62326 -0.03231 0.58007
 C561 C 0.64180 -0.02956 0.55402
 C562 C 0.59090 -0.01836 0.65437
 C563 C 0.67303 0.00374 0.58192
 C564 C 0.65442 0.00099 0.60797
 C565 C 0.60886 -0.01793 0.63310
 C566 C 0.66667 -0.01120 0.55455
 H567 H 0.60390 -0.04614 0.57908
 H568 H 0.63658 -0.04166 0.53340
 H569 H 0.69182 0.01829 0.58295
 H570 H 0.65923 0.01323 0.62866
 C571 C -0.10733 0.49012 0.87129
 C572 C -0.08067 0.47429 0.87815
 C573 C -0.05440 0.47622 0.85978
 C574 C -0.15501 0.48983 0.90943
 C575 C -0.08150 0.50943 0.82721
 C576 C -0.10777 0.50750 0.84566
 C577 C -0.13364 0.48976 0.89156
 C578 C -0.05443 0.49409 0.83430
 H579 H -0.08007 0.46080 0.89796
 H580 H -0.03402 0.46383 0.86557
 H581 H -0.08213 0.52361 0.80793
 H582 H -0.12824 0.52000 0.84026
 C583 C 0.37091 0.01178 0.39220
 C584 C 0.34557 -0.00569 0.39176
 C585 C 0.32685 -0.00743 0.41790
 C586 C 0.40962 0.01150 0.34489
 C587 C 0.35855 0.02617 0.44486
 C588 C 0.37719 0.02792 0.41871
 C589 C 0.39150 0.01186 0.36609
 C590 C 0.33338 0.00819 0.44485
 H591 H 0.34062 -0.01843 0.37141
 H592 H 0.30783 -0.02172 0.41730
 H593 H 0.36390 0.03877 0.46514
 H594 H 0.39677 0.04147 0.41931
 C595 C 0.11008 0.51229 0.85961
 C596 C 0.11003 0.49488 0.83259
 C597 C 0.08355 0.49332 0.81683
 C598 C 0.15765 0.51169 0.89325
 C599 C 0.05729 0.52705 0.85483
 C600 C 0.08375 0.52862 0.87048
 C601 C 0.13642 0.51209 0.87729
 C602 C 0.05677 0.50903 0.82806
 H603 H 0.13024 0.48199 0.82406
 H604 H 0.08375 0.47904 0.79645
 H605 H 0.03714 0.53973 0.86379
 H606 H 0.08352 0.54215 0.89138
 C607 C 0.64224 0.01212 0.38989
 C608 C 0.63061 0.02715 0.41661
 C609 C 0.64588 0.02463 0.44328
 C610 C 0.60960 0.01383 0.34162
 C611 C 0.68493 -0.00753 0.41648
 C612 C 0.66956 -0.00502 0.38979
 C613 C 0.62513 0.01313 0.36317
 C614 C 0.67303 0.00696 0.44360
 H615 H 0.60947 0.04047 0.41694
 H616 H 0.63639 0.03639 0.46370
 H617 H 0.70563 -0.02153 0.41611
 H618 H 0.67867 -0.01690 0.36927
 C619 C 0.88978 0.48493 0.14137
 C620 C 0.91637 0.46935 0.13003
 C621 C 0.94302 0.47163 0.14526
 C622 C 0.84152 0.48366 0.10879
 C623 C 0.91646 0.50464 0.18369
 C624 C 0.88979 0.50238 0.16836
 C625 C 0.86307 0.48415 0.12428
 C626 C 0.94345 0.48958 0.17208
 H627 H 0.91661 0.45580 0.10914
 H628 H 0.96334 0.45944 0.13600
 H629 H 0.91617 0.51888 0.20411
 H630 H 0.86938 0.51468 0.17723
 C631 C 0.35706 -0.00954 0.61030
 C632 C 0.36845 -0.02579 0.58418
 C633 C 0.35314 -0.02427 0.55744
 C634 C 0.39015 -0.00883 0.65829
 C635 C 0.31446 0.00925 0.58303
 C636 C 0.32987 0.00775 0.60978
 C637 C 0.37439 -0.00927 0.63690
 C638 C 0.32620 -0.00639 0.55645
 H639 H 0.38949 -0.03922 0.58431
 H640 H 0.36250 -0.03690 0.53746
 H641 H 0.29391 0.02342 0.58286
 H642 H 0.32095 0.02058 0.62982
   
