data_POSCAR
  _audit_creation_date              2014-09-24
  _audit_creation_method            'ToBaCCo'
  _symmetry_space_group_name_H-M    'P1'
  _symmetry_Int_Tables_number       1
  _symmetry_cell_setting            triclinic
  loop_
  _symmetry_equiv_pos_as_xyz
 x,y,z
_cell_length_a 59.1680
_cell_length_b 59.2653
_cell_length_c 22.0166
_cell_angle_alpha 90.225800
_cell_angle_beta 89.797500
_cell_angle_gamma 119.889900
loop_
  _atom_site_label
  _atom_site_type_symbol
  _atom_site_fract_x
  _atom_site_fract_y
  _atom_site_fract_z
C1 C 0.20033 0.49800 0.44981
 C2 C 0.18921 0.49789 0.50596
 C3 C 0.20124 0.49778 0.56033
 C4 C 0.22526 0.49802 0.55915
 C5 C 0.23681 0.49819 0.50238
 C6 C 0.22433 0.49820 0.44740
 C7 C 0.23603 0.49813 0.39169
 C8 C 0.25937 0.49775 0.38995
 C9 C 0.27189 0.49745 0.44382
 C10 C 0.26063 0.49783 0.50058
 C11 C 0.23789 0.49781 0.61302
 C12 C 0.26125 0.49749 0.61124
 C13 C 0.27290 0.49735 0.55552
 C14 C 0.29633 0.49645 0.55301
 C15 C 0.30720 0.49613 0.49681
 C16 C 0.29527 0.49651 0.44256
 H17 H 0.22715 0.49826 0.34887
 H18 H 0.26748 0.49760 0.34590
 H19 H 0.22973 0.49780 0.65712
 H20 H 0.27009 0.49725 0.65403
 H21 H 0.17058 0.49736 0.50735
 H22 H 0.32501 0.49508 0.49513
 C23 C 0.48016 -0.30581 0.44661
 C24 C 0.47885 -0.31837 0.50108
 C25 C 0.48027 -0.30658 0.55706
 C26 C 0.48282 -0.28156 0.55919
 C27 C 0.48402 -0.26866 0.50403
 C28 C 0.48267 -0.28084 0.44744
 C29 C 0.48414 -0.26765 0.39335
 C30 C 0.48704 -0.24284 0.39474
 C31 C 0.48864 -0.23032 0.45026
 C32 C 0.48705 -0.24335 0.50544
 C33 C 0.48448 -0.26899 0.61472
 C34 C 0.48745 -0.24416 0.61610
 C35 C 0.48890 -0.23093 0.56200
 C36 C 0.49239 -0.20551 0.56268
 C37 C 0.49382 -0.19298 0.50801
 C38 C 0.49206 -0.20499 0.45219
 H39 H 0.48311 -0.27641 0.34944
 H40 H 0.48813 -0.23350 0.35181
 H41 H 0.48356 -0.27826 0.65766
 H42 H 0.48870 -0.23535 0.66005
 H43 H 0.47724 -0.33745 0.49974
 H44 H 0.49676 -0.17336 0.50878
 C45 C 1.21105 0.69426 0.55280
 C46 C 1.19951 0.68298 0.49731
 C47 C 1.21098 0.69484 0.44234
 C48 C 1.23479 0.71862 0.44206
 C49 C 1.24684 0.73027 0.49809
 C50 C 1.23493 0.71808 0.55383
 C51 C 1.24713 0.73009 0.60879
 C52 C 1.27058 0.75360 0.60906
 C53 C 1.28272 0.76602 0.55437
 C54 C 1.27074 0.75425 0.49834
 C55 C 1.24676 0.73107 0.38738
 C56 C 1.27019 0.75458 0.38760
 C57 C 1.28251 0.76651 0.44254
 C58 C 1.30625 0.79045 0.44342
 C59 C 1.31789 0.80175 0.49880
 C60 C 1.30647 0.78996 0.55396
 H61 H 1.23860 0.72137 0.65213
 H62 H 1.27914 0.76202 0.65261
 H63 H 1.23808 0.72271 0.34388
 H64 H 1.27858 0.76337 0.34423
 H65 H 1.18110 0.66473 0.49678
 H66 H 1.33610 0.82022 0.49898
 C67 C 0.70431 0.50607 0.44851
 C68 C 0.69350 0.50656 0.50459
 C69 C 0.70508 0.50557 0.55896
 C70 C 0.72806 0.50380 0.55769
 C71 C 0.73923 0.50332 0.50084
 C72 C 0.72732 0.50449 0.44598
 C73 C 0.73884 0.50428 0.39018
 C74 C 0.76179 0.50317 0.38820
 C75 C 0.77399 0.50212 0.44193
 C76 C 0.76255 0.50204 0.49881
 C77 C 0.74028 0.50272 0.61144
 C78 C 0.76310 0.50135 0.60945
 C79 C 0.77463 0.50108 0.55362
 C80 C 0.79802 0.50011 0.55084
 C81 C 0.80905 0.50024 0.49454
 C82 C 0.79747 0.50139 0.44044
 H83 H 0.73025 0.50509 0.34749
 H84 H 0.76992 0.50316 0.34407
 H85 H 0.73228 0.50297 0.65559
 H86 H 0.77174 0.50062 0.65215
 H87 H 0.67595 0.50809 0.50581
 H88 H 0.82723 0.49987 0.49270
 C89 C 0.50896 0.20597 0.55137
 C90 C 0.50703 0.19389 0.49554
 C91 C 0.50741 0.20600 0.44100
 C92 C 0.51003 0.23101 0.44166
 C93 C 0.51201 0.24351 0.49813
 C94 C 0.51140 0.23091 0.55333
 C95 C 0.51308 0.24350 0.60878
 C96 C 0.51522 0.26800 0.61007
 C97 C 0.51585 0.28085 0.55591
 C98 C 0.51432 0.26852 0.49941
 C99 C 0.51055 0.24377 0.38752
 C100 C 0.51289 0.26833 0.38874
 C101 C 0.51475 0.28101 0.44416
 C102 C 0.51682 0.30578 0.44597
 C103 C 0.51839 0.31775 0.50168
 C104 C 0.51778 0.30562 0.55642
 H105 H 0.51265 0.23443 0.65170
 H106 H 0.51636 0.27682 0.65395
 H107 H 0.50914 0.23482 0.34367
 H108 H 0.51317 0.27731 0.34580
 H109 H 0.50492 0.17461 0.49454
 H110 H 0.51967 0.33669 0.50235
 C111 C 0.69165 0.21332 0.44843
 C112 C 0.68070 0.20117 0.50358
 C113 C 0.69269 0.21229 0.55875
 C114 C 0.71619 0.23637 0.55947
 C115 C 0.72748 0.24899 0.50374
 C116 C 0.71517 0.23742 0.44787
 C117 C 0.72683 0.25009 0.39314
 C118 C 0.75027 0.27364 0.39322
 C119 C 0.76288 0.28534 0.44803
 C120 C 0.75137 0.27296 0.50384
 C121 C 0.72884 0.24799 0.61427
 C122 C 0.75228 0.27148 0.61439
 C123 C 0.76395 0.28425 0.55968
 C124 C 0.78802 0.30786 0.55906
 C125 C 0.79903 0.31993 0.50385
 C126 C 0.78687 0.30897 0.44869
 H127 H 0.71795 0.24183 0.34974
 H128 H 0.75850 0.28258 0.34987
 H129 H 0.72073 0.23894 0.65760
 H130 H 0.76125 0.27954 0.65784
 H131 H 0.66282 0.18247 0.50350
 H132 H 0.81767 0.33792 0.50361
 N133 N 0.97467 0.52950 0.05939
 N134 N 0.95522 0.53434 0.06501
 N135 N 1.02828 0.53838 0.10392
 N136 N 1.04826 0.55008 0.14107
 N137 N 1.02970 0.55424 0.06066
 N138 N 1.05088 0.57730 0.06722
 N139 N 0.97370 0.51387 0.10274
 N140 N 0.95369 0.50767 0.13901
 C141 C 0.94244 0.52056 0.11497
 C142 C 1.06208 0.57423 0.11772
 N143 N 1.02442 0.47168 0.06914
 N144 N 1.04352 0.46667 0.07888
 N145 N 0.97056 0.46407 0.10793
 N146 N 0.95030 0.45341 0.14472
 N147 N 0.96943 0.44705 0.06792
 N148 N 0.94821 0.42420 0.07644
 N149 N 1.02520 0.48857 0.10910
 N150 N 1.04475 0.49550 0.14712
 Mn151 Mn 0.99944 0.50124 0.10650
 C152 C 1.05594 0.48173 0.12764
 C153 C 0.93663 0.42865 0.12459
 N154 N 1.03021 0.55239 -0.07032
 N155 N 1.05117 0.57538 -0.07930
 N156 N 0.97460 0.51083 -0.11160
 N157 N 0.95486 0.50346 -0.14916
 N158 N 0.97519 0.52762 -0.07163
 N159 N 0.95569 0.53211 -0.08095
 N160 N 1.02921 0.53539 -0.11024
 N161 N 1.04933 0.54624 -0.14746
 Mn162 Mn 1.00246 0.54131 -0.00551
 C163 C 1.06278 0.57107 -0.12758
 C164 C 0.94335 0.51689 -0.12959
 N165 N 0.97000 0.44519 -0.06302
 N166 N 0.94892 0.42209 -0.06959
 N167 N 1.02604 0.48553 -0.10503
 N168 N 1.04609 0.49175 -0.14116
 N169 N 1.02499 0.46986 -0.06171
 N170 N 1.04443 0.46500 -0.06720
 N171 N 0.97141 0.46099 -0.10642
 N172 N 0.95145 0.44916 -0.14369
 Mn173 Mn 0.99718 0.45808 0.00311
 Mn174 Mn 1.00033 0.49818 -0.10891
 Cl175 Cl 0.99985 0.49971 -0.00120
 C176 C 0.93769 0.42502 -0.12016
 C177 C 1.05728 0.47882 -0.11705
 N178 N 0.47728 0.44702 0.06389
 N179 N 0.47594 0.42430 0.07223
 N180 N 0.46032 0.48675 0.10371
 N181 N 0.44638 0.49287 0.13984
 N182 N 0.44561 0.47025 0.06158
 N183 N 0.42112 0.46469 0.06791
 N184 N 0.49180 0.46370 0.10595
 N185 N 0.50071 0.45289 0.14403
 C186 C 0.49068 0.42843 0.12243
 C187 C 0.42208 0.47898 0.11698
 N188 N 0.52121 0.55400 0.06377
 N189 N 0.52253 0.57678 0.07152
 N190 N 0.53753 0.51433 0.10723
 N191 N 0.55090 0.50835 0.14520
 N192 N 0.55293 0.53084 0.06597
 N193 N 0.57731 0.53653 0.07476
 N194 N 0.50601 0.53735 0.10503
 N195 N 0.49660 0.54821 0.14193
 Mn196 Mn 0.49891 0.50053 0.10606
 C197 C 0.50703 0.57268 0.12046
 C198 C 0.57557 0.52232 0.12438
 N199 N 0.44674 0.47019 -0.06943
 N200 N 0.42241 0.46474 -0.07794
 N201 N 0.49366 0.46357 -0.10836
 N202 N 0.50316 0.45269 -0.14497
 N203 N 0.47841 0.44695 -0.06712
 N204 N 0.47714 0.42419 -0.07455
 N205 N 0.46216 0.48663 -0.11075
 N206 N 0.44887 0.49281 -0.14848
 Mn207 Mn 0.46167 0.45823 -0.00278
 C208 C 0.42421 0.47901 -0.12749
 C209 C 0.49272 0.42824 -0.12331
 N210 N 0.55407 0.53076 -0.06501
 N211 N 0.57858 0.53639 -0.07135
 N212 N 0.50787 0.53723 -0.10945
 N213 N 0.49867 0.54790 -0.14712
 N214 N 0.52231 0.55390 -0.06730
 N215 N 0.52330 0.57649 -0.07516
 N216 N 0.53938 0.51420 -0.10708
 N217 N 0.55336 0.50813 -0.14320
 Mn218 Mn 0.53796 0.54275 -0.00064
 Mn219 Mn 0.50078 0.50041 -0.10950
 Cl220 Cl 0.49983 0.50048 -0.00172
 C221 C 0.57766 0.52209 -0.12038
 C222 C 0.50847 0.57229 -0.12522
 N223 N 0.44595 -0.02940 0.06341
 N224 N 0.42278 -0.05042 0.07032
 N225 N 0.48691 0.02642 0.10503
 N226 N 0.49349 0.04652 0.14115
 N227 N 0.47121 0.02558 0.06193
 N228 N 0.46671 0.04523 0.06757
 N229 N 0.46190 -0.02808 0.10640
 N230 N 0.45017 -0.04797 0.14368
 C231 C 0.42589 -0.06163 0.12073
 C232 C 0.48076 0.05797 0.11730
 N233 N 0.55343 0.02993 0.06917
 N234 N 0.57641 0.05105 0.07732
 N235 N 0.51155 -0.02554 0.11072
 N236 N 0.50424 -0.04526 0.14826
 N237 N 0.52825 -0.02502 0.07049
 N238 N 0.53272 -0.04449 0.07954
 N239 N 0.53656 0.02902 0.10941
 N240 N 0.54747 0.04931 0.14600
 Mn241 Mn 0.49922 0.00045 0.10845
 C242 C 0.57221 0.06278 0.12552
 C243 C 0.51759 -0.05681 0.12825
 N244 N 0.47273 0.02495 -0.06913
 N245 N 0.46869 0.04474 -0.07800
 N246 N 0.46428 -0.02924 -0.10783
 N247 N 0.45321 -0.04943 -0.14473
 N248 N 0.44744 -0.03003 -0.06765
 N249 N 0.42433 -0.05093 -0.07614
 N250 N 0.48934 0.02528 -0.10936
 N251 N 0.49700 0.04510 -0.14664
 Mn252 Mn 0.45895 -0.00224 -0.00290
 C253 C 0.48396 0.05695 -0.12669
 C254 C 0.42841 -0.06270 -0.12442
 N255 N 0.52969 -0.02575 -0.06041
 N256 N 0.53414 -0.04545 -0.06593
 N257 N 0.53902 0.02793 -0.10494
 N258 N 0.55086 0.04790 -0.14204
 N259 N 0.55489 0.02920 -0.06180
 N260 N 0.57806 0.05021 -0.06836
 N261 N 0.51396 -0.02664 -0.10346
 N262 N 0.50730 -0.04679 -0.13944
 Mn263 Mn 0.54193 0.00212 0.00439
 Mn264 Mn 0.50165 -0.00068 -0.10697
 Cl265 Cl 0.50043 -0.00009 0.00074
 C266 C 0.52003 -0.05824 -0.11557
 C267 C 0.57508 0.06153 -0.11868
 C268 C 1.11783 0.48649 0.22057
 C269 C 1.13993 0.51123 0.23140
 C270 C 1.15896 0.51388 0.27449
 C271 C 1.15586 0.49173 0.30599
 C272 C 1.13465 0.46676 0.29216
 C273 C 1.11556 0.46414 0.24937
 C274 C 1.09428 0.43905 0.23707
 C275 C 1.09197 0.41714 0.26610
 C276 C 1.11065 0.41969 0.30793
 C277 C 1.13177 0.44417 0.32104
 C278 C 1.18057 0.53888 0.28566
 C279 C 1.18346 0.56062 0.25463
 C280 C 1.16499 0.55800 0.21209
 C281 C 1.14336 0.53365 0.20066
 C282 C 1.17323 0.49471 0.35564
 C283 C 1.18652 0.49658 0.39887
 C284 C 1.09641 0.48434 0.18421
 C285 C 1.07810 0.48283 0.15683
 H286 H 1.07932 0.43609 0.20468
 H287 H 1.07560 0.39808 0.25605
 H288 H 1.10877 0.40262 0.33034
 H289 H 1.14584 0.44516 0.35376
 H290 H 1.19550 0.54183 0.31812
 H291 H 1.20012 0.57961 0.26367
 H292 H 1.16730 0.57496 0.18821
 H293 H 1.12944 0.53257 0.16737
 C294 C 0.49060 0.62260 0.21280
 C295 C 0.47036 0.61069 0.25640
 C296 C 0.46611 0.62630 0.29886
 C297 C 0.48218 0.65371 0.29768
 C298 C 0.50127 0.66567 0.25169
 C299 C 0.50550 0.65006 0.20906
 C300 C 0.52498 0.66240 0.16413
 C301 C 0.53984 0.68945 0.16125
 C302 C 0.53571 0.70473 0.20294
 C303 C 0.51669 0.69308 0.24783
 C304 C 0.44603 0.61396 0.34260
 C305 C 0.43068 0.58694 0.34453
 C306 C 0.43497 0.57165 0.30331
 C307 C 0.45447 0.58327 0.25950
 C308 C 0.48083 0.66916 0.34737
 C309 C 0.48024 0.68110 0.39121
 C310 C 0.49721 0.60645 0.17554
 C311 C 0.50221 0.59181 0.14820
 H312 H 0.52881 0.65128 0.13068
 H313 H 0.55464 0.69861 0.12648
 H314 H 0.54730 0.72573 0.20049
 H315 H 0.51409 0.70572 0.27915
 H316 H 0.44192 0.62505 0.37554
 H317 H 0.41536 0.57782 0.37816
 H318 H 0.42296 0.55066 0.30492
 H319 H 0.45684 0.57053 0.22800
 C320 C 0.37577 -0.12720 0.21343
 C321 C 0.38812 -0.13478 0.25740
 C322 C 0.37284 -0.15451 0.30010
 C323 C 0.34533 -0.16643 0.29882
 C324 C 0.33296 -0.15994 0.25270
 C325 C 0.34824 -0.14024 0.20981
 C326 C 0.33550 -0.13377 0.16468
 C327 C 0.30837 -0.14648 0.16185
 C328 C 0.29341 -0.16574 0.20379
 C329 C 0.30547 -0.17245 0.24887
 C330 C 0.38561 -0.16155 0.34411
 C331 C 0.41272 -0.14930 0.34616
 C332 C 0.42768 -0.12984 0.30476
 C333 C 0.41564 -0.12267 0.26062
 C334 C 0.33012 -0.18343 0.34823
 C335 C 0.31843 -0.19630 0.39175
 C336 C 0.39158 -0.10474 0.17547
 C337 C 0.40627 -0.08532 0.14792
 H338 H 0.34636 -0.11896 0.13104
 H339 H 0.29890 -0.14135 0.12693
 H340 H 0.27235 -0.17555 0.20138
 H341 H 0.29306 -0.18762 0.28039
 H342 H 0.37480 -0.17662 0.37722
 H343 H 0.42216 -0.15496 0.38000
 H344 H 0.44874 -0.12041 0.30645
 H345 H 0.42816 -0.10764 0.22900
 C346 C 0.87878 0.51494 0.20162
 C347 C 0.87988 0.53709 0.22903
 C348 C 0.86074 0.53396 0.27255
 C349 C 0.84068 0.50868 0.28845
 C350 C 0.83850 0.48665 0.25774
 C351 C 0.85757 0.48981 0.21398
 C352 C 0.85518 0.46751 0.18427
 C353 C 0.83443 0.44278 0.19721
 C354 C 0.81588 0.43968 0.24034
 C355 C 0.81783 0.46130 0.27051
 C356 C 0.86248 0.55638 0.30018
 C357 C 0.88255 0.58119 0.28515
 C358 C 0.90129 0.58424 0.24262
 C359 C 0.90009 0.56250 0.21479
 C360 C 0.82388 0.50534 0.33987
 C361 C 0.81117 0.50318 0.38464
 C362 C 0.90080 0.51772 0.16640
 C363 C 0.91966 0.51950 0.14080
 H364 H 0.86919 0.46897 0.15051
 H365 H 0.83288 0.42592 0.17406
 H366 H 0.79993 0.42042 0.25057
 H367 H 0.80289 0.45798 0.30353
 H368 H 0.84830 0.55498 0.33335
 H369 H 0.88356 0.59813 0.30661
 H370 H 0.91684 0.60355 0.23109
 H371 H 0.91502 0.56583 0.18176
 C372 C 0.50628 0.37852 0.21615
 C373 C 0.52611 0.39035 0.26058
 C374 C 0.53016 0.37463 0.30274
 C375 C 0.51428 0.34721 0.30041
 C376 C 0.49553 0.33536 0.25377
 C377 C 0.49152 0.35108 0.21146
 C378 C 0.47242 0.33885 0.16578
 C379 C 0.45772 0.31180 0.16189
 C380 C 0.46164 0.29642 0.20327
 C381 C 0.48029 0.30796 0.24887
 C382 C 0.54987 0.38687 0.34723
 C383 C 0.56506 0.41389 0.35017
 C384 C 0.56097 0.42928 0.30926
 C385 C 0.54183 0.41776 0.26473
 C386 C 0.51566 0.33154 0.34917
 C387 C 0.51639 0.31933 0.39202
 C388 C 0.50002 0.39474 0.17865
 C389 C 0.49528 0.40938 0.15090
 H390 H 0.46875 0.35005 0.13253
 H391 H 0.44322 0.30274 0.12657
 H392 H 0.45019 0.27542 0.20003
 H393 H 0.48274 0.29523 0.27991
 H394 H 0.55381 0.37571 0.37999
 H395 H 0.58010 0.42294 0.38437
 H396 H 0.57284 0.45027 0.31168
 H397 H 0.53960 0.43058 0.23353
 C398 C 0.62154 0.12937 0.21683
 C399 C 0.64907 0.14200 0.21411
 C400 C 0.66427 0.16213 0.25627
 C401 C 0.65182 0.16946 0.30083
 C402 C 0.62435 0.15801 0.30094
 C403 C 0.60914 0.13785 0.25894
 C404 C 0.58164 0.12622 0.26100
 C405 C 0.56955 0.13429 0.30333
 C406 C 0.58444 0.15415 0.34407
 C407 C 0.61154 0.16593 0.34315
 C408 C 0.69176 0.17421 0.25341
 C409 C 0.70390 0.16665 0.20998
 C410 C 0.68902 0.14695 0.16878
 C411 C 0.66189 0.13467 0.17067
 C412 C 0.66687 0.18666 0.35020
 C413 C 0.67860 0.19958 0.39366
 C414 C 0.60576 0.10645 0.17996
 C415 C 0.59132 0.08674 0.15290
 H416 H 0.56920 0.11090 0.22980
 H417 H 0.54851 0.12525 0.30410
 H418 H 0.57496 0.16051 0.37650
 H419 H 0.62231 0.18136 0.37562
 H420 H 0.70411 0.18970 0.28439
 H421 H 0.72496 0.17614 0.20829
 H422 H 0.69855 0.14116 0.13515
 H423 H 0.65110 0.11949 0.13762
 C424 C 0.49680 0.12165 -0.21958
 C425 C 0.51748 0.13054 -0.26223
 C426 C 0.52161 0.15043 -0.30409
 C427 C 0.50496 0.16120 -0.30332
 C428 C 0.48524 0.15335 -0.25854
 C429 C 0.48114 0.13349 -0.21651
 C430 C 0.46107 0.12566 -0.17275
 C431 C 0.44551 0.13718 -0.17043
 C432 C 0.44953 0.15661 -0.21151
 C433 C 0.46912 0.16466 -0.25523
 C434 C 0.54220 0.15879 -0.34675
 C435 C 0.55815 0.14770 -0.34827
 C436 C 0.55400 0.12812 -0.30765
 C437 C 0.53401 0.11963 -0.26487
 C438 C 0.50672 0.17851 -0.35189
 C439 C 0.50788 0.19168 -0.39466
 C440 C 0.49085 0.09925 -0.18209
 C441 C 0.48687 0.08008 -0.15452
 H442 H 0.45730 0.11066 -0.13981
 H443 H 0.43027 0.13101 -0.13657
 H444 H 0.43740 0.16551 -0.20948
 H445 H 0.47160 0.17990 -0.28610
 H446 H 0.54624 0.17403 -0.37917
 H447 H 0.57386 0.15439 -0.38104
 H448 H 0.56651 0.11964 -0.30883
 H449 H 0.53178 0.10455 -0.23382
 C450 C 0.63673 0.51802 -0.20658
 C451 C 0.63368 0.49314 -0.21825
 C452 C 0.65006 0.49037 -0.26144
 C453 C 0.66947 0.51253 -0.29226
 C454 C 0.67384 0.53762 -0.27698
 C455 C 0.65738 0.54037 -0.23404
 C456 C 0.66174 0.56558 -0.22042
 C457 C 0.68187 0.58750 -0.24831
 C458 C 0.69799 0.58482 -0.29030
 C459 C 0.69409 0.56021 -0.30471
 C460 C 0.64624 0.46525 -0.27357
 C461 C 0.62697 0.44348 -0.24333
 C462 C 0.61108 0.44621 -0.20072
 C463 C 0.61421 0.47070 -0.18842
 C464 C 0.68323 0.50943 -0.34343
 C465 C 0.69386 0.50734 -0.38819
 C466 C 0.61703 0.52026 -0.17184
 C467 C 0.59965 0.52158 -0.14642
 H468 H 0.64977 0.56861 -0.18782
 H469 H 0.68499 0.60665 -0.23725
 H470 H 0.71361 0.60191 -0.31182
 H471 H 0.70720 0.55911 -0.33746
 H472 H 0.65823 0.46222 -0.30613
 H473 H 0.62432 0.42440 -0.25306
 H474 H 0.59610 0.42924 -0.17746
 H475 H 0.60135 0.47187 -0.15505
 C476 C 0.87191 0.37165 -0.20834
 C477 C 0.85269 0.37839 -0.22233
 C478 C 0.83305 0.36354 -0.26574
 C479 C 0.83267 0.34194 -0.29443
 C480 C 0.85069 0.33404 -0.27693
 C481 C 0.87041 0.34898 -0.23380
 C482 C 0.88854 0.34104 -0.21788
 C483 C 0.88716 0.31888 -0.24369
 C484 C 0.86784 0.30423 -0.28583
 C485 C 0.84978 0.31166 -0.30249
 C486 C 0.81440 0.37099 -0.28014
 C487 C 0.81495 0.39234 -0.25186
 C488 C 0.83402 0.40673 -0.20901
 C489 C 0.85283 0.40003 -0.19452
 C490 C 0.81529 0.32915 -0.34520
 C491 C 0.80197 0.31897 -0.38927
 C492 C 0.89459 0.38940 -0.17300
 C493 C 0.91405 0.40508 -0.14698
 H494 H 0.90382 0.35176 -0.18507
 H495 H 0.90113 0.31303 -0.23087
 H496 H 0.86683 0.28702 -0.30570
 H497 H 0.83505 0.29959 -0.33527
 H498 H 0.79913 0.36029 -0.31299
 H499 H 0.80052 0.39776 -0.26332
 H500 H 0.83440 0.42334 -0.18730
 H501 H 0.86734 0.41185 -0.16108
 C502 C 0.51197 -0.12293 -0.20154
 C503 C 0.48641 -0.14386 -0.21167
 C504 C 0.48210 -0.16327 -0.25550
 C505 C 0.50340 -0.16169 -0.28855
 C506 C 0.52914 -0.14194 -0.27485
 C507 C 0.53344 -0.12247 -0.23123
 C508 C 0.55928 -0.10260 -0.21915
 C509 C 0.58033 -0.10202 -0.24921
 C510 C 0.57615 -0.12107 -0.29187
 C511 C 0.55088 -0.14083 -0.30479
 C512 C 0.45634 -0.18367 -0.26595
 C513 C 0.43543 -0.18501 -0.23348
 C514 C 0.43967 -0.16611 -0.19033
 C515 C 0.46481 -0.14563 -0.17962
 C516 C 0.49880 -0.17884 -0.33999
 C517 C 0.49550 -0.19192 -0.38474
 C518 C 0.51578 -0.10051 -0.16644
 C519 C 0.51830 -0.08135 -0.14102
 H520 H 0.56347 -0.08745 -0.18608
 H521 H 0.59999 -0.08672 -0.23930
 H522 H 0.59256 -0.12054 -0.31507
 H523 H 0.54860 -0.15528 -0.33813
 H524 H 0.45213 -0.19885 -0.29892
 H525 H 0.41584 -0.20076 -0.24195
 H526 H 0.42335 -0.16719 -0.16540
 H527 H 0.46717 -0.13135 -0.14572
 C528 C 0.36650 0.48364 -0.21785
 C529 C 0.36940 0.50851 -0.22837
 C530 C 0.35315 0.51139 -0.27136
 C531 C 0.33398 0.48935 -0.30312
 C532 C 0.32992 0.46427 -0.28948
 C533 C 0.34626 0.46141 -0.24677
 C534 C 0.34216 0.43621 -0.23468
 C535 C 0.32241 0.41441 -0.26387
 C536 C 0.30640 0.41719 -0.30563
 C537 C 0.31004 0.44178 -0.31851
 C538 C 0.35679 0.53651 -0.28220
 C539 C 0.37577 0.55815 -0.25092
 C540 C 0.39151 0.55530 -0.20849
 C541 C 0.38855 0.53083 -0.19741
 C542 C 0.31978 0.49256 -0.35285
 C543 C 0.30853 0.49468 -0.39610
 C544 C 0.38579 0.48129 -0.18208
 C545 C 0.40275 0.47979 -0.15542
 H546 H 0.35405 0.43308 -0.20232
 H547 H 0.31950 0.39526 -0.25400
 H548 H 0.29107 0.40019 -0.32817
 H549 H 0.29703 0.44295 -0.35117
 H550 H 0.34491 0.53964 -0.31459
 H551 H 0.37829 0.57723 -0.25970
 H552 H 0.40626 0.57218 -0.18442
 H553 H 0.40131 0.52958 -0.16417
 C554 C 1.12849 0.62178 -0.22030
 C555 C 1.14047 0.64920 -0.21600
 C556 C 1.16038 0.66519 -0.25788
 C557 C 1.16814 0.65364 -0.30372
 C558 C 1.15733 0.62628 -0.30554
 C559 C 1.13740 0.61030 -0.26381
 C560 C 1.12645 0.58295 -0.26749
 C561 C 1.13495 0.57174 -0.31112
 C562 C 1.15458 0.58739 -0.35164
 C563 C 1.16569 0.61436 -0.34915
 C564 C 1.17180 0.69253 -0.25340
 C565 C 1.16384 0.70379 -0.20864
 C566 C 1.14437 0.68815 -0.16769
 C567 C 1.13272 0.66114 -0.17117
 C568 C 1.18520 0.66944 -0.35250
 C569 C 1.19802 0.68162 -0.39566
 C570 C 1.10584 0.60522 -0.18337
 C571 C 1.08640 0.59034 -0.15597
 H572 H 1.11132 0.56994 -0.23657
 H573 H 1.12643 0.55080 -0.31313
 H574 H 1.16126 0.57860 -0.38514
 H575 H 1.18095 0.62574 -0.38155
 H576 H 1.18709 0.70546 -0.28414
 H577 H 1.17283 0.72475 -0.20572
 H578 H 1.13826 0.69699 -0.13302
 H579 H 1.11770 0.64974 -0.13828
 C580 C 0.87954 0.50654 -0.22335
 C581 C 0.86859 0.52296 -0.21939
 C582 C 0.84910 0.51997 -0.26146
 C583 C 0.84072 0.50059 -0.30715
 C584 C 0.85054 0.48317 -0.30879
 C585 C 0.87007 0.48618 -0.26689
 C586 C 0.88004 0.46889 -0.27038
 C587 C 0.87098 0.44920 -0.31398
 C588 C 0.85173 0.44613 -0.35464
 C589 C 0.84158 0.46287 -0.35233
 C590 C 0.83868 0.53685 -0.25726
 C591 C 0.84725 0.55610 -0.21263
 C592 C 0.86632 0.55902 -0.17150
 C593 C 0.87696 0.54270 -0.17468
 C594 C 0.82392 0.50002 -0.35573
 C595 C 0.81117 0.49990 -0.39845
 C596 C 0.90165 0.51140 -0.18580
 C597 C 0.92055 0.51463 -0.15801
 H598 H 0.89482 0.47027 -0.23934
 H599 H 0.87874 0.43608 -0.31580
 H600 H 0.84459 0.43066 -0.38808
 H601 H 0.82658 0.45967 -0.38482
 H602 H 0.82374 0.53522 -0.28812
 H603 H 0.83904 0.56882 -0.20993
 H604 H 0.87290 0.57400 -0.13693
 H605 H 0.89170 0.54563 -0.14166
 C606 C 0.50897 0.37781 -0.21390
 C607 C 0.52918 0.38937 -0.25766
 C608 C 0.53318 0.37342 -0.29965
 C609 C 0.51687 0.34605 -0.29782
 C610 C 0.49787 0.33444 -0.25153
 C611 C 0.49390 0.35039 -0.20938
 C612 C 0.47449 0.33840 -0.16416
 C613 C 0.45945 0.31137 -0.16054
 C614 C 0.46332 0.29578 -0.20177
 C615 C 0.48227 0.30708 -0.24693
 C616 C 0.55321 0.38540 -0.34361
 C617 C 0.56878 0.41239 -0.34621
 C618 C 0.56474 0.42800 -0.30546
 C619 C 0.54528 0.41674 -0.26144
 C620 C 0.51780 0.33031 -0.34736
 C621 C 0.51803 0.31820 -0.39124
 C622 C 0.50252 0.39427 -0.17738
 C623 C 0.49759 0.40907 -0.15059
 H624 H 0.47085 0.34977 -0.13104
 H625 H 0.44471 0.30249 -0.12556
 H626 H 0.45160 0.27480 -0.19874
 H627 H 0.48470 0.29420 -0.27786
 H628 H 0.55713 0.37405 -0.37619
 H629 H 0.58406 0.42124 -0.38001
 H630 H 0.57690 0.44896 -0.30761
 H631 H 0.54311 0.42971 -0.23031
 C632 C 0.62854 0.12725 -0.20648
 C633 C 0.65069 0.12826 -0.23387
 C634 C 0.66555 0.14799 -0.27693
 C635 C 0.65810 0.16654 -0.29241
 C636 C 0.63706 0.16662 -0.26184
 C637 C 0.62229 0.14696 -0.21849
 C638 C 0.60121 0.14729 -0.18876
 C639 C 0.59498 0.16658 -0.20133
 C640 C 0.60930 0.18568 -0.24410
 C641 C 0.63009 0.18576 -0.27427
 C642 C 0.68739 0.14837 -0.30449
 C643 C 0.69436 0.12980 -0.28980
 C644 C 0.67980 0.11048 -0.24769
 C645 C 0.65816 0.10960 -0.21996
 C646 C 0.67081 0.18407 -0.34290
 C647 C 0.68096 0.19752 -0.38674
 C648 C 0.61075 0.10461 -0.17123
 C649 C 0.59504 0.08516 -0.14533
 H650 H 0.58947 0.13277 -0.15531
 H651 H 0.57879 0.16655 -0.17819
 H652 H 0.60423 0.20049 -0.25406
 H653 H 0.64074 0.20106 -0.30701
 H654 H 0.69938 0.16308 -0.33734
 H655 H 0.71116 0.13042 -0.31119
 H656 H 0.68530 0.09611 -0.23640
 H657 H 0.64750 0.09429 -0.18725
 C658 C 1.12104 0.48454 -0.20326
 C659 C 1.14190 0.50973 -0.21675
 C660 C 1.16094 0.51287 -0.26058
 C661 C 1.15906 0.49078 -0.29024
 C662 C 1.13940 0.46549 -0.27314
 C663 C 1.12030 0.46236 -0.22954
 C664 C 1.10048 0.43693 -0.21410
 C665 C 1.09961 0.41517 -0.24088
 C666 C 1.11831 0.41821 -0.28351
 C667 C 1.13801 0.44304 -0.29968
 C668 C 1.18125 0.53827 -0.27450
 C669 C 1.18286 0.55996 -0.24541
 C670 C 1.16434 0.55688 -0.20222
 C671 C 1.14395 0.53210 -0.18814
 C672 C 1.17570 0.49400 -0.34190
 C673 C 1.18828 0.49609 -0.38686
 C674 C 1.09896 0.48167 -0.16817
 C675 C 1.08007 0.47986 -0.14270
 H676 H 1.08560 0.43363 -0.18093
 H677 H 1.08436 0.39584 -0.22844
 H678 H 1.11756 0.40124 -0.30415
 H679 H 1.15219 0.44443 -0.33287
 H680 H 1.19615 0.54158 -0.30761
 H681 H 1.19854 0.57926 -0.25651
 H682 H 1.16564 0.57379 -0.17988
 H683 H 1.12996 0.53066 -0.15436
 C684 C 0.49133 0.62150 -0.21700
 C685 C 0.47174 0.60950 -0.26191
 C686 C 0.46730 0.62509 -0.30364
 C687 C 0.48257 0.65255 -0.30045
 C688 C 0.50100 0.66452 -0.25326
 C689 C 0.50539 0.64893 -0.21134
 C690 C 0.52419 0.66130 -0.16511
 C691 C 0.53824 0.68835 -0.16033
 C692 C 0.53395 0.70361 -0.20136
 C693 C 0.51558 0.69193 -0.24746
 C694 C 0.44785 0.61269 -0.34864
 C695 C 0.43328 0.58565 -0.35247
 C696 C 0.43777 0.57039 -0.31197
 C697 C 0.45667 0.58206 -0.26698
 C698 C 0.48108 0.66818 -0.34913
 C699 C 0.48044 0.68042 -0.39201
 C700 C 0.49814 0.60554 -0.18011
 C701 C 0.50335 0.59112 -0.15295
 H702 H 0.52811 0.65020 -0.13211
 H703 H 0.55252 0.69752 -0.12461
 H704 H 0.54491 0.72460 -0.19744
 H705 H 0.51282 0.70456 -0.27819
 H706 H 0.44362 0.62375 -0.38110
 H707 H 0.41843 0.57648 -0.38701
 H708 H 0.42636 0.54938 -0.31503
 H709 H 0.45922 0.56934 -0.23612
 C710 C 0.37769 -0.12847 -0.21656
 C711 C 0.38939 -0.13763 -0.25888
 C712 C 0.37361 -0.15742 -0.30110
 C713 C 0.34626 -0.16782 -0.30095
 C714 C 0.33445 -0.15986 -0.25617
 C715 C 0.35023 -0.14010 -0.21379
 C716 C 0.33806 -0.13211 -0.17009
 C717 C 0.31101 -0.14341 -0.16817
 C718 C 0.29557 -0.16274 -0.20960
 C719 C 0.30706 -0.17093 -0.25328
 C720 C 0.38575 -0.16602 -0.34355
 C721 C 0.41274 -0.15526 -0.34447
 C722 C 0.42820 -0.13576 -0.30350
 C723 C 0.41677 -0.12704 -0.26094
 C724 C 0.33080 -0.18460 -0.35046
 C725 C 0.31888 -0.19721 -0.39411
 C726 C 0.39414 -0.10582 -0.17958
 C727 C 0.40902 -0.08635 -0.15232
 H728 H 0.34930 -0.11719 -0.13687
 H729 H 0.30199 -0.13712 -0.13434
 H730 H 0.27458 -0.17146 -0.20789
 H731 H 0.29429 -0.18610 -0.28444
 H732 H 0.37452 -0.18120 -0.37622
 H733 H 0.42169 -0.16212 -0.37709
 H734 H 0.44915 -0.12751 -0.30428
 H735 H 0.42962 -0.11204 -0.22956
 C736 C 0.51006 -0.12010 0.21918
 C737 C 0.53168 -0.11870 0.24996
 C738 C 0.52779 -0.13815 0.29289
 C739 C 0.50228 -0.15884 0.30485
 C740 C 0.48089 -0.16114 0.27122
 C741 C 0.48481 -0.14176 0.22800
 C742 C 0.46314 -0.14435 0.19510
 C743 C 0.43828 -0.16554 0.20458
 C744 C 0.43440 -0.18437 0.24727
 C745 C 0.45540 -0.18228 0.28040
 C746 C 0.54966 -0.13614 0.32381
 C747 C 0.57466 -0.11551 0.31253
 C748 C 0.57845 -0.09647 0.27055
 C749 C 0.55727 -0.09793 0.23954
 C750 C 0.49798 -0.17650 0.35472
 C751 C 0.49495 -0.19007 0.39810
 C752 C 0.51338 -0.09816 0.18328
 C753 C 0.51572 -0.07943 0.15648
 H754 H 0.46519 -0.13013 0.16160
 H755 H 0.42189 -0.16722 0.17909
 H756 H 0.41502 -0.20067 0.25480
 H757 H 0.45148 -0.19745 0.31293
 H758 H 0.54770 -0.15052 0.35673
 H759 H 0.59118 -0.11430 0.33648
 H760 H 0.59791 -0.08049 0.26191
 H761 H 0.56118 -0.08273 0.20709
 C762 C 0.36336 0.48335 0.20384
 C763 C 0.36660 0.50830 0.21557
 C764 C 0.35051 0.51124 0.25929
 C765 C 0.33119 0.48917 0.29056
 C766 C 0.32661 0.46401 0.27524
 C767 C 0.34278 0.46110 0.23176
 C768 C 0.33822 0.43582 0.21806
 C769 C 0.31815 0.41400 0.24639
 C770 C 0.30231 0.41683 0.28890
 C771 C 0.30642 0.44151 0.30341
 C772 C 0.35451 0.53643 0.27146
 C773 C 0.37370 0.55810 0.24076
 C774 C 0.38930 0.55521 0.19765
 C775 C 0.38599 0.53065 0.18528
 C776 C 0.31766 0.49243 0.34198
 C777 C 0.30712 0.49462 0.38676
 C778 C 0.38287 0.48096 0.16872
 C779 C 0.40015 0.47955 0.14309
 H780 H 0.34997 0.43267 0.18505
 H781 H 0.31487 0.39479 0.23525
 H782 H 0.28673 0.39982 0.31076
 H783 H 0.29353 0.44274 0.33659
 H784 H 0.34274 0.53958 0.30441
 H785 H 0.37650 0.57724 0.25055
 H786 H 0.40422 0.57211 0.17406
 H787 H 0.39862 0.52935 0.15149
 C788 C 1.12795 0.62434 0.20966
 C789 C 1.13527 0.61210 0.25447
 C790 C 1.15506 0.62746 0.29703
 C791 C 1.16730 0.65494 0.29476
 C792 C 1.16109 0.66716 0.24778
 C793 C 1.14133 0.65179 0.20504
 C794 C 1.13513 0.66440 0.15905
 C795 C 1.14816 0.69147 0.15525
 C796 C 1.16750 0.70651 0.19704
 C797 C 1.17395 0.69459 0.24296
 C798 C 1.16181 0.61481 0.34193
 C799 C 1.14923 0.58775 0.34496
 C800 C 1.12971 0.57271 0.30366
 C801 C 1.12282 0.58463 0.25866
 C802 C 1.18432 0.67028 0.34401
 C803 C 1.19717 0.68204 0.38749
 C804 C 1.10540 0.60851 0.17191
 C805 C 1.08589 0.59381 0.14461
 H806 H 1.12027 0.65346 0.12548
 H807 H 1.14324 0.70082 0.11967
 H808 H 1.17756 0.72752 0.19387
 H809 H 1.18918 0.70705 0.27433
 H810 H 1.17692 0.62567 0.37499
 H811 H 1.15467 0.57839 0.37950
 H812 H 1.12001 0.55169 0.30614
 H813 H 1.10774 0.57205 0.22716
 C814 C 0.48828 0.12245 0.20322
 C815 C 0.46671 0.12166 0.23321
 C816 C 0.47082 0.14112 0.27665
 C817 C 0.49647 0.16120 0.28987
 C818 C 0.51784 0.16307 0.25655
 C819 C 0.51371 0.14367 0.21288
 C820 C 0.53537 0.14575 0.18052
 C821 C 0.56041 0.16651 0.19083
 C822 C 0.56446 0.18540 0.23385
 C823 C 0.54349 0.18376 0.26659
 C824 C 0.44899 0.13969 0.30689
 C825 C 0.42383 0.11961 0.29446
 C826 C 0.41983 0.10056 0.25198
 C827 C 0.44097 0.10145 0.22162
 C828 C 0.50094 0.17842 0.34107
 C829 C 0.50418 0.19159 0.38559
 C830 C 0.48473 0.10011 0.16824
 C831 C 0.48238 0.08101 0.14286
 H832 H 0.53316 0.13149 0.14671
 H833 H 0.57678 0.16782 0.16569
 H834 H 0.58397 0.20136 0.24202
 H835 H 0.54755 0.19895 0.29945
 H836 H 0.45113 0.15413 0.34012
 H837 H 0.40734 0.11884 0.31790
 H838 H 0.40025 0.08501 0.24245
 H839 H 0.43692 0.08629 0.18870
 C840 C 0.63348 0.51852 0.21577
 C841 C 0.65365 0.54089 0.24442
 C842 C 0.67003 0.53826 0.28745
 C843 C 0.66607 0.51325 0.30160
 C844 C 0.64696 0.49107 0.27014
 C845 C 0.63066 0.49373 0.22689
 C846 C 0.61154 0.47127 0.19630
 C847 C 0.60865 0.44687 0.20800
 C848 C 0.62446 0.44424 0.25065
 C849 C 0.64341 0.46603 0.28155
 C850 C 0.68983 0.56087 0.31622
 C851 C 0.69337 0.58539 0.30277
 C852 C 0.67733 0.58795 0.26071
 C853 C 0.65764 0.56602 0.23177
 C854 C 0.68031 0.51025 0.35150
 C855 C 0.69154 0.50812 0.39475
 C856 C 0.61415 0.52065 0.17967
 C857 C 0.59711 0.52188 0.15270
 H858 H 0.59875 0.47235 0.16286
 H859 H 0.59392 0.42988 0.18422
 H860 H 0.62199 0.42522 0.25990
 H861 H 0.65534 0.46306 0.31412
 H862 H 0.70285 0.55986 0.34911
 H863 H 0.70865 0.60248 0.32510
 H864 H 0.68017 0.60704 0.25039
 H865 H 0.64572 0.56897 0.19917
 C866 C 0.87017 0.37957 0.21672
 C867 C 0.86205 0.39189 0.25991
 C868 C 0.84200 0.37663 0.30210
 C869 C 0.83030 0.34918 0.30105
 C870 C 0.83723 0.33683 0.25541
 C871 C 0.85725 0.35210 0.21307
 C872 C 0.86419 0.33938 0.16848
 C873 C 0.85161 0.31229 0.16565
 C874 C 0.83202 0.29736 0.20704
 C875 C 0.82485 0.30939 0.25159
 C876 C 0.83444 0.38935 0.34540
 C877 C 0.84645 0.41641 0.34715
 C878 C 0.86620 0.43136 0.30619
 C879 C 0.87393 0.41935 0.26284
 C880 C 0.81326 0.33401 0.35049
 C881 C 0.80047 0.32216 0.39396
 C882 C 0.89302 0.39534 0.17963
 C883 C 0.91269 0.40971 0.15235
 H884 H 0.87927 0.35022 0.13527
 H885 H 0.85710 0.30285 0.13114
 H886 H 0.82230 0.27633 0.20461
 H887 H 0.80944 0.29700 0.28267
 H888 H 0.81912 0.37853 0.37809
 H889 H 0.84037 0.42582 0.38041
 H890 H 0.87541 0.45237 0.30760
 H891 H 0.88917 0.43183 0.23153
   
