data_POSCAR
  _audit_creation_date              2014-09-24
  _audit_creation_method            'ToBaCCo'
  _symmetry_space_group_name_H-M    'P1'
  _symmetry_Int_Tables_number       1
  _symmetry_cell_setting            triclinic
  loop_
  _symmetry_equiv_pos_as_xyz
 x,y,z
_cell_length_a 37.0115
_cell_length_b 37.5639
_cell_length_c 14.5065
_cell_angle_alpha 90.528400
_cell_angle_beta 89.328100
_cell_angle_gamma 119.928900
loop_
  _atom_site_label
  _atom_site_type_symbol
  _atom_site_fract_x
  _atom_site_fract_y
  _atom_site_fract_z
C1 C 0.11319 0.42548 0.47230
 C2 C 0.13001 0.41988 0.38947
 C3 C 0.16554 0.41566 0.39452
 C4 C 0.18870 0.42421 0.47677
 C5 C 0.17021 0.42884 0.55853
 C6 C 0.13301 0.43029 0.55693
 C7 C 0.23349 0.43332 0.47485
 C8 C 0.25772 0.44381 0.55631
 C9 C 0.30084 0.45917 0.55211
 C10 C 0.32039 0.46285 0.46729
 C11 C 0.29745 0.45188 0.38610
 C12 C 0.25444 0.43697 0.38983
 H13 H 0.08628 0.42971 0.47030
 H14 H 0.17473 0.40593 0.33287
 H15 H 0.18441 0.43222 0.62474
 H16 H 0.24452 0.44189 0.62384
 H17 H 0.35388 0.47535 0.46428
 H18 H 0.23876 0.43025 0.32458
 C19 C 0.56394 -0.30598 0.46765
 C20 C 0.56143 -0.28512 0.39108
 C21 C 0.56138 -0.24827 0.40503
 C22 C 0.55624 -0.23581 0.49434
 C23 C 0.55450 -0.25996 0.57064
 C24 C 0.55683 -0.29598 0.55714
 C25 C 0.54684 -0.20141 0.50548
 C26 C 0.55440 -0.17915 0.58961
 C27 C 0.54421 -0.14782 0.59793
 C28 C 0.52594 -0.13944 0.52433
 C29 C 0.52213 -0.15773 0.43962
 C30 C 0.53021 -0.19012 0.43070
 H31 H 0.56471 -0.33425 0.45687
 H32 H 0.56278 -0.23114 0.34441
 H33 H 0.54689 -0.25348 0.63871
 H34 H 0.56880 -0.18524 0.64720
 H35 H 0.51790 -0.11538 0.53060
 H36 H 0.52413 -0.20522 0.36444
 C37 C 1.31700 0.86353 0.51866
 C38 C 1.29974 0.84698 0.43235
 C39 C 1.26616 0.80644 0.42789
 C40 C 1.25019 0.78177 0.50768
 C41 C 1.26995 0.79890 0.59258
 C42 C 1.30226 0.83972 0.59848
 C43 C 1.21320 0.73882 0.50215
 C44 C 1.19081 0.71761 0.58297
 C45 C 1.15818 0.67675 0.57755
 C46 C 1.14330 0.65977 0.49053
 C47 C 1.16501 0.67880 0.41079
 C48 C 1.20042 0.71781 0.41611
 H49 H 1.34344 0.89442 0.52358
 H50 H 1.25193 0.79534 0.36149
 H51 H 1.26099 0.78119 0.65525
 H52 H 1.19960 0.73130 0.65051
 H53 H 1.11591 0.62944 0.48488
 H54 H 1.21790 0.73049 0.35325
 C55 C 0.86478 0.53712 0.51938
 C56 C 0.85872 0.55177 0.43579
 C57 C 0.82543 0.55954 0.42967
 C58 C 0.79794 0.55210 0.50530
 C59 C 0.80606 0.53915 0.58936
 C60 C 0.83983 0.53243 0.59650
 C61 C 0.75981 0.55557 0.49319
 C62 C 0.74022 0.56514 0.56723
 C63 C 0.70347 0.56681 0.55128
 C64 C 0.69201 0.56615 0.45872
 C65 C 0.70514 0.54825 0.39048
 C66 C 0.73982 0.54432 0.40689
 H67 H 0.88962 0.52994 0.52540
 H68 H 0.82085 0.57111 0.36537
 H69 H 0.78614 0.53359 0.64898
 H70 H 0.75122 0.56792 0.63710
 H71 H 0.66523 0.56967 0.44460
 H72 H 0.74997 0.53078 0.35362
 C73 C 0.46582 0.33798 0.52040
 C74 C 0.47385 0.32450 0.43656
 C75 C 0.47989 0.29041 0.43549
 C76 C 0.47421 0.26730 0.51686
 C77 C 0.46441 0.28104 0.59903
 C78 C 0.46439 0.31822 0.60328
 C79 C 0.47899 0.22968 0.51762
 C80 C 0.48407 0.21316 0.60126
 C81 C 0.48666 0.17698 0.60224
 C82 C 0.48613 0.15828 0.51747
 C83 C 0.48323 0.17510 0.43443
 C84 C 0.47831 0.20959 0.43462
 H85 H 0.46318 0.36544 0.52111
 H86 H 0.48884 0.28255 0.37075
 H87 H 0.45700 0.26352 0.66182
 H88 H 0.48469 0.22710 0.66686
 H89 H 0.48948 0.13119 0.51569
 H90 H 0.47409 0.22018 0.36888
 C91 C 0.69379 0.10617 0.51131
 C92 C 0.70880 0.12822 0.42977
 C93 C 0.74405 0.16802 0.43252
 C94 C 0.76202 0.18706 0.51852
 C95 C 0.74263 0.16497 0.59964
 C96 C 0.70768 0.12587 0.59561
 C97 C 0.79481 0.23185 0.52705
 C98 C 0.81578 0.24818 0.61176
 C99 C 0.83931 0.29075 0.62662
 C100 C 0.84572 0.31743 0.55361
 C101 C 0.82871 0.30205 0.46685
 C102 C 0.80272 0.25962 0.45441
 H103 H 0.66519 0.07672 0.50952
 H104 H 0.75498 0.18430 0.36818
 H105 H 0.74990 0.17986 0.66631
 H106 H 0.81283 0.22835 0.66832
 H107 H 0.86515 0.35032 0.56362
 H108 H 0.78840 0.24919 0.38787
 O109 O 0.95294 0.50698 -0.14301
 O110 O 1.04033 0.51429 0.19434
 O111 O 0.93457 0.50716 0.07556
 O112 O 1.06207 0.56404 -0.07066
 O113 O 0.96827 0.50488 0.19233
 O114 O 1.02533 0.52772 -0.18304
 O115 O 1.05477 0.55621 0.08832
 O116 O 0.90114 0.46318 -0.06162
 C117 C 0.91549 0.49087 -0.12110
 C118 C 1.06050 0.55049 0.16771
 C119 C 0.94690 0.51836 0.15592
 C120 C 1.05508 0.55999 -0.15430
 O121 O 1.01326 0.45481 -0.17167
 O122 O 0.93901 0.42488 0.14950
 O123 O 0.91959 0.40801 -0.00672
 O124 O 1.06778 0.48857 0.07733
 O125 O 1.00924 0.43868 0.12762
 O126 O 0.93631 0.42924 -0.14627
 O127 O 1.06876 0.49640 -0.09150
 O128 O 0.88616 0.43185 0.11175
 Co129 Co 0.98215 0.47997 -0.14510
 Co130 Co 0.98932 0.47250 0.15115
 Co131 Co 0.93048 0.45931 0.03491
 Co132 Co 1.05753 0.52290 0.00280
 O133 O 0.99215 0.48609 0.00313
 C134 C 1.05155 0.46933 -0.15372
 C135 C 0.90281 0.41828 0.17120
 C136 C 0.91799 0.40040 -0.09090
 C137 C 1.04722 0.45328 0.11372
 O138 O 0.45890 0.43931 -0.11029
 O139 O 0.44958 0.50953 0.15615
 O140 O 0.52616 0.45363 0.09158
 O141 O 0.43772 0.54756 -0.10560
 O142 O 0.47874 0.46036 0.17272
 O143 O 0.43371 0.48821 -0.13577
 O144 O 0.42393 0.49968 0.02096
 O145 O 0.51729 0.44311 -0.07641
 C146 C 0.48011 0.42220 -0.10419
 C147 C 0.41864 0.49597 0.10564
 C148 C 0.49749 0.44078 0.15327
 C149 C 0.42234 0.51425 -0.15738
 O150 O 0.50942 0.54204 -0.20146
 O151 O 0.55057 0.52205 0.17977
 O152 O 0.57720 0.52523 -0.10020
 O153 O 0.48167 0.57688 0.05900
 O154 O 0.52613 0.57112 0.14468
 O155 O 0.53081 0.49039 -0.19650
 O156 O 0.51652 0.58309 -0.09250
 O157 O 0.58791 0.53292 0.06053
 Co158 Co 0.48531 0.49191 -0.14669
 Co159 Co 0.50125 0.51563 0.14641
 Co160 Co 0.54836 0.49033 -0.00709
 Co161 Co 0.47278 0.53970 -0.03459
 O162 O 0.50508 0.51079 -0.00442
 C163 C 0.51998 0.57764 -0.17622
 C164 C 0.58504 0.53267 0.14549
 C165 C 0.56847 0.51397 -0.18091
 C166 C 0.50976 0.59155 0.11952
 O167 O 0.53339 0.04529 -0.17641
 O168 O 0.48950 -0.02942 0.21381
 O169 O 0.57667 0.05109 0.08686
 O170 O 0.50517 -0.06670 -0.06202
 O171 O 0.53714 0.04445 0.20035
 O172 O 0.49777 -0.03145 -0.17321
 O173 O 0.51243 -0.05376 0.10851
 O174 O 0.57501 0.05198 -0.07232
 C175 C 0.56953 0.05604 -0.15315
 C176 C 0.50726 -0.04929 0.19084
 C177 C 0.57250 0.05250 0.17068
 C178 C 0.50895 -0.05645 -0.14487
 O179 O 0.42722 -0.03241 -0.12901
 O180 O 0.47249 0.05098 0.12228
 O181 O 0.52776 0.09071 -0.06733
 O182 O 0.43122 -0.07465 0.11580
 O183 O 0.42749 -0.02078 0.14529
 O184 O 0.46614 0.04367 -0.10683
 O185 O 0.42907 -0.08154 -0.05528
 O186 O 0.53555 0.09298 0.10120
 Co187 Co 0.48272 0.00632 -0.13017
 Co188 Co 0.48325 0.01123 0.15755
 Co189 Co 0.54850 0.06614 0.01201
 Co190 Co 0.47224 -0.06186 0.02703
 O191 O 0.49609 0.00472 0.01607
 C192 C 0.41140 -0.06941 -0.10995
 C193 C 0.50117 0.08661 0.12994
 C194 C 0.49278 0.08073 -0.10281
 C195 C 0.41096 -0.05857 0.14814
 C196 C 1.13395 0.44289 0.22396
 C197 C 1.11140 0.42010 0.30432
 C198 C 1.06757 0.39952 0.30192
 C199 C 1.04654 0.40613 0.23187
 C200 C 1.06831 0.43333 0.15997
 C201 C 1.11137 0.44742 0.14974
 C202 C 1.17809 0.46441 0.21682
 C203 C 1.19828 0.48440 0.13560
 C204 C 1.17553 0.48485 0.06071
 C205 C 1.13247 0.46696 0.06793
 H206 H 1.19807 0.46768 0.27327
 H207 H 1.23185 0.49969 0.13064
 H208 H 1.19141 0.49981 -0.00256
 H209 H 1.11545 0.46747 0.00850
 H210 H 1.04912 0.37977 0.35819
 H211 H 1.01308 0.39268 0.23935
 C212 C 0.50998 0.67742 0.26703
 C213 C 0.55073 0.69398 0.30556
 C214 C 0.57770 0.68144 0.26878
 C215 C 0.56474 0.65162 0.20035
 C216 C 0.52369 0.63174 0.16723
 C217 C 0.49658 0.64643 0.19642
 C218 C 0.48082 0.68826 0.30200
 C219 C 0.44098 0.67129 0.26561
 C220 C 0.42868 0.64254 0.19509
 C221 C 0.45576 0.62974 0.16149
 H222 H 0.48776 0.70953 0.35823
 H223 H 0.41940 0.68041 0.29268
 H224 H 0.39775 0.62984 0.16685
 H225 H 0.44398 0.60710 0.10743
 H226 H 0.60864 0.69334 0.29702
 H227 H 0.58638 0.64168 0.17811
 C228 C 0.32869 -0.08882 0.33975
 C229 C 0.31829 -0.13045 0.35099
 C230 C 0.32991 -0.14905 0.28128
 C231 C 0.35710 -0.12579 0.21077
 C232 C 0.37219 -0.08339 0.20435
 C233 C 0.35432 -0.06557 0.26369
 C234 C 0.31205 -0.07057 0.39964
 C235 C 0.32066 -0.03044 0.38609
 C236 C 0.34459 -0.00817 0.31093
 C237 C 0.36064 -0.02560 0.24947
 H238 H 0.29123 -0.08749 0.45591
 H239 H 0.30766 -0.01698 0.43264
 H240 H 0.34997 0.02251 0.29892
 H241 H 0.37602 -0.00785 0.18892
 H242 H 0.32163 -0.18101 0.28655
 H243 H 0.36865 -0.14075 0.16458
 C244 C 0.92942 0.57266 0.36233
 C245 C 0.88575 0.55595 0.35419
 C246 C 0.86684 0.53764 0.27022
 C247 C 0.88915 0.53080 0.20055
 C248 C 0.93069 0.54066 0.21377
 C249 C 0.95171 0.56392 0.29332
 C250 C 0.95136 0.59753 0.43848
 C251 C 0.99373 0.61154 0.44924
 C252 C 1.01513 0.60177 0.38374
 C253 C 0.99447 0.57863 0.30617
 H254 H 0.93603 0.60659 0.48983
 H255 H 1.01004 0.63018 0.50846
 H256 H 1.04800 0.61267 0.39248
 H257 H 1.01225 0.57303 0.25529
 H258 H 0.83367 0.52524 0.26130
 H259 H 0.87226 0.51336 0.14045
 C260 C 0.44233 0.34686 0.31078
 C261 C 0.47750 0.34785 0.35130
 C262 C 0.51730 0.37482 0.31596
 C263 C 0.52292 0.40285 0.24682
 C264 C 0.48886 0.40458 0.21032
 C265 C 0.44801 0.37483 0.23863
 C266 C 0.40148 0.31851 0.34045
 C267 C 0.36704 0.31714 0.29877
 C268 C 0.37257 0.34352 0.22637
 C269 C 0.41261 0.37195 0.19599
 H270 H 0.39584 0.29686 0.39509
 H271 H 0.33587 0.29513 0.32195
 H272 H 0.34569 0.34184 0.19329
 H273 H 0.41559 0.39107 0.13780
 H274 H 0.54448 0.37586 0.34600
 H275 H 0.55442 0.42509 0.22583
 C276 C 0.68330 0.09428 0.27210
 C277 C 0.67891 0.11367 0.35185
 C278 C 0.64123 0.11314 0.36754
 C279 C 0.60750 0.09216 0.30956
 C280 C 0.60998 0.07144 0.23119
 C281 C 0.64885 0.07320 0.21036
 C282 C 0.72110 0.09505 0.25328
 C283 C 0.72567 0.07621 0.17441
 C284 C 0.69263 0.05595 0.11376
 C285 C 0.65457 0.05402 0.13154
 H286 H 0.74749 0.11056 0.29890
 H287 H 0.75496 0.07723 0.16040
 H288 H 0.69631 0.04105 0.05301
 H289 H 0.63005 0.03659 0.08317
 H290 H 0.63718 0.12782 0.42799
 H291 H 0.57913 0.09265 0.32619
 C292 C 0.51384 0.17709 -0.23860
 C293 C 0.48643 0.15729 -0.31435
 C294 C 0.45779 0.11509 -0.30758
 C295 C 0.45733 0.09220 -0.23278
 C296 C 0.48629 0.10986 -0.16118
 C297 C 0.51276 0.15320 -0.16070
 C298 C 0.54490 0.21906 -0.24120
 C299 C 0.57109 0.23776 -0.16628
 C300 C 0.56742 0.21515 -0.08783
 C301 C 0.53872 0.17325 -0.08512
 H302 H 0.55015 0.23775 -0.30141
 H303 H 0.59441 0.27002 -0.16914
 H304 H 0.58731 0.23002 -0.02924
 H305 H 0.53633 0.15680 -0.02283
 H306 H 0.43547 0.09918 -0.36197
 H307 H 0.43561 0.05947 -0.23496
 C308 C 0.63110 0.51995 -0.39968
 C309 C 0.67104 0.55393 -0.38023
 C310 C 0.67654 0.57275 -0.29391
 C311 C 0.64254 0.55971 -0.23228
 C312 C 0.60226 0.52629 -0.25267
 C313 C 0.59707 0.50520 -0.33811
 C314 C 0.62761 0.49354 -0.47087
 C315 C 0.59081 0.47031 -0.52766
 C316 C 0.56076 0.44828 -0.45013
 C317 C 0.56188 0.46690 -0.36230
 H318 H 0.65205 0.48511 -0.46395
 H319 H 0.56918 0.44733 -0.57830
 H320 H 0.53052 0.42020 -0.46101
 H321 H 0.53608 0.45023 -0.31536
 H322 H 0.70660 0.59843 -0.27528
 H323 H 0.64795 0.57600 -0.16735
 C324 C 0.89057 0.31064 -0.24708
 C325 C 0.85378 0.30726 -0.28513
 C326 C 0.83473 0.32702 -0.24047
 C327 C 0.85285 0.35204 -0.16384
 C328 C 0.89142 0.35942 -0.13123
 C329 C 0.90959 0.33722 -0.16992
 C330 C 0.91064 0.29078 -0.28780
 C331 C 0.94818 0.29659 -0.25276
 C332 C 0.96662 0.32250 -0.17748
 C333 C 0.94773 0.34290 -0.13657
 H334 H 0.89766 0.27086 -0.34712
 H335 H 0.96321 0.28113 -0.28462
 H336 H 0.99589 0.32708 -0.15112
 H337 H 0.96298 0.36301 -0.07846
 H338 H 0.80676 0.32502 -0.26862
 H339 H 0.83911 0.36966 -0.13688
 C340 C 0.56934 -0.07867 -0.33326
 C341 C 0.55186 -0.12155 -0.31978
 C342 C 0.52652 -0.13983 -0.24300
 C343 C 0.51435 -0.11739 -0.18682
 C344 C 0.52548 -0.07654 -0.20792
 C345 C 0.55328 -0.05685 -0.28295
 C346 C 0.59899 -0.05858 -0.40426
 C347 C 0.61064 -0.01856 -0.42934
 C348 C 0.59271 0.00182 -0.38480
 C349 C 0.56459 -0.01692 -0.31215
 H350 H 0.61223 -0.07438 -0.44228
 H351 H 0.63271 -0.00378 -0.48517
 H352 H 0.60054 0.03234 -0.40653
 H353 H 0.55114 -0.00010 -0.28200
 H354 H 0.51267 -0.17256 -0.23175
 H355 H 0.49342 -0.13322 -0.12972
 C356 C 0.35033 0.51727 -0.34451
 C357 C 0.32691 0.47473 -0.36458
 C358 C 0.33249 0.44700 -0.31212
 C359 C 0.36227 0.46080 -0.24315
 C360 C 0.38786 0.50293 -0.22420
 C361 C 0.38134 0.53184 -0.27427
 C362 C 0.34426 0.54572 -0.39540
 C363 C 0.36852 0.58771 -0.37906
 C364 C 0.39938 0.60219 -0.31253
 C365 C 0.40596 0.57482 -0.26096
 H366 H 0.32077 0.53573 -0.44836
 H367 H 0.36368 0.60916 -0.41898
 H368 H 0.41878 0.63494 -0.30152
 H369 H 0.43146 0.58848 -0.21366
 H370 H 0.31482 0.41441 -0.32732
 H371 H 0.36613 0.43803 -0.20605
 C372 C 1.13207 0.60925 -0.35258
 C373 C 1.14159 0.65070 -0.34502
 C374 C 1.12760 0.66260 -0.26652
 C375 C 1.10026 0.63292 -0.20366
 C376 C 1.08404 0.59078 -0.22150
 C377 C 1.09922 0.57865 -0.29953
 C378 C 1.15452 0.59776 -0.41395
 C379 C 1.14001 0.55669 -0.43513
 C380 C 1.10309 0.52675 -0.39602
 C381 C 1.08347 0.53725 -0.32729
 H382 H 1.18291 0.62076 -0.44700
 H383 H 1.15672 0.54800 -0.48338
 H384 H 1.09025 0.49502 -0.41681
 H385 H 1.05564 0.51218 -0.29954
 H386 H 1.13548 0.69428 -0.25668
 H387 H 1.08972 0.64271 -0.14371
 C388 C 0.88380 0.55494 -0.26134
 C389 C 0.85185 0.52328 -0.31423
 C390 C 0.83639 0.48216 -0.29008
 C391 C 0.85459 0.47197 -0.21904
 C392 C 0.88892 0.50271 -0.17162
 C393 C 0.90232 0.54455 -0.18894
 C394 C 0.89877 0.59677 -0.28112
 C395 C 0.93085 0.62760 -0.22948
 C396 C 0.94855 0.61742 -0.15752
 C397 C 0.93452 0.57633 -0.13712
 H398 H 0.88565 0.60594 -0.33612
 H399 H 0.94193 0.65955 -0.24515
 H400 H 0.97327 0.64147 -0.11730
 H401 H 0.94873 0.56965 -0.07999
 H402 H 0.81214 0.45780 -0.33076
 H403 H 0.84429 0.43986 -0.20681
 C404 C 0.49048 0.34102 -0.23606
 C405 C 0.46335 0.33590 -0.31108
 C406 C 0.43550 0.35080 -0.30097
 C407 C 0.43654 0.37342 -0.22412
 C408 C 0.46626 0.38307 -0.15505
 C409 C 0.49000 0.36302 -0.15569
 C410 C 0.52076 0.32841 -0.24096
 C411 C 0.54562 0.33270 -0.16544
 C412 C 0.54191 0.35057 -0.08423
 C413 C 0.51471 0.36603 -0.07942
 H414 H 0.52666 0.31605 -0.30292
 H415 H 0.56802 0.32222 -0.17016
 H416 H 0.56089 0.35332 -0.02543
 H417 H 0.51282 0.38002 -0.01532
 H418 H 0.41341 0.34603 -0.35474
 H419 H 0.41659 0.38689 -0.22387
 C420 C 0.64602 0.12674 -0.33611
 C421 C 0.67593 0.11370 -0.33172
 C422 C 0.67181 0.08482 -0.26673
 C423 C 0.63744 0.06743 -0.20792
 C424 C 0.60560 0.07722 -0.21554
 C425 C 0.61001 0.10779 -0.27888
 C426 C 0.65096 0.15789 -0.39783
 C427 C 0.62064 0.16923 -0.40485
 C428 C 0.58522 0.15044 -0.34973
 C429 C 0.58009 0.12055 -0.28645
 H430 H 0.67804 0.17372 -0.44192
 H431 H 0.62466 0.19270 -0.45334
 H432 H 0.56173 0.15926 -0.35600
 H433 H 0.55258 0.10812 -0.24419
 H434 H 0.69455 0.07472 -0.26366
 H435 H 0.63465 0.04458 -0.15887
 C436 C 1.14078 0.47274 -0.30274
 C437 C 1.11654 0.43888 -0.36259
 C438 C 1.07375 0.41420 -0.34424
 C439 C 1.05456 0.42276 -0.27140
 C440 C 1.07697 0.45642 -0.21236
 C441 C 1.12145 0.48030 -0.22439
 C442 C 1.18285 0.50190 -0.32411
 C443 C 1.20671 0.53452 -0.26526
 C444 C 1.18929 0.53945 -0.18468
 C445 C 1.14736 0.51304 -0.16460
 H446 H 1.19769 0.50099 -0.38779
 H447 H 1.23892 0.55608 -0.28236
 H448 H 1.20822 0.56436 -0.13790
 H449 H 1.13685 0.51878 -0.10036
 H450 H 1.05451 0.38808 -0.38805
 H451 H 1.02109 0.40360 -0.26404
 C452 C 0.51232 0.63243 -0.39285
 C453 C 0.54366 0.67356 -0.37377
 C454 C 0.56327 0.68270 -0.28765
 C455 C 0.55554 0.65133 -0.22520
 C456 C 0.52860 0.60979 -0.24720
 C457 C 0.50625 0.60009 -0.33282
 C458 C 0.48518 0.62333 -0.46896
 C459 C 0.45644 0.58318 -0.49272
 C460 C 0.45271 0.55125 -0.43929
 C461 C 0.47633 0.55946 -0.35971
 H462 H 0.48541 0.64727 -0.51022
 H463 H 0.43658 0.57690 -0.55195
 H464 H 0.42990 0.51991 -0.45700
 H465 H 0.46863 0.53299 -0.31999
 H466 H 0.58625 0.71405 -0.27028
 H467 H 0.57162 0.65954 -0.15983
 C468 C 0.31877 -0.10975 -0.27021
 C469 C 0.32208 -0.14223 -0.31198
 C470 C 0.34775 -0.15535 -0.27235
 C471 C 0.37337 -0.13402 -0.19829
 C472 C 0.37394 -0.09902 -0.16183
 C473 C 0.34442 -0.08838 -0.19361
 C474 C 0.29075 -0.09779 -0.30360
 C475 C 0.28776 -0.06578 -0.26176
 C476 C 0.31223 -0.04540 -0.18575
 C477 C 0.34021 -0.05658 -0.15153
 H478 H 0.27064 -0.11336 -0.36145
 H479 H 0.26605 -0.05700 -0.28789
 H480 H 0.30938 -0.02092 -0.15284
 H481 H 0.35788 -0.04068 -0.09093
 H482 H 0.35018 -0.18046 -0.30317
 H483 H 0.39562 -0.14271 -0.17512
 C484 C 0.55297 -0.10757 0.30963
 C485 C 0.51740 -0.13606 0.36079
 C486 C 0.48066 -0.13404 0.35730
 C487 C 0.47893 -0.10381 0.30631
 C488 C 0.51371 -0.07507 0.25621
 C489 C 0.55093 -0.07706 0.25636
 C490 C 0.59109 -0.10770 0.31292
 C491 C 0.62583 -0.07916 0.26309
 C492 C 0.62355 -0.04975 0.20997
 C493 C 0.58662 -0.04844 0.20689
 H494 H 0.59460 -0.12973 0.35338
 H495 H 0.65470 -0.07983 0.26588
 H496 H 0.65065 -0.02771 0.17154
 H497 H 0.58637 -0.02456 0.16661
 H498 H 0.45379 -0.15471 0.39858
 H499 H 0.44989 -0.10336 0.30449
 C500 C 0.32592 0.48872 0.23350
 C501 C 0.31967 0.45765 0.29721
 C502 C 0.33959 0.43477 0.28236
 C503 C 0.36829 0.44462 0.21100
 C504 C 0.37729 0.47690 0.15069
 C505 C 0.35408 0.49748 0.15788
 C506 C 0.30681 0.51292 0.24591
 C507 C 0.31380 0.54362 0.18303
 C508 C 0.33954 0.55060 0.10665
 C509 C 0.35995 0.52815 0.09463
 H510 H 0.28654 0.50861 0.30409
 H511 H 0.29883 0.56185 0.19317
 H512 H 0.34429 0.57399 0.05725
 H513 H 0.37984 0.53459 0.03506
 H514 H 0.33528 0.41110 0.33070
 H515 H 0.38637 0.42928 0.20785
 C516 C 1.15568 0.61867 0.31757
 C517 C 1.15110 0.65377 0.32565
 C518 C 1.12147 0.65635 0.27192
 C519 C 1.09383 0.62303 0.21823
 C520 C 1.09297 0.58519 0.22203
 C521 C 1.12554 0.58340 0.26859
 C522 C 1.18946 0.61794 0.35939
 C523 C 1.19330 0.58295 0.35439
 C524 C 1.16308 0.54791 0.30980
 C525 C 1.12965 0.54801 0.26663
 H526 H 1.21328 0.64465 0.39523
 H527 H 1.21934 0.58270 0.38696
 H528 H 1.16568 0.52057 0.30883
 H529 H 1.10760 0.52036 0.23146
 H530 H 1.11756 0.68303 0.27701
 H531 H 1.07094 0.62599 0.17821
 C532 C 0.52629 0.17549 0.29785
 C533 C 0.48789 0.15770 0.34653
 C534 C 0.45387 0.12171 0.31380
 C535 C 0.45802 0.10150 0.23728
 C536 C 0.49657 0.11628 0.19131
 C537 C 0.53062 0.15530 0.21812
 C538 C 0.56083 0.21261 0.32837
 C539 C 0.59844 0.23040 0.27992
 C540 C 0.60237 0.21181 0.20023
 C541 C 0.56902 0.17485 0.16936
 H542 H 0.55910 0.22833 0.38968
 H543 H 0.62454 0.25897 0.30382
 H544 H 0.63144 0.22617 0.16179
 H545 H 0.57396 0.16305 0.10573
 H546 H 0.42423 0.10822 0.35014
 H547 H 0.43126 0.07247 0.21779
 C548 C 0.63494 0.50298 0.32688
 C549 C 0.67806 0.52892 0.30918
 C550 C 0.68989 0.55128 0.22655
 C551 C 0.65942 0.55184 0.17104
 C552 C 0.61856 0.53597 0.20569
 C553 C 0.60876 0.51602 0.29294
 C554 C 0.61909 0.47197 0.39569
 C555 C 0.57430 0.49731 0.44348
 C556 C 0.57868 0.51429 0.35474
 H557 H 0.63735 0.45606 0.39926
 H558 H 0.58566 0.43861 0.47765
 H559 H 0.55562 0.50478 0.48984
 H560 H 0.56311 0.53149 0.34172
 H561 H 0.72253 0.57044 0.20871
 H562 H 0.66832 0.56741 0.10523
 C563 C 0.83594 0.36510 0.38464
 C564 C 0.84124 0.33020 0.38698
 C565 C 0.86280 0.32363 0.31513
 C566 C 0.88103 0.35190 0.24439
 C567 C 0.87798 0.38758 0.24229
 C568 C 0.85465 0.39416 0.31177
 C569 C 0.81262 0.37182 0.45325
 C570 C 0.80881 0.40692 0.45172
 C571 C 0.82784 0.43571 0.38184
 C572 C 0.85059 0.42954 0.31246
 H573 H 0.79695 0.34995 0.50812
 H574 H 0.79100 0.41181 0.50498
 H575 H 0.82471 0.46284 0.38122
 H576 H 0.86486 0.45259 0.25964
 H577 H 0.86723 0.29721 0.31601
 H578 H 0.89868 0.34633 0.19177
   
