data_POSCAR
  _audit_creation_date              2014-09-24
  _audit_creation_method            'ToBaCCo'
  _symmetry_space_group_name_H-M    'P1'
  _symmetry_Int_Tables_number       1
  _symmetry_cell_setting            triclinic
  loop_
  _symmetry_equiv_pos_as_xyz
 x,y,z
_cell_length_a 29.3351
_cell_length_b 28.4026
_cell_length_c 24.7888
_cell_angle_alpha 89.695800
_cell_angle_beta 90.467600
_cell_angle_gamma 89.825600
loop_
  _atom_site_label
  _atom_site_type_symbol
  _atom_site_fract_x
  _atom_site_fract_y
  _atom_site_fract_z
C1 C 0.32497 -0.06899 0.26522
 C2 C 0.34708 -0.02486 0.25905
 C3 C 0.38924 -0.02281 0.23314
 C4 C 0.41139 -0.06323 0.21648
 C5 C 0.38997 -0.10633 0.22178
 C6 C 0.34606 -0.11011 0.24422
 C7 C 0.33589 0.01859 0.28893
 C8 C 0.36432 0.02561 0.33378
 C9 C 0.38576 0.06938 0.34256
 C10 C 0.36855 0.10887 0.31481
 C11 C 0.33432 0.10389 0.27498
 C12 C 0.31936 0.05846 0.26064
 H13 H 0.29264 -0.07099 0.28580
 H14 H 0.40645 0.01083 0.22904
 H15 H 0.37502 -0.00534 0.35633
 H16 H 0.29849 0.05391 0.22480
 H17 H 0.40801 -0.13737 0.20801
 H18 H 0.38294 0.14333 0.32252
 C19 C 0.18117 -0.06543 0.72986
 C20 C 0.16629 -0.02224 0.75226
 C21 C 0.13619 -0.02343 0.79552
 C22 C 0.11584 -0.06524 0.81212
 C23 C 0.12899 -0.10779 0.78872
 C24 C 0.16339 -0.10858 0.74923
 C25 C 0.16672 0.02301 0.72194
 C26 C 0.14152 0.02312 0.67402
 C27 C 0.11490 0.06226 0.65861
 C28 C 0.11900 0.10410 0.68796
 C29 C 0.15105 0.10736 0.73059
 C30 C 0.17384 0.06628 0.74862
 H31 H 0.20390 -0.06528 0.69565
 H32 H 0.12426 0.00944 0.81267
 H33 H 0.13648 -0.01022 0.65360
 H34 H 0.19384 0.06710 0.78551
 H35 H 0.11393 -0.14037 0.80277
 H36 H 0.09997 0.13505 0.67534
 C37 C 0.67206 0.44045 0.24651
 C38 C 0.65133 0.48404 0.25864
 C39 C 0.60949 0.48457 0.28564
 C40 C 0.58617 0.44293 0.29628
 C41 C 0.60610 0.40028 0.28339
 C42 C 0.64962 0.39838 0.26031
 C43 C 0.65995 0.52627 0.22591
 C44 C 0.63931 0.52432 0.17523
 C45 C 0.61573 0.56315 0.15456
 C46 C 0.61998 0.60669 0.17973
 C47 C 0.64873 0.61131 0.22516
 C48 C 0.66705 0.57055 0.24993
 H49 H 0.70403 0.43956 0.22504
 H50 H 0.59276 0.51796 0.29345
 H51 H 0.63394 0.49010 0.15685
 H52 H 0.68335 0.57285 0.28919
 H53 H 0.58766 0.36810 0.29204
 H54 H 0.60235 0.63692 0.16287
 C55 C 0.81236 0.43752 0.74498
 C56 C 0.82327 0.48500 0.73163
 C57 C 0.85381 0.49333 0.68971
 C58 C 0.88157 0.45735 0.67078
 C59 C 0.87287 0.41084 0.68606
 C60 C 0.83617 0.39988 0.72032
 C61 C 0.82411 0.52268 0.77298
 C62 C 0.85431 0.51275 0.81535
 C63 C 0.88490 0.54680 0.83408
 C64 C 0.87781 0.59396 0.81888
 C65 C 0.84165 0.60671 0.78367
 C66 C 0.81584 0.57052 0.75904
 H67 H 0.78883 0.43037 0.77739
 H68 H 0.86234 0.52932 0.67893
 H69 H 0.86021 0.47610 0.82609
 H70 H 0.79290 0.57886 0.72591
 H71 H 0.89383 0.38301 0.66963
 H72 H 0.89966 0.62112 0.83512
 C73 C 0.24200 0.38961 1.09764
 C74 C 0.26232 0.40334 1.04875
 C75 C 0.30324 0.42809 1.04937
 C76 C 0.32366 0.44177 1.09797
 C77 C 0.30320 0.42879 1.14656
 C78 C 0.26300 0.40136 1.14731
 C79 C 0.24067 0.39539 0.99581
 C80 C 0.20130 0.42057 0.98223
 C81 C 0.18366 0.42065 0.92924
 C82 C 0.20640 0.39348 0.88985
 C83 C 0.24651 0.36766 0.90334
 C84 C 0.26308 0.36897 0.95643
 H85 H 0.21037 0.37013 1.09644
 H86 H 0.31916 0.43637 1.01120
 H87 H 0.18479 0.44021 1.01376
 H88 H 0.29368 0.34947 0.96722
 H89 H 0.32035 0.43796 1.18399
 H90 H 0.19209 0.39109 0.84954
 C91 C 0.75734 0.12532 1.07333
 C92 C 0.73442 0.11377 1.02478
 C93 C 0.69032 0.09621 1.02683
 C94 C 0.67086 0.08394 1.07568
 C95 C 0.69454 0.09173 1.12395
 C96 C 0.73709 0.11501 1.12359
 C97 C 0.75842 0.10814 0.97317
 C98 C 0.79779 0.08066 0.97349
 C99 C 0.81612 0.06356 0.92572
 C100 C 0.79534 0.07482 0.87642
 C101 C 0.75653 0.10439 0.87471
 C102 C 0.73782 0.12045 0.92344
 H103 H 0.79150 0.13956 1.07169
 H104 H 0.67229 0.08804 0.98972
 H105 H 0.81364 0.07087 1.01166
 H106 H 0.70692 0.14135 0.92314
 H107 H 0.67807 0.08302 1.16172
 H108 H 0.81129 0.06337 0.83942
 C109 C 0.26752 0.62373 0.54115
 C110 C 0.23995 0.59656 0.50761
 C111 C 0.20109 0.57517 0.52786
 C112 C 0.18958 0.57883 0.58259
 C113 C 0.21751 0.60657 0.61639
 C114 C 0.25683 0.62908 0.59537
 C115 C 0.25559 0.58489 0.45354
 C116 C 0.29512 0.55790 0.44957
 C117 C 0.31325 0.54670 0.39927
 C118 C 0.29147 0.56371 0.35280
 C119 C 0.25190 0.59186 0.35621
 C120 C 0.23330 0.60154 0.40700
 H121 H 0.29757 0.64065 0.52488
 H122 H 0.18006 0.55539 0.50047
 H123 H 0.31263 0.54744 0.48641
 H124 H 0.20294 0.62299 0.41070
 H125 H 0.20802 0.61152 0.65804
 H126 H 0.30680 0.55693 0.31393
 C127 C 0.74064 0.88548 0.57417
 C128 C 0.75934 0.89187 0.52222
 C129 C 0.80147 0.91366 0.51754
 C130 C 0.82309 0.93437 0.56145
 C131 C 0.80369 0.93042 0.61276
 C132 C 0.76397 0.90284 0.62025
 C133 C 0.73329 0.88562 0.47118
 C134 C 0.69075 0.90772 0.46709
 C135 C 0.67228 0.92018 0.41660
 C136 C 0.69553 0.90782 0.36975
 C137 C 0.73788 0.88443 0.37256
 C138 C 0.75588 0.87196 0.42333
 H139 H 0.70837 0.86753 0.57834
 H140 H 0.81601 0.91875 0.47780
 H141 H 0.67353 0.91839 0.50355
 H142 H 0.78936 0.85585 0.42578
 H143 H 0.82203 0.94433 0.64729
 H144 H 0.68108 0.91765 0.33087
 C145 C -0.04724 0.27426 0.34931
 C146 C -0.01060 0.26531 0.38420
 C147 C -0.00802 0.22303 0.41364
 C148 C -0.04112 0.18817 0.40679
 C149 C -0.07605 0.19599 0.36789
 C150 C -0.08025 0.23959 0.34002
 C151 C 0.02286 0.30180 0.39633
 C152 C 0.01677 0.32647 0.44411
 C153 C 0.05422 0.34383 0.47237
 C154 C 0.09777 0.34163 0.44837
 C155 C 0.10368 0.32128 0.39657
 C156 C 0.06557 0.30055 0.37150
 H157 H -0.04998 0.30836 0.32963
 H158 H 0.02007 0.21793 0.44168
 H159 H -0.01598 0.32441 0.46411
 H160 H 0.06941 0.27935 0.33573
 H161 H -0.10220 0.16945 0.36312
 H162 H 0.12726 0.35297 0.47140
 C163 C -0.07341 0.76770 0.13544
 C164 C -0.03163 0.76470 0.10870
 C165 C -0.02565 0.78712 0.05885
 C166 C -0.06196 0.80895 0.03234
 C167 C -0.10451 0.80995 0.05775
 C168 C -0.11048 0.79057 0.10990
 C169 C 0.00181 0.72789 0.12096
 C170 C 0.00086 0.69016 0.08471
 C171 C 0.04165 0.67163 0.06456
 C172 C 0.08279 0.68657 0.08833
 C173 C 0.08324 0.71779 0.13218
 C174 C 0.04264 0.73998 0.14702
 H175 H -0.07798 0.74826 0.17269
 H176 H 0.00657 0.78279 0.03836
 H177 H -0.03152 0.68234 0.06580
 H178 H 0.04364 0.76996 0.17388
 H179 H -0.13295 0.82701 0.03723
 H180 H 0.11465 0.67485 0.07141
 C181 C 0.43288 0.26538 0.64883
 C182 C 0.47458 0.26256 0.62169
 C183 C 0.48178 0.28891 0.57465
 C184 C 0.44633 0.31404 0.55081
 C185 C 0.40474 0.31756 0.57809
 C186 C 0.39782 0.29420 0.62773
 C187 C 0.50537 0.22250 0.62844
 C188 C 0.50084 0.18850 0.58805
 C189 C 0.53932 0.16661 0.56666
 C190 C 0.58184 0.17468 0.59102
 C191 C 0.58591 0.20463 0.63577
 C192 C 0.54757 0.22908 0.65408
 H193 H 0.42697 0.24271 0.68328
 H194 H 0.51340 0.28435 0.55290
 H195 H 0.46847 0.18618 0.56686
 H196 H 0.55179 0.25753 0.68266
 H197 H 0.37726 0.33798 0.55997
 H198 H 0.61209 0.15900 0.57379
 C199 C 0.46087 0.75732 0.84352
 C200 C 0.49854 0.74619 0.87608
 C201 C 0.50131 0.70287 0.90280
 C202 C 0.46692 0.66954 0.89636
 C203 C 0.43052 0.67958 0.86078
 C204 C 0.42647 0.72396 0.83556
 C205 C 0.53184 0.78166 0.89100
 C206 C 0.52803 0.80103 0.94247
 C207 C 0.56440 0.82547 0.96553
 C208 C 0.60471 0.83025 0.93600
 C209 C 0.60894 0.81074 0.88417
 C210 C 0.57195 0.78690 0.86128
 H211 H 0.45755 0.79232 0.82623
 H212 H 0.53050 0.69578 0.92869
 H213 H 0.49755 0.79407 0.96548
 H214 H 0.57579 0.76846 0.82342
 H215 H 0.40326 0.65430 0.85666
 H216 H 0.63359 0.84822 0.95404
 C217 C -0.31595 0.56719 0.99926
 C218 C -0.27282 0.58052 1.02073
 C219 C -0.27170 0.61478 1.06116
 C220 C -0.30908 0.64465 1.06966
 C221 C -0.35081 0.63410 1.04474
 C222 C -0.35559 0.59373 1.01143
 C223 C -0.23273 0.58396 0.98446
 C224 C -0.23803 0.61958 0.94587
 C225 C -0.20117 0.64618 0.92789
 C226 C -0.15711 0.63079 0.94085
 C227 C -0.14969 0.59082 0.97420
 C228 C -0.18790 0.56883 0.99858
 H229 H -0.31739 0.54084 0.96790
 H230 H -0.23874 0.62501 1.07748
 H231 H -0.27242 0.63127 0.93592
 H232 H -0.18299 0.54216 1.02943
 H233 H -0.37958 0.65728 1.05162
 H234 H -0.12823 0.64995 0.92525
 C235 C -0.29906 0.45295 0.48766
 C236 C -0.25544 0.43572 0.47345
 C237 C -0.25186 0.40552 0.42970
 C238 C -0.29032 0.38502 0.40684
 C239 C -0.33404 0.39951 0.42298
 C240 C -0.33909 0.43533 0.46256
 C241 C -0.21889 0.42900 0.51431
 C242 C -0.23060 0.39809 0.55575
 C243 C -0.19857 0.36724 0.57798
 C244 C -0.15252 0.37195 0.56462
 C245 C -0.13841 0.40775 0.52898
 C246 C -0.17217 0.43508 0.50194
 H247 H -0.30201 0.47632 0.52189
 H248 H -0.21852 0.39222 0.41845
 H249 H -0.26635 0.39278 0.56494
 H250 H -0.16277 0.45837 0.46920
 H251 H -0.36325 0.38498 0.40208
 H252 H -0.12747 0.34908 0.58365
 C253 C 0.17606 -0.07780 -0.01473
 C254 C 0.22259 -0.08074 -0.02833
 C255 C 0.23521 -0.10788 -0.07272
 C256 C 0.20418 -0.13869 -0.09727
 C257 C 0.15843 -0.13742 -0.08139
 C258 C 0.14371 -0.10595 -0.04161
 C259 C 0.25817 -0.07514 0.01382
 C260 C 0.25217 -0.10302 0.05944
 C261 C 0.28927 -0.12448 0.08530
 C262 C 0.33382 -0.11042 0.07174
 C263 C 0.34017 -0.07449 0.03244
 C264 C 0.30221 -0.05865 0.00204
 H265 H 0.16619 -0.05735 0.02001
 H266 H 0.27112 -0.11060 -0.08252
 H267 H 0.21804 -0.11517 0.06876
 H268 H 0.30718 -0.03558 -0.03235
 H269 H 0.13353 -0.15967 -0.10092
 H270 H 0.36256 -0.12447 0.09438
 C271 C 0.17915 1.06773 0.50174
 C272 C 0.22312 1.07300 0.52457
 C273 C 0.22810 1.10197 0.56979
 C274 C 0.19275 1.13197 0.58609
 C275 C 0.15087 1.13063 0.55868
 C276 C 0.14317 1.09737 0.51762
 C277 C 0.26360 1.06950 0.48919
 C278 C 0.25958 1.09641 0.44209
 C279 C 0.29542 1.12485 0.42523
 C280 C 0.33860 1.11717 0.44756
 C281 C 0.34605 1.08039 0.48518
 C282 C 0.30789 1.05847 0.50890
 H283 H 0.17479 1.04535 0.46685
 H284 H 0.26166 1.10619 0.58778
 H285 H 0.22586 1.10305 0.42534
 H286 H 0.31222 1.03628 0.54424
 H287 H 0.12341 1.15358 0.57122
 H288 H 0.36691 1.13816 0.43376
 C289 C 0.10882 0.49890 0.20603
 C290 C 0.13394 0.52818 0.24027
 C291 C 0.15441 0.56806 0.21949
 C292 C 0.15612 0.57658 0.16406
 C293 C 0.13100 0.54715 0.12922
 C294 C 0.10666 0.50818 0.15064
 C295 C 0.15265 0.50887 0.29054
 C296 C 0.18468 0.47322 0.28506
 C297 C 0.19932 0.44749 0.32951
 C298 C 0.18620 0.46069 0.38096
 C299 C 0.15413 0.49699 0.38768
 C300 C 0.13777 0.52199 0.34189
 H301 H 0.09282 0.46755 0.22222
 H302 H 0.17122 0.59137 0.24671
 H303 H 0.19426 0.46179 0.24494
 H304 H 0.11215 0.54922 0.34508
 H305 H 0.12971 0.55501 0.08647
 H306 H 0.19588 0.43830 0.41478
 C307 C -0.10064 0.98775 0.18145
 C308 C -0.12844 0.97010 0.22246
 C309 C -0.16306 0.93854 0.20985
 C310 C -0.17202 0.92518 0.15619
 C311 C -0.14474 0.94444 0.11497
 C312 C -0.10955 0.97708 0.12727
 C313 C -0.13389 0.99756 0.27187
 C314 C -0.15298 1.04186 0.26464
 C315 C -0.16976 1.06769 0.30774
 C316 C -0.16434 1.04954 0.36038
 C317 C -0.14097 1.00629 0.36898
 C318 C -0.12786 0.97920 0.32406
 H319 H -0.07502 1.01381 0.19154
 H320 H -0.18347 0.92545 0.24269
 H321 H -0.15780 1.05488 0.22364
 H322 H -0.11283 0.94461 0.32942
 H323 H -0.15051 0.93319 0.07379
 H324 H -0.17476 1.07040 0.39461
 C325 C 0.38873 0.51062 -0.32743
 C326 C 0.37590 0.49652 -0.27498
 C327 C 0.34631 0.45861 -0.26834
 C328 C 0.32853 0.43452 -0.31202
 C329 C 0.33988 0.44878 -0.36414
 C330 C 0.37143 0.48591 -0.37279
 C331 C 0.38673 0.52269 -0.22522
 C332 C 0.36081 0.56294 -0.21660
 C333 C 0.34579 0.57517 -0.16464
 C334 C 0.36099 0.54765 -0.11997
 C335 C 0.38880 0.50734 -0.12805
 C336 C 0.40346 0.49721 -0.18052
 H337 H 0.41158 0.54013 -0.33233
 H338 H 0.33678 0.44745 -0.22800
 H339 H 0.34908 0.58236 -0.25172
 H340 H 0.42028 0.46377 -0.18777
 H341 H 0.32742 0.42784 -0.39761
 H342 H 0.34721 0.55431 -0.08031
 C343 C 0.60490 -0.00753 -0.28508
 C344 C 0.63267 0.01761 -0.24929
 C345 C 0.66004 0.05390 -0.26852
 C346 C 0.66166 0.06496 -0.32365
 C347 C 0.63518 0.03815 -0.35998
 C348 C 0.60649 0.00141 -0.34079
 C349 C 0.64241 -0.00127 -0.19520
 C350 C 0.67381 -0.03817 -0.19184
 C351 C 0.68825 -0.05623 -0.14191
 C352 C 0.66938 -0.03737 -0.09490
 C353 C 0.63689 -0.00048 -0.09740
 C354 C 0.62389 0.01803 -0.14807
 H355 H 0.58424 -0.03616 -0.26976
 H356 H 0.68049 0.07331 -0.23997
 H357 H 0.68618 -0.05326 -0.22903
 H358 H 0.59978 0.04689 -0.15101
 H359 H 0.63515 0.04765 -0.40237
 H360 H 0.67898 -0.05258 -0.05621
 C361 C -0.02758 0.17407 0.87588
 C362 C -0.02707 0.21748 0.84873
 C363 C -0.05340 0.22475 0.80232
 C364 C -0.08063 0.18881 0.78213
 C365 C -0.08114 0.14526 0.80887
 C366 C -0.05483 0.13748 0.85590
 C367 C 0.00663 0.25308 0.86157
 C368 C 0.04588 0.25421 0.83011
 C369 C 0.07516 0.29249 0.83311
 C370 C 0.06590 0.32874 0.86995
 C371 C 0.02620 0.32830 0.90138
 C372 C -0.00381 0.29029 0.89633
 H373 H -0.00505 0.16843 0.91011
 H374 H -0.05133 0.25808 0.78094
 H375 H 0.05278 0.22555 0.80265
 H376 H -0.03591 0.29042 0.91769
 H377 H -0.10248 0.11732 0.79310
 H378 H 0.08867 0.35841 0.87201
 C379 C 0.51322 0.18918 0.12553
 C380 C 0.51980 0.23328 0.14993
 C381 C 0.55350 0.23866 0.18992
 C382 C 0.57979 0.20019 0.20741
 C383 C 0.57288 0.15651 0.18305
 C384 C 0.53987 0.15056 0.14227
 C385 C 0.48315 0.26846 0.14987
 C386 C 0.45095 0.26305 0.19074
 C387 C 0.42437 0.30097 0.20700
 C388 C 0.42861 0.34441 0.17972
 C389 C 0.45893 0.34994 0.13639
 C390 C 0.48685 0.31164 0.12196
 H391 H 0.48489 0.18404 0.09789
 H392 H 0.55580 0.27194 0.21093
 H393 H 0.45017 0.23032 0.21336
 H394 H 0.51349 0.31643 0.09244
 H395 H 0.59285 0.12646 0.19674
 H396 H 0.40834 0.37428 0.19245
 C397 C 0.00623 0.70884 0.60093
 C398 C 0.01746 0.74710 0.63386
 C399 C 0.05866 0.74785 0.66270
 C400 C 0.08986 0.71128 0.65680
 C401 C 0.08003 0.67489 0.62029
 C402 C 0.03754 0.67216 0.59383
 C403 C -0.01611 0.78331 0.64531
 C404 C -0.04299 0.77744 0.69098
 C405 C -0.06870 0.81502 0.71049
 C406 C -0.06736 0.85843 0.68302
 C407 C -0.04296 0.86364 0.63474
 C408 C -0.01656 0.82584 0.61637
 H409 H -0.02730 0.70701 0.58234
 H410 H 0.06614 0.77691 0.68950
 H411 H -0.04131 0.74440 0.71302
 H412 H 0.00535 0.82990 0.58173
 H413 H 0.10492 0.64759 0.61480
 H414 H -0.08735 0.88782 0.69777
 C415 C 0.47363 0.67412 0.37798
 C416 C 0.47349 0.71694 0.34971
 C417 C 0.44565 0.72339 0.30432
 C418 C 0.41765 0.68703 0.28620
 C419 C 0.41890 0.64358 0.31333
 C420 C 0.44663 0.63696 0.35940
 C421 C 0.50710 0.75298 0.36168
 C422 C 0.54591 0.75533 0.32954
 C423 C 0.57631 0.79262 0.33523
 C424 C 0.56798 0.82697 0.37499
 C425 C 0.52818 0.82552 0.40650
 C426 C 0.49779 0.78815 0.39930
 H427 H 0.49716 0.66875 0.41141
 H428 H 0.44688 0.75648 0.28234
 H429 H 0.55205 0.72797 0.30017
 H430 H 0.46606 0.78730 0.42143
 H431 H 0.39810 0.61476 0.29868
 H432 H 0.59143 0.85594 0.37933
 B433 B -0.05784 -0.01169 0.98952
 B434 B -0.07452 -0.01803 0.92472
 B435 B -0.03280 0.01984 0.93953
 B436 B -0.00120 -0.00245 0.99124
 B437 B -0.02345 -0.05638 1.00665
 B438 B -0.06979 -0.06496 0.96536
 B439 B 0.00620 -0.05971 0.90289
 B440 B 0.02231 -0.05221 0.96736
 B441 B -0.01965 -0.09064 0.95192
 B442 B -0.05123 -0.06823 0.90044
 B443 B -0.02820 -0.01515 0.88460
 B444 B 0.01722 -0.00492 0.92632
 B445 B 0.45098 0.49379 0.50440
 B446 B 0.42487 0.48173 0.44506
 B447 B 0.46686 0.52161 0.44734
 B448 B 0.50734 0.50319 0.49244
 B449 B 0.48903 0.45052 0.51768
 B450 B 0.43744 0.43827 0.48839
 B451 B 0.50065 0.44025 0.40939
 B452 B 0.52757 0.45168 0.46752
 B453 B 0.48462 0.41261 0.46592
 B454 B 0.44497 0.43075 0.42093
 B455 B 0.46330 0.48290 0.39568
 B456 B 0.51482 0.49627 0.42483
 B457 B 0.54848 0.98134 0.52744
 B458 B 0.56659 0.99090 0.46417
 B459 B 0.52839 0.94876 0.47645
 B460 B 0.49228 0.96722 0.52512
 B461 B 0.50934 1.02236 0.54262
 B462 B 0.55640 1.03597 0.50506
 B463 B 0.48449 1.02512 0.43613
 B464 B 0.46547 1.01549 0.49899
 B465 B 0.50528 1.05754 0.48805
 B466 B 0.54050 1.03878 0.43870
 B467 B 0.52311 0.98351 0.42119
 B468 B 0.47653 0.96943 0.45876
 B469 B 0.05064 0.48355 1.01997
 B470 B 0.07137 0.49360 0.95774
 B471 B 0.03083 0.45314 0.96727
 B472 B -0.00586 0.47218 1.01519
 B473 B 0.01287 0.52611 1.03506
 B474 B 0.06156 0.53819 0.99982
 B475 B -0.00888 0.53249 0.92834
 B476 B -0.02992 0.52220 0.98997
 B477 B 0.01187 0.56256 0.98183
 B478 B 0.04767 0.54349 0.93320
 B479 B 0.02844 0.48946 0.91259
 B480 B -0.01957 0.47640 0.94855
 B481 B 0.06333 0.50502 0.50025
 B482 B 0.07976 0.50390 0.56540
 B483 B 0.03982 0.54209 0.54389
 B484 B 0.00716 0.51585 0.49598
 B485 B 0.02791 0.45973 0.48837
 B486 B 0.07327 0.45323 0.53170
 B487 B -0.00249 0.46927 0.59163
 B488 B -0.01811 0.46979 0.52656
 B489 B 0.02259 0.43198 0.54843
 B490 B 0.05423 0.45861 0.59636
 B491 B 0.03352 0.51428 0.60390
 B492 B -0.01165 0.52127 0.56027
 B493 B 0.54474 0.00477 0.01100
 B494 B 0.56663 -0.00116 0.07372
 B495 B 0.51937 0.03130 0.06397
 B496 B 0.48696 0.00588 0.01544
 B497 B 0.51503 -0.04398 -0.00411
 B498 B 0.56503 -0.04753 0.03203
 B499 B 0.49507 -0.05371 0.10228
 B500 B 0.47234 -0.04728 0.04074
 B501 B 0.51994 -0.07957 0.05005
 B502 B 0.55233 -0.05448 0.09839
 B503 B 0.52412 -0.00521 0.11802
 B504 B 0.47420 -0.00073 0.08234
 B505 B 0.45027 0.48222 -0.01910
 B506 B 0.43224 0.50261 0.04038
 B507 B 0.47329 0.46149 0.03866
 B508 B 0.50728 0.47224 -0.01513
 B509 B 0.48616 0.52107 -0.04684
 B510 B 0.43884 0.53930 -0.01187
 B511 B 0.51219 0.54588 0.05573
 B512 B 0.53105 0.52595 -0.00380
 B513 B 0.48871 0.56618 -0.00282
 B514 B 0.45549 0.55563 0.05137
 B515 B 0.47669 0.50648 0.08306
 B516 B 0.52345 0.48770 0.04832
 B517 B -0.05391 0.99795 0.48222
 B518 B -0.06977 1.01261 0.54548
 B519 B -0.02802 0.97330 0.53649
 B520 B 0.00300 0.98901 0.48212
 B521 B -0.01996 1.03985 0.45757
 B522 B -0.06605 1.05419 0.49717
 B523 B 0.01064 1.05679 0.56005
 B524 B 0.02635 1.04153 0.49779
 B525 B -0.01592 1.08143 0.50540
 B526 B -0.04658 1.06565 0.56065
 B527 B -0.02313 1.01483 0.58512
 B528 B 0.02160 0.99949 0.54564
 B529 B 0.76707 0.20162 0.23221
 B530 B 0.76369 0.18645 0.29853
 B531 B 0.79953 0.22892 0.27894
 B532 B 0.77530 0.26059 0.22816
 B533 B 0.72300 0.23645 0.21658
 B534 B 0.71646 0.18982 0.26029
 B535 B 0.72403 0.26966 0.31965
 B536 B 0.72791 0.28502 0.25440
 B537 B 0.69208 0.24138 0.27276
 B538 B 0.71633 0.21091 0.32442
 B539 B 0.76875 0.23526 0.33615
 B540 B 0.77574 0.28142 0.29265
 B541 B 0.74851 0.81845 0.74159
 B542 B 0.75986 0.83785 0.80465
 B543 B 0.71993 0.79680 0.79489
 B544 B 0.73697 0.76016 0.74491
 B545 B 0.78913 0.77930 0.72438
 B546 B 0.80236 0.82832 0.76128
 B547 B 0.79668 0.75365 0.83038
 B548 B 0.78533 0.73391 0.76822
 B549 B 0.82519 0.77591 0.77767
 B550 B 0.80821 0.81206 0.82747
 B551 B 0.75672 0.79228 0.84807
 B552 B 0.74194 0.74421 0.81060
 B553 B 0.25933 0.30561 0.76788
 B554 B 0.24925 0.32302 0.70351
 B555 B 0.28595 0.27901 0.71572
 B556 B 0.26699 0.24633 0.76832
 B557 B 0.21691 0.27058 0.78781
 B558 B 0.20661 0.31935 0.74749
 B559 B 0.20569 0.24126 0.68430
 B560 B 0.21650 0.22353 0.74753
 B561 B 0.17960 0.26859 0.73637
 B562 B 0.19864 0.30054 0.68315
 B563 B 0.24853 0.27545 0.66323
 B564 B 0.25992 0.22806 0.70357
 B565 B 0.23122 0.69183 0.25516
 B566 B 0.23843 0.67821 0.18940
 B567 B 0.20112 0.72017 0.20684
 B568 B 0.22213 0.75054 0.26014
 B569 B 0.27402 0.72662 0.27534
 B570 B 0.28347 0.68121 0.23146
 B571 B 0.27840 0.76230 0.17323
 B572 B 0.27049 0.77621 0.23815
 B573 B 0.30784 0.73317 0.22158
 B574 B 0.28693 0.70360 0.16778
 B575 B 0.23512 0.72793 0.15223
 B576 B 0.22495 0.77286 0.19645
 B577 B 0.27658 0.69319 0.72138
 B578 B 0.26653 0.67497 0.78504
 B579 B 0.30391 0.71779 0.77306
 B580 B 0.28531 0.75219 0.72155
 B581 B 0.23476 0.72954 0.70100
 B582 B 0.22372 0.68043 0.74023
 B583 B 0.22466 0.75707 0.80476
 B584 B 0.23536 0.77599 0.74235
 B585 B 0.19785 0.73153 0.75201
 B586 B 0.21665 0.69824 0.80495
 B587 B 0.26763 0.72169 0.82605
 B588 B 0.27907 0.76961 0.78662
 B589 B 0.24110 0.30876 0.25384
 B590 B 0.25569 0.32436 0.31759
 B591 B 0.21305 0.28664 0.30774
 B592 B 0.22615 0.25155 0.25448
 B593 B 0.27873 0.26854 0.23225
 B594 B 0.29574 0.31471 0.27177
 B595 B 0.28866 0.23743 0.33570
 B596 B 0.27371 0.22165 0.27318
 B597 B 0.31666 0.26099 0.28318
 B598 B 0.30304 0.29492 0.33632
 B599 B 0.25113 0.27724 0.35861
 B600 B 0.23250 0.23239 0.31904
 B601 B 0.75945 0.80793 0.25748
 B602 B 0.74515 0.82880 0.19542
 B603 B 0.78223 0.78396 0.20180
 B604 B 0.76616 0.74884 0.25348
 B605 B 0.71804 0.77263 0.27927
 B606 B 0.70527 0.82292 0.24303
 B607 B 0.69982 0.74825 0.17489
 B608 B 0.71439 0.72765 0.23609
 B609 B 0.67735 0.77308 0.23112
 B610 B 0.69313 0.80750 0.17830
 B611 B 0.74158 0.78346 0.15243
 B612 B 0.75481 0.73376 0.18871
 B613 B 0.73491 0.19268 0.76013
 B614 B 0.74170 0.17274 0.69667
 B615 B 0.70407 0.21570 0.70893
 B616 B 0.72502 0.25144 0.75758
 B617 B 0.77742 0.22994 0.77514
 B618 B 0.78721 0.18061 0.73736
 B619 B 0.78020 0.25537 0.66908
 B620 B 0.77283 0.27558 0.73184
 B621 B 0.81047 0.23194 0.72008
 B622 B 0.78960 0.19657 0.67113
 B623 B 0.73752 0.21846 0.65324
 B624 B 0.72698 0.26747 0.69129
 C625 C 0.42435 1.07313 0.37713
 C626 C 0.45134 1.03577 0.38669
 H627 H 0.43324 1.10670 0.39469
 H628 H 0.44771 1.00556 0.36049
 C629 C -0.07836 0.53060 0.86590
 C630 C -0.04176 0.55509 0.88330
 H631 H -0.08040 0.49391 0.87743
 H632 H -0.03645 0.59140 0.87179
 C633 C 0.08343 -0.06129 0.85667
 C634 C 0.04119 -0.07970 0.85904
 H635 H 0.09393 -0.03573 0.88645
 H636 H 0.02917 -0.10344 0.82806
 C637 C 0.54084 0.44558 0.32053
 C638 C 0.52856 0.41769 0.36183
 H639 H 0.52250 0.47819 0.31300
 H640 H 0.54753 0.38585 0.37088
 C641 C 0.58654 0.55433 0.10760
 C642 C 0.54498 0.57277 0.09727
 H643 H 0.59865 0.52532 0.08351
 H644 H 0.53120 0.60034 0.12236
 C645 C 0.08482 1.05573 0.61510
 C646 C 0.04621 1.07994 0.60231
 H647 H 0.09311 1.02513 0.59142
 H648 H 0.03580 1.11038 0.62520
 C649 C -0.08116 0.47085 0.63462
 C650 C -0.03909 0.45178 0.63449
 H651 H -0.08904 0.50018 0.60805
 H652 H -0.03017 0.42362 0.66223
 C653 C 0.45648 -0.05838 0.19215
 C654 C 0.46727 -0.08074 0.14662
 H655 H 0.47567 -0.02762 0.20433
 H656 H 0.44732 -0.11049 0.13319
 C657 C 0.36880 0.46496 0.09778
 C658 C 0.38144 0.49215 0.05640
 H659 H 0.39278 0.45641 0.12968
 H660 H 0.35605 0.50349 0.02709
 C661 C -0.13434 0.95365 0.55098
 C662 C -0.11693 0.99404 0.56993
 H663 H -0.11615 0.93566 0.51951
 H664 H -0.13507 1.01481 0.59934
 C665 C -0.13860 0.04226 0.93006
 C666 C -0.12359 0.00232 0.90713
 H667 H -0.11742 0.06009 0.95924
 H668 H -0.14509 -0.01715 0.87952
 C669 C 0.35818 0.52340 0.39575
 C670 C 0.37327 0.49491 0.43508
 H671 H 0.38003 0.53280 0.36259
 H672 H 0.34892 0.48133 0.46342
 C673 C 0.14632 0.55670 0.60141
 C674 C 0.13145 0.51694 0.57846
 H675 H 0.12420 0.57569 0.62816
 H676 H 0.15630 0.49560 0.55771
 C677 C 0.62462 0.06526 0.07337
 C678 C 0.61340 0.02242 0.09136
 H679 H 0.60189 0.08400 0.04624
 H680 H 0.63778 0.00176 0.11454
 C681 C 0.62865 0.94615 0.41297
 C682 C 0.61749 0.97831 0.44984
 H683 H 0.60393 0.93547 0.38284
 H684 H 0.64365 0.99166 0.47668
 C685 C 0.13907 0.44470 0.91738
 C686 C 0.12371 0.48069 0.94749
 H687 H 0.11668 0.42950 0.88751
 H688 H 0.14757 0.49885 0.97354
 C689 C 0.04850 0.34614 0.53155
 C690 C 0.02070 0.37670 0.55654
 H691 H 0.05490 0.31299 0.55212
 H692 H 0.00824 0.36596 0.59573
 C693 C 0.56123 -0.15235 0.01928
 C694 C 0.52185 -0.13392 0.03690
 H695 H 0.59292 -0.13849 0.03539
 H696 H 0.49008 -0.14830 0.02265
 C697 C -0.05607 -0.16787 0.97908
 C698 C -0.01729 -0.14493 0.96679
 H699 H -0.08727 -0.15797 0.95811
 H700 H 0.01340 -0.15466 0.98816
 C701 C 0.45140 0.33579 0.49691
 C702 C 0.48953 0.35913 0.48311
 H703 H 0.41969 0.34468 0.47641
 H704 H 0.52129 0.35070 0.50341
 C705 C 0.53640 1.13747 0.51728
 C706 C 0.49971 1.11065 0.50670
 H707 H 0.56808 1.13030 0.49662
 H708 H 0.47062 1.11639 0.53195
 C709 C 0.04343 0.63910 1.02175
 C710 C 0.00721 0.61627 1.00017
 H711 H 0.07723 0.62786 1.00996
 H712 H -0.02638 0.62727 1.01085
 C713 C 0.46737 0.62664 -0.07578
 C714 C 0.49088 0.61721 -0.02960
 H715 H 0.44529 0.59985 -0.09247
 H716 H 0.50876 0.64472 -0.00830
 C717 C -0.04077 1.14553 0.43640
 C718 C -0.01485 1.13417 0.48069
 H719 H -0.06440 1.11942 0.42133
 H720 H 0.00664 1.15997 0.49998
 C721 C 0.78838 0.68752 0.89893
 C722 C 0.81710 0.71777 0.87446
 H723 H 0.75227 0.69467 0.89498
 H724 H 0.85368 0.71418 0.87793
 C725 C 0.28458 0.16098 0.38879
 C726 C 0.30989 0.19880 0.37553
 H727 H 0.25065 0.15855 0.37188
 H728 H 0.34355 0.20447 0.39227
 C729 C 0.71842 0.35063 0.36405
 C730 C 0.70473 0.30544 0.36397
 H731 H 0.74285 0.36234 0.33437
 H732 H 0.68239 0.29245 0.39520
 C733 C 0.22144 0.82903 0.86547
 C734 C 0.19971 0.79103 0.84566
 H735 H 0.25644 0.83479 0.85371
 H736 H 0.16537 0.78204 0.85709
 C737 C 0.27805 0.84076 0.12299
 C738 C 0.30058 0.80028 0.13306
 H739 H 0.24474 0.84517 0.14070
 H740 H 0.33268 0.79261 0.11372
 C741 C 0.78404 0.33150 0.61551
 C742 C 0.80226 0.28881 0.62490
 H743 H 0.75308 0.34153 0.63604
 H744 H 0.83257 0.27735 0.60408
 C745 C 0.20250 0.16412 0.63143
 C746 C 0.18314 0.20654 0.64080
 H747 H 0.23039 0.15239 0.65699
 H748 H 0.15585 0.21969 0.61524
 C749 C 0.70086 0.69027 0.09641
 C750 C 0.67503 0.71355 0.13257
 H751 H 0.73557 0.70200 0.09050
 H752 H 0.64018 0.70338 0.13949
 C753 C 0.18244 0.61820 0.14572
 C754 C 0.22327 0.62752 0.16812
 H755 H 0.16403 0.64584 0.12581
 H756 H 0.24274 0.59800 0.18365
 C757 C 0.68684 0.10797 0.65923
 C758 C 0.72646 0.11998 0.68305
 H759 H 0.66885 0.13317 0.63433
 H760 H 0.74577 0.09231 0.70276
 C761 C 0.81073 0.11116 0.29399
 C762 C 0.78267 0.13789 0.32307
 H763 H 0.81900 0.12356 0.25426
 H764 H 0.77214 0.12704 0.36296
 C765 C 0.31486 0.61327 0.84097
 C766 C 0.28403 0.62366 0.80172
 H767 H 0.31773 0.63576 0.87598
 H768 H 0.27577 0.59667 0.77261
 C769 C 0.30791 0.38877 0.70014
 C770 C 0.26776 0.37257 0.68201
 H771 H 0.32686 0.36865 0.72995
 H772 H 0.24755 0.39307 0.65365
 C773 C 0.79485 0.89056 0.14476
 C774 C 0.76100 0.88045 0.17915
 H775 H 0.79843 0.86999 0.10860
 H776 H 0.74951 0.90807 0.20534
 C777 C 0.71802 0.90135 0.86055
 C778 C 0.74603 0.89014 0.82001
 H779 H 0.71281 0.87674 0.89326
 H780 H 0.75465 0.91713 0.79119
 C781 C 0.21077 0.39899 0.31869
 C782 C 0.24643 0.37565 0.33877
 H783 H 0.18803 0.38246 0.29001
 H784 H 0.26978 0.39216 0.36689
 C785 C 0.11755 0.29443 0.80200
 C786 C 0.12784 0.26986 0.75671
 H787 H 0.14295 0.31678 0.82055
 H788 H 0.10199 0.25006 0.73548
 C789 C 0.61853 0.79510 0.30329
 C790 C 0.62675 0.77346 0.25542
 H791 H 0.64516 0.81547 0.32250
 H792 H 0.59970 0.75578 0.23379
 C793 C 0.61444 0.20399 0.25114
 C794 C 0.63907 0.24324 0.25807
 H795 H 0.62594 0.17145 0.26989
 H796 H 0.62861 0.27328 0.23440
 C797 C 0.13439 0.71084 0.68466
 C798 C 0.14560 0.73190 0.73205
 H799 H 0.15990 0.69097 0.66315
 H800 H 0.12008 0.74963 0.75585
 C801 C 0.90211 0.81013 0.75445
 C802 C 0.87748 0.77075 0.76278
 H803 H 0.89087 0.84261 0.77302
 H804 H 0.88625 0.73908 0.74130
 C805 C 0.39259 0.29704 0.25291
 C806 C 0.36909 0.25745 0.26541
 H807 H 0.38197 0.33047 0.26948
 H808 H 0.38149 0.22446 0.25096
 C809 C 0.38513 0.69437 0.24113
 C810 C 0.36031 0.73416 0.23787
 H811 H 0.37406 0.66334 0.21945
 H812 H 0.37007 0.76255 0.26427
 C813 C 0.88881 0.19681 0.73555
 C814 C 0.86304 0.23589 0.73303
 H815 H 0.87831 0.16584 0.71333
 H816 H 0.87221 0.26508 0.75865
 C817 C 0.57635 0.97676 0.62498
 C818 C 0.58501 0.96869 0.57285
 H819 H 0.54312 0.96743 0.64057
 H820 H 0.62017 0.97086 0.56036
 C821 C 0.07452 0.48028 1.11766
 C822 C 0.08396 0.46737 1.06717
 H823 H 0.03935 0.48114 1.13072
 H824 H 0.11946 0.46459 1.05653
 C825 C -0.08136 -0.00261 1.08771
 C826 C -0.09310 0.00104 1.03547
 H827 H -0.04705 0.00738 1.09958
 H828 H -0.12860 -0.00353 1.02458
 C829 C 0.38666 0.49219 0.57380
 C830 C 0.42516 0.51384 0.55691
 H831 H 0.36906 0.47049 0.54501
 H832 H 0.44502 0.53513 0.58436
 C833 C 0.38596 0.46564 -0.09154
 C834 C 0.41564 0.45134 -0.05295
 H835 H 0.36113 0.43966 -0.10423
 H836 H 0.41044 0.41625 -0.03690
 C837 C -0.12650 0.99394 0.42480
 C838 C -0.08511 0.97530 0.43613
 H839 H -0.14402 1.01280 0.45642
 H840 H -0.06658 0.95727 0.40479
 C841 C 0.13267 0.49915 0.44107
 C842 C 0.09397 0.52186 0.45203
 H843 H 0.14624 0.47479 0.47085
 H844 H 0.07869 0.54615 0.42349
 C845 C 0.61626 0.01481 -0.04588
 C846 C 0.57179 0.02589 -0.03961
 H847 H 0.63573 0.00434 -0.01059
 H848 H 0.55128 0.03466 -0.07474
 C849 C 0.59989 0.58294 -0.00771
 C850 C 0.58328 0.53959 -0.01966
 H851 H 0.57523 0.61007 -0.00026
 H852 H 0.60662 0.51043 -0.02487
 C853 C 0.09661 1.09432 0.49403
 C854 C 0.07723 1.05327 0.48019
 H855 H 0.07473 1.12386 0.50258
 H856 H 0.09868 1.02285 0.47335
 C857 C 0.09407 -0.10379 0.96871
 C858 C 0.07256 -0.06547 0.98704
 H859 H 0.07418 -0.13028 0.94830
 H860 H 0.09201 -0.03715 1.00481
 C861 C 0.61756 0.45424 0.47661
 C862 C 0.57834 0.43031 0.47042
 H863 H 0.61598 0.48942 0.49323
 H864 H 0.58043 0.39341 0.46025
 C865 C -0.08834 0.41478 0.52264
 C866 C -0.06908 0.45597 0.50910
 H867 H -0.06671 0.38727 0.53894
 H868 H -0.09044 0.48468 0.49498
 C869 C 0.38492 -0.05075 0.02501
 C870 C 0.42487 -0.07331 0.03014
 H871 H 0.38467 -0.01302 0.01833
 H872 H 0.42430 -0.11109 0.03526
 C873 C 0.39436 1.06937 0.49808
 C874 C 0.41252 1.02724 0.51138
 H875 H 0.41678 1.09606 0.48375
 H876 H 0.39025 0.99829 0.52161
 C877 C -0.10091 0.57656 0.98155
 C878 C -0.08283 0.53630 1.00172
 H879 H -0.07798 0.60006 0.96138
 H880 H -0.10476 0.51026 1.01998
 C881 C 0.02226 0.62788 0.56792
 C882 C 0.05088 0.59679 0.54548
 H883 H -0.01302 0.61819 0.57411
 H884 H 0.08554 0.60712 0.53683
 C885 C 0.52991 0.10183 0.12620
 C886 C 0.51917 0.08667 0.07626
 H887 H 0.53649 0.07646 0.15800
 H888 H 0.51440 0.11147 0.04339
 C889 C -0.05370 0.08919 0.87816
 C890 C -0.03669 0.07496 0.92639
 H891 H -0.06785 0.06308 0.85122
 H892 H -0.02312 0.09989 0.95508
 C893 C 0.45279 0.58878 0.38007
 C894 C 0.45860 0.57578 0.43216
 H895 H 0.45233 0.56257 0.34863
 H896 H 0.45855 0.60183 0.46386
 C897 C 0.51320 0.86648 0.43874
 C898 C 0.54165 0.89523 0.46542
 H899 H 0.47739 0.87560 0.43542
 H900 H 0.57692 0.88493 0.47103
 C901 C 0.01198 0.37069 0.93156
 C902 C 0.04169 0.39913 0.95676
 H903 H -0.02350 0.38098 0.92783
 H904 H 0.07645 0.38737 0.96292
 C905 C 0.46564 0.39795 0.11365
 C906 C 0.46688 0.40849 0.06058
 H907 H 0.46728 0.42614 0.14280
 H908 H 0.46404 0.38047 0.03133
 C909 C -0.04336 0.91039 0.60826
 C910 C -0.03143 0.92000 0.55691
 H911 H -0.05465 0.93892 0.63373
 H912 H -0.02151 0.89220 0.52974
 C913 C 0.24914 0.38373 0.19782
 C914 C 0.22502 0.34385 0.20618
 H915 H 0.26752 0.39790 0.23213
 H916 H 0.20629 0.32776 0.17342
 C917 C 0.75226 0.88941 0.67679
 C918 C 0.73037 0.84953 0.69135
 H919 H 0.77262 0.90697 0.70698
 H920 H 0.71078 0.83052 0.66147
 C921 C 0.28294 0.66430 0.62624
 C922 C 0.29469 0.65729 0.67779
 H923 H 0.28149 0.69990 0.61029
 H924 H 0.29801 0.62117 0.69093
 C925 C 0.75541 0.12900 0.17366
 C926 C 0.77985 0.16875 0.18178
 H927 H 0.73981 0.11294 0.20870
 H928 H 0.79541 0.18659 0.14797
 C929 C 0.74012 0.12030 0.82096
 C930 C 0.71913 0.16176 0.81064
 H931 H 0.75625 0.10228 0.78810
 H932 H 0.70366 0.18116 0.84317
 C933 C 0.23553 0.61406 0.30582
 C934 C 0.21546 0.65673 0.30185
 H935 H 0.25046 0.59917 0.27023
 H936 H 0.20117 0.67297 0.33728
 C937 C 0.76294 0.87741 0.32136
 C938 C 0.78165 0.83603 0.30700
 H939 H 0.75084 0.90030 0.28974
 H940 H 0.79471 0.81335 0.33884
 C941 C 0.26705 0.33304 0.86572
 C942 C 0.27466 0.34234 0.81335
 H943 H 0.26779 0.29682 0.87969
 H944 H 0.27435 0.37904 0.80134
 C945 C 0.82608 0.34869 0.72826
 C946 C 0.78684 0.32945 0.74582
 H947 H 0.85039 0.32559 0.70950
 H948 H 0.76057 0.35198 0.76203
 C949 C 0.32689 0.84466 0.24098
 C950 C 0.28679 0.82776 0.25841
 H951 H 0.34692 0.82097 0.21725
 H952 H 0.26381 0.84948 0.28147
 C953 C 0.17755 0.84462 0.72859
 C954 C 0.22110 0.82961 0.72824
 H955 H 0.15060 0.81929 0.72630
 H956 H 0.24784 0.85554 0.73284
 C957 C 0.66976 0.35111 0.25823
 C958 C 0.70871 0.33586 0.23613
 H959 H 0.65218 0.32766 0.28499
 H960 H 0.72920 0.35883 0.21132
 C961 C 0.65798 0.65916 0.24495
 C962 C 0.70066 0.67502 0.25162
 H963 H 0.63060 0.68391 0.23896
 H964 H 0.72838 0.64979 0.25409
 C965 C 0.15975 0.15467 0.75358
 C966 C 0.20195 0.17094 0.76373
 H967 H 0.13255 0.17955 0.74746
 H968 H 0.22973 0.14590 0.76749
 C969 C 0.31868 0.14668 0.24581
 C970 C 0.27912 0.16692 0.25879
 H971 H 0.34437 0.16696 0.22597
 H972 H 0.25356 0.14440 0.27676
 C973 C 0.83472 0.65811 0.77333
 C974 C 0.79620 0.67926 0.75542
 H975 H 0.86121 0.68010 0.78973
 H976 H 0.76818 0.65797 0.74096
 C977 C 0.84548 0.79081 0.13142
 C978 C 0.83439 0.78649 0.18399
 H979 H 0.81838 0.79584 0.10215
 H980 H 0.86044 0.78334 0.21495
 C981 C 0.35145 0.29612 0.65089
 C982 C 0.33880 0.28145 0.70042
 H983 H 0.32559 0.31031 0.62392
 H984 H 0.36364 0.26816 0.72918
 C985 C 0.38329 0.73850 0.80919
 C986 C 0.35615 0.70792 0.78375
 H987 H 0.37195 0.77441 0.81530
 H988 H 0.36853 0.67284 0.77516
 C989 C 0.88072 0.25153 0.30913
 C990 C 0.85259 0.21964 0.28725
 H991 H 0.87178 0.28851 0.30560
 H992 H 0.86426 0.18381 0.28384
 C993 C 0.15077 0.31528 0.37453
 C994 C 0.16149 0.29857 0.32488
 H995 H 0.17830 0.32409 0.40198
 H996 H 0.13519 0.29074 0.29560
 C997 C 0.65515 0.80665 0.86223
 C998 C 0.66750 0.80539 0.80985
 H999 H 0.68071 0.80347 0.89362
 H1000 H 0.64225 0.80870 0.77799
 C1001 C 0.63161 0.21947 0.65243
 C1002 C 0.65093 0.20806 0.70005
 H1003 H 0.65146 0.23621 0.62113
 H1004 H 0.63164 0.18942 0.73044
 C1005 C 0.12723 0.73415 0.15375
 C1006 C 0.14796 0.71355 0.19638
 H1007 H 0.14547 0.75918 0.12894
 H1008 H 0.13018 0.68701 0.21957
   
