data_POSCAR
  _audit_creation_date              2014-09-24
  _audit_creation_method            'ToBaCCo'
  _symmetry_space_group_name_H-M    'P1'
  _symmetry_Int_Tables_number       1
  _symmetry_cell_setting            triclinic
  loop_
  _symmetry_equiv_pos_as_xyz
 x,y,z
_cell_length_a 41.5831
_cell_length_b 40.8786
_cell_length_c 40.7242
_cell_angle_alpha 92.826300
_cell_angle_beta 92.508400
_cell_angle_gamma 92.351200
loop_
  _atom_site_label
  _atom_site_type_symbol
  _atom_site_fract_x
  _atom_site_fract_y
  _atom_site_fract_z
N1 N 0.20208 1.26913 0.18242
 N2 N 0.17984 1.26800 0.20441
 C3 C 0.15879 1.29155 0.19888
 C4 C 0.16864 1.30817 0.17220
 C5 C 0.19600 1.29343 0.16217
 H6 H 0.13748 1.29573 0.21254
 H7 H 0.20982 1.29922 0.14117
 Cu8 Cu 0.17977 1.23458 0.23679
 Cu9 Cu 0.23604 1.23773 0.18028
 Cu10 Cu 0.23612 1.17819 0.23821
 N11 N 0.17991 1.20126 0.26925
 N12 N 0.20220 1.17932 0.26972
 C13 C 0.19622 1.15838 0.29345
 C14 C 0.16886 1.16792 0.30853
 C15 C 0.15892 1.19502 0.29269
 H16 H 0.21011 1.13729 0.29863
 H17 H 0.13761 1.20851 0.29732
 N18 N 0.26837 1.18117 0.20430
 N19 N 0.26833 1.20380 0.18222
 C20 C 0.29204 1.19817 0.16139
 C21 C 0.30759 1.17088 0.17102
 C22 C 0.29210 1.16058 0.19810
 H23 H 0.29689 1.21205 0.14010
 H24 H 0.29701 1.13897 0.21143
 H25 H 0.21071 1.19977 0.20075
 H26 H 0.23689 1.22747 0.22936
 N27 N 0.81208 0.74855 0.14611
 N28 N 0.83385 0.74899 0.17058
 C29 C 0.85487 0.72548 0.16441
 C30 C 0.84565 0.70968 0.13462
 C31 C 0.81851 0.72478 0.12354
 H32 H 0.87541 0.72029 0.18022
 H33 H 0.80467 0.71908 0.10072
 Cu34 Cu 0.83284 0.78018 0.20815
 Cu35 Cu 0.77751 0.77922 0.14509
 Cu36 Cu 0.77335 0.83349 0.21271
 N37 N 0.82940 0.81021 0.24630
 N38 N 0.80590 0.83072 0.24813
 C39 C 0.80998 0.84943 0.27629
 C40 C 0.83735 0.83988 0.29286
 C41 C 0.84928 0.81517 0.27328
 H42 H 0.79495 0.86929 0.28350
 H43 H 0.87133 0.80265 0.27781
 N44 N 0.74263 0.83264 0.17444
 N45 N 0.74429 0.81208 0.14856
 C46 C 0.72097 0.81854 0.12604
 C47 C 0.70402 0.84423 0.13852
 C48 C 0.71824 0.85269 0.16908
 H49 H 0.71701 0.80605 0.10209
 H50 H 0.71172 0.87249 0.18575
 H51 H 0.80073 0.81610 0.17498
 H52 H 0.77543 0.78515 0.19570
 N53 N 0.80312 1.24887 -0.17288
 N54 N 0.82213 1.25008 -0.19782
 C55 C 0.84222 1.27679 -0.19345
 C56 C 0.83514 1.29309 -0.16436
 C57 C 0.81038 1.27481 -0.15183
 H58 H 0.86126 1.28319 -0.20954
 H59 H 0.79936 1.27937 -0.12856
 Cu60 Cu 0.82031 1.21557 -0.23245
 Cu61 Cu 0.77215 1.21250 -0.16834
 Cu62 Cu 0.77629 1.14588 -0.22366
 N63 N 0.82647 1.17616 -0.25960
 N64 N 0.80924 1.14892 -0.25613
 C65 C 0.81868 1.12548 -0.27760
 C66 C 0.84302 1.13895 -0.29524
 C67 C 0.84751 1.17104 -0.28335
 H68 H 0.80880 1.10053 -0.27998
 H69 H 0.86491 1.18915 -0.29110
 N70 N 0.74464 1.14779 -0.18901
 N71 N 0.74303 1.17329 -0.16800
 C72 C 0.71941 1.16725 -0.14723
 C73 C 0.70567 1.13661 -0.15569
 C74 C 0.72205 1.12483 -0.18216
 H75 H 0.71283 1.18372 -0.12728
 H76 H 0.71793 1.10126 -0.19523
 H77 H 0.80119 1.17942 -0.19132
 H78 H 0.76738 1.19516 -0.21705
 N79 N 0.17598 0.74221 -0.16817
 N80 N 0.15088 0.74438 -0.18865
 C81 C 0.12799 0.72176 -0.18169
 C82 C 0.13958 0.70472 -0.15562
 C83 C 0.16996 0.71819 -0.14753
 H84 H 0.10455 0.71822 -0.19423
 H85 H 0.18621 0.71138 -0.12781
 Cu86 Cu 0.15037 0.77722 -0.22168
 Cu87 Cu 0.21408 0.77148 -0.16879
 Cu88 Cu 0.21372 0.83009 -0.22745
 N89 N 0.15046 0.81027 -0.25450
 N90 N 0.17546 0.83074 -0.25668
 C91 C 0.16915 0.85153 -0.28054
 C92 C 0.13868 0.84351 -0.29389
 C93 C 0.12731 0.81737 -0.27696
 H94 H 0.18522 0.87135 -0.28720
 H95 H 0.10385 0.80493 -0.28037
 N96 N 0.25021 0.82560 -0.19569
 N97 N 0.25034 0.80328 -0.17331
 C98 C 0.27750 0.80780 -0.15403
 C99 C 0.29514 0.83402 -0.16498
 C100 C 0.27728 0.84488 -0.19123
 H101 H 0.28340 0.79404 -0.13273
 H102 H 0.28297 0.86612 -0.20505
 H103 H 0.19089 0.81038 -0.18834
 H104 H 0.20909 0.78099 -0.21799
 C105 C 0.47505 1.02823 0.02728
 C106 C 0.49714 1.00591 0.04629
 C107 C 0.51421 0.98596 0.02634
 C108 C 0.50768 0.98999 -0.01066
 C109 C 0.49728 1.04690 0.00491
 C110 C 0.51436 1.02678 -0.01489
 C111 C 0.45388 1.00504 0.00401
 C112 C 0.47094 0.98508 -0.01579
 H113 H 0.49998 1.00672 0.07298
 H114 H 0.52151 0.97364 -0.02689
 H115 H 0.50024 1.07347 0.00561
 H116 H 0.42770 1.00441 0.00330
 C117 C 0.02861 0.47498 1.02976
 C118 C 0.04725 0.49732 1.00738
 C119 C 0.02775 0.51408 0.98694
 C120 C -0.00848 0.50702 0.99061
 C121 C 0.00602 0.49759 1.04800
 C122 C -0.01333 0.51435 1.02741
 C123 C 0.00651 0.45277 1.00642
 C124 C -0.01286 0.46953 0.98599
 H125 H 0.07335 0.50056 1.00848
 H126 H -0.02434 0.52060 0.97387
 H127 H 0.00622 0.50104 1.07464
 H128 H 0.00610 0.42616 1.00616
 C129 C 1.02865 0.02722 0.47654
 C130 C 1.00690 0.04654 0.49919
 C131 C 0.98718 0.02698 0.51652
 C132 C 0.99084 -0.00997 0.50966
 C133 C 1.04683 0.00464 0.49914
 C134 C 1.02696 -0.01476 0.51647
 C135 C 1.00566 0.00438 0.45478
 C136 C 0.98592 -0.01503 0.47210
 H137 H 1.00779 0.07314 0.50209
 H138 H 0.97469 -0.02588 0.52370
 H139 H 1.07293 0.00501 0.50226
 H140 H 1.00495 0.00371 0.42804
 C141 C 0.15275 0.33189 1.15679
 C142 C 0.13840 0.35247 1.14269
 C143 C 0.12092 0.37637 1.12525
 C144 C 0.09048 0.38512 1.13521
 C145 C 0.07262 0.40682 1.11704
 C146 C 0.08515 0.41985 1.08885
 C147 C 0.11582 0.41153 1.07921
 C148 C 0.13368 0.38984 1.09738
 C149 C 0.06584 0.44024 1.06883
 C150 C 0.04927 0.45644 1.05151
 H151 H 0.08033 0.37475 1.15665
 H152 H 0.04885 0.41294 1.12459
 H153 H 0.12566 0.42132 1.05734
 H154 H 0.15714 0.38313 1.08939
 C155 C -0.13838 0.68337 1.11836
 C156 C -0.12444 0.66140 1.10517
 C157 C -0.10717 0.63530 1.09002
 C158 C -0.08700 0.64166 1.06420
 C159 C -0.06897 0.61666 1.05059
 C160 C -0.07105 0.58520 1.06273
 C161 C -0.09151 0.57874 1.08829
 C162 C -0.10954 0.60374 1.10191
 C163 C -0.05130 0.55994 1.04983
 C164 C -0.03427 0.53902 1.03941
 H165 H -0.08487 0.66600 1.05492
 H166 H -0.05314 0.62195 1.03091
 H167 H -0.09322 0.55453 1.09795
 H168 H -0.12496 0.59859 1.12196
 C169 C -0.14735 0.32081 0.85177
 C170 C -0.13231 0.34347 0.86602
 C171 C -0.11384 0.36964 0.88390
 C172 C -0.08336 0.37943 0.87360
 C173 C -0.06410 0.40265 0.89269
 C174 C -0.07525 0.41619 0.92214
 C175 C -0.10607 0.40704 0.93198
 C176 C -0.12533 0.38383 0.91290
 C177 C -0.05397 0.43692 0.94372
 C178 C -0.03554 0.45272 0.96258
 H179 H -0.07415 0.36847 0.85134
 H180 H -0.04019 0.40929 0.88501
 H181 H -0.11480 0.41711 0.95487
 H182 H -0.14877 0.37629 0.92120
 C183 C 0.12302 0.67916 0.86081
 C184 C 0.10946 0.65783 0.87505
 C185 C 0.09369 0.63250 0.89261
 C186 C 0.10282 0.59999 0.88857
 C187 C 0.08846 0.57562 0.90671
 C188 C 0.06490 0.58367 0.92895
 C189 C 0.05550 0.61612 0.93272
 C190 C 0.06987 0.64048 0.91459
 C191 C 0.05125 0.55892 0.94878
 C192 C 0.04030 0.53838 0.96589
 H193 H 0.12128 0.59356 0.87172
 H194 H 0.09598 0.55062 0.90369
 H195 H 0.03739 0.62263 0.94993
 H196 H 0.06270 0.66556 0.91798
 C197 C 1.15313 0.15188 0.33192
 C198 C 1.13896 0.13723 0.35224
 C199 C 1.12175 0.11918 0.37586
 C200 C 1.12543 0.08538 0.37748
 C201 C 1.10764 0.06743 0.39931
 C202 C 1.08612 0.08319 0.41965
 C203 C 1.08272 0.11707 0.41835
 C204 C 1.10053 0.13505 0.39649
 C205 C 1.06651 0.06427 0.44064
 C206 C 1.04967 0.04786 0.45737
 H207 H 1.14169 0.07286 0.36155
 H208 H 1.11031 0.04121 0.39999
 H209 H 1.06600 0.12946 0.43385
 H210 H 1.09743 0.16116 0.39535
 C211 C 1.12261 -0.14049 0.68241
 C212 C 1.10879 -0.12572 0.66154
 C213 C 1.09290 -0.10735 0.63682
 C214 C 1.09244 -0.07315 0.64094
 C215 C 1.07797 -0.05501 0.61658
 C216 C 1.06387 -0.07097 0.58795
 C217 C 1.06405 -0.10521 0.58392
 C218 C 1.07856 -0.12338 0.60832
 C219 C 1.05008 -0.05198 0.56249
 C220 C 1.03919 -0.03539 0.54139
 H221 H 1.10351 -0.06049 0.66285
 H222 H 1.07802 -0.02855 0.61991
 H223 H 1.05327 -0.11779 0.56185
 H224 H 1.07882 -0.14981 0.60487
 C225 C 0.85217 -0.14510 0.32029
 C226 C 0.86602 -0.13131 0.34400
 C227 C 0.88358 -0.11414 0.37128
 C228 C 0.91231 -0.12642 0.38386
 C229 C 0.93138 -0.10794 0.40774
 C230 C 0.92177 -0.07712 0.41916
 C231 C 0.89251 -0.06531 0.40735
 C232 C 0.87344 -0.08379 0.38347
 C233 C 0.94349 -0.05616 0.44002
 C234 C 0.96246 -0.03782 0.45570
 H235 H 0.92048 -0.14975 0.37444
 H236 H 0.95412 -0.11714 0.41641
 H237 H 0.88503 -0.04135 0.41574
 H238 H 0.85138 -0.07396 0.37374
 C239 C 0.85974 0.12361 0.68100
 C240 C 0.87478 0.11023 0.65994
 C241 C 0.89302 0.09463 0.63482
 C242 C 0.91430 0.07025 0.64291
 C243 C 0.93270 0.05577 0.61866
 C244 C 0.92988 0.06560 0.58621
 C245 C 0.90844 0.08981 0.57808
 C246 C 0.89004 0.10428 0.60233
 C247 C 0.94961 0.05152 0.56150
 C248 C 0.96651 0.04012 0.54092
 H249 H 0.91685 0.06265 0.66797
 H250 H 0.94930 0.03716 0.62524
 H251 H 0.90616 0.09767 0.55310
 H252 H 0.87372 0.12316 0.59582
 C253 C 0.33189 1.15401 0.15379
 C254 C 0.35161 1.13917 0.13899
 C255 C 0.37426 1.12061 0.12091
 C256 C 0.36479 1.08951 0.10701
 C257 C 0.38634 1.07145 0.08889
 C258 C 0.41749 1.08438 0.08457
 C259 C 0.42709 1.11544 0.09859
 C260 C 0.40548 1.13354 0.11676
 C261 C 0.43907 1.06577 0.06516
 C262 C 0.45601 1.04931 0.04836
 H263 H 0.34070 1.07930 0.11002
 H264 H 0.37865 1.04750 0.07809
 H265 H 0.45111 1.12568 0.09533
 H266 H 0.41303 1.15760 0.12739
 C267 C 0.68010 1.12018 -0.13950
 C268 C 0.65873 1.10681 -0.12542
 C269 C 0.63330 1.09136 -0.10806
 C270 C 0.64041 1.06742 -0.08569
 C271 C 0.61593 1.05344 -0.06774
 C272 C 0.58422 1.06333 -0.07209
 C273 C 0.57705 1.08702 -0.09471
 C274 C 0.60154 1.10100 -0.11266
 C275 C 0.55933 1.05001 -0.05254
 C276 C 0.53870 1.03923 -0.03566
 H277 H 0.66491 1.05986 -0.08184
 H278 H 0.62176 1.03523 -0.05022
 H279 H 0.55264 1.09494 -0.09819
 H280 H 0.59579 1.11958 -0.12981
 C281 C 0.32344 0.85005 -0.14902
 C282 C 0.34647 0.86423 -0.13499
 C283 C 0.37295 0.88209 -0.11739
 C284 C 0.38489 0.91176 -0.12888
 C285 C 0.40808 0.93100 -0.10993
 C286 C 0.41943 0.92064 -0.07941
 C287 C 0.40820 0.89050 -0.06839
 C288 C 0.38501 0.87126 -0.08734
 C289 C 0.43972 0.94245 -0.05791
 C290 C 0.45498 0.96149 -0.03912
 H291 H 0.37553 0.92052 -0.15194
 H292 H 0.41630 0.95444 -0.11851
 H293 H 0.41651 0.88244 -0.04465
 H294 H 0.37575 0.84851 -0.07808
 C295 C 0.67832 0.86048 0.12223
 C296 C 0.65697 0.87464 0.10881
 C297 C 0.63172 0.89214 0.09310
 C298 C 0.60033 0.88982 0.10422
 C299 C 0.57610 0.90788 0.08979
 C300 C 0.58317 0.92833 0.06420
 C301 C 0.61449 0.93041 0.05289
 C302 C 0.63871 0.91235 0.06731
 C303 C 0.55862 0.94803 0.05036
 C304 C 0.53827 0.96503 0.03918
 H305 H 0.59469 0.87436 0.12423
 H306 H 0.55200 0.90620 0.09883
 H307 H 0.62025 0.94625 0.03322
 H308 H 0.66293 0.91443 0.05861
   
