data_POSCAR
  _audit_creation_date              2014-09-24
  _audit_creation_method            'ToBaCCo'
  _symmetry_space_group_name_H-M    'P1'
  _symmetry_Int_Tables_number       1
  _symmetry_cell_setting            triclinic
  loop_
  _symmetry_equiv_pos_as_xyz
 x,y,z
_cell_length_a 30.9672
_cell_length_b 30.6976
_cell_length_c 30.1124
_cell_angle_alpha 81.599700
_cell_angle_beta 98.990400
_cell_angle_gamma 96.191700
loop_
  _atom_site_label
  _atom_site_type_symbol
  _atom_site_fract_x
  _atom_site_fract_y
  _atom_site_fract_z
C1 C 0.60148 0.50369 0.01522
 C2 C 0.59343 0.54849 0.00744
 C3 C 0.55111 0.56295 0.00171
 C4 C 0.51457 0.53028 0.00271
 C5 C 0.52158 0.48444 0.00865
 C6 C 0.56498 0.47119 0.01459
 C7 C 0.57043 0.42592 0.01661
 C8 C 0.53512 0.39408 0.01761
 C9 C 0.49205 0.40598 0.01271
 C10 C 0.48495 0.45164 0.00717
 C11 C 0.47107 0.54179 -0.00477
 C12 C 0.43580 0.50990 -0.00300
 C13 C 0.44140 0.46456 0.00080
 C14 C 0.40506 0.43163 0.00069
 C15 C 0.41352 0.38689 0.00804
 C16 C 0.45593 0.37345 0.01352
 H17 H 0.60206 0.41417 0.01670
 H18 H 0.54224 0.35992 0.02179
 H19 H 0.46312 0.57564 -0.01261
 H20 H 0.40405 0.52189 -0.00456
 H21 H 0.62135 0.57306 0.00972
 H22 H 0.38626 0.36151 0.00724
 C23 C 0.00016 0.62659 0.45840
 C24 C -0.00168 0.62082 0.41300
 C25 C -0.00750 0.57869 0.39878
 C26 C -0.01343 0.54103 0.43195
 C27 C -0.01041 0.54662 0.47845
 C28 C -0.00442 0.58953 0.49153
 C29 C -0.00472 0.59440 0.53720
 C30 C -0.00730 0.55780 0.57001
 C31 C -0.01001 0.51481 0.55847
 C32 C -0.01417 0.50918 0.51199
 C33 C -0.02518 0.49823 0.41995
 C34 C -0.02770 0.46157 0.45273
 C35 C -0.02181 0.46622 0.49905
 C36 C -0.02335 0.42910 0.53281
 C37 C -0.01661 0.43507 0.57857
 C38 C -0.00968 0.47726 0.59202
 H39 H -0.00314 0.62660 0.54820
 H40 H -0.00769 0.56368 0.60448
 H41 H -0.03323 0.49228 0.38503
 H42 H -0.03453 0.42957 0.44103
 H43 H 0.00400 0.64996 0.38884
 H44 H -0.01599 0.40624 0.60416
 C45 C 0.55412 0.02602 0.58835
 C46 C 0.59512 0.02386 0.57458
 C47 C 0.60082 0.02567 0.52897
 C48 C 0.56376 0.03244 0.49504
 C49 C 0.52148 0.03277 0.50775
 C50 C 0.51651 0.02992 0.55437
 C51 C 0.47461 0.03441 0.56497
 C52 C 0.43813 0.03732 0.53169
 C53 C 0.44216 0.04018 0.48555
 C54 C 0.48426 0.03803 0.47342
 C55 C 0.56830 0.04280 0.44875
 C56 C 0.53200 0.04662 0.41547
 C57 C 0.48944 0.04207 0.42691
 C58 C 0.45210 0.04388 0.39302
 C59 C 0.41089 0.04602 0.40579
 C60 C 0.40540 0.04565 0.45114
 H61 H 0.46908 0.03671 0.59897
 H62 H 0.40673 0.03777 0.54290
 H63 H 0.60014 0.04915 0.43753
 H64 H 0.53787 0.05448 0.38060
 H65 H 0.62280 0.01703 0.60065
 H66 H 0.38249 0.04861 0.37977
 O67 O 0.45641 -0.03670 -0.06508
 O68 O 0.46083 -0.03377 0.05751
 O69 O 0.45977 0.02529 -0.01226
 O70 O 0.45826 -0.09672 0.00692
 O71 O 0.53036 -0.09124 0.01062
 O72 O 0.53226 0.03054 -0.00330
 O73 O 0.53315 -0.03197 0.06612
 O74 O 0.52876 -0.02821 -0.05746
 Cu75 Cu 0.45154 -0.03624 -0.00426
 Cu76 Cu 0.53837 -0.02987 0.00498
 C77 C 0.49183 -0.03212 -0.08233
 C78 C 0.49776 -0.03219 0.08261
 C79 C 0.49635 0.04861 -0.01028
 C80 C 0.49405 -0.11476 0.01143
 O81 O -0.04073 0.51607 0.99875
 O82 O 0.07277 0.48615 1.01149
 O83 O 0.00794 0.49115 0.94639
 O84 O 0.02387 0.51077 1.06548
 O85 O 0.00458 0.44021 1.08628
 O86 O -0.01758 0.42222 0.96637
 O87 O 0.05011 0.41616 1.03052
 O88 O -0.06286 0.44704 1.02274
 Cu89 Cu 0.01831 0.50810 1.00369
 Cu90 Cu -0.00871 0.42435 1.02849
 C91 C -0.07117 0.48676 1.00863
 C92 C 0.08073 0.44599 1.02263
 C93 C -0.00815 0.45356 0.93598
 C94 C 0.01739 0.47873 1.09619
 O95 O -0.02524 -0.01605 0.44579
 O96 O 0.00008 0.09993 0.46316
 O97 O 0.04288 0.03991 0.43789
 O98 O -0.06625 0.04177 0.47152
 O99 O -0.03836 0.02351 0.54320
 O100 O 0.07051 0.02153 0.50964
 O101 O 0.02891 0.08015 0.53424
 O102 O 0.00322 -0.03619 0.51690
 Cu103 Cu -0.01457 0.04373 0.44726
 Cu104 Cu 0.01876 0.02001 0.53323
 C105 C -0.01535 -0.04592 0.47847
 C106 C 0.01812 0.10983 0.50164
 C107 C 0.07513 0.03012 0.46808
 C108 C -0.07077 0.03308 0.51316
 C109 C -0.32267 0.51727 0.99852
 C110 C -0.27869 0.50754 1.00687
 C111 C -0.26535 0.47325 1.04131
 C112 C -0.29594 0.45051 1.06801
 C113 C -0.33956 0.46093 1.06002
 C114 C -0.35406 0.49335 1.02413
 C115 C -0.22169 0.46236 1.04853
 C116 C -0.19107 0.48585 1.02214
 C117 C -0.20417 0.52117 0.98874
 C118 C -0.24793 0.53153 0.98105
 C119 C -0.17329 0.54554 0.96340
 C120 C -0.12987 0.53475 0.97066
 C121 C -0.11673 0.49895 1.00280
 C122 C -0.14751 0.47462 1.02857
 H123 H -0.33272 0.54260 0.97088
 H124 H -0.28609 0.42485 1.09532
 H125 H -0.36191 0.44389 1.08244
 H126 H -0.21159 0.43565 1.07460
 H127 H -0.25805 0.55823 0.95497
 H128 H -0.18272 0.57286 0.93787
 H129 H -0.10672 0.55387 0.95037
 H130 H -0.13749 0.44725 1.05379
 C131 C 0.33064 0.41735 1.02098
 C132 C 0.28656 0.42652 1.01465
 C133 C 0.27160 0.46030 0.98041
 C134 C 0.30059 0.48292 0.95178
 C135 C 0.34429 0.47299 0.95775
 C136 C 0.36050 0.44134 0.99354
 C137 C 0.22795 0.47080 0.97530
 C138 C 0.19892 0.44739 1.00357
 C139 C 0.21351 0.41243 1.03667
 C140 C 0.25733 0.40251 1.04229
 C141 C 0.18402 0.38803 1.06374
 C142 C 0.14055 0.39845 1.05846
 C143 C 0.12613 0.43399 1.02672
 C144 C 0.15546 0.45831 0.99926
 H145 H 0.34204 0.39244 1.04847
 H146 H 0.28940 0.50810 0.92454
 H147 H 0.36534 0.48982 0.93390
 H148 H 0.21662 0.49717 0.94942
 H149 H 0.26867 0.37615 1.06818
 H150 H 0.19458 0.36095 1.08905
 H151 H 0.11841 0.37935 1.07994
 H152 H 0.14430 0.48542 0.97426
 C153 C -0.02295 -0.29737 0.45098
 C154 C -0.01653 -0.25409 0.46163
 C155 C 0.02085 -0.24121 0.49189
 C156 C 0.05159 -0.27171 0.51027
 C157 C 0.04520 -0.31465 0.49895
 C158 C 0.00758 -0.32783 0.46990
 C159 C 0.02709 -0.19800 0.50289
 C160 C -0.00301 -0.16729 0.48318
 C161 C -0.03995 -0.18001 0.45228
 C162 C -0.04676 -0.22348 0.44216
 C163 C -0.06909 -0.14877 0.43138
 C164 C -0.06124 -0.10509 0.44032
 C165 C -0.02481 -0.09235 0.47112
 C166 C 0.00385 -0.12368 0.49300
 H167 H -0.05173 -0.30757 0.42814
 H168 H 0.08060 -0.26231 0.53317
 H169 H 0.06933 -0.33783 0.51315
 H170 H 0.05565 -0.18811 0.52619
 H171 H -0.07518 -0.23331 0.41864
 H172 H -0.09745 -0.15792 0.40754
 H173 H -0.08367 -0.08120 0.42320
 H174 H 0.03236 -0.11370 0.51630
 C175 C 0.00645 0.35669 0.53605
 C176 C 0.00287 0.31359 0.52515
 C177 C -0.03602 0.29715 0.49926
 C178 C -0.07109 0.32375 0.48587
 C179 C -0.06745 0.36648 0.49757
 C180 C -0.02836 0.38338 0.52184
 C181 C -0.03931 0.25434 0.48750
 C182 C -0.00473 0.22742 0.50236
 C183 C 0.03367 0.24344 0.52929
 C184 C 0.03747 0.28669 0.53995
 C185 C 0.06728 0.21560 0.54582
 C186 C 0.06251 0.17199 0.53643
 C187 C 0.02476 0.15623 0.50923
 C188 C -0.00846 0.18419 0.49173
 H189 H 0.03641 0.36975 0.55529
 H190 H -0.10127 0.31151 0.46645
 H191 H -0.09476 0.38671 0.48708
 H192 H -0.06898 0.24178 0.46740
 H193 H 0.06703 0.29917 0.56028
 H194 H 0.09677 0.22726 0.56672
 H195 H 0.08827 0.15054 0.55032
 H196 H -0.03802 0.17164 0.47146
 C197 C 0.52153 -0.00332 -0.34165
 C198 C 0.52164 -0.00435 -0.29472
 C199 C 0.55523 0.02055 -0.26940
 C200 C 0.58748 0.04663 -0.29133
 C201 C 0.58639 0.04854 -0.33801
 C202 C 0.55317 0.02418 -0.36426
 C203 C 0.55617 0.01909 -0.22253
 C204 C 0.52328 -0.00609 -0.20059
 C205 C 0.48888 -0.03009 -0.22589
 C206 C 0.48864 -0.02963 -0.27271
 C207 C 0.45519 -0.05388 -0.20389
 C208 C 0.45570 -0.05397 -0.15729
 C209 C 0.49037 -0.03112 -0.13177
 C210 C 0.52412 -0.00729 -0.15370
 H211 H 0.49734 -0.02468 -0.36025
 H212 H 0.61339 0.06602 -0.27244
 H213 H 0.61131 0.07014 -0.35384
 H214 H 0.58229 0.03790 -0.20318
 H215 H 0.46250 -0.04840 -0.29205
 H216 H 0.42839 -0.07225 -0.22272
 H217 H 0.42939 -0.07259 -0.14102
 H218 H 0.55070 0.01092 -0.13434
 C219 C 0.47607 0.01004 0.33034
 C220 C 0.47679 0.00817 0.28410
 C221 C 0.45375 0.03813 0.25100
 C222 C 0.43190 0.07047 0.26467
 C223 C 0.43253 0.07298 0.31070
 C224 C 0.45436 0.04275 0.34403
 C225 C 0.45285 0.03530 0.20479
 C226 C 0.47578 0.00373 0.19116
 C227 C 0.50048 -0.02497 0.22417
 C228 C 0.50025 -0.02305 0.27046
 C229 C 0.52512 -0.05498 0.21022
 C230 C 0.52502 -0.05677 0.16403
 C231 C 0.49928 -0.02953 0.13123
 C232 C 0.47469 0.00063 0.14496
 H233 H 0.49228 -0.01399 0.35571
 H234 H 0.41438 0.09390 0.23976
 H235 H 0.41565 0.09848 0.32036
 H236 H 0.43455 0.05783 0.17945
 H237 H 0.51858 -0.04555 0.29579
 H238 H 0.54457 -0.07693 0.23501
 H239 H 0.54424 -0.08009 0.15387
 H240 H 0.45537 0.02222 0.11955
 C241 C 0.52173 -0.36983 0.01915
 C242 C 0.52095 -0.32342 0.01317
 C243 C 0.54832 -0.29687 -0.01543
 C244 C 0.57483 -0.31695 -0.03858
 C245 C 0.57451 -0.36285 -0.03353
 C246 C 0.54796 -0.39038 -0.00481
 C247 C 0.54900 -0.25062 -0.02040
 C248 C 0.52172 -0.23030 0.00188
 C249 C 0.49305 -0.25669 0.02920
 C250 C 0.49335 -0.30304 0.03530
 C251 C 0.46437 -0.23616 0.04969
 C252 C 0.46420 -0.19004 0.04329
 C253 C 0.49354 -0.16355 0.01736
 C254 C 0.52236 -0.18395 -0.00314
 H255 H 0.50305 -0.38965 0.04364
 H256 H 0.59579 -0.29711 -0.06088
 H257 H 0.59492 -0.37697 -0.05288
 H258 H 0.57056 -0.23044 -0.04190
 H259 H 0.47181 -0.32321 0.05679
 H260 H 0.44189 -0.25577 0.07046
 H261 H 0.44171 -0.17495 0.05934
 H262 H 0.54464 -0.16373 -0.02376
 C263 C 0.47898 0.30395 -0.00914
 C264 C 0.47943 0.25757 -0.00335
 C265 C 0.45930 0.23169 0.03194
 C266 C 0.44064 0.25256 0.06179
 C267 C 0.44128 0.29857 0.05648
 C268 C 0.46015 0.32479 0.02095
 C269 C 0.45786 0.18537 0.03673
 C270 C 0.47734 0.16442 0.00746
 C271 C 0.49913 0.19027 -0.02664
 C272 C 0.49947 0.23662 -0.03227
 C273 C 0.52042 0.16923 -0.05440
 C274 C 0.51999 0.12310 -0.04855
 C275 C 0.49719 0.09722 -0.01584
 C276 C 0.47576 0.11801 0.01201
 H277 H 0.49277 0.32379 -0.03723
 H278 H 0.42528 0.23328 0.08915
 H279 H 0.42626 0.31387 0.07976
 H280 H 0.44177 0.16563 0.06337
 H281 H 0.51556 0.25634 -0.05891
 H282 H 0.53763 0.18845 -0.08042
 H283 H 0.53681 0.10750 -0.07013
 H284 H 0.45874 0.09804 0.03781
 C285 C -0.31842 0.03689 0.54435
 C286 C -0.27676 0.03071 0.53474
 C287 C -0.27312 0.00695 0.49890
 C288 C -0.31108 -0.01225 0.47495
 C289 C -0.35237 -0.00703 0.48557
 C290 C -0.35700 0.01912 0.51913
 C291 C -0.23163 0.00270 0.48764
 C292 C -0.19364 0.02101 0.51255
 C293 C -0.19716 0.04289 0.54989
 C294 C -0.23871 0.04812 0.56036
 C295 C -0.15899 0.05936 0.57601
 C296 C -0.11773 0.05486 0.56480
 C297 C -0.11409 0.03487 0.52669
 C298 C -0.15212 0.01785 0.50073
 H299 H -0.32061 0.05706 0.57048
 H300 H -0.30885 -0.03167 0.44823
 H301 H -0.38079 -0.02402 0.46765
 H302 H -0.22892 -0.01483 0.45956
 H303 H -0.24142 0.06569 0.58842
 H304 H -0.16106 0.07586 0.60496
 H305 H -0.08864 0.06820 0.58508
 H306 H -0.14927 0.00190 0.47159
 C307 C 0.32382 0.02667 0.44178
 C308 C 0.28156 0.03376 0.44893
 C309 C 0.27630 0.06570 0.47664
 C310 C 0.31313 0.09166 0.49457
 C311 C 0.35486 0.08564 0.48566
 C312 C 0.36085 0.05210 0.46061
 C313 C 0.23433 0.07139 0.48569
 C314 C 0.19738 0.04662 0.46610
 C315 C 0.20239 0.01650 0.43628
 C316 C 0.24451 0.00972 0.42849
 C317 C 0.16511 -0.00653 0.41495
 C318 C 0.12334 -0.00052 0.42387
 C319 C 0.11843 0.02768 0.45504
 C320 C 0.15544 0.05136 0.47594
 H321 H 0.32798 0.00147 0.42142
 H322 H 0.30960 0.11699 0.51501
 H323 H 0.38267 0.10699 0.49872
 H324 H 0.23040 0.09520 0.50775
 H325 H 0.24843 -0.01408 0.40641
 H326 H 0.16829 -0.02940 0.39167
 H327 H 0.09496 -0.01912 0.40773
 H328 H 0.15147 0.07341 0.49979
 C329 C 0.01715 0.54348 1.33958
 C330 C 0.01669 0.53937 1.29375
 C331 C -0.00406 0.57015 1.25977
 C332 C -0.02428 0.60423 1.27224
 C333 C -0.02535 0.60694 1.31792
 C334 C -0.00567 0.57592 1.35241
 C335 C -0.00505 0.56587 1.21391
 C336 C 0.01273 0.53000 1.20164
 C337 C 0.03268 0.49861 1.23568
 C338 C 0.03554 0.50414 1.28147
 C339 C 0.04831 0.46152 1.22336
 C340 C 0.04335 0.45508 1.17781
 C341 C 0.02409 0.48637 1.14389
 C342 C 0.00952 0.52417 1.15588
 H343 H 0.03528 0.52117 1.36528
 H344 H -0.04040 0.62811 1.24663
 H345 H -0.04323 0.63248 1.32603
 H346 H -0.02086 0.58962 1.18784
 H347 H 0.05094 0.48014 1.30756
 H348 H 0.06343 0.43701 1.24899
 H349 H 0.05476 0.42577 1.16897
 H350 H -0.00598 0.54800 1.12969
 C351 C -0.02708 0.45710 0.67140
 C352 C -0.01719 0.45932 0.71813
 C353 C 0.02019 0.48605 0.73492
 C354 C 0.04796 0.50860 0.70498
 C355 C 0.03849 0.50523 0.65872
 C356 C 0.00032 0.48054 0.64136
 C357 C 0.02930 0.48973 0.78132
 C358 C 0.00204 0.46632 0.81133
 C359 C -0.03432 0.43815 0.79491
 C360 C -0.04398 0.43518 0.74831
 C361 C -0.06050 0.41363 0.82544
 C362 C -0.05122 0.41759 0.87170
 C363 C -0.01616 0.44676 0.88790
 C364 C 0.01053 0.47079 0.85758
 H365 H -0.05611 0.43728 0.65830
 H366 H 0.07713 0.52860 0.71738
 H367 H 0.06084 0.52223 0.63627
 H368 H 0.05758 0.51078 0.79407
 H369 H -0.07226 0.41415 0.73556
 H370 H -0.08829 0.39163 0.81352
 H371 H -0.07218 0.39885 0.89463
 H372 H 0.03800 0.49292 0.87006
   
