data_POSCAR
  _audit_creation_date              2014-09-24
  _audit_creation_method            'ToBaCCo'
  _symmetry_space_group_name_H-M    'P1'
  _symmetry_Int_Tables_number       1
  _symmetry_cell_setting            triclinic
  loop_
  _symmetry_equiv_pos_as_xyz
 x,y,z
_cell_length_a 33.1637
_cell_length_b 32.0872
_cell_length_c 32.8678
_cell_angle_alpha 100.493200
_cell_angle_beta 70.877800
_cell_angle_gamma 74.638900
loop_
  _atom_site_label
  _atom_site_type_symbol
  _atom_site_fract_x
  _atom_site_fract_y
  _atom_site_fract_z
C1 C 0.29816 0.49917 0.97978
 C2 C 0.27358 0.52647 0.96086
 C3 C 0.27090 0.57182 0.96743
 C4 C 0.29213 0.59014 0.99332
 C5 C 0.31504 0.56235 1.01335
 C6 C 0.31785 0.51711 1.00695
 C7 C 0.24811 0.50793 0.93718
 C8 C 0.22305 0.48243 0.95629
 C9 C 0.19925 0.46308 0.93492
 C10 C 0.20029 0.47039 0.89365
 C11 C 0.22376 0.49747 0.87467
 C12 C 0.24805 0.51575 0.89655
 H13 H 0.30064 0.46408 0.97462
 H14 H 0.25176 0.59250 0.95279
 H15 H 0.22207 0.47787 0.98844
 H16 H 0.26699 0.53597 0.88232
 H17 H 0.33115 0.57571 1.03383
 H18 H 0.18151 0.45659 0.87690
 C19 C 0.75023 0.42776 -0.03611
 C20 C 0.75723 0.46521 -0.01423
 C21 C 0.72085 0.50608 0.00888
 C22 C 0.67733 0.50997 0.01048
 C23 C 0.67017 0.47243 -0.01131
 C24 C 0.70654 0.43096 -0.03438
 C25 C 0.80029 0.46059 -0.00899
 C26 C 0.83357 0.47327 -0.03761
 C27 C 0.87047 0.47739 -0.02711
 C28 C 0.87406 0.46679 0.01165
 C29 C 0.84174 0.45243 0.03952
 C30 C 0.80473 0.44965 0.02902
 H31 H 0.77816 0.39564 -0.05200
 H32 H 0.72620 0.53458 0.02693
 H33 H 0.82904 0.48252 -0.06637
 H34 H 0.77820 0.44082 0.05116
 H35 H 0.63616 0.47500 -0.00889
 H36 H 0.90264 0.46862 0.01995
 C37 C -0.00642 0.20187 0.52598
 C38 C -0.02389 0.22780 0.50148
 C39 C -0.06716 0.23123 0.50196
 C40 C -0.09200 0.20771 0.52526
 C41 C -0.07394 0.18146 0.54915
 C42 C -0.03137 0.17893 0.55029
 C43 C 0.00365 0.25019 0.47438
 C44 C 0.00732 0.24733 0.43010
 C45 C 0.03182 0.27004 0.40457
 C46 C 0.05442 0.29409 0.42359
 C47 C 0.05242 0.29563 0.46722
 C48 C 0.02629 0.27442 0.49267
 H49 H 0.02705 0.19896 0.52551
 H50 H -0.08098 0.25121 0.48320
 H51 H -0.01038 0.22854 0.41650
 H52 H 0.02369 0.27665 0.52680
 H53 H -0.09300 0.16274 0.56639
 H54 H 0.07359 0.31172 0.40456
 C55 C 1.06612 0.76305 0.49305
 C56 C 1.02461 0.76341 0.49065
 C57 C 0.99082 0.80447 0.49868
 C58 C 0.99775 0.84546 0.50971
 C59 C 1.04017 0.84478 0.51029
 C60 C 1.07480 0.80374 0.50208
 C61 C 1.01610 0.72090 0.47935
 C62 C 1.01361 0.69374 0.50844
 C63 C 0.99997 0.65614 0.50037
 C64 C 0.99292 0.64402 0.46045
 C65 C 0.99717 0.67003 0.43040
 C66 C 1.00755 0.70912 0.44063
 H67 H 1.09168 0.73078 0.48638
 H68 H 0.95849 0.80440 0.49763
 H69 H 1.01930 0.70385 0.53882
 H70 H 1.01005 0.72993 0.41802
 H71 H 1.04606 0.87639 0.51761
 H72 H 0.98437 0.61417 0.45219
 C73 C 0.51663 0.07207 0.24518
 C74 C 0.50631 0.03525 0.25743
 C75 C 0.48103 0.01566 0.23841
 C76 C 0.46552 0.03302 0.20794
 C77 C 0.47572 0.07022 0.19633
 C78 C 0.50158 0.08988 0.21455
 C79 C 0.52060 0.01877 0.29156
 C80 C 0.48818 0.01560 0.32989
 C81 C 0.49983 0.00647 0.36550
 C82 C 0.54503 -0.00188 0.36141
 C83 C 0.57822 0.00023 0.32293
 C84 C 0.56555 0.01067 0.28810
 H85 H 0.53602 0.08691 0.26020
 H86 H 0.47320 -0.01292 0.24759
 H87 H 0.45315 0.02337 0.33332
 H88 H 0.59002 0.01376 0.25865
 H89 H 0.46435 0.08325 0.17230
 H90 H 0.55427 -0.00920 0.38870
 C91 C 0.49259 0.00629 0.81326
 C92 C 0.47203 -0.01765 0.79134
 C93 C 0.47120 -0.05968 0.79755
 C94 C 0.48941 -0.07734 0.82650
 C95 C 0.51010 -0.05284 0.84781
 C96 C 0.51240 -0.01149 0.84084
 C97 C 0.45140 0.00109 0.76185
 C98 C 0.47445 0.02040 0.73089
 C99 C 0.45579 0.03712 0.70201
 C100 C 0.41413 0.03330 0.70350
 C101 C 0.39061 0.01431 0.73434
 C102 C 0.40907 -0.00121 0.76382
 H103 H 0.49334 0.03873 0.80872
 H104 H 0.45550 -0.07785 0.78026
 H105 H 0.50722 0.02203 0.72899
 H106 H 0.39098 -0.01593 0.78764
 H107 H 0.52422 -0.06576 0.87030
 H108 H 0.39996 0.04478 0.68046
 C109 C 0.28300 0.03667 0.53888
 H110 H 0.26005 0.05865 0.57233
 C111 C 0.32354 0.04309 0.51688
 H112 H 0.33108 0.07079 0.53322
 C113 C 0.30243 -0.02828 0.47868
 H114 H 0.29489 -0.05722 0.46508
 C115 C 0.34327 -0.02254 0.45496
 H116 H 0.36684 -0.04686 0.42280
 N117 N 0.27397 0.00060 0.52036
 C118 C 0.13262 0.02673 0.60587
 H119 H 0.13731 -0.00088 0.62048
 C120 C 0.08877 0.05361 0.61325
 H121 H 0.06013 0.04654 0.63412
 C122 C 0.16504 0.06650 0.55794
 H123 H 0.19491 0.07027 0.53514
 C124 C 0.12175 0.09406 0.56421
 H125 H 0.11876 0.11945 0.54663
 Zn126 Zn 0.22680 -0.01195 0.56131
 N127 N 0.16960 0.03315 0.57814
 C128 C 0.21466 0.01205 0.65415
 N129 N 0.24270 -0.01417 0.61128
 C130 C 0.28705 -0.03850 0.60051
 C131 C 0.30555 -0.03518 0.63284
 C132 C 0.23157 0.01534 0.68799
 C133 C 0.19826 -0.06514 0.50887
 C134 C 0.18183 -0.09956 0.49809
 C135 C 0.21638 -0.13918 0.54086
 C136 C 0.23111 -0.10330 0.55193
 N137 N 0.22108 -0.06690 0.53651
 H138 H 0.17985 0.03204 0.66179
 H139 H 0.30874 -0.05846 0.56602
 H140 H 0.34146 -0.05314 0.62322
 H141 H 0.20945 0.03755 0.72161
 H142 H 0.19005 -0.03543 0.49778
 H143 H 0.16160 -0.09654 0.47801
 H144 H 0.22289 -0.16704 0.55490
 H145 H 0.24835 -0.10350 0.57471
 C146 C 0.08295 0.08713 0.59137
 C147 C 0.35491 0.01240 0.47512
 C148 C 0.19004 -0.13662 0.51493
 C149 C 0.27790 -0.00745 0.67692
 C150 C 0.63779 0.08112 0.54046
 H151 H 0.64566 0.09598 0.51313
 C152 C 0.59248 0.08931 0.56740
 H153 H 0.56603 0.11119 0.56071
 C154 C 0.66350 0.03227 0.57984
 H155 H 0.69130 0.00883 0.58349
 C156 C 0.61860 0.03945 0.60756
 H157 H 0.61234 0.02189 0.63288
 N158 N 0.67216 0.05265 0.54672
 C159 C 0.79611 0.07529 0.47689
 H160 H 0.81665 0.04068 0.45682
 C161 C 0.81686 0.10741 0.48051
 H162 H 0.85336 0.09753 0.46264
 C163 C 0.72407 0.12939 0.52722
 H164 H 0.68835 0.13725 0.54697
 C165 C 0.74336 0.16308 0.53079
 H166 H 0.72221 0.19687 0.55291
 Zn167 Zn 0.73142 0.03611 0.50211
 N168 N 0.75077 0.08636 0.50089
 C169 C 0.74221 0.02845 0.41124
 N170 N 0.72816 0.01207 0.44674
 C171 C 0.70250 -0.01479 0.44747
 C172 C 0.68712 -0.02342 0.41311
 C173 C 0.72856 0.01963 0.37555
 C174 C 0.78036 0.01320 0.55255
 C175 C 0.81887 -0.00758 0.55978
 C176 C 0.84467 -0.06706 0.49048
 C177 C 0.80556 -0.04479 0.48430
 N178 N 0.77509 -0.00477 0.51469
 H179 H 0.76159 0.05065 0.41182
 H180 H 0.69102 -0.02659 0.47652
 H181 H 0.66443 -0.04255 0.41554
 H182 H 0.73811 0.03489 0.34876
 H183 H 0.75605 0.04551 0.57564
 H184 H 0.82298 0.00834 0.58942
 H185 H 0.86985 -0.09775 0.46506
 H186 H 0.80118 -0.05779 0.45388
 C187 C 0.79054 0.15164 0.50821
 C188 C 0.58237 0.06752 0.60089
 C189 C 0.85248 -0.04732 0.52769
 C190 C 0.69921 -0.00514 0.37720
 C191 C 0.48824 0.21665 1.07501
 H192 H 0.46538 0.21392 1.05838
 C193 C 0.48764 0.19716 1.10974
 H194 H 0.46378 0.17989 1.12010
 C195 C 0.54877 0.24046 1.07988
 H196 H 0.57360 0.25591 1.06702
 C197 C 0.54895 0.22190 1.11518
 H198 H 0.57392 0.22369 1.12926
 N199 N 0.51890 0.23718 1.06038
 C200 C 0.46486 0.31504 0.98235
 H201 H 0.48900 0.29549 0.94847
 C202 C 0.43217 0.35650 0.98968
 H203 H 0.43082 0.36828 0.96113
 C204 C 0.44004 0.32532 1.06101
 H205 H 0.44452 0.31389 1.08873
 C206 C 0.40740 0.36732 1.06987
 H207 H 0.38611 0.38722 1.10449
 Zn208 Zn 0.52238 0.25361 1.00725
 N209 N 0.46871 0.30077 1.01786
 C210 C 0.50164 0.19376 0.94736
 N211 N 0.53258 0.19988 0.96443
 C212 C 0.57061 0.16499 0.95659
 C213 C 0.57834 0.12154 0.93166
 C214 C 0.50797 0.15056 0.92224
 C215 C 0.56561 0.31605 1.01519
 C216 C 0.59700 0.33755 1.00169
 C217 C 0.63712 0.27743 0.93137
 C218 C 0.60473 0.25717 0.94614
 N219 N 0.57005 0.27653 0.98757
 H220 H 0.47103 0.22176 0.95501
 H221 H 0.59417 0.17071 0.97134
 H222 H 0.60863 0.09451 0.92671
 H223 H 0.48229 0.14584 0.91018
 H224 H 0.53712 0.33123 1.04755
 H225 H 0.59277 0.36902 1.02423
 H226 H 0.66413 0.26161 0.89813
 H227 H 0.60683 0.22659 0.92404
 C228 C 0.40425 0.38394 1.03392
 C229 C 0.51859 0.19916 1.12995
 C230 C 0.63337 0.31827 0.95931
 C231 C 0.54615 0.11356 0.91516
 C232 C 0.48353 0.82152 -0.01718
 H233 H 0.48648 0.84060 0.01172
 C234 C 0.49124 0.83590 -0.05566
 H235 H 0.50013 0.86602 -0.05584
 C236 C 0.46626 0.76054 -0.05106
 H237 H 0.45547 0.73178 -0.04851
 C238 C 0.47334 0.77397 -0.09022
 H239 H 0.46839 0.75486 -0.11772
 N240 N 0.46994 0.78528 -0.01503
 C241 C 0.39480 0.71979 0.05873
 H242 H 0.41886 0.70340 0.07140
 C243 C 0.36415 0.69969 0.05204
 H244 H 0.36494 0.66836 0.06024
 C245 C 0.36665 0.77840 0.02988
 H246 H 0.36926 0.80793 0.01931
 C247 C 0.33549 0.75920 0.02235
 H248 H 0.31389 0.77493 0.00686
 Zn249 Zn 0.44812 0.77490 0.04167
 N250 N 0.39653 0.75772 0.04643
 C251 C 0.39618 0.86551 0.09420
 N252 N 0.43341 0.82960 0.08642
 C253 C 0.46422 0.83445 0.10422
 C254 C 0.45891 0.87689 0.12979
 C255 C 0.38968 0.90863 0.11941
 C256 C 0.52810 0.69713 0.00781
 C257 C 0.55891 0.65959 0.01066
 C258 C 0.51740 0.68478 0.09149
 C259 C 0.48718 0.72145 0.08706
 N260 N 0.49302 0.72702 0.04573
 H261 H 0.37259 0.86117 0.07906
 H262 H 0.49450 0.80599 0.09633
 H263 H 0.48479 0.88025 0.14210
 H264 H 0.36040 0.93675 0.12404
 H265 H 0.53171 0.70189 -0.02475
 H266 H 0.58658 0.63597 -0.01981
 H267 H 0.51164 0.68084 0.12470
 H268 H 0.45842 0.74517 0.11657
 C269 C 0.33523 0.71832 0.03198
 C270 C 0.48446 0.81312 -0.09216
 C271 C 0.55378 0.65319 0.05293
 C272 C 0.42206 0.91493 0.13646
 C273 C 1.07100 0.38674 0.10936
 H274 H 1.04881 0.36737 0.11673
 C275 C 1.09598 0.38264 0.06449
 H276 H 1.09395 0.35881 0.03802
 C277 C 1.09667 0.44457 0.13490
 H278 H 1.09515 0.47028 0.16215
 C279 C 1.12257 0.44122 0.09051
 H280 H 1.14131 0.46399 0.08439
 N281 N 1.07054 0.41837 0.14348
 C282 C 1.02669 0.40219 0.27405
 H283 H 1.01864 0.43724 0.29095
 C284 C 1.03054 0.37085 0.29810
 H285 H 1.02601 0.38226 0.33294
 C286 C 1.03919 0.34522 0.20965
 H287 H 1.04195 0.33548 0.17536
 C288 C 1.04230 0.31284 0.23288
 H289 H 1.04786 0.27829 0.21599
 Zn290 Zn 1.02216 0.43405 0.20052
 N291 N 1.03108 0.38912 0.23056
 C292 C 0.94248 0.41508 0.20029
 N293 N 0.97025 0.43896 0.18740
 C294 C 0.96525 0.46439 0.15938
 C295 C 0.93245 0.46525 0.14167
 C296 C 0.90889 0.41505 0.18332
 C297 C 1.04731 0.49456 0.25279
 C298 C 1.04068 0.53464 0.28339
 C299 C 0.96804 0.56797 0.27969
 C300 C 0.97535 0.52679 0.25033
 N301 N 1.01442 0.49098 0.23762
 H302 H 0.94738 0.39485 0.22239
 H303 H 0.98814 0.48267 0.14942
 H304 H 0.93003 0.48475 0.11836
 H305 H 0.88815 0.39462 0.19260
 H306 H 1.07800 0.46562 0.24235
 H307 H 1.06649 0.53661 0.29630
 H308 H 0.93648 0.59589 0.29007
 H309 H 0.94926 0.52336 0.23857
 C310 C 1.03755 0.32578 0.27785
 C311 C 1.12076 0.41140 0.05467
 C312 C 1.00063 0.57180 0.29710
 C313 C 0.90442 0.43963 0.15276
 C314 C -0.00738 0.47678 0.76387
 H315 H 0.00131 0.44779 0.73592
 C316 C -0.03403 0.47827 0.80744
 H317 H -0.04613 0.45065 0.81257
 C318 C 0.00114 0.54593 0.79224
 H319 H 0.01609 0.57150 0.78606
 C320 C -0.02427 0.54813 0.83628
 H321 H -0.02926 0.57581 0.86395
 N322 N 0.01020 0.51001 0.75728
 C323 C 0.11213 0.42645 0.62851
 H324 H 0.14019 0.43228 0.63549
 C325 C 0.12085 0.39387 0.58905
 H326 H 0.15573 0.37394 0.56639
 C327 C 0.03261 0.44768 0.64758
 H328 H -0.00159 0.47040 0.66933
 C329 C 0.03972 0.41490 0.60926
 H330 H 0.01069 0.41201 0.60223
 Zn331 Zn 0.05568 0.50546 0.70213
 N332 N 0.06853 0.45292 0.65646
 C333 C 0.12193 0.47105 0.73233
 N334 N 0.10706 0.50501 0.71554
 C335 C 0.12320 0.53984 0.71618
 C336 C 0.15488 0.54184 0.73535
 C337 C 0.15286 0.47212 0.75243
 C338 C -0.00975 0.57126 0.69007
 C339 C -0.02546 0.59329 0.66238
 C340 C 0.05230 0.58214 0.61601
 C341 C 0.06669 0.55899 0.64372
 N342 N 0.03572 0.55334 0.67945
 H343 H 0.10767 0.44437 0.73237
 H344 H 0.10959 0.56749 0.70445
 H345 H 0.16581 0.57080 0.73734
 H346 H 0.16283 0.44574 0.76731
 H347 H -0.03355 0.56458 0.71736
 H348 H -0.06145 0.60433 0.66913
 H349 H 0.07741 0.58394 0.58609
 H350 H 0.10269 0.54217 0.63435
 C351 C 0.08426 0.38846 0.57881
 C352 C -0.04112 0.51337 0.84425
 C353 C 0.00596 0.59745 0.62405
 C354 C 0.16905 0.50826 0.75490
 C355 C -0.01156 0.15115 0.57501
 C356 C -0.03548 0.13633 0.60884
 C357 C -0.00363 0.11119 0.62083
 C358 C 0.03753 0.11241 0.59341
 O359 O 0.03257 0.13687 0.56589
 H360 H -0.07174 0.14298 0.62323
 H361 H -0.01002 0.09387 0.64627
 C362 C 0.63923 0.55237 0.03817
 C363 C 0.62923 0.57227 0.08280
 C364 C 0.59477 0.61226 0.09491
 C365 C 0.58660 0.61407 0.05653
 O366 O 0.61366 0.57759 0.02196
 H367 H 0.64584 0.55945 0.10363
 H368 H 0.57887 0.63768 0.12740
 C369 C 0.95979 -0.11146 0.52218
 C370 C 0.95606 -0.07031 0.54775
 C371 C 0.91513 -0.04091 0.55372
 C372 C 0.89663 -0.06608 0.53138
 O373 O 0.92376 -0.10889 0.51213
 H374 H 0.97970 -0.06261 0.56140
 H375 H 0.90086 -0.00521 0.57180
 C376 C 0.34013 0.48848 1.02942
 C377 C 0.34012 0.50388 1.07144
 C378 C 0.36273 0.46641 1.07971
 C379 C 0.37513 0.43087 1.04199
 O380 O 0.36135 0.44426 1.01150
 H381 H 0.32507 0.53822 1.09357
 H382 H 0.37039 0.46547 1.10916
 C383 C 0.86454 0.20788 0.52247
 C384 C 0.83052 0.24522 0.52491
 C385 C 0.79697 0.22965 0.52099
 C386 C 0.81361 0.18390 0.51563
 O387 O 0.85441 0.17076 0.51672
 H388 H 0.83013 0.27961 0.52938
 H389 H 0.76480 0.24900 0.52105
 C390 C 0.29164 0.63492 -0.00066
 C391 C 0.26955 0.66723 -0.01638
 C392 C 0.28104 0.70417 -0.00466
 C393 C 0.30931 0.69190 0.01733
 O394 O 0.31535 0.65024 0.01991
 H395 H 0.24824 0.66455 -0.03482
 H396 H 0.27088 0.73559 -0.01252
 C397 C 0.11674 -0.19553 0.50330
 C398 C 0.15179 -0.23188 0.50143
 C399 C 0.18442 -0.21490 0.50544
 C400 C 0.16743 -0.16975 0.50875
 O401 O 0.12661 -0.15801 0.50753
 H402 H 0.15346 -0.26644 0.49864
 H403 H 0.21669 -0.23324 0.50586
 C404 C 0.69793 0.39002 0.94781
 C405 C 0.72901 0.35379 0.91124
 C406 C 0.70868 0.32210 0.90941
 C407 C 0.66673 0.34119 0.94528
 O408 O 0.66022 0.38246 0.96840
 H409 H 0.76277 0.35052 0.88909
 H410 H 0.72356 0.28863 0.88561
 C411 C 0.51326 0.12817 1.20052
 C412 C 0.53652 0.15190 1.21729
 C413 C 0.54123 0.18232 1.19366
 C414 C 0.52048 0.17522 1.16419
 O415 O 0.50339 0.14258 1.16848
 H416 H 0.54900 0.14777 1.24336
 H417 H 0.55786 0.20666 1.19765
 C418 C -0.00794 0.63240 0.53249
 C419 C -0.03345 0.60431 0.53513
 C420 C -0.03389 0.59006 0.57172
 C421 C -0.00814 0.60968 0.58847
 O422 O 0.00763 0.63543 0.56491
 H423 H -0.05076 0.59580 0.51386
 H424 H -0.04958 0.56665 0.58376
 C425 C 0.48587 0.88240 -0.16397
 C426 C 0.47005 0.85256 -0.18470
 C427 C 0.46966 0.82070 -0.16231
 C428 C 0.48505 0.83329 -0.12938
 O429 O 0.49518 0.87032 -0.13074
 H430 H 0.45925 0.85375 -0.21227
 H431 H 0.45761 0.79292 -0.16829
 C432 C 1.03226 0.27082 0.36176
 C433 C 1.01877 0.24294 0.33565
 C434 C 1.02180 0.25791 0.29889
 C435 C 1.03635 0.29411 0.30531
 O436 O 1.04310 0.30164 0.34305
 H437 H 1.00764 0.21519 0.34231
 H438 H 1.01216 0.24539 0.27197
 C439 C 0.43981 1.01136 0.18742
 C440 C 0.40639 1.03364 0.17481
 C441 C 0.39347 1.00085 0.15572
 C442 C 0.42017 0.96075 0.15781
 O443 O 0.44815 0.96725 0.17725
 H444 H 0.39333 1.06943 0.17860
 H445 H 0.36879 1.00576 0.14060
 C446 C 0.07672 0.31988 0.48713
 C447 C 0.11869 0.32210 0.46382
 C448 C 0.12846 0.34664 0.49547
 C449 C 0.09148 0.35787 0.53562
 O450 O 0.06020 0.34154 0.53056
 H451 H 0.13971 0.30739 0.42817
 H452 H 0.15821 0.35641 0.48963
 C453 C 0.53515 0.01335 0.86265
 C454 C 0.57074 -0.00679 0.87363
 C455 C 0.58076 0.02784 0.89358
 C456 C 0.55049 0.06688 0.89347
 O457 O 0.52289 0.05799 0.87450
 H458 H 0.58745 -0.04249 0.86785
 H459 H 0.60638 0.02456 0.90752
 C460 C 0.99110 0.65569 0.38827
 C461 C 0.97060 0.68443 0.36857
 C462 C 0.97092 0.65679 0.33152
 C463 C 0.99223 0.61341 0.33113
 O464 O 1.00434 0.61267 0.36555
 H465 H 0.95635 0.72100 0.38031
 H466 H 0.95760 0.66698 0.30750
 C467 C 1.17398 0.43857 -0.04361
 C468 C 1.15159 0.41418 -0.06104
 C469 C 1.13031 0.39831 -0.02736
 C470 C 1.14098 0.41426 0.00829
 O471 O 1.16752 0.43831 -0.00174
 H472 H 1.15013 0.40879 -0.09390
 H473 H 1.10808 0.37917 -0.02832
 C474 C 0.48073 0.05725 0.66966
 C475 C 0.46142 0.08677 0.64989
 C476 C 0.49656 0.09586 0.62217
 C477 C 0.53496 0.07118 0.62690
 O478 O 0.52520 0.04799 0.65591
 H479 H 0.42600 0.10025 0.65503
 H480 H 0.49405 0.11749 0.60078
 C481 C -0.09775 0.49297 0.94573
 C482 C -0.06753 0.50929 0.95834
 C483 C -0.04404 0.52114 0.92268
 C484 C -0.06090 0.51075 0.89054
 O485 O -0.09353 0.49379 0.90435
 H486 H -0.06330 0.51319 0.98991
 H487 H -0.01673 0.53436 0.91985
 C488 C 0.46383 0.01007 0.40842
 C489 C 0.46523 0.02339 0.45018
 C490 C 0.42444 0.02640 0.48052
 C491 C 0.40100 0.01453 0.45527
 O492 O 0.42479 0.00455 0.41142
 H493 H 0.49213 0.03143 0.45783
 H494 H 0.41320 0.03590 0.51682
 C495 C 0.22033 0.50793 0.83339
 C496 C 0.23981 0.53525 0.81181
 C497 C 0.22431 0.53835 0.77838
 C498 C 0.19667 0.51260 0.78175
 O499 O 0.19443 0.49411 0.81488
 H500 H 0.26178 0.55198 0.81977
 H501 H 0.23183 0.55761 0.75488
 C502 C 0.62459 -0.00490 0.32164
 C503 C 0.66060 -0.00346 0.28634
 C504 C 0.69439 -0.00491 0.30168
 C505 C 0.67684 -0.00749 0.34504
 O506 O 0.63473 -0.00768 0.35704
 H507 H 0.66211 -0.00052 0.25368
 H508 H 0.72748 -0.00338 0.28368
 C509 C 0.84684 0.44215 0.08007
 C510 C 0.82226 0.42183 0.10743
 C511 C 0.83983 0.41832 0.13944
 C512 C 0.87366 0.43689 0.12930
 O513 O 0.87776 0.45121 0.09348
 H514 H 0.79536 0.41019 0.10426
 H515 H 0.82927 0.40374 0.16655
 C516 C 0.34778 0.00929 0.73395
 C517 C 0.31078 0.01294 0.77122
 C518 C 0.27871 0.00757 0.75520
 C519 C 0.29896 0.00032 0.70934
 O520 O 0.34066 0.00154 0.69652
 H521 H 0.30728 0.01962 0.80592
 H522 H 0.24490 0.00844 0.77448
   
