data_POSCAR
  _audit_creation_date              2014-09-24
  _audit_creation_method            'ToBaCCo'
  _symmetry_space_group_name_H-M    'P1'
  _symmetry_Int_Tables_number       1
  _symmetry_cell_setting            triclinic
  loop_
  _symmetry_equiv_pos_as_xyz
 x,y,z
_cell_length_a 45.8370
_cell_length_b 47.4472
_cell_length_c 48.4574
_cell_angle_alpha 85.436200
_cell_angle_beta 95.774100
_cell_angle_gamma 95.497600
loop_
  _atom_site_label
  _atom_site_type_symbol
  _atom_site_fract_x
  _atom_site_fract_y
  _atom_site_fract_z
C1 C 0.21976 0.28095 0.27495
 C2 C 0.23828 0.29811 0.25355
 C3 C 0.25409 0.28207 0.23946
 C4 C 0.24967 0.25012 0.24780
 C5 C 0.20066 0.25909 0.25763
 C6 C 0.21619 0.24283 0.24352
 C7 C 0.24165 0.26366 0.29347
 C8 C 0.25728 0.24750 0.27943
 H9 H 0.23836 0.32080 0.24923
 H10 H 0.26244 0.23697 0.23640
 H11 H 0.17684 0.25787 0.25541
 H12 H 0.24383 0.26367 0.31593
 C13 C 0.72271 0.78190 0.27625
 C14 C 0.74375 0.79762 0.25615
 C15 C 0.75899 0.78015 0.24324
 C16 C 0.75171 0.74847 0.25105
 C17 C 0.70307 0.76138 0.25789
 C18 C 0.71809 0.74380 0.24474
 C19 C 0.74195 0.76281 0.29587
 C20 C 0.75701 0.74516 0.28291
 H21 H 0.74521 0.82022 0.25077
 H22 H 0.76400 0.73458 0.23994
 H23 H 0.67930 0.76097 0.25556
 H24 H 0.74361 0.76363 0.31825
 C25 C 0.72501 0.28091 0.77902
 C26 C 0.74583 0.29670 0.76150
 C27 C 0.76281 0.27939 0.74739
 C28 C 0.75521 0.24898 0.75360
 C29 C 0.70603 0.26137 0.75912
 C30 C 0.72174 0.24453 0.74586
 C31 C 0.74333 0.26106 0.79863
 C32 C 0.75938 0.24442 0.78555
 H33 H 0.74466 0.31904 0.75557
 H34 H 0.76782 0.23470 0.74348
 H35 H 0.68241 0.26177 0.75494
 H36 H 0.74362 0.26055 0.82104
 C37 C 0.22374 0.78224 0.77194
 C38 C 0.24551 0.79936 0.75343
 C39 C 0.26159 0.78314 0.73979
 C40 C 0.25411 0.75103 0.74565
 C41 C 0.20493 0.76299 0.75176
 C42 C 0.22067 0.74656 0.73814
 C43 C 0.24251 0.76229 0.79099
 C44 C 0.25864 0.74606 0.77749
 H45 H 0.24616 0.82210 0.74918
 H46 H 0.26698 0.73781 0.73444
 H47 H 0.18122 0.76293 0.74805
 H48 H 0.24276 0.76126 0.81342
 C49 C 0.04866 0.03108 0.01006
 H50 H 0.04782 0.03613 -0.01216
 C51 C 0.06596 0.04875 0.02816
 H52 H 0.07825 0.06751 0.01965
 C53 C 0.03223 0.00129 0.04805
 H54 H 0.01870 -0.01696 0.05576
 C55 C 0.04929 0.01830 0.06688
 H56 H 0.04908 0.01256 0.08893
 N57 N 0.03214 0.00796 0.02022
 C58 C 0.01335 -0.05135 -0.04499
 H59 H -0.01045 -0.05380 -0.04635
 C60 C 0.02838 -0.06671 -0.06154
 H61 H 0.01593 -0.08069 -0.07592
 C62 C 0.05837 -0.02983 -0.02471
 H63 H 0.06999 -0.01571 -0.01008
 C64 C 0.07429 -0.04477 -0.04087
 H65 H 0.09811 -0.04203 -0.03838
 Zn66 Zn 0.00666 -0.01318 -0.00528
 N67 N 0.02845 -0.03312 -0.02726
 C68 C -0.01671 0.01414 -0.05614
 N69 N -0.01567 0.01300 -0.02792
 C70 C -0.02977 0.03132 -0.01490
 C71 C -0.04665 0.05108 -0.03033
 C72 C -0.03323 0.03368 -0.07240
 C73 C -0.00658 -0.06320 0.02772
 C74 C -0.02365 -0.08289 0.04372
 C75 C -0.06490 -0.05479 0.03166
 C76 C -0.04719 -0.03593 0.01556
 N77 N -0.01840 -0.04005 0.01438
 H78 H -0.00468 0.00001 -0.06615
 H79 H -0.02811 0.03036 0.00758
 H80 H -0.05836 0.06488 -0.01948
 H81 H -0.03363 0.03435 -0.09481
 H82 H 0.01630 -0.06616 0.02620
 H83 H -0.01374 -0.10119 0.05403
 H84 H -0.08734 -0.05023 0.03321
 H85 H -0.05641 -0.01770 0.00455
 C86 C 0.05929 -0.06344 -0.05968
 C87 C 0.06618 0.04262 0.05703
 C88 C -0.05318 -0.07859 0.04627
 C89 C -0.04869 0.05237 -0.05952
 C90 C 0.04433 0.53686 0.50544
 H91 H 0.04109 0.54066 0.48307
 C92 C 0.06236 0.55621 0.52122
 H93 H 0.07320 0.57481 0.51088
 C94 C 0.03367 0.50822 0.54616
 H95 H 0.02199 0.48984 0.55588
 C96 C 0.05178 0.52683 0.56270
 H97 H 0.05386 0.52257 0.58507
 N98 N 0.03037 0.51347 0.51806
 C99 C 0.01087 0.44917 0.45776
 H100 H -0.01281 0.44558 0.45768
 C101 C 0.02584 0.43338 0.44155
 H102 H 0.01343 0.41791 0.42869
 C103 C 0.05567 0.47400 0.47450
 H104 H 0.06725 0.48959 0.48764
 C105 C 0.07151 0.45869 0.45864
 H106 H 0.09525 0.46262 0.45986
 Zn107 Zn 0.00439 0.48967 0.49531
 N108 N 0.02587 0.46923 0.47356
 C109 C -0.02346 0.51244 0.44417
 N110 N -0.02036 0.51342 0.47230
 C111 C -0.03407 0.53231 0.48497
 C112 C -0.05230 0.55076 0.46932
 C113 C -0.04156 0.53048 0.42770
 C114 C -0.00461 0.44214 0.53288
 C115 C -0.02028 0.42264 0.55026
 C116 C -0.06414 0.44624 0.53524
 C117 C -0.04768 0.46515 0.51804
 N118 N -0.01834 0.46316 0.51757
 H119 H -0.01195 0.49770 0.43440
 H120 H -0.03075 0.53304 0.50734
 H121 H -0.06278 0.56579 0.47984
 H122 H -0.04418 0.52900 0.40539
 H123 H 0.01866 0.44075 0.53177
 H124 H -0.00891 0.40609 0.56227
 H125 H -0.08723 0.44892 0.53599
 H126 H -0.05838 0.48164 0.50541
 C127 C 0.05659 0.43813 0.44178
 C128 C 0.06617 0.55130 0.55024
 C129 C -0.05044 0.42473 0.55186
 C130 C -0.05636 0.54992 0.44027
 C131 C 0.54888 0.04321 0.50431
 H132 H 0.54601 0.04796 0.48205
 C133 C 0.56678 0.06177 0.52108
 H134 H 0.57790 0.08071 0.51160
 C135 C 0.53741 0.01297 0.54381
 H136 H 0.52550 -0.00577 0.55265
 C137 C 0.55539 0.03074 0.56131
 H138 H 0.55710 0.02553 0.58354
 N139 N 0.53453 0.01944 0.51587
 C140 C 0.51513 -0.04389 0.45471
 H141 H 0.49143 -0.04726 0.45446
 C142 C 0.53006 -0.05990 0.43868
 H143 H 0.51762 -0.07536 0.42583
 C144 C 0.56004 -0.01937 0.47164
 H145 H 0.57165 -0.00376 0.48475
 C146 C 0.57584 -0.03486 0.45590
 H147 H 0.59959 -0.03109 0.45719
 Zn148 Zn 0.50864 -0.00330 0.49205
 N149 N 0.53021 -0.02394 0.47057
 C150 C 0.48354 0.02080 0.44048
 N151 N 0.48521 0.02135 0.46862
 C152 C 0.47109 0.04032 0.48079
 C153 C 0.45373 0.05915 0.46456
 C154 C 0.46648 0.03932 0.42345
 C155 C 0.49724 -0.05212 0.52732
 C156 C 0.48077 -0.07174 0.54393
 C157 C 0.43858 -0.04504 0.53120
 C158 C 0.45574 -0.02617 0.51457
 N159 N 0.48466 -0.02968 0.51334
 H160 H 0.49553 0.00614 0.43112
 H161 H 0.47321 0.04067 0.50320
 H162 H 0.44213 0.07360 0.47474
 H163 H 0.46563 0.03869 0.40110
 H164 H 0.52020 -0.05465 0.52569
 H165 H 0.49123 -0.08951 0.55471
 H166 H 0.41593 -0.04109 0.53263
 H167 H 0.44593 -0.00851 0.50305
 C168 C 0.56083 -0.05541 0.43909
 C169 C 0.57010 0.05564 0.54998
 C170 C 0.45105 -0.06816 0.54635
 C171 C 0.45115 0.05875 0.43546
 C172 C 0.53463 0.54411 0.01021
 H173 H 0.52399 0.55309 -0.00896
 C174 C 0.55183 0.56188 0.02822
 H175 H 0.55444 0.58445 0.02258
 C176 C 0.54444 0.50377 0.04059
 H177 H 0.54109 0.48109 0.04534
 C178 C 0.56181 0.52078 0.05927
 H179 H 0.57159 0.51102 0.07852
 N180 N 0.53100 0.51569 0.01680
 C181 C 0.51317 0.45508 -0.04730
 H182 H 0.48940 0.45396 -0.05067
 C183 C 0.52885 0.43960 -0.06315
 H184 H 0.51696 0.42674 -0.07881
 C185 C 0.55746 0.47397 -0.02336
 H186 H 0.56853 0.48742 -0.00786
 C187 C 0.57402 0.45884 -0.03874
 H188 H 0.59776 0.46055 -0.03462
 Zn189 Zn 0.50537 0.49251 -0.00672
 N190 N 0.52757 0.47175 -0.02776
 C191 C 0.48460 0.51948 -0.05874
 N192 N 0.48131 0.51623 -0.03102
 C193 C 0.46183 0.53087 -0.01982
 C194 C 0.44462 0.54940 -0.03657
 C195 C 0.46777 0.53783 -0.07630
 C196 C 0.47757 0.43897 0.01262
 C197 C 0.45960 0.42102 0.02938
 C198 C 0.45081 0.46147 0.05361
 C199 C 0.46910 0.47858 0.03657
 N200 N 0.48151 0.46734 0.01607
 H201 H 0.50075 0.50841 -0.06726
 H202 H 0.45983 0.52859 0.00221
 H203 H 0.42910 0.56060 -0.02716
 H204 H 0.47108 0.54051 -0.09819
 H205 H 0.48820 0.43012 -0.00314
 H206 H 0.45623 0.39861 0.02598
 H207 H 0.44110 0.47087 0.06976
 H208 H 0.47373 0.50083 0.04004
 C209 C 0.55972 0.44131 -0.05893
 C210 C 0.56536 0.55032 0.05334
 C211 C 0.44565 0.43233 0.04994
 C212 C 0.44754 0.55320 -0.06520
 C213 C 0.17314 -0.17118 -0.17837
 C214 C 0.19850 -0.15783 -0.18948
 C215 C 0.21483 -0.17250 -0.20553
 C216 C 0.20588 -0.20082 -0.21141
 C217 C 0.18092 -0.21433 -0.19953
 C218 C 0.16463 -0.19966 -0.18345
 C219 C 0.15597 -0.15555 -0.16117
 C220 C 0.14475 -0.16885 -0.13700
 C221 C 0.12889 -0.15401 -0.12067
 C222 C 0.12387 -0.12552 -0.12814
 C223 C 0.13498 -0.11226 -0.15238
 C224 C 0.15086 -0.12710 -0.16869
 C225 C 0.10727 -0.10963 -0.11063
 C226 C 0.11635 -0.08119 -0.10567
 C227 C 0.10080 -0.06624 -0.08916
 C228 C 0.07579 -0.07937 -0.07722
 C229 C 0.06669 -0.10781 -0.08220
 C230 C 0.08226 -0.12277 -0.09870
 H231 H 0.20614 -0.13617 -0.18519
 H232 H 0.23479 -0.16161 -0.21258
 H233 H 0.17401 -0.23641 -0.20262
 H234 H 0.14523 -0.21058 -0.17514
 H235 H 0.14872 -0.19061 -0.13042
 H236 H 0.12102 -0.16468 -0.10189
 H237 H 0.13106 -0.09049 -0.15895
 H238 H 0.15882 -0.11640 -0.18742
 H239 H 0.13570 -0.07056 -0.11431
 H240 H 0.10820 -0.04428 -0.08598
 H241 H 0.04770 -0.11862 -0.07307
 H242 H 0.07453 -0.14456 -0.10235
 C243 C 0.17033 0.32787 0.32538
 C244 C 0.16287 0.29885 0.32214
 C245 C 0.17884 0.28399 0.30594
 C246 C 0.20237 0.29784 0.29208
 C247 C 0.21050 0.32668 0.29637
 C248 C 0.19447 0.34154 0.31251
 C249 C 0.15324 0.34382 0.34234
 C250 C 0.14631 0.37147 0.33333
 C251 C 0.13041 0.38662 0.34932
 C252 C 0.12111 0.37448 0.37474
 C253 C 0.12795 0.34677 0.38371
 C254 C 0.14383 0.33160 0.36768
 C255 C 0.10450 0.39075 0.39188
 C256 C 0.08079 0.37735 0.40565
 C257 C 0.06522 0.39269 0.42179
 C258 C 0.07303 0.42178 0.42456
 C259 C 0.09672 0.43517 0.41078
 C260 C 0.11228 0.41984 0.39464
 H261 H 0.14446 0.28766 0.33192
 H262 H 0.17275 0.26153 0.30428
 H263 H 0.22957 0.33790 0.28787
 H264 H 0.20137 0.36366 0.31541
 H265 H 0.15286 0.38127 0.31368
 H266 H 0.12505 0.40773 0.34161
 H267 H 0.12150 0.33699 0.40339
 H268 H 0.14921 0.31049 0.37537
 H269 H 0.07407 0.35503 0.40371
 H270 H 0.04728 0.38169 0.43238
 H271 H 0.10308 0.45762 0.41223
 H272 H 0.13064 0.43071 0.38456
 C273 C 0.67332 -0.16863 0.32433
 C274 C 0.69679 -0.15528 0.31026
 C275 C 0.71277 -0.17080 0.29465
 C276 C 0.70539 -0.20011 0.29236
 C277 C 0.68226 -0.21346 0.30705
 C278 C 0.66630 -0.19793 0.32263
 C279 C 0.65653 -0.15209 0.34106
 C280 C 0.64779 -0.16349 0.36693
 C281 C 0.63214 -0.14787 0.38272
 C282 C 0.62489 -0.12047 0.37302
 C283 C 0.63360 -0.10907 0.34715
 C284 C 0.64923 -0.12471 0.33134
 C285 C 0.60842 -0.10380 0.38989
 C286 C 0.61620 -0.07463 0.39207
 C287 C 0.60079 -0.05896 0.40804
 C288 C 0.57720 -0.07209 0.42212
 C289 C 0.56937 -0.10125 0.41989
 C290 C 0.58484 -0.11694 0.40399
 H291 H 0.70328 -0.13287 0.31182
 H292 H 0.73124 -0.15964 0.28514
 H293 H 0.67652 -0.23610 0.30651
 H294 H 0.64830 -0.20886 0.33318
 H295 H 0.65351 -0.18433 0.37521
 H296 H 0.62614 -0.15704 0.40277
 H297 H 0.62795 -0.08820 0.33893
 H298 H 0.65525 -0.11551 0.31131
 H299 H 0.63445 -0.06397 0.38168
 H300 H 0.60715 -0.03647 0.40912
 H301 H 0.55149 -0.11202 0.43073
 H302 H 0.57814 -0.13932 0.40249
 C303 C 0.67559 0.32987 -0.17234
 C304 C 0.70245 0.34162 -0.18167
 C305 C 0.71836 0.32615 -0.19737
 C306 C 0.70749 0.29867 -0.20475
 C307 C 0.68108 0.28664 -0.19444
 C308 C 0.66520 0.30213 -0.17874
 C309 C 0.65865 0.34632 -0.15567
 C310 C 0.62779 0.34515 -0.16019
 C311 C 0.61182 0.36055 -0.14448
 C312 C 0.62632 0.37750 -0.12390
 C313 C 0.65718 0.37870 -0.11939
 C314 C 0.67316 0.36327 -0.13508
 C315 C 0.60933 0.39383 -0.10719
 C316 C 0.61954 0.42166 -0.10082
 C317 C 0.60348 0.43705 -0.08517
 C318 C 0.57686 0.42495 -0.07550
 C319 C 0.56669 0.39709 -0.08183
 C320 C 0.58273 0.38172 -0.09750
 H321 H 0.71116 0.36290 -0.17695
 H322 H 0.73938 0.33574 -0.20329
 H323 H 0.67278 0.26503 -0.19823
 H324 H 0.64503 0.29214 -0.17113
 H325 H 0.61601 0.33264 -0.17619
 H326 H 0.58811 0.35954 -0.14874
 H327 H 0.66895 0.39122 -0.10339
 H328 H 0.69686 0.36425 -0.13077
 H329 H 0.63972 0.43173 -0.10834
 H330 H 0.61167 0.45862 -0.08103
 H331 H 0.54652 0.38699 -0.07430
 H332 H 0.57453 0.36016 -0.10168
 C333 C -0.18069 0.18840 -0.16955
 C334 C -0.19613 0.18109 -0.19490
 C335 C -0.21538 0.19932 -0.20956
 C336 C -0.21988 0.22517 -0.19912
 C337 C -0.20423 0.23262 -0.17390
 C338 C -0.18485 0.21449 -0.15932
 C339 C -0.16057 0.16883 -0.15370
 C340 C -0.15907 0.16560 -0.12450
 C341 C -0.14029 0.14712 -0.10956
 C342 C -0.12270 0.13130 -0.12346
 C343 C -0.12418 0.13445 -0.15263
 C344 C -0.14283 0.15307 -0.16758
 C345 C -0.10312 0.11138 -0.10753
 C346 C -0.10141 0.08420 -0.11648
 C347 C -0.08362 0.06514 -0.10103
 C348 C -0.06700 0.07290 -0.07635
 C349 C -0.06843 0.10028 -0.06765
 C350 C -0.08635 0.11926 -0.08302
 H351 H -0.19378 0.16099 -0.20320
 H352 H -0.22713 0.19280 -0.22875
 H353 H -0.20659 0.25271 -0.16558
 H354 H -0.17284 0.22109 -0.14018
 H355 H -0.17281 0.17699 -0.11318
 H356 H -0.13995 0.14479 -0.08712
 H357 H -0.11059 0.12278 -0.16385
 H358 H -0.14308 0.15539 -0.19001
 H359 H -0.11439 0.07743 -0.13510
 H360 H -0.08341 0.04409 -0.10809
 H361 H -0.05550 0.10715 -0.04905
 H362 H -0.08690 0.14024 -0.07586
 C363 C -0.18763 0.68521 0.32813
 C364 C -0.21303 0.69229 0.33903
 C365 C -0.23102 0.71159 0.32430
 C366 C -0.22408 0.72429 0.29828
 C367 C -0.19900 0.71680 0.28713
 C368 C -0.18092 0.69755 0.30192
 C369 C -0.16815 0.66522 0.34421
 C370 C -0.15517 0.64504 0.33083
 C371 C -0.13701 0.62617 0.34611
 C372 C -0.13151 0.62702 0.37511
 C373 C -0.14437 0.64727 0.38846
 C374 C -0.16243 0.66617 0.37319
 C375 C -0.11249 0.60686 0.39146
 C376 C -0.12038 0.59409 0.41713
 C377 C -0.10229 0.57549 0.43282
 C378 C -0.07583 0.56929 0.42326
 C379 C -0.06805 0.58191 0.39746
 C380 C -0.08621 0.60046 0.38172
 H381 H -0.21920 0.68267 0.35886
 H382 H -0.25061 0.71624 0.33320
 H383 H -0.19290 0.72621 0.26725
 H384 H -0.16134 0.69278 0.29307
 H385 H -0.15946 0.64350 0.30859
 H386 H -0.12768 0.61056 0.33530
 H387 H -0.14012 0.64876 0.41071
 H388 H -0.17160 0.68182 0.38407
 H389 H -0.14075 0.59824 0.42495
 H390 H -0.10921 0.56571 0.45234
 H391 H -0.04761 0.57790 0.38969
 H392 H -0.07938 0.61027 0.36218
 C393 C 0.31885 0.19173 0.32142
 C394 C 0.30108 0.18369 0.29747
 C395 C 0.28137 0.20198 0.28362
 C396 C 0.27888 0.22857 0.29355
 C397 C 0.29683 0.23672 0.31734
 C398 C 0.31664 0.21853 0.33108
 C399 C 0.33913 0.17205 0.33670
 C400 C 0.36753 0.18217 0.34731
 C401 C 0.38623 0.16381 0.36254
 C402 C 0.37692 0.13491 0.36761
 C403 C 0.34862 0.12475 0.35672
 C404 C 0.32996 0.14310 0.34139
 C405 C 0.39642 0.11556 0.38463
 C406 C 0.39753 0.08754 0.37756
 C407 C 0.41537 0.06918 0.39395
 C408 C 0.43257 0.07842 0.41777
 C409 C 0.43164 0.10651 0.42469
 C410 C 0.41377 0.12485 0.40834
 H411 H 0.30248 0.16327 0.28943
 H412 H 0.26759 0.19499 0.26553
 H413 H 0.29562 0.25722 0.32529
 H414 H 0.32984 0.22520 0.34963
 H415 H 0.37535 0.20430 0.34366
 H416 H 0.40808 0.17221 0.37021
 H417 H 0.34059 0.10272 0.36061
 H418 H 0.30804 0.13477 0.33382
 H419 H 0.38470 0.07982 0.35926
 H420 H 0.41533 0.04760 0.38819
 H421 H 0.44489 0.11441 0.44270
 H422 H 0.41317 0.14619 0.41455
 C423 C 0.31876 0.68909 -0.17931
 C424 C 0.30469 0.68333 -0.20562
 C425 C 0.28537 0.70186 -0.21968
 C426 C 0.27945 0.72648 -0.20770
 C427 C 0.29383 0.73235 -0.18147
 C428 C 0.31322 0.71388 -0.16745
 C429 C 0.33890 0.66919 -0.16413
 C430 C 0.36519 0.67954 -0.14935
 C431 C 0.38366 0.66085 -0.13429
 C432 C 0.37625 0.63137 -0.13362
 C433 C 0.35019 0.62100 -0.14875
 C434 C 0.33173 0.63970 -0.16385
 C435 C 0.39520 0.61160 -0.11654
 C436 C 0.40036 0.58557 -0.12632
 C437 C 0.41758 0.56671 -0.10982
 C438 C 0.42991 0.57344 -0.08315
 C439 C 0.42499 0.59960 -0.07353
 C440 C 0.40783 0.61843 -0.09000
 H441 H 0.30880 0.66457 -0.21546
 H442 H 0.27488 0.69654 -0.23976
 H443 H 0.29041 0.75140 -0.17179
 H444 H 0.32357 0.71882 -0.14712
 H445 H 0.37157 0.70212 -0.14957
 H446 H 0.40385 0.66948 -0.12326
 H447 H 0.34365 0.59844 -0.14832
 H448 H 0.31143 0.63110 -0.17472
 H449 H 0.39118 0.57983 -0.14679
 H450 H 0.42081 0.54664 -0.11774
 H451 H 0.43451 0.60559 -0.05324
 H452 H 0.40401 0.63815 -0.08173
 C453 C -0.18306 -0.18750 0.18176
 C454 C -0.17288 -0.20496 0.20480
 C455 C -0.19196 -0.21601 0.22455
 C456 C -0.22126 -0.20925 0.22183
 C457 C -0.23149 -0.19187 0.19880
 C458 C -0.21261 -0.18130 0.17876
 C459 C -0.16273 -0.17482 0.16142
 C460 C -0.17029 -0.17671 0.13281
 C461 C -0.15169 -0.16349 0.11357
 C462 C -0.12539 -0.14756 0.12252
 C463 C -0.11780 -0.14605 0.15130
 C464 C -0.13614 -0.15974 0.17051
 C465 C -0.10659 -0.13165 0.10206
 C466 C -0.07586 -0.12756 0.10797
 C467 C -0.05852 -0.11080 0.08972
 C468 C -0.07136 -0.09805 0.06480
 C469 C -0.10194 -0.10309 0.05838
 C470 C -0.11933 -0.11942 0.07685
 H471 H -0.15017 -0.21001 0.20749
 H472 H -0.18364 -0.22916 0.24231
 H473 H -0.25411 -0.18654 0.19633
 H474 H -0.22086 -0.16770 0.16127
 H475 H -0.19060 -0.18848 0.12537
 H476 H -0.15800 -0.16571 0.09167
 H477 H -0.09813 -0.13356 0.15907
 H478 H -0.13005 -0.15774 0.19250
 H479 H -0.06511 -0.13708 0.12686
 H480 H -0.03513 -0.10723 0.09562
 H481 H -0.11261 -0.09417 0.03915
 H482 H -0.14291 -0.12173 0.07162
 C483 C -0.17638 0.31526 0.69033
 C484 C -0.18727 0.28661 0.68983
 C485 C -0.20713 0.27465 0.70853
 C486 C -0.21674 0.29102 0.72845
 C487 C -0.20538 0.31975 0.72888
 C488 C -0.18567 0.33163 0.71011
 C489 C -0.15587 0.32832 0.67003
 C490 C -0.13294 0.34869 0.67814
 C491 C -0.11481 0.36231 0.65874
 C492 C -0.11896 0.35575 0.63074
 C493 C -0.14136 0.33479 0.62278
 C494 C -0.15964 0.32129 0.64217
 C495 C -0.10078 0.37160 0.60984
 C496 C -0.11354 0.37953 0.58308
 C497 C -0.09702 0.39607 0.56404
 C498 C -0.06737 0.40530 0.57132
 C499 C -0.05440 0.39676 0.59783
 C500 C -0.07087 0.38005 0.61681
 H501 H -0.18042 0.27333 0.67493
 H502 H -0.21552 0.25284 0.70623
 H503 H -0.21098 0.33329 0.74411
 H504 H -0.17800 0.35387 0.71092
 H505 H -0.12910 0.35429 0.69951
 H506 H -0.09802 0.37856 0.66558
 H507 H -0.14491 0.32892 0.60148
 H508 H -0.17723 0.30588 0.63514
 H509 H -0.13658 0.37367 0.57707
 H510 H -0.10760 0.40184 0.54365
 H511 H -0.03171 0.40367 0.60427
 H512 H -0.06020 0.37396 0.63708
 C513 C 0.32297 -0.18002 0.68211
 C514 C 0.30781 -0.20685 0.67830
 C515 C 0.28794 -0.21885 0.69699
 C516 C 0.28298 -0.20444 0.72009
 C517 C 0.29845 -0.17782 0.72410
 C518 C 0.31800 -0.16569 0.70528
 C519 C 0.34338 -0.16664 0.66179
 C520 C 0.36880 -0.14955 0.67076
 C521 C 0.38695 -0.13548 0.65160
 C522 C 0.38046 -0.13844 0.62293
 C523 C 0.35555 -0.15626 0.61401
 C524 C 0.33716 -0.17005 0.63317
 C525 C 0.39894 -0.12211 0.60248
 C526 C 0.38602 -0.11103 0.57684
 C527 C 0.40302 -0.09428 0.55834
 C528 C 0.43336 -0.08779 0.56511
 C529 C 0.44641 -0.09937 0.59048
 C530 C 0.42946 -0.11645 0.60883
 H531 H 0.31131 -0.21867 0.66089
 H532 H 0.27611 -0.23916 0.69292
 H533 H 0.29552 -0.16626 0.74186
 H534 H 0.32884 -0.14481 0.70870
 H535 H 0.37464 -0.14684 0.69266
 H536 H 0.40568 -0.12169 0.65930
 H537 H 0.35010 -0.15947 0.59216
 H538 H 0.31765 -0.18280 0.62542
 H539 H 0.36256 -0.11462 0.57131
 H540 H 0.39227 -0.08624 0.53878
 H541 H 0.46962 -0.09465 0.59660
 H542 H 0.44032 -0.12502 0.62812
 C543 C 0.31044 0.31886 0.17755
 C544 C 0.28398 0.33043 0.18075
 C545 C 0.26553 0.31828 0.20053
 C546 C 0.27316 0.29434 0.21775
 C547 C 0.29938 0.28249 0.21434
 C548 C 0.31783 0.29461 0.19446
 C549 C 0.33052 0.33265 0.15721
 C550 C 0.36119 0.33502 0.16391
 C551 C 0.37991 0.34970 0.14552
 C552 C 0.36835 0.36245 0.12013
 C553 C 0.33779 0.35947 0.11310
 C554 C 0.31910 0.34466 0.13137
 C555 C 0.38793 0.37984 0.10156
 C556 C 0.38005 0.40633 0.08965
 C557 C 0.39878 0.42327 0.07286
 C558 C 0.42570 0.41401 0.06744
 C559 C 0.43346 0.38735 0.07905
 C560 C 0.41482 0.37049 0.09609
 H561 H 0.27776 0.34929 0.16835
 H562 H 0.24523 0.32766 0.20225
 H563 H 0.30605 0.26424 0.22747
 H564 H 0.33790 0.28500 0.19232
 H565 H 0.37070 0.32638 0.18378
 H566 H 0.40336 0.35192 0.15158
 H567 H 0.32833 0.36870 0.09345
 H568 H 0.29564 0.34271 0.12530
 H569 H 0.35961 0.41420 0.09374
 H570 H 0.39213 0.44361 0.06397
 H571 H 0.45417 0.37978 0.07535
 H572 H 0.42134 0.35009 0.10490
 C573 C 0.17393 0.18102 0.18857
 C574 C 0.16161 0.18575 0.21302
 C575 C 0.17546 0.20558 0.23096
 C576 C 0.20192 0.22122 0.22484
 C577 C 0.21443 0.21629 0.20055
 C578 C 0.20061 0.19635 0.18262
 C579 C 0.15869 0.16050 0.16918
 C580 C 0.17457 0.14184 0.15672
 C581 C 0.16002 0.12238 0.13865
 C582 C 0.12930 0.12124 0.13258
 C583 C 0.11350 0.14011 0.14488
 C584 C 0.12801 0.15946 0.16300
 C585 C 0.11365 0.10048 0.11356
 C586 C 0.08612 0.08679 0.11924
 C587 C 0.07093 0.06788 0.10105
 C588 C 0.08293 0.06207 0.07675
 C589 C 0.11064 0.07549 0.07121
 C590 C 0.12583 0.09448 0.08941
 H591 H 0.14133 0.17390 0.21839
 H592 H 0.16554 0.20850 0.24978
 H593 H 0.23450 0.22833 0.19494
 H594 H 0.21042 0.19342 0.16375
 H595 H 0.19819 0.14196 0.16134
 H596 H 0.17278 0.10789 0.12981
 H597 H 0.08991 0.14020 0.14021
 H598 H 0.11526 0.17392 0.17188
 H599 H 0.07629 0.09063 0.13785
 H600 H 0.04947 0.05823 0.10579
 H601 H 0.12064 0.07125 0.05283
 H602 H 0.14688 0.10486 0.08429
 C603 C 0.17872 0.69048 0.67758
 C604 C 0.20120 0.68152 0.69734
 C605 C 0.21518 0.69993 0.71668
 C606 C 0.20677 0.72752 0.71693
 C607 C 0.18458 0.73667 0.69708
 C608 C 0.17083 0.71844 0.67751
 C609 C 0.16306 0.67059 0.65762
 C610 C 0.13272 0.67143 0.64988
 C611 C 0.11784 0.65250 0.63153
 C612 C 0.13285 0.63204 0.62075
 C613 C 0.16312 0.63108 0.62839
 C614 C 0.17811 0.65026 0.64649
 C615 C 0.11674 0.61147 0.60196
 C616 C 0.12057 0.58238 0.60641
 C617 C 0.10431 0.56283 0.58949
 C618 C 0.08423 0.57205 0.56757
 C619 C 0.08086 0.60120 0.56277
 C620 C 0.09683 0.62070 0.57991
 H621 H 0.20751 0.66002 0.69838
 H622 H 0.23187 0.69224 0.73200
 H623 H 0.17801 0.75805 0.69659
 H624 H 0.15410 0.72631 0.66224
 H625 H 0.12025 0.68635 0.65845
 H626 H 0.09440 0.65340 0.62627
 H627 H 0.17524 0.61568 0.62011
 H628 H 0.20155 0.64930 0.65158
 H629 H 0.13565 0.57472 0.62340
 H630 H 0.10743 0.54048 0.59350
 H631 H 0.06535 0.60883 0.54615
 H632 H 0.09363 0.64304 0.57594
 C633 C 0.68036 0.18967 0.68389
 C634 C 0.70284 0.18043 0.70351
 C635 C 0.71660 0.19841 0.72334
 C636 C 0.70793 0.22583 0.72428
 C637 C 0.68575 0.23525 0.70455
 C638 C 0.67225 0.21746 0.68449
 C639 C 0.66503 0.17029 0.66327
 C640 C 0.63473 0.17118 0.65529
 C641 C 0.62020 0.15294 0.63611
 C642 C 0.63550 0.13311 0.62470
 C643 C 0.66570 0.13203 0.63267
 C644 C 0.68036 0.15054 0.65161
 C645 C 0.61978 0.11340 0.60484
 C646 C 0.62356 0.08425 0.60816
 C647 C 0.60761 0.06548 0.59020
 C648 C 0.58791 0.07558 0.56837
 C649 C 0.58462 0.10481 0.56470
 C650 C 0.60027 0.12351 0.58287
 H651 H 0.70936 0.15905 0.70400
 H652 H 0.73339 0.19053 0.73844
 H653 H 0.67905 0.25654 0.70446
 H654 H 0.65556 0.22558 0.66933
 H655 H 0.62204 0.18563 0.66425
 H656 H 0.59680 0.15390 0.63062
 H657 H 0.67804 0.11710 0.62394
 H658 H 0.70377 0.14956 0.65688
 H659 H 0.63833 0.07592 0.62504
 H660 H 0.61065 0.04306 0.59336
 H661 H 0.56940 0.11310 0.54818
 H662 H 0.59713 0.14592 0.57977
 C663 C 0.67469 0.68279 0.18953
 C664 C 0.70083 0.67698 0.20585
 C665 C 0.71499 0.69682 0.22375
 C666 C 0.70332 0.72286 0.22560
 C667 C 0.67739 0.72876 0.20899
 C668 C 0.66323 0.70895 0.19121
 C669 C 0.65923 0.66176 0.17078
 C670 C 0.62839 0.65706 0.16881
 C671 C 0.61358 0.63827 0.15032
 C672 C 0.62923 0.62375 0.13329
 C673 C 0.66015 0.62796 0.13568
 C674 C 0.67500 0.64675 0.15427
 C675 C 0.61321 0.60488 0.11268
 C676 C 0.62363 0.57889 0.10806
 C677 C 0.60822 0.56118 0.08876
 C678 C 0.58214 0.56913 0.07360
 C679 C 0.57184 0.59518 0.07817
 C680 C 0.58720 0.61284 0.09742
 H681 H 0.71001 0.65688 0.20518
 H682 H 0.73470 0.69148 0.23656
 H683 H 0.66819 0.74888 0.20942
 H684 H 0.64345 0.71427 0.17847
 H685 H 0.61569 0.66790 0.18167
 H686 H 0.58980 0.63503 0.14942
 H687 H 0.67281 0.61731 0.12263
 H688 H 0.69877 0.65015 0.15516
 H689 H 0.64348 0.57208 0.11965
 H690 H 0.61685 0.54136 0.08554
 H691 H 0.55162 0.60177 0.06713
 H692 H 0.57880 0.63289 0.10020
   
