data_POSCAR
  _audit_creation_date              2014-09-24
  _audit_creation_method            'ToBaCCo'
  _symmetry_space_group_name_H-M    'P1'
  _symmetry_Int_Tables_number       1
  _symmetry_cell_setting            triclinic
  loop_
  _symmetry_equiv_pos_as_xyz
 x,y,z
_cell_length_a 46.9127
_cell_length_b 47.3668
_cell_length_c 46.3198
_cell_angle_alpha 90.143200
_cell_angle_beta 90.066200
_cell_angle_gamma 90.020100
loop_
  _atom_site_label
  _atom_site_type_symbol
  _atom_site_fract_x
  _atom_site_fract_y
  _atom_site_fract_z
C1 C 0.19211 0.15286 0.18724
 C2 C 0.17925 0.14293 0.21263
 C3 C 0.15691 0.15805 0.22610
 C4 C 0.14767 0.18347 0.21320
 C5 C 0.15995 0.19329 0.18752
 C6 C 0.18240 0.17807 0.17462
 C7 C 0.21470 0.13795 0.17445
 C8 C 0.22821 0.14801 0.14921
 C9 C 0.21788 0.17320 0.13669
 C10 C 0.19499 0.18798 0.14896
 C11 C 0.18423 0.21235 0.13570
 C12 C 0.16135 0.22720 0.14802
 C13 C 0.14964 0.21783 0.17420
 H14 H 0.18763 0.12391 0.22240
 H15 H 0.12986 0.19508 0.22216
 H16 H 0.22247 0.11917 0.18515
 H17 H 0.22673 0.18088 0.11660
 H18 H 0.19361 0.21980 0.11573
 H19 H 0.13190 0.22918 0.18371
 C20 C -0.19293 0.84055 0.19553
 C21 C -0.17988 0.85409 0.21914
 C22 C -0.15400 0.84392 0.23090
 C23 C -0.14202 0.81918 0.21887
 C24 C -0.15517 0.80510 0.19581
 C25 C -0.18056 0.81594 0.18391
 C26 C -0.21768 0.85178 0.18281
 C27 C -0.23002 0.83912 0.15806
 C28 C -0.21779 0.81389 0.14747
 C29 C -0.19344 0.80224 0.16023
 C30 C -0.18157 0.77720 0.14938
 C31 C -0.15648 0.76612 0.16137
 C32 C -0.14322 0.78032 0.18439
 H33 H -0.18922 0.87348 0.22718
 H34 H -0.12292 0.81003 0.22807
 H35 H -0.22611 0.87140 0.19127
 H36 H -0.22754 0.80268 0.12959
 H37 H -0.19150 0.76657 0.13120
 H38 H -0.12378 0.77182 0.19360
 C39 C -0.20176 0.16387 -0.19381
 C40 C -0.18879 0.15244 -0.21848
 C41 C -0.16451 0.16518 -0.23047
 C42 C -0.15296 0.18941 -0.21737
 C43 C -0.16600 0.20138 -0.19298
 C44 C -0.19071 0.18873 -0.18135
 C45 C -0.22562 0.15076 -0.18149
 C46 C -0.23931 0.16239 -0.15703
 C47 C -0.22853 0.18792 -0.14547
 C48 C -0.20429 0.20089 -0.15722
 C49 C -0.19313 0.22563 -0.14487
 C50 C -0.16828 0.23806 -0.15601
 C51 C -0.15481 0.22582 -0.18005
 H52 H -0.19739 0.13343 -0.22826
 H53 H -0.13418 0.19925 -0.22656
 H54 H -0.23403 0.13196 -0.19179
 H55 H -0.23791 0.19710 -0.12627
 H56 H -0.20337 0.23491 -0.12614
 H57 H -0.13578 0.23552 -0.18884
 C58 C 0.19032 0.84100 -0.19492
 C59 C 0.17663 0.85579 -0.21722
 C60 C 0.14908 0.84800 -0.22678
 C61 C 0.13570 0.82473 -0.21338
 C62 C 0.14940 0.80944 -0.19152
 C63 C 0.17685 0.81748 -0.18230
 C64 C 0.21704 0.84976 -0.18462
 C65 C 0.23063 0.83511 -0.16211
 C66 C 0.21759 0.81099 -0.15042
 C67 C 0.19070 0.80218 -0.16023
 C68 C 0.17712 0.77873 -0.14787
 C69 C 0.14964 0.77076 -0.15687
 C70 C 0.13595 0.78621 -0.17869
 H71 H 0.18711 0.87420 -0.22609
 H72 H 0.11502 0.81747 -0.22071
 H73 H 0.22725 0.86814 -0.19393
 H74 H 0.22791 0.79973 -0.13295
 H75 H 0.18758 0.76707 -0.13076
 H76 H 0.11483 0.77997 -0.18581
 C77 C 0.16056 1.19646 0.81092
 C78 C 0.14636 1.18479 0.78703
 C79 C 0.15646 1.16000 0.77344
 C80 C 0.18109 1.14695 0.78481
 C81 C 0.19512 1.15814 0.80901
 C82 C 0.18513 1.18325 0.82184
 C83 C 0.15041 1.22119 0.82403
 C84 C 0.16455 1.23337 0.84798
 C85 C 0.18949 1.22003 0.85836
 C86 C 0.19954 1.19495 0.84578
 C87 C 0.22334 1.18093 0.85728
 C88 C 0.23261 1.15524 0.84532
 C89 C 0.21867 1.14421 0.82094
 H90 H 0.12805 1.19588 0.77844
 H91 H 0.18874 1.12722 0.77586
 H92 H 0.13193 1.23141 0.81470
 H93 H 0.20036 1.22814 0.87728
 H94 H 0.23405 1.18945 0.87614
 H95 H 0.22611 1.12464 0.81139
 C96 C 0.85144 0.80800 0.80908
 C97 C 0.86302 0.82088 0.78452
 C98 C 0.85129 0.84600 0.77321
 C99 C 0.82757 0.85799 0.78744
 C100 C 0.81540 0.84490 0.81160
 C101 C 0.82720 0.81965 0.82234
 C102 C 0.86407 0.78376 0.82071
 C103 C 0.85266 0.77038 0.84535
 C104 C 0.82740 0.78154 0.85752
 C105 C 0.81488 0.80620 0.84643
 C106 C 0.79063 0.81804 0.85950
 C107 C 0.77907 0.84345 0.84914
 C108 C 0.79153 0.85671 0.82520
 H109 H 0.88207 0.81183 0.77509
 H110 H 0.81749 0.87683 0.77904
 H111 H 0.88246 0.77493 0.80982
 H112 H 0.81828 0.77224 0.87674
 H113 H 0.78117 0.80796 0.87817
 H114 H 0.78246 0.87619 0.81707
 C115 C 0.15334 0.80808 1.19393
 C116 C 0.14164 0.82027 1.21887
 C117 C 0.15644 0.84143 1.23400
 C118 C 0.18314 0.85051 1.22392
 C119 C 0.19492 0.83880 1.19879
 C120 C 0.18007 0.81734 1.18384
 C121 C 0.13872 0.78669 1.17905
 C122 C 0.15058 0.77376 1.15429
 C123 C 0.17732 0.78348 1.14438
 C124 C 0.19185 0.80530 1.15871
 C125 C 0.21783 0.81554 1.14803
 C126 C 0.23239 0.83738 1.16240
 C127 C 0.22106 0.84857 1.18806
 H128 H 0.12112 0.81312 1.22673
 H129 H 0.19441 0.86713 1.23533
 H130 H 0.11869 0.77929 1.18783
 H131 H 0.18651 0.77497 1.12476
 H132 H 0.22676 0.80659 1.12846
 H133 H 0.23216 0.86551 1.19914
 C134 C 0.84149 1.19338 1.18824
 C135 C 0.85429 1.18055 1.21228
 C136 C 0.84343 1.15508 1.22376
 C137 C 0.81878 1.14330 1.21096
 C138 C 0.80551 1.15620 1.18734
 C139 C 0.81695 1.18120 1.17576
 C140 C 0.85329 1.21781 1.17597
 C141 C 0.84105 1.22993 1.15122
 C142 C 0.81623 1.21804 1.13932
 C143 C 0.80401 1.19386 1.15151
 C144 C 0.77931 1.18186 1.13956
 C145 C 0.76767 1.15707 1.15123
 C146 C 0.78095 1.14431 1.17504
 H147 H 0.87365 1.18975 1.22091
 H148 H 0.80907 1.12452 1.21991
 H149 H 0.87253 1.22688 1.18508
 H150 H 0.80654 1.22759 1.12046
 H151 H 0.76941 1.19150 1.12085
 H152 H 0.77196 1.12523 1.18416
 O153 O 0.45827 0.93975 0.94955
 O154 O 0.42831 0.96944 0.97426
 C155 C 0.43300 0.94890 0.95634
 O156 O 0.53747 0.94368 1.05433
 O157 O 0.57015 0.96569 1.02521
 C158 C 0.56348 0.94928 1.04654
 O159 O 0.45714 0.94358 1.04964
 O160 O 0.42758 0.97086 1.02178
 C161 C 0.43200 0.95164 1.04116
 O162 O 0.53871 0.93846 0.94806
 O163 O 0.57063 0.96394 0.97514
 C164 C 0.56454 0.94507 0.95577
 Zr165 Zr 0.49905 0.95434 0.96313
 O166 O 0.50004 0.90969 0.96475
 O167 O 0.49650 0.95309 0.91751
 Zr168 Zr 0.49821 0.95687 1.03599
 O169 O 0.49978 0.91219 1.03619
 O170 O 0.49425 0.95704 1.08147
 O171 O 0.47296 0.95133 0.99938
 O172 O 0.52320 0.94937 1.00014
 O173 O 0.54314 1.03748 0.94534
 O174 O 0.57290 1.01082 0.97359
 C175 C 0.56830 1.02921 0.95339
 O176 O 0.46208 1.04660 1.04606
 O177 O 0.42996 1.01939 1.02106
 C178 C 0.43623 1.03962 1.03885
 O179 O 0.54215 1.04061 1.04972
 O180 O 0.57229 1.01214 1.02372
 C181 C 0.56742 1.03153 1.04287
 O182 O 0.46349 1.04372 0.94682
 O183 O 0.43063 1.01789 0.97210
 C184 C 0.43746 1.03738 0.95375
 Zr185 Zr 0.50238 1.02565 0.96073
 O186 O 0.50756 1.06992 0.95773
 O187 O 0.49960 1.02265 0.91518
 Zr188 Zr 0.50154 1.02828 1.03376
 O189 O 0.50681 1.07266 1.03277
 O190 O 0.49784 1.02941 1.07931
 Zr191 Zr 0.45804 0.99331 0.99784
 Zr192 Zr 0.54255 0.98944 0.99899
 O193 O 0.52685 1.03102 0.99744
 O194 O 0.47687 1.03370 0.99671
 O195 O 0.52619 0.98868 0.95660
 O196 O 0.47516 0.99386 1.03985
 O197 O 0.47604 0.99097 0.95631
 O198 O 0.52511 0.99166 1.04089
 H199 H 0.53550 0.93240 1.00105
 H200 H 0.46206 0.99496 1.05658
 H201 H 0.54042 1.04705 0.99715
 H202 H 0.46325 0.99104 0.93927
 H203 H 0.50791 0.97116 1.08898
 H204 H 0.51419 1.01889 1.08742
 H205 H 0.49150 1.08047 1.02046
 H206 H 0.49420 1.07861 0.97164
 H207 H 0.51669 1.01242 0.90832
 H208 H 0.51299 0.96376 0.90992
 H209 H 0.48383 0.90352 0.97682
 H210 H 0.48239 0.90520 1.02641
 O211 O -0.04863 0.46247 0.05590
 O212 O -0.02279 0.43009 0.02990
 C213 C -0.04184 0.43670 0.04902
 O214 O -0.05018 0.53695 -0.04990
 O215 O -0.02264 0.56881 -0.02500
 C216 C -0.04230 0.56255 -0.04368
 O217 O -0.05272 0.45775 -0.04410
 O218 O -0.02447 0.42794 -0.01767
 C219 C -0.04494 0.43268 -0.03584
 O220 O -0.04526 0.54201 0.05465
 O221 O -0.01995 0.57121 0.02468
 C222 C -0.03771 0.56690 0.04564
 Zr223 Zr -0.03282 0.50136 0.03984
 O224 O -0.07778 0.50496 0.04140
 O225 O -0.03094 0.50039 0.08549
 Zr226 Zr -0.03564 0.49793 -0.03309
 O227 O -0.08063 0.50119 -0.03210
 O228 O -0.03650 0.49294 -0.07852
 O229 O -0.04005 0.47460 0.00476
 O230 O -0.03915 0.52413 0.00247
 O231 O 0.05411 0.54068 0.05053
 O232 O 0.02721 0.57069 0.02284
 C233 C 0.04661 0.56577 0.04217
 O234 O 0.05205 0.45672 -0.04771
 O235 O 0.02433 0.42744 -0.02010
 C236 C 0.04398 0.43183 -0.03921
 O237 O 0.05018 0.53596 -0.05397
 O238 O 0.02522 0.56831 -0.02716
 C239 C 0.04324 0.56172 -0.04728
 O240 O 0.05531 0.46132 0.05194
 O241 O 0.02697 0.42950 0.02793
 C242 C 0.04749 0.43572 0.04562
 Zr243 Zr 0.03914 0.50050 0.03716
 O244 O 0.08418 0.50294 0.03588
 O245 O 0.04009 0.49963 0.08286
 Zr246 Zr 0.03639 0.49717 -0.03587
 O247 O 0.08135 0.49968 -0.03864
 O248 O 0.03354 0.49193 -0.08119
 Zr249 Zr 0.00140 0.45742 0.00396
 Zr250 Zr 0.00225 0.54112 0.00006
 O251 O 0.04326 0.52317 -0.00067
 O252 O 0.04315 0.47370 0.00160
 O253 O 0.00366 0.52637 0.04295
 O254 O -0.00006 0.47283 -0.03859
 O255 O 0.00312 0.47665 0.04490
 O256 O 0.00039 0.52252 -0.04130
 H257 H -0.05580 0.53699 0.00270
 H258 H -0.00084 0.45922 -0.05486
 H259 H 0.06017 0.53565 -0.00188
 H260 H 0.00365 0.46453 0.06230
 H261 H -0.02623 0.50916 -0.08700
 H262 H 0.02307 0.50837 -0.08896
 H263 H 0.08927 0.48575 -0.02495
 H264 H 0.09105 0.48690 0.02409
 H265 H 0.03008 0.51668 0.08989
 H266 H -0.01885 0.51637 0.09180
 H267 H -0.08583 0.48863 0.03083
 H268 H -0.08770 0.48686 -0.01837
 O269 O 1.04434 -0.04647 0.45867
 O270 O 1.01798 -0.01905 0.42789
 C271 C 1.03602 -0.03916 0.43297
 O272 O 0.94698 -0.03791 0.54504
 O273 O 0.97670 -0.01228 0.57454
 C274 C 0.95598 -0.02994 0.57034
 O275 O 0.94453 -0.04214 0.46387
 O276 O 0.97041 -0.01751 0.43031
 C277 C 0.95114 -0.03587 0.43741
 O278 O 1.05123 -0.04205 0.53953
 O279 O 1.02570 -0.01552 0.57191
 C280 C 1.04491 -0.03421 0.56565
 Zr281 Zr 1.03309 -0.02957 0.49960
 O282 O 1.02995 -0.07395 0.50404
 O283 O 1.07775 -0.03289 0.49419
 Zr284 Zr 0.96117 -0.02616 0.50327
 O285 O 0.95936 -0.07063 0.50734
 O286 O 0.91610 -0.02396 0.50262
 O287 O 0.99554 -0.03406 0.47584
 O288 O 0.99822 -0.03240 0.52660
 O289 O 1.05542 0.05516 0.53715
 O290 O 1.02786 0.03236 0.57066
 C291 C 1.04845 0.04921 0.56358
 O292 O 0.95063 0.06132 0.46122
 O293 O 0.97264 0.03156 0.42907
 C294 C 0.95612 0.05268 0.43515
 O295 O 0.95090 0.05976 0.54270
 O296 O 0.97906 0.03394 0.57332
 C297 C 0.95955 0.05269 0.56838
 O298 O 1.04858 0.05589 0.45604
 O299 O 1.02022 0.02873 0.42665
 C300 C 1.03982 0.04761 0.43076
 Zr301 Zr 1.03642 0.04187 0.49780
 O302 O 1.03801 0.08650 0.50001
 O303 O 1.08117 0.04017 0.49221
 Zr304 Zr 0.96449 0.04514 0.50152
 O305 O 0.96625 0.08973 0.50405
 O306 O 0.91942 0.04681 0.50013
 Zr307 Zr 0.99654 0.00672 0.45778
 Zr308 Zr 1.00109 0.00886 0.54331
 O309 O 1.00199 0.04927 0.52454
 O310 O 0.99939 0.04835 0.47381
 O311 O 1.04173 0.00652 0.52408
 O312 O 0.95630 0.00916 0.47761
 O313 O 1.03864 0.00530 0.47356
 O314 O 0.95865 0.01035 0.52833
 H315 H 0.99816 -0.04856 0.54014
 H316 H 0.93904 0.00974 0.46527
 H317 H 1.00333 0.06609 0.53723
 H318 H 1.05481 0.00424 0.45986
 H319 H 0.91014 -0.01201 0.51907
 H320 H 0.91219 0.03625 0.51699
 H321 H 0.97877 0.09629 0.48827
 H322 H 1.02718 0.09395 0.48335
 H323 H 1.08901 0.02832 0.50787
 H324 H 1.08671 -0.01958 0.50794
 H325 H 1.01905 -0.08120 0.48730
 H326 H 0.97004 -0.07880 0.49093
 C327 C 1.13178 0.16655 0.27213
 C328 C 1.11866 0.15640 0.29713
 C329 C 1.11660 0.12742 0.30212
 C330 C 1.12848 0.10853 0.28211
 C331 C 1.14216 0.11857 0.25739
 C332 C 1.14383 0.14783 0.25168
 N333 N 1.10234 0.11765 0.32754
 N334 N 1.09437 0.09210 0.33012
 C335 C 1.08050 0.08179 0.35551
 C336 C 1.06721 0.05538 0.35444
 C337 C 1.05359 0.04453 0.37878
 C338 C 1.05353 0.05974 0.40489
 C339 C 1.06710 0.08618 0.40604
 C340 C 1.08029 0.09726 0.38145
 H341 H 1.13331 0.18920 0.26958
 H342 H 1.10983 0.17120 0.31257
 H343 H 1.12718 0.08596 0.28554
 H344 H 1.15014 0.10311 0.24219
 H345 H 1.06734 0.04323 0.33460
 H346 H 1.04355 0.02397 0.37731
 H347 H 1.06734 0.09835 0.42587
 H348 H 1.09059 0.11768 0.38280
 C349 C 0.88988 -0.14248 0.25674
 C350 C 0.90363 -0.12842 0.27933
 C351 C 0.88795 -0.11385 0.30015
 C352 C 0.85814 -0.11287 0.29783
 C353 C 0.84428 -0.12635 0.27483
 C354 C 0.85987 -0.14176 0.25397
 N355 N 0.90290 -0.10002 0.32315
 N356 N 0.89061 -0.09194 0.34621
 C357 C 0.90597 -0.07774 0.36872
 C358 C 0.89389 -0.07578 0.39626
 C359 C 0.90867 -0.06247 0.41875
 C360 C 0.93559 -0.05033 0.41382
 C361 C 0.94744 -0.05192 0.38601
 C362 C 0.93291 -0.06573 0.36372
 H363 H 0.90312 -0.15289 0.24084
 H364 H 0.92667 -0.12902 0.28071
 H365 H 0.84559 -0.10159 0.31370
 H366 H 0.82124 -0.12562 0.27430
 H367 H 0.87311 -0.08487 0.40037
 H368 H 0.89889 -0.06138 0.43990
 H369 H 0.96808 -0.04274 0.38153
 H370 H 0.94260 -0.06679 0.34255
 C371 C 0.83169 0.14646 0.71910
 C372 C 0.84396 0.13474 0.69433
 C373 C 0.87320 0.12903 0.69341
 C374 C 0.89028 0.13575 0.71745
 C375 C 0.87809 0.14791 0.74206
 C376 C 0.84864 0.15312 0.74320
 N377 N 0.88495 0.11621 0.66803
 N378 N 0.90997 0.10585 0.66771
 C379 C 0.92196 0.09305 0.64245
 C380 C 0.94710 0.07747 0.64519
 C381 C 0.95919 0.06426 0.62116
 C382 C 0.94657 0.06685 0.59372
 C383 C 0.92145 0.08282 0.59094
 C384 C 0.90912 0.09567 0.61514
 H385 H 0.80897 0.15052 0.71938
 H386 H 0.83060 0.12974 0.67593
 H387 H 0.91297 0.13166 0.71719
 H388 H 0.89156 0.15277 0.76043
 H389 H 0.95719 0.07529 0.66611
 H390 H 0.97847 0.05207 0.62413
 H391 H 0.91114 0.08513 0.57015
 H392 H 0.88969 0.10772 0.61250
 C393 C 1.10511 -0.13510 0.74964
 C394 C 1.09143 -0.12070 0.72730
 C395 C 1.10717 -0.10830 0.70515
 C396 C 1.13703 -0.10975 0.70593
 C397 C 1.15088 -0.12363 0.72858
 C398 C 1.13518 -0.13696 0.75074
 N399 N 1.09231 -0.09450 0.68215
 N400 N 1.10449 -0.08781 0.65860
 C401 C 1.08944 -0.07389 0.63578
 C402 C 1.10178 -0.07268 0.60833
 C403 C 1.08728 -0.05993 0.58542
 C404 C 1.06035 -0.04764 0.58982
 C405 C 1.04822 -0.04842 0.61755
 C406 C 1.06253 -0.06163 0.64030
 H407 H 1.09192 -0.14381 0.76656
 H408 H 1.06838 -0.11943 0.72710
 H409 H 1.14967 -0.10023 0.68900
 H410 H 1.17389 -0.12496 0.72775
 H411 H 1.12254 -0.08200 0.60460
 H412 H 1.09722 -0.05947 0.56434
 H413 H 1.02747 -0.03920 0.62157
 H414 H 1.05262 -0.06217 0.66138
 C415 C 0.25411 1.10363 1.13941
 C416 C 0.27696 1.08919 1.12687
 C417 C 0.29816 1.10384 1.11198
 C418 C 0.29610 1.13324 1.10929
 C419 C 0.27299 1.14773 1.12126
 C420 C 0.25154 1.13325 1.13674
 N421 N 0.32132 1.08837 1.09949
 N422 N 0.34399 1.10042 1.09083
 C423 C 0.36679 1.08490 1.07774
 C424 C 0.39353 1.09771 1.07488
 C425 C 0.41626 1.08297 1.06244
 C426 C 0.41235 1.05533 1.05207
 C427 C 0.38536 1.04267 1.05457
 C428 C 0.36282 1.05723 1.06751
 H429 H 0.23791 1.09120 1.15007
 H430 H 0.27818 1.06644 1.12883
 H431 H 0.31228 1.14504 1.09784
 H432 H 0.27278 1.17049 1.11929
 H433 H 0.39681 1.11907 1.08258
 H434 H 0.43679 1.09329 1.06064
 H435 H 0.38176 1.02134 1.04689
 H436 H 0.34229 1.04696 1.06931
 C437 C 0.28063 0.82768 0.85595
 C438 C 0.30569 0.83802 0.86857
 C439 C 0.30802 0.86656 0.87616
 C440 C 0.28515 0.88487 0.87034
 C441 C 0.26029 0.87466 0.85739
 C442 C 0.25767 0.84593 0.85028
 N443 N 0.33348 0.87651 0.89001
 N444 N 0.33453 0.90087 0.90162
 C445 C 0.35950 0.91186 0.91544
 C446 C 0.35719 0.93711 0.93092
 C447 C 0.38098 0.94885 0.94448
 C448 C 0.40780 0.93569 0.94248
 C449 C 0.41012 0.91027 0.92686
 C450 C 0.38611 0.89834 0.91355
 H451 H 0.27917 0.80547 0.85052
 H452 H 0.32317 0.82370 0.87286
 H453 H 0.28643 0.90706 0.87587
 H454 H 0.24282 0.88911 0.85353
 H455 H 0.33681 0.94773 0.93248
 H456 H 0.37837 0.96847 0.95623
 H457 H 0.43044 0.89959 0.92497
 H458 H 0.38838 0.87881 0.90160
 C459 C 0.74280 0.84828 1.11354
 C460 C 0.72004 0.86093 1.09911
 C461 C 0.69988 0.87672 1.11424
 C462 C 0.70294 0.88023 1.14417
 C463 C 0.72610 0.86812 1.15868
 C464 C 0.74641 0.85164 1.14367
 N465 N 0.67685 0.88923 1.09852
 N466 N 0.65462 0.89889 1.11077
 C467 C 0.63212 0.91168 1.09444
 C468 C 0.60543 0.91555 1.10733
 C469 C 0.58294 0.92746 1.09167
 C470 C 0.58703 0.93625 1.06301
 C471 C 0.61399 0.93276 1.05027
 C472 C 0.63627 0.92037 1.06575
 H473 H 0.75823 0.83698 1.10058
 H474 H 0.71807 0.85837 1.07595
 H475 H 0.68755 0.89246 1.15631
 H476 H 0.72727 0.87086 1.18185
 H477 H 0.60198 0.90903 1.12944
 H478 H 0.56247 0.93012 1.10211
 H479 H 0.61776 0.93931 1.02821
 H480 H 0.65677 0.91776 1.05538
 C481 C 0.71554 1.16412 0.87023
 C482 C 0.69223 1.15047 0.88277
 C483 C 0.68998 1.12109 0.88189
 C484 C 0.71108 1.10533 0.86775
 C485 C 0.73410 1.11891 0.85459
 C486 C 0.73695 1.14862 0.85574
 N487 N 0.66590 1.10783 0.89516
 N488 N 0.66530 1.08154 0.90076
 C489 C 0.64078 1.06851 0.91345
 C490 C 0.64343 1.04182 0.92609
 C491 C 0.61993 1.02894 0.93919
 C492 C 0.59320 1.04234 0.93918
 C493 C 0.59050 1.06889 0.92595
 C494 C 0.61411 1.08197 0.91341
 H495 H 0.71594 1.18695 0.87097
 H496 H 0.67589 1.16287 0.89336
 H497 H 0.70973 1.08253 0.86678
 H498 H 0.75024 1.10579 0.84467
 H499 H 0.66386 1.03119 0.92618
 H500 H 0.62263 1.00849 0.94918
 H501 H 0.57022 1.07982 0.92573
 H502 H 0.61148 1.10252 0.90358
 C503 C 0.14252 0.25040 0.10342
 C504 C 0.12966 0.27320 0.08945
 C505 C 0.12338 0.29797 0.10466
 C506 C 0.13015 0.29975 0.13419
 C507 C 0.14270 0.27682 0.14828
 C508 C 0.14897 0.25191 0.13302
 N509 N 0.10956 0.32066 0.08983
 N510 N 0.10627 0.34487 0.10131
 C511 C 0.09177 0.36731 0.08675
 C512 C 0.09270 0.39449 0.09859
 C513 C 0.07857 0.41682 0.08508
 C514 C 0.06282 0.41218 0.05966
 C515 C 0.06178 0.38481 0.04787
 C516 C 0.07627 0.36258 0.06120
 H517 H 0.14684 0.23132 0.09125
 H518 H 0.12444 0.27154 0.06673
 H519 H 0.12541 0.31867 0.14643
 H520 H 0.14760 0.27854 0.17107
 H521 H 0.10450 0.39836 0.11832
 H522 H 0.07965 0.43762 0.09477
 H523 H 0.04995 0.38062 0.02822
 H524 H 0.07513 0.34171 0.05170
 C525 C -0.17345 0.28700 -0.13593
 C526 C -0.16193 0.31093 -0.12252
 C527 C -0.13313 0.31160 -0.11458
 C528 C -0.11574 0.28817 -0.12075
 C529 C -0.12712 0.26445 -0.13460
 C530 C -0.15612 0.26357 -0.14213
 N531 N -0.12198 0.33621 -0.10046
 N532 N -0.09782 0.33595 -0.08794
 C533 C -0.08585 0.36039 -0.07427
 C534 C -0.06153 0.35714 -0.05715
 C535 C -0.04870 0.38053 -0.04412
 C536 C -0.05972 0.40783 -0.04841
 C537 C -0.08434 0.41104 -0.06547
 C538 C -0.09741 0.38749 -0.07818
 H539 H -0.19582 0.28686 -0.14172
 H540 H -0.17552 0.32887 -0.11801
 H541 H -0.09337 0.28825 -0.11499
 H542 H -0.11339 0.24657 -0.13900
 H543 H -0.05243 0.33637 -0.05398
 H544 H -0.02984 0.37721 -0.03107
 H545 H -0.09343 0.43174 -0.06914
 H546 H -0.11619 0.39052 -0.09142
 C547 C 0.10656 0.74939 -0.13380
 C548 C 0.09248 0.72662 -0.12107
 C549 C 0.10624 0.70063 -0.11789
 C550 C 0.13459 0.69769 -0.12725
 C551 C 0.14886 0.72060 -0.13964
 C552 C 0.13489 0.74660 -0.14320
 N553 N 0.09106 0.67778 -0.10479
 N554 N 0.10052 0.65260 -0.10471
 C555 C 0.08537 0.63008 -0.09094
 C556 C 0.09491 0.60232 -0.09458
 C557 C 0.08091 0.57997 -0.08091
 C558 C 0.05725 0.58512 -0.06301
 C559 C 0.04769 0.61307 -0.05949
 C560 C 0.06150 0.63532 -0.07343
 H561 H 0.09544 0.76930 -0.13604
 H562 H 0.07070 0.72917 -0.11380
 H563 H 0.14572 0.67782 -0.12486
 H564 H 0.17065 0.71791 -0.14685
 H565 H 0.11331 0.59802 -0.10798
 H566 H 0.08894 0.55874 -0.08396
 H567 H 0.02963 0.61783 -0.04579
 H568 H 0.05377 0.65662 -0.07017
 C569 C -0.16091 0.71581 0.14534
 C570 C -0.14914 0.69120 0.13365
 C571 C -0.12047 0.69050 0.12539
 C572 C -0.10339 0.71457 0.12960
 C573 C -0.11501 0.73902 0.14176
 C574 C -0.14393 0.73993 0.14947
 N575 N -0.10928 0.66532 0.11252
 N576 N -0.08546 0.66520 0.09942
 C577 C -0.07388 0.64024 0.08652
 C578 C -0.05093 0.64291 0.06752
 C579 C -0.03937 0.61912 0.05408
 C580 C -0.05019 0.59203 0.05994
 C581 C -0.07309 0.58936 0.07934
 C582 C -0.08498 0.61329 0.09238
 H583 H -0.18322 0.71600 0.15134
 H584 H -0.16249 0.67278 0.13059
 H585 H -0.08112 0.71447 0.12351
 H586 H -0.10157 0.75741 0.14462
 H587 H -0.04222 0.66357 0.06281
 H588 H -0.02195 0.62202 0.03910
 H589 H -0.08200 0.56884 0.08424
 H590 H -0.10268 0.61074 0.10712
 C591 C 1.11233 0.15154 0.74576
 C592 C 1.09814 0.13940 0.72229
 C593 C 1.11322 0.12437 0.70133
 C594 C 1.14281 0.12128 0.70415
 C595 C 1.15703 0.13286 0.72791
 C596 C 1.14209 0.14831 0.74922
 N597 N 1.09788 0.11183 0.67787
 N598 N 1.11025 0.10262 0.65530
 C599 C 1.09457 0.08926 0.63252
 C600 C 1.10735 0.08579 0.60545
 C601 C 1.09234 0.07297 0.58282
 C602 C 1.06452 0.06285 0.58723
 C603 C 1.05196 0.06598 0.61458
 C604 C 1.06673 0.07928 0.63696
 H605 H 1.09953 0.16224 0.76182
 H606 H 1.07523 0.14165 0.72046
 H607 H 1.15490 0.10969 0.68815
 H608 H 1.17995 0.13049 0.72881
 H609 H 1.12885 0.09329 0.60182
 H610 H 1.10259 0.07068 0.56201
 H611 H 1.03054 0.05846 0.61860
 H612 H 1.05650 0.08151 0.65778
 C613 C 0.87647 -0.15771 0.72667
 C614 C 0.88793 -0.14520 0.70201
 C615 C 0.88700 -0.11597 0.69845
 C616 C 0.87389 -0.09922 0.71962
 C617 C 0.86182 -0.11169 0.74405
 C618 C 0.86309 -0.14122 0.74823
 N619 N 0.89940 -0.10389 0.67311
 N620 N 0.90482 -0.07764 0.67113
 C621 C 0.91691 -0.06579 0.64551
 C622 C 0.92923 -0.03892 0.64681
 C623 C 0.94200 -0.02721 0.62236
 C624 C 0.94203 -0.04203 0.59602
 C625 C 0.92904 -0.06872 0.59459
 C626 C 0.91680 -0.08064 0.61920
 H627 H 0.87715 -0.18050 0.72804
 H628 H 0.89774 -0.15835 0.68565
 H629 H 0.87291 -0.07651 0.71726
 H630 H 0.85265 -0.09785 0.76015
 H631 H 0.92934 -0.02724 0.66694
 H632 H 0.95169 -0.00650 0.62399
 H633 H 0.92885 -0.08062 0.57460
 H634 H 0.90721 -0.10138 0.61766
 C635 C 1.15996 -0.14233 0.28542
 C636 C 1.14789 -0.13002 0.31000
 C637 C 1.11969 -0.12042 0.30953
 C638 C 1.10342 -0.12365 0.28422
 C639 C 1.11533 -0.13630 0.25978
 C640 C 1.14375 -0.14561 0.26010
 N641 N 1.10810 -0.10733 0.33483
 N642 N 1.08433 -0.09441 0.33430
 C643 C 1.07239 -0.08133 0.35941
 C644 C 1.04900 -0.06335 0.35607
 C645 C 1.03718 -0.04968 0.37995
 C646 C 1.04827 -0.05418 0.40780
 C647 C 1.07154 -0.07263 0.41115
 C648 C 1.08362 -0.08597 0.38713
 H649 H 1.18185 -0.14956 0.28624
 H650 H 1.16061 -0.12771 0.32939
 H651 H 1.08154 -0.11647 0.28335
 H652 H 1.10248 -0.13842 0.24045
 H653 H 1.04018 -0.05962 0.33481
 H654 H 1.01943 -0.03549 0.37653
 H655 H 1.08067 -0.07647 0.43226
 H656 H 1.10165 -0.09990 0.39022
 C657 C 0.85576 0.11175 0.25030
 C658 C 0.86895 0.09825 0.27348
 C659 C 0.88318 0.11386 0.29461
 C660 C 0.88471 0.14333 0.29205
 C661 C 0.87203 0.15694 0.26855
 C662 C 0.85696 0.14143 0.24734
 N663 N 0.89598 0.09920 0.31826
 N664 N 0.90450 0.11181 0.34097
 C665 C 0.91754 0.09673 0.36425
 C666 C 0.92104 0.11019 0.39094
 C667 C 0.93328 0.09580 0.41417
 C668 C 0.94273 0.06782 0.41083
 C669 C 0.93953 0.05447 0.38389
 C670 C 0.92685 0.06872 0.36085
 H671 H 0.84564 0.09858 0.23417
 H672 H 0.86796 0.07546 0.27506
 H673 H 0.89571 0.15583 0.30819
 H674 H 0.87307 0.17975 0.26790
 H675 H 0.91401 0.13179 0.39379
 H676 H 0.93569 0.10668 0.43463
 H677 H 0.94654 0.03290 0.38070
 H678 H 0.92450 0.05791 0.34036
 C679 C 0.17185 0.27759 -0.12455
 C680 C 0.16089 0.30192 -0.11145
 C681 C 0.13156 0.30702 -0.11127
 C682 C 0.11321 0.28774 -0.12486
 C683 C 0.12407 0.26375 -0.13849
 C684 C 0.15365 0.25805 -0.13852
 N685 N 0.12077 0.33182 -0.09731
 N686 N 0.09451 0.33405 -0.09083
 C687 C 0.08277 0.35875 -0.07759
 C688 C 0.05562 0.35706 -0.06533
 C689 C 0.04322 0.38074 -0.05254
 C690 C 0.05758 0.40680 -0.05236
 C691 C 0.08480 0.40856 -0.06491
 C692 C 0.09744 0.38462 -0.07723
 H693 H 0.19475 0.27487 -0.12463
 H694 H 0.17530 0.31677 -0.10124
 H695 H 0.09040 0.29122 -0.12500
 H696 H 0.10891 0.24914 -0.14783
 H697 H 0.04408 0.33725 -0.06561
 H698 H 0.02219 0.37876 -0.04317
 H699 H 0.09638 0.42834 -0.06498
 H700 H 0.11841 0.38641 -0.08678
 C701 C -0.14047 0.25396 0.10707
 C702 C -0.12698 0.27663 0.09355
 C703 C -0.11836 0.30019 0.10958
 C704 C -0.12318 0.30080 0.13953
 C705 C -0.13634 0.27792 0.15317
 C706 C -0.14519 0.25435 0.13701
 N707 N -0.10442 0.32290 0.09495
 N708 N -0.09941 0.34654 0.10704
 C709 C -0.08497 0.36883 0.09219
 C710 C -0.08424 0.39579 0.10457
 C711 C -0.07042 0.41799 0.09048
 C712 C -0.05668 0.41339 0.06392
 C713 C -0.05723 0.38621 0.05166
 C714 C -0.07139 0.36416 0.06557
 H715 H -0.14679 0.23588 0.09420
 H716 H -0.12325 0.27588 0.07049
 H717 H -0.11656 0.31877 0.15238
 H718 H -0.13984 0.27873 0.17626
 H719 H -0.09456 0.39964 0.12511
 H720 H -0.07023 0.43867 0.10052
 H721 H -0.04696 0.38204 0.03115
 H722 H -0.07155 0.34346 0.05561
 C723 C -0.10340 0.74381 -0.14421
 C724 C -0.08943 0.72089 -0.13169
 C725 C -0.10481 0.69992 -0.11748
 C726 C -0.13456 0.70232 -0.11537
 C727 C -0.14863 0.72561 -0.12730
 C728 C -0.13334 0.74673 -0.14224
 N729 N -0.08963 0.67675 -0.10500
 N730 N -0.10194 0.65405 -0.09731
 C731 C -0.08647 0.63134 -0.08427
 C732 C -0.09923 0.60471 -0.08242
 C733 C -0.08465 0.58216 -0.06977
 C734 C -0.05721 0.58608 -0.05817
 C735 C -0.04453 0.61292 -0.05985
 C736 C -0.05891 0.63530 -0.07302
 H737 H -0.09034 0.75983 -0.15426
 H738 H -0.06643 0.71943 -0.13313
 H739 H -0.14689 0.68632 -0.10435
 H740 H -0.17163 0.72626 -0.12572
 H741 H -0.12048 0.60141 -0.09094
 H742 H -0.09508 0.56179 -0.06856
 H743 H -0.02345 0.61658 -0.05108
 H744 H -0.04867 0.65575 -0.07404
 C745 C 0.10604 0.74972 0.14002
 C746 C 0.09192 0.72741 0.12632
 C747 C 0.10734 0.70588 0.11288
 C748 C 0.13720 0.70727 0.11247
 C749 C 0.15141 0.72987 0.12554
 C750 C 0.13613 0.75140 0.13997
 N751 N 0.09226 0.68279 0.09996
 N752 N 0.10461 0.65964 0.09378
 C753 C 0.08976 0.63657 0.08057
 C754 C 0.10223 0.60976 0.08094
 C755 C 0.08811 0.58668 0.06869
 C756 C 0.06145 0.59020 0.05527
 C757 C 0.04923 0.61729 0.05442
 C758 C 0.06312 0.64025 0.06723
 H759 H 0.09311 0.76610 0.14970
 H760 H 0.06884 0.72671 0.12649
 H761 H 0.14957 0.69084 0.10211
 H762 H 0.17447 0.72951 0.12546
 H763 H 0.12282 0.60671 0.09107
 H764 H 0.09820 0.56614 0.06947
 H765 H 0.02883 0.62069 0.04410
 H766 H 0.05319 0.66086 0.06647
 C767 C 0.25293 1.11026 0.86445
 C768 C 0.27495 1.09498 0.87735
 C769 C 0.30064 1.10824 0.88451
 C770 C 0.30402 1.13723 0.87896
 C771 C 0.28182 1.15265 0.86640
 C772 C 0.25616 1.13923 0.85886
 N773 N 0.32282 1.09182 0.89745
 N774 N 0.34795 1.10135 0.90092
 C775 C 0.36995 1.08489 0.91415
 C776 C 0.39798 1.09490 0.91351
 C777 C 0.41998 1.07932 0.92609
 C778 C 0.41420 1.05354 0.93993
 C779 C 0.38595 1.04363 0.94075
 C780 C 0.36402 1.05909 0.92782
 H781 H 0.23321 1.09952 0.85915
 H782 H 0.27208 1.07270 0.88164
 H783 H 0.32368 1.14796 0.88444
 H784 H 0.28481 1.17494 0.86220
 H785 H 0.40279 1.11479 0.90310
 H786 H 0.44147 1.08764 0.92528
 H787 H 0.38081 1.02387 0.95122
 H788 H 0.34247 1.05097 0.92869
 C789 C 0.28285 0.85435 1.16740
 C790 C 0.30740 0.86651 1.15566
 C791 C 0.30817 0.87425 1.12653
 C792 C 0.28424 0.86911 1.10899
 C793 C 0.25985 0.85663 1.12060
 C794 C 0.25883 0.84935 1.14996
 N795 N 0.33328 0.88748 1.11530
 N796 N 0.33362 0.89871 1.09037
 C797 C 0.35854 0.91185 1.07868
 C798 C 0.35613 0.92691 1.05287
 C799 C 0.37994 0.94007 1.04081
 C800 C 0.40676 0.93805 1.05427
 C801 C 0.40917 0.92274 1.08013
 C802 C 0.38522 0.90986 1.09235
 H803 H 0.28263 0.84874 1.19005
 H804 H 0.32573 0.87027 1.16937
 H805 H 0.28436 0.87480 1.08637
 H806 H 0.24152 0.85324 1.10678
 H807 H 0.33569 0.92852 1.04211
 H808 H 0.37740 0.95153 1.02076
 H809 H 0.42951 0.92085 1.09103
 H810 H 0.38760 0.89824 1.11230
 C811 C 0.71799 1.16092 1.13163
 C812 C 0.69342 1.14858 1.12004
 C813 C 0.69240 1.11950 1.11475
 C814 C 0.71625 1.10275 1.12132
 C815 C 0.74069 1.11501 1.13315
 C816 C 0.74181 1.14421 1.13841
 N817 N 0.66702 1.10746 1.10269
 N818 N 0.66597 1.08177 1.09467
 C819 C 0.64077 1.06940 1.08266
 C820 C 0.64257 1.04249 1.07034
 C821 C 0.61866 1.03008 1.05760
 C822 C 0.59236 1.04431 1.05735
 C823 C 0.59042 1.07109 1.07036
 C824 C 0.61449 1.08364 1.08276
 H825 H 0.71825 1.18345 1.13572
 H826 H 0.67516 1.16169 1.11510
 H827 H 0.71598 1.08020 1.11743
 H828 H 0.75886 1.10171 1.13794
 H829 H 0.66268 1.03127 1.07026
 H830 H 0.62076 1.00932 1.04796
 H831 H 0.57046 1.08257 1.07041
 H832 H 0.61259 1.10443 1.09233
 C833 C 0.75548 0.88527 0.87168
 C834 C 0.73203 0.89817 0.88473
 C835 C 0.70691 0.88295 0.88944
 C836 C 0.70566 0.85430 0.88153
 C837 C 0.72935 0.84120 0.86891
 C838 C 0.75434 0.85670 0.86361
 N839 N 0.68320 0.89717 0.90236
 N840 N 0.65820 0.88673 0.90290
 C841 C 0.63500 0.90145 0.91629
 C842 C 0.60708 0.89189 0.91191
 C843 C 0.58405 0.90615 0.92445
 C844 C 0.58868 0.93004 0.94197
 C845 C 0.61682 0.93931 0.94658
 C846 C 0.63971 0.92530 0.93373
 H847 H 0.77461 0.89756 0.86802
 H848 H 0.73327 0.92021 0.89088
 H849 H 0.68650 0.84209 0.88516
 H850 H 0.72800 0.81917 0.86275
 H851 H 0.60315 0.87349 0.89857
 H852 H 0.56268 0.89834 0.92061
 H853 H 0.62123 0.95746 0.96011
 H854 H 0.66111 0.93301 0.93762
   
