data_POSCAR
  _audit_creation_date              2014-09-24
  _audit_creation_method            'ToBaCCo'
  _symmetry_space_group_name_H-M    'P1'
  _symmetry_Int_Tables_number       1
  _symmetry_cell_setting            triclinic
  loop_
  _symmetry_equiv_pos_as_xyz
 x,y,z
_cell_length_a 27.5185
_cell_length_b 27.5054
_cell_length_c 27.5139
_cell_angle_alpha 89.940300
_cell_angle_beta 90.056400
_cell_angle_gamma 89.970900
loop_
  _atom_site_label
  _atom_site_type_symbol
  _atom_site_fract_x
  _atom_site_fract_y
  _atom_site_fract_z
C1 C 0.25165 0.95050 0.01904
 C2 C 0.24722 0.94966 -0.03264
 C3 C 0.24820 0.99426 -0.05790
 C4 C 0.25354 1.03862 -0.03334
 C5 C 0.25904 1.03820 0.01733
 C6 C 0.25816 0.99469 0.04253
 H7 H 0.26173 0.99547 0.08196
 H8 H 0.24456 0.99451 -0.09726
 C9 C 0.74671 0.44777 0.46642
 C10 C 0.75202 0.44853 0.51799
 C11 C 0.75985 0.49258 0.54140
 C12 C 0.76116 0.53607 0.51617
 C13 C 0.75463 0.53653 0.46566
 C14 C 0.74804 0.49232 0.44120
 H15 H 0.74368 0.49267 0.40197
 H16 H 0.76414 0.49330 0.58076
 C17 C 0.75196 0.96785 0.94735
 C18 C 0.74680 1.01947 0.94739
 C19 C 0.74069 1.04380 0.99132
 C20 C 0.74034 1.01929 1.03529
 C21 C 0.74536 0.96854 1.03615
 C22 C 0.75083 0.94336 0.99222
 H23 H 0.75461 0.90406 0.99307
 H24 H 0.73699 1.08330 0.99149
 C25 C 0.25017 0.46783 0.45045
 C26 C 0.24579 0.51949 0.45055
 C27 C 0.24131 0.54390 0.49454
 C28 C 0.24162 0.51939 0.53843
 C29 C 0.24567 0.46865 0.53930
 C30 C 0.24970 0.44332 0.49533
 H31 H 0.25286 0.40397 0.49613
 H32 H 0.23831 0.58339 0.49481
 C33 C 0.94862 0.25144 -0.01977
 C34 C 0.94743 0.24684 0.03189
 C35 C 0.99171 0.24796 0.05751
 C36 C 1.03628 0.25284 0.03335
 C37 C 1.03649 0.25687 -0.01745
 C38 C 0.99319 0.25652 -0.04305
 H39 H 0.99449 0.25967 -0.08253
 H40 H 0.99146 0.24473 0.09688
 C41 C 0.44976 0.75213 0.48203
 C42 C 0.45023 0.74772 0.53367
 C43 C 0.49542 0.74824 0.55755
 C44 C 0.53905 0.75239 0.53163
 C45 C 0.53762 0.75620 0.48090
 C46 C 0.49344 0.75637 0.45700
 H47 H 0.49322 0.75936 0.41752
 H48 H 0.49673 0.74517 0.59689
 C49 C -0.03239 0.75489 0.05066
 C50 C 0.01926 0.75024 0.05093
 C51 C 0.04381 0.74331 0.00735
 C52 C 0.01965 0.74224 -0.03677
 C53 C -0.03098 0.74812 -0.03821
 C54 C -0.05653 0.75384 0.00551
 H55 H -0.09582 0.75766 0.00421
 H56 H 0.08325 0.73949 0.00763
 C57 C 0.46588 0.24728 0.46276
 C58 C 0.51634 0.24055 0.46263
 C59 C 0.54217 0.24151 0.50579
 C60 C 0.51937 0.24903 0.55019
 C61 C 0.46783 0.25445 0.55153
 C62 C 0.44204 0.25362 0.50730
 H63 H 0.40283 0.25807 0.50747
 H64 H 0.58149 0.23710 0.50457
 C65 C 1.04950 0.03352 0.24697
 C66 C 1.04983 -0.01810 0.25222
 C67 C 1.00624 -0.04265 0.25926
 C68 C 0.96208 -0.01856 0.25960
 C69 C 0.96059 0.03200 0.25298
 C70 C 1.00432 0.05760 0.24738
 H71 H 1.00299 0.09685 0.24305
 H72 H 1.00656 -0.08206 0.26354
 C73 C 0.46450 0.48258 0.76256
 C74 C 0.46413 0.53307 0.75571
 C75 C 0.50838 0.55733 0.74880
 C76 C 0.55276 0.53190 0.74726
 C77 C 0.55188 0.48034 0.75263
 C78 C 0.50785 0.45715 0.76103
 H79 H 0.50702 0.41780 0.76542
 H80 H 0.50818 0.59656 0.74432
 C81 C 1.03345 0.96339 0.74523
 C82 C 0.98282 0.96379 0.74049
 C83 C 0.95779 1.00739 0.74052
 C84 C 0.98162 1.05164 0.74616
 C85 C 1.03323 1.05217 0.75131
 C86 C 1.05821 1.00755 0.75037
 H87 H 1.09751 1.00710 0.75409
 H88 H 0.91835 1.00657 0.73694
 C89 C 0.53065 0.46186 0.24470
 C90 C 0.47986 0.46326 0.24151
 C91 C 0.45590 0.50743 0.24210
 C92 C 0.48087 0.55114 0.24665
 C93 C 0.53257 0.55073 0.25038
 C94 C 0.55653 0.50556 0.24898
 H95 H 0.59589 0.50431 0.25160
 H96 H 0.41639 0.50761 0.23962
 O97 O 0.26600 0.12895 0.16073
 O98 O 0.32515 0.11713 0.23136
 O99 O 0.14108 0.17792 0.23698
 O100 O 0.12291 0.24302 0.28728
 O101 O 0.19482 0.25379 0.10806
 O102 O 0.26371 0.31157 0.09836
 O103 O 0.26239 0.32165 0.35698
 O104 O 0.20598 0.25139 0.36973
 O105 O 0.38898 0.24829 0.30193
 O106 O 0.39631 0.18839 0.22725
 O107 O 0.33539 0.37212 0.23662
 O108 O 0.26254 0.38593 0.17494
 O109 O 0.26435 0.37900 0.29746
 O110 O 0.21720 0.39585 0.23308
 O111 O 0.39243 0.31212 0.23573
 O112 O 0.40902 0.24961 0.18575
 O113 O 0.33013 0.25388 0.35966
 O114 O 0.26980 0.20347 0.37893
 O115 O 0.26359 0.18943 0.10409
 O116 O 0.31447 0.25457 0.09114
 O117 O 0.13728 0.24871 0.16728
 O118 O 0.12267 0.30162 0.23345
 O119 O 0.20062 0.12066 0.23096
 O120 O 0.26264 0.10686 0.28211
 Zr121 Zr 0.26347 0.16339 0.22982
 O122 O 0.30653 0.20464 0.27795
 Zr123 Zr 0.17684 0.24692 0.23259
 O124 O 0.21853 0.29452 0.27643
 Zr125 Zr 0.26127 0.25151 0.14644
 O126 O 0.30891 0.29376 0.18836
 Zr127 Zr 0.26485 0.25317 0.32037
 O128 O 0.22092 0.20496 0.27875
 Zr129 Zr 0.35047 0.24969 0.23546
 O130 O 0.30913 0.20695 0.18700
 Zr131 Zr 0.26665 0.33705 0.23432
 O132 O 0.21821 0.29629 0.19030
 O133 O 0.21736 0.20415 0.18605
 O134 O 0.31150 0.29705 0.28048
 C135 C 0.26574 0.14496 0.11663
 C136 C 0.15612 0.13327 0.23561
 C137 C 0.15056 0.25229 0.12275
 C138 C 0.26229 0.36627 0.34204
 C139 C 0.37459 0.25071 0.34623
 C140 C 0.37961 0.35655 0.23659
 H141 H 0.32589 0.18238 0.29855
 H142 H 0.32972 0.31329 0.16654
 H143 H 0.19654 0.18336 0.16536
 H144 H 0.19640 0.31503 0.29591
 H145 H 0.18584 0.22280 0.36108
 H146 H 0.13232 0.26567 0.31357
 H147 H 0.39708 0.26497 0.15551
 H148 H 0.34185 0.23397 0.10220
 H149 H 0.27432 0.17095 0.36443
 H150 H 0.24314 0.11879 0.30986
 H151 H 0.29505 0.38776 0.15973
 H152 H 0.23520 0.33227 0.10566
 H153 H 0.31643 0.08580 0.21582
 H154 H 0.39940 0.17240 0.25934
 H155 H 0.13380 0.32765 0.21123
 H156 H 0.18599 0.38316 0.24555
 O157 O 0.74770 0.89254 0.19710
 O158 O 0.69057 0.90226 0.26650
 O159 O 0.87339 0.83914 0.26833
 O160 O 0.89029 0.77499 0.32163
 O161 O 0.82328 0.76527 0.14218
 O162 O 0.75180 0.71017 0.12828
 O163 O 0.75355 0.69810 0.39053
 O164 O 0.81098 0.76405 0.40094
 O165 O 0.62907 0.76367 0.33678
 O166 O 0.61591 0.82626 0.26469
 O167 O 0.67950 0.64389 0.26381
 O168 O 0.75465 0.63089 0.20733
 O169 O 0.74834 0.64089 0.33105
 O170 O 0.79758 0.62150 0.26582
 O171 O 0.62222 0.70344 0.26507
 O172 O 0.60550 0.76841 0.21886
 O173 O 0.68891 0.76222 0.39397
 O174 O 0.74492 0.81681 0.40816
 O175 O 0.75120 0.83361 0.13914
 O176 O 0.70364 0.76667 0.12092
 O177 O 0.88040 0.76932 0.20188
 O178 O 0.89237 0.71600 0.26496
 O179 O 0.81308 0.89589 0.26528
 O180 O 0.74612 0.91043 0.31543
 Zr181 Zr 0.75043 0.85401 0.26340
 O182 O 0.70792 0.81193 0.31075
 Zr183 Zr 0.83817 0.77069 0.26509
 O184 O 0.79669 0.72260 0.30809
 Zr185 Zr 0.75451 0.76831 0.17846
 O186 O 0.70667 0.72473 0.21987
 Zr187 Zr 0.75137 0.76445 0.35226
 O188 O 0.79474 0.81309 0.31149
 Zr189 Zr 0.66433 0.76650 0.26823
 O190 O 0.70529 0.81055 0.22000
 Zr191 Zr 0.74823 0.68043 0.26579
 O192 O 0.79661 0.72217 0.22212
 O193 O 0.79759 0.81466 0.21903
 O194 O 0.70419 0.71980 0.31270
 C195 C 0.74813 0.87806 0.15276
 C196 C 0.85755 0.88330 0.26764
 C197 C 0.86786 0.76580 0.15728
 C198 C 0.75141 0.65393 0.37567
 C199 C 0.64452 0.76233 0.38102
 C200 C 0.63488 0.65882 0.26328
 H201 H 0.68871 0.83366 0.33196
 H202 H 0.68603 0.70572 0.19742
 H203 H 0.81822 0.83555 0.19824
 H204 H 0.81872 0.70188 0.32754
 H205 H 0.83055 0.79344 0.39396
 H206 H 0.88340 0.74884 0.34535
 H207 H 0.61845 0.75744 0.18721
 H208 H 0.67469 0.78453 0.13257
 H209 H 0.76252 0.84598 0.39693
 H210 H 0.76994 0.90284 0.34128
 H211 H 0.72475 0.63344 0.18750
 H212 H 0.77875 0.68785 0.13672
 H213 H 0.66975 0.89536 0.23797
 H214 H 0.61423 0.84119 0.29735
 H215 H 0.87957 0.68889 0.24508
 H216 H 0.82796 0.63338 0.28090
 O217 O 0.75541 0.11647 0.80595
 O218 O 0.71203 0.10086 0.74299
 O219 O 0.88399 0.19266 0.75326
 O220 O 0.89940 0.25572 0.70982
 O221 O 0.80804 0.24507 0.88194
 O222 O 0.74520 0.28863 0.89745
 O223 O 0.74851 0.30662 0.61815
 O224 O 0.79441 0.24537 0.60309
 O225 O 0.62017 0.25188 0.69172
 O226 O 0.60516 0.20563 0.75280
 O227 O 0.69356 0.38014 0.74656
 O228 O 0.75487 0.39539 0.79239
 O229 O 0.74974 0.36813 0.67325
 O230 O 0.81405 0.38181 0.74631
 O231 O 0.63215 0.32492 0.74845
 O232 O 0.61874 0.25143 0.81225
 O233 O 0.67525 0.25043 0.63023
 O234 O 0.74837 0.18608 0.61681
 O235 O 0.74741 0.17071 0.86780
 O236 O 0.68690 0.24407 0.88098
 O237 O 0.86993 0.25290 0.82775
 O238 O 0.88277 0.31389 0.75465
 O239 O 0.82985 0.13066 0.74559
 O240 O 0.75672 0.11748 0.68481
 Zr241 Zr 0.75785 0.16229 0.74724
 O242 O 0.70592 0.20336 0.70816
 Zr243 Zr 0.83812 0.25132 0.75577
 O244 O 0.79688 0.29031 0.70389
 Zr245 Zr 0.74928 0.24270 0.83613
 O246 O 0.71012 0.29446 0.79494
 Zr247 Zr 0.74675 0.24748 0.66314
 O248 O 0.79931 0.20795 0.70398
 Zr249 Zr 0.66512 0.25345 0.75092
 O250 O 0.70605 0.20107 0.79057
 Zr251 Zr 0.75278 0.33529 0.74476
 O252 O 0.79250 0.29455 0.79726
 O253 O 0.79869 0.20184 0.79666
 O254 O 0.70412 0.29612 0.70221
 C255 C 0.75030 0.12680 0.85043
 C256 C 0.87372 0.14811 0.74840
 C257 C 0.85256 0.24997 0.87166
 C258 C 0.74880 0.35120 0.62909
 C259 C 0.63108 0.25147 0.64713
 C260 C 0.64900 0.36912 0.74739
 H261 H 0.68432 0.18126 0.68978
 H262 H 0.69175 0.31605 0.81706
 H263 H 0.81947 0.18103 0.81746
 H264 H 0.81892 0.30873 0.68226
 H265 H 0.82753 0.24340 0.61698
 H266 H 0.88734 0.24858 0.67668
 H267 H 0.61420 0.28513 0.82397
 H268 H 0.67086 0.21199 0.87801
 H269 H 0.71458 0.17479 0.61194
 H270 H 0.78877 0.12065 0.66879
 H271 H 0.75676 0.38152 0.82553
 H272 H 0.75231 0.32178 0.88538
 H273 H 0.67888 0.11285 0.75013
 H274 H 0.61910 0.17253 0.75482
 H275 H 0.87962 0.32986 0.78673
 H276 H 0.82538 0.38657 0.71252
 O277 O 0.23624 0.85682 0.82478
 O278 O 0.29196 0.87019 0.75264
 O279 O 0.10874 0.80214 0.74755
 O280 O 0.09483 0.74010 0.69552
 O281 O 0.16193 0.73218 0.87467
 O282 O 0.23315 0.67460 0.88828
 O283 O 0.23630 0.66278 0.63013
 O284 O 0.17544 0.72962 0.61689
 O285 O 0.35732 0.73542 0.68077
 O286 O 0.36993 0.79231 0.75624
 O287 O 0.30290 0.60898 0.75392
 O288 O 0.23094 0.59814 0.81201
 O289 O 0.23707 0.60573 0.69018
 O290 O 0.18463 0.59041 0.75492
 O291 O 0.36042 0.66824 0.75004
 O292 O 0.38026 0.73260 0.79833
 O293 O 0.29789 0.73260 0.62341
 O294 O 0.23938 0.78195 0.60813
 O295 O 0.23350 0.79719 0.88204
 O296 O 0.28159 0.73199 0.89715
 O297 O 0.10520 0.73542 0.81435
 O298 O 0.09544 0.67904 0.75131
 O299 O 0.16789 0.85986 0.75229
 O300 O 0.23563 0.87993 0.70711
 Zr301 Zr 0.23326 0.82067 0.75600
 O302 O 0.27661 0.77928 0.70805
 Zr303 Zr 0.14721 0.73607 0.75187
 O304 O 0.18908 0.68885 0.70891
 Zr305 Zr 0.23070 0.73420 0.83965
 O306 O 0.27872 0.69137 0.79811
 Zr307 Zr 0.23498 0.73104 0.66559
 O308 O 0.19095 0.77924 0.70651
 Zr309 Zr 0.32090 0.73343 0.74957
 O310 O 0.27949 0.77705 0.79829
 Zr311 Zr 0.23637 0.64726 0.75295
 O312 O 0.18818 0.68840 0.79626
 O313 O 0.18677 0.78030 0.79910
 O314 O 0.28132 0.68643 0.70568
 C315 C 0.23642 0.84178 0.86936
 C316 C 0.12344 0.84643 0.74848
 C317 C 0.11777 0.73315 0.85883
 C318 C 0.23702 0.61859 0.64574
 C319 C 0.34243 0.73513 0.63612
 C320 C 0.34716 0.62365 0.75242
 H321 H 0.29547 0.80170 0.68720
 H322 H 0.29951 0.67220 0.82033
 H323 H 0.16606 0.80143 0.81954
 H324 H 0.16748 0.66813 0.68905
 H325 H 0.15537 0.75870 0.62388
 H326 H 0.10198 0.71424 0.67160
 H327 H 0.36734 0.72159 0.83000
 H328 H 0.31109 0.74857 0.88499
 H329 H 0.22703 0.81296 0.62130
 H330 H 0.21744 0.86978 0.67783
 H331 H 0.26114 0.60052 0.83139
 H332 H 0.20408 0.65443 0.88177
 H333 H 0.31343 0.86287 0.78060
 H334 H 0.36816 0.81151 0.72586
 H335 H 0.10650 0.65444 0.77517
 H336 H 0.15686 0.60043 0.73437
 O337 O 0.24825 0.39339 0.70076
 O338 O 0.19055 0.40289 0.77038
 O339 O 0.37338 0.33966 0.77247
 O340 O 0.39023 0.27520 0.82542
 O341 O 0.32327 0.26605 0.64598
 O342 O 0.25156 0.21115 0.63193
 O343 O 0.25305 0.19845 0.89395
 O344 O 0.31104 0.26398 0.90453
 O345 O 0.12924 0.26486 0.84043
 O346 O 0.11626 0.32777 0.76847
 O347 O 0.17904 0.14522 0.76685
 O348 O 0.25436 0.13201 0.71055
 O349 O 0.24767 0.14150 0.83424
 O350 O 0.29690 0.12209 0.76926
 O351 O 0.12198 0.20499 0.76842
 O352 O 0.10538 0.26994 0.72270
 O353 O 0.18903 0.26315 0.89768
 O354 O 0.24534 0.31729 0.91196
 O355 O 0.25156 0.33449 0.64278
 O356 O 0.20379 0.26791 0.62446
 O357 O 0.38037 0.27001 0.70571
 O358 O 0.39227 0.21655 0.76842
 O359 O 0.31318 0.39654 0.76973
 O360 O 0.24631 0.41175 0.81862
 Zr361 Zr 0.25057 0.35484 0.76715
 O362 O 0.20810 0.31282 0.81454
 Zr363 Zr 0.33811 0.27128 0.76885
 O364 O 0.29653 0.22314 0.81166
 Zr365 Zr 0.25453 0.26928 0.68213
 O366 O 0.20650 0.22588 0.72340
 Zr367 Zr 0.25138 0.26503 0.85592
 O368 O 0.29474 0.31371 0.81525
 Zr369 Zr 0.16436 0.26775 0.77186
 O370 O 0.20538 0.31165 0.72360
 Zr371 Zr 0.24791 0.18133 0.76919
 O372 O 0.29649 0.22297 0.72571
 O373 O 0.29771 0.31546 0.72281
 O374 O 0.20401 0.22073 0.81620
 C375 C 0.24867 0.37893 0.65641
 C376 C 0.35757 0.38383 0.77207
 C377 C 0.36781 0.26648 0.66113
 C378 C 0.25070 0.15433 0.87890
 C379 C 0.14468 0.26345 0.88466
 C380 C 0.13450 0.16038 0.76631
 H381 H 0.18899 0.33460 0.83580
 H382 H 0.18579 0.20705 0.70086
 H383 H 0.31845 0.33636 0.70214
 H384 H 0.31847 0.20226 0.83104
 H385 H 0.33080 0.29327 0.89767
 H386 H 0.38343 0.24881 0.84892
 H387 H 0.11834 0.25951 0.69087
 H388 H 0.17482 0.28574 0.63612
 H389 H 0.26366 0.34616 0.90108
 H390 H 0.26864 0.40330 0.84551
 H391 H 0.22443 0.13458 0.69076
 H392 H 0.27864 0.18889 0.64013
 H393 H 0.17025 0.39669 0.74131
 H394 H 0.11437 0.34240 0.80125
 H395 H 0.37929 0.18940 0.74872
 H396 H 0.32744 0.13388 0.78408
 O397 O 0.77148 0.62753 0.65906
 O398 O 0.83110 0.61640 0.72968
 O399 O 0.64683 0.67688 0.73486
 O400 O 0.62826 0.74200 0.78463
 O401 O 0.70089 0.75245 0.60569
 O402 O 0.76985 0.80974 0.59566
 O403 O 0.76705 0.82131 0.85451
 O404 O 0.71114 0.75060 0.86740
 O405 O 0.89433 0.74798 0.79987
 O406 O 0.90211 0.68784 0.72570
 O407 O 0.84039 0.87128 0.73430
 O408 O 0.76794 0.88484 0.67223
 O409 O 0.76909 0.87840 0.79474
 O410 O 0.72214 0.89470 0.72980
 O411 O 0.89766 0.81149 0.73353
 O412 O 0.91450 0.74883 0.68373
 O413 O 0.83532 0.75396 0.85741
 O414 O 0.77537 0.70336 0.87702
 O415 O 0.76920 0.68773 0.60212
 O416 O 0.82074 0.75272 0.58926
 O417 O 0.64325 0.74742 0.66483
 O418 O 0.62818 0.80041 0.73082
 O419 O 0.70646 0.61965 0.72938
 O420 O 0.76866 0.60603 0.78045
 Zr421 Zr 0.76924 0.66240 0.72798
 O422 O 0.81200 0.70402 0.77604
 Zr423 Zr 0.68248 0.74582 0.73023
 O424 O 0.72378 0.79371 0.77399
 Zr425 Zr 0.76715 0.75007 0.64421
 O426 O 0.81439 0.79275 0.68609
 Zr427 Zr 0.77011 0.75266 0.81816
 O428 O 0.72648 0.70411 0.77665
 Zr429 Zr 0.85593 0.74895 0.73342
 O430 O 0.81495 0.70578 0.68506
 Zr431 Zr 0.77184 0.83613 0.73176
 O432 O 0.72381 0.79499 0.68772
 O433 O 0.72316 0.70291 0.68396
 O434 O 0.81671 0.79644 0.77815
 C435 C 0.77108 0.64328 0.61486
 C436 C 0.66196 0.63227 0.73383
 C437 C 0.65665 0.75100 0.62037
 C438 C 0.76677 0.86589 0.83938
 C439 C 0.87979 0.75074 0.84408
 C440 C 0.88462 0.85584 0.73438
 H441 H 0.83136 0.68192 0.79682
 H442 H 0.83520 0.81226 0.66425
 H443 H 0.70233 0.68205 0.66336
 H444 H 0.70148 0.81421 0.79330
 H445 H 0.69122 0.72184 0.85881
 H446 H 0.63767 0.76447 0.81106
 H447 H 0.90255 0.76406 0.65343
 H448 H 0.84777 0.73167 0.60033
 H449 H 0.77933 0.67070 0.86269
 H450 H 0.74915 0.61799 0.80818
 H451 H 0.80050 0.88661 0.65711
 H452 H 0.74161 0.83078 0.60301
 H453 H 0.82253 0.58504 0.71410
 H454 H 0.90489 0.67183 0.75781
 H455 H 0.63929 0.82638 0.70853
 H456 H 0.69109 0.88217 0.74284
 O457 O 0.25315 0.61897 0.30777
 O458 O 0.20960 0.60333 0.24496
 O459 O 0.38198 0.69430 0.25444
 O460 O 0.39769 0.75721 0.21097
 O461 O 0.30652 0.74742 0.38321
 O462 O 0.24398 0.79132 0.39881
 O463 O 0.24692 0.80868 0.11950
 O464 O 0.29245 0.74721 0.10444
 O465 O 0.11845 0.75460 0.19361
 O466 O 0.10333 0.70880 0.25486
 O467 O 0.19268 0.88279 0.24769
 O468 O 0.25400 0.89782 0.29351
 O469 O 0.24912 0.87032 0.17443
 O470 O 0.31318 0.88379 0.24766
 O471 O 0.13103 0.82786 0.24986
 O472 O 0.11730 0.75476 0.31401
 O473 O 0.17341 0.75255 0.13201
 O474 O 0.24635 0.68817 0.11838
 O475 O 0.24558 0.67335 0.36954
 O476 O 0.18544 0.74701 0.38255
 O477 O 0.36838 0.75467 0.32889
 O478 O 0.38152 0.81546 0.25574
 O479 O 0.32754 0.63255 0.24692
 O480 O 0.25401 0.61957 0.18659
 Zr481 Zr 0.25572 0.66455 0.24889
 O482 O 0.20399 0.70584 0.20984
 Zr483 Zr 0.33646 0.75318 0.25702
 O484 O 0.29540 0.79230 0.20516
 Zr485 Zr 0.24773 0.74522 0.33758
 O486 O 0.20884 0.79714 0.29639
 Zr487 Zr 0.24498 0.74964 0.16463
 O488 O 0.29735 0.70988 0.20543
 Zr489 Zr 0.16358 0.75625 0.25258
 O490 O 0.20422 0.70369 0.29223
 Zr491 Zr 0.25165 0.83762 0.24603
 O492 O 0.29119 0.79674 0.29854
 O493 O 0.29687 0.70399 0.29811
 O494 O 0.20268 0.79861 0.20366
 C495 C 0.24819 0.62940 0.35225
 C496 C 0.37150 0.64982 0.24954
 C497 C 0.35103 0.75197 0.37280
 C498 C 0.24793 0.85329 0.13031
 C499 C 0.12930 0.75378 0.14903
 C500 C 0.14809 0.87196 0.24862
 H501 H 0.18224 0.68378 0.19158
 H502 H 0.19063 0.81888 0.31848
 H503 H 0.31759 0.68309 0.31888
 H504 H 0.31754 0.81051 0.18347
 H505 H 0.32560 0.74522 0.11824
 H506 H 0.38556 0.75007 0.17786
 H507 H 0.11287 0.78853 0.32553
 H508 H 0.16923 0.71500 0.37968
 H509 H 0.21255 0.67681 0.11380
 H510 H 0.28602 0.62246 0.17043
 H511 H 0.25580 0.88403 0.32669
 H512 H 0.25127 0.82440 0.38665
 H513 H 0.17651 0.61551 0.25204
 H514 H 0.11707 0.67561 0.25680
 H515 H 0.37856 0.83149 0.28781
 H516 H 0.32479 0.88820 0.21392
 O517 O 0.73285 0.35400 0.32110
 O518 O 0.78748 0.36806 0.24893
 O519 O 0.60460 0.29971 0.24419
 O520 O 0.59059 0.23807 0.19163
 O521 O 0.65815 0.22915 0.37062
 O522 O 0.72913 0.17157 0.38405
 O523 O 0.73209 0.16052 0.12576
 O524 O 0.67097 0.22811 0.11299
 O525 O 0.85305 0.23286 0.17672
 O526 O 0.86597 0.28931 0.25222
 O527 O 0.79846 0.10621 0.24944
 O528 O 0.72636 0.09520 0.30725
 O529 O 0.73288 0.10319 0.18552
 O530 O 0.68006 0.08788 0.25011
 O531 O 0.85601 0.16545 0.24561
 O532 O 0.87599 0.22970 0.29423
 O533 O 0.79364 0.23059 0.11931
 O534 O 0.73453 0.27928 0.10362
 O535 O 0.72988 0.29409 0.37808
 O536 O 0.77785 0.22861 0.39279
 O537 O 0.60126 0.23250 0.31045
 O538 O 0.59121 0.17660 0.24703
 O539 O 0.66380 0.35732 0.24961
 O540 O 0.73113 0.37670 0.20251
 Zr541 Zr 0.72919 0.31807 0.25221
 O542 O 0.77245 0.27676 0.20412
 Zr543 Zr 0.64306 0.23356 0.24786
 O544 O 0.68475 0.18641 0.20458
 Zr545 Zr 0.72676 0.23123 0.33548
 O546 O 0.77450 0.18840 0.29374
 Zr547 Zr 0.73070 0.22874 0.16145
 O548 O 0.68679 0.27685 0.20264
 Zr549 Zr 0.81666 0.23067 0.24542
 O550 O 0.77545 0.27424 0.29425
 Zr551 Zr 0.73200 0.14457 0.24842
 O552 O 0.68404 0.18567 0.29200
 O553 O 0.68279 0.27752 0.29523
 O554 O 0.77699 0.18390 0.20132
 C555 C 0.73312 0.33874 0.36563
 C556 C 0.61933 0.34397 0.24572
 C557 C 0.61399 0.23014 0.35487
 C558 C 0.73296 0.11623 0.14114
 C559 C 0.83817 0.23291 0.13210
 C560 C 0.84270 0.12089 0.24799
 H561 H 0.79143 0.29923 0.18344
 H562 H 0.79525 0.16910 0.31589
 H563 H 0.66224 0.29856 0.31592
 H564 H 0.66312 0.16584 0.18460
 H565 H 0.65115 0.25730 0.12024
 H566 H 0.59765 0.21233 0.16755
 H567 H 0.86325 0.21785 0.32566
 H568 H 0.80729 0.24534 0.38067
 H569 H 0.73129 0.31174 0.11853
 H570 H 0.71093 0.36701 0.17438
 H571 H 0.75647 0.09755 0.32678
 H572 H 0.70016 0.15131 0.37735
 H573 H 0.80965 0.36003 0.27613
 H574 H 0.86398 0.30884 0.22206
 H575 H 0.60236 0.15179 0.27063
 H576 H 0.65250 0.09788 0.22928
 C577 C 0.26315 0.08034 0.04721
 C578 C 0.26530 0.11082 0.07808
 C579 C 0.76663 0.57825 0.54579
 C580 C 0.76978 0.60889 0.57648
 C581 C 0.74555 0.94068 0.08047
 C582 C 0.74636 0.91376 0.11497
 C583 C 0.24617 0.44114 0.58379
 C584 C 0.24702 0.41452 0.61851
 C585 C 0.74848 0.05038 0.90875
 C586 C 0.74916 0.08502 0.88177
 C587 C 0.24672 0.55255 0.41004
 C588 C 0.24707 0.58761 0.38358
 C589 C 0.24296 0.90881 0.93895
 C590 C 0.23971 0.87727 0.90821
 C591 C 0.74112 0.40491 0.43598
 C592 C 0.73713 0.37392 0.40475
 C593 C 0.07787 0.25327 0.06035
 C594 C 0.11247 0.25320 0.08723
 C595 C 0.58377 0.75246 0.55863
 C596 C 0.61864 0.75211 0.58499
 C597 C 0.04844 0.73761 0.92367
 C598 C 0.07925 0.73458 0.89311
 C599 C 0.54536 0.23501 0.42013
 C600 C 0.57574 0.23168 0.38928
 C601 C 0.93825 0.75928 0.09090
 C602 C 0.90698 0.76257 0.12197
 C603 C 0.43787 0.25950 0.59470
 C604 C 0.40682 0.26304 0.62587
 C605 C 0.91053 0.25062 0.94851
 C606 C 0.88388 0.25058 0.91355
 C607 C 0.40891 0.75195 0.44947
 C608 C 0.38233 0.75231 0.41456
 C609 C 0.08973 0.06290 0.24256
 C610 C 0.12082 0.09416 0.23915
 C611 C 0.59568 0.56212 0.74161
 C612 C 0.62674 0.59325 0.73770
 C613 C 0.95035 0.09002 0.74732
 C614 C 0.91556 0.11683 0.74760
 C615 C 0.44820 0.59193 0.24794
 C616 C 0.41325 0.61848 0.24842
 C617 C 0.06134 0.91913 0.74554
 C618 C 0.08803 0.88447 0.74644
 C619 C 0.55769 0.41708 0.24421
 C620 C 0.58401 0.38213 0.24443
 C621 C 0.92248 0.95262 0.26394
 C622 C 0.89186 0.92183 0.26667
 C623 C 0.42235 0.45305 0.76815
 C624 C 0.39183 0.42228 0.77119
 C625 C 0.07906 0.25982 0.95312
 C626 C 0.11003 0.26172 0.92272
 C627 C 0.57936 0.75875 0.45017
 C628 C 0.60991 0.76054 0.41925
 C629 C 0.94170 0.74875 0.91708
 C630 C 0.91524 0.74967 0.88221
 C631 C 0.43731 0.24817 0.41877
 C632 C 0.41027 0.24933 0.38427
 C633 C 0.05243 0.75295 0.09131
 C634 C 0.08763 0.75380 0.11755
 C635 C 0.55379 0.25137 0.58966
 C636 C 0.58935 0.25186 0.61554
 C637 C 0.90449 0.24126 0.06210
 C638 C 0.87349 0.23696 0.09322
 C639 C 0.40813 0.74280 0.56527
 C640 C 0.37765 0.73891 0.59701
 C641 C 0.25289 0.08066 0.94025
 C642 C 0.25193 0.11574 0.91395
 C643 C 0.75399 0.58083 0.43763
 C644 C 0.75290 0.61558 0.41095
 C645 C 0.73701 0.04772 0.07529
 C646 C 0.73473 0.07811 0.10636
 C647 C 0.23943 0.54959 0.58050
 C648 C 0.23809 0.58032 0.61121
 C649 C 0.75791 0.93667 0.90503
 C650 C 0.76242 0.90508 0.87446
 C651 C 0.25492 0.43678 0.40801
 C652 C 0.25864 0.40529 0.37729
 C653 C 0.24906 0.91072 0.05306
 C654 C 0.24814 0.88476 0.08853
 C655 C 0.74921 0.40876 0.55196
 C656 C 0.74850 0.38277 0.58739
 C657 C 0.06396 0.09470 0.75726
 C658 C 0.09541 0.12533 0.76186
 C659 C 0.56413 0.59291 0.25550
 C660 C 0.59580 0.62351 0.25944
 C661 C 0.09025 0.94878 0.24959
 C662 C 0.11658 0.91364 0.24871
 C663 C 0.59145 0.44623 0.74907
 C664 C 0.61740 0.41078 0.74774
 C665 C 0.91582 0.05920 0.25143
 C666 C 0.88089 0.08554 0.24978
 C667 C 0.41993 0.56127 0.75503
 C668 C 0.38531 0.58813 0.75389
 C669 C 0.95313 0.92145 0.73760
 C670 C 0.92268 0.89051 0.73583
 C671 C 0.44907 0.42152 0.23918
 C672 C 0.41801 0.39106 0.23778
   
