data_POSCAR
  _audit_creation_date              2014-09-24
  _audit_creation_method            'ToBaCCo'
  _symmetry_space_group_name_H-M    'P1'
  _symmetry_Int_Tables_number       1
  _symmetry_cell_setting            triclinic
  loop_
  _symmetry_equiv_pos_as_xyz
 x,y,z
_cell_length_a 31.1163
_cell_length_b 30.8414
_cell_length_c 35.5646
_cell_angle_alpha 89.362000
_cell_angle_beta 90.353200
_cell_angle_gamma 90.461300
loop_
  _atom_site_label
  _atom_site_type_symbol
  _atom_site_fract_x
  _atom_site_fract_y
  _atom_site_fract_z
N1 N 0.27340 0.13878 0.16477
 N2 N 0.25591 0.16549 0.14008
 C3 C 0.27853 0.16423 0.10793
 C4 C 0.31170 0.13504 0.11278
 C5 C 0.30762 0.11972 0.14923
 H6 H 0.27411 0.18597 0.08417
 H7 H 0.33037 0.09968 0.16442
 Cu8 Cu 0.21113 0.20532 0.15554
 Cu9 Cu 0.25630 0.13761 0.21744
 Cu10 Cu 0.15681 0.18368 0.23442
 N11 N 0.16433 0.24243 0.17136
 N12 N 0.14340 0.23374 0.20260
 C13 C 0.11387 0.26460 0.20813
 C14 C 0.11624 0.29422 0.17874
 C15 C 0.14892 0.27939 0.15606
 H16 H 0.09287 0.26595 0.23222
 H17 H 0.16144 0.29521 0.13109
 N18 N 0.18552 0.14399 0.27017
 N19 N 0.22380 0.12735 0.26412
 C20 C 0.23542 0.10331 0.29427
 C21 C 0.20278 0.10463 0.32039
 C22 C 0.17187 0.13115 0.30440
 H23 H 0.26540 0.08603 0.29712
 H24 H 0.14219 0.14123 0.31719
 H25 H 0.19560 0.14611 0.19945
 H26 H 0.21998 0.19410 0.22314
 N27 N 0.73508 -0.14483 0.16676
 N28 N 0.74871 -0.17616 0.14531
 C29 C 0.72325 -0.17852 0.11465
 C30 C 0.69210 -0.14637 0.11660
 C31 C 0.70060 -0.12621 0.15065
 H32 H 0.72733 -0.20189 0.09254
 H33 H 0.68156 -0.10192 0.16434
 Cu34 Cu 0.79772 -0.21154 0.16029
 Cu35 Cu 0.76264 -0.13114 0.21437
 Cu36 Cu 0.81531 -0.21917 0.25357
 N37 N 0.83885 -0.25251 0.18148
 N38 N 0.84440 -0.25620 0.21802
 C39 C 0.87146 -0.28898 0.22538
 C40 C 0.88481 -0.30635 0.19158
 C41 C 0.86282 -0.28249 0.16428
 H42 H 0.88116 -0.29900 0.25339
 H43 H 0.86181 -0.28844 0.13438
 N44 N 0.79803 -0.16831 0.28285
 N45 N 0.77890 -0.13433 0.26756
 C46 C 0.77268 -0.10437 0.29411
 C47 C 0.78937 -0.11995 0.32761
 C48 C 0.80486 -0.16071 0.31964
 H49 H 0.75738 -0.07339 0.28940
 H50 H 0.82023 -0.18296 0.33912
 H51 H 0.81856 -0.16975 0.21553
 H52 H 0.76457 -0.19605 0.22064
 N53 N 0.71445 0.16479 0.81950
 N54 N 0.74015 0.17655 0.84711
 C55 C 0.72087 0.16784 0.88015
 C56 C 0.68094 0.14941 0.87287
 C57 C 0.67771 0.14886 0.83400
 H58 H 0.73430 0.17557 0.90741
 H59 H 0.65023 0.13879 0.81740
 Cu60 Cu 0.79418 0.20650 0.83736
 Cu61 Cu 0.73000 0.17167 0.76674
 Cu62 Cu 0.83534 0.20127 0.75115
 N63 N 0.83624 0.24912 0.81957
 N64 N 0.85060 0.24834 0.78501
 C65 C 0.87468 0.28397 0.77854
 C66 C 0.87541 0.30929 0.81081
 C67 C 0.85169 0.28471 0.83668
 H68 H 0.88906 0.29136 0.75162
 H69 H 0.84663 0.29097 0.86611
 N70 N 0.80083 0.17054 0.71383
 N71 N 0.75946 0.16280 0.71823
 C72 C 0.74422 0.14332 0.68710
 C73 C 0.77779 0.13832 0.66192
 C74 C 0.81340 0.15517 0.68054
 H75 H 0.71146 0.13202 0.68371
 H76 H 0.84648 0.15493 0.67145
 H77 H 0.79166 0.16082 0.78199
 H78 H 0.77713 0.21822 0.77081
 N79 N 0.28105 -0.14639 0.83740
 N80 N 0.25582 -0.16737 0.86127
 C81 C 0.27264 -0.16371 0.89613
 C82 C 0.30970 -0.13858 0.89396
 C83 C 0.31410 -0.12856 0.85626
 H84 H 0.26017 -0.17991 0.92094
 H85 H 0.34088 -0.11175 0.84324
 Cu86 Cu 0.20558 -0.20240 0.84484
 Cu87 Cu 0.27216 -0.14607 0.78289
 Cu88 Cu 0.19565 -0.21274 0.75125
 N89 N 0.16707 -0.24542 0.82227
 N90 N 0.16458 -0.24996 0.78567
 C91 C 0.13645 -0.28166 0.77751
 C92 C 0.11878 -0.29745 0.81074
 C93 C 0.13998 -0.27408 0.83873
 H94 H 0.13085 -0.29329 0.74935
 H95 H 0.13560 -0.27705 0.86879
 N96 N 0.21465 -0.16306 0.72191
 N97 N 0.24525 -0.13708 0.73404
 C98 C 0.25279 -0.10611 0.70790
 C99 C 0.22461 -0.11269 0.67829
 C100 C 0.20124 -0.14939 0.68785
 H101 H 0.27656 -0.08050 0.71044
 H102 H 0.17658 -0.16511 0.67117
 H103 H 0.21145 -0.15952 0.79954
 H104 H 0.24837 -0.20692 0.80205
 N105 N 0.72061 -0.14397 0.83843
 N106 N 0.73796 -0.17405 0.86000
 C107 C 0.71606 -0.17680 0.89249
 C108 C 0.68359 -0.14651 0.89140
 C109 C 0.68711 -0.12661 0.85647
 H110 H 0.72227 -0.19997 0.91487
 H111 H 0.66562 -0.10274 0.84442
 Cu112 Cu 0.78506 -0.20912 0.84229
 Cu113 Cu 0.74029 -0.13201 0.78740
 Cu114 Cu 0.81591 -0.20251 0.75221
 N115 N 0.83214 -0.24368 0.82368
 N116 N 0.84284 -0.24224 0.78802
 C117 C 0.87211 -0.27306 0.78151
 C118 C 0.88120 -0.29449 0.81514
 C119 C 0.85483 -0.27500 0.84122
 H120 H 0.88553 -0.27966 0.75420
 H121 H 0.84970 -0.28547 0.86997
 N122 N 0.79318 -0.15295 0.72300
 N123 N 0.76436 -0.12608 0.73644
 C124 C 0.75421 -0.09672 0.70957
 C125 C 0.77784 -0.10554 0.67787
 C126 C 0.80252 -0.14103 0.68739
 H127 H 0.73083 -0.07123 0.71246
 H128 H 0.82477 -0.15750 0.66931
 H129 H 0.75692 -0.19497 0.77911
 H130 H 0.80179 -0.15742 0.79253
 N131 N 0.26351 0.15297 0.83945
 N132 N 0.26198 0.19304 0.85141
 C133 C 0.28844 0.19752 0.88105
 C134 C 0.30640 0.15761 0.88975
 C135 C 0.29005 0.13014 0.86218
 H136 H 0.29533 0.22826 0.89410
 H137 H 0.29800 0.09647 0.85804
 Cu138 Cu 0.22448 0.23591 0.82894
 Cu139 Cu 0.23439 0.13575 0.79287
 Cu140 Cu 0.18125 0.21774 0.74461
 N141 N 0.17525 0.26856 0.81100
 N142 N 0.15781 0.26084 0.77799
 C143 C 0.12648 0.28971 0.77127
 C144 C 0.12478 0.31750 0.80149
 C145 C 0.15568 0.30271 0.82648
 H146 H 0.10752 0.29139 0.74570
 H147 H 0.16451 0.31698 0.85310
 N148 N 0.19643 0.16294 0.72121
 N149 N 0.21624 0.13124 0.73937
 C150 C 0.22507 0.09967 0.71468
 C151 C 0.21042 0.11263 0.67942
 C152 C 0.19189 0.15250 0.68482
 H153 H 0.24227 0.07024 0.72151
 H154 H 0.17784 0.17321 0.66339
 H155 H 0.23884 0.19731 0.77127
 H156 H 0.18574 0.18184 0.79222
 N157 N 0.25858 -0.13163 0.16334
 N158 N 0.24497 -0.16488 0.14362
 C159 C 0.27025 -0.16915 0.11333
 C160 C 0.30112 -0.13651 0.11393
 C161 C 0.29279 -0.11346 0.14620
 H162 H 0.26777 -0.19534 0.09343
 H163 H 0.31209 -0.08749 0.15784
 Cu164 Cu 0.19840 -0.20206 0.16160
 Cu165 Cu 0.23458 -0.11867 0.21240
 Cu166 Cu 0.19674 -0.21248 0.25550
 N167 N 0.16332 -0.24627 0.18613
 N168 N 0.16460 -0.25151 0.22283
 C169 C 0.14089 -0.28648 0.23242
 C170 C 0.12218 -0.30322 0.20015
 C171 C 0.13781 -0.27713 0.17117
 H172 H 0.13828 -0.29918 0.26078
 H173 H 0.13173 -0.28085 0.14141
 N174 N 0.21385 -0.16004 0.28348
 N175 N 0.22649 -0.12371 0.26680
 C176 C 0.23390 -0.09339 0.29296
 C177 C 0.22600 -0.11167 0.32792
 C178 C 0.21270 -0.15371 0.32086
 H179 H 0.24417 -0.06044 0.28698
 H180 H 0.20257 -0.17772 0.34143
 H181 H 0.23913 -0.18346 0.21812
 H182 H 0.18277 -0.16333 0.21934
 N183 N 0.74220 0.12633 0.15051
 N184 N 0.75522 0.16002 0.13052
 C185 C 0.72951 0.16473 0.10022
 C186 C 0.69931 0.13169 0.10089
 C187 C 0.70818 0.10788 0.13318
 H188 H 0.73166 0.19107 0.07996
 H189 H 0.68964 0.08092 0.14440
 Cu190 Cu 0.80294 0.19620 0.14696
 Cu191 Cu 0.76748 0.11296 0.19969
 Cu192 Cu 0.81108 0.20527 0.24041
 N193 N 0.83748 0.24161 0.16948
 N194 N 0.83865 0.24650 0.20611
 C195 C 0.86079 0.28291 0.21412
 C196 C 0.87426 0.30195 0.18067
 C197 C 0.85969 0.27410 0.15293
 H198 H 0.86635 0.29488 0.24222
 H199 H 0.86450 0.27731 0.12293
 N200 N 0.79574 0.15243 0.26940
 N201 N 0.77978 0.11702 0.25389
 C202 C 0.77405 0.08645 0.28079
 C203 C 0.78792 0.10326 0.31465
 C204 C 0.80117 0.14516 0.30651
 H205 H 0.76128 0.05424 0.27603
 H206 H 0.81422 0.16839 0.32616
 H207 H 0.76540 0.17762 0.20497
 H208 H 0.82104 0.15555 0.20416
 C209 C 0.22075 -0.01965 0.53691
 C210 C 0.21764 0.02598 0.53621
 C211 C 0.21391 0.04794 0.50161
 C212 C 0.21460 0.02493 0.46781
 C213 C 0.22084 -0.02044 0.46868
 C214 C 0.22310 -0.04240 0.50323
 H215 H 0.22648 -0.07737 0.50391
 H216 H 0.21025 0.08286 0.50100
 C217 C 0.77978 -0.02392 0.46549
 C218 C 0.77898 0.02155 0.46155
 C219 C 0.77707 0.04732 0.49363
 C220 C 0.77782 0.02865 0.52990
 C221 C 0.77711 -0.01714 0.53365
 C222 C 0.77817 -0.04289 0.50139
 H223 H 0.77843 -0.07792 0.50427
 H224 H 0.77652 0.08230 0.49033
 C225 C 0.46028 0.13358 -0.01977
 C226 C 0.46343 0.12746 0.01976
 C227 C 0.50400 0.12053 0.03618
 C228 C 0.54158 0.12177 0.01468
 C229 C 0.53842 0.12712 -0.02475
 C230 C 0.49785 0.13307 -0.04134
 H231 H 0.49560 0.13814 -0.07152
 H232 H 0.50654 0.11619 0.06642
 C233 C 0.45945 0.86696 0.02986
 C234 C 0.45848 0.86769 -0.00976
 C235 C 0.49696 0.86569 -0.02978
 C236 C 0.53651 0.86382 -0.01096
 C237 C 0.53769 0.86412 0.02874
 C238 C 0.49900 0.86502 0.04881
 H239 H 0.49974 0.86494 0.07930
 H240 H 0.49614 0.86597 -0.06028
 C241 C 0.02536 0.45740 0.17505
 C242 C -0.02011 0.45776 0.17320
 C243 C -0.04167 0.49746 0.17516
 C244 C -0.01907 0.53662 0.17870
 C245 C 0.02625 0.53605 0.18250
 C246 C 0.04797 0.49651 0.17999
 H247 H 0.08272 0.49609 0.18239
 H248 H -0.07650 0.49789 0.17403
 C249 C -0.02670 0.54630 0.82863
 C250 C 0.01859 0.54725 0.82659
 C251 C 0.04115 0.50836 0.82530
 C252 C 0.01940 0.46838 0.82402
 C253 C -0.02598 0.46706 0.82690
 C254 C -0.04845 0.50638 0.82866
 H255 H -0.08329 0.50600 0.82917
 H256 H 0.07586 0.50930 0.82274
 C257 C 0.39140 0.10049 0.03999
 C258 C 0.35472 0.10243 0.06225
 C259 C 0.35123 0.13371 0.09022
 C260 C 0.38530 0.16360 0.09611
 C261 C 0.42245 0.16201 0.07332
 C262 C 0.42544 0.13004 0.04491
 C263 C 0.45473 0.19369 0.07894
 N264 N 0.45038 0.22370 0.10618
 N265 N 0.41587 0.22455 0.12804
 C266 C 0.38319 0.19567 0.12391
 H267 H 0.39321 0.07587 0.01858
 H268 H 0.32881 0.07940 0.05759
 H269 H 0.48302 0.19561 0.06158
 H270 H 0.35584 0.19826 0.14232
 C271 C 0.60356 0.82687 0.05040
 C272 C 0.64185 0.82488 0.07067
 C273 C 0.65679 0.86034 0.09186
 C274 C 0.63367 0.90019 0.08906
 C275 C 0.59397 0.90161 0.06904
 C276 C 0.57894 0.86449 0.04983
 C277 C 0.57087 0.94068 0.06817
 N278 N 0.58716 0.97634 0.08515
 N279 N 0.62554 0.97593 0.10182
 C280 C 0.64971 0.93958 0.10350
 H281 H 0.59233 0.79818 0.03593
 H282 H 0.65821 0.79406 0.07147
 H283 H 0.54028 0.94345 0.05380
 H284 H 0.68184 0.94259 0.11472
 C285 C 0.60673 0.16208 -0.04485
 C286 C 0.64116 0.16709 -0.06935
 C287 C 0.64670 0.13881 -0.09952
 C288 C 0.61788 0.10316 -0.10369
 C289 C 0.58240 0.09846 -0.07899
 C290 C 0.57679 0.12842 -0.04946
 C291 C 0.55369 0.06357 -0.08463
 N292 N 0.56026 0.03545 -0.11299
 N293 N 0.59419 0.03908 -0.13542
 C294 C 0.62353 0.07145 -0.13137
 H295 H 0.60254 0.18574 -0.02294
 H296 H 0.66259 0.19457 -0.06559
 H297 H 0.52641 0.05790 -0.06652
 H298 H 0.65126 0.07141 -0.14942
 C299 C 0.39165 0.83259 -0.03235
 C300 C 0.35497 0.83143 -0.05489
 C301 C 0.34322 0.86750 -0.07685
 C302 C 0.36729 0.90661 -0.07373
 C303 C 0.40504 0.90752 -0.05125
 C304 C 0.41755 0.86984 -0.03105
 C305 C 0.42908 0.94631 -0.04974
 N306 N 0.41529 0.98204 -0.06865
 N307 N 0.37921 0.98154 -0.08897
 C308 C 0.35473 0.94515 -0.09211
 H309 H 0.40092 0.80358 -0.01699
 H310 H 0.33706 0.80126 -0.05681
 H311 H 0.45849 0.94867 -0.03351
 H312 H 0.32534 0.94695 -0.10838
 C313 C 0.07081 0.40200 0.20611
 C314 C 0.09172 0.36227 0.20720
 C315 C 0.09279 0.33574 0.17547
 C316 C 0.07190 0.34967 0.14191
 C317 C 0.05092 0.39040 0.14076
 C318 C 0.04984 0.41631 0.17339
 C319 C 0.03167 0.40394 0.10680
 N320 N 0.03196 0.37759 0.07655
 N321 N 0.05030 0.33875 0.07797
 C322 C 0.07014 0.32384 0.10957
 H323 H 0.07019 0.42141 0.23131
 H324 H 0.10750 0.35227 0.23307
 H325 H 0.01651 0.43524 0.10400
 H326 H 0.08382 0.29179 0.10911
 C327 C 0.06675 0.60445 0.85191
 C328 C 0.08963 0.64333 0.84867
 C329 C 0.08905 0.66783 0.81500
 C330 C 0.06100 0.65403 0.78543
 C331 C 0.04067 0.61283 0.78779
 C332 C 0.04276 0.58852 0.82166
 C333 C 0.01822 0.59747 0.75610
 N334 N 0.01185 0.62397 0.72599
 N335 N 0.02660 0.66459 0.72550
 C336 C 0.05034 0.68068 0.75432
 H337 H 0.06835 0.58619 0.87808
 H338 H 0.10963 0.65280 0.87223
 H339 H 0.00488 0.56500 0.75535
 H340 H 0.05925 0.71456 0.75312
 C341 C -0.06958 0.58505 0.21087
 C342 C -0.09114 0.62399 0.21484
 C343 C -0.08916 0.65670 0.18696
 C344 C -0.06234 0.65001 0.15511
 C345 C -0.04075 0.60983 0.15108
 C346 C -0.04381 0.57764 0.17963
 C347 C -0.01634 0.60321 0.11854
 N348 N -0.01117 0.63581 0.09310
 N349 N -0.02869 0.67452 0.09811
 C350 C -0.05360 0.68288 0.12829
 H351 H -0.07247 0.56058 0.23284
 H352 H -0.11115 0.62744 0.23940
 H353 H -0.00100 0.57255 0.11326
 H354 H -0.06485 0.71558 0.13148
 C355 C -0.04664 0.39949 0.79370
 C356 C -0.07107 0.36191 0.78952
 C357 C -0.10328 0.34997 0.81549
 C358 C -0.11150 0.37920 0.84557
 C359 C -0.08304 0.41473 0.85205
 C360 C -0.05114 0.42570 0.82521
 C361 C -0.08833 0.43913 0.88489
 N362 N -0.12305 0.43217 0.90697
 N363 N -0.15283 0.40273 0.89821
 C364 C -0.14868 0.37671 0.86799
 H365 H -0.02387 0.40806 0.77192
 H366 H -0.06368 0.34199 0.76566
 H367 H -0.06552 0.46404 0.89292
 H368 H -0.17570 0.35638 0.86076
 C369 C 0.24198 0.07320 0.41715
 C370 C 0.23955 0.09102 0.38105
 C371 C 0.20295 0.08479 0.35847
 C372 C 0.16791 0.06009 0.37281
 C373 C 0.17023 0.04252 0.40979
 C374 C 0.20806 0.04824 0.43158
 C375 C 0.13457 0.01926 0.42375
 N376 N 0.09971 0.01257 0.40146
 N377 N 0.09813 0.02761 0.36625
 C378 C 0.13101 0.05091 0.35112
 H379 H 0.27108 0.07783 0.43354
 H380 H 0.26659 0.10984 0.37061
 H381 H 0.13418 0.00622 0.45211
 H382 H 0.12807 0.06139 0.32217
 C383 C 0.74664 0.05427 0.58997
 C384 C 0.74626 0.08103 0.62123
 C385 C 0.77694 0.11425 0.62571
 C386 C 0.80767 0.12120 0.59675
 C387 C 0.81075 0.09106 0.56701
 C388 C 0.77925 0.05780 0.56311
 C389 C 0.84549 0.09540 0.54204
 N390 N 0.87212 0.13028 0.54414
 N391 N 0.86647 0.16094 0.56962
 C392 C 0.83497 0.15782 0.59570
 H393 H 0.72134 0.03026 0.58700
 H394 H 0.72191 0.07507 0.64229
 H395 H 0.85180 0.07148 0.52089
 H396 H 0.83090 0.18466 0.61451
 C397 C 0.25850 -0.05982 0.58756
 C398 C 0.25952 -0.08097 0.62231
 C399 C 0.22176 -0.08754 0.64291
 C400 C 0.18223 -0.07156 0.62859
 C401 C 0.18122 -0.05037 0.59308
 C402 C 0.21980 -0.04416 0.57280
 C403 C 0.14142 -0.03598 0.57896
 N404 N 0.10540 -0.04117 0.59983
 N405 N 0.10654 -0.05982 0.63376
 C406 C 0.14364 -0.07505 0.64890
 H407 H 0.28818 -0.05526 0.57219
 H408 H 0.28993 -0.09303 0.63290
 H409 H 0.13863 -0.02054 0.55160
 H410 H 0.14258 -0.08914 0.67681
 C411 C 0.74685 -0.06010 0.41070
 C412 C 0.74948 -0.08247 0.37705
 C413 C 0.78897 -0.09774 0.36417
 C414 C 0.82674 -0.09018 0.38576
 C415 C 0.82396 -0.06743 0.42010
 C416 C 0.78373 -0.05189 0.43220
 C417 C 0.86188 -0.06005 0.44084
 N418 N 0.90007 -0.07399 0.42762
 N419 N 0.90286 -0.09462 0.39505
 C420 C 0.86762 -0.10303 0.37361
 H421 H 0.71593 -0.04825 0.41968
 H422 H 0.72037 -0.08781 0.36081
 H423 H 0.86156 -0.04324 0.46736
 H424 H 0.87216 -0.11912 0.34715
 C425 C 0.59326 0.82309 -0.04331
 C426 C 0.62907 0.82073 -0.06646
 C427 C 0.64852 0.85846 -0.08104
 C428 C 0.63241 0.89949 -0.07064
 C429 C 0.59554 0.90175 -0.04750
 C430 C 0.57611 0.86322 -0.03373
 C431 C 0.57907 0.94274 -0.03906
 N432 N 0.59909 0.97893 -0.05218
 N433 N 0.63468 0.97699 -0.07263
 C434 C 0.65220 0.93859 -0.08207
 H435 H 0.57824 0.79332 -0.03339
 H436 H 0.64073 0.78904 -0.07410
 H437 H 0.55063 0.94639 -0.02207
 H438 H 0.68166 0.93918 -0.09796
 C439 C 0.40735 0.10985 -0.06786
 C440 C 0.36994 0.11480 -0.08915
 C441 C 0.34116 0.14855 -0.08204
 C442 C 0.34969 0.17598 -0.05089
 C443 C 0.39019 0.17417 -0.03244
 C444 C 0.41859 0.13973 -0.03997
 C445 C 0.40098 0.20748 -0.00741
 N446 N 0.37081 0.23641 0.00292
 N447 N 0.33092 0.23460 -0.01075
 C448 C 0.31926 0.20519 -0.03706
 H449 H 0.42857 0.08322 -0.07411
 H450 H 0.36444 0.09272 -0.11214
 H451 H 0.43300 0.21053 0.00417
 H452 H 0.28611 0.20431 -0.04622
 C453 C 0.40128 0.82912 0.06408
 C454 C 0.36237 0.82824 0.08312
 C455 C 0.34030 0.86667 0.09057
 C456 C 0.35767 0.90684 0.07766
 C457 C 0.39775 0.90768 0.05882
 C458 C 0.41930 0.86840 0.05182
 C459 C 0.41499 0.94799 0.04754
 N460 N 0.39264 0.98481 0.05346
 N461 N 0.35432 0.98396 0.06991
 C462 C 0.33602 0.94632 0.08208
 H463 H 0.41745 0.79885 0.05868
 H464 H 0.34988 0.79724 0.09284
 H465 H 0.44605 0.95054 0.03420
 H466 H 0.30448 0.94768 0.09451
 C467 C 0.59375 0.15956 0.05549
 C468 C 0.63199 0.16238 0.07582
 C469 C 0.66085 0.12782 0.07666
 C470 C 0.65159 0.09019 0.05559
 C471 C 0.61258 0.08732 0.03481
 C472 C 0.58345 0.12235 0.03493
 C473 C 0.60397 0.04921 0.01489
 N474 N 0.63329 0.01690 0.01483
 N475 N 0.67036 0.01998 0.03354
 C476 C 0.68045 0.05545 0.05404
 H477 H 0.57184 0.18669 0.05581
 H478 H 0.63866 0.19143 0.09176
 H479 H 0.57429 0.04485 -0.00064
 H480 H 0.71102 0.05627 0.06865
 C481 C -0.07338 0.59797 0.79469
 C482 C -0.09322 0.63793 0.79050
 C483 C -0.09403 0.66774 0.82013
 C484 C -0.07180 0.65718 0.85423
 C485 C -0.05157 0.61622 0.85826
 C486 C -0.05188 0.58692 0.82796
 C487 C -0.03106 0.60596 0.89251
 N488 N -0.02862 0.63584 0.92008
 N489 N -0.04516 0.67523 0.91559
 C490 C -0.06619 0.68705 0.88362
 H491 H -0.07394 0.57576 0.77129
 H492 H -0.10981 0.64446 0.76421
 H493 H -0.01662 0.57461 0.89746
 H494 H -0.07689 0.72014 0.88121
 C495 C -0.04197 0.38727 0.20158
 C496 C -0.06776 0.35030 0.20350
 C497 C -0.09978 0.34240 0.17645
 C498 C -0.10572 0.37305 0.14669
 C499 C -0.07759 0.40944 0.14358
 C500 C -0.04613 0.41706 0.17183
 C501 C -0.08218 0.43740 0.11230
 N502 N -0.11465 0.43103 0.08736
 N503 N -0.14284 0.39872 0.09166
 C504 C -0.13976 0.36984 0.12055
 H505 H -0.01889 0.39296 0.22394
 H506 H -0.06266 0.32771 0.22660
 H507 H -0.06035 0.46428 0.10741
 H508 H -0.16470 0.34558 0.12315
 C509 C 0.04958 0.39770 0.84461
 C510 C 0.07563 0.36179 0.83919
 C511 C 0.09805 0.35658 0.80546
 C512 C 0.09448 0.38864 0.77668
 C513 C 0.06694 0.42443 0.78179
 C514 C 0.04510 0.42927 0.81637
 C515 C 0.06206 0.45442 0.75193
 N516 N 0.08519 0.45002 0.72007
 N517 N 0.11283 0.41772 0.71605
 C518 C 0.11847 0.38712 0.74325
 H519 H 0.03308 0.40112 0.87114
 H520 H 0.07823 0.33774 0.86150
 H521 H 0.04001 0.48125 0.75350
 H522 H 0.14222 0.36253 0.73854
 C523 C 0.07973 0.59113 0.16159
 C524 C 0.10165 0.63042 0.16535
 C525 C 0.09530 0.65685 0.19672
 C526 C 0.06552 0.64307 0.22468
 C527 C 0.04569 0.60162 0.22204
 C528 C 0.05140 0.57643 0.18942
 C529 C 0.02060 0.58666 0.25234
 N530 N 0.01233 0.61327 0.28143
 N531 N 0.02777 0.65361 0.28233
 C532 C 0.05374 0.66952 0.25488
 H533 H 0.08465 0.57214 0.13656
 H534 H 0.12415 0.63995 0.14362
 H535 H 0.00712 0.55423 0.25291
 H536 H 0.06391 0.70295 0.25664
 C537 C 0.81277 -0.04086 0.59287
 C538 C 0.81300 -0.06280 0.62738
 C539 C 0.77573 -0.08323 0.64096
 C540 C 0.73756 -0.08212 0.61902
 C541 C 0.73742 -0.06004 0.58383
 C542 C 0.77539 -0.03930 0.57082
 C543 C 0.69895 -0.05913 0.56284
 N544 N 0.66339 -0.07976 0.57605
 N545 N 0.66373 -0.10122 0.60874
 C546 C 0.69953 -0.10322 0.63060
 H547 H 0.84204 -0.02529 0.58311
 H548 H 0.84244 -0.06356 0.64380
 H549 H 0.69675 -0.04210 0.53616
 H550 H 0.69791 -0.12158 0.65660
 C551 C 0.19116 -0.07238 0.42257
 C552 C 0.19252 -0.09429 0.38860
 C553 C 0.22804 -0.08999 0.36476
 C554 C 0.26393 -0.06469 0.37641
 C555 C 0.26242 -0.04232 0.41099
 C556 C 0.22523 -0.04544 0.43361
 C557 C 0.29870 -0.01813 0.42224
 N558 N 0.33401 -0.01647 0.40013
 N559 N 0.33564 -0.03774 0.36781
 C560 C 0.30201 -0.06196 0.35532
 H561 H 0.16280 -0.07552 0.43994
 H562 H 0.16501 -0.11382 0.38035
 H563 H 0.29948 -0.00088 0.44854
 H564 H 0.30589 -0.07948 0.32947
 C565 C 0.74622 0.04703 0.40163
 C566 C 0.74867 0.06578 0.36586
 C567 C 0.78787 0.08147 0.35187
 C568 C 0.82568 0.07695 0.37399
 C569 C 0.82319 0.05761 0.41030
 C570 C 0.78304 0.04280 0.42413
 C571 C 0.86125 0.05323 0.43146
 N572 N 0.89923 0.06699 0.41695
 N573 N 0.90169 0.08469 0.38271
 C574 C 0.86633 0.09002 0.36071
 H575 H 0.71537 0.03567 0.41187
 H576 H 0.71954 0.06887 0.34922
 H577 H 0.86124 0.03870 0.45924
 H578 H 0.87053 0.10384 0.33292
 C579 C 0.17966 0.06700 0.58524
 C580 C 0.17795 0.08667 0.62025
 C581 C 0.21486 0.09069 0.64283
 C582 C 0.25482 0.07603 0.62894
 C583 C 0.25645 0.05592 0.59327
 C584 C 0.21835 0.05074 0.57172
 C585 C 0.29651 0.04228 0.57988
 N586 N 0.33247 0.04851 0.60088
 N587 N 0.33111 0.06783 0.63414
 C588 C 0.29368 0.08203 0.64876
 H589 H 0.15034 0.06346 0.56893
 H590 H 0.14729 0.09835 0.63008
 H591 H 0.29962 0.02711 0.55277
 H592 H 0.29503 0.09849 0.67534
   
