data_POSCAR
  _audit_creation_date              2014-09-24
  _audit_creation_method            'ToBaCCo'
  _symmetry_space_group_name_H-M    'P1'
  _symmetry_Int_Tables_number       1
  _symmetry_cell_setting            triclinic
  loop_
  _symmetry_equiv_pos_as_xyz
 x,y,z
_cell_length_a 26.0022
_cell_length_b 26.1590
_cell_length_c 24.1777
_cell_angle_alpha 91.274900
_cell_angle_beta 89.445800
_cell_angle_gamma 91.394500
loop_
  _atom_site_label
  _atom_site_type_symbol
  _atom_site_fract_x
  _atom_site_fract_y
  _atom_site_fract_z
C1 C 0.19869 0.26522 0.29879
 C2 C 0.23718 0.30325 0.27185
 C3 C 0.26898 0.28054 0.23392
 C4 C 0.25869 0.22299 0.22543
 C5 C 0.17013 0.23926 0.25030
 C6 C 0.20142 0.21742 0.21189
 C7 C 0.23240 0.22338 0.32195
 C8 C 0.26372 0.20118 0.28339
 H9 H 0.24303 0.34246 0.28603
 H10 H 0.28418 0.20503 0.19378
 H11 H 0.12867 0.23934 0.24626
 H12 H 0.23187 0.21304 0.36507
 C13 C 0.72904 0.79144 0.29634
 C14 C 0.76780 0.81670 0.25636
 C15 C 0.78848 0.78367 0.21863
 C16 C 0.76837 0.72851 0.22396
 C17 C 0.68868 0.76467 0.25860
 C18 C 0.70978 0.73218 0.22034
 C19 C 0.75834 0.74771 0.32193
 C20 C 0.77896 0.71476 0.28403
 H21 H 0.77787 0.85711 0.25818
 H22 H 0.78497 0.70147 0.19293
 H23 H 0.64831 0.77371 0.25864
 H24 H 0.76223 0.74351 0.36613
 C25 C 0.72180 0.28990 0.80574
 C26 C 0.75790 0.31930 0.77176
 C27 C 0.78116 0.29010 0.72812
 C28 C 0.76318 0.23707 0.72574
 C29 C 0.68214 0.26655 0.76473
 C30 C 0.70434 0.23936 0.72244
 C31 C 0.75203 0.24384 0.82518
 C32 C 0.77374 0.21611 0.78316
 H33 H 0.76746 0.35929 0.77989
 H34 H 0.78023 0.21391 0.69144
 H35 H 0.64141 0.27405 0.76622
 H36 H 0.75574 0.23438 0.86831
 C37 C 0.23687 0.77741 0.79137
 C38 C 0.27759 0.80668 0.75749
 C39 C 0.30324 0.77701 0.72021
 C40 C 0.28561 0.72077 0.71956
 C41 C 0.20141 0.75129 0.74819
 C42 C 0.22730 0.72202 0.71029
 C43 C 0.26572 0.73345 0.81697
 C44 C 0.29128 0.70378 0.77946
 H45 H 0.28595 0.84719 0.76348
 H46 H 0.30642 0.69664 0.68873
 H47 H 0.16035 0.75678 0.74642
 H48 H 0.26532 0.72645 0.86094
 C49 C 0.05455 0.08607 -0.00805
 H50 H 0.05123 0.08602 -0.05262
 C51 C 0.08854 0.12042 0.01831
 H52 H 0.11093 0.14738 -0.00595
 C53 C 0.03196 0.04851 0.07751
 H54 H 0.01125 0.01911 0.09996
 C55 C 0.06480 0.08302 0.10575
 H56 H 0.06901 0.08011 0.15004
 N57 N 0.02862 0.04989 0.02146
 C58 C 0.03397 -0.07797 -0.09660
 H59 H -0.00592 -0.08583 -0.10668
 C60 C 0.07226 -0.10913 -0.11922
 H61 H 0.06151 -0.14031 -0.14722
 C62 C 0.09607 -0.03069 -0.04427
 H63 H 0.10553 -0.00166 -0.01345
 C64 C 0.13518 -0.06080 -0.06554
 H65 H 0.17420 -0.05342 -0.05177
 Zn66 Zn -0.00516 -0.00237 -0.02037
 N67 N 0.04642 -0.03965 -0.05962
 C68 C -0.04730 0.02265 -0.12494
 N69 N -0.05048 0.02990 -0.06913
 C70 C -0.08381 0.06383 -0.04629
 C71 C -0.11618 0.09144 -0.07965
 C72 C -0.07902 0.04941 -0.15988
 C73 C -0.02430 -0.09731 0.02864
 C74 C -0.05026 -0.13392 0.05996
 C75 C -0.11031 -0.06975 0.08958
 C76 C -0.08325 -0.03421 0.05720
 N77 N -0.04153 -0.04867 0.02671
 H78 H -0.01945 -0.00293 -0.14276
 H79 H -0.08421 0.07078 -0.00211
 H80 H -0.14211 0.11814 -0.06014
 H81 H -0.07554 0.04338 -0.20418
 H82 H 0.00973 -0.10816 0.00591
 H83 H -0.03612 -0.17250 0.06021
 H84 H -0.14403 -0.05775 0.11245
 H85 H -0.09595 0.00469 0.05627
 C86 C 0.12357 -0.10103 -0.10289
 C87 C 0.09473 0.11838 0.07567
 C88 C -0.09411 -0.12058 0.09056
 C89 C -0.11383 0.08466 -0.13741
 C90 C 0.06585 0.58629 0.50464
 H91 H 0.06172 0.58254 0.46024
 C92 C 0.10283 0.62007 0.52698
 H93 H 0.12731 0.64232 0.49963
 C94 C 0.03995 0.56069 0.59434
 H95 H 0.01579 0.53686 0.62031
 C96 C 0.07589 0.59471 0.61851
 H97 H 0.07956 0.59636 0.66306
 N98 N 0.03657 0.55626 0.53831
 C99 C 0.00518 0.41362 0.44947
 H100 H -0.03571 0.41010 0.45769
 C101 C 0.03090 0.37314 0.42413
 H102 H 0.00960 0.33853 0.41255
 C103 C 0.08299 0.46241 0.45609
 H104 H 0.10351 0.49660 0.46991
 C105 C 0.11008 0.42315 0.42960
 H106 H 0.15117 0.42755 0.42310
 Zn107 Zn -0.00764 0.50667 0.50476
 N108 N 0.03137 0.45705 0.46528
 C109 C -0.05191 0.52436 0.40121
 N110 N -0.05157 0.53954 0.45535
 C111 C -0.08038 0.57921 0.47389
 C112 C -0.11143 0.60513 0.43736
 C113 C -0.08231 0.54906 0.36342
 C114 C -0.01926 0.43425 0.58570
 C115 C -0.04530 0.39804 0.61760
 C116 C -0.12500 0.43958 0.59860
 C117 C -0.09758 0.47425 0.56552
 N118 N -0.04574 0.47032 0.55896
 H119 H -0.02813 0.49340 0.38693
 H120 H -0.07887 0.59100 0.51703
 H121 H -0.13390 0.63653 0.45318
 H122 H -0.08170 0.53642 0.32049
 H123 H 0.02183 0.43162 0.57926
 H124 H -0.02428 0.36756 0.63591
 H125 H -0.16649 0.44133 0.60165
 H126 H -0.11805 0.50256 0.54318
 C127 C 0.08395 0.37764 0.41398
 C128 C 0.10869 0.62396 0.58452
 C129 C -0.09879 0.40001 0.62338
 C130 C -0.11247 0.59021 0.38109
 C131 C 0.55118 0.10500 0.50906
 H132 H 0.54660 0.10438 0.46462
 C133 C 0.58095 0.14355 0.53454
 H134 H 0.59909 0.17275 0.50943
 C135 C 0.53485 0.06617 0.59534
 H136 H 0.51758 0.03524 0.61854
 C137 C 0.56425 0.10433 0.62268
 H138 H 0.56966 0.10211 0.66685
 N139 N 0.53015 0.06654 0.53934
 C140 C 0.53520 -0.06867 0.43128
 H141 H 0.49493 -0.07976 0.42849
 C142 C 0.57247 -0.09922 0.40598
 H143 H 0.56050 -0.13372 0.38368
 C144 C 0.59970 -0.01150 0.46626
 H145 H 0.61046 0.02196 0.49079
 C146 C 0.63809 -0.04105 0.44210
 H147 H 0.67797 -0.02938 0.44761
 Zn148 Zn 0.49814 0.01210 0.49899
 N149 N 0.54931 -0.02554 0.46042
 C150 C 0.45661 0.03045 0.39363
 N151 N 0.45159 0.04037 0.44882
 C152 C 0.41551 0.07295 0.46875
 C153 C 0.38223 0.09656 0.43268
 C154 C 0.42421 0.05313 0.35619
 C155 C 0.49477 -0.06826 0.57180
 C156 C 0.47281 -0.10788 0.60238
 C157 C 0.38883 -0.07479 0.58415
 C158 C 0.41232 -0.03651 0.55263
 N159 N 0.46443 -0.03408 0.54695
 H160 H 0.48630 0.00563 0.37826
 H161 H 0.41308 0.08115 0.51274
 H162 H 0.35412 0.12242 0.44970
 H163 H 0.42918 0.04487 0.31242
 H164 H 0.53607 -0.06569 0.56626
 H165 H 0.49726 -0.13567 0.62076
 H166 H 0.34730 -0.07700 0.58751
 H167 H 0.38880 -0.00962 0.53182
 C168 C 0.62477 -0.08559 0.41160
 C169 C 0.58888 0.14290 0.59184
 C170 C 0.41928 -0.11152 0.60853
 C171 C 0.38652 0.08691 0.37539
 C172 C 0.54827 0.58911 0.02055
 H173 H 0.54490 0.58401 -0.02381
 C174 C 0.58093 0.62729 0.04222
 H175 H 0.60238 0.65172 0.01424
 C176 C 0.52627 0.56156 0.11064
 H177 H 0.50561 0.53513 0.13700
 C178 C 0.55859 0.59960 0.13423
 H179 H 0.56282 0.60174 0.17869
 N180 N 0.52311 0.55612 0.05463
 C181 C 0.52494 0.41583 -0.04643
 H182 H 0.48453 0.40695 -0.05271
 C183 C 0.56226 0.38546 -0.07221
 H184 H 0.55027 0.35310 -0.09800
 C185 C 0.58969 0.46832 -0.00447
 H186 H 0.60058 0.50014 0.02244
 C187 C 0.62801 0.43871 -0.02861
 H188 H 0.66792 0.44868 -0.02051
 Zn189 Zn 0.48873 0.50041 0.01832
 N190 N 0.53921 0.45723 -0.01448
 C191 C 0.45639 0.51753 -0.09141
 N192 N 0.44711 0.52823 -0.03696
 C193 C 0.41117 0.56260 -0.02103
 C194 C 0.38276 0.58764 -0.06055
 C195 C 0.42889 0.54159 -0.13223
 C196 C 0.47646 0.43353 0.10520
 C197 C 0.45117 0.39968 0.14061
 C198 C 0.37008 0.42424 0.10257
 C199 C 0.39706 0.45725 0.06719
 N200 N 0.44935 0.46103 0.06897
 H201 H 0.48623 0.49155 -0.10358
 H202 H 0.40531 0.57131 0.02249
 H203 H 0.35457 0.61485 -0.04664
 H204 H 0.43747 0.53305 -0.17530
 H205 H 0.51801 0.43684 0.10536
 H206 H 0.47348 0.37702 0.16812
 H207 H 0.32868 0.42042 0.09947
 H208 H 0.37622 0.47863 0.03739
 C209 C 0.61465 0.39717 -0.06367
 C210 C 0.58762 0.63202 0.09962
 C211 C 0.39740 0.39428 0.13916
 C212 C 0.39192 0.57766 -0.11716
 N213 N 0.20869 -0.13642 -0.09587
 N214 N 0.23920 -0.16871 -0.12213
 C215 C 0.21268 -0.18838 -0.16556
 C216 C 0.16467 -0.16667 -0.16531
 N217 N 0.16382 -0.13441 -0.12103
 H218 H 0.13451 -0.17198 -0.19554
 N219 N 0.09609 0.28690 0.39613
 N220 N 0.12614 0.25622 0.36691
 C221 C 0.16140 0.28612 0.34103
 C222 C 0.15201 0.33651 0.35560
 N223 N 0.11085 0.33521 0.38992
 H224 H 0.17123 0.37072 0.34066
 N225 N 0.71325 -0.11351 0.40415
 N226 N 0.74167 -0.14573 0.37496
 C227 C 0.70999 -0.17083 0.33925
 C228 C 0.66087 -0.15281 0.34759
 N229 N 0.66463 -0.11700 0.38847
 H230 H 0.62637 -0.16334 0.32506
 N231 N 0.70278 0.36854 -0.07234
 N232 N 0.73198 0.34075 -0.10579
 C233 C 0.70137 0.32129 -0.14615
 C234 C 0.65197 0.33813 -0.13609
 N235 N 0.65459 0.36759 -0.08960
 H236 H 0.61816 0.33152 -0.16118
 N237 N -0.14663 0.10715 -0.22784
 N238 N -0.17616 0.14140 -0.25044
 C239 C -0.19407 0.17129 -0.20881
 C240 C -0.17454 0.15423 -0.15985
 N241 N -0.14499 0.11408 -0.17343
 H242 H -0.17999 0.17073 -0.11890
 N243 N -0.14529 0.60321 0.28834
 N244 N -0.17376 0.63536 0.26117
 C245 C -0.19003 0.67062 0.29837
 C246 C -0.17053 0.65902 0.34943
 N247 N -0.14266 0.61661 0.34144
 H248 H -0.17513 0.68027 0.38793
 N249 N 0.35888 0.10548 0.28198
 N250 N 0.32688 0.13519 0.25610
 C251 C 0.30100 0.16152 0.29545
 C252 C 0.31822 0.14699 0.34648
 N253 N 0.35455 0.11194 0.33632
 H254 H 0.30649 0.16182 0.38661
 N255 N 0.37028 0.59462 -0.21310
 N256 N 0.34420 0.62752 -0.24206
 C257 C 0.32214 0.65985 -0.20530
 C258 C 0.33550 0.64567 -0.15282
 N259 N 0.36563 0.60475 -0.15935
 H260 H 0.32560 0.66449 -0.11406
 N261 N -0.11718 -0.20896 0.11116
 N262 N -0.14790 -0.23562 0.14425
 C263 C -0.17330 -0.20160 0.17621
 C264 C -0.15724 -0.15296 0.16153
 N265 N -0.12217 -0.15925 0.12067
 H266 H -0.16970 -0.11684 0.17896
 N267 N -0.11994 0.30982 0.63158
 N268 N -0.15258 0.27927 0.65810
 C269 C -0.18077 0.30916 0.69231
 C270 C -0.16450 0.35948 0.68558
 N271 N -0.12651 0.35796 0.64739
 H272 H -0.17888 0.39369 0.70571
 N273 N 0.41386 -0.20082 0.63524
 N274 N 0.38334 -0.23195 0.66390
 C275 C 0.34506 -0.20331 0.68479
 C276 C 0.35280 -0.15371 0.66788
 N277 N 0.39608 -0.15379 0.63703
 H278 H 0.32935 -0.12089 0.67698
 N279 N 0.39444 0.31208 0.18386
 N280 N 0.36133 0.28073 0.20857
 C281 C 0.31617 0.30479 0.21179
 C282 C 0.32243 0.35207 0.18791
 N283 N 0.37200 0.35502 0.17082
 H284 H 0.29359 0.38055 0.18212
 N285 N 0.17899 0.16114 0.07855
 N286 N 0.20903 0.18680 0.11395
 C287 C 0.18206 0.19133 0.16159
 C288 C 0.13460 0.16748 0.15449
 N289 N 0.13423 0.14912 0.10211
 H290 H 0.10372 0.16338 0.18453
 N291 N 0.19499 0.66179 0.58149
 N292 N 0.22787 0.68713 0.61402
 C293 C 0.20311 0.69620 0.66231
 C294 C 0.15392 0.67550 0.65857
 N295 N 0.15045 0.65422 0.60743
 H296 H 0.12422 0.67493 0.69024
 N297 N 0.66377 0.20001 0.58808
 N298 N 0.69558 0.22568 0.62146
 C299 C 0.67686 0.22033 0.67315
 C300 C 0.63254 0.19024 0.67064
 N301 N 0.62578 0.17815 0.61657
 H302 H 0.60914 0.17680 0.70484
 N303 N 0.66819 0.68006 0.09108
 N304 N 0.70178 0.70624 0.12186
 C305 C 0.68171 0.70903 0.17333
 C306 C 0.63457 0.68346 0.17336
 N307 N 0.62763 0.66572 0.12101
 H308 H 0.60909 0.67688 0.20826
   
