data_POSCAR
  _audit_creation_date              2014-09-24
  _audit_creation_method            'ToBaCCo'
  _symmetry_space_group_name_H-M    'P1'
  _symmetry_Int_Tables_number       1
  _symmetry_cell_setting            triclinic
  loop_
  _symmetry_equiv_pos_as_xyz
 x,y,z
_cell_length_a 17.9618
_cell_length_b 17.9618
_cell_length_c 17.9618
_cell_angle_alpha 90.002400
_cell_angle_beta 89.997500
_cell_angle_gamma 89.997500
loop_
  _atom_site_label
  _atom_site_type_symbol
  _atom_site_fract_x
  _atom_site_fract_y
  _atom_site_fract_z
O1 O 0.60161 0.50009 0.06120
 O2 O 0.39619 0.50010 0.06120
 O3 O 0.49895 0.39770 0.06096
 O4 O 0.49894 0.60240 0.06095
 O5 O 0.49894 0.60236 -0.06219
 O6 O 0.49895 0.39773 -0.06219
 O7 O 0.39616 0.50009 -0.06190
 O8 O 0.60164 0.50009 -0.06191
 Cu9 Cu 0.49890 0.50006 0.07350
 Cu10 Cu 0.49891 0.50005 -0.07447
 C11 C 0.63632 0.50014 -0.00034
 C12 C 0.36146 0.50014 -0.00034
 C13 C 0.49899 0.36319 -0.00063
 C14 C 0.49899 0.63690 -0.00064
 O15 O 0.06190 0.60383 0.50009
 O16 O 0.06191 0.39835 0.50009
 O17 O 0.06219 0.50105 0.39773
 O18 O 0.06219 0.50106 0.60236
 O19 O -0.06095 0.50106 0.60240
 O20 O -0.06095 0.50105 0.39770
 O21 O -0.06120 0.39839 0.50009
 O22 O -0.06119 0.60381 0.50010
 Cu23 Cu 0.07447 0.50109 0.50005
 Cu24 Cu -0.07350 0.50110 0.50006
 C25 C 0.00034 0.63854 0.50014
 C26 C 0.00034 0.36368 0.50014
 C27 C 0.00063 0.50101 0.36319
 C28 C 0.00064 0.50101 0.63690
 O29 O 0.49990 0.06120 0.60381
 O30 O 0.49991 0.06120 0.39839
 O31 O 0.39760 0.06095 0.50106
 O32 O 0.60230 0.06096 0.50105
 O33 O 0.60227 -0.06219 0.50105
 O34 O 0.39764 -0.06219 0.50106
 O35 O 0.49991 -0.06191 0.39836
 O36 O 0.49991 -0.06190 0.60383
 Cu37 Cu 0.49994 0.07350 0.50110
 Cu38 Cu 0.49995 -0.07447 0.50109
 C39 C 0.49986 -0.00034 0.63854
 C40 C 0.49986 -0.00034 0.36368
 C41 C 0.36310 -0.00064 0.50101
 C42 C 0.63681 -0.00063 0.50101
 O43 O 0.43802 -0.00002 -0.10377
 O44 O 0.43801 -0.00001 0.10171
 O45 O 0.43774 0.10235 -0.00098
 O46 O 0.43773 -0.10229 -0.00099
 O47 O 0.56088 -0.10233 -0.00099
 O48 O 0.56088 0.10238 -0.00099
 O49 O 0.56113 -0.00002 0.10167
 O50 O 0.56112 -0.00002 -0.10375
 Cu51 Cu 0.42545 0.00003 -0.00103
 Cu52 Cu 0.57343 0.00002 -0.00103
 C53 C 0.49959 -0.00006 -0.13846
 C54 C 0.49958 -0.00006 0.13639
 C55 C 0.49929 0.13688 -0.00094
 C56 C 0.49929 -0.13682 -0.00094
 O57 O -0.10171 0.56199 0.99999
 O58 O 0.10377 0.56198 0.99998
 O59 O 0.00099 0.56227 0.89771
 O60 O 0.00098 0.56226 1.10235
 O61 O 0.00099 0.43912 1.10238
 O62 O 0.00099 0.43912 0.89767
 O63 O 0.10375 0.43888 0.99998
 O64 O -0.10167 0.43888 0.99998
 Cu65 Cu 0.00103 0.57455 1.00003
 Cu66 Cu 0.00103 0.42657 1.00002
 C67 C -0.13639 0.50042 0.99994
 C68 C 0.13846 0.50041 0.99994
 C69 C 0.00094 0.50071 0.86318
 C70 C 0.00094 0.50071 1.13688
 O71 O 0.00002 -0.10375 0.43888
 O72 O 0.00002 0.10167 0.43888
 O73 O 0.10233 -0.00099 0.43912
 O74 O -0.10238 -0.00099 0.43912
 O75 O -0.10235 -0.00098 0.56226
 O76 O 0.10229 -0.00099 0.56227
 O77 O 0.00001 0.10171 0.56199
 O78 O 0.00002 -0.10377 0.56198
 Cu79 Cu -0.00002 -0.00103 0.42657
 Cu80 Cu -0.00003 -0.00103 0.57455
 C81 C 0.00007 -0.13846 0.50041
 C82 C 0.00006 0.13639 0.50042
 C83 C 0.13682 -0.00094 0.50071
 C84 C -0.13688 -0.00094 0.50071
 C85 C -0.28364 0.50026 0.99971
 C86 C -0.21642 0.50036 0.99981
 C87 C 0.28574 0.50026 0.99971
 C88 C 0.21851 0.50036 0.99981
 C89 C 0.00029 -0.28574 0.50026
 C90 C 0.00019 -0.21851 0.50036
 C91 C 0.00029 0.28364 0.50026
 C92 C 0.00019 0.21642 0.50036
 C93 C 0.49974 -0.00029 -0.28574
 C94 C 0.49964 -0.00019 -0.21851
 C95 C 0.49974 -0.00029 0.28364
 C96 C 0.49964 -0.00019 0.21642
 C97 C 0.49912 -0.28346 -0.00070
 C98 C 0.49923 -0.21647 -0.00081
 C99 C 0.49913 0.28353 -0.00069
 C100 C 0.49924 0.21654 -0.00080
 C101 C -0.28353 -0.00069 0.50087
 C102 C -0.21654 -0.00080 0.50077
 C103 C 0.28346 -0.00070 0.50088
 C104 C 0.21647 -0.00081 0.50077
 C105 C 0.00069 0.50087 1.28353
 C106 C 0.00080 0.50077 1.21654
 C107 C 0.00070 0.50088 0.71654
 C108 C 0.00081 0.50077 0.78353
   
