data_POSCAR
  _audit_creation_date              2014-09-24
  _audit_creation_method            'ToBaCCo'
  _symmetry_space_group_name_H-M    'P1'
  _symmetry_Int_Tables_number       1
  _symmetry_cell_setting            triclinic
  loop_
  _symmetry_equiv_pos_as_xyz
 x,y,z
_cell_length_a 29.8163
_cell_length_b 29.8168
_cell_length_c 29.8658
_cell_angle_alpha 78.992600
_cell_angle_beta 101.189400
_cell_angle_gamma 102.365200
loop_
  _atom_site_label
  _atom_site_type_symbol
  _atom_site_fract_x
  _atom_site_fract_y
  _atom_site_fract_z
C1 C 0.58884 0.58927 -0.00039
 C2 C 0.59727 0.54409 0.00276
 C3 C 0.55956 0.50657 0.00499
 C4 C 0.51342 0.51380 -0.00008
 C5 C 0.50615 0.55994 -0.00532
 C6 C 0.54366 0.59769 -0.00339
 C7 C 0.47310 0.47347 0.00011
 C8 C 0.43033 0.47741 0.01128
 C9 C 0.39206 0.44053 0.00992
 C10 C 0.39755 0.39790 0.00042
 C11 C 0.44005 0.39230 -0.00923
 C12 C 0.47691 0.43056 -0.01090
 H13 H 0.61780 0.61826 -0.00050
 H14 H 0.56654 0.47168 0.01076
 H15 H 0.47124 0.56687 -0.01098
 H16 H 0.42639 0.50893 0.02163
 H17 H 0.36859 0.36892 0.00054
 H18 H 0.50830 0.42650 -0.02136
 C19 C -0.00239 0.60044 0.40852
 C20 C 0.00106 0.61047 0.45337
 C21 C 0.00341 0.57392 0.49097
 C22 C -0.00129 0.52747 0.48405
 C23 C -0.00739 0.51857 0.43825
 C24 C -0.00564 0.55484 0.40049
 C25 C 0.00061 0.48831 0.52417
 C26 C 0.01325 0.44657 0.51957
 C27 C 0.01285 0.40874 0.55560
 C28 C 0.00279 0.41365 0.59812
 C29 C -0.00800 0.45525 0.60464
 C30 C -0.01020 0.49191 0.56727
 H31 H -0.00252 0.62846 0.37950
 H32 H 0.00915 0.58196 0.52563
 H33 H -0.01334 0.48325 0.43163
 H34 H 0.02402 0.44312 0.48809
 H35 H 0.00343 0.38488 0.62636
 H36 H -0.02108 0.52275 0.57204
 C37 C 0.60100 -0.00361 0.59095
 C38 C 0.55555 -0.00647 0.59869
 C39 C 0.51918 -0.00766 0.56110
 C40 C 0.52787 -0.00169 0.51534
 C41 C 0.57427 0.00255 0.50842
 C42 C 0.61093 -0.00011 0.54609
 C43 C 0.48854 0.00045 0.47534
 C44 C 0.49171 -0.01071 0.43229
 C45 C 0.45485 -0.00849 0.39503
 C46 C 0.41347 0.00267 0.40159
 C47 C 0.40897 0.01306 0.44411
 C48 C 0.44702 0.01345 0.48006
 H49 H 0.62881 -0.00407 0.62026
 H50 H 0.48404 -0.01298 0.56799
 H51 H 0.58219 0.00821 0.47376
 H52 H 0.52237 -0.02189 0.42750
 H53 H 0.38454 0.00330 0.37339
 H54 H 0.44389 0.02444 0.51156
 O55 O 0.46191 -0.00914 -0.07749
 O56 O 0.44937 -0.02346 0.04529
 O57 O 0.44730 0.04465 -0.02381
 O58 O 0.46079 -0.07728 -0.00942
 O59 O 0.53691 -0.05597 0.00865
 O60 O 0.52327 0.06614 -0.00497
 O61 O 0.52548 -0.00263 0.06372
 O62 O 0.53785 0.01259 -0.05838
 Cu63 Cu 0.44716 -0.01825 -0.01818
 Cu64 Cu 0.53847 0.00734 0.00424
 C65 C 0.50234 0.00325 -0.08854
 C66 C 0.48543 -0.01555 0.07537
 C67 C 0.48282 0.07609 -0.01659
 C68 C 0.50121 -0.08726 0.00122
 O69 O -0.05630 0.53742 0.99123
 O70 O 0.06602 0.52396 1.00593
 O71 O -0.00239 0.52626 0.93661
 O72 O 0.01187 0.53824 1.05894
 O73 O -0.00958 0.46230 1.07757
 O74 O -0.02334 0.45019 0.95450
 O75 O 0.04452 0.44800 1.02412
 O76 O -0.07757 0.46134 1.00896
 Cu77 Cu 0.00710 0.53905 0.99626
 Cu78 Cu -0.01844 0.44779 1.01804
 C79 C -0.08760 0.50171 0.99836
 C80 C 0.07600 0.48353 1.01735
 C81 C -0.01521 0.48627 0.92465
 C82 C 0.00256 0.50268 1.08890
 O83 O -0.00398 -0.04044 0.45670
 O84 O 0.01111 0.08283 0.46957
 O85 O 0.06418 0.02995 0.45495
 O86 O -0.05869 0.01350 0.46756
 O87 O -0.03985 -0.00470 0.54318
 O88 O 0.08349 0.01109 0.53045
 O89 O 0.03023 0.06379 0.54507
 O90 O 0.01446 -0.05903 0.53231
 Cu91 Cu 0.00114 0.02324 0.45462
 Cu92 Cu 0.02389 0.00080 0.54533
 C93 C 0.00332 -0.07058 0.49233
 C94 C 0.02311 0.09415 0.50971
 C95 C 0.09468 0.02307 0.49033
 C96 C -0.07013 0.00237 0.50752
 C97 C -0.27045 0.52448 0.99944
 N98 N -0.30569 0.48748 1.00413
 N99 N -0.34833 0.49364 1.00568
 C100 C -0.35740 0.53702 1.00287
 N101 N -0.32177 0.57383 0.99848
 N102 N -0.27926 0.56773 0.99679
 C103 C -0.22341 0.51821 0.99748
 N104 N -0.18928 0.55578 0.99014
 N105 N -0.14622 0.55047 0.98942
 C106 C -0.13571 0.50737 0.99598
 N107 N -0.16988 0.46974 1.00308
 N108 N -0.21302 0.47506 1.00368
 C109 C 0.26001 0.45908 1.02406
 N110 N 0.29513 0.49612 1.01894
 N111 N 0.33731 0.49014 1.01558
 C112 C 0.34604 0.44691 1.01704
 N113 N 0.31087 0.40989 1.02255
 N114 N 0.26874 0.41584 1.02608
 C115 C 0.21277 0.46568 1.02498
 N116 N 0.17809 0.42840 1.03122
 N117 N 0.13471 0.43420 1.02965
 C118 C 0.12434 0.47748 1.02165
 N119 N 0.15905 0.51481 1.01570
 N120 N 0.20250 0.50901 1.01740
 C121 C 0.00035 -0.25566 0.47155
 N122 N 0.00479 -0.28968 0.50862
 N123 N 0.00537 -0.33285 0.50294
 C124 C 0.00178 -0.34371 0.45997
 N125 N -0.00242 -0.30931 0.42309
 N126 N -0.00314 -0.26628 0.42872
 C127 C -0.00038 -0.20796 0.47728
 N128 N -0.00741 -0.17507 0.43965
 N129 N -0.00711 -0.13150 0.44447
 C130 C 0.00025 -0.11919 0.48712
 N131 N 0.00709 -0.15211 0.52479
 N132 N 0.00665 -0.19575 0.51997
 C133 C 0.02982 0.27834 0.53511
 N134 N 0.02305 0.31242 0.49859
 N135 N 0.01892 0.35422 0.50515
 C136 C 0.02123 0.36353 0.54846
 N137 N 0.02849 0.32945 0.58492
 N138 N 0.03279 0.28773 0.57839
 C139 C 0.03112 0.23127 0.52804
 N140 N 0.03850 0.19770 0.56489
 N141 N 0.03688 0.15424 0.55887
 C142 C 0.02766 0.14268 0.51579
 N143 N 0.02062 0.17631 0.47885
 N144 N 0.02237 0.21985 0.48487
 C145 C 0.53062 -0.00142 -0.26884
 N146 N 0.49455 -0.01022 -0.30338
 N147 N 0.50235 -0.01252 -0.34528
 C148 C 0.54649 -0.00643 -0.35416
 N149 N 0.58242 0.00209 -0.31936
 N150 N 0.57466 0.00452 -0.27757
 C151 C 0.52257 0.00156 -0.22265
 N152 N 0.55917 0.01285 -0.18939
 N153 N 0.55244 0.01449 -0.14702
 C154 C 0.50885 0.00498 -0.13630
 N155 N 0.47213 -0.00605 -0.16961
 N156 N 0.47887 -0.00758 -0.21211
 C157 C 0.46804 -0.02440 0.26182
 N158 N 0.50621 -0.01819 0.29481
 N159 N 0.50202 -0.01445 0.33752
 C160 C 0.45952 -0.01660 0.34882
 N161 N 0.42140 -0.02338 0.31583
 N162 N 0.42555 -0.02728 0.27322
 C163 C 0.47264 -0.02508 0.21391
 N164 N 0.43425 -0.03192 0.18129
 N165 N 0.43827 -0.02975 0.13723
 C166 C 0.48087 -0.02045 0.12418
 N167 N 0.51927 -0.01393 0.15685
 N168 N 0.51524 -0.01624 0.20092
 C169 C 0.52407 -0.26997 -0.00033
 N170 N 0.56732 -0.27874 0.00219
 N171 N 0.57341 -0.32128 0.00056
 C172 C 0.53659 -0.35696 -0.00362
 N173 N 0.49321 -0.34792 -0.00632
 N174 N 0.48705 -0.30527 -0.00483
 C175 C 0.51780 -0.22293 0.00164
 N176 N 0.47461 -0.21261 -0.00449
 N177 N 0.46927 -0.16951 -0.00379
 C178 C 0.50691 -0.13530 0.00336
 N179 N 0.55005 -0.14574 0.00984
 N180 N 0.55538 -0.18877 0.00900
 C181 C 0.45838 0.26004 -0.02301
 N182 N 0.41516 0.26881 -0.02503
 N183 N 0.40927 0.31100 -0.02160
 C184 C 0.44634 0.34618 -0.01620
 N185 N 0.48955 0.33740 -0.01472
 N186 N 0.49548 0.29516 -0.01799
 C187 C 0.46496 0.21278 -0.02390
 N188 N 0.50831 0.20251 -0.01623
 N189 N 0.51410 0.15908 -0.01458
 C190 C 0.47674 0.12438 -0.02068
 N191 N 0.43343 0.13474 -0.02876
 N192 N 0.42764 0.17811 -0.03026
 C193 C -0.25531 -0.00115 0.52809
 N194 N -0.28938 0.00344 0.49097
 N195 N -0.33253 0.00409 0.49660
 C196 C -0.34332 0.00041 0.53955
 N197 N -0.30889 -0.00398 0.57649
 N198 N -0.26588 -0.00476 0.57092
 C199 C -0.20761 -0.00183 0.52241
 N200 N -0.17462 -0.00881 0.56006
 N201 N -0.13102 -0.00837 0.55530
 C202 C -0.11878 -0.00093 0.51267
 N203 N -0.15180 0.00583 0.47497
 N204 N -0.19546 0.00527 0.47974
 C205 C 0.27888 0.03045 0.46488
 N206 N 0.28807 0.03341 0.42156
 N207 N 0.32972 0.02903 0.41495
 C208 C 0.36392 0.02169 0.45137
 N209 N 0.35483 0.01941 0.49471
 N210 N 0.31310 0.02363 0.50136
 C211 C 0.23184 0.03169 0.47200
 N212 N 0.22057 0.02286 0.51517
 N213 N 0.17701 0.02094 0.52121
 C214 C 0.14324 0.02788 0.48428
 N215 N 0.15466 0.03720 0.44120
 N216 N 0.19813 0.03900 0.43517
 C217 C -0.00190 0.53024 1.26978
 N218 N 0.00092 0.57402 1.27797
 N219 N -0.00108 0.58174 1.31992
 C220 C -0.00590 0.54606 1.35561
 N221 N -0.00895 0.50213 1.34714
 N222 N -0.00715 0.49434 1.30506
 C223 C 0.00083 0.52238 1.22337
 N224 N -0.00664 0.47871 1.21290
 N225 N -0.00522 0.47217 1.17027
 C226 C 0.00410 0.50907 1.13675
 N227 N 0.01193 0.55262 1.14741
 N228 N 0.01033 0.55914 1.18988
 C229 C -0.02317 0.46902 0.73801
 N230 N -0.01669 0.50712 0.70512
 N231 N -0.01317 0.50278 0.66237
 C232 C -0.01580 0.46020 0.65091
 N233 N -0.02281 0.42219 0.68382
 N234 N -0.02651 0.42648 0.72644
 C235 C -0.02387 0.47367 0.78599
 N236 N -0.03110 0.43528 0.81840
 N237 N -0.02916 0.43926 0.86245
 C238 C -0.01974 0.48180 0.87576
 N239 N -0.01281 0.52020 0.84332
 N240 N -0.01488 0.51622 0.79923
   
