data_POSCAR
  _audit_creation_date              2014-09-24
  _audit_creation_method            'ToBaCCo'
  _symmetry_space_group_name_H-M    'P1'
  _symmetry_Int_Tables_number       1
  _symmetry_cell_setting            triclinic
  loop_
  _symmetry_equiv_pos_as_xyz
 x,y,z
_cell_length_a 42.4933
_cell_length_b 40.4063
_cell_length_c 41.9185
_cell_angle_alpha 91.887400
_cell_angle_beta 90.661000
_cell_angle_gamma 90.990500
loop_
  _atom_site_label
  _atom_site_type_symbol
  _atom_site_fract_x
  _atom_site_fract_y
  _atom_site_fract_z
C1 C 0.20380 0.53028 1.04969
 H2 H 0.20186 0.54939 1.03233
 C3 C 0.18345 0.52991 1.07562
 H4 H 0.16576 0.54877 1.07692
 C5 C 0.22769 0.48123 1.06625
 H6 H 0.24443 0.46180 1.06229
 C7 C 0.20812 0.48001 1.09264
 H8 H 0.21189 0.46032 1.10899
 N9 N 0.22515 0.50600 1.04532
 C10 C 0.29531 0.54422 0.98044
 H11 H 0.29385 0.52485 0.96201
 C12 C 0.31688 0.57032 0.97784
 H13 H 0.33216 0.57080 0.95735
 C14 C 0.27783 0.56626 1.03013
 H15 H 0.26279 0.56429 1.05062
 C16 C 0.29938 0.59271 1.02865
 H17 H 0.30049 0.61125 1.04789
 Zn18 Zn 0.24895 0.50544 1.00745
 N19 N 0.27614 0.54281 1.00610
 C20 C 0.21971 0.53035 0.95224
 N21 N 0.21999 0.50501 0.97280
 C22 C 0.19811 0.48007 0.97055
 C23 C 0.17477 0.47992 0.94679
 C24 C 0.19685 0.53118 0.92814
 C25 C 0.29701 0.46628 1.02907
 C26 C 0.31722 0.43956 1.02996
 C27 C 0.29229 0.41695 0.98174
 C28 C 0.27214 0.44398 0.98208
 N29 N 0.27473 0.46779 1.00571
 H30 H 0.23677 0.55039 0.95484
 H31 H 0.19848 0.46058 0.98764
 H32 H 0.15715 0.46023 0.94583
 H33 H 0.19715 0.55151 0.91195
 H34 H 0.29877 0.48580 1.04734
 H35 H 0.33406 0.43856 1.04945
 H36 H 0.29031 0.39862 0.96238
 H37 H 0.25478 0.44608 0.96326
 C38 C 0.31917 0.59496 1.00217
 C39 C 0.18475 0.50406 1.09754
 C40 C 0.31525 0.41446 1.00596
 C41 C 0.17379 0.50589 0.92534
 C42 C 0.79845 0.52237 -0.03793
 H43 H 0.79850 0.54258 -0.02035
 C44 C 0.82080 0.52191 -0.06209
 H45 H 0.83813 0.54181 -0.06271
 C46 C 0.77668 0.47108 -0.05723
 H47 H 0.76002 0.45087 -0.05481
 C48 C 0.79857 0.46966 -0.08185
 H49 H 0.79783 0.44870 -0.09862
 N50 N 0.77688 0.49729 -0.03600
 C51 C 0.70702 0.54566 0.02430
 H52 H 0.70768 0.53013 0.04482
 C53 C 0.68656 0.57234 0.02374
 H54 H 0.67149 0.57726 0.04395
 C55 C 0.72448 0.55687 -0.02782
 H56 H 0.73868 0.55021 -0.04818
 C57 C 0.70393 0.58339 -0.02961
 H58 H 0.70279 0.59731 -0.05122
 Zn59 Zn 0.74929 0.49930 -0.00077
 N60 N 0.72547 0.53848 -0.00122
 C61 C 0.77957 0.52465 0.05651
 N62 N 0.77510 0.49799 0.03618
 C63 C 0.79169 0.46986 0.03958
 C64 C 0.81403 0.46779 0.06399
 C65 C 0.80198 0.52376 0.08118
 C66 C 0.70217 0.45954 -0.02960
 C67 C 0.67918 0.43456 -0.03236
 C68 C 0.69252 0.41828 0.02096
 C69 C 0.71574 0.44328 0.02247
 N70 N 0.72011 0.46328 -0.00264
 H71 H 0.76683 0.54714 0.05282
 H72 H 0.78801 0.44923 0.02277
 H73 H 0.82698 0.44512 0.06612
 H74 H 0.80618 0.54567 0.09630
 H75 H 0.70576 0.47614 -0.04901
 H76 H 0.66574 0.43180 -0.05440
 H77 H 0.68872 0.40347 0.04166
 H78 H 0.72955 0.44729 0.04410
 C79 C 0.68446 0.59117 -0.00370
 C80 C 0.82116 0.49523 -0.08444
 C81 C 0.67364 0.41377 -0.00668
 C82 C 0.82001 0.49525 0.08475
 C83 C -0.02141 0.29762 0.45839
 H84 H -0.03762 0.30045 0.47797
 C85 C -0.02430 0.31734 0.43187
 H86 H -0.04239 0.33581 0.43237
 C87 C 0.02287 0.27124 0.43614
 H88 H 0.04132 0.25333 0.43794
 C89 C 0.02101 0.29054 0.40917
 H90 H 0.03771 0.28584 0.39039
 N91 N 0.00159 0.27483 0.45987
 C92 C -0.03574 0.20112 0.52312
 H93 H -0.01697 0.20077 0.54075
 C94 C -0.06148 0.17943 0.52516
 H95 H -0.06254 0.16254 0.54467
 C96 C -0.05684 0.22328 0.47594
 H97 H -0.05459 0.23976 0.45632
 C98 C -0.08310 0.20214 0.47718
 H99 H -0.10083 0.20260 0.45844
 Zn100 Zn 0.00301 0.24909 0.49668
 N101 N -0.03387 0.22245 0.49878
 C102 C -0.01816 0.28081 0.55357
 N103 N 0.00589 0.27880 0.53252
 C104 C 0.03142 0.29947 0.53539
 C105 C 0.03380 0.32285 0.56063
 C106 C -0.01699 0.30417 0.57887
 C107 C 0.03734 0.19647 0.47128
 C108 C 0.06162 0.17373 0.46885
 C109 C 0.08567 0.19929 0.51621
 C110 C 0.06091 0.22158 0.51771
 N111 N 0.03757 0.22004 0.49519
 H112 H -0.03872 0.26491 0.55032
 H113 H 0.04995 0.29780 0.51796
 H114 H 0.05469 0.33851 0.56273
 H115 H -0.03690 0.30590 0.59467
 H116 H 0.01813 0.19532 0.45409
 H117 H 0.06076 0.15497 0.44979
 H118 H 0.10425 0.20121 0.53410
 H119 H 0.06031 0.23987 0.53705
 C120 C -0.08547 0.17963 0.50186
 C121 C -0.00295 0.31416 0.40639
 C122 C 0.08629 0.17498 0.49147
 C123 C 0.00926 0.32567 0.58274
 C124 C 0.97065 0.69896 0.54484
 H125 H 0.95170 0.69793 0.52735
 C126 C 0.96999 0.67786 0.57049
 H127 H 0.94999 0.66121 0.57282
 C128 C 1.01942 0.72243 0.56282
 H129 H 1.03888 0.73945 0.55937
 C130 C 1.01995 0.70138 0.58865
 H131 H 1.04008 0.70242 0.60472
 N132 N 0.99494 0.72087 0.54162
 C133 C 0.95385 0.79398 0.47998
 H134 H 0.97079 0.79423 0.46091
 C135 C 0.92765 0.81431 0.47888
 H136 H 0.92471 0.83042 0.45897
 C137 C 0.93784 0.77354 0.52969
 H138 H 0.94210 0.75807 0.54974
 C139 C 0.91141 0.79355 0.52963
 H140 H 0.89529 0.79274 0.54942
 Zn141 Zn 0.99423 0.74682 0.50488
 N142 N 0.95821 0.77377 0.50489
 C143 C 0.97037 0.71659 0.44642
 N144 N 0.99336 0.71672 0.46931
 C145 C 1.01646 0.69388 0.46857
 C146 C 1.01733 0.66992 0.44395
 C147 C 0.97040 0.69304 0.42121
 C148 C 1.03388 0.79972 0.52609
 C149 C 1.05914 0.82228 0.52483
 C150 C 1.07697 0.79321 0.47733
 C151 C 1.05128 0.77143 0.47934
 N152 N 1.03037 0.77497 0.50348
 H153 H 0.95173 0.73437 0.44783
 H154 H 1.03423 0.69431 0.48728
 H155 H 1.03615 0.65218 0.44367
 H156 H 0.95174 0.69296 0.40340
 H157 H 1.01667 0.80229 0.54479
 H158 H 1.06097 0.84232 0.54257
 H159 H 1.09342 0.78961 0.45805
 H160 H 1.04791 0.75202 0.46126
 C161 C 0.90599 0.81422 0.50394
 C162 C 0.99501 0.67860 0.59275
 C163 C 1.08103 0.81936 0.50003
 C164 C 0.99402 0.66918 0.41991
 C165 C 0.46962 -0.02226 0.30174
 H166 H 0.48786 -0.04061 0.30090
 C167 C 0.44516 -0.02501 0.32351
 H168 H 0.44498 -0.04547 0.33953
 C169 C 0.44868 0.02739 0.28261
 H170 H 0.45041 0.04807 0.26700
 C171 C 0.42373 0.02557 0.30398
 H172 H 0.40610 0.04459 0.30400
 N173 N 0.47086 0.00350 0.28173
 C174 C 0.53234 -0.03727 0.20834
 H175 H 0.55194 -0.01985 0.21051
 C176 C 0.53365 -0.06407 0.18657
 H177 H 0.55440 -0.06636 0.17199
 C178 C 0.48098 -0.05326 0.22354
 H179 H 0.46039 -0.04873 0.23783
 C180 C 0.48078 -0.07973 0.20120
 H181 H 0.46014 -0.09579 0.19963
 Zn182 Zn 0.50588 0.00547 0.25419
 N183 N 0.50654 -0.03268 0.22668
 C184 C 0.56267 -0.01754 0.28152
 N185 N 0.54246 0.00817 0.28046
 C186 C 0.54662 0.03553 0.29990
 C187 C 0.57221 0.03805 0.32109
 C188 C 0.58851 -0.01610 0.30239
 C189 C 0.47774 0.04240 0.20767
 C190 C 0.47477 0.06681 0.18518
 C191 C 0.52455 0.09059 0.20355
 C192 C 0.52653 0.06567 0.22587
 N193 N 0.50329 0.04219 0.22744
 H194 H 0.55829 -0.03972 0.26698
 H195 H 0.52982 0.05531 0.29911
 H196 H 0.57518 0.06015 0.33621
 H197 H 0.60378 -0.03722 0.30345
 H198 H 0.45983 0.02316 0.20911
 H199 H 0.45414 0.06646 0.16976
 H200 H 0.54367 0.10850 0.20196
 H201 H 0.54711 0.06455 0.24114
 C202 C 0.50744 -0.08571 0.18220
 C203 C 0.42171 -0.00090 0.32484
 C204 C 0.49859 0.09106 0.18251
 C205 C 0.59347 0.01190 0.32268
 C206 C 0.53728 -0.02424 0.69205
 H207 H 0.51776 -0.04138 0.68762
 C208 C 0.56344 -0.02514 0.67224
 H209 H 0.56353 -0.04281 0.65228
 C210 C 0.55985 0.02062 0.72266
 H211 H 0.55827 0.03873 0.74204
 C212 C 0.58665 0.02030 0.70372
 H213 H 0.60560 0.03784 0.70935
 N214 N 0.53597 -0.00164 0.71672
 C215 C 0.47508 -0.04189 0.78926
 H216 H 0.45690 -0.02349 0.79044
 C217 C 0.47560 -0.06707 0.81130
 H218 H 0.45767 -0.06785 0.82942
 C219 C 0.52178 -0.06170 0.76553
 H220 H 0.54017 -0.05908 0.74818
 C221 C 0.52322 -0.08723 0.78711
 H222 H 0.54244 -0.10444 0.78565
 Zn223 Zn 0.49919 -0.00163 0.74176
 N224 N 0.49812 -0.03949 0.76716
 C225 C 0.44088 -0.02453 0.71376
 N226 N 0.46414 -0.00098 0.71352
 C227 C 0.46400 0.02326 0.69180
 C228 C 0.43960 0.02475 0.66936
 C229 C 0.41593 -0.02392 0.69175
 C230 C 0.52158 0.03650 0.79389
 C231 C 0.52278 0.06254 0.81653
 C232 C 0.47822 0.08668 0.79023
 C233 C 0.47793 0.06012 0.76797
 N234 N 0.49952 0.03579 0.77013
 H235 H 0.44170 -0.04391 0.73088
 H236 H 0.48311 0.04130 0.69176
 H237 H 0.44031 0.04397 0.65198
 H238 H 0.39741 -0.04260 0.69258
 H239 H 0.53822 0.01661 0.79528
 H240 H 0.54076 0.06271 0.83504
 H241 H 0.46047 0.10546 0.78855
 H242 H 0.46014 0.05875 0.74934
 C243 C 0.50024 -0.08982 0.81075
 C244 C 0.58869 -0.00269 0.67796
 C245 C 0.50075 0.08799 0.81506
 C246 C 0.41505 0.00100 0.66914
 C247 C 0.25120 -0.00248 0.49191
 C248 C 0.74965 -0.00308 0.50459
 C249 C 0.48990 0.25096 1.00241
 C250 C 0.50519 0.75298 -0.00549
 C251 C 1.00107 0.49077 0.24470
 C252 C -0.00029 0.50278 0.75834
 C253 C 0.15991 0.10376 0.48654
 C254 C 0.14815 0.11703 0.45829
 C255 C 0.12442 0.14047 0.45991
 C256 C 0.11216 0.15073 0.48951
 C257 C 0.12457 0.13692 0.51715
 N258 N 0.14760 0.11406 0.51496
 C259 C 0.18426 0.07787 0.48660
 N260 N 0.18727 0.05934 0.51292
 C261 C 0.20853 0.03479 0.51500
 C262 C 0.22926 0.02765 0.48973
 C263 C 0.22592 0.04620 0.46198
 C264 C 0.20400 0.07148 0.46056
 H265 H 0.11570 0.15061 0.43799
 H266 H 0.11552 0.14369 0.54044
 H267 H 0.20921 0.02058 0.53642
 H268 H 0.23950 0.04093 0.44086
 H269 H 0.15645 0.10908 0.43505
 H270 H 0.20275 0.08562 0.43916
 C271 C 0.61125 0.66199 -0.00856
 C272 C 0.61537 0.63915 -0.03404
 C273 C 0.63993 0.61678 -0.03288
 C274 C 0.66020 0.61687 -0.00624
 C275 C 0.65574 0.64060 0.01845
 N276 N 0.63175 0.66240 0.01667
 C277 C 0.58428 0.68455 -0.00819
 N278 N 0.58818 0.71650 0.00243
 C279 C 0.56396 0.73812 0.00329
 C280 C 0.53301 0.72799 -0.00615
 C281 C 0.52910 0.69459 -0.01695
 C282 C 0.55441 0.67320 -0.01811
 H283 H 0.64251 0.59874 -0.05231
 H284 H 0.67112 0.64158 0.03923
 H285 H 0.56889 0.76348 0.01114
 H286 H 0.50671 0.68418 -0.02467
 H287 H 0.59964 0.63848 -0.05457
 H288 H 0.55046 0.64771 -0.02618
 C289 C 0.82885 -0.11904 0.50381
 C290 C 0.83662 -0.13637 0.47544
 C291 C 0.86142 -0.15858 0.47555
 C292 C 0.87849 -0.16366 0.50378
 C293 C 0.86955 -0.14639 0.53172
 N294 N 0.84559 -0.12460 0.53094
 C295 C 0.80532 -0.09245 0.50461
 N296 N 0.80774 -0.06875 0.52830
 C297 C 0.78920 -0.04177 0.52929
 C298 C 0.76726 -0.03634 0.50456
 C299 C 0.76228 -0.06235 0.48168
 C300 C 0.78147 -0.09009 0.48138
 H301 H 0.86743 -0.17158 0.45351
 H302 H 0.88228 -0.14925 0.55394
 H303 H 0.79281 -0.02344 0.54847
 H304 H 0.74384 -0.06157 0.46381
 H305 H 0.82463 -0.13206 0.45311
 H306 H 0.77755 -0.10931 0.46314
 C307 C 0.38066 0.33483 1.00683
 C308 C 0.34992 0.32856 0.99528
 C309 C 0.32844 0.35441 0.99500
 C310 C 0.33758 0.38647 1.00596
 C311 C 0.36863 0.39148 1.01720
 N312 N 0.38891 0.36596 1.01747
 C313 C 0.40493 0.30917 1.00744
 N314 N 0.42854 0.31274 1.02948
 C315 C 0.45396 0.29293 1.02930
 C316 C 0.45809 0.26906 1.00447
 C317 C 0.43241 0.26295 0.98330
 C318 C 0.40606 0.28319 0.98447
 H319 H 0.30462 0.34916 0.98666
 H320 H 0.37709 0.41575 1.02529
 H321 H 0.47217 0.29739 1.04728
 H322 H 0.43260 0.24307 0.96546
 H323 H 0.34237 0.30398 0.98711
 H324 H 0.38757 0.27939 0.96670
 C325 C 0.83954 0.10764 0.50153
 C326 C 0.83271 0.14064 0.49494
 C327 C 0.85710 0.16433 0.49526
 C328 C 0.88810 0.15526 0.50232
 C329 C 0.89381 0.12209 0.50888
 N330 N 0.86982 0.09949 0.50811
 C331 C 0.81540 0.08084 0.50066
 N332 N 0.82515 0.04930 0.49567
 C333 C 0.80530 0.02273 0.49608
 C334 C 0.77314 0.02665 0.50325
 C335 C 0.76232 0.05943 0.50623
 C336 C 0.78329 0.08643 0.50552
 H337 H 0.85175 0.18971 0.49006
 H338 H 0.91743 0.11391 0.51387
 H339 H 0.81507 -0.00120 0.49047
 H340 H 0.73760 0.06404 0.51003
 H341 H 0.80911 0.14804 0.48888
 H342 H 0.77444 0.11113 0.50955
 C343 C 0.39142 0.66932 -0.00455
 C344 C 0.37202 0.66142 -0.03121
 C345 C 0.34803 0.63767 -0.02881
 C346 C 0.34289 0.62211 0.00013
 C347 C 0.36176 0.63179 0.02660
 N348 N 0.38533 0.65461 0.02356
 C349 C 0.41887 0.69236 -0.00608
 N350 N 0.43209 0.70452 0.02168
 C351 C 0.45837 0.72419 0.02263
 C352 C 0.47349 0.73303 -0.00579
 C353 C 0.46016 0.72004 -0.03472
 C354 C 0.43311 0.70006 -0.03498
 H355 H 0.33350 0.63140 -0.04961
 H356 H 0.35857 0.62037 0.04936
 H357 H 0.46756 0.73211 0.04578
 H358 H 0.47151 0.72416 -0.05726
 H359 H 0.37510 0.67322 -0.05375
 H360 H 0.42453 0.68980 -0.05763
 C361 C 0.15553 -0.10827 0.49195
 C362 C 0.14125 -0.12256 0.46426
 C363 C 0.11709 -0.14606 0.46695
 C364 C 0.10723 -0.15598 0.49709
 C365 C 0.12258 -0.14168 0.52417
 N366 N 0.14591 -0.11856 0.52094
 C367 C 0.18063 -0.08227 0.49071
 N368 N 0.19828 -0.07500 0.51742
 C369 C 0.22117 -0.05099 0.51860
 C370 C 0.22788 -0.03242 0.49147
 C371 C 0.20897 -0.03898 0.46406
 C372 C 0.18573 -0.06372 0.46346
 H373 H 0.10584 -0.15605 0.44535
 H374 H 0.11624 -0.14896 0.54789
 H375 H 0.23313 -0.04595 0.54113
 H376 H 0.21202 -0.02444 0.44303
 H377 H 0.14852 -0.11608 0.44063
 H378 H 0.17148 -0.06725 0.44208
 C379 C 0.59602 0.34419 0.99194
 C380 C 0.59403 0.37340 0.97479
 C381 C 0.61929 0.39577 0.97520
 C382 C 0.64714 0.38905 0.99190
 C383 C 0.64871 0.35890 1.00770
 N384 N 0.62345 0.33764 1.00744
 C385 C 0.56874 0.32091 0.99414
 N386 N 0.57345 0.28869 1.00122
 C387 C 0.54920 0.26647 1.00411
 C388 C 0.51764 0.27637 1.00095
 C389 C 0.51286 0.30932 0.99196
 C390 C 0.53789 0.33154 0.98948
 H391 H 0.61657 0.41871 0.96293
 H392 H 0.66990 0.35222 1.02031
 H393 H 0.55451 0.24102 1.00895
 H394 H 0.48978 0.31837 0.98621
 H395 H 0.57328 0.37924 0.96108
 H396 H 0.53268 0.35687 0.98417
 C397 C 0.49237 0.16126 1.10837
 C398 C 0.48329 0.12806 1.10223
 C399 C 0.48551 0.10539 1.12636
 C400 C 0.49689 0.11541 1.15675
 C401 C 0.50665 0.14863 1.16175
 N402 N 0.50417 0.17045 1.13777
 C403 C 0.48990 0.18595 1.08315
 N404 N 0.51054 0.21210 1.08274
 C405 C 0.51076 0.23400 1.05867
 C406 C 0.48987 0.22954 1.03237
 C407 C 0.46669 0.20432 1.03424
 C408 C 0.46673 0.18257 1.05918
 H409 H 0.47873 0.07983 1.12104
 H410 H 0.51569 0.15738 1.18480
 H411 H 0.52736 0.25451 1.06026
 H412 H 0.44907 0.20073 1.01551
 H413 H 0.47506 0.11939 1.07885
 H414 H 0.44884 0.16322 1.05946
 C415 C -0.00342 0.61000 0.66875
 C416 C 0.00958 0.64192 0.67392
 C417 C 0.00885 0.66441 0.64933
 C418 C -0.00461 0.65519 0.61950
 C419 C -0.01759 0.62303 0.61553
 N420 N -0.01677 0.60169 0.63988
 C421 C -0.00276 0.58491 0.69360
 N422 N -0.02598 0.56136 0.69385
 C423 C -0.02605 0.53650 0.71490
 C424 C -0.00146 0.53381 0.73756
 C425 C 0.02323 0.55763 0.73679
 C426 C 0.02236 0.58331 0.71538
 H427 H 0.01849 0.68911 0.65386
 H428 H -0.02782 0.61449 0.59293
 H429 H -0.04501 0.51826 0.71357
 H430 H 0.04405 0.55607 0.75163
 H431 H 0.01977 0.64963 0.69681
 H432 H 0.04196 0.60074 0.71491
 C433 C 0.50749 0.84004 -0.11508
 C434 C 0.53477 0.85600 -0.12604
 C435 C 0.53240 0.87835 -0.15057
 C436 C 0.50299 0.88516 -0.16421
 C437 C 0.47632 0.86872 -0.15262
 N438 N 0.47920 0.84702 -0.12868
 C439 C 0.50820 0.81706 -0.08819
 N440 N 0.48104 0.81070 -0.07260
 C441 C 0.47964 0.79062 -0.04730
 C442 C 0.50688 0.77516 -0.03544
 C443 C 0.53506 0.78112 -0.05213
 C444 C 0.53576 0.80167 -0.07823
 H445 H 0.55351 0.89108 -0.15819
 H446 H 0.45319 0.87307 -0.16255
 H447 H 0.45704 0.78706 -0.03619
 H448 H 0.55699 0.77015 -0.04572
 H449 H 0.55764 0.85227 -0.11534
 H450 H 0.55777 0.80495 -0.09050
 C451 C 0.99210 0.37780 0.32821
 C452 C 0.96482 0.37076 0.34539
 C453 C 0.96626 0.34929 0.37072
 C454 C 0.99486 0.33452 0.37942
 C455 C 1.02139 0.34166 0.36069
 N456 N 1.01938 0.36303 0.33645
 C457 C 0.99308 0.40326 0.30361
 N458 N 1.02131 0.41732 0.29684
 C459 C 1.02429 0.44294 0.27696
 C460 C 0.99758 0.45741 0.26274
 C461 C 0.96844 0.44099 0.26774
 C462 C 0.96612 0.41433 0.28802
 H463 H 0.94457 0.34404 0.38294
 H464 H 1.04434 0.33214 0.36623
 H465 H 1.04776 0.45272 0.27336
 H466 H 0.94686 0.44799 0.25661
 H467 H 0.94269 0.38239 0.34023
 H468 H 0.94331 0.40279 0.29140
 C469 C 0.50761 0.83975 0.10918
 C470 C 0.53575 0.84828 0.12527
 C471 C 0.53578 0.87276 0.14956
 C472 C 0.50758 0.88826 0.15865
 C473 C 0.47967 0.87771 0.14249
 N474 N 0.48055 0.85473 0.11811
 C475 C 0.50717 0.81684 0.08112
 N476 N 0.49110 0.82530 0.05458
 C477 C 0.49036 0.80607 0.02741
 C478 C 0.50667 0.77584 0.02537
 C479 C 0.52145 0.76586 0.05390
 C480 C 0.52257 0.78659 0.08124
 H481 H 0.55787 0.87887 0.16161
 H482 H 0.45738 0.88910 0.14762
 H483 H 0.47667 0.81484 0.00788
 H484 H 0.53178 0.74171 0.05553
 H485 H 0.55767 0.83692 0.11841
 H486 H 0.53458 0.77866 0.10253
 C487 C 0.01098 0.40005 0.65825
 C488 C 0.02554 0.40663 0.62922
 C489 C 0.02515 0.38240 0.60472
 C490 C 0.01056 0.35141 0.60905
 C491 C -0.00347 0.34581 0.63868
 N492 N -0.00316 0.36999 0.66202
 C493 C 0.00930 0.42550 0.68427
 N494 N -0.01668 0.42645 0.70287
 C495 C -0.02035 0.44966 0.72669
 C496 C 0.00347 0.47374 0.73364
 C497 C 0.03038 0.47304 0.71421
 C498 C 0.03347 0.44904 0.68986
 H499 H 0.03555 0.38835 0.58213
 H500 H -0.01460 0.32224 0.64343
 H501 H -0.04240 0.44959 0.73918
 H502 H 0.04903 0.49142 0.71788
 H503 H 0.03620 0.43059 0.62503
 H504 H 0.05461 0.44890 0.67572
 C505 C 0.49968 0.16427 0.88865
 C506 C 0.49369 0.17251 0.85681
 C507 C 0.49412 0.14774 0.83270
 C508 C 0.50058 0.11487 0.84010
 C509 C 0.50659 0.10780 0.87210
 N510 N 0.50593 0.13221 0.89505
 C511 C 0.49879 0.18841 0.91611
 N512 N 0.50611 0.17717 0.94542
 C513 C 0.50427 0.19616 0.97254
 C514 C 0.49322 0.22887 0.97172
 C515 C 0.48823 0.24185 0.94127
 C516 C 0.49031 0.22171 0.91360
 H517 H 0.48969 0.15434 0.80825
 H518 H 0.51118 0.08278 0.87907
 H519 H 0.51159 0.18531 0.99457
 H520 H 0.48177 0.26748 0.93900
 H521 H 0.48873 0.19751 0.85024
 H522 H 0.48496 0.23232 0.89092
 C523 C 0.99735 0.59424 0.34560
 C524 C 1.00292 0.58602 0.37744
 C525 C 1.00144 0.61039 0.40156
 C526 C 0.99414 0.64300 0.39427
 C527 C 0.98749 0.65003 0.36230
 N528 N 0.98934 0.62582 0.33903
 C529 C 1.00000 0.56914 0.31928
 N530 N 0.98302 0.57206 0.29185
 C531 C 0.98356 0.54879 0.26759
 C532 C 1.00123 0.51957 0.27045
 C533 C 1.02127 0.51850 0.29748
 C534 C 1.02044 0.54261 0.32178
 H535 H 1.00579 0.60367 0.42599
 H536 H 0.98164 0.67487 0.35570
 H537 H 0.97032 0.55361 0.24618
 H538 H 1.03817 0.49933 0.30023
 H539 H 1.00808 0.56095 0.38386
 H540 H 1.03614 0.54060 0.34211
 C541 C 1.11457 0.49529 0.16790
 C542 C 1.13220 0.46763 0.15892
 C543 C 1.15574 0.47064 0.13633
 C544 C 1.16245 0.50137 0.12250
 C545 C 1.14513 0.52885 0.13375
 N546 N 1.12202 0.52508 0.15557
 C547 C 1.08730 0.49276 0.18939
 N548 N 1.07715 0.52048 0.20514
 C549 C 1.05108 0.52047 0.22367
 C550 C 1.03305 0.49114 0.22715
 C551 C 1.04309 0.46246 0.21029
 C552 C 1.07003 0.46310 0.19181
 H553 H 1.16718 0.44811 0.12877
 H554 H 1.14994 0.55354 0.12576
 H555 H 1.04408 0.54368 0.23472
 H556 H 1.02926 0.43971 0.21040
 H557 H 1.12773 0.44363 0.16880
 H558 H 1.07617 0.44087 0.17842
 C559 C 0.66653 -0.00288 0.61384
 C560 C 0.65707 0.02710 0.62826
 C561 C 0.63203 0.02713 0.64947
 C562 C 0.61648 -0.00264 0.65666
 C563 C 0.62726 -0.03217 0.64225
 N564 N 0.65135 -0.03149 0.62123
 C565 C 0.69044 -0.00376 0.58856
 N566 N 0.68759 -0.02727 0.56475
 C567 C 0.70689 -0.02795 0.53918
 C568 C 0.73036 -0.00321 0.53573
 C569 C 0.73544 0.01936 0.56176
 C570 C 0.71526 0.01950 0.58781
 H571 H 0.62420 0.05063 0.65932
 H572 H 0.61647 -0.05580 0.64744
 H573 H 0.70301 -0.04694 0.52067
 H574 H 0.75477 0.03705 0.56237
 H575 H 0.66788 0.05047 0.62218
 H576 H 0.71916 0.03757 0.60715
 C577 C -0.10632 0.49188 0.84518
 C578 C -0.11687 0.46238 0.85875
 C579 C -0.14069 0.46342 0.88140
 C580 C -0.15440 0.49362 0.89044
 C581 C -0.14381 0.52237 0.87563
 N582 N -0.12042 0.52078 0.85381
 C583 C -0.08018 0.49286 0.82200
 N584 N -0.07628 0.52033 0.80445
 C585 C -0.05232 0.52398 0.78357
 C586 C -0.03003 0.49878 0.77902
 C587 C -0.03330 0.47065 0.79785
 C588 C -0.05820 0.46746 0.81895
 H589 H -0.14792 0.44062 0.89227
 H590 H -0.15411 0.54611 0.88132
 H591 H -0.05036 0.54717 0.77163
 H592 H -0.01610 0.45121 0.79644
 H593 H -0.10712 0.43866 0.85210
 H594 H -0.05930 0.44578 0.83333
 C595 C 0.34713 -0.00712 0.39284
 C596 C 0.35824 -0.03617 0.37771
 C597 C 0.38226 -0.03409 0.35539
 C598 C 0.39560 -0.00327 0.34808
 C599 C 0.38392 0.02514 0.36377
 N600 N 0.36049 0.02250 0.38541
 C601 C 0.32199 -0.00744 0.41724
 N602 N 0.31777 0.02037 0.43580
 C603 C 0.29549 0.02232 0.45876
 C604 C 0.27491 -0.00466 0.46409
 C605 C 0.27969 -0.03398 0.44569
 C606 C 0.30256 -0.03525 0.42209
 H607 H 0.39027 -0.05666 0.34372
 H608 H 0.39379 0.04940 0.35934
 H609 H 0.29377 0.04504 0.47299
 H610 H 0.26636 -0.05644 0.44968
 H611 H 0.34915 -0.06043 0.38314
 H612 H 0.30466 -0.05796 0.40803
 C613 C 0.09980 0.50895 0.85521
 C614 C 0.11044 0.53843 0.87083
 C615 C 0.13453 0.53740 0.89362
 C616 C 0.14835 0.50720 0.90084
 C617 C 0.13732 0.47836 0.88443
 N618 N 0.11378 0.47997 0.86232
 C619 C 0.07431 0.50838 0.83077
 N620 N 0.07181 0.48200 0.80984
 C621 C 0.04918 0.47945 0.78668
 C622 C 0.02713 0.50486 0.78307
 C623 C 0.02852 0.53145 0.80571
 C624 C 0.05201 0.53349 0.82919
 H625 H 0.14210 0.56023 0.90585
 H626 H 0.14762 0.45462 0.88887
 H627 H 0.04828 0.45712 0.77183
 H628 H 0.01125 0.55082 0.80508
 H629 H 0.10074 0.56217 0.86537
 H630 H 0.05203 0.55416 0.84622
 C631 C 0.66649 0.01095 0.39398
 C632 C 0.67245 -0.00177 0.36307
 C633 C 0.64896 -0.00074 0.33954
 C634 C 0.61954 0.01283 0.34663
 C635 C 0.61480 0.02581 0.37762
 N636 N 0.63790 0.02431 0.40013
 C637 C 0.68907 0.00840 0.42097
 N638 N 0.67801 0.01325 0.45101
 C639 C 0.69618 0.01011 0.47749
 C640 C 0.72789 0.00051 0.47499
 C641 C 0.74031 -0.00204 0.44395
 C642 C 0.72105 0.00135 0.41704
 H643 H 0.65371 -0.01082 0.31586
 H644 H 0.59239 0.03605 0.38437
 H645 H 0.68553 0.01567 0.50024
 H646 H 0.76500 -0.00718 0.44059
 H647 H 0.69446 -0.01331 0.35710
 H648 H 0.73140 -0.00120 0.39368
 C649 C 0.89746 0.49585 0.15121
 C650 C 0.89996 0.47954 0.12126
 C651 C 0.87471 0.47933 0.09988
 C652 C 0.84654 0.49484 0.10817
 C653 C 0.84467 0.51035 0.13861
 N654 N 0.86980 0.51038 0.15912
 C655 C 0.92419 0.49700 0.17427
 N656 N 0.91874 0.49995 0.20613
 C657 C 0.94238 0.49930 0.22833
 C658 C 0.97404 0.49445 0.21927
 C659 C 0.97974 0.49390 0.18601
 C660 C 0.95525 0.49509 0.16388
 H661 H 0.87749 0.46741 0.07660
 H662 H 0.82326 0.52224 0.14615
 H663 H 0.93636 0.50202 0.25329
 H664 H 1.00300 0.49260 0.17616
 H665 H 0.92106 0.46669 0.11433
 H666 H 0.96089 0.49474 0.13877
 C667 C 0.34128 0.00391 0.59849
 C668 C 0.35352 0.03361 0.61248
 C669 C 0.37713 0.03257 0.63580
 C670 C 0.38899 0.00216 0.64521
 C671 C 0.37611 -0.02696 0.63077
 N672 N 0.35310 -0.02534 0.60806
 C673 C 0.31693 0.00329 0.57272
 N674 N 0.31259 -0.02492 0.55444
 C675 C 0.29147 -0.02733 0.52982
 C676 C 0.27248 -0.00032 0.52221
 C677 C 0.27721 0.02925 0.54062
 C678 C 0.29869 0.03092 0.56603
 H679 H 0.38610 0.05566 0.64646
 H680 H 0.38480 -0.05097 0.63691
 H681 H 0.28973 -0.05027 0.51579
 H682 H 0.26513 0.05171 0.53517
 H683 H 0.34574 0.05757 0.60528
 H684 H 0.30084 0.05386 0.57990
   
