data_POSCAR
  _audit_creation_date              2014-09-24
  _audit_creation_method            'ToBaCCo'
  _symmetry_space_group_name_H-M    'P1'
  _symmetry_Int_Tables_number       1
  _symmetry_cell_setting            triclinic
  loop_
  _symmetry_equiv_pos_as_xyz
 x,y,z
_cell_length_a 32.4062
_cell_length_b 32.4603
_cell_length_c 32.5627
_cell_angle_alpha 89.995500
_cell_angle_beta 85.921600
_cell_angle_gamma 89.997100
loop_
  _atom_site_label
  _atom_site_type_symbol
  _atom_site_fract_x
  _atom_site_fract_y
  _atom_site_fract_z
Zn1 Zn 0.77057 0.70109 0.78344
 Zn2 Zn 0.78662 0.76521 0.72291
 Zn3 Zn 0.71049 0.72143 0.72233
 Zn4 Zn 0.72451 0.77789 0.79160
 O5 O 0.74755 0.74129 0.75554
 O6 O 0.82552 0.70829 0.78498
 O7 O 0.78760 0.74378 0.67261
 O8 O 0.71386 0.66635 0.71923
 O9 O 0.83728 0.75911 0.74027
 O10 O 0.76070 0.65087 0.76326
 O11 O 0.71983 0.73986 0.67001
 O12 O 0.66911 0.77416 0.79409
 O13 O 0.77665 0.81914 0.71913
 O14 O 0.65855 0.73399 0.74057
 O15 O 0.73594 0.83017 0.77586
 O16 O 0.74127 0.76901 0.84273
 O17 O 0.75148 0.70174 0.83578
 C18 C 0.84983 0.73425 0.76676
 C19 C 0.75601 0.73978 0.65208
 C20 C 0.73590 0.64002 0.73665
 C21 C 0.64483 0.75579 0.77103
 C22 C 0.75600 0.84340 0.74347
 C23 C 0.74846 0.73383 0.85808
 Zn24 Zn 0.21294 0.73360 0.71319
 Zn25 Zn 0.22272 0.78770 0.78568
 Zn26 Zn 0.28015 0.71581 0.76914
 Zn27 Zn 0.28265 0.78391 0.71720
 O28 O 0.24797 0.75422 0.74777
 O29 O 0.15996 0.74459 0.73019
 O30 O 0.23936 0.77688 0.83646
 O31 O 0.26519 0.66453 0.75528
 O32 O 0.16797 0.77898 0.78828
 O33 O 0.21689 0.67855 0.71218
 O34 O 0.27762 0.72064 0.82403
 O35 O 0.33018 0.78894 0.74089
 O36 O 0.23072 0.84217 0.77263
 O37 O 0.33470 0.72258 0.75387
 O38 O 0.26294 0.83385 0.71089
 O39 O 0.29140 0.76152 0.66719
 O40 O 0.22485 0.75079 0.66048
 C41 C 0.14502 0.76138 0.76339
 C42 C 0.26165 0.74759 0.84877
 C43 C 0.23865 0.65277 0.73069
 C44 C 0.35111 0.75815 0.75127
 C45 C 0.24563 0.85701 0.73838
 C46 C 0.26180 0.75426 0.64456
 Zn47 Zn 0.72282 0.20871 0.78565
 Zn48 Zn 0.78276 0.21251 0.71719
 Zn49 Zn 0.71304 0.26281 0.71315
 Zn50 Zn 0.78023 0.28061 0.76911
 O51 O 0.74807 0.24219 0.74775
 O52 O 0.73082 0.15424 0.77261
 O53 O 0.79151 0.23489 0.66716
 O54 O 0.66006 0.25180 0.73015
 O55 O 0.76307 0.16256 0.71089
 O56 O 0.66808 0.21743 0.78826
 O57 O 0.72496 0.24562 0.66045
 O58 O 0.76525 0.33189 0.75526
 O59 O 0.83029 0.20749 0.74088
 O60 O 0.71696 0.31785 0.71214
 O61 O 0.83479 0.27386 0.75384
 O62 O 0.77771 0.27576 0.82400
 O63 O 0.73946 0.21952 0.83644
 C64 C 0.74574 0.13940 0.73837
 C65 C 0.76191 0.24215 0.64453
 C66 C 0.64512 0.23502 0.76336
 C67 C 0.73871 0.34364 0.73066
 C68 C 0.85121 0.23829 0.75125
 C69 C 0.76175 0.24881 0.84875
 Zn70 Zn 0.28673 0.23118 0.72292
 Zn71 Zn 0.22460 0.21853 0.79159
 Zn72 Zn 0.27067 0.29532 0.78342
 Zn73 Zn 0.21060 0.27498 0.72231
 O74 O 0.24765 0.25512 0.75552
 O75 O 0.27675 0.17725 0.71915
 O76 O 0.24137 0.22740 0.84272
 O77 O 0.32561 0.28812 0.78496
 O78 O 0.23600 0.16625 0.77587
 O79 O 0.33738 0.23728 0.74027
 O80 O 0.25158 0.29467 0.83577
 O81 O 0.21397 0.33005 0.71918
 O82 O 0.16920 0.22229 0.79409
 O83 O 0.26079 0.34553 0.76323
 O84 O 0.15866 0.26244 0.74055
 O85 O 0.21995 0.25653 0.66999
 O86 O 0.28771 0.25260 0.67261
 C87 C 0.25607 0.15300 0.74349
 C88 C 0.24856 0.26258 0.85806
 C89 C 0.34993 0.26216 0.76675
 C90 C 0.23600 0.35638 0.73661
 C91 C 0.14492 0.24065 0.77101
 C92 C 0.25612 0.25659 0.65207
 Zn93 Zn 0.71050 0.72140 0.22233
 Zn94 Zn 0.78663 0.76519 0.22292
 Zn95 Zn 0.72451 0.77785 0.29160
 Zn96 Zn 0.77058 0.70105 0.28343
 O97 O 0.74755 0.74125 0.25554
 O98 O 0.71985 0.73983 0.17000
 O99 O 0.77665 0.81911 0.21915
 O100 O 0.66910 0.77412 0.29408
 O101 O 0.78762 0.74376 0.17261
 O102 O 0.65856 0.73395 0.24056
 O103 O 0.73593 0.83013 0.27588
 O104 O 0.75148 0.70170 0.33578
 O105 O 0.83729 0.75909 0.24028
 O106 O 0.74126 0.76896 0.34274
 O107 O 0.82552 0.70825 0.28497
 O108 O 0.76071 0.65084 0.26325
 O109 O 0.71387 0.66632 0.21922
 C110 C 0.75603 0.73976 0.15208
 C111 C 0.75600 0.84337 0.24349
 C112 C 0.64483 0.75575 0.27102
 C113 C 0.74846 0.73378 0.35808
 C114 C 0.84984 0.73421 0.26676
 C115 C 0.73591 0.63999 0.23664
 Zn116 Zn 0.28265 0.78386 0.21721
 Zn117 Zn 0.21294 0.73355 0.21318
 Zn118 Zn 0.28014 0.71575 0.26914
 Zn119 Zn 0.22272 0.78765 0.28568
 O120 O 0.24797 0.75417 0.24777
 O121 O 0.29140 0.76147 0.16719
 O122 O 0.21688 0.67851 0.21218
 O123 O 0.33470 0.72252 0.25388
 O124 O 0.22485 0.75075 0.16048
 O125 O 0.33018 0.78888 0.24090
 O126 O 0.26518 0.66448 0.25528
 O127 O 0.23937 0.77684 0.33646
 O128 O 0.15996 0.74455 0.23019
 O129 O 0.27762 0.72059 0.32403
 O130 O 0.16798 0.77893 0.28828
 O131 O 0.23073 0.84213 0.27263
 O132 O 0.26295 0.83380 0.21089
 C133 C 0.26180 0.75422 0.14456
 C134 C 0.23864 0.65273 0.23069
 C135 C 0.35111 0.75809 0.25127
 C136 C 0.26165 0.74754 0.34877
 C137 C 0.14503 0.76134 0.26339
 C138 C 0.24563 0.85696 0.23838
 Zn139 Zn 0.71304 0.26278 0.21315
 Zn140 Zn 0.78276 0.21248 0.21719
 Zn141 Zn 0.78023 0.28059 0.26911
 Zn142 Zn 0.72282 0.20868 0.28566
 O143 O 0.74806 0.24217 0.24775
 O144 O 0.72495 0.24558 0.16045
 O145 O 0.83028 0.20746 0.24088
 O146 O 0.76525 0.33186 0.25525
 O147 O 0.79150 0.23486 0.16717
 O148 O 0.71695 0.31782 0.21214
 O149 O 0.83479 0.27383 0.25384
 O150 O 0.73947 0.21950 0.33644
 O151 O 0.76306 0.16253 0.21089
 O152 O 0.77771 0.27574 0.32400
 O153 O 0.73082 0.15421 0.27262
 O154 O 0.66808 0.21741 0.28827
 O155 O 0.66005 0.25177 0.23016
 C156 C 0.76190 0.24211 0.14453
 C157 C 0.85121 0.23826 0.25125
 C158 C 0.73870 0.34361 0.23066
 C159 C 0.76175 0.24879 0.34875
 C160 C 0.74574 0.13938 0.23837
 C161 C 0.64512 0.23499 0.26337
 Zn162 Zn 0.21059 0.27493 0.22231
 Zn163 Zn 0.28672 0.23113 0.22291
 Zn164 Zn 0.27067 0.29528 0.28341
 Zn165 Zn 0.22460 0.21848 0.29159
 O166 O 0.24765 0.25508 0.25552
 O167 O 0.21995 0.25650 0.16999
 O168 O 0.33738 0.23723 0.24027
 O169 O 0.26079 0.34549 0.26323
 O170 O 0.28772 0.25256 0.17260
 O171 O 0.21397 0.33001 0.21919
 O172 O 0.32562 0.28808 0.28495
 O173 O 0.24137 0.22736 0.34272
 O174 O 0.27674 0.17721 0.21915
 O175 O 0.25159 0.29462 0.33576
 O176 O 0.23601 0.16620 0.27587
 O177 O 0.16920 0.22224 0.29408
 O178 O 0.15866 0.26239 0.24054
 C179 C 0.25613 0.25656 0.15207
 C180 C 0.34993 0.26211 0.26674
 C181 C 0.23600 0.35634 0.23662
 C182 C 0.24857 0.26253 0.35806
 C183 C 0.25608 0.15296 0.24348
 C184 C 0.14492 0.24059 0.27101
 C185 C -0.03428 0.74663 0.75609
 C186 C -0.02511 0.74278 0.79652
 C187 C -0.05507 0.73460 0.82824
 C188 C -0.09622 0.73059 0.81788
 C189 C -0.10656 0.73575 0.77660
 C190 C -0.07509 0.74386 0.74529
 O191 O -0.00115 0.75304 0.73050
 C192 C 0.02961 0.75358 0.75534
 C193 C 0.01653 0.74797 0.79610
 C194 C 0.04349 0.74837 0.82745
 C195 C 0.08570 0.75433 0.81629
 C196 C 0.10015 0.75883 0.77434
 C197 C 0.07158 0.75853 0.74345
 H198 H -0.04705 0.73131 0.85977
 H199 H -0.12016 0.72455 0.84207
 H200 H -0.08216 0.74762 0.71350
 H201 H 0.03245 0.74415 0.85933
 H202 H 0.10729 0.75420 0.84020
 H203 H 0.08173 0.76201 0.71123
 C204 C 0.74248 -0.04086 0.75142
 C205 C 0.75160 -0.02998 0.71100
 C206 C 0.76275 -0.05838 0.68031
 C207 C 0.76444 -0.09992 0.69164
 C208 C 0.75474 -0.11233 0.73301
 C209 C 0.74339 -0.08224 0.76334
 O210 O 0.73446 -0.00857 0.77590
 C211 C 0.73859 0.02330 0.75023
 C212 C 0.74881 0.01161 0.71019
 C213 C 0.75582 0.03955 0.67828
 C214 C 0.75301 0.08144 0.68802
 C215 C 0.74358 0.09480 0.72923
 C216 C 0.73551 0.06511 0.76074
 H217 H 0.77021 -0.04887 0.64880
 H218 H 0.77294 -0.12245 0.66800
 H219 H 0.73618 -0.09069 0.79521
 H220 H 0.76393 0.02948 0.64705
 H221 H 0.75911 0.10350 0.66338
 H222 H 0.72874 0.07421 0.79249
 C223 C 0.74210 0.74356 -0.02607
 C224 C 0.77536 0.71942 -0.01758
 C225 C 0.80026 0.69949 -0.04779
 C226 C 0.79042 0.70447 -0.08859
 C227 C 0.75675 0.72966 -0.09841
 C228 C 0.73234 0.74985 -0.06677
 O229 O 0.72201 0.75873 0.00762
 C230 C 0.74329 0.74398 0.03783
 C231 C 0.77643 0.72010 0.02383
 C232 C 0.80362 0.70231 0.04971
 C233 C 0.79649 0.70950 0.09196
 C234 C 0.76219 0.73337 0.10743
 C235 C 0.73497 0.75069 0.08002
 H236 H 0.82612 0.68053 -0.04019
 H237 H 0.80941 0.68914 -0.11270
 H238 H 0.70634 0.76900 -0.07359
 H239 H 0.82959 0.68385 0.03778
 H240 H 0.81740 0.69601 0.11274
 H241 H 0.70879 0.76933 0.09113
 C242 C 0.52945 0.74353 0.76540
 C243 C 0.51555 0.77818 0.78635
 C244 C 0.54183 0.80526 0.80481
 C245 C 0.58434 0.79660 0.80102
 C246 C 0.59971 0.76177 0.77842
 C247 C 0.57166 0.73463 0.76075
 O248 O 0.49934 0.72229 0.74953
 C249 C 0.46575 0.74425 0.76043
 C250 C 0.47412 0.77893 0.78269
 C251 C 0.44403 0.80768 0.79514
 C252 C 0.40363 0.80040 0.78417
 C253 C 0.39401 0.76455 0.76186
 C254 C 0.42546 0.73581 0.75014
 H255 H 0.53010 0.83241 0.82103
 H256 H 0.60533 0.81784 0.81447
 H257 H 0.58239 0.70790 0.74319
 H258 H 0.45150 0.83504 0.81210
 H259 H 0.37968 0.82251 0.79338
 H260 H 0.41897 0.70852 0.73259
 C261 C 0.23855 -0.02688 0.75025
 C262 C 0.24876 -0.01519 0.71021
 C263 C 0.25573 -0.04313 0.67829
 C264 C 0.25290 -0.08502 0.68804
 C265 C 0.24348 -0.09838 0.72925
 C266 C 0.23544 -0.06870 0.76076
 O267 O 0.23445 0.00499 0.77592
 C268 C 0.24248 0.03727 0.75144
 C269 C 0.25158 0.02640 0.71102
 C270 C 0.26274 0.05480 0.68033
 C271 C 0.26447 0.09633 0.69165
 C272 C 0.25478 0.10874 0.73303
 C273 C 0.24343 0.07865 0.76337
 H274 H 0.26384 -0.03306 0.64707
 H275 H 0.25897 -0.10707 0.66339
 H276 H 0.22869 -0.07780 0.79251
 H277 H 0.27018 0.04529 0.64881
 H278 H 0.27297 0.11886 0.66802
 H279 H 0.23624 0.08710 0.79524
 C280 C 0.25184 0.75446 -0.03474
 C281 C 0.28984 0.73925 -0.02592
 C282 C 0.31935 0.72620 -0.05616
 C283 C 0.30932 0.72883 -0.09726
 C284 C 0.27063 0.74498 -0.10743
 C285 C 0.24152 0.75822 -0.07562
 O286 O 0.22804 0.76426 -0.00119
 C287 C 0.25166 0.75522 0.02936
 C288 C 0.28989 0.74016 0.01575
 C289 C 0.31994 0.72957 0.04225
 C290 C 0.31028 0.73473 0.08460
 C291 C 0.27087 0.74955 0.09967
 C292 C 0.24103 0.75977 0.07154
 H293 H 0.34895 0.71417 -0.04840
 H294 H 0.33197 0.71879 -0.12124
 H295 H 0.21166 0.77038 -0.08245
 H296 H 0.34988 0.71799 0.03072
 H297 H 0.33336 0.72669 0.10571
 H298 H 0.21085 0.77148 0.08213
 C299 C -0.03415 0.25221 0.76040
 C300 C -0.02579 0.21755 0.78271
 C301 C -0.05588 0.18882 0.79519
 C302 C -0.09628 0.19608 0.78422
 C303 C -0.10590 0.23192 0.76185
 C304 C -0.07444 0.26063 0.75009
 O305 O -0.00056 0.27414 0.74947
 C306 C 0.02955 0.25293 0.76537
 C307 C 0.01564 0.21830 0.78637
 C308 C 0.04192 0.19124 0.80486
 C309 C 0.08443 0.19988 0.80106
 C310 C 0.09981 0.23469 0.77841
 C311 C 0.07176 0.26182 0.76071
 H312 H -0.04841 0.16148 0.81219
 H313 H -0.12023 0.17399 0.79345
 H314 H -0.08093 0.28790 0.73251
 H315 H 0.03019 0.16412 0.82112
 H316 H 0.10542 0.17866 0.81454
 H317 H 0.08250 0.28852 0.74311
 C318 C 0.74625 0.52392 0.73848
 C319 C 0.72040 0.51313 0.70855
 C320 C 0.69955 0.54200 0.68627
 C321 C 0.70533 0.58375 0.69539
 C322 C 0.73160 0.59585 0.72639
 C323 C 0.75255 0.56527 0.74801
 O324 O 0.76253 0.49164 0.75648
 C325 C 0.74655 0.45979 0.73751
 C326 C 0.72056 0.47132 0.70795
 C327 C 0.69989 0.44302 0.68488
 C328 C 0.70620 0.40107 0.69259
 C329 C 0.73288 0.38816 0.72295
 C330 C 0.75343 0.41820 0.74562
 H331 H 0.67927 0.53271 0.66293
 H332 H 0.68904 0.60657 0.67847
 H333 H 0.77263 0.57330 0.77197
 H334 H 0.67945 0.45287 0.66189
 H335 H 0.69022 0.37869 0.67484
 H336 H 0.77382 0.40954 0.76911
 C337 C 0.75195 0.24190 -0.03476
 C338 C 0.78994 0.25711 -0.02595
 C339 C 0.81945 0.27017 -0.05619
 C340 C 0.80942 0.26755 -0.09728
 C341 C 0.77074 0.25140 -0.10746
 C342 C 0.74163 0.23815 -0.07564
 O343 O 0.72815 0.23209 -0.00122
 C344 C 0.75177 0.24112 0.02933
 C345 C 0.79000 0.25619 0.01572
 C346 C 0.82005 0.26678 0.04222
 C347 C 0.81039 0.26161 0.08457
 C348 C 0.77098 0.24679 0.09965
 C349 C 0.74114 0.23657 0.07152
 H350 H 0.84906 0.28220 -0.04842
 H351 H 0.83207 0.27760 -0.12127
 H352 H 0.71177 0.22599 -0.08248
 H353 H 0.84998 0.27837 0.03070
 H354 H 0.83346 0.26965 0.10568
 H355 H 0.71096 0.22486 0.08210
 C356 C 0.52971 0.24284 0.75531
 C357 C 0.51663 0.24845 0.79607
 C358 C 0.54359 0.24805 0.82742
 C359 C 0.58580 0.24208 0.81626
 C360 C 0.60025 0.23758 0.77431
 C361 C 0.57168 0.23788 0.74342
 O362 O 0.49895 0.24337 0.73048
 C363 C 0.46582 0.24978 0.75607
 C364 C 0.47500 0.25364 0.79650
 C365 C 0.44504 0.26183 0.82821
 C366 C 0.40388 0.26583 0.81786
 C367 C 0.39354 0.26066 0.77659
 C368 C 0.42501 0.25255 0.74528
 H369 H 0.53256 0.25227 0.85930
 H370 H 0.60739 0.24220 0.84017
 H371 H 0.58183 0.23440 0.71120
 H372 H 0.45306 0.26512 0.85975
 H373 H 0.37995 0.27188 0.84205
 H374 H 0.41794 0.24879 0.71349
 C375 C 0.24657 0.53662 0.73751
 C376 C 0.22059 0.52509 0.70794
 C377 C 0.19989 0.55339 0.68488
 C378 C 0.20618 0.59534 0.69260
 C379 C 0.23285 0.60825 0.72297
 C380 C 0.25342 0.57821 0.74563
 O381 O 0.26257 0.50477 0.75647
 C382 C 0.24630 0.47249 0.73845
 C383 C 0.22045 0.48328 0.70852
 C384 C 0.19961 0.45441 0.68624
 C385 C 0.20542 0.41266 0.69535
 C386 C 0.23169 0.40055 0.72635
 C387 C 0.25263 0.43114 0.74797
 H388 H 0.17946 0.54353 0.66189
 H389 H 0.19018 0.61771 0.67486
 H390 H 0.27380 0.58687 0.76912
 H391 H 0.17933 0.46370 0.66290
 H392 H 0.18913 0.38984 0.67843
 H393 H 0.27270 0.42311 0.77194
 C394 C 0.24222 0.25280 -0.02608
 C395 C 0.27547 0.27695 -0.01759
 C396 C 0.30035 0.29691 -0.04779
 C397 C 0.29051 0.29194 -0.08859
 C398 C 0.25685 0.26674 -0.09843
 C399 C 0.23246 0.24653 -0.06679
 O400 O 0.22214 0.23761 0.00760
 C401 C 0.24341 0.25236 0.03782
 C402 C 0.27653 0.27626 0.02381
 C403 C 0.30372 0.29405 0.04970
 C404 C 0.29659 0.28686 0.09195
 C405 C 0.26230 0.26296 0.10742
 C406 C 0.23509 0.24563 0.08000
 H407 H 0.32619 0.31588 -0.04020
 H408 H 0.30949 0.30729 -0.11271
 H409 H 0.20647 0.22737 -0.07361
 H410 H 0.32967 0.31253 0.03778
 H411 H 0.31748 0.30035 0.11274
 H412 H 0.20892 0.22698 0.09110
 C413 C -0.03427 0.74661 0.25610
 C414 C -0.02510 0.74273 0.29652
 C415 C -0.05506 0.73453 0.32823
 C416 C -0.09621 0.73053 0.31787
 C417 C -0.10656 0.73572 0.27660
 C418 C -0.07508 0.74384 0.24530
 O419 O -0.00114 0.75303 0.23051
 C420 C 0.02962 0.75354 0.25535
 C421 C 0.01653 0.74792 0.29610
 C422 C 0.04350 0.74830 0.32745
 C423 C 0.08571 0.75427 0.31629
 C424 C 0.10015 0.75879 0.27435
 C425 C 0.07159 0.75850 0.24345
 H426 H -0.04704 0.73123 0.35977
 H427 H -0.12015 0.72447 0.34206
 H428 H -0.08215 0.74762 0.21351
 H429 H 0.03246 0.74407 0.35933
 H430 H 0.10730 0.75413 0.34020
 H431 H 0.08173 0.76199 0.21123
 C432 C 0.74249 -0.04089 0.25145
 C433 C 0.75160 -0.03001 0.21102
 C434 C 0.76274 -0.05842 0.18033
 C435 C 0.76444 -0.09995 0.19166
 C436 C 0.75474 -0.11236 0.23303
 C437 C 0.74340 -0.08227 0.26337
 O438 O 0.73447 -0.00860 0.27592
 C439 C 0.73860 0.02327 0.25025
 C440 C 0.74882 0.01158 0.21021
 C441 C 0.75582 0.03952 0.17829
 C442 C 0.75301 0.08141 0.18803
 C443 C 0.74358 0.09477 0.22924
 C444 C 0.73552 0.06509 0.26075
 H445 H 0.77020 -0.04890 0.14882
 H446 H 0.77293 -0.12248 0.16802
 H447 H 0.73619 -0.09072 0.29524
 H448 H 0.76393 0.02944 0.14707
 H449 H 0.75910 0.10346 0.16339
 H450 H 0.72875 0.07419 0.29250
 C451 C 0.74328 0.74398 0.53783
 C452 C 0.77638 0.72005 0.52384
 C453 C 0.80355 0.70223 0.54973
 C454 C 0.79643 0.70944 0.59198
 C455 C 0.76216 0.73337 0.60744
 C456 C 0.73497 0.75072 0.58002
 O457 O 0.72203 0.75876 0.50761
 C458 C 0.74209 0.74354 0.47393
 C459 C 0.77532 0.71936 0.48243
 C460 C 0.80019 0.69939 0.45224
 C461 C 0.79037 0.70437 0.41143
 C462 C 0.75672 0.72960 0.40159
 C463 C 0.73235 0.74983 0.43323
 H464 H 0.82948 0.68372 0.53781
 H465 H 0.81730 0.69592 0.61277
 H466 H 0.70882 0.76941 0.59111
 H467 H 0.82602 0.68039 0.45984
 H468 H 0.80934 0.68901 0.38733
 H469 H 0.70637 0.76902 0.42640
 C470 C 0.52945 0.74348 0.26538
 C471 C 0.51554 0.77812 0.28637
 C472 C 0.54182 0.80518 0.30485
 C473 C 0.58433 0.79653 0.30104
 C474 C 0.59971 0.76172 0.27841
 C475 C 0.57166 0.73459 0.26072
 O476 O 0.49935 0.72226 0.24950
 C477 C 0.46575 0.74419 0.26042
 C478 C 0.47412 0.77886 0.28271
 C479 C 0.44402 0.80759 0.29519
 C480 C 0.40362 0.80032 0.28422
 C481 C 0.39400 0.76448 0.26187
 C482 C 0.42546 0.73576 0.25012
 H483 H 0.53009 0.83231 0.32110
 H484 H 0.60532 0.81776 0.31452
 H485 H 0.58240 0.70788 0.24314
 H486 H 0.45148 0.83494 0.31217
 H487 H 0.37967 0.82241 0.29344
 H488 H 0.41898 0.70849 0.23255
 C489 C 0.23855 -0.02693 0.25025
 C490 C 0.24878 -0.01524 0.21021
 C491 C 0.25575 -0.04318 0.17829
 C492 C 0.25292 -0.08507 0.18804
 C493 C 0.24349 -0.09843 0.22924
 C494 C 0.23545 -0.06875 0.26076
 O495 O 0.23445 0.00494 0.27592
 C496 C 0.24249 0.03722 0.25144
 C497 C 0.25159 0.02635 0.21102
 C498 C 0.26276 0.05475 0.18033
 C499 C 0.26448 0.09628 0.19166
 C500 C 0.25479 0.10869 0.23303
 C501 C 0.24343 0.07860 0.26336
 H502 H 0.26386 -0.03311 0.14707
 H503 H 0.25899 -0.10712 0.16339
 H504 H 0.22869 -0.07785 0.29251
 H505 H 0.27021 0.04524 0.14882
 H506 H 0.27299 0.11881 0.16802
 H507 H 0.23623 0.08705 0.29523
 C508 C 0.25166 0.75522 0.52936
 C509 C 0.28989 0.74016 0.51575
 C510 C 0.31994 0.72957 0.54226
 C511 C 0.31028 0.73476 0.58460
 C512 C 0.27087 0.74958 0.59967
 C513 C 0.24103 0.75979 0.57154
 O514 O 0.22804 0.76425 0.49881
 C515 C 0.25184 0.75444 0.46526
 C516 C 0.28983 0.73923 0.47408
 C517 C 0.31935 0.72617 0.44384
 C518 C 0.30932 0.72879 0.40275
 C519 C 0.27063 0.74494 0.39257
 C520 C 0.24152 0.75819 0.42438
 H521 H 0.34988 0.71799 0.53074
 H522 H 0.33336 0.72672 0.60572
 H523 H 0.21085 0.77150 0.58212
 H524 H 0.34895 0.71414 0.45161
 H525 H 0.33197 0.71876 0.37876
 H526 H 0.21166 0.77035 0.41754
 C527 C -0.03416 0.25217 0.26040
 C528 C -0.02579 0.21751 0.28271
 C529 C -0.05589 0.18878 0.29520
 C530 C -0.09629 0.19605 0.28422
 C531 C -0.10590 0.23188 0.26186
 C532 C -0.07445 0.26059 0.25010
 O533 O -0.00056 0.27410 0.24947
 C534 C 0.02954 0.25288 0.26536
 C535 C 0.01564 0.21825 0.28637
 C536 C 0.04191 0.19120 0.30487
 C537 C 0.08442 0.19984 0.30106
 C538 C 0.09981 0.23463 0.27840
 C539 C 0.07176 0.26176 0.26070
 H540 H -0.04842 0.16144 0.31219
 H541 H -0.12023 0.17396 0.29345
 H542 H -0.08093 0.28786 0.23251
 H543 H 0.03018 0.16408 0.32113
 H544 H 0.10541 0.17861 0.31455
 H545 H 0.08250 0.28847 0.24310
 C546 C 0.74626 0.52389 0.23846
 C547 C 0.72040 0.51310 0.20854
 C548 C 0.69954 0.54197 0.18627
 C549 C 0.70533 0.58372 0.19539
 C550 C 0.73161 0.59582 0.22638
 C551 C 0.75256 0.56524 0.24799
 O552 O 0.76255 0.49160 0.25646
 C553 C 0.74655 0.45976 0.23750
 C554 C 0.72056 0.47129 0.20794
 C555 C 0.69988 0.44299 0.18488
 C556 C 0.70619 0.40103 0.19259
 C557 C 0.73288 0.38813 0.22294
 C558 C 0.75343 0.41817 0.24560
 H559 H 0.67925 0.53268 0.16293
 H560 H 0.68902 0.60654 0.17847
 H561 H 0.77264 0.57327 0.27195
 H562 H 0.67943 0.45284 0.16190
 H563 H 0.69020 0.37866 0.17485
 H564 H 0.77382 0.40951 0.26909
 C565 C 0.75177 0.24116 0.52933
 C566 C 0.79000 0.25621 0.51572
 C567 C 0.82006 0.26679 0.54222
 C568 C 0.81040 0.26163 0.58457
 C569 C 0.77098 0.24682 0.59965
 C570 C 0.74114 0.23661 0.57152
 O571 O 0.72814 0.23213 0.49879
 C572 C 0.75194 0.24192 0.46524
 C573 C 0.78994 0.25712 0.47405
 C574 C 0.81946 0.27016 0.44380
 C575 C 0.80943 0.26753 0.40271
 C576 C 0.77074 0.25139 0.39254
 C577 C 0.74163 0.23816 0.42436
 H578 H 0.84999 0.27837 0.53069
 H579 H 0.83347 0.26967 0.60568
 H580 H 0.71095 0.22491 0.58210
 H581 H 0.84907 0.28218 0.45157
 H582 H 0.83209 0.27755 0.37872
 H583 H 0.71176 0.22601 0.41753
 C584 C 0.52971 0.24280 0.25532
 C585 C 0.51663 0.24841 0.29608
 C586 C 0.54359 0.24801 0.32743
 C587 C 0.58580 0.24204 0.31627
 C588 C 0.60025 0.23754 0.27432
 C589 C 0.57168 0.23784 0.24343
 O590 O 0.49896 0.24333 0.23048
 C591 C 0.46582 0.24974 0.25607
 C592 C 0.47500 0.25359 0.29650
 C593 C 0.44503 0.26178 0.32821
 C594 C 0.40388 0.26577 0.31785
 C595 C 0.39354 0.26061 0.27658
 C596 C 0.42502 0.25250 0.24527
 H597 H 0.53255 0.25223 0.35931
 H598 H 0.60739 0.24217 0.34018
 H599 H 0.58183 0.23437 0.21121
 H600 H 0.45305 0.26506 0.35975
 H601 H 0.37995 0.27182 0.34204
 H602 H 0.41794 0.24874 0.21348
 C603 C 0.24655 0.53657 0.23751
 C604 C 0.22057 0.52504 0.20795
 C605 C 0.19988 0.55334 0.18488
 C606 C 0.20617 0.59530 0.19260
 C607 C 0.23284 0.60820 0.22297
 C608 C 0.25340 0.57817 0.24563
 O609 O 0.26256 0.50473 0.25647
 C610 C 0.24629 0.47244 0.23846
 C611 C 0.22044 0.48323 0.20853
 C612 C 0.19960 0.45436 0.18625
 C613 C 0.20540 0.41261 0.19536
 C614 C 0.23168 0.40051 0.22636
 C615 C 0.25262 0.43109 0.24798
 H616 H 0.17945 0.54349 0.16189
 H617 H 0.19017 0.61767 0.17486
 H618 H 0.27379 0.58682 0.26912
 H619 H 0.17931 0.46365 0.16291
 H620 H 0.18912 0.38979 0.17844
 H621 H 0.27269 0.42306 0.27195
 C622 C 0.24340 0.25235 0.53782
 C623 C 0.27653 0.27623 0.52381
 C624 C 0.30372 0.29402 0.54969
 C625 C 0.29659 0.28685 0.59195
 C626 C 0.26229 0.26297 0.60742
 C627 C 0.23507 0.24564 0.58001
 O628 O 0.22212 0.23761 0.50761
 C629 C 0.24221 0.25278 0.47392
 C630 C 0.27547 0.27691 0.48240
 C631 C 0.30037 0.29685 0.45220
 C632 C 0.29053 0.29188 0.41140
 C633 C 0.25685 0.26670 0.40157
 C634 C 0.23245 0.24650 0.43321
 H635 H 0.32969 0.31249 0.53777
 H636 H 0.31749 0.30034 0.61273
 H637 H 0.20890 0.22701 0.59111
 H638 H 0.32622 0.31581 0.45979
 H639 H 0.30952 0.30721 0.38728
 H640 H 0.20645 0.22736 0.42640
   
