data_POSCAR
  _audit_creation_date              2014-09-24
  _audit_creation_method            'ToBaCCo'
  _symmetry_space_group_name_H-M    'P1'
  _symmetry_Int_Tables_number       1
  _symmetry_cell_setting            triclinic
  loop_
  _symmetry_equiv_pos_as_xyz
 x,y,z
_cell_length_a 49.5175
_cell_length_b 28.9492
_cell_length_c 16.6273
_cell_angle_alpha 89.988800
_cell_angle_beta 89.991000
_cell_angle_gamma 90.004500
loop_
  _atom_site_label
  _atom_site_type_symbol
  _atom_site_fract_x
  _atom_site_fract_y
  _atom_site_fract_z
C1 C 0.72806 0.26778 0.54200
 C2 C 0.73048 0.27432 0.45759
 C3 C 0.75313 0.25712 0.41697
 C4 C 0.77336 0.23165 0.45654
 C5 C 0.77138 0.22550 0.54168
 C6 C 0.74826 0.24223 0.58183
 H7 H 0.74745 0.23971 0.64681
 H8 H 0.75362 0.26024 0.35199
 C9 C 0.22757 0.76540 0.54323
 C10 C 0.22876 0.76932 0.45857
 C11 C 0.25116 0.75151 0.41750
 C12 C 0.27230 0.72936 0.45843
 C13 C 0.27141 0.72567 0.54388
 C14 C 0.24856 0.74307 0.58440
 H15 H 0.24775 0.74213 0.64954
 H16 H 0.25161 0.75320 0.35234
 C17 C 0.27141 0.26935 -0.54319
 C18 C 0.26959 0.27500 -0.45913
 C19 C 0.24691 0.25817 -0.41824
 C20 C 0.22616 0.23393 -0.45831
 C21 C 0.22786 0.22868 -0.54394
 C22 C 0.25093 0.24572 -0.58405
 H23 H 0.25218 0.24384 -0.64907
 H24 H 0.24665 0.26099 -0.35322
 C25 C -0.23110 0.77702 -0.54257
 C26 C -0.22947 0.77224 -0.45833
 C27 C -0.25018 0.74943 -0.41705
 C28 C -0.27292 0.73120 -0.45716
 C29 C -0.27420 0.73486 -0.54309
 C30 C -0.25335 0.75864 -0.58354
 H31 H -0.25355 0.76110 -0.64861
 H32 H -0.24897 0.74792 -0.35200
 O33 O -0.03788 0.92211 0.15061
 O34 O -0.06750 0.96184 0.06992
 C35 C -0.06204 0.93365 0.12815
 O36 O 0.03780 1.08471 0.13913
 O37 O 0.06777 1.04001 0.06785
 C38 C 0.06205 1.07225 0.11914
 O39 O -0.03791 1.08116 0.14444
 O40 O -0.06751 1.03907 0.06742
 C41 C -0.06205 1.06894 0.12301
 O42 O 0.03767 0.91692 0.14334
 O43 O 0.06771 0.96029 0.06977
 C44 C 0.06196 0.92900 0.12282
 Zr45 Zr -0.00010 0.94175 0.10151
 O46 O 0.00066 0.93557 0.22817
 O47 O -0.00126 0.86914 0.08916
 Zr48 Zr -0.00001 1.05875 0.09979
 O49 O 0.00231 1.05988 0.22693
 O50 O -0.00290 1.13171 0.09661
 O51 O -0.02408 1.00043 0.11597
 O52 O 0.02329 1.00033 0.11635
 O53 O 0.03848 0.91445 -0.13770
 O54 O 0.06810 0.95938 -0.06546
 C55 C 0.06264 0.92711 -0.11698
 O56 O -0.03708 1.07951 -0.15015
 O57 O -0.06712 1.03835 -0.07305
 C58 C -0.06135 1.06774 -0.12916
 O59 O 0.03843 1.08312 -0.14193
 O60 O 0.06792 1.03939 -0.06734
 C61 C 0.06255 1.07086 -0.12032
 O62 O -0.03706 0.91841 -0.14770
 O63 O -0.06714 0.96058 -0.07235
 C64 C -0.06133 0.93066 -0.12765
 Zr65 Zr 0.00049 0.94059 -0.10054
 O66 O 0.00382 0.93904 -0.22744
 O67 O -0.00219 0.86763 -0.09657
 Zr68 Zr 0.00054 1.05740 -0.10308
 O69 O 0.00384 1.05637 -0.23004
 O70 O -0.00235 1.13038 -0.10340
 Zr71 Zr -0.04024 0.99975 -0.00152
 Zr72 Zr 0.04049 0.99968 0.00068
 O73 O 0.02399 0.99887 -0.11596
 O74 O -0.02355 0.99894 -0.11828
 O75 O 0.02445 0.93225 0.00142
 O76 O -0.02328 1.06647 -0.00236
 O77 O -0.02361 0.93287 0.00024
 O78 O 0.02444 1.06713 -0.00120
 H79 H 0.03528 1.00072 0.16402
 H80 H -0.03542 1.09368 -0.00311
 H81 H 0.03623 0.99853 -0.16309
 H82 H -0.03601 0.90600 0.00080
 H83 H 0.01281 1.14346 0.06608
 H84 H 0.01294 1.14254 -0.07148
 H85 H -0.01134 1.03775 -0.25107
 H86 H -0.01048 0.95926 -0.24940
 H87 H 0.01217 0.85649 -0.05998
 H88 H -0.00178 0.85657 0.14456
 H89 H 0.00273 0.96710 0.24991
 H90 H -0.01279 1.04095 0.24783
 O91 O 0.46336 0.41695 0.14544
 O92 O 0.43327 0.45881 0.06969
 C93 C 0.43908 0.42893 0.12503
 O94 O 0.53862 0.58169 0.14111
 O95 O 0.56831 0.53853 0.06607
 C96 C 0.56280 0.56970 0.11947
 O97 O 0.46293 0.57752 0.14929
 O98 O 0.43307 0.53643 0.07147
 C99 C 0.43871 0.56556 0.12810
 O100 O 0.53874 0.41315 0.13640
 O101 O 0.56823 0.45842 0.06456
 C102 C 0.56285 0.42604 0.11588
 Zr103 Zr 0.50093 0.43927 0.09827
 O104 O 0.50379 0.43536 0.22509
 O105 O 0.49983 0.36661 0.08646
 Zr106 Zr 0.50067 0.55615 0.10194
 O107 O 0.50388 0.55528 0.22891
 O108 O 0.49757 0.62910 0.10226
 O109 O 0.47675 0.49740 0.11641
 O110 O 0.52423 0.49773 0.11451
 O111 O 0.53846 0.41559 -0.14322
 O112 O 0.56829 0.45999 -0.07073
 C113 C 0.56269 0.42815 -0.12291
 O114 O 0.46237 0.58009 -0.14606
 O115 O 0.43279 0.53771 -0.06938
 C116 C 0.43824 0.56774 -0.12480
 O117 O 0.53797 0.58456 -0.13948
 O118 O 0.56806 0.53986 -0.06862
 C119 C 0.56225 0.57225 -0.11957
 O120 O 0.46274 0.41939 -0.15040
 O121 O 0.43299 0.46014 -0.07163
 C122 C 0.43855 0.43118 -0.12862
 Zr123 Zr 0.50054 0.44126 -0.10417
 O124 O 0.50336 0.44234 -0.23122
 O125 O 0.49814 0.36826 -0.10470
 Zr126 Zr 0.50023 0.55798 -0.10091
 O127 O 0.50303 0.55945 -0.22795
 O128 O 0.49701 0.63090 -0.09742
 Zr129 Zr 0.46013 0.49842 -0.00041
 Zr130 Zr 0.54085 0.49908 -0.00193
 O131 O 0.52380 0.49994 -0.11783
 O132 O 0.47623 0.49959 -0.11790
 O133 O 0.52496 0.43159 -0.00353
 O134 O 0.47686 0.56528 0.00117
 O135 O 0.47706 0.43175 -0.00267
 O136 O 0.52458 0.56636 0.00031
 H137 H 0.53637 0.49730 0.16187
 H138 H 0.46461 0.59233 0.00206
 H139 H 0.53587 0.50041 -0.16534
 H140 H 0.46488 0.40459 -0.00319
 H141 H 0.51316 0.64145 0.07193
 H142 H 0.51246 0.64273 -0.06586
 H143 H 0.48827 0.54003 -0.24942
 H144 H 0.48834 0.46157 -0.25162
 H145 H 0.51155 0.35673 -0.06539
 H146 H 0.49990 0.35409 0.14192
 H147 H 0.49074 0.45779 0.24743
 H148 H 0.48898 0.53595 0.24982
 C149 C 0.32046 0.35763 0.37318
 C150 C 0.33623 0.33032 0.32206
 C151 C 0.33054 0.28315 0.31387
 C152 C 0.30928 0.26331 0.35719
 C153 C 0.29363 0.29044 0.40948
 C154 C 0.29921 0.33787 0.41642
 C155 C 0.35833 0.35078 0.27855
 C156 C 0.37684 0.36834 0.24275
 C157 C 0.39852 0.38927 0.20142
 C158 C 0.41704 0.40733 0.16644
 H159 H 0.32461 0.39419 0.37974
 H160 H 0.34261 0.26172 0.27437
 H161 H 0.30526 0.22671 0.35090
 H162 H 0.28712 0.35955 0.45545
 C163 C -0.18074 0.86630 0.38399
 C164 C -0.16683 0.84114 0.32516
 C165 C -0.17452 0.79567 0.30799
 C166 C -0.19579 0.77519 0.35017
 C167 C -0.20950 0.79992 0.41026
 C168 C -0.20206 0.84586 0.42617
 C169 C -0.14440 0.86159 0.28313
 C170 C -0.12550 0.87826 0.24787
 C171 C -0.10330 0.89748 0.20644
 C172 C -0.08439 0.91389 0.17084
 H173 H -0.17499 0.90156 0.39760
 H174 H -0.16391 0.77591 0.26257
 H175 H -0.20121 0.73972 0.33715
 H176 H -0.21257 0.86563 0.47175
 C177 C 0.67452 0.71310 0.29602
 C178 C 0.66528 0.66910 0.31701
 C179 C 0.67668 0.64611 0.38270
 C180 C 0.69690 0.66735 0.42824
 C181 C 0.70583 0.71244 0.40960
 C182 C 0.69474 0.73447 0.34138
 C183 C 0.64370 0.64795 0.27218
 C184 C 0.62538 0.63035 0.23552
 C185 C 0.60371 0.60967 0.19373
 C186 C 0.58508 0.59170 0.15915
 H187 H 0.66583 0.73122 0.24521
 H188 H 0.66990 0.61176 0.39891
 H189 H 0.70577 0.64815 0.47748
 H190 H 0.70077 0.76917 0.32498
 C191 C 0.15819 1.20367 0.37983
 C192 C 0.16384 1.17432 0.31523
 C193 C 0.19064 1.16421 0.29561
 C194 C 0.21174 1.18264 0.34127
 C195 C 0.20639 1.21108 0.40843
 C196 C 0.17922 1.22217 0.42567
 C197 C 0.14213 1.15362 0.27039
 C198 C 0.12392 1.13567 0.23386
 C199 C 0.10251 1.11406 0.19237
 C200 C 0.08412 1.09517 0.15819
 H201 H 0.13749 1.21215 0.39500
 H202 H 0.19525 1.14147 0.24570
 H203 H 0.23222 1.17285 0.32599
 H204 H 0.17417 1.24569 0.47401
 C205 C 0.67662 0.35270 -0.38417
 C206 C 0.66503 0.32831 -0.32040
 C207 C 0.67457 0.28422 -0.30117
 C208 C 0.69544 0.26435 -0.34609
 C209 C 0.70696 0.28805 -0.41202
 C210 C 0.69746 0.33299 -0.42919
 C211 C 0.64328 0.34866 -0.27515
 C212 C 0.62496 0.36621 -0.23842
 C213 C 0.60339 0.38731 -0.19677
 C214 C 0.58486 0.40574 -0.16238
 H215 H 0.66967 0.38718 -0.39886
 H216 H 0.66573 0.26500 -0.25182
 H217 H 0.70181 0.22965 -0.33086
 H218 H 0.70668 0.35377 -0.47580
 C219 C 0.17877 0.85369 -0.37186
 C220 C 0.16405 0.82679 -0.31730
 C221 C 0.17012 0.77984 -0.30826
 C222 C 0.19079 0.75983 -0.35373
 C223 C 0.20549 0.78656 -0.40904
 C224 C 0.19945 0.83376 -0.41728
 C225 C 0.14263 0.84740 -0.27116
 C226 C 0.12458 0.86505 -0.23347
 C227 C 0.10327 0.88617 -0.19080
 C228 C 0.08485 0.90462 -0.15600
 H229 H 0.17428 0.89008 -0.37918
 H230 H 0.15885 0.75871 -0.26622
 H231 H 0.19520 0.72343 -0.34635
 H232 H 0.21083 0.85515 -0.45860
 C233 C 0.30873 0.65924 -0.29822
 C234 C 0.33553 0.66730 -0.32065
 C235 C 0.34117 0.69579 -0.38637
 C236 C 0.32013 0.71556 -0.43044
 C237 C 0.29291 0.70666 -0.41034
 C238 C 0.28760 0.67898 -0.34216
 C239 C 0.35728 0.64604 -0.27683
 C240 C 0.37566 0.62812 -0.24099
 C241 C 0.39733 0.60707 -0.19989
 C242 C 0.41596 0.58910 -0.16536
 H243 H 0.30414 0.63726 -0.24727
 H244 H 0.36188 0.70287 -0.40349
 H245 H 0.32530 0.73884 -0.47896
 H246 H 0.26709 0.67083 -0.32459
 C247 C -0.15886 1.19960 -0.38425
 C248 C -0.16432 1.16894 -0.32142
 C249 C -0.19108 1.15860 -0.30141
 C250 C -0.21233 1.17799 -0.34535
 C251 C -0.20713 1.20752 -0.41117
 C252 C -0.18001 1.21901 -0.42830
 C253 C -0.14240 1.14740 -0.27876
 C254 C -0.12388 1.12916 -0.24408
 C255 C -0.10209 1.10770 -0.20416
 C256 C -0.08346 1.08940 -0.17013
 H257 H -0.13821 1.20835 -0.39954
 H258 H -0.19553 1.13494 -0.25268
 H259 H -0.23278 1.16800 -0.33011
 H260 H -0.17508 1.24338 -0.47547
 C261 C 0.65746 0.70488 -0.38168
 C262 C 0.66326 0.67634 -0.31608
 C263 C 0.69011 0.66727 -0.29557
 C264 C 0.71112 0.68591 -0.34133
 C265 C 0.70565 0.71352 -0.40946
 C266 C 0.67842 0.72360 -0.42764
 C267 C 0.64170 0.65529 -0.27111
 C268 C 0.62365 0.63696 -0.23437
 C269 C 0.60246 0.61485 -0.19267
 C270 C 0.58422 0.59556 -0.15842
 H271 H 0.63672 0.71254 -0.39757
 H272 H 0.69483 0.64516 -0.24490
 H273 H 0.73165 0.67686 -0.32534
 H274 H 0.67327 0.74644 -0.47686
 C275 C 0.17450 1.21403 -0.29766
 C276 C 0.16529 1.16980 -0.31733
 C277 C 0.17682 1.14612 -0.38208
 C278 C 0.19712 1.16687 -0.42797
 C279 C 0.20604 1.21213 -0.41067
 C280 C 0.19481 1.23491 -0.34339
 C281 C 0.14366 1.14902 -0.27219
 C282 C 0.12531 1.13157 -0.23549
 C283 C 0.10359 1.11090 -0.19386
 C284 C 0.08490 1.09290 -0.15955
 H285 H 0.16571 1.23268 -0.24758
 H286 H 0.17007 1.11160 -0.39726
 H287 H 0.20608 1.14711 -0.47636
 H288 H 0.20084 1.26977 -0.32801
 C289 C 0.30847 0.35270 -0.31668
 C290 C 0.33472 0.33530 -0.32497
 C291 C 0.33956 0.29772 -0.37589
 C292 C 0.31831 0.27781 -0.41885
 C293 C 0.29198 0.29553 -0.41186
 C294 C 0.28716 0.33281 -0.35973
 C295 C 0.35679 0.35608 -0.28184
 C296 C 0.37547 0.37329 -0.24634
 C297 C 0.39747 0.39334 -0.20524
 C298 C 0.41627 0.41052 -0.17028
 H299 H 0.30451 0.38174 -0.27734
 H300 H 0.35976 0.28387 -0.38251
 H301 H 0.32238 0.24863 -0.45776
 H302 H 0.26701 0.34689 -0.35342
 C303 C -0.15851 0.79745 -0.38457
 C304 C -0.16358 0.83072 -0.32530
 C305 C -0.19017 0.84393 -0.30837
 C306 C -0.21160 0.82435 -0.35106
 C307 C -0.20665 0.79149 -0.41142
 C308 C -0.17995 0.77778 -0.42727
 C309 C -0.14153 0.85176 -0.28243
 C310 C -0.12317 0.86973 -0.24661
 C311 C -0.10170 0.89100 -0.20485
 C312 C -0.08333 0.90918 -0.16942
 H313 H -0.13801 0.78690 -0.39802
 H314 H -0.19431 0.86962 -0.26262
 H315 H -0.23204 0.83537 -0.33804
 H316 H -0.17575 0.75214 -0.47301
 C317 C 0.31941 0.63788 0.37515
 C318 C 0.33499 0.66386 0.32137
 C319 C 0.32937 0.71083 0.31005
 C320 C 0.30857 0.73195 0.35344
 C321 C 0.29335 0.70634 0.40910
 C322 C 0.29860 0.65893 0.41851
 C323 C 0.35710 0.64257 0.27919
 C324 C 0.37577 0.62482 0.24447
 C325 C 0.39774 0.60413 0.20417
 C326 C 0.41649 0.58650 0.16966
 H327 H 0.32352 0.60148 0.38415
 H328 H 0.34128 0.73122 0.26848
 H329 H 0.30478 0.76849 0.34519
 H330 H 0.28685 0.63847 0.46035
 C331 C -0.17433 1.21134 0.29794
 C332 C -0.16566 1.16675 0.31737
 C333 C -0.17794 1.14284 0.38056
 C334 C -0.19839 1.16378 0.42549
 C335 C -0.20668 1.20947 0.40882
 C336 C -0.19480 1.23242 0.34273
 C337 C -0.14372 1.14588 0.27379
 C338 C -0.12512 1.12840 0.23833
 C339 C -0.10318 1.10786 0.19772
 C340 C -0.08438 1.09020 0.16349
 H341 H -0.16496 1.23014 0.24898
 H342 H -0.17161 1.10804 0.39545
 H343 H -0.20787 1.14392 0.47290
 H344 H -0.20037 1.26758 0.32786
 C345 C 0.69198 0.34776 0.30747
 C346 C 0.66592 0.32941 0.31419
 C347 C 0.66103 0.29260 0.36682
 C348 C 0.68206 0.27443 0.41306
 C349 C 0.70818 0.29320 0.40766
 C350 C 0.71305 0.32964 0.35372
 C351 C 0.64406 0.34898 0.26849
 C352 C 0.62561 0.36576 0.23132
 C353 C 0.60387 0.38597 0.18928
 C354 C 0.58519 0.40386 0.15485
 H355 H 0.69598 0.37627 0.26695
 H356 H 0.64094 0.27810 0.37240
 H357 H 0.67797 0.24587 0.45335
 H358 H 0.73305 0.34446 0.34848
 C359 C 0.15879 0.79347 0.37581
 C360 C 0.16411 0.82946 0.32182
 C361 C 0.19060 0.84543 0.31193
 C362 C 0.21166 0.82568 0.35616
 C363 C 0.20641 0.78992 0.41111
 C364 C 0.17983 0.77367 0.42001
 C365 C 0.14235 0.85027 0.27724
 C366 C 0.12405 0.86786 0.24053
 C367 C 0.10251 0.88875 0.19841
 C368 C 0.08403 0.90690 0.16333
 H369 H 0.13839 0.78075 0.38380
 H370 H 0.19495 0.87326 0.27032
 H371 H 0.23201 0.83866 0.34833
 H372 H 0.17539 0.74565 0.46111
   
