data_POSCAR
  _audit_creation_date              2014-09-24
  _audit_creation_method            'ToBaCCo'
  _symmetry_space_group_name_H-M    'P1'
  _symmetry_Int_Tables_number       1
  _symmetry_cell_setting            triclinic
  loop_
  _symmetry_equiv_pos_as_xyz
 x,y,z
_cell_length_a 26.2183
_cell_length_b 27.5745
_cell_length_c 31.4424
_cell_angle_alpha 90.595300
_cell_angle_beta 90.078000
_cell_angle_gamma 90.072700
loop_
  _atom_site_label
  _atom_site_type_symbol
  _atom_site_fract_x
  _atom_site_fract_y
  _atom_site_fract_z
B1 B 0.27602 0.23375 0.21040
 B2 B 0.27780 0.29369 0.22214
 B3 B 0.22189 0.26739 0.20783
 B4 B 0.22056 0.21059 0.22847
 B5 B 0.27603 0.20279 0.25607
 B6 B 0.31127 0.25463 0.25176
 B7 B 0.22416 0.27780 0.29376
 B8 B 0.22246 0.21794 0.28184
 B9 B 0.27822 0.24412 0.29635
 B10 B 0.27968 0.30104 0.27567
 B11 B 0.22418 0.30889 0.24802
 B12 B 0.18895 0.25698 0.25244
 B13 B 0.72611 0.77302 0.20591
 B14 B 0.71782 0.71559 0.22038
 B15 B 0.77645 0.73388 0.20738
 B16 B 0.78302 0.79252 0.22427
 B17 B 0.72728 0.80824 0.24947
 B18 B 0.68718 0.75964 0.24676
 B19 B 0.77041 0.73339 0.29312
 B20 B 0.77811 0.79126 0.27770
 B21 B 0.71966 0.77110 0.29173
 B22 B 0.71323 0.71327 0.27431
 B23 B 0.76839 0.69786 0.24968
 B24 B 0.80911 0.74606 0.25160
 B25 B 0.73237 0.22025 -0.21111
 B26 B 0.71306 0.27659 -0.22080
 B27 B 0.77309 0.26799 -0.20447
 B28 B 0.79386 0.21484 -0.22629
 B29 B 0.74568 0.19245 -0.25725
 B30 B 0.69548 0.23141 -0.25372
 B31 B 0.77444 0.28010 -0.28943
 B32 B 0.79372 0.22366 -0.27974
 B33 B 0.73348 0.23262 -0.29604
 B34 B 0.71294 0.28558 -0.27414
 B35 B 0.76112 0.30788 -0.24334
 B36 B 0.81148 0.26906 -0.24666
 B37 B 0.27707 0.77527 -0.28544
 B38 B 0.21832 0.79515 -0.27287
 B39 B 0.22666 0.73734 -0.28990
 B40 B 0.28274 0.71703 -0.26975
 B41 B 0.30728 0.76295 -0.23972
 B42 B 0.26747 0.81167 -0.24213
 B43 B 0.21517 0.73671 -0.20447
 B44 B 0.27476 0.71790 -0.21608
 B45 B 0.26612 0.77539 -0.19965
 B46 B 0.21044 0.79560 -0.21965
 B47 B 0.18610 0.74976 -0.24968
 B48 B 0.22635 0.70108 -0.24760
 B49 B 1.22213 1.26211 0.79583
 B50 B 1.28063 1.28179 0.78511
 B51 B 1.27186 1.22276 0.78992
 B52 B 1.21415 1.20804 0.76991
 B53 B 1.18802 1.25980 0.75086
 B54 B 1.22984 1.30664 0.76084
 B55 B 1.27527 1.24291 0.70561
 B56 B 1.21704 1.22079 0.71744
 B57 B 1.22561 1.28138 0.71212
 B58 B 1.28356 1.29604 0.73237
 B59 B 1.30943 1.24416 0.75078
 B60 B 1.26871 1.19777 0.74143
 B61 B 0.78471 0.73565 0.79041
 B62 B 0.72486 0.71575 0.78226
 B63 B 0.73353 0.77302 0.79871
 B64 B 0.78723 0.79456 0.77574
 B65 B 0.80996 0.74962 0.74325
 B66 B 0.77062 0.70081 0.74776
 B67 B 0.71514 0.77453 0.71381
 B68 B 0.77504 0.79524 0.72296
 B69 B 0.76543 0.73764 0.70567
 B70 B 0.71200 0.71583 0.72919
 B71 B 0.68923 0.76050 0.76104
 B72 B 0.72814 0.81007 0.75691
 B73 B 1.23458 0.73029 0.20201
 B74 B 1.29425 0.72106 0.21921
 B75 B 1.27576 0.77760 0.20874
 B76 B 1.21409 0.78385 0.22303
 B77 B 1.19567 0.73000 0.24350
 B78 B 1.24565 0.69067 0.24131
 B79 B 1.27292 0.76659 0.29381
 B80 B 1.21302 0.77557 0.27650
 B81 B 1.23166 0.71905 0.28699
 B82 B 1.29360 0.71298 0.27269
 B83 B 1.31189 0.76693 0.25198
 B84 B 1.26193 0.80628 0.25438
 B85 B 0.76878 1.27724 0.29770
 B86 B 0.78606 1.22105 0.28378
 B87 B 0.72442 1.23188 0.29441
 B88 B 0.71036 1.28834 0.27638
 B89 B 0.76436 1.31066 0.25391
 B90 B 0.81161 1.26870 0.25840
 B91 B 0.73594 1.22888 0.20941
 B92 B 0.71910 1.28509 0.22262
 B93 B 0.78055 1.27459 0.21259
 B94 B 0.79452 1.21808 0.23030
 B95 B 0.74052 1.19570 0.25313
 B96 B 0.69342 1.23778 0.24871
 N97 N 0.59647 1.05236 0.04454
 N98 N 0.63579 1.08077 0.05313
 N99 N 0.55794 0.95322 0.07841
 N100 N 0.56775 0.92010 0.10748
 N101 N 0.59316 0.95208 0.04880
 N102 N 0.62789 0.91906 0.05679
 N103 N 0.56176 1.05552 0.07453
 N104 N 0.57631 1.08716 0.10393
 C105 C 0.62231 1.10283 0.08987
 C106 C 0.61148 0.89908 0.09314
 N107 N 0.41054 0.95799 0.05023
 N108 N 0.37329 0.92796 0.05986
 N109 N 0.45075 1.05943 0.07513
 N110 N 0.44002 1.09264 0.10429
 N111 N 0.41497 1.05849 0.04581
 N112 N 0.37884 1.09037 0.05460
 N113 N 0.44659 0.95754 0.07925
 N114 N 0.43489 0.92657 0.10942
 Mn115 Mn 0.50424 1.00635 0.07743
 C116 C 0.38917 0.90837 0.09664
 C117 C 0.39530 1.11197 0.09084
 N118 N 0.59226 0.94519 -0.04112
 N119 N 0.62958 0.91439 -0.04844
 N120 N 0.55925 1.04380 -0.07625
 N121 N 0.57221 1.07184 -0.10823
 N122 N 0.59466 1.04546 -0.04663
 N123 N 0.63275 1.07384 -0.05783
 N124 N 0.55664 0.94173 -0.07043
 N125 N 0.56908 0.90756 -0.09852
 Mn126 Mn 0.59404 0.99900 0.00138
 C127 C 0.61447 0.89060 -0.08378
 C128 C 0.61788 1.09057 -0.09599
 N129 N 0.41377 1.05143 -0.04531
 N130 N 0.37717 1.08174 -0.05603
 N131 N 0.44446 0.94519 -0.06962
 N132 N 0.43117 0.91046 -0.09680
 N133 N 0.40902 0.95070 -0.04046
 N134 N 0.37069 0.92053 -0.04719
 N135 N 0.44792 1.04727 -0.07571
 N136 N 0.43523 1.07522 -0.10791
 Mn137 Mn 0.41202 1.00477 0.00255
 Mn138 Mn 0.50203 0.99430 -0.07362
 Cl139 Cl 0.50305 1.00120 0.00190
 C140 C 0.39139 1.09699 -0.09482
 C141 C 0.38523 0.89522 -0.08205
 N142 N 1.09155 0.56038 0.54512
 N143 N 1.12949 0.59115 0.55222
 N144 N 1.05239 0.46310 0.58047
 N145 N 1.06464 0.43446 0.61233
 N146 N 1.08676 0.45945 0.55022
 N147 N 1.12294 0.42853 0.56055
 N148 N 1.05620 0.56483 0.57451
 N149 N 1.06899 0.59912 0.60205
 C150 C 1.11454 0.61550 0.58761
 C151 C 1.10841 0.41272 0.59911
 N152 N 0.90494 0.46673 0.55238
 N153 N 0.86803 0.43646 0.56245
 N154 N 0.94477 0.56931 0.57579
 N155 N 0.93327 0.60330 0.60425
 N156 N 0.90942 0.56751 0.54616
 N157 N 0.87351 0.59989 0.55346
 N158 N 0.94101 0.46712 0.58140
 N159 N 0.92972 0.43641 0.61192
 Mn160 Mn 0.99858 0.51612 0.57862
 C161 C 0.88422 0.41747 0.59941
 C162 C 0.88941 0.62290 0.58905
 N163 N 1.08503 0.45173 0.45928
 N164 N 1.12138 0.42017 0.45021
 N165 N 1.05286 0.55165 0.42506
 N166 N 1.06624 0.57790 0.39214
 N167 N 1.08944 0.55215 0.45372
 N168 N 1.12878 0.57800 0.44076
 N169 N 1.04858 0.44997 0.43055
 N170 N 1.05920 0.41662 0.40146
 Mn171 Mn 1.08830 0.50597 0.50213
 C172 C 1.10446 0.39796 0.41439
 C173 C 1.11328 0.59453 0.40266
 N174 N 0.90672 0.55917 0.45609
 N175 N 0.87053 0.59014 0.44602
 N176 N 0.93734 0.45430 0.43185
 N177 N 0.92336 0.42109 0.40360
 N178 N 0.90227 0.45884 0.46140
 N179 N 0.86324 0.42968 0.45366
 N180 N 0.94167 0.55649 0.42630
 N181 N 0.93029 0.58652 0.39520
 Mn182 Mn 0.90583 0.51299 0.50411
 Mn183 Mn 0.99511 0.50308 0.42796
 Cl184 Cl 0.99703 0.50951 0.50317
 C185 C 0.88607 0.60752 0.40835
 C186 C 0.87730 0.40582 0.41786
 N187 N 1.09719 0.55116 0.03985
 N188 N 1.13343 0.58414 0.04473
 N189 N 1.05859 0.45278 0.07671
 N190 N 1.06593 0.41900 0.10574
 N191 N 1.09327 0.44912 0.04677
 N192 N 1.12522 0.41319 0.05480
 N193 N 1.06256 0.55597 0.06978
 N194 N 1.07394 0.59301 0.09525
 C195 C 1.11791 0.61076 0.07883
 C196 C 1.10755 0.39426 0.09158
 N197 N 0.91106 0.45715 0.05013
 N198 N 0.87783 0.42249 0.05862
 N199 N 0.95244 0.56050 0.07215
 N200 N 0.94446 0.59673 0.09936
 N201 N 0.91644 0.55948 0.04303
 N202 N 0.88316 0.59462 0.04996
 N203 N 0.94804 0.45742 0.07846
 N204 N 0.94102 0.42264 0.10662
 Mn205 Mn 1.00537 0.50665 0.07485
 C206 C 0.89738 0.40065 0.09349
 C207 C 0.90179 0.61868 0.08442
 N208 N 1.08809 0.43876 -0.04401
 N209 N 1.11637 0.39925 -0.04560
 N210 N 1.05679 0.53905 -0.08100
 N211 N 1.06033 0.57516 -0.10803
 N212 N 1.09271 0.54245 -0.05194
 N213 N 1.12145 0.58136 -0.05853
 N214 N 1.05196 0.43634 -0.07287
 N215 N 1.05564 0.39545 -0.09534
 Mn216 Mn 1.09343 0.49548 -0.00255
 C217 C 1.09619 0.37233 -0.07781
 C218 C 1.10083 0.60133 -0.09395
 N219 N 0.91341 0.55085 -0.04908
 N220 N 0.88449 0.58916 -0.05749
 N221 N 0.94237 0.44168 -0.07080
 N222 N 0.93129 0.40397 -0.09553
 N223 N 0.90708 0.44798 -0.04167
 N224 N 0.87069 0.41506 -0.04628
 N225 N 0.94723 0.54413 -0.07937
 N226 N 0.94199 0.57727 -0.10908
 Mn227 Mn 0.91138 0.50403 0.00066
 Mn228 Mn 0.99966 0.49009 -0.07646
 Cl229 Cl 1.00240 0.49915 -0.00076
 C230 C 0.90294 0.60546 -0.09520
 C231 C 0.88679 0.38717 -0.07945
 N232 N 0.58736 1.05526 0.54504
 N233 N 0.62473 1.08646 0.55242
 N234 N 0.54799 0.95698 0.57852
 N235 N 0.55553 0.92466 0.60860
 N236 N 0.58293 0.95269 0.54878
 N237 N 0.61522 0.91727 0.55816
 N238 N 0.55137 1.05996 0.57381
 N239 N 0.56326 1.09501 0.60123
 C240 C 0.60880 1.11183 0.58700
 C241 C 0.59728 0.89962 0.59554
 N242 N 0.40230 0.95736 0.54956
 N243 N 0.36968 0.92193 0.55818
 N244 N 0.44039 1.06261 0.57440
 N245 N 0.43295 1.09943 0.60096
 N246 N 0.40345 1.06030 0.54615
 N247 N 0.36985 1.09533 0.55301
 N248 N 0.43806 0.95983 0.57885
 N249 N 0.43076 0.92630 0.60788
 Mn250 Mn 0.49441 1.01010 0.57677
 C251 C 0.38824 0.90251 0.59465
 C252 C 0.38901 1.11994 0.58706
 N253 N 0.58226 0.94844 0.45622
 N254 N 0.61650 0.91428 0.44807
 N255 N 0.54909 1.05215 0.42469
 N256 N 0.55753 1.08747 0.39724
 N257 N 0.58553 1.05105 0.45345
 N258 N 0.61962 1.08529 0.44612
 N259 N 0.54687 0.94887 0.42658
 N260 N 0.55607 0.91475 0.39777
 Mn261 Mn 0.58494 1.00162 0.50082
 C262 C 0.59930 0.89292 0.41175
 C263 C 0.60132 1.10846 0.41149
 N264 N 0.40235 1.05580 0.45419
 N265 N 0.37042 1.09212 0.44707
 N266 N 0.43635 0.95070 0.42742
 N267 N 0.42698 0.91427 0.40068
 N268 N 0.40093 0.95300 0.45694
 N269 N 0.36626 0.91882 0.45055
 N270 N 0.43812 1.05434 0.42496
 N271 N 0.43149 1.08981 0.39744
 Mn272 Mn 0.40170 1.00647 0.50170
 Mn273 Mn 0.49258 1.00159 0.42540
 Cl274 Cl 0.49339 1.00490 0.50116
 C275 C 0.38920 1.11342 0.41160
 C276 C 0.38341 0.89421 0.41586
 N277 N 1.10019 1.03915 0.54639
 N278 N 1.13598 1.07045 0.55807
 N279 N 1.05398 0.93779 0.56684
 N280 N 1.06402 0.91003 0.59928
 N281 N 1.09286 0.93916 0.54057
 N282 N 1.13139 0.91396 0.55619
 N283 N 1.06323 1.03880 0.57448
 N284 N 1.07157 1.07040 0.60510
 C285 C 1.11653 1.09003 0.59442
 C286 C 1.11183 0.89510 0.59229
 N287 N 0.90763 0.95401 0.54478
 N288 N 0.86630 0.93396 0.56169
 N289 N 0.95654 1.04695 0.57759
 N290 N 0.95148 1.07536 0.61106
 N291 N 0.92017 1.05448 0.54981
 N292 N 0.88917 1.08887 0.56366
 N293 N 0.94714 0.94646 0.56961
 N294 N 0.93437 0.92017 0.60241
 Mn295 Mn 1.00535 0.99240 0.57196
 C296 C 0.88436 0.91193 0.59721
 C297 C 0.90997 1.10167 0.60172
 N298 N 1.08915 0.94470 0.44785
 N299 N 1.12120 0.91163 0.43306
 N300 N 1.06113 1.05080 0.42737
 N301 N 1.07230 1.08160 0.39732
 N302 N 1.09950 1.04536 0.45365
 N303 N 1.13885 1.07179 0.44119
 N304 N 1.05169 0.95088 0.42071
 N305 N 1.05708 0.92319 0.38691
 Mn306 Mn 1.09633 0.99204 0.49707
 C307 C 1.09984 0.89856 0.39522
 C308 C 1.12038 1.09478 0.40644
 N309 N 0.91825 1.06126 0.45775
 N310 N 0.88285 1.09218 0.44549
 N311 N 0.94451 0.95955 0.42329
 N312 N 0.93292 0.93160 0.39076
 N313 N 0.90724 0.96093 0.45114
 N314 N 0.86830 0.93447 0.43738
 N315 N 0.95506 1.05967 0.42954
 N316 N 0.94623 1.08918 0.39802
 Mn317 Mn 0.91243 1.00775 0.50082
 Mn318 Mn 1.00304 1.00512 0.42535
 Cl319 Cl 1.00420 0.99914 0.49882
 C320 C 0.90183 1.10980 0.40859
 C321 C 0.88578 0.91596 0.39992
 N322 N 0.59488 0.53811 0.04910
 N323 N 0.63307 0.56437 0.06423
 N324 N 0.54847 0.43685 0.06721
 N325 N 0.55789 0.40930 0.09993
 N326 N 0.58723 0.43773 0.04078
 N327 N 0.62465 0.41079 0.05591
 N328 N 0.55792 0.53612 0.07716
 N329 N 0.56974 0.56018 0.11200
 C330 C 0.61618 0.57789 0.10337
 C331 C 0.60483 0.39288 0.09239
 N332 N 0.40484 0.45094 0.04025
 N333 N 0.36385 0.42742 0.05389
 N334 N 0.45087 0.54432 0.07608
 N335 N 0.44695 0.57404 0.10863
 N336 N 0.41471 0.55157 0.04800
 N337 N 0.38483 0.58741 0.06092
 N338 N 0.44286 0.44433 0.06662
 N339 N 0.42994 0.41529 0.09747
 Mn340 Mn 0.49994 0.49055 0.07147
 C341 C 0.38112 0.40449 0.08917
 C342 C 0.40614 0.60086 0.09879
 N343 N 0.58786 0.44715 -0.05169
 N344 N 0.61833 0.41185 -0.06461
 N345 N 0.56052 0.55462 -0.07098
 N346 N 0.57601 0.57974 -0.10373
 N347 N 0.59786 0.54789 -0.04368
 N348 N 0.63997 0.56874 -0.05793
 N349 N 0.55275 0.45526 -0.08044
 N350 N 0.55805 0.42657 -0.11355
 Mn351 Mn 0.59282 0.49266 -0.00138
 C352 C 0.59840 0.39944 -0.10314
 C353 C 0.62503 0.58891 -0.09513
 N354 N 0.41515 0.56002 -0.04453
 N355 N 0.37680 0.58631 -0.05872
 N356 N 0.44652 0.46245 -0.08111
 N357 N 0.44441 0.42728 -0.10938
 N358 N 0.41036 0.45863 -0.05255
 N359 N 0.38275 0.41956 -0.06070
 N360 N 0.45321 0.56161 -0.07169
 N361 N 0.44182 0.58858 -0.10450
 Mn362 Mn 0.41021 0.50535 -0.00236
 Mn363 Mn 0.50316 0.50867 -0.07576
 Cl364 Cl 0.50162 0.49956 -0.00196
 C365 C 0.39467 0.60416 -0.09578
 C366 C 0.40477 0.40075 -0.09640
 C367 C 0.36139 1.20282 0.17580
 C368 C 0.30801 1.20830 0.17263
 C369 C 0.28459 1.18582 0.13708
 C370 C 0.31336 1.15696 0.10818
 C371 C 0.36607 1.14891 0.11489
 C372 C 0.38942 1.17507 0.14754
 C373 C 0.42673 1.15959 0.18049
 C374 C 0.39597 1.18941 0.21195
 H375 H 0.24363 1.18748 0.13336
 H376 H 0.29361 1.13804 0.08269
 H377 H 0.46544 1.17458 0.17475
 H378 H 0.42524 1.12003 0.18693
 H379 H 0.41765 1.22091 0.22491
 H380 H 0.37694 1.16658 0.23617
 C381 C 0.78116 0.66210 0.65946
 C382 C 0.78625 0.71275 0.66265
 C383 C 0.82645 0.73380 0.63916
 C384 C 0.86111 0.70491 0.61571
 C385 C 0.85543 0.65427 0.61407
 C386 C 0.81478 0.63372 0.63598
 C387 C 0.77328 0.60172 0.61935
 C388 C 0.73637 0.63297 0.64456
 H389 H 0.83239 0.77236 0.63966
 H390 H 0.89195 0.72215 0.59866
 H391 H 0.77642 0.56414 0.63155
 H392 H 0.76809 0.60449 0.58435
 H393 H 0.71783 0.61330 0.67109
 H394 H 0.70994 0.65404 0.62423
 C395 C 0.72130 0.82821 0.13817
 C396 C 0.69725 0.79682 0.16665
 C397 C 0.64320 0.79296 0.16329
 C398 C 0.61496 0.82518 0.13829
 C399 C 0.63995 0.86080 0.11475
 C400 C 0.69323 0.85853 0.11207
 C401 C 0.73196 0.89808 0.11507
 C402 C 0.76254 0.86515 0.14399
 H403 H 0.62190 0.76756 0.18235
 H404 H 0.57369 0.82372 0.13906
 H405 H 0.71718 0.93109 0.13150
 H406 H 0.75088 0.90468 0.08404
 H407 H 0.76517 0.87948 0.17709
 H408 H 0.79924 0.85308 0.12978
 C409 C 1.14975 0.33707 0.69090
 C410 C 1.19672 0.31602 0.67965
 C411 C 1.21616 0.33010 0.63965
 C412 C 1.18736 0.36096 0.61239
 C413 C 1.13910 0.37961 0.62517
 C414 C 1.12271 0.36646 0.66511
 C415 C 1.08090 0.37488 0.69610
 C416 C 1.11112 0.34179 0.72586
 H417 H 1.25354 0.31811 0.62981
 H418 H 1.20321 0.37073 0.58188
 H419 H 1.04422 0.35890 0.68510
 H420 H 1.07915 0.41322 0.70724
 H421 H 1.09116 0.30717 0.73269
 H422 H 1.12662 0.36113 0.75427
 C423 C 0.65125 1.17967 -0.17954
 C424 C 0.70427 1.18709 -0.17718
 C425 C 0.72988 1.16042 -0.14529
 C426 C 0.70217 1.12913 -0.11767
 C427 C 0.64857 1.12314 -0.12215
 C428 C 0.62546 1.14950 -0.15373
 C429 C 0.57478 1.15903 -0.17288
 C430 C 0.60330 1.19321 -0.20275
 H431 H 0.77081 1.16368 -0.14165
 H432 H 0.72264 1.10926 -0.09355
 H433 H 0.54874 1.17806 -0.15040
 H434 H 0.55866 1.12649 -0.18919
 H435 H 0.59283 1.23192 -0.19801
 H436 H 0.60302 1.18023 -0.23635
 C437 C 1.22616 0.65165 0.34597
 C438 C 1.20188 0.68544 0.31982
 C439 C 1.14769 0.68240 0.31741
 C440 C 1.11981 0.65193 0.34366
 C441 C 1.14448 0.62372 0.37399
 C442 C 1.19801 0.62235 0.37316
 C443 C 1.23681 0.62622 0.40772
 C444 C 1.26808 0.65762 0.37779
 H445 H 1.12557 0.70512 0.29653
 H446 H 1.07855 0.65253 0.34162
 H447 H 1.25502 0.59076 0.41449
 H448 H 1.22240 0.64637 0.43606
 H449 H 1.30388 0.63986 0.36696
 H450 H 1.27294 0.69552 0.38923
 C451 C 0.27083 0.83139 -0.13040
 C452 C 0.29359 0.79715 -0.15771
 C453 C 0.34661 0.78878 -0.15130
 C454 C 0.37605 0.81895 -0.12472
 C455 C 0.35341 0.85765 -0.10267
 C456 C 0.29998 0.86028 -0.10296
 C457 C 0.26585 0.90297 -0.10853
 C458 C 0.23420 0.87167 -0.13870
 H459 H 0.36698 0.76183 -0.16980
 H460 H 0.41701 0.81395 -0.12372
 H461 H 0.28522 0.93373 -0.12448
 H462 H 0.24540 0.91266 -0.07869
 H463 H 0.23544 0.88465 -0.17203
 H464 H 0.19544 0.86359 -0.12636
 C465 C 0.84436 0.29747 0.35100
 C466 C 0.79291 0.30448 0.33880
 C467 C 0.76656 0.34143 0.36138
 C468 C 0.79289 0.37307 0.39002
 C469 C 0.84612 0.36843 0.39637
 C470 C 0.86928 0.32763 0.37917
 C471 C 0.92062 0.31846 0.36089
 C472 C 0.89391 0.28499 0.32932
 H473 H 0.72677 0.34838 0.35456
 H474 H 0.77260 0.40332 0.40420
 H475 H 0.94602 0.29901 0.38330
 H476 H 0.93749 0.35094 0.34566
 H477 H 0.90500 0.24653 0.33365
 H478 H 0.89732 0.29877 0.29640
 C479 C 1.20855 0.30499 0.13097
 C480 C 1.18669 0.28477 0.16749
 C481 C 1.13499 0.29810 0.17523
 C482 C 1.10929 0.33270 0.15039
 C483 C 1.13308 0.35445 0.11542
 C484 C 1.18305 0.33957 0.10626
 C485 C 1.20362 0.31946 0.06575
 C486 C 1.22954 0.28081 0.09200
 H487 H 1.11452 0.28422 0.20229
 H488 H 1.07079 0.34288 0.15909
 H489 H 1.23108 0.34490 0.05091
 H490 H 1.17340 0.30503 0.04422
 H491 H 1.27186 0.28281 0.09074
 H492 H 1.21302 0.24422 0.08616
 C493 C 0.69050 0.80231 0.63534
 C494 C 0.67727 0.79796 0.67857
 C495 C 0.63582 0.82683 0.69280
 C496 C 0.60963 0.85828 0.66551
 C497 C 0.62345 0.86282 0.62252
 C498 C 0.66461 0.83439 0.60815
 C499 C 0.66509 0.79865 0.57229
 C500 C 0.69229 0.76384 0.60167
 H501 H 0.62433 0.82681 0.72584
 H502 H 0.57892 0.87997 0.67862
 H503 H 0.68932 0.81101 0.54551
 H504 H 0.62619 0.78633 0.56303
 H505 H 0.73190 0.75575 0.59132
 H506 H 0.66893 0.73161 0.60985
 C507 C 1.13723 0.67876 -0.18609
 C508 C 1.17597 0.71049 -0.17098
 C509 C 1.17681 0.71586 -0.12595
 C510 C 1.15238 0.68092 -0.09936
 C511 C 1.12101 0.64403 -0.11724
 C512 C 1.10941 0.64884 -0.16010
 C513 C 1.09812 0.61294 -0.19447
 C514 C 1.12903 0.64528 -0.22359
 H515 H 1.19903 0.74449 -0.11115
 H516 H 1.15904 0.68212 -0.06538
 H517 H 1.05687 0.61184 -0.20267
 H518 H 1.11614 0.57708 -0.18884
 H519 H 1.10571 0.66217 -0.24899
 H520 H 1.16405 0.62640 -0.23463
 C521 C 0.70626 1.15466 0.34198
 C522 C 0.69344 1.20287 0.33137
 C523 C 0.64939 1.22156 0.35192
 C524 C 0.61878 1.19175 0.37872
 C525 C 0.63251 1.14302 0.38672
 C526 C 0.67858 1.12701 0.37021
 C527 C 0.69078 1.08050 0.34809
 C528 C 0.72040 1.11041 0.31632
 H529 H 0.63694 1.25817 0.34549
 H530 H 0.58395 1.20633 0.39213
 H531 H 0.65652 1.06248 0.33422
 H532 H 0.71547 1.05682 0.36776
 H533 H 0.70252 1.10936 0.28426
 H534 H 0.76185 1.10241 0.31701
 C535 C 0.80053 0.65647 0.16128
 C536 C 0.80794 0.70653 0.16963
 C537 C 0.84624 0.72917 0.14492
 C538 C 0.87712 0.70159 0.11610
 C539 C 0.86938 0.65105 0.11066
 C540 C 0.82828 0.63061 0.13154
 C541 C 0.82500 0.58433 0.15527
 C542 C 0.79548 0.61244 0.18881
 H543 H 0.85398 0.76747 0.14927
 H544 H 0.90773 0.71937 0.09924
 H545 H 0.86278 0.57135 0.16654
 H546 H 0.80149 0.55677 0.13818
 H547 H 0.81701 0.61552 0.21920
 H548 H 0.75557 0.59953 0.19182
 C549 C 0.28311 1.20133 0.62999
 C550 C 0.30695 1.22812 0.66275
 C551 C 0.36067 1.22248 0.66598
 C552 C 0.38747 1.18848 0.64076
 C553 C 0.36223 1.16003 0.60988
 C554 C 0.30980 1.16762 0.60474
 C555 C 0.28254 1.18163 0.56524
 C556 C 0.25486 1.21928 0.59181
 H557 H 0.38200 1.24165 0.69039
 H558 H 0.42795 1.18376 0.64617
 H559 H 0.25714 1.15217 0.55329
 H560 H 0.30832 1.19751 0.54102
 H561 H 0.21318 1.21243 0.59389
 H562 H 0.26552 1.25675 0.58285
 C563 C 0.77927 0.33772 -0.14532
 C564 C 0.79741 0.29310 -0.16210
 C565 C 0.84362 0.27603 -0.14417
 C566 C 0.87227 0.30506 -0.11512
 C567 C 0.85419 0.35082 -0.10140
 C568 C 0.80554 0.36420 -0.11444
 C569 C 0.78857 0.41185 -0.13101
 C570 C 0.76117 0.38377 -0.16571
 H571 H 0.86008 0.24229 -0.15541
 H572 H 0.90968 0.29293 -0.10525
 H573 H 0.82059 0.43441 -0.14298
 H574 H 0.76227 0.43069 -0.10861
 H575 H 0.77824 0.39045 -0.19742
 H576 H 0.71945 0.38900 -0.16390
 C577 C 0.34277 0.77927 0.35538
 C578 C 0.29672 0.79337 0.33582
 C579 C 0.27710 0.83905 0.34968
 C580 C 0.30353 0.86937 0.37852
 C581 C 0.35246 0.85720 0.39283
 C582 C 0.36980 0.81039 0.38272
 C583 C 0.42029 0.79251 0.36794
 C584 C 0.39132 0.75849 0.33799
 H585 H 0.24327 0.85424 0.33581
 H586 H 0.28771 0.90468 0.38618
 H587 H 0.44134 0.77319 0.39335
 H588 H 0.44245 0.82082 0.35110
 H589 H 0.39588 0.71961 0.34614
 H590 H 0.39798 0.76706 0.30403
 C591 C 1.21978 1.14383 0.33266
 C592 C 1.19364 1.18125 0.31222
 C593 C 1.14343 1.19079 0.32562
 C594 C 1.12139 1.16484 0.35879
 C595 C 1.14839 1.12758 0.37897
 C596 C 1.19827 1.11815 0.36594
 C597 C 1.22177 1.07167 0.35110
 C598 C 1.24503 1.09984 0.31460
 H599 H 1.12034 1.21751 0.30997
 H600 H 1.08218 1.17249 0.36740
 H601 H 1.19295 1.04442 0.34061
 H602 H 1.25069 1.05811 0.37395
 H603 H 1.22952 1.08929 0.28290
 H604 H 1.28730 1.10241 0.31643
 C605 C 0.67533 0.63582 -0.19920
 C606 C 0.70340 0.67616 -0.18551
 C607 C 0.71343 0.67984 -0.14125
 C608 C 0.69274 0.64751 -0.11204
 C609 C 0.65850 0.61212 -0.12589
 C610 C 0.65232 0.60529 -0.17000
 C611 C 0.60570 0.59931 -0.19691
 C612 C 0.63093 0.63262 -0.22887
 H613 H 0.73310 0.71030 -0.12791
 H614 H 0.69873 0.65399 -0.07835
 H615 H 0.57103 0.61555 -0.18230
 H616 H 0.60112 0.56149 -0.20890
 H617 H 0.61092 0.66790 -0.23245
 H618 H 0.64099 0.61400 -0.25923
 C619 C 0.83766 1.20724 0.64562
 C620 C 0.83354 1.19765 0.68954
 C621 C 0.86338 1.15861 0.70463
 C622 C 0.89066 1.12838 0.67614
 C623 C 0.88772 1.13580 0.63186
 C624 C 0.86219 1.17649 0.61848
 C625 C 0.84194 1.19739 0.57888
 C626 C 0.81456 1.23339 0.60823
 H627 H 0.86360 1.14952 0.73803
 H628 H 0.91125 1.09759 0.68857
 H629 H 0.81556 1.17216 0.56194
 H630 H 0.87235 1.21395 0.55915
 H631 H 0.77259 1.23084 0.60550
 H632 H 0.83011 1.27038 0.60386
 C633 C 0.37085 0.66367 0.20087
 C634 C 0.33374 0.69633 0.18728
 C635 C 0.33078 0.70489 0.14276
 C636 C 0.35652 0.67551 0.11350
 C637 C 0.38673 0.63762 0.12800
 C638 C 0.39708 0.63509 0.17172
 C639 C 0.39695 0.59239 0.20056
 C640 C 0.36812 0.62370 0.23248
 H641 H 0.30422 0.73049 0.12954
 H642 H 0.34970 0.68017 0.07980
 H643 H 0.43600 0.58279 0.21137
 H644 H 0.37400 0.56157 0.18776
 H645 H 0.39054 0.63213 0.26167
 H646 H 0.32851 0.61089 0.23820
 C647 C 1.13821 0.82142 0.68840
 C648 C 1.18863 0.83231 0.69826
 C649 C 1.21388 0.86677 0.67297
 C650 C 1.19061 0.88480 0.63602
 C651 C 1.14046 0.87104 0.62560
 C652 C 1.11468 0.83983 0.65285
 C653 C 1.06564 0.84728 0.67619
 C654 C 1.09196 0.82827 0.71540
 H655 H 1.25224 0.87836 0.68070
 H656 H 1.21090 0.91080 0.61675
 H657 H 1.03551 0.82248 0.66390
 H658 H 1.05450 0.88603 0.67948
 H659 H 1.07569 0.79345 0.72659
 H660 H 1.09757 0.85628 0.74068
 C661 C 0.69746 0.31021 0.14302
 C662 C 0.68818 0.31449 0.18754
 C663 C 0.64919 0.34710 0.19968
 C664 C 0.62161 0.37307 0.16870
 C665 C 0.63338 0.36801 0.12495
 C666 C 0.67214 0.33723 0.11414
 C667 C 0.69617 0.31729 0.07552
 C668 C 0.72606 0.28586 0.10633
 H669 H 0.63955 0.35227 0.23289
 H670 H 0.59143 0.39722 0.17901
 H671 H 0.71984 0.34467 0.05891
 H672 H 0.66872 0.29664 0.05532
 H673 H 0.76728 0.29370 0.10432
 H674 H 0.71687 0.24725 0.10058
 C675 C 0.85906 0.82209 0.31585
 C676 C 0.80769 0.82955 0.30644
 C677 C 0.78206 0.86741 0.32815
 C678 C 0.80607 0.89338 0.36120
 C679 C 0.85750 0.88471 0.37063
 C680 C 0.88359 0.84936 0.34703
 C681 C 0.93052 0.85505 0.32060
 C682 C 0.90353 0.82606 0.28625
 H683 H 0.74294 0.87622 0.32045
 H684 H 0.78534 0.92177 0.37776
 H685 H 0.96379 0.83581 0.33443
 H686 H 0.93793 0.89321 0.31129
 H687 H 0.92211 0.79065 0.27951
 H688 H 0.89453 0.84761 0.25749
 C689 C 0.31329 0.29306 -0.13532
 C690 C 0.31483 0.30623 -0.17916
 C691 C 0.35560 0.33586 -0.19301
 C692 C 0.38912 0.36114 -0.16588
 C693 C 0.38574 0.35993 -0.12148
 C694 C 0.35559 0.32525 -0.10338
 C695 C 0.31811 0.32943 -0.05033
 C696 C 0.25560 0.29276 -0.08142
 H697 H 0.36074 0.34241 -0.22662
 H698 H 0.41508 0.38656 -0.18056
 H699 H 0.31309 0.36693 -0.03758
 H700 H 0.33605 0.30768 -0.02453
 H701 H 0.20963 0.38000 -0.11229
 H702 H 0.24179 0.25706 -0.06928
 C703 C 1.20958 0.31796 -0.13612
 C704 C 1.19050 0.28295 -0.16436
 C705 C 1.13636 0.27615 -0.16125
 C706 C 1.10417 0.30278 -0.13234
 C707 C 1.12335 0.33009 -0.09742
 C708 C 1.17485 0.32486 -0.09019
 C709 C 1.22162 0.36284 -0.05575
 C710 C 1.27532 0.35829 -0.10767
 H711 H 1.11726 0.25341 -0.18459
 H712 H 1.06346 0.30266 -0.13817
 H713 H 1.22941 0.34547 -0.02453
 H714 H 1.20977 0.40098 -0.04911
 H715 H 1.32131 0.27040 -0.08027
 H716 H 1.28806 0.39241 -0.12357
 C717 C 0.63671 0.81195 0.31944
 C718 C 0.68503 0.79336 0.33001
 C719 C 0.70416 0.80642 0.37066
 C720 C 0.67628 0.83783 0.39826
 C721 C 0.62783 0.85595 0.38642
 C722 C 0.60928 0.84223 0.34654
 C723 C 0.55977 0.81843 0.33582
 C724 C 0.58949 0.78507 0.30641
 H725 H 0.74201 0.79508 0.38000
 H726 H 0.69309 0.84864 0.42836
 H727 H 0.53363 0.84318 0.31864
 H728 H 0.54259 0.79944 0.36336
 H729 H 0.58005 0.79040 0.27229
 H730 H 0.58976 0.74664 0.31681
 C731 C 0.86011 0.67457 -0.19159
 C732 C 0.82492 0.70972 -0.17671
 C733 C 0.82737 0.71860 -0.13212
 C734 C 0.85282 0.68545 -0.10442
 C735 C 0.88122 0.64580 -0.12105
 C736 C 0.88846 0.64550 -0.16491
 C737 C 0.89200 0.60502 -0.19641
 C738 C 0.86024 0.63621 -0.22588
 H739 H 0.80628 0.74851 -0.11824
 H740 H 0.84906 0.69009 -0.07035
 H741 H 0.87190 0.57173 -0.18580
 H742 H 0.93168 0.59942 -0.20783
 H743 H 0.82219 0.61968 -0.23186
 H744 H 0.88128 0.64781 -0.25472
 C745 C 0.29029 1.20612 0.37357
 C746 C 0.31272 1.22599 0.33699
 C747 C 0.36410 1.21176 0.32935
 C748 C 0.38887 1.17635 0.35392
 C749 C 0.36455 1.15458 0.38867
 C750 C 0.31512 1.17081 0.39826
 C751 C 0.29667 1.19234 0.43896
 C752 C 0.27121 1.23127 0.41278
 H753 H 0.38490 1.22543 0.30237
 H754 H 0.42708 1.16539 0.34504
 H755 H 0.32821 1.20631 0.45937
 H756 H 0.26904 1.16822 0.45523
 H757 H 0.28884 1.26753 0.41787
 H758 H 0.22889 1.23039 0.41487
 C759 C 1.22729 0.66043 0.14273
 C760 C 1.20999 0.70539 0.15944
 C761 C 1.16337 0.72243 0.14212
 C762 C 1.13359 0.69304 0.11411
 C763 C 1.15088 0.64687 0.10078
 C764 C 1.19992 0.63357 0.11283
 C765 C 1.21781 0.58613 0.12927
 C766 C 1.24665 0.61470 0.16291
 H767 H 1.14740 0.75644 0.15324
 H768 H 1.09608 0.70534 0.10470
 H769 H 1.24320 0.56709 0.10627
 H770 H 1.18642 0.56364 0.14238
 H771 H 1.28838 0.60975 0.15990
 H772 H 1.23108 0.60817 0.19516
 C773 C 0.65588 1.21984 0.65276
 C774 C 0.70635 1.20720 0.66315
 C775 C 0.72260 1.16076 0.64870
 C776 C 0.69172 1.13124 0.62249
 C777 C 0.64208 1.14548 0.61145
 C778 C 0.62429 1.18956 0.62816
 C779 C 0.60235 1.23146 0.60479
 C780 C 0.63697 1.26421 0.63112
 H781 H 0.75836 1.14558 0.65901
 H782 H 0.70603 1.09619 0.61224
 H783 H 0.56121 1.23669 0.61197
 H784 H 0.61206 1.23082 0.57037
 H785 H 0.61579 1.28854 0.65326
 H786 H 0.66709 1.28224 0.61205
 C787 C 0.79743 0.35323 0.16697
 C788 C 0.81118 0.30491 0.17656
 C789 C 0.85448 0.28689 0.15452
 C790 C 0.88308 0.31723 0.12669
 C791 C 0.86808 0.36577 0.11929
 C792 C 0.82298 0.38129 0.13783
 C793 C 0.81091 0.42760 0.16036
 C794 C 0.78340 0.39710 0.19309
 H795 H 0.86749 0.25026 0.16008
 H796 H 0.91730 0.30315 0.11184
 H797 H 0.78481 0.45083 0.14156
 H798 H 0.84543 0.44622 0.17310
 H799 H 0.74170 0.40401 0.19373
 H800 H 0.80272 0.39842 0.22457
 C801 C 0.35438 0.82612 0.68967
 C802 C 0.31153 0.79877 0.67725
 C803 C 0.29470 0.80474 0.63475
 C804 C 0.31939 0.83790 0.60705
 C805 C 0.36270 0.86458 0.62061
 C806 C 0.37904 0.85767 0.66237
 C807 C 0.43060 0.84386 0.67819
 C808 C 0.40388 0.80913 0.70790
 H809 H 0.26053 0.78648 0.62377
 H810 H 0.30425 0.84299 0.57536
 H811 H 0.44987 0.87436 0.69515
 H812 H 0.45406 0.82530 0.65350
 H813 H 0.40807 0.81950 0.74199
 H814 H 0.41164 0.77031 0.70048
 C815 C 0.35160 1.17368 -0.18661
 C816 C 0.30225 1.19042 -0.17626
 C817 C 0.28018 1.17181 -0.13893
 C818 C 0.30882 1.14130 -0.11176
 C819 C 0.35962 1.12808 -0.12199
 C820 C 0.37884 1.14307 -0.16073
 C821 C 0.42875 1.16613 -0.17053
 C822 C 0.39931 1.20034 -0.19880
 H823 H 0.24149 1.18149 -0.13038
 H824 H 0.29151 1.12860 -0.08268
 H825 H 0.45440 1.14131 -0.18854
 H826 H 0.44627 1.18438 -0.14238
 H827 H 0.40872 1.19557 -0.23306
 H828 H 0.39998 1.23844 -0.18696
 C829 C 0.77493 0.67301 0.35666
 C830 C 0.79931 0.70881 0.33260
 C831 C 0.85358 0.70772 0.33267
 C832 C 0.88135 0.67480 0.35695
 C833 C 0.85631 0.64191 0.38305
 C834 C 0.80282 0.64098 0.38182
 C835 C 0.76538 0.64321 0.41728
 C836 C 0.73511 0.67845 0.39040
 H837 H 0.87576 0.73018 0.31201
 H838 H 0.92264 0.67542 0.35549
 H839 H 0.78151 0.66001 0.44667
 H840 H 0.74560 0.60798 0.42186
 H841 H 0.73375 0.71544 0.40456
 H842 H 0.69759 0.66377 0.37992
 C843 C 0.65736 1.20736 0.16002
 C844 C 0.70966 1.20077 0.16996
 C845 C 0.73509 1.16439 0.14598
 C846 C 0.70760 1.13375 0.11728
 C847 C 0.65414 1.13868 0.11242
 C848 C 0.63150 1.17851 0.13159
 C849 C 0.58077 1.18699 0.15127
 C850 C 0.60865 1.21884 0.18344
 H851 H 0.77527 1.15764 0.15122
 H852 H 0.72737 1.10418 0.10152
 H853 H 0.56417 1.15386 0.16562
 H854 H 0.55483 1.20763 0.13014
 H855 H 0.60651 1.20313 0.21578
 H856 H 0.59756 1.25757 0.18126
 C857 C 1.22392 0.68923 0.63562
 C858 C 1.19879 0.71531 0.66807
 C859 C 1.14459 0.71418 0.66632
 C860 C 1.11789 0.68543 0.63710
 C861 C 1.14376 0.65457 0.60907
 C862 C 1.19703 0.65982 0.60661
 C863 C 1.23790 0.62230 0.60602
 C864 C 1.26707 0.65401 0.63764
 H865 H 1.12126 0.73111 0.69029
 H866 H 1.07668 0.68399 0.63948
 H867 H 1.25682 0.61952 0.57448
 H868 H 1.22511 0.58723 0.61954
 H869 H 1.30284 0.66931 0.62437
 H870 H 1.27106 0.63698 0.66936
 C871 C 0.72977 0.83147 -0.13387
 C872 C 0.70830 0.79367 -0.15817
 C873 C 0.65659 0.78179 -0.14879
 C874 C 0.62607 0.81237 -0.12349
 C875 C 0.64687 0.85433 -0.10510
 C876 C 0.69993 0.86027 -0.10717
 C877 C 0.73073 0.90455 -0.11586
 C878 C 0.76316 0.87332 -0.14537
 H879 H 0.63754 0.75184 -0.16466
 H880 H 0.58574 0.80465 -0.12038
 H881 H 0.75172 0.91750 -0.08718
 H882 H 0.70859 0.93286 -0.13274
 H883 H 0.80290 0.86858 -0.13382
 H884 H 0.75959 0.88405 -0.17920
 C885 C 1.13863 0.30735 0.32910
 C886 C 1.19214 0.30273 0.33179
 C887 C 1.21562 0.32547 0.36719
 C888 C 1.18677 0.35392 0.39634
 C889 C 1.13386 0.36130 0.39007
 C890 C 1.11052 0.33481 0.35759
 C891 C 1.07272 0.34991 0.32490
 C892 C 1.10353 0.32047 0.29320
 H893 H 1.25663 0.32427 0.37065
 H894 H 1.20655 0.37306 0.42168
 H895 H 1.07365 0.38949 0.31850
 H896 H 1.03425 0.33448 0.33088
 H897 H 1.12209 0.34351 0.26888
 H898 H 1.08209 0.28878 0.28032
 C899 C 0.28050 0.83421 0.14148
 C900 C 0.30517 0.80805 0.17336
 C901 C 0.35941 0.80955 0.17367
 C902 C 0.38652 0.84066 0.14734
 C903 C 0.36065 0.87124 0.11957
 C904 C 0.30776 0.86500 0.11493
 C905 C 0.26609 0.90182 0.11511
 C906 C 0.23642 0.86822 0.14416
 H907 H 0.38174 0.78818 0.19549
 H908 H 0.42767 0.84232 0.15022
 H909 H 0.24832 0.90570 0.08321
 H910 H 0.27761 0.93646 0.13081
 H911 H 0.20161 0.85276 0.12901
 H912 H 0.23082 0.88338 0.17673
 C913 C 0.85488 0.32056 0.67757
 C914 C 0.80178 0.31354 0.67645
 C915 C 0.77507 0.34196 0.64640
 C916 C 0.80163 0.37528 0.61992
 C917 C 0.85523 0.38166 0.62370
 C918 C 0.87967 0.35268 0.65277
 C919 C 0.93066 0.34354 0.67150
 C920 C 0.90327 0.30715 0.70013
 H921 H 0.73401 0.33917 0.64385
 H922 H 0.78014 0.39690 0.59764
 H923 H 0.94579 0.37569 0.68904
 H924 H 0.95724 0.32638 0.64832
 H925 H 0.90346 0.31859 0.73414
 H926 H 0.91475 0.26895 0.69396
 C927 C 1.13826 1.19343 0.66999
 C928 C 1.18773 1.18496 0.68533
 C929 C 1.20996 1.13956 0.67398
 C930 C 1.18848 1.10997 0.64221
 C931 C 1.14245 1.12317 0.62325
 C932 C 1.11559 1.16207 0.64081
 C933 C 1.08764 1.20124 0.61873
 C934 C 1.11341 1.23612 0.64950
 H935 H 1.24603 1.12795 0.68708
 H936 H 1.20771 1.07686 0.63265
 H937 H 1.04573 1.19854 0.62352
 H938 H 1.10001 1.20569 0.58517
 H939 H 1.08585 1.25477 0.67084
 H940 H 1.14068 1.25966 0.63254
 C941 C 0.69132 0.68214 0.14418
 C942 C 0.68814 0.67967 0.18903
 C943 C 0.65927 0.64053 0.20523
 C944 C 0.63628 0.60616 0.17749
 C945 C 0.64334 0.60906 0.13306
 C946 C 0.67233 0.64678 0.11836
 C947 C 0.68750 0.66858 0.07769
 C948 C 0.70958 0.70932 0.10533
 H949 H 0.65445 0.63620 0.23916
 H950 H 0.61330 0.57739 0.19075
 H951 H 0.65408 0.67972 0.05832
 H952 H 0.71686 0.64665 0.06081
 H953 H 0.68879 0.74342 0.09919
 H954 H 0.75144 0.71234 0.10193
 C955 C 1.16184 0.78861 0.34913
 C956 C 1.17226 0.80194 0.30649
 C957 C 1.14805 0.84459 0.29209
 C958 C 1.12245 0.87560 0.32082
 C959 C 1.12127 0.86485 0.36449
 C960 C 1.13762 0.81968 0.37671
 C961 C 1.16054 0.80057 0.41599
 C962 C 1.18729 0.76460 0.38675
 H963 H 1.15211 0.85619 0.25948
 H964 H 1.10697 0.90947 0.30942
 H965 H 1.13174 0.78366 0.43711
 H966 H 1.18707 0.82683 0.43150
 H967 H 1.17318 0.72741 0.39276
 H968 H 1.22903 0.76822 0.38857
 C969 C 0.66950 0.29305 -0.14605
 C970 C 0.67305 0.30208 -0.19013
 C971 C 0.64238 0.34032 -0.20554
 C972 C 0.61564 0.37097 -0.17717
 C973 C 0.61991 0.36465 -0.13280
 C974 C 0.64566 0.32436 -0.11907
 C975 C 0.66402 0.30270 -0.07921
 C976 C 0.69026 0.26572 -0.10829
 H977 H 0.64141 0.34874 -0.23908
 H978 H 0.59461 0.40137 -0.18984
 H979 H 0.63247 0.28739 -0.05995
 H980 H 0.69112 0.32688 -0.06189
 H981 H 0.67251 0.22957 -0.10444
 H982 H 0.73221 0.26599 -0.10467
 C983 C 0.85215 1.15504 0.30427
 C984 C 0.81708 1.19018 0.31713
 C985 C 0.80700 1.19471 0.36144
 C986 C 0.83357 1.16770 0.39128
 C987 C 0.87243 1.13688 0.37789
 C988 C 0.87976 1.12950 0.33411
 C989 C 0.92719 1.13089 0.30791
 C990 C 0.89668 1.15851 0.27491
 H991 H 0.77878 1.21963 0.37374
 H992 H 0.82530 1.17265 0.42479
 H993 H 0.93892 1.09417 0.29682
 H994 H 0.95794 1.15299 0.32297
 H995 H 0.89041 1.13746 0.24502
 H996 H 0.91003 1.19635 0.27031
 C997 C 0.34643 0.65601 -0.19857
 C998 C 0.30398 0.68251 -0.18493
 C999 C 0.29612 0.68627 -0.14056
 C1000 C 0.32520 0.66060 -0.11162
 C1001 C 0.36466 0.63131 -0.12606
 C1002 C 0.37633 0.63088 -0.16960
 C1003 C 0.38205 0.58850 -0.19911
 C1004 C 0.34918 0.61582 -0.23062
 H1005 H 0.27007 0.71150 -0.12721
 H1006 H 0.31731 0.66441 -0.07792
 H1007 H 0.36358 0.55511 -0.18685
 H1008 H 0.42211 0.58381 -0.20991
 H1009 H 0.31147 0.59853 -0.23662
 H1010 H 0.37023 0.62676 -0.25965
 C1011 C 0.85528 0.84263 0.69631
 C1012 C 0.80229 0.83648 0.69558
 C1013 C 0.77550 0.86865 0.66855
 C1014 C 0.80105 0.89345 0.63545
 C1015 C 0.85441 0.88992 0.63164
 C1016 C 0.88000 0.86871 0.66570
 C1017 C 0.92829 0.84105 0.67025
 C1018 C 0.90125 0.81186 0.70444
 H1019 H 0.73505 0.87387 0.67183
 H1020 H 0.77922 0.91445 0.61294
 H1021 H 0.95924 0.86444 0.68317
 H1022 H 0.93779 0.81940 0.64131
 H1023 H 0.91726 0.81817 0.73678
 H1024 H 0.89655 0.77317 0.69528
 C1025 C 0.28176 0.36619 0.16882
 C1026 C 0.30729 0.32960 0.19101
 C1027 C 0.35681 0.31780 0.17727
 C1028 C 0.37802 0.33911 0.14133
 C1029 C 0.35171 0.37518 0.11894
 C1030 C 0.30311 0.38823 0.13321
 C1031 C 0.28335 0.43695 0.14603
 C1032 C 0.26048 0.41301 0.18494
 H1033 H 0.37981 0.29221 0.19438
 H1034 H 0.41649 0.32905 0.13232
 H1035 H 0.25408 0.45044 0.12346
 H1036 H 0.31431 0.46320 0.15385
 H1037 H 0.21808 0.41290 0.18481
 H1038 H 0.27834 0.42501 0.21538
   
