data_POSCAR
  _audit_creation_date              2014-09-24
  _audit_creation_method            'ToBaCCo'
  _symmetry_space_group_name_H-M    'P1'
  _symmetry_Int_Tables_number       1
  _symmetry_cell_setting            triclinic
  loop_
  _symmetry_equiv_pos_as_xyz
 x,y,z
_cell_length_a 40.3181
_cell_length_b 39.5245
_cell_length_c 41.1919
_cell_angle_alpha 90.076800
_cell_angle_beta 90.085400
_cell_angle_gamma 90.112300
loop_
  _atom_site_label
  _atom_site_type_symbol
  _atom_site_fract_x
  _atom_site_fract_y
  _atom_site_fract_z
C1 C 0.16014 0.15828 0.20035
 N2 N 0.14462 0.18497 0.18632
 C3 C 0.15665 0.19838 0.15841
 N4 N 0.18432 0.18523 0.14461
 C5 C 0.19985 0.15855 0.15862
 N6 N 0.18780 0.14511 0.18653
 C7 C -0.15608 0.84690 0.20580
 N8 N -0.14231 0.81930 0.19158
 C9 C -0.15618 0.80591 0.16441
 N10 N -0.18388 0.82002 0.15156
 C11 C -0.19766 0.84761 0.16575
 N12 N -0.18380 0.86102 0.19293
 C13 C -0.16505 0.15251 -0.20623
 N14 N -0.19223 0.13802 -0.19268
 C15 C -0.20580 0.15165 -0.16555
 N16 N -0.19227 0.17982 -0.15204
 C17 C -0.16509 0.19429 -0.16560
 N18 N -0.15150 0.18066 -0.19272
 C19 C 0.16094 0.84563 -0.20315
 N20 N 0.14532 0.81810 -0.19074
 C21 C 0.15717 0.80308 -0.16351
 N22 N 0.18475 0.81549 -0.14876
 C23 C 0.20039 0.84302 -0.16116
 N24 N 0.18853 0.85805 -0.18840
 C25 C 0.16340 1.15772 0.79820
 N26 N 0.14804 1.18517 0.81106
 C27 C 0.15917 1.19879 0.83932
 N28 N 0.18572 1.18505 0.85466
 C29 C 0.20105 1.15761 0.84183
 N30 N 0.18993 1.14398 0.81357
 C31 C 0.84345 0.85194 0.79487
 N32 N 0.81598 0.86582 0.80847
 C33 C 0.80253 0.85174 0.83546
 N34 N 0.81642 0.82372 0.84870
 C35 C 0.84384 0.80984 0.83512
 N36 N 0.85731 0.82390 0.80816
 C37 C 0.16016 0.83850 1.20545
 N38 N 0.14377 0.81163 1.19254
 C39 C 0.15524 0.79669 1.16510
 N40 N 0.18315 0.80853 1.15065
 C41 C 0.19955 0.83538 1.16355
 N42 N 0.18809 0.85035 1.19099
 C43 C 0.84226 1.15769 1.20590
 N44 N 0.81451 1.14259 1.19401
 C45 C 0.79974 1.15493 1.16688
 N46 N 0.81266 1.18240 1.15172
 C47 C 0.84040 1.19749 1.16359
 N48 N 0.85517 1.18517 1.19072
 O49 O 0.45237 1.05702 1.06111
 O50 O 0.41644 1.02407 1.03138
 C51 C 0.42283 1.04762 1.05232
 O52 O 0.54563 1.05510 0.94479
 O53 O 0.58224 1.02480 0.97607
 C54 C 0.57536 1.04619 0.95331
 O55 O 0.45217 1.05783 0.94842
 O56 O 0.41635 1.02466 0.97785
 C57 C 0.42266 1.04830 0.95708
 O58 O 0.54576 1.05456 1.06453
 O59 O 0.58219 1.02551 1.03205
 C60 C 0.57546 1.04630 1.05539
 Zr61 Zr 0.49921 1.03845 1.04583
 O62 O 0.50261 1.09190 1.04638
 O63 O 0.49530 1.03778 1.09708
 Zr64 Zr 0.49912 1.03937 0.96366
 O65 O 0.50271 1.09280 0.96526
 O66 O 0.49505 1.04083 0.91244
 O67 O 0.46957 1.04511 1.00480
 O68 O 0.52790 1.04546 1.00477
 O69 O 0.54706 0.93799 1.06352
 O70 O 0.58288 0.96945 1.03238
 C71 C 0.57657 0.94770 1.05498
 O72 O 0.45341 0.93463 0.94662
 O73 O 0.41696 0.96662 0.97644
 C74 C 0.42371 0.94356 0.95514
 O75 O 0.54686 0.93896 0.94386
 O76 O 0.58275 0.96883 0.97647
 C77 C 0.57641 0.94797 0.95304
 O78 O 0.45364 0.93290 1.05992
 O79 O 0.41706 0.96528 1.03062
 C80 C 0.42391 0.94170 1.05130
 Zr81 Zr 0.50011 0.95276 1.04486
 O82 O 0.50471 0.89942 1.04363
 O83 O 0.49620 0.95172 1.09608
 Zr84 Zr 0.49998 0.95365 0.96265
 O85 O 0.50428 0.90027 0.96290
 O86 O 0.49622 0.95346 0.91139
 Zr87 Zr 0.45041 0.99542 1.00424
 Zr88 Zr 0.54874 0.99671 1.00424
 O89 O 0.52891 0.94742 1.00373
 O90 O 0.47054 0.94622 1.00365
 O91 O 0.52914 0.99594 1.05168
 O92 O 0.47085 0.99624 0.95725
 O93 O 0.47089 0.99517 1.05127
 O94 O 0.52897 0.99693 0.95681
 H95 H 0.54289 1.06535 1.00483
 H96 H 0.45592 0.99639 0.93812
 H97 H 0.54432 0.92792 1.00363
 H98 H 0.45580 0.99480 1.07023
 H99 H 0.51233 1.02571 0.90357
 H100 H 0.51396 0.96833 0.90294
 H101 H 0.48497 0.89113 0.97482
 H102 H 0.48597 0.89049 1.03066
 H103 H 0.51367 0.96678 1.10485
 H104 H 0.51409 1.02439 1.10557
 H105 H 0.48429 1.10069 1.03283
 H106 H 0.48315 1.10129 0.97722
 O107 O -0.06390 0.54752 0.05621
 O108 O -0.03381 0.58453 0.02491
 C109 C -0.05483 0.57776 0.04769
 O110 O 0.05287 0.45185 0.05270
 O111 O 0.02070 0.41515 0.02289
 C112 C 0.04357 0.42170 0.04404
 O113 O 0.04998 0.54703 0.05644
 O114 O 0.02045 0.58437 0.02504
 C115 C 0.04128 0.57735 0.04796
 O116 O -0.06735 0.45217 0.05282
 O117 O -0.03569 0.41532 0.02289
 C118 C -0.05828 0.42196 0.04421
 Zr119 Zr -0.04927 0.49992 0.03700
 O120 O -0.05087 0.49606 0.08821
 O121 O -0.10161 0.50387 0.03517
 Zr122 Zr 0.03499 0.49962 0.03708
 O123 O 0.03652 0.49554 0.08827
 O124 O 0.08735 0.50341 0.03557
 O125 O -0.00697 0.52964 0.04367
 O126 O -0.00727 0.47062 0.04281
 O127 O -0.06788 0.45299 -0.06107
 O128 O -0.03630 0.41578 -0.03148
 C129 C -0.05901 0.42269 -0.05265
 O130 O 0.05028 0.54779 -0.06326
 O131 O 0.02056 0.58470 -0.03154
 C132 C 0.04157 0.57801 -0.05436
 O133 O 0.05299 0.45249 -0.06094
 O134 O 0.02065 0.41547 -0.03189
 C135 C 0.04368 0.42224 -0.05274
 O136 O -0.06408 0.54833 -0.06336
 O137 O -0.03381 0.58489 -0.03156
 C138 C -0.05495 0.57845 -0.05440
 Zr139 Zr -0.04931 0.50046 -0.04491
 O140 O -0.05042 0.49709 -0.09618
 O141 O -0.10166 0.50452 -0.04360
 Zr142 Zr 0.03493 0.50011 -0.04489
 O143 O 0.03574 0.49667 -0.09616
 O144 O 0.08732 0.50378 -0.04370
 Zr145 Zr -0.00685 0.55015 -0.00355
 Zr146 Zr -0.00736 0.44979 -0.00428
 O147 O -0.00736 0.47111 -0.05108
 O148 O -0.00702 0.53028 -0.05108
 O149 O -0.05581 0.46988 -0.00416
 O150 O 0.04113 0.52934 -0.00368
 O151 O -0.05508 0.52973 -0.00374
 O152 O 0.04126 0.46955 -0.00410
 H153 H -0.00727 0.45549 0.06197
 H154 H 0.06043 0.54490 -0.00350
 H155 H -0.00747 0.45607 -0.07033
 H156 H -0.07422 0.54542 -0.00363
 H157 H 0.09581 0.48307 0.02429
 H158 H 0.09576 0.48386 -0.03179
 H159 H 0.02109 0.51464 -0.10467
 H160 H -0.03517 0.51460 -0.10464
 H161 H -0.11028 0.48455 -0.03186
 H162 H -0.11022 0.48331 0.02432
 H163 H -0.03521 0.51303 0.09703
 H164 H 0.02089 0.51245 0.09710
 O165 O 1.06788 -0.05469 0.54566
 O166 O 1.03611 -0.02348 0.58089
 C167 C 1.05903 -0.04533 0.57460
 O168 O 1.06595 0.06486 0.45368
 O169 O 1.03551 0.03211 0.41839
 C170 C 1.05715 0.05538 0.42471
 O171 O 1.06909 0.06208 0.54529
 O172 O 1.03648 0.03198 0.58071
 C173 C 1.06000 0.05322 0.57429
 O174 O 1.06490 -0.05825 0.45416
 O175 O 1.03459 -0.02585 0.41865
 C176 C 1.05608 -0.04914 0.42514
 Zr177 Zr 1.04907 -0.03917 0.49980
 O178 O 1.10144 -0.03992 0.49627
 O179 O 1.04799 -0.09258 0.50358
 Zr180 Zr 1.04981 0.04656 0.49957
 O181 O 1.10216 0.04697 0.49603
 O182 O 1.04926 0.10000 0.50310
 O183 O 1.05590 0.00377 0.52851
 O184 O 1.05543 0.00353 0.47161
 O185 O 0.94879 -0.05746 0.45409
 O186 O 0.97949 -0.02540 0.41864
 C187 C 0.95763 -0.04841 0.42509
 O188 O 0.94649 0.06236 0.54517
 O189 O 0.97863 0.03192 0.58072
 C190 C 0.95528 0.05323 0.57419
 O191 O 0.94997 0.06586 0.45377
 O192 O 0.98018 0.03319 0.41845
 C193 C 0.95876 0.05657 0.42481
 O194 O 0.94622 -0.05407 0.54552
 O195 O 0.97917 -0.02403 0.58084
 C196 C 0.95556 -0.04523 0.57450
 Zr197 Zr 0.96518 -0.03869 0.49972
 O198 O 0.91279 -0.03883 0.49618
 O199 O 0.96565 -0.09211 0.50346
 Zr200 Zr 0.96590 0.04719 0.49952
 O201 O 0.91359 0.04894 0.49577
 O202 O 0.96779 0.10059 0.50336
 Zr203 Zr 1.00744 0.00420 0.54773
 Zr204 Zr 1.00739 0.00380 0.45148
 O205 O 0.95943 0.00420 0.47156
 O206 O 0.95902 0.00438 0.52838
 O207 O 1.00704 -0.04560 0.47079
 O208 O 1.00789 0.05315 0.52780
 O209 O 1.00711 -0.04493 0.52795
 O210 O 1.00788 0.05334 0.47054
 H211 H 1.07497 0.00328 0.45706
 H212 H 1.00797 0.07279 0.54278
 H213 H 0.93989 0.00432 0.45694
 H214 H 1.00705 -0.06463 0.54281
 H215 H 1.03704 0.10873 0.48404
 H216 H 0.97977 0.10920 0.48412
 H217 H 0.90460 0.03272 0.51176
 H218 H 0.90416 -0.02465 0.51406
 H219 H 0.97801 -0.10098 0.48457
 H220 H 1.03502 -0.10131 0.48496
 H221 H 1.11032 -0.02575 0.51408
 H222 H 1.11078 0.03176 0.51310
 C223 C 1.09905 0.09637 0.34355
 C224 C 1.12396 0.07803 0.32691
 C225 C 1.13665 0.09043 0.29702
 C226 C 1.12454 0.12120 0.28407
 C227 C 1.09963 0.13952 0.30072
 C228 C 1.08681 0.12703 0.33052
 C229 C 1.06176 0.14565 0.34660
 C230 C 1.04971 0.17576 0.33362
 C231 C 1.06227 0.18800 0.30450
 C232 C 1.08695 0.17021 0.28814
 C233 C 1.16124 0.07147 0.28064
 C234 C 1.17305 0.04118 0.29347
 C235 C 1.16081 0.02918 0.32281
 C236 C 1.13651 0.04726 0.33943
 C237 C 1.13766 0.13411 0.25368
 C238 C 1.14833 0.14526 0.22854
 C239 C 1.08503 0.08294 0.37330
 C240 C 1.07273 0.07102 0.39735
 H241 H 1.05122 0.13718 0.36934
 H242 H 1.03054 0.18967 0.34623
 H243 H 1.05285 0.21142 0.29451
 H244 H 1.09588 0.18075 0.26555
 H245 H 1.17154 0.07979 0.25775
 H246 H 1.19179 0.02696 0.28058
 H247 H 1.17000 0.00560 0.33265
 H248 H 1.12764 0.03678 0.36208
 C249 C 0.91284 -0.08937 0.34512
 C250 C 0.90974 -0.12477 0.34076
 C251 C 0.89536 -0.13780 0.31180
 C252 C 0.88414 -0.11534 0.28738
 C253 C 0.88706 -0.07991 0.29182
 C254 C 0.90139 -0.06688 0.32081
 C255 C 0.90394 -0.03135 0.32475
 C256 C 0.89262 -0.00937 0.30076
 C257 C 0.87877 -0.02211 0.27235
 C258 C 0.87595 -0.05696 0.26780
 C259 C 0.89260 -0.17331 0.30796
 C260 C 0.90371 -0.19528 0.33206
 C261 C 0.91776 -0.18252 0.36038
 C262 C 0.92081 -0.14769 0.36481
 C263 C 0.86960 -0.12871 0.25775
 C264 C 0.85753 -0.14005 0.23325
 C265 C 0.92836 -0.07600 0.37425
 C266 C 0.94156 -0.06408 0.39792
 H267 H 0.91457 -0.02018 0.34639
 H268 H 0.89454 0.01771 0.30425
 H269 H 0.87011 -0.00490 0.25376
 H270 H 0.86494 -0.06567 0.24531
 H271 H 0.88186 -0.18447 0.28636
 H272 H 0.90141 -0.22237 0.32874
 H273 H 0.92634 -0.19969 0.37903
 H274 H 0.93187 -0.13896 0.38726
 C275 C 0.90685 0.08983 0.65375
 C276 C 0.90771 0.07018 0.68247
 C277 C 0.89191 0.08218 0.71105
 C278 C 0.87571 0.11393 0.71082
 C279 C 0.87448 0.13336 0.68198
 C280 C 0.89008 0.12125 0.65334
 C281 C 0.88864 0.14113 0.62482
 C282 C 0.87221 0.17212 0.62460
 C283 C 0.85693 0.18397 0.65261
 C284 C 0.85798 0.16493 0.68104
 C285 C 0.89285 0.06200 0.73940
 C286 C 0.90913 0.03092 0.73956
 C287 C 0.92489 0.01934 0.71171
 C288 C 0.92424 0.03861 0.68341
 C289 C 0.86102 0.12706 0.74039
 C290 C 0.84906 0.13846 0.76485
 C291 C 0.92351 0.07781 0.62479
 C292 C 0.93776 0.06717 0.60124
 H293 H 0.90014 0.13297 0.60243
 H294 H 0.87134 0.18700 0.60257
 H295 H 0.84417 0.20804 0.65232
 H296 H 0.84567 0.17519 0.70218
 H297 H 0.88099 0.06995 0.76167
 H298 H 0.90951 0.01575 0.76142
 H299 H 0.93744 -0.00486 0.71193
 H300 H 0.93663 0.02839 0.66230
 C301 C 1.10136 -0.08687 0.65532
 C302 C 1.12683 -0.06959 0.67231
 C303 C 1.13902 -0.08283 0.70209
 C304 C 1.12593 -0.11346 0.71450
 C305 C 1.10045 -0.13072 0.69749
 C306 C 1.08815 -0.11741 0.66780
 C307 C 1.06268 -0.13513 0.65123
 C308 C 1.04971 -0.16512 0.66366
 C309 C 1.06163 -0.17807 0.69276
 C310 C 1.08671 -0.16120 0.70957
 C311 C 1.16413 -0.06485 0.71889
 C312 C 1.17693 -0.03472 0.70657
 C313 C 1.16522 -0.02193 0.67731
 C314 C 1.14045 -0.03906 0.66026
 C315 C 1.13886 -0.12753 0.74451
 C316 C 1.14935 -0.13985 0.76923
 C317 C 1.08765 -0.07254 0.62581
 C318 C 1.07524 -0.06039 0.60191
 H319 H 1.05258 -0.12610 0.62849
 H320 H 1.03037 -0.17843 0.65060
 H321 H 1.05143 -0.20135 0.70234
 H322 H 1.09513 -0.17228 0.73212
 H323 H 1.17404 -0.07381 0.74173
 H324 H 1.19605 -0.02124 0.71979
 H325 H 1.17520 0.00152 0.66787
 H326 H 1.13201 -0.02802 0.63769
 C327 C 0.34131 1.09285 1.09198
 C328 C 0.34084 1.10284 1.12498
 C329 C 0.31154 1.11688 1.13855
 C330 C 0.28288 1.12088 1.11901
 C331 C 0.28347 1.11122 1.08589
 C332 C 0.31273 1.09704 1.07236
 C333 C 0.31258 1.08715 1.03930
 C334 C 0.28433 1.09118 1.02017
 C335 C 0.25584 1.10538 1.03331
 C336 C 0.25526 1.11531 1.06578
 C337 C 0.31164 1.12659 1.17164
 C338 C 0.33987 1.12249 1.19079
 C339 C 0.36851 1.10873 1.17753
 C340 C 0.36914 1.09897 1.14502
 C341 C 0.25273 1.13449 1.13311
 C342 C 0.22780 1.14576 1.14504
 C343 C 0.37088 1.07754 1.07837
 C344 C 0.39499 1.06425 1.06678
 H345 H 0.33422 1.07623 1.02789
 H346 H 0.28462 1.08347 0.99495
 H347 H 0.23405 1.10870 1.01826
 H348 H 0.23250 1.12621 1.07491
 H349 H 0.28998 1.13747 1.18306
 H350 H 0.33952 1.13006 1.21606
 H351 H 0.39038 1.10561 1.19249
 H352 H 0.39200 1.08841 1.13580
 C353 C 0.34249 0.90204 0.91081
 C354 C 0.32106 0.88021 0.92821
 C355 C 0.29136 0.86827 0.91346
 C356 C 0.28334 0.87809 0.88134
 C357 C 0.30484 0.89984 0.86390
 C358 C 0.33453 0.91179 0.87867
 C359 C 0.35571 0.93337 0.86071
 C360 C 0.34779 0.94284 0.82907
 C361 C 0.31865 0.93137 0.81472
 C362 C 0.29734 0.91009 0.83181
 C363 C 0.27021 0.84667 0.93142
 C364 C 0.27826 0.83700 0.96299
 C365 C 0.30743 0.84846 0.97730
 C366 C 0.32862 0.86993 0.96029
 C367 C 0.25319 0.86558 0.86611
 C368 C 0.22829 0.85507 0.85333
 C369 C 0.37206 0.91550 0.92635
 C370 C 0.39608 0.92765 0.93937
 H371 H 0.37863 0.94302 0.87083
 H372 H 0.36440 0.95914 0.81560
 H373 H 0.31257 0.93893 0.79018
 H374 H 0.27498 0.90178 0.81958
 H375 H 0.24726 0.83706 0.92132
 H376 H 0.26179 0.82051 0.97641
 H377 H 0.31356 0.84088 1.00183
 H378 H 0.35093 0.87833 0.97253
 C379 C 0.65882 0.90947 1.09971
 C380 C 0.67288 0.87890 1.08830
 C381 C 0.70290 0.86677 1.10211
 C382 C 0.71872 0.88531 1.12721
 C383 C 0.70474 0.91598 1.13849
 C384 C 0.67457 0.92799 1.12485
 C385 C 0.66090 0.95855 1.13671
 C386 C 0.67676 0.97690 1.16115
 C387 C 0.70642 0.96533 1.17426
 C388 C 0.72032 0.93519 1.16321
 C389 C 0.71652 0.83616 1.09025
 C390 C 0.70093 0.81807 1.06549
 C391 C 0.67155 0.82992 1.05202
 C392 C 0.65759 0.85998 1.06317
 C393 C 0.74915 0.87253 1.14154
 C394 C 0.77426 0.86118 1.15310
 C395 C 0.62884 0.92244 1.08473
 C396 C 0.60451 0.93357 1.07156
 H397 H 0.63797 0.96868 1.12715
 H398 H 0.66611 1.00037 1.16977
 H399 H 0.71873 0.97978 1.19310
 H400 H 0.74341 0.92720 1.17416
 H401 H 0.73935 0.82591 1.09992
 H402 H 0.71168 0.79472 1.05673
 H403 H 0.65948 0.81571 1.03288
 H404 H 0.63469 0.86812 1.05193
 C405 C 0.65539 1.08500 0.90537
 C406 C 0.68439 1.06497 0.90306
 C407 C 0.71301 1.07808 0.88734
 C408 C 0.71255 1.11124 0.87439
 C409 C 0.68340 1.13107 0.87634
 C410 C 0.65471 1.11788 0.89185
 C411 C 0.62587 1.13818 0.89356
 C412 C 0.62540 1.17060 0.88033
 C413 C 0.65347 1.18352 0.86518
 C414 C 0.68221 1.16411 0.86314
 C415 C 0.74164 1.05753 0.88510
 C416 C 0.74204 1.02503 0.89819
 C417 C 0.71418 1.01235 0.91386
 C418 C 0.68559 1.03195 0.91629
 C419 C 0.74223 1.12532 0.85974
 C420 C 0.76675 1.13750 0.84778
 C421 C 0.62645 1.07189 0.92203
 C422 C 0.60278 1.06058 0.93615
 H423 H 0.60342 1.12923 0.90509
 H424 H 0.60313 1.18578 0.88185
 H425 H 0.65298 1.20873 0.85494
 H426 H 0.70338 1.17526 0.85107
 H427 H 0.76394 1.06631 0.87318
 H428 H 0.76411 1.00962 0.89617
 H429 H 0.71460 0.98708 0.92396
 H430 H 0.66446 1.02084 0.92848
 C431 C 0.08546 0.33939 0.08756
 C432 C 0.11447 0.34251 0.10676
 C433 C 0.12837 0.31341 0.12168
 C434 C 0.11311 0.28137 0.11736
 C435 C 0.08383 0.27833 0.09851
 C436 C 0.07007 0.30741 0.08338
 C437 C 0.04100 0.30371 0.06432
 C438 C 0.02577 0.27224 0.06060
 C439 C 0.03905 0.24387 0.07564
 C440 C 0.06778 0.24671 0.09434
 C441 C 0.15744 0.31715 0.14072
 C442 C 0.17232 0.34873 0.14491
 C443 C 0.15871 0.37720 0.13031
 C444 C 0.13013 0.37427 0.11142
 C445 C 0.12792 0.25157 0.13192
 C446 C 0.14076 0.22711 0.14400
 C447 C 0.07129 0.36906 0.07225
 C448 C 0.05906 0.39340 0.05944
 H449 H 0.02960 0.32507 0.05230
 H450 H 0.00343 0.26991 0.04613
 H451 H 0.02704 0.21951 0.07279
 H452 H 0.07719 0.22391 0.10554
 H453 H 0.16895 0.29578 0.15262
 H454 H 0.19452 0.35114 0.15957
 H455 H 0.17036 0.40167 0.13365
 H456 H 0.12048 0.39715 0.10057
 C457 C -0.09986 0.33966 -0.09636
 C458 C -0.08108 0.30940 -0.09605
 C459 C -0.09407 0.27961 -0.11069
 C460 C -0.12586 0.28021 -0.12537
 C461 C -0.14455 0.31052 -0.12581
 C462 C -0.13149 0.34034 -0.11128
 C463 C -0.15061 0.37033 -0.11199
 C464 C -0.18177 0.37085 -0.12665
 C465 C -0.19456 0.34170 -0.14087
 C466 C -0.17629 0.31180 -0.14051
 C467 C -0.07478 0.24972 -0.11022
 C468 C -0.04362 0.24923 -0.09554
 C469 C -0.03102 0.27828 -0.08099
 C470 C -0.04936 0.30812 -0.08126
 C471 C -0.13950 0.24962 -0.13971
 C472 C -0.15106 0.22429 -0.15153
 C473 C -0.08655 0.36995 -0.08122
 C474 C -0.07464 0.39452 -0.06835
 H475 H -0.14170 0.39366 -0.10126
 H476 H -0.19605 0.39401 -0.12700
 H477 H -0.21879 0.34223 -0.15223
 H478 H -0.18729 0.28979 -0.15192
 H479 H -0.08354 0.22647 -0.12119
 H480 H -0.02917 0.22617 -0.09544
 H481 H -0.00677 0.27779 -0.06967
 H482 H -0.03836 0.33011 -0.06983
 C483 C 0.08299 0.65993 -0.09935
 C484 C 0.06417 0.68996 -0.10262
 C485 C 0.07883 0.71925 -0.11659
 C486 C 0.11228 0.71839 -0.12701
 C487 C 0.13091 0.68818 -0.12424
 C488 C 0.11620 0.65886 -0.11040
 C489 C 0.13533 0.62898 -0.10780
 C490 C 0.16806 0.62809 -0.11858
 C491 C 0.18245 0.65676 -0.13211
 C492 C 0.16422 0.68653 -0.13496
 C493 C 0.05951 0.74894 -0.11968
 C494 C 0.02668 0.74972 -0.10913
 C495 C 0.01244 0.72117 -0.09522
 C496 C 0.03082 0.69153 -0.09202
 C497 C 0.12776 0.74865 -0.14006
 C498 C 0.14102 0.77361 -0.15076
 C499 C 0.06844 0.63043 -0.08396
 C500 C 0.05632 0.60622 -0.07071
 H501 H 0.12521 0.60601 -0.09749
 H502 H 0.18232 0.60503 -0.11642
 H503 H 0.20788 0.65593 -0.14045
 H504 H 0.17651 0.70815 -0.14568
 H505 H 0.06952 0.77181 -0.13029
 H506 H 0.01223 0.77261 -0.11173
 H507 H -0.01307 0.72190 -0.08709
 H508 H 0.01855 0.66990 -0.08128
 C509 C -0.09322 0.66083 0.09320
 C510 C -0.07514 0.67677 0.11846
 C511 C -0.08737 0.70701 0.13278
 C512 C -0.11777 0.72094 0.12197
 C513 C -0.13581 0.70503 0.09665
 C514 C -0.12350 0.67488 0.08224
 C515 C -0.14198 0.65942 0.05699
 C516 C -0.17177 0.67335 0.04630
 C517 C -0.18375 0.70289 0.06030
 C518 C -0.16609 0.71865 0.08520
 C519 C -0.06867 0.72271 0.15772
 C520 C -0.03882 0.70884 0.16834
 C521 C -0.02701 0.67911 0.15454
 C522 C -0.04483 0.66317 0.12985
 C523 C -0.13080 0.75132 0.13714
 C524 C -0.14211 0.77636 0.14966
 C525 C -0.08019 0.63060 0.07781
 C526 C -0.06897 0.60603 0.06445
 H527 H -0.13369 0.63640 0.04530
 H528 H -0.18568 0.66112 0.02710
 H529 H -0.20688 0.71363 0.05185
 H530 H -0.17643 0.74160 0.09531
 H531 H -0.07687 0.74586 0.16921
 H532 H -0.02478 0.72123 0.18737
 H533 H -0.00376 0.66850 0.16282
 H534 H -0.03451 0.64021 0.11974
 C535 C 1.10508 0.09221 0.65503
 C536 C 1.10700 0.07129 0.68287
 C537 C 1.12009 0.08445 0.71237
 C538 C 1.13094 0.11851 0.71393
 C539 C 1.12957 0.13923 0.68592
 C540 C 1.11662 0.12602 0.65638
 C541 C 1.11534 0.14725 0.62876
 C542 C 1.12655 0.18059 0.63028
 C543 C 1.13921 0.19351 0.65916
 C544 C 1.14076 0.17319 0.68673
 C545 C 1.12183 0.06304 0.73984
 C546 C 1.11070 0.02967 0.73830
 C547 C 1.09759 0.01690 0.70957
 C548 C 1.09582 0.03730 0.68206
 C549 C 1.14283 0.13248 0.74445
 C550 C 1.15251 0.14429 0.76977
 C551 C 1.09015 0.07920 0.62543
 C552 C 1.07691 0.06782 0.60153
 H553 H 1.10573 0.13832 0.60575
 H554 H 1.12540 0.19649 0.60893
 H555 H 1.14790 0.21942 0.66021
 H556 H 1.15086 0.18437 0.70861
 H557 H 1.13178 0.07184 0.76276
 H558 H 1.11225 0.01363 0.75953
 H559 H 1.08895 -0.00903 0.70851
 H560 H 1.08568 0.02610 0.66020
 C561 C 0.91050 -0.08480 0.65480
 C562 C 0.91987 -0.11708 0.66643
 C563 C 0.90611 -0.12963 0.69581
 C564 C 0.88297 -0.10986 0.71333
 C565 C 0.87363 -0.07754 0.70173
 C566 C 0.88731 -0.06505 0.67229
 C567 C 0.87736 -0.03281 0.66101
 C568 C 0.85473 -0.01337 0.67843
 C569 C 0.84162 -0.02543 0.70739
 C570 C 0.85082 -0.05716 0.71899
 C571 C 0.91602 -0.16192 0.70702
 C572 C 0.93871 -0.18131 0.68961
 C573 C 0.95200 -0.16910 0.66080
 C574 C 0.94285 -0.13734 0.64927
 C575 C 0.86851 -0.12303 0.74303
 C576 C 0.85663 -0.13451 0.76751
 C577 C 0.92561 -0.07141 0.62553
 C578 C 0.93885 -0.05986 0.60177
 H579 H 0.88704 -0.02226 0.63872
 H580 H 0.84757 0.01134 0.66956
 H581 H 0.82422 -0.01013 0.72093
 H582 H 0.83993 -0.06548 0.74161
 H583 H 0.90638 -0.17252 0.72931
 H584 H 0.94596 -0.20598 0.69851
 H585 H 0.96942 -0.18436 0.64726
 H586 H 0.95388 -0.12895 0.62674
 C587 C 1.09911 -0.09163 0.34521
 C588 C 1.10882 -0.12601 0.34445
 C589 C 1.12228 -0.14001 0.31554
 C590 C 1.12599 -0.11951 0.28759
 C591 C 1.11679 -0.08496 0.28853
 C592 C 1.10322 -0.07099 0.31740
 C593 C 1.09387 -0.03646 0.31765
 C594 C 1.09781 -0.01635 0.29016
 C595 C 1.11133 -0.02994 0.26202
 C596 C 1.12073 -0.06385 0.26106
 C597 C 1.13167 -0.17451 0.31531
 C598 C 1.12789 -0.19458 0.34286
 C599 C 1.11474 -0.18087 0.37112
 C600 C 1.10526 -0.14700 0.37205
 C601 C 1.13863 -0.13421 0.25777
 C602 C 1.14885 -0.14685 0.23309
 C603 C 1.08434 -0.07756 0.37434
 C604 C 1.07166 -0.06520 0.39800
 H605 H 1.08347 -0.02463 0.33903
 H606 H 1.09052 0.01000 0.29077
 H607 H 1.11454 -0.01413 0.24081
 H608 H 1.13110 -0.07328 0.23859
 H609 H 1.14205 -0.18633 0.29392
 H610 H 1.13522 -0.22090 0.34226
 H611 H 1.11187 -0.19655 0.39246
 H612 H 1.09518 -0.13747 0.39461
 C613 C 0.91558 0.09796 0.34446
 C614 C 0.88954 0.12182 0.34654
 C615 C 0.87436 0.13415 0.31774
 C616 C 0.88528 0.12247 0.28703
 C617 C 0.91134 0.09859 0.28497
 C618 C 0.92665 0.08641 0.31376
 C619 C 0.95276 0.06265 0.31108
 C620 C 0.96327 0.05107 0.28083
 C621 C 0.94819 0.06286 0.25269
 C622 C 0.92255 0.08638 0.25458
 C623 C 0.84833 0.15797 0.32043
 C624 C 0.83759 0.16926 0.35071
 C625 C 0.85243 0.15719 0.37887
 C626 C 0.87813 0.13374 0.37696
 C627 C 0.86975 0.13506 0.25761
 C628 C 0.85684 0.14562 0.23324
 C629 C 0.93054 0.08459 0.37380
 C630 C 0.94322 0.07249 0.39758
 H631 H 0.96524 0.05267 0.33227
 H632 H 0.98319 0.03282 0.27923
 H633 H 0.95641 0.05377 0.22925
 H634 H 0.91163 0.09482 0.23200
 H635 H 0.83598 0.16808 0.29922
 H636 H 0.81763 0.18747 0.35232
 H637 H 0.84400 0.16603 0.40233
 H638 H 0.88893 0.12512 0.39954
 C639 C 0.08728 0.34002 -0.09512
 C640 C 0.12082 0.33216 -0.08838
 C641 C 0.13542 0.30276 -0.10214
 C642 C 0.11634 0.28136 -0.12255
 C643 C 0.08278 0.28922 -0.12929
 C644 C 0.06822 0.31868 -0.11559
 C645 C 0.03465 0.32608 -0.12277
 C646 C 0.01603 0.30499 -0.14293
 C647 C 0.03020 0.27607 -0.15615
 C648 C 0.06319 0.26816 -0.14951
 C649 C 0.16901 0.29543 -0.09500
 C650 C 0.18763 0.31654 -0.07485
 C651 C 0.17333 0.34526 -0.06137
 C652 C 0.14034 0.35311 -0.06798
 C653 C 0.13134 0.25135 -0.13657
 C654 C 0.14421 0.22655 -0.14801
 C655 C 0.07224 0.36972 -0.08055
 C656 C 0.05950 0.39404 -0.06809
 H657 H 0.02246 0.34818 -0.11291
 H658 H -0.00962 0.31101 -0.14815
 H659 H 0.01555 0.25969 -0.17165
 H660 H 0.07313 0.24541 -0.16040
 H661 H 0.18125 0.27336 -0.10488
 H662 H 0.21328 0.31056 -0.06965
 H663 H 0.18789 0.36157 -0.04572
 H664 H 0.13035 0.37576 -0.05695
 C665 C -0.09787 0.33915 0.08926
 C666 C -0.07605 0.31720 0.10608
 C667 C -0.08863 0.28750 0.12114
 C668 C -0.12298 0.28005 0.11952
 C669 C -0.14479 0.30204 0.10276
 C670 C -0.13219 0.33166 0.08757
 C671 C -0.15446 0.35324 0.07095
 C672 C -0.18823 0.34579 0.06941
 C673 C -0.20056 0.31682 0.08425
 C674 C -0.17921 0.29511 0.10076
 C675 C -0.06632 0.26583 0.13762
 C676 C -0.03259 0.27346 0.13944
 C677 C -0.02036 0.30269 0.12504
 C678 C -0.04167 0.32429 0.10834
 C679 C -0.13596 0.25002 0.13537
 C680 C -0.14696 0.22524 0.14862
 C681 C -0.08487 0.36914 0.07340
 C682 C -0.07337 0.39363 0.06010
 H683 H -0.14605 0.37607 0.05904
 H684 H -0.20493 0.36259 0.05663
 H685 H -0.22681 0.31115 0.08297
 H686 H -0.18999 0.27288 0.11189
 H687 H -0.07468 0.24284 0.14928
 H688 H -0.01587 0.25665 0.15216
 H689 H 0.00581 0.30862 0.12677
 H690 H -0.03089 0.34661 0.09736
 C691 C -0.09343 0.66245 -0.09809
 C692 C -0.12385 0.67606 -0.08704
 C693 C -0.13611 0.70664 -0.10062
 C694 C -0.11791 0.72339 -0.12523
 C695 C -0.08738 0.70987 -0.13614
 C696 C -0.07518 0.67924 -0.12263
 C697 C -0.04472 0.66610 -0.13408
 C698 C -0.02672 0.68286 -0.15805
 C699 C -0.03853 0.71294 -0.17108
 C700 C -0.06852 0.72638 -0.16038
 C701 C -0.16652 0.71983 -0.08906
 C702 C -0.18434 0.70323 -0.06486
 C703 C -0.17242 0.67328 -0.05169
 C704 C -0.14252 0.65975 -0.06252
 C705 C -0.13083 0.75427 -0.13950
 C706 C -0.14208 0.77976 -0.15118
 C707 C -0.08040 0.63185 -0.08344
 C708 C -0.06916 0.60699 -0.07063
 H709 H -0.03443 0.64285 -0.12458
 H710 H -0.00336 0.67258 -0.16637
 H711 H -0.02438 0.72594 -0.18958
 H712 H -0.07668 0.74986 -0.17124
 H713 H -0.17680 0.74308 -0.09851
 H714 H -0.20756 0.71365 -0.05632
 H715 H -0.18644 0.66040 -0.03304
 H716 H -0.13429 0.63637 -0.05151
 C717 C 0.08166 0.65797 0.09609
 C718 C 0.11461 0.65640 0.10790
 C719 C 0.12899 0.68512 0.12324
 C720 C 0.11032 0.71522 0.12672
 C721 C 0.07710 0.71653 0.11557
 C722 C 0.06277 0.68786 0.10007
 C723 C 0.02967 0.68990 0.08872
 C724 C 0.01122 0.71939 0.09268
 C725 C 0.02514 0.74732 0.10811
 C726 C 0.05772 0.74608 0.11941
 C727 C 0.16204 0.68301 0.13471
 C728 C 0.18034 0.65337 0.13114
 C729 C 0.16627 0.62529 0.11613
 C730 C 0.13380 0.62664 0.10459
 C731 C 0.12571 0.74500 0.14094
 C732 C 0.13927 0.76946 0.15242
 C733 C 0.06744 0.62907 0.07936
 C734 C 0.05564 0.60525 0.06516
 H735 H 0.01765 0.66874 0.07681
 H736 H -0.01410 0.72049 0.08397
 H737 H 0.01062 0.77008 0.11134
 H738 H 0.06749 0.76845 0.13122
 H739 H 0.17408 0.70416 0.14660
 H740 H 0.20557 0.65220 0.14009
 H741 H 0.18060 0.60233 0.11341
 H742 H 0.12395 0.60411 0.09311
 C743 C 0.34116 1.09097 0.91487
 C744 C 0.32986 1.07799 0.88475
 C745 C 0.30063 1.09127 0.87031
 C746 C 0.28290 1.11746 0.88605
 C747 C 0.29403 1.13018 0.91634
 C748 C 0.32334 1.11700 0.93072
 C749 C 0.33413 1.13028 0.96088
 C750 C 0.31634 1.15573 0.97649
 C751 C 0.28753 1.16843 0.96255
 C752 C 0.27642 1.15595 0.93279
 C753 C 0.28978 1.07784 0.84022
 C754 C 0.30735 1.05210 0.82482
 C755 C 0.33598 1.03921 0.83890
 C756 C 0.34720 1.05185 0.86854
 C757 C 0.25358 1.13164 0.87078
 C758 C 0.22947 1.14346 0.85773
 C759 C 0.37065 1.07691 0.92983
 C760 C 0.39476 1.06440 0.94221
 H761 H 0.35629 1.12108 0.97278
 H762 H 0.32482 1.16545 0.99964
 H763 H 0.27372 1.18807 0.97485
 H764 H 0.25388 1.16662 0.92291
 H765 H 0.26762 1.08702 0.82832
 H766 H 0.29872 1.04214 0.80181
 H767 H 0.34962 1.01936 0.82675
 H768 H 0.36961 1.04095 0.87851
 C769 C 0.34291 0.89639 1.09193
 C770 C 0.34408 0.88248 1.12356
 C771 C 0.31473 0.86937 1.13793
 C772 C 0.28440 0.87018 1.12055
 C773 C 0.28338 0.88350 1.08866
 C774 C 0.31270 0.89675 1.07435
 C775 C 0.31097 0.91036 1.04260
 C776 C 0.28113 0.91082 1.02550
 C777 C 0.25253 0.89760 1.03939
 C778 C 0.25348 0.88410 1.07062
 C779 C 0.31645 0.85582 1.16968
 C780 C 0.34632 0.85522 1.18673
 C781 C 0.37503 0.86802 1.17266
 C782 C 0.37407 0.88154 1.14144
 C783 C 0.25422 0.85781 1.13568
 C784 C 0.22922 0.84761 1.14838
 C785 C 0.37243 0.91139 1.07786
 C786 C 0.39639 0.92468 1.06594
 H787 H 0.33260 0.92068 1.03063
 H788 H 0.28027 0.92126 1.00122
 H789 H 0.22946 0.89782 1.02592
 H790 H 0.23057 0.87418 1.08042
 H791 H 0.29479 0.84555 1.18165
 H792 H 0.34718 0.84475 1.21099
 H793 H 0.39817 0.86750 1.18601
 H794 H 0.39705 0.89116 1.13151
 C795 C 0.65648 1.08559 1.10187
 C796 C 0.65659 1.11906 1.11411
 C797 C 0.68585 1.13254 1.12847
 C798 C 0.71481 1.11241 1.13060
 C799 C 0.71446 1.07865 1.11903
 C800 C 0.68526 1.06525 1.10446
 C801 C 0.68569 1.03162 1.09257
 C802 C 0.71409 1.01176 1.09515
 C803 C 0.74251 1.02474 1.10971
 C804 C 0.74286 1.05781 1.12151
 C805 C 0.68543 1.16618 1.14032
 C806 C 0.65691 1.18591 1.13807
 C807 C 0.62830 1.17271 1.12406
 C808 C 0.62800 1.13969 1.11216
 C809 C 0.74512 1.12682 1.14384
 C810 C 0.77015 1.13937 1.15450
 C811 C 0.62706 1.07231 1.08595
 C812 C 0.60308 1.06089 1.07227
 H813 H 0.66410 1.02027 1.08130
 H814 H 0.71396 0.98605 1.08604
 H815 H 0.76443 1.00911 1.11187
 H816 H 0.76557 1.06681 1.13260
 H817 H 0.70705 1.17757 1.15149
 H818 H 0.65701 1.21157 1.14727
 H819 H 0.60621 1.18813 1.12238
 H820 H 0.60514 1.13054 1.10148
 C821 C 0.65860 0.91156 0.90681
 C822 C 0.67354 0.93090 0.88185
 C823 C 0.70348 0.91960 0.86724
 C824 C 0.71809 0.88882 0.87742
 C825 C 0.70319 0.86955 0.90246
 C826 C 0.67340 0.88098 0.91723
 C827 C 0.65907 0.86135 0.94231
 C828 C 0.67373 0.83128 0.95248
 C829 C 0.70285 0.82010 0.93805
 C830 C 0.71749 0.83888 0.91329
 C831 C 0.71819 0.93958 0.84267
 C832 C 0.70371 0.96985 0.83274
 C833 C 0.67430 0.98077 0.84682
 C834 C 0.65927 0.96161 0.87109
 C835 C 0.74824 0.87669 0.86204
 C836 C 0.77312 0.86577 0.84967
 C837 C 0.62866 0.92366 0.92252
 C838 C 0.60435 0.93424 0.93614
 H839 H 0.63641 0.86898 0.95429
 H840 H 0.66240 0.81653 0.97161
 H841 H 0.71415 0.79672 0.94604
 H842 H 0.74015 0.82911 0.90284
 H843 H 0.74105 0.93210 0.83096
 H844 H 0.71537 0.98491 0.81401
 H845 H 0.66319 1.00433 0.83907
 H846 H 0.63651 0.97127 0.88144
   
