data_POSCAR
  _audit_creation_date              2014-09-24
  _audit_creation_method            'ToBaCCo'
  _symmetry_space_group_name_H-M    'P1'
  _symmetry_Int_Tables_number       1
  _symmetry_cell_setting            triclinic
  loop_
  _symmetry_equiv_pos_as_xyz
 x,y,z
_cell_length_a 44.0101
_cell_length_b 44.5650
_cell_length_c 44.0238
_cell_angle_alpha 91.086900
_cell_angle_beta 89.649200
_cell_angle_gamma 90.197900
loop_
  _atom_site_label
  _atom_site_type_symbol
  _atom_site_fract_x
  _atom_site_fract_y
  _atom_site_fract_z
C1 C 0.20341 0.52127 1.03904
 H2 H 0.20302 0.53830 1.02185
 C3 C 0.18258 0.52241 1.06307
 H4 H 0.16615 0.54046 1.06447
 C5 C 0.22473 0.47647 1.05773
 H6 H 0.24075 0.45829 1.05524
 C7 C 0.20427 0.47673 1.08213
 H8 H 0.20483 0.45885 1.09848
 N9 N 0.22404 0.49865 1.03690
 C10 C 0.29714 0.53289 0.97983
 H11 H 0.29801 0.51517 0.96270
 C12 C 0.31793 0.55657 0.97887
 H13 H 0.33486 0.55719 0.96092
 C14 C 0.27457 0.55334 1.02468
 H15 H 0.25804 0.55170 1.04280
 C16 C 0.29497 0.57746 1.02455
 H17 H 0.29394 0.59446 1.04244
 Zn18 Zn 0.25005 0.49778 1.00251
 N19 N 0.27592 0.53178 1.00238
 C20 C 0.22656 0.51943 0.94703
 N21 N 0.22501 0.49713 0.96771
 C22 C 0.20414 0.47464 0.96511
 C23 C 0.18394 0.47381 0.94076
 C24 C 0.20676 0.51946 0.92235
 C25 C 0.29605 0.46240 1.02587
 C26 C 0.31670 0.43877 1.02695
 C27 C 0.29488 0.41815 0.98079
 C28 C 0.27459 0.44222 0.98055
 N29 N 0.27547 0.46365 1.00299
 H30 H 0.24274 0.53752 0.94988
 H31 H 0.20303 0.45752 0.98218
 H32 H 0.16727 0.45593 0.93895
 H33 H 0.20793 0.53741 0.90613
 H34 H 0.29657 0.48003 1.04310
 H35 H 0.33318 0.43809 1.04511
 H36 H 0.29429 0.40130 0.96274
 H37 H 0.25859 0.44398 0.96218
 C38 C 0.31685 0.57902 1.00145
 C39 C 0.18297 0.49988 1.08478
 C40 C 0.31616 0.41650 1.00417
 C41 C 0.18523 0.49648 0.91926
 C42 C 0.79579 0.52430 -0.03701
 H43 H 0.79659 0.54180 -0.01966
 C44 C 0.81654 0.52451 -0.06112
 H45 H 0.83334 0.54226 -0.06246
 C46 C 0.77345 0.47930 -0.05613
 H47 H 0.75703 0.46142 -0.05379
 C48 C 0.79382 0.47864 -0.08061
 H49 H 0.79286 0.46040 -0.09720
 N50 N 0.77468 0.50204 -0.03506
 C51 C 0.70253 0.53979 0.02211
 H52 H 0.70137 0.52304 0.03955
 C53 C 0.68220 0.56378 0.02268
 H54 H 0.66535 0.56561 0.04065
 C55 C 0.72525 0.55740 -0.02323
 H56 H 0.74159 0.55449 -0.04144
 C57 C 0.70531 0.58173 -0.02353
 H58 H 0.70653 0.59762 -0.04182
 Zn59 Zn 0.74868 0.50270 -0.00065
 N60 N 0.72359 0.53711 -0.00054
 C61 C 0.77275 0.52550 0.05518
 N62 N 0.77382 0.50279 0.03407
 C63 C 0.79425 0.48008 0.03621
 C64 C 0.81442 0.47940 0.06053
 C65 C 0.79257 0.52569 0.07987
 C66 C 0.70200 0.46681 -0.02404
 C67 C 0.68123 0.44309 -0.02523
 C68 C 0.70294 0.42407 0.02086
 C69 C 0.72333 0.44818 0.02121
 N70 N 0.72262 0.46884 -0.00117
 H71 H 0.75691 0.54373 0.05270
 H72 H 0.79496 0.46261 0.01881
 H73 H 0.83068 0.46130 0.06199
 H74 H 0.79176 0.54392 0.09649
 H75 H 0.70162 0.48383 -0.04124
 H76 H 0.66480 0.44172 -0.04343
 H77 H 0.70349 0.40779 0.03882
 H78 H 0.73935 0.45056 0.03958
 C79 C 0.68356 0.58488 -0.00040
 C80 C 0.81555 0.50144 -0.08307
 C81 C 0.68170 0.42155 -0.00256
 C82 C 0.81359 0.50244 0.08251
 C83 C -0.02374 0.29594 0.45801
 H84 H -0.04090 0.29639 0.47572
 C85 C -0.02489 0.31655 0.43457
 H86 H -0.04310 0.33286 0.43417
 C87 C 0.02159 0.27487 0.43758
 H88 H 0.04002 0.25906 0.43924
 C89 C 0.02130 0.29510 0.41370
 H90 H 0.03941 0.29460 0.39690
 N91 N -0.00079 0.27563 0.45908
 C92 C -0.03487 0.20433 0.51662
 H93 H -0.01700 0.20405 0.53338
 C94 C -0.05855 0.18349 0.51795
 H95 H -0.05902 0.16711 0.53583
 C96 C -0.05565 0.22542 0.47227
 H97 H -0.05410 0.24139 0.45418
 C98 C -0.07978 0.20493 0.47277
 H99 H -0.09689 0.20532 0.45520
 Zn100 Zn 0.00029 0.25063 0.49329
 N101 N -0.03390 0.22482 0.49412
 C102 C -0.02150 0.27486 0.54970
 N103 N 0.00074 0.27618 0.52811
 C104 C 0.02320 0.29719 0.52977
 C105 C 0.02408 0.31780 0.55402
 C106 C -0.02147 0.29508 0.57435
 C107 C 0.03699 0.20499 0.46919
 C108 C 0.06091 0.18449 0.46819
 C109 C 0.08057 0.20718 0.51437
 C110 C 0.05627 0.22728 0.51452
 N111 N 0.03511 0.22584 0.49210
 H112 H -0.03957 0.25851 0.54760
 H113 H 0.04028 0.29805 0.51202
 H114 H 0.04193 0.33459 0.55505
 H115 H -0.03935 0.29409 0.59133
 H116 H 0.01955 0.20400 0.45199
 H117 H 0.06199 0.16768 0.45011
 H118 H 0.09706 0.20812 0.53254
 H119 H 0.05398 0.24348 0.53294
 C120 C -0.08115 0.18375 0.49579
 C121 C -0.00209 0.31622 0.41229
 C122 C 0.08278 0.18550 0.49108
 C123 C 0.00150 0.31677 0.57646
 C124 C 0.97755 0.70476 0.54259
 H125 H 0.95993 0.70413 0.52556
 C126 C 0.97712 0.68415 0.56607
 H127 H 0.95906 0.66763 0.56725
 C128 C 1.02336 0.72624 0.56120
 H129 H 1.04172 0.74217 0.55879
 C130 C 1.02379 0.70600 0.58507
 H131 H 1.04234 0.70658 0.60113
 N132 N 1.00042 0.72526 0.54058
 C133 C 0.96508 0.79593 0.48371
 H134 H 0.98265 0.79624 0.46643
 C135 C 0.94136 0.81658 0.48295
 H136 H 0.94056 0.83283 0.46497
 C137 C 0.94511 0.77498 0.52882
 H138 H 0.94700 0.75913 0.54696
 C139 C 0.92096 0.79529 0.52890
 H140 H 0.90415 0.79488 0.54697
 Zn141 Zn 1.00071 0.75008 0.50622
 N142 N 0.96647 0.77560 0.50632
 C143 C 0.97770 0.72529 0.45080
 N144 N 1.00048 0.72433 0.47155
 C145 C 1.02294 0.70350 0.46922
 C146 C 1.02320 0.68263 0.44517
 C147 C 0.97711 0.70482 0.42636
 C148 C 1.03770 0.79613 0.52893
 C149 C 1.06160 0.81681 0.52916
 C150 C 1.08051 0.79410 0.48250
 C151 C 1.05624 0.77380 0.48313
 N152 N 1.03547 0.77516 0.50616
 H153 H 0.95964 0.74150 0.45343
 H154 H 1.04046 0.70291 0.48634
 H155 H 1.04102 0.66595 0.44364
 H156 H 0.95877 0.70549 0.41009
 H157 H 1.02056 0.79704 0.54664
 H158 H 1.06297 0.83368 0.54714
 H159 H 1.09670 0.79320 0.46387
 H160 H 1.05368 0.75749 0.46487
 C161 C 0.91915 0.81629 0.50577
 C162 C 1.00055 0.68468 0.58738
 C163 C 1.08309 0.81587 0.50565
 C164 C 1.00002 0.68326 0.42362
 C165 C 0.46693 -0.01868 0.29494
 H166 H 0.48417 -0.03591 0.29560
 C167 C 0.44255 -0.01925 0.31534
 H168 H 0.44089 -0.03700 0.33175
 C169 C 0.44830 0.02589 0.27317
 H170 H 0.45091 0.04372 0.25708
 C171 C 0.42355 0.02619 0.29322
 H172 H 0.40701 0.04409 0.29235
 N173 N 0.46924 0.00351 0.27424
 C174 C 0.52611 -0.03450 0.20186
 H175 H 0.54391 -0.01774 0.20102
 C176 C 0.52635 -0.05874 0.18129
 H177 H 0.54447 -0.06070 0.16460
 C178 C 0.48023 -0.05194 0.22406
 H179 H 0.46197 -0.04888 0.24030
 C180 C 0.47958 -0.07651 0.20389
 H181 H 0.46092 -0.09241 0.20490
 Zn182 Zn 0.50380 0.00294 0.24846
 N183 N 0.50337 -0.03163 0.22280
 C184 C 0.55887 -0.01972 0.27256
 N185 N 0.53836 0.00308 0.27382
 C186 C 0.54090 0.02588 0.29467
 C187 C 0.56499 0.02651 0.31516
 C188 C 0.58330 -0.01997 0.29268
 C189 C 0.48138 0.03855 0.20228
 C190 C 0.48097 0.06202 0.18174
 C191 C 0.52748 0.08107 0.20388
 C192 C 0.52704 0.05722 0.22404
 N193 N 0.50410 0.03665 0.22298
 H194 H 0.55606 -0.03802 0.25639
 H195 H 0.52396 0.04341 0.29552
 H196 H 0.56672 0.04462 0.33183
 H197 H 0.59937 -0.03833 0.29177
 H198 H 0.46374 0.02159 0.20160
 H199 H 0.46291 0.06324 0.16519
 H200 H 0.54593 0.09722 0.20465
 H201 H 0.54528 0.05493 0.24011
 C202 C 0.50283 -0.07991 0.18228
 C203 C 0.42068 0.00339 0.31446
 C204 C 0.50426 0.08342 0.18251
 C205 C 0.58631 0.00332 0.31420
 C206 C 0.53474 -0.02756 0.70418
 H207 H 0.51737 -0.04477 0.70293
 C208 C 0.55930 -0.02840 0.68395
 H209 H 0.56096 -0.04636 0.66709
 C210 C 0.55336 0.01746 0.72700
 H211 H 0.55063 0.03564 0.74334
 C212 C 0.57826 0.01749 0.70717
 H213 H 0.59477 0.03555 0.70846
 N214 N 0.53229 -0.00494 0.72525
 C215 C 0.47278 -0.03964 0.79601
 H216 H 0.45565 -0.02228 0.79665
 C217 C 0.47136 -0.06306 0.81659
 H218 H 0.45304 -0.06384 0.83311
 C219 C 0.51823 -0.05931 0.77444
 H220 H 0.53682 -0.05741 0.75846
 C221 C 0.51766 -0.08313 0.79464
 H222 H 0.53566 -0.09965 0.79398
 Zn223 Zn 0.49717 -0.00431 0.75027
 N224 N 0.49591 -0.03823 0.77543
 C225 C 0.44160 -0.02581 0.72486
 N226 N 0.46315 -0.00383 0.72422
 C227 C 0.46192 0.01860 0.70372
 C228 C 0.43805 0.01980 0.68306
 C229 C 0.41733 -0.02546 0.70454
 C230 C 0.51961 0.03175 0.79758
 C231 C 0.52032 0.05567 0.81850
 C232 C 0.47498 0.07538 0.79558
 C233 C 0.47510 0.05106 0.77506
 N234 N 0.49733 0.02995 0.77632
 H235 H 0.44336 -0.04383 0.74080
 H236 H 0.47964 0.03548 0.70339
 H237 H 0.43727 0.03771 0.66678
 H238 H 0.40031 -0.04307 0.70505
 H239 H 0.53668 0.01438 0.79840
 H240 H 0.53803 0.05683 0.83547
 H241 H 0.45710 0.09198 0.79462
 H242 H 0.45716 0.04887 0.75853
 C243 C 0.49406 -0.08492 0.81595
 C244 C 0.58118 -0.00561 0.68542
 C245 C 0.49777 0.07764 0.81750
 C246 C 0.41558 -0.00244 0.68347
 C247 C 0.24934 0.00136 0.49770
 C248 C 0.75132 -0.00069 0.50108
 C249 C 0.50073 0.24989 1.00061
 C250 C 0.49838 0.75032 -0.00040
 C251 C 0.99728 0.50041 0.25113
 C252 C 0.00247 0.49898 0.74950
 C253 C 0.19091 0.07316 0.49619
 C254 C 0.19993 0.10183 0.48611
 C255 C 0.17828 0.12538 0.48487
 C256 C 0.14773 0.12004 0.49359
 C257 C 0.13870 0.09127 0.50349
 C258 C 0.16038 0.06780 0.50491
 C259 C 0.15084 0.03926 0.51498
 C260 C 0.12068 0.03396 0.52310
 C261 C 0.09945 0.05688 0.52160
 C262 C 0.10823 0.08526 0.51200
 C263 C 0.18781 0.15385 0.47471
 C264 C 0.21786 0.15889 0.46592
 C265 C 0.23900 0.13583 0.46706
 C266 C 0.23027 0.10758 0.47705
 C267 C 0.12547 0.14395 0.49234
 C268 C 0.10636 0.16324 0.49160
 C269 C 0.21270 0.04885 0.49694
 C270 C 0.22987 0.02787 0.49743
 H271 H 0.16653 0.02076 0.51672
 H272 H 0.11378 0.01196 0.53061
 H273 H 0.07604 0.05266 0.52795
 H274 H 0.09086 0.10234 0.51127
 H275 H 0.17217 0.17246 0.47339
 H276 H 0.22476 0.18080 0.45816
 H277 H 0.26229 0.13984 0.46016
 H278 H 0.24752 0.09034 0.47757
 C279 C 0.57290 0.69486 -0.00328
 C280 C 0.57278 0.67083 -0.02477
 C281 C 0.59630 0.64907 -0.02452
 C282 C 0.61986 0.65155 -0.00283
 C283 C 0.62033 0.67597 0.01822
 C284 C 0.59675 0.69769 0.01800
 C285 C 0.59753 0.72178 0.03941
 C286 C 0.62097 0.72434 0.06045
 C287 C 0.64403 0.70311 0.06067
 C288 C 0.64383 0.67915 0.03985
 C289 C 0.59548 0.62504 -0.04601
 C290 C 0.57211 0.62259 -0.06714
 C291 C 0.54916 0.64392 -0.06744
 C292 C 0.54939 0.66782 -0.04658
 C293 C 0.64308 0.62851 -0.00176
 C294 C 0.66182 0.60888 -0.00104
 C295 C 0.54768 0.71571 -0.00222
 C296 C 0.52589 0.73202 -0.00138
 H297 H 0.58013 0.73888 0.04006
 H298 H 0.62124 0.74292 0.07665
 H299 H 0.66219 0.70521 0.07706
 H300 H 0.66227 0.66320 0.04088
 H301 H 0.61286 0.60792 -0.04674
 H302 H 0.57183 0.60406 -0.08339
 H303 H 0.53106 0.64194 -0.08390
 H304 H 0.53110 0.68390 -0.04782
 C305 C 0.81009 -0.07222 0.50217
 C306 C 0.80135 -0.10094 0.51231
 C307 C 0.82318 -0.12433 0.51344
 C308 C 0.85363 -0.11878 0.50451
 C309 C 0.86239 -0.08995 0.49457
 C310 C 0.84053 -0.06664 0.49329
 C311 C 0.84981 -0.03803 0.48318
 C312 C 0.87988 -0.03252 0.47488
 C313 C 0.90129 -0.05529 0.47622
 C314 C 0.89277 -0.08373 0.48585
 C315 C 0.81393 -0.15287 0.52367
 C316 C 0.78397 -0.15812 0.53263
 C317 C 0.76264 -0.13523 0.53159
 C318 C 0.77110 -0.10692 0.52154
 C319 C 0.87605 -0.14256 0.50548
 C320 C 0.89533 -0.16170 0.50586
 C321 C 0.78813 -0.04806 0.50155
 C322 C 0.77086 -0.02716 0.50118
 H323 H 0.83397 -0.01963 0.48154
 H324 H 0.88658 -0.01046 0.46735
 H325 H 0.92462 -0.05091 0.46973
 H326 H 0.91027 -0.10070 0.48646
 H327 H 0.82973 -0.17136 0.52492
 H328 H 0.77729 -0.18008 0.54044
 H329 H 0.73942 -0.13941 0.53860
 H330 H 0.75371 -0.08981 0.52110
 C331 C 0.42791 0.30747 1.00500
 C332 C 0.43433 0.33750 1.01398
 C333 C 0.41091 0.35935 1.01383
 C334 C 0.38112 0.35099 1.00501
 C335 C 0.37460 0.32085 0.99649
 C336 C 0.39810 0.29903 0.99644
 C337 C 0.39112 0.26910 0.98767
 C338 C 0.36173 0.26093 0.97921
 C339 C 0.33874 0.28226 0.97927
 C340 C 0.34498 0.31192 0.98778
 C341 C 0.41800 0.38933 1.02247
 C342 C 0.44738 0.39745 1.03106
 C343 C 0.47023 0.37603 1.03139
 C344 C 0.46390 0.34636 1.02307
 C345 C 0.35738 0.37351 1.00452
 C346 C 0.33824 0.39279 1.00426
 C347 C 0.45235 0.28571 1.00365
 C348 C 0.47362 0.26876 1.00236
 H349 H 0.40826 0.25173 0.98732
 H350 H 0.35677 0.23793 0.97258
 H351 H 0.31595 0.27579 0.97267
 H352 H 0.32637 0.32771 0.98746
 H353 H 0.40099 0.40680 1.02268
 H354 H 0.45240 0.42047 1.03755
 H355 H 0.49300 0.38242 1.03814
 H356 H 0.48241 0.33050 1.02392
 C357 C 0.80977 0.07152 0.50067
 C358 C 0.83986 0.06650 0.51053
 C359 C 0.86171 0.08998 0.50920
 C360 C 0.85329 0.11843 0.49822
 C361 C 0.82317 0.12346 0.48842
 C362 C 0.80135 0.09990 0.48960
 C363 C 0.77145 0.10534 0.47947
 C364 C 0.76332 0.13329 0.46849
 C365 C 0.78463 0.15635 0.46739
 C366 C 0.81425 0.15162 0.47722
 C367 C 0.89175 0.08430 0.51888
 C368 C 0.89994 0.05622 0.52950
 C369 C 0.87854 0.03329 0.53089
 C370 C 0.84880 0.03827 0.52165
 C371 C 0.87576 0.14232 0.49695
 C372 C 0.89505 0.16157 0.49622
 C373 C 0.78792 0.04711 0.50110
 C374 C 0.77073 0.02601 0.50127
 H375 H 0.75408 0.08809 0.47994
 H376 H 0.74035 0.13707 0.46080
 H377 H 0.77819 0.17803 0.45884
 H378 H 0.83005 0.17022 0.47589
 H379 H 0.90922 0.10142 0.51828
 H380 H 0.92303 0.05225 0.53672
 H381 H 0.88499 0.01151 0.53919
 H382 H 0.83294 0.01977 0.52337
 C383 C 0.42744 0.68996 -0.00007
 C384 C 0.39762 0.69768 0.00930
 C385 C 0.37445 0.67537 0.00956
 C386 C 0.38128 0.64549 0.00042
 C387 C 0.41110 0.63783 -0.00914
 C388 C 0.43425 0.66011 -0.00933
 C389 C 0.46394 0.65187 -0.01881
 C390 C 0.47053 0.62249 -0.02790
 C391 C 0.44786 0.60071 -0.02779
 C392 C 0.41846 0.60815 -0.01853
 C393 C 0.34482 0.68359 0.01909
 C394 C 0.33825 0.71303 0.02810
 C395 C 0.36091 0.73484 0.02784
 C396 C 0.39031 0.72738 0.01857
 C397 C 0.35781 0.62253 0.00101
 C398 C 0.33883 0.60296 0.00133
 C399 C 0.45134 0.71245 0.00005
 C400 C 0.47206 0.73020 -0.00004
 H401 H 0.48237 0.66799 -0.01928
 H402 H 0.49335 0.61659 -0.03506
 H403 H 0.45308 0.57791 -0.03489
 H404 H 0.40162 0.59040 -0.01883
 H405 H 0.32644 0.66741 0.01967
 H406 H 0.31546 0.71894 0.03531
 H407 H 0.35570 0.75766 0.03486
 H408 H 0.40719 0.74510 0.01875
 C409 C 0.19118 -0.07108 0.49870
 C410 C 0.16098 -0.06634 0.48901
 C411 C 0.13934 -0.08999 0.49056
 C412 C 0.14808 -0.11833 0.50156
 C413 C 0.17832 -0.12309 0.51114
 C414 C 0.19993 -0.09935 0.50976
 C415 C 0.22995 -0.10451 0.51971
 C416 C 0.23840 -0.13237 0.53070
 C417 C 0.21730 -0.15561 0.53198
 C418 C 0.18757 -0.15116 0.52233
 C419 C 0.10919 -0.08458 0.48108
 C420 C 0.10068 -0.05660 0.47043
 C421 C 0.12188 -0.03350 0.46881
 C422 C 0.15173 -0.03822 0.47786
 C423 C 0.12579 -0.14236 0.50324
 C424 C 0.10667 -0.16174 0.50444
 C425 C 0.21283 -0.04650 0.49806
 C426 C 0.22992 -0.02533 0.49773
 H427 H 0.24715 -0.08712 0.51910
 H428 H 0.26145 -0.13593 0.53825
 H429 H 0.22399 -0.17721 0.54051
 H430 H 0.17196 -0.16989 0.52379
 H431 H 0.09186 -0.10184 0.48185
 H432 H 0.07751 -0.05284 0.46335
 H433 H 0.11519 -0.01181 0.46049
 H434 H 0.16742 -0.01960 0.47599
 C435 C 0.57203 0.30964 0.99624
 C436 C 0.60211 0.30236 1.00447
 C437 C 0.62506 0.32490 1.00442
 C438 C 0.61775 0.35458 0.99623
 C439 C 0.58769 0.36178 0.98774
 C440 C 0.56481 0.33921 0.98760
 C441 C 0.53496 0.34691 0.97884
 C442 C 0.52784 0.37614 0.97084
 C443 C 0.55017 0.39825 0.97116
 C444 C 0.57981 0.39128 0.97942
 C445 C 0.65497 0.31711 1.01280
 C446 C 0.66199 0.28789 1.02099
 C447 C 0.63954 0.26588 1.02105
 C448 C 0.60988 0.27290 1.01291
 C449 C 0.64096 0.37781 0.99674
 C450 C 0.65979 0.39753 0.99710
 C451 C 0.54816 0.28716 0.99758
 C452 C 0.52734 0.26957 0.99887
 H453 H 0.51684 0.33047 0.97801
 H454 H 0.50487 0.38163 0.96434
 H455 H 0.54454 0.42093 0.96492
 H456 H 0.59640 0.40925 0.97923
 H457 H 0.67320 0.33347 1.01310
 H458 H 0.68499 0.28232 1.02733
 H459 H 0.64511 0.24322 1.02744
 H460 H 0.59318 0.25503 1.01326
 C461 C 0.50573 0.19252 1.07251
 C462 C 0.51548 0.16291 1.06560
 C463 C 0.51545 0.14099 1.08862
 C464 C 0.50602 0.14891 1.11852
 C465 C 0.49685 0.17868 1.12556
 C466 C 0.49666 0.20055 1.10246
 C467 C 0.48720 0.23010 1.10994
 C468 C 0.47823 0.23786 1.13946
 C469 C 0.47845 0.21650 1.16207
 C470 C 0.48762 0.18721 1.15533
 C471 C 0.52480 0.11140 1.08102
 C472 C 0.53399 0.10372 1.05154
 C473 C 0.53426 0.12522 1.02909
 C474 C 0.52522 0.15451 1.03593
 C475 C 0.50541 0.12627 1.14181
 C476 C 0.50489 0.10699 1.16065
 C477 C 0.50409 0.21423 1.04844
 C478 C 0.50260 0.23113 1.02744
 H479 H 0.48671 0.24749 1.09312
 H480 H 0.47108 0.26058 1.14482
 H481 H 0.47146 0.22265 1.18497
 H482 H 0.48742 0.17137 1.17366
 H483 H 0.52510 0.09390 1.09771
 H484 H 0.54103 0.08098 1.04612
 H485 H 0.54149 0.11918 1.00624
 H486 H 0.52605 0.17047 1.01772
 C487 C 0.00298 0.57126 0.69273
 C488 C -0.00068 0.56485 0.66134
 C489 C -0.00072 0.58861 0.64028
 C490 C 0.00265 0.61868 0.65077
 C491 C 0.00638 0.62507 0.68216
 C492 C 0.00660 0.60126 0.70322
 C493 C 0.01044 0.60814 0.73447
 C494 C 0.01396 0.63774 0.74466
 C495 C 0.01371 0.66103 0.72409
 C496 C 0.00998 0.65490 0.69317
 C497 C -0.00417 0.58160 0.60897
 C498 C -0.00750 0.55198 0.59879
 C499 C -0.00761 0.52875 0.61941
 C500 C -0.00434 0.53499 0.65034
 C501 C 0.00209 0.64288 0.62915
 C502 C 0.00145 0.66233 0.61050
 C503 C 0.00305 0.54683 0.71403
 C504 C 0.00291 0.52570 0.73071
 H505 H 0.01078 0.59077 0.75132
 H506 H 0.01688 0.64262 0.76865
 H507 H 0.01645 0.68398 0.73213
 H508 H 0.00997 0.67375 0.67802
 H509 H -0.00430 0.59888 0.59203
 H510 H -0.01006 0.54703 0.57477
 H511 H -0.01027 0.50577 0.61141
 H512 H -0.00478 0.51617 0.66548
 C513 C 0.49464 0.80769 -0.07240
 C514 C 0.50458 0.79953 -0.10204
 C515 C 0.50395 0.82098 -0.12553
 C516 C 0.49338 0.85043 -0.11920
 C517 C 0.48308 0.85846 -0.08961
 C518 C 0.48375 0.83704 -0.06614
 C519 C 0.47354 0.84565 -0.03667
 C520 C 0.46292 0.87457 -0.03061
 C521 C 0.46219 0.89550 -0.05358
 C522 C 0.47213 0.88767 -0.08278
 C523 C 0.51412 0.81235 -0.15497
 C524 C 0.52458 0.78336 -0.16103
 C525 C 0.52518 0.76239 -0.13806
 C526 C 0.51533 0.77026 -0.10885
 C527 C 0.49358 0.87270 -0.14285
 C528 C 0.49380 0.89172 -0.16196
 C529 C 0.49609 0.78624 -0.04808
 C530 C 0.49720 0.76937 -0.02705
 H531 H 0.47365 0.83018 -0.01803
 H532 H 0.45521 0.88076 -0.00795
 H533 H 0.45390 0.91794 -0.04877
 H534 H 0.47111 0.90476 -0.09988
 H535 H 0.51406 0.82788 -0.17357
 H536 H 0.53226 0.77713 -0.18368
 H537 H 0.53333 0.73990 -0.14289
 H538 H 0.51621 0.75319 -0.09171
 C539 C 0.99644 0.42771 0.30734
 C540 C 1.00916 0.39964 0.29885
 C541 C 1.00947 0.37591 0.31999
 C542 C 0.99716 0.38048 0.34951
 C543 C 0.98447 0.40860 0.35799
 C544 C 0.98399 0.43224 0.33680
 C545 C 0.97107 0.46012 0.34576
 C546 C 0.95931 0.46464 0.37493
 C547 C 0.95991 0.44157 0.39571
 C548 C 0.97223 0.41381 0.38745
 C549 C 1.02234 0.34806 0.31102
 C550 C 1.03463 0.34378 0.28200
 C551 C 1.03438 0.36701 0.26136
 C552 C 1.02179 0.39467 0.26956
 C553 C 0.99774 0.35651 0.37138
 C554 C 0.99795 0.33724 0.39025
 C555 C 0.99681 0.45230 0.28624
 C556 C 0.99705 0.47355 0.26971
 H557 H 0.96986 0.47869 0.33036
 H558 H 0.94967 0.48616 0.38142
 H559 H 0.95073 0.44518 0.41834
 H560 H 0.97210 0.39656 0.40441
 H561 H 1.02308 0.32935 0.32631
 H562 H 1.04442 0.32233 0.27551
 H563 H 1.04397 0.36359 0.23886
 H564 H 1.02208 0.41206 0.25272
 C565 C 0.49790 0.80841 0.07335
 C566 C 0.52054 0.80746 0.09599
 C567 C 0.52134 0.82993 0.11934
 C568 C 0.49949 0.85319 0.11986
 C569 C 0.47651 0.85381 0.09749
 C570 C 0.47569 0.83132 0.07420
 C571 C 0.45258 0.83246 0.05201
 C572 C 0.43098 0.85524 0.05274
 C573 C 0.43182 0.87728 0.07549
 C574 C 0.45424 0.87667 0.09768
 C575 C 0.54431 0.82864 0.14162
 C576 C 0.56588 0.80580 0.14086
 C577 C 0.56510 0.78384 0.11802
 C578 C 0.54274 0.78455 0.09577
 C579 C 0.50096 0.87689 0.14291
 C580 C 0.50196 0.89699 0.16161
 C581 C 0.49817 0.78673 0.04836
 C582 C 0.49832 0.76966 0.02681
 H583 H 0.45090 0.81577 0.03393
 H584 H 0.41351 0.85579 0.03556
 H585 H 0.41498 0.89493 0.07596
 H586 H 0.45389 0.89428 0.11494
 H587 H 0.54584 0.84521 0.15984
 H588 H 0.58330 0.80514 0.15809
 H589 H 0.58188 0.76613 0.11754
 H590 H 0.54299 0.76694 0.07850
 C591 C 0.00311 0.42734 0.68916
 C592 C -0.01200 0.39996 0.69503
 C593 C -0.01237 0.37671 0.67246
 C594 C 0.00231 0.38105 0.64415
 C595 C 0.01747 0.40845 0.63833
 C596 C 0.01799 0.43160 0.66095
 C597 C 0.03342 0.45875 0.65466
 C598 C 0.04759 0.46304 0.62669
 C599 C 0.04693 0.44047 0.60450
 C600 C 0.03216 0.41342 0.61015
 C601 C -0.02767 0.34954 0.67881
 C602 C -0.04225 0.34549 0.70664
 C603 C -0.04193 0.36826 0.72868
 C604 C -0.02700 0.39523 0.72307
 C605 C 0.00166 0.35758 0.62083
 C606 C 0.00143 0.33865 0.60089
 C607 C 0.00270 0.45156 0.71163
 C608 C 0.00250 0.47249 0.72937
 H609 H 0.03477 0.47691 0.67126
 H610 H 0.05914 0.48401 0.62223
 H611 H 0.05798 0.44390 0.58280
 H612 H 0.03236 0.39652 0.59217
 H613 H -0.02856 0.33121 0.66237
 H614 H -0.05387 0.32458 0.71112
 H615 H -0.05330 0.36501 0.75025
 H616 H -0.02732 0.41227 0.74091
 C617 C 0.49692 0.18981 0.92862
 C618 C 0.48900 0.15991 0.93571
 C619 C 0.48909 0.13730 0.91252
 C620 C 0.49674 0.14479 0.88229
 C621 C 0.50420 0.17478 0.87513
 C622 C 0.50434 0.19736 0.89839
 C623 C 0.51204 0.22714 0.89075
 C624 C 0.51936 0.23444 0.86094
 C625 C 0.51920 0.21238 0.83819
 C626 C 0.51173 0.18285 0.84507
 C627 C 0.48156 0.10747 0.92027
 C628 C 0.47406 0.10023 0.95006
 C629 C 0.47373 0.12239 0.97268
 C630 C 0.48100 0.15193 0.96571
 C631 C 0.49714 0.12153 0.85875
 C632 C 0.49744 0.10176 0.83967
 C633 C 0.49820 0.21241 0.95273
 C634 C 0.49935 0.23010 0.97375
 H635 H 0.51243 0.24506 0.90769
 H636 H 0.52518 0.25734 0.85548
 H637 H 0.52490 0.21818 0.81507
 H638 H 0.51192 0.16647 0.82660
 H639 H 0.48139 0.08945 0.90346
 H640 H 0.46840 0.07731 0.95558
 H641 H 0.46781 0.11669 0.99578
 H642 H 0.48020 0.16838 0.98407
 C643 C 0.99785 0.57152 0.31210
 C644 C 1.00438 0.56484 0.34269
 C645 C 1.00443 0.58815 0.36516
 C646 C 0.99819 0.61805 0.35686
 C647 C 0.99159 0.62470 0.32627
 C648 C 0.99136 0.60133 0.30382
 C649 C 0.98455 0.60844 0.27342
 C650 C 0.97817 0.63785 0.26541
 C651 C 0.97845 0.66071 0.28734
 C652 C 0.98507 0.65435 0.31745
 C653 C 1.01074 0.58086 0.39565
 C654 C 1.01681 0.55139 0.40369
 C655 C 1.01690 0.52862 0.38169
 C656 C 1.01088 0.53515 0.35150
 C657 C 0.99864 0.64182 0.37987
 C658 C 0.99919 0.66102 0.39952
 C659 C 0.99753 0.54751 0.28940
 C660 C 0.99737 0.52674 0.27148
 H661 H 0.98407 0.59140 0.25558
 H662 H 0.97297 0.64290 0.24206
 H663 H 0.97348 0.68352 0.28099
 H664 H 0.98497 0.67287 0.33372
 H665 H 1.01100 0.59779 0.41359
 H666 H 1.02152 0.54622 0.42712
 H667 H 1.02168 0.50577 0.38802
 H668 H 1.01144 0.51670 0.33521
 C669 C 1.07217 0.50095 0.19465
 C670 C 1.08113 0.52803 0.18084
 C671 C 1.10512 0.52790 0.15908
 C672 C 1.12002 0.50068 0.15130
 C673 C 1.11160 0.47374 0.16575
 C674 C 1.08759 0.47388 0.18750
 C675 C 1.07941 0.44665 0.20150
 C676 C 1.09454 0.42004 0.19424
 C677 C 1.11802 0.41989 0.17296
 C678 C 1.12654 0.44637 0.15880
 C679 C 1.11352 0.55522 0.14540
 C680 C 1.09866 0.58191 0.15302
 C681 C 1.07521 0.58203 0.17430
 C682 C 1.06643 0.55547 0.18812
 C683 C 1.14326 0.50027 0.12775
 C684 C 1.16212 0.50005 0.10776
 C685 C 1.04636 0.50074 0.21528
 C686 C 1.02444 0.50059 0.23182
 H687 H 1.06133 0.44566 0.21823
 H688 H 1.08801 0.39942 0.20519
 H689 H 1.12971 0.39916 0.16740
 H690 H 1.14497 0.44514 0.14244
 H691 H 1.13166 0.55628 0.12874
 H692 H 1.10540 0.60260 0.14235
 H693 H 1.06374 0.60282 0.18015
 H694 H 1.04809 0.55672 0.20458
 C695 C 0.69401 -0.00164 0.57530
 C696 C 0.68095 0.02533 0.58666
 C697 C 0.65890 0.02438 0.61034
 C698 C 0.65003 -0.00354 0.62249
 C699 C 0.66373 -0.03043 0.61170
 C700 C 0.68581 -0.02947 0.58804
 C701 C 0.69910 -0.05665 0.57748
 C702 C 0.69079 -0.08401 0.58996
 C703 C 0.66917 -0.08495 0.61308
 C704 C 0.65570 -0.05855 0.62390
 C705 C 0.64601 0.05163 0.62120
 C706 C 0.65467 0.07902 0.60901
 C707 C 0.67623 0.07993 0.58584
 C708 C 0.68929 0.05347 0.57469
 C709 C 0.62612 -0.00462 0.64532
 C710 C 0.60583 -0.00524 0.66383
 C711 C 0.71490 -0.00089 0.54972
 C712 C 0.73168 -0.00057 0.52799
 H713 H 0.71606 -0.05705 0.55958
 H714 H 0.70120 -0.10457 0.58164
 H715 H 0.66279 -0.10626 0.62269
 H716 H 0.63903 -0.06041 0.64195
 H717 H 0.62919 0.05208 0.63924
 H718 H 0.64460 0.09964 0.61760
 H719 H 0.68289 0.10126 0.57645
 H720 H 0.70601 0.05532 0.55669
 C721 C -0.07276 0.50000 0.80552
 C722 C -0.08109 0.52724 0.82033
 C723 C -0.10509 0.52752 0.84207
 C724 C -0.12062 0.50055 0.84885
 C725 C -0.11286 0.47347 0.83337
 C726 C -0.08884 0.47320 0.81163
 C727 C -0.08133 0.44585 0.79657
 C728 C -0.09712 0.41950 0.80280
 C729 C -0.12061 0.41976 0.82407
 C730 C -0.12847 0.44637 0.83927
 C731 C -0.11286 0.55499 0.85678
 C732 C -0.09738 0.58142 0.85015
 C733 C -0.07391 0.58115 0.82887
 C734 C -0.06575 0.55443 0.81408
 C735 C -0.14383 0.50055 0.87244
 C736 C -0.16260 0.50083 0.89250
 C737 C -0.04686 0.49937 0.78499
 C738 C -0.02484 0.49906 0.76859
 H739 H -0.06327 0.44455 0.77980
 H740 H -0.09111 0.39878 0.79105
 H741 H -0.13281 0.39923 0.82883
 H742 H -0.14694 0.44547 0.85558
 H743 H -0.13098 0.55636 0.87346
 H744 H -0.10363 0.60224 0.86158
 H745 H -0.06196 0.60174 0.82379
 H746 H -0.04738 0.55537 0.79766
 C747 C 0.30691 0.00121 0.42366
 C748 C 0.31424 0.02863 0.40960
 C749 C 0.33651 0.02920 0.38609
 C750 C 0.35128 0.00235 0.37680
 C751 C 0.34331 -0.02520 0.39030
 C752 C 0.32105 -0.02577 0.41381
 C753 C 0.31360 -0.05353 0.42713
 C754 C 0.32775 -0.07999 0.41749
 C755 C 0.34952 -0.07945 0.39451
 C756 C 0.35732 -0.05244 0.38100
 C757 C 0.34364 0.05691 0.37252
 C758 C 0.32916 0.08330 0.38190
 C759 C 0.30738 0.08273 0.40490
 C760 C 0.29992 0.05578 0.41868
 C761 C 0.37537 0.00313 0.35415
 C762 C 0.39582 0.00345 0.33581
 C763 C 0.28585 0.00097 0.44912
 C764 C 0.26899 0.00098 0.47079
 H765 H 0.29676 -0.05510 0.44505
 H766 H 0.32176 -0.10103 0.42791
 H767 H 0.36045 -0.10007 0.38709
 H768 H 0.37436 -0.05318 0.36318
 H769 H 0.36039 0.05846 0.35451
 H770 H 0.33487 0.10430 0.37126
 H771 H 0.29619 0.10329 0.41210
 H772 H 0.28279 0.05646 0.43642
 C773 C 0.07615 0.49797 0.80664
 C774 C 0.08925 0.52528 0.81711
 C775 C 0.11269 0.52493 0.83917
 C776 C 0.12286 0.49725 0.85063
 C777 C 0.11030 0.46990 0.83955
 C778 C 0.08688 0.47026 0.81747
 C779 C 0.07453 0.44265 0.80687
 C780 C 0.08503 0.41545 0.81776
 C781 C 0.10792 0.41509 0.83936
 C782 C 0.12049 0.44193 0.85022
 C783 C 0.12531 0.55253 0.84945
 C784 C 0.11506 0.57971 0.83824
 C785 C 0.09213 0.58005 0.81668
 C786 C 0.07928 0.55322 0.80615
 C787 C 0.14547 0.49695 0.87450
 C788 C 0.16382 0.49669 0.89472
 C789 C 0.05082 0.49841 0.78573
 C790 C 0.02926 0.49872 0.76899
 H791 H 0.05672 0.44178 0.79003
 H792 H 0.07535 0.39454 0.80939
 H793 H 0.11600 0.39390 0.84775
 H794 H 0.13828 0.44050 0.86698
 H795 H 0.14323 0.55341 0.86617
 H796 H 0.12498 0.60061 0.84634
 H797 H 0.08425 0.60121 0.80804
 H798 H 0.06154 0.55463 0.78932
 C799 C 0.69613 -0.00039 0.42593
 C800 C 0.68895 0.02728 0.41248
 C801 C 0.66755 0.02808 0.38846
 C802 C 0.65352 0.00119 0.37802
 C803 C 0.66141 -0.02659 0.39088
 C804 C 0.68277 -0.02738 0.41493
 C805 C 0.69012 -0.05537 0.42762
 C806 C 0.67676 -0.08185 0.41682
 C807 C 0.65587 -0.08109 0.39329
 C808 C 0.64819 -0.05384 0.38039
 C809 C 0.66052 0.05604 0.37555
 C810 C 0.67429 0.08245 0.38603
 C811 C 0.69524 0.08166 0.40951
 C812 C 0.70256 0.05445 0.42268
 C813 C 0.63024 0.00218 0.35484
 C814 C 0.61044 0.00281 0.33606
 C815 C 0.71628 -0.00091 0.45186
 C816 C 0.73243 -0.00104 0.47386
 H817 H 0.70629 -0.05710 0.44592
 H818 H 0.68265 -0.10307 0.42676
 H819 H 0.64557 -0.10172 0.38497
 H820 H 0.63187 -0.05441 0.36210
 H821 H 0.64441 0.05778 0.35720
 H822 H 0.66868 0.10364 0.37587
 H823 H 0.70589 0.10222 0.41756
 H824 H 0.71903 0.05497 0.44083
 C825 C 0.92302 0.50126 0.19475
 C826 C 0.90986 0.52886 0.18654
 C827 C 0.88625 0.52924 0.16467
 C828 C 0.87595 0.50199 0.15115
 C829 C 0.88852 0.47431 0.16003
 C830 C 0.91212 0.47395 0.18191
 C831 C 0.92450 0.44604 0.19028
 C832 C 0.91384 0.41923 0.17741
 C833 C 0.89076 0.41958 0.15600
 C834 C 0.87818 0.44674 0.14732
 C835 C 0.87359 0.55712 0.15666
 C836 C 0.88396 0.58388 0.16990
 C837 C 0.90706 0.58351 0.19129
 C838 C 0.91996 0.55639 0.19959
 C839 C 0.85327 0.50245 0.12736
 C840 C 0.83492 0.50258 0.10714
 C841 C 0.94858 0.50102 0.21539
 C842 C 0.97031 0.50076 0.23190
 H843 H 0.94245 0.44461 0.20688
 H844 H 0.92353 0.39808 0.18409
 H845 H 0.88256 0.39870 0.14607
 H846 H 0.86024 0.44585 0.13062
 H847 H 0.85554 0.55854 0.14017
 H848 H 0.87400 0.60501 0.16353
 H849 H 0.91503 0.60435 0.20151
 H850 H 0.93783 0.55724 0.21637
 C851 C 0.30494 0.00145 0.57255
 C852 C 0.31984 0.02816 0.58212
 C853 C 0.34143 0.02735 0.60596
 C854 C 0.34796 -0.00016 0.62009
 C855 C 0.33241 -0.02671 0.61107
 C856 C 0.31082 -0.02590 0.58722
 C857 C 0.29571 -0.05275 0.57843
 C858 C 0.30175 -0.07965 0.59280
 C859 C 0.32287 -0.08045 0.61613
 C860 C 0.33810 -0.05436 0.62524
 C861 C 0.35623 0.05430 0.61498
 C862 C 0.34986 0.08127 0.60086
 C863 C 0.32874 0.08205 0.57754
 C864 C 0.31384 0.05586 0.56818
 C865 C 0.37139 -0.00127 0.64311
 C866 C 0.39131 -0.00195 0.66176
 C867 C 0.28458 0.00185 0.54678
 C868 C 0.26830 0.00186 0.52488
 H869 H 0.27904 -0.05324 0.56045
 H870 H 0.28997 -0.09998 0.58580
 H871 H 0.32748 -0.10141 0.62723
 H872 H 0.35430 -0.05609 0.64352
 H873 H 0.37281 0.05485 0.63303
 H874 H 0.36137 0.10168 0.60805
 H875 H 0.32386 0.10305 0.56665
 H876 H 0.29755 0.05760 0.54998
   
