data_POSCAR
  _audit_creation_date              2014-09-24
  _audit_creation_method            'ToBaCCo'
  _symmetry_space_group_name_H-M    'P1'
  _symmetry_Int_Tables_number       1
  _symmetry_cell_setting            triclinic
  loop_
  _symmetry_equiv_pos_as_xyz
 x,y,z
_cell_length_a 54.3916
_cell_length_b 54.4175
_cell_length_c 17.2645
_cell_angle_alpha 89.896600
_cell_angle_beta 90.109800
_cell_angle_gamma 120.030300
loop_
  _atom_site_label
  _atom_site_type_symbol
  _atom_site_fract_x
  _atom_site_fract_y
  _atom_site_fract_z
C1 C 0.24250 0.48555 0.53481
 C2 C 0.24204 0.48555 0.45579
 C3 C 0.21776 0.48392 0.41183
 C4 C 0.26567 0.48687 0.40956
 C5 C 0.26513 0.48388 0.57877
 C6 C 0.22024 0.48694 0.58109
 C7 C 0.18989 0.46172 0.42491
 C8 C 0.16711 0.46094 0.38508
 C9 C 0.17197 0.48219 0.33108
 C10 C 0.19981 0.50398 0.31644
 C11 C 0.22258 0.50476 0.35637
 C12 C 0.26001 0.46575 0.35436
 C13 C 0.28223 0.46594 0.31335
 C14 C 0.31029 0.48737 0.32661
 C15 C 0.31601 0.50895 0.37994
 C16 C 0.29380 0.50881 0.42093
 C17 C 0.28123 0.50472 0.63408
 C18 C 0.30315 0.50385 0.67409
 C19 C 0.30903 0.48200 0.65968
 C20 C 0.29263 0.46078 0.60589
 C21 C 0.27069 0.46161 0.56591
 C22 C 0.21413 0.50892 0.56959
 C23 C 0.19220 0.50920 0.61095
 C24 C 0.17641 0.48773 0.66477
 C25 C 0.18294 0.46625 0.67805
 C26 C 0.20483 0.46592 0.63667
 H27 H 0.18580 0.44515 0.46638
 H28 H 0.14574 0.44384 0.39688
 H29 H 0.20399 0.52055 0.27474
 H30 H 0.24393 0.52193 0.34516
 H31 H 0.23846 0.44875 0.34452
 H32 H 0.27757 0.44916 0.27217
 H33 H 0.29854 0.52556 0.46225
 H34 H 0.27715 0.52195 0.64514
 H35 H 0.31566 0.52033 0.71572
 H36 H 0.29691 0.44370 0.59456
 H37 H 0.25816 0.44504 0.52457
 H38 H 0.22612 0.52561 0.52798
 H39 H 0.18738 0.52597 0.60041
 H40 H 0.17087 0.44955 0.71962
 H41 H 0.20933 0.44890 0.64663
 H42 H 0.33764 0.52569 0.39046
 C43 C 0.51480 -0.24337 0.54108
 C44 C 0.51490 -0.24304 0.46206
 C45 C 0.51370 -0.26669 0.41617
 C46 C 0.51653 -0.21886 0.41767
 C47 C 0.51331 -0.22105 0.58685
 C48 C 0.51652 -0.26587 0.58546
 C49 C 0.53478 -0.26101 0.36084
 C50 C 0.53456 -0.28320 0.31960
 C51 C 0.51312 -0.31125 0.33275
 C52 C 0.49161 -0.31700 0.38638
 C53 C 0.49179 -0.29482 0.42761
 C54 C 0.53874 -0.19098 0.43050
 C55 C 0.53950 -0.16831 0.39020
 C56 C 0.51827 -0.17332 0.33614
 C57 C 0.49649 -0.20111 0.32173
 C58 C 0.49569 -0.22380 0.36205
 C59 C 0.49133 -0.21498 0.57471
 C60 C 0.49103 -0.19293 0.61530
 C61 C 0.51249 -0.17695 0.66900
 C62 C 0.53396 -0.18345 0.68300
 C63 C 0.53431 -0.20547 0.64239
 C64 C 0.49555 -0.28203 0.64041
 C65 C 0.49634 -0.30400 0.68033
 C66 C 0.51825 -0.30986 0.66619
 C67 C 0.53963 -0.29333 0.61284
 C68 C 0.53886 -0.27135 0.57299
 H69 H 0.55176 -0.23946 0.35091
 H70 H 0.55129 -0.27851 0.27818
 H71 H 0.47487 -0.33862 0.39682
 H72 H 0.47504 -0.29959 0.46900
 H73 H 0.55531 -0.18680 0.47210
 H74 H 0.55652 -0.14690 0.40154
 H75 H 0.47851 -0.24516 0.35103
 H76 H 0.47466 -0.22709 0.53312
 H77 H 0.47425 -0.18815 0.60420
 H78 H 0.55065 -0.17124 0.72448
 H79 H 0.55135 -0.20992 0.65284
 H80 H 0.47827 -0.27800 0.65113
 H81 H 0.47970 -0.31656 0.72157
 H82 H 0.55679 -0.29752 0.60157
 H83 H 0.55552 -0.25876 0.53190
 H84 H 0.48000 -0.20522 0.27989
 C85 C 1.24279 0.75765 0.54077
 C86 C 1.24324 0.75805 0.46175
 C87 C 1.26591 0.78228 0.41777
 C88 C 1.22092 0.73440 0.41544
 C89 C 1.21848 0.73504 0.58463
 C90 C 1.26648 0.77995 0.58707
 C91 C 1.27159 0.81015 0.43048
 C92 C 1.29351 0.83285 0.39030
 C93 C 1.30977 0.82789 0.33640
 C94 C 1.30376 0.80008 0.32222
 C95 C 1.28187 0.77739 0.36246
 C96 C 1.20554 0.74004 0.35975
 C97 C 1.18362 0.71784 0.31827
 C98 C 1.17702 0.68981 0.33156
 C99 C 1.19279 0.68410 0.38550
 C100 C 1.21475 0.70630 0.42696
 C101 C 1.22323 0.71897 0.64010
 C102 C 1.20041 0.69699 0.67979
 C103 C 1.17262 0.69103 0.66492
 C104 C 1.16782 0.70745 0.61098
 C105 C 1.19063 0.72945 0.57135
 C106 C 1.29457 0.78606 0.57584
 C107 C 1.31684 0.80810 0.61692
 C108 C 1.31120 0.82404 0.67026
 C109 C 1.28315 0.81747 0.68335
 C110 C 1.26089 0.79546 0.64221
 H111 H 1.25916 0.81430 0.47182
 H112 H 1.29782 0.85423 0.40162
 H113 H 1.31611 0.79591 0.28056
 H114 H 1.27768 0.75603 0.35152
 H115 H 1.21009 0.76158 0.34977
 H116 H 1.17157 0.72248 0.27662
 H117 H 1.22671 0.70157 0.46865
 H118 H 1.24455 0.72309 0.65147
 H119 H 1.20447 0.68452 0.72149
 H120 H 1.14646 0.70318 0.59912
 H121 H 1.18659 0.74196 0.52987
 H122 H 1.29925 0.77400 0.53457
 H123 H 1.33842 0.81287 0.60638
 H124 H 1.27846 0.82959 0.72450
 H125 H 1.23936 0.79096 0.65195
 H126 H 1.18792 0.66249 0.39605
 C127 C 0.75741 0.51474 0.54287
 C128 C 0.75769 0.51472 0.46384
 C129 C 0.78190 0.51640 0.41967
 C130 C 0.73393 0.51332 0.41776
 C131 C 0.73484 0.51637 0.58698
 C132 C 0.77982 0.51344 0.58894
 C133 C 0.80978 0.53868 0.43238
 C134 C 0.83247 0.53952 0.39218
 C135 C 0.82751 0.51831 0.33832
 C136 C 0.79972 0.49645 0.32407
 C137 C 0.77701 0.49556 0.36430
 C138 C 0.73946 0.53434 0.36220
 C139 C 0.71715 0.53400 0.32097
 C140 C 0.68914 0.51251 0.33437
 C141 C 0.68355 0.49105 0.38817
 C142 C 0.70584 0.49134 0.42939
 C143 C 0.71884 0.49549 0.64234
 C144 C 0.69689 0.49624 0.68223
 C145 C 0.69086 0.51803 0.66763
 C146 C 0.70721 0.53931 0.61381
 C147 C 0.72919 0.53858 0.57400
 C148 C 0.78598 0.49152 0.57744
 C149 C 0.80811 0.49136 0.61834
 C150 C 0.82408 0.51293 0.67179
 C151 C 0.81747 0.53436 0.68514
 C152 C 0.79537 0.53454 0.64417
 H153 H 0.81393 0.55525 0.47377
 H154 H 0.85388 0.55660 0.40339
 H155 H 0.79563 0.47997 0.28239
 H156 H 0.75566 0.47833 0.35336
 H157 H 0.76097 0.55137 0.35214
 H158 H 0.72172 0.55069 0.27941
 H159 H 0.70120 0.47466 0.47098
 H160 H 0.72301 0.47832 0.65347
 H161 H 0.68447 0.47967 0.72383
 H162 H 0.70289 0.55637 0.60218
 H163 H 0.74165 0.55517 0.53259
 H164 H 0.77389 0.47478 0.53609
 H165 H 0.81291 0.47459 0.60760
 H166 H 0.82961 0.55116 0.72637
 H167 H 0.79083 0.55152 0.65412
 H168 H 0.66196 0.47426 0.39880
 C169 C 0.48472 0.24222 0.54288
 C170 C 0.48463 0.24191 0.46386
 C171 C 0.48586 0.26558 0.41779
 C172 C 0.48300 0.21775 0.41962
 C173 C 0.48611 0.21985 0.58888
 C174 C 0.48313 0.26478 0.58705
 C175 C 0.46473 0.25994 0.36242
 C176 C 0.46497 0.28214 0.32102
 C177 C 0.48645 0.31018 0.33406
 C178 C 0.50800 0.31589 0.38772
 C179 C 0.50781 0.29370 0.42911
 C180 C 0.46079 0.18986 0.43236
 C181 C 0.45999 0.16722 0.39203
 C182 C 0.48119 0.17227 0.33802
 C183 C 0.50299 0.20008 0.32375
 C184 C 0.50383 0.22272 0.36411
 C185 C 0.50805 0.21372 0.57712
 C186 C 0.50827 0.19160 0.61787
 C187 C 0.48674 0.17560 0.67141
 C188 C 0.46531 0.18219 0.68503
 C189 C 0.46507 0.20428 0.64422
 C190 C 0.50414 0.28089 0.64200
 C191 C 0.50348 0.30292 0.68170
 C192 C 0.48164 0.30890 0.66735
 C193 C 0.46021 0.29242 0.61400
 C194 C 0.46085 0.27037 0.57437
 H195 H 0.44772 0.23840 0.35259
 H196 H 0.44821 0.27749 0.27958
 H197 H 0.52478 0.33751 0.39807
 H198 H 0.52458 0.29843 0.47053
 H199 H 0.44423 0.18565 0.47386
 H200 H 0.44296 0.14580 0.40325
 H201 H 0.52101 0.24409 0.35315
 H202 H 0.52476 0.22582 0.53568
 H203 H 0.52505 0.18682 0.60692
 H204 H 0.44854 0.17003 0.72633
 H205 H 0.44807 0.20879 0.65437
 H206 H 0.52138 0.27678 0.65288
 H207 H 0.52016 0.31543 0.72295
 H208 H 0.44310 0.29669 0.60256
 H209 H 0.44416 0.25783 0.53327
 H210 H 0.51946 0.20422 0.28196
 C211 C 0.75778 0.24351 0.54038
 C212 C 0.75750 0.24308 0.46136
 C213 C 0.73492 0.21883 0.41728
 C214 C 0.77992 0.26671 0.41520
 C215 C 0.78202 0.26611 0.58450
 C216 C 0.73400 0.22122 0.58643
 C217 C 0.72925 0.19098 0.43050
 C218 C 0.70734 0.16824 0.39041
 C219 C 0.69110 0.17315 0.33614
 C220 C 0.69711 0.20092 0.32137
 C221 C 0.71899 0.22367 0.36148
 C222 C 0.79538 0.26103 0.36011
 C223 C 0.81739 0.28322 0.31879
 C224 C 0.82399 0.31126 0.33163
 C225 C 0.80815 0.31701 0.38497
 C226 C 0.78611 0.29483 0.42627
 C227 C 0.77719 0.28223 0.63939
 C228 C 0.79994 0.30421 0.67928
 C229 C 0.82774 0.31013 0.66517
 C230 C 0.83262 0.29365 0.61183
 C231 C 0.80987 0.27166 0.57201
 C232 C 0.70592 0.21509 0.57440
 C233 C 0.68358 0.19303 0.61520
 C234 C 0.68911 0.17711 0.66901
 C235 C 0.71712 0.18368 0.68293
 C236 C 0.73947 0.20571 0.64210
 H237 H 0.74165 0.18687 0.47223
 H238 H 0.70296 0.14685 0.40204
 H239 H 0.68472 0.20496 0.27937
 H240 H 0.72317 0.24500 0.35014
 H241 H 0.79083 0.23949 0.35047
 H242 H 0.82949 0.27854 0.27760
 H243 H 0.77409 0.29959 0.46749
 H244 H 0.75585 0.27814 0.65015
 H245 H 0.79583 0.31672 0.72052
 H246 H 0.85399 0.29788 0.60058
 H247 H 0.81396 0.25910 0.53098
 H248 H 0.70132 0.22714 0.53270
 H249 H 0.66199 0.18818 0.60417
 H250 H 0.72164 0.17152 0.72449
 H251 H 0.76098 0.21021 0.65247
 H252 H 0.81303 0.33862 0.39517
 N253 N 0.97067 0.52915 0.08278
 N254 N 0.94989 0.53459 0.09487
 N255 N 1.03049 0.54186 0.13575
 N256 N 1.05186 0.55574 0.18421
 N257 N 1.03043 0.55899 0.08215
 N258 N 1.05178 0.58505 0.09265
 N259 N 0.97076 0.51206 0.13645
 N260 N 0.95005 0.50538 0.18660
 C261 C 0.93725 0.51951 0.15954
 C262 C 1.06488 0.58256 0.15635
 N263 N 1.03036 0.47185 0.08174
 N264 N 1.05115 0.46638 0.09331
 N265 N 0.97070 0.45910 0.13598
 N266 N 0.94943 0.44520 0.18463
 N267 N 0.97059 0.44201 0.08218
 N268 N 0.94921 0.41596 0.09271
 N269 N 1.03044 0.48890 0.13562
 N270 N 1.05130 0.49552 0.18539
 Mn271 Mn 1.00060 0.50048 0.13682
 C272 C 1.06400 0.48140 0.15788
 C273 C 0.93629 0.41842 0.15669
 N274 N 1.03006 0.55908 -0.08477
 N275 N 1.05089 0.58531 -0.09648
 N276 N 0.97024 0.51204 -0.13796
 N277 N 0.94879 0.50456 -0.18619
 N278 N 0.97030 0.52910 -0.08414
 N279 N 0.94887 0.53372 -0.09424
 N280 N 1.02998 0.54203 -0.13866
 N281 N 1.05076 0.55619 -0.18859
 Mn282 Mn 1.00036 0.54437 -0.00100
 C283 C 1.06358 0.58306 -0.16118
 C284 C 0.93573 0.51823 -0.15797
 N285 N 0.97042 0.44205 -0.08475
 N286 N 0.94960 0.41581 -0.09639
 N287 N 1.03006 0.48913 -0.13880
 N288 N 1.05131 0.49659 -0.18755
 N289 N 1.03017 0.47202 -0.08519
 N290 N 1.05153 0.46737 -0.09595
 N291 N 0.97032 0.45914 -0.13843
 N292 N 0.94942 0.44500 -0.18815
 Mn293 Mn 1.00038 0.45669 -0.00151
 Mn294 Mn 1.00015 0.50058 -0.13935
 Cl295 Cl 1.00038 0.50053 -0.00126
 C296 C 0.93672 0.41811 -0.16080
 C297 C 1.06444 0.48288 -0.15985
 N298 N 0.47117 0.44101 0.08273
 N299 N 0.46640 0.41495 0.09346
 N300 N 0.45837 0.48799 0.13569
 N301 N 0.44442 0.49547 0.18375
 N302 N 0.44133 0.47094 0.08178
 N303 N 0.41528 0.46634 0.09162
 N304 N 0.48817 0.45810 0.13662
 N305 N 0.49546 0.44418 0.18555
 C306 C 0.48175 0.41739 0.15766
 C307 C 0.41767 0.48182 0.15531
 N308 N 0.52851 0.55800 0.08286
 N309 N 0.53332 0.58408 0.09348
 N310 N 0.54113 0.51097 0.13723
 N311 N 0.55493 0.50353 0.18617
 N312 N 0.55835 0.52808 0.08371
 N313 N 0.58439 0.53276 0.09472
 N314 N 0.51132 0.54086 0.13636
 N315 N 0.50394 0.55475 0.18489
 Mn316 Mn 0.49975 0.49948 0.13734
 C317 C 0.51779 0.58158 0.15717
 C318 C 0.58179 0.51726 0.15868
 N319 N 0.44159 0.47095 -0.08513
 N320 N 0.41538 0.46556 -0.09733
 N321 N 0.48859 0.45816 -0.13780
 N322 N 0.49534 0.44403 -0.18732
 N323 N 0.47139 0.44108 -0.08419
 N324 N 0.46595 0.41484 -0.09571
 N325 N 0.45878 0.48806 -0.13872
 N326 N 0.44475 0.49479 -0.18890
 Mn327 Mn 0.45608 0.45571 -0.00118
 C328 C 0.41781 0.48067 -0.16197
 C329 C 0.48113 0.41714 -0.15995
 N330 N 0.55867 0.52823 -0.08321
 N331 N 0.58493 0.53368 -0.09448
 N332 N 0.51185 0.54106 -0.13806
 N333 N 0.50517 0.55521 -0.18794
 N334 N 0.52886 0.55810 -0.08406
 N335 N 0.53423 0.58431 -0.09564
 N336 N 0.54167 0.51117 -0.13718
 N337 N 0.55589 0.50453 -0.18671
 Mn338 Mn 0.54389 0.54339 -0.00015
 Mn339 Mn 0.50023 0.49961 -0.13883
 Cl340 Cl 0.49998 0.49955 -0.00076
 C341 C 0.58273 0.51865 -0.15896
 C342 C 0.51922 0.58206 -0.16037
 N343 N 0.44112 -0.03025 0.08242
 N344 N 0.41488 -0.05101 0.09445
 N345 N 0.48806 0.02947 0.13613
 N346 N 0.49468 0.05019 0.18616
 N347 N 0.47090 0.02944 0.08244
 N348 N 0.46536 0.05014 0.09440
 N349 N 0.45828 -0.03023 0.13612
 N350 N 0.44419 -0.05098 0.18620
 C351 C 0.41726 -0.06374 0.15908
 C352 C 0.48046 0.06288 0.15899
 N353 N 0.55821 0.02966 0.08210
 N354 N 0.58445 0.05049 0.09385
 N355 N 0.51136 -0.03009 0.13589
 N356 N 0.50476 -0.05090 0.18575
 N357 N 0.52844 -0.03002 0.08206
 N358 N 0.53394 -0.05077 0.09376
 N359 N 0.54114 0.02961 0.13593
 N360 N 0.55529 0.05039 0.18582
 Mn361 Mn 0.49971 -0.00031 0.13689
 C362 C 0.58217 0.06320 0.15846
 C363 C 0.51891 -0.06358 0.15834
 N364 N 0.47085 0.02957 -0.08450
 N365 N 0.46618 0.05095 -0.09476
 N366 N 0.45812 -0.03011 -0.13832
 N367 N 0.44422 -0.05145 -0.18679
 N368 N 0.44103 -0.03021 -0.08453
 N369 N 0.41499 -0.05164 -0.09486
 N370 N 0.48792 0.02961 -0.13829
 N371 N 0.49534 0.05099 -0.18668
 Mn372 Mn 0.45569 -0.00036 -0.00108
 C373 C 0.48163 0.06403 -0.15858
 C374 C 0.41744 -0.06461 -0.15872
 N375 N 0.52824 -0.03000 -0.08485
 N376 N 0.53293 -0.05135 -0.09528
 N377 N 0.54090 0.02973 -0.13848
 N378 N 0.55473 0.05112 -0.18691
 N379 N 0.55806 0.02978 -0.08481
 N380 N 0.58408 0.05122 -0.09518
 N381 N 0.51110 -0.03000 -0.13853
 N382 N 0.50364 -0.05132 -0.18700
 Mn383 Mn 0.54352 -0.00014 -0.00141
 Mn384 Mn 0.49951 -0.00019 -0.13929
 Cl385 Cl 0.49961 -0.00025 -0.00118
 C386 C 0.51740 -0.06438 -0.15907
 C387 C 0.58155 0.06425 -0.15894
 C388 C 1.15061 0.48191 0.29537
 C389 C 1.13087 0.48177 0.26298
 C390 C 1.10770 0.48168 0.22575
 C391 C 1.08782 0.48159 0.19449
 C392 C 0.51367 0.66584 0.29279
 C393 C 0.51442 0.64665 0.26021
 C394 C 0.51553 0.62414 0.22314
 C395 C 0.51656 0.60480 0.19246
 C396 C 0.33161 -0.14993 0.29870
 C397 C 0.35110 -0.13029 0.26583
 C398 C 0.37405 -0.10723 0.22799
 C399 C 0.39374 -0.08745 0.19622
 C400 C 0.85095 0.51871 0.29860
 C401 C 0.87061 0.51892 0.26591
 C402 C 0.89371 0.51909 0.22826
 C403 C 0.91352 0.51924 0.19662
 C404 C 0.48591 0.33311 0.29395
 C405 C 0.48515 0.35230 0.26124
 C406 C 0.48403 0.37483 0.22400
 C407 C 0.48299 0.39417 0.19317
 C408 C 0.66799 0.14967 0.29659
 C409 C 0.64847 0.12997 0.26407
 C410 C 0.62545 0.10683 0.22665
 C411 C 0.60572 0.08698 0.19523
 C412 C 0.48617 0.15319 -0.29156
 C413 C 0.48537 0.13307 -0.25968
 C414 C 0.48417 0.10923 -0.22343
 C415 C 0.48303 0.08868 -0.19336
 C416 C 0.66888 0.51825 -0.29533
 C417 C 0.64926 0.51833 -0.26318
 C418 C 0.62615 0.51838 -0.22625
 C419 C 0.60635 0.51845 -0.19526
 C420 C 0.85000 0.33211 -0.29776
 C421 C 0.86974 0.35171 -0.26555
 C422 C 0.89294 0.37479 -0.22850
 C423 C 0.91286 0.39456 -0.19736
 C424 C 0.51298 -0.15335 -0.29200
 C425 C 0.51373 -0.13327 -0.26025
 C426 C 0.51488 -0.10948 -0.22407
 C427 C 0.51600 -0.08897 -0.19398
 C428 C 0.33215 0.48159 -0.30079
 C429 C 0.35167 0.48138 -0.26824
 C430 C 0.37465 0.48119 -0.23070
 C431 C 0.39434 0.48100 -0.19910
 C432 C 1.15032 0.66905 -0.29814
 C433 C 1.13055 0.64945 -0.26599
 C434 C 1.10733 0.62638 -0.22897
 C435 C 1.08742 0.60661 -0.19781
 C436 C 0.84649 0.51355 -0.29102
 C437 C 0.86662 0.51439 -0.25903
 C438 C 0.89048 0.51563 -0.22271
 C439 C 0.91105 0.51680 -0.19264
 C440 C 0.48150 0.33096 -0.29588
 C441 C 0.48148 0.35063 -0.26395
 C442 C 0.48147 0.37378 -0.22723
 C443 C 0.48140 0.39358 -0.19632
 C444 C 0.66603 0.15347 -0.29187
 C445 C 0.64672 0.13335 -0.26007
 C446 C 0.62409 0.10950 -0.22387
 C447 C 0.60472 0.08893 -0.19380
 C448 C 1.15297 0.48723 -0.29534
 C449 C 1.13301 0.48649 -0.26286
 C450 C 1.10935 0.48535 -0.22590
 C451 C 1.08894 0.48424 -0.19524
 C452 C 0.51851 0.66813 -0.29685
 C453 C 0.51863 0.64850 -0.26477
 C454 C 0.51875 0.62539 -0.22790
 C455 C 0.51890 0.60561 -0.19688
 C456 C 0.33298 -0.15361 -0.29242
 C457 C 0.35226 -0.13354 -0.26032
 C458 C 0.37486 -0.10975 -0.22385
 C459 C 0.39423 -0.08922 -0.19363
 C460 C 0.51856 -0.14990 0.29647
 C461 C 0.51866 -0.13024 0.26391
 C462 C 0.51870 -0.10715 0.22648
 C463 C 0.51876 -0.08733 0.19508
 C464 C 0.33325 0.48668 0.28738
 C465 C 0.35249 0.48579 0.25557
 C466 C 0.37507 0.48450 0.21951
 C467 C 0.39445 0.48329 0.18968
 C468 C 1.15355 0.66687 0.29157
 C469 C 1.13357 0.64766 0.25904
 C470 C 1.10987 0.62511 0.22208
 C471 C 1.08942 0.60577 0.19152
 C472 C 0.48085 0.14890 0.29818
 C473 C 0.48072 0.12929 0.26540
 C474 C 0.48066 0.10628 0.22768
 C475 C 0.48060 0.08654 0.19602
 C476 C 0.66611 0.51298 0.29455
 C477 C 0.64685 0.51369 0.26208
 C478 C 0.62428 0.51481 0.22505
 C479 C 0.60494 0.51591 0.19428
 C480 C 0.84753 0.33417 0.29176
 C481 C 0.86755 0.35337 0.25931
 C482 C 0.89128 0.37589 0.22242
 C483 C 0.91175 0.39522 0.19187
   
