data_POSCAR
  _audit_creation_date              2014-09-24
  _audit_creation_method            'ToBaCCo'
  _symmetry_space_group_name_H-M    'P1'
  _symmetry_Int_Tables_number       1
  _symmetry_cell_setting            triclinic
  loop_
  _symmetry_equiv_pos_as_xyz
 x,y,z
_cell_length_a 33.3759
_cell_length_b 34.5892
_cell_length_c 33.5558
_cell_angle_alpha 90.190800
_cell_angle_beta 89.931300
_cell_angle_gamma 90.224900
loop_
  _atom_site_label
  _atom_site_type_symbol
  _atom_site_fract_x
  _atom_site_fract_y
  _atom_site_fract_z
O1 O 0.39167 0.34567 -0.04568
 O2 O 0.34123 0.40066 0.03428
 O3 O 0.40340 0.35551 0.03041
 O4 O 0.32976 0.39128 -0.04210
 O5 O 0.29036 0.34131 -0.02992
 O6 O 0.36442 0.30504 0.04200
 O7 O 0.30223 0.35030 0.04626
 O8 O 0.35211 0.29570 -0.03372
 Cu9 Cu 0.37039 0.37837 -0.00703
 Cu10 Cu 0.32335 0.31809 0.00743
 C11 C 0.38048 0.31123 -0.05319
 C12 C 0.31312 0.38471 0.05392
 C13 C 0.39653 0.32395 0.04837
 C14 C 0.29751 0.37255 -0.04842
 O15 O 0.65047 0.60287 0.03326
 O16 O 0.59838 0.65618 -0.04595
 O17 O 0.65141 0.60081 -0.04407
 O18 O 0.59763 0.65806 0.03164
 O19 O 0.64637 0.70141 0.03147
 O20 O 0.70009 0.64416 -0.04411
 O21 O 0.64678 0.69987 -0.04614
 O22 O 0.69904 0.64642 0.03298
 Cu23 Cu 0.61955 0.62518 -0.00632
 Cu24 Cu 0.67791 0.67739 -0.00669
 C25 C 0.68369 0.61543 0.04647
 C26 C 0.61345 0.68731 -0.05925
 C27 C 0.68531 0.61239 -0.05653
 C28 C 0.61285 0.68938 0.04454
 O29 O 0.66691 0.38552 0.96331
 O30 O 0.61503 0.33000 1.04174
 O31 O 0.67368 0.38001 1.04041
 O32 O 0.60867 0.33513 0.96444
 O33 O 0.65306 0.28859 0.95624
 O34 O 0.71651 0.33191 1.03411
 O35 O 0.65737 0.28180 1.03287
 O36 O 0.71140 0.33878 0.95720
 Cu37 Cu 0.63669 0.36242 1.00325
 Cu38 Cu 0.68897 0.30554 0.99445
 C39 C 0.69822 0.37171 0.94715
 C40 C 0.62707 0.29621 1.05024
 C41 C 0.70628 0.36365 1.05017
 C42 C 0.61989 0.30421 0.94734
 O43 O 0.33988 0.60929 0.95693
 O44 O 0.40265 0.65552 1.03379
 O45 O 0.34700 0.60156 1.03403
 O46 O 0.39418 0.66283 0.95732
 O47 O 0.34742 0.70699 0.96658
 O48 O 0.30154 0.64667 1.04430
 O49 O 0.35598 0.69977 1.04300
 O50 O 0.29271 0.65282 0.96713
 Cu51 Cu 0.37554 0.62773 0.99468
 Cu52 Cu 0.31962 0.68092 1.00611
 C53 C 0.30576 0.62331 0.94874
 C54 C 0.39005 0.68570 1.05133
 C55 C 0.31645 0.61394 1.05267
 C56 C 0.37878 0.69534 0.94891
 O57 O -0.04637 0.39565 0.34035
 O58 O 0.02945 0.34049 0.39434
 O59 O 0.03178 0.39735 0.34280
 O60 O -0.04775 0.33430 0.38512
 O61 O -0.04110 0.29496 0.33361
 O62 O 0.03676 0.35735 0.29169
 O63 O 0.03609 0.30095 0.34296
 O64 O -0.04102 0.35633 0.28863
 Cu65 Cu -0.00874 0.37090 0.37076
 Cu66 Cu -0.00171 0.32348 0.30915
 C67 C -0.05675 0.38560 0.30553
 C68 C 0.04559 0.31132 0.37817
 C69 C 0.04758 0.38797 0.30960
 C70 C -0.05774 0.30364 0.36636
 O71 O 0.03850 0.65501 0.59806
 O72 O -0.03835 0.59462 0.64655
 O73 O -0.03902 0.65104 0.59431
 O74 O 0.03924 0.60105 0.65240
 O75 O 0.03254 0.64441 0.70038
 O76 O -0.04532 0.69370 0.64296
 O77 O -0.04496 0.63845 0.69411
 O78 O 0.03236 0.69840 0.64609
 Cu79 Cu 0.00070 0.62100 0.61804
 Cu80 Cu -0.00676 0.67307 0.67571
 C81 C 0.04826 0.68716 0.61367
 C82 C -0.05491 0.60636 0.67840
 C83 C -0.05558 0.68097 0.60891
 C84 C 0.04901 0.61428 0.68646
 O85 O 1.03940 0.60312 0.35022
 O86 O 0.95963 0.65953 0.39898
 O87 O 0.96159 0.60344 0.34702
 O88 O 1.03751 0.66019 0.40180
 O89 O 1.04073 0.70171 0.35209
 O90 O 0.96320 0.64621 0.29833
 O91 O 0.96248 0.70237 0.35042
 O92 O 1.04063 0.64507 0.30079
 Cu93 Cu 0.99939 0.62736 0.37947
 Cu94 Cu 1.00197 0.67817 0.32057
 C95 C 1.05314 0.61418 0.31684
 C96 C 0.94761 0.69066 0.38307
 C97 C 0.94955 0.61511 0.31327
 C98 C 1.05218 0.69057 0.38629
 O99 O 0.96304 0.34191 0.60120
 O100 O 1.04327 0.39436 0.65343
 O101 O 1.04055 0.34001 0.59895
 O102 O 0.96500 0.39450 0.65683
 O103 O 0.96568 0.34910 0.70294
 O104 O 1.04201 0.29587 0.64629
 O105 O 1.04357 0.35007 0.70067
 O106 O 0.96434 0.29647 0.64727
 Cu107 Cu 1.00299 0.37232 0.62303
 Cu108 Cu 1.00406 0.31842 0.67899
 C109 C 0.95034 0.31007 0.61502
 C110 C 1.05685 0.38146 0.68605
 C111 C 1.05381 0.30829 0.61270
 C112 C 0.95230 0.38081 0.68967
 O113 O 0.39576 0.03576 0.33902
 O114 O 0.33132 -0.04106 0.38216
 O115 O 0.39491 -0.03874 0.33746
 O116 O 0.33727 0.03378 0.39215
 O117 O 0.29333 0.03668 0.34313
 O118 O 0.35506 -0.03207 0.28541
 O119 O 0.29182 -0.03767 0.32950
 O120 O 0.35138 0.04306 0.29087
 Cu121 Cu 0.36876 -0.00279 0.36793
 Cu122 Cu 0.31875 0.00325 0.30721
 C123 C 0.38435 0.05217 0.30708
 C124 C 0.30108 -0.05300 0.36239
 C125 C 0.38532 -0.04745 0.30207
 C126 C 0.30508 0.04692 0.37770
 O127 O 0.66898 -0.03335 0.61978
 O128 O 0.62469 0.04123 0.68426
 O129 O 0.67961 0.04059 0.62990
 O130 O 0.61510 -0.03234 0.67727
 O131 O 0.66336 -0.04521 0.72018
 O132 O 0.72469 0.03277 0.67735
 O133 O 0.66955 0.02913 0.73090
 O134 O 0.71762 -0.04127 0.66348
 Cu135 Cu 0.64245 0.00475 0.64807
 Cu136 Cu 0.69858 -0.00758 0.70242
 C137 C 0.70151 -0.04923 0.63009
 C138 C 0.63925 0.04771 0.71862
 C139 C 0.71257 0.04990 0.64632
 C140 C 0.62815 -0.05082 0.70718
 O141 O 0.33358 1.03715 0.60321
 O142 O 0.38872 0.96758 0.66484
 O143 O 0.33321 0.96240 0.61102
 O144 O 0.38607 1.04322 0.66046
 O145 O 0.33834 1.04556 0.70602
 O146 O 0.28583 0.96527 0.65695
 O147 O 0.34135 0.97029 0.71074
 O148 O 0.28563 1.03981 0.64852
 Cu149 Cu 0.36527 1.00241 0.63040
 Cu150 Cu 0.30812 1.00566 0.68519
 C151 C 0.30004 1.05000 0.61500
 C152 C 0.37429 0.95666 0.69800
 C153 C 0.30041 0.95015 0.62572
 C154 C 0.37102 1.05814 0.69176
 O155 O 0.60746 0.96529 0.33799
 O156 O 0.66015 1.04114 0.39604
 O157 O 0.60485 1.03956 0.34257
 O158 O 0.65882 0.96500 0.39808
 O159 O 0.70813 0.96649 0.35424
 O160 O 0.65298 1.04042 0.29730
 O161 O 0.70853 1.04148 0.35112
 O162 O 0.65736 0.96476 0.29470
 Cu163 Cu 0.62820 1.00222 0.37338
 Cu164 Cu 0.68652 1.00314 0.31985
 C165 C 0.62332 0.95266 0.30599
 C166 C 0.69312 1.05477 0.38285
 C167 C 0.61964 1.05282 0.31063
 C168 C 0.69278 0.95339 0.38620
 C169 C 0.83917 0.78936 0.47981
 C170 C 0.83944 0.78786 0.52197
 C171 C 0.81426 0.81309 0.54330
 C172 C 0.78956 0.84002 0.52397
 C173 C 0.78933 0.84130 0.48180
 C174 C 0.81414 0.81575 0.46043
 H175 H 0.81384 0.81594 0.42814
 H176 H 0.81462 0.81285 0.57549
 C177 C 0.15180 0.20669 0.46951
 C178 C 0.15128 0.20732 0.51173
 C179 C 0.17659 0.18260 0.53301
 C180 C 0.20293 0.15710 0.51359
 C181 C 0.20386 0.15659 0.47140
 C182 C 0.17837 0.18133 0.45008
 H183 H 0.17889 0.17999 0.41794
 H184 H 0.17615 0.18391 0.56529
 C185 C 0.15204 0.79341 0.52127
 C186 C 0.15336 0.79607 0.47912
 C187 C 0.17982 0.82313 0.46159
 C188 C 0.20489 0.84694 0.48506
 C189 C 0.20345 0.84329 0.52706
 C190 C 0.17662 0.81730 0.54445
 H191 H 0.17498 0.81548 0.57670
 H192 H 0.17896 0.82767 0.42980
 C193 C 0.82769 0.22012 0.52648
 C194 C 0.82448 0.22702 0.48513
 C195 C 0.80074 0.20209 0.46174
 C196 C 0.78038 0.17051 0.47853
 C197 C 0.78420 0.16313 0.51992
 C198 C 0.80768 0.18836 0.54325
 H199 H 0.81163 0.18290 0.57468
 H200 H 0.79787 0.20732 0.43004
 C201 C 0.47365 0.84594 0.79157
 C202 C 0.51541 0.84104 0.78508
 C203 C 0.53603 0.81255 0.80648
 C204 C 0.51689 0.79006 0.83578
 C205 C 0.47507 0.79458 0.84140
 C206 C 0.45437 0.82293 0.82009
 H207 H 0.42249 0.82655 0.82519
 H208 H 0.56768 0.80866 0.80065
 C209 C 0.48622 0.16451 0.22172
 C210 C 0.52848 0.16833 0.21950
 C211 C 0.54538 0.19276 0.19051
 C212 C 0.52144 0.21183 0.16250
 C213 C 0.47939 0.20681 0.16374
 C214 C 0.46248 0.18383 0.19374
 H215 H 0.43016 0.18039 0.19492
 H216 H 0.57763 0.19643 0.18915
 C217 C 0.51507 0.17094 0.77590
 C218 C 0.47287 0.16960 0.77967
 C219 C 0.45391 0.19329 0.80781
 C220 C 0.47580 0.21905 0.83171
 C221 C 0.51806 0.22040 0.82836
 C222 C 0.53696 0.19704 0.79960
 H223 H 0.56915 0.19879 0.79586
 H224 H 0.42167 0.19127 0.81155
 C225 C 0.52498 0.83884 0.21282
 C226 C 0.48262 0.84009 0.20962
 C227 C 0.46298 0.81500 0.18312
 C228 C 0.48404 0.78812 0.15982
 C229 C 0.52631 0.78724 0.16235
 C230 C 0.54615 0.81216 0.18923
 H231 H 0.57846 0.81068 0.19197
 H232 H 0.43072 0.81666 0.18076
 C233 C 0.78909 0.47555 0.83951
 C234 C 0.78535 0.51623 0.83649
 C235 C 0.80852 0.53584 0.80779
 C236 C 0.83663 0.51648 0.78363
 C237 C 0.84048 0.47587 0.78740
 C238 C 0.81698 0.45619 0.81548
 H239 H 0.82046 0.42518 0.81874
 H240 H 0.80571 0.56682 0.80551
 C241 C 0.22018 0.48204 0.16673
 C242 C 0.22049 0.52303 0.16704
 C243 C 0.19647 0.54242 0.19525
 C244 C 0.17137 0.52232 0.22184
 C245 C 0.17085 0.48150 0.22107
 C246 C 0.19573 0.46201 0.19380
 H247 H 0.19593 0.43067 0.19330
 H248 H 0.19561 0.57362 0.19564
 C249 C 0.77603 0.52777 0.16763
 C250 C 0.77396 0.48692 0.16716
 C251 C 0.80034 0.46585 0.19137
 C252 C 0.82927 0.48437 0.21527
 C253 C 0.83060 0.52531 0.21636
 C254 C 0.80386 0.54635 0.19258
 H255 H 0.80415 0.57766 0.19401
 H256 H 0.79781 0.43466 0.19228
 C257 C 0.21113 0.52690 0.83630
 C258 C 0.21781 0.48661 0.83398
 C259 C 0.19429 0.46414 0.80791
 C260 C 0.16371 0.48082 0.78472
 C261 C 0.15834 0.52147 0.78646
 C262 C 0.18126 0.54367 0.81298
 H263 H 0.17605 0.57455 0.81521
 H264 H 0.20046 0.43356 0.80539
 C265 C 0.29207 0.40594 0.08572
 C266 C 0.30276 0.44166 0.09734
 C267 C 0.28100 0.46421 0.12802
 C268 C 0.24226 0.45847 0.13702
 H269 H 0.32914 0.45506 0.08448
 H270 H 0.29720 0.48767 0.14223
 H271 H 0.26726 0.39124 0.09996
 H272 H 0.22575 0.43503 0.12324
 C273 C 0.70459 0.59305 0.07728
 C274 C 0.74032 0.60394 0.09187
 C275 C 0.76413 0.58099 0.12038
 C276 C 0.74970 0.55142 0.14189
 H277 H 0.75431 0.63011 0.08085
 H278 H 0.79548 0.58877 0.12310
 H279 H 0.69062 0.56632 0.08657
 H280 H 0.71845 0.54358 0.14006
 C281 C 0.72028 0.39395 0.91680
 C282 C 0.70555 0.42616 0.90035
 C283 C 0.72756 0.44931 0.87046
 C284 C 0.76758 0.45234 0.86974
 H285 H 0.67546 0.43540 0.90775
 H286 H 0.70994 0.46583 0.84949
 H287 H 0.74911 0.38292 0.90739
 H288 H 0.78563 0.43589 0.89035
 C289 C 0.28069 0.60513 0.91783
 C290 C 0.29583 0.57956 0.89184
 C291 C 0.27191 0.55889 0.86148
 C292 C 0.23260 0.55190 0.86499
 H293 H 0.32765 0.57350 0.89218
 H294 H 0.28817 0.54602 0.83684
 H295 H 0.24960 0.61369 0.91615
 H296 H 0.21542 0.56404 0.88931
 C297 C 0.07509 0.28938 0.40135
 C298 C 0.09878 0.26260 0.38492
 C299 C 0.12863 0.24076 0.40807
 C300 C 0.12258 0.22980 0.44601
 H301 H 0.09807 0.25790 0.35300
 H302 H 0.15568 0.23285 0.39239
 H303 H 0.07800 0.29637 0.43272
 H304 H 0.09469 0.23755 0.46037
 C305 C 0.07771 0.71249 0.59403
 C306 C 0.09395 0.70392 0.55849
 C307 C 0.12167 0.72985 0.53672
 C308 C 0.12383 0.76807 0.54305
 H309 H 0.08716 0.67641 0.54449
 H310 H 0.13983 0.71700 0.51345
 H311 H 0.08551 0.73900 0.60936
 H312 H 0.10608 0.78160 0.56613
 C313 C 0.91664 0.71423 0.40264
 C314 C 0.89890 0.70340 0.43674
 C315 C 0.86993 0.72737 0.45916
 C316 C 0.86605 0.76567 0.45457
 H317 H 0.90585 0.67545 0.44938
 H318 H 0.85278 0.71294 0.48219
 H319 H 0.90882 0.74116 0.38842
 H320 H 0.88228 0.78075 0.43144
 C321 C 0.91955 0.28884 0.59248
 C322 C 0.90676 0.25357 0.60309
 C323 C 0.87858 0.23014 0.57904
 C324 C 0.85322 0.24497 0.55219
 H325 H 0.91946 0.23983 0.62911
 H326 H 0.87940 0.19918 0.58360
 H327 H 0.90898 0.30210 0.56534
 H328 H 0.85158 0.27586 0.54809
 C329 C 0.40944 0.08142 0.28728
 C330 C 0.44955 0.08061 0.28860
 C331 C 0.47475 0.10510 0.26246
 C332 C 0.46457 0.14118 0.25210
 H333 H 0.46436 0.05819 0.30549
 H334 H 0.50176 0.09215 0.25077
 H335 H 0.39453 0.10093 0.26699
 H336 H 0.43694 0.15322 0.26360
 C337 C 0.62089 0.07694 0.74479
 C338 C 0.58906 0.09741 0.73336
 C339 C 0.57015 0.12577 0.76011
 C340 C 0.53669 0.14396 0.74907
 H341 H 0.57626 0.09280 0.70403
 H342 H 0.58279 0.13074 0.78944
 H343 H 0.63360 0.08148 0.77416
 H344 H 0.52400 0.13718 0.72027
 C345 C 0.39562 0.92775 0.72217
 C346 C 0.42725 0.90817 0.70793
 C347 C 0.45008 0.87877 0.73040
 C348 C 0.44860 0.87440 0.77006
 H349 H 0.43695 0.91317 0.67756
 H350 H 0.47052 0.86103 0.71325
 H351 H 0.38396 0.92195 0.75162
 H352 H 0.42783 0.89107 0.78781
 C353 C 0.60199 0.92434 0.28083
 C354 C 0.56208 0.92505 0.27720
 C355 C 0.53987 0.90093 0.24825
 C356 C 0.54861 0.86377 0.24064
 H357 H 0.54517 0.94692 0.29307
 H358 H 0.51460 0.91448 0.23395
 H359 H 0.61956 0.90553 0.26181
 H360 H 0.57482 0.85115 0.25439
 C361 C 0.40049 0.28827 0.91566
 C362 C 0.43042 0.30235 0.89325
 C363 C 0.45198 0.27946 0.86272
 C364 C 0.45363 0.24075 0.86256
 H365 H 0.43931 0.33233 0.89659
 H366 H 0.46860 0.29541 0.84038
 H367 H 0.38981 0.25901 0.91130
 H368 H 0.43736 0.22391 0.88434
 C369 C 0.59109 0.70905 0.91039
 C370 C 0.60252 0.74431 0.89815
 C371 C 0.57948 0.76872 0.87015
 C372 C 0.54057 0.76325 0.86137
 H373 H 0.63034 0.75649 0.90921
 H374 H 0.59505 0.79391 0.85893
 H375 H 0.56414 0.69567 0.89891
 H376 H 0.52485 0.74004 0.87590
 C377 C 0.41554 0.70477 0.08131
 C378 C 0.40019 0.72990 0.10757
 C379 C 0.42419 0.75087 0.13752
 C380 C 0.46191 0.76297 0.13110
 H381 H 0.36811 0.73453 0.10844
 H382 H 0.40878 0.75857 0.16475
 H383 H 0.44703 0.69741 0.08226
 H384 H 0.47668 0.75524 0.10347
 C385 C 0.60561 0.27290 0.08008
 C386 C 0.58347 0.28901 0.10890
 C387 C 0.56342 0.26565 0.13971
 C388 C 0.54151 0.23431 0.13086
 H389 H 0.58261 0.32018 0.11202
 H390 H 0.56470 0.27590 0.17023
 H391 H 0.60952 0.24181 0.07937
 H392 H 0.53665 0.22604 0.10007
 C393 C 0.27803 0.07672 0.58884
 C394 C 0.24103 0.08926 0.59748
 C395 C 0.21673 0.11510 0.57193
 C396 C 0.22909 0.13125 0.53761
 H397 H 0.22687 0.07968 0.62481
 H398 H 0.18653 0.12047 0.58227
 H399 H 0.29279 0.08514 0.56155
 H400 H 0.25869 0.12531 0.52640
 C401 C 0.71334 0.08446 0.40284
 C402 C 0.69885 0.10200 0.43557
 C403 C 0.72062 0.13192 0.45892
 C404 C 0.75792 0.14458 0.45109
 H405 H 0.66980 0.09347 0.44708
 H406 H 0.70553 0.14258 0.48534
 H407 H 0.74190 0.09312 0.39055
 H408 H 0.77301 0.13663 0.42382
 C409 C 0.72073 0.92336 0.60237
 C410 C 0.75766 0.90968 0.60889
 C411 C 0.77982 0.88344 0.58187
 C412 C 0.76516 0.86708 0.54851
 H413 H 0.77357 0.91871 0.63548
 H414 H 0.81045 0.87754 0.59044
 H415 H 0.70440 0.91579 0.57567
 H416 H 0.73509 0.87335 0.53885
 C417 C 0.27621 0.91490 0.37708
 C418 C 0.27110 0.90828 0.41585
 C419 C 0.24465 0.87691 0.42985
 C420 C 0.22945 0.87822 0.46667
 H421 H 0.28532 0.92716 0.43755
 H422 H 0.23844 0.85274 0.41020
 H423 H 0.25968 0.89780 0.35547
 H424 H 0.23627 0.90344 0.48469
 C425 C 0.08782 0.40403 0.70700
 C426 C 0.10066 0.39493 0.74364
 C427 C 0.12948 0.41859 0.76690
 C428 C 0.13692 0.45613 0.75967
 H429 H 0.08972 0.36879 0.75769
 H430 H 0.14245 0.40478 0.79267
 H431 H 0.09946 0.42915 0.69171
 H432 H 0.12044 0.46996 0.73621
 C433 C 0.08336 0.59034 0.29638
 C434 C 0.09610 0.59896 0.25953
 C435 C 0.12432 0.57559 0.23562
 C436 C 0.14425 0.54445 0.24858
 H437 H 0.08431 0.62432 0.24484
 H438 H 0.12815 0.58472 0.20500
 H439 H 0.09374 0.56480 0.31160
 H440 H 0.14016 0.53423 0.27865
 C441 C 0.91268 0.40885 0.28527
 C442 C 0.90241 0.40327 0.24708
 C443 C 0.87273 0.42704 0.22542
 C444 C 0.85790 0.46078 0.23878
 H445 H 0.91616 0.37993 0.23046
 H446 H 0.86435 0.41674 0.19608
 H447 H 0.89882 0.43130 0.30289
 H448 H 0.86822 0.47243 0.26673
 C449 C 0.91440 0.58213 0.69754
 C450 C 0.88717 0.59732 0.72231
 C451 C 0.85690 0.57391 0.74332
 C452 C 0.86519 0.53910 0.75867
 H453 H 0.88583 0.62837 0.72638
 H454 H 0.82806 0.58723 0.74815
 H455 H 0.91363 0.55156 0.69042
 H456 H 0.89479 0.52721 0.75401
 C457 C 0.70637 0.58932 0.91641
 C458 C 0.74345 0.59841 0.90378
 C459 C 0.76806 0.57466 0.87636
 C460 C 0.75900 0.53863 0.86407
 H461 H 0.75730 0.62510 0.91384
 H462 H 0.79613 0.58770 0.86731
 H463 H 0.69189 0.56305 0.90636
 H464 H 0.73263 0.52467 0.87563
 C465 C 0.26926 0.38618 0.92440
 C466 C 0.27468 0.41890 0.90385
 C467 C 0.24368 0.43384 0.87680
 C468 C 0.24890 0.46802 0.85900
 H469 H 0.30201 0.43559 0.90762
 H470 H 0.21599 0.41780 0.87289
 H471 H 0.24182 0.36975 0.92031
 H472 H 0.27632 0.48373 0.86490
 C473 C 0.29944 0.59127 0.08269
 C474 C 0.27111 0.60505 0.10727
 C475 C 0.25361 0.58231 0.14000
 C476 C 0.24192 0.54541 0.13552
 H477 H 0.26216 0.63508 0.10555
 H478 H 0.24831 0.59771 0.16754
 H479 H 0.31079 0.56227 0.08712
 H480 H 0.24702 0.53151 0.10702
 C481 C 0.73177 0.38057 0.07824
 C482 C 0.72366 0.41426 0.09624
 C483 C 0.75272 0.43233 0.12363
 C484 C 0.74471 0.46621 0.14124
 H485 H 0.69584 0.42920 0.09012
 H486 H 0.78145 0.41852 0.12804
 H487 H 0.75966 0.36599 0.08498
 H488 H 0.71622 0.47971 0.13503
 C489 C 0.91495 0.70009 0.58708
 C490 C 0.89303 0.72868 0.60304
 C491 C 0.86226 0.74983 0.58069
 C492 C 0.86856 0.76308 0.54371
 H493 H 0.89588 0.73583 0.63438
 H494 H 0.83501 0.75663 0.59661
 H495 H 0.90919 0.69083 0.55671
 H496 H 0.89671 0.75634 0.52921
 C497 C 0.91335 0.27836 0.38140
 C498 C 0.89378 0.28420 0.41568
 C499 C 0.86636 0.25429 0.43119
 C500 C 0.84763 0.25882 0.46610
 H501 H 0.89899 0.31024 0.43304
 H502 H 0.86352 0.22725 0.41500
 H503 H 0.90724 0.25218 0.36453
 H504 H 0.85215 0.28555 0.48236
 C505 C 0.08093 0.28587 0.59103
 C506 C 0.09400 0.29521 0.55439
 C507 C 0.12070 0.27018 0.53026
 C508 C 0.12381 0.23186 0.53544
 H509 H 0.08545 0.32255 0.54129
 H510 H 0.13736 0.28387 0.50641
 H511 H 0.09104 0.25947 0.60491
 H512 H 0.10748 0.21761 0.55908
 C513 C 0.08074 0.71173 0.40769
 C514 C 0.10021 0.74239 0.39249
 C515 C 0.12988 0.76493 0.41564
 C516 C 0.12442 0.77351 0.45429
 H517 H 0.09614 0.75023 0.36153
 H518 H 0.15585 0.77543 0.39969
 H519 H 0.08767 0.70232 0.43769
 H520 H 0.09715 0.76351 0.46844
 C521 C 0.60198 0.92174 0.72804
 C522 C 0.56249 0.92780 0.73079
 C523 C 0.53621 0.90377 0.75586
 C524 C 0.53983 0.86532 0.75793
 H525 H 0.54957 0.95346 0.71765
 H526 H 0.51305 0.91849 0.77252
 H527 H 0.61581 0.89867 0.74482
 H528 H 0.56369 0.85125 0.74151
 C529 C 0.41033 0.92454 0.28065
 C530 C 0.40238 0.91320 0.24333
 C531 C 0.42746 0.88605 0.22023
 C532 C 0.45784 0.86535 0.23524
 H533 H 0.37670 0.92512 0.22803
 H534 H 0.42050 0.88356 0.18880
 H535 H 0.43625 0.91391 0.29636
 H536 H 0.46607 0.86745 0.26627
 C537 C 0.59698 0.08256 0.28924
 C538 C 0.61113 0.10038 0.25676
 C539 C 0.58731 0.12782 0.23294
 C540 C 0.55520 0.14698 0.24672
 H541 H 0.64029 0.09253 0.24514
 H542 H 0.59603 0.13096 0.20202
 H543 H 0.56726 0.08883 0.30032
 H544 H 0.54621 0.14453 0.27756
 C545 C 0.39150 0.08994 0.71269
 C546 C 0.42309 0.10862 0.69726
 C547 C 0.44527 0.13923 0.71885
 C548 C 0.44802 0.14060 0.75866
 H549 H 0.43292 0.10192 0.66725
 H550 H 0.46198 0.15987 0.70113
 H551 H 0.37964 0.09834 0.74146
 H552 H 0.43156 0.12033 0.77698
 C553 C 0.59069 0.71186 0.07463
 C554 C 0.60546 0.74452 0.09073
 C555 C 0.58347 0.76961 0.11908
 C556 C 0.54952 0.75949 0.13782
 H557 H 0.63467 0.75482 0.08136
 H558 H 0.59564 0.79835 0.12368
 H559 H 0.56122 0.70137 0.08250
 H560 H 0.53677 0.73104 0.13363
 C561 C 0.42643 0.30937 0.07676
 C562 C 0.42354 0.27410 0.09262
 C563 C 0.45373 0.25962 0.12075
 C564 C 0.45159 0.22327 0.13395
 H565 H 0.39871 0.25538 0.08446
 H566 H 0.47697 0.27900 0.13132
 H567 H 0.45175 0.32774 0.08418
 H568 H 0.42653 0.20531 0.12472
 C569 C 0.59363 0.28626 0.91723
 C570 C 0.60321 0.25277 0.89940
 C571 C 0.57785 0.23172 0.87037
 C572 C 0.54270 0.24425 0.85603
 H573 H 0.63118 0.23885 0.90705
 H574 H 0.58884 0.20362 0.86132
 H575 H 0.56580 0.30077 0.91079
 H576 H 0.53081 0.27152 0.86589
 C577 C 0.39752 0.72042 0.91884
 C578 C 0.42760 0.70817 0.89563
 C579 C 0.44854 0.73294 0.86651
 C580 C 0.45190 0.77138 0.87028
 H581 H 0.43711 0.67830 0.89719
 H582 H 0.46430 0.71850 0.84248
 H583 H 0.38590 0.74942 0.91574
 H584 H 0.43658 0.78669 0.89393
 C585 C 0.71425 0.92465 0.41039
 C586 C 0.75198 0.91399 0.40220
 C587 C 0.77575 0.88608 0.42575
 C588 C 0.76375 0.86923 0.45981
 H589 H 0.76694 0.92637 0.37655
 H590 H 0.80545 0.88009 0.41437
 H591 H 0.69840 0.91295 0.43573
 H592 H 0.73505 0.87637 0.47249
 C593 C 0.27796 0.91869 0.60640
 C594 C 0.29084 0.90111 0.57318
 C595 C 0.26694 0.87264 0.55029
 C596 C 0.22719 0.86812 0.55420
 H597 H 0.32005 0.90842 0.56121
 H598 H 0.28242 0.85700 0.52690
 H599 H 0.24974 0.91070 0.61993
 H600 H 0.21076 0.88279 0.57747
 C601 C 0.28143 0.07382 0.40220
 C602 C 0.24503 0.08607 0.39136
 C603 C 0.21933 0.11175 0.41576
 C604 C 0.23105 0.13039 0.44901
 H605 H 0.23242 0.07603 0.36344
 H606 H 0.18891 0.11530 0.40526
 H607 H 0.29425 0.08222 0.43048
 H608 H 0.26109 0.12698 0.46016
 C609 C 0.73658 0.08168 0.63002
 C610 C 0.73504 0.09096 0.59155
 C611 C 0.75623 0.12519 0.57659
 C612 C 0.76614 0.12792 0.53810
 H613 H 0.71779 0.07335 0.57093
 H614 H 0.76200 0.14859 0.59727
 H615 H 0.75598 0.09772 0.65006
 H616 H 0.75996 0.10329 0.51905
 C617 C 0.91973 0.59172 0.29143
 C618 C 0.90753 0.60101 0.25459
 C619 C 0.87877 0.57829 0.23025
 C620 C 0.85913 0.54654 0.24256
 H621 H 0.91975 0.62664 0.24056
 H622 H 0.87405 0.58847 0.20014
 H623 H 0.90872 0.56605 0.30611
 H624 H 0.86371 0.53564 0.27223
 C625 C 0.92200 0.40150 0.71343
 C626 C 0.90491 0.43445 0.70129
 C627 C 0.87497 0.45631 0.72488
 C628 C 0.86999 0.45277 0.76442
 H629 H 0.91239 0.44589 0.67220
 H630 H 0.85731 0.47735 0.70885
 H631 H 0.91346 0.38854 0.74146
 H632 H 0.88684 0.43157 0.78094
 C633 C 0.07921 0.59466 0.71099
 C634 C 0.09969 0.56380 0.69815
 C635 C 0.12930 0.54318 0.72290
 C636 C 0.12783 0.54205 0.76281
 H637 H 0.09575 0.55369 0.66782
 H638 H 0.15212 0.52674 0.70740
 H639 H 0.08474 0.60645 0.74039
 H640 H 0.10536 0.55813 0.77907
 C641 C 0.07843 0.41306 0.29130
 C642 C 0.09388 0.40444 0.25535
 C643 C 0.12315 0.42802 0.23284
 C644 C 0.14293 0.45901 0.24686
 H645 H 0.08358 0.37866 0.24001
 H646 H 0.12807 0.41900 0.20229
 H647 H 0.08726 0.43900 0.30708
 H648 H 0.13773 0.46891 0.27694
   
