data_POSCAR
  _audit_creation_date              2014-09-24
  _audit_creation_method            'ToBaCCo'
  _symmetry_space_group_name_H-M    'P1'
  _symmetry_Int_Tables_number       1
  _symmetry_cell_setting            triclinic
  loop_
  _symmetry_equiv_pos_as_xyz
 x,y,z
_cell_length_a 42.7914
_cell_length_b 44.7301
_cell_length_c 19.5352
_cell_angle_alpha 89.955800
_cell_angle_beta 90.030000
_cell_angle_gamma 89.443100
loop_
  _atom_site_label
  _atom_site_type_symbol
  _atom_site_fract_x
  _atom_site_fract_y
  _atom_site_fract_z
C1 C 0.76129 0.25340 0.46618
 C2 C 0.75868 0.25275 0.53559
 C3 C 0.73378 0.26973 0.57245
 C4 C 0.78062 0.23427 0.57710
 C5 C 0.77868 0.22933 0.42997
 C6 C 0.74637 0.27724 0.42395
 C7 C 0.74092 0.28594 0.63170
 C8 C 0.71742 0.30090 0.66824
 C9 C 0.68586 0.29974 0.64659
 C10 C 0.67905 0.28337 0.58683
 C11 C 0.70260 0.26845 0.55061
 C12 C 0.81298 0.23804 0.57008
 C13 C 0.83382 0.22041 0.60776
 C14 C 0.82279 0.19893 0.65395
 C15 C 0.79028 0.19535 0.66148
 C16 C 0.76940 0.21307 0.62365
 C17 C 0.76777 0.19988 0.43271
 C18 C 0.78366 0.17703 0.39826
 C19 C 0.81115 0.18311 0.36202
 C20 C 0.82214 0.21263 0.35933
 C21 C 0.80575 0.23566 0.39244
 C22 C 0.73027 0.26993 0.36372
 C23 C 0.71643 0.29232 0.32365
 C24 C 0.71844 0.32253 0.34315
 C25 C 0.73535 0.32985 0.40227
 C26 C 0.74919 0.30746 0.44228
 H27 H 0.76484 0.28716 0.64960
 H28 H 0.72470 0.31332 0.71267
 H29 H 0.65527 0.28176 0.56806
 H30 H 0.69637 0.25552 0.50586
 H31 H 0.82208 0.25465 0.53518
 H32 H 0.85868 0.22359 0.60082
 H33 H 0.74450 0.20983 0.62959
 H34 H 0.74673 0.19472 0.46099
 H35 H 0.77466 0.15450 0.40040
 H36 H 0.84292 0.21798 0.33042
 H37 H 0.81431 0.25833 0.38953
 H38 H 0.72820 0.24683 0.34790
 H39 H 0.70456 0.28583 0.27717
 H40 H 0.73762 0.35296 0.41791
 H41 H 0.76224 0.31374 0.48747
 H42 H 0.78079 0.17854 0.69513
 C43 C 0.25659 0.74483 0.45357
 C44 C 0.25402 0.73981 0.52214
 C45 C 0.22998 0.75640 0.56193
 C46 C 0.27447 0.71829 0.55982
 C47 C 0.27172 0.72294 0.40666
 C48 C 0.24128 0.77166 0.42302
 C49 C 0.23869 0.77700 0.61222
 C50 C 0.21610 0.79545 0.64273
 C51 C 0.18441 0.79320 0.62383
 C52 C 0.17579 0.77175 0.57523
 C53 C 0.19832 0.75336 0.54495
 C54 C 0.30693 0.71759 0.54895
 C55 C 0.32628 0.69891 0.58829
 C56 C 0.31352 0.68069 0.63984
 C57 C 0.28100 0.68105 0.64955
 C58 C 0.26172 0.69974 0.61037
 C59 C 0.26518 0.69232 0.41223
 C60 C 0.27819 0.67183 0.36626
 C61 C 0.29802 0.68155 0.31350
 C62 C 0.30391 0.71224 0.30691
 C63 C 0.29089 0.73276 0.35304
 C64 C 0.21568 0.76855 0.37892
 C65 C 0.19771 0.79359 0.36052
 C66 C 0.20530 0.82213 0.38561
 C67 C 0.23222 0.82538 0.42576
 C68 C 0.24996 0.80033 0.44469
 H69 H 0.26308 0.77974 0.62539
 H70 H 0.22381 0.81216 0.67877
 H71 H 0.15161 0.76958 0.55972
 H72 H 0.19124 0.73740 0.50638
 H73 H 0.31741 0.73199 0.51094
 H74 H 0.35106 0.69898 0.57784
 H75 H 0.23679 0.69984 0.61985
 H76 H 0.24945 0.68430 0.45144
 H77 H 0.27206 0.64853 0.37143
 H78 H 0.31884 0.72034 0.26629
 H79 H 0.29584 0.75631 0.34702
 H80 H 0.20871 0.74660 0.36161
 H81 H 0.17777 0.79048 0.32730
 H82 H 0.23879 0.84717 0.44481
 H83 H 0.26977 0.80310 0.47857
 H84 H 0.27046 0.66716 0.68852
 C85 C 0.24519 0.25042 -0.46327
 C86 C 0.24652 0.25019 -0.53304
 C87 C 0.26551 0.27211 -0.57200
 C88 C 0.22979 0.22736 -0.57373
 C89 C 0.22338 0.23078 -0.42535
 C90 C 0.26538 0.27039 -0.42210
 C91 C 0.26159 0.30283 -0.56068
 C92 C 0.28015 0.32380 -0.59351
 C93 C 0.30513 0.31493 -0.64438
 C94 C 0.30651 0.28113 -0.65578
 C95 C 0.28727 0.26168 -0.62003
 C96 C 0.20789 0.23656 -0.62270
 C97 C 0.19204 0.21601 -0.66296
 C98 C 0.19808 0.18237 -0.65688
 C99 C 0.22236 0.17501 -0.60312
 C100 C 0.23688 0.19702 -0.56454
 C101 C 0.23483 0.21087 -0.37571
 C102 C 0.21461 0.19154 -0.34148
 C103 C 0.18222 0.19203 -0.35572
 C104 C 0.17092 0.21268 -0.40449
 C105 C 0.19121 0.23183 -0.43877
 C106 C 0.29795 0.26990 -0.43051
 C107 C 0.31658 0.29032 -0.39558
 C108 C 0.30306 0.31157 -0.35147
 C109 C 0.27054 0.31106 -0.34056
 C110 C 0.25191 0.29060 -0.37559
 H111 H 0.24405 0.31071 -0.52486
 H112 H 0.27668 0.34725 -0.58180
 H113 H 0.32332 0.27183 -0.69142
 H114 H 0.28991 0.23789 -0.62897
 H115 H 0.20283 0.26015 -0.62947
 H116 H 0.17521 0.22430 -0.69990
 H117 H 0.25426 0.19030 -0.52709
 H118 H 0.25961 0.20987 -0.36449
 H119 H 0.22490 0.17633 -0.30481
 H120 H 0.14623 0.21392 -0.41676
 H121 H 0.18183 0.24741 -0.47613
 H122 H 0.30886 0.25404 -0.46511
 H123 H 0.34159 0.28988 -0.40406
 H124 H 0.25935 0.32628 -0.30505
 H125 H 0.22685 0.29103 -0.36771
 H126 H 0.22870 0.15183 -0.59422
 C127 C -0.26080 0.76177 -0.46546
 C128 C -0.26052 0.76279 -0.53515
 C129 C -0.24020 0.78350 -0.57383
 C130 C -0.28014 0.74271 -0.57735
 C131 C -0.28066 0.74026 -0.42767
 C132 C -0.24116 0.78181 -0.42316
 C133 C -0.25376 0.80304 -0.62162
 C134 C -0.23511 0.82137 -0.66197
 C135 C -0.20234 0.82042 -0.65626
 C136 C -0.18876 0.80090 -0.60742
 C137 C -0.20758 0.78255 -0.56692
 C138 C -0.31280 0.74263 -0.57119
 C139 C -0.33079 0.72365 -0.61192
 C140 C -0.31635 0.70443 -0.66010
 C141 C -0.28361 0.70515 -0.66650
 C142 C -0.26578 0.72406 -0.62579
 C143 C -0.27798 0.70936 -0.43871
 C144 C -0.29740 0.68949 -0.40389
 C145 C -0.31983 0.70020 -0.35660
 C146 C -0.32164 0.73120 -0.34458
 C147 C -0.30230 0.75095 -0.37961
 C148 C -0.22046 0.76930 -0.37518
 C149 C -0.20162 0.78760 -0.33503
 C150 C -0.20337 0.81883 -0.34121
 C151 C -0.22436 0.83145 -0.38902
 C152 C -0.24322 0.81306 -0.42933
 H153 H -0.27890 0.80396 -0.62794
 H154 H -0.24649 0.83612 -0.69853
 H155 H -0.16382 0.79942 -0.59972
 H156 H -0.19667 0.76726 -0.53091
 H157 H -0.32434 0.75738 -0.53504
 H158 H -0.35582 0.72462 -0.60532
 H159 H -0.24060 0.72397 -0.63167
 H160 H -0.26083 0.70062 -0.47441
 H161 H -0.29416 0.66595 -0.41407
 H162 H -0.33831 0.74033 -0.30824
 H163 H -0.30451 0.77472 -0.36989
 H164 H -0.21858 0.74525 -0.36947
 H165 H -0.18559 0.77728 -0.29893
 H166 H -0.22593 0.85536 -0.39649
 H167 H -0.25933 0.82318 -0.46550
 H168 H -0.27161 0.69091 -0.70307
 O169 O -0.00766 0.95328 0.10306
 O170 O 0.03914 0.96548 -0.12664
 O171 O -0.05776 0.97956 -0.06148
 O172 O 0.04743 0.95645 0.08774
 O173 O -0.01978 0.96355 -0.12937
 O174 O 0.03148 0.98077 0.17648
 O175 O 0.04749 0.94546 -0.02886
 O176 O -0.05192 0.97062 0.06436
 C177 C -0.03633 0.95003 0.09352
 C178 C 0.04777 0.94345 -0.09178
 C179 C -0.04786 0.96315 -0.11016
 C180 C 0.05107 0.96164 0.15068
 O181 O 0.02223 1.02891 0.10682
 O182 O -0.02251 1.02104 -0.13366
 O183 O -0.03676 1.03078 0.07576
 O184 O 0.07031 1.00055 -0.05924
 O185 O 0.03495 1.02458 -0.11679
 O186 O -0.02439 1.00233 0.15579
 O187 O 0.06503 1.01409 0.06083
 O188 O -0.04307 1.03728 -0.04033
 Co189 Co 0.00847 0.99097 0.10118
 Co190 Co 0.00797 0.99359 -0.11477
 Co191 Co -0.04315 1.00339 0.00940
 Co192 Co 0.05311 0.98055 0.01379
 O193 O 0.00493 0.99324 -0.00252
 C194 C 0.04991 1.03381 0.09255
 C195 C -0.03903 1.03965 -0.10269
 C196 C -0.03950 1.02451 0.13706
 C197 C 0.06236 1.02237 -0.09609
 O198 O 0.46886 0.46965 0.11308
 O199 O 0.52708 0.45137 -0.09098
 O200 O 0.42930 0.48774 -0.07750
 O201 O 0.56767 0.48329 0.07134
 O202 O 0.47112 0.46244 -0.10870
 O203 O 0.52746 0.46618 0.13037
 O204 O 0.56770 0.47543 -0.05262
 O205 O 0.45849 0.45795 0.00881
 C206 C 0.45711 0.45197 0.07078
 C207 C 0.55552 0.45181 -0.07570
 C208 C 0.44241 0.46863 -0.11980
 C209 C 0.55604 0.46550 0.11519
 O210 O 0.53032 0.52330 0.13856
 O211 O 0.48635 0.51969 -0.14062
 O212 O 0.43806 0.51031 0.04912
 O213 O 0.54976 0.53562 -0.06725
 O214 O 0.54194 0.50319 -0.14186
 O215 O 0.47437 0.52930 0.11087
 O216 O 0.55337 0.54183 0.05087
 O217 O 0.46039 0.53473 -0.05309
 Co218 Co 0.50047 0.49711 0.11143
 Co219 Co 0.50642 0.48580 -0.10911
 Co220 Co 0.46181 0.49659 -0.02250
 Co221 Co 0.55549 0.50806 -0.00059
 O222 O 0.50764 0.49803 0.00042
 C223 C 0.54640 0.54328 0.11222
 C224 C 0.46984 0.53940 -0.11218
 C225 C 0.44638 0.52838 0.09433
 C226 C 0.55150 0.52835 -0.12753
 C227 C 0.32686 0.33925 0.32075
 C228 C 0.34894 0.33259 0.27070
 C229 C 0.36969 0.35583 0.24268
 C230 C 0.38748 0.34971 0.18388
 C231 C 0.40751 0.37128 0.15689
 C232 C 0.41027 0.39929 0.18884
 C233 C 0.39286 0.40519 0.24819
 C234 C 0.37260 0.38382 0.27462
 C235 C 0.43135 0.42270 0.16298
 C236 C 0.43977 0.42568 0.09431
 H237 H 0.35099 0.31000 0.25110
 H238 H 0.38585 0.32820 0.15875
 H239 H 0.42117 0.36575 0.11199
 H240 H 0.39475 0.42654 0.27395
 H241 H 0.35951 0.38918 0.32049
 H242 H 0.43830 0.43993 0.19871
 H243 H 0.31652 0.32572 0.33674
 H244 H 0.43123 0.41014 0.05640
 C245 C -0.18488 0.83907 0.30036
 C246 C -0.15220 0.83954 0.29593
 C247 C -0.13540 0.86040 0.25014
 C248 C -0.10508 0.85296 0.22818
 C249 C -0.08834 0.87241 0.18605
 C250 C -0.10159 0.89992 0.16567
 C251 C -0.13198 0.90722 0.18721
 C252 C -0.14861 0.88789 0.22948
 C253 C -0.08449 0.92197 0.12381
 C254 C -0.05195 0.92356 0.12134
 H255 H -0.13814 0.82342 0.32363
 H256 H -0.09435 0.83195 0.24341
 H257 H -0.06524 0.86568 0.16936
 H258 H -0.14263 0.92837 0.17267
 H259 H -0.17145 0.89502 0.24706
 H260 H -0.09806 0.93980 0.10028
 H261 H -0.19792 0.85359 0.26615
 H262 H -0.03762 0.90699 0.14712
 C263 C 0.66708 0.68465 0.29753
 C264 C 0.63479 0.67990 0.29959
 C265 C 0.61930 0.65800 0.25427
 C266 C 0.59192 0.64410 0.27677
 C267 C 0.57744 0.62242 0.23651
 C268 C 0.59009 0.61430 0.17259
 C269 C 0.61662 0.62924 0.14875
 C270 C 0.63112 0.65086 0.18905
 C271 C 0.57639 0.59057 0.12938
 C272 C 0.55760 0.56789 0.15526
 H273 H 0.62047 0.69046 0.33828
 H274 H 0.58198 0.64967 0.32619
 H275 H 0.55632 0.61231 0.25564
 H276 H 0.62647 0.62386 0.09912
 H277 H 0.65140 0.66203 0.16865
 H278 H 0.58307 0.58979 0.07589
 H279 H 0.68064 0.67132 0.26182
 H280 H 0.55183 0.56718 0.20911
 C281 C 0.18178 1.15679 0.29970
 C282 C 0.15775 1.16216 0.25328
 C283 C 0.14295 1.13750 0.21526
 C284 C 0.11389 1.14238 0.18363
 C285 C 0.09881 1.11907 0.14974
 C286 C 0.11276 1.09052 0.14636
 C287 C 0.14234 1.08597 0.17565
 C288 C 0.15722 1.10913 0.21033
 C289 C 0.09700 1.06500 0.11365
 C290 C 0.06465 1.06166 0.11479
 H291 H 0.14848 1.18463 0.24698
 H292 H 0.10261 1.16413 0.18608
 H293 H 0.07637 1.12348 0.12602
 H294 H 0.15364 1.06422 0.17313
 H295 H 0.17983 1.10476 0.23333
 H296 H 0.11143 1.04669 0.09507
 H297 H 0.18925 1.17090 0.32019
 H298 H 0.04995 1.07860 0.13830
 C299 C 0.66198 0.31369 -0.32030
 C300 C 0.66455 0.32989 -0.25901
 C301 C 0.63821 0.34683 -0.22753
 C302 C 0.64073 0.35557 -0.15872
 C303 C 0.61760 0.37336 -0.12821
 C304 C 0.59148 0.38303 -0.16620
 C305 C 0.58837 0.37351 -0.23422
 C306 C 0.61159 0.35587 -0.26493
 C307 C 0.56803 0.40414 -0.13773
 C308 C 0.57606 0.42612 -0.09045
 H309 H 0.68625 0.32999 -0.23086
 H310 H 0.66088 0.34888 -0.12858
 H311 H 0.62036 0.37964 -0.07508
 H312 H 0.56849 0.38074 -0.26458
 H313 H 0.60894 0.35042 -0.31848
 H314 H 0.54518 0.40522 -0.16164
 H315 H 0.63887 0.31181 -0.34232
 H316 H 0.59967 0.42695 -0.07070
 C317 C 0.16003 0.81379 -0.34973
 C318 C 0.16315 0.83008 -0.28936
 C319 C 0.13910 0.85151 -0.26505
 C320 C 0.13778 0.85818 -0.19507
 C321 C 0.11596 0.87880 -0.17014
 C322 C 0.09496 0.89332 -0.21493
 C323 C 0.09667 0.88714 -0.28517
 C324 C 0.11846 0.86634 -0.31013
 C325 C 0.07274 0.91641 -0.19006
 C326 C 0.06214 0.91687 -0.12271
 H327 H 0.18307 0.82592 -0.25648
 H328 H 0.15382 0.84748 -0.15954
 H329 H 0.11632 0.88390 -0.11604
 H330 H 0.08123 0.89854 -0.32081
 H331 H 0.11955 0.86256 -0.36476
 H332 H 0.06568 0.93414 -0.22476
 H333 H 0.13828 0.81528 -0.37792
 H334 H 0.06743 0.89829 -0.08898
 C335 C 0.33283 0.66110 -0.31520
 C336 C 0.36530 0.66302 -0.30805
 C337 C 0.38338 0.64374 -0.26026
 C338 C 0.41490 0.63735 -0.27443
 C339 C 0.43236 0.61853 -0.23138
 C340 C 0.41859 0.60590 -0.17282
 C341 C 0.38753 0.61347 -0.15698
 C342 C 0.37006 0.63212 -0.20016
 C343 C 0.43530 0.58424 -0.12809
 C344 C 0.46003 0.56617 -0.15059
 H345 H 0.37833 0.67844 -0.33933
 H346 H 0.42590 0.64654 -0.31962
 H347 H 0.45653 0.61405 -0.24417
 H348 H 0.37650 0.60445 -0.11162
 H349 H 0.34626 0.63755 -0.18585
 H350 H 0.42515 0.57958 -0.07841
 H351 H 0.32053 0.64466 -0.28509
 H352 H 0.46957 0.56904 -0.20140
 C353 C -0.15407 1.18012 -0.30910
 C354 C -0.16087 1.16383 -0.25003
 C355 C -0.13777 1.14416 -0.21523
 C356 C -0.14298 1.13612 -0.14681
 C357 C -0.12230 1.11681 -0.11288
 C358 C -0.09615 1.10480 -0.14682
 C359 C -0.09066 1.11313 -0.21519
 C360 C -0.11138 1.13240 -0.24917
 C361 C -0.07581 1.08332 -0.10946
 C362 C -0.05458 1.06383 -0.14109
 H363 H -0.18356 1.16644 -0.22627
 H364 H -0.16317 1.14473 -0.11953
 H365 H -0.12709 1.11083 -0.06017
 H366 H -0.07054 1.10493 -0.24303
 H367 H -0.10685 1.13741 -0.30237
 H368 H -0.07952 1.08112 -0.05479
 H369 H -0.13031 1.18027 -0.32796
 H370 H -0.05096 1.06445 -0.19580
 C371 C 0.65986 0.68145 -0.31996
 C372 C 0.65715 0.65051 -0.32934
 C373 C 0.63650 0.63174 -0.28656
 C374 C 0.62599 0.60437 -0.31255
 C375 C 0.60719 0.58569 -0.27288
 C376 C 0.59866 0.59399 -0.20587
 C377 C 0.60938 0.62129 -0.17989
 C378 C 0.62814 0.63991 -0.21948
 C379 C 0.57996 0.57467 -0.16002
 C380 C 0.56661 0.54748 -0.17878
 H381 H 0.66918 0.63947 -0.37096
 H382 H 0.63239 0.59738 -0.36379
 H383 H 0.59996 0.56474 -0.29494
 H384 H 0.60357 0.62811 -0.12818
 H385 H 0.63666 0.66026 -0.19650
 H386 H 0.57719 0.58199 -0.10745
 H387 H 0.64457 0.69196 -0.28278
 H388 H 0.56795 0.53933 -0.23071
 C389 C 0.16066 1.17261 -0.32456
 C390 C 0.16802 1.15067 -0.27561
 C391 C 0.14470 1.12952 -0.24769
 C392 C 0.15103 1.11504 -0.18529
 C393 C 0.12994 1.09453 -0.15785
 C394 C 0.10212 1.08785 -0.19280
 C395 C 0.09578 1.10233 -0.25507
 C396 C 0.11690 1.12269 -0.28265
 C397 C 0.07894 1.06646 -0.16584
 C398 C 0.08611 1.04373 -0.11918
 H399 H 0.19134 1.14897 -0.25480
 H400 H 0.17228 1.11979 -0.15735
 H401 H 0.13535 1.08439 -0.10894
 H402 H 0.07457 1.09751 -0.28312
 H403 H 0.11150 1.13244 -0.33194
 H404 H 0.05544 1.06774 -0.18647
 H405 H 0.13644 1.17504 -0.33966
 H406 H 0.10974 1.04073 -0.10059
 C407 C 0.32367 0.33350 -0.31750
 C408 C 0.31308 0.36094 -0.29162
 C409 C 0.33391 0.38334 -0.25979
 C410 C 0.32313 0.41295 -0.25273
 C411 C 0.34196 0.43469 -0.22259
 C412 C 0.37207 0.42734 -0.19931
 C413 C 0.38268 0.39759 -0.20505
 C414 C 0.36382 0.37583 -0.23474
 C415 C 0.39119 0.45055 -0.16578
 C416 C 0.42372 0.44895 -0.16342
 H417 H 0.28880 0.36723 -0.29836
 H418 H 0.30005 0.41930 -0.27073
 H419 H 0.33304 0.45734 -0.21771
 H420 H 0.40520 0.39077 -0.18488
 H421 H 0.37262 0.35311 -0.23631
 H422 H 0.37927 0.46928 -0.14179
 H423 H 0.34845 0.32857 -0.31774
 H424 H 0.43606 0.43166 -0.19148
 C425 C -0.18207 0.83714 -0.29894
 C426 C -0.18669 0.86756 -0.28544
 C427 C -0.16437 0.88554 -0.24486
 C428 C -0.17489 0.91197 -0.21332
 C429 C -0.15427 0.92978 -0.17596
 C430 C -0.12257 0.92181 -0.17036
 C431 C -0.11207 0.89517 -0.20138
 C432 C -0.13266 0.87738 -0.23862
 C433 C -0.10113 0.94164 -0.13220
 C434 C -0.06907 0.94251 -0.14519
 H435 H -0.20805 0.87843 -0.30225
 H436 H -0.19916 0.91885 -0.21752
 H437 H -0.16300 0.95009 -0.15230
 H438 H -0.08803 0.88778 -0.19681
 H439 H -0.12338 0.85760 -0.26340
 H440 H -0.11114 0.95733 -0.09589
 H441 H -0.16262 0.82562 -0.27489
 H442 H -0.05905 0.92857 -0.18490
 C443 C 0.31252 0.66038 0.26433
 C444 C 0.31853 0.63046 0.28052
 C445 C 0.33607 0.60997 0.23495
 C446 C 0.35393 0.58697 0.26469
 C447 C 0.37214 0.56804 0.22402
 C448 C 0.37249 0.57147 0.15254
 C449 C 0.35335 0.59340 0.12223
 C450 C 0.33543 0.61274 0.16316
 C451 C 0.39357 0.55292 0.11001
 C452 C 0.42403 0.54724 0.13167
 H453 H 0.31332 0.62249 0.33154
 H454 H 0.35443 0.58410 0.31977
 H455 H 0.38612 0.55079 0.24854
 H456 H 0.35303 0.59614 0.06714
 H457 H 0.32113 0.62971 0.13861
 H458 H 0.38597 0.54555 0.05993
 H459 H 0.32120 0.66928 0.21648
 H460 H 0.43232 0.55774 0.17816
 C461 C -0.17299 1.15860 0.32486
 C462 C -0.14057 1.15648 0.31928
 C463 C -0.12510 1.13224 0.28024
 C464 C -0.09607 1.12092 0.30215
 C465 C -0.08073 1.09849 0.26475
 C466 C -0.09395 1.08753 0.20395
 C467 C -0.12274 1.09918 0.18164
 C468 C -0.13835 1.12112 0.21969
 C469 C -0.07734 1.06573 0.16004
 C470 C -0.05673 1.04392 0.18484
 H471 H -0.12611 1.17205 0.34723
 H472 H -0.08529 1.12945 0.34825
 H473 H -0.05814 1.09049 0.28224
 H474 H -0.13311 1.09139 0.13438
 H475 H -0.16033 1.12996 0.20061
 H476 H -0.08227 1.06640 0.10561
 H477 H -0.18722 1.14066 0.30505
 H478 H -0.05348 1.04082 0.23935
 C479 C 0.70350 0.34691 0.30307
 C480 C 0.67758 0.34245 0.26095
 C481 C 0.66053 0.36714 0.22639
 C482 C 0.62896 0.36311 0.20992
 C483 C 0.61162 0.38611 0.17948
 C484 C 0.62558 0.41368 0.16451
 C485 C 0.65751 0.41731 0.17803
 C486 C 0.67487 0.39431 0.20905
 C487 C 0.60732 0.43861 0.13410
 C488 C 0.57564 0.44261 0.14835
 H489 H 0.66737 0.32044 0.25831
 H490 H 0.61753 0.34220 0.22154
 H491 H 0.58735 0.38211 0.16722
 H492 H 0.66891 0.43814 0.16565
 H493 H 0.69945 0.39782 0.21877
 H494 H 0.61923 0.45464 0.10200
 H495 H 0.71148 0.36946 0.31202
 H496 H 0.56434 0.42797 0.18469
 C497 C 0.18561 0.84877 0.37100
 C498 C 0.15326 0.84694 0.36269
 C499 C 0.13297 0.87258 0.34335
 C500 C 0.10468 0.86656 0.31013
 C501 C 0.08582 0.88984 0.28584
 C502 C 0.09466 0.91972 0.29504
 C503 C 0.12181 0.92597 0.33236
 C504 C 0.14101 0.90256 0.35604
 C505 C 0.07699 0.94393 0.26047
 C506 C 0.06947 0.94048 0.19171
 H507 H 0.14235 0.82526 0.36660
 H508 H 0.09767 0.84372 0.30071
 H509 H 0.06464 0.88448 0.25824
 H510 H 0.12884 0.94889 0.34050
 H511 H 0.16210 0.90806 0.38362
 H512 H 0.07212 0.96479 0.28662
 H513 H 0.19690 0.87028 0.36904
 H514 H 0.07798 0.92073 0.16518
   
