data_POSCAR
  _audit_creation_date              2014-09-24
  _audit_creation_method            'ToBaCCo'
  _symmetry_space_group_name_H-M    'P1'
  _symmetry_Int_Tables_number       1
  _symmetry_cell_setting            triclinic
  loop_
  _symmetry_equiv_pos_as_xyz
 x,y,z
_cell_length_a 32.0760
_cell_length_b 31.8909
_cell_length_c 15.9468
_cell_angle_alpha 91.181100
_cell_angle_beta 89.937900
_cell_angle_gamma 91.370500
loop_
  _atom_site_label
  _atom_site_type_symbol
  _atom_site_fract_x
  _atom_site_fract_y
  _atom_site_fract_z
O1 O -0.04863 0.27421 0.07485
 O2 O 0.04083 0.24822 -0.06225
 O3 O -0.04156 0.25395 -0.08350
 O4 O 0.03210 0.26234 0.09605
 O5 O 0.01963 0.19518 0.12051
 O6 O -0.04951 0.18621 -0.05962
 O7 O 0.03006 0.18096 -0.03749
 O8 O -0.05829 0.20666 0.09813
 Cu9 Cu -0.00341 0.26659 0.00337
 Cu10 Cu -0.01576 0.18565 0.03236
 C11 C -0.06859 0.24457 0.11002
 C12 C 0.05157 0.21022 -0.07044
 C13 C -0.05832 0.21822 -0.10092
 C14 C 0.03859 0.22950 0.13772
 O15 O 0.46351 0.74591 0.52526
 O16 O 0.54333 0.72993 0.35884
 O17 O 0.45934 0.72814 0.36609
 O18 O 0.54619 0.74498 0.51838
 O19 O 0.54381 0.67691 0.54212
 O20 O 0.46013 0.66015 0.38956
 O21 O 0.54150 0.66195 0.38294
 O22 O 0.46407 0.67784 0.54844
 Cu23 Cu 0.50309 0.74415 0.43889
 Cu24 Cu 0.50220 0.66252 0.46753
 C25 C 0.45025 0.71404 0.56483
 C26 C 0.55707 0.69329 0.34538
 C27 C 0.44420 0.69119 0.35448
 C28 C 0.55981 0.71311 0.55544
 O29 O 0.96529 0.76523 -0.13455
 O30 O 1.04673 0.75980 0.03150
 O31 O 0.96360 0.75743 0.02591
 O32 O 1.04970 0.76747 -0.12913
 O33 O 1.04750 0.83644 -0.11546
 O34 O 0.96452 0.82654 0.03963
 O35 O 1.04520 0.82881 0.04547
 O36 O 0.96795 0.83431 -0.12168
 Cu37 Cu 1.00638 0.75537 -0.05371
 Cu38 Cu 1.00619 0.83821 -0.03638
 C39 C 0.95218 0.80109 -0.15449
 C40 C 1.06008 0.79396 0.06566
 C41 C 0.94914 0.79091 0.05792
 C42 C 1.06399 0.80392 -0.14628
 O43 O 0.53537 0.25093 0.58403
 O44 O 0.45275 0.24159 0.42184
 O45 O 0.53477 0.24446 0.42230
 O46 O 0.45163 0.25223 0.58370
 O47 O 0.45459 0.32119 0.57256
 O48 O 0.53413 0.31347 0.41079
 O49 O 0.45496 0.31060 0.41072
 O50 O 0.53543 0.31985 0.57207
 Cu51 Cu 0.49345 0.24019 0.50485
 Cu52 Cu 0.49474 0.32311 0.49105
 C53 C 0.55023 0.28716 0.60335
 C54 C 0.44011 0.27487 0.38871
 C55 C 0.54836 0.27817 0.38951
 C56 C 0.43860 0.28846 0.60401
 O57 O 0.75815 0.04184 -0.07089
 O58 O 0.76338 -0.04675 0.07621
 O59 O 0.75887 0.03636 0.09098
 O60 O 0.76174 -0.04121 -0.08421
 O61 O 0.83059 -0.03584 -0.08313
 O62 O 0.82777 0.04101 0.08883
 O63 O 0.83199 -0.03888 0.07856
 O64 O 0.82706 0.04476 -0.07300
 Cu65 Cu 0.75340 -0.00282 0.00332
 Cu66 Cu 0.83615 0.00335 0.00257
 C67 C 0.79226 0.05834 -0.09637
 C68 C 0.79901 -0.05825 0.10086
 C69 C 0.79306 0.05225 0.11835
 C70 C 0.79707 -0.05237 -0.11167
 O71 O 0.25158 0.46222 0.63047
 O72 O 0.24226 0.53857 0.45757
 O73 O 0.23118 0.45557 0.47418
 O74 O 0.25670 0.54571 0.61708
 O75 O 0.32349 0.53944 0.58663
 O76 O 0.29843 0.44878 0.44990
 O77 O 0.30871 0.52898 0.42812
 O78 O 0.31914 0.45913 0.60453
 Cu79 Cu 0.23861 0.50128 0.54775
 Cu80 Cu 0.31893 0.49355 0.51426
 C81 C 0.28726 0.44719 0.64514
 C82 C 0.27472 0.54699 0.41434
 C83 C 0.26091 0.43581 0.44030
 C84 C 0.29439 0.55853 0.62399
 O85 O 0.25489 1.04425 0.14862
 O86 O 0.25468 0.96421 -0.02335
 O87 O 0.24812 1.04797 -0.01204
 O88 O 0.25005 0.95988 0.13869
 O89 O 0.18142 0.96237 0.14660
 O90 O 0.17954 1.04011 -0.01598
 O91 O 0.18590 0.96074 -0.01655
 O92 O 0.18617 1.04475 0.14474
 Cu93 Cu 0.25891 1.00418 0.06321
 Cu94 Cu 0.17667 1.00149 0.06596
 C95 C 0.22074 1.06018 0.17179
 C96 C 0.22001 0.94845 -0.04813
 C97 C 0.21261 1.05889 -0.03912
 C98 C 0.21526 0.94579 0.16657
 O99 O 0.76476 0.45533 0.41972
 O100 O 0.74528 0.54197 0.57001
 O101 O 0.74536 0.45938 0.57865
 O102 O 0.75412 0.53793 0.40980
 O103 O 0.68694 0.52760 0.38371
 O104 O 0.67737 0.45558 0.55627
 O105 O 0.67772 0.53604 0.54376
 O106 O 0.69696 0.44788 0.39867
 Cu107 Cu 0.75929 0.49911 0.49660
 Cu108 Cu 0.67817 0.49094 0.46818
 C109 C 0.73407 0.43624 0.38494
 C110 C 0.70837 0.55456 0.58030
 C111 C 0.70921 0.44443 0.59587
 C112 C 0.72118 0.54658 0.36960
 C113 C 0.14799 0.18282 0.23081
 C114 C 0.18460 0.16360 0.25510
 C115 C 0.21857 0.18897 0.28287
 C116 C 0.21748 0.23341 0.27847
 C117 C 0.18084 0.25139 0.24744
 C118 C 0.14570 0.22656 0.22709
 C119 C 0.25470 0.26093 0.30176
 C120 C 0.25029 0.30442 0.32040
 C121 C 0.28541 0.33052 0.33647
 C122 C 0.32470 0.31290 0.33802
 C123 C 0.32998 0.26990 0.32410
 C124 C 0.29520 0.24424 0.30482
 H125 H 0.12204 0.16337 0.20814
 H126 H 0.24550 0.17372 0.30718
 H127 H 0.17925 0.28468 0.23706
 H128 H 0.21995 0.31826 0.32284
 H129 H 0.35126 0.33276 0.35583
 H130 H 0.30057 0.21149 0.29157
 C131 C 0.82643 0.81767 0.13156
 C132 C 0.78779 0.83069 0.16233
 C133 C 0.76006 0.80073 0.19536
 C134 C 0.77014 0.75773 0.19589
 C135 C 0.80951 0.74578 0.16398
 C136 C 0.83834 0.77587 0.13531
 C137 C 0.73986 0.72551 0.22924
 C138 C 0.75424 0.68727 0.26024
 C139 C 0.72630 0.65648 0.28890
 C140 C 0.68364 0.66500 0.29293
 C141 C 0.66834 0.70328 0.26576
 C142 C 0.69647 0.73287 0.23223
 H143 H 0.84691 0.83982 0.10026
 H144 H 0.73084 0.81151 0.22061
 H145 H 0.81809 0.71322 0.16041
 H146 H 0.78720 0.68113 0.26348
 H147 H 0.66288 0.64266 0.32298
 H148 H 0.68399 0.76162 0.20921
 C149 C 0.82431 0.17354 0.20894
 C150 C 0.83650 0.21494 0.22772
 C151 C 0.80623 0.24462 0.24761
 C152 C 0.76336 0.23302 0.24528
 C153 C 0.75202 0.19160 0.21975
 C154 C 0.78212 0.16152 0.20434
 C155 C 0.73005 0.26335 0.26766
 C156 C 0.69100 0.24816 0.29694
 C157 C 0.65806 0.27517 0.31126
 C158 C 0.66494 0.31836 0.30265
 C159 C 0.70408 0.33466 0.28066
 C160 C 0.73644 0.30721 0.26099
 H161 H 0.84807 0.15153 0.19084
 H162 H 0.81644 0.27615 0.26505
 H163 H 0.71966 0.18240 0.21022
 H164 H 0.68582 0.21524 0.30952
 H165 H 0.64063 0.33994 0.31998
 H166 H 0.76603 0.32032 0.24049
 C167 C 0.18099 0.82063 0.17282
 C168 C 0.16642 0.77873 0.16766
 C169 C 0.19265 0.74695 0.19461
 C170 C 0.23229 0.75690 0.22968
 C171 C 0.24535 0.79953 0.23586
 C172 C 0.22023 0.83126 0.20670
 C173 C 0.26060 0.72325 0.25799
 C174 C 0.30433 0.72982 0.25560
 C175 C 0.33142 0.70036 0.28748
 C176 C 0.31464 0.66272 0.31849
 C177 C 0.27141 0.65441 0.31892
 C178 C 0.24450 0.68525 0.29066
 H179 H 0.16293 0.84509 0.14536
 H180 H 0.18234 0.71455 0.18655
 H181 H 0.27512 0.80856 0.26339
 H182 H 0.31783 0.75823 0.23009
 H183 H 0.33497 0.64091 0.34825
 H184 H 0.21118 0.67980 0.29598
 C185 C 0.67383 0.32346 0.67030
 C186 C 0.66110 0.28182 0.68376
 C187 C 0.69015 0.25375 0.71455
 C188 C 0.73089 0.26761 0.73859
 C189 C 0.74158 0.31061 0.72829
 C190 C 0.71392 0.33813 0.69209
 C191 C 0.76239 0.23761 0.77179
 C192 C 0.80530 0.24935 0.77732
 C193 C 0.83449 0.22271 0.81131
 C194 C 0.82142 0.18274 0.83637
 C195 C 0.77978 0.16908 0.82826
 C196 C 0.75021 0.19707 0.79940
 H197 H 0.65323 0.34377 0.63718
 H198 H 0.68047 0.22119 0.71777
 H199 H 0.77147 0.32374 0.74704
 H200 H 0.81714 0.27918 0.75601
 H201 H 0.84329 0.16293 0.86745
 H202 H 0.71796 0.18669 0.79988
 C203 C 0.33166 0.68711 0.65876
 C204 C 0.34414 0.72959 0.66197
 C205 C 0.31644 0.75929 0.69476
 C206 C 0.27744 0.74628 0.72831
 C207 C 0.26700 0.70290 0.72796
 C208 C 0.29349 0.67331 0.69210
 C209 C 0.24681 0.77727 0.76169
 C210 C 0.20354 0.76778 0.75630
 C211 C 0.17434 0.79405 0.79363
 C212 C 0.18848 0.83077 0.83527
 C213 C 0.23074 0.84303 0.83642
 C214 C 0.26005 0.81549 0.80148
 H215 H 0.35098 0.66501 0.62528
 H216 H 0.32507 0.79227 0.69264
 H217 H 0.23793 0.69169 0.75485
 H218 H 0.19216 0.73965 0.72389
 H219 H 0.16650 0.84894 0.87140
 H220 H 0.29292 0.82347 0.80724
 C221 C 0.31812 0.32408 0.69377
 C222 C 0.27965 0.33746 0.72481
 C223 C 0.25255 0.30817 0.76187
 C224 C 0.26265 0.26521 0.76545
 C225 C 0.30137 0.25268 0.73185
 C226 C 0.32978 0.28208 0.69894
 C227 C 0.23292 0.23378 0.80364
 C228 C 0.24725 0.19548 0.83535
 C229 C 0.21962 0.16669 0.87258
 C230 C 0.17802 0.17807 0.88517
 C231 C 0.16242 0.21497 0.85234
 C232 C 0.18985 0.24214 0.81031
 H233 H 0.33800 0.34595 0.66033
 H234 H 0.22368 0.31955 0.78766
 H235 H 0.30974 0.22005 0.72980
 H236 H 0.27987 0.18785 0.83288
 H237 H 0.15825 0.15885 0.92442
 H238 H 0.17710 0.26996 0.78375
 C239 C 0.68015 0.68275 0.62302
 C240 C 0.71822 0.66812 0.65195
 C241 C 0.74775 0.69700 0.68492
 C242 C 0.74027 0.74053 0.68647
 C243 C 0.70174 0.75432 0.65486
 C244 C 0.67105 0.72543 0.62673
 C245 C 0.77211 0.77123 0.72209
 C246 C 0.75949 0.81034 0.75541
 C247 C 0.78855 0.83915 0.78959
 C248 C 0.83017 0.82763 0.79674
 C249 C 0.84412 0.78920 0.76438
 C250 C 0.81501 0.76139 0.72607
 H251 H 0.65797 0.66126 0.59290
 H252 H 0.77643 0.68496 0.70927
 H253 H 0.69514 0.78733 0.65167
 H254 H 0.72699 0.81854 0.75695
 H255 H 0.85121 0.84792 0.83280
 H256 H 0.82622 0.73216 0.70023
 C257 C 0.22165 0.09733 0.22055
 C258 C 0.18652 0.11743 0.24058
 H259 H 0.25172 0.11260 0.23145
 H260 H 0.15686 0.10113 0.22983
 C261 C 0.70033 0.59298 0.62901
 C262 C 0.72937 0.62368 0.63787
 H263 H 0.66813 0.59882 0.64481
 H264 H 0.76171 0.61725 0.62395
 C265 C 0.80390 0.90570 0.14704
 C266 C 0.77500 0.87470 0.15103
 H267 H 0.83530 0.89976 0.16809
 H268 H 0.74300 0.88007 0.13317
 C269 C 0.29288 0.41290 0.70387
 C270 C 0.26560 0.38055 0.70781
 H271 H 0.32429 0.40900 0.72695
 H272 H 0.23405 0.38395 0.68514
 C273 C 0.89396 0.25320 0.16048
 C274 C 0.88108 0.22557 0.21746
 H275 H 0.87320 0.27707 0.13913
 H276 H 0.90261 0.20175 0.23623
 C277 C 0.41726 0.71680 0.62850
 C278 C 0.38457 0.74208 0.62291
 H279 H 0.41549 0.69104 0.67181
 H280 H 0.38547 0.76831 0.58079
 C281 C 0.09442 0.79520 0.12693
 C282 C 0.12588 0.76816 0.12576
 H283 H 0.09689 0.82326 0.16620
 H284 H 0.12333 0.73960 0.08791
 C285 C 0.58653 0.29283 0.65866
 C286 C 0.61892 0.26700 0.65621
 H287 H 0.59006 0.32322 0.68982
 H288 H 0.61569 0.23639 0.62578
 C289 C 0.79333 0.09476 0.84909
 C290 C 0.76722 0.12675 0.85774
 H291 H 0.82138 0.09892 0.81191
 H292 H 0.73885 0.12318 0.89409
 C293 C 0.27562 0.57963 0.35048
 C294 C 0.25498 0.61557 0.35860
 H295 H 0.30088 0.57796 0.30538
 H296 H 0.22949 0.61809 0.40290
 C297 C 0.21751 0.91510 0.88693
 C298 C 0.24359 0.88271 0.88159
 H299 H 0.18908 0.91410 0.85030
 H300 H 0.27250 0.88369 0.91670
 C301 C 0.74099 0.39779 0.33449
 C302 C 0.70999 0.38054 0.28855
 H303 H 0.76835 0.37988 0.34826
 H304 H 0.68273 0.39909 0.27708
 C305 C 0.08856 0.19950 0.88940
 C306 C 0.11871 0.22754 0.86927
 H307 H 0.09444 0.16631 0.88289
 H308 H 0.11249 0.26080 0.87252
 C309 C 0.59373 0.68606 0.29180
 C310 C 0.62448 0.71494 0.28365
 H311 H 0.59910 0.65383 0.27284
 H312 H 0.61887 0.74731 0.30134
 C313 C 0.91809 0.80586 0.79276
 C314 C 0.88782 0.77652 0.78060
 H315 H 0.91221 0.83772 0.77437
 H316 H 0.89304 0.74416 0.79629
 C317 C 0.40605 0.27395 0.32781
 C318 C 0.37099 0.25166 0.34166
 H319 H 0.40491 0.30061 0.28680
 H320 H 0.37147 0.22484 0.38229
 C321 C 0.80079 0.91338 0.82662
 C322 C 0.77507 0.87968 0.82617
 H323 H 0.82980 0.91232 0.79182
 H324 H 0.74579 0.88049 0.86008
 C325 C 0.25263 0.39540 0.39541
 C326 C 0.28392 0.37610 0.35596
 H327 H 0.22299 0.37933 0.40525
 H328 H 0.31307 0.39355 0.34816
 C329 C 0.20749 0.09310 0.90952
 C330 C 0.23435 0.12586 0.90392
 H331 H 0.17671 0.09568 0.88236
 H332 H 0.26566 0.12416 0.92887
 C333 C 0.72016 0.58095 0.31020
 C334 C 0.74170 0.61690 0.32297
 H335 H 0.69429 0.58032 0.26641
 H336 H 0.76763 0.61847 0.36651
 C337 C 0.10032 0.80997 0.80745
 C338 C 0.12966 0.78093 0.79913
 H339 H 0.10856 0.84220 0.79292
 H340 H 0.12231 0.74823 0.81095
 C341 C 0.58247 0.27821 0.32908
 C342 C 0.61804 0.25904 0.34523
 H343 H 0.58204 0.30230 0.28217
 H344 H 0.61882 0.23505 0.39236
 C345 C 0.90920 0.21270 0.83508
 C346 C 0.87714 0.23866 0.83223
 H347 H 0.90565 0.18150 0.80735
 H348 H 0.88023 0.26993 0.85980
 C349 C 0.40563 0.68322 0.30636
 C350 C 0.37615 0.71203 0.30028
 H351 H 0.39817 0.65079 0.28982
 H352 H 0.38383 0.74460 0.31543
 C353 C 0.21186 0.90731 0.21537
 C354 C 0.23675 0.87492 0.20082
 H355 H 0.18212 0.90136 0.24590
 H356 H 0.26658 0.87978 0.17013
 C357 C 0.70269 0.41182 0.65818
 C358 C 0.72893 0.38022 0.66580
 H359 H 0.67151 0.40881 0.68390
 H360 H 0.76029 0.38312 0.64084
 C361 C 0.79378 0.08634 0.18069
 C362 C 0.76941 0.11935 0.17192
 H363 H 0.82075 0.08866 0.22146
 H364 H 0.74246 0.11686 0.13096
 C365 C 0.30547 0.59762 0.66990
 C366 C 0.27880 0.62911 0.67923
 H367 H 0.33826 0.60308 0.68337
 H368 H 0.24585 0.62337 0.66755
 C369 C 0.91285 0.79037 0.11391
 C370 C 0.87997 0.76406 0.10294
 H371 H 0.90970 0.81771 0.15476
 H372 H 0.88239 0.73636 0.06293
 C373 C 0.40350 0.29421 0.66174
 C374 C 0.37001 0.26833 0.66266
 H375 H 0.40237 0.32434 0.69422
 H376 H 0.37106 0.23796 0.63105
 C377 C 0.07053 0.22870 0.20285
 C378 C 0.10848 0.24558 0.19031
 H379 H 0.06644 0.20499 0.25012
 H380 H 0.11323 0.26913 0.14296
 C381 C 0.59579 0.71592 0.61188
 C382 C 0.63014 0.73901 0.59533
 H383 H 0.59777 0.69114 0.65719
 H384 H 0.62934 0.76391 0.55020
   
