data_POSCAR
  _audit_creation_date              2014-09-24
  _audit_creation_method            'ToBaCCo'
  _symmetry_space_group_name_H-M    'P1'
  _symmetry_Int_Tables_number       1
  _symmetry_cell_setting            triclinic
  loop_
  _symmetry_equiv_pos_as_xyz
 x,y,z
_cell_length_a 28.2769
_cell_length_b 28.2991
_cell_length_c 28.1473
_cell_angle_alpha 91.346800
_cell_angle_beta 91.348900
_cell_angle_gamma 91.639400
loop_
  _atom_site_label
  _atom_site_type_symbol
  _atom_site_fract_x
  _atom_site_fract_y
  _atom_site_fract_z
C1 C 0.69945 0.70380 0.94322
 H2 H 0.73372 0.70541 0.92698
 C3 C 0.66139 0.72643 0.92189
 H4 H 0.66674 0.74618 0.88985
 C5 C 0.64902 0.67174 1.00119
 H6 H 0.64362 0.64874 1.03076
 C7 C 0.61013 0.69380 0.98101
 H8 H 0.57532 0.68803 0.99547
 N9 N 0.69241 0.67589 0.98134
 C10 C 0.82810 0.63740 1.04533
 H11 H 0.81687 0.60227 1.05527
 C12 C 0.87267 0.65494 1.06008
 H13 H 0.89570 0.63308 1.08098
 C14 C 0.81094 0.70960 1.00847
 H15 H 0.78664 0.73099 0.98887
 C16 C 0.85549 0.72870 1.02280
 H17 H 0.86523 0.76478 1.01437
 Zn18 Zn 0.73982 0.63351 1.00119
 N19 N 0.79837 0.66438 1.01949
 C20 C 0.78756 0.56026 0.95431
 N21 N 0.75122 0.59048 0.94991
 C22 C 0.72720 0.59433 0.90766
 C23 C 0.74256 0.57091 0.86683
 C24 C 0.80389 0.53606 0.91447
 C25 C 0.71605 0.62857 1.09563
 C26 C 0.69847 0.60918 1.13693
 C27 C 0.68673 0.53424 1.09445
 C28 C 0.70473 0.55515 1.05380
 N29 N 0.71829 0.60169 1.05510
 H30 H 0.80564 0.55673 0.98812
 H31 H 0.69752 0.61728 0.90483
 H32 H 0.72518 0.57659 0.83281
 H33 H 0.83472 0.51440 0.91783
 H34 H 0.72712 0.66548 1.09546
 H35 H 0.69588 0.63138 1.16864
 H36 H 0.67484 0.49746 1.09285
 H37 H 0.70684 0.53463 1.02106
 C38 C 0.88669 0.70085 1.04859
 C39 C 0.61611 0.72027 0.94023
 C40 C 0.68323 0.56171 1.13629
 C41 C 0.78225 0.54282 0.87009
 C42 C 0.71167 0.31413 0.54031
 H43 H 0.74611 0.31215 0.55760
 C44 C 0.67251 0.29068 0.55929
 H45 H 0.67688 0.27020 0.59106
 C46 C 0.66292 0.34629 0.48017
 H47 H 0.65883 0.36938 0.45047
 C48 C 0.62292 0.32345 0.49799
 H49 H 0.58845 0.32872 0.48166
 N50 N 0.70609 0.34193 0.50192
 C51 C 0.84383 0.37591 0.44255
 H52 H 0.84007 0.41381 0.44132
 C53 C 0.88419 0.35545 0.42481
 H54 H 0.91149 0.37756 0.40948
 C55 C 0.81242 0.30078 0.46349
 H56 H 0.78416 0.27977 0.47838
 C57 C 0.85240 0.27875 0.44593
 H58 H 0.85488 0.24067 0.44708
 Zn59 Zn 0.75716 0.38224 0.48467
 N60 N 0.80916 0.34862 0.46175
 C61 C 0.82217 0.41399 0.55625
 N62 N 0.77673 0.41768 0.54005
 C63 C 0.74437 0.44126 0.56594
 C64 C 0.75730 0.46171 0.61037
 C65 C 0.83650 0.43395 0.60008
 C66 C 0.73068 0.39746 0.39199
 C67 C 0.71116 0.42018 0.35318
 C68 C 0.70498 0.49082 0.40239
 C69 C 0.72503 0.46673 0.44049
 N70 N 0.73636 0.42054 0.43476
 H71 H 0.84715 0.39404 0.53621
 H72 H 0.70816 0.44267 0.55288
 H73 H 0.73124 0.47952 0.63134
 H74 H 0.87257 0.42993 0.61293
 H75 H 0.73984 0.36071 0.38858
 H76 H 0.70522 0.40086 0.31977
 H77 H 0.69418 0.52698 0.40744
 H78 H 0.72992 0.48432 0.47482
 C79 C 0.88863 0.30650 0.42659
 C80 C 0.62762 0.29620 0.53846
 C81 C 0.69744 0.46696 0.35857
 C82 C 0.80375 0.45742 0.62769
 C83 C 0.20884 -0.18731 0.03983
 H84 H 0.24345 -0.18962 0.05669
 C85 C 0.16972 -0.21051 0.05924
 H86 H 0.17431 -0.23116 0.09086
 C87 C 0.15964 -0.15460 -0.01959
 H88 H 0.15535 -0.13138 -0.04916
 C89 C 0.11970 -0.17717 -0.00135
 H90 H 0.08511 -0.17160 -0.01727
 N91 N 0.20303 -0.15935 0.00158
 C92 C 0.34010 -0.12464 -0.05925
 H93 H 0.33588 -0.08680 -0.06029
 C94 C 0.38054 -0.14453 -0.07744
 H95 H 0.40744 -0.12201 -0.09288
 C96 C 0.30984 -0.20018 -0.03820
 H97 H 0.28201 -0.22156 -0.02303
 C98 C 0.34995 -0.22166 -0.05625
 H99 H 0.35296 -0.25969 -0.05518
 Zn100 Zn 0.25397 -0.11904 -0.01625
 N101 N 0.30596 -0.15239 -0.03977
 C102 C 0.31965 -0.08729 0.05468
 N103 N 0.27410 -0.08342 0.03887
 C104 C 0.24216 -0.05941 0.06492
 C105 C 0.25569 -0.03860 0.10904
 C106 C 0.33457 -0.06699 0.09818
 C107 C 0.22655 -0.10424 -0.10871
 C108 C 0.20699 -0.08168 -0.14759
 C109 C 0.20164 -0.01058 -0.09877
 C110 C 0.22172 -0.03460 -0.06063
 N111 N 0.23267 -0.08091 -0.06613
 H112 H 0.34429 -0.10761 0.03457
 H113 H 0.20585 -0.05787 0.05221
 H114 H 0.22998 -0.02042 0.13013
 H115 H 0.37072 -0.07115 0.11069
 H116 H 0.23550 -0.14107 -0.11193
 H117 H 0.20090 -0.10137 -0.18081
 H118 H 0.19131 0.02576 -0.09372
 H119 H 0.22704 -0.01680 -0.02646
 C120 C 0.38565 -0.19339 -0.07588
 C121 C 0.12463 -0.20458 0.03897
 C122 C 0.19363 -0.03469 -0.14248
 C123 C 0.30230 -0.04298 0.12591
 C124 C 0.20282 0.20352 0.44307
 H125 H 0.23685 0.20475 0.42634
 C126 C 0.16463 0.22627 0.42210
 H127 H 0.16964 0.24566 0.38978
 C128 C 0.15302 0.17228 0.50200
 H129 H 0.14787 0.14954 0.53181
 C130 C 0.11405 0.19452 0.48225
 H131 H 0.07943 0.18909 0.49724
 N132 N 0.19610 0.17590 0.48146
 C133 C 0.33193 0.13711 0.54455
 H134 H 0.32086 0.10190 0.55441
 C135 C 0.37645 0.15480 0.55928
 H136 H 0.39961 0.13302 0.58011
 C137 C 0.31440 0.20932 0.50788
 H138 H 0.28997 0.23064 0.48837
 C139 C 0.35889 0.22858 0.52218
 H140 H 0.36845 0.26472 0.51381
 Zn141 Zn 0.24345 0.13326 0.50081
 N142 N 0.30204 0.16405 0.51886
 C143 C 0.29124 0.06069 0.45287
 N144 N 0.25445 0.09047 0.44923
 C145 C 0.22958 0.09410 0.40744
 C146 C 0.24442 0.07094 0.36625
 C147 C 0.30708 0.03674 0.41265
 C148 C 0.22037 0.12780 0.59547
 C149 C 0.20262 0.10826 0.63663
 C150 C 0.18980 0.03385 0.59358
 C151 C 0.20799 0.05483 0.55305
 N152 N 0.22213 0.10121 0.55469
 H153 H 0.31003 0.05733 0.48633
 H154 H 0.19954 0.11666 0.40526
 H155 H 0.22629 0.07642 0.33259
 H156 H 0.33821 0.01541 0.41538
 H157 H 0.23186 0.16460 0.59559
 H158 H 0.20024 0.13007 0.66860
 H159 H 0.17731 -0.00271 0.59190
 H160 H 0.20969 0.03454 0.52013
 C161 C 0.39022 0.20081 0.54790
 C162 C 0.11961 0.22057 0.44114
 C163 C 0.18674 0.06106 0.63557
 C164 C 0.28450 0.04329 0.36868
 C165 C 0.20553 0.44384 0.20114
 H166 H 0.20648 0.42767 0.23557
 C167 C 0.22924 0.42301 0.16335
 H168 H 0.24908 0.39135 0.16904
 C169 C 0.17409 0.50114 0.14999
 H170 H 0.15092 0.53022 0.14417
 C171 C 0.19726 0.48147 0.11136
 H172 H 0.19209 0.49578 0.07631
 N173 N 0.17736 0.48133 0.19355
 C174 C 0.13557 0.54409 0.32906
 H175 H 0.10017 0.55279 0.31775
 C176 C 0.15264 0.55965 0.37367
 H177 H 0.13017 0.57986 0.39671
 C178 C 0.20897 0.50987 0.31186
 H179 H 0.23102 0.49109 0.28746
 C180 C 0.22761 0.52503 0.35643
 H181 H 0.26398 0.51799 0.36614
 Zn182 Zn 0.13364 0.50012 0.24039
 N183 N 0.16339 0.51916 0.29931
 C184 C 0.06089 0.45135 0.28794
 N185 N 0.09137 0.44809 0.25138
 C186 C 0.09609 0.40645 0.22681
 C187 C 0.07338 0.36511 0.24185
 C188 C 0.03738 0.41097 0.30396
 C189 C 0.12754 0.59383 0.21643
 C190 C 0.10760 0.63461 0.19903
 C191 C 0.03334 0.59100 0.18678
 C192 C 0.05471 0.55085 0.20462
 N193 N 0.10119 0.55298 0.21838
 H194 H 0.05663 0.48468 0.30644
 H195 H 0.11917 0.40454 0.19691
 H196 H 0.07973 0.33163 0.22401
 H197 H 0.01550 0.41345 0.33497
 H198 H 0.16439 0.59436 0.22771
 H199 H 0.12918 0.66669 0.19662
 H200 H -0.00334 0.58900 0.17471
 H201 H 0.03460 0.51790 0.20655
 C202 C 0.19894 0.54992 0.38764
 C203 C 0.22391 0.44122 0.11780
 C204 C 0.06025 0.63311 0.18371
 C205 C 0.04506 0.36725 0.28177
 C206 C -0.18587 0.04124 0.21237
 H207 H -0.18774 0.05782 0.24728
 C208 C -0.20801 0.06168 0.17329
 H209 H -0.22748 0.09378 0.17834
 C210 C -0.15494 -0.01845 0.16241
 H211 H -0.13271 -0.04852 0.15784
 C212 C -0.17649 0.00080 0.12243
 H213 H -0.17115 -0.01496 0.08757
 N214 N -0.15921 0.00241 0.20617
 C215 C -0.12580 -0.05829 0.34392
 H216 H -0.08801 -0.06022 0.33944
 C217 C -0.14615 -0.07572 0.38478
 H218 H -0.12406 -0.09154 0.41169
 C219 C -0.20077 -0.03582 0.31389
 H220 H -0.22176 -0.02042 0.28599
 C221 C -0.22269 -0.05305 0.35442
 H222 H -0.26069 -0.05118 0.35763
 Zn223 Zn -0.11928 -0.01601 0.25706
 N224 N -0.15305 -0.03849 0.30968
 C225 C -0.08538 0.05443 0.32230
 N226 N -0.08250 0.03838 0.27653
 C227 C -0.05892 0.06395 0.24367
 C228 C -0.03775 0.10797 0.25637
 C229 C -0.06465 0.09785 0.33643
 C230 C -0.10607 -0.10826 0.22904
 C231 C -0.08388 -0.14707 0.20927
 C232 C -0.01197 -0.09926 0.20449
 C233 C -0.03557 -0.06115 0.22473
 N234 N -0.08210 -0.06617 0.23550
 H235 H -0.10533 0.03464 0.34769
 H236 H -0.05817 0.05102 0.20723
 H237 H -0.02005 0.12874 0.22989
 H238 H -0.06810 0.11063 0.37275
 H239 H -0.14305 -0.11112 0.23787
 H240 H -0.10383 -0.17995 0.20277
 H241 H 0.02452 -0.09477 0.19421
 H242 H -0.01724 -0.02737 0.23033
 C243 C -0.19496 -0.07301 0.39021
 C244 C -0.20238 0.04185 0.12775
 C245 C -0.03670 -0.14238 0.19616
 C246 C -0.04128 0.12520 0.30313
 C247 C 0.31234 0.54209 0.70887
 H248 H 0.31088 0.55877 0.74377
 C249 C 0.28829 0.56140 0.67031
 H250 H 0.26786 0.59282 0.67559
 C251 C 0.34388 0.48320 0.65835
 H252 H 0.36702 0.45391 0.65331
 C253 C 0.32042 0.50136 0.61892
 H254 H 0.32523 0.48568 0.58394
 N255 N 0.34013 0.50418 0.70211
 C256 C 0.37722 0.44479 0.83916
 H257 H 0.41504 0.44416 0.83437
 C258 C 0.35781 0.42645 0.88006
 H259 H 0.38067 0.41134 0.90677
 C260 C 0.30118 0.46463 0.80970
 H261 H 0.27940 0.47925 0.78193
 C262 C 0.28018 0.44645 0.85028
 H263 H 0.24213 0.44690 0.85374
 Zn264 Zn 0.38146 0.48688 0.75219
 N265 N 0.34898 0.46372 0.80521
 C266 C 0.41422 0.55818 0.81674
 N267 N 0.41744 0.54199 0.77106
 C268 C 0.44082 0.56772 0.73815
 C269 C 0.46155 0.61198 0.75078
 C270 C 0.43446 0.60181 0.83077
 C271 C 0.39540 0.39500 0.72431
 C272 C 0.41790 0.35607 0.70527
 C273 C 0.48958 0.40420 0.70016
 C274 C 0.46565 0.44246 0.71969
 N275 N 0.41911 0.43729 0.73034
 H276 H 0.39442 0.53828 0.84215
 H277 H 0.44186 0.55464 0.70177
 H278 H 0.47921 0.63282 0.72433
 H279 H 0.43082 0.61463 0.86706
 H280 H 0.35842 0.39202 0.73312
 H281 H 0.39820 0.32298 0.69924
 H282 H 0.52614 0.40871 0.69009
 H283 H 0.48377 0.47638 0.72502
 C284 C 0.30893 0.42735 0.88577
 C285 C 0.29322 0.54139 0.62480
 C286 C 0.46515 0.36082 0.69243
 C287 C 0.45775 0.62926 0.79750
 C288 C 0.70010 0.94219 0.70661
 H289 H 0.69832 0.92502 0.74048
 C290 C 0.72109 0.91940 0.66816
 H291 H 0.73606 0.88494 0.67267
 C292 C 0.67873 1.00569 0.65777
 H293 H 0.66050 1.03827 0.65303
 C294 C 0.69939 0.98422 0.61857
 H295 H 0.69734 1.00068 0.58424
 N296 N 0.67852 0.98408 0.70053
 C297 C 0.64650 1.05807 0.83289
 H298 H 0.61200 1.06932 0.82118
 C299 C 0.66452 1.07300 0.87732
 H300 H 0.64422 1.09661 0.89924
 C301 C 0.71431 1.01271 0.81901
 H302 H 0.73317 0.98880 0.79629
 C303 C 0.73386 1.02702 0.86351
 H304 H 0.76819 1.01464 0.87468
 Zn305 Zn 0.63828 1.00697 0.74849
 N306 N 0.67117 1.02822 0.80485
 C307 C 0.58900 0.94918 0.81117
 N308 N 0.59649 0.95651 0.76432
 C309 C 0.58004 0.92485 0.73016
 C310 C 0.55660 0.88289 0.74301
 C311 C 0.56561 0.90821 0.82538
 C312 C 0.63165 1.09971 0.72071
 C313 C 0.61135 1.13962 0.70181
 C314 C 0.53693 1.09564 0.69293
 C315 C 0.55869 1.05637 0.71222
 N316 N 0.60544 1.05901 0.72491
 H317 H 0.60268 0.97411 0.83795
 H318 H 0.58710 0.93111 0.69319
 H319 H 0.54512 0.85696 0.71594
 H320 H 0.56121 0.90221 0.86294
 H321 H 0.66871 1.10072 0.73125
 H322 H 0.63282 1.17150 0.69755
 H323 H 0.50004 1.09316 0.68166
 H324 H 0.53864 1.02363 0.71612
 C325 C 0.70836 1.05712 0.89305
 C326 C 0.71969 0.94016 0.62349
 C327 C 0.56374 1.13746 0.68735
 C328 C 0.55018 0.87431 0.79123
 C329 C 0.04264 0.21034 -0.18473
 H330 H 0.05960 0.24494 -0.18704
 C331 C 0.06172 0.17139 -0.20807
 H332 H 0.09322 0.17609 -0.22884
 C333 C -0.01673 0.16102 -0.15174
 H334 H -0.04614 0.15665 -0.12833
 C335 C 0.00120 0.12123 -0.17447
 H336 H -0.01480 0.08663 -0.16885
 N337 N 0.00459 0.20439 -0.15655
 C338 C -0.05411 0.34158 -0.12172
 H339 H -0.05464 0.33758 -0.08360
 C340 C -0.07232 0.38186 -0.14191
 H341 H -0.08724 0.40888 -0.11935
 C342 C -0.03463 0.31074 -0.19768
 H343 H -0.02018 0.28270 -0.21912
 C344 C -0.05270 0.35067 -0.21946
 H345 H -0.05234 0.35335 -0.25778
 Zn346 Zn -0.01235 0.25516 -0.11599
 N347 N -0.03543 0.30723 -0.14955
 C348 C 0.05939 0.32006 -0.08481
 N349 N 0.04301 0.27468 -0.08074
 C350 C 0.06870 0.24232 -0.05698
 C351 C 0.11308 0.25521 -0.03668
 C352 C 0.10317 0.33434 -0.06500
 C353 C -0.10442 0.22832 -0.10036
 C354 C -0.14325 0.20929 -0.07728
 C355 C -0.09436 0.20374 -0.00599
 C356 C -0.05626 0.22333 -0.03055
 N357 N -0.06185 0.23413 -0.07719
 H358 H 0.03951 0.34500 -0.10496
 H359 H 0.05550 0.20616 -0.05532
 H360 H 0.13387 0.22917 -0.01871
 H361 H 0.11615 0.37036 -0.06930
 H362 H -0.10770 0.23715 -0.13746
 H363 H -0.17649 0.20342 -0.09685
 H364 H -0.08929 0.19347 0.03060
 H365 H -0.02209 0.22841 -0.01289
 C366 C -0.07157 0.38656 -0.19115
 C367 C 0.04135 0.12631 -0.20206
 C368 C -0.13810 0.19610 -0.02992
 C369 C 0.13055 0.30161 -0.04129
 C370 C 0.44586 0.20122 0.20564
 H371 H 0.42952 0.23528 0.20721
 C372 C 0.42438 0.16267 0.22773
 H373 H 0.39210 0.16744 0.24704
 C374 C 0.50426 0.15176 0.17396
 H375 H 0.53402 0.14689 0.15122
 C376 C 0.48399 0.11244 0.19554
 H377 H 0.49862 0.07787 0.18969
 N378 N 0.48423 0.19486 0.17807
 C379 C 0.54759 0.33097 0.13908
 H380 H 0.55775 0.31964 0.10394
 C381 C 0.56212 0.37566 0.15633
 H382 H 0.58311 0.39864 0.13429
 C383 C 0.51021 0.31404 0.21149
 H384 H 0.49042 0.28979 0.23302
 C385 C 0.52433 0.35873 0.23033
 H386 H 0.51559 0.36864 0.26641
 Zn387 Zn 0.50392 0.24263 0.13549
 N388 N 0.52164 0.30129 0.16629
 C389 C 0.45669 0.29049 0.06212
 N390 N 0.45293 0.25349 0.09198
 C391 C 0.41129 0.22844 0.09542
 C392 C 0.37036 0.24330 0.07209
 C393 C 0.41672 0.30635 0.03800
 C394 C 0.59809 0.21994 0.13146
 C395 C 0.63951 0.20291 0.11243
 C396 C 0.59810 0.19102 0.03674
 C397 C 0.55727 0.20845 0.05724
 N398 N 0.55799 0.22183 0.10400
 H399 H 0.49001 0.30945 0.05893
 H400 H 0.40899 0.19826 0.11804
 H401 H 0.33680 0.22501 0.07749
 H402 H 0.41953 0.33763 0.01665
 H403 H 0.59748 0.23082 0.16854
 H404 H 0.67094 0.20045 0.13490
 H405 H 0.59718 0.17916 -0.00016
 H406 H 0.52488 0.21026 0.03625
 C407 C 0.55032 0.38984 0.20223
 C408 C 0.44290 0.11766 0.22146
 C409 C 0.63943 0.18792 0.06481
 C410 C 0.37290 0.28358 0.04444
 C411 C 0.94355 0.70169 0.70840
 H412 H 0.92715 0.73569 0.71063
 C413 C 0.92303 0.66306 0.73116
 H414 H 0.89142 0.66768 0.75158
 C415 C 1.00097 0.65248 0.67456
 H416 H 1.02995 0.64773 0.65079
 C417 C 0.98164 0.61307 0.69675
 H418 H 0.99615 0.57855 0.69024
 N419 N 0.98089 0.69547 0.67941
 C420 C 1.04200 0.83214 0.63893
 H421 H 1.05066 0.82144 0.60316
 C422 C 1.05728 0.87652 0.65646
 H423 H 1.07725 0.89995 0.63397
 C424 C 1.00821 0.81370 0.71275
 H425 H 0.98967 0.78893 0.73477
 C426 C 1.02310 0.85804 0.73186
 H427 H 1.01612 0.86719 0.76856
 Zn428 Zn 0.99903 0.74325 0.63623
 N429 N 1.01750 0.80183 0.66677
 C430 C 0.95023 0.78982 0.56300
 N431 N 0.94683 0.75391 0.59415
 C432 C 0.90506 0.72951 0.59941
 C433 C 0.86377 0.74409 0.57657
 C434 C 0.90989 0.80532 0.53923
 C435 C 1.09309 0.72101 0.62897
 C436 C 1.13369 0.70347 0.60868
 C437 C 1.08949 0.69027 0.53471
 C438 C 1.04954 0.70824 0.55644
 N439 N 1.05202 0.72249 0.60296
 H440 H 0.98367 0.80815 0.55827
 H441 H 0.90301 0.70010 0.62299
 H442 H 0.83020 0.72644 0.58341
 H443 H 0.91251 0.83577 0.51671
 H444 H 1.09386 0.73249 0.66591
 H445 H 1.16589 0.70127 0.63005
 H446 H 1.08716 0.67767 0.49807
 H447 H 1.01638 0.70963 0.53665
 C448 C 1.04771 0.88974 0.70323
 C449 C 0.94146 0.61812 0.72408
 C450 C 1.13176 0.68751 0.56133
 C451 C 0.86606 0.78332 0.54746
 C452 C 0.54074 0.71150 0.31214
 H453 H 0.55760 0.74617 0.31008
 C454 C 0.56042 0.67261 0.28922
 H455 H 0.59227 0.67743 0.26902
 C456 C 0.48098 0.66192 0.34409
 H457 H 0.45117 0.65740 0.36696
 C458 C 0.49949 0.62220 0.32177
 H459 H 0.48352 0.58753 0.32714
 N460 N 0.50219 0.70539 0.33961
 C461 C 0.44253 0.84232 0.37406
 H462 H 0.44115 0.83784 0.41207
 C463 C 0.42480 0.88288 0.35401
 H464 H 0.40940 0.90956 0.37667
 C465 C 0.46377 0.81248 0.29825
 H466 H 0.47876 0.78472 0.27685
 C467 C 0.44619 0.85269 0.27656
 H468 H 0.44749 0.85577 0.23831
 Zn469 Zn 0.48420 0.75602 0.37992
 N470 N 0.46183 0.80833 0.34626
 C471 C 0.55507 0.82092 0.41328
 N472 N 0.53861 0.77549 0.41670
 C473 C 0.56354 0.74312 0.44123
 C474 C 0.60722 0.75605 0.46307
 C475 C 0.59816 0.83525 0.43461
 C476 C 0.39184 0.72821 0.39325
 C477 C 0.35259 0.70914 0.41565
 C478 C 0.39971 0.70522 0.48820
 C479 C 0.43830 0.72475 0.46437
 N480 N 0.43381 0.73477 0.41743
 H481 H 0.53583 0.84589 0.39255
 H482 H 0.55030 0.70693 0.44242
 H483 H 0.62744 0.73000 0.48166
 H484 H 0.61125 0.87131 0.43081
 H485 H 0.38940 0.73650 0.35596
 H486 H 0.31980 0.70259 0.39557
 H487 H 0.40373 0.69557 0.52506
 H488 H 0.47196 0.73048 0.48287
 C489 C 0.42665 0.88824 0.30487
 C490 C 0.54013 0.62744 0.29493
 C491 C 0.35670 0.69686 0.46328
 C492 C 0.62477 0.80251 0.45917
 C493 C 0.36074 0.00147 0.25422
 C494 C 0.11544 1.01241 0.75080
 C495 C 0.61560 0.51418 0.24854
 C496 C 0.86041 0.50131 0.75691
 C497 C 0.25891 0.35939 0.00232
 C498 C 0.75472 0.11815 1.01645
 C499 C 0.24573 0.61677 0.51136
 C500 C 0.75238 0.85969 0.50602
 C501 C 0.00364 0.25375 0.35945
 C502 C 1.01065 0.74810 0.11412
 C503 C 0.51351 0.24961 0.61361
 C504 C 0.50201 0.75628 0.85718
 C505 C 0.40712 -0.07310 0.28528
 C506 C 0.38768 -0.03894 0.27019
 C507 C 0.90741 0.42719 0.78814
 C508 C 0.88760 0.46114 0.77308
 C509 C 0.06450 1.08512 0.78005
 C510 C 0.08605 1.05139 0.76647
 C511 C 0.56373 0.58635 0.27743
 C512 C 0.58566 0.55278 0.26409
 C513 C 0.56857 0.43480 0.22065
 C514 C 0.58756 0.47166 0.23396
 C515 C 0.06701 0.93417 0.72196
 C516 C 0.08673 0.97052 0.73565
 C517 C 0.91544 0.57669 0.73863
 C518 C 0.89177 0.54215 0.74801
 C519 C 0.41637 0.07637 0.23565
 C520 C 0.39239 0.04203 0.24499
 C521 C 0.28900 0.40632 -0.07292
 C522 C 0.27453 0.38652 -0.03845
 C523 C 0.78406 0.90670 0.43143
 C524 C 0.76876 0.88715 0.46573
 C525 C 0.78200 0.06499 1.08874
 C526 C 0.76939 0.08750 1.05507
 C527 C 0.27489 0.56496 0.58385
 C528 C 0.26119 0.58690 0.55024
 C529 C 0.21719 0.56914 0.43239
 C530 C 0.23065 0.58860 0.46905
 C531 C 0.72611 0.07320 0.93603
 C532 C 0.73978 0.09102 0.97342
 C533 C 0.73367 0.91397 0.58189
 C534 C 0.74306 0.89059 0.54712
 C535 C 0.23944 0.41486 0.07700
 C536 C 0.24951 0.39094 0.04286
 C537 C -0.07064 0.28544 0.40611
 C538 C -0.03661 0.27008 0.38658
 C539 C 0.42668 0.78627 0.90343
 C540 C 0.46109 0.77168 0.88393
 C541 C 1.08329 0.77753 0.06234
 C542 C 1.04948 0.76391 0.08415
 C543 C 0.58620 0.27832 0.56163
 C544 C 0.55238 0.26486 0.58348
 C545 C 0.43488 0.21978 0.56640
 C546 C 0.47143 0.23383 0.58551
 C547 C 0.93154 0.71955 0.06693
 C548 C 0.96830 0.73318 0.08596
 C549 C 0.57532 0.73539 0.91373
 C550 C 0.54157 0.74570 0.88948
 C551 C 0.07848 0.23526 0.41491
 C552 C 0.04420 0.24478 0.39106
 C553 C 0.54401 0.17713 0.66375
 C554 C 0.52944 0.21026 0.64221
 C555 C 1.04089 0.67386 0.16171
 C556 C 1.02650 0.70784 0.14143
 C557 C 0.98388 0.81942 0.17003
 C558 C 0.99771 0.78706 0.14597
 C559 C 0.48613 0.32221 0.66738
 C560 C 0.50022 0.28932 0.64428
 C561 C 0.47556 0.67549 0.81237
 C562 C 0.48842 0.71314 0.82986
 C563 C -0.02339 0.17150 0.31771
 C564 C -0.01038 0.20953 0.33419
 C565 C 0.02902 0.32476 0.30411
 C566 C 0.01711 0.29108 0.32686
 C567 C 0.53111 0.83011 0.80754
 C568 C 0.51710 0.79504 0.82694
 C569 C 0.66299 0.54445 0.17363
 C570 C 0.64276 0.53005 0.20791
 C571 C 0.16407 1.04218 0.67650
 C572 C 0.14326 1.02808 0.71053
 C573 C 0.17010 0.98440 0.82276
 C574 C 0.14658 0.99888 0.79019
 C575 C 0.67135 0.48777 0.32033
 C576 C 0.64735 0.50155 0.28781
 C577 C 0.81858 0.47484 0.67425
 C578 C 0.83519 0.48754 0.71245
 C579 C 0.31777 -0.02515 0.17214
 C580 C 0.33491 -0.01224 0.21006
 C581 C 0.30649 0.02687 0.32609
 C582 C 0.32881 0.01481 0.29214
 C583 C 0.80500 0.52631 0.82796
 C584 C 0.82791 0.51434 0.79441
 C585 C 0.17214 0.66501 0.54182
 C586 C 0.20580 0.64435 0.52733
 C587 C 0.68062 0.16603 1.04631
 C588 C 0.71470 0.14570 1.03232
 C589 C 0.82713 0.17281 0.98951
 C590 C 0.79442 0.14938 1.00390
 C591 C 0.31797 0.67151 0.48415
 C592 C 0.28516 0.64803 0.49816
 C593 C 0.67067 0.81738 0.47798
 C594 C 0.70840 0.83414 0.49161
 C595 C 0.17695 0.31649 -0.02388
 C596 C 0.21493 0.33341 -0.01124
 C597 C 0.33055 0.30554 0.02793
 C598 C 0.29675 0.32774 0.01581
 C599 C 0.82359 0.80522 0.53124
 C600 C 0.78987 0.82757 0.51929
   
