data_POSCAR
  _audit_creation_date              2014-09-24
  _audit_creation_method            'ToBaCCo'
  _symmetry_space_group_name_H-M    'P1'
  _symmetry_Int_Tables_number       1
  _symmetry_cell_setting            triclinic
  loop_
  _symmetry_equiv_pos_as_xyz
 x,y,z
_cell_length_a 35.6894
_cell_length_b 35.6894
_cell_length_c 35.6894
_cell_angle_alpha 90.001700
_cell_angle_beta 89.991700
_cell_angle_gamma 89.999300
loop_
  _atom_site_label
  _atom_site_type_symbol
  _atom_site_fract_x
  _atom_site_fract_y
  _atom_site_fract_z
Zn1 Zn 0.77964 0.72052 0.77957
 Zn2 Zn 0.77965 0.77967 0.72042
 Zn3 Zn 0.72050 0.72052 0.72043
 Zn4 Zn 0.72049 0.77967 0.77958
 O5 O 0.75007 0.75009 0.75000
 O6 O 0.82865 0.72820 0.77189
 O7 O 0.77197 0.77199 0.67140
 O8 O 0.72817 0.67151 0.72810
 O9 O 0.82865 0.77199 0.72809
 O10 O 0.77197 0.67151 0.77189
 O11 O 0.72817 0.72819 0.67142
 O12 O 0.67148 0.77200 0.77190
 O13 O 0.77197 0.82868 0.72810
 O14 O 0.67149 0.72819 0.72811
 O15 O 0.72817 0.82868 0.77191
 O16 O 0.72815 0.77198 0.82859
 O17 O 0.77195 0.72819 0.82858
 C18 C 0.84616 0.75009 0.74999
 C19 C 0.75007 0.75009 0.65391
 C20 C 0.75007 0.65400 0.74999
 C21 C 0.65398 0.75009 0.75000
 C22 C 0.75007 0.84619 0.75001
 C23 C 0.75005 0.75008 0.84609
 Zn24 Zn 0.22051 0.72048 0.72040
 Zn25 Zn 0.22050 0.77971 0.77960
 Zn26 Zn 0.27964 0.72050 0.77961
 Zn27 Zn 0.27964 0.77970 0.72037
 O28 O 0.25007 0.75010 0.75000
 O29 O 0.17147 0.72813 0.72806
 O30 O 0.22819 0.77203 0.82861
 O31 O 0.27195 0.67149 0.77194
 O32 O 0.17147 0.77207 0.77196
 O33 O 0.22821 0.67148 0.72809
 O34 O 0.27194 0.72819 0.82861
 O35 O 0.32867 0.77204 0.72801
 O36 O 0.22821 0.82871 0.77191
 O37 O 0.32867 0.72814 0.77195
 O38 O 0.27195 0.82870 0.72805
 O39 O 0.27193 0.77200 0.67138
 O40 O 0.22820 0.72814 0.67140
 C41 C 0.15424 0.75010 0.75001
 C42 C 0.25006 0.75011 0.84611
 C43 C 0.25008 0.65398 0.75002
 C44 C 0.34590 0.75009 0.74998
 C45 C 0.25008 0.84621 0.74998
 C46 C 0.25006 0.75007 0.65388
 Zn47 Zn 0.72045 0.22053 0.77961
 Zn48 Zn 0.77969 0.22053 0.72040
 Zn49 Zn 0.72046 0.27966 0.72040
 Zn50 Zn 0.77967 0.27967 0.77962
 O51 O 0.75007 0.25010 0.75001
 O52 O 0.72810 0.17150 0.77196
 O53 O 0.77201 0.22822 0.67140
 O54 O 0.67146 0.27197 0.72808
 O55 O 0.77204 0.17150 0.72805
 O56 O 0.67146 0.22823 0.77193
 O57 O 0.72815 0.27196 0.67140
 O58 O 0.77202 0.32870 0.77197
 O59 O 0.82868 0.22824 0.72808
 O60 O 0.72812 0.32869 0.72804
 O61 O 0.82867 0.27198 0.77194
 O62 O 0.77198 0.27197 0.82863
 O63 O 0.72813 0.22822 0.82861
 C64 C 0.75007 0.15427 0.75000
 C65 C 0.75007 0.25008 0.65389
 C66 C 0.65395 0.25010 0.75001
 C67 C 0.75006 0.34593 0.75001
 C68 C 0.84618 0.25011 0.75001
 C69 C 0.75005 0.25009 0.84612
 Zn70 Zn 0.27967 0.22050 0.72036
 Zn71 Zn 0.22046 0.22049 0.77964
 Zn72 Zn 0.27967 0.27968 0.77966
 Zn73 Zn 0.22048 0.27971 0.72037
 O74 O 0.25007 0.25010 0.75001
 O75 O 0.27200 0.17148 0.72800
 O76 O 0.22815 0.22818 0.82863
 O77 O 0.32869 0.27201 0.77200
 O78 O 0.22813 0.17147 0.77197
 O79 O 0.32869 0.22817 0.72801
 O80 O 0.27196 0.27197 0.82865
 O81 O 0.22816 0.32873 0.72803
 O82 O 0.17144 0.22817 0.77198
 O83 O 0.27201 0.32871 0.77202
 O84 O 0.17145 0.27205 0.72803
 O85 O 0.22817 0.27201 0.67138
 O86 O 0.27197 0.22820 0.67137
 C87 C 0.25006 0.15425 0.74998
 C88 C 0.25005 0.25007 0.84614
 C89 C 0.34592 0.25009 0.75000
 C90 C 0.25009 0.34594 0.75003
 C91 C 0.15422 0.25011 0.75001
 C92 C 0.25007 0.25010 0.65387
 Zn93 Zn 0.72034 0.72037 0.22043
 Zn94 Zn 0.77955 0.77958 0.22044
 Zn95 Zn 0.72033 0.77957 0.27957
 Zn96 Zn 0.77954 0.72035 0.27956
 O97 O 0.74994 0.74997 0.25000
 O98 O 0.72799 0.72803 0.17140
 O99 O 0.77188 0.82858 0.22815
 O100 O 0.67132 0.77190 0.27187
 O101 O 0.77190 0.77195 0.17140
 O102 O 0.67134 0.72804 0.22813
 O103 O 0.72802 0.82857 0.27189
 O104 O 0.77189 0.72799 0.32859
 O105 O 0.82855 0.77190 0.22813
 O106 O 0.72797 0.77191 0.32860
 O107 O 0.82854 0.72804 0.27187
 O108 O 0.77187 0.67135 0.27184
 O109 O 0.72802 0.67136 0.22811
 C110 C 0.74994 0.74999 0.15417
 C111 C 0.74995 0.84608 0.25003
 C112 C 0.65382 0.74997 0.25000
 C113 C 0.74993 0.74995 0.34583
 C114 C 0.84605 0.74997 0.25000
 C115 C 0.74995 0.65385 0.24997
 Zn116 Zn 0.27953 0.77959 0.22039
 Zn117 Zn 0.22033 0.72031 0.22041
 Zn118 Zn 0.27954 0.72031 0.27959
 Zn119 Zn 0.22034 0.77959 0.27961
 O120 O 0.24994 0.74995 0.25000
 O121 O 0.27186 0.77193 0.17137
 O122 O 0.22802 0.67131 0.22812
 O123 O 0.32856 0.72795 0.27189
 O124 O 0.22800 0.72795 0.17138
 O125 O 0.32856 0.77194 0.22804
 O126 O 0.27183 0.67131 0.27190
 O127 O 0.22802 0.77194 0.32863
 O128 O 0.17131 0.72797 0.22809
 O129 O 0.27189 0.72797 0.32861
 O130 O 0.17132 0.77193 0.27196
 O131 O 0.22803 0.82858 0.27190
 O132 O 0.27182 0.82858 0.22809
 C133 C 0.24992 0.74994 0.15415
 C134 C 0.24992 0.65381 0.25002
 C135 C 0.34579 0.74994 0.24996
 C136 C 0.24996 0.74996 0.34585
 C137 C 0.15409 0.74995 0.25003
 C138 C 0.24992 0.84609 0.24999
 Zn139 Zn 0.72028 0.27956 0.22042
 Zn140 Zn 0.77956 0.22036 0.22040
 Zn141 Zn 0.77956 0.27957 0.27960
 Zn142 Zn 0.72028 0.22036 0.27962
 O143 O 0.74992 0.24996 0.25001
 O144 O 0.72793 0.27190 0.17139
 O145 O 0.82855 0.22805 0.22811
 O146 O 0.77191 0.32859 0.27193
 O147 O 0.77191 0.22804 0.17138
 O148 O 0.72793 0.32858 0.22809
 O149 O 0.82856 0.27185 0.27190
 O150 O 0.72794 0.22804 0.32864
 O151 O 0.77190 0.17134 0.22807
 O152 O 0.77191 0.27191 0.32863
 O153 O 0.72794 0.17134 0.27195
 O154 O 0.67129 0.22805 0.27192
 O155 O 0.67128 0.27185 0.22812
 C156 C 0.74993 0.24997 0.15416
 C157 C 0.84606 0.24995 0.25001
 C158 C 0.74992 0.34581 0.25000
 C159 C 0.74992 0.24997 0.34586
 C160 C 0.74992 0.15412 0.25001
 C161 C 0.65378 0.24995 0.25002
 Zn162 Zn 0.22028 0.27958 0.22038
 Zn163 Zn 0.27955 0.22031 0.22037
 Zn164 Zn 0.27956 0.27958 0.27963
 Zn165 Zn 0.22029 0.22032 0.27965
 O166 O 0.24992 0.24995 0.25001
 O167 O 0.22796 0.27191 0.17137
 O168 O 0.32856 0.22798 0.22804
 O169 O 0.27188 0.32860 0.27196
 O170 O 0.27188 0.22799 0.17136
 O171 O 0.22795 0.32859 0.22806
 O172 O 0.32857 0.27190 0.27195
 O173 O 0.22796 0.22800 0.32866
 O174 O 0.27186 0.17130 0.22803
 O175 O 0.27188 0.27191 0.32865
 O176 O 0.22795 0.17130 0.27197
 O177 O 0.17127 0.22799 0.27198
 O178 O 0.17127 0.27190 0.22806
 C179 C 0.24992 0.24995 0.15414
 C180 C 0.34579 0.24993 0.24999
 C181 C 0.24991 0.34582 0.25001
 C182 C 0.24992 0.24996 0.34588
 C183 C 0.24990 0.15408 0.25000
 C184 C 0.15405 0.24994 0.25002
 C185 C -0.05307 0.77410 0.72603
 C186 C -0.03341 0.75009 0.74999
 C187 C -0.05308 0.72607 0.77394
 C188 C -0.09226 0.72605 0.77397
 C189 C -0.11231 0.75009 0.74999
 C190 C -0.09225 0.77413 0.72600
 C191 C 0.00693 0.75008 0.74998
 C192 C 0.04071 0.75007 0.75000
 C193 C 0.08026 0.75007 0.75001
 C194 C 0.11404 0.75009 0.75001
 H195 H -0.03812 0.79281 0.70737
 H196 H -0.03813 0.70737 0.79260
 H197 H -0.10681 0.70720 0.79278
 H198 H -0.10679 0.79299 0.70719
 C199 C 0.72605 -0.05305 0.77396
 C200 C 0.75005 -0.03338 0.75000
 C201 C 0.77407 -0.05304 0.72604
 C202 C 0.77411 -0.09223 0.72602
 C203 C 0.75007 -0.11229 0.75001
 C204 C 0.72602 -0.09223 0.77400
 C205 C 0.75004 0.00696 0.74998
 C206 C 0.75003 0.04074 0.74998
 C207 C 0.75006 0.08029 0.74998
 C208 C 0.75006 0.11406 0.75000
 H209 H 0.70733 -0.03810 0.79262
 H210 H 0.79278 -0.03810 0.70738
 H211 H 0.79297 -0.10677 0.70721
 H212 H 0.70717 -0.10678 0.79281
 C213 C 0.77399 0.72605 -0.05315
 C214 C 0.74999 0.75002 -0.03348
 C215 C 0.72601 0.77401 -0.05314
 C216 C 0.72600 0.77406 -0.09232
 C217 C 0.75003 0.75006 -0.11238
 C218 C 0.77404 0.72604 -0.09233
 C219 C 0.74996 0.75000 0.00686
 C220 C 0.74995 0.74999 0.04064
 C221 C 0.74994 0.75000 0.08019
 C222 C 0.74993 0.75001 0.11397
 H223 H 0.79267 0.70736 -0.03820
 H224 H 0.70731 0.79268 -0.03819
 H225 H 0.70717 0.79289 -0.10686
 H226 H 0.79288 0.70723 -0.10688
 C227 C 0.55320 0.77406 0.77398
 C228 C 0.53354 0.75008 0.74999
 C229 C 0.55322 0.72610 0.72601
 C230 C 0.59240 0.72607 0.72598
 C231 C 0.61245 0.75009 0.75000
 C232 C 0.59238 0.77410 0.77402
 C233 C 0.49321 0.75007 0.74999
 C234 C 0.45943 0.75005 0.74998
 C235 C 0.41988 0.75006 0.74997
 C236 C 0.38610 0.75008 0.74997
 H237 H 0.53824 0.79274 0.79267
 H238 H 0.53828 0.70741 0.70732
 H239 H 0.60696 0.70725 0.70715
 H240 H 0.60692 0.79293 0.79285
 C241 C 0.22614 -0.05303 0.77399
 C242 C 0.25008 -0.03337 0.74996
 C243 C 0.27403 -0.05304 0.72594
 C244 C 0.27407 -0.09221 0.72592
 C245 C 0.25009 -0.11227 0.74998
 C246 C 0.22611 -0.09220 0.77404
 C247 C 0.25006 0.00696 0.74994
 C248 C 0.25005 0.04073 0.74993
 C249 C 0.25006 0.08028 0.74995
 C250 C 0.25005 0.11405 0.74996
 H251 H 0.20748 -0.03807 0.79270
 H252 H 0.29269 -0.03809 0.70722
 H253 H 0.29287 -0.10677 0.70706
 H254 H 0.20731 -0.10675 0.79290
 C255 C 0.27394 0.72602 -0.05313
 C256 C 0.24999 0.75005 -0.03347
 C257 C 0.22608 0.77411 -0.05313
 C258 C 0.22608 0.77417 -0.09230
 C259 C 0.25005 0.75010 -0.11237
 C260 C 0.27399 0.72601 -0.09231
 C261 C 0.24996 0.75001 0.00686
 C262 C 0.24993 0.74998 0.04064
 C263 C 0.24991 0.74996 0.08018
 C264 C 0.24992 0.74994 0.11395
 H265 H 0.29256 0.70728 -0.03819
 H266 H 0.20743 0.79283 -0.03817
 H267 H 0.20731 0.79305 -0.10685
 H268 H 0.29278 0.70714 -0.10686
 C269 C -0.05306 0.27407 0.77403
 C270 C -0.03340 0.25013 0.75000
 C271 C -0.05305 0.22618 0.72598
 C272 C -0.09223 0.22614 0.72595
 C273 C -0.11230 0.25012 0.75001
 C274 C -0.09224 0.27410 0.77406
 C275 C 0.00693 0.25012 0.75001
 C276 C 0.04071 0.25013 0.75000
 C277 C 0.08025 0.25012 0.75001
 C278 C 0.11402 0.25011 0.75001
 H279 H -0.03812 0.29273 0.79274
 H280 H -0.03810 0.20752 0.70727
 H281 H -0.10678 0.20734 0.70709
 H282 H -0.10679 0.29290 0.79292
 C283 C 0.77404 0.55323 0.77396
 C284 C 0.75005 0.53357 0.74998
 C285 C 0.72607 0.55324 0.72600
 C286 C 0.72605 0.59242 0.72597
 C287 C 0.75006 0.61248 0.74999
 C288 C 0.77408 0.59241 0.77400
 C289 C 0.75004 0.49323 0.74997
 C290 C 0.75005 0.45946 0.74997
 C291 C 0.75005 0.41990 0.74999
 C292 C 0.75006 0.38613 0.75000
 H293 H 0.79272 0.53827 0.79265
 H294 H 0.70739 0.53830 0.70731
 H295 H 0.70722 0.60698 0.70715
 H296 H 0.79290 0.60695 0.79283
 C297 C 0.77404 0.27400 -0.05310
 C298 C 0.75000 0.25006 -0.03346
 C299 C 0.72598 0.22613 -0.05313
 C300 C 0.72596 0.22611 -0.09231
 C301 C 0.75003 0.25008 -0.11235
 C302 C 0.77409 0.27405 -0.09228
 C303 C 0.74998 0.25004 0.00687
 C304 C 0.74996 0.25001 0.04065
 C305 C 0.74994 0.25000 0.08019
 C306 C 0.74993 0.24998 0.11396
 H307 H 0.79276 0.29265 -0.03814
 H308 H 0.70725 0.20747 -0.03820
 H309 H 0.70710 0.20732 -0.10687
 H310 H 0.79296 0.29284 -0.10682
 C311 C 0.55320 0.27403 0.72597
 C312 C 0.53353 0.25012 0.75003
 C313 C 0.55319 0.22621 0.77408
 C314 C 0.59237 0.22617 0.77411
 C315 C 0.61243 0.25011 0.75002
 C316 C 0.59238 0.27406 0.72593
 C317 C 0.49321 0.25011 0.75002
 C318 C 0.45943 0.25010 0.75002
 C319 C 0.41989 0.25008 0.75000
 C320 C 0.38611 0.25008 0.74999
 H321 H 0.53825 0.29266 0.70723
 H322 H 0.53824 0.20758 0.79282
 H323 H 0.60692 0.20740 0.79299
 H324 H 0.60693 0.29282 0.70704
 C325 C 0.27401 0.55323 0.77409
 C326 C 0.25010 0.53356 0.75003
 C327 C 0.22619 0.55322 0.72598
 C328 C 0.22615 0.59239 0.72594
 C329 C 0.25009 0.61246 0.75003
 C330 C 0.27404 0.59241 0.77412
 C331 C 0.25011 0.49323 0.75003
 C332 C 0.25010 0.45946 0.75004
 C333 C 0.25010 0.41991 0.75004
 C334 C 0.25010 0.38614 0.75003
 H335 H 0.29265 0.53829 0.79283
 H336 H 0.20756 0.53826 0.70724
 H337 H 0.20738 0.60693 0.70706
 H338 H 0.29280 0.60696 0.79300
 C339 C 0.27400 0.27400 -0.05309
 C340 C 0.25000 0.25002 -0.03345
 C341 C 0.22601 0.22605 -0.05313
 C342 C 0.22600 0.22603 -0.09230
 C343 C 0.25003 0.25005 -0.11234
 C344 C 0.27405 0.27405 -0.09226
 C345 C 0.24998 0.25000 0.00687
 C346 C 0.24996 0.24998 0.04064
 C347 C 0.24994 0.24995 0.08018
 C348 C 0.24992 0.24995 0.11395
 H349 H 0.29268 0.29267 -0.03812
 H350 H 0.20732 0.20736 -0.03819
 H351 H 0.20717 0.20722 -0.10686
 H352 H 0.29289 0.29288 -0.10680
 C353 C -0.05318 0.77403 0.22611
 C354 C -0.03353 0.74998 0.25003
 C355 C -0.05320 0.72592 0.27394
 C356 C -0.09237 0.72589 0.27396
 C357 C -0.11242 0.74998 0.25001
 C358 C -0.09236 0.77406 0.22607
 C359 C 0.00680 0.74997 0.25003
 C360 C 0.04058 0.74997 0.25002
 C361 C 0.08012 0.74996 0.25004
 C362 C 0.11389 0.74995 0.25004
 H363 H -0.03822 0.79277 0.20748
 H364 H -0.03825 0.70718 0.29257
 H365 H -0.10693 0.70700 0.29273
 H366 H -0.10690 0.79295 0.20730
 C367 C 0.72591 -0.05316 0.27398
 C368 C 0.74997 -0.03350 0.25007
 C369 C 0.77403 -0.05316 0.22615
 C370 C 0.77405 -0.09234 0.22611
 C371 C 0.74996 -0.11240 0.25005
 C372 C 0.72588 -0.09234 0.27400
 C373 C 0.74996 0.00683 0.25006
 C374 C 0.74995 0.04060 0.25005
 C375 C 0.74992 0.08015 0.25002
 C376 C 0.74992 0.11392 0.25001
 H377 H 0.70717 -0.03821 0.29262
 H378 H 0.79277 -0.03821 0.20752
 H379 H 0.79294 -0.10688 0.20733
 H380 H 0.70699 -0.10689 0.29277
 C381 C 0.72607 0.72604 0.55316
 C382 C 0.75002 0.75004 0.53347
 C383 C 0.77399 0.77406 0.55312
 C384 C 0.77404 0.77411 0.59230
 C385 C 0.75006 0.75008 0.61238
 C386 C 0.72606 0.72603 0.59234
 C387 C 0.75000 0.75002 0.49314
 C388 C 0.74998 0.75000 0.45936
 C389 C 0.74994 0.74997 0.41981
 C390 C 0.74993 0.74995 0.38603
 H391 H 0.70740 0.70733 0.53823
 H392 H 0.79265 0.79276 0.53815
 H393 H 0.79285 0.79296 0.60683
 H394 H 0.70726 0.70718 0.60691
 C395 C 0.55306 0.77410 0.27382
 C396 C 0.53340 0.74997 0.24997
 C397 C 0.55308 0.72585 0.22613
 C398 C 0.59225 0.72582 0.22611
 C399 C 0.61230 0.74997 0.24999
 C400 C 0.59223 0.77413 0.27386
 C401 C 0.49307 0.74996 0.24996
 C402 C 0.45930 0.74996 0.24995
 C403 C 0.41975 0.74994 0.24993
 C404 C 0.38598 0.74993 0.24994
 H405 H 0.53810 0.79289 0.29239
 H406 H 0.53814 0.70705 0.20755
 H407 H 0.60681 0.70688 0.20739
 H408 H 0.60677 0.79307 0.29258
 C409 C 0.22586 -0.05317 0.27393
 C410 C 0.24986 -0.03351 0.24995
 C411 C 0.27387 -0.05316 0.22598
 C412 C 0.27392 -0.09234 0.22596
 C413 C 0.24990 -0.11240 0.24997
 C414 C 0.22585 -0.09234 0.27397
 C415 C 0.24985 0.00681 0.24995
 C416 C 0.24985 0.04058 0.24996
 C417 C 0.24987 0.08012 0.24996
 C418 C 0.24989 0.11389 0.24998
 H419 H 0.20716 -0.03822 0.29260
 H420 H 0.29256 -0.03821 0.20731
 H421 H 0.29277 -0.10688 0.20715
 H422 H 0.20702 -0.10690 0.29279
 C423 C 0.22614 0.72596 0.55314
 C424 C 0.25002 0.75003 0.53346
 C425 C 0.27392 0.77412 0.55311
 C426 C 0.27396 0.77416 0.59228
 C427 C 0.25005 0.75006 0.61236
 C428 C 0.22612 0.72594 0.59232
 C429 C 0.25001 0.75002 0.49313
 C430 C 0.24999 0.75000 0.45936
 C431 C 0.24997 0.74998 0.41981
 C432 C 0.24997 0.74996 0.38604
 H433 H 0.20753 0.70719 0.53821
 H434 H 0.29253 0.79287 0.53814
 H435 H 0.29272 0.79307 0.60682
 H436 H 0.20738 0.70704 0.60688
 C437 C -0.05319 0.27389 0.27399
 C438 C -0.03354 0.24988 0.25002
 C439 C -0.05320 0.22589 0.22605
 C440 C -0.09238 0.22588 0.22602
 C441 C -0.11242 0.24992 0.25001
 C442 C -0.09236 0.27394 0.27402
 C443 C 0.00678 0.24987 0.25001
 C444 C 0.04055 0.24988 0.25000
 C445 C 0.08009 0.24990 0.25001
 C446 C 0.11386 0.24992 0.25001
 H447 H -0.03823 0.29258 0.29266
 H448 H -0.03826 0.20718 0.20738
 H449 H -0.10693 0.20704 0.20720
 H450 H -0.10690 0.29279 0.29284
 C451 C 0.77409 0.55309 0.27377
 C452 C 0.74996 0.53343 0.24992
 C453 C 0.72584 0.55310 0.22609
 C454 C 0.72581 0.59228 0.22607
 C455 C 0.74996 0.61233 0.24995
 C456 C 0.77412 0.59227 0.27381
 C457 C 0.74996 0.49310 0.24992
 C458 C 0.74994 0.45933 0.24993
 C459 C 0.74992 0.41978 0.24997
 C460 C 0.74991 0.38601 0.25000
 H461 H 0.79288 0.53814 0.29234
 H462 H 0.70705 0.53815 0.20751
 H463 H 0.70687 0.60683 0.20736
 H464 H 0.79306 0.60681 0.29253
 C465 C 0.72597 0.27394 0.55314
 C466 C 0.75001 0.25001 0.53348
 C467 C 0.77409 0.22612 0.55313
 C468 C 0.77414 0.22611 0.59231
 C469 C 0.75006 0.25007 0.61237
 C470 C 0.72596 0.27400 0.59232
 C471 C 0.74997 0.24997 0.49315
 C472 C 0.74995 0.24995 0.45937
 C473 C 0.74994 0.24995 0.41983
 C474 C 0.74993 0.24997 0.38605
 H475 H 0.70721 0.29255 0.53819
 H476 H 0.79282 0.20748 0.53818
 H477 H 0.79304 0.20735 0.60686
 H478 H 0.70708 0.29277 0.60687
 C479 C 0.55303 0.27396 0.22609
 C480 C 0.53338 0.24990 0.25000
 C481 C 0.55304 0.22585 0.27391
 C482 C 0.59221 0.22584 0.27396
 C483 C 0.61226 0.24993 0.25001
 C484 C 0.59221 0.27401 0.22606
 C485 C 0.49305 0.24988 0.24998
 C486 C 0.45928 0.24988 0.24998
 C487 C 0.41975 0.24989 0.24997
 C488 C 0.38598 0.24992 0.24998
 H489 H 0.53808 0.29270 0.20745
 H490 H 0.53809 0.20710 0.29254
 H491 H 0.60676 0.20696 0.29273
 H492 H 0.60675 0.29290 0.20730
 C493 C 0.27393 0.55306 0.27396
 C494 C 0.24986 0.53341 0.25006
 C495 C 0.22581 0.55307 0.22614
 C496 C 0.22580 0.59224 0.22609
 C497 C 0.24990 0.61229 0.25003
 C498 C 0.27397 0.59223 0.27398
 C499 C 0.24985 0.49308 0.25006
 C500 C 0.24985 0.45931 0.25005
 C501 C 0.24986 0.41977 0.25003
 C502 C 0.24989 0.38601 0.25002
 H503 H 0.29266 0.53811 0.29259
 H504 H 0.20707 0.53812 0.20752
 H505 H 0.20692 0.60679 0.20732
 H506 H 0.29286 0.60678 0.29275
 C507 C 0.22602 0.27404 0.55313
 C508 C 0.25000 0.25004 0.53346
 C509 C 0.27400 0.22607 0.55312
 C510 C 0.27406 0.22607 0.59229
 C511 C 0.25005 0.25009 0.61235
 C512 C 0.22602 0.27409 0.59230
 C513 C 0.24996 0.25000 0.49314
 C514 C 0.24994 0.24998 0.45937
 C515 C 0.24993 0.24997 0.41983
 C516 C 0.24992 0.24997 0.38606
 H517 H 0.20732 0.29271 0.53818
 H518 H 0.29268 0.20738 0.53816
 H519 H 0.29290 0.20725 0.60684
 H520 H 0.20720 0.29293 0.60685
   
