data_POSCAR
  _audit_creation_date              2014-09-24
  _audit_creation_method            'ToBaCCo'
  _symmetry_space_group_name_H-M    'P1'
  _symmetry_Int_Tables_number       1
  _symmetry_cell_setting            triclinic
  loop_
  _symmetry_equiv_pos_as_xyz
 x,y,z
_cell_length_a 52.8368
_cell_length_b 52.3311
_cell_length_c 22.4584
_cell_angle_alpha 89.873000
_cell_angle_beta 90.017400
_cell_angle_gamma 120.466900
loop_
  _atom_site_label
  _atom_site_type_symbol
  _atom_site_fract_x
  _atom_site_fract_y
  _atom_site_fract_z
C1 C 0.14859 0.45889 0.51241
 C2 C 0.15068 0.45818 0.45162
 C3 C 0.17193 0.45071 0.43958
 N4 N 0.18255 0.44652 0.49109
 C5 C 0.16858 0.45183 0.53562
 C6 C 0.18014 0.44667 0.38189
 C7 C 0.20382 0.44204 0.36985
 C8 C 0.20936 0.43352 0.31512
 C9 C 0.23560 0.43409 0.32031
 C10 C 0.24541 0.44290 0.37804
 N11 N 0.22596 0.44778 0.40777
 C12 C 0.27268 0.44821 0.40042
 C13 C 0.28002 0.45210 0.46151
 C14 C 0.30739 0.45992 0.48427
 C15 C 0.30510 0.46032 0.54505
 C16 C 0.27635 0.45270 0.55755
 N17 N 0.26104 0.44738 0.50638
 C18 C 0.26449 0.44947 0.61543
 C19 C 0.23602 0.44431 0.62760
 C20 C 0.22228 0.43624 0.68282
 C21 C 0.19638 0.43630 0.67762
 C22 C 0.19493 0.44434 0.61939
 N23 N 0.21919 0.44922 0.58933
 C24 C 0.17275 0.44917 0.59692
 H25 H 0.13395 0.46390 0.53668
 H26 H 0.13792 0.46258 0.41990
 H27 H 0.22579 0.45918 0.54783
 H28 H 0.19611 0.42798 0.27522
 H29 H 0.24644 0.42903 0.28528
 H30 H 0.32695 0.46474 0.45971
 H31 H 0.32258 0.46550 0.57648
 H32 H 0.18064 0.43146 0.71297
 H33 H 0.22939 0.45808 0.44878
 H34 H 0.23039 0.43142 0.72304
 C35 C 0.56946 -0.13431 0.46895
 C36 C 0.56551 -0.13795 0.52940
 C37 C 0.55980 -0.16637 0.54231
 N38 N 0.56005 -0.18014 0.49170
 C39 C 0.56602 -0.16059 0.44684
 C40 C 0.55188 -0.17994 0.59906
 C41 C 0.54867 -0.20785 0.61289
 C42 C 0.53635 -0.22359 0.66514
 C43 C 0.53841 -0.24870 0.66280
 C44 C 0.55184 -0.24776 0.60915
 N45 N 0.55835 -0.22261 0.57935
 C46 C 0.55847 -0.26944 0.59013
 C47 C 0.56603 -0.27171 0.53092
 C48 C 0.57367 -0.29199 0.51133
 C49 C 0.57628 -0.28908 0.45057
 C50 C 0.57022 -0.26702 0.43498
 N51 N 0.56390 -0.25654 0.48421
 C52 C 0.56768 -0.25915 0.37594
 C53 C 0.56427 -0.23482 0.36042
 C54 C 0.55703 -0.22969 0.30389
 C55 C 0.55666 -0.20365 0.30661
 C56 C 0.56355 -0.19356 0.36471
 N57 N 0.56860 -0.21244 0.39698
 C58 C 0.56565 -0.16713 0.38583
 H59 H 0.57372 -0.11480 0.44399
 H60 H 0.56616 -0.12175 0.56022
 H61 H 0.57708 -0.20890 0.43984
 H62 H 0.52694 -0.21755 0.70142
 H63 H 0.53080 -0.26574 0.69674
 H64 H 0.57635 -0.30774 0.53787
 H65 H 0.58141 -0.30215 0.42104
 H66 H 0.55168 -0.19344 0.26998
 H67 H 0.57122 -0.21453 0.54133
 H68 H 0.55250 -0.24329 0.26462
 C69 C 1.30961 0.85543 0.52489
 C70 C 1.30863 0.85128 0.46446
 C71 C 1.27981 0.83027 0.45045
 N72 N 1.26320 0.82176 0.50034
 C73 C 1.28139 0.83680 0.54603
 C74 C 1.26913 0.82046 0.39215
 C75 C 1.24024 0.79750 0.37895
 C76 C 1.22764 0.79135 0.32264
 C77 C 1.20059 0.76598 0.32769
 C78 C 1.19737 0.75725 0.38687
 N79 N 1.22166 0.77657 0.41768
 C80 C 1.17355 0.73076 0.40977
 C81 C 1.16850 0.72448 0.47121
 C82 C 1.14767 0.69741 0.49500
 C83 C 1.14940 0.70072 0.55569
 C84 C 1.17115 0.72980 0.56708
 N85 N 1.18251 0.74433 0.51528
 C86 C 1.17922 0.74270 0.62433
 C87 C 1.20257 0.77178 0.63536
 C88 C 1.20720 0.78686 0.68873
 C89 C 1.23362 0.81292 0.68357
 C90 C 1.24453 0.81305 0.62725
 N91 N 1.22539 0.78789 0.59826
 C92 C 1.27263 0.83467 0.60623
 H93 H 1.32888 0.87046 0.55035
 H94 H 1.32704 0.86256 0.43422
 H95 H 1.22949 0.78015 0.55909
 H96 H 1.23719 0.80360 0.28191
 H97 H 1.18529 0.75491 0.29163
 H98 H 1.13283 0.67734 0.47115
 H99 H 1.13602 0.68369 0.58778
 H100 H 1.24398 0.82955 0.71793
 H101 H 1.22699 0.77357 0.46055
 H102 H 1.19325 0.77953 0.72779
 C103 C 0.85827 0.56513 0.54730
 C104 C 0.86124 0.56645 0.48652
 C105 C 0.83462 0.56094 0.46332
 N106 N 0.81550 0.55621 0.50787
 C107 C 0.82989 0.55884 0.55931
 C108 C 0.82755 0.55769 0.40217
 C109 C 0.80097 0.55401 0.37928
 C110 C 0.79090 0.54499 0.32173
 C111 C 0.76484 0.54477 0.31666
 C112 C 0.75970 0.55372 0.37122
 N113 N 0.78202 0.55967 0.40886
 C114 C 0.73543 0.55724 0.38393
 C115 C 0.72750 0.56124 0.44170
 C116 C 0.70530 0.56719 0.45429
 C117 C 0.70259 0.56651 0.51511
 C118 C 0.72318 0.56010 0.53775
 N119 N 0.73830 0.55682 0.49275
 C120 C 0.72593 0.55471 0.59842
 C121 C 0.74818 0.54977 0.62049
 C122 C 0.74803 0.53848 0.67660
 C123 C 0.77364 0.53791 0.68161
 C124 C 0.78886 0.54889 0.62849
 N125 N 0.77331 0.55635 0.59176
 C126 C 0.81697 0.55298 0.61653
 H127 H 0.87488 0.56787 0.57903
 H128 H 0.88059 0.57041 0.46219
 H129 H 0.78078 0.56802 0.55204
 H130 H 0.80120 0.53911 0.28697
 H131 H 0.75127 0.53874 0.27718
 H132 H 0.69205 0.57106 0.42289
 H133 H 0.68682 0.56970 0.53980
 H134 H 0.78033 0.53035 0.72017
 H135 H 0.78549 0.56969 0.45026
 H136 H 0.73121 0.53140 0.71049
 C137 C 0.42477 0.13348 0.44443
 C138 C 0.42823 0.13212 0.50465
 C139 C 0.43549 0.15964 0.52743
 N140 N 0.43668 0.17772 0.48305
 C141 C 0.43007 0.16179 0.43228
 C142 C 0.44339 0.16847 0.58718
 C143 C 0.44818 0.19573 0.61033
 C144 C 0.46070 0.20727 0.66539
 C145 C 0.46045 0.23322 0.67228
 C146 C 0.44785 0.23698 0.62121
 N147 N 0.44014 0.21386 0.58404
 C148 C 0.44275 0.26071 0.61139
 C149 C 0.43592 0.26792 0.55520
 C150 C 0.42951 0.29023 0.54505
 C151 C 0.42729 0.29214 0.48454
 C152 C 0.43227 0.27087 0.45965
 N153 N 0.43765 0.25621 0.50286
 C154 C 0.43432 0.26710 0.39802
 C155 C 0.43666 0.24354 0.37339
 C156 C 0.44378 0.24210 0.31451
 C157 C 0.44297 0.21559 0.30786
 C158 C 0.43541 0.20153 0.36287
 N159 N 0.43120 0.21852 0.40232
 C160 C 0.43168 0.17329 0.37460
 H161 H 0.41961 0.11585 0.41298
 H162 H 0.42621 0.11324 0.52879
 H163 H 0.42244 0.21212 0.44480
 H164 H 0.46906 0.19790 0.69745
 H165 H 0.46862 0.24768 0.71061
 H166 H 0.42735 0.30416 0.57778
 H167 H 0.42300 0.30773 0.46146
 H168 H 0.44750 0.20761 0.26712
 H169 H 0.42747 0.20928 0.54587
 H170 H 0.44903 0.25845 0.27985
 C171 C 0.70078 0.13523 0.49691
 C172 C 0.70413 0.13624 0.55754
 C173 C 0.73051 0.16185 0.57011
 N174 N 0.74334 0.17631 0.51904
 C175 C 0.72522 0.16023 0.47420
 C176 C 0.74200 0.17121 0.62803
 C177 C 0.76875 0.19738 0.64158
 C178 C 0.78103 0.20466 0.69806
 C179 C 0.80624 0.23184 0.69356
 C180 C 0.80889 0.24054 0.63433
 N181 N 0.78576 0.21950 0.60317
 C182 C 0.83212 0.26759 0.61141
 C183 C 0.83788 0.27425 0.55000
 C184 C 0.86176 0.29982 0.52738
 C185 C 0.85964 0.29768 0.46660
 C186 C 0.83438 0.27099 0.45371
 N187 N 0.82131 0.25669 0.50478
 C188 C 0.82320 0.26147 0.39561
 C189 C 0.79620 0.23554 0.38193
 C190 C 0.78303 0.22948 0.32625
 C191 C 0.75666 0.20345 0.33132
 C192 C 0.75430 0.19404 0.38994
 N193 N 0.77885 0.21344 0.42014
 C194 C 0.72950 0.16833 0.41335
 H195 H 0.68226 0.11817 0.47247
 H196 H 0.68875 0.12000 0.58876
 H197 H 0.78433 0.21097 0.46316
 H198 H 0.77269 0.19174 0.73850
 H199 H 0.82107 0.24377 0.72980
 H200 H 0.87899 0.31811 0.55210
 H201 H 0.87473 0.31424 0.43550
 H202 H 0.74080 0.19293 0.29591
 H203 H 0.78046 0.22140 0.55969
 H204 H 0.79120 0.24281 0.28626
 O205 O 0.97166 0.52539 -0.08340
 O206 O 1.02667 0.52578 0.12324
 O207 O 0.95381 0.50778 0.05041
 O208 O 1.06323 0.55254 -0.04735
 O209 O 0.97357 0.49865 0.12339
 O210 O 1.02597 0.55399 -0.08446
 O211 O 1.04515 0.55539 0.05049
 O212 O 0.93538 0.48507 -0.04675
 C213 C 0.94467 0.50817 -0.07718
 C214 C 1.04041 0.55175 0.10432
 C215 C 0.95926 0.50990 0.10404
 C216 C 1.05306 0.56560 -0.07694
 O217 O 1.02806 0.50587 -0.11767
 O218 O 0.97151 0.45147 0.07147
 O219 O 0.95232 0.44820 -0.03604
 O220 O 1.07070 0.52397 0.05507
 O221 O 1.02883 0.48106 0.07038
 O222 O 0.97132 0.47579 -0.11653
 O223 O 1.04831 0.49870 -0.03821
 O224 O 0.92919 0.45046 0.05665
 Co225 Co 0.99927 0.51442 -0.09258
 Co226 Co 1.00009 0.49032 0.08868
 Co227 Co 0.95634 0.47925 0.01043
 Co228 Co 1.04328 0.52473 0.00953
 O229 O 0.99974 0.50505 -0.00135
 C230 C 1.04454 0.49748 -0.09395
 C231 C 0.94388 0.43956 0.08272
 C232 C 0.95585 0.45053 -0.09186
 C233 C 1.05656 0.49774 0.08019
 O234 O 0.47281 0.44677 -0.09064
 O235 O 0.47598 0.50334 0.11605
 O236 O 0.49008 0.44567 0.04333
 O237 O 0.45087 0.51543 -0.05422
 O238 O 0.50079 0.47523 0.11600
 O239 O 0.44690 0.47518 -0.09105
 O240 O 0.44690 0.49366 0.04351
 O241 O 0.51181 0.44882 -0.05417
 C242 C 0.48879 0.43568 -0.08435
 C243 C 0.45032 0.49207 0.09726
 C244 C 0.48835 0.44930 0.09696
 C245 C 0.43689 0.49210 -0.08383
 O246 O 0.49604 0.52468 -0.12501
 O247 O 0.54847 0.51955 0.06314
 O248 O 0.55046 0.50266 -0.04450
 O249 O 0.48038 0.55109 0.04803
 O250 O 0.52154 0.54969 0.06243
 O251 O 0.52319 0.49517 -0.12445
 O252 O 0.50484 0.55277 -0.04557
 O253 O 0.54710 0.47664 0.04858
 Co254 Co 0.48560 0.48629 -0.09987
 Co255 Co 0.51058 0.51086 0.08101
 Co256 Co 0.51919 0.47636 0.00275
 Co257 Co 0.47802 0.52193 0.00240
 O258 O 0.49539 0.49598 -0.00878
 C259 C 0.50566 0.55007 -0.10137
 C260 C 0.55911 0.50268 0.07424
 C261 C 0.54807 0.50391 -0.10031
 C262 C 0.50622 0.56200 0.07313
 O263 O 0.54990 0.01577 -0.07789
 O264 O 0.50318 -0.02588 0.11124
 O265 O 0.55386 0.05674 0.05402
 O266 O 0.47435 -0.07388 -0.04747
 O267 O 0.52214 0.02788 0.12221
 O268 O 0.51443 -0.03548 -0.07794
 O269 O 0.51232 -0.04210 0.02945
 O270 O 0.55403 0.05780 -0.05826
 C271 C 0.56513 0.04308 -0.07580
 C272 C 0.51538 -0.03812 0.08459
 C273 C 0.54780 0.04781 0.10683
 C274 C 0.49568 -0.06260 -0.08533
 O275 O 0.47264 -0.02333 -0.11655
 O276 O 0.46949 0.01893 0.08258
 O277 O 0.50312 0.05508 -0.05640
 O278 O 0.45860 -0.06543 0.05530
 O279 O 0.45048 -0.03124 0.07262
 O280 O 0.51011 0.02917 -0.12347
 O281 O 0.44840 -0.04443 -0.03722
 O282 O 0.50681 0.05989 0.05453
 Co283 Co 0.51077 -0.00293 -0.09051
 Co284 Co 0.48755 -0.00237 0.08960
 Co285 Co 0.52679 0.05218 -0.00169
 Co286 Co 0.48139 -0.04149 -0.00561
 O287 O 0.50173 0.00334 0.00049
 C288 C 0.44850 -0.03841 -0.09071
 C289 C 0.48218 0.04613 0.07805
 C290 C 0.50158 0.04688 -0.10899
 C291 C 0.44303 -0.05748 0.08042
 C292 C 1.13383 0.45501 0.25044
 N293 N 1.14756 0.47620 0.20815
 N294 N 1.13204 0.48281 0.17100
 C295 C 1.10236 0.46848 0.17517
 N296 N 1.08862 0.44717 0.21724
 N297 N 1.10414 0.44055 0.25437
 C298 C 1.15059 0.45060 0.29502
 C299 C 1.16452 0.44817 0.33476
 C300 C 1.08599 0.47779 0.13967
 C301 C 1.07243 0.48651 0.11167
 C302 C 0.55604 0.68231 0.24937
 N303 N 0.53914 0.67940 0.20150
 N304 N 0.53099 0.65697 0.16374
 C305 C 0.53947 0.63679 0.17284
 N306 N 0.55649 0.63978 0.22054
 N307 N 0.56463 0.66220 0.25831
 C308 C 0.56197 0.70437 0.29333
 C309 C 0.56541 0.72193 0.33154
 C310 C 0.52849 0.61119 0.13562
 C311 C 0.51855 0.58902 0.10614
 C312 C 0.32749 -0.14000 0.26081
 N313 N 0.33009 -0.11610 0.23153
 N314 N 0.35181 -0.10138 0.19263
 C315 C 0.37153 -0.11014 0.18188
 N316 N 0.36886 -0.13410 0.21100
 N317 N 0.34714 -0.14882 0.24989
 C318 C 0.30565 -0.15440 0.30602
 C319 C 0.28815 -0.16620 0.34568
 C320 C 0.39624 -0.09279 0.14403
 C321 C 0.41746 -0.07722 0.11403
 C322 C 0.88344 0.54903 0.28880
 N323 N 0.90408 0.54360 0.31143
 N324 N 0.92080 0.53814 0.27530
 C325 C 0.91745 0.53801 0.21539
 N326 N 0.89687 0.54352 0.19277
 N327 N 0.88015 0.54898 0.22890
 C328 C 0.86420 0.55304 0.32789
 C329 C 0.84769 0.55558 0.36123
 C330 C 0.93372 0.52972 0.17660
 C331 C 0.94618 0.52145 0.14370
 C332 C 0.44418 0.33314 0.28532
 N333 N 0.44236 0.32899 0.22552
 N334 N 0.44875 0.35147 0.18863
 C335 C 0.45713 0.37880 0.21037
 N336 N 0.45887 0.38293 0.27018
 N337 N 0.45247 0.36045 0.30707
 C338 C 0.43949 0.30952 0.32489
 C339 C 0.43659 0.29003 0.35808
 C340 C 0.46654 0.40355 0.17057
 C341 C 0.47574 0.42443 0.13701
 C342 C 0.66097 0.11829 0.30064
 N343 N 0.66553 0.11405 0.24299
 N344 N 0.64287 0.09903 0.20633
 C345 C 0.61493 0.08778 0.22616
 N346 N 0.61036 0.09198 0.28384
 N347 N 0.63303 0.10699 0.32051
 C348 C 0.68538 0.13541 0.33965
 C349 C 0.70563 0.15017 0.37274
 C350 C 0.59064 0.07278 0.18579
 C351 C 0.57072 0.06092 0.15060
 C352 C 0.46061 0.11753 -0.30584
 N353 N 0.44593 0.10665 -0.25384
 N354 N 0.45320 0.09136 -0.21707
 C355 C 0.47533 0.08644 -0.23119
 N356 N 0.48998 0.09727 -0.28326
 N357 N 0.48271 0.11256 -0.32003
 C358 C 0.45372 0.13517 -0.34421
 C359 C 0.44855 0.15052 -0.37626
 C360 C 0.48424 0.07148 -0.18987
 C361 C 0.49203 0.05975 -0.15381
 C362 C 0.66306 0.54388 -0.28658
 N363 N 0.66502 0.53768 -0.22866
 N364 N 0.64323 0.53158 -0.19080
 C365 C 0.61882 0.53152 -0.20968
 N366 N 0.61689 0.53779 -0.26757
 N367 N 0.63867 0.54389 -0.30544
 C368 C 0.68577 0.54871 -0.32800
 C369 C 0.70464 0.55192 -0.36261
 C370 C 0.59452 0.52299 -0.16992
 C371 C 0.57361 0.51484 -0.13747
 C372 C 0.88322 0.33156 -0.27289
 N373 N 0.90783 0.35623 -0.29213
 N374 N 0.92313 0.37892 -0.25531
 C375 C 0.91430 0.37763 -0.19812
 N376 N 0.88973 0.35292 -0.17884
 N377 N 0.87443 0.33024 -0.21566
 C378 C 0.86558 0.30807 -0.31369
 C379 C 0.85021 0.28886 -0.34851
 C380 C 0.92961 0.40287 -0.15974
 C381 C 0.94191 0.42444 -0.12828
 C382 C 0.53055 -0.13957 -0.27638
 N383 N 0.50202 -0.14737 -0.26955
 N384 N 0.49450 -0.13335 -0.23023
 C385 C 0.51532 -0.11116 -0.19658
 N386 N 0.54384 -0.10340 -0.20334
 N387 N 0.55136 -0.11742 -0.24266
 C388 C 0.53867 -0.15394 -0.32009
 C389 C 0.54513 -0.16602 -0.35761
 C390 C 0.50753 -0.09509 -0.15642
 C391 C 0.50164 -0.08075 -0.12349
 C392 C 0.31884 0.46029 -0.25069
 N393 N 0.32535 0.43903 -0.23706
 N394 N 0.34677 0.44466 -0.19868
 C395 C 0.36227 0.47170 -0.17281
 N396 N 0.35563 0.49290 -0.18618
 N397 N 0.33420 0.48726 -0.22455
 C398 C 0.29822 0.45542 -0.29675
 C399 C 0.28199 0.45219 -0.33729
 C400 C 0.38757 0.47884 -0.13775
 C401 C 0.40974 0.48495 -0.11142
 C402 C 1.13578 0.68811 -0.24068
 N403 N 1.14908 0.67566 -0.21054
 N404 N 1.13382 0.65339 -0.17270
 C405 C 1.10482 0.64295 -0.16393
 N406 N 1.09157 0.65554 -0.19375
 N407 N 1.10682 0.67780 -0.23161
 C408 C 1.15123 0.70917 -0.28688
 C409 C 1.16421 0.72548 -0.32779
 C410 C 1.08759 0.61667 -0.12957
 C411 C 1.07230 0.59368 -0.10387
 C412 C 0.86004 0.53917 -0.25233
 N413 N 0.88689 0.56092 -0.23422
 N414 N 0.90218 0.55506 -0.19494
 C415 C 0.89106 0.52731 -0.17252
 N416 N 0.86416 0.50559 -0.19045
 N417 N 0.84885 0.51145 -0.22972
 C418 C 0.84460 0.54483 -0.29799
 C419 C 0.83173 0.54899 -0.33760
 C420 C 0.90882 0.52040 -0.13538
 C421 C 0.92466 0.51468 -0.10706
 C422 C 0.45606 0.31744 -0.25646
 N423 N 0.48293 0.33297 -0.23083
 N424 N 0.48870 0.35456 -0.19223
 C425 C 0.46776 0.36121 -0.17806
 N426 N 0.44085 0.34558 -0.20348
 N427 N 0.43508 0.32400 -0.24209
 C428 C 0.45074 0.29618 -0.30201
 C429 C 0.44676 0.27920 -0.34192
 C430 C 0.47487 0.38642 -0.14168
 C431 C 0.48112 0.40849 -0.11389
 C432 C 0.68792 0.11998 -0.23791
 N433 N 0.68292 0.13298 -0.19078
 N434 N 0.66096 0.11688 -0.15321
 C435 C 0.64336 0.08730 -0.16160
 N436 N 0.64852 0.07426 -0.20845
 N437 N 0.67048 0.09036 -0.24602
 C438 C 0.70854 0.13784 -0.28297
 C439 C 0.72443 0.15295 -0.32267
 C440 C 0.61703 0.07100 -0.12733
 C441 C 0.59381 0.05789 -0.10189
 C442 C 1.12036 0.45984 -0.28312
 N443 N 1.12898 0.46638 -0.22552
 N444 N 1.11326 0.47211 -0.18707
 C445 C 1.08840 0.47143 -0.20499
 N446 N 1.07976 0.46483 -0.26256
 N447 N 1.09548 0.45911 -0.30101
 C448 C 1.13815 0.45520 -0.32526
 C449 C 1.15356 0.45205 -0.36067
 C450 C 1.07243 0.47941 -0.16453
 C451 C 1.05944 0.48707 -0.13159
 C452 C 0.54604 0.66596 -0.28995
 N453 N 0.53833 0.66741 -0.23297
 N454 N 0.53215 0.64548 -0.19469
 C455 C 0.53351 0.62139 -0.21214
 N456 N 0.54127 0.61997 -0.26910
 N457 N 0.54746 0.64191 -0.30737
 C458 C 0.55124 0.68893 -0.33199
 C459 C 0.55490 0.70796 -0.36736
 C460 C 0.52499 0.59686 -0.17198
 C461 C 0.51681 0.57580 -0.13913
 C462 C 0.33232 -0.11107 -0.27416
 N463 N 0.33029 -0.12014 -0.21681
 N464 N 0.35159 -0.10398 -0.17800
 C465 C 0.37554 -0.07816 -0.19521
 N466 N 0.37750 -0.06904 -0.25251
 N467 N 0.35621 -0.08519 -0.29133
 C468 C 0.31057 -0.12976 -0.31711
 C469 C 0.29270 -0.14609 -0.35314
 C470 C 0.40014 -0.06270 -0.15558
 C471 C 0.42171 -0.05084 -0.12439
 C472 C 0.55915 -0.11181 0.26521
 N473 N 0.55166 -0.12052 0.20789
 N474 N 0.54620 -0.10418 0.17016
 C475 C 0.54816 -0.07855 0.18847
 N476 N 0.55576 -0.06978 0.24574
 N477 N 0.56122 -0.08612 0.28347
 C478 C 0.56263 -0.13065 0.30712
 C479 C 0.56451 -0.14697 0.34269
 C480 C 0.53898 -0.06277 0.14984
 C481 C 0.52939 -0.05070 0.11894
 C482 C 0.33635 0.45610 0.28469
 N483 N 0.36232 0.46089 0.30670
 N484 N 0.38424 0.46586 0.27008
 C485 C 0.38087 0.46614 0.21023
 N486 N 0.35487 0.46129 0.18822
 N487 N 0.33296 0.45632 0.22484
 C488 C 0.31332 0.45240 0.32442
 C489 C 0.29453 0.45008 0.35844
 C490 C 0.40521 0.47370 0.17082
 C491 C 0.42577 0.48129 0.13747
 C492 C 1.11776 0.66632 0.29353
 N493 N 1.12151 0.67024 0.23375
 N494 N 1.10461 0.64824 0.19662
 C495 C 1.08337 0.62164 0.21803
 N496 N 1.07959 0.61774 0.27781
 N497 N 1.09648 0.63973 0.31494
 C498 C 1.13704 0.68946 0.33374
 C499 C 1.15351 0.70847 0.36793
 C500 C 1.06675 0.59722 0.17811
 C501 C 1.05394 0.57653 0.14450
 C502 C 0.43845 0.12473 0.24046
 N503 N 0.45928 0.13836 0.19782
 N504 N 0.46551 0.12248 0.16069
 C505 C 0.45108 0.09250 0.16509
 N506 N 0.43011 0.07886 0.20746
 N507 N 0.42388 0.09475 0.24459
 C508 C 0.43459 0.14189 0.28523
 C509 C 0.43263 0.15622 0.32492
 C510 C 0.46058 0.07582 0.13092
 C511 C 0.46982 0.06208 0.10516
 C512 C 0.67683 0.54489 0.25270
 N513 N 0.67014 0.52406 0.21017
 N514 N 0.64822 0.51718 0.17221
 C515 C 0.63232 0.53090 0.17568
 N516 N 0.63909 0.55181 0.21807
 N517 N 0.66100 0.55869 0.25603
 C518 C 0.69858 0.55035 0.29685
 C519 C 0.71588 0.55400 0.33558
 C520 C 0.60726 0.52179 0.13810
 C521 C 0.58557 0.51342 0.10811
 C522 C 0.86925 0.32094 0.26365
 N523 N 0.89887 0.33798 0.26791
 N524 N 0.91392 0.36005 0.22950
 C525 C 0.89978 0.36575 0.18571
 N526 N 0.87017 0.34864 0.18131
 N527 N 0.85512 0.32657 0.21972
 C528 C 0.85291 0.29896 0.30806
 C529 C 0.83931 0.28143 0.34701
 C530 C 0.91564 0.39102 0.14765
 C531 C 0.92871 0.41289 0.11720
   
