data_POSCAR
  _audit_creation_date              2014-09-24
  _audit_creation_method            'ToBaCCo'
  _symmetry_space_group_name_H-M    'P1'
  _symmetry_Int_Tables_number       1
  _symmetry_cell_setting            triclinic
  loop_
  _symmetry_equiv_pos_as_xyz
 x,y,z
_cell_length_a 21.2414
_cell_length_b 19.1089
_cell_length_c 19.7631
_cell_angle_alpha 92.870100
_cell_angle_beta 93.842100
_cell_angle_gamma 90.619000
loop_
  _atom_site_label
  _atom_site_type_symbol
  _atom_site_fract_x
  _atom_site_fract_y
  _atom_site_fract_z
C1 C 0.28135 0.26299 0.21674
 N2 N 0.23509 0.31133 0.21520
 C3 C 0.18544 0.30512 0.25444
 N4 N 0.18168 0.24999 0.29511
 C5 C 0.22860 0.20212 0.29720
 N6 N 0.27781 0.20875 0.25744
 C7 C 0.67424 -0.18734 0.18457
 N8 N 0.71231 -0.23555 0.15679
 C9 C 0.76702 -0.25346 0.19060
 N10 N 0.78454 -0.22191 0.25228
 C11 C 0.74613 -0.17374 0.28064
 N12 N 0.69119 -0.15632 0.24641
 C13 C 0.70345 0.26810 0.85292
 N14 N 0.71992 0.22177 0.80358
 C15 C 0.77605 0.22936 0.77485
 N16 N 0.81672 0.28249 0.79748
 C17 C 0.80072 0.32722 0.84914
 N18 N 0.74399 0.32057 0.87566
 C19 C 0.35024 -0.35344 0.72372
 N20 N 0.29680 -0.38544 0.74016
 C21 C 0.24169 -0.37593 0.70373
 N22 N 0.23955 -0.33298 0.65156
 C23 C 0.29234 -0.29892 0.63576
 N24 N 0.34832 -0.30905 0.67178
 C25 C 0.75075 -0.27315 0.83949
 N26 N 0.80869 -0.30031 0.85403
 C27 C 0.85836 -0.28340 0.81853
 N28 N 0.85032 -0.23811 0.76819
 C29 C 0.79240 -0.21163 0.75154
 N30 N 0.74191 -0.22873 0.78758
 C31 C 0.28607 0.20847 0.78538
 N32 N 0.28777 0.16050 0.73268
 C33 C 0.23716 0.15197 0.68676
 N34 N 0.18477 0.19151 0.69394
 C35 C 0.18270 0.23871 0.74743
 N36 N 0.23368 0.24726 0.79235
 C37 C 0.26413 -0.26193 0.09300
 N38 N 0.21289 -0.30440 0.07626
 C39 C 0.17200 -0.31939 0.12400
 N40 N 0.18166 -0.29025 0.18810
 C41 C 0.23272 -0.24787 0.20515
 N42 N 0.27349 -0.23345 0.15730
 C43 C 0.66733 0.29432 0.25072
 N44 N 0.66919 0.24199 0.29429
 C45 C 0.71604 0.23898 0.34363
 N46 N 0.76249 0.28911 0.34919
 C47 C 0.76111 0.34219 0.30529
 N48 N 0.71308 0.34499 0.25634
 O49 O 0.33531 0.02678 0.39863
 O50 O 0.36620 -0.11949 0.50795
 O51 O 0.34224 -0.10656 0.37656
 O52 O 0.34352 0.01386 0.52960
 O53 O 0.24058 -0.00227 0.53268
 O54 O 0.23944 -0.12200 0.38167
 O55 O 0.26336 -0.13576 0.51119
 O56 O 0.23215 0.01363 0.40340
 Cu57 Cu 0.35712 -0.04503 0.45310
 Cu58 Cu 0.23372 -0.06358 0.45792
 C59 C 0.27951 0.04522 0.38237
 C60 C 0.31990 -0.15280 0.52806
 C61 C 0.28995 -0.13365 0.35247
 C62 C 0.29170 0.02712 0.55623
 O63 O 0.80378 0.06358 0.62099
 O64 O 0.78602 -0.05712 0.46741
 O65 O 0.80544 0.07819 0.49199
 O66 O 0.79184 -0.07100 0.60131
 O67 O 0.68819 -0.06158 0.59831
 O68 O 0.70175 0.08862 0.48759
 O69 O 0.68261 -0.04571 0.46672
 O70 O 0.69982 0.07130 0.61825
 Cu71 Cu 0.80718 0.00138 0.54527
 Cu72 Cu 0.68279 0.01419 0.54189
 C73 C 0.75391 0.08680 0.64586
 C74 C 0.73073 -0.07062 0.44049
 C75 C 0.75584 0.10911 0.47136
 C76 C 0.73868 -0.09006 0.62073
 O77 O 0.40697 0.37463 0.06845
 O78 O 0.53384 0.37156 -0.04844
 O79 O 0.41026 0.35237 -0.06153
 O80 O 0.53006 0.38640 0.08110
 O81 O 0.53775 0.27189 0.08991
 O82 O 0.42185 0.23827 -0.05395
 O83 O 0.54412 0.25747 -0.03893
 O84 O 0.41636 0.26036 0.07715
 Cu85 Cu 0.46901 0.38251 0.00830
 Cu86 Cu 0.48054 0.24533 0.01907
 C87 C 0.39035 0.31791 0.09303
 C88 C 0.56206 0.31493 -0.06138
 C89 C 0.39538 0.28976 -0.08144
 C90 C 0.55459 0.33405 0.10944
 O91 O 0.53595 0.84305 0.00312
 O92 O 0.47271 0.73515 -0.14664
 O93 O 0.42143 0.80679 -0.05076
 O94 O 0.58492 0.76174 -0.09287
 O95 O 0.57899 0.67100 -0.02811
 O96 O 0.41885 0.71801 0.01611
 O97 O 0.47308 0.64253 -0.08371
 O98 O 0.53905 0.74984 0.06505
 Cu99 Cu 0.50394 0.79669 -0.07703
 Cu100 Cu 0.49958 0.68750 -0.00030
 C101 C 0.55019 0.81456 0.05868
 C102 C 0.46439 0.66991 -0.14090
 C103 C 0.39211 0.76950 -0.01126
 C104 C 0.60847 0.70630 -0.06889
 O105 O 0.03028 0.49129 0.26502
 O106 O -0.09062 0.62186 0.21217
 O107 O -0.08360 0.52308 0.30221
 O108 O 0.02939 0.60174 0.19264
 O109 O -0.00784 0.53025 0.10754
 O110 O -0.11950 0.44854 0.21931
 O111 O -0.12226 0.54857 0.12621
 O112 O -0.00375 0.42337 0.17603
 Cu113 Cu -0.02588 0.56631 0.25207
 Cu114 Cu -0.06870 0.47981 0.15130
 C115 C 0.03475 0.43624 0.22664
 C116 C -0.12563 0.60719 0.15817
 C117 C -0.11974 0.47239 0.28071
 C118 C 0.03029 0.57894 0.13125
 O119 O 0.12393 0.53088 0.86692
 O120 O -0.02371 0.46563 0.92425
 O121 O 0.08315 0.40395 0.87912
 O122 O 0.02521 0.58302 0.89890
 O123 O -0.02795 0.56878 0.79890
 O124 O 0.04954 0.39735 0.77080
 O125 O -0.05993 0.43835 0.81866
 O126 O 0.08073 0.52612 0.76120
 Cu127 Cu 0.05526 0.49261 0.90291
 Cu128 Cu 0.00534 0.48079 0.77667
 C129 C 0.12650 0.54239 0.80452
 C130 C -0.06676 0.44095 0.88212
 C131 C 0.08198 0.37332 0.82057
 C132 C -0.01177 0.60637 0.85249
 N133 N 0.33157 0.26572 0.17278
 N134 N 0.34125 0.31882 0.13855
 N135 N 0.62473 0.83425 0.14902
 N136 N 0.57947 0.85620 0.11434
 N137 N 0.64380 0.26231 -0.11914
 N138 N 0.61752 0.31753 -0.09736
 N139 N 0.40194 0.63805 -0.23811
 N140 N 0.44828 0.62602 -0.19988
 N141 N 0.13385 0.34991 0.24432
 N142 N 0.08754 0.39012 0.23520
 N143 N 0.18525 0.59265 0.72282
 N144 N 0.18193 0.57395 0.78318
 N145 N -0.19699 0.70058 0.16182
 N146 N -0.16715 0.65731 0.12913
 N147 N -0.15950 0.37451 0.87671
 N148 N -0.12441 0.41902 0.90730
 N149 N 0.22698 0.14459 0.34041
 N150 N 0.27124 0.10040 0.33729
 N151 N 0.78868 0.18511 0.71727
 N152 N 0.75738 0.12838 0.70751
 N153 N 0.28611 -0.24945 0.58442
 N154 N 0.33111 -0.20940 0.57131
 N155 N 0.76425 -0.13919 0.34495
 N156 N 0.72099 -0.11133 0.37826
 N157 N 0.70452 0.70703 -0.12486
 N158 N 0.66790 0.67998 -0.08764
 N159 N 0.33952 0.21974 -0.16753
 N160 N 0.34583 0.27766 -0.13296
 N161 N 0.29830 0.76064 0.04545
 N162 N 0.32797 0.78589 0.00063
 N163 N 0.61848 0.29227 0.19771
 N164 N 0.60240 0.34445 0.16339
 N165 N -0.08537 0.69523 0.83814
 N166 N -0.03285 0.67687 0.86040
 N167 N -0.19749 0.39362 0.31437
 N168 N -0.15996 0.44296 0.32776
 N169 N 0.13051 0.28488 0.75333
 N170 N 0.12381 0.31623 0.81072
 N171 N 0.12113 0.64272 0.10668
 N172 N 0.07389 0.60727 0.08712
 N173 N 0.78754 -0.16328 0.69855
 N174 N 0.73616 -0.14132 0.67107
 N175 N 0.23892 -0.21231 0.27062
 N176 N 0.28762 -0.17511 0.29016
 N177 N 0.71425 0.18325 0.38916
 N178 N 0.76129 0.16634 0.42798
 N179 N 0.23927 0.10299 0.63001
 N180 N 0.29094 0.07655 0.61280
   
