data_POSCAR
  _audit_creation_date              2014-09-24
  _audit_creation_method            'ToBaCCo'
  _symmetry_space_group_name_H-M    'P1'
  _symmetry_Int_Tables_number       1
  _symmetry_cell_setting            triclinic
  loop_
  _symmetry_equiv_pos_as_xyz
 x,y,z
_cell_length_a 36.1068
_cell_length_b 24.7834
_cell_length_c 24.7836
_cell_angle_alpha 90.006200
_cell_angle_beta 89.987300
_cell_angle_gamma 90.014700
loop_
  _atom_site_label
  _atom_site_type_symbol
  _atom_site_fract_x
  _atom_site_fract_y
  _atom_site_fract_z
C1 C 1.24990 0.24992 0.24993
 C2 C 0.74999 -0.24996 0.24965
 C3 C 0.75000 0.24989 -0.25023
 C4 C 1.25007 -0.25031 -0.25021
 C5 C 0.24993 0.25027 0.74935
 C6 C 0.74989 0.75011 0.74974
 C7 C 0.75005 0.24995 0.24960
 C8 C 0.24998 0.75006 0.24962
 O9 O 1.05239 0.09063 0.10036
 O10 O 1.09336 0.04365 0.04739
 C11 C 1.08578 0.07751 0.08579
 O12 O 0.94837 -0.10046 0.09211
 O13 O 0.90753 -0.04788 0.04461
 C14 C 0.91501 -0.08608 0.07869
 O15 O 1.05243 -0.09506 0.09800
 O16 O 1.09343 -0.04651 0.04654
 C17 C 1.08589 -0.08153 0.08397
 O18 O 0.94845 0.09665 0.09477
 O19 O 0.90754 0.04566 0.04565
 C20 C 0.91506 0.08291 0.08080
 Zr21 Zr 1.00043 0.06658 0.06914
 O22 O 0.99686 0.06583 0.15436
 O23 O 1.00477 0.15178 0.06977
 Zr24 Zr 1.00040 -0.06935 0.06785
 O25 O 0.99843 -0.06485 0.15295
 O26 O 1.00407 -0.15456 0.06991
 O27 O 1.03352 -0.00159 0.07896
 O28 O 0.96805 -0.00152 0.07834
 O29 O 0.94839 0.09863 -0.09218
 O30 O 0.90749 0.04647 -0.04435
 C31 C 0.91498 0.08442 -0.07876
 O32 O 1.05239 -0.09296 -0.09911
 O33 O 1.09333 -0.04535 -0.04678
 C34 C 1.08577 -0.07952 -0.08486
 O35 O 0.94837 -0.09824 -0.09395
 O36 O 0.90749 -0.04691 -0.04515
 C37 C 0.91499 -0.08427 -0.08018
 O38 O 1.05200 0.09377 -0.09784
 O39 O 1.09288 0.04510 -0.04660
 C40 C 1.08535 0.08004 -0.08401
 Zr41 Zr 1.00038 0.06810 -0.06706
 O42 O 0.99614 0.06947 -0.15224
 O43 O 1.00466 0.15330 -0.06532
 Zr44 Zr 1.00040 -0.06820 -0.06848
 O45 O 0.99618 -0.06754 -0.15369
 O46 O 1.00461 -0.15341 -0.06925
 Zr47 Zr 1.05563 -0.00088 0.00031
 Zr48 Zr 0.94527 -0.00069 0.00024
 O49 O 0.96823 0.00005 -0.07778
 O50 O 1.03345 0.00003 -0.07841
 O51 O 0.96735 0.07806 0.00115
 O52 O 1.03257 -0.07883 -0.00040
 O53 O 1.03269 0.07719 0.00115
 O54 O 0.96739 -0.07942 -0.00045
 H55 H 0.95123 -0.00185 0.10993
 H56 H 1.04926 -0.11056 -0.00063
 H57 H 0.95147 0.00036 -0.10943
 H58 H 1.04951 0.10878 0.00154
 H59 H 0.98570 -0.16869 0.04391
 H60 H 0.98367 -0.16784 -0.04793
 H61 H 1.01690 -0.04554 -0.16774
 H62 H 1.01615 0.04640 -0.16673
 H63 H 0.98350 0.16720 -0.04414
 H64 H 0.98393 0.16621 0.04828
 H65 H 1.01372 0.03716 0.16734
 H66 H 0.99846 -0.10263 0.16603
 O67 O 1.05221 0.59281 0.59860
 O68 O 1.09312 0.54539 0.54602
 C69 C 1.08558 0.57942 0.58427
 O70 O 0.94831 0.40154 0.59164
 O71 O 0.90740 0.45360 0.54379
 C72 C 0.91491 0.41569 0.57823
 O73 O 1.05225 0.40690 0.59657
 O74 O 1.09315 0.45564 0.54521
 C75 C 1.08563 0.42069 0.58263
 O76 O 0.94827 0.59871 0.59296
 O77 O 0.90736 0.54705 0.54451
 C78 C 0.91488 0.58456 0.57939
 Zr79 Zr 1.00022 0.56856 0.56748
 O80 O 0.99645 0.57070 0.65268
 O81 O 1.00218 0.65366 0.56296
 Zr82 Zr 1.00025 0.43218 0.56644
 O83 O 0.99607 0.43129 0.65165
 O84 O 1.00452 0.34698 0.56548
 O85 O 1.03323 0.50030 0.57760
 O86 O 0.96809 0.50026 0.57701
 O87 O 0.94827 0.60088 0.40746
 O88 O 0.90739 0.54783 0.45453
 C89 C 0.91489 0.58624 0.42066
 O90 O 1.05223 0.40874 0.39952
 O91 O 1.09312 0.45647 0.45182
 C92 C 1.08559 0.42220 0.41380
 O93 O 0.94829 0.40310 0.40487
 O94 O 0.90741 0.45433 0.45373
 C95 C 0.91491 0.41694 0.41873
 O96 O 1.05230 0.59568 0.40147
 O97 O 1.09318 0.54651 0.45240
 C98 C 1.08572 0.58179 0.41521
 Zr99 Zr 1.00027 0.56971 0.43147
 O100 O 0.99601 0.56993 0.34626
 O101 O 1.00370 0.65494 0.43198
 Zr102 Zr 1.00024 0.43347 0.43015
 O103 O 0.99592 0.43444 0.34497
 O104 O 1.00455 0.34829 0.42908
 Zr105 Zr 1.05538 0.50099 0.49887
 Zr106 Zr 0.94512 0.50080 0.49904
 O107 O 0.96801 0.50167 0.42094
 O108 O 1.03331 0.50172 0.42012
 O109 O 0.96715 0.57950 0.49966
 O110 O 1.03245 0.42292 0.49818
 O111 O 1.03258 0.57906 0.49962
 O112 O 0.96722 0.42208 0.49824
 H113 H 0.95139 0.50005 0.60874
 H114 H 1.04924 0.39130 0.49788
 H115 H 0.95116 0.50199 0.38939
 H116 H 1.04940 0.61065 0.49996
 H117 H 0.98368 0.33296 0.54370
 H118 H 0.98417 0.33382 0.45147
 H119 H 1.01658 0.45661 0.33098
 H120 H 1.01715 0.54902 0.33191
 H121 H 0.98707 0.66791 0.46095
 H122 H 1.00218 0.66676 0.60074
 H123 H 1.01487 0.54482 0.66687
 H124 H 1.01680 0.45303 0.66607
 O125 O 0.55161 0.09163 0.59852
 O126 O 0.59253 0.04404 0.54613
 C127 C 0.58502 0.07831 0.58423
 O128 O 0.44804 -0.10048 0.59164
 O129 O 0.40719 -0.04828 0.54397
 C130 C 0.41470 -0.08628 0.57823
 O131 O 0.55164 -0.09474 0.59657
 O132 O 0.59252 -0.04588 0.54534
 C133 C 0.58502 -0.08088 0.58271
 O134 O 0.44764 0.09721 0.59276
 O135 O 0.40666 0.04561 0.54432
 C136 C 0.41424 0.08316 0.57916
 Zr137 Zr 0.49959 0.06698 0.56748
 O138 O 0.49576 0.06873 0.65269
 O139 O 0.50154 0.15209 0.56316
 Zr140 Zr 0.49965 -0.06934 0.56640
 O141 O 0.49538 -0.06970 0.65162
 O142 O 0.50398 -0.15453 0.56576
 O143 O 0.53263 -0.00125 0.57766
 O144 O 0.46740 -0.00127 0.57686
 O145 O 0.44771 0.09931 0.40754
 O146 O 0.40667 0.04628 0.45437
 C147 C 0.41429 0.08475 0.42062
 O148 O 0.55163 -0.09276 0.39948
 O149 O 0.59250 -0.04512 0.45195
 C150 C 0.58500 -0.07930 0.41383
 O151 O 0.44750 -0.09826 0.40439
 O152 O 0.40661 -0.04714 0.45336
 C153 C 0.41408 -0.08441 0.41817
 O154 O 0.55166 0.09378 0.40154
 O155 O 0.59252 0.04470 0.45258
 C156 C 0.58503 0.07986 0.41534
 Zr157 Zr 0.49969 0.06803 0.43152
 O158 O 0.49545 0.06843 0.34631
 O159 O 0.50319 0.15325 0.43193
 Zr160 Zr 0.49956 -0.06820 0.43015
 O161 O 0.49541 -0.06777 0.34495
 O162 O 0.50382 -0.15341 0.42974
 Zr163 Zr 0.55476 -0.00062 0.49896
 Zr164 Zr 0.44440 -0.00070 0.49886
 O165 O 0.46741 0.00006 0.42084
 O166 O 0.53267 0.00002 0.42019
 O167 O 0.46655 0.07794 0.49962
 O168 O 0.53182 -0.07869 0.49818
 O169 O 0.53196 0.07743 0.49965
 O170 O 0.46653 -0.07943 0.49819
 H171 H 0.45070 -0.00147 0.60858
 H172 H 0.54862 -0.11029 0.49792
 H173 H 0.45061 0.00047 0.38923
 H174 H 0.54876 0.10905 0.49995
 H175 H 0.48370 -0.16855 0.54289
 H176 H 0.48272 -0.16780 0.45073
 H177 H 0.51572 -0.04493 0.33097
 H178 H 0.51649 0.04731 0.33193
 H179 H 0.48668 0.16627 0.46102
 H180 H 0.50141 0.16513 0.60096
 H181 H 0.51461 0.04350 0.66684
 H182 H 0.51636 -0.04845 0.66601
 O183 O 0.55164 0.59261 0.10006
 O184 O 0.59248 0.54490 0.04767
 C185 C 0.58500 0.57912 0.08575
 O186 O 0.44761 0.40086 0.09244
 O187 O 0.40668 0.45326 0.04490
 C188 C 0.41423 0.41510 0.07900
 O189 O 0.55165 0.40622 0.09799
 O190 O 0.59253 0.45507 0.04670
 C191 C 0.58503 0.42002 0.08403
 O192 O 0.44791 0.59851 0.09553
 O193 O 0.40710 0.54729 0.04672
 C194 C 0.41453 0.58464 0.08182
 Zr195 Zr 0.49961 0.56789 0.06942
 O196 O 0.49542 0.56673 0.15463
 O197 O 0.50392 0.65308 0.07019
 Zr198 Zr 0.49962 0.43167 0.06793
 O199 O 0.49531 0.43097 0.15313
 O200 O 0.50389 0.34648 0.06737
 O201 O 0.53268 0.49968 0.07929
 O202 O 0.46737 0.49964 0.07857
 O203 O 0.44760 0.59986 -0.09158
 O204 O 0.40668 0.54750 -0.04392
 C205 C 0.41423 0.58555 -0.07815
 O206 O 0.55167 0.40813 -0.09897
 O207 O 0.59254 0.45593 -0.04676
 C208 C 0.58506 0.42155 -0.08475
 O209 O 0.44769 0.40297 -0.09363
 O210 O 0.40666 0.45421 -0.04495
 C211 C 0.41427 0.41684 -0.07994
 O212 O 0.55161 0.59470 -0.09708
 O213 O 0.59252 0.54597 -0.04578
 C214 C 0.58500 0.58093 -0.08318
 Zr215 Zr 0.49961 0.56937 -0.06679
 O216 O 0.49536 0.57066 -0.15197
 O217 O 0.50390 0.65457 -0.06561
 Zr218 Zr 0.49970 0.43316 -0.06828
 O219 O 0.49547 0.43417 -0.15348
 O220 O 0.50393 0.34796 -0.06940
 Zr221 Zr 0.55477 0.50050 0.00050
 Zr222 Zr 0.44440 0.50044 0.00054
 O223 O 0.46745 0.50132 -0.07748
 O224 O 0.53270 0.50140 -0.07824
 O225 O 0.46651 0.57921 0.00143
 O226 O 0.53185 0.42246 -0.00028
 O227 O 0.53183 0.57856 0.00140
 O228 O 0.46661 0.42173 -0.00031
 H229 H 0.45058 0.49928 0.11020
 H230 H 0.54862 0.39082 -0.00062
 H231 H 0.45070 0.50162 -0.10915
 H232 H 0.54864 0.61017 0.00171
 H233 H 0.48350 0.33245 0.04471
 H234 H 0.48335 0.33348 -0.04738
 H235 H 0.51627 0.45608 -0.16745
 H236 H 0.51571 0.54825 -0.16647
 H237 H 0.48293 0.66855 -0.04406
 H238 H 0.48338 0.66750 0.04808
 H239 H 0.51614 0.54467 0.16853
 H240 H 0.51616 0.45244 0.16758
 C241 C 1.17513 0.15721 0.16756
 C242 C 1.13860 0.16457 0.18469
 C243 C 1.10971 0.13808 0.15848
 C244 C 1.22605 0.21424 0.21827
 C245 C 1.15384 0.09581 0.09799
 C246 C 1.18282 0.12258 0.12437
 C247 C 1.20400 0.18695 0.19407
 C248 C 1.11690 0.10367 0.11455
 H249 H 1.13238 0.19136 0.21806
 H250 H 1.08170 0.14499 0.17248
 H251 H 1.16031 0.06963 0.06430
 H252 H 1.21105 0.11673 0.11077
 C253 C 1.17508 0.65809 0.66667
 C254 C 1.13849 0.66658 0.68297
 C255 C 1.10953 0.64049 0.65651
 C256 C 1.22618 0.71426 0.71793
 C257 C 1.15371 0.59648 0.59736
 C258 C 1.18275 0.62283 0.62400
 C259 C 1.20406 0.68731 0.69350
 C260 C 1.11672 0.60539 0.61314
 H261 H 1.13228 0.69388 0.71593
 H262 H 1.08148 0.64824 0.66989
 H263 H 1.16018 0.56972 0.56412
 H264 H 1.21103 0.61611 0.61104
 C265 C 0.67464 0.15837 0.66610
 C266 C 0.63795 0.16726 0.68184
 C267 C 0.60900 0.14078 0.65558
 C268 C 0.72596 0.21459 0.71759
 C269 C 0.65328 0.09555 0.59762
 C270 C 0.68232 0.12228 0.62406
 C271 C 0.70372 0.18771 0.69304
 C272 C 0.61621 0.10479 0.61291
 H273 H 0.63166 0.19513 0.71429
 H274 H 0.58092 0.14889 0.66859
 H275 H 0.65982 0.06815 0.56493
 H276 H 0.71063 0.11513 0.61148
 C277 C 0.67477 0.65814 0.16725
 C278 C 0.63823 0.66675 0.18373
 C279 C 0.60917 0.64055 0.15758
 C280 C 0.72607 0.71447 0.21796
 C281 C 0.65316 0.59620 0.09839
 C282 C 0.68229 0.62265 0.12471
 C283 C 0.70387 0.68744 0.19376
 C284 C 0.61621 0.60522 0.11435
 H285 H 0.63213 0.69422 0.21659
 H286 H 0.58116 0.64839 0.17109
 H287 H 0.65953 0.56927 0.06525
 H288 H 0.71053 0.61583 0.11161
 C289 C 0.82523 -0.16761 0.15770
 C290 C 0.86178 -0.18403 0.16637
 C291 C 0.89084 -0.15789 0.14016
 C292 C 0.77391 -0.21827 0.21408
 C293 C 0.84684 -0.09886 0.09564
 C294 C 0.81771 -0.12517 0.12211
 C295 C 0.79613 -0.19409 0.18703
 C296 C 0.88379 -0.11474 0.10474
 H297 H 0.86787 -0.21681 0.19392
 H298 H 0.91885 -0.17132 0.14807
 H299 H 0.84047 -0.06578 0.06865
 H300 H 0.78947 -0.11212 0.11524
 C301 C 0.82530 0.33374 0.65830
 C302 C 0.81761 0.37581 0.62226
 C303 C 0.84665 0.40231 0.59555
 C304 C 0.77401 0.28211 0.71446
 C305 C 0.89093 0.34436 0.64073
 C306 C 0.86199 0.31805 0.66719
 C307 C 0.79623 0.30672 0.68760
 C308 C 0.88372 0.38705 0.60477
 H309 H 0.78930 0.38836 0.61512
 H310 H 0.84009 0.43499 0.56817
 H311 H 0.91902 0.33136 0.64882
 H312 H 0.86830 0.28559 0.69502
 C313 C 0.32518 -0.16776 0.65783
 C314 C 0.31754 -0.12521 0.62240
 C315 C 0.34659 -0.09889 0.59575
 C316 C 0.27402 -0.21857 0.71433
 C317 C 0.39070 -0.15810 0.63977
 C318 C 0.36174 -0.18425 0.66617
 C319 C 0.29618 -0.19431 0.68727
 C320 C 0.38355 -0.11487 0.60451
 H321 H 0.28928 -0.11212 0.61579
 H322 H 0.34015 -0.06574 0.56888
 H323 H 0.41874 -0.17162 0.64740
 H324 H 0.36791 -0.21712 0.69358
 C325 C 0.32478 0.33275 0.15787
 C326 C 0.31710 0.37563 0.12287
 C327 C 0.34613 0.40225 0.09644
 C328 C 0.27375 0.28165 0.21433
 C329 C 0.39029 0.34266 0.13984
 C330 C 0.36135 0.31622 0.16600
 C331 C 0.29584 0.30600 0.18724
 C332 C 0.38310 0.38624 0.10502
 H333 H 0.28884 0.38878 0.11643
 H334 H 0.33966 0.43565 0.06990
 H335 H 0.41833 0.32909 0.14731
 H336 H 0.36756 0.28310 0.19310
 C337 C 0.82535 0.16618 -0.15882
 C338 C 0.86203 0.18198 -0.16768
 C339 C 0.89098 0.15573 -0.14122
 C340 C 0.77403 0.21770 -0.21496
 C341 C 0.84672 0.09766 -0.09607
 C342 C 0.81768 0.12409 -0.12278
 C343 C 0.79626 0.19313 -0.18811
 C344 C 0.88378 0.11302 -0.10528
 H345 H 0.86831 0.21446 -0.19550
 H346 H 0.91906 0.16881 -0.14930
 H347 H 0.84019 0.06494 -0.06871
 H348 H 0.78937 0.11146 -0.11566
 C349 C 0.82515 0.66775 0.34168
 C350 C 0.81763 0.62487 0.37676
 C351 C 0.84675 0.59857 0.40323
 C352 C 0.77389 0.71837 0.28523
 C353 C 0.89070 0.65848 0.35974
 C354 C 0.86166 0.68461 0.33352
 C355 C 0.79608 0.69420 0.31230
 C356 C 0.88368 0.61489 0.39463
 H357 H 0.78942 0.61148 0.38323
 H358 H 0.84039 0.56515 0.42982
 H359 H 0.91870 0.67225 0.35223
 H360 H 0.86774 0.71773 0.30636
 C361 C 0.32487 0.16721 0.34189
 C362 C 0.31719 0.12414 0.37666
 C363 C 0.34621 0.09750 0.40304
 C364 C 0.27381 0.21826 0.28549
 C365 C 0.39037 0.15745 0.36006
 C366 C 0.36144 0.18392 0.33395
 C367 C 0.29593 0.19395 0.31254
 C368 C 0.38318 0.11367 0.39464
 H369 H 0.28893 0.11085 0.38293
 H370 H 0.33973 0.06393 0.42938
 H371 H 0.41841 0.17114 0.35274
 H372 H 0.36765 0.21718 0.30702
 C373 C 0.32483 0.66701 -0.15791
 C374 C 0.36137 0.68384 -0.16575
 C375 C 0.39029 0.65771 -0.13928
 C376 C 0.27387 0.71785 -0.21466
 C377 C 0.34615 0.59783 -0.09614
 C378 C 0.31715 0.62414 -0.12288
 C379 C 0.29591 0.69355 -0.18749
 C380 C 0.38310 0.61414 -0.10443
 H381 H 0.36758 0.71697 -0.19285
 H382 H 0.41831 0.67150 -0.14653
 H383 H 0.33968 0.56441 -0.06960
 H384 H 0.28890 0.61078 -0.11665
 C385 C 1.17518 -0.15846 -0.16719
 C386 C 1.18288 -0.12341 -0.12434
 C387 C 1.15387 -0.09699 -0.09771
 C388 C 1.22621 -0.21479 -0.21841
 C389 C 1.10968 -0.14052 -0.15721
 C390 C 1.13861 -0.16667 -0.18366
 C391 C 1.20413 -0.18776 -0.19400
 C392 C 1.11689 -0.10562 -0.11367
 H393 H 1.21116 -0.11692 -0.11125
 H394 H 1.16035 -0.07040 -0.06434
 H395 H 1.08163 -0.14803 -0.17073
 H396 H 1.13238 -0.19380 -0.21675
 C397 C 1.17502 0.34236 0.33236
 C398 C 1.18269 0.37746 0.37517
 C399 C 1.15368 0.40424 0.40147
 C400 C 1.22602 0.28551 0.28163
 C401 C 1.10955 0.36100 0.34167
 C402 C 1.13847 0.33449 0.31556
 C403 C 1.20394 0.31272 0.30585
 C404 C 1.11673 0.39592 0.38520
 H405 H 1.21094 0.38371 0.38851
 H406 H 1.16014 0.43083 0.43485
 H407 H 1.08153 0.35372 0.32791
 H408 H 1.13227 0.30734 0.28247
 C409 C 0.67476 -0.15817 0.33216
 C410 C 0.68229 -0.12271 0.37473
 C411 C 0.65316 -0.09633 0.40112
 C412 C 0.72607 -0.21440 0.28135
 C413 C 0.60916 -0.14070 0.34195
 C414 C 0.63822 -0.16682 0.31573
 C415 C 0.70386 -0.18741 0.30559
 C416 C 0.61621 -0.10539 0.38520
 H417 H 0.71054 -0.11587 0.38779
 H418 H 0.65954 -0.06941 0.43427
 H419 H 0.58115 -0.14855 0.32848
 H420 H 0.63212 -0.19428 0.28286
 C421 C 0.67470 0.34144 -0.16652
 C422 C 0.68236 0.37735 -0.12432
 C423 C 0.65332 0.40411 -0.09790
 C424 C 0.72599 0.28520 -0.21801
 C425 C 0.60908 0.35924 -0.15621
 C426 C 0.63803 0.33275 -0.18244
 C427 C 0.70377 0.31209 -0.19345
 C428 C 0.61627 0.39505 -0.11337
 H429 H 0.71066 0.38435 -0.11159
 H430 H 0.65985 0.43136 -0.06509
 H431 H 0.58101 0.35129 -0.16938
 H432 H 0.63175 0.30502 -0.21501
 C433 C 1.17478 0.15995 -0.16592
 C434 C 1.13808 0.16960 -0.18099
 C435 C 1.10917 0.14327 -0.15460
 C436 C 1.22594 0.21546 -0.21808
 C437 C 1.15356 0.09676 -0.09781
 C438 C 1.18256 0.12336 -0.12440
 C439 C 1.20379 0.18890 -0.19318
 C440 C 1.11647 0.10669 -0.11250
 H441 H 1.13175 0.19787 -0.21306
 H442 H 1.08106 0.15187 -0.16713
 H443 H 1.16014 0.06887 -0.06557
 H444 H 1.21092 0.11565 -0.11240
 C445 C 1.17568 0.66195 0.33353
 C446 C 1.13892 0.67263 0.31932
 C447 C 1.10987 0.64633 0.34564
 C448 C 1.22719 0.71714 0.28087
 C449 C 1.15413 0.59781 0.40080
 C450 C 1.18328 0.62435 0.37429
 C451 C 1.20493 0.69067 0.30607
 C452 C 1.11701 0.60868 0.38688
 H453 H 1.13265 0.70163 0.28789
 H454 H 1.08177 0.65576 0.33369
 H455 H 1.16066 0.56911 0.43234
 H456 H 1.21162 0.61574 0.38571
 C457 C 0.67474 0.15980 0.33413
 C458 C 0.63806 0.17001 0.31926
 C459 C 0.60905 0.14368 0.34542
 C460 C 0.72609 0.21515 0.28222
 C461 C 0.65328 0.09611 0.40159
 C462 C 0.68238 0.12268 0.37523
 C463 C 0.70387 0.18864 0.30704
 C464 C 0.61623 0.10656 0.38709
 H465 H 0.63185 0.19869 0.28750
 H466 H 0.58097 0.15271 0.33306
 H467 H 0.65977 0.06779 0.43349
 H468 H 0.71072 0.11454 0.38707
 C469 C 0.67462 0.66027 -0.16525
 C470 C 0.63792 0.67042 -0.18004
 C471 C 0.60894 0.64432 -0.15357
 C472 C 0.72593 0.71534 -0.21759
 C473 C 0.65324 0.59711 -0.09722
 C474 C 0.68231 0.62345 -0.12389
 C475 C 0.70372 0.68894 -0.19261
 C476 C 0.61616 0.60749 -0.11166
 H477 H 0.63166 0.69888 -0.21198
 H478 H 0.58084 0.65329 -0.16590
 H479 H 0.65977 0.56900 -0.06515
 H480 H 0.71066 0.61537 -0.11209
 C481 C 0.82526 -0.16542 -0.16013
 C482 C 0.81763 -0.12421 -0.12311
 C483 C 0.84674 -0.09788 -0.09654
 C484 C 0.77387 -0.21728 -0.21547
 C485 C 0.89094 -0.15428 -0.14391
 C486 C 0.86192 -0.18042 -0.17024
 C487 C 0.79611 -0.19247 -0.18898
 C488 C 0.88379 -0.11251 -0.10689
 H489 H 0.78931 -0.11226 -0.11504
 H490 H 0.84026 -0.06589 -0.06829
 H491 H 0.91902 -0.16675 -0.15286
 H492 H 0.86813 -0.21226 -0.19884
 C493 C 0.82528 0.33491 0.33949
 C494 C 0.81759 0.37631 0.37628
 C495 C 0.84668 0.40295 0.40262
 C496 C 0.77398 0.28263 0.28439
 C497 C 0.89095 0.34649 0.35545
 C498 C 0.86196 0.32004 0.32936
 C499 C 0.79617 0.30760 0.31081
 C500 C 0.88374 0.38845 0.39224
 H501 H 0.78925 0.38816 0.38435
 H502 H 0.84016 0.43506 0.43069
 H503 H 0.91905 0.33411 0.34649
 H504 H 0.86821 0.28808 0.30092
 C505 C 0.32416 -0.16598 0.33786
 C506 C 0.36092 -0.18039 0.32740
 C507 C 0.38996 -0.15411 0.35376
 C508 C 0.27272 -0.21862 0.28256
 C509 C 0.34568 -0.09861 0.40190
 C510 C 0.31655 -0.12508 0.37530
 C511 C 0.29493 -0.19341 0.30907
 C512 C 0.38280 -0.11272 0.39126
 H513 H 0.36721 -0.21194 0.29852
 H514 H 0.41806 -0.16622 0.34449
 H515 H 0.33914 -0.06695 0.43048
 H516 H 0.28821 -0.11350 0.38374
 C517 C 0.32496 0.33496 -0.16011
 C518 C 0.36168 0.31989 -0.16968
 C519 C 0.39055 0.34627 -0.14326
 C520 C 0.27387 0.28282 -0.21577
 C521 C 0.34609 0.40307 -0.09686
 C522 C 0.31713 0.37649 -0.12353
 C523 C 0.29599 0.30771 -0.18914
 C524 C 0.38319 0.38837 -0.10669
 H525 H 0.36804 0.28782 -0.19794
 H526 H 0.41867 0.33373 -0.15180
 H527 H 0.33947 0.43530 -0.06898
 H528 H 0.28876 0.38850 -0.11590
 C529 C 1.17574 -0.16191 0.16560
 C530 C 1.18338 -0.12445 0.12473
 C531 C 1.15427 -0.09785 0.09823
 C532 C 1.22720 -0.21709 0.21830
 C533 C 1.10995 -0.14603 0.15363
 C534 C 1.13896 -0.17240 0.17994
 C535 C 1.20496 -0.19065 0.19308
 C536 C 1.11714 -0.10850 0.11228
 H537 H 1.21173 -0.11598 0.11321
 H538 H 1.16084 -0.06925 0.06661
 H539 H 1.08183 -0.15532 0.16568
 H540 H 1.13265 -0.20129 0.21146
 C541 C 1.17502 0.34080 0.66452
 C542 C 1.13832 0.33129 0.67972
 C543 C 1.10943 0.35763 0.65333
 C544 C 1.22607 0.28518 0.71672
 C545 C 1.15383 0.40386 0.59628
 C546 C 1.18282 0.37726 0.62287
 C547 C 1.20399 0.31181 0.69178
 C548 C 1.11675 0.39406 0.61110
 H549 H 1.13198 0.30313 0.71188
 H550 H 1.08132 0.34912 0.66597
 H551 H 1.16043 0.43164 0.56395
 H552 H 1.21118 0.38485 0.61077
 C553 C 0.67464 -0.16007 0.66478
 C554 C 0.63795 -0.17030 0.67955
 C555 C 0.60896 -0.14424 0.65308
 C556 C 0.72595 -0.21511 0.71709
 C557 C 0.65326 -0.09691 0.59678
 C558 C 0.68234 -0.12321 0.62345
 C559 C 0.70375 -0.18871 0.69212
 C560 C 0.61619 -0.10737 0.61119
 H561 H 0.63169 -0.19879 0.71146
 H562 H 0.58086 -0.15327 0.66539
 H563 H 0.65979 -0.06877 0.56473
 H564 H 0.71069 -0.11507 0.61166
 C565 C 0.67473 0.34005 0.16511
 C566 C 0.63807 0.32994 0.18013
 C567 C 0.60905 0.35628 0.15401
 C568 C 0.72610 0.28472 0.21697
 C569 C 0.65327 0.40365 0.09760
 C570 C 0.68237 0.37707 0.12391
 C571 C 0.70387 0.31121 0.19216
 C572 C 0.61622 0.39330 0.11225
 H573 H 0.63185 0.30134 0.21196
 H574 H 0.58097 0.34733 0.16648
 H575 H 0.65976 0.43190 0.06563
 H576 H 0.71070 0.38514 0.11197
 C577 C 0.82540 0.16494 0.15997
 C578 C 0.86209 0.17948 0.17051
 C579 C 0.89110 0.15300 0.14448
 C580 C 0.77403 0.21730 0.21487
 C581 C 0.84681 0.09717 0.09658
 C582 C 0.81772 0.12384 0.12286
 C583 C 0.79626 0.19232 0.18853
 C584 C 0.88389 0.11136 0.10734
 H585 H 0.86833 0.21122 0.19920
 H586 H 0.91920 0.16513 0.15374
 H587 H 0.84029 0.06530 0.06822
 H588 H 0.78937 0.11224 0.11447
 C589 C 0.82520 0.66565 0.65950
 C590 C 0.86186 0.68074 0.66947
 C591 C 0.89087 0.65462 0.64309
 C592 C 0.77384 0.71749 0.71493
 C593 C 0.84664 0.59807 0.59593
 C594 C 0.81755 0.62438 0.62256
 C595 C 0.79607 0.69269 0.68840
 C596 C 0.88369 0.61278 0.60614
 H597 H 0.86808 0.71262 0.69802
 H598 H 0.91895 0.66714 0.65195
 H599 H 0.84015 0.56603 0.56775
 H600 H 0.78922 0.61237 0.61459
 C601 C 0.32490 0.16525 0.65904
 C602 C 0.36162 0.18019 0.66877
 C603 C 0.39050 0.15372 0.64246
 C604 C 0.27383 0.21761 0.71452
 C605 C 0.34604 0.09708 0.59586
 C606 C 0.31707 0.12375 0.62242
 C607 C 0.29593 0.19261 0.68796
 C608 C 0.38314 0.11166 0.60583
 H609 H 0.36798 0.21223 0.69707
 H610 H 0.41862 0.16617 0.65112
 H611 H 0.33942 0.06489 0.56792
 H612 H 0.28869 0.11184 0.61467
 C613 C 0.32446 0.66622 0.16178
 C614 C 0.31692 0.62536 0.12426
 C615 C 0.34611 0.59888 0.09780
 C616 C 0.27284 0.71882 0.21679
 C617 C 0.39030 0.65429 0.14622
 C618 C 0.36121 0.68058 0.17245
 C619 C 0.29515 0.69365 0.19041
 C620 C 0.38321 0.61294 0.10865
 H621 H 0.28860 0.61382 0.11565
 H622 H 0.33962 0.56726 0.06916
 H623 H 0.41839 0.66634 0.15565
 H624 H 0.36743 0.71209 0.20140
   
