data_POSCAR
  _audit_creation_date              2014-09-24
  _audit_creation_method            'ToBaCCo'
  _symmetry_space_group_name_H-M    'P1'
  _symmetry_Int_Tables_number       1
  _symmetry_cell_setting            triclinic
  loop_
  _symmetry_equiv_pos_as_xyz
 x,y,z
_cell_length_a 47.1165
_cell_length_b 46.3776
_cell_length_c 42.1619
_cell_angle_alpha 89.934800
_cell_angle_beta 90.089700
_cell_angle_gamma 84.726000
loop_
  _atom_site_label
  _atom_site_type_symbol
  _atom_site_fract_x
  _atom_site_fract_y
  _atom_site_fract_z
C1 C -0.08311 0.25211 -0.02362
 C2 C -0.08338 0.25330 0.00882
 C3 C -0.06025 0.26793 0.01786
 N4 N -0.04554 0.27515 -0.00808
 C5 C -0.05951 0.26544 -0.03341
 C6 C -0.05317 0.27486 0.04952
 C7 C -0.02595 0.28377 0.05722
 C8 C -0.01968 0.29878 0.08446
 C9 C 0.00909 0.30147 0.08406
 C10 C 0.01958 0.28852 0.05635
 N11 N -0.00188 0.27791 0.03998
 C12 C 0.04869 0.28520 0.04803
 C13 C 0.05847 0.27938 0.01684
 C14 C 0.08683 0.27406 0.00841
 C15 C 0.08748 0.27199 -0.02397
 C16 C 0.05937 0.27545 -0.03447
 N17 N 0.04177 0.28045 -0.00931
 C18 C 0.05051 0.27690 -0.06680
 C19 C 0.02120 0.28003 -0.07589
 C20 C 0.01096 0.28553 -0.10651
 C21 C -0.01795 0.28384 -0.10582
 C22 C -0.02479 0.27663 -0.07509
 N23 N -0.00093 0.27441 -0.05702
 C24 C -0.05196 0.26934 -0.06540
 H25 H -0.09827 0.24207 -0.03833
 H26 H -0.09869 0.24404 0.02396
 H27 H 0.00052 0.26567 -0.03435
 H28 H -0.03430 0.30690 0.10283
 H29 H 0.02097 0.31179 0.10213
 H30 H 0.10528 0.27253 0.02384
 H31 H 0.10676 0.26921 -0.03791
 H32 H -0.03213 0.28643 -0.12605
 H33 H 0.00037 0.26447 0.02023
 H34 H 0.02281 0.28926 -0.12779
 C35 C 0.41390 0.76171 0.49209
 C36 C 0.41419 0.76025 0.52460
 C37 C 0.43982 0.76980 0.53440
 N38 N 0.45509 0.77719 0.50902
 C39 C 0.43935 0.77210 0.48312
 C40 C 0.44815 0.77281 0.56635
 C41 C 0.47590 0.77879 0.57546
 C42 C 0.48334 0.78778 0.60547
 C43 C 0.51238 0.78915 0.60536
 C44 C 0.52188 0.78091 0.57531
 N45 N 0.49952 0.77460 0.55726
 C46 C 0.55080 0.77750 0.56600
 C47 C 0.55956 0.77448 0.53406
 C48 C 0.58723 0.76646 0.52428
 C49 C 0.58699 0.76740 0.49177
 C50 C 0.55920 0.77611 0.48277
 N51 N 0.54249 0.78051 0.50867
 C52 C 0.54992 0.78119 0.45120
 C53 C 0.52083 0.78609 0.44275
 C54 C 0.51086 0.79704 0.41378
 C55 C 0.48177 0.79609 0.41389
 C56 C 0.47477 0.78461 0.44293
 N57 N 0.49869 0.77862 0.46039
 C58 C 0.44716 0.77788 0.45157
 H59 H 0.39690 0.75573 0.47684
 H60 H 0.39746 0.75293 0.53930
 H61 H 0.50023 0.76667 0.48128
 H62 H 0.46933 0.79259 0.62547
 H63 H 0.52509 0.79519 0.62527
 H64 H 0.60567 0.76046 0.53901
 H65 H 0.60521 0.76222 0.47655
 H66 H 0.46744 0.80271 0.39459
 H67 H 0.50075 0.76466 0.53518
 H68 H 0.52329 0.80456 0.39440
 C69 C 1.08146 0.75129 -0.00875
 C70 C 1.08121 0.75271 0.02369
 C71 C 1.05957 0.73660 0.03389
 N72 N 1.04634 0.72564 0.00866
 C73 C 1.05999 0.73432 -0.01746
 C74 C 1.05256 0.73183 0.06609
 C75 C 1.02541 0.72329 0.07453
 C76 C 1.01885 0.71046 0.10307
 C77 C 0.98996 0.70827 0.10299
 C78 C 0.97977 0.71923 0.07417
 N79 N 1.00149 0.72813 0.05683
 C80 C 0.95078 0.72242 0.06534
 C81 C 0.94189 0.72569 0.03353
 C82 C 0.91401 0.73244 0.02361
 C83 C 0.91427 0.73088 -0.00888
 C84 C 0.94230 0.72320 -0.01759
 N85 N 0.95913 0.72003 0.00834
 C86 C 0.95173 0.71696 -0.04873
 C87 C 0.98089 0.71302 -0.05670
 C88 C 0.99160 0.69957 -0.08403
 C89 C 1.02048 0.70190 -0.08396
 C90 C 1.02651 0.71725 -0.05686
 N91 N 1.00229 0.72353 -0.04010
 C92 C 1.05345 0.72673 -0.04908
 H93 H 1.09548 0.76208 -0.02417
 H94 H 1.09500 0.76480 0.03808
 H95 H 1.00002 0.73716 -0.02047
 H96 H 1.03332 0.70359 0.12215
 H97 H 0.97782 0.69960 0.12197
 H98 H 0.89539 0.73760 0.03826
 H99 H 0.89590 0.73462 -0.02428
 H100 H 1.03528 0.69350 -0.10202
 H101 H 0.99960 0.73989 0.03574
 H102 H 0.97982 0.68922 -0.10216
 C103 C 0.58543 0.24216 0.47567
 C104 C 0.58541 0.24122 0.50820
 C105 C 0.55992 0.23086 0.51711
 N106 N 0.54447 0.22529 0.49114
 C107 C 0.55996 0.23234 0.46577
 C108 C 0.55187 0.22552 0.54871
 C109 C 0.52432 0.21853 0.55729
 C110 C 0.51728 0.20751 0.58655
 C111 C 0.48831 0.20573 0.58633
 C112 C 0.47844 0.21572 0.55695
 N113 N 0.50052 0.22352 0.53942
 C114 C 0.44945 0.21911 0.54786
 C115 C 0.44035 0.22369 0.51618
 C116 C 0.41237 0.23089 0.50686
 C117 C 0.41239 0.23184 0.47436
 C118 C 0.44039 0.22518 0.46490
 N119 N 0.45742 0.22007 0.49049
 C120 C 0.44951 0.22243 0.43306
 C121 C 0.47852 0.21959 0.42407
 C122 C 0.48841 0.21130 0.39419
 C123 C 0.51738 0.21306 0.39440
 C124 C 0.52440 0.22240 0.42442
 N125 N 0.50058 0.22638 0.44232
 C126 C 0.55197 0.22882 0.43378
 H127 H 0.60227 0.24931 0.46101
 H128 H 0.60223 0.24750 0.52352
 H129 H 0.49899 0.23646 0.46431
 H130 H 0.53150 0.20162 0.60616
 H131 H 0.47588 0.19822 0.60573
 H132 H 0.39384 0.23501 0.52189
 H133 H 0.39388 0.23684 0.45943
 H134 H 0.53162 0.20827 0.37460
 H135 H 0.49895 0.23486 0.51814
 H136 H 0.47600 0.20489 0.37420
 C137 C 0.68500 -0.08280 -0.01383
 C138 C 0.68430 -0.08178 0.01866
 C139 C 0.69984 -0.05914 0.02759
 N140 N 0.70950 -0.04588 0.00166
 C141 C 0.70093 -0.06073 -0.02366
 C142 C 0.70663 -0.05186 0.05915
 C143 C 0.71369 -0.02349 0.06608
 C144 C 0.72935 -0.01536 0.09198
 C145 C 0.72963 0.01428 0.09051
 C146 C 0.71443 0.02330 0.06357
 N147 N 0.70509 0.00018 0.04865
 C148 C 0.70797 0.05227 0.05390
 C149 C 0.70007 0.05892 0.02233
 C150 C 0.68648 0.08498 0.01202
 C151 C 0.68660 0.08395 -0.02050
 C152 C 0.70077 0.05747 -0.02885
 N153 N 0.70847 0.04197 -0.00259
 C154 C 0.70934 0.04890 -0.05987
 C155 C 0.71585 0.01911 -0.06679
 C156 C 0.73331 0.00799 -0.09118
 C157 C 0.73355 -0.02167 -0.08972
 C158 C 0.71618 -0.02789 -0.06454
 N159 N 0.70591 -0.00294 -0.05035
 C160 C 0.70955 -0.05589 -0.05522
 H161 H 0.67513 -0.09816 -0.02858
 H162 H 0.67366 -0.09611 0.03397
 H163 H 0.69106 -0.00101 -0.03195
 H164 H 0.73967 -0.02928 0.11001
 H165 H 0.73997 0.02758 0.10724
 H166 H 0.67789 0.10300 0.02644
 H167 H 0.67795 0.10102 -0.03622
 H168 H 0.74564 -0.03688 -0.10510
 H169 H 0.69123 0.00083 0.02928
 H170 H 0.74522 0.01990 -0.10784
 C171 C 0.18342 0.42322 0.48033
 C172 C 0.18304 0.42192 0.51287
 C173 C 0.19469 0.44647 0.52367
 N174 N 0.20202 0.46276 0.49892
 C175 C 0.19533 0.44850 0.47242
 C176 C 0.20124 0.45225 0.55559
 C177 C 0.20798 0.47995 0.56545
 C178 C 0.22166 0.48586 0.59354
 C179 C 0.22232 0.51544 0.59498
 C180 C 0.20903 0.52674 0.56773
 N181 N 0.20046 0.50497 0.54982
 C182 C 0.20368 0.55654 0.56058
 C183 C 0.19750 0.56626 0.52938
 C184 C 0.18706 0.59415 0.52099
 C185 C 0.18777 0.59539 0.48847
 C186 C 0.19857 0.56820 0.47817
 N187 N 0.20431 0.55040 0.50318
 C188 C 0.20608 0.56089 0.44659
 C189 C 0.21136 0.53175 0.43683
 C190 C 0.22536 0.52248 0.40926
 C191 C 0.22440 0.49293 0.40780
 C192 C 0.20986 0.48500 0.43455
 N193 N 0.20206 0.50876 0.45214
 C194 C 0.20272 0.45671 0.44146
 H195 H 0.17622 0.40715 0.46435
 H196 H 0.17550 0.40467 0.52696
 H197 H 0.18859 0.50962 0.47176
 H198 H 0.23029 0.47051 0.61120
 H199 H 0.23156 0.52722 0.61394
 H200 H 0.18019 0.61188 0.53667
 H201 H 0.18156 0.61427 0.47408
 H202 H 0.23342 0.47893 0.38918
 H203 H 0.18754 0.50729 0.52972
 H204 H 0.23527 0.53558 0.39197
 C205 C 0.26950 0.91807 0.02187
 C206 C 0.26962 0.91603 -0.01055
 C207 C 0.28351 0.93910 -0.02185
 N208 N 0.29131 0.95550 0.00258
 C209 C 0.28288 0.94255 0.02927
 C210 C 0.28998 0.94424 -0.05407
 C211 C 0.29679 0.97197 -0.06418
 C212 C 0.31176 0.97748 -0.09152
 C213 C 0.31234 1.00700 -0.09353
 C214 C 0.29773 1.01878 -0.06736
 N215 N 0.28876 0.99725 -0.04928
 C216 C 0.29194 1.04876 -0.06116
 C217 C 0.28553 1.05869 -0.03001
 C218 C 0.27084 1.08508 -0.02250
 C219 C 0.27087 1.08710 0.00988
 C220 C 0.28559 1.06189 0.02115
 N221 N 0.29418 1.04428 -0.00328
 C222 C 0.29152 1.05558 0.05351
 C223 C 0.29745 1.02652 0.06372
 C224 C 0.31036 1.01768 0.09219
 C225 C 0.30936 0.98817 0.09413
 C226 C 0.29641 0.97980 0.06654
 N227 N 0.28952 1.00318 0.04798
 C228 C 0.28875 0.95173 0.06024
 H229 H 0.26043 0.90335 0.03812
 H230 H 0.26039 0.89949 -0.02422
 H231 H 0.27693 1.00359 0.02761
 H232 H 0.32142 0.96184 -0.10823
 H233 H 0.32250 1.01847 -0.11209
 H234 H 0.26086 1.10109 -0.03868
 H235 H 0.26081 1.10493 0.02357
 H236 H 0.31699 0.97447 0.11372
 H237 H 0.27543 0.99992 -0.02958
 H238 H 0.31921 1.03110 0.10996
 C239 C 0.78222 0.40492 0.51107
 C240 C 0.78230 0.40617 0.47855
 C241 C 0.79329 0.43190 0.47041
 N242 N 0.80011 0.44627 0.49681
 C243 C 0.79317 0.42992 0.52169
 C244 C 0.79763 0.44136 0.43907
 C245 C 0.80449 0.46965 0.43174
 C246 C 0.81451 0.47816 0.40260
 C247 C 0.81560 0.50768 0.40399
 C248 C 0.80621 0.51637 0.43394
 N249 N 0.79960 0.49305 0.45073
 C250 C 0.80151 0.54547 0.44401
 C251 C 0.79736 0.55347 0.47610
 C252 C 0.78804 0.58105 0.48656
 C253 C 0.78762 0.57983 0.51906
 C254 C 0.79679 0.55156 0.52736
 N255 N 0.80290 0.53555 0.50107
 C256 C 0.80022 0.54111 0.55874
 C257 C 0.80547 0.51135 0.56602
 C258 C 0.81478 0.50040 0.59522
 C259 C 0.81400 0.47086 0.59381
 C260 C 0.80422 0.46459 0.56378
 N261 N 0.79926 0.48937 0.54693
 C262 C 0.79729 0.43700 0.55384
 H263 H 0.77470 0.38771 0.52522
 H264 H 0.77483 0.39010 0.46277
 H265 H 0.78832 0.49154 0.52552
 H266 H 0.81991 0.46459 0.38222
 H267 H 0.82201 0.52128 0.38490
 H268 H 0.78191 0.60002 0.47229
 H269 H 0.78107 0.59767 0.53472
 H270 H 0.81931 0.45577 0.61298
 H271 H 0.78869 0.49361 0.47214
 H272 H 0.82085 0.51253 0.61568
 O273 O 0.22939 0.28345 0.20233
 O274 O 0.29115 0.26439 0.25437
 O275 O 0.27157 0.24320 0.20229
 O276 O 0.24884 0.30470 0.25437
 O277 O 0.22441 0.27608 0.28348
 O278 O 0.24527 0.21524 0.22988
 O279 O 0.26584 0.23541 0.28186
 O280 O 0.20360 0.25594 0.23112
 Cu281 Cu 0.26280 0.27678 0.22552
 Cu282 Cu 0.23215 0.24289 0.25940
 C283 C 0.20596 0.27284 0.20771
 C284 C 0.28906 0.24663 0.27704
 C285 C 0.26204 0.21879 0.20693
 C286 C 0.23315 0.30073 0.27816
 O287 O 0.74899 0.79594 0.24500
 O288 O 0.77320 0.73433 0.29631
 O289 O 0.79216 0.75671 0.24457
 O290 O 0.72962 0.77305 0.29623
 O291 O 0.70518 0.74473 0.26683
 O292 O 0.76774 0.72766 0.21607
 O293 O 0.74844 0.70573 0.26763
 O294 O 0.72524 0.76716 0.21535
 Cu295 Cu 0.76342 0.76789 0.27345
 Cu296 Cu 0.73412 0.73349 0.23860
 C297 C 0.73338 0.79200 0.22110
 C298 C 0.76483 0.70954 0.29092
 C299 C 0.79058 0.73941 0.22139
 C300 C 0.70673 0.76149 0.29044
 O301 O 0.79375 0.24070 0.23053
 O302 O 0.73156 0.23197 0.28124
 O303 O 0.75254 0.20690 0.22992
 O304 O 0.77246 0.26587 0.28177
 O305 O 0.74620 0.29751 0.25248
 O306 O 0.72746 0.23899 0.19999
 O307 O 0.70545 0.26331 0.25146
 O308 O 0.76799 0.27297 0.20153
 Cu309 Cu 0.76518 0.23316 0.25880
 Cu310 Cu 0.73411 0.27136 0.22347
 C311 C 0.79152 0.25825 0.20730
 C312 C 0.70788 0.24626 0.27513
 C313 C 0.73695 0.21300 0.20578
 C314 C 0.76250 0.29177 0.27611
 O315 O 0.27023 0.77495 0.21816
 O316 O 0.25162 0.71538 0.27009
 O317 O 0.23013 0.74015 0.21882
 O318 O 0.29244 0.74965 0.26902
 O319 O 0.26646 0.78103 0.29872
 O320 O 0.20392 0.77147 0.24836
 O321 O 0.22606 0.74702 0.29995
 O322 O 0.24424 0.80619 0.24803
 Cu323 Cu 0.26374 0.74189 0.24106
 Cu324 Cu 0.23248 0.77956 0.27667
 C325 C 0.26021 0.80076 0.22413
 C326 C 0.23597 0.72118 0.29419
 C327 C 0.20641 0.75434 0.22479
 C328 C 0.29012 0.76673 0.29260
 O329 O 0.75161 0.19638 0.75611
 O330 O 0.77117 0.25571 0.70419
 O331 O 0.79274 0.23027 0.75524
 O332 O 0.73037 0.22164 0.70454
 O333 O 0.70440 0.25311 0.73413
 O334 O 0.76682 0.26194 0.78467
 O335 O 0.74522 0.28711 0.73391
 O336 O 0.72605 0.22834 0.78553
 Cu337 Cu 0.76404 0.22278 0.72706
 Cu338 Cu 0.73296 0.26075 0.76245
 C339 C 0.73583 0.20241 0.78007
 C340 C 0.76138 0.28160 0.71020
 C341 C 0.79043 0.24748 0.77873
 C342 C 0.70678 0.23614 0.71045
 O343 O 0.29362 0.73453 0.74615
 O344 O 0.23170 0.72674 0.79760
 O345 O 0.25163 0.70156 0.74600
 O346 O 0.27347 0.75958 0.79769
 O347 O 0.24716 0.79198 0.76940
 O348 O 0.22703 0.73425 0.71633
 O349 O 0.20581 0.75863 0.76826
 O350 O 0.26816 0.76758 0.71784
 Cu351 Cu 0.26518 0.72732 0.77472
 Cu352 Cu 0.23440 0.76634 0.74008
 C353 C 0.29151 0.75242 0.72322
 C354 C 0.20818 0.74147 0.79184
 C355 C 0.23596 0.70808 0.72203
 C356 C 0.26381 0.78566 0.79261
 O357 O 0.24910 0.29017 0.73181
 O358 O 0.27473 0.22692 0.77993
 O359 O 0.29228 0.25087 0.72865
 O360 O 0.23149 0.26535 0.78297
 O361 O 0.20521 0.24017 0.75187
 O362 O 0.26749 0.22170 0.70077
 O363 O 0.24758 0.19970 0.75244
 O364 O 0.22581 0.26212 0.70074
 Cu365 Cu 0.26443 0.26116 0.75872
 Cu366 Cu 0.23395 0.22811 0.72356
 C367 C 0.23365 0.28685 0.70762
 C368 C 0.26509 0.20265 0.77493
 C369 C 0.29036 0.23359 0.70552
 C370 C 0.20795 0.25535 0.77655
 O371 O 0.72965 0.75618 0.79706
 O372 O 0.75042 0.69407 0.74555
 O373 O 0.77101 0.71555 0.79689
 O374 O 0.70907 0.73527 0.74520
 O375 O 0.73514 0.76247 0.71635
 O376 O 0.79691 0.74289 0.76800
 O377 O 0.77638 0.72116 0.71644
 O378 O 0.75528 0.78374 0.76808
 Cu379 Cu 0.73741 0.72253 0.77400
 Cu380 Cu 0.76854 0.75527 0.73928
 C381 C 0.73915 0.78047 0.79170
 C382 C 0.76678 0.69694 0.72209
 C383 C 0.79446 0.72619 0.79154
 C384 C 0.71158 0.75213 0.72178
 C385 C 0.28703 0.12497 0.11896
 C386 C 0.30051 0.12782 0.08957
 C387 C 0.30251 0.10473 0.06830
 C388 C 0.29099 0.07861 0.07580
 C389 C 0.27807 0.07659 0.10572
 N390 N 0.27627 0.09946 0.12597
 C391 C 0.28255 0.14919 0.14194
 N392 N 0.26316 0.14712 0.16557
 C393 C 0.25679 0.16865 0.18693
 C394 C 0.27009 0.19447 0.18508
 C395 C 0.29062 0.19690 0.16141
 C396 C 0.29706 0.17433 0.13998
 H397 H 0.31326 0.10729 0.04592
 H398 H 0.26819 0.05734 0.11250
 H399 H 0.24093 0.16576 0.20491
 H400 H 0.30166 0.21629 0.15936
 H401 H 0.30890 0.14772 0.08239
 H402 H 0.31326 0.17682 0.12235
 C403 C 0.78872 0.60291 0.63398
 C404 C 0.77049 0.58064 0.63149
 C405 C 0.77465 0.56029 0.60726
 C406 C 0.79677 0.56205 0.58542
 C407 C 0.81467 0.58440 0.58872
 N408 N 0.81013 0.60413 0.61245
 C409 C 0.78425 0.62600 0.65820
 N410 N 0.79399 0.65225 0.65238
 C411 C 0.78944 0.67493 0.67275
 C412 C 0.77402 0.67196 0.70085
 C413 C 0.76458 0.64482 0.70778
 C414 C 0.76976 0.62182 0.68669
 H415 H 0.76025 0.54348 0.60510
 H416 H 0.83194 0.58636 0.57219
 H417 H 0.79732 0.69540 0.66658
 H418 H 0.75294 0.64140 0.72938
 H419 H 0.75262 0.57933 0.64731
 H420 H 0.76248 0.60110 0.69284
 C421 C 0.71115 0.88448 0.13139
 C422 C 0.70039 0.91290 0.13855
 C423 C 0.69843 0.93384 0.11465
 C424 C 0.70739 0.92678 0.08350
 C425 C 0.71757 0.89775 0.07747
 N426 N 0.71913 0.87776 0.10113
 C427 C 0.71462 0.86161 0.15585
 N428 N 0.71246 0.83363 0.14721
 C429 C 0.71717 0.81124 0.16796
 C430 C 0.72543 0.81637 0.19929
 C431 C 0.72765 0.84507 0.20877
 C432 C 0.72208 0.86775 0.18722
 H433 H 0.68934 0.95548 0.12049
 H434 H 0.72545 0.89107 0.05428
 H435 H 0.71543 0.78941 0.15963
 H436 H 0.73408 0.84993 0.23271
 H437 H 0.69316 0.91884 0.16221
 H438 H 0.72470 0.88966 0.19473
 C439 C 0.20891 0.38292 0.62318
 C440 C 0.19196 0.40852 0.63051
 C441 C 0.18891 0.43092 0.60826
 C442 C 0.20310 0.42804 0.57902
 C443 C 0.21973 0.40201 0.57265
 N444 N 0.22202 0.38034 0.59447
 C445 C 0.21322 0.35876 0.64595
 N446 N 0.21514 0.33108 0.63492
 C447 C 0.22056 0.30784 0.65437
 C448 C 0.22538 0.31185 0.68685
 C449 C 0.22356 0.34019 0.69874
 C450 C 0.21717 0.36371 0.67843
 H451 H 0.17569 0.45059 0.61389
 H452 H 0.23116 0.39904 0.55047
 H453 H 0.22206 0.28630 0.64428
 H454 H 0.22724 0.34414 0.72366
 H455 H 0.18096 0.41103 0.65300
 H456 H 0.21635 0.38549 0.68780
 C457 C 0.88517 0.26829 0.12142
 C458 C 0.91369 0.25794 0.12712
 C459 C 0.93404 0.26028 0.10347
 C460 C 0.92634 0.27305 0.07402
 C461 C 0.89768 0.28388 0.06975
 N462 N 0.87824 0.28122 0.09310
 C463 C 0.86220 0.26576 0.14505
 N464 N 0.83705 0.28233 0.14109
 C465 C 0.81450 0.28069 0.16087
 C466 C 0.81636 0.26122 0.18646
 C467 C 0.84208 0.24395 0.19111
 C468 C 0.86496 0.24605 0.17049
 H469 H 0.95573 0.25135 0.10797
 H470 H 0.89076 0.29486 0.04803
 H471 H 0.79507 0.29439 0.15631
 H472 H 0.84439 0.22844 0.21038
 H473 H 0.92051 0.24823 0.14949
 H474 H 0.88411 0.23177 0.17419
 C475 C 0.38552 0.76293 0.63798
 C476 C 0.40985 0.74297 0.63623
 C477 C 0.43042 0.74646 0.61311
 C478 C 0.42677 0.76954 0.59162
 C479 C 0.40235 0.78902 0.59407
 N480 N 0.38258 0.78522 0.61677
 C481 C 0.36229 0.76000 0.66116
 N482 N 0.33645 0.77486 0.65571
 C483 C 0.31380 0.77309 0.67530
 C484 C 0.31632 0.75536 0.70235
 C485 C 0.34286 0.74019 0.70879
 C486 C 0.36588 0.74254 0.68844
 H487 H 0.44899 0.73091 0.61159
 H488 H 0.39893 0.80708 0.57779
 H489 H 0.29378 0.78529 0.66946
 H490 H 0.34585 0.72650 0.72958
 H491 H 0.41286 0.72444 0.65182
 H492 H 0.38614 0.73098 0.69442
 C493 C 0.11378 0.74317 0.13753
 C494 C 0.08514 0.75334 0.14257
 C495 C 0.06497 0.74970 0.11898
 C496 C 0.07295 0.73576 0.09026
 C497 C 0.10186 0.72572 0.08643
 N498 N 0.12108 0.72955 0.10975
 C499 C 0.13647 0.74627 0.16143
 N500 N 0.16178 0.72990 0.15797
 C501 C 0.18406 0.73176 0.17812
 C502 C 0.18175 0.75122 0.20366
 C503 C 0.15588 0.76831 0.20783
 C504 C 0.13326 0.76600 0.18678
 H505 H 0.04314 0.75840 0.12300
 H506 H 0.10911 0.71414 0.06523
 H507 H 0.20362 0.71819 0.17391
 H508 H 0.15325 0.78381 0.22703
 H509 H 0.07805 0.76373 0.16444
 H510 H 0.11394 0.78009 0.19014
 C511 C 0.61397 0.23060 0.62219
 C512 C 0.58972 0.25073 0.62139
 C513 C 0.56945 0.24892 0.59750
 C514 C 0.57331 0.22736 0.57430
 C515 C 0.59774 0.20777 0.57570
 N516 N 0.61721 0.20991 0.59921
 C517 C 0.63678 0.23177 0.64635
 N518 N 0.66274 0.21735 0.64050
 C519 C 0.68508 0.21785 0.66086
 C520 C 0.68211 0.23380 0.68913
 C521 C 0.65540 0.24831 0.69605
 C522 C 0.63269 0.24723 0.67491
 H523 H 0.55086 0.26451 0.59685
 H524 H 0.60132 0.19086 0.55809
 H525 H 0.70525 0.20621 0.65460
 H526 H 0.65205 0.26062 0.71775
 H527 H 0.58652 0.26813 0.63839
 H528 H 0.61230 0.25828 0.68122
 C529 C 0.71956 0.11357 0.87140
 C530 C 0.72767 0.11789 0.90285
 C531 C 0.72480 0.09636 0.92527
 C532 C 0.71338 0.07040 0.91684
 C533 C 0.70630 0.06669 0.88464
 N534 N 0.70952 0.08804 0.86308
 C535 C 0.72186 0.13644 0.84744
 N536 N 0.73155 0.12938 0.81777
 C537 C 0.73556 0.14993 0.79552
 C538 C 0.72956 0.17945 0.80269
 C539 C 0.71863 0.18697 0.83280
 C540 C 0.71487 0.16561 0.85519
 H541 H 0.73214 0.09989 0.94918
 H542 H 0.69722 0.04732 0.87678
 H543 H 0.74377 0.14323 0.77246
 H544 H 0.71364 0.20943 0.83937
 H545 H 0.73661 0.13759 0.90998
 H546 H 0.70665 0.17185 0.87840
 C547 C 0.21823 0.62973 0.38165
 C548 C 0.23191 0.62892 0.41122
 C549 C 0.22834 0.60622 0.43205
 C550 C 0.21067 0.58463 0.42381
 C551 C 0.19757 0.58608 0.39382
 N552 N 0.20178 0.60821 0.37362
 C553 C 0.22158 0.65358 0.35925
 N554 N 0.22657 0.64772 0.32801
 C555 C 0.23095 0.66891 0.30667
 C556 C 0.22994 0.69792 0.31644
 C557 C 0.22403 0.70442 0.34836
 C558 C 0.22010 0.68232 0.36986
 H559 H 0.23926 0.60554 0.45470
 H560 H 0.18389 0.56975 0.38660
 H561 H 0.23522 0.66310 0.28217
 H562 H 0.22315 0.72652 0.35685
 H563 H 0.24553 0.64548 0.41796
 H564 H 0.21583 0.68761 0.39451
 C565 C 0.28731 0.87561 0.88028
 C566 C 0.30016 0.87030 0.91007
 C567 C 0.30160 0.89304 0.93142
 C568 C 0.29007 0.92125 0.92365
 C569 C 0.27799 0.92568 0.89326
 N570 N 0.27669 0.90311 0.87293
 C571 C 0.28330 0.85213 0.85726
 N572 N 0.26398 0.85748 0.83343
 C573 C 0.25796 0.83692 0.81213
 C574 C 0.27154 0.80876 0.81429
 C575 C 0.29205 0.80287 0.83814
 C576 C 0.29814 0.82445 0.85948
 H577 H 0.31195 0.88852 0.95408
 H578 H 0.26838 0.94680 0.88616
 H579 H 0.24211 0.84249 0.79399
 H580 H 0.30332 0.78154 0.84042
 H581 H 0.30842 0.84886 0.91747
 H582 H 0.31433 0.81925 0.87726
 C583 C 0.78466 0.38185 0.36412
 C584 C 0.76723 0.40809 0.36615
 C585 C 0.77187 0.42763 0.39029
 C586 C 0.79366 0.42114 0.41247
 C587 C 0.81074 0.39489 0.40964
 N588 N 0.80576 0.37608 0.38599
 C589 C 0.77977 0.35958 0.34002
 N590 N 0.78953 0.33152 0.34587
 C591 C 0.78491 0.30966 0.32558
 C592 C 0.76940 0.31546 0.29748
 C593 C 0.75981 0.34432 0.29055
 C594 C 0.76506 0.36640 0.31158
 H595 H 0.75810 0.44759 0.39210
 H596 H 0.82772 0.38923 0.42647
 H597 H 0.79289 0.28774 0.33176
 H598 H 0.74809 0.34986 0.26894
 H599 H 0.74960 0.41324 0.35007
 H600 H 0.75773 0.38846 0.30536
 C601 C 0.11491 0.27108 0.86376
 C602 C 0.09539 0.29573 0.86458
 C603 C 0.07412 0.29790 0.88772
 C604 C 0.07171 0.27513 0.90933
 C605 C 0.09158 0.25063 0.90717
 N606 N 0.11258 0.24940 0.88505
 C607 C 0.13838 0.26850 0.84077
 N608 N 0.16559 0.26278 0.85142
 C609 C 0.18815 0.25942 0.83128
 C610 C 0.18374 0.26080 0.79840
 C611 C 0.15584 0.26640 0.78690
 C612 C 0.13309 0.27075 0.80810
 H613 H 0.05989 0.31758 0.88912
 H614 H 0.09041 0.23249 0.92316
 H615 H 0.20940 0.25483 0.84091
 H616 H 0.15173 0.26754 0.76163
 H617 H 0.09713 0.31341 0.84810
 H618 H 0.11155 0.27503 0.79915
 C619 C 0.61374 0.77811 0.37888
 C620 C 0.61373 0.79921 0.40277
 C621 C 0.59260 0.80069 0.42605
 C622 C 0.57166 0.78109 0.42567
 C623 C 0.57206 0.76070 0.40115
 N624 N 0.59282 0.75967 0.37875
 C625 C 0.63665 0.77487 0.35474
 N626 N 0.66023 0.78956 0.35796
 C627 C 0.68249 0.78621 0.33740
 C628 C 0.68191 0.76694 0.31179
 C629 C 0.65757 0.75200 0.30767
 C630 C 0.63499 0.75586 0.32905
 H631 H 0.59276 0.81681 0.44460
 H632 H 0.55617 0.74528 0.40016
 H633 H 0.70077 0.79826 0.34141
 H634 H 0.65617 0.73693 0.28825
 H635 H 0.62997 0.81426 0.40363
 H636 H 0.61660 0.74383 0.32567
 C637 C 0.88715 0.71113 0.88082
 C638 C 0.89006 0.69048 0.90538
 C639 C 0.91150 0.69200 0.92804
 C640 C 0.93017 0.71375 0.92613
 C641 C 0.92743 0.73315 0.90061
 N642 N 0.90619 0.73149 0.87903
 C643 C 0.86365 0.71221 0.85727
 N644 N 0.86592 0.72820 0.83043
 C645 C 0.84462 0.73208 0.80864
 C646 C 0.81880 0.71985 0.81349
 C647 C 0.81607 0.70294 0.84073
 C648 C 0.83833 0.69911 0.86266
 H649 H 0.91337 0.67644 0.94728
 H650 H 0.94167 0.75006 0.89835
 H651 H 0.84767 0.74531 0.78798
 H652 H 0.79646 0.69328 0.84557
 H653 H 0.87609 0.67335 0.90732
 H654 H 0.83506 0.68694 0.88400
 C655 C 0.38335 0.22479 0.36342
 C656 C 0.38757 0.20088 0.38401
 C657 C 0.40956 0.19978 0.40630
 C658 C 0.42746 0.22222 0.40792
 C659 C 0.42336 0.24510 0.38621
 N660 N 0.40163 0.24588 0.36490
 C661 C 0.35930 0.22827 0.34061
 N662 N 0.36081 0.24695 0.31584
 C663 C 0.33905 0.25259 0.29487
 C664 C 0.31361 0.23937 0.29845
 C665 C 0.31162 0.21992 0.32370
 C666 C 0.33429 0.21436 0.34480
 H667 H 0.41245 0.18165 0.42257
 H668 H 0.43698 0.26267 0.38677
 H669 H 0.34151 0.26779 0.27580
 H670 H 0.29232 0.20939 0.32752
 H671 H 0.37421 0.18316 0.38308
 H672 H 0.33166 0.20008 0.36465
 C673 C 0.71907 0.87397 0.88039
 C674 C 0.72605 0.86940 0.91240
 C675 C 0.72310 0.89254 0.93348
 C676 C 0.71284 0.92049 0.92310
 C677 C 0.70629 0.92399 0.89056
 N678 N 0.70967 0.90107 0.87036
 C679 C 0.72249 0.84995 0.85737
 N680 N 0.73217 0.85489 0.82762
 C681 C 0.73709 0.83325 0.80599
 C682 C 0.73205 0.80473 0.81387
 C683 C 0.72119 0.79943 0.84408
 C684 C 0.71650 0.82190 0.86587
 H685 H 0.72976 0.88862 0.95782
 H686 H 0.69773 0.94475 0.88125
 H687 H 0.74521 0.83829 0.78283
 H688 H 0.71693 0.77779 0.85114
 H689 H 0.73444 0.84830 0.92096
 H690 H 0.70827 0.81736 0.88914
 C691 C 0.21092 0.39241 0.36838
 C692 C 0.19459 0.41874 0.36259
 C693 C 0.19150 0.43958 0.38653
 C694 C 0.20505 0.43441 0.41593
 C695 C 0.22129 0.40782 0.42062
 N696 N 0.22356 0.38767 0.39719
 C697 C 0.21478 0.36957 0.34409
 N698 N 0.21566 0.34137 0.35329
 C699 C 0.22046 0.31915 0.33242
 C700 C 0.22567 0.32479 0.30036
 C701 C 0.22497 0.35370 0.29035
 C702 C 0.21921 0.37618 0.31209
 H703 H 0.17862 0.45976 0.38214
 H704 H 0.23227 0.40313 0.44286
 H705 H 0.22111 0.29713 0.34110
 H706 H 0.22899 0.35888 0.26580
 H707 H 0.18397 0.42294 0.34004
 H708 H 0.21918 0.39840 0.30418
 C709 C 0.29061 0.11130 0.86565
 C710 C 0.30351 0.11662 0.89485
 C711 C 0.30463 0.09566 0.91859
 C712 C 0.29275 0.06924 0.91381
 C713 C 0.28076 0.06449 0.88384
 N714 N 0.27967 0.08544 0.86113
 C715 C 0.28655 0.13387 0.84068
 N716 N 0.26528 0.13225 0.81899
 C717 C 0.25880 0.15326 0.79691
 C718 C 0.27382 0.17802 0.79620
 C719 C 0.29652 0.17961 0.81750
 C720 C 0.30312 0.15755 0.83950
 H721 H 0.31484 0.10019 0.94085
 H722 H 0.27088 0.04479 0.87899
 H723 H 0.24128 0.15105 0.78073
 H724 H 0.30900 0.19809 0.81742
 H725 H 0.31185 0.13704 0.90002
 H726 H 0.32089 0.15933 0.85539
 C727 C 0.79389 0.61448 0.37639
 C728 C 0.81682 0.61244 0.39796
 C729 C 0.81971 0.58958 0.41963
 C730 C 0.80004 0.56871 0.41967
 C731 C 0.77810 0.57085 0.39710
 N732 N 0.77555 0.59342 0.37641
 C733 C 0.78851 0.63903 0.35399
 N734 N 0.77126 0.63583 0.32852
 C735 C 0.76396 0.65772 0.30777
 C736 C 0.77387 0.68505 0.31229
 C737 C 0.79179 0.68884 0.33827
 C738 C 0.79911 0.66599 0.35916
 H739 H 0.83706 0.58829 0.43661
 H740 H 0.76264 0.55498 0.39646
 H741 H 0.75005 0.65382 0.28809
 H742 H 0.79978 0.70961 0.34281
 H743 H 0.83243 0.62812 0.39822
 H744 H 0.81213 0.66992 0.37955
 C745 C 0.11529 0.73351 0.87922
 C746 C 0.08659 0.74269 0.87297
 C747 C 0.06621 0.74046 0.89660
 C748 C 0.07405 0.72890 0.92660
 C749 C 0.10302 0.71959 0.93158
 N750 N 0.12246 0.72203 0.90819
 C751 C 0.13813 0.73558 0.85536
 N752 N 0.16338 0.71923 0.85959
 C753 C 0.18572 0.72036 0.83942
 C754 C 0.18354 0.73903 0.81312
 C755 C 0.15773 0.75608 0.80822
 C756 C 0.13506 0.75451 0.82925
 H757 H 0.04434 0.74847 0.89158
 H758 H 0.11015 0.70975 0.95384
 H759 H 0.20525 0.70689 0.84422
 H760 H 0.15518 0.77100 0.78843
 H761 H 0.07965 0.75128 0.85013
 H762 H 0.11580 0.76859 0.82534
 C763 C 0.61456 0.23742 0.36174
 C764 C 0.59027 0.25746 0.36319
 C765 C 0.56982 0.25450 0.38659
 C766 C 0.57354 0.23188 0.40864
 C767 C 0.59800 0.21239 0.40658
 N768 N 0.61764 0.21567 0.38359
 C769 C 0.63756 0.23973 0.33811
 N770 N 0.66352 0.22520 0.34377
 C771 C 0.68599 0.22652 0.32382
 C772 C 0.68314 0.24343 0.29615
 C773 C 0.65644 0.25815 0.28945
 C774 C 0.63361 0.25626 0.31020
 H775 H 0.55122 0.27003 0.38777
 H776 H 0.60147 0.19467 0.42329
 H777 H 0.70613 0.21468 0.32988
 H778 H 0.65320 0.27121 0.26822
 H779 H 0.58719 0.27562 0.34710
 H780 H 0.61323 0.26748 0.30406
 C781 C 0.88460 0.25790 0.86408
 C782 C 0.90940 0.23851 0.86535
 C783 C 0.93019 0.24235 0.88821
 C784 C 0.92632 0.26525 0.90983
 C785 C 0.90131 0.28398 0.90805
 N786 N 0.88136 0.27987 0.88559
 C787 C 0.86130 0.25485 0.84095
 N788 N 0.83532 0.26928 0.84666
 C789 C 0.81264 0.26756 0.82704
 C790 C 0.81528 0.25038 0.79963
 C791 C 0.84194 0.23564 0.79294
 C792 C 0.86499 0.23790 0.81337
 H793 H 0.94917 0.22732 0.88929
 H794 H 0.89765 0.30181 0.92453
 H795 H 0.79252 0.27941 0.83311
 H796 H 0.84502 0.22235 0.77190
 H797 H 0.91266 0.22022 0.84952
 H798 H 0.88534 0.22669 0.80720
 C799 C 0.38421 0.77333 0.37891
 C800 C 0.40866 0.75346 0.37899
 C801 C 0.42926 0.75521 0.40253
 C802 C 0.42554 0.77644 0.42609
 C803 C 0.40095 0.79584 0.42535
 N804 N 0.38113 0.79377 0.40218
 C805 C 0.36100 0.77205 0.35524
 N806 N 0.33489 0.78577 0.36189
 C807 C 0.31222 0.78497 0.34202
 C808 C 0.31502 0.76942 0.31348
 C809 C 0.34188 0.75567 0.30575
 C810 C 0.36491 0.75706 0.32637
 H811 H 0.44795 0.73974 0.40269
 H812 H 0.39746 0.81249 0.44327
 H813 H 0.29193 0.79603 0.34888
 H814 H 0.34511 0.74372 0.28380
 H815 H 0.41175 0.73626 0.36175
 H816 H 0.38539 0.74661 0.31943
 C817 C 0.27934 0.89190 0.13604
 C818 C 0.26328 0.91904 0.13614
 C819 C 0.26683 0.93872 0.11175
 C820 C 0.28612 0.93147 0.08718
 C821 C 0.30193 0.90436 0.08797
 N822 N 0.29808 0.88548 0.11193
 C823 C 0.27540 0.86938 0.16025
 N824 N 0.28429 0.84129 0.15344
 C825 C 0.28042 0.81917 0.17371
 C826 C 0.26655 0.82470 0.20281
 C827 C 0.25789 0.85355 0.21072
 C828 C 0.26242 0.87591 0.18970
 H829 H 0.25405 0.95937 0.11160
 H830 H 0.31702 0.89811 0.06933
 H831 H 0.28761 0.79727 0.16672
 H832 H 0.24746 0.85886 0.23310
 H833 H 0.24746 0.92489 0.15409
 H834 H 0.25584 0.89790 0.19673
 C835 C 0.78322 0.37365 0.62452
 C836 C 0.76575 0.39991 0.62350
 C837 C 0.77061 0.42054 0.60060
 C838 C 0.79265 0.41513 0.57859
 C839 C 0.80957 0.38867 0.58014
 N840 N 0.80442 0.36880 0.60268
 C841 C 0.77844 0.35067 0.64783
 N842 N 0.78764 0.32268 0.64093
 C843 C 0.78309 0.30034 0.66069
 C844 C 0.76826 0.30561 0.68927
 C845 C 0.75929 0.33437 0.69722
 C846 C 0.76446 0.35690 0.67676
 H847 H 0.75694 0.44063 0.59973
 H848 H 0.82671 0.38382 0.56337
 H849 H 0.79057 0.27851 0.65373
 H850 H 0.74815 0.33951 0.71923
 H851 H 0.74802 0.40434 0.63956
 H852 H 0.75767 0.37886 0.68380
 C853 C 0.71841 0.12196 0.11822
 C854 C 0.73044 0.12231 0.08785
 C855 C 0.72734 0.09942 0.06718
 C856 C 0.71180 0.07641 0.07638
 C857 C 0.70021 0.07680 0.10709
 N858 N 0.70396 0.09916 0.12710
 C859 C 0.72167 0.14576 0.14069
 N860 N 0.72784 0.13964 0.17167
 C861 C 0.73240 0.16072 0.19303
 C862 C 0.73049 0.18988 0.18357
 C863 C 0.72331 0.19663 0.15195
 C864 C 0.71910 0.17465 0.13043
 H865 H 0.73711 0.09964 0.04395
 H866 H 0.68813 0.05942 0.11506
 H867 H 0.73764 0.15469 0.21730
 H868 H 0.72164 0.21885 0.14368
 H869 H 0.74258 0.13985 0.08039
 H870 H 0.71384 0.18017 0.10602
 C871 C 0.21354 0.61945 0.63315
 C872 C 0.19609 0.59707 0.63889
 C873 C 0.19253 0.57671 0.61515
 C874 C 0.20675 0.57833 0.58605
 C875 C 0.22423 0.60092 0.58151
 N876 N 0.22689 0.62080 0.60468
 C877 C 0.21762 0.64186 0.65706
 N878 N 0.21913 0.66965 0.64731
 C879 C 0.22401 0.69122 0.66783
 C880 C 0.22865 0.68512 0.70012
 C881 C 0.22736 0.65658 0.71069
 C882 C 0.22150 0.63493 0.68927
 H883 H 0.17870 0.55970 0.61942
 H884 H 0.23578 0.60274 0.55953
 H885 H 0.22513 0.71293 0.65874
 H886 H 0.23092 0.65105 0.73543
 H887 H 0.18491 0.59569 0.66118
 H888 H 0.22093 0.61289 0.69760
 C889 C 0.88490 0.72168 0.13478
 C890 C 0.88898 0.69878 0.11290
 C891 C 0.91082 0.69873 0.09061
 C892 C 0.92877 0.72116 0.09029
 C893 C 0.92491 0.74291 0.11328
 N894 N 0.90327 0.74274 0.13454
 C895 C 0.86089 0.72416 0.15760
 N896 N 0.86223 0.74201 0.18309
 C897 C 0.84046 0.74669 0.20415
 C898 C 0.81521 0.73327 0.19992
 C899 C 0.81340 0.71467 0.17392
 C900 C 0.83605 0.71012 0.15273
 H901 H 0.91358 0.68139 0.07338
 H902 H 0.93862 0.76040 0.11378
 H903 H 0.84275 0.76127 0.22383
 H904 H 0.79426 0.70403 0.16955
 H905 H 0.87562 0.68105 0.11281
 H906 H 0.83348 0.69652 0.13233
 C907 C 0.38360 0.21739 0.61728
 C908 C 0.38773 0.19472 0.59512
 C909 C 0.40956 0.19499 0.57282
 C910 C 0.42739 0.21753 0.57274
 C911 C 0.42334 0.23914 0.59587
 N912 N 0.40178 0.23861 0.61717
 C913 C 0.35981 0.21942 0.64040
 N914 N 0.36136 0.23701 0.66607
 C915 C 0.33986 0.24131 0.68751
 C916 C 0.31466 0.22774 0.68353
 C917 C 0.31263 0.20938 0.65736
 C918 C 0.33503 0.20521 0.63576
 H919 H 0.41242 0.17781 0.55542
 H920 H 0.43691 0.25675 0.59651
 H921 H 0.34234 0.25570 0.70730
 H922 H 0.29351 0.19865 0.65320
 H923 H 0.37447 0.17691 0.59486
 H924 H 0.33235 0.19176 0.61526
 C925 C 0.11291 0.28973 0.11912
 C926 C 0.10911 0.31175 0.09610
 C927 C 0.08773 0.31073 0.07326
 C928 C 0.07010 0.28801 0.07346
 C929 C 0.07370 0.26718 0.09753
 N930 N 0.09480 0.26845 0.11933
 C931 C 0.13641 0.28816 0.14266
 N932 N 0.13454 0.27100 0.16867
 C933 C 0.15596 0.26662 0.19025
 C934 C 0.18150 0.27951 0.18600
 C935 C 0.18381 0.29761 0.15961
 C936 C 0.16141 0.30197 0.13791
 H937 H 0.08517 0.32736 0.05516
 H938 H 0.06022 0.24951 0.09846
 H939 H 0.15324 0.25248 0.21023
 H940 H 0.20318 0.30786 0.15528
 H941 H 0.12236 0.32957 0.09553
 H942 H 0.16432 0.31510 0.11718
 C943 C 0.61752 0.77423 0.63509
 C944 C 0.61384 0.79784 0.61403
 C945 C 0.59174 0.79918 0.59188
 C946 C 0.57316 0.77731 0.59086
 C947 C 0.57678 0.75471 0.61297
 N948 N 0.59863 0.75368 0.63415
 C949 C 0.64158 0.77057 0.65788
 N950 N 0.63963 0.75259 0.68320
 C951 C 0.66131 0.74693 0.70427
 C952 C 0.68712 0.75939 0.70023
 C953 C 0.68958 0.77807 0.67438
 C954 C 0.66699 0.78367 0.65318
 H955 H 0.58924 0.81710 0.57530
 H956 H 0.56265 0.73757 0.61287
 H957 H 0.65850 0.73231 0.72381
 H958 H 0.70916 0.78800 0.67017
 H959 H 0.62769 0.81516 0.61452
 H960 H 0.66997 0.79733 0.63290
   
