data_POSCAR
  _audit_creation_date              2014-09-24
  _audit_creation_method            'ToBaCCo'
  _symmetry_space_group_name_H-M    'P1'
  _symmetry_Int_Tables_number       1
  _symmetry_cell_setting            triclinic
  loop_
  _symmetry_equiv_pos_as_xyz
 x,y,z
_cell_length_a 32.7867
_cell_length_b 45.2826
_cell_length_c 39.8628
_cell_angle_alpha 90.069700
_cell_angle_beta 89.994900
_cell_angle_gamma 90.068800
loop_
  _atom_site_label
  _atom_site_type_symbol
  _atom_site_fract_x
  _atom_site_fract_y
  _atom_site_fract_z
O1 O 0.25334 0.27923 0.20595
 O2 O 0.30119 0.22247 0.25898
 O3 O 0.25481 0.22179 0.20562
 O4 O 0.29920 0.27992 0.25913
 O5 O 0.24514 0.27797 0.29201
 O6 O 0.19961 0.22144 0.23715
 O7 O 0.24561 0.22041 0.29013
 O8 O 0.19903 0.27878 0.23859
 Cu9 Cu 0.28265 0.25091 0.22922
 Cu10 Cu 0.21689 0.24959 0.26772
 C11 C 0.21802 0.28879 0.21324
 C12 C 0.28148 0.21161 0.28349
 C13 C 0.21936 0.21182 0.21197
 C14 C 0.27985 0.28876 0.28486
 O15 O 0.80339 0.27787 0.24269
 O16 O 0.75749 0.21990 0.29540
 O17 O 0.80383 0.22068 0.24211
 O18 O 0.75746 0.27735 0.29625
 O19 O 0.70250 0.27736 0.26435
 O20 O 0.74865 0.22042 0.21038
 O21 O 0.70264 0.22014 0.26347
 O22 O 0.74816 0.27825 0.21103
 Cu23 Cu 0.78604 0.24894 0.27233
 Cu24 Cu 0.72006 0.24906 0.23402
 C25 C 0.78357 0.28797 0.21785
 C26 C 0.72204 0.21014 0.28860
 C27 C 0.78416 0.21085 0.21702
 C28 C 0.72196 0.28696 0.28968
 O29 O 0.80293 0.72214 0.75839
 O30 O 0.75770 0.78020 0.70555
 O31 O 0.80360 0.77925 0.75918
 O32 O 0.75732 0.72273 0.70468
 O33 O 0.70225 0.72262 0.73646
 O34 O 0.74808 0.77981 0.79034
 O35 O 0.70244 0.77982 0.73711
 O36 O 0.74763 0.72193 0.78998
 Cu37 Cu 0.78590 0.75110 0.72875
 Cu38 Cu 0.71966 0.75102 0.76674
 C39 C 0.78300 0.71215 0.78325
 C40 C 0.72219 0.78982 0.71217
 C41 C 0.78380 0.78932 0.78411
 C42 C 0.72179 0.71305 0.71117
 O43 O 0.30083 0.77777 0.73999
 O44 O 0.25295 0.72126 0.79346
 O45 O 0.29879 0.72032 0.74026
 O46 O 0.25448 0.77873 0.79334
 O47 O 0.19920 0.77872 0.76192
 O48 O 0.24475 0.72206 0.70735
 O49 O 0.19867 0.72139 0.76079
 O50 O 0.24520 0.77963 0.70890
 Cu51 Cu 0.28227 0.74948 0.76997
 Cu52 Cu 0.21650 0.75049 0.73149
 C53 C 0.28110 0.78850 0.71545
 C54 C 0.21764 0.71157 0.78623
 C55 C 0.27945 0.71135 0.71457
 C56 C 0.21899 0.78856 0.78697
 C57 C 0.98060 -0.00100 0.00094
 C58 C 1.02209 -0.00066 0.00042
 C59 C 1.04567 0.02137 0.02004
 C60 C 1.04545 -0.02223 -0.01995
 C61 C 0.95704 -0.02070 -0.02141
 C62 C 0.95710 0.01848 0.02360
 C63 C 1.03908 0.05172 0.01549
 C64 C 1.05960 0.07232 0.03538
 C65 C 1.08747 0.06298 0.05997
 C66 C 1.09509 0.03260 0.06363
 C67 C 1.07443 0.01198 0.04376
 C68 C 1.07225 -0.01233 -0.04494
 C69 C 1.09287 -0.03261 -0.06526
 C70 C 1.08708 -0.06313 -0.06081
 C71 C 1.06114 -0.07294 -0.03504
 C72 C 1.04076 -0.05268 -0.01466
 C73 C 0.93765 -0.04571 -0.00833
 C74 C 0.91762 -0.06547 -0.02966
 C75 C 0.91551 -0.06010 -0.06445
 C76 C 0.93396 -0.03428 -0.07714
 C77 C 0.95491 -0.01498 -0.05586
 C78 C 0.96002 0.01523 0.05847
 C79 C 0.93942 0.03464 0.07982
 C80 C 0.91593 0.05795 0.06668
 C81 C 0.91273 0.06074 0.03158
 C82 C 0.93275 0.04098 0.01029
 H83 H 1.01774 0.05942 -0.00328
 H84 H 1.05372 0.09560 0.03150
 H85 H 1.11619 0.02472 0.08250
 H86 H 1.08004 -0.01135 0.04750
 H87 H 1.07643 0.01109 -0.04923
 H88 H 1.11250 -0.02442 -0.08503
 H89 H 1.02110 -0.06073 0.00515
 H90 H 0.93926 -0.05043 0.01828
 H91 H 0.90471 -0.08529 -0.01886
 H92 H 0.93220 -0.02884 -0.10352
 H93 H 0.96952 0.00445 -0.06622
 H94 H 0.97846 -0.00225 0.06909
 H95 H 0.94189 0.03129 0.10661
 H96 H 0.89564 0.07865 0.02045
 H97 H 0.93039 0.04384 -0.01662
 H98 H 1.05676 -0.09631 -0.03057
 C99 C 0.47852 0.49999 0.50013
 C100 C 0.52019 0.50000 0.50018
 C101 C 0.54395 0.52244 0.51915
 C102 C 0.54395 0.47756 0.48125
 C103 C 0.45480 0.48033 0.47738
 C104 C 0.45477 0.51966 0.52281
 C105 C 0.53686 0.55273 0.51446
 C106 C 0.55771 0.57359 0.53379
 C107 C 0.58641 0.56458 0.55791
 C108 C 0.59447 0.53428 0.56168
 C109 C 0.57352 0.51342 0.54239
 C110 C 0.57361 0.48659 0.45806
 C111 C 0.59455 0.46573 0.43881
 C112 C 0.58638 0.43542 0.44257
 C113 C 0.55760 0.42641 0.46663
 C114 C 0.53675 0.44727 0.48593
 C115 C 0.42372 0.46237 0.49038
 C116 C 0.40240 0.44295 0.46948
 C117 C 0.41178 0.44104 0.43509
 C118 C 0.44218 0.45971 0.42199
 C119 C 0.46311 0.47937 0.44283
 C120 C 0.46296 0.52066 0.55737
 C121 C 0.44200 0.54032 0.57815
 C122 C 0.41167 0.55895 0.56496
 C123 C 0.40240 0.55700 0.53055
 C124 C 0.42375 0.53757 0.50972
 H125 H 0.51479 0.56016 0.49612
 H126 H 0.55143 0.59680 0.52986
 H127 H 0.61614 0.52664 0.58022
 H128 H 0.57954 0.49015 0.54626
 H129 H 0.57970 0.50985 0.45420
 H130 H 0.61629 0.47338 0.42030
 H131 H 0.51461 0.43983 0.50423
 H132 H 0.41643 0.46303 0.51687
 H133 H 0.37855 0.42943 0.48030
 H134 H 0.45050 0.45871 0.39573
 H135 H 0.48630 0.49353 0.43208
 H136 H 0.48609 0.50653 0.56819
 H137 H 0.45024 0.54135 0.60441
 H138 H 0.37860 0.57048 0.51967
 H139 H 0.41654 0.53688 0.48321
 H140 H 0.55123 0.40320 0.47055
 C141 C 0.01764 0.50033 0.00031
 C142 C -0.02388 0.50030 0.00042
 C143 C -0.04733 0.48105 0.02339
 C144 C -0.04751 0.51946 -0.02247
 C145 C 0.04106 0.52190 -0.02006
 C146 C 0.04118 0.47877 0.02053
 C147 C -0.07143 0.45820 0.01040
 C148 C -0.09113 0.43852 0.03198
 C149 C -0.08783 0.44174 0.06704
 C150 C -0.06468 0.46543 0.07984
 C151 C -0.04442 0.48477 0.05822
 C152 C -0.04488 0.51566 -0.05729
 C153 C -0.06534 0.53490 -0.07886
 C154 C -0.08838 0.55859 -0.06600
 C155 C -0.09140 0.56188 -0.03093
 C156 C -0.07152 0.54229 -0.00941
 C157 C 0.03483 0.55236 -0.01604
 C158 C 0.05507 0.57251 -0.03667
 C159 C 0.08232 0.56260 -0.06146
 C160 C 0.08958 0.53211 -0.06463
 C161 C 0.06917 0.51195 -0.04404
 C162 C 0.06935 0.48872 0.04448
 C163 C 0.08982 0.46855 0.06498
 C164 C 0.08256 0.43806 0.06173
 C165 C 0.05526 0.42815 0.03695
 C166 C 0.03496 0.44831 0.01642
 H167 H -0.07378 0.45498 -0.01646
 H168 H -0.10800 0.42032 0.02111
 H169 H -0.06217 0.46909 0.10659
 H170 H -0.02618 0.50253 0.06859
 H171 H -0.02673 0.49791 -0.06771
 H172 H -0.06304 0.53118 -0.10561
 H173 H -0.07366 0.54556 0.01746
 H174 H 0.01397 0.56050 0.00288
 H175 H 0.04951 0.59587 -0.03315
 H176 H 0.11020 0.52381 -0.08363
 H177 H 0.07448 0.48853 -0.04739
 H178 H 0.07465 0.51215 0.04790
 H179 H 0.11048 0.47686 0.08397
 H180 H 0.04970 0.40479 0.03338
 H181 H 0.01404 0.44017 -0.00248
 H182 H -0.10819 0.58008 -0.02002
 C183 C 0.51952 1.00006 0.49931
 C184 C 0.47800 1.00000 0.49928
 C185 C 0.45444 0.98065 0.52208
 C186 C 0.45447 1.01933 0.47646
 C187 C 0.54308 1.02175 0.47924
 C188 C 0.54307 0.97844 0.51944
 C189 C 0.43003 0.95806 0.50889
 C190 C 0.41007 0.93835 0.53028
 C191 C 0.41343 0.94127 0.56536
 C192 C 0.43695 0.96468 0.57839
 C193 C 0.45745 0.98405 0.55695
 C194 C 0.45758 1.01598 0.44160
 C195 C 0.43713 1.03534 0.42015
 C196 C 0.41355 1.05868 0.43318
 C197 C 0.41009 1.06154 0.46827
 C198 C 0.43000 1.04184 0.48966
 C199 C 0.53689 1.05218 0.48348
 C200 C 0.55779 1.07244 0.46345
 C201 C 0.58565 1.06266 0.43906
 C202 C 0.59276 1.03218 0.43562
 C203 C 0.57172 1.01192 0.45562
 C204 C 0.57163 0.98837 0.54310
 C205 C 0.59264 0.96818 0.56317
 C206 C 0.58557 0.93768 0.55977
 C207 C 0.55779 0.92780 0.53533
 C208 C 0.53692 0.94799 0.51524
 H209 H 0.42758 0.95509 0.48199
 H210 H 0.39291 0.92038 0.51923
 H211 H 0.43953 0.96811 0.60518
 H212 H 0.47591 1.00161 0.56749
 H213 H 0.47609 0.99848 0.43105
 H214 H 0.43979 1.03195 0.39337
 H215 H 0.42748 1.04477 0.51655
 H216 H 0.51566 1.06023 0.50218
 H217 H 0.55230 1.09580 0.46715
 H218 H 0.61382 1.02398 0.41688
 H219 H 0.57703 0.98851 0.45212
 H220 H 0.57690 1.01179 0.54657
 H221 H 0.61362 0.97646 0.58193
 H222 H 0.55234 0.90443 0.53166
 H223 H 0.51575 0.93987 0.49651
 H224 H 0.39289 1.07946 0.47932
 C225 C 1.16525 0.14791 0.14814
 C226 C 1.20478 0.15847 0.14165
 C227 C 1.22282 0.17941 0.16279
 C228 C 1.20175 0.19028 0.19104
 C229 C 1.16231 0.17934 0.19764
 C230 C 1.14434 0.15847 0.17646
 C231 C 1.14560 0.12622 0.12529
 C232 C 1.10421 0.12912 0.11675
 C233 C 1.08550 0.10868 0.09545
 C234 C 1.10773 0.08485 0.08221
 C235 C 1.14914 0.08195 0.09068
 C236 C 1.16791 0.10247 0.11193
 H237 H 1.25318 0.18721 0.15675
 H238 H 1.14505 0.18694 0.21915
 H239 H 1.05343 0.11131 0.08972
 H240 H 1.16712 0.06395 0.08064
 H241 H 1.11409 0.15040 0.18241
 H242 H 1.08633 0.14736 0.12632
 H243 H 1.22149 0.15096 0.11982
 H244 H 1.19975 0.09951 0.11829
 C245 C 0.66546 0.64927 0.64560
 C246 C 0.70508 0.65966 0.63906
 C247 C 0.72353 0.68019 0.66047
 C248 C 0.70278 0.69073 0.68892
 C249 C 0.66331 0.68011 0.69562
 C250 C 0.64487 0.65963 0.67420
 C251 C 0.64551 0.62783 0.62262
 C252 C 0.60402 0.63079 0.61444
 C253 C 0.58501 0.61044 0.59320
 C254 C 0.60704 0.58664 0.57967
 C255 C 0.64861 0.58377 0.58765
 C256 C 0.66765 0.60418 0.60886
 H257 H 0.75393 0.68798 0.65456
 H258 H 0.64653 0.68771 0.71737
 H259 H 0.55284 0.61305 0.58784
 H260 H 0.66646 0.56582 0.57737
 H261 H 0.61457 0.65170 0.68020
 H262 H 0.58626 0.64897 0.62432
 H263 H 0.72154 0.65233 0.61703
 H264 H 0.69957 0.60117 0.61492
 C265 C -0.16273 0.35492 0.15519
 C266 C -0.13805 0.33581 0.17423
 C267 C -0.15553 0.31437 0.19494
 C268 C -0.19805 0.31111 0.19659
 C269 C -0.22281 0.32998 0.17754
 C270 C -0.20539 0.35184 0.15735
 C271 C -0.14405 0.37771 0.13298
 C272 C -0.16268 0.38560 0.10249
 C273 C -0.14492 0.40669 0.08148
 C274 C -0.10763 0.42011 0.09005
 C275 C -0.08900 0.41223 0.12053
 C276 C -0.10714 0.39155 0.14183
 H277 H -0.13572 0.29990 0.20913
 H278 H -0.25572 0.32811 0.17861
 H279 H -0.16058 0.41248 0.05852
 H280 H -0.05998 0.42167 0.12782
 H281 H -0.22547 0.36648 0.14371
 H282 H -0.19075 0.37518 0.09447
 H283 H -0.10514 0.33699 0.17275
 H284 H -0.09216 0.38651 0.16532
 C285 C 0.33661 0.85484 0.65295
 C286 C 0.29388 0.85237 0.65514
 C287 C 0.27588 0.83072 0.67527
 C288 C 0.30013 0.81142 0.69422
 C289 C 0.34273 0.81406 0.69252
 C290 C 0.36077 0.83531 0.67188
 C291 C 0.35587 0.87746 0.63083
 C292 C 0.39310 0.89080 0.63976
 C293 C 0.41168 0.91140 0.61860
 C294 C 0.39322 0.91967 0.58818
 C295 C 0.35566 0.90671 0.57951
 C296 C 0.33743 0.88572 0.60038
 H297 H 0.24292 0.82934 0.67637
 H298 H 0.36217 0.79927 0.70664
 H299 H 0.44090 0.92048 0.62595
 H300 H 0.34013 0.91280 0.55660
 H301 H 0.39371 0.83603 0.67037
 H302 H 0.40796 0.88547 0.66321
 H303 H 0.27419 0.86734 0.64158
 H304 H 0.30912 0.87567 0.59231
 C305 C -0.16350 0.64531 -0.15395
 C306 C -0.13879 0.66437 -0.17309
 C307 C -0.15622 0.68578 -0.19381
 C308 C -0.19872 0.68908 -0.19538
 C309 C -0.22353 0.67030 -0.17619
 C310 C -0.20616 0.64847 -0.15598
 C311 C -0.14483 0.62251 -0.13180
 C312 C -0.16331 0.61466 -0.10122
 C313 C -0.14549 0.59359 -0.08026
 C314 C -0.10830 0.58016 -0.08896
 C315 C -0.08985 0.58798 -0.11955
 C316 C -0.10805 0.60863 -0.14081
 H317 H -0.13636 0.70018 -0.20810
 H318 H -0.25644 0.67221 -0.17718
 H319 H -0.16102 0.58784 -0.05721
 H320 H -0.06091 0.57853 -0.12696
 H321 H -0.22627 0.63388 -0.14223
 H322 H -0.19129 0.62510 -0.09310
 H323 H -0.10588 0.66315 -0.17169
 H324 H -0.09320 0.61363 -0.16438
 C325 C 0.33691 1.14511 0.34569
 C326 C 0.29418 1.14752 0.34346
 C327 C 0.27622 1.16921 0.32341
 C328 C 0.30050 1.18862 0.30457
 C329 C 0.34309 1.18603 0.30628
 C330 C 0.36110 1.16474 0.32684
 C331 C 0.35613 1.12249 0.36777
 C332 C 0.39339 1.10923 0.35887
 C333 C 0.41193 1.08863 0.38000
 C334 C 0.39339 1.08027 0.41038
 C335 C 0.35580 1.09314 0.41901
 C336 C 0.33762 1.11414 0.39816
 H337 H 0.24326 1.17054 0.32230
 H338 H 0.36254 1.20091 0.29224
 H339 H 0.44116 1.07962 0.37267
 H340 H 0.34021 1.08698 0.44189
 H341 H 0.39404 1.16407 0.32837
 H342 H 0.40831 1.11465 0.33545
 H343 H 0.27447 1.13247 0.35694
 H344 H 0.30929 1.12411 0.40623
 C345 C 1.16488 -0.14740 -0.14951
 C346 C 1.20466 -0.15748 -0.14329
 C347 C 1.22269 -0.17849 -0.16432
 C348 C 1.20138 -0.18983 -0.19222
 C349 C 1.16171 -0.17930 -0.19860
 C350 C 1.14372 -0.15842 -0.17748
 C351 C 1.14519 -0.12578 -0.12668
 C352 C 1.10421 -0.12941 -0.11719
 C353 C 1.08550 -0.10914 -0.09574
 C354 C 1.10729 -0.08471 -0.08336
 C355 C 1.14826 -0.08102 -0.09286
 C356 C 1.16707 -0.10142 -0.11421
 H357 H 1.25325 -0.18595 -0.15848
 H358 H 1.14426 -0.18728 -0.21984
 H359 H 1.05376 -0.11238 -0.08915
 H360 H 1.16587 -0.06252 -0.08351
 H361 H 1.11323 -0.15074 -0.18317
 H362 H 1.08670 -0.14813 -0.12611
 H363 H 1.22156 -0.14957 -0.12174
 H364 H 1.19859 -0.09793 -0.12131
 C365 C 0.66549 0.35072 0.35508
 C366 C 0.64497 0.34032 0.32645
 C367 C 0.66345 0.31983 0.30509
 C368 C 0.70288 0.30927 0.31187
 C369 C 0.72355 0.31985 0.34036
 C370 C 0.70506 0.34037 0.36172
 C371 C 0.64551 0.37217 0.37799
 C372 C 0.66767 0.39584 0.39178
 C373 C 0.64861 0.41625 0.41294
 C374 C 0.60702 0.41337 0.42085
 C375 C 0.58497 0.38956 0.40728
 C376 C 0.60398 0.36920 0.38609
 H377 H 0.64674 0.31221 0.28330
 H378 H 0.75392 0.31209 0.34635
 H379 H 0.66649 0.43422 0.42324
 H380 H 0.55277 0.38693 0.41259
 H381 H 0.72147 0.34773 0.38377
 H382 H 0.69961 0.39887 0.38578
 H383 H 0.61471 0.34822 0.32038
 H384 H 0.58621 0.35101 0.37619
 C385 C 0.83779 -0.14588 -0.15290
 C386 C 0.79631 -0.15339 -0.14950
 C387 C 0.77860 -0.17497 -0.16997
 C388 C 0.80156 -0.18910 -0.19513
 C389 C 0.84285 -0.18122 -0.19894
 C390 C 0.86080 -0.16027 -0.17784
 C391 C 0.85706 -0.12340 -0.13045
 C392 C 0.88961 -0.10578 -0.14185
 C393 C 0.90858 -0.08548 -0.12052
 C394 C 0.89488 -0.08154 -0.08736
 C395 C 0.86171 -0.09866 -0.07619
 C396 C 0.84345 -0.11953 -0.09725
 H397 H 0.74664 -0.18015 -0.16637
 H398 H 0.86175 -0.19172 -0.21778
 H399 H 0.93442 -0.07321 -0.13005
 H400 H 0.84961 -0.09600 -0.05112
 H401 H 0.89301 -0.15579 -0.18085
 H402 H 0.90058 -0.10751 -0.16737
 H403 H 0.77717 -0.14241 -0.13124
 H404 H 0.81899 -0.13290 -0.08717
 C405 C 0.33331 0.35498 0.34873
 C406 C 0.29963 0.33842 0.35972
 C407 C 0.28197 0.31714 0.33884
 C408 C 0.29799 0.31172 0.30671
 C409 C 0.33172 0.32829 0.29575
 C410 C 0.34903 0.34983 0.31648
 C411 C 0.35240 0.37728 0.37099
 C412 C 0.36274 0.40534 0.35868
 C413 C 0.38139 0.42618 0.37955
 C414 C 0.39056 0.41929 0.41313
 C415 C 0.38003 0.39117 0.42539
 C416 C 0.36096 0.37047 0.40460
 H417 H 0.25604 0.30470 0.34800
 H418 H 0.34469 0.32467 0.27111
 H419 H 0.38834 0.44778 0.36942
 H420 H 0.38733 0.38485 0.45087
 H421 H 0.37521 0.36213 0.30753
 H422 H 0.35600 0.41125 0.33295
 H423 H 0.28677 0.34213 0.38439
 H424 H 0.35376 0.34885 0.41459
 C425 C 0.16083 0.64656 -0.15019
 C426 C 0.20050 0.65671 -0.14335
 C427 C 0.21904 0.67765 -0.16411
 C428 C 0.19836 0.68887 -0.19223
 C429 C 0.15885 0.67850 -0.19926
 C430 C 0.14029 0.65760 -0.17846
 C431 C 0.14075 0.62486 -0.12766
 C432 C 0.09941 0.62804 -0.11908
 C433 C 0.08054 0.60786 -0.09760
 C434 C 0.10255 0.58400 -0.08425
 C435 C 0.14384 0.58071 -0.09293
 C436 C 0.16276 0.60096 -0.11436
 H437 H 0.24948 0.68521 -0.15795
 H438 H 0.14213 0.68662 -0.22078
 H439 H 0.04855 0.61077 -0.09171
 H440 H 0.16166 0.56267 -0.08284
 H441 H 0.10992 0.64991 -0.18465
 H442 H 0.08174 0.64639 -0.12863
 H443 H 0.21692 0.64889 -0.12154
 H444 H 0.19454 0.59776 -0.12076
 C445 C 0.66623 1.14634 0.35135
 C446 C 0.64591 1.15709 0.32287
 C447 C 0.66449 1.17786 0.30199
 C448 C 0.70397 1.18851 0.30907
 C449 C 0.72451 1.17736 0.33740
 C450 C 0.70585 1.15653 0.35825
 C451 C 0.64583 1.12492 0.37399
 C452 C 0.66748 1.10098 0.38758
 C453 C 0.64803 1.08077 0.40873
 C454 C 0.60658 1.08416 0.41686
 C455 C 0.58501 1.10817 0.40336
 C456 C 0.60440 1.12830 0.38218
 H457 H 0.64764 1.18567 0.28038
 H458 H 0.75489 1.18493 0.34378
 H459 H 0.66551 1.06262 0.41898
 H460 H 0.55293 1.11117 0.40884
 H461 H 0.72212 1.14885 0.38020
 H462 H 0.69933 1.09766 0.38150
 H463 H 0.61562 1.14929 0.31660
 H464 H 0.58702 1.14671 0.37242
 C465 C 0.16118 0.35399 0.15008
 C466 C 0.14067 0.34281 0.17831
 C467 C 0.15924 0.32186 0.19898
 C468 C 0.19874 0.31157 0.19185
 C469 C 0.21939 0.32294 0.16377
 C470 C 0.20083 0.34393 0.14314
 C471 C 0.14106 0.37573 0.12767
 C472 C 0.16306 0.39971 0.11442
 C473 C 0.14412 0.41998 0.09309
 C474 C 0.10282 0.41665 0.08443
 C475 C 0.08082 0.39272 0.09774
 C476 C 0.09971 0.37251 0.11912
 H477 H 0.14255 0.31362 0.22047
 H478 H 0.24981 0.31544 0.15754
 H479 H 0.16192 0.43808 0.08303
 H480 H 0.04882 0.38977 0.09187
 H481 H 0.21722 0.35186 0.12136
 H482 H 0.19485 0.40294 0.12081
 H483 H 0.11031 0.35043 0.18457
 H484 H 0.08206 0.35411 0.12863
 C485 C 0.66584 0.85438 0.64796
 C486 C 0.64535 0.84366 0.67641
 C487 C 0.66387 0.82300 0.69743
 C488 C 0.70333 0.81255 0.69049
 C489 C 0.72408 0.82355 0.66227
 C490 C 0.70554 0.84428 0.64125
 C491 C 0.64553 0.87569 0.62516
 C492 C 0.66722 0.89964 0.61156
 C493 C 0.64785 0.91976 0.59028
 C494 C 0.60643 0.91626 0.58206
 C495 C 0.58483 0.89223 0.59556
 C496 C 0.60415 0.87219 0.61686
 H497 H 0.64710 0.81508 0.71903
 H498 H 0.75448 0.81591 0.65620
 H499 H 0.66536 0.93792 0.58004
 H500 H 0.55278 0.88914 0.59000
 H501 H 0.72193 0.85192 0.61933
 H502 H 0.69905 0.90305 0.61772
 H503 H 0.61500 0.85138 0.68254
 H504 H 0.58674 0.85377 0.62662
 C505 C 0.83908 0.14476 0.15382
 C506 C 0.86337 0.16414 0.17295
 C507 C 0.84548 0.18536 0.19371
 C508 C 0.80291 0.18816 0.19532
 C509 C 0.77851 0.16914 0.17604
 C510 C 0.79636 0.14749 0.15579
 C511 C 0.85826 0.12201 0.13182
 C512 C 0.83998 0.11370 0.10130
 C513 C 0.85822 0.09261 0.08054
 C514 C 0.89565 0.07961 0.08939
 C515 C 0.91392 0.08792 0.11991
 C516 C 0.89530 0.10858 0.14096
 H517 H 0.86502 0.19996 0.20807
 H518 H 0.74556 0.17068 0.17706
 H519 H 0.84281 0.08648 0.05755
 H520 H 0.94302 0.07883 0.12742
 H521 H 0.77656 0.13266 0.14203
 H522 H 0.81180 0.12378 0.09307
 H523 H 0.89631 0.16329 0.17158
 H524 H 0.91002 0.11392 0.16450
 C525 C 0.33300 0.64503 0.65101
 C526 C 0.29935 0.66151 0.63992
 C527 C 0.28165 0.68282 0.66071
 C528 C 0.29760 0.68834 0.69284
 C529 C 0.33129 0.67184 0.70390
 C530 C 0.34865 0.65027 0.68327
 C531 C 0.35215 0.62272 0.62883
 C532 C 0.36244 0.59470 0.64122
 C533 C 0.38114 0.57385 0.62042
 C534 C 0.39041 0.58071 0.58684
 C535 C 0.37994 0.60880 0.57452
 C536 C 0.36082 0.62950 0.59522
 H537 H 0.25575 0.69520 0.65146
 H538 H 0.34421 0.67555 0.72855
 H539 H 0.38804 0.55228 0.63060
 H540 H 0.38732 0.61509 0.54904
 H541 H 0.37479 0.63804 0.69230
 H542 H 0.35562 0.58881 0.66695
 H543 H 0.28655 0.65772 0.61524
 H544 H 0.35366 0.65109 0.58519
   
