data_POSCAR
  _audit_creation_date              2014-09-24
  _audit_creation_method            'ToBaCCo'
  _symmetry_space_group_name_H-M    'P1'
  _symmetry_Int_Tables_number       1
  _symmetry_cell_setting            triclinic
  loop_
  _symmetry_equiv_pos_as_xyz
 x,y,z
_cell_length_a 40.3714
_cell_length_b 41.5688
_cell_length_c 39.0563
_cell_angle_alpha 90.243100
_cell_angle_beta 88.271400
_cell_angle_gamma 89.930200
loop_
  _atom_site_label
  _atom_site_type_symbol
  _atom_site_fract_x
  _atom_site_fract_y
  _atom_site_fract_z
C1 C 0.29360 0.27589 1.32854
 C2 C 0.26607 0.28928 1.34610
 C3 C 0.25004 0.31673 1.33359
 C4 C 0.26159 0.33015 1.30227
 C5 C 0.28890 0.31676 1.28425
 C6 C 0.30484 0.28945 1.29736
 C7 C 0.31045 0.24957 1.34217
 C8 C 0.33863 0.23641 1.32488
 C9 C 0.34855 0.24927 1.29295
 C10 C 0.33224 0.27584 1.27940
 C11 C 0.34368 0.28964 1.24866
 C12 C 0.32872 0.31744 1.23606
 C13 C 0.30092 0.33062 1.25360
 H14 H 0.25758 0.27868 1.37015
 H15 H 0.24949 0.35070 1.29127
 H16 H 0.30111 0.23972 1.36609
 H17 H 0.36994 0.23933 1.27909
 H18 H 0.36509 0.27944 1.23511
 H19 H 0.28870 0.35162 1.24354
 C20 C 1.17649 0.69345 0.88344
 C21 C 1.20589 0.68020 0.89586
 C22 C 1.21920 0.65137 0.88208
 C23 C 1.20163 0.63536 0.85637
 C24 C 1.17243 0.64837 0.84372
 C25 C 1.15983 0.67758 0.85710
 C26 C 1.16366 0.72243 0.89684
 C27 C 1.13432 0.73605 0.88446
 C28 C 1.11795 0.71986 0.85787
 C29 C 1.13049 0.69076 0.84422
 C30 C 1.11426 0.67465 0.81772
 C31 C 1.12700 0.64568 0.80396
 C32 C 1.15574 0.63243 0.81773
 H33 H 1.21872 0.69269 0.91597
 H34 H 1.20988 0.61242 0.84618
 H35 H 1.17671 0.73448 0.91711
 H36 H 1.09569 0.72954 0.84722
 H37 H 1.09185 0.68478 0.80755
 H38 H 1.16517 0.60947 0.80859
 C39 C 0.66211 -0.16955 0.10268
 C40 C 0.68461 -0.15120 0.08310
 C41 C 0.69476 -0.12079 0.09434
 C42 C 0.68125 -0.10825 0.12539
 C43 C 0.65843 -0.12633 0.14530
 C44 C 0.64904 -0.15721 0.13388
 C45 C 0.65275 -0.20022 0.09154
 C46 C 0.63063 -0.21924 0.11125
 C47 C 0.61751 -0.20654 0.14241
 C48 C 0.62648 -0.17574 0.15360
 C49 C 0.61308 -0.16327 0.18433
 C50 C 0.62204 -0.13264 0.19607
 C51 C 0.64482 -0.11417 0.17638
 H52 H 0.69481 -0.16092 0.05920
 H53 H 0.68805 -0.08448 0.13407
 H54 H 0.66307 -0.20944 0.06746
 H55 H 0.60012 -0.21994 0.15825
 H56 H 0.59560 -0.17760 0.19938
 H57 H 0.65168 -0.09030 0.18470
 C58 C -0.18569 1.17154 -0.37923
 C59 C -0.21636 1.16089 -0.39134
 C60 C -0.23394 1.13581 -0.37468
 C61 C -0.22027 1.12168 -0.34573
 C62 C -0.18983 1.13188 -0.33351
 C63 C -0.17223 1.15693 -0.35018
 C64 C -0.16890 1.19677 -0.39586
 C65 C -0.13667 1.20975 -0.38383
 C66 C -0.12410 1.19237 -0.35294
 C67 C -0.14162 1.16709 -0.33731
 C68 C -0.12888 1.15192 -0.30831
 C69 C -0.14646 1.12686 -0.29189
 C70 C -0.17697 1.11728 -0.30455
 H71 H -0.22633 1.17265 -0.41341
 H72 H -0.23343 1.10243 -0.33247
 H73 H -0.17958 1.20787 -0.41804
 H74 H -0.10075 1.19994 -0.34262
 H75 H -0.10574 1.16028 -0.29819
 H76 H -0.19073 1.09812 -0.29182
 C77 C 0.69233 0.69774 0.63564
 C78 C 0.72214 0.68746 0.61993
 C79 C 0.74166 0.66414 0.63544
 C80 C 0.73174 0.65181 0.66761
 C81 C 0.70204 0.66205 0.68370
 C82 C 0.68211 0.68503 0.66761
 C83 C 0.67251 0.72036 0.61960
 C84 C 0.64256 0.73106 0.63504
 C85 C 0.63240 0.71824 0.66715
 C86 C 0.65200 0.69522 0.68342
 C87 C 0.64189 0.68203 0.71513
 C88 C 0.66156 0.65874 0.73106
 C89 C 0.69178 0.64936 0.71540
 H90 H 0.72991 0.69712 0.59521
 H91 H 0.74717 0.63449 0.68032
 H92 H 0.68066 0.72986 0.59491
 H93 H 0.60922 0.72539 0.67949
 H94 H 0.61897 0.69018 0.72740
 H95 H 0.70705 0.63154 0.72765
 C96 C 0.84135 0.35596 0.12307
 C97 C 0.81139 0.36827 0.11114
 C98 C 0.79613 0.39550 0.12682
 C99 C 0.81140 0.40975 0.15518
 C100 C 0.84128 0.39769 0.16747
 C101 C 0.85655 0.37105 0.15093
 C102 C 0.85647 0.32884 0.10742
 C103 C 0.88711 0.31712 0.11880
 C104 C 0.90246 0.33328 0.14570
 C105 C 0.88718 0.35957 0.16217
 C106 C 0.90204 0.37423 0.19010
 C107 C 0.88654 0.39986 0.20768
 C108 C 0.85623 0.41184 0.19601
 H109 H 0.80080 0.35666 0.08926
 H110 H 0.80002 0.43047 0.16778
 H111 H 0.84459 0.31765 0.08596
 H112 H 0.92607 0.32474 0.15468
 H113 H 0.92549 0.36507 0.19882
 H114 H 0.84444 0.43223 0.20868
 C115 C 0.35107 0.15066 0.90898
 C116 C 0.32358 0.13581 0.92510
 C117 C 0.31117 0.10634 0.91262
 C118 C 0.32765 0.09163 0.88436
 C119 C 0.35507 0.10625 0.86801
 C120 C 0.36672 0.13597 0.88019
 C121 C 0.36296 0.18021 0.92101
 C122 C 0.38991 0.19552 0.90439
 C123 C 0.40558 0.18056 0.87585
 C124 C 0.39409 0.15096 0.86362
 C125 C 0.40940 0.13623 0.83490
 C126 C 0.39760 0.10688 0.82223
 C127 C 0.37072 0.09173 0.83935
 H128 H 0.31229 0.14765 0.94716
 H129 H 0.31869 0.06890 0.87451
 H130 H 0.35097 0.19158 0.94316
 H131 H 0.42703 0.19154 0.86339
 H132 H 0.43028 0.14789 0.82199
 H133 H 0.36197 0.06856 0.83075
 C134 C 0.16465 0.82457 0.37207
 C135 C 0.19161 0.83738 0.38957
 C136 C 0.20864 0.86449 0.37676
 C137 C 0.19849 0.87875 0.34634
 C138 C 0.17194 0.86605 0.32843
 C139 C 0.15481 0.83894 0.34135
 C140 C 0.14739 0.79772 0.38492
 C141 C 0.12031 0.78464 0.36736
 C142 C 0.11105 0.79919 0.33653
 C143 C 0.12789 0.82624 0.32354
 C144 C 0.11826 0.84080 0.29297
 C145 C 0.13527 0.86794 0.28009
 C146 C 0.16221 0.88016 0.29784
 H147 H 0.19875 0.82667 0.41349
 H148 H 0.21147 0.89976 0.33650
 H149 H 0.15587 0.78726 0.40832
 H150 H 0.09042 0.78955 0.32257
 H151 H 0.09794 0.83063 0.27905
 H152 H 0.17546 0.90098 0.28791
 Zn153 Zn 0.03258 0.99863 0.01079
 Zn154 Zn 0.00338 1.06104 -0.01080
 Zn155 Zn -0.03307 0.99938 -0.02359
 Zn156 Zn -0.02684 1.02579 0.04764
 O157 O -0.00604 1.02107 0.00587
 O158 O 0.06883 1.02199 -0.00017
 O159 O -0.01264 1.06698 -0.05219
 O160 O -0.01458 0.96226 -0.03898
 O161 O 0.04680 1.06855 -0.01493
 O162 O 0.03446 0.96276 -0.01497
 O163 O -0.04116 1.02244 -0.06161
 O164 O -0.06648 1.00784 0.04871
 O165 O -0.01387 1.09313 0.01492
 O166 O -0.07294 0.98899 -0.00382
 O167 O -0.03511 1.06679 0.05940
 O168 O -0.00515 1.00726 0.08166
 O169 O 0.03797 0.98546 0.05392
 C170 C 0.07186 1.05093 -0.01009
 C171 C -0.03087 1.05005 -0.07097
 C172 C 0.01357 0.94956 -0.03424
 C173 C -0.08376 0.99373 0.02674
 C174 C -0.02972 1.09283 0.04345
 C175 C 0.02103 0.99038 0.08136
 Zn176 Zn 0.44654 -0.00075 0.50861
 Zn177 Zn 0.50721 0.02215 0.47033
 Zn178 Zn 0.51192 -0.00385 0.54102
 Zn179 Zn 0.49669 -0.04824 0.48292
 O180 O 0.49066 -0.00770 0.50064
 O181 O 0.43165 0.03252 0.48534
 O182 O 0.54002 0.04579 0.48748
 O183 O 0.48491 0.00755 0.57617
 O184 O 0.47624 0.05002 0.45674
 O185 O 0.43589 0.00794 0.55244
 O186 O 0.54434 0.02549 0.53945
 O187 O 0.51831 -0.07401 0.51146
 O188 O 0.52501 0.00402 0.43241
 O189 O 0.53005 -0.04080 0.55394
 O190 O 0.51961 -0.04814 0.44266
 O191 O 0.45830 -0.06856 0.47496
 O192 O 0.42148 -0.03374 0.49600
 C193 C 0.44556 0.05201 0.46470
 C194 C 0.55385 0.04494 0.51619
 C195 C 0.45375 0.01143 0.57831
 C196 C 0.53067 -0.06858 0.54045
 C197 C 0.52965 -0.02511 0.42371
 C198 C 0.42849 -0.06038 0.48160
 Zn199 Zn 1.01402 0.45872 0.49075
 Zn200 Zn 1.06135 0.50941 0.51307
 Zn201 Zn 0.99300 0.52795 0.49333
 Zn202 Zn 1.00425 0.49157 0.55822
 O203 O 1.01808 0.49693 0.51373
 O204 O 1.05295 0.44459 0.47318
 O205 O 1.06750 0.54705 0.49237
 O206 O 0.97274 0.51320 0.45614
 O207 O 1.08806 0.48174 0.49063
 O208 O 0.98731 0.46181 0.45494
 O209 O 1.01692 0.56243 0.47931
 O210 O 0.96832 0.51467 0.56858
 O211 O 1.07739 0.51572 0.55488
 O212 O 0.96029 0.54262 0.52135
 O213 O 1.03406 0.50423 0.58855
 O214 O 0.99328 0.45086 0.56811
 O215 O 0.99792 0.42678 0.51749
 C216 C 1.08208 0.45597 0.47448
 C217 C 1.04794 0.56744 0.47991
 C218 C 0.97181 0.48547 0.44251
 C219 C 0.95203 0.53503 0.55189
 C220 C 1.06357 0.51424 0.58441
 C221 C 0.99067 0.42605 0.54937
 Zn222 Zn 0.48140 0.49649 0.95287
 Zn223 Zn 0.47176 0.52200 1.02398
 Zn224 Zn 0.50166 0.45709 1.01221
 Zn225 Zn 0.54045 0.51556 0.99346
 O226 O 0.49886 0.49784 0.99558
 O227 O 0.44366 0.51927 0.95014
 O228 O 0.45376 0.49933 1.05854
 O229 O 0.48823 0.42747 0.98261
 O230 O 0.43738 0.53908 1.00259
 O231 O 0.47223 0.45634 0.93862
 O232 O 0.47587 0.45117 1.04956
 O233 O 0.57229 0.48874 1.00803
 O234 O 0.49274 0.55507 1.04287
 O235 O 0.54288 0.44588 1.02310
 O236 O 0.54337 0.55061 1.01991
 O237 O 0.55218 0.52846 0.95087
 O238 O 0.50878 0.51351 0.92119
 C239 C 0.42779 0.53640 0.97211
 C240 C 0.45664 0.46995 1.06643
 C241 C 0.47610 0.42939 0.95311
 C242 C 0.57038 0.46052 1.02037
 C243 C 0.52233 0.56493 1.03941
 C244 C 0.53699 0.52669 0.92288
 C245 C 1.22333 0.32965 0.35318
 C246 C 1.20849 0.35949 0.34738
 C247 C 1.18180 0.37241 0.37021
 C248 C 1.17984 0.40572 0.37559
 C249 C 1.15532 0.41873 0.39750
 C250 C 1.13202 0.39861 0.41416
 C251 C 1.13325 0.36539 0.40785
 C252 C 1.15807 0.35231 0.38624
 C253 C 1.10544 0.41191 0.43689
 C254 C 1.10966 0.43999 0.45589
 H255 H 1.21859 0.37559 0.32812
 H256 H 1.19755 0.42170 0.36308
 H257 H 1.15432 0.44458 0.40082
 H258 H 1.11514 0.34952 0.41989
 H259 H 1.15832 0.32661 0.38172
 H260 H 1.08212 0.39909 0.43895
 H261 H 1.21486 0.31641 0.37563
 H262 H 1.13372 0.45144 0.45618
 C263 C 0.24925 0.63939 0.89468
 C264 C 0.26760 0.61413 0.87939
 C265 C 0.29833 0.60042 0.89329
 C266 C 0.31926 0.58234 0.87123
 C267 C 0.34767 0.56758 0.88332
 C268 C 0.35588 0.57026 0.91787
 C269 C 0.33493 0.58846 0.94010
 C270 C 0.30644 0.60332 0.92793
 C271 C 0.38610 0.55331 0.92920
 C272 C 0.39760 0.55375 0.96258
 H273 H 0.26061 0.60470 0.85485
 H274 H 0.31353 0.57948 0.84447
 H275 H 0.36318 0.55375 0.86556
 H276 H 0.33991 0.59114 0.96695
 H277 H 0.29050 0.61632 0.94595
 H278 H 0.40013 0.53960 0.91005
 H279 H 0.25948 0.65139 0.91662
 H280 H 0.38474 0.56729 0.98254
 C281 C -0.28021 0.89646 0.07280
 C282 C -0.25939 0.92040 0.08504
 C283 C -0.23068 0.93328 0.06491
 C284 C -0.21754 0.96309 0.07440
 C285 C -0.18867 0.97479 0.05832
 C286 C -0.17188 0.95658 0.03274
 C287 C -0.18571 0.92742 0.02216
 C288 C -0.21469 0.91568 0.03824
 C289 C -0.13929 0.96688 0.01817
 C290 C -0.11701 0.98343 0.03829
 H291 H -0.26334 0.92959 0.11078
 H292 H -0.22942 0.97720 0.09467
 H293 H -0.17936 0.99796 0.06629
 H294 H -0.17328 0.91302 0.00247
 H295 H -0.22349 0.89225 0.03063
 H296 H -0.13170 0.95912 -0.00739
 H297 H -0.27660 0.88823 0.04663
 H298 H -0.12381 0.98862 0.06477
 C299 C 0.73517 0.12419 0.61491
 C300 C 0.71824 0.13381 0.58589
 C301 C 0.68588 0.11937 0.57762
 C302 C 0.67770 0.11479 0.54329
 C303 C 0.64840 0.09893 0.53501
 C304 C 0.62649 0.08777 0.56108
 C305 C 0.63415 0.09354 0.59534
 C306 C 0.66333 0.10936 0.60357
 C307 C 0.59662 0.06846 0.55398
 C308 C 0.58179 0.06677 0.52221
 H309 H 0.72957 0.14992 0.56735
 H310 H 0.69459 0.12248 0.52286
 H311 H 0.64373 0.09457 0.50828
 H312 H 0.61762 0.08545 0.61591
 H313 H 0.66821 0.11358 0.63031
 H314 H 0.58570 0.05484 0.57506
 H315 H 0.72382 0.10535 0.63033
 H316 H 0.59060 0.08162 0.50118
 C317 C 0.35785 0.21145 0.33829
 C318 C 0.35461 0.19963 0.37174
 C319 C 0.37660 0.17473 0.38580
 C320 C 0.36630 0.15922 0.41609
 C321 C 0.38603 0.13566 0.43057
 C322 C 0.41654 0.12685 0.41484
 C323 C 0.42742 0.14307 0.38520
 C324 C 0.40774 0.16681 0.37078
 C325 C 0.43767 0.10135 0.42897
 C326 C 0.42493 0.07720 0.45014
 H327 H 0.33541 0.20870 0.38902
 H328 H 0.34282 0.16534 0.42865
 H329 H 0.37735 0.12486 0.45430
 H330 H 0.45115 0.13719 0.37303
 H331 H 0.41745 0.17903 0.34830
 H332 H 0.46372 0.10082 0.42140
 H333 H 0.37723 0.20152 0.32171
 H334 H 0.39866 0.07618 0.45628
 C335 C 0.88231 0.24076 0.59631
 C336 C 0.90886 0.25710 0.61011
 C337 C 0.92451 0.28526 0.59307
 C338 C 0.94782 0.30339 0.61081
 C339 C 0.96242 0.33065 0.59592
 C340 C 0.95404 0.34033 0.56281
 C341 C 0.93146 0.32167 0.54466
 C342 C 0.91663 0.29454 0.55967
 C343 C 0.96852 0.36950 0.54656
 C344 C 0.97860 0.39613 0.56550
 H345 H 0.91764 0.24991 0.63488
 H346 H 0.95459 0.29658 0.63642
 H347 H 0.98049 0.34383 0.61029
 H348 H 0.92484 0.32844 0.51900
 H349 H 0.89899 0.28093 0.54514
 H350 H 0.96889 0.37103 0.51886
 H351 H 0.87369 0.22508 0.60722
 H352 H 0.97561 0.39603 0.59313
 C353 C 0.12303 0.76542 -0.10091
 C354 C 0.09376 0.78167 -0.10901
 C355 C 0.08359 0.81296 -0.09323
 C356 C 0.05001 0.82191 -0.09297
 C357 C 0.03943 0.85122 -0.07850
 C358 C 0.06239 0.87252 -0.06424
 C359 C 0.09600 0.86366 -0.06478
 C360 C 0.10656 0.83441 -0.07926
 C361 C 0.05257 0.90365 -0.04789
 C362 C 0.02185 0.91875 -0.05149
 H363 H 0.07649 0.77084 -0.12619
 H364 H 0.03177 0.80596 -0.10366
 H365 H 0.01325 0.85665 -0.07814
 H366 H 0.11429 0.87960 -0.05415
 H367 H 0.13279 0.82910 -0.07990
 H368 H 0.07091 0.91569 -0.03273
 H369 H 0.13795 0.77591 -0.08120
 H370 H 0.00339 0.90826 -0.06760
 C371 C 0.62258 0.75000 1.09872
 C372 C 0.60225 0.72757 1.11583
 C373 C 0.59361 0.69595 1.10098
 C374 C 0.56496 0.68034 1.11348
 C375 C 0.55526 0.65093 1.09963
 C376 C 0.57409 0.63651 1.07282
 C377 C 0.60347 0.65146 1.06130
 C378 C 0.61324 0.68083 1.07523
 C379 C 0.56412 0.60607 1.05629
 C380 C 0.53192 0.59391 1.05825
 H381 H 0.59068 0.73327 1.14035
 H382 H 0.54978 0.69113 1.13380
 H383 H 0.53317 0.63969 1.11029
 H384 H 0.61879 0.64053 1.04117
 H385 H 0.63629 0.69124 1.06591
 H386 H 0.58247 0.59366 1.04026
 H387 H 0.63270 0.74346 1.07368
 H388 H 0.51263 0.60635 1.07282
 C389 C 0.34357 0.33248 1.20512
 C390 C 0.34386 0.36571 1.20021
 C391 C 0.36487 0.38112 1.17334
 C392 C 0.37639 0.41249 1.17881
 C393 C 0.39810 0.42702 1.15503
 C394 C 0.40836 0.41044 1.12507
 C395 C 0.39628 0.37934 1.11930
 C396 C 0.37451 0.36489 1.14299
 C397 C 0.43188 0.42441 1.09956
 C398 C 0.43632 0.45740 1.09514
 H399 H 0.33180 0.38114 1.21922
 H400 H 0.36931 0.42547 1.20201
 H401 H 0.40738 0.45078 1.16069
 H402 H 0.40360 0.36621 1.09627
 H403 H 0.36531 0.34109 1.13734
 H404 H 0.44429 0.40803 1.08170
 H405 H 0.35879 0.31732 1.18843
 H406 H 0.42227 0.47443 1.11077
 C407 C 0.60625 -0.12127 0.22872
 C408 C 0.61789 -0.09617 0.24898
 C409 C 0.60206 -0.08788 0.28267
 C410 C 0.60448 -0.05637 0.29533
 C411 C 0.58933 -0.04778 0.32679
 C412 C 0.57150 -0.07073 0.34635
 C413 C 0.57012 -0.10248 0.33418
 C414 C 0.58522 -0.11102 0.30280
 C415 C 0.55460 -0.06297 0.37967
 C416 C 0.54707 -0.03177 0.39076
 H417 H 0.63866 -0.08178 0.24003
 H418 H 0.61788 -0.03825 0.28067
 H419 H 0.59207 -0.02330 0.33565
 H420 H 0.55715 -0.12080 0.34897
 H421 H 0.58401 -0.13591 0.29475
 H422 H 0.54659 -0.08290 0.39568
 H423 H 0.58448 -0.13426 0.23769
 H424 H 0.55354 -0.01135 0.37488
 C425 C -0.13479 1.11074 -0.26072
 C426 C -0.10161 1.10873 -0.25186
 C427 C -0.09078 1.09194 -0.22067
 C428 C -0.06055 1.10067 -0.20654
 C429 C -0.04999 1.08620 -0.17652
 C430 C -0.06954 1.06257 -0.15995
 C431 C -0.09899 1.05274 -0.17496
 C432 C -0.10957 1.06723 -0.20498
 C433 C -0.05992 1.04778 -0.12722
 C434 C -0.03988 1.06363 -0.10412
 H435 H -0.08283 1.12054 -0.26764
 H436 H -0.04524 1.11909 -0.21852
 H437 H -0.02642 1.09349 -0.16661
 H438 H -0.11413 1.03411 -0.16314
 H439 H -0.13227 1.05872 -0.21585
 H440 H -0.07056 1.02473 -0.12015
 H441 H -0.15347 1.09925 -0.24456
 H442 H -0.03092 1.08758 -0.10985
 C443 C 1.10959 0.62922 0.77585
 C444 C 1.12588 0.60805 0.75292
 C445 C 1.10970 0.58932 0.72563
 C446 C 1.12999 0.57294 0.70144
 C447 C 1.11622 0.55450 0.67548
 C448 C 1.08164 0.55209 0.67299
 C449 C 1.06132 0.56784 0.69764
 C450 C 1.07510 0.58627 0.72369
 C451 C 1.06584 0.53380 0.64512
 C452 C 1.08194 0.52594 0.61398
 H453 H 1.15249 0.60558 0.75421
 H454 H 1.15672 0.57436 0.70263
 H455 H 1.13288 0.54200 0.65779
 H456 H 1.03459 0.56612 0.69657
 H457 H 1.05850 0.59768 0.74226
 H458 H 1.03950 0.52906 0.64792
 H459 H 1.08380 0.63507 0.77253
 H460 H 1.10767 0.53221 0.60945
 C461 C 0.77227 0.65322 0.61741
 C462 C 0.78374 0.62169 0.61987
 C463 C 0.81378 0.60922 0.60168
 C464 C 0.82613 0.57927 0.61163
 C465 C 0.85452 0.56639 0.59565
 C466 C 0.87133 0.58337 0.56937
 C467 C 0.85845 0.61282 0.55858
 C468 C 0.82998 0.62574 0.57458
 C469 C 0.90180 0.57058 0.55242
 C470 C 0.92286 0.54955 0.56893
 H471 H 0.77002 0.60504 0.63613
 H472 H 0.81382 0.56575 0.63196
 H473 H 0.86284 0.54295 0.60370
 H474 H 0.87065 0.62601 0.53793
 H475 H 0.82083 0.64838 0.56523
 H476 H 0.90834 0.57868 0.52677
 H477 H 0.78470 0.67017 0.60055
 H478 H 0.91783 0.54307 0.59538
 C479 C 0.76663 0.40954 1.11507
 C480 C 0.74734 0.39726 1.08870
 C481 C 0.71734 0.41367 1.07609
 C482 C 0.69335 0.39530 1.05959
 C483 C 0.66507 0.40982 1.04667
 C484 C 0.66020 0.44325 1.04978
 C485 C 0.68457 0.46175 1.06553
 C486 C 0.71279 0.44719 1.07866
 C487 C 0.63055 0.45954 1.03623
 C488 C 0.60027 0.44393 1.03211
 H489 H 0.75292 0.37398 1.07760
 H490 H 0.69649 0.36954 1.05668
 H491 H 0.64749 0.39482 1.03370
 H492 H 0.68171 0.48760 1.06779
 H493 H 0.73123 0.46236 1.09008
 H494 H 0.63202 0.48514 1.03131
 H495 H 0.75788 0.43123 1.12787
 H496 H 0.59756 0.41903 1.03965
 C497 C 0.28259 1.09116 -0.07350
 C498 C 0.26161 1.10388 -0.04758
 C499 C 0.22979 1.08858 -0.03713
 C500 C 0.20395 1.10815 -0.02421
 C501 C 0.17293 1.09503 -0.01587
 C502 C 0.16715 1.06192 -0.02017
 C503 C 0.19346 1.04206 -0.03137
 C504 C 0.22450 1.05521 -0.03987
 C505 C 0.13413 1.04754 -0.01309
 C506 C 0.10485 1.06499 -0.01629
 H507 H 0.26636 1.12726 -0.03669
 H508 H 0.20757 1.13382 -0.02120
 H509 H 0.15366 1.11091 -0.00593
 H510 H 0.18981 1.01638 -0.03417
 H511 H 0.24420 1.03917 -0.04840
 H512 H 0.13273 1.02209 -0.00733
 H513 H 0.27528 1.06869 -0.08517
 H514 H 0.10585 1.08980 -0.02453
 C515 C 0.23619 -0.12051 0.39510
 C516 C 0.25738 -0.13744 0.41617
 C517 C 0.28530 -0.12143 0.43302
 C518 C 0.31457 -0.13863 0.43858
 C519 C 0.34182 -0.12341 0.45296
 C520 C 0.34001 -0.09072 0.46238
 C521 C 0.31018 -0.07404 0.45821
 C522 C 0.28314 -0.08914 0.44363
 C523 C 0.36831 -0.07295 0.47650
 C524 C 0.40148 -0.08196 0.47161
 H525 H 0.25523 -0.16333 0.41808
 H526 H 0.31657 -0.16371 0.43113
 H527 H 0.36402 -0.13735 0.45675
 H528 H 0.30794 -0.04900 0.46576
 H529 H 0.26054 -0.07549 0.44084
 H530 H 0.36287 -0.05008 0.48887
 H531 H 0.24142 -0.09544 0.38977
 H532 H 0.40801 -0.10399 0.45818
 C533 C 0.62421 -0.24600 0.61724
 C534 C 0.59598 -0.22990 0.62989
 C535 C 0.58023 -0.20467 0.60940
 C536 C 0.56774 -0.17698 0.62579
 C537 C 0.55536 -0.15161 0.60660
 C538 C 0.55502 -0.15371 0.57063
 C539 C 0.56573 -0.18218 0.55445
 C540 C 0.57837 -0.20742 0.57360
 C541 C 0.54310 -0.12694 0.54950
 C542 C 0.54532 -0.09491 0.55981
 H543 H 0.58738 -0.23275 0.65617
 H544 H 0.56841 -0.17462 0.65340
 H545 H 0.54599 -0.13051 0.62003
 H546 H 0.56499 -0.18462 0.52685
 H547 H 0.58679 -0.22900 0.56037
 H548 H 0.53322 -0.13256 0.52469
 H549 H 0.63362 -0.23905 0.59205
 H550 H 0.55698 -0.08885 0.58358
 C551 C 1.10233 0.75741 0.37894
 C552 C 1.10734 0.74135 0.40989
 C553 C 1.08987 0.71145 0.42063
 C554 C 1.10339 0.69331 0.44703
 C555 C 1.08855 0.66470 0.45793
 C556 C 1.05971 0.65336 0.44258
 C557 C 1.04539 0.67199 0.41705
 C558 C 1.06032 0.70073 0.40604
 C559 C 1.04403 0.62262 0.45330
 C560 C 1.06248 0.59747 0.46665
 H561 H 1.12574 0.74991 0.42716
 H562 H 1.12575 0.70121 0.45921
 H563 H 1.09958 0.65180 0.47872
 H564 H 1.02281 0.66410 0.40531
 H565 H 1.04832 0.71442 0.38648
 H566 H 1.01775 0.61936 0.44964
 H567 H 1.08356 0.74816 0.36238
 H568 H 1.08913 0.59972 0.46778
 C569 C -0.09667 1.28997 0.10456
 C570 C -0.11115 1.26704 0.08343
 C571 C -0.09254 1.23800 0.07223
 C572 C -0.10835 1.20799 0.07284
 C573 C -0.09075 1.18005 0.06381
 C574 C -0.05717 1.18178 0.05328
 C575 C -0.04172 1.21195 0.05145
 C576 C -0.05911 1.23981 0.06124
 C577 C -0.03845 1.15269 0.04245
 C578 C -0.04378 1.12283 0.05783
 H579 H -0.13737 1.26792 0.07861
 H580 H -0.13418 1.20610 0.08092
 H581 H -0.10359 1.15720 0.06448
 H582 H -0.01604 1.21390 0.04285
 H583 H -0.04654 1.26278 0.05989
 H584 H -0.01980 1.15493 0.02207
 H585 H -0.07165 1.28504 0.11251
 H586 H -0.06024 1.12111 0.08017
 C587 C 0.40162 0.22662 0.91810
 C588 C 0.41883 0.24932 0.89816
 C589 C 0.43097 0.28015 0.91214
 C590 C 0.43691 0.30603 0.88981
 C591 C 0.44858 0.33544 0.90214
 C592 C 0.45473 0.33942 0.93717
 C593 C 0.44953 0.31327 0.95929
 C594 C 0.43780 0.28397 0.94700
 C595 C 0.46712 0.36992 0.95176
 C596 C 0.46568 0.39981 0.93559
 H597 H 0.42199 0.24530 0.87085
 H598 H 0.43237 0.30352 0.86273
 H599 H 0.45313 0.35463 0.88403
 H600 H 0.45453 0.31552 0.98630
 H601 H 0.43472 0.26428 0.96482
 H602 H 0.47636 0.36900 0.97751
 H603 H 0.39466 0.23252 0.94435
 H604 H 0.45529 0.40208 0.91053
 C605 C 0.65153 0.64352 0.76396
 C606 C 0.61850 0.63962 0.77474
 C607 C 0.60840 0.62056 0.80527
 C608 C 0.57643 0.60744 0.80696
 C609 C 0.56610 0.58862 0.83481
 C610 C 0.58764 0.58248 0.86171
 C611 C 0.61926 0.59645 0.86056
 C612 C 0.62962 0.61528 0.83265
 C613 C 0.57727 0.56315 0.89198
 C614 C 0.55123 0.54114 0.89152
 H615 H 0.59911 0.64806 0.75846
 H616 H 0.55939 0.61159 0.78652
 H617 H 0.54101 0.57953 0.83532
 H618 H 0.63604 0.59273 0.88132
 H619 H 0.65403 0.62594 0.83293
 H620 H 0.59024 0.56680 0.91557
 H621 H 0.67076 0.63196 0.77819
 H622 H 0.53905 0.53596 0.86784
 C623 C 0.41402 0.09281 0.79119
 C624 C 0.39844 0.07096 0.76965
 C625 C 0.41375 0.05849 0.73728
 C626 C 0.39309 0.04515 0.71272
 C627 C 0.40623 0.03377 0.68147
 C628 C 0.44051 0.03557 0.67406
 C629 C 0.46130 0.04786 0.69911
 C630 C 0.44815 0.05918 0.73042
 C631 C 0.45555 0.02472 0.64090
 C632 C 0.43762 0.02041 0.61121
 H633 H 0.37290 0.06448 0.77513
 H634 H 0.36657 0.04375 0.71760
 H635 H 0.38938 0.02339 0.66353
 H636 H 0.48785 0.04898 0.69434
 H637 H 0.46512 0.06811 0.74911
 H638 H 0.48220 0.02156 0.63938
 H639 H 0.43817 0.10211 0.78376
 H640 H 0.41122 0.02474 0.61137
 C641 C 0.12624 0.88378 0.24783
 C642 C 0.09417 0.88381 0.23546
 C643 C 0.08524 0.90175 0.20438
 C644 C 0.05260 0.91273 0.20135
 C645 C 0.04347 0.93020 0.17261
 C646 C 0.06687 0.93687 0.14616
 C647 C 0.09925 0.92504 0.14874
 C648 C 0.10842 0.90772 0.17756
 C649 C 0.05807 0.95465 0.11493
 C650 C 0.03111 0.97561 0.11359
 H651 H 0.07437 0.87272 0.25051
 H652 H 0.03416 0.90796 0.22141
 H653 H 0.01795 0.93783 0.17102
 H654 H 0.11756 0.92928 0.12841
 H655 H 0.13351 0.89865 0.17843
 H656 H 0.07374 0.95136 0.09216
 H657 H 0.14504 0.89831 0.23501
 H658 H 0.01626 0.98081 0.13647
 C659 C 0.90319 0.41285 0.23806
 C660 C 0.88698 0.42824 0.26569
 C661 C 0.90385 0.43462 0.29827
 C662 C 0.89346 0.46042 0.31927
 C663 C 0.90890 0.46656 0.35031
 C664 C 0.93488 0.44670 0.36105
 C665 C 0.94452 0.42040 0.34046
 C666 C 0.92927 0.41439 0.30948
 C667 C 0.95207 0.45186 0.39367
 C668 C 0.95243 0.48108 0.41143
 H669 H 0.86127 0.43524 0.26396
 H670 H 0.87348 0.47594 0.31156
 H671 H 0.90000 0.48649 0.36591
 H672 H 0.96404 0.40438 0.34836
 H673 H 0.93704 0.39344 0.29480
 H674 H 0.96673 0.43212 0.40314
 H675 H 0.92933 0.40753 0.23996
 H676 H 0.93950 0.50178 0.40176
   
