data_POSCAR
  _audit_creation_date              2014-09-24
  _audit_creation_method            'ToBaCCo'
  _symmetry_space_group_name_H-M    'P1'
  _symmetry_Int_Tables_number       1
  _symmetry_cell_setting            triclinic
  loop_
  _symmetry_equiv_pos_as_xyz
 x,y,z
_cell_length_a 33.5414
_cell_length_b 11.0661
_cell_length_c 11.0499
_cell_angle_alpha 81.267700
_cell_angle_beta 89.916900
_cell_angle_gamma 85.226600
loop_
  _atom_site_label
  _atom_site_type_symbol
  _atom_site_fract_x
  _atom_site_fract_y
  _atom_site_fract_z
C1 C 0.72949 0.35457 0.52022
 C2 C 0.74227 0.31694 0.40811
 C3 C 0.78270 0.31323 0.37756
 C4 C 0.81122 0.35038 0.45334
 C5 C 0.79880 0.38574 0.56797
 C6 C 0.75751 0.39689 0.59430
 H7 H 0.74751 0.42118 0.68129
 H8 H 0.79166 0.28847 0.28955
 C9 C 0.20132 0.59654 0.57329
 C10 C 0.21093 0.56443 0.45766
 C11 C 0.24850 0.58853 0.40836
 C12 C 0.27527 0.65140 0.46882
 C13 C 0.26513 0.68587 0.58444
 C14 C 0.22822 0.65529 0.63552
 H15 H 0.21982 0.67664 0.72502
 H16 H 0.25510 0.57144 0.31604
 C17 C 0.31149 0.16304 -0.53549
 C18 C 0.30018 0.19778 -0.42203
 C19 C 0.25988 0.19370 -0.38687
 C20 C 0.23206 0.14512 -0.45716
 C21 C 0.24220 0.12265 -0.57763
 C22 C 0.28236 0.13224 -0.61354
 H23 H 0.29239 0.11028 -0.70108
 H24 H 0.25149 0.21288 -0.29640
 C25 C -0.23617 0.83466 -0.58981
 C26 C -0.22866 0.86140 -0.47154
 C27 C -0.26026 0.90687 -0.40419
 C28 C -0.30020 0.91486 -0.44725
 C29 C -0.30761 0.89051 -0.56810
 C30 C -0.27544 0.84835 -0.63608
 H31 H -0.28080 0.83031 -0.72820
 H32 H -0.25387 0.91925 -0.31107
 N33 N -0.04508 0.83347 0.22624
 N34 N -0.07885 0.84632 0.28741
 N35 N 0.03349 0.69464 0.14022
 N36 N 0.06277 0.60560 0.14739
 N37 N 0.03793 0.76342 0.22558
 N38 N 0.06985 0.72274 0.29327
 N39 N -0.04918 0.76020 0.14480
 N40 N -0.08512 0.72086 0.14870
 C41 C -0.10322 0.77379 0.23833
 C42 C 0.08481 0.62397 0.24483
 N43 N 0.03211 0.82461 -0.21134
 N44 N 0.06050 0.79653 -0.28789
 N45 N -0.05345 0.79983 -0.11692
 N46 N -0.08669 0.74888 -0.13554
 N47 N -0.05043 0.89776 -0.19869
 N48 N -0.08162 0.91738 -0.27379
 N49 N 0.02865 0.73167 -0.12400
 N50 N 0.05382 0.63744 -0.13945
 Mn51 Mn -0.00996 0.74508 0.01137
 C52 C 0.07340 0.67926 -0.24213
 C53 C -0.10421 0.82486 -0.23217
 N54 N 0.05633 1.01537 0.22117
 N55 N 0.08965 0.98993 0.28829
 N56 N -0.02064 1.18069 0.14081
 N57 N -0.04444 1.27778 0.15866
 N58 N -0.02714 1.08599 0.22345
 N59 N -0.05591 1.11520 0.29811
 N60 N 0.06113 1.10575 0.13175
 N61 N 0.09720 1.14372 0.13532
 Mn62 Mn 0.00534 0.92420 0.22605
 C63 C 0.11457 1.07264 0.23427
 C64 C -0.06636 1.23498 0.25668
 N65 N -0.03219 1.14672 -0.20474
 N66 N -0.06610 1.18501 -0.26276
 N67 N 0.05845 1.13856 -0.13373
 N68 N 0.09717 1.15660 -0.14350
 N69 N 0.04820 1.07508 -0.21827
 N70 N 0.07849 1.05095 -0.28780
 N71 N -0.02524 1.21548 -0.12141
 N72 N -0.05516 1.30075 -0.11838
 Mn73 Mn -0.00074 0.98661 -0.20899
 Mn74 Mn 0.01877 1.16188 0.00397
 Cl75 Cl 0.00350 0.95447 0.00858
 C76 C -0.07985 1.28124 -0.20886
 C77 C 0.10874 1.10264 -0.24238
 N78 N 0.53849 0.67895 0.18702
 N79 N 0.56870 0.69835 0.25582
 N80 N 0.44706 0.73423 0.12248
 N81 N 0.41108 0.78623 0.13905
 N82 N 0.45616 0.64099 0.20925
 N83 N 0.42617 0.62599 0.28644
 N84 N 0.52832 0.77628 0.10617
 N85 N 0.55096 0.86574 0.11929
 C86 C 0.57631 0.81474 0.21180
 C87 C 0.39850 0.71805 0.24184
 N88 N 0.44625 0.69812 -0.22785
 N89 N 0.41358 0.70068 -0.29436
 N90 N 0.52236 0.80963 -0.15543
 N91 N 0.55113 0.88421 -0.15904
 N92 N 0.52778 0.73727 -0.23913
 N93 N 0.56027 0.76226 -0.30258
 N94 N 0.44057 0.76831 -0.14254
 N95 N 0.40349 0.81998 -0.14850
 Mn96 Mn 0.48421 0.77360 -0.01757
 C97 C 0.38733 0.77781 -0.24491
 C98 C 0.57406 0.85522 -0.25243
 N99 N 0.47539 0.38483 0.21272
 N100 N 0.44892 0.35091 0.29649
 N101 N 0.56016 0.34498 0.10800
 N102 N 0.59637 0.28892 0.10741
 N103 N 0.55758 0.41989 0.18959
 N104 N 0.59226 0.41692 0.24690
 N105 N 0.47849 0.30995 0.13114
 N106 N 0.45471 0.22040 0.15942
 Mn107 Mn 0.50714 0.53099 0.20102
 C108 C 0.43650 0.24815 0.26278
 C109 C 0.61591 0.33417 0.19480
 N110 N 0.54713 0.47759 -0.23573
 N111 N 0.57723 0.48751 -0.31297
 N112 N 0.47177 0.34562 -0.13410
 N113 N 0.44428 0.26707 -0.13134
 N114 N 0.46446 0.43807 -0.22317
 N115 N 0.43153 0.42362 -0.28391
 N116 N 0.55383 0.38022 -0.15214
 N117 N 0.58849 0.32080 -0.17083
 Mn118 Mn 0.49647 0.58810 -0.23323
 Mn119 Mn 0.51592 0.34371 -0.01200
 Cl120 Cl 0.50078 0.55913 -0.01542
 C121 C 0.60305 0.38999 -0.26990
 C122 C 0.41967 0.31556 -0.22600
 C123 C 0.35355 0.14469 0.42744
 C124 C 0.37187 0.03118 0.41420
 C125 C 0.40570 0.05416 0.34908
 C126 C 0.40564 0.17997 0.32926
 O127 O 0.37410 0.23537 0.37633
 H128 H 0.36083 -0.05734 0.44449
 H129 H 0.42759 -0.01231 0.31928
 C130 C -0.20309 0.79133 0.33464
 C131 C -0.20619 0.70598 0.25696
 C132 C -0.16880 0.68756 0.21194
 C133 C -0.14567 0.76267 0.26568
 O134 O -0.16631 0.82598 0.34010
 H135 H -0.23228 0.66043 0.23787
 H136 H -0.15939 0.62606 0.14798
 C137 C 0.65433 0.90963 0.37456
 C138 C 0.62659 1.00839 0.38061
 C139 C 0.59478 0.99052 0.31104
 C140 C 0.60496 0.88127 0.26962
 O141 O 0.64112 0.83260 0.30616
 H142 H 0.62885 1.08471 0.42909
 H143 H 0.56666 1.04663 0.29791
 C144 C 0.21318 1.09598 0.33750
 C145 C 0.22101 1.07888 0.21734
 C146 C 0.18532 1.06272 0.16714
 C147 C 0.15785 1.06986 0.25840
 O148 O 0.17424 1.09193 0.36118
 H149 H 0.24888 1.08046 0.16833
 H150 H 0.17970 1.05041 0.07350
 C151 C 0.69108 0.33323 -0.43292
 C152 C 0.67160 0.23207 -0.44964
 C153 C 0.63645 0.24127 -0.39019
 C154 C 0.63698 0.34641 -0.33933
 O155 O 0.67027 0.40257 -0.36280
 H156 H 0.68265 0.15840 -0.49733
 H157 H 0.61302 0.17913 -0.38443
 C158 C 0.16258 0.57448 -0.36944
 C159 C 0.15315 0.46277 -0.30878
 C160 C 0.11714 0.48610 -0.25584
 C161 C 0.10755 0.61036 -0.28914
 O162 O 0.13515 0.66433 -0.35755
 H163 H 0.17149 0.37692 -0.29883
 H164 H 0.10062 0.42165 -0.19631
 C165 C 0.29121 0.74678 -0.34993
 C166 C 0.28041 0.81082 -0.25446
 C167 C 0.31530 0.83999 -0.20787
 C168 C 0.34479 0.79166 -0.27730
 O169 O 0.33042 0.73669 -0.36408
 H170 H 0.25084 0.83187 -0.22008
 H171 H 0.31896 0.88347 -0.12772
 C172 C -0.17308 1.38633 -0.33723
 C173 C -0.17970 1.42713 -0.22530
 C174 C -0.14427 1.39984 -0.16161
 C175 C -0.11928 1.34312 -0.23851
 O176 O -0.13661 1.33379 -0.34258
 H177 H -0.20665 1.47216 -0.19320
 H178 H -0.13794 1.41537 -0.06946
 C179 C 0.66845 0.92548 -0.36331
 C180 C 0.67064 0.97206 -0.25402
 C181 C 0.63435 0.95789 -0.20051
 C182 C 0.61315 0.90128 -0.27915
 O183 O 0.63360 0.88105 -0.37685
 H184 H 0.69518 1.01389 -0.21810
 H185 H 0.62494 0.98235 -0.11303
 C186 C 0.19942 1.09545 -0.39510
 C187 C 0.19075 0.97612 -0.39601
 C188 C 0.15871 0.96113 -0.32284
 C189 C 0.14954 1.07236 -0.28305
 O190 O 0.17492 1.15404 -0.32452
 H191 H 0.20580 0.90887 -0.44566
 H192 H 0.14175 0.88148 -0.30798
 C193 C 0.33028 0.21642 -0.32979
 C194 C 0.32886 0.16423 -0.20839
 C195 C 0.36237 0.19424 -0.15546
 C196 C 0.38163 0.26449 -0.24746
 O197 O 0.36243 0.27804 -0.35418
 H198 H 0.30642 0.10848 -0.16427
 H199 H 0.37164 0.16856 -0.06059
 C200 C -0.19074 0.81361 -0.40635
 C201 C -0.17530 0.69400 -0.40180
 C202 C -0.14133 0.68285 -0.33331
 C203 C -0.13874 0.79611 -0.29957
 O204 O -0.16854 0.87703 -0.34407
 H205 H -0.18743 0.62477 -0.44630
 H206 H -0.11989 0.60373 -0.31454
 C207 C 0.30645 0.71044 0.39299
 C208 C 0.29843 0.81997 0.31662
 C209 C 0.33221 0.83785 0.25074
 C210 C 0.35850 0.73786 0.29270
 O211 O 0.34286 0.65908 0.37848
 H212 H 0.27059 0.87706 0.30783
 H213 H 0.33702 0.91394 0.17977
 C214 C -0.14939 1.35481 0.40807
 C215 C -0.12441 1.44647 0.41787
 C216 C -0.09055 1.41718 0.35602
 C217 C -0.09701 1.30914 0.31471
 O218 O -0.13272 1.27195 0.34433
 H219 H -0.13034 1.52634 0.46244
 H220 H -0.06387 1.46632 0.34583
 C221 C 0.71297 0.29507 0.31570
 C222 C 0.71785 0.20613 0.24049
 C223 C 0.68189 0.21037 0.18156
 C224 C 0.65811 0.30134 0.22571
 O225 O 0.67689 0.35342 0.30568
 H226 H 0.74372 0.14226 0.23392
 H227 H 0.67355 0.15150 0.11768
 C228 C 0.17884 0.53490 0.37797
 C229 C 0.18258 0.45947 0.28896
 C230 C 0.14629 0.47572 0.22858
 C231 C 0.12370 0.56057 0.28508
 O232 O 0.14332 0.59568 0.37490
 H233 H 0.20885 0.40301 0.26811
 H234 H 0.13811 0.43563 0.14965
   
