data_POSCAR
  _audit_creation_date              2014-09-24
  _audit_creation_method            'ToBaCCo'
  _symmetry_space_group_name_H-M    'P1'
  _symmetry_Int_Tables_number       1
  _symmetry_cell_setting            triclinic
  loop_
  _symmetry_equiv_pos_as_xyz
 x,y,z
_cell_length_a 19.5125
_cell_length_b 19.6630
_cell_length_c 23.1689
_cell_angle_alpha 90.034200
_cell_angle_beta 90.000100
_cell_angle_gamma 90.000000
loop_
  _atom_site_label
  _atom_site_type_symbol
  _atom_site_fract_x
  _atom_site_fract_y
  _atom_site_fract_z
C1 C 1.25013 0.24998 0.25009
 C2 C 0.74963 -0.25002 0.25009
 C3 C 0.75051 0.24998 -0.24991
 C4 C 1.25044 -0.25002 -0.24991
 C5 C 0.24936 0.24998 0.75009
 C6 C 0.74950 0.74998 0.75009
 C7 C 0.74993 0.24998 0.25009
 C8 C 0.25025 0.74998 0.25009
 O9 O 1.13170 0.07794 0.03903
 O10 O 0.86932 -0.07962 0.03859
 O11 O 0.92234 0.12804 0.04115
 O12 O 1.07851 -0.13010 0.04250
 O13 O 0.88294 0.03443 0.07255
 O14 O 1.11873 -0.03635 0.07324
 O15 O 0.96311 -0.11669 0.07203
 O16 O 1.03753 0.11573 0.07145
 C17 C 1.09968 0.10793 0.07785
 C18 C 0.90091 -0.10905 0.07789
 C19 C 0.89205 0.09597 0.07995
 C20 C 1.10956 -0.09791 0.08093
 O21 O 1.13177 -0.08050 -0.03720
 O22 O 0.86957 0.07825 -0.03825
 O23 O 1.07895 0.12752 -0.04064
 O24 O 0.92247 -0.12968 -0.04058
 O25 O 0.88333 -0.03584 -0.07192
 O26 O 1.11905 0.03383 -0.07153
 O27 O 1.03783 -0.11782 -0.07019
 O28 O 0.96368 0.11492 -0.07127
 Co29 Co 1.11306 -0.00123 0.00084
 Co30 Co 0.88859 -0.00072 0.00030
 Co31 Co 1.00060 0.10972 0.00018
 Co32 Co 1.00048 -0.11170 0.00092
 O33 O 1.00072 -0.00099 0.00058
 C34 C 1.09997 -0.11005 -0.07637
 C35 C 0.90141 0.10775 -0.07741
 C36 C 1.10934 0.09527 -0.07929
 C37 C 0.89228 -0.09740 -0.07935
 O38 O 1.13177 0.58047 0.53738
 O39 O 0.86957 0.42172 0.53842
 O40 O 0.92247 0.62965 0.54076
 O41 O 1.07895 0.37244 0.54082
 O42 O 0.88333 0.53580 0.57209
 O43 O 1.11905 0.46614 0.57170
 O44 O 0.96368 0.38505 0.57145
 O45 O 1.03783 0.61778 0.57037
 C46 C 1.09998 0.61001 0.57655
 C47 C 0.90141 0.39222 0.57758
 C48 C 0.89228 0.59736 0.57952
 C49 C 1.10934 0.40470 0.57947
 O50 O 1.13170 0.42202 0.46114
 O51 O 0.86932 0.57959 0.46159
 O52 O 1.07851 0.63006 0.45767
 O53 O 0.92234 0.37192 0.45902
 O54 O 0.88294 0.46554 0.42763
 O55 O 1.11873 0.53631 0.42693
 O56 O 1.03753 0.38423 0.42872
 O57 O 0.96311 0.61665 0.42814
 Co58 Co 1.11306 0.50119 0.49933
 Co59 Co 0.88859 0.50069 0.49988
 Co60 Co 1.00048 0.61167 0.49926
 Co61 Co 1.00060 0.39024 0.49999
 O62 O 1.00072 0.50095 0.49959
 C63 C 1.09968 0.39203 0.42233
 C64 C 0.90091 0.60902 0.42228
 C65 C 1.10956 0.59788 0.41925
 C66 C 0.89205 0.40399 0.42023
 O67 O 0.61675 0.03463 0.57250
 O68 O 0.38110 -0.03556 0.57148
 O69 O 0.46213 0.11541 0.57121
 O70 O 0.53610 -0.11724 0.57083
 O71 O 0.36804 0.07849 0.53805
 O72 O 0.63020 -0.07947 0.53838
 O73 O 0.42064 -0.12921 0.54019
 O74 O 0.57747 0.12832 0.54119
 C75 C 0.60777 0.09619 0.57995
 C76 C 0.39062 -0.09697 0.57904
 C77 C 0.39987 0.10811 0.57722
 C78 C 0.59826 -0.10931 0.57729
 O79 O 0.61744 -0.03536 0.42790
 O80 O 0.38198 0.03468 0.42722
 O81 O 0.53659 0.11576 0.42871
 O82 O 0.46190 -0.11710 0.42801
 O83 O 0.36776 -0.07942 0.46053
 O84 O 0.63058 0.07869 0.46179
 O85 O 0.57740 -0.12911 0.45868
 O86 O 0.42129 0.12824 0.45891
 Co87 Co 0.61146 -0.00037 0.50012
 Co88 Co 0.38705 -0.00045 0.49935
 Co89 Co 0.49935 0.11010 0.49996
 Co90 Co 0.49904 -0.11137 0.49946
 O91 O 0.49923 -0.00055 0.49971
 C92 C 0.60785 -0.09676 0.42016
 C93 C 0.39138 0.09614 0.41993
 C94 C 0.59884 0.10837 0.42265
 C95 C 0.39958 -0.10989 0.42177
 O96 O 0.61744 0.53533 0.07227
 O97 O 0.38198 0.46529 0.07296
 O98 O 0.46190 0.61707 0.07216
 O99 O 0.53659 0.38421 0.07146
 O100 O 0.36776 0.57939 0.03964
 O101 O 0.63058 0.42128 0.03839
 O102 O 0.42129 0.37173 0.04127
 O103 O 0.57740 0.62908 0.04150
 C104 C 0.60785 0.59673 0.08001
 C105 C 0.39138 0.40383 0.08024
 C106 C 0.39958 0.60986 0.07840
 C107 C 0.59884 0.39160 0.07752
 O108 O 0.61675 0.46534 -0.07232
 O109 O 0.38110 0.53553 -0.07131
 O110 O 0.53610 0.61721 -0.07066
 O111 O 0.46213 0.38456 -0.07103
 O112 O 0.36804 0.42148 -0.03788
 O113 O 0.63020 0.57944 -0.03820
 O114 O 0.57747 0.37165 -0.04102
 O115 O 0.42064 0.62918 -0.04002
 Co116 Co 0.61146 0.50034 0.00006
 Co117 Co 0.38705 0.50042 0.00082
 Co118 Co 0.49904 0.61134 0.00072
 Co119 Co 0.49935 0.38987 0.00021
 O120 O 0.49923 0.50052 0.00047
 C121 C 0.60777 0.40378 -0.07977
 C122 C 0.39063 0.59694 -0.07886
 C123 C 0.59826 0.60928 -0.07712
 C124 C 0.39987 0.39186 -0.07705
 N125 N 1.14049 0.22277 0.19758
 C126 C 1.20702 0.20707 0.20892
 N127 N 1.23741 0.15758 0.17685
 N128 N 1.20267 0.12488 0.13594
 C129 C 1.13614 0.14041 0.12540
 N130 N 1.10550 0.18969 0.15707
 N131 N 1.14092 0.72350 0.69722
 C132 C 1.20725 0.70723 0.70882
 N133 N 1.23751 0.65779 0.67659
 N134 N 1.20283 0.62574 0.63525
 C135 C 1.13651 0.64188 0.62442
 N136 N 1.10599 0.69104 0.65631
 N137 N 0.72080 0.13875 0.70230
 C138 C 0.70600 0.20563 0.71123
 N139 N 0.65638 0.23479 0.67830
 N140 N 0.62376 0.19914 0.63787
 C141 C 0.63923 0.13274 0.62861
 N142 N 0.68780 0.10290 0.66206
 N143 N 0.72060 0.63897 0.20221
 C144 C 0.70525 0.70564 0.21146
 N145 N 0.65531 0.73471 0.17888
 N146 N 0.62284 0.69912 0.13838
 C147 C 0.63889 0.63296 0.12876
 N148 N 0.68776 0.60319 0.16189
 N149 N 0.76266 -0.15772 0.17678
 C150 C 0.79284 -0.20723 0.20893
 N151 N 0.85929 -0.22325 0.19762
 N152 N 0.89448 -0.19044 0.15713
 C153 C 0.86409 -0.14115 0.12539
 N154 N 0.79760 -0.12531 0.13584
 N155 N 0.76328 0.34227 0.67653
 C156 C 0.79373 0.29312 0.70892
 N157 N 0.86046 0.27784 0.69787
 N158 N 0.89549 0.31087 0.65733
 C159 C 0.86476 0.35973 0.62527
 N160 N 0.79806 0.37490 0.63558
 N161 N 0.34449 -0.23471 0.67858
 C162 C 0.29476 -0.20563 0.71144
 N163 N 0.27916 -0.13905 0.70212
 N164 N 0.31152 -0.10337 0.66148
 C165 C 0.36011 -0.13317 0.62805
 N166 N 0.37646 -0.19923 0.63775
 N167 N 0.27929 0.36113 0.20264
 C168 C 0.29448 0.29437 0.21149
 N169 N 0.34420 0.26535 0.17859
 N170 N 0.37655 0.30110 0.13815
 C171 C 0.36063 0.36736 0.12894
 N172 N 0.31202 0.39706 0.16239
 N173 N 0.86046 0.22213 -0.19770
 C174 C 0.79373 0.20684 -0.20875
 N175 N 0.76328 0.15770 -0.17635
 N176 N 0.79806 0.12507 -0.13540
 C177 C 0.86476 0.14023 -0.12509
 N178 N 0.89549 0.18910 -0.15716
 N179 N 0.85929 0.72322 0.30256
 C180 C 0.79284 0.70719 0.29124
 N181 N 0.76266 0.65769 0.32339
 N182 N 0.79760 0.62527 0.36434
 C183 C 0.86409 0.64111 0.37479
 N184 N 0.89448 0.69041 0.34304
 N185 N 0.34420 0.23462 0.32158
 C186 C 0.29448 0.20560 0.28868
 N187 N 0.27929 0.13884 0.29754
 N188 N 0.31202 0.10291 0.33778
 C189 C 0.36063 0.13261 0.37123
 N190 N 0.37655 0.19887 0.36202
 N191 N 0.34449 0.73468 -0.17840
 C192 C 0.29476 0.70560 -0.21127
 N193 N 0.27916 0.63902 -0.20194
 N194 N 0.31152 0.60334 -0.16131
 C195 C 0.36011 0.63314 -0.12787
 N196 N 0.37646 0.69920 -0.13757
 N197 N 1.14092 -0.22354 -0.19704
 C198 C 1.20725 -0.20726 -0.20865
 N199 N 1.23751 -0.15782 -0.17642
 N200 N 1.20283 -0.12577 -0.13507
 C201 C 1.13651 -0.14192 -0.12424
 N202 N 1.10599 -0.19108 -0.15614
 N203 N 1.14049 0.27719 0.30259
 C204 C 1.20702 0.29290 0.29126
 N205 N 1.23741 0.34238 0.32332
 N206 N 1.20267 0.37508 0.36423
 C207 C 1.13614 0.35956 0.37477
 N208 N 1.10549 0.31028 0.34310
 N209 N 0.65531 -0.23474 0.32130
 C210 C 0.70525 -0.20567 0.28871
 N211 N 0.72060 -0.13900 0.29797
 N212 N 0.68776 -0.10322 0.33829
 C213 C 0.63889 -0.13300 0.37141
 N214 N 0.62284 -0.19915 0.36180
 N215 N 0.65638 0.26518 -0.17813
 C216 C 0.70600 0.29434 -0.21105
 N217 N 0.72080 0.36122 -0.20213
 N218 N 0.68780 0.39707 -0.16188
 C219 C 0.63923 0.36723 -0.12844
 N220 N 0.62376 0.30083 -0.13770
 N221 N 1.15505 0.23373 -0.17852
 C222 C 1.20510 0.20516 -0.21136
 N223 N 1.22111 0.13861 -0.20212
 N224 N 1.18885 0.10250 -0.16167
 C225 C 1.13989 0.13179 -0.12829
 N226 N 1.12317 0.19782 -0.13788
 N227 N 1.22544 0.64138 0.29876
 C228 C 1.20788 0.70716 0.28710
 N229 N 1.15581 0.73520 0.31829
 N230 N 1.12342 0.69966 0.35898
 C231 C 1.14141 0.63437 0.37047
 N232 N 1.19257 0.60563 0.33914
 N233 N 0.73703 0.15778 0.32366
 C234 C 0.70669 0.20703 0.29131
 N235 N 0.64008 0.22264 0.30249
 N236 N 0.60499 0.18976 0.34306
 C237 C 0.63558 0.14076 0.37504
 N238 N 0.70220 0.12529 0.36465
 N239 N 0.73602 0.65707 -0.17705
 C240 C 0.70609 0.70700 -0.20889
 N241 N 0.63988 0.72361 -0.19706
 N242 N 0.60471 0.69099 -0.15640
 C243 C 0.63488 0.64128 -0.12495
 N244 N 0.70112 0.62484 -0.13595
 N245 N 0.77946 -0.13906 -0.20194
 C246 C 0.79403 -0.20595 -0.21096
 N247 N 0.84344 -0.23544 -0.17803
 N248 N 0.87610 -0.20008 -0.13746
 C249 C 0.86085 -0.13368 -0.12808
 N250 N 0.81251 -0.10350 -0.16154
 N251 N 0.84401 0.26535 0.32181
 C252 C 0.79438 0.29442 0.28885
 N253 N 0.77939 0.36126 0.29776
 N254 N 0.81223 0.39716 0.33805
 C255 C 0.86080 0.36741 0.37155
 N256 N 0.87647 0.30106 0.36228
 N257 N 0.35685 -0.22825 0.30426
 C258 C 0.29174 -0.20953 0.28992
 N259 N 0.26270 -0.15756 0.32030
 N260 N 0.29744 -0.12510 0.36146
 C261 C 0.36278 -0.14318 0.37430
 N262 N 0.39191 -0.19530 0.34491
 N263 N 0.26177 0.34164 -0.17582
 C264 C 0.29243 0.29283 -0.20849
 N265 N 0.35924 0.27782 -0.19765
 N266 N 0.39417 0.31082 -0.15701
 C267 C 0.36324 0.35936 -0.12468
 N268 N 0.29645 0.37425 -0.13478
 N269 N 1.15581 -0.23523 0.18188
 C270 C 1.20788 -0.20720 0.21308
 N271 N 1.22544 -0.14142 0.20141
 N272 N 1.19257 -0.10566 0.16104
 C273 C 1.14141 -0.13441 0.12970
 N274 N 1.12342 -0.19970 0.14120
 N275 N 1.15505 0.26623 0.67869
 C276 C 1.20510 0.29481 0.71153
 N277 N 1.22110 0.36135 0.70230
 N278 N 1.18885 0.39746 0.66184
 C279 C 1.13989 0.36817 0.62846
 N280 N 1.12317 0.30214 0.63805
 N281 N 0.63988 -0.22364 0.69723
 C282 C 0.70609 -0.20704 0.70906
 N283 N 0.73602 -0.15710 0.67723
 N284 N 0.70112 -0.12487 0.63613
 C285 C 0.63488 -0.14131 0.62512
 N286 N 0.60471 -0.19102 0.65658
 N287 N 0.64008 0.27733 0.19769
 C288 C 0.70669 0.29294 0.20886
 N289 N 0.73703 0.34219 0.17652
 N290 N 0.70220 0.37468 0.13552
 C291 C 0.63559 0.35921 0.12513
 N292 N 0.60499 0.31020 0.15712
 N293 N 0.84401 0.23461 0.17836
 C294 C 0.79438 0.20554 0.21133
 N295 N 0.77939 0.13871 0.20241
 N296 N 0.81223 0.10281 0.16212
 C297 C 0.86080 0.13256 0.12863
 N298 N 0.87647 0.19890 0.13789
 N299 N 0.77946 0.63902 0.70211
 C300 C 0.79403 0.70591 0.71114
 N301 N 0.84344 0.73541 0.67821
 N302 N 0.87610 0.70005 0.63763
 C303 C 0.86085 0.63364 0.62826
 N304 N 0.81251 0.60347 0.66172
 N305 N 0.26177 0.15833 0.67600
 C306 C 0.29243 0.20713 0.70866
 N307 N 0.35924 0.22215 0.69783
 N308 N 0.39417 0.18915 0.65719
 C309 C 0.36324 0.14061 0.62486
 N310 N 0.29645 0.12572 0.63496
 N311 N 0.26270 0.65753 0.17988
 C312 C 0.29174 0.70950 0.21026
 N313 N 0.35685 0.72821 0.19592
 N314 N 0.39191 0.69526 0.15527
 C315 C 0.36278 0.64315 0.12588
 N316 N 0.29744 0.62507 0.13871
   
