data_POSCAR
  _audit_creation_date              2014-09-24
  _audit_creation_method            'ToBaCCo'
  _symmetry_space_group_name_H-M    'P1'
  _symmetry_Int_Tables_number       1
  _symmetry_cell_setting            triclinic
  loop_
  _symmetry_equiv_pos_as_xyz
 x,y,z
_cell_length_a 24.4894
_cell_length_b 24.3958
_cell_length_c 24.1700
_cell_angle_alpha 90.027100
_cell_angle_beta 88.985400
_cell_angle_gamma 90.732500
loop_
  _atom_site_label
  _atom_site_type_symbol
  _atom_site_fract_x
  _atom_site_fract_y
  _atom_site_fract_z
C1 C 0.51162 0.99510 -0.64429
 C2 C 0.46191 1.00624 -0.61576
 C3 C 0.46128 1.00266 -0.55744
 C4 C 0.50672 0.98359 -0.52892
 C5 C 0.55290 0.96651 -0.55908
 C6 C 0.55710 0.97467 -0.61636
 C7 C 0.50752 0.98399 -0.46747
 C8 C 0.55596 0.99881 -0.44038
 C9 C 0.55840 0.99871 -0.38259
 C10 C 0.51107 0.98558 -0.35170
 C11 C 0.46249 0.97036 -0.37766
 C12 C 0.46071 0.96984 -0.43563
 H13 H 0.51501 1.00145 -0.68856
 H14 H 0.42499 1.01280 -0.53374
 H15 H 0.58748 0.95058 -0.53716
 H16 H 0.59221 1.00981 -0.46434
 H17 H 0.51182 0.98750 -0.30693
 H18 H 0.42345 0.95704 -0.45566
 C19 C -0.63456 1.50910 -0.01594
 C20 C -0.60672 1.46038 -0.02910
 C21 C -0.54949 1.46078 -0.02728
 C22 C -0.52040 1.50637 -0.00710
 C23 C -0.54890 1.55454 0.00566
 C24 C -0.60604 1.55759 -0.00085
 C25 C -0.46033 1.50265 0.00130
 C26 C -0.42506 1.54782 -0.00942
 C27 C -0.36827 1.54237 -0.00507
 C28 C -0.34685 1.49173 0.00993
 C29 C -0.38104 1.44650 0.02066
 C30 C -0.43763 1.45253 0.01802
 H31 H -0.67871 1.50904 -0.01767
 H32 H -0.52755 1.42397 -0.03815
 H33 H -0.52583 1.59013 0.01877
 H34 H -0.44120 1.58646 -0.02333
 H35 H -0.30298 1.48731 0.01280
 H36 H -0.46368 1.41739 0.02719
 C37 C -0.02585 0.35966 0.49785
 C38 C -0.04570 0.38509 0.44997
 C39 C -0.06181 0.44031 0.45388
 C40 C -0.05215 0.47160 0.50193
 C41 C -0.03009 0.44526 0.54813
 C42 C -0.01921 0.38923 0.54695
 C43 C -0.06141 0.53217 0.50264
 C44 C -0.07133 0.56025 0.55273
 C45 C -0.06977 0.61802 0.55518
 C46 C -0.06371 0.64760 0.50515
 C47 C -0.05966 0.62006 0.45434
 C48 C -0.05649 0.56294 0.45359
 H49 H -0.01684 0.31629 0.49779
 H50 H -0.07879 0.45999 0.41826
 H51 H -0.02130 0.46771 0.58560
 H52 H -0.07647 0.53708 0.59058
 H53 H -0.06488 0.69198 0.50520
 H54 H -0.04826 0.54329 0.41427
 O55 O -0.13900 1.00371 -0.05224
 O56 O 0.13891 0.99992 -0.09186
 O57 O -0.01160 1.07750 -0.13781
 O58 O -0.00377 0.93099 -0.13863
 O59 O 0.00022 0.86262 -0.07282
 O60 O 0.00164 1.14553 -0.07292
 O61 O 0.06489 1.00311 -0.14946
 O62 O -0.08141 1.00330 -0.12884
 Zr63 Zr -0.00252 1.00426 -0.09392
 O64 O 0.05015 0.95392 -0.05343
 O65 O -0.04481 1.05448 -0.04107
 C66 C -0.12941 1.00171 -0.10504
 C67 C 0.11676 0.99991 -0.14025
 C68 C -0.00973 1.12823 -0.12229
 C69 C -0.00058 0.88026 -0.12368
 H70 H 0.07482 1.07715 -0.08114
 O71 O 0.05385 1.05356 -0.05485
 H72 H -0.07275 0.93102 -0.06059
 O73 O -0.04716 0.95504 -0.04035
 O74 O 0.15697 1.00088 0.05566
 O75 O -0.12208 1.00859 0.09418
 O76 O 0.08504 1.14421 -0.00370
 O77 O 0.07650 0.86181 -0.01068
 O78 O -0.06973 0.86433 0.01318
 O79 O -0.06070 1.14577 0.00527
 O80 O 0.03167 1.07833 0.14166
 O81 O 0.02222 0.93171 0.14399
 O82 O 0.02099 1.14578 0.07587
 O83 O 0.01123 0.86337 0.07877
 O84 O 0.15106 1.07776 -0.01105
 O85 O -0.12943 1.08063 0.01407
 O86 O -0.13263 0.93308 0.02521
 O87 O 0.14560 0.92678 -0.02039
 O88 O 0.10003 1.00335 0.13275
 O89 O -0.04911 1.00779 0.15347
 Zr90 Zr 0.10436 1.00289 -0.01146
 Zr91 Zr -0.08626 1.00579 0.01514
 Zr92 Zr 0.01142 1.10058 0.00141
 Zr93 Zr 0.00539 0.90729 0.00290
 Zr94 Zr 0.02016 1.00464 0.09860
 O95 O -0.03634 0.95524 0.05948
 O96 O 0.06507 1.05310 0.04455
 C97 C 0.14797 1.00063 0.10859
 C98 C -0.10101 1.01025 0.14280
 C99 C 0.13516 1.12832 -0.00510
 C100 C 0.12681 0.87654 -0.02019
 C101 C -0.11895 0.88201 0.02204
 C102 C -0.11151 1.13055 0.00734
 C103 C 0.02990 1.12897 0.12593
 C104 C 0.01824 0.88088 0.12912
 H105 H -0.05286 1.07987 0.08319
 O106 O -0.03293 1.05502 0.05785
 H107 H 0.08679 0.92977 0.06435
 O108 O 0.06174 0.95408 0.04457
 C109 C 0.40476 0.99547 0.30219
 C110 C 0.35490 1.00171 0.27538
 C111 C 0.31264 1.03231 0.30047
 C112 C 0.32137 1.05646 0.35218
 C113 C 0.37081 1.04919 0.37932
 C114 C 0.41338 1.01803 0.35516
 C115 C 0.26236 1.03772 0.27366
 C116 C 0.25387 1.01235 0.22220
 C117 C 0.29653 0.98148 0.19767
 C118 C 0.34649 0.97649 0.22424
 C119 C 0.28889 0.95607 0.14660
 C120 C 0.23999 0.96197 0.11917
 C121 C 0.19726 0.99314 0.14213
 C122 C 0.20394 1.01758 0.19438
 H123 H 0.43528 0.96967 0.28285
 H124 H 0.28975 1.08062 0.37198
 H125 H 0.37571 1.06941 0.41877
 H126 H 0.22996 1.06138 0.29285
 H127 H 0.37889 0.95275 0.20508
 H128 H 0.32102 0.93204 0.12748
 H129 H 0.23569 0.94212 0.07936
 H130 H 0.17128 1.04171 0.21237
 C131 C -0.37077 1.00521 0.31915
 C132 C -0.31771 0.99987 0.29694
 C133 C -0.28765 0.95197 0.30731
 C134 C -0.30994 0.91176 0.34271
 C135 C -0.36109 0.91926 0.36803
 C136 C -0.39262 0.96559 0.35592
 C137 C -0.23571 0.94538 0.28257
 C138 C -0.21251 0.98726 0.24955
 C139 C -0.24112 1.03688 0.24295
 C140 C -0.29376 1.04244 0.26576
 C141 C -0.21740 1.07967 0.21200
 C142 C -0.16766 1.07212 0.18449
 C143 C -0.14078 1.02175 0.18720
 C144 C -0.16231 0.97981 0.22118
 H145 H -0.39340 1.04218 0.31097
 H146 H -0.28735 0.87502 0.35173
 H147 H -0.37676 0.88783 0.39593
 H148 H -0.21348 0.90781 0.28895
 H149 H -0.31615 1.07990 0.25911
 H150 H -0.23846 1.11811 0.20702
 H151 H -0.15195 1.10443 0.15758
 H152 H -0.14219 0.94051 0.22238
 C153 C -0.37691 0.97855 -0.30703
 C154 C -0.32864 0.98822 -0.27856
 C155 C -0.29063 1.02808 -0.29809
 C156 C -0.30232 1.05813 -0.34584
 C157 C -0.35143 1.04906 -0.37344
 C158 C -0.38928 1.00929 -0.35411
 C159 C -0.24210 1.03746 -0.26918
 C160 C -0.23220 1.00846 -0.22022
 C161 C -0.27120 0.96939 -0.20054
 C162 C -0.31853 0.95892 -0.23027
 C163 C -0.26280 0.94177 -0.15084
 C164 C -0.21658 0.95319 -0.12023
 C165 C -0.17730 0.99148 -0.13930
 C166 C -0.18461 1.01842 -0.18987
 H167 H -0.40491 0.94674 -0.29242
 H168 H -0.27389 1.08908 -0.36140
 H169 H -0.36006 1.07369 -0.40941
 H170 H -0.21269 1.06785 -0.28413
 H171 H -0.34811 0.92873 -0.21515
 H172 H -0.29232 0.91182 -0.13528
 H173 H -0.21111 0.93146 -0.08165
 H174 H -0.15426 1.04783 -0.20469
 C175 C 0.36344 0.97948 -0.35156
 C176 C 0.32068 0.97225 -0.31259
 C177 C 0.32883 0.93933 -0.26529
 C178 C 0.37834 0.91220 -0.25900
 C179 C 0.42073 0.92020 -0.29742
 C180 C 0.41429 0.95514 -0.34298
 C181 C 0.28835 0.93578 -0.22383
 C182 C 0.24009 0.96539 -0.22849
 C183 C 0.23061 0.99638 -0.27674
 C184 C 0.27092 0.99938 -0.31872
 C185 C 0.18160 1.02513 -0.28129
 C186 C 0.14343 1.02490 -0.23752
 C187 C 0.15409 0.99647 -0.18847
 C188 C 0.20192 0.96583 -0.18472
 H189 H 0.35832 1.00658 -0.38658
 H190 H 0.38498 0.88638 -0.22334
 H191 H 0.45938 0.90038 -0.29064
 H192 H 0.29525 0.91157 -0.18702
 H193 H 0.26433 1.02426 -0.35512
 H194 H 0.17335 1.04871 -0.31812
 H195 H 0.10652 1.04852 -0.24122
 H196 H 0.20980 0.94294 -0.14728
 C197 C 0.31884 1.39549 -0.00752
 C198 C 0.29487 1.34314 -0.01269
 C199 C 0.31371 1.30667 -0.05406
 C200 C 0.35824 1.32248 -0.08790
 C201 C 0.38437 1.37322 -0.08002
 C202 C 0.36481 1.41076 -0.04005
 C203 C 0.28826 1.25489 -0.06024
 C204 C 0.24570 1.23830 -0.02386
 C205 C 0.22968 1.27394 0.01968
 C206 C 0.25350 1.32618 0.02430
 C207 C 0.18924 1.25730 0.05769
 C208 C 0.16242 1.20732 0.05103
 C209 C 0.17480 1.17292 0.00596
 C210 C 0.21785 1.18757 -0.03067
 H211 H 0.30422 1.42261 0.02491
 H212 H 0.37369 1.29510 -0.11966
 H213 H 0.41918 1.38365 -0.10638
 H214 H 0.30175 1.22753 -0.09295
 H215 H 0.24001 1.35359 0.05702
 H216 H 0.17717 1.28366 0.09176
 H217 H 0.12969 1.19654 0.07994
 H218 H 0.22749 1.16136 -0.06561
 C219 C 0.31951 0.62005 -0.02488
 C220 C 0.29366 0.67103 -0.02046
 C221 C 0.31329 0.71097 0.01678
 C222 C 0.35917 0.69943 0.04832
 C223 C 0.38552 0.64908 0.04289
 C224 C 0.36622 0.60819 0.00632
 C225 C 0.28664 0.76160 0.02199
 C226 C 0.24060 0.77279 -0.00987
 C227 C 0.22195 0.73301 -0.04809
 C228 C 0.24857 0.68265 -0.05318
 C229 C 0.17598 0.74354 -0.07977
 C230 C 0.14713 0.79185 -0.07203
 C231 C 0.16402 0.83107 -0.03316
 C232 C 0.21173 0.82215 -0.00307
 H233 H 0.30454 0.59086 -0.05498
 H234 H 0.37475 0.72939 0.07736
 H235 H 0.41992 0.64183 0.06925
 H236 H 0.30134 0.79193 0.05118
 H237 H 0.23368 0.65217 -0.08214
 H238 H 0.16132 0.71366 -0.10938
 H239 H 0.11044 0.79809 -0.09555
 H240 H 0.22448 0.85197 0.02749
 C241 C -0.33407 0.63823 0.01100
 C242 C -0.29235 0.67814 0.00566
 C243 C -0.24679 0.66822 -0.02965
 C244 C -0.24439 0.61946 -0.06013
 C245 C -0.28548 0.57976 -0.05389
 C246 C -0.32999 0.58826 -0.01755
 C247 C -0.20368 0.70649 -0.03299
 C248 C -0.20525 0.75455 -0.00128
 C249 C -0.25127 0.76520 0.03310
 C250 C -0.29454 0.72694 0.03635
 C251 C -0.25308 0.81393 0.06382
 C252 C -0.20980 0.85173 0.06048
 C253 C -0.16357 0.84104 0.02712
 C254 C -0.16148 0.79222 -0.00354
 H255 H -0.36814 0.64473 0.03941
 H256 H -0.21000 0.61136 -0.08762
 H257 H -0.28187 0.54155 -0.07644
 H258 H -0.16858 0.69850 -0.05967
 H259 H -0.32948 0.73480 0.06326
 H260 H -0.28804 0.82292 0.09024
 H261 H -0.21226 0.88927 0.08432
 H262 H -0.12635 0.78416 -0.03013
 C263 C -0.31587 1.37498 -0.00847
 C264 C -0.28869 1.32580 -0.00032
 C265 C -0.30259 1.29218 0.04554
 C266 C -0.34505 1.30824 0.08173
 C267 C -0.37196 1.35793 0.07336
 C268 C -0.35657 1.39209 0.02883
 C269 C -0.27295 1.24406 0.05486
 C270 C -0.22905 1.23020 0.01937
 C271 C -0.21635 1.26406 -0.02688
 C272 C -0.24663 1.31095 -0.03675
 C273 C -0.17224 1.25173 -0.06187
 C274 C -0.13940 1.20750 -0.05019
 C275 C -0.15058 1.17397 -0.00414
 C276 C -0.19633 1.18435 0.03001
 H277 H -0.30467 1.40070 -0.04359
 H278 H -0.35665 1.28301 0.11700
 H279 H -0.40361 1.37041 0.10239
 H280 H -0.28296 1.21844 0.09036
 H281 H -0.23622 1.33697 -0.07190
 H282 H -0.16217 1.27719 -0.09745
 H283 H -0.10455 1.19968 -0.07708
 H284 H -0.20481 1.15854 0.06572
 C285 C -0.00595 1.31831 0.38542
 C286 C -0.00375 1.29301 0.33337
 C287 C -0.04379 1.30452 0.29383
 C288 C -0.08470 1.34226 0.30676
 C289 C -0.08580 1.36857 0.35819
 C290 C -0.04662 1.35692 0.39862
 C291 C -0.04240 1.27789 0.24226
 C292 C -0.00127 1.23999 0.22983
 C293 C 0.03972 1.22991 0.26902
 C294 C 0.03829 1.25655 0.32033
 C295 C 0.08054 1.19180 0.25712
 C296 C 0.07902 1.16150 0.20831
 C297 C 0.03737 1.16953 0.17012
 C298 C -0.00169 1.21016 0.18001
 H299 H 0.02612 1.30988 0.41443
 H300 H -0.11590 1.35152 0.27706
 H301 H -0.11878 1.39662 0.36666
 H302 H -0.07373 1.28598 0.21227
 H303 H 0.06935 1.24811 0.35052
 H304 H 0.11236 1.18382 0.28654
 H305 H 0.10929 1.13014 0.20121
 H306 H -0.03437 1.21572 0.15092
 C307 C -0.04064 1.32179 -0.37898
 C308 C -0.02870 1.29549 -0.32924
 C309 C 0.02089 1.30738 -0.30230
 C310 C 0.05701 1.34677 -0.32520
 C311 C 0.04418 1.37369 -0.37438
 C312 C -0.00437 1.36078 -0.40177
 C313 C 0.03351 1.27944 -0.25333
 C314 C -0.00296 1.23991 -0.23113
 C315 C -0.05322 1.22956 -0.25766
 C316 C -0.06572 1.25741 -0.30628
 C317 C -0.08980 1.19029 -0.23604
 C318 C -0.07578 1.15955 -0.19015
 C319 C -0.02540 1.16787 -0.16458
 C320 C 0.01049 1.20914 -0.18404
 H321 H -0.07857 1.31257 -0.39976
 H322 H 0.09504 1.35678 -0.30507
 H323 H 0.07226 1.40420 -0.39138
 H324 H 0.07189 1.28783 -0.23308
 H325 H -0.10393 1.24874 -0.32680
 H326 H -0.12857 1.18219 -0.25560
 H327 H -0.10391 1.12815 -0.17505
 H328 H 0.04961 1.21521 -0.16449
 C329 C -0.03791 0.69206 -0.38450
 C330 C -0.03461 0.71640 -0.33205
 C331 C -0.06724 0.69624 -0.28757
 C332 C -0.10115 0.65042 -0.29604
 C333 C -0.10222 0.62459 -0.34776
 C334 C -0.07098 0.64524 -0.39302
 C335 C -0.06516 0.72210 -0.23551
 C336 C -0.02969 0.76702 -0.22722
 C337 C 0.00487 0.78500 -0.27142
 C338 C 0.00182 0.76002 -0.32340
 C339 C 0.04126 0.82874 -0.26352
 C340 C 0.04135 0.85670 -0.21346
 C341 C 0.00516 0.84163 -0.17017
 C342 C -0.02916 0.79548 -0.17632
 H343 H -0.01183 0.70770 -0.41775
 H344 H -0.12643 0.63415 -0.26251
 H345 H -0.12911 0.58941 -0.35259
 H346 H -0.09117 0.70746 -0.20172
 H347 H 0.02768 0.77480 -0.35729
 H348 H 0.06847 0.84251 -0.29668
 H349 H 0.06843 0.89189 -0.20921
 H350 H -0.05730 0.78389 -0.14310
 C351 C -0.01808 0.68930 0.38913
 C352 C -0.01620 0.71550 0.33732
 C353 C -0.05652 0.70336 0.29772
 C354 C -0.09742 0.66438 0.31028
 C355 C -0.09834 0.63773 0.36143
 C356 C -0.05899 0.65019 0.40127
 C357 C -0.05548 0.73051 0.24643
 C358 C -0.01462 0.76972 0.23418
 C359 C 0.02639 0.78076 0.27344
 C360 C 0.02541 0.75355 0.32454
 C361 C 0.06699 0.82012 0.26168
 C362 C 0.06553 0.85029 0.21284
 C363 C 0.02405 0.84114 0.17437
 C364 C -0.01512 0.79963 0.18431
 H365 H 0.01275 0.69840 0.41956
 H366 H -0.12854 0.65433 0.28047
 H367 H -0.13002 0.60739 0.37016
 H368 H -0.08688 0.72173 0.21647
 H369 H 0.05655 0.76264 0.35469
 H370 H 0.09882 0.82891 0.29109
 H371 H 0.09602 0.88224 0.20576
 H372 H -0.04761 0.79304 0.15505
   
