data_POSCAR
  _audit_creation_date              2014-09-24
  _audit_creation_method            'ToBaCCo'
  _symmetry_space_group_name_H-M    'P1'
  _symmetry_Int_Tables_number       1
  _symmetry_cell_setting            triclinic
  loop_
  _symmetry_equiv_pos_as_xyz
 x,y,z
_cell_length_a 30.9634
_cell_length_b 23.8511
_cell_length_c 23.8387
_cell_angle_alpha 89.857600
_cell_angle_beta 90.033300
_cell_angle_gamma 89.966700
loop_
  _atom_site_label
  _atom_site_type_symbol
  _atom_site_fract_x
  _atom_site_fract_y
  _atom_site_fract_z
C1 C 0.31518 0.32672 0.22638
 H2 H 0.31740 0.32835 0.27164
 C3 C 0.34209 0.36038 0.19351
 H4 H 0.36503 0.38827 0.21342
 C5 C 0.28249 0.28860 0.14495
 H6 H 0.25961 0.26019 0.12609
 C7 C 0.30880 0.32150 0.11056
 H8 H 0.30570 0.31881 0.06538
 N9 N 0.28553 0.29256 0.20178
 C10 C 0.18381 0.27268 0.32707
 H11 H 0.18147 0.22745 0.32889
 C12 C 0.15728 0.30566 0.36102
 H13 H 0.13450 0.28587 0.38929
 C14 C 0.21647 0.35391 0.28826
 H15 H 0.23919 0.37267 0.25949
 C16 C 0.19053 0.38841 0.32144
 H17 H 0.19376 0.43355 0.31856
 Zn18 Zn 0.24927 0.24958 0.24927
 N19 N 0.21328 0.29712 0.29243
 C20 C 0.28266 0.21055 0.35351
 N21 N 0.28547 0.20632 0.29668
 C22 C 0.31487 0.17177 0.27210
 C23 C 0.34178 0.13803 0.30499
 C24 C 0.30897 0.17760 0.38792
 C25 C 0.18346 0.22706 0.17169
 C26 C 0.15662 0.19430 0.13792
 C27 C 0.18957 0.11128 0.17751
 C28 C 0.21581 0.14555 0.21050
 N29 N 0.21292 0.20236 0.20625
 H30 H 0.26000 0.23927 0.37235
 H31 H 0.31693 0.16992 0.22683
 H32 H 0.36453 0.10987 0.28511
 H33 H 0.30607 0.18056 0.43310
 H34 H 0.18135 0.27231 0.16981
 H35 H 0.13386 0.21428 0.10972
 H36 H 0.19256 0.06610 0.18046
 H37 H 0.23853 0.12661 0.23921
 C38 C 0.16098 0.36404 0.35849
 C39 C 0.33859 0.35804 0.13509
 C40 C 0.16001 0.13589 0.14055
 C41 C 0.33852 0.14070 0.36343
 C42 C 0.81602 0.82896 0.22534
 H43 H 0.81834 0.83082 0.27058
 C44 C 0.84249 0.86300 0.19222
 H45 H 0.86517 0.89132 0.21204
 C46 C 0.78348 0.79000 0.14422
 H47 H 0.76083 0.76115 0.12558
 C48 C 0.80933 0.82324 0.10955
 H49 H 0.80603 0.82020 0.06439
 N50 N 0.78662 0.79423 0.20103
 C51 C 0.68478 0.77396 0.32615
 H52 H 0.68256 0.72872 0.32795
 C53 C 0.65811 0.80680 0.36006
 H54 H 0.63534 0.78689 0.38825
 C55 C 0.71730 0.85536 0.28752
 H56 H 0.74004 0.87424 0.25884
 C57 C 0.69123 0.88972 0.32064
 H58 H 0.69436 0.93488 0.31783
 Zn59 Zn 0.75053 0.75112 0.24871
 N60 N 0.71427 0.79855 0.29165
 C61 C 0.78351 0.71222 0.35326
 N62 N 0.78671 0.70808 0.29646
 C63 C 0.81618 0.67340 0.27219
 C64 C 0.84263 0.63931 0.30537
 C65 C 0.80936 0.67893 0.38794
 C66 C 0.68484 0.72791 0.17112
 C67 C 0.65817 0.69486 0.13741
 C68 C 0.69140 0.61219 0.17734
 C69 C 0.71747 0.64675 0.21025
 N70 N 0.71437 0.70353 0.20580
 H71 H 0.76080 0.74102 0.37188
 H72 H 0.81853 0.67157 0.22695
 H73 H 0.86538 0.61098 0.28572
 H74 H 0.80609 0.68177 0.43309
 H75 H 0.68255 0.77314 0.16908
 H76 H 0.63534 0.71459 0.10911
 H77 H 0.69456 0.56705 0.18046
 H78 H 0.74021 0.62804 0.23908
 C79 C 0.66168 0.86519 0.35760
 C80 C 0.83880 0.86047 0.13376
 C81 C 0.66179 0.63648 0.14024
 C82 C 0.83886 0.64177 0.36376
 C83 C 0.81643 0.32607 0.72801
 H84 H 0.81880 0.32786 0.77325
 C85 C 0.84285 0.36015 0.69487
 H86 H 0.86560 0.38845 0.71456
 C87 C 0.78374 0.28733 0.64689
 H88 H 0.76103 0.25856 0.62823
 C89 C 0.80956 0.32062 0.61224
 H90 H 0.80627 0.31781 0.56709
 N91 N 0.78696 0.29143 0.70369
 C92 C 0.68518 0.27147 0.82896
 H93 H 0.68294 0.22625 0.83096
 C94 C 0.65846 0.30449 0.86265
 H95 H 0.63566 0.28473 0.89090
 C96 C 0.71771 0.35268 0.78993
 H97 H 0.74043 0.37142 0.76116
 C98 C 0.69159 0.38720 0.82283
 H99 H 0.69469 0.43235 0.81974
 Zn100 Zn 0.75084 0.24835 0.75138
 N101 N 0.71467 0.29590 0.79434
 C102 C 0.78392 0.20936 0.85583
 N103 N 0.78701 0.20517 0.79903
 C104 C 0.81641 0.17047 0.77468
 C105 C 0.84296 0.13640 0.80775
 C106 C 0.80984 0.17612 0.89048
 C107 C 0.68504 0.22564 0.67392
 C108 C 0.65831 0.19287 0.64002
 C109 C 0.69150 0.10987 0.67933
 C110 C 0.71763 0.14417 0.71246
 N111 N 0.71457 0.20098 0.70838
 H112 H 0.76126 0.23820 0.87449
 H113 H 0.81867 0.16865 0.72943
 H114 H 0.86564 0.10814 0.78778
 H115 H 0.80652 0.17922 0.93565
 H116 H 0.68280 0.27088 0.67217
 H117 H 0.63550 0.21283 0.61187
 H118 H 0.69464 0.06471 0.68211
 H119 H 0.74040 0.12524 0.74110
 C120 C 0.66200 0.36287 0.85985
 C121 C 0.83906 0.35774 0.63647
 C122 C 0.66189 0.13447 0.64243
 C123 C 0.83935 0.13888 0.86625
 C124 C 0.31499 0.82814 0.72748
 H125 H 0.31705 0.82997 0.77275
 C126 C 0.34189 0.86186 0.69463
 H127 H 0.36463 0.88999 0.71456
 C128 C 0.28278 0.78943 0.64601
 H129 H 0.26011 0.76076 0.62713
 C130 C 0.30907 0.82238 0.61165
 H131 H 0.30616 0.81945 0.56646
 N132 N 0.28559 0.79364 0.70284
 C133 C 0.18359 0.77319 0.82770
 H134 H 0.18149 0.72795 0.82968
 C135 C 0.15673 0.80606 0.86134
 H136 H 0.13396 0.78617 0.88955
 C137 C 0.21591 0.85459 0.78875
 H138 H 0.23862 0.87344 0.76003
 C139 C 0.18965 0.88896 0.82161
 H140 H 0.19263 0.93412 0.81855
 Zn141 Zn 0.24939 0.75046 0.75023
 N142 N 0.21304 0.79778 0.79313
 C143 C 0.28260 0.71141 0.85463
 N144 N 0.28566 0.70747 0.79780
 C145 C 0.31532 0.67328 0.77325
 C146 C 0.34222 0.63956 0.80615
 C147 C 0.30890 0.67844 0.88905
 C148 C 0.18395 0.72730 0.67233
 C149 C 0.15740 0.69427 0.63843
 C150 C 0.19065 0.61157 0.67830
 C151 C 0.21659 0.64611 0.71140
 N152 N 0.21341 0.70290 0.70708
 H153 H 0.25971 0.73983 0.87346
 H154 H 0.31754 0.67166 0.72799
 H155 H 0.36515 0.61164 0.78627
 H156 H 0.30578 0.68111 0.93423
 H157 H 0.18161 0.77252 0.67038
 H158 H 0.13462 0.71402 0.61009
 H159 H 0.19386 0.56643 0.68132
 H160 H 0.23931 0.62740 0.74026
 C161 C 0.16009 0.86446 0.85857
 C162 C 0.33861 0.85924 0.63620
 C163 C 0.16109 0.63589 0.64115
 C164 C 0.33868 0.64186 0.86457
 C165 C -0.04801 -0.03636 0.03460
 C166 C -0.02537 0.00040 -0.00074
 C167 C -0.04811 0.03714 -0.03608
 C168 C -0.09334 0.03711 -0.03605
 C169 C -0.11585 0.00036 -0.00071
 C170 C -0.09325 -0.03636 0.03461
 C171 C 0.02208 0.00041 -0.00074
 C172 C 0.04479 -0.03492 -0.03731
 C173 C 0.09002 -0.03495 -0.03723
 C174 C 0.11255 0.00031 -0.00060
 C175 C 0.09000 0.03562 0.03596
 C176 C 0.04477 0.03569 0.03591
 H177 H -0.03045 -0.06476 0.06192
 H178 H -0.03062 0.06556 -0.06340
 H179 H 0.02727 -0.06221 -0.06563
 H180 H 0.02724 0.06299 0.06421
 H181 H -0.15088 0.00035 -0.00070
 H182 H 0.14759 0.00027 -0.00054
 C183 C -0.04653 0.46299 0.53544
 C184 C -0.02388 0.49976 0.50012
 C185 C -0.04661 0.53652 0.46482
 C186 C -0.09184 0.53652 0.46484
 C187 C -0.11436 0.49975 0.50015
 C188 C -0.09176 0.46299 0.53545
 C189 C 0.02356 0.49977 0.50009
 C190 C 0.04623 0.46453 0.46341
 C191 C 0.09146 0.46460 0.46334
 C192 C 0.11403 0.49988 0.49993
 C193 C 0.09149 0.53511 0.53660
 C194 C 0.04626 0.53506 0.53669
 H195 H -0.02897 0.43456 0.56274
 H196 H -0.02911 0.56495 0.43751
 H197 H 0.02870 0.43725 0.43510
 H198 H 0.02874 0.56232 0.56504
 H199 H -0.14939 0.49975 0.50016
 H200 H 0.14906 0.49993 0.49986
 C201 C 0.45403 -0.03647 0.53559
 C202 C 0.47671 0.00001 0.50000
 C203 C 0.45401 0.03650 0.46435
 C204 C 0.40878 0.03649 0.46435
 C205 C 0.38625 -0.00000 0.49989
 C206 C 0.40880 -0.03649 0.53548
 C207 C 0.52416 -0.00002 0.50001
 C208 C 0.54683 -0.03483 0.46292
 C209 C 0.59206 -0.03489 0.46296
 C210 C 0.61463 -0.00011 0.50003
 C211 C 0.59210 0.03471 0.53709
 C212 C 0.54687 0.03474 0.53712
 H213 H 0.47155 -0.06471 0.56312
 H214 H 0.47152 0.06472 0.43684
 H215 H 0.52930 -0.06173 0.43425
 H216 H 0.52936 0.06168 0.56578
 H217 H 0.35121 -0.00001 0.49984
 H218 H 0.64967 -0.00015 0.50003
 C219 C 0.45400 0.46267 0.03486
 C220 C 0.47671 0.49970 -0.00015
 C221 C 0.45403 0.53680 -0.03517
 C222 C 0.40879 0.53682 -0.03518
 C223 C 0.38624 0.49985 -0.00017
 C224 C 0.40877 0.46280 0.03486
 C225 C 0.52415 0.49966 -0.00009
 C226 C 0.54686 0.46398 -0.03631
 C227 C 0.59210 0.46401 -0.03627
 C228 C 0.61463 0.49964 0.00002
 C229 C 0.59206 0.53527 0.03625
 C230 C 0.54683 0.53533 0.03618
 H231 H 0.47151 0.43401 0.06197
 H232 H 0.47155 0.56541 -0.06225
 H233 H 0.52936 0.43642 -0.06438
 H234 H 0.52929 0.56290 0.06420
 H235 H 0.35121 0.49991 -0.00018
 H236 H 0.64966 0.49963 0.00006
 C237 C 0.13431 -0.10073 -0.10534
 C238 C 0.11362 -0.07103 -0.07458
 C239 C 0.13550 0.39892 0.39486
 C240 C 0.11498 0.42862 0.42583
 C241 C 0.63614 -0.10009 0.39406
 C242 C 0.61559 -0.07058 0.42518
 C243 C 0.63632 0.39784 -0.10409
 C244 C 0.61568 0.42771 -0.07341
 C245 C -0.13753 0.10570 -0.10193
 C246 C -0.11693 0.07468 -0.07215
 C247 C -0.13580 0.60522 0.39886
 C248 C -0.11536 0.57413 0.42872
 C249 C 0.36440 0.10459 0.39828
 C250 C 0.38516 0.07382 0.42808
 C251 C 0.36449 0.60559 -0.10065
 C252 C 0.38520 0.57457 -0.07105
 C253 C -0.13720 -0.10498 0.10057
 C254 C -0.11672 -0.07394 0.07075
 C255 C -0.13562 0.39428 0.60141
 C256 C -0.11522 0.42538 0.57157
 C257 C 0.36446 -0.10464 0.60140
 C258 C 0.38520 -0.07385 0.57166
 C259 C 0.36442 0.39422 0.10032
 C260 C 0.38516 0.42515 0.07073
 C261 C 0.13426 0.10120 0.10432
 C262 C 0.11358 0.07159 0.07344
 C263 C 0.13558 0.60094 0.60488
 C264 C 0.11503 0.57118 0.57400
 C265 C 0.63628 0.09981 0.60599
 C266 C 0.61568 0.07035 0.57488
 C267 C 0.63618 0.60147 0.10414
 C268 C 0.61559 0.57159 0.07343
   
