data_POSCAR
  _audit_creation_date              2014-09-24
  _audit_creation_method            'ToBaCCo'
  _symmetry_space_group_name_H-M    'P1'
  _symmetry_Int_Tables_number       1
  _symmetry_cell_setting            triclinic
  loop_
  _symmetry_equiv_pos_as_xyz
 x,y,z
_cell_length_a 28.3231
_cell_length_b 28.4462
_cell_length_c 15.3585
_cell_angle_alpha 90.301600
_cell_angle_beta 89.427200
_cell_angle_gamma 119.157700
loop_
  _atom_site_label
  _atom_site_type_symbol
  _atom_site_fract_x
  _atom_site_fract_y
  _atom_site_fract_z
O1 O 0.45248 0.94812 0.61057
 O2 O 0.49491 1.04604 0.43341
 O3 O 0.44365 0.94124 0.44176
 O4 O 0.50699 1.05198 0.60003
 O5 O 0.58357 1.04947 0.58728
 O6 O 0.52053 0.93963 0.42780
 O7 O 0.57076 1.04401 0.41740
 O8 O 0.52850 0.94471 0.59680
 Cu9 Cu 0.46681 0.99695 0.52251
 Cu10 Cu 0.55864 0.99438 0.50597
 C11 C 0.48337 0.93020 0.63474
 C12 C 0.53945 1.06191 0.39374
 C13 C 0.47127 0.92140 0.40815
 C14 C 0.55597 1.06925 0.62077
 O15 O 0.04222 0.57327 0.41987
 O16 O -0.05158 0.52019 0.60815
 O17 O 0.05000 0.58178 0.58658
 O18 O -0.06533 0.51738 0.43907
 O19 O -0.05105 0.44838 0.42325
 O20 O 0.04985 0.50482 0.59897
 O21 O -0.05393 0.44208 0.59266
 O22 O 0.05475 0.50270 0.42975
 Cu23 Cu -0.00754 0.55526 0.51186
 Cu24 Cu 0.00062 0.46709 0.51020
 C25 C 0.06710 0.54806 0.39699
 C26 C -0.06849 0.47194 0.63320
 C27 C 0.06740 0.55349 0.62295
 C28 C -0.07793 0.47211 0.40513
 O29 O 0.41927 0.46593 0.42664
 O30 O 0.47783 0.42101 0.59813
 O31 O 0.42122 0.47292 0.59453
 O32 O 0.47233 0.41481 0.42925
 O33 O 0.54501 0.49412 0.41378
 O34 O 0.50018 0.54684 0.59839
 O35 O 0.55592 0.49540 0.58301
 O36 O 0.49148 0.54591 0.42979
 Cu37 Cu 0.44013 0.43583 0.51462
 Cu38 Cu 0.53099 0.52827 0.50619
 C39 C 0.44460 0.51427 0.40037
 C40 C 0.52762 0.44909 0.61636
 C41 C 0.45119 0.52012 0.62354
 C42 C 0.51600 0.44556 0.38931
 O43 O 0.40717 0.64392 -0.06232
 O44 O 0.41722 0.73935 -0.08045
 C45 C 0.39667 0.76928 -0.09528
 O46 O 0.35384 0.76322 -0.05790
 O47 O 0.26070 0.67846 -0.09145
 C48 C 0.22989 0.62877 -0.10569
 O49 O 0.23393 0.59218 -0.06483
 O50 O 0.32162 0.58435 -0.09305
 C51 C 0.37190 0.60680 -0.11005
 O52 O 0.40135 0.65425 0.11383
 O53 O 0.41456 0.75043 0.09405
 C54 C 0.38205 0.76155 0.13531
 O55 O 0.33335 0.74378 0.11322
 O56 O 0.23890 0.66187 0.08072
 C57 C 0.22876 0.62021 0.12473
 O58 O 0.24912 0.59020 0.10717
 O59 O 0.33225 0.57534 0.07771
 C60 C 0.37161 0.60428 0.12672
 Cr61 Cr 0.40712 0.69562 0.01602
 Cr62 Cr 0.29806 0.71014 0.01094
 Cr63 Cr 0.28590 0.58847 0.00679
 O64 O 0.33047 0.66492 0.01049
 O65 O 0.58462 0.33164 -0.07411
 O66 O 0.59900 0.24845 -0.09601
 C67 C 0.62904 0.22741 -0.10695
 O68 O 0.66738 0.23552 -0.05605
 O69 O 0.75379 0.32998 -0.07549
 C70 C 0.77542 0.37998 -0.09186
 O71 O 0.75972 0.41054 -0.05668
 O72 O 0.66648 0.40155 -0.09578
 C73 C 0.61731 0.37299 -0.11685
 O74 O 0.58066 0.31718 0.09875
 O75 O 0.58826 0.22942 0.07639
 C76 C 0.62088 0.22606 0.12872
 O77 O 0.67168 0.25324 0.11847
 O78 O 0.75957 0.34441 0.09781
 C79 C 0.76233 0.38481 0.13777
 O80 O 0.73625 0.40832 0.11411
 O81 O 0.64355 0.40260 0.07533
 C82 C 0.60115 0.36722 0.11383
 Cr83 Cr 0.59111 0.28322 0.00167
 Cr84 Cr 0.71127 0.29202 0.02068
 Cr85 Cr 0.70024 0.40279 0.00935
 O86 O 0.66768 0.32621 0.01059
 C87 C 0.45343 0.90589 -0.20869
 C88 C 0.46627 0.89243 -0.29135
 C89 C 0.46056 0.84124 -0.30492
 C90 C 0.43935 0.80228 -0.23972
 C91 C 0.42372 0.81359 -0.15887
 C92 C 0.43285 0.86645 -0.14138
 C93 C 0.46197 0.95822 -0.19071
 C94 C 0.45136 0.97165 -0.10819
 C95 C 0.43248 0.93355 -0.04187
 C96 C 0.42348 0.88154 -0.05781
 H97 H 0.47774 0.98950 -0.23956
 H98 H 0.45854 1.01206 -0.09534
 H99 H 0.42516 0.94446 0.02250
 H100 H 0.41041 0.85399 -0.00339
 H101 H 0.47059 0.83068 -0.36768
 H102 H 0.43337 0.76235 -0.25356
 C103 C 0.11493 0.61951 -0.24964
 C104 C 0.10837 0.57658 -0.30638
 C105 C 0.14026 0.55203 -0.29265
 C106 C 0.17832 0.56906 -0.22687
 C107 C 0.18704 0.61195 -0.17238
 C108 C 0.15377 0.63619 -0.18109
 C109 C 0.08284 0.64513 -0.25590
 C110 C 0.08818 0.68473 -0.19686
 C111 C 0.12423 0.69896 -0.12861
 C112 C 0.15618 0.67461 -0.11997
 H113 H 0.05226 0.63514 -0.30411
 H114 H 0.06301 0.70346 -0.20282
 H115 H 0.12689 0.72848 -0.08129
 H116 H 0.18125 0.68501 -0.06312
 H117 H 0.13589 0.51902 -0.33358
 H118 H 0.20127 0.54824 -0.21840
 C119 C 0.37672 0.53601 -0.32287
 C120 C 0.43015 0.54321 -0.31692
 C121 C 0.46396 0.57623 -0.25071
 C122 C 0.44441 0.59660 -0.18565
 C123 C 0.39104 0.58752 -0.18640
 C124 C 0.35787 0.55997 -0.25899
 C125 C 0.34332 0.50998 -0.39521
 C126 C 0.29261 0.50591 -0.40336
 C127 C 0.27489 0.52995 -0.34231
 C128 C 0.30765 0.55811 -0.27260
 H129 H 0.35641 0.49434 -0.44834
 H130 H 0.26774 0.48567 -0.45909
 H131 H 0.23619 0.52817 -0.35052
 H132 H 0.29394 0.58040 -0.23284
 H133 H 0.50521 0.58369 -0.24584
 H134 H 0.47132 0.61879 -0.13292
 C135 C 0.59741 0.16683 -0.33514
 C136 C 0.58066 0.11250 -0.31442
 C137 C 0.58551 0.09846 -0.22911
 C138 C 0.60334 0.13680 -0.16297
 C139 C 0.61747 0.19027 -0.18083
 C140 C 0.61708 0.20631 -0.26796
 C141 C 0.59568 0.18289 -0.42134
 C142 C 0.61430 0.23694 -0.44113
 C143 C 0.63526 0.27583 -0.37590
 C144 C 0.63679 0.26086 -0.29004
 H145 H 0.58063 0.15401 -0.47407
 H146 H 0.61297 0.24878 -0.50754
 H147 H 0.65014 0.31777 -0.39179
 H148 H 0.65378 0.29233 -0.24137
 H149 H 0.57365 0.05712 -0.21300
 H150 H 0.60423 0.12424 -0.09680
 C151 C 0.90163 0.48204 -0.21772
 C152 C 0.89685 0.45110 -0.29395
 C153 C 0.85717 0.39648 -0.29542
 C154 C 0.81912 0.37393 -0.22867
 C155 C 0.82060 0.40437 -0.15586
 C156 C 0.86397 0.45795 -0.14748
 C157 C 0.94565 0.53456 -0.20584
 C158 C 0.95166 0.56298 -0.12890
 C159 C 0.91534 0.53933 -0.06060
 C160 C 0.87252 0.48718 -0.06886
 H161 H 0.97734 0.55369 -0.25359
 H162 H 0.98567 0.60301 -0.12118
 H163 H 0.92118 0.56099 0.00004
 H164 H 0.84792 0.46969 -0.01144
 H165 H 0.85338 0.37151 -0.35136
 H166 H 0.78713 0.33265 -0.23545
 C167 C 0.53951 0.37271 -0.32157
 C168 C 0.55275 0.42773 -0.32243
 C169 C 0.59007 0.46325 -0.26221
 C170 C 0.61176 0.44484 -0.19850
 C171 C 0.59617 0.39006 -0.19152
 C172 C 0.56000 0.35338 -0.25419
 C173 C 0.50783 0.33672 -0.38792
 C174 C 0.49413 0.28262 -0.38553
 C175 C 0.51210 0.26330 -0.31802
 C176 C 0.54496 0.29819 -0.25353
 H177 H 0.49452 0.34994 -0.44371
 H178 H 0.46986 0.25566 -0.43682
 H179 H 0.50170 0.22129 -0.31672
 H180 H 0.55928 0.28131 -0.20504
 H181 H 0.60142 0.50555 -0.26281
 H182 H 0.63944 0.47349 -0.15187
 C183 C 0.83044 0.45166 0.35462
 C184 C 0.87914 0.44858 0.34577
 C185 C 0.88482 0.42057 0.27468
 C186 C 0.84679 0.40098 0.20874
 C187 C 0.79988 0.40588 0.21289
 C188 C 0.79001 0.42879 0.28866
 C189 C 0.81849 0.47212 0.43109
 C190 C 0.76905 0.47099 0.44165
 C191 C 0.72964 0.44792 0.37824
 C192 C 0.73954 0.42634 0.30317
 H193 H 0.84572 0.48700 0.48552
 H194 H 0.76061 0.48654 0.50079
 H195 H 0.69063 0.44545 0.38840
 H196 H 0.70633 0.40557 0.25901
 H197 H 0.92080 0.41658 0.26696
 H198 H 0.85477 0.38245 0.15281
 C199 C 0.52257 0.12275 0.29444
 C200 C 0.55525 0.10049 0.32554
 C201 C 0.60772 0.12078 0.29020
 C202 C 0.62826 0.16172 0.22849
 C203 C 0.59846 0.18623 0.20132
 C204 C 0.54647 0.16897 0.23887
 C205 C 0.46672 0.10066 0.31495
 C206 C 0.43841 0.12759 0.29382
 C207 C 0.46439 0.17661 0.25094
 C208 C 0.51768 0.19704 0.22330
 H209 H 0.44282 0.06163 0.34393
 H210 H 0.39611 0.11042 0.31147
 H211 H 0.44282 0.19837 0.23724
 H212 H 0.53616 0.23559 0.19151
 H213 H 0.63378 0.10488 0.31011
 H214 H 0.66805 0.17411 0.20129
 C215 C 0.49795 0.38582 0.25429
 C216 C 0.53407 0.42479 0.31452
 C217 C 0.58981 0.44568 0.30276
 C218 C 0.61013 0.42723 0.23630
 C219 C 0.57570 0.38607 0.18015
 C220 C 0.51898 0.36588 0.18721
 C221 C 0.44178 0.36808 0.25600
 C222 C 0.40713 0.33030 0.19622
 C223 C 0.42754 0.31052 0.13186
 C224 C 0.48285 0.32860 0.12629
 H225 H 0.42377 0.38410 0.30100
 H226 H 0.36427 0.31715 0.19875
 H227 H 0.40051 0.28196 0.08459
 H228 H 0.49669 0.31418 0.07207
 H229 H 0.61819 0.47633 0.34625
 H230 H 0.65352 0.44503 0.22948
 C231 C 0.16345 0.57805 0.35042
 C232 C 0.11153 0.57154 0.33246
 C233 C 0.10109 0.58518 0.25025
 C234 C 0.14006 0.60199 0.18427
 C235 C 0.19046 0.60547 0.19865
 C236 C 0.20323 0.59506 0.28294
 C237 C 0.17730 0.56973 0.43490
 C238 C 0.22887 0.57764 0.45217
 C239 C 0.26766 0.59406 0.38632
 C240 C 0.25527 0.60302 0.30261
 H241 H 0.14904 0.55836 0.48881
 H242 H 0.23905 0.57185 0.51731
 H243 H 0.30778 0.60055 0.40038
 H244 H 0.28735 0.61755 0.25444
 H245 H 0.06180 0.58094 0.23611
 H246 H 0.13017 0.61074 0.12053
 C247 C 0.39559 0.83095 0.35660
 C248 C 0.44655 0.87755 0.34349
 C249 C 0.47550 0.88297 0.26636
 C250 C 0.45410 0.84447 0.20092
 C251 C 0.40292 0.79910 0.21014
 C252 C 0.37341 0.79143 0.28928
 C253 C 0.36708 0.82171 0.43636
 C254 C 0.31743 0.77542 0.44893
 C255 C 0.29557 0.73712 0.38327
 C256 C 0.32332 0.74460 0.30460
 H257 H 0.38313 0.84936 0.49044
 H258 H 0.29609 0.76894 0.51039
 H259 H 0.25721 0.70104 0.39380
 H260 H 0.30538 0.71277 0.25720
 H261 H 0.51470 0.91809 0.25577
 H262 H 0.47730 0.85096 0.14135
 C263 C 0.36434 0.51224 0.31736
 C264 C 0.42094 0.53429 0.33304
 C265 C 0.45770 0.57809 0.28255
 C266 C 0.44049 0.59970 0.21747
 C267 C 0.38558 0.57861 0.19903
 C268 C 0.34667 0.53466 0.24986
 C269 C 0.32444 0.46969 0.36816
 C270 C 0.26955 0.44972 0.35343
 C271 C 0.25264 0.47157 0.28855
 C272 C 0.29047 0.51350 0.23756
 H273 H 0.33379 0.45120 0.42094
 H274 H 0.23990 0.41740 0.39349
 H275 H 0.20987 0.45643 0.27830
 H276 H 0.27431 0.52951 0.19062
 H277 H 0.50084 0.59572 0.29250
 H278 H 0.47093 0.63304 0.17990
   
