data_POSCAR
  _audit_creation_date              2014-09-24
  _audit_creation_method            'ToBaCCo'
  _symmetry_space_group_name_H-M    'P1'
  _symmetry_Int_Tables_number       1
  _symmetry_cell_setting            triclinic
  loop_
  _symmetry_equiv_pos_as_xyz
 x,y,z
_cell_length_a 29.2813
_cell_length_b 29.0183
_cell_length_c 34.2789
_cell_angle_alpha 89.969500
_cell_angle_beta 90.148400
_cell_angle_gamma 89.581300
loop_
  _atom_site_label
  _atom_site_type_symbol
  _atom_site_fract_x
  _atom_site_fract_y
  _atom_site_fract_z
C1 C 1.24942 0.25282 0.24960
 C2 C 0.75244 -0.24933 0.24843
 C3 C 0.74854 0.24757 -0.25098
 C4 C 1.24850 -0.24597 -0.25043
 C5 C 0.25196 0.24540 0.75007
 C6 C 0.74755 0.74965 0.75191
 C7 C 0.75105 0.25191 0.25202
 C8 C 0.24870 0.74613 0.25040
 O9 O 1.07616 0.02334 0.05335
 O10 O 0.91930 -0.01999 0.04991
 O11 O 0.97345 0.07962 0.04792
 O12 O 1.02143 -0.07872 0.05400
 O13 O 0.91164 0.05580 0.02394
 O14 O 1.08509 -0.05529 0.03306
 O15 O 0.94521 -0.08545 0.03268
 O16 O 1.05086 0.08598 0.02921
 C17 C 1.06998 0.06529 0.05673
 C18 C 0.92501 -0.06116 0.05743
 C19 C 0.93184 0.07521 0.05132
 C20 C 1.06277 -0.07415 0.05945
 O21 O 1.07944 -0.02801 -0.04264
 O22 O 0.92348 0.02101 -0.04911
 O23 O 1.02691 0.07524 -0.04725
 O24 O 0.97474 -0.08091 -0.04384
 O25 O 0.91188 -0.05490 -0.02308
 O26 O 1.08825 0.04998 -0.02192
 O27 O 1.05103 -0.09008 -0.02098
 O28 O 0.94904 0.08539 -0.02965
 Co29 Co 1.07402 -0.00239 0.00522
 Co30 Co 0.92470 0.00031 0.00058
 Co31 Co 0.99986 0.07366 0.00035
 Co32 Co 0.99812 -0.07598 0.00508
 O33 O 0.99923 -0.00114 0.00281
 C34 C 1.07203 -0.06947 -0.04733
 C35 C 0.92903 0.06251 -0.05529
 C36 C 1.06873 0.07012 -0.04951
 C37 C 0.93328 -0.07630 -0.04875
 O38 O 1.08879 0.55213 0.52601
 O39 O 0.90966 0.45266 0.52672
 O40 O 0.95092 0.59180 0.52732
 O41 O 1.04755 0.41272 0.53102
 O42 O 0.92303 0.52999 0.55008
 O43 O 1.07701 0.47572 0.55019
 O44 O 0.97063 0.42518 0.55032
 O45 O 1.02695 0.58079 0.54705
 C46 C 1.06813 0.57407 0.55181
 C47 C 0.92915 0.43139 0.55355
 C48 C 0.93070 0.57156 0.55438
 C49 C 1.07023 0.43427 0.55596
 O50 O 1.08436 0.44317 0.47668
 O51 O 0.91442 0.55962 0.47507
 O52 O 1.05461 0.58547 0.47117
 O53 O 0.94397 0.41697 0.47322
 O54 O 0.91973 0.48203 0.45286
 O55 O 1.07859 0.52032 0.45171
 O56 O 1.02113 0.42061 0.45427
 O57 O 0.97715 0.57939 0.45048
 Co58 Co 1.07405 0.49833 0.50107
 Co59 Co 0.92481 0.50569 0.50130
 Co60 Co 1.00204 0.57652 0.49907
 Co61 Co 0.99612 0.42684 0.50217
 O62 O 0.99932 0.50179 0.50097
 C63 C 1.06269 0.42410 0.45001
 C64 C 0.93545 0.57577 0.44677
 C65 C 1.07380 0.56198 0.44541
 C66 C 0.92419 0.44020 0.44737
 O67 O 0.57624 0.02280 0.54838
 O68 O 0.42030 -0.02431 0.54265
 O69 O 0.47237 0.07742 0.54169
 O70 O 0.52336 -0.08055 0.54748
 O71 O 0.41146 0.05164 0.51703
 O72 O 0.58685 -0.05569 0.52750
 O73 O 0.44772 -0.08900 0.52498
 O74 O 0.55019 0.08539 0.52447
 C75 C 0.57009 0.06481 0.55168
 C76 C 0.42605 -0.06572 0.54951
 C77 C 0.43065 0.07268 0.54407
 C78 C 0.56442 -0.07485 0.55363
 O79 O 0.58220 -0.02753 0.45229
 O80 O 0.42530 0.01826 0.44372
 O81 O 0.52781 0.07412 0.44727
 O82 O 0.47850 -0.08276 0.44894
 O83 O 0.41491 -0.05816 0.46924
 O84 O 0.58883 0.05028 0.47366
 O85 O 0.55446 -0.09055 0.47263
 O86 O 0.44965 0.08253 0.46440
 Co87 Co 0.57544 -0.00265 0.50015
 Co88 Co 0.42622 -0.00311 0.49345
 Co89 Co 0.50008 0.07193 0.49465
 Co90 Co 0.50095 -0.07786 0.49825
 O91 O 0.50072 -0.00295 0.49673
 C92 C 0.57545 -0.06893 0.44689
 C93 C 0.43105 0.05985 0.43796
 C94 C 0.56956 0.06860 0.44512
 C95 C 0.43700 -0.07909 0.44376
 O96 O 0.57688 0.52619 0.04875
 O97 O 0.42018 0.47819 0.04732
 O98 O 0.47681 0.58021 0.04777
 O99 O 0.52127 0.42235 0.05310
 O100 O 0.41386 0.55447 0.02587
 O101 O 0.58456 0.44809 0.03220
 O102 O 0.44473 0.41368 0.02791
 O103 O 0.55418 0.58832 0.02345
 C104 C 0.57365 0.56833 0.05095
 C105 C 0.42478 0.43666 0.05338
 C106 C 0.43519 0.57497 0.05225
 C107 C 0.56235 0.42951 0.05893
 O108 O 0.57822 0.47022 -0.04555
 O109 O 0.42367 0.52513 -0.05046
 O110 O 0.52321 0.57669 -0.04978
 O111 O 0.47741 0.41817 -0.04560
 O112 O 0.41389 0.44779 -0.02826
 O113 O 0.58636 0.54897 -0.02931
 O114 O 0.55328 0.40905 -0.02007
 O115 O 0.44730 0.58788 -0.02717
 Co116 Co 0.57376 0.49862 0.00143
 Co117 Co 0.42568 0.50122 -0.00134
 Co118 Co 0.50033 0.57497 -0.00109
 Co119 Co 0.49921 0.42412 0.00353
 O120 O 0.49978 0.49967 0.00054
 C121 C 0.57405 0.42801 -0.04727
 C122 C 0.42885 0.56702 -0.05464
 C123 C 0.56428 0.56966 -0.05532
 C124 C 0.43623 0.42405 -0.05204
 C125 C 1.16578 0.17158 0.16998
 C126 C 1.18439 0.21303 0.15701
 C127 C 1.21166 0.23872 0.18186
 C128 C 1.22099 0.22365 0.22026
 C129 C 1.20151 0.18115 0.23169
 N130 N 1.17518 0.15652 0.20664
 C131 C 1.13688 0.14401 0.14393
 N132 N 1.14160 0.09730 0.14322
 C133 C 1.11882 0.07084 0.11692
 C134 C 1.09002 0.09165 0.08913
 C135 C 1.08290 0.13942 0.09096
 C136 C 1.10620 0.16564 0.11826
 H137 H 1.22485 0.27036 0.17019
 H138 H 1.20640 0.16805 0.26097
 H139 H 1.12460 0.03396 0.11680
 H140 H 1.06031 0.15677 0.07054
 H141 H 1.17839 0.22534 0.12759
 H142 H 1.10089 0.20261 0.11884
 C143 C 1.16707 0.66802 0.67144
 C144 C 1.18568 0.64828 0.70512
 C145 C 1.21058 0.67575 0.73085
 C146 C 1.22006 0.72241 0.72198
 C147 C 1.19793 0.74077 0.68862
 N148 N 1.17276 0.71365 0.66473
 C149 C 1.14063 0.64090 0.64327
 N150 N 1.10054 0.65836 0.62935
 C151 C 1.07603 0.63663 0.60124
 C152 C 1.09276 0.59586 0.58436
 C153 C 1.13410 0.57732 0.59819
 C154 C 1.15782 0.59940 0.62815
 H155 H 1.22145 0.66026 0.75802
 H156 H 1.19982 0.77666 0.68123
 H157 H 1.04436 0.65207 0.59115
 H158 H 1.14810 0.54602 0.58568
 H159 H 1.17986 0.61237 0.71201
 H160 H 1.19006 0.58529 0.63831
 C161 C 0.66409 0.17265 0.66620
 C162 C 0.64529 0.21043 0.68613
 C163 C 0.67225 0.23507 0.71223
 C164 C 0.71767 0.22133 0.72001
 C165 C 0.73575 0.18508 0.69727
 N166 N 0.70875 0.16146 0.67210
 C167 C 0.63695 0.14489 0.63860
 N168 N 0.64872 0.09994 0.63258
 C169 C 0.62654 0.07291 0.60637
 C170 C 0.59093 0.09136 0.58367
 C171 C 0.57789 0.13739 0.58975
 C172 C 0.60068 0.16421 0.61715
 H173 H 0.65721 0.26488 0.72626
 H174 H 0.77123 0.17492 0.70016
 H175 H 0.63781 0.03764 0.60235
 H176 H 0.55068 0.15298 0.57268
 H177 H 0.60999 0.22065 0.68214
 H178 H 0.59100 0.20006 0.62029
 C179 C 0.67730 0.66664 0.16532
 C180 C 0.71138 0.69589 0.15167
 C181 C 0.73690 0.72137 0.17802
 C182 C 0.72743 0.71977 0.21840
 C183 C 0.69573 0.68634 0.23084
 N184 N 0.67129 0.66151 0.20441
 C185 C 0.64779 0.64228 0.13740
 N186 N 0.63890 0.59665 0.14222
 C187 C 0.61432 0.57241 0.11552
 C188 C 0.59715 0.59435 0.08191
 C189 C 0.60454 0.64169 0.07735
 C190 C 0.63001 0.66564 0.10486
 H191 H 0.76384 0.74225 0.16609
 H192 H 0.68914 0.68146 0.26161
 H193 H 0.60878 0.53599 0.12024
 H194 H 0.59170 0.65996 0.05199
 H195 H 0.71835 0.69890 0.12075
 H196 H 0.63607 0.70209 0.10065
 C197 C 0.83186 -0.15065 0.18203
 C198 C 0.78416 -0.14934 0.18067
 C199 C 0.75948 -0.18007 0.20327
 C200 C 0.78186 -0.21278 0.22728
 C201 C 0.82980 -0.20922 0.23063
 N202 N 0.85324 -0.17986 0.20727
 C203 C 0.85881 -0.12448 0.15363
 N204 N 0.89399 -0.14596 0.13501
 C205 C 0.91662 -0.12584 0.10500
 C206 C 0.90379 -0.08172 0.09213
 C207 C 0.86902 -0.05816 0.11214
 C208 C 0.84623 -0.07957 0.14274
 H209 H 0.72262 -0.18007 0.20051
 H210 H 0.84918 -0.22974 0.25106
 H211 H 0.94385 -0.14471 0.09070
 H212 H 0.85840 -0.02386 0.10329
 H213 H 0.76613 -0.12668 0.16069
 H214 H 0.81856 -0.06160 0.15727
 C215 C 0.82375 0.33514 0.66877
 C216 C 0.77908 0.34704 0.67986
 C217 C 0.75545 0.31882 0.70559
 C218 C 0.77647 0.27970 0.72235
 C219 C 0.82090 0.26844 0.70942
 N220 N 0.84304 0.29618 0.68380
 C221 C 0.85016 0.36277 0.64035
 N222 N 0.89633 0.35674 0.63836
 C223 C 0.92261 0.37925 0.61188
 C224 C 0.90235 0.40950 0.58487
 C225 C 0.85500 0.41664 0.58666
 C226 C 0.82884 0.39334 0.61409
 H227 H 0.72050 0.32780 0.71271
 H228 H 0.83784 0.23712 0.71876
 H229 H 0.95904 0.37267 0.61140
 H230 H 0.83792 0.43949 0.56623
 H231 H 0.76218 0.37775 0.66913
 H232 H 0.79225 0.39838 0.61350
 C233 C 0.32922 -0.15852 0.67168
 C234 C 0.28559 -0.14428 0.68324
 C235 C 0.26052 -0.17176 0.70852
 C236 C 0.27831 -0.21377 0.72344
 C237 C 0.32258 -0.22632 0.71060
 N238 N 0.34610 -0.19910 0.68550
 C239 C 0.35584 -0.13254 0.64249
 N240 N 0.38618 -0.15586 0.61967
 C241 C 0.40988 -0.13501 0.59064
 C242 C 0.40338 -0.08790 0.58299
 C243 C 0.37358 -0.06278 0.60705
 C244 C 0.34983 -0.08490 0.63682
 H245 H 0.22621 -0.16039 0.71538
 H246 H 0.33894 -0.25781 0.71953
 H247 H 0.43308 -0.15549 0.57312
 H248 H 0.36803 -0.02623 0.60245
 H249 H 0.26991 -0.11327 0.67172
 H250 H 0.32710 -0.06481 0.65504
 C251 C 0.33142 0.34397 0.17703
 C252 C 0.28778 0.35798 0.18886
 C253 C 0.26238 0.32946 0.21302
 C254 C 0.28010 0.28677 0.22641
 C255 C 0.32465 0.27485 0.21406
 N256 N 0.34834 0.30299 0.18991
 C257 C 0.35753 0.37004 0.14772
 N258 N 0.38664 0.34653 0.12394
 C259 C 0.40940 0.36730 0.09437
 C260 C 0.40306 0.41449 0.08719
 C261 C 0.37461 0.43982 0.11225
 C262 C 0.35181 0.41776 0.14256
 H263 H 0.22765 0.33985 0.21953
 H264 H 0.34070 0.24281 0.22227
 H265 H 0.43167 0.34672 0.07608
 H266 H 0.36933 0.47648 0.10801
 H267 H 0.27216 0.38934 0.17793
 H268 H 0.32994 0.43787 0.16152
 C269 C 0.83067 0.15914 -0.17542
 C270 C 0.79158 0.14119 -0.19340
 C271 C 0.76552 0.16907 -0.21809
 C272 C 0.77868 0.21474 -0.22628
 C273 C 0.81678 0.23183 -0.20582
 N274 N 0.84151 0.20403 -0.18172
 C275 C 0.85828 0.13213 -0.14716
 N276 N 0.88504 0.15535 -0.12141
 C277 C 0.90937 0.13364 -0.09298
 C278 C 0.90706 0.08561 -0.08886
 C279 C 0.88121 0.06067 -0.11598
 C280 C 0.85700 0.08372 -0.14529
 H281 H 0.73430 0.15493 -0.22978
 H282 H 0.82667 0.26751 -0.20878
 H283 H 0.92938 0.15414 -0.07296
 H284 H 0.87904 0.02348 -0.11411
 H285 H 0.77983 0.10669 -0.18743
 H286 H 0.83751 0.06363 -0.16591
 C287 C 0.83287 0.65879 0.32267
 C288 C 0.84409 0.66291 0.28311
 C289 C 0.81696 0.69080 0.25892
 C290 C 0.78050 0.71704 0.27444
 C291 C 0.76842 0.70796 0.31357
 N292 N 0.79473 0.68018 0.33618
 C293 C 0.86080 0.63253 0.35090
 N294 N 0.83948 0.61445 0.38253
 C295 C 0.86271 0.59468 0.41247
 C296 C 0.91060 0.59373 0.41241
 C297 C 0.93353 0.61127 0.37976
 C298 C 0.90868 0.63054 0.34875
 H299 H 0.82552 0.69345 0.22829
 H300 H 0.73820 0.72267 0.32671
 H301 H 0.84364 0.58116 0.43688
 H302 H 0.97050 0.61098 0.37860
 H303 H 0.87316 0.64470 0.27100
 H304 H 0.92677 0.64562 0.32445
 C305 C 0.33607 0.16199 0.32047
 C306 C 0.32654 0.14998 0.28186
 C307 C 0.29946 0.17941 0.25914
 C308 C 0.28024 0.22037 0.27489
 C309 C 0.29199 0.23077 0.31387
 N310 N 0.31902 0.20200 0.33495
 C311 C 0.36469 0.13345 0.34634
 N312 N 0.38951 0.15526 0.37420
 C313 C 0.41296 0.13206 0.40214
 C314 C 0.41085 0.08385 0.40410
 C315 C 0.38657 0.06030 0.37500
 C316 C 0.36357 0.08507 0.34582
 H317 H 0.29391 0.17023 0.22891
 H318 H 0.28028 0.26135 0.32840
 H319 H 0.43160 0.15161 0.42375
 H320 H 0.38419 0.02307 0.37555
 H321 H 0.34070 0.11892 0.26908
 H322 H 0.34337 0.06677 0.32444
 C323 C 0.33657 0.67305 -0.17191
 C324 C 0.31458 0.71254 -0.15802
 C325 C 0.28676 0.73828 -0.18275
 C326 C 0.28013 0.72550 -0.22219
 C327 C 0.30427 0.68562 -0.23483
 N328 N 0.33073 0.66051 -0.20976
 C329 C 0.36514 0.64507 -0.14530
 N330 N 0.36038 0.59841 -0.14398
 C331 C 0.38196 0.57210 -0.11646
 C332 C 0.40947 0.59301 -0.08796
 C333 C 0.41647 0.64070 -0.09028
 C334 C 0.39442 0.66673 -0.11877
 H335 H 0.27067 0.76795 -0.16984
 H336 H 0.30175 0.67412 -0.26477
 H337 H 0.37627 0.53529 -0.11598
 H338 H 0.43800 0.65821 -0.06936
 H339 H 0.31810 0.72305 -0.12784
 H340 H 0.39934 0.70368 -0.11950
 C341 C 1.15857 -0.16911 -0.17195
 C342 C 1.14367 -0.21089 -0.18789
 C343 C 1.17166 -0.23489 -0.21386
 C344 C 1.21440 -0.21718 -0.22529
 C345 C 1.22719 -0.17440 -0.20886
 N346 N 1.19957 -0.15212 -0.18322
 C347 C 1.13250 -0.14385 -0.14170
 N348 N 1.14167 -0.09844 -0.13570
 C349 C 1.12185 -0.07365 -0.10660
 C350 C 1.09147 -0.09490 -0.08075
 C351 C 1.08102 -0.14147 -0.08663
 C352 C 1.10141 -0.16605 -0.11695
 H353 H 1.15977 -0.26787 -0.22415
 H354 H 1.26038 -0.15985 -0.21466
 H355 H 1.13074 -0.03773 -0.10314
 H356 H 1.05770 -0.15913 -0.06734
 H357 H 1.11097 -0.22539 -0.18027
 H358 H 1.09405 -0.20235 -0.11978
 C359 C 1.15967 0.33130 0.32757
 C360 C 1.14221 0.29306 0.30779
 C361 C 1.17019 0.26819 0.28249
 C362 C 1.21625 0.28063 0.27653
 C363 C 1.23167 0.32008 0.29681
 N364 N 1.20377 0.34348 0.32149
 C365 C 1.13283 0.35689 0.35701
 N366 N 1.15575 0.38119 0.38469
 C367 C 1.13403 0.40376 0.41401
 C368 C 1.08631 0.40225 0.41687
 C369 C 1.06178 0.37875 0.38799
 C370 C 1.08485 0.35618 0.35793
 H371 H 1.15485 0.23905 0.26835
 H372 H 1.26656 0.33159 0.29385
 H373 H 1.15417 0.42209 0.43540
 H374 H 1.02484 0.37746 0.38881
 H375 H 1.10775 0.28121 0.31252
 H376 H 1.06512 0.33864 0.33585
 C377 C 0.66512 -0.16653 0.32381
 C378 C 0.64438 -0.19329 0.29484
 C379 C 0.67156 -0.21917 0.26943
 C380 C 0.71952 -0.21999 0.27378
 C381 C 0.73849 -0.19049 0.30219
 N382 N 0.71136 -0.16523 0.32609
 C383 C 0.63841 -0.14023 0.35259
 N384 N 0.65502 -0.09938 0.36571
 C385 C 0.63443 -0.07518 0.39472
 C386 C 0.59579 -0.09298 0.41333
 C387 C 0.57784 -0.13484 0.40011
 C388 C 0.59880 -0.15838 0.36944
 H389 H 0.65453 -0.23794 0.24654
 H390 H 0.77515 -0.18852 0.30592
 H391 H 0.64924 -0.04296 0.40415
 H392 H 0.54791 -0.14948 0.41372
 H393 H 0.60760 -0.19371 0.29155
 H394 H 0.58537 -0.19129 0.36019
 C395 C 0.67043 0.32033 -0.16186
 C396 C 0.65896 0.27510 -0.17226
 C397 C 0.68460 0.25201 -0.20035
 C398 C 0.72057 0.27413 -0.21994
 C399 C 0.73230 0.31867 -0.20698
 N400 N 0.70693 0.34041 -0.17928
 C401 C 0.64410 0.34696 -0.13256
 N402 N 0.64722 0.39381 -0.13241
 C403 C 0.62461 0.42057 -0.10609
 C404 C 0.59712 0.40019 -0.07752
 C405 C 0.59333 0.35205 -0.07718
 C406 C 0.61682 0.32537 -0.10438
 H407 H 0.67560 0.21689 -0.20751
 H408 H 0.76174 0.33629 -0.21845
 H409 H 0.62858 0.45760 -0.10727
 H410 H 0.57275 0.33486 -0.05544
 H411 H 0.63012 0.25761 -0.15957
 H412 H 0.61429 0.28831 -0.10243
 C413 C 1.17518 0.16333 -0.16633
 C414 C 1.21949 0.14999 -0.17730
 C415 C 1.24356 0.17654 -0.20401
 C416 C 1.22338 0.21548 -0.22180
 C417 C 1.17925 0.22824 -0.20903
 N418 N 1.15663 0.20206 -0.18248
 C419 C 1.14844 0.13713 -0.13706
 N420 N 1.10217 0.14270 -0.13572
 C421 C 1.07572 0.12088 -0.10890
 C422 C 1.09584 0.09178 -0.08088
 C423 C 1.14333 0.08536 -0.08187
 C424 C 1.16967 0.10797 -0.10961
 H425 H 1.27816 0.16630 -0.21117
 H426 H 1.16292 0.25947 -0.21933
 H427 H 1.03920 0.12696 -0.10904
 H428 H 1.16037 0.06348 -0.06067
 H429 H 1.23571 0.11929 -0.16580
 H430 H 1.20631 0.10346 -0.10848
 C431 C 1.16408 0.65803 0.32072
 C432 C 1.18884 0.63836 0.28986
 C433 C 1.21538 0.66637 0.26581
 C434 C 1.21888 0.71441 0.27276
 C435 C 1.18919 0.73268 0.30161
 N436 N 1.16416 0.70461 0.32477
 C437 C 1.13852 0.63040 0.34985
 N438 N 1.10966 0.65302 0.37449
 C439 C 1.08765 0.63159 0.40416
 C440 C 1.09467 0.58440 0.41104
 C441 C 1.12341 0.55991 0.38560
 C442 C 1.14550 0.58272 0.35510
 H443 H 1.23265 0.64973 0.24180
 H444 H 1.18785 0.76943 0.30702
 H445 H 1.06547 0.65175 0.42285
 H446 H 1.12982 0.52345 0.38994
 H447 H 1.18779 0.60182 0.28389
 H448 H 1.16883 0.56325 0.33702
 C449 C 0.67726 0.15881 0.32885
 C450 C 0.71658 0.18078 0.34241
 C451 C 0.74040 0.21001 0.31780
 C452 C 0.72484 0.21898 0.27950
 C453 C 0.68737 0.19285 0.26620
 N454 N 0.66398 0.16508 0.29113
 C455 C 0.64962 0.13062 0.35571
 N456 N 0.60320 0.13427 0.35511
 C457 C 0.57656 0.11332 0.38232
 C458 C 0.59674 0.08757 0.41262
 C459 C 0.64433 0.08168 0.41250
 C460 C 0.67078 0.10305 0.38420
 H461 H 0.77111 0.22552 0.32922
 H462 H 0.67595 0.19560 0.23624
 H463 H 0.53988 0.11806 0.38103
 H464 H 0.66130 0.06146 0.43488
 H465 H 0.72832 0.17639 0.37217
 H466 H 0.70753 0.09876 0.38505
 C467 C 0.65948 0.66154 -0.17837
 C468 C 0.68799 0.64080 -0.20610
 C469 C 0.71480 0.66830 -0.23025
 C470 C 0.71517 0.71668 -0.22565
 C471 C 0.68259 0.73573 -0.19977
 N472 N 0.65664 0.70824 -0.17684
 C473 C 0.63374 0.63418 -0.14969
 N474 N 0.59225 0.64976 -0.13740
 C475 C 0.56859 0.62844 -0.10857
 C476 C 0.58753 0.59013 -0.08923
 C477 C 0.63010 0.57330 -0.10157
 C478 C 0.65310 0.59493 -0.13207
 H479 H 0.73487 0.65099 -0.25218
 H480 H 0.67956 0.77272 -0.19644
 H481 H 0.53587 0.64254 -0.09978
 H482 H 0.64582 0.54388 -0.08728
 H483 H 0.68941 0.60368 -0.20919
 H484 H 0.68653 0.58235 -0.14053
 C485 C 0.83644 -0.17474 -0.16815
 C486 C 0.84022 -0.16785 -0.20845
 C487 C 0.81195 -0.19255 -0.23382
 C488 C 0.77945 -0.22407 -0.21941
 C489 C 0.77981 -0.23193 -0.17866
 N490 N 0.80684 -0.20676 -0.15469
 C491 C 0.86236 -0.14735 -0.13945
 N492 N 0.84113 -0.13442 -0.10590
 C493 C 0.86283 -0.11070 -0.07727
 C494 C 0.90921 -0.09983 -0.08095
 C495 C 0.93201 -0.11296 -0.11523
 C496 C 0.90852 -0.13626 -0.14482
 H497 H 0.81457 -0.18622 -0.26486
 H498 H 0.75908 -0.25796 -0.16518
 H499 H 0.84409 -0.10144 -0.05121
 H500 H 0.96786 -0.10523 -0.11908
 H501 H 0.86365 -0.14270 -0.22013
 H502 H 0.92651 -0.14671 -0.17095
 C503 C 0.82937 0.34533 0.32535
 C504 C 0.78186 0.34331 0.32849
 C505 C 0.75757 0.31393 0.30418
 C506 C 0.78011 0.28603 0.27641
 C507 C 0.82767 0.29228 0.27227
 N508 N 0.85085 0.32025 0.29723
 C509 C 0.85613 0.37225 0.35368
 N510 N 0.89232 0.35209 0.37217
 C511 C 0.91526 0.37352 0.40151
 C512 C 0.90200 0.41784 0.41365
 C513 C 0.86591 0.43986 0.39391
 C514 C 0.84263 0.41700 0.36420
 H515 H 0.72093 0.31173 0.30787
 H516 H 0.84679 0.27523 0.24958
 H517 H 0.94331 0.35568 0.41572
 H518 H 0.85475 0.47412 0.40228
 H519 H 0.76384 0.36285 0.35061
 H520 H 0.81400 0.43382 0.34989
 C521 C 0.34089 -0.18021 0.32590
 C522 C 0.34096 -0.17129 0.28580
 C523 C 0.31146 -0.19588 0.26140
 C524 C 0.28082 -0.22909 0.27662
 C525 C 0.28627 -0.23960 0.31689
 N526 N 0.31429 -0.21443 0.33993
 C527 C 0.36678 -0.15223 0.35406
 N528 N 0.34615 -0.14070 0.38821
 C529 C 0.36772 -0.11646 0.41652
 C530 C 0.41341 -0.10352 0.41186
 C531 C 0.43570 -0.11522 0.37697
 C532 C 0.41222 -0.13911 0.34767
 H533 H 0.31135 -0.18787 0.23053
 H534 H 0.26868 -0.26770 0.33074
 H535 H 0.34942 -0.10837 0.44308
 H536 H 0.47102 -0.10582 0.37240
 H537 H 0.36226 -0.14454 0.27367
 H538 H 0.42966 -0.14838 0.32096
 C539 C 0.33916 0.31982 -0.16837
 C540 C 0.35677 0.28099 -0.18778
 C541 C 0.32919 0.25692 -0.21395
 C542 C 0.28419 0.27185 -0.22206
 C543 C 0.26719 0.30895 -0.19971
 N544 N 0.29471 0.33186 -0.17446
 C545 C 0.36628 0.34705 -0.13998
 N546 N 0.34366 0.37651 -0.11576
 C547 C 0.36536 0.40220 -0.08837
 C548 C 0.41291 0.39894 -0.08384
 C549 C 0.43725 0.36973 -0.10906
 C550 C 0.41419 0.34394 -0.13724
 H551 H 0.34314 0.22613 -0.22723
 H552 H 0.23198 0.32001 -0.20265
 H553 H 0.34525 0.42453 -0.06972
 H554 H 0.47404 0.36650 -0.10678
 H555 H 0.39094 0.26823 -0.18232
 H556 H 0.43399 0.32222 -0.15651
 C557 C 1.15850 -0.16684 0.18323
 C558 C 1.18658 -0.14633 0.21129
 C559 C 1.21428 -0.17393 0.23515
 C560 C 1.21623 -0.22241 0.22993
 C561 C 1.18365 -0.24116 0.20366
 N562 N 1.15687 -0.21350 0.18111
 C563 C 1.13231 -0.13924 0.15451
 N564 N 1.09095 -0.15454 0.14192
 C565 C 1.06716 -0.13305 0.11292
 C566 C 1.08587 -0.09493 0.09362
 C567 C 1.12831 -0.07845 0.10625
 C568 C 1.15138 -0.10015 0.13696
 H569 H 1.23410 -0.15654 0.25718
 H570 H 1.18147 -0.27807 0.19953
 H571 H 1.03459 -0.14690 0.10388
 H572 H 1.14389 -0.04920 0.09201
 H573 H 1.18712 -0.10925 0.21478
 H574 H 1.18470 -0.08778 0.14562
 C575 C 1.17125 0.33387 0.67304
 C576 C 1.21133 0.35101 0.69001
 C577 C 1.23701 0.32309 0.71503
 C578 C 1.22253 0.27822 0.72458
 C579 C 1.18349 0.26175 0.70499
 N580 N 1.15914 0.28956 0.68053
 C581 C 1.14350 0.36143 0.64508
 N582 N 1.11607 0.33901 0.61929
 C583 C 1.09119 0.36159 0.59160
 C584 C 1.09341 0.40976 0.58841
 C585 C 1.12011 0.43376 0.61556
 C586 C 1.14499 0.40985 0.64397
 H587 H 1.26886 0.33658 0.72603
 H588 H 1.17245 0.22658 0.70903
 H589 H 1.07064 0.34173 0.57152
 H590 H 1.12221 0.47097 0.61456
 H591 H 1.22396 0.38495 0.68308
 H592 H 1.16499 0.42931 0.66469
 C593 C 0.65920 -0.16353 0.67989
 C594 C 0.68752 -0.14223 0.70744
 C595 C 0.71453 -0.16927 0.73232
 C596 C 0.71482 -0.21776 0.72893
 C597 C 0.68324 -0.23729 0.70254
 N598 N 0.65712 -0.21024 0.67895
 C599 C 0.63327 -0.13683 0.65044
 N600 N 0.59200 -0.15256 0.63802
 C601 C 0.56841 -0.13205 0.60840
 C602 C 0.58725 -0.09457 0.58835
 C603 C 0.62957 -0.07763 0.60084
 C604 C 0.65245 -0.09831 0.63212
 H605 H 0.73522 -0.15165 0.75360
 H606 H 0.68095 -0.27433 0.69952
 H607 H 0.53588 -0.14620 0.59954
 H608 H 0.64524 -0.04884 0.58602
 H609 H 0.68880 -0.10504 0.70969
 H610 H 0.68570 -0.08566 0.64063
 C611 C 0.66753 0.34359 0.18004
 C612 C 0.71489 0.34053 0.17467
 C613 C 0.74082 0.31187 0.19861
 C614 C 0.72014 0.28456 0.22751
 C615 C 0.67282 0.29118 0.23357
 N616 N 0.64805 0.31921 0.20949
 C617 C 0.63845 0.37044 0.15273
 N618 N 0.59518 0.35601 0.14483
 C619 C 0.56882 0.37605 0.11663
 C620 C 0.58646 0.41192 0.09381
 C621 C 0.62988 0.42885 0.10297
 C622 C 0.65572 0.40861 0.13254
 H623 H 0.77731 0.30967 0.19372
 H624 H 0.65525 0.27463 0.25732
 H625 H 0.53517 0.36245 0.11075
 H626 H 0.64434 0.45717 0.08663
 H627 H 0.73185 0.35866 0.15131
 H628 H 0.68923 0.42224 0.13886
 C629 C 0.83012 0.16260 0.17452
 C630 C 0.84324 0.16686 0.21375
 C631 C 0.81691 0.19409 0.23898
 C632 C 0.77901 0.21948 0.22492
 C633 C 0.76491 0.21006 0.18626
 N634 N 0.79069 0.18309 0.16250
 C635 C 0.85751 0.13687 0.14539
 N636 N 0.83588 0.11917 0.11360
 C637 C 0.85878 0.09835 0.08393
 C638 C 0.90663 0.09558 0.08456
 C639 C 0.92977 0.11328 0.11715
 C640 C 0.90536 0.13374 0.14770
 H641 H 0.82701 0.19651 0.26930
 H642 H 0.73352 0.22414 0.17451
 H643 H 0.83958 0.08503 0.05943
 H644 H 0.96670 0.11178 0.11879
 H645 H 0.87317 0.14914 0.22495
 H646 H 0.92389 0.14843 0.17198
 C647 C 0.83969 0.67682 0.67265
 C648 C 0.81323 0.71349 0.65855
 C649 C 0.78409 0.73705 0.68361
 C650 C 0.78008 0.72404 0.72321
 C651 C 0.81041 0.68927 0.73659
 N652 N 0.83788 0.66589 0.71122
 C653 C 0.86828 0.64977 0.64550
 N654 N 0.86615 0.60288 0.64554
 C655 C 0.88726 0.57682 0.61773
 C656 C 0.91168 0.59812 0.58750
 C657 C 0.91593 0.64625 0.58820
 C658 C 0.89422 0.67209 0.61697
 H659 H 0.76529 0.76578 0.67138
 H660 H 0.81102 0.67977 0.76712
 H661 H 0.88374 0.53972 0.61855
 H662 H 0.93488 0.66413 0.56580
 H663 H 0.81435 0.72335 0.62809
 H664 H 0.89677 0.70930 0.61643
 C665 C 0.32484 0.16570 0.66182
 C666 C 0.28628 0.14676 0.67977
 C667 C 0.26270 0.17210 0.70789
 C668 C 0.27812 0.21590 0.71969
 C669 C 0.31552 0.23436 0.69919
 N670 N 0.33803 0.20893 0.67192
 C671 C 0.35142 0.14006 0.63207
 N672 N 0.39657 0.14963 0.62733
 C673 C 0.42286 0.12796 0.60016
 C674 C 0.40359 0.09498 0.57524
 C675 C 0.35715 0.08465 0.57958
 C676 C 0.33102 0.10700 0.60786
 H677 H 0.23220 0.15719 0.72016
 H678 H 0.32717 0.26893 0.70520
 H679 H 0.45850 0.13710 0.59761
 H680 H 0.34090 0.05954 0.56086
 H681 H 0.27453 0.11254 0.67262
 H682 H 0.29504 0.09921 0.60988
 C683 C 0.33564 0.67281 0.17017
 C684 C 0.30772 0.70826 0.15615
 C685 C 0.28050 0.73313 0.18184
 C686 C 0.27853 0.72156 0.22207
 C687 C 0.31061 0.68776 0.23496
 N688 N 0.33729 0.66418 0.20912
 C689 C 0.36118 0.64393 0.14233
 N690 N 0.40757 0.64052 0.14423
 C691 C 0.43220 0.61772 0.11644
 C692 C 0.40989 0.59705 0.08463
 C693 C 0.36203 0.59902 0.08319
 C694 C 0.33771 0.62264 0.11173
 H695 H 0.26141 0.76156 0.16942
 H696 H 0.31325 0.67920 0.26563
 H697 H 0.46906 0.61649 0.11880
 H698 H 0.34332 0.58340 0.05939
 H699 H 0.30713 0.71676 0.12537
 H700 H 0.30083 0.62493 0.10967
   
