data_POSCAR
  _audit_creation_date              2014-09-24
  _audit_creation_method            'ToBaCCo'
  _symmetry_space_group_name_H-M    'P1'
  _symmetry_Int_Tables_number       1
  _symmetry_cell_setting            triclinic
  loop_
  _symmetry_equiv_pos_as_xyz
 x,y,z
_cell_length_a 25.0390
_cell_length_b 25.0627
_cell_length_c 30.5318
_cell_angle_alpha 90.000100
_cell_angle_beta 90.038600
_cell_angle_gamma 90.000300
loop_
  _atom_site_label
  _atom_site_type_symbol
  _atom_site_fract_x
  _atom_site_fract_y
  _atom_site_fract_z
C1 C 1.24999 0.24982 0.25004
 C2 C 0.74999 -0.25025 0.25004
 C3 C 0.74999 0.25120 -0.24996
 C4 C 1.24999 -0.24969 -0.24996
 C5 C 0.24999 0.24899 0.75004
 C6 C 0.74999 0.74916 0.75004
 C7 C 0.74999 0.24973 0.25004
 C8 C 0.24999 0.75074 0.25004
 O9 O 1.10155 0.06091 0.03066
 O10 O 0.89875 -0.06224 0.03026
 O11 O 0.93836 0.10075 0.03000
 O12 O 1.06185 -0.10220 0.03113
 O13 O 0.90872 0.02743 0.05443
 O14 O 1.09143 -0.02872 0.05537
 O15 O 0.97211 -0.09158 0.05500
 O16 O 1.02800 0.09086 0.05457
 C17 C 1.07630 0.08409 0.06028
 C18 C 0.92375 -0.08500 0.06026
 C19 C 0.91525 0.07576 0.05981
 C20 C 1.08507 -0.07709 0.06087
 O21 O 1.10175 -0.06271 -0.02922
 O22 O 0.89880 0.06087 -0.03038
 O23 O 1.06205 0.10039 -0.02995
 O24 O 0.93865 -0.10218 -0.02979
 O25 O 0.90931 -0.02881 -0.05443
 O26 O 1.09203 0.02691 -0.05387
 O27 O 1.02836 -0.09219 -0.05376
 O28 O 0.97235 0.09033 -0.05460
 Co29 Co 1.08741 -0.00089 0.00071
 Co30 Co 0.91321 -0.00070 0.00001
 Co31 Co 1.00019 0.08629 0.00003
 Co32 Co 1.00024 -0.08773 0.00062
 O33 O 1.00027 -0.00075 0.00034
 C34 C 1.07670 -0.08556 -0.05914
 C35 C 0.92394 0.08403 -0.06009
 C36 C 1.08522 0.07516 -0.05959
 C37 C 0.91575 -0.07716 -0.05972
 O38 O 1.09268 0.52873 0.55375
 O39 O 0.90995 0.47298 0.55431
 O40 O 0.97328 0.59242 0.55374
 O41 O 1.02910 0.40986 0.55423
 O42 O 0.89982 0.56253 0.52957
 O43 O 1.10266 0.43907 0.52978
 O44 O 0.93938 0.39948 0.53010
 O45 O 1.06310 0.60204 0.52925
 C46 C 1.08594 0.57700 0.55917
 C47 C 0.91633 0.42465 0.55984
 C48 C 0.92495 0.58565 0.55932
 C49 C 1.07752 0.41609 0.55959
 O50 O 1.09219 0.47254 0.44495
 O51 O 0.90958 0.52835 0.44513
 O52 O 1.02933 0.59185 0.44460
 O53 O 0.97289 0.40933 0.44529
 O54 O 0.89949 0.43886 0.46971
 O55 O 1.10284 0.56222 0.46890
 O56 O 1.06263 0.39932 0.46962
 O57 O 0.93953 0.60186 0.46906
 Co58 Co 1.08825 0.50064 0.49935
 Co59 Co 0.91402 0.50067 0.49968
 Co60 Co 1.00129 0.58779 0.49919
 Co61 Co 1.00101 0.41378 0.49977
 O62 O 1.00114 0.50073 0.49950
 C63 C 1.08542 0.42426 0.43964
 C64 C 0.91640 0.57657 0.43942
 C65 C 1.07776 0.58556 0.43918
 C66 C 0.92449 0.41573 0.43992
 O67 O 0.60119 0.06087 0.53046
 O68 O 0.39823 -0.06271 0.52930
 O69 O 0.43794 0.10039 0.53003
 O70 O 0.56133 -0.10218 0.52988
 O71 O 0.40796 0.02691 0.55395
 O72 O 0.59068 -0.02881 0.55452
 O73 O 0.47163 -0.09219 0.55385
 O74 O 0.52764 0.09033 0.55469
 C75 C 0.57604 0.08403 0.56017
 C76 C 0.42329 -0.08556 0.55922
 C77 C 0.41477 0.07516 0.55967
 C78 C 0.58424 -0.07716 0.55981
 O79 O 0.60124 -0.06224 0.46982
 O80 O 0.39844 0.06091 0.46942
 O81 O 0.56163 0.10075 0.47009
 O82 O 0.43814 -0.10220 0.46896
 O83 O 0.40856 -0.02872 0.44472
 O84 O 0.59127 0.02743 0.44565
 O85 O 0.52788 -0.09158 0.44508
 O86 O 0.47198 0.09086 0.44551
 Co87 Co 0.58678 -0.00070 0.50008
 Co88 Co 0.41258 -0.00089 0.49938
 Co89 Co 0.49979 0.08630 0.50006
 Co90 Co 0.49975 -0.08772 0.49947
 O91 O 0.49971 -0.00074 0.49974
 C92 C 0.57624 -0.08500 0.43983
 C93 C 0.42369 0.08409 0.43981
 C94 C 0.58474 0.07576 0.44028
 C95 C 0.41492 -0.07709 0.43921
 O96 O 0.59041 0.52835 0.05496
 O97 O 0.40780 0.47254 0.05514
 O98 O 0.47066 0.59185 0.05549
 O99 O 0.52709 0.40933 0.05480
 O100 O 0.39715 0.56222 0.03118
 O101 O 0.60049 0.43887 0.03037
 O102 O 0.43736 0.39932 0.03047
 O103 O 0.56045 0.60187 0.03103
 C104 C 0.58358 0.57658 0.06067
 C105 C 0.41457 0.42426 0.06045
 C106 C 0.42222 0.58556 0.06090
 C107 C 0.57549 0.41573 0.06017
 O108 O 0.59004 0.47298 -0.05423
 O109 O 0.40731 0.52873 -0.05366
 O110 O 0.52670 0.59242 -0.05365
 O111 O 0.47088 0.40986 -0.05414
 O112 O 0.39732 0.43907 -0.02969
 O113 O 0.60017 0.56254 -0.02949
 O114 O 0.56061 0.39948 -0.03001
 O115 O 0.43689 0.60205 -0.02916
 Co116 Co 0.58597 0.50068 0.00041
 Co117 Co 0.41174 0.50064 0.00073
 Co118 Co 0.49870 0.58779 0.00089
 Co119 Co 0.49897 0.41379 0.00032
 O120 O 0.49885 0.50074 0.00059
 C121 C 0.58366 0.42466 -0.05976
 C122 C 0.41405 0.57700 -0.05909
 C123 C 0.57503 0.58565 -0.05923
 C124 C 0.42247 0.41609 -0.05951
 C125 C 1.16005 0.15939 0.16584
 C126 C 1.18687 0.12437 0.13777
 C127 C 1.15920 0.09873 0.10411
 C128 C 1.21643 0.21632 0.22205
 C129 C 1.07722 0.14185 0.12729
 C130 C 1.10507 0.16759 0.16093
 C131 C 1.18997 0.18976 0.19731
 C132 C 1.10430 0.10796 0.09804
 H133 H 1.22945 0.11790 0.14122
 H134 H 1.18099 0.07255 0.08229
 H135 H 1.03491 0.14957 0.12345
 H136 H 1.08402 0.19484 0.18240
 C137 C 1.15988 0.66071 0.66540
 C138 C 1.12569 0.68765 0.63669
 C139 C 1.10051 0.66004 0.60276
 C140 C 1.21643 0.71683 0.72204
 C141 C 1.14246 0.57791 0.62693
 C142 C 1.16773 0.60569 0.66084
 C143 C 1.18997 0.69049 0.69715
 C144 C 1.10940 0.60509 0.59707
 H145 H 1.11954 0.73027 0.63985
 H146 H 1.07496 0.68191 0.58045
 H147 H 1.14988 0.53555 0.62341
 H148 H 1.19436 0.58455 0.68279
 C149 C 0.66013 0.16062 0.66536
 C150 C 0.60496 0.16805 0.66078
 C151 C 0.57708 0.14197 0.62727
 C152 C 0.71638 0.21764 0.72192
 C153 C 0.65936 0.10008 0.60342
 C154 C 0.68706 0.12607 0.63695
 C155 C 0.68998 0.19108 0.69701
 C156 C 0.60424 0.10844 0.59777
 H157 H 0.58374 0.19489 0.68246
 H158 H 0.53462 0.14908 0.62377
 H159 H 0.68128 0.07425 0.58140
 H160 H 0.72976 0.12014 0.64009
 C161 C 0.65894 0.66002 0.16626
 C162 C 0.62384 0.68687 0.13825
 C163 C 0.59813 0.65928 0.10459
 C164 C 0.71628 0.71626 0.22222
 C165 C 0.64133 0.57734 0.12771
 C166 C 0.66713 0.60510 0.16135
 C167 C 0.68952 0.68987 0.19761
 C168 C 0.60740 0.60446 0.09849
 H169 H 0.61740 0.72941 0.14171
 H170 H 0.57191 0.68110 0.08277
 H171 H 0.64905 0.53508 0.12384
 H172 H 0.69446 0.58405 0.18278
 C173 C 0.83955 -0.15987 0.16566
 C174 C 0.89468 -0.16743 0.16137
 C175 C 0.92263 -0.14181 0.12777
 C176 C 0.78334 -0.21674 0.22194
 C177 C 0.84043 -0.10006 0.10338
 C178 C 0.81265 -0.12560 0.13700
 C179 C 0.80966 -0.19019 0.19714
 C180 C 0.89551 -0.10867 0.09795
 H181 H 0.91580 -0.19410 0.18330
 H182 H 0.96509 -0.14903 0.12443
 H183 H 0.81859 -0.07447 0.08108
 H184 H 0.76994 -0.11964 0.13998
 C185 C 0.84042 0.34090 0.66535
 C186 C 0.83279 0.39596 0.66068
 C187 C 0.85867 0.42375 0.62706
 C188 C 0.78355 0.28475 0.72194
 C189 C 0.90075 0.34158 0.60330
 C190 C 0.87498 0.31396 0.63694
 C191 C 0.81006 0.31111 0.69704
 C192 C 0.89217 0.39659 0.59754
 H193 H 0.80593 0.41717 0.68237
 H194 H 0.85141 0.46614 0.62348
 H195 H 0.92658 0.31966 0.58127
 H196 H 0.88104 0.27133 0.64016
 C197 C 0.33953 -0.15973 0.66528
 C198 C 0.39463 -0.16742 0.66079
 C199 C 0.42241 -0.14209 0.62693
 C200 C 0.28346 -0.21620 0.72198
 C201 C 0.34012 -0.10043 0.60265
 C202 C 0.31251 -0.12566 0.63653
 C203 C 0.30977 -0.18979 0.69705
 C204 C 0.39517 -0.10913 0.59704
 H205 H 0.41585 -0.19394 0.68277
 H206 H 0.46484 -0.14937 0.62347
 H207 H 0.31819 -0.07497 0.58032
 H208 H 0.26983 -0.11963 0.63964
 C209 C 0.34023 0.33985 0.16595
 C210 C 0.33225 0.39487 0.16156
 C211 C 0.35771 0.42291 0.12793
 C212 C 0.28349 0.28333 0.22208
 C213 C 0.40014 0.34104 0.10375
 C214 C 0.37478 0.31317 0.13741
 C215 C 0.31001 0.30981 0.19738
 C216 C 0.39109 0.39599 0.09819
 H217 H 0.30536 0.41580 0.18340
 H218 H 0.35015 0.46526 0.12448
 H219 H 0.42594 0.31937 0.08153
 H220 H 0.38105 0.27056 0.14047
 C221 C 0.83986 0.16062 -0.16527
 C222 C 0.89503 0.16805 -0.16069
 C223 C 0.92291 0.14197 -0.12718
 C224 C 0.78361 0.21764 -0.22183
 C225 C 0.84063 0.10008 -0.10334
 C226 C 0.81292 0.12607 -0.13686
 C227 C 0.81000 0.19108 -0.19692
 C228 C 0.89575 0.10843 -0.09768
 H229 H 0.91625 0.19489 -0.18238
 H230 H 0.96537 0.14907 -0.12369
 H231 H 0.81870 0.07426 -0.08131
 H232 H 0.77022 0.12014 -0.14000
 C233 C 0.84105 0.66002 0.33383
 C234 C 0.83285 0.60510 0.33874
 C235 C 0.85866 0.57734 0.37237
 C236 C 0.78371 0.71626 0.27787
 C237 C 0.90185 0.65928 0.39550
 C238 C 0.87615 0.68687 0.36184
 C239 C 0.81047 0.68987 0.30248
 C240 C 0.89259 0.60446 0.40160
 H241 H 0.80553 0.58405 0.31731
 H242 H 0.85093 0.53508 0.37625
 H243 H 0.92808 0.68109 0.41732
 H244 H 0.88259 0.72941 0.35838
 C245 C 0.33993 0.15939 0.33425
 C246 C 0.39492 0.16759 0.33915
 C247 C 0.42277 0.14185 0.37279
 C248 C 0.28356 0.21632 0.27804
 C249 C 0.34079 0.09873 0.39598
 C250 C 0.31312 0.12437 0.36231
 C251 C 0.31002 0.18976 0.30277
 C252 C 0.39569 0.10796 0.40204
 H253 H 0.41597 0.19483 0.31769
 H254 H 0.46508 0.14956 0.37663
 H255 H 0.31899 0.07255 0.41780
 H256 H 0.27053 0.11791 0.35887
 C257 C 0.34010 0.66071 -0.16531
 C258 C 0.33225 0.60569 -0.16075
 C259 C 0.35753 0.57792 -0.12685
 C260 C 0.28355 0.71683 -0.22195
 C261 C 0.39948 0.66004 -0.10267
 C262 C 0.37430 0.68765 -0.13660
 C263 C 0.31002 0.69049 -0.19706
 C264 C 0.39059 0.60509 -0.09698
 H265 H 0.30562 0.58455 -0.18270
 H266 H 0.35010 0.53555 -0.12332
 H267 H 0.42503 0.68191 -0.08036
 H268 H 0.38045 0.73027 -0.13977
 C269 C 1.16046 -0.15973 -0.16520
 C270 C 1.18748 -0.12566 -0.13644
 C271 C 1.15986 -0.10043 -0.10256
 C272 C 1.21653 -0.21620 -0.22189
 C273 C 1.07758 -0.14209 -0.12684
 C274 C 1.10536 -0.16742 -0.16070
 C275 C 1.19022 -0.18979 -0.19696
 C276 C 1.10482 -0.10913 -0.09696
 H277 H 1.23016 -0.11963 -0.13955
 H278 H 1.18180 -0.07497 -0.08023
 H279 H 1.03514 -0.14938 -0.12338
 H280 H 1.08414 -0.19394 -0.18268
 C281 C 1.15976 0.33985 0.33414
 C282 C 1.16774 0.39486 0.33853
 C283 C 1.14228 0.42291 0.37216
 C284 C 1.21650 0.28333 0.27800
 C285 C 1.09985 0.34104 0.39633
 C286 C 1.12521 0.31317 0.36268
 C287 C 1.18998 0.30981 0.30271
 C288 C 1.10890 0.39599 0.40189
 H289 H 1.19463 0.41580 0.31669
 H290 H 1.14984 0.46526 0.37561
 H291 H 1.07405 0.31937 0.41855
 H292 H 1.11893 0.27055 0.35962
 C293 C 0.66044 -0.15987 0.33443
 C294 C 0.68734 -0.12560 0.36309
 C295 C 0.65956 -0.10006 0.39671
 C296 C 0.71665 -0.21674 0.27815
 C297 C 0.57736 -0.14181 0.37231
 C298 C 0.60530 -0.16743 0.33871
 C299 C 0.69032 -0.19019 0.30294
 C300 C 0.60448 -0.10867 0.40214
 H301 H 0.73005 -0.11964 0.36011
 H302 H 0.68140 -0.07447 0.41901
 H303 H 0.53490 -0.14903 0.37566
 H304 H 0.58419 -0.19409 0.31679
 C305 C 0.65957 0.34090 -0.16526
 C306 C 0.62501 0.31396 -0.13685
 C307 C 0.59924 0.34158 -0.10321
 C308 C 0.71644 0.28475 -0.22185
 C309 C 0.64132 0.42376 -0.12697
 C310 C 0.66720 0.39597 -0.16059
 C311 C 0.68993 0.31111 -0.19695
 C312 C 0.60781 0.39659 -0.09745
 H313 H 0.61895 0.27133 -0.14006
 H314 H 0.57341 0.31966 -0.08118
 H315 H 0.64858 0.46614 -0.12339
 H316 H 0.69405 0.41717 -0.18228
 C317 C 1.15976 0.15896 -0.16557
 C318 C 1.16821 0.10406 -0.16060
 C319 C 1.14276 0.07620 -0.12682
 C320 C 1.21634 0.21542 -0.22203
 C321 C 1.09948 0.15799 -0.10355
 C322 C 1.12481 0.18566 -0.13735
 C323 C 1.18989 0.18894 -0.19722
 C324 C 1.10892 0.10317 -0.09745
 H325 H 1.19541 0.08308 -0.18215
 H326 H 1.15065 0.03396 -0.12297
 H327 H 1.07334 0.17972 -0.08165
 H328 H 1.11816 0.22818 -0.14081
 C329 C 1.16189 0.66204 0.33370
 C330 C 1.10669 0.66929 0.33823
 C331 C 1.07885 0.64334 0.37186
 C332 C 1.21813 0.71889 0.27679
 C333 C 1.16122 0.60195 0.39605
 C334 C 1.18889 0.62781 0.36240
 C335 C 1.19171 0.69235 0.30181
 C336 C 1.10604 0.61006 0.40158
 H337 H 1.08536 0.69588 0.31638
 H338 H 1.03635 0.65030 0.37522
 H339 H 1.18322 0.57635 0.41822
 H340 H 1.23161 0.62201 0.35938
 C341 C 0.65996 0.15991 0.33477
 C342 C 0.62555 0.18674 0.36335
 C343 C 0.60001 0.15901 0.39703
 C344 C 0.71654 0.21619 0.27816
 C345 C 0.64205 0.07694 0.37293
 C346 C 0.66769 0.10485 0.33927
 C347 C 0.69012 0.18980 0.30308
 C348 C 0.60870 0.10400 0.40263
 H349 H 0.61943 0.22938 0.36025
 H350 H 0.57427 0.18082 0.41921
 H351 H 0.64937 0.03455 0.37639
 H352 H 0.69445 0.08375 0.31744
 C353 C 0.65945 0.65969 -0.16525
 C354 C 0.60449 0.66827 -0.16042
 C355 C 0.57644 0.64304 -0.12661
 C356 C 0.71627 0.71572 -0.22193
 C357 C 0.65813 0.59971 -0.10301
 C358 C 0.68599 0.62483 -0.13683
 C359 C 0.68963 0.68951 -0.19702
 C360 C 0.60325 0.60925 -0.09708
 H361 H 0.58360 0.69539 -0.18211
 H362 H 0.53416 0.65101 -0.12290
 H363 H 0.67976 0.57362 -0.08099
 H364 H 0.72854 0.61806 -0.14016
 C365 C 0.84030 -0.16118 -0.16524
 C366 C 0.83286 -0.10607 -0.16086
 C367 C 0.85862 -0.07821 -0.12722
 C368 C 0.78347 -0.21732 -0.22182
 C369 C 0.90022 -0.16043 -0.10290
 C370 C 0.87456 -0.18812 -0.13657
 C371 C 0.80998 -0.19098 -0.19691
 C372 C 0.89179 -0.10536 -0.09741
 H373 H 0.80623 -0.08488 -0.18278
 H374 H 0.85150 -0.03578 -0.12384
 H375 H 0.92581 -0.18232 -0.08063
 H376 H 0.88044 -0.23079 -0.13959
 C377 C 0.84011 0.33999 0.33461
 C378 C 0.89524 0.33236 0.33910
 C379 C 0.92323 0.35816 0.37268
 C380 C 0.78366 0.28325 0.27809
 C381 C 0.84109 0.40016 0.39675
 C382 C 0.81328 0.37446 0.36315
 C383 C 0.81014 0.30972 0.30296
 C384 C 0.89618 0.39158 0.40232
 H385 H 0.91636 0.30556 0.31730
 H386 H 0.96567 0.35091 0.37612
 H387 H 0.81927 0.42594 0.41888
 H388 H 0.77060 0.38052 0.36007
 C389 C 0.33882 -0.16107 0.33351
 C390 C 0.33128 -0.10597 0.33816
 C391 C 0.35715 -0.07815 0.37185
 C392 C 0.28191 -0.21738 0.27671
 C393 C 0.39904 -0.16032 0.39580
 C394 C 0.37327 -0.18797 0.36209
 C395 C 0.30849 -0.19092 0.30167
 C396 C 0.39061 -0.10526 0.40150
 H397 H 0.30451 -0.08474 0.31639
 H398 H 0.34996 -0.03574 0.37536
 H399 H 0.42479 -0.18225 0.41791
 H400 H 0.37928 -0.23061 0.35895
 C401 C 0.33899 0.33970 -0.16496
 C402 C 0.31169 0.37364 -0.13628
 C403 C 0.33917 0.39959 -0.10262
 C404 C 0.28336 0.28255 -0.22172
 C405 C 0.42187 0.35890 -0.12693
 C406 C 0.39423 0.33286 -0.16056
 C407 C 0.30947 0.30919 -0.19672
 C408 C 0.39438 0.39179 -0.09714
 H409 H 0.26892 0.37907 -0.13931
 H410 H 0.31701 0.42493 -0.08037
 H411 H 0.46442 0.35225 -0.12357
 H412 H 0.41571 0.30650 -0.18247
 C413 C 1.16116 -0.16107 0.16658
 C414 C 1.12672 -0.18797 0.13799
 C415 C 1.10095 -0.16032 0.10429
 C416 C 1.21808 -0.21739 0.22338
 C417 C 1.14283 -0.07815 0.12823
 C418 C 1.16870 -0.10597 0.16193
 C419 C 1.19149 -0.19092 0.19842
 C420 C 1.10938 -0.10526 0.09859
 H421 H 1.12071 -0.23062 0.14113
 H422 H 1.07520 -0.18225 0.08217
 H423 H 1.15002 -0.03574 0.12473
 H424 H 1.19547 -0.08474 0.18370
 C425 C 1.16100 0.33970 0.66505
 C426 C 1.10576 0.33286 0.66064
 C427 C 1.07812 0.35890 0.62701
 C428 C 1.21663 0.28255 0.72181
 C429 C 1.16082 0.39959 0.60271
 C430 C 1.18829 0.37363 0.63637
 C431 C 1.19051 0.30919 0.69681
 C432 C 1.10560 0.39179 0.59723
 H433 H 1.08428 0.30649 0.68255
 H434 H 1.03557 0.35225 0.62365
 H435 H 1.18297 0.42492 0.58046
 H436 H 1.23107 0.37907 0.63939
 C437 C 0.65969 -0.16117 0.66533
 C438 C 0.66712 -0.10607 0.66095
 C439 C 0.64137 -0.07821 0.62730
 C440 C 0.71652 -0.21732 0.72191
 C441 C 0.59977 -0.16043 0.60298
 C442 C 0.62543 -0.18812 0.63665
 C443 C 0.69001 -0.19098 0.69700
 C444 C 0.60819 -0.10536 0.59750
 H445 H 0.69376 -0.08488 0.68287
 H446 H 0.64848 -0.03577 0.62393
 H447 H 0.57418 -0.18231 0.58072
 H448 H 0.61955 -0.23079 0.63967
 C449 C 0.65988 0.33999 0.16548
 C450 C 0.68670 0.37447 0.13694
 C451 C 0.65889 0.40016 0.10334
 C452 C 0.71633 0.28325 0.22199
 C453 C 0.57676 0.35815 0.12740
 C454 C 0.60474 0.33236 0.16099
 C455 C 0.68985 0.30972 0.19712
 C456 C 0.60380 0.39158 0.09776
 H457 H 0.72939 0.38052 0.14002
 H458 H 0.68071 0.42594 0.08121
 H459 H 0.53431 0.35090 0.12397
 H460 H 0.58363 0.30556 0.18278
 C461 C 0.84003 0.15991 0.16532
 C462 C 0.87444 0.18674 0.13673
 C463 C 0.89998 0.15901 0.10305
 C464 C 0.78345 0.21619 0.22192
 C465 C 0.85793 0.07694 0.12715
 C466 C 0.83230 0.10485 0.16081
 C467 C 0.80986 0.18980 0.19701
 C468 C 0.89129 0.10400 0.09746
 H469 H 0.88056 0.22938 0.13983
 H470 H 0.92572 0.18082 0.08088
 H471 H 0.85061 0.03455 0.12370
 H472 H 0.80554 0.08375 0.18265
 C473 C 0.84054 0.65969 0.66534
 C474 C 0.81399 0.62483 0.63692
 C475 C 0.84186 0.59971 0.60310
 C476 C 0.78372 0.71572 0.72201
 C477 C 0.92355 0.64303 0.62670
 C478 C 0.89549 0.66827 0.66051
 C479 C 0.81036 0.68951 0.69710
 C480 C 0.89673 0.60925 0.59716
 H481 H 0.77145 0.61806 0.64025
 H482 H 0.82022 0.57362 0.58107
 H483 H 0.96582 0.65101 0.62299
 H484 H 0.91638 0.69539 0.68220
 C485 C 0.34023 0.15896 0.66565
 C486 C 0.37517 0.18566 0.63744
 C487 C 0.40051 0.15799 0.60363
 C488 C 0.28365 0.21542 0.72212
 C489 C 0.35723 0.07620 0.62690
 C490 C 0.33179 0.10406 0.66069
 C491 C 0.31010 0.18894 0.69731
 C492 C 0.39107 0.10318 0.59754
 H493 H 0.38183 0.22818 0.64089
 H494 H 0.42665 0.17972 0.58173
 H495 H 0.34934 0.03396 0.62306
 H496 H 0.30459 0.08308 0.68224
 C497 C 0.33809 0.66204 0.16638
 C498 C 0.39330 0.66929 0.16186
 C499 C 0.42114 0.64334 0.12823
 C500 C 0.28185 0.71889 0.22330
 C501 C 0.33877 0.60195 0.10404
 C502 C 0.31110 0.62781 0.13768
 C503 C 0.30827 0.69235 0.19828
 C504 C 0.39395 0.61006 0.09850
 H505 H 0.41462 0.69588 0.18371
 H506 H 0.46363 0.65030 0.12487
 H507 H 0.31676 0.57636 0.08186
 H508 H 0.26837 0.62201 0.14070
   
