data_POSCAR
  _audit_creation_date              2014-09-24
  _audit_creation_method            'ToBaCCo'
  _symmetry_space_group_name_H-M    'P1'
  _symmetry_Int_Tables_number       1
  _symmetry_cell_setting            triclinic
  loop_
  _symmetry_equiv_pos_as_xyz
 x,y,z
_cell_length_a 35.6024
_cell_length_b 34.3109
_cell_length_c 35.5850
_cell_angle_alpha 91.827500
_cell_angle_beta 85.868900
_cell_angle_gamma 87.311000
loop_
  _atom_site_label
  _atom_site_type_symbol
  _atom_site_fract_x
  _atom_site_fract_y
  _atom_site_fract_z
N1 N 0.58101 0.68832 0.61778
 N2 N 0.56682 0.66900 0.64634
 C3 C 0.53397 0.68695 0.65990
 C4 C 0.52701 0.71892 0.63828
 C5 C 0.55729 0.71881 0.61169
 H6 H 0.51611 0.67704 0.68319
 H7 H 0.56189 0.73968 0.58989
 Cu8 Cu 0.59143 0.62121 0.66211
 Cu9 Cu 0.62962 0.67306 0.59152
 Cu10 Cu 0.67994 0.59580 0.62766
 N11 N 0.62221 0.58204 0.68550
 N12 N 0.65719 0.57301 0.67275
 C13 C 0.67208 0.54587 0.69464
 C14 C 0.64469 0.53713 0.72243
 C15 C 0.61340 0.56064 0.71562
 H16 H 0.70040 0.53301 0.69004
 H17 H 0.58633 0.56227 0.73164
 N18 N 0.69794 0.62278 0.58222
 N19 N 0.67931 0.65301 0.56914
 C20 C 0.69905 0.66549 0.53849
 C21 C 0.73135 0.64163 0.53175
 C22 C 0.72966 0.61476 0.55982
 H23 H 0.69012 0.68942 0.52164
 H24 H 0.75015 0.59120 0.56358
 H25 H 0.63140 0.61440 0.60339
 H26 H 0.64999 0.64855 0.63884
 N27 N 0.91077 0.29348 0.09944
 N28 N 0.92360 0.30757 0.13053
 C29 C 0.95542 0.28719 0.13742
 C30 C 0.96342 0.25920 0.10869
 C31 C 0.93449 0.26422 0.08489
 H32 H 0.97163 0.29247 0.16150
 H33 H 0.93008 0.24708 0.05971
 Cu34 Cu 0.89779 0.35100 0.15976
 Cu35 Cu 0.86245 0.31209 0.08297
 Cu36 Cu 0.82636 0.39998 0.11595
 N37 N 0.87561 0.40252 0.17767
 N38 N 0.84800 0.42088 0.16143
 C39 C 0.83808 0.45442 0.18109
 C40 C 0.86099 0.45756 0.21067
 C41 C 0.88462 0.42437 0.20752
 H42 H 0.81605 0.47522 0.17431
 H43 H 0.90629 0.41644 0.22606
 N44 N 0.80860 0.37407 0.07156
 N45 N 0.82155 0.33903 0.05956
 C46 C 0.80226 0.32733 0.03038
 C47 C 0.77596 0.35680 0.02365
 C48 C 0.78092 0.38608 0.05016
 H49 H 0.80712 0.29958 0.01514
 H50 H 0.76475 0.41356 0.05427
 H51 H 0.88032 0.37341 0.11083
 H52 H 0.84341 0.35043 0.14138
 N53 N 0.42641 0.19948 -0.12136
 N54 N 0.44158 0.18241 -0.15280
 C55 C 0.47135 0.20236 -0.16548
 C56 C 0.47522 0.23325 -0.14036
 C57 C 0.44638 0.23043 -0.11261
 H58 H 0.48928 0.19468 -0.19070
 H59 H 0.44014 0.24982 -0.08817
 Cu60 Cu 0.42161 0.13513 -0.17340
 Cu61 Cu 0.38126 0.18104 -0.09481
 Cu62 Cu 0.34376 0.09806 -0.13225
 N63 N 0.40020 0.08873 -0.19418
 N64 N 0.36915 0.07502 -0.17859
 C65 C 0.35988 0.04374 -0.19915
 C66 C 0.38687 0.03722 -0.22887
 C67 C 0.41205 0.06629 -0.22488
 H68 H 0.33563 0.02665 -0.19272
 H69 H 0.43677 0.07105 -0.24331
 N70 N 0.32217 0.12563 -0.08561
 N71 N 0.33576 0.15792 -0.07207
 C72 C 0.31433 0.17042 -0.04088
 C73 C 0.28626 0.14449 -0.03426
 C74 C 0.29217 0.11635 -0.06297
 H75 H 0.31924 0.19599 -0.02372
 H76 H 0.27554 0.09121 -0.06712
 H77 H 0.39031 0.12299 -0.11193
 H78 H 0.36042 0.15411 -0.14126
 N79 N 0.07713 0.81308 0.40752
 N80 N 0.06359 0.82355 0.37575
 C81 C 0.03692 0.79896 0.36686
 C82 C 0.03309 0.77204 0.39491
 C83 C 0.05906 0.78202 0.42035
 H84 H 0.02103 0.80073 0.34214
 H85 H 0.06515 0.76736 0.44581
 Cu86 Cu 0.08133 0.86915 0.34998
 Cu87 Cu 0.11857 0.83910 0.42884
 Cu88 Cu 0.15198 0.91926 0.38235
 N89 N 0.09959 0.91484 0.32475
 N90 N 0.12806 0.93350 0.33687
 C91 C 0.13578 0.96296 0.31390
 C92 C 0.11041 0.96317 0.28630
 C93 C 0.08780 0.93229 0.29401
 H94 H 0.15776 0.98321 0.31735
 H95 H 0.06487 0.92297 0.27810
 N96 N 0.17244 0.90030 0.42883
 N97 N 0.16036 0.86918 0.44595
 C98 C 0.18106 0.86249 0.47551
 C99 C 0.20694 0.89108 0.47743
 C100 C 0.20070 0.91463 0.44748
 H101 H 0.17767 0.83862 0.49438
 H102 H 0.21632 0.93965 0.43932
 H103 H 0.10609 0.89336 0.40797
 H104 H 0.14106 0.86066 0.37894
 N105 N 0.13313 0.11468 0.12867
 N106 N 0.35937 0.87050 0.62308
 N107 N 0.88992 0.61271 0.36925
 N108 N 0.61958 0.39426 -0.11523
 C109 C 0.04464 0.19991 0.13411
 C110 C 0.05276 0.17600 0.10155
 N111 N 0.03111 0.17997 0.07193
 C112 C 0.00157 0.20674 0.07334
 C113 C -0.00643 0.23127 0.10577
 N114 N 0.01564 0.22714 0.13529
 N115 N 0.06548 0.19509 0.16426
 C116 C 0.09414 0.16737 0.16330
 C117 C 0.10273 0.14379 0.13052
 N118 N 0.08184 0.14881 0.10029
 H119 H -0.01497 0.20901 0.04912
 H120 H 0.11043 0.16401 0.18762
 C121 C 0.45296 0.79120 0.61339
 C122 C 0.43272 0.79907 0.64836
 N123 N 0.44335 0.78042 0.67923
 C124 C 0.47336 0.75421 0.67677
 C125 C 0.49410 0.74674 0.64194
 N126 N 0.48335 0.76558 0.61106
 N127 N 0.44170 0.80903 0.58230
 C128 C 0.41111 0.83448 0.58460
 C129 C 0.39118 0.84295 0.61967
 N130 N 0.40260 0.82503 0.65080
 H131 H 0.48127 0.73985 0.70186
 H132 H 0.40271 0.84849 0.55949
 C133 C 0.96451 0.70358 0.36613
 C134 C 0.95902 0.68172 0.39854
 N135 N 0.97850 0.68979 0.42900
 C136 C 1.00325 0.71881 0.42863
 C137 C 1.00836 0.74145 0.39643
 N138 N 0.98860 0.73310 0.36598
 N139 N 0.94592 0.69472 0.33521
 C140 C 0.92196 0.66497 0.33530
 C141 C 0.91583 0.64354 0.36799
 N142 N 0.93453 0.65256 0.39893
 H143 H 1.01810 0.72437 0.45355
 H144 H 0.90733 0.65848 0.31040
 C145 C 0.53896 0.30904 -0.11061
 C146 C 0.55712 0.31860 -0.14519
 N147 N 0.54861 0.29987 -0.17742
 C148 C 0.52268 0.27198 -0.17669
 C149 C 0.50397 0.26276 -0.14220
 N150 N 0.51260 0.28168 -0.10994
 N151 N 0.54810 0.32713 -0.07827
 C152 C 0.57458 0.35446 -0.07895
 C153 C 0.59239 0.36456 -0.11358
 N154 N 0.58307 0.34635 -0.14595
 H155 H 0.51633 0.25769 -0.20286
 H156 H 0.58127 0.36869 -0.05285
 C157 C 0.13870 0.03492 0.21511
 C158 C 0.10468 0.04302 0.19860
 N159 N 0.07336 0.02453 0.21056
 C160 C 0.07446 -0.00169 0.23838
 C161 C 0.10832 -0.00936 0.25546
 N162 N 0.13966 0.00930 0.24335
 N163 N 0.17025 0.05267 0.20250
 C164 C 0.16932 0.07826 0.17413
 C165 C 0.13516 0.08693 0.15797
 N166 N 0.10356 0.06910 0.17075
 H167 H 0.04901 -0.01583 0.24748
 H168 H 0.19476 0.09221 0.16464
 C169 C 0.61585 0.47660 -0.19948
 C170 C 0.64996 0.45689 -0.19263
 N171 N 0.68179 0.46399 -0.21412
 C172 C 0.68112 0.48991 -0.24225
 C173 C 0.64700 0.51015 -0.24901
 N174 N 0.61525 0.50286 -0.22715
 N175 N 0.58377 0.46882 -0.17871
 C176 C 0.58425 0.44209 -0.15134
 C177 C 0.61842 0.42256 -0.14409
 N178 N 0.65058 0.43059 -0.16492
 H179 H 0.70710 0.49475 -0.25871
 H180 H 0.55835 0.43636 -0.13509
 C181 C 0.35602 0.95983 0.70664
 C182 C 0.39013 0.94737 0.68668
 N183 N 0.42238 0.96459 0.69435
 C184 C 0.42213 0.99379 0.72112
 C185 C 0.38811 1.00604 0.74157
 N186 N 0.35582 0.98858 0.73380
 N187 N 0.32364 0.94313 0.69840
 C188 C 0.32383 0.91445 0.67109
 C189 C 0.35804 0.90149 0.65138
 N190 N 0.39043 0.91834 0.65985
 H191 H 0.44833 1.00682 0.72674
 H192 H 0.29769 0.90141 0.66520
 C193 C 0.89253 0.52593 0.28347
 C194 C 0.85870 0.54677 0.29555
 N195 N 0.82654 0.53873 0.27920
 C196 C 0.82659 0.51064 0.25135
 C197 C 0.86022 0.48906 0.23980
 N198 N 0.89244 0.49728 0.25627
 N199 N 0.92491 0.53476 0.29909
 C200 C 0.92495 0.56340 0.32642
 C201 C 0.89098 0.58362 0.33920
 N202 N 0.85858 0.57474 0.32341
 H203 H 0.80049 0.50467 0.23897
 H204 H 0.95101 0.56983 0.33866
 C205 C 0.21485 0.11204 0.03763
 C206 C 0.20218 0.14752 0.05608
 N207 N 0.21721 0.18124 0.04484
 C208 C 0.24444 0.18113 0.01600
 C209 C 0.25689 0.14572 -0.00286
 N210 N 0.24159 0.11198 0.00843
 N211 N 0.20057 0.07819 0.04955
 C212 C 0.17418 0.07820 0.07915
 C213 C 0.16111 0.11372 0.09742
 N214 N 0.17541 0.14761 0.08524
 H215 H 0.25584 0.20848 0.00759
 H216 H 0.16315 0.05088 0.08814
 C217 C 0.80803 0.61006 0.45965
 C218 C 0.81544 0.64518 0.44197
 N219 N 0.79520 0.67839 0.45374
 C220 C 0.76781 0.67811 0.48241
 C221 C 0.76065 0.64311 0.50053
 N222 N 0.78114 0.60990 0.48868
 N223 N 0.82747 0.57661 0.44717
 C224 C 0.85403 0.57666 0.41774
 C225 C 0.86189 0.61184 0.40027
 N226 N 0.84240 0.64537 0.41299
 H227 H 0.75216 0.70503 0.49127
 H228 H 0.86921 0.54965 0.40829
 C229 C 0.70443 0.39291 -0.03940
 C230 C 0.69280 0.35798 -0.05542
 N231 N 0.70907 0.32341 -0.04607
 C232 C 0.73640 0.32213 -0.02126
 C233 C 0.74762 0.35701 -0.00457
 N234 N 0.73124 0.39162 -0.01415
 N235 N 0.68860 0.42753 -0.04923
 C236 C 0.66151 0.42881 -0.07428
 C237 C 0.64927 0.39386 -0.08987
 N238 N 0.66532 0.35920 -0.07994
 H239 H 0.74859 0.29410 -0.01412
 H240 H 0.64908 0.45675 -0.08142
 C241 C 0.27487 0.86346 0.54737
 C242 C 0.29054 0.89929 0.55550
 N243 N 0.27878 0.93173 0.53795
 C244 C 0.25205 0.92999 0.51256
 C245 C 0.23598 0.89424 0.50468
 N246 N 0.24780 0.86183 0.52248
 N247 N 0.28733 0.83079 0.56411
 C248 C 0.31483 0.83230 0.58864
 C249 C 0.33028 0.86818 0.59721
 N250 N 0.31761 0.90093 0.58043
 H251 H 0.24316 0.95634 0.49907
 H252 H 0.32434 0.80590 0.60168
   
