data_POSCAR
  _audit_creation_date              2014-09-24
  _audit_creation_method            'ToBaCCo'
  _symmetry_space_group_name_H-M    'P1'
  _symmetry_Int_Tables_number       1
  _symmetry_cell_setting            triclinic
  loop_
  _symmetry_equiv_pos_as_xyz
 x,y,z
_cell_length_a 48.7243
_cell_length_b 47.9594
_cell_length_c 48.7822
_cell_angle_alpha 89.951700
_cell_angle_beta 90.010000
_cell_angle_gamma 90.027200
loop_
  _atom_site_label
  _atom_site_type_symbol
  _atom_site_fract_x
  _atom_site_fract_y
  _atom_site_fract_z
N1 N 0.59432 0.66952 0.61277
 N2 N 0.58396 0.65848 0.63520
 C3 C 0.56168 0.67323 0.64277
 C4 C 0.55809 0.69447 0.62408
 C5 C 0.57902 0.69164 0.60531
 H6 H 0.54900 0.66891 0.66047
 H7 H 0.58281 0.70468 0.58761
 Cu8 Cu 0.60059 0.62593 0.65227
 Cu9 Cu 0.62681 0.65443 0.59493
 Cu10 Cu 0.65625 0.59578 0.62432
 N11 N 0.61698 0.59265 0.66816
 N12 N 0.63878 0.58097 0.65713
 C13 C 0.64588 0.55843 0.67201
 C14 C 0.62752 0.55603 0.69335
 C15 C 0.60944 0.57791 0.69046
 H16 H 0.66305 0.54484 0.66763
 H17 H 0.59216 0.58265 0.70357
 N18 N 0.67095 0.61380 0.59111
 N19 N 0.65973 0.63615 0.57991
 C20 C 0.67441 0.64348 0.55762
 C21 C 0.69571 0.62485 0.55483
 C22 C 0.69306 0.60632 0.57623
 H23 H 0.67002 0.66103 0.54441
 H24 H 0.70628 0.58876 0.58059
 H25 H 0.62123 0.61391 0.60832
 H26 H 0.64394 0.63667 0.62954
 N27 N 0.90661 0.32978 0.11238
 N28 N 0.91699 0.34080 0.13481
 C29 C 0.93927 0.32604 0.14241
 C30 C 0.94280 0.30482 0.12373
 C31 C 0.92188 0.30764 0.10494
 H32 H 0.95194 0.33035 0.16011
 H33 H 0.91805 0.29462 0.08725
 Cu34 Cu 0.90040 0.37336 0.15183
 Cu35 Cu 0.87413 0.34491 0.09453
 Cu36 Cu 0.84476 0.40359 0.12383
 N37 N 0.88405 0.40666 0.16766
 N38 N 0.86227 0.41837 0.15662
 C39 C 0.85521 0.44090 0.17147
 C40 C 0.87355 0.44331 0.19282
 C41 C 0.89160 0.42140 0.18994
 H42 H 0.83806 0.45451 0.16709
 H43 H 0.90886 0.41665 0.20306
 N44 N 0.83002 0.38559 0.09066
 N45 N 0.84121 0.36322 0.07949
 C46 C 0.82651 0.35592 0.05722
 C47 C 0.80523 0.37458 0.05440
 C48 C 0.80792 0.39310 0.07577
 H49 H 0.83087 0.33837 0.04403
 H50 H 0.79473 0.41067 0.08011
 H51 H 0.87976 0.38542 0.10787
 H52 H 0.85704 0.36269 0.12912
 N53 N 0.40634 0.16962 -0.11239
 N54 N 0.41701 0.15827 -0.13450
 C55 C 0.43930 0.17304 -0.14210
 C56 C 0.44257 0.19461 -0.12375
 C57 C 0.42145 0.19196 -0.10517
 H58 H 0.45218 0.16852 -0.15959
 H59 H 0.41739 0.20527 -0.08775
 Cu60 Cu 0.40068 0.12534 -0.15110
 Cu61 Cu 0.37369 0.15466 -0.09466
 Cu62 Cu 0.34424 0.09594 -0.12397
 N63 N 0.38400 0.09240 -0.16735
 N64 N 0.36189 0.08102 -0.15662
 C65 C 0.35461 0.05867 -0.17167
 C66 C 0.37316 0.05606 -0.19281
 C67 C 0.39154 0.07765 -0.18962
 H68 H 0.33719 0.04534 -0.16755
 H69 H 0.40902 0.08219 -0.20253
 N70 N 0.32941 0.11410 -0.09091
 N71 N 0.34063 0.13646 -0.07975
 C72 C 0.32586 0.14385 -0.05755
 C73 C 0.30452 0.12525 -0.05478
 C74 C 0.30723 0.10667 -0.07610
 H75 H 0.33025 0.16141 -0.04437
 H76 H 0.29400 0.08911 -0.08043
 H77 H 0.37904 0.11394 -0.10743
 H78 H 0.35702 0.13667 -0.12938
 N79 N 0.09255 0.83038 0.38805
 N80 N 0.08153 0.84211 0.36627
 C81 C 0.05926 0.82734 0.35864
 C82 C 0.05639 0.80539 0.37665
 C83 C 0.07770 0.80778 0.39506
 H84 H 0.04616 0.83213 0.34137
 H85 H 0.08207 0.79416 0.41220
 Cu86 Cu 0.09737 0.87551 0.35002
 Cu87 Cu 0.12529 0.84524 0.40566
 Cu88 Cu 0.15462 0.90407 0.37646
 N89 N 0.11443 0.90815 0.33353
 N90 N 0.13683 0.91920 0.34397
 C91 C 0.14429 0.94138 0.32875
 C92 C 0.12556 0.94423 0.30778
 C93 C 0.10689 0.92294 0.31127
 H94 H 0.16197 0.95445 0.33262
 H95 H 0.08922 0.91862 0.29854
 N96 N 0.16960 0.88573 0.40938
 N97 N 0.15842 0.86331 0.42050
 C98 C 0.17326 0.85581 0.44263
 C99 C 0.19461 0.87440 0.44540
 C100 C 0.19183 0.89309 0.42415
 H101 H 0.16890 0.83821 0.45579
 H102 H 0.20501 0.91070 0.41985
 H103 H 0.11997 0.88615 0.39341
 H104 H 0.14135 0.86353 0.37075
 C105 C 0.10375 0.14564 0.12514
 C106 C 0.10397 0.12522 0.14569
 C107 C 0.12451 0.10480 0.14595
 C108 C 0.14484 0.10479 0.12564
 C109 C 0.14463 0.12520 0.10508
 C110 C 0.12408 0.14563 0.10484
 H111 H 0.08823 0.12523 0.16141
 H112 H 0.16075 0.08898 0.12583
 H113 H 0.12391 0.16143 0.08892
 C114 C 0.39566 0.85439 0.62521
 C115 C 0.39540 0.87484 0.64569
 C116 C 0.37478 0.89519 0.64591
 C117 C 0.35442 0.89508 0.62564
 C118 C 0.35467 0.87462 0.60515
 C119 C 0.37529 0.85428 0.60494
 H120 H 0.41117 0.87493 0.66139
 H121 H 0.33845 0.91083 0.62580
 H122 H 0.37549 0.83844 0.58908
 C123 C 0.89623 0.64524 0.37463
 C124 C 0.89601 0.62482 0.35411
 C125 C 0.87546 0.60438 0.35390
 C126 C 0.85513 0.60437 0.37420
 C127 C 0.85534 0.62479 0.39471
 C128 C 0.87590 0.64522 0.39492
 H129 H 0.91175 0.62483 0.33839
 H130 H 0.83921 0.58855 0.37403
 H131 H 0.87607 0.66104 0.41081
 C132 C 0.60457 0.35514 -0.12578
 C133 C 0.60486 0.37557 -0.14632
 C134 C 0.62550 0.39592 -0.14657
 C135 C 0.64585 0.39583 -0.12628
 C136 C 0.64556 0.37540 -0.10574
 C137 C 0.62492 0.35506 -0.10549
 H138 H 0.58910 0.37564 -0.16203
 H139 H 0.66183 0.41158 -0.12647
 H140 H 0.62469 0.33925 -0.08958
 C141 C 0.04359 0.20524 0.12451
 C142 C 0.02447 0.20657 0.14632
 C143 C 0.00357 0.22724 0.14615
 C144 C 0.00191 0.24646 0.12415
 C145 C 0.02103 0.24512 0.10233
 C146 C 0.04194 0.22446 0.10252
 C147 C 0.06082 0.22354 0.08049
 C148 C 0.05910 0.24250 0.05889
 C149 C 0.03866 0.26270 0.05871
 C150 C 0.01978 0.26409 0.08012
 C151 C -0.01530 0.22816 0.16819
 C152 C -0.01358 0.20920 0.18978
 C153 C 0.00684 0.18898 0.18994
 C154 C 0.02571 0.18758 0.16852
 C155 C -0.01945 0.26757 0.12397
 C156 C -0.03720 0.28509 0.12385
 C157 C 0.06494 0.18413 0.12470
 C158 C 0.08265 0.16659 0.12488
 H159 H 0.07709 0.20821 0.07971
 H160 H 0.07371 0.24150 0.04221
 H161 H 0.03740 0.27737 0.04188
 H162 H 0.00425 0.28018 0.07906
 H163 H -0.03156 0.24351 0.16898
 H164 H -0.02819 0.21020 0.20647
 H165 H 0.00809 0.17429 0.20676
 H166 H 0.04123 0.17148 0.16957
 C167 C 0.45600 0.79498 0.62467
 C168 C 0.47717 0.79585 0.64454
 C169 C 0.49812 0.77523 0.64441
 C170 C 0.49777 0.75386 0.62439
 C171 C 0.47661 0.75300 0.60451
 C172 C 0.45566 0.77363 0.60465
 C173 C 0.43472 0.77234 0.58458
 C174 C 0.43447 0.75127 0.56492
 C175 C 0.45495 0.73111 0.56478
 C176 C 0.47582 0.73186 0.58430
 C177 C 0.51906 0.77653 0.66448
 C178 C 0.51930 0.79761 0.68413
 C179 C 0.49883 0.81778 0.68426
 C180 C 0.47795 0.81701 0.66475
 C181 C 0.51916 0.73277 0.62426
 C182 C 0.53693 0.71528 0.62417
 C183 C 0.43460 0.81603 0.62484
 C184 C 0.41683 0.83352 0.62500
 H185 H 0.41834 0.78755 0.58384
 H186 H 0.41830 0.75060 0.54971
 H187 H 0.45466 0.71479 0.54947
 H188 H 0.49130 0.71571 0.58335
 H189 H 0.53543 0.76132 0.66522
 H190 H 0.53548 0.79829 0.69933
 H191 H 0.49911 0.83411 0.69956
 H192 H 0.46248 0.83317 0.66569
 C193 C 0.95623 0.70507 0.37533
 C194 C 0.97671 0.70522 0.35475
 C195 C 0.99750 0.72602 0.35500
 C196 C 0.99770 0.74655 0.37585
 C197 C 0.97722 0.74639 0.39645
 C198 C 0.95642 0.72558 0.39619
 C199 C 0.93617 0.72585 0.41699
 C200 C 0.93644 0.74609 0.43746
 C201 C 0.95677 0.76643 0.43772
 C202 C 0.97698 0.76668 0.41751
 C203 C 1.01775 0.72575 0.33420
 C204 C 1.01747 0.70550 0.31373
 C205 C 0.99715 0.68515 0.31348
 C206 C 0.97695 0.68491 0.33370
 C207 C 1.01893 0.76781 0.37612
 C208 C 1.03655 0.78547 0.37636
 C209 C 0.93498 0.68384 0.37506
 C210 C 0.91732 0.66623 0.37485
 H211 H 0.91993 0.71046 0.41766
 H212 H 0.92079 0.74599 0.45321
 H213 H 0.95690 0.78210 0.45367
 H214 H 0.99236 0.78292 0.41858
 H215 H 1.03398 0.74114 0.33352
 H216 H 1.03311 0.70560 0.29797
 H217 H 0.99702 0.66947 0.29754
 H218 H 0.96157 0.66866 0.33264
 C219 C 0.54430 0.29559 -0.12500
 C220 C 0.53938 0.27993 -0.10087
 C221 C 0.51849 0.25923 -0.10059
 C222 C 0.50266 0.25429 -0.12445
 C223 C 0.50759 0.26994 -0.14858
 C224 C 0.52846 0.29067 -0.14885
 C225 C 0.53299 0.30607 -0.17320
 C226 C 0.51735 0.30113 -0.19662
 C227 C 0.49696 0.28086 -0.19636
 C228 C 0.49204 0.26539 -0.17268
 C229 C 0.51394 0.24386 -0.07622
 C230 C 0.52958 0.24880 -0.05280
 C231 C 0.55001 0.26904 -0.05308
 C232 C 0.55495 0.28448 -0.07678
 C233 C 0.48134 0.23311 -0.12418
 C234 C 0.46364 0.21554 -0.12397
 C235 C 0.56566 0.31671 -0.12529
 C236 C 0.58339 0.33424 -0.12552
 H237 H 0.54862 0.32206 -0.17441
 H238 H 0.52109 0.31310 -0.21507
 H239 H 0.48487 0.27710 -0.21461
 H240 H 0.47595 0.24985 -0.17349
 H241 H 0.49828 0.22790 -0.07500
 H242 H 0.52582 0.23686 -0.03434
 H243 H 0.56210 0.27279 -0.03484
 H244 H 0.57106 0.29999 -0.07599
 C245 C 0.12502 0.04514 0.20606
 C246 C 0.14632 0.02507 0.20692
 C247 C 0.14645 0.00437 0.22778
 C248 C 0.12528 0.00384 0.24767
 C249 C 0.10399 0.02391 0.24681
 C250 C 0.10387 0.04462 0.22595
 C251 C 0.08238 0.06448 0.22552
 C252 C 0.06160 0.06388 0.24514
 C253 C 0.06172 0.04363 0.26553
 C254 C 0.08262 0.02382 0.26646
 C255 C 0.16796 -0.01546 0.22822
 C256 C 0.18875 -0.01484 0.20861
 C257 C 0.18861 0.00540 0.18821
 C258 C 0.16769 0.02518 0.18726
 C259 C 0.12540 -0.01733 0.26898
 C260 C 0.12548 -0.03488 0.28668
 C261 C 0.12487 0.06628 0.18474
 C262 C 0.12472 0.08384 0.16704
 H263 H 0.08139 0.08064 0.21006
 H264 H 0.04533 0.07923 0.24451
 H265 H 0.04554 0.04326 0.28073
 H266 H 0.08181 0.00848 0.28272
 H267 H 0.16896 -0.03161 0.24369
 H268 H 0.20504 -0.03017 0.20925
 H269 H 0.20480 0.00578 0.17302
 H270 H 0.16849 0.04052 0.17100
 C271 C 0.62626 0.45575 -0.20654
 C272 C 0.64978 0.45918 -0.22327
 C273 C 0.65003 0.47996 -0.24406
 C274 C 0.62679 0.49722 -0.24799
 C275 C 0.60327 0.49380 -0.23126
 C276 C 0.60301 0.47299 -0.21049
 C277 C 0.57926 0.46995 -0.19404
 C278 C 0.55644 0.48699 -0.19798
 C279 C 0.55671 0.50734 -0.21828
 C280 C 0.57980 0.51080 -0.23479
 C281 C 0.67377 0.48298 -0.26053
 C282 C 0.69660 0.46596 -0.25657
 C283 C 0.69635 0.44564 -0.23624
 C284 C 0.67327 0.44219 -0.21972
 C285 C 0.62706 0.51847 -0.26922
 C286 C 0.62728 0.53613 -0.28682
 C287 C 0.62600 0.43453 -0.18529
 C288 C 0.62578 0.41692 -0.16764
 H289 H 0.57806 0.45442 -0.17798
 H290 H 0.53845 0.48439 -0.18521
 H291 H 0.53893 0.52053 -0.22126
 H292 H 0.57902 0.52692 -0.25031
 H293 H 0.67495 0.49849 -0.27661
 H294 H 0.71458 0.46855 -0.26935
 H295 H 0.71414 0.43247 -0.23324
 H296 H 0.67405 0.42610 -0.20418
 C297 C 0.37412 0.95496 0.70582
 C298 C 0.39630 0.95688 0.72448
 C299 C 0.39610 0.97762 0.74527
 C300 C 0.37370 0.99632 0.74730
 C301 C 0.35152 0.99439 0.72864
 C302 C 0.35173 0.97365 0.70783
 C303 C 0.32932 0.97214 0.68941
 C304 C 0.30733 0.99059 0.69149
 C305 C 0.30712 1.01086 0.71183
 C306 C 0.32890 1.01284 0.73025
 C307 C 0.41851 0.97914 0.76368
 C308 C 0.44049 0.96068 0.76161
 C309 C 0.44069 0.94039 0.74128
 C310 C 0.41890 0.93841 0.72287
 C311 C 0.37350 1.01752 0.76854
 C312 C 0.37334 1.03512 0.78618
 C313 C 0.37433 0.93378 0.68457
 C314 C 0.37453 0.91618 0.66694
 H315 H 0.32855 0.95673 0.67324
 H316 H 0.29037 0.98914 0.67723
 H317 H 0.28999 1.02513 0.71336
 H318 H 0.32780 1.02895 0.74572
 H319 H 0.41930 0.99456 0.77984
 H320 H 0.45747 0.96213 0.77586
 H321 H 0.45781 0.92610 0.73976
 H322 H 0.41999 0.92228 0.70741
 C323 C 0.87475 0.54465 0.29396
 C324 C 0.85247 0.52576 0.29216
 C325 C 0.85222 0.50499 0.27139
 C326 C 0.87426 0.50322 0.25255
 C327 C 0.89653 0.52211 0.25435
 C328 C 0.89677 0.54289 0.27511
 C329 C 0.91925 0.56155 0.27649
 C330 C 0.94088 0.55973 0.25790
 C331 C 0.94065 0.53941 0.23760
 C332 C 0.91879 0.52076 0.23575
 C333 C 0.82973 0.48636 0.27000
 C334 C 0.80810 0.48818 0.28860
 C335 C 0.80835 0.50849 0.30891
 C336 C 0.83022 0.52712 0.31077
 C337 C 0.87402 0.48197 0.23135
 C338 C 0.87381 0.46433 0.21376
 C339 C 0.87501 0.56584 0.31520
 C340 C 0.87522 0.58342 0.33284
 H341 H 0.92036 0.57772 0.29192
 H342 H 0.95791 0.57417 0.25925
 H343 H 0.95751 0.53808 0.22321
 H344 H 0.91954 0.50532 0.21961
 H345 H 0.82860 0.47021 0.25457
 H346 H 0.79106 0.47376 0.28724
 H347 H 0.79150 0.50982 0.32331
 H348 H 0.82948 0.54255 0.32693
 C349 C 0.20406 0.12521 0.04573
 C350 C 0.20466 0.14672 0.02584
 C351 C 0.22528 0.14673 0.00522
 C352 C 0.24518 0.12522 0.00462
 C353 C 0.24457 0.10371 0.02452
 C354 C 0.22395 0.10370 0.04513
 C355 C 0.22377 0.08199 0.06481
 C356 C 0.24339 0.06087 0.06413
 C357 C 0.26355 0.06087 0.04397
 C358 C 0.26423 0.08199 0.02434
 C359 C 0.22546 0.16845 -0.01443
 C360 C 0.20583 0.18956 -0.01375
 C361 C 0.18567 0.18955 0.00639
 C362 C 0.18498 0.16842 0.02601
 C363 C 0.26624 0.12522 -0.01644
 C364 C 0.28372 0.12523 -0.03394
 C365 C 0.18299 0.12519 0.06677
 C366 C 0.16549 0.12519 0.08424
 H367 H 0.20850 0.08108 0.08089
 H368 H 0.24295 0.04442 0.07933
 H369 H 0.27875 0.04442 0.04354
 H370 H 0.28032 0.08108 0.00908
 H371 H 0.24074 0.16938 -0.03050
 H372 H 0.20628 0.20602 -0.02895
 H373 H 0.17046 0.20599 0.00683
 H374 H 0.16889 0.16932 0.04128
 C375 C 0.79596 0.62479 0.45412
 C376 C 0.79506 0.64662 0.47362
 C377 C 0.77448 0.64662 0.49427
 C378 C 0.75492 0.62479 0.49530
 C379 C 0.75583 0.60296 0.47579
 C380 C 0.77640 0.60297 0.45513
 C381 C 0.77689 0.58093 0.43585
 C382 C 0.75761 0.55949 0.43695
 C383 C 0.73749 0.55948 0.45715
 C384 C 0.73651 0.58091 0.47640
 C385 C 0.77399 0.66867 0.51354
 C386 C 0.79329 0.69010 0.51244
 C387 C 0.81341 0.69009 0.49226
 C388 C 0.81439 0.66866 0.47301
 C389 C 0.73390 0.62479 0.51641
 C390 C 0.71646 0.62481 0.53394
 C391 C 0.81700 0.62478 0.43305
 C392 C 0.83448 0.62478 0.41556
 H393 H 0.79214 0.58002 0.41975
 H394 H 0.75828 0.54280 0.42204
 H395 H 0.72256 0.54278 0.45791
 H396 H 0.72048 0.57999 0.49172
 H397 H 0.75873 0.66960 0.52963
 H398 H 0.79261 0.70680 0.52734
 H399 H 0.82836 0.70678 0.49149
 H400 H 0.83043 0.66957 0.45770
 C401 C 0.70495 0.37511 -0.04632
 C402 C 0.72397 0.39738 -0.04468
 C403 C 0.74456 0.39726 -0.02403
 C404 C 0.74602 0.37486 -0.00514
 C405 C 0.72701 0.35259 -0.00679
 C406 C 0.70640 0.35272 -0.02743
 C407 C 0.68761 0.33023 -0.02866
 C408 C 0.68913 0.30824 -0.01004
 C409 C 0.70928 0.30811 0.01013
 C410 C 0.72805 0.32997 0.01184
 C411 C 0.76334 0.41976 -0.02280
 C412 C 0.76181 0.44174 -0.04143
 C413 C 0.74168 0.44185 -0.06162
 C414 C 0.72292 0.41998 -0.06332
 C415 C 0.76704 0.37476 0.01597
 C416 C 0.78448 0.37467 0.03351
 C417 C 0.68391 0.37523 -0.06740
 C418 C 0.66643 0.37532 -0.08489
 H419 H 0.67157 0.32939 -0.04399
 H420 H 0.67460 0.29121 -0.01127
 H421 H 0.71038 0.29097 0.02455
 H422 H 0.74335 0.32892 0.02789
 H423 H 0.77936 0.42061 -0.00746
 H424 H 0.77634 0.45878 -0.04019
 H425 H 0.74059 0.45898 -0.07605
 H426 H 0.70764 0.42101 -0.07939
 C427 C 0.29515 0.87441 0.54586
 C428 C 0.27572 0.89633 0.54475
 C429 C 0.25508 0.89630 0.52415
 C430 C 0.25399 0.87436 0.50478
 C431 C 0.27341 0.85242 0.50590
 C432 C 0.29406 0.85246 0.52650
 C433 C 0.31325 0.83031 0.52720
 C434 C 0.31207 0.80875 0.50811
 C435 C 0.29189 0.80871 0.48798
 C436 C 0.27272 0.83024 0.48679
 C437 C 0.23589 0.91844 0.52346
 C438 C 0.23705 0.93999 0.54258
 C439 C 0.25723 0.94001 0.56273
 C440 C 0.27639 0.91848 0.56390
 C441 C 0.23292 0.87435 0.48371
 C442 C 0.21544 0.87437 0.46622
 C443 C 0.31625 0.87446 0.56688
 C444 C 0.33377 0.87453 0.58433
 H445 H 0.32934 0.82942 0.54248
 H446 H 0.32691 0.79198 0.50895
 H447 H 0.29106 0.79191 0.47320
 H448 H 0.25741 0.82929 0.47075
 H449 H 0.21982 0.91935 0.50818
 H450 H 0.22221 0.95675 0.54176
 H451 H 0.25804 0.95679 0.57753
 H452 H 0.29170 0.91942 0.57995
   
