data_POSCAR
  _audit_creation_date              2014-09-24
  _audit_creation_method            'ToBaCCo'
  _symmetry_space_group_name_H-M    'P1'
  _symmetry_Int_Tables_number       1
  _symmetry_cell_setting            triclinic
  loop_
  _symmetry_equiv_pos_as_xyz
 x,y,z
_cell_length_a 22.5553
_cell_length_b 22.5885
_cell_length_c 19.0819
_cell_angle_alpha 89.534300
_cell_angle_beta 89.588200
_cell_angle_gamma 91.392900
loop_
  _atom_site_label
  _atom_site_type_symbol
  _atom_site_fract_x
  _atom_site_fract_y
  _atom_site_fract_z
O1 O -0.05734 0.32613 0.07862
 O2 O 0.04228 0.31410 -0.07498
 O3 O -0.06895 0.32820 -0.05555
 O4 O 0.05834 0.32567 0.06110
 O5 O 0.05229 0.22805 0.06797
 O6 O -0.07832 0.23060 -0.04899
 O7 O 0.03470 0.21656 -0.06722
 O8 O -0.06394 0.22848 0.08470
 Cu9 Cu -0.00478 0.33317 0.00240
 Cu10 Cu -0.01402 0.21605 0.01026
 C11 C -0.07943 0.27890 0.10579
 C12 C 0.05329 0.26301 -0.09857
 C13 C -0.09554 0.28042 -0.07201
 C14 C 0.07727 0.27717 0.08430
 O15 O 0.58148 0.83289 0.43102
 O16 O 0.45927 0.83724 0.55859
 O17 O 0.57386 0.83518 0.56655
 O18 O 0.46727 0.83823 0.42156
 O19 O 0.46133 0.74048 0.42244
 O20 O 0.57017 0.73734 0.56725
 O21 O 0.45369 0.73946 0.55971
 O22 O 0.57667 0.73503 0.43221
 Cu23 Cu 0.52079 0.84562 0.49433
 Cu24 Cu 0.51457 0.72817 0.49570
 C25 C 0.60021 0.78344 0.41052
 C26 C 0.43568 0.78911 0.58088
 C27 C 0.59101 0.78609 0.59072
 C28 C 0.44625 0.79017 0.39708
 O29 O 1.09212 0.71332 0.05901
 O30 O 0.97188 0.68371 -0.06912
 O31 O 1.08437 0.71191 -0.08052
 O32 O 0.98086 0.67838 0.06676
 O33 O 0.95759 0.77279 0.06870
 O34 O 1.05897 0.80570 -0.07833
 O35 O 0.94817 0.77798 -0.06477
 O36 O 1.06789 0.80748 0.05876
 Cu37 Cu 1.03554 0.68743 -0.00628
 Cu38 Cu 1.00654 0.80052 -0.00330
 C39 C 1.09902 0.76580 0.08164
 C40 C 0.93917 0.72607 -0.08786
 C41 C 1.08729 0.76398 -0.10599
 C42 C 0.95073 0.72006 0.09178
 O43 O 0.42932 0.15337 0.44529
 O44 O 0.53782 0.15664 0.58763
 O45 O 0.42292 0.15670 0.58163
 O46 O 0.54459 0.15294 0.45133
 O47 O 0.54848 0.25073 0.44734
 O48 O 0.42575 0.25447 0.57666
 O49 O 0.54156 0.25444 0.58259
 O50 O 0.43208 0.25117 0.44065
 Cu51 Cu 0.48340 0.14514 0.51685
 Cu52 Cu 0.48718 0.26258 0.51127
 C53 C 0.41182 0.20163 0.41922
 C54 C 0.55843 0.20593 0.60891
 C55 C 0.40337 0.20623 0.60095
 C56 C 0.56769 0.20099 0.42782
 O57 O 0.66264 0.03686 -0.03431
 O58 O 0.70904 -0.07805 0.09489
 O59 O 0.67396 0.03061 0.10145
 O60 O 0.67503 -0.07860 -0.03767
 O61 O 0.76989 -0.05936 -0.05939
 O62 O 0.76730 0.05584 0.07781
 O63 O 0.80223 -0.05296 0.07033
 O64 O 0.75742 0.05557 -0.05713
 Cu65 Cu 0.67101 -0.02489 0.03281
 Cu66 Cu 0.78321 0.00188 0.00560
 C67 C 0.70338 0.06659 -0.06655
 C68 C 0.76456 -0.08354 0.10480
 C69 C 0.71955 0.06251 0.11286
 C70 C 0.72197 -0.08844 -0.07161
 O71 O 0.17275 0.44828 0.53974
 O72 O 0.18441 0.56180 0.40311
 O73 O 0.17837 0.44733 0.40390
 O74 O 0.17421 0.56261 0.53794
 O75 O 0.27194 0.56293 0.54546
 O76 O 0.27592 0.44408 0.41160
 O77 O 0.28218 0.56153 0.40998
 O78 O 0.27034 0.44600 0.54817
 Cu79 Cu 0.16778 0.50495 0.47035
 Cu80 Cu 0.28510 0.50343 0.47938
 C81 C 0.21897 0.42763 0.56707
 C82 C 0.23496 0.58182 0.38416
 C83 C 0.22718 0.42540 0.38552
 C84 C 0.22196 0.58310 0.56383
 O85 O 0.28362 1.07764 0.04788
 O86 O 0.30992 0.97260 -0.09749
 O87 O 0.27427 1.08394 -0.09118
 O88 O 0.32619 0.97235 0.03775
 O89 O 0.23384 0.93842 0.04809
 O90 O 0.18314 1.04710 -0.07940
 O91 O 0.21787 0.93824 -0.08547
 O92 O 0.19152 1.04261 0.05646
 Cu93 Cu 0.30758 1.03084 -0.02773
 Cu94 Cu 0.19744 0.98843 -0.01440
 C95 C 0.23315 1.07615 0.07813
 C96 C 0.26847 0.93641 -0.11464
 C97 C 0.21965 1.08410 -0.10688
 C98 C 0.28820 0.93654 0.06504
 O99 O 0.83308 0.43059 0.45251
 O100 O 0.83717 0.54805 0.58285
 O101 O 0.82539 0.43361 0.58801
 O102 O 0.83964 0.54481 0.44643
 O103 O 0.74206 0.55007 0.44195
 O104 O 0.72770 0.43760 0.58354
 O105 O 0.73961 0.55390 0.57828
 O106 O 0.73528 0.43396 0.44846
 Cu107 Cu 0.84355 0.48884 0.51800
 Cu108 Cu 0.72622 0.49456 0.51265
 C109 C 0.78388 0.41183 0.42893
 C110 C 0.78941 0.57135 0.60236
 C111 C 0.77440 0.41605 0.60916
 C112 C 0.79332 0.56654 0.42024
 C113 C 0.23614 0.18686 0.21084
 C114 C 0.20339 0.23737 0.19611
 C115 C 0.21738 0.29074 0.23073
 C116 C 0.26294 0.29366 0.28069
 C117 C 0.29766 0.24381 0.29218
 C118 C 0.28379 0.19061 0.25725
 H119 H 0.30768 0.15081 0.26921
 H120 H 0.19067 0.32922 0.22183
 C121 C 0.78906 0.79299 0.21930
 C122 C 0.82543 0.74414 0.21229
 C123 C 0.81310 0.69233 0.25154
 C124 C 0.76399 0.68975 0.29784
 C125 C 0.72516 0.73758 0.30031
 C126 C 0.73808 0.78904 0.26064
 H127 H 0.71088 0.82769 0.26540
 H128 H 0.84255 0.65531 0.24807
 C129 C 0.79448 0.23869 0.22194
 C130 C 0.75189 0.19253 0.22279
 C131 C 0.70362 0.19415 0.27004
 C132 C 0.69778 0.24171 0.31653
 C133 C 0.74105 0.28747 0.31588
 C134 C 0.78892 0.28581 0.26838
 H135 H 0.82199 0.32135 0.26754
 H136 H 0.67038 0.15878 0.27019
 C137 C 0.22394 0.77123 0.19667
 C138 C 0.27318 0.80899 0.18576
 C139 C 0.32596 0.79935 0.22271
 C140 C 0.32917 0.75075 0.26972
 C141 C 0.28169 0.70921 0.27364
 C142 C 0.22908 0.72028 0.23719
 H143 H 0.19002 0.69210 0.24499
 H144 H 0.36270 0.83090 0.21796
 C145 C 0.67670 0.25207 0.72967
 C146 C 0.72185 0.29609 0.72903
 C147 C 0.76803 0.29261 0.77767
 C148 C 0.77052 0.24506 0.82530
 C149 C 0.72542 0.20130 0.82593
 C150 C 0.67826 0.20525 0.77890
 H151 H 0.64401 0.17084 0.77899
 H152 H 0.80315 0.32613 0.77704
 C153 C 0.30504 0.74949 0.68967
 C154 C 0.25748 0.70899 0.68081
 C155 C 0.20321 0.71929 0.71480
 C156 C 0.19680 0.76813 0.75861
 C157 C 0.24554 0.80615 0.77172
 C158 C 0.29956 0.79682 0.73685
 H159 H 0.33664 0.82737 0.74447
 H160 H 0.16477 0.69107 0.70470
 C161 C 0.23868 0.30676 0.69511
 C162 C 0.27587 0.25824 0.70438
 C163 C 0.25684 0.21030 0.74809
 C164 C 0.19953 0.20965 0.77830
 C165 C 0.16265 0.25785 0.76697
 C166 C 0.18307 0.30650 0.72834
 H167 H 0.15288 0.34232 0.71942
 H168 H 0.28414 0.17180 0.75370
 C169 C 0.75298 0.69861 0.71247
 C170 C 0.71030 0.74282 0.71142
 C171 C 0.71509 0.79005 0.75871
 C172 C 0.76273 0.79405 0.80568
 C173 C 0.80608 0.75066 0.80549
 C174 C 0.80078 0.70278 0.75945
 H175 H 0.83413 0.66912 0.75977
 H176 H 0.68209 0.82407 0.75855
 N177 N 0.22448 0.10601 0.13547
 N178 N 0.21353 0.12969 0.19186
 N179 N 0.79264 0.61830 0.65149
 N180 N 0.74883 0.65122 0.66323
 N181 N 0.78464 0.88016 0.15191
 N182 N 0.81064 0.84924 0.19461
 N183 N 0.21133 0.38279 0.61925
 N184 N 0.25290 0.35175 0.64359
 N185 N 0.87551 0.28258 0.15827
 N186 N 0.84193 0.23772 0.17165
 N187 N 0.38718 0.79163 0.62893
 N188 N 0.35576 0.74584 0.64449
 N189 N 0.13570 0.77736 0.13254
 N190 N 0.16626 0.79289 0.18261
 N191 N 0.60197 0.20616 0.66240
 N192 N 0.63223 0.25267 0.67662
 N193 N 0.68934 0.11450 0.88767
 N194 N 0.73079 0.15184 0.87253
 N195 N 0.23727 0.62902 0.33450
 N196 N 0.28372 0.66053 0.32225
 N197 N 0.27927 0.89180 0.83429
 N198 N 0.23829 0.85424 0.81951
 N199 N 0.78420 0.36484 0.38005
 N200 N 0.73790 0.33427 0.36573
 N201 N 0.07966 0.25815 0.84084
 N202 N 0.10057 0.25323 0.78153
 N203 N 0.64885 0.78310 0.36282
 N204 N 0.67612 0.73605 0.34845
 N205 N 0.89150 0.71551 0.86461
 N206 N 0.85473 0.75630 0.85307
 N207 N 0.36792 0.19952 0.36596
 N208 N 0.34273 0.24605 0.34473
 N209 N 0.72006 0.86631 0.87687
 N210 N 0.76641 0.84066 0.85609
 N211 N 0.22561 0.37775 0.33667
 N212 N 0.26891 0.34364 0.32662
 N213 N 0.19922 0.12308 0.84912
 N214 N 0.17347 0.15751 0.81002
 N215 N 0.79984 0.61137 0.36730
 N216 N 0.75642 0.64234 0.34790
 N217 N 0.11574 0.77423 0.83521
 N218 N 0.13845 0.78544 0.77761
 N219 N 0.61617 0.19844 0.37930
 N220 N 0.64909 0.24370 0.36545
 N221 N 0.85489 0.28377 0.88252
 N222 N 0.81933 0.24020 0.87263
 N223 N 0.40361 0.79295 0.34201
 N224 N 0.37557 0.74704 0.32066
 N225 N 0.30589 0.89257 0.11459
 N226 N 0.26547 0.85765 0.13857
 N227 N 0.77064 0.37096 0.66199
 N228 N 0.72302 0.34157 0.67581
 N229 N 0.71579 0.10732 0.16461
 N230 N 0.75686 0.14607 0.17256
 N231 N 0.21824 0.63009 0.61325
 N232 N 0.26312 0.66113 0.63204
 N233 N 0.90671 0.70767 0.14452
 N234 N 0.87395 0.74965 0.16375
 N235 N 0.35402 0.20722 0.64842
 N236 N 0.32818 0.25542 0.66137
 N237 N 0.12721 0.27913 0.12962
 N238 N 0.15370 0.23303 0.14969
 N239 N 0.63532 0.78665 0.64384
 N240 N 0.66449 0.74090 0.65946
   
