data_POSCAR
  _audit_creation_date              2014-09-24
  _audit_creation_method            'ToBaCCo'
  _symmetry_space_group_name_H-M    'P1'
  _symmetry_Int_Tables_number       1
  _symmetry_cell_setting            triclinic
  loop_
  _symmetry_equiv_pos_as_xyz
 x,y,z
_cell_length_a 37.4817
_cell_length_b 37.2713
_cell_length_c 15.9613
_cell_angle_alpha 88.843100
_cell_angle_beta 90.734200
_cell_angle_gamma 121.863500
loop_
  _atom_site_label
  _atom_site_type_symbol
  _atom_site_fract_x
  _atom_site_fract_y
  _atom_site_fract_z
C1 C 0.35519 0.47710 0.50203
 C2 C 0.35390 0.47787 0.58805
 C3 C 0.31363 0.46730 0.60887
 N4 N 0.29036 0.46010 0.53849
 C5 C 0.31578 0.46637 0.47305
 C6 C 0.29829 0.46298 0.69162
 C7 C 0.25815 0.45590 0.70811
 C8 C 0.23520 0.43616 0.77995
 C9 C 0.19870 0.43620 0.77339
 C10 C 0.20084 0.45707 0.69871
 N11 N 0.23710 0.46854 0.65872
 C12 C 0.17037 0.46625 0.67085
 C13 C 0.17031 0.48053 0.58762
 C14 C 0.14856 0.49940 0.56072
 C15 C 0.15234 0.50333 0.47510
 C16 C 0.17698 0.48756 0.45251
 N17 N 0.18782 0.47358 0.52133
 C18 C 0.18555 0.48216 0.36927
 C19 C 0.21442 0.46987 0.34996
 C20 C 0.21815 0.45614 0.27228
 C21 C 0.25036 0.44879 0.27866
 C22 C 0.26622 0.45910 0.35950
 N23 N 0.24408 0.47186 0.40256
 C24 C 0.30348 0.46152 0.38760
 H25 H 0.38215 0.48396 0.46508
 H26 H 0.37961 0.48530 0.63040
 H27 H 0.25214 0.48614 0.46072
 H28 H 0.24369 0.42257 0.83113
 H29 H 0.17355 0.42249 0.81886
 H30 H 0.13088 0.50839 0.59868
 H31 H 0.13793 0.51570 0.43430
 H32 H 0.26175 0.43838 0.22845
 H33 H 0.24903 0.48774 0.60542
 H34 H 0.20005 0.45229 0.21618
 C35 C 0.59664 -0.29260 0.59185
 C36 C 0.59883 -0.29655 0.50734
 C37 C 0.58371 -0.27338 0.46918
 N38 N 0.57355 -0.25445 0.52716
 C39 C 0.58115 -0.26644 0.60207
 C40 C 0.57355 -0.27491 0.38352
 C41 C 0.56175 -0.24751 0.34793
 C42 C 0.53779 -0.25535 0.27587
 C43 C 0.53174 -0.22214 0.26552
 C44 C 0.55271 -0.19467 0.33081
 N45 N 0.57123 -0.21019 0.38022
 C46 C 0.55577 -0.15556 0.34209
 C47 C 0.57034 -0.13312 0.41740
 C48 C 0.58005 -0.09206 0.42821
 C49 C 0.58226 -0.08584 0.51299
 C50 C 0.57387 -0.12329 0.55073
 N51 N 0.56712 -0.15189 0.49229
 C52 C 0.56238 -0.13438 0.63509
 C53 C 0.55754 -0.17131 0.67229
 C54 C 0.53586 -0.19012 0.74597
 C55 C 0.53660 -0.22635 0.75791
 C56 C 0.55886 -0.22841 0.69131
 N57 N 0.57242 -0.19422 0.64060
 C58 C 0.56586 -0.26147 0.67800
 H59 H 0.60363 -0.30870 0.64045
 H60 H 0.60823 -0.31609 0.47742
 H61 H 0.59222 -0.18610 0.58910
 H62 H 0.52507 -0.28268 0.23618
 H63 H 0.51388 -0.21870 0.21564
 H64 H 0.58224 -0.07006 0.38026
 H65 H 0.58635 -0.05821 0.54343
 H66 H 0.52176 -0.24899 0.80889
 H67 H 0.59175 -0.19480 0.42989
 H68 H 0.52015 -0.17953 0.78577
 C69 C 1.31148 0.89456 0.52437
 C70 C 1.31089 0.89433 0.43857
 C71 C 1.27574 0.85626 0.41460
 N72 N 1.25528 0.83319 0.48396
 C73 C 1.27689 0.85654 0.55131
 C74 C 1.26624 0.84158 0.33051
 C75 C 1.23049 0.80157 0.30815
 C76 C 1.22397 0.78346 0.22970
 C77 C 1.18669 0.74520 0.23301
 C78 C 1.17050 0.74093 0.31262
 N79 N 1.19693 0.77580 0.35749
 C80 C 1.13192 0.70532 0.34065
 C81 C 1.11844 0.69798 0.42509
 C82 C 1.07965 0.66485 0.45208
 C83 C 1.08119 0.66408 0.53784
 C84 C 1.12067 0.69720 0.56087
 N85 N 1.14331 0.71779 0.49168
 C86 C 1.13677 0.70493 0.64375
 C87 C 1.17577 0.74114 0.66669
 C88 C 1.19262 0.74807 0.74686
 C89 C 1.22913 0.78678 0.74531
 C90 C 1.23435 0.80270 0.66381
 N91 N 1.20096 0.77510 0.61701
 C92 C 1.26882 0.84256 0.63659
 H93 H 1.33576 0.91933 0.56243
 H94 H 1.33484 0.91890 0.39891
 H95 H 1.19427 0.78072 0.55686
 H96 H 1.24385 0.79623 0.17501
 H97 H 1.17305 0.72315 0.18206
 H98 H 1.05349 0.64248 0.41379
 H99 H 1.05640 0.64096 0.57830
 H100 H 1.24915 0.80154 0.79910
 H101 H 1.19083 0.78288 0.41605
 H102 H 1.17953 0.72780 0.80174
 C103 C 0.87254 0.54999 0.59739
 C104 C 0.87849 0.54418 0.51522
 C105 C 0.84007 0.52853 0.47604
 N106 N 0.81099 0.52449 0.53112
 C107 C 0.83056 0.53744 0.60548
 C108 C 0.83046 0.51319 0.39378
 C109 C 0.79220 0.50291 0.35521
 C110 C 0.77652 0.48096 0.28121
 C111 C 0.74043 0.48085 0.26258
 C112 C 0.73523 0.50253 0.32613
 N113 N 0.76681 0.51589 0.38180
 C114 C 0.70585 0.51494 0.32693
 C115 C 0.69960 0.53260 0.40134
 C116 C 0.68455 0.55965 0.40399
 C117 C 0.67493 0.56158 0.48685
 C118 C 0.68587 0.53716 0.53360
 N119 N 0.70133 0.51993 0.48128
 C120 C 0.68322 0.53183 0.62332
 C121 C 0.71256 0.52433 0.66479
 C122 C 0.70831 0.50811 0.74555
 C123 C 0.74385 0.50685 0.76227
 C124 C 0.76910 0.52275 0.69160
 N125 N 0.74992 0.53355 0.63278
 C126 C 0.80888 0.52723 0.68268
 H127 H 0.89561 0.55949 0.64708
 H128 H 0.90712 0.54908 0.48833
 H129 H 0.76303 0.54909 0.57607
 H130 H 0.79017 0.46737 0.24362
 H131 H 0.72103 0.46756 0.20737
 H132 H 0.67871 0.57464 0.35156
 H133 H 0.66207 0.57950 0.51016
 H134 H 0.75039 0.49560 0.81996
 H135 H 0.77321 0.53749 0.42877
 H136 H 0.68211 0.49784 0.78762
 C137 C 0.44896 0.12333 0.51882
 C138 C 0.44505 0.13057 0.60072
 C139 C 0.46041 0.17356 0.60704
 N140 N 0.47348 0.19255 0.53105
 C141 C 0.46661 0.16190 0.47747
 C142 C 0.47007 0.19591 0.68310
 C143 C 0.48528 0.24002 0.68407
 C144 C 0.50764 0.26689 0.74928
 C145 C 0.51839 0.30679 0.72396
 C146 C 0.49927 0.30324 0.64672
 N147 N 0.47993 0.26236 0.62216
 C148 C 0.49719 0.33618 0.60307
 C149 C 0.48570 0.32910 0.51522
 C150 C 0.46326 0.34296 0.46927
 C151 C 0.46661 0.33596 0.38507
 C152 C 0.48843 0.31543 0.38193
 N153 N 0.49950 0.31088 0.46154
 C154 C 0.50049 0.30329 0.30722
 C155 C 0.50240 0.26661 0.30869
 C156 C 0.52011 0.25525 0.24703
 C157 C 0.51492 0.21731 0.27250
 C158 C 0.49419 0.20676 0.34890
 N159 N 0.48622 0.23671 0.37000
 C160 C 0.48114 0.16907 0.39443
 H161 H 0.44142 0.09340 0.49337
 H162 H 0.43428 0.10687 0.65001
 H163 H 0.46807 0.23543 0.42018
 H164 H 0.51648 0.25902 0.80839
 H165 H 0.53770 0.33505 0.75980
 H166 H 0.44871 0.35914 0.49342
 H167 H 0.45427 0.34478 0.33229
 H168 H 0.52511 0.19947 0.23846
 H169 H 0.46102 0.24968 0.56920
 H170 H 0.53516 0.27241 0.18977
 C171 C 0.65302 0.08705 0.45300
 C172 C 0.65070 0.09104 0.53764
 C173 C 0.69102 0.12057 0.56451
 N174 N 0.71807 0.13358 0.49951
 C175 C 0.69476 0.11392 0.43082
 C176 C 0.70173 0.13592 0.64736
 C177 C 0.74252 0.16717 0.67301
 C178 C 0.75596 0.17537 0.75578
 C179 C 0.79439 0.21221 0.75546
 C180 C 0.80317 0.22599 0.67276
 N181 N 0.77164 0.19809 0.62278
 C182 C 0.83760 0.26563 0.64709
 C183 C 0.85092 0.27542 0.56253
 C184 C 0.88109 0.31511 0.53228
 C185 C 0.88313 0.31141 0.44728
 C186 C 0.85415 0.26954 0.42822
 N187 N 0.83512 0.24749 0.49906
 C188 C 0.84547 0.25289 0.34620
 C189 C 0.81313 0.21131 0.32567
 C190 C 0.80819 0.19339 0.24771
 C191 C 0.76975 0.15607 0.24803
 C192 C 0.75214 0.15218 0.32605
 N193 N 0.77905 0.18576 0.37318
 C194 C 0.71025 0.12095 0.34777
 H195 H 0.62674 0.06725 0.41236
 H196 H 0.62232 0.07470 0.57475
 H197 H 0.77188 0.19433 0.42873
 H198 H 0.73956 0.15778 0.81157
 H199 H 0.81304 0.22798 0.81032
 H200 H 0.89910 0.34388 0.56750
 H201 H 0.90324 0.33687 0.40425
 H202 H 0.75563 0.13500 0.19567
 H203 H 0.76666 0.20350 0.56100
 H204 H 0.82935 0.20669 0.19485
 O205 O 0.93616 0.48531 -0.15610
 O206 O 1.02406 0.52305 0.16562
 O207 O 0.92566 0.48675 0.10056
 O208 O 1.06865 0.55178 -0.08401
 O209 O 0.95150 0.46290 0.18639
 O210 O 1.01109 0.54237 -0.13647
 O211 O 1.04692 0.56027 0.05341
 O212 O 0.91098 0.48867 -0.04063
 C213 C 0.91079 0.49033 -0.11746
 C214 C 1.04156 0.55853 0.13011
 C215 C 0.93107 0.48006 0.17381
 C216 C 1.04996 0.56529 -0.12807
 O217 O 1.03060 0.48423 -0.15913
 O218 O 0.97051 0.41242 0.11201
 O219 O 0.90125 0.41121 -0.06777
 O220 O 1.09585 0.53152 0.06240
 O221 O 1.04469 0.46947 0.10508
 O222 O 0.95357 0.42838 -0.15543
 O223 O 1.05363 0.47567 -0.04250
 O224 O 0.91121 0.40699 0.08488
 Co225 Co 0.98360 0.48510 -0.13695
 Co226 Co 0.99663 0.46860 0.12929
 Co227 Co 0.91828 0.45085 0.01829
 Co228 Co 1.04697 0.51614 0.00773
 O229 O 0.98378 0.48038 -0.00031
 C230 C 1.05149 0.47228 -0.12004
 C231 C 0.93134 0.39053 0.11070
 C232 C 0.91753 0.40197 -0.12713
 C233 C 1.08294 0.49908 0.11418
 O234 O 0.49354 0.46612 -0.12720
 O235 O 0.44731 0.47283 0.12640
 O236 O 0.56163 0.47656 0.06087
 O237 O 0.43781 0.53069 -0.02559
 O238 O 0.50228 0.45139 0.12952
 O239 O 0.43985 0.47821 -0.06810
 O240 O 0.44965 0.53068 0.12129
 O241 O 0.55844 0.48937 -0.10053
 C242 C 0.52707 0.46938 -0.14861
 C243 C 0.42991 0.49251 0.14181
 C244 C 0.53460 0.44997 0.11252
 C245 C 0.41888 0.49442 -0.05729
 O246 O 0.48589 0.55780 -0.13241
 O247 O 0.55769 0.52534 0.17997
 O248 O 0.59854 0.57070 -0.07625
 O249 O 0.53033 0.59496 0.10342
 O250 O 0.50892 0.54787 0.19855
 O251 O 0.54370 0.54750 -0.15608
 O252 O 0.52202 0.59866 -0.03835
 O253 O 0.60328 0.55921 0.08213
 Co254 Co 0.49206 0.51325 -0.10681
 Co255 Co 0.50369 0.50145 0.14560
 Co256 Co 0.57413 0.52391 -0.00546
 Co257 Co 0.48713 0.56010 0.03786
 O258 O 0.51485 0.52320 0.01780
 C259 C 0.50910 0.59461 -0.11008
 C260 C 0.59485 0.54462 0.15455
 C261 C 0.58320 0.56613 -0.14764
 C262 C 0.53083 0.58609 0.17763
 O263 O 0.53466 0.03616 -0.16353
 O264 O 0.47405 -0.05955 0.16489
 O265 O 0.56236 0.06757 0.08018
 O266 O 0.49926 -0.06045 -0.08687
 O267 O 0.54186 0.00539 0.12100
 O268 O 0.47798 -0.03841 -0.18628
 O269 O 0.49820 -0.06563 0.05452
 O270 O 0.55399 0.08489 -0.06626
 C271 C 0.56082 0.07133 -0.13351
 C272 C 0.48948 -0.07724 0.12820
 C273 C 0.57069 0.04293 0.11599
 C274 C 0.49681 -0.05583 -0.16264
 O275 O 0.42249 -0.02089 -0.14239
 O276 O 0.49552 0.01715 0.21764
 O277 O 0.47918 0.07468 -0.01807
 O278 O 0.41662 -0.08164 0.06042
 O279 O 0.43202 -0.02510 0.12712
 O280 O 0.48073 0.05716 -0.14357
 O281 O 0.41772 -0.07811 -0.09211
 O282 O 0.48551 0.05288 0.12039
 Co283 Co 0.47940 0.00735 -0.14417
 Co284 Co 0.48722 -0.00824 0.11808
 Co285 Co 0.51741 0.06364 0.02644
 Co286 Co 0.45972 -0.06641 -0.01513
 O287 O 0.48576 -0.00182 -0.00948
 C288 C 0.40176 -0.06012 -0.13209
 C289 C 0.49363 0.04992 0.19666
 C290 C 0.47788 0.08092 -0.09404
 C291 C 0.40561 -0.06257 0.10861
 C292 C 1.14510 0.52920 0.20893
 C293 C 1.16915 0.52514 0.27186
 C294 C 1.15987 0.48520 0.29995
 C295 C 1.12682 0.44873 0.26094
 C296 C 1.10438 0.45291 0.19293
 C297 C 1.11189 0.49349 0.17009
 C298 C 1.07584 0.41609 0.14911
 N299 N 1.06804 0.37790 0.17611
 N300 N 1.08682 0.37380 0.24367
 C301 C 1.11577 0.40785 0.28723
 H302 H 1.15166 0.56045 0.19237
 H303 H 1.19444 0.55336 0.30075
 H304 H 1.06059 0.41710 0.09213
 H305 H 1.13036 0.40266 0.34112
 C306 C 0.52967 0.61505 0.31467
 C307 C 0.53901 0.64956 0.36324
 C308 C 0.56850 0.69108 0.33616
 C309 C 0.59179 0.69737 0.26224
 C310 C 0.58337 0.66205 0.21452
 C311 C 0.55000 0.62089 0.23823
 C312 C 0.60898 0.66915 0.14455
 N313 N 0.63984 0.70899 0.12294
 N314 N 0.64719 0.74221 0.16692
 C315 C 0.62442 0.73779 0.23593
 H316 H 0.50433 0.58394 0.33425
 H317 H 0.52109 0.64396 0.42001
 H318 H 0.60562 0.64341 0.10809
 H319 H 0.63254 0.76583 0.27033
 C320 C 0.35325 -0.12824 0.18146
 C321 C 0.32018 -0.15131 0.23701
 C322 C 0.29707 -0.13467 0.26800
 C323 C 0.30734 -0.09388 0.23930
 C324 C 0.34163 -0.07002 0.18323
 C325 C 0.36540 -0.08711 0.15558
 C326 C 0.35033 -0.03012 0.15565
 N327 N 0.32658 -0.01512 0.18286
 N328 N 0.29458 -0.03737 0.23527
 C329 C 0.28402 -0.07624 0.26403
 H330 H 0.37102 -0.14201 0.16215
 H331 H 0.31346 -0.18206 0.25838
 H332 H 0.37514 -0.01105 0.11141
 H333 H 0.25741 -0.09311 0.30568
 C334 C 0.90797 0.52562 0.23010
 C335 C 0.88344 0.53361 0.28197
 C336 C 0.86022 0.50570 0.34735
 C337 C 0.86318 0.46975 0.36283
 C338 C 0.88821 0.46137 0.30986
 C339 C 0.91024 0.48938 0.24143
 C340 C 0.88847 0.42416 0.32565
 N341 N 0.86604 0.39802 0.39034
 N342 N 0.84293 0.40611 0.43994
 C343 C 0.84057 0.44090 0.42818
 H344 H 0.92440 0.54744 0.17853
 H345 H 0.88146 0.56118 0.26934
 H346 H 0.90594 0.41514 0.28777
 H347 H 0.82088 0.44556 0.46979
 C348 C 0.50710 0.37457 0.12849
 C349 C 0.49601 0.33719 0.17278
 C350 C 0.52129 0.33425 0.23379
 C351 C 0.56374 0.36730 0.24100
 C352 C 0.56968 0.41804 0.21758
 C353 C 0.53996 0.41534 0.15141
 C354 C 0.61052 0.46643 0.36635
 N355 N 0.61968 0.43703 0.42658
 N356 N 0.60907 0.39240 0.40998
 C357 C 0.58658 0.35978 0.33329
 H358 H 0.48470 0.37193 0.08147
 H359 H 0.46484 0.30988 0.16261
 H360 H 0.61635 0.49653 0.38607
 H361 H 0.58205 0.32886 0.34274
 C362 C 0.63490 0.10473 0.17349
 C363 C 0.66762 0.12346 0.23114
 C364 C 0.67936 0.09930 0.27815
 C365 C 0.65972 0.05567 0.26138
 C366 C 0.62641 0.03638 0.20151
 C367 C 0.61205 0.06078 0.16059
 C368 C 0.60934 -0.00646 0.18432
 N369 N 0.62364 -0.02857 0.22582
 N370 N 0.65390 -0.01078 0.28336
 C371 C 0.67239 0.03058 0.30262
 H372 H 0.62572 0.12487 0.14295
 H373 H 0.68259 0.15699 0.24229
 H374 H 0.58598 -0.02222 0.13623
 H375 H 0.69723 0.04367 0.34902
 C376 C 0.43808 0.11157 -0.15488
 C377 C 0.43638 0.14049 -0.20961
 C378 C 0.47325 0.17511 -0.24422
 C379 C 0.51270 0.18291 -0.21519
 C380 C 0.51412 0.15608 -0.15265
 C381 C 0.47667 0.11791 -0.12807
 C382 C 0.55360 0.16749 -0.11996
 N383 N 0.58919 0.20112 -0.15178
 N384 N 0.58804 0.22394 -0.21561
 C385 C 0.55115 0.21541 -0.24963
 H386 H 0.40910 0.08280 -0.13735
 H387 H 0.40591 0.13355 -0.23152
 H388 H 0.55668 0.14995 -0.07031
 H389 H 0.55244 0.23438 -0.30287
 C390 C 0.65080 0.58077 -0.21085
 C391 C 0.67373 0.56949 -0.26196
 C392 C 0.65581 0.53904 -0.32568
 C393 C 0.61151 0.51776 -0.33514
 C394 C 0.58483 0.53428 -0.28112
 C395 C 0.60736 0.56422 -0.21912
 C396 C 0.53442 0.52045 -0.30247
 N397 N 0.50621 0.48938 -0.37102
 N398 N 0.52175 0.46964 -0.42759
 C399 C 0.58625 0.48410 -0.41198
 H400 H 0.66784 0.60287 -0.16115
 H401 H 0.70731 0.58581 -0.25115
 H402 H 0.52578 0.54289 -0.28740
 H403 H 0.60416 0.47437 -0.44823
 C404 C 0.85301 0.34452 -0.19521
 C405 C 0.83491 0.31330 -0.25588
 C406 C 0.85757 0.29700 -0.29127
 C407 C 0.89742 0.30903 -0.25731
 C408 C 0.91507 0.33971 -0.19357
 C409 C 0.89424 0.36025 -0.16806
 C410 C 0.95260 0.34798 -0.15517
 N411 N 0.97187 0.32802 -0.18152
 N412 N 0.95603 0.30025 -0.24331
 C413 C 0.91954 0.29009 -0.28214
 H414 H 0.83556 0.35812 -0.17315
 H415 H 0.80346 0.30292 -0.27786
 H416 H 0.96651 0.36978 -0.10389
 H417 H 0.90771 0.26668 -0.33076
 C418 C 0.55231 -0.06831 -0.20318
 C419 C 0.56846 -0.08700 -0.25176
 C420 C 0.54566 -0.11195 -0.31974
 C421 C 0.50600 -0.11775 -0.34031
 C422 C 0.48986 -0.09798 -0.29194
 C423 C 0.51320 -0.07350 -0.22189
 C424 C 0.45002 -0.10517 -0.31358
 N425 N 0.42826 -0.13027 -0.37881
 N426 N 0.44328 -0.14911 -0.42358
 C427 C 0.48116 -0.14398 -0.40630
 H428 H 0.57037 -0.04992 -0.14972
 H429 H 0.59852 -0.08284 -0.23507
 H430 H 0.43548 -0.09163 -0.27963
 H431 H 0.49113 -0.16085 -0.44397
 C432 C 0.36373 0.50513 -0.11711
 C433 C 0.33617 0.49873 -0.18267
 C434 C 0.32330 0.46552 -0.23884
 C435 C 0.33388 0.43480 -0.22102
 C436 C 0.36012 0.44005 -0.15125
 C437 C 0.37838 0.47774 -0.10363
 C438 C 0.36689 0.40709 -0.13149
 N439 N 0.35014 0.37248 -0.18032
 N440 N 0.32658 0.36820 -0.24697
 C441 C 0.31767 0.39797 -0.26869
 H442 H 0.37607 0.53356 -0.08080
 H443 H 0.32711 0.52170 -0.19314
 H444 H 0.38392 0.40756 -0.07602
 H445 H 0.29736 0.39217 -0.32206
 C446 C 1.11135 0.61478 -0.21417
 C447 C 1.13180 0.64793 -0.27189
 C448 C 1.11515 0.67275 -0.29492
 C449 C 1.07809 0.66515 -0.25523
 C450 C 1.05738 0.63152 -0.19567
 C451 C 1.07352 0.60521 -0.17735
 C452 C 1.02166 0.62611 -0.15514
 N453 N 1.00737 0.65195 -0.17462
 N454 N 1.02649 0.68305 -0.23129
 C455 C 1.06140 0.69065 -0.27196
 H456 H 1.12431 0.59524 -0.20104
 H457 H 1.16041 0.65361 -0.30071
 H458 H 1.00543 0.60235 -0.10677
 H459 H 1.07598 0.71671 -0.31657
 C460 C 0.87230 0.52737 -0.13936
 C461 C 0.84535 0.53555 -0.18559
 C462 C 0.82341 0.51079 -0.25478
 C463 C 0.82570 0.47496 -0.27269
 C464 C 0.85510 0.46846 -0.23020
 C465 C 0.87920 0.49546 -0.16341
 C466 C 0.85917 0.43499 -0.25680
 N467 N 0.83415 0.40900 -0.31833
 N468 N 0.80523 0.41415 -0.35571
 C469 C 0.80008 0.44615 -0.33493
 H470 H 0.88995 0.54779 -0.08780
 H471 H 0.84395 0.56305 -0.17099
 H472 H 0.88176 0.42894 -0.22988
 H473 H 0.77604 0.44891 -0.36710
 C474 C 0.50520 0.40178 -0.20813
 C475 C 0.49408 0.36929 -0.26532
 C476 C 0.50642 0.37401 -0.34987
 C477 C 0.52764 0.41621 -0.38133
 C478 C 0.54077 0.45997 -0.31226
 C479 C 0.52762 0.44569 -0.22466
 C480 C 0.57070 0.53162 -0.42717
 N481 N 0.56773 0.51429 -0.51873
 N482 N 0.55277 0.46929 -0.54135
 C483 C 0.53594 0.42522 -0.48975
 H484 H 0.49336 0.39089 -0.14506
 H485 H 0.47367 0.33766 -0.24016
 H486 H 0.58117 0.56471 -0.41756
 H487 H 0.53550 0.40097 -0.52313
 C488 C 0.63018 0.08484 -0.16641
 C489 C 0.66257 0.09734 -0.22345
 C490 C 0.66729 0.12351 -0.29205
 C491 C 0.63828 0.13658 -0.30433
 C492 C 0.60286 0.11993 -0.25176
 C493 C 0.60001 0.09564 -0.18000
 C494 C 0.57053 0.12660 -0.27530
 N495 N 0.57572 0.15221 -0.34161
 N496 N 0.61082 0.17101 -0.38670
 C497 C 0.64233 0.16413 -0.37035
 H498 H 0.62687 0.06404 -0.11462
 H499 H 0.68394 0.08632 -0.21444
 H500 H 0.54126 0.11172 -0.24167
 H501 H 0.66981 0.17962 -0.40998
 C502 C 1.12041 0.47992 -0.14202
 C503 C 1.15002 0.47996 -0.19415
 C504 C 1.13852 0.46039 -0.27275
 C505 C 1.09528 0.43730 -0.29506
 C506 C 1.06572 0.43987 -0.24509
 C507 C 1.07857 0.46189 -0.16788
 C508 C 1.02408 0.41980 -0.27441
 N509 N 1.01238 0.39648 -0.34486
 N510 N 1.03957 0.39180 -0.38855
 C511 C 1.08045 0.41101 -0.36564
 H512 H 1.13107 0.49714 -0.08395
 H513 H 1.18267 0.49760 -0.17480
 H514 H 1.00036 0.42137 -0.24143
 H515 H 1.10096 0.40543 -0.40267
 C516 C 0.55682 0.66977 -0.14492
 C517 C 0.57072 0.70549 -0.19522
 C518 C 0.54808 0.70384 -0.26658
 C519 C 0.50919 0.66634 -0.28500
 C520 C 0.49429 0.63018 -0.23239
 C521 C 0.51954 0.63158 -0.16366
 C522 C 0.45423 0.59454 -0.24992
 N523 N 0.43198 0.59490 -0.31720
 N524 N 0.44656 0.62854 -0.36772
 C525 C 0.48419 0.66427 -0.35378
 H526 H 0.57618 0.67175 -0.09204
 H527 H 0.60031 0.73404 -0.18048
 H528 H 0.43939 0.56675 -0.21037
 H529 H 0.49383 0.69094 -0.39580
 C530 C 0.35459 -0.12512 -0.20920
 C531 C 0.32427 -0.14751 -0.26968
 C532 C 0.29957 -0.13259 -0.30276
 C533 C 0.30518 -0.09445 -0.27195
 C534 C 0.33645 -0.07134 -0.21017
 C535 C 0.36249 -0.08617 -0.18088
 C536 C 0.33969 -0.03474 -0.17852
 N537 N 0.31419 -0.02180 -0.20837
 N538 N 0.28540 -0.04310 -0.26708
 C539 C 0.27987 -0.07903 -0.29954
 H540 H 0.37360 -0.13753 -0.18783
 H541 H 0.32032 -0.17672 -0.29180
 H542 H 0.36127 -0.01689 -0.12870
 H543 H 0.25558 -0.09537 -0.34619
 C544 C 0.48746 -0.11783 0.25367
 C545 C 0.50338 -0.13661 0.30510
 C546 C 0.53689 -0.14025 0.27901
 C547 C 0.55212 -0.12806 0.19625
 C548 C 0.53368 -0.11186 0.14086
 C549 C 0.50300 -0.10374 0.17251
 C550 C 0.54791 -0.10354 0.05703
 N551 N 0.57986 -0.10813 0.03327
 N552 N 0.59867 -0.12070 0.08693
 C553 C 0.58602 -0.13065 0.16759
 H554 H 0.46339 -0.11331 0.27867
 H555 H 0.49079 -0.14656 0.36783
 H556 H 0.53392 -0.09446 0.00876
 H557 H 0.60257 -0.14058 0.20837
 C558 C 0.37699 0.50384 0.20354
 C559 C 0.34907 0.49840 0.26573
 C560 C 0.33309 0.46424 0.32192
 C561 C 0.34461 0.43387 0.31249
 C562 C 0.37406 0.43970 0.24938
 C563 C 0.39187 0.47636 0.19607
 C564 C 0.38416 0.40842 0.24289
 N565 N 0.36637 0.37437 0.29556
 N566 N 0.33901 0.36916 0.35419
 C567 C 0.32740 0.39760 0.36419
 H568 H 0.38864 0.53151 0.16317
 H569 H 0.34016 0.52162 0.27075
 H570 H 0.40496 0.40958 0.19569
 H571 H 0.30469 0.39150 0.41221
 C572 C 1.08538 0.59708 0.25012
 C573 C 1.10825 0.63264 0.29888
 C574 C 1.10765 0.66933 0.28217
 C575 C 1.08370 0.67010 0.21338
 C576 C 1.06093 0.63389 0.16217
 C577 C 1.06179 0.59705 0.18127
 C578 C 1.03724 0.63561 0.09505
 N579 N 1.03674 0.67130 0.08012
 N580 N 1.05807 0.70518 0.12803
 C581 C 1.08138 0.70575 0.19431
 H582 H 1.08707 0.56952 0.26520
 H583 H 1.12650 0.63147 0.35091
 H584 H 1.01873 0.60883 0.05506
 H585 H 1.09784 0.73397 0.23150
 C586 C 0.45487 0.08054 0.24999
 C587 C 0.45209 0.10991 0.29667
 C588 C 0.48394 0.13553 0.35294
 C589 C 0.51848 0.13033 0.36531
 C590 C 0.52121 0.10014 0.31792
 C591 C 0.48945 0.07585 0.25870
 C592 C 0.55663 0.09679 0.32894
 N593 N 0.58697 0.12191 0.38447
 N594 N 0.58433 0.15020 0.42920
 C595 C 0.55118 0.15531 0.42153
 H596 H 0.43039 0.06217 0.20460
 H597 H 0.42555 0.11366 0.28704
 H598 H 0.56060 0.07461 0.29396
 H599 H 0.55079 0.17895 0.45907
 C600 C 0.66685 0.56019 0.17684
 C601 C 0.69570 0.54996 0.20560
 C602 C 0.68279 0.51150 0.24629
 C603 C 0.64073 0.47725 0.23486
 C604 C 0.60755 0.49414 0.23188
 C605 C 0.62389 0.53480 0.19562
 C606 C 0.56060 0.46988 0.28214
 N607 N 0.54150 0.42743 0.33216
 N608 N 0.56437 0.40499 0.34492
 C609 C 0.62533 0.43101 0.28461
 H610 H 0.67880 0.59046 0.14541
 H611 H 0.72867 0.57468 0.20588
 H612 H 0.54827 0.48873 0.29812
 H613 H 0.64865 0.42189 0.29039
 C614 C 0.86791 0.33658 0.18566
 C615 C 0.84786 0.30439 0.24486
 C616 C 0.86679 0.28307 0.27547
 C617 C 0.90512 0.29191 0.24059
 C618 C 0.92548 0.32442 0.17864
 C619 C 0.90788 0.34886 0.15498
 C620 C 0.96227 0.33061 0.14210
 N621 N 0.97803 0.30678 0.16806
 N622 N 0.95965 0.27735 0.22814
 C623 C 0.92378 0.26919 0.26551
 H624 H 0.85295 0.35382 0.16829
 H625 H 0.81807 0.29733 0.27010
 H626 H 0.97799 0.35309 0.09147
 H627 H 0.90977 0.24461 0.31328
   
