data_POSCAR
  _audit_creation_date              2014-09-24
  _audit_creation_method            'ToBaCCo'
  _symmetry_space_group_name_H-M    'P1'
  _symmetry_Int_Tables_number       1
  _symmetry_cell_setting            triclinic
  loop_
  _symmetry_equiv_pos_as_xyz
 x,y,z
_cell_length_a 38.5203
_cell_length_b 38.7093
_cell_length_c 38.5255
_cell_angle_alpha 86.206000
_cell_angle_beta 64.449700
_cell_angle_gamma 90.476100
loop_
  _atom_site_label
  _atom_site_type_symbol
  _atom_site_fract_x
  _atom_site_fract_y
  _atom_site_fract_z
C1 C 0.51283 0.49110 -0.00153
 C2 C 0.48717 0.51474 -0.00193
 C3 C 0.45170 0.50511 -0.00601
 C4 C 0.49299 0.55196 0.00180
 C5 C 0.54788 0.50114 0.00273
 C6 C 0.50778 0.45394 -0.00578
 C7 C 0.44399 0.52282 -0.03456
 C8 C 0.40934 0.51677 -0.03693
 C9 C 0.38054 0.49281 -0.01038
 C10 C 0.38952 0.47424 0.01761
 C11 C 0.42431 0.48058 0.01989
 C12 C 0.52348 0.57202 -0.02720
 C13 C 0.52575 0.60795 -0.02561
 C14 C 0.49743 0.62435 0.00494
 C15 C 0.46777 0.60387 0.03459
 C16 C 0.46545 0.56808 0.03287
 C17 C 0.54593 0.50715 0.03902
 C18 C 0.57975 0.51325 0.04325
 C19 C 0.61585 0.51398 0.01110
 C20 C 0.61749 0.50884 -0.02533
 C21 C 0.58381 0.50208 -0.02937
 C22 C 0.50355 0.42940 0.02435
 C23 C 0.50067 0.39410 0.02020
 C24 C 0.50264 0.38269 -0.01444
 C25 C 0.50681 0.40733 -0.04463
 C26 C 0.50917 0.44275 -0.04025
 H27 H 0.46497 0.54162 -0.05520
 H28 H 0.40642 0.53042 -0.06083
 H29 H 0.36902 0.45642 0.03993
 H30 H 0.42921 0.46719 0.04287
 H31 H 0.54458 0.56007 -0.05179
 H32 H 0.54867 0.62302 -0.04911
 H33 H 0.44168 0.55296 0.05542
 H34 H 0.51836 0.50619 0.06412
 H35 H 0.57779 0.51722 0.07159
 H36 H 0.64497 0.50892 -0.05045
 H37 H 0.58573 0.49716 -0.05749
 H38 H 0.50263 0.43761 0.05105
 H39 H 0.49797 0.37564 0.04370
 H40 H 0.50829 0.39915 -0.07156
 H41 H 0.51281 0.46141 -0.06391
 H42 H 0.44592 0.61560 0.05885
 C43 C 0.00148 0.50821 0.51815
 C44 C -0.00366 0.48492 0.49590
 C45 C 0.00031 0.44745 0.50246
 C46 C -0.00980 0.49583 0.46145
 C47 C -0.00236 0.54564 0.51116
 C48 C 0.00770 0.49765 0.55271
 C49 C 0.03691 0.43354 0.48732
 C50 C 0.04068 0.39767 0.48922
 C51 C 0.00784 0.37518 0.50637
 C52 C -0.02874 0.38938 0.52274
 C53 C -0.03246 0.42523 0.52063
 C54 C 0.02079 0.51083 0.42799
 C55 C 0.01627 0.51781 0.39412
 C56 C -0.01884 0.50949 0.39301
 C57 C -0.04968 0.49516 0.42688
 C58 C -0.04519 0.48842 0.46078
 C59 C -0.03829 0.56023 0.52982
 C60 C -0.04159 0.59609 0.52684
 C61 C -0.00890 0.61794 0.50522
 C62 C 0.02689 0.60303 0.48549
 C63 C 0.03013 0.56713 0.48855
 C64 C -0.02109 0.47871 0.58461
 C65 C -0.01719 0.47262 0.61895
 C66 C 0.01543 0.48570 0.62212
 C67 C 0.04468 0.50382 0.58972
 C68 C 0.04078 0.50980 0.55542
 H69 H 0.06245 0.45045 0.47304
 H70 H 0.06923 0.38747 0.47676
 H71 H -0.05456 0.37272 0.53578
 H72 H -0.06093 0.43560 0.53243
 H73 H 0.04854 0.51609 0.42777
 H74 H 0.04071 0.52841 0.36838
 H75 H -0.06917 0.47690 0.48632
 H76 H -0.06359 0.54387 0.54745
 H77 H -0.06961 0.60679 0.54192
 H78 H 0.05264 0.61918 0.46898
 H79 H 0.05812 0.55619 0.47417
 H80 H -0.04729 0.46986 0.58347
 H81 H -0.04046 0.45901 0.64354
 H82 H 0.07037 0.51380 0.59107
 H83 H 0.06333 0.52450 0.53120
 H84 H -0.07718 0.48886 0.42701
 C85 C 0.51912 -0.00175 0.47684
 C86 C 0.48603 -0.00147 0.50985
 C87 C 0.48561 0.00057 0.54835
 C88 C 0.44815 -0.00368 0.50886
 C89 C 0.51810 0.00008 0.43883
 C90 C 0.55767 -0.00298 0.47667
 C91 C 0.46241 -0.02309 0.57890
 C92 C 0.46134 -0.02155 0.61539
 C93 C 0.48359 0.00380 0.62250
 C94 C 0.50662 0.02776 0.59149
 C95 C 0.50724 0.02637 0.55508
 C96 C 0.43561 -0.03430 0.49949
 C97 C 0.39928 -0.03670 0.49984
 C98 C 0.37528 -0.00833 0.50909
 C99 C 0.38809 0.02240 0.51812
 C100 C 0.42416 0.02457 0.51839
 C101 C 0.50743 0.03054 0.42481
 C102 C 0.50757 0.03259 0.38844
 C103 C 0.51789 0.00403 0.36588
 C104 C 0.52820 -0.02655 0.38017
 C105 C 0.52871 -0.02837 0.41628
 C106 C 0.58682 0.02111 0.45265
 C107 C 0.62315 0.02067 0.45228
 C108 C 0.63149 -0.00398 0.47608
 C109 C 0.60194 -0.02848 0.49979
 C110 C 0.56571 -0.02817 0.49973
 H111 H 0.44553 -0.04328 0.57433
 H112 H 0.44423 -0.04146 0.63737
 H113 H 0.52308 0.04868 0.59537
 H114 H 0.52443 0.04562 0.53218
 H115 H 0.45383 -0.05638 0.49235
 H116 H 0.39000 -0.06056 0.49261
 H117 H 0.43349 0.04829 0.52585
 H118 H 0.49942 0.05276 0.44190
 H119 H 0.49933 0.05633 0.37801
 H120 H 0.53652 -0.04877 0.36309
 H121 H 0.53715 -0.05197 0.42678
 H122 H 0.58120 0.04087 0.43467
 H123 H 0.64390 0.04093 0.43452
 H124 H 0.60690 -0.04895 0.51743
 H125 H 0.54392 -0.04771 0.51765
 H126 H 0.36987 0.04446 0.52562
 O127 O 0.47445 0.00262 -0.04328
 O128 O 0.47215 -0.00200 0.05324
 O129 O 0.46845 0.04767 0.00612
 O130 O 0.47797 -0.04669 0.00406
 O131 O 0.54121 -0.03956 -0.02145
 O132 O 0.53173 0.05519 -0.02167
 O133 O 0.53529 0.00682 0.02688
 O134 O 0.53778 0.00927 -0.06978
 Cu135 Cu 0.46691 -0.00030 0.00766
 Cu136 Cu 0.54288 0.00863 -0.02412
 C137 C 0.50646 0.00663 -0.07305
 C138 C 0.50333 0.00176 0.05657
 C139 C 0.49844 0.06761 -0.00770
 C140 C 0.51113 -0.05935 -0.00878
 O141 O -0.05447 0.53012 1.01665
 O142 O 0.04846 0.52762 0.99456
 O143 O 0.00880 0.52770 0.95421
 O144 O -0.01458 0.52956 1.05752
 O145 O -0.01948 0.47245 1.06401
 O146 O 0.00409 0.47058 0.96069
 O147 O 0.04409 0.47050 1.00154
 O148 O -0.05917 0.47300 1.02358
 Cu149 Cu -0.00256 0.53444 1.00516
 Cu150 Cu -0.00801 0.46592 1.01304
 C151 C -0.07432 0.50200 1.02335
 C152 C 0.06382 0.49873 0.99474
 C153 C 0.00996 0.49885 0.93986
 C154 C -0.02055 0.50127 1.07834
 O155 O 0.01360 -0.04534 0.46414
 O156 O 0.01076 0.04878 0.47414
 O157 O 0.06053 0.00207 0.46702
 O158 O -0.03618 0.00179 0.47056
 O159 O -0.06200 -0.00785 0.53392
 O160 O 0.03506 -0.00841 0.53031
 O161 O -0.01483 0.03898 0.53748
 O162 O -0.01257 -0.05488 0.52752
 Cu163 Cu 0.01470 0.00278 0.46260
 Cu164 Cu -0.01614 -0.00896 0.53869
 C165 C 0.00081 -0.06623 0.49421
 C166 C -0.00231 0.05998 0.50753
 C167 C 0.06436 -0.00308 0.49803
 C168 C -0.06564 -0.00317 0.50273
 C169 C -0.31881 0.54228 0.99035
 C170 C -0.28365 0.54484 0.99268
 C171 C -0.27680 0.52333 1.01955
 C172 C -0.30622 0.49999 1.04524
 C173 C -0.34168 0.49784 1.04340
 C174 C -0.34804 0.51856 1.01548
 N175 N -0.23944 0.52494 1.01919
 N176 N -0.22861 0.50196 1.03721
 C177 C -0.19084 0.50335 1.03592
 C178 C -0.17767 0.47396 1.04899
 C179 C -0.13999 0.47362 1.04557
 C180 C -0.11504 0.50303 1.02961
 C181 C -0.12880 0.53294 1.01777
 C182 C -0.16626 0.53304 1.02062
 H183 H -0.32311 0.55864 0.96873
 H184 H -0.26126 0.56298 0.97278
 H185 H -0.30166 0.48319 1.06637
 H186 H -0.36369 0.47919 1.06290
 H187 H -0.19632 0.45092 1.06090
 H188 H -0.13027 0.45023 1.05506
 H189 H -0.11024 0.55596 1.00523
 H190 H -0.17583 0.55615 1.01049
 C191 C 0.32075 0.45876 1.00700
 C192 C 0.28453 0.45522 1.00699
 C193 C 0.27139 0.48110 0.98917
 C194 C 0.29532 0.51046 0.97054
 C195 C 0.33158 0.51410 0.97018
 C196 C 0.34540 0.48850 0.98876
 N197 N 0.23341 0.47752 0.99121
 N198 N 0.21904 0.50180 0.97827
 C199 C 0.18092 0.49949 0.98059
 C200 C 0.16619 0.52903 0.96975
 C201 C 0.12842 0.52857 0.97361
 C202 C 0.10470 0.49827 0.98805
 C203 C 0.11992 0.46824 0.99786
 C204 C 0.15768 0.46888 0.99437
 H205 H 0.32942 0.43713 1.02019
 H206 H 0.26651 0.43219 1.02116
 H207 H 0.28575 0.53107 0.95674
 H208 H 0.34720 0.53839 0.95715
 H209 H 0.18384 0.55275 0.95903
 H210 H 0.11765 0.55208 0.96568
 H211 H 0.10232 0.44455 1.00919
 H212 H 0.16849 0.44566 1.00283
 C213 C -0.03403 -0.32863 0.53976
 C214 C -0.03524 -0.29266 0.54058
 C215 C -0.01431 -0.27119 0.50712
 C216 C 0.00768 -0.28612 0.47238
 C217 C 0.00901 -0.32219 0.47151
 C218 C -0.01169 -0.34383 0.50528
 N219 N -0.01522 -0.23446 0.50966
 N220 N 0.00235 -0.21291 0.48062
 C221 C 0.00148 -0.17631 0.48441
 C222 C 0.01927 -0.15351 0.45135
 C223 C 0.01906 -0.11767 0.45434
 C224 C 0.00121 -0.10409 0.49065
 C225 C -0.01653 -0.12710 0.52379
 C226 C -0.01648 -0.16283 0.52072
 H227 H -0.04977 -0.34454 0.56638
 H228 H -0.05214 -0.28142 0.56754
 H229 H 0.02408 -0.26999 0.44611
 H230 H 0.02621 -0.33317 0.44447
 H231 H 0.03328 -0.16356 0.42321
 H232 H 0.03301 -0.10063 0.42829
 H233 H -0.03061 -0.11752 0.55217
 H234 H -0.03035 -0.17988 0.54676
 C235 C 0.03701 0.32302 0.47100
 C236 C 0.03865 0.28717 0.46870
 C237 C 0.01506 0.26475 0.50032
 C238 C -0.00998 0.27860 0.53475
 C239 C -0.01179 0.31450 0.53705
 C240 C 0.01148 0.33710 0.50508
 N241 N 0.01629 0.22822 0.49624
 N242 N -0.00328 0.20613 0.52407
 C243 C -0.00251 0.16970 0.51931
 C244 C -0.02178 0.14653 0.55173
 C245 C -0.02174 0.11084 0.54800
 C246 C -0.00264 0.09776 0.51155
 C247 C 0.01648 0.12114 0.47898
 C248 C 0.01668 0.15678 0.48282
 H249 H 0.05488 0.33975 0.44572
 H250 H 0.05795 0.27680 0.44199
 H251 H -0.02849 0.26176 0.55962
 H252 H -0.03149 0.32462 0.56375
 H253 H -0.03678 0.15617 0.57999
 H254 H -0.03680 0.09352 0.57363
 H255 H 0.03154 0.11189 0.45053
 H256 H 0.03165 0.17419 0.45727
 C257 C 0.45039 -0.00787 -0.30677
 C258 C 0.45006 -0.00751 -0.27044
 C259 C 0.48206 0.00528 -0.26659
 C260 C 0.51446 0.01847 -0.29954
 C261 C 0.51482 0.01851 -0.33597
 C262 C 0.48290 0.00494 -0.34044
 N263 N 0.48095 0.00426 -0.22895
 N264 N 0.51009 0.01267 -0.22348
 C265 C 0.50852 0.01133 -0.18562
 C266 C 0.54224 0.01822 -0.18159
 C267 C 0.54170 0.01660 -0.14501
 C268 C 0.50720 0.00827 -0.11181
 C269 C 0.47332 0.00160 -0.11596
 C270 C 0.47397 0.00302 -0.15254
 H271 H 0.42438 -0.01717 -0.30791
 H272 H 0.42473 -0.01739 -0.24511
 H273 H 0.53965 0.02846 -0.29722
 H274 H 0.54103 0.02771 -0.36059
 H275 H 0.56902 0.02466 -0.20689
 H276 H 0.56825 0.02198 -0.14275
 H277 H 0.44631 -0.00490 -0.09096
 H278 H 0.44749 -0.00236 -0.15491
 C279 C 0.53765 0.03422 0.30044
 C280 C 0.53849 0.03609 0.26374
 C281 C 0.51940 0.01050 0.25368
 C282 C 0.49978 -0.01741 0.28060
 C283 C 0.49950 -0.01963 0.31706
 C284 C 0.51828 0.00626 0.32731
 N285 N 0.52069 0.01321 0.21594
 N286 N 0.49836 -0.00516 0.20741
 C287 C 0.50019 -0.00302 0.16945
 C288 C 0.46996 -0.01790 0.16387
 C289 C 0.47077 -0.01607 0.12720
 C290 C 0.50234 0.00012 0.09535
 C291 C 0.53293 0.01466 0.10093
 C292 C 0.53174 0.01336 0.13775
 H293 H 0.55258 0.05432 0.30767
 H294 H 0.55381 0.05763 0.24317
 H295 H 0.48501 -0.03761 0.27334
 H296 H 0.48427 -0.04133 0.33744
 H297 H 0.44558 -0.03069 0.18808
 H298 H 0.44692 -0.02768 0.12367
 H299 H 0.55756 0.02736 0.07690
 H300 H 0.55556 0.02485 0.14139
 C301 C 0.46239 -0.32024 0.01637
 C302 C 0.46188 -0.28418 0.01578
 C303 C 0.49611 -0.26432 0.00358
 C304 C 0.53122 -0.28098 -0.00801
 C305 C 0.53179 -0.31720 -0.00738
 C306 C 0.49732 -0.33724 0.00486
 N307 N 0.49409 -0.22739 0.00315
 N308 N 0.52363 -0.20699 -0.00830
 C309 C 0.52013 -0.17013 -0.00826
 C310 C 0.55337 -0.14853 -0.02162
 C311 C 0.55064 -0.11246 -0.02193
 C312 C 0.51445 -0.09745 -0.00878
 C313 C 0.48117 -0.11927 0.00462
 C314 C 0.48395 -0.15520 0.00487
 H315 H 0.43542 -0.33479 0.02519
 H316 H 0.43469 -0.27160 0.02460
 H317 H 0.55807 -0.26609 -0.01750
 H318 H 0.55911 -0.32953 -0.01614
 H319 H 0.58142 -0.15967 -0.03183
 H320 H 0.57681 -0.09638 -0.03241
 H321 H 0.45287 -0.10860 0.01495
 H322 H 0.45778 -0.17128 0.01536
 C323 C 0.52952 0.33139 -0.05251
 C324 C 0.53087 0.29559 -0.05561
 C325 C 0.50442 0.27299 -0.02592
 C326 C 0.47604 0.28666 0.00684
 C327 C 0.47494 0.32241 0.01017
 C328 C 0.50190 0.34509 -0.01931
 N329 N 0.50799 0.23638 -0.02893
 N330 N 0.48275 0.21459 -0.00491
 C331 C 0.48707 0.17796 -0.00685
 C332 C 0.45577 0.15558 0.01647
 C333 C 0.45930 0.11968 0.01594
 C334 C 0.49453 0.10558 -0.00754
 C335 C 0.52600 0.12814 -0.03083
 C336 C 0.52226 0.16403 -0.03068
 H337 H 0.55086 0.34830 -0.07546
 H338 H 0.55295 0.28536 -0.08093
 H339 H 0.45531 0.26972 0.03022
 H340 H 0.45322 0.33236 0.03593
 H341 H 0.42857 0.16601 0.03510
 H342 H 0.43459 0.10297 0.03430
 H343 H 0.55346 0.11804 -0.04932
 H344 H 0.54695 0.18084 -0.04878
 C345 C -0.29852 0.00952 0.44363
 C346 C -0.26251 0.01030 0.44410
 C347 C -0.25853 -0.00195 0.47700
 C348 C -0.29098 -0.01564 0.50956
 C349 C -0.32708 -0.01678 0.50916
 C350 C -0.33171 -0.00389 0.47626
 N351 N -0.22121 -0.00012 0.47646
 N352 N -0.21566 -0.00846 0.50611
 C353 C -0.17801 -0.00657 0.50485
 C354 C -0.17376 -0.01436 0.53875
 C355 C -0.13728 -0.01293 0.53828
 C356 C -0.10441 -0.00383 0.50369
 C357 C -0.10884 0.00407 0.46971
 C358 C -0.14528 0.00279 0.47028
 H359 H -0.29968 0.01838 0.41695
 H360 H -0.23753 0.02054 0.41864
 H361 H -0.28855 -0.02522 0.53544
 H362 H -0.35142 -0.02635 0.53549
 H363 H -0.19878 -0.02160 0.56556
 H364 H -0.13480 -0.01925 0.56490
 H365 H -0.08411 0.01120 0.44262
 H366 H -0.14781 0.00892 0.44366
 C367 C 0.31126 -0.03897 0.53016
 C368 C 0.27451 -0.04092 0.53141
 C369 C 0.26307 -0.01525 0.51166
 C370 C 0.28868 0.01275 0.49086
 C371 C 0.32518 0.01504 0.49014
 C372 C 0.33678 -0.01086 0.50969
 N373 N 0.22524 -0.01788 0.51353
 N374 N 0.21570 0.00084 0.49090
 C375 C 0.17768 -0.00091 0.49318
 C376 C 0.17123 0.01485 0.46290
 C377 C 0.13443 0.01378 0.46426
 C378 C 0.10331 -0.00256 0.49644
 C379 C 0.10976 -0.01809 0.52703
 C380 C 0.14675 -0.01753 0.52530
 H381 H 0.31956 -0.05907 0.54569
 H382 H 0.25494 -0.06254 0.54763
 H383 H 0.28036 0.03301 0.47555
 H384 H 0.34451 0.03684 0.47405
 H385 H 0.19486 0.02784 0.43809
 H386 H 0.13023 0.02616 0.44039
 H387 H 0.08629 -0.03091 0.55212
 H388 H 0.15109 -0.02969 0.54918
 C389 C -0.00681 0.54369 1.33076
 C390 C -0.00855 0.54681 1.29514
 C391 C -0.02564 0.52023 1.28411
 C392 C -0.04192 0.49069 1.30965
 C393 C -0.04047 0.48765 1.34536
 C394 C -0.02252 0.51393 1.35615
 N395 N -0.02485 0.52323 1.24645
 N396 N -0.03655 0.49849 1.23347
 C397 C -0.03490 0.50064 1.19549
 C398 C -0.04385 0.47084 1.18184
 C399 C -0.04004 0.47122 1.14405
 C400 C -0.02755 0.50167 1.11928
 C401 C -0.01977 0.53193 1.13346
 C402 C -0.02321 0.53140 1.17120
 H403 H 0.00689 0.56448 1.33843
 H404 H 0.00407 0.56972 1.27576
 H405 H -0.05529 0.46975 1.30184
 H406 H -0.05239 0.46424 1.36407
 H407 H -0.05293 0.44699 1.20028
 H408 H -0.04637 0.44752 1.13407
 H409 H -0.00998 0.55576 1.11507
 H410 H -0.01623 0.55481 1.18115
 C411 C 0.00578 0.45140 0.68373
 C412 C 0.00661 0.44903 0.71979
 C413 C 0.01929 0.47745 0.73257
 C414 C 0.03186 0.50825 0.70844
 C415 C 0.03122 0.51061 0.67236
 C416 C 0.01790 0.48231 0.65967
 N417 N 0.01801 0.47483 0.77044
 N418 N 0.02685 0.50057 0.78440
 C419 C 0.02479 0.49884 0.82254
 C420 C 0.03168 0.52923 0.83670
 C421 C 0.02769 0.52911 0.87454
 C422 C 0.01699 0.49836 0.89890
 C423 C 0.01115 0.46760 0.88425
 C424 C 0.01487 0.46784 0.84643
 H425 H -0.00431 0.42908 0.67464
 H426 H -0.00314 0.42513 0.73807
 H427 H 0.04172 0.53064 0.71762
 H428 H 0.04020 0.53494 0.65481
 H429 H 0.03939 0.55328 0.81857
 H430 H 0.03249 0.55322 0.88486
 H431 H 0.00278 0.44351 0.90229
 H432 H 0.00948 0.44398 0.83609
   
