data_POSCAR
  _audit_creation_date              2014-09-24
  _audit_creation_method            'ToBaCCo'
  _symmetry_space_group_name_H-M    'P1'
  _symmetry_Int_Tables_number       1
  _symmetry_cell_setting            triclinic
  loop_
  _symmetry_equiv_pos_as_xyz
 x,y,z
_cell_length_a 23.8953
_cell_length_b 23.6795
_cell_length_c 48.1157
_cell_angle_alpha 86.991200
_cell_angle_beta 94.004000
_cell_angle_gamma 60.268200
loop_
  _atom_site_label
  _atom_site_type_symbol
  _atom_site_fract_x
  _atom_site_fract_y
  _atom_site_fract_z
C1 C 0.06019 0.60990 1.00367
 C2 C 0.04907 0.58619 1.02885
 C3 C 0.02535 0.54246 1.02777
 C4 C 0.00658 0.52726 1.00200
 C5 C 0.01305 0.55682 0.97708
 C6 C 0.04193 0.59617 0.97759
 C7 C -0.01972 0.48107 1.00107
 C8 C -0.01821 0.44894 0.97690
 C9 C -0.04331 0.40646 0.97568
 C10 C -0.06702 0.39308 0.99949
 C11 C -0.06621 0.42143 1.02421
 C12 C -0.04496 0.46702 1.02453
 H13 H 0.08028 0.64203 1.00432
 H14 H 0.02220 0.52017 1.04729
 H15 H -0.00445 0.54957 0.95705
 H16 H 0.00372 0.45533 0.95904
 H17 H -0.08396 0.35832 0.99917
 H18 H -0.04855 0.49106 1.04331
 C19 C 0.39489 -0.05780 0.50539
 C20 C 0.41260 -0.03402 0.52842
 C21 C 0.45154 -0.00572 0.52502
 C22 C 0.47732 -0.00540 0.49943
 C23 C 0.45924 -0.03097 0.47675
 C24 C 0.41589 -0.05434 0.47923
 C25 C 0.52193 0.02208 0.49639
 C26 C 0.53259 0.04051 0.46973
 C27 C 0.57536 0.06457 0.46669
 C28 C 0.60365 0.07556 0.49087
 C29 C 0.59504 0.05707 0.51778
 C30 C 0.55535 0.02905 0.52018
 H31 H 0.36228 -0.07673 0.50764
 H32 H 0.46117 0.01595 0.54256
 H33 H 0.47827 -0.03310 0.45692
 H34 H 0.50732 0.03716 0.45099
 H35 H 0.63555 0.09538 0.48871
 H36 H 0.55198 0.01141 0.54077
 C37 C 0.09775 -0.03603 0.27131
 H38 H 0.10215 -0.02607 0.24967
 C39 C 0.14839 -0.04938 0.29184
 H40 H 0.19157 -0.05041 0.28565
 C41 C 0.03552 -0.04386 0.30589
 H42 H -0.00865 -0.04078 0.31161
 C43 C 0.08513 -0.05835 0.32695
 H44 H 0.07795 -0.06607 0.34848
 N45 N 0.04231 -0.03301 0.27861
 C46 C -0.04452 -0.10824 0.22360
 H47 H -0.08793 -0.09184 0.23385
 C48 C -0.02929 -0.15595 0.20499
 H49 H -0.06068 -0.17636 0.20170
 C50 C 0.04581 -0.09810 0.21349
 H51 H 0.07399 -0.07425 0.21623
 C52 C 0.06230 -0.14493 0.19445
 H53 H 0.10378 -0.15718 0.18309
 Zn54 Zn -0.02877 -0.01157 0.25107
 N55 N -0.00669 -0.08070 0.22774
 C56 C -0.09136 0.07685 0.20413
 N57 N -0.04921 0.06383 0.22724
 C58 C -0.02235 0.10190 0.23200
 C59 C -0.03562 0.15389 0.21236
 C60 C -0.10604 0.12823 0.18404
 C61 C -0.10639 -0.04383 0.28341
 C62 C -0.15666 -0.03036 0.29986
 C63 C -0.19764 0.08498 0.28849
 C64 C -0.14765 0.06934 0.27163
 N65 N -0.10266 0.00580 0.26970
 H66 H -0.11238 0.04607 0.20100
 H67 H 0.00995 0.09162 0.25080
 H68 H -0.01254 0.18263 0.21617
 H69 H -0.13851 0.13645 0.16549
 H70 H -0.06870 -0.09390 0.28258
 H71 H -0.15775 -0.07041 0.31127
 H72 H -0.23161 0.13579 0.29063
 H73 H -0.14308 0.10812 0.26113
 C74 C 0.02437 -0.17433 0.18990
 C75 C 0.14231 -0.06067 0.32011
 C76 C -0.20207 0.03475 0.30307
 C77 C -0.07708 0.16685 0.18771
 C78 C 0.00704 0.12741 0.76752
 H79 H 0.01452 0.13886 0.74654
 C80 C -0.00571 0.17236 0.78740
 H81 H -0.00706 0.21788 0.78167
 C82 C -0.00195 0.05517 0.80041
 H83 H -0.00185 0.01017 0.80542
 C84 C -0.01589 0.09880 0.82061
 H85 H -0.02477 0.08567 0.84106
 N86 N 0.01124 0.06891 0.77470
 C87 C 0.12755 -0.06421 0.71544
 H88 H 0.10350 -0.09272 0.71521
 C89 C 0.17492 -0.07633 0.69762
 H90 H 0.18714 -0.11474 0.68394
 C91 C 0.13801 0.02222 0.73283
 H92 H 0.12364 0.06049 0.74658
 C93 C 0.18549 0.01211 0.71508
 H94 H 0.20655 0.04339 0.71521
 Zn95 Zn 0.03373 0.00325 0.74961
 N96 N 0.10821 -0.01405 0.73176
 C97 C -0.02913 0.04361 0.69476
 N98 N -0.03713 0.03058 0.72159
 C99 C -0.09402 0.03610 0.72815
 C100 C -0.14356 0.04995 0.70696
 C101 C -0.07757 0.05866 0.67307
 C102 C 0.10312 -0.09816 0.79147
 C103 C 0.11432 -0.14838 0.81149
 C104 C 0.02777 -0.15667 0.78656
 C105 C 0.01809 -0.10596 0.76700
 N106 N 0.05360 -0.07583 0.77059
 H107 H 0.01526 0.04159 0.68998
 H108 H -0.10005 0.02751 0.74975
 H109 H -0.18754 0.05168 0.71241
 H110 H -0.06906 0.06691 0.65183
 H111 H 0.13123 -0.07390 0.79358
 H112 H 0.15171 -0.16279 0.82880
 H113 H -0.00331 -0.17768 0.78422
 H114 H -0.01955 -0.08917 0.74973
 C115 C 0.20291 -0.03639 0.69649
 C116 C -0.01652 0.15769 0.81450
 C117 C 0.07464 -0.17656 0.80982
 C118 C -0.13502 0.06021 0.67891
 C119 C 0.06129 -0.33438 0.10180
 N120 N 0.03780 -0.37610 0.10119
 N121 N 0.03637 -0.40398 0.07799
 C122 C 0.05770 -0.39076 0.05435
 N123 N 0.08237 -0.34995 0.05534
 N124 N 0.08433 -0.32253 0.07857
 C125 C 0.05666 -0.29798 0.12615
 N126 N 0.08515 -0.26073 0.12745
 N127 N 0.07631 -0.22293 0.14815
 C128 C 0.03814 -0.22038 0.16824
 N129 N 0.01017 -0.25824 0.16707
 N130 N 0.01935 -0.29641 0.14646
 C131 C -0.09635 0.34020 0.09718
 N132 N -0.06346 0.37326 0.09881
 N133 N -0.05664 0.40202 0.07574
 C134 C -0.08220 0.39859 0.05016
 N135 N -0.11624 0.36668 0.04872
 N136 N -0.12332 0.33823 0.07175
 C137 C -0.09706 0.30125 0.12181
 N138 N -0.12841 0.26687 0.11945
 N139 N -0.12363 0.22585 0.14071
 C140 C -0.08711 0.21727 0.16518
 N141 N -0.05658 0.25259 0.16768
 N142 N -0.06142 0.29376 0.14641
 C143 C 0.34140 -0.04434 0.60474
 N144 N 0.36310 -0.00185 0.59986
 N145 N 0.38670 0.00100 0.57582
 C146 C 0.38889 -0.03809 0.55569
 N147 N 0.36760 -0.08079 0.56082
 N148 N 0.34441 -0.08389 0.58482
 C149 C 0.31135 -0.04550 0.63021
 N150 N 0.29142 -0.08950 0.63447
 N151 N 0.25914 -0.08789 0.65612
 C152 C 0.24535 -0.04220 0.67444
 N153 N 0.26633 0.00124 0.67044
 N154 N 0.29880 -0.00040 0.64875
 C155 C -0.30496 0.07398 0.58746
 N156 N -0.34557 0.04998 0.59038
 N157 N -0.37855 0.04525 0.56796
 C158 C -0.37215 0.06415 0.54171
 N159 N -0.33196 0.08888 0.53905
 N160 N -0.29899 0.09355 0.56140
 C161 C -0.26486 0.07524 0.61171
 N162 N -0.21955 0.09259 0.60778
 N163 N -0.17963 0.08948 0.62928
 C164 C -0.18350 0.06914 0.65563
 N165 N -0.22966 0.05279 0.65963
 N166 N -0.26954 0.05567 0.63807
 C167 C 0.06788 -0.32350 0.90469
 N168 N 0.03644 -0.35801 0.90360
 N169 N 0.02862 -0.38463 0.92707
 C170 C 0.05122 -0.37717 0.95258
 N171 N 0.08286 -0.34275 0.95342
 N172 N 0.09111 -0.31660 0.93002
 C173 C 0.07406 -0.29097 0.87923
 N174 N 0.11063 -0.26184 0.88070
 N175 N 0.11264 -0.22771 0.85832
 C176 C 0.07803 -0.22108 0.83354
 N177 N 0.04208 -0.25107 0.83198
 N178 N 0.04029 -0.28557 0.85438
 C179 C -0.04137 0.31190 0.90389
 N180 N -0.06414 0.30054 0.92731
 N181 N -0.06500 0.33093 0.94988
 C182 C -0.04293 0.37385 0.95008
 N183 N -0.02040 0.38553 0.92651
 N184 N -0.01956 0.35508 0.90384
 C185 C -0.03821 0.27541 0.87973
 N186 N -0.01600 0.28525 0.85575
 N187 N -0.01055 0.24911 0.83462
 C188 C -0.02693 0.20175 0.83675
 N189 N -0.04975 0.19273 0.86065
 N190 N -0.05540 0.22884 0.88165
 C191 C -0.35853 0.07608 0.39085
 N192 N -0.39568 0.04800 0.39369
 N193 N -0.41976 0.04713 0.41779
 C194 C -0.40663 0.07314 0.44018
 N195 N -0.37035 0.10224 0.43696
 N196 N -0.34715 0.10404 0.41278
 C197 C -0.32517 0.07028 0.36577
 N198 N -0.30184 0.11088 0.35983
 N199 N -0.26502 0.10112 0.33904
 C200 C -0.24928 0.04980 0.32368
 N201 N -0.27314 0.00952 0.32947
 N202 N -0.31071 0.01981 0.35003
 C203 C 0.32262 -0.08388 0.40903
 N204 N 0.36218 -0.05870 0.40571
 N205 N 0.39427 -0.05200 0.42792
 C206 C 0.38805 -0.07021 0.45429
 N207 N 0.34959 -0.09676 0.45741
 N208 N 0.31758 -0.10347 0.43527
 C209 C 0.28063 -0.08390 0.38522
 N210 N 0.23512 -0.10061 0.38982
 N211 N 0.19239 -0.09473 0.36897
 C212 C 0.19340 -0.07198 0.34262
 N213 N 0.23979 -0.05637 0.33789
 N214 N 0.28247 -0.06200 0.35882
   
