data_POSCAR
  _audit_creation_date              2014-09-24
  _audit_creation_method            'ToBaCCo'
  _symmetry_space_group_name_H-M    'P1'
  _symmetry_Int_Tables_number       1
  _symmetry_cell_setting            triclinic
  loop_
  _symmetry_equiv_pos_as_xyz
 x,y,z
_cell_length_a 54.7161
_cell_length_b 54.5965
_cell_length_c 54.4407
_cell_angle_alpha 89.735700
_cell_angle_beta 90.100600
_cell_angle_gamma 90.524900
loop_
  _atom_site_label
  _atom_site_type_symbol
  _atom_site_fract_x
  _atom_site_fract_y
  _atom_site_fract_z
C1 C 0.21629 0.51331 1.03444
 H2 H 0.21605 0.52876 1.02192
 C3 C 0.20066 0.51280 1.05466
 H4 H 0.18826 0.52793 1.05676
 C5 C 0.23173 0.47432 1.04490
 H6 H 0.24364 0.45920 1.04085
 C7 C 0.21628 0.47290 1.06527
 H8 H 0.21762 0.45691 1.07696
 N9 N 0.23147 0.49433 1.03000
 C10 C 0.28551 0.52775 0.98118
 H11 H 0.28399 0.51558 0.96561
 C12 C 0.30167 0.54765 0.98035
 H13 H 0.31264 0.55074 0.96407
 C14 C 0.27348 0.53810 1.02161
 H15 H 0.26270 0.53410 1.03777
 C16 C 0.28974 0.55798 1.02172
 H17 H 0.29110 0.56942 1.03787
 Zn18 Zn 0.25042 0.49594 1.00101
 N19 N 0.27151 0.52361 1.00142
 C20 C 0.22748 0.51796 0.95954
 N21 N 0.22813 0.49790 0.97443
 C22 C 0.21179 0.47919 0.97173
 C23 C 0.19417 0.47998 0.95316
 C24 C 0.21014 0.51953 0.94077
 C25 C 0.28744 0.46457 1.01612
 C26 C 0.30363 0.44503 1.01480
 C27 C 0.28495 0.43319 0.97634
 C28 C 0.26902 0.45293 0.97846
 N29 N 0.27047 0.46806 0.99820
 H30 H 0.24009 0.53300 0.96239
 H31 H 0.21235 0.46371 0.98419
 H32 H 0.18113 0.46504 0.95153
 H33 H 0.21005 0.53555 0.92898
 H34 H 0.28850 0.47719 1.03136
 H35 H 0.31724 0.44281 1.02908
 H36 H 0.28349 0.42128 0.96056
 H37 H 0.25581 0.45633 0.96411
 C38 C 0.30393 0.56301 1.00082
 C39 C 0.20013 0.49224 1.07054
 C40 C 0.30258 0.42907 0.99466
 C41 C 0.19315 0.50039 0.93741
 C42 C 0.78458 0.52210 -0.03330
 H43 H 0.78669 0.53664 -0.02002
 C44 C 0.80008 0.52114 -0.05361
 H45 H 0.81421 0.53500 -0.05574
 C46 C 0.76433 0.48567 -0.04583
 H47 H 0.75069 0.47163 -0.04249
 C48 C 0.77948 0.48398 -0.06636
 H49 H 0.77700 0.46882 -0.07891
 N50 N 0.76715 0.50453 -0.02980
 C51 C 0.71510 0.53857 0.01985
 H52 H 0.71567 0.52593 0.03520
 C53 C 0.69886 0.55815 0.02015
 H54 H 0.68698 0.56053 0.03582
 C55 C 0.72882 0.54989 -0.01992
 H56 H 0.74005 0.54625 -0.03576
 C57 C 0.71262 0.56950 -0.02053
 H58 H 0.71183 0.58107 -0.03672
 Zn59 Zn 0.74858 0.50599 -0.00058
 N60 N 0.72965 0.53482 0.00002
 C61 C 0.77266 0.52333 0.04266
 N62 N 0.77107 0.50504 0.02583
 C63 C 0.78684 0.48595 0.02623
 C64 C 0.80512 0.48468 0.04406
 C65 C 0.79062 0.52272 0.06094
 C66 C 0.70813 0.47908 -0.01593
 C67 C 0.69014 0.46083 -0.01537
 C68 C 0.70991 0.44329 0.02024
 C69 C 0.72750 0.46199 0.01906
 N70 N 0.72633 0.47934 0.00109
 H71 H 0.76042 0.53870 0.04166
 H72 H 0.78537 0.47184 0.01240
 H73 H 0.81749 0.46931 0.04407
 H74 H 0.79194 0.53765 0.07391
 H75 H 0.70752 0.49325 -0.02987
 H76 H 0.67588 0.46088 -0.02919
 H77 H 0.71086 0.42983 0.03487
 H78 H 0.74181 0.46282 0.03274
 C79 C 0.69721 0.57364 -0.00042
 C80 C 0.79777 0.50177 -0.07036
 C81 C 0.69081 0.44268 0.00297
 C82 C 0.80728 0.50332 0.06163
 C83 C -0.02264 0.28795 0.47356
 H84 H -0.03539 0.28809 0.48873
 C85 C -0.02494 0.30500 0.45453
 H86 H -0.03935 0.31831 0.45602
 C87 C 0.01254 0.27130 0.45511
 H88 H 0.02730 0.25832 0.45551
 C89 C 0.01101 0.28803 0.43571
 H90 H 0.02430 0.28655 0.42114
 N91 N -0.00423 0.27146 0.47346
 C92 C -0.02844 0.21062 0.51983
 H93 H -0.01309 0.20955 0.53234
 C94 C -0.04748 0.19352 0.52148
 H95 H -0.04683 0.17944 0.53554
 C96 C -0.04776 0.23025 0.48619
 H97 H -0.04757 0.24426 0.47212
 C98 C -0.06727 0.21361 0.48728
 H99 H -0.08194 0.21501 0.47399
 Zn100 Zn -0.00164 0.25007 0.50079
 N101 N -0.02894 0.22858 0.50245
 C102 C -0.01634 0.26731 0.54772
 N103 N 0.00009 0.26990 0.52915
 C104 C 0.01749 0.28782 0.52955
 C105 C 0.01890 0.30407 0.54924
 C106 C -0.01552 0.28310 0.56783
 C107 C 0.02739 0.21418 0.47936
 C108 C 0.04724 0.19851 0.47694
 C109 C 0.06485 0.21620 0.51360
 C110 C 0.04470 0.23164 0.51525
 N111 N 0.02655 0.23044 0.49818
 H112 H -0.03039 0.25332 0.54681
 H113 H 0.03014 0.28963 0.51438
 H114 H 0.03294 0.31817 0.54926
 H115 H -0.02901 0.28106 0.58225
 H116 H 0.01247 0.21329 0.46632
 H117 H 0.04741 0.18547 0.46202
 H118 H 0.07919 0.21749 0.52727
 H119 H 0.04348 0.24433 0.53034
 C120 C -0.06723 0.19487 0.50505
 C121 C -0.00790 0.30550 0.43504
 C122 C 0.06627 0.19933 0.49426
 C123 C 0.00217 0.30189 0.56867
 C124 C 0.98573 0.71264 0.53080
 H125 H 0.97036 0.71283 0.51827
 C126 C 0.98610 0.69597 0.55030
 H127 H 0.97095 0.68327 0.55262
 C128 C 1.02465 0.72827 0.54220
 H129 H 1.03987 0.74050 0.53868
 C130 C 1.02584 0.71179 0.56187
 H131 H 1.04181 0.71191 0.57364
 N132 N 1.00473 0.72847 0.52722
 C133 C 0.97109 0.78372 0.48034
 H134 H 0.98348 0.78324 0.46488
 C135 C 0.95113 0.79941 0.47989
 H136 H 0.94821 0.81105 0.46402
 C137 C 0.96037 0.76966 0.52019
 H138 H 0.96429 0.75833 0.53600
 C139 C 0.94038 0.78541 0.52068
 H140 H 0.92877 0.78581 0.53676
 Zn141 Zn 1.00326 0.74913 0.49926
 N142 N 0.97513 0.76898 0.50011
 C143 C 0.98295 0.72727 0.45625
 N144 N 1.00268 0.72843 0.47146
 C145 C 1.02231 0.71375 0.46803
 C146 C 1.02286 0.69745 0.44838
 C147 C 0.98271 0.71118 0.43637
 C148 C 1.03412 0.78582 0.51754
 C149 C 1.05300 0.80318 0.51719
 C150 C 1.06363 0.78972 0.47639
 C151 C 1.04475 0.77237 0.47765
 N152 N 1.03049 0.77071 0.49805
 H153 H 0.96716 0.73844 0.45973
 H154 H 1.03759 0.71478 0.48064
 H155 H 1.03885 0.68623 0.44578
 H156 H 0.96667 0.71025 0.42473
 H157 H 1.02212 0.78452 0.53327
 H158 H 1.05546 0.81526 0.53274
 H159 H 1.07472 0.79097 0.45997
 H160 H 1.04114 0.76069 0.46208
 C161 C 0.93554 0.80043 0.50028
 C162 C 1.00642 0.69531 0.56607
 C163 C 1.06788 0.80542 0.49633
 C164 C 1.00285 0.69598 0.43222
 C165 C 0.47643 -0.01698 0.29147
 H166 H 0.49039 -0.03088 0.29131
 C167 C 0.45779 -0.01808 0.30889
 H168 H 0.45762 -0.03286 0.32223
 C169 C 0.46022 0.01954 0.27462
 H170 H 0.46142 0.03434 0.26143
 C171 C 0.44128 0.01920 0.29181
 H172 H 0.42775 0.03354 0.29134
 N173 N 0.47711 0.00140 0.27455
 C174 C 0.51918 -0.03028 0.21499
 H175 H 0.53352 -0.01660 0.21328
 C176 C 0.51843 -0.05011 0.19892
 H177 H 0.53218 -0.05070 0.18472
 C178 C 0.48308 -0.04411 0.23464
 H179 H 0.46912 -0.04153 0.24836
 C180 C 0.48155 -0.06423 0.21896
 H181 H 0.46680 -0.07718 0.22199
 Zn182 Zn 0.50324 0.00099 0.25183
 N183 N 0.50172 -0.02765 0.23243
 C184 C 0.54739 -0.01795 0.27115
 N185 N 0.53250 0.00187 0.27035
 C186 C 0.53704 0.02194 0.28440
 C187 C 0.55742 0.02273 0.29986
 C188 C 0.56775 -0.01808 0.28665
 C189 C 0.48118 0.02898 0.21537
 C190 C 0.47914 0.04709 0.19735
 C191 C 0.51911 0.06230 0.20891
 C192 C 0.52032 0.04394 0.22684
 N193 N 0.50147 0.02778 0.22974
 H194 H 0.54311 -0.03397 0.26035
 H195 H 0.52457 0.03719 0.28385
 H196 H 0.56059 0.03869 0.31121
 H197 H 0.57927 -0.03409 0.28734
 H198 H 0.46664 0.01562 0.21777
 H199 H 0.46269 0.04780 0.18630
 H200 H 0.53458 0.07456 0.20644
 H201 H 0.53663 0.04222 0.23789
 C202 C 0.49925 -0.06759 0.20041
 C203 C 0.43980 0.00009 0.30913
 C204 C 0.49838 0.06393 0.19371
 C205 C 0.57288 0.00241 0.30131
 C206 C 0.52534 -0.01995 0.71138
 H207 H 0.51034 -0.03300 0.71146
 C208 C 0.54426 -0.02233 0.69443
 H209 H 0.54363 -0.03724 0.68139
 C210 C 0.54381 0.01585 0.72778
 H211 H 0.54340 0.03090 0.74056
 C212 C 0.56306 0.01422 0.71107
 H213 H 0.57757 0.02784 0.71151
 N214 N 0.52558 -0.00127 0.72780
 C215 C 0.47980 -0.02744 0.78813
 H216 H 0.46685 -0.01262 0.78919
 C217 C 0.47857 -0.04675 0.80500
 H218 H 0.46437 -0.04686 0.81883
 C219 C 0.51419 -0.04508 0.76890
 H220 H 0.52843 -0.04409 0.75522
 C221 C 0.51356 -0.06480 0.78531
 H222 H 0.52734 -0.07884 0.78401
 Zn223 Zn 0.49873 0.00079 0.74956
 N224 N 0.49736 -0.02698 0.77049
 C225 C 0.45214 -0.01443 0.73132
 N226 N 0.47023 0.00278 0.72995
 C227 C 0.46922 0.02145 0.71339
 C228 C 0.44926 0.02359 0.69757
 C229 C 0.43187 -0.01306 0.71574
 C230 C 0.52115 0.02955 0.78563
 C231 C 0.52394 0.04911 0.80186
 C232 C 0.48647 0.06618 0.78602
 C233 C 0.48447 0.04636 0.77000
 N234 N 0.50178 0.02863 0.76998
 H235 H 0.45352 -0.02942 0.74426
 H236 H 0.48410 0.03460 0.71237
 H237 H 0.44897 0.03842 0.68430
 H238 H 0.41757 -0.02684 0.71714
 H239 H 0.53437 0.01494 0.78560
 H240 H 0.53934 0.04936 0.81438
 H241 H 0.47260 0.08019 0.78568
 H242 H 0.46889 0.04502 0.75786
 C243 C 0.49565 -0.06575 0.80374
 C244 C 0.56348 -0.00511 0.69414
 C245 C 0.50640 0.06772 0.80225
 C246 C 0.43026 0.00615 0.69857
 C247 C 0.28878 0.02240 0.47099
 H248 H 0.28835 0.03763 0.48363
 C249 C 0.30657 0.02171 0.45264
 H250 H 0.31987 0.03647 0.45134
 C251 C 0.27262 -0.01587 0.45816
 H252 H 0.25973 -0.03076 0.46067
 C253 C 0.29012 -0.01734 0.43962
 H254 H 0.29008 -0.03314 0.42767
 N255 N 0.27214 0.00388 0.47329
 C256 C 0.21260 0.03637 0.51474
 H257 H 0.21125 0.02316 0.52956
 C258 C 0.19642 0.05594 0.51365
 H259 H 0.18253 0.05758 0.52767
 C260 C 0.23172 0.04947 0.47786
 H261 H 0.24519 0.04661 0.46372
 C262 C 0.21580 0.06927 0.47598
 H263 H 0.21752 0.08179 0.46059
 Zn264 Zn 0.24965 0.00542 0.49963
 N265 N 0.22991 0.03358 0.49712
 C266 C 0.26778 0.02572 0.54417
 N267 N 0.26826 0.00606 0.52894
 C268 C 0.28358 -0.01297 0.53318
 C269 C 0.29931 -0.01268 0.55341
 C270 C 0.28321 0.02678 0.56460
 C271 C 0.21399 -0.02453 0.47871
 C272 C 0.19689 -0.04355 0.47720
 C273 C 0.20843 -0.05632 0.51812
 C274 C 0.22560 -0.03721 0.51870
 N275 N 0.22810 -0.02186 0.49911
 H276 H 0.25589 0.04092 0.54020
 H277 H 0.28392 -0.02816 0.52050
 H278 H 0.31181 -0.02772 0.55609
 H279 H 0.28261 0.04262 0.57647
 H280 H 0.21611 -0.01181 0.46355
 H281 H 0.18634 -0.04557 0.46049
 H282 H 0.20631 -0.06792 0.53416
 H283 H 0.23651 -0.03434 0.53502
 C284 C 0.19783 0.07267 0.49402
 C285 C 0.30745 0.00158 0.43671
 C286 C 0.19372 -0.05970 0.49715
 C287 C 0.29944 0.00751 0.56931
 C288 C 0.71386 0.01183 0.53127
 H289 H 0.71444 0.02699 0.51841
 C290 C 0.69646 0.01140 0.54999
 H291 H 0.68361 0.02630 0.55134
 C292 C 0.72923 -0.02654 0.54428
 H293 H 0.74164 -0.04156 0.54169
 C294 C 0.71207 -0.02775 0.56322
 H295 H 0.71190 -0.04349 0.57540
 N296 N 0.72995 -0.00684 0.52890
 C297 C 0.78929 0.02541 0.48591
 H298 H 0.79009 0.01209 0.47129
 C299 C 0.80579 0.04503 0.48629
 H300 H 0.81909 0.04688 0.47168
 C301 C 0.77091 0.03903 0.52274
 H302 H 0.75765 0.03632 0.53719
 C303 C 0.78700 0.05904 0.52376
 H304 H 0.78590 0.07162 0.53902
 Zn305 Zn 0.75185 -0.00526 0.50203
 N306 N 0.77226 0.02281 0.50390
 C307 C 0.73207 0.01622 0.45879
 N308 N 0.73248 -0.00414 0.47325
 C309 C 0.71773 -0.02372 0.46852
 C310 C 0.70202 -0.02350 0.44830
 C311 C 0.71635 0.01738 0.43857
 C312 C 0.78693 -0.03671 0.52181
 C313 C 0.80326 -0.05620 0.52238
 C314 C 0.79084 -0.06662 0.48111
 C315 C 0.77451 -0.04711 0.48146
 N316 N 0.77270 -0.03276 0.50171
 H317 H 0.74342 0.03187 0.46328
 H318 H 0.71817 -0.03954 0.48055
 H319 H 0.69085 -0.03954 0.44468
 H320 H 0.71582 0.03406 0.42778
 H321 H 0.78549 -0.02470 0.53748
 H322 H 0.81392 -0.05929 0.53884
 H323 H 0.79236 -0.07740 0.46456
 H324 H 0.76375 -0.04314 0.46531
 C325 C 0.80480 0.06215 0.50542
 C326 C 0.69537 -0.00862 0.56625
 C327 C 0.80549 -0.07146 0.50179
 C328 C 0.70095 -0.00264 0.43309
 C329 C 0.48189 0.21107 1.02398
 H330 H 0.46943 0.21061 1.00853
 C331 C 0.48042 0.19302 1.04214
 H332 H 0.46649 0.17888 1.04074
 C333 C 0.51546 0.22993 1.04424
 H334 H 0.52947 0.24398 1.04465
 C335 C 0.51456 0.21226 1.06290
 H336 H 0.52794 0.21294 1.07756
 N337 N 0.49925 0.22899 1.02528
 C338 C 0.47220 0.28743 0.97804
 H339 H 0.48735 0.28912 0.96538
 C340 C 0.45231 0.30312 0.97594
 H341 H 0.45233 0.31696 0.96163
 C342 C 0.45439 0.26793 1.01273
 H343 H 0.45546 0.25444 1.02726
 C344 C 0.43419 0.28337 1.01140
 H345 H 0.41965 0.28132 1.02473
 Zn346 Zn 0.50125 0.25082 0.99830
 N347 N 0.47281 0.27016 0.99610
 C348 C 0.48803 0.23213 0.95134
 N349 N 0.50474 0.23137 0.96985
 C350 C 0.52351 0.21523 0.96948
 C351 C 0.52602 0.19896 0.94995
 C352 C 0.48988 0.21624 0.93143
 C353 C 0.52688 0.28902 1.02061
 C354 C 0.54478 0.30720 1.02311
 C355 C 0.56482 0.29144 0.98704
 C356 C 0.54648 0.27355 0.98521
 N357 N 0.52796 0.27273 1.00184
 H358 H 0.47293 0.24468 0.95219
 H359 H 0.53625 0.21467 0.98469
 H360 H 0.54073 0.18584 0.95037
 H361 H 0.47643 0.21719 0.91686
 H362 H 0.51176 0.28813 1.03338
 H363 H 0.54352 0.32004 1.03814
 H364 H 0.57903 0.29225 0.97324
 H365 H 0.54671 0.26082 0.97008
 C366 C 0.43301 0.30127 0.99282
 C367 C 0.49704 0.19333 1.06181
 C368 C 0.56392 0.30877 1.00601
 C369 C 0.50894 0.19919 0.93065
 C370 C 0.47763 0.78760 -0.02763
 H371 H 0.46257 0.78649 -0.01480
 C372 C 0.47678 0.80411 -0.04727
 H373 H 0.46078 0.81541 -0.04962
 C374 C 0.51667 0.77401 -0.04006
 H375 H 0.53247 0.76271 -0.03686
 C376 C 0.51662 0.79030 -0.05990
 H377 H 0.53245 0.79126 -0.07179
 N378 N 0.49722 0.77274 -0.02457
 C379 C 0.46665 0.71455 0.02146
 H380 H 0.47926 0.71536 0.03677
 C381 C 0.44742 0.69760 0.02169
 H382 H 0.44512 0.68586 0.03760
 C383 C 0.45450 0.72919 -0.01768
 H384 H 0.45769 0.74113 -0.03325
 C385 C 0.43522 0.71225 -0.01838
 H386 H 0.42381 0.71142 -0.03462
 Zn387 Zn 0.49715 0.75138 0.00294
 N388 N 0.46965 0.73012 0.00213
 C389 C 0.47712 0.77099 0.04675
 N390 N 0.49665 0.77124 0.03133
 C391 C 0.51571 0.78700 0.03480
 C392 C 0.51571 0.80326 0.05453
 C393 C 0.47636 0.78692 0.06672
 C394 C 0.52762 0.71670 -0.01752
 C395 C 0.54681 0.70018 -0.01890
 C396 C 0.55979 0.71279 0.02158
 C397 C 0.54049 0.72941 0.02202
 N398 N 0.52492 0.73105 0.00259
 H399 H 0.46181 0.75886 0.04334
 H400 H 0.53078 0.78717 0.02195
 H401 H 0.53083 0.81600 0.05665
 H402 H 0.46069 0.78636 0.07882
 H403 H 0.51473 0.71812 -0.03255
 H404 H 0.54880 0.68940 -0.03540
 H405 H 0.57153 0.71127 0.03752
 H406 H 0.53759 0.74048 0.03814
 C407 C 0.43143 0.69611 0.00150
 C408 C 0.49645 0.80560 -0.06377
 C409 C 0.56311 0.69777 0.00093
 C410 C 0.49576 0.80347 0.07073
 C411 C 1.03135 0.47823 0.21389
 H412 H 1.01660 0.46492 0.21310
 C413 C 1.05152 0.47588 0.19846
 H414 H 1.05214 0.46072 0.18573
 C415 C 1.04786 0.51475 0.23078
 H416 H 1.04617 0.53006 0.24314
 C417 C 1.06829 0.51322 0.21552
 H418 H 1.08240 0.52721 0.21656
 N419 N 1.02996 0.49731 0.22976
 C420 C 0.97869 0.47196 0.28584
 H421 H 0.96552 0.48661 0.28527
 C422 C 0.97603 0.45298 0.30292
 H423 H 0.96075 0.45320 0.31554
 C424 C 1.01525 0.45462 0.27081
 H425 H 1.03077 0.45555 0.25862
 C426 C 1.01332 0.43532 0.28763
 H427 H 1.02716 0.42128 0.28777
 Zn428 Zn 1.00120 0.49970 0.24880
 N429 N 0.99798 0.47238 0.27013
 C430 C 0.95609 0.48452 0.22702
 N431 N 0.97473 0.50118 0.22647
 C432 C 0.97595 0.51878 0.20875
 C433 C 0.95796 0.52014 0.19062
 C434 C 0.93761 0.48529 0.20928
 C435 C 1.01949 0.52861 0.28678
 C436 C 1.02040 0.54813 0.30323
 C437 C 0.98586 0.56599 0.28228
 C438 C 0.98557 0.54607 0.26626
 N439 N 1.00228 0.52793 0.26876
 H440 H 0.95575 0.47030 0.24086
 H441 H 0.99114 0.53161 0.20859
 H442 H 0.95925 0.53431 0.17669
 H443 H 0.92316 0.47162 0.20971
 H444 H 1.03237 0.51378 0.28851
 H445 H 1.03431 0.54838 0.31739
 H446 H 0.97213 0.58002 0.28032
 H447 H 0.97168 0.54491 0.25218
 C448 C 0.99356 0.43437 0.30405
 C449 C 1.07027 0.49358 0.19908
 C450 C 1.00333 0.56709 0.30119
 C451 C 0.93855 0.50315 0.19064
 C452 C -0.03392 0.47982 0.78664
 H453 H -0.02008 0.46584 0.78790
 C454 C -0.05431 0.47870 0.80194
 H455 H -0.05599 0.46382 0.81507
 C456 C -0.04790 0.51673 0.76860
 H457 H -0.04513 0.53167 0.75580
 C458 C -0.06853 0.51643 0.78372
 H459 H -0.08172 0.53102 0.78215
 N460 N -0.03118 0.49850 0.77027
 C461 C 0.01868 0.46881 0.71580
 H462 H 0.03315 0.48243 0.71631
 C463 C 0.02015 0.44915 0.69957
 H464 H 0.03606 0.44758 0.68791
 C465 C -0.01964 0.45448 0.73043
 H466 H -0.03540 0.45692 0.74204
 C467 C -0.01896 0.43458 0.71444
 H468 H -0.03429 0.42192 0.71398
 Zn469 Zn -0.00216 0.49888 0.75146
 N470 N -0.00089 0.47100 0.73096
 C471 C 0.04140 0.48135 0.77424
 N472 N 0.02421 0.49920 0.77401
 C473 C 0.02469 0.51763 0.79071
 C474 C 0.04338 0.51905 0.80812
 C475 C 0.06041 0.48202 0.79141
 C476 C -0.01750 0.52845 0.71239
 C477 C -0.01636 0.54773 0.69546
 C478 C 0.01924 0.56339 0.71671
 C479 C 0.01750 0.54374 0.73313
 N480 N -0.00071 0.52679 0.73075
 H481 H 0.04039 0.46652 0.76122
 H482 H 0.01049 0.53130 0.79043
 H483 H 0.04336 0.53382 0.82132
 H484 H 0.07415 0.46788 0.79109
 H485 H -0.03153 0.51447 0.71065
 H486 H -0.02954 0.54831 0.68063
 H487 H 0.03378 0.57676 0.71909
 H488 H 0.03099 0.54190 0.74750
 C489 C 0.00112 0.43171 0.69869
 C490 C -0.07191 0.49721 0.80066
 C491 C 0.00231 0.56547 0.69739
 C492 C 0.06163 0.50114 0.80856
 C493 C 0.12518 0.14839 0.48966
 C494 C 0.11669 0.15999 0.46820
 C495 C 0.09762 0.17672 0.46971
 C496 C 0.08711 0.18222 0.49250
 C497 C 0.09652 0.17073 0.51355
 N498 N 0.11493 0.15433 0.51160
 C499 C 0.14474 0.12974 0.48947
 N500 N 0.15542 0.12350 0.51120
 C501 C 0.17267 0.10584 0.51301
 C502 C 0.18008 0.09300 0.49207
 C503 C 0.16953 0.09921 0.46941
 C504 C 0.15184 0.11744 0.46801
 H505 H 0.09123 0.18555 0.45307
 H506 H 0.08886 0.17430 0.53148
 H507 H 0.18052 0.10182 0.53082
 H508 H 0.17437 0.08944 0.45288
 H509 H 0.12466 0.15653 0.45042
 H510 H 0.14346 0.12111 0.45042
 C511 C 0.64082 0.62723 -0.00232
 C512 C 0.64476 0.61239 -0.02290
 C513 C 0.66354 0.59532 -0.02246
 C514 C 0.67833 0.59288 -0.00155
 C515 C 0.67411 0.60838 0.01848
 N516 N 0.65578 0.62504 0.01757
 C517 C 0.62064 0.64501 -0.00178
 N518 N 0.62366 0.66653 0.01042
 C519 C 0.60571 0.68359 0.01156
 C520 C 0.58297 0.67930 0.00017
 C521 C 0.57943 0.65690 -0.01201
 C522 C 0.59817 0.63985 -0.01313
 H523 H 0.66613 0.58361 -0.03823
 H524 H 0.68533 0.60720 0.03483
 H525 H 0.60941 0.70059 0.02104
 H526 H 0.56204 0.65231 -0.02038
 H527 H 0.63352 0.61400 -0.03920
 H528 H 0.59489 0.62259 -0.02232
 C529 C 0.87679 -0.14854 0.50035
 C530 C 0.88013 -0.16375 0.47991
 C531 C 0.89918 -0.18057 0.47997
 C532 C 0.91472 -0.18245 0.50039
 C533 C 0.91059 -0.16714 0.52055
 N534 N 0.89217 -0.15061 0.51992
 C535 C 0.85780 -0.12948 0.50066
 N536 N 0.86222 -0.10840 0.51319
 C537 C 0.84587 -0.08983 0.51392
 C538 C 0.82332 -0.09191 0.50163
 C539 C 0.81824 -0.11376 0.48898
 C540 C 0.83540 -0.13250 0.48839
 H541 H 0.90181 -0.19209 0.46406
 H542 H 0.92240 -0.16786 0.53651
 H543 H 0.85081 -0.07330 0.52368
 H544 H 0.80090 -0.11652 0.47976
 H545 H 0.86865 -0.16223 0.46378
 H546 H 0.83099 -0.14928 0.47877
 C547 C 0.35523 0.37172 0.98932
 C548 C 0.34865 0.38503 0.96817
 C549 C 0.33116 0.40340 0.96983
 C550 C 0.32029 0.40877 0.99246
 C551 C 0.32725 0.39500 1.01311
 N552 N 0.34430 0.37720 1.01105
 C553 C 0.37451 0.35277 0.98921
 N554 N 0.38438 0.34570 1.01108
 C555 C 0.40259 0.32901 1.01272
 C556 C 0.41219 0.31844 0.99142
 C557 C 0.40201 0.32504 0.96869
 C558 C 0.38312 0.34202 0.96749
 H559 H 0.32669 0.41390 0.95353
 H560 H 0.31916 0.39837 1.03089
 H561 H 0.40998 0.32454 1.03063
 H562 H 0.40856 0.31693 0.95185
 H563 H 0.35727 0.38201 0.95062
 H564 H 0.37543 0.34634 0.94972
 C565 C 0.87529 0.14115 0.50719
 C566 C 0.86950 0.16593 0.50352
 C567 C 0.88820 0.18349 0.50294
 C568 C 0.91264 0.17650 0.50604
 C569 C 0.91763 0.15158 0.50966
 N570 N 0.89914 0.13480 0.50997
 C571 C 0.85646 0.12151 0.50716
 N572 N 0.86332 0.09835 0.50132
 C573 C 0.84724 0.07927 0.50070
 C574 C 0.82252 0.08286 0.50635
 C575 C 0.81506 0.10648 0.51286
 C576 C 0.83193 0.12584 0.51327
 H577 H 0.88356 0.20254 0.50015
 H578 H 0.93624 0.14535 0.51173
 H579 H 0.85385 0.06126 0.49603
 H580 H 0.79615 0.11003 0.51733
 H581 H 0.85087 0.17173 0.50057
 H582 H 0.82580 0.14380 0.51865
 C583 C 0.35529 0.62242 -0.00021
 C584 C 0.33918 0.61930 -0.02008
 C585 C 0.32235 0.59994 -0.01974
 C586 C 0.32134 0.58391 0.00045
 C587 C 0.33760 0.58778 0.02002
 N588 N 0.35411 0.60652 0.01909
 C589 C 0.37422 0.64188 -0.00015
 N590 N 0.39584 0.63753 0.01136
 C591 C 0.41422 0.65442 0.01209
 C592 C 0.41133 0.67752 0.00097
 C593 C 0.38897 0.68246 -0.01073
 C594 C 0.37046 0.66471 -0.01140
 H595 H 0.31007 0.59751 -0.03518
 H596 H 0.33755 0.57561 0.03577
 H597 H 0.43117 0.64953 0.02100
 H598 H 0.38561 0.70016 -0.01905
 H599 H 0.33997 0.63124 -0.03599
 H600 H 0.35326 0.66902 -0.02019
 C601 C 0.12164 -0.13735 0.49378
 C602 C 0.10640 -0.14135 0.47339
 C603 C 0.08917 -0.16033 0.47404
 C604 C 0.08697 -0.17522 0.49499
 C605 C 0.10281 -0.17088 0.51484
 N606 N 0.11961 -0.15239 0.51371
 C607 C 0.13984 -0.11719 0.49412
 N608 N 0.16114 -0.12015 0.50669
 C609 C 0.17854 -0.10224 0.50788
 C610 C 0.17487 -0.07955 0.49616
 C611 C 0.15277 -0.07606 0.48349
 C612 C 0.13533 -0.09479 0.48234
 H613 H 0.07723 -0.16306 0.45839
 H614 H 0.10186 -0.18219 0.53120
 H615 H 0.19532 -0.10593 0.51770
 H616 H 0.14869 -0.05870 0.47479
 H617 H 0.10787 -0.13009 0.45703
 H618 H 0.11828 -0.09151 0.47282
 C619 C 0.63482 0.38747 1.00659
 C620 C 0.62856 0.41183 1.00134
 C621 C 0.64680 0.42979 1.00027
 C622 C 0.67132 0.42365 1.00433
 C623 C 0.67685 0.39909 1.00948
 N624 N 0.65876 0.38185 1.01030
 C625 C 0.61622 0.36761 1.00736
 N626 N 0.62309 0.34426 1.00230
 C627 C 0.60690 0.32520 1.00205
 C628 C 0.58210 0.32910 1.00721
 C629 C 0.57474 0.35294 1.01299
 C630 C 0.59168 0.37217 1.01315
 H631 H 0.64169 0.44853 0.99639
 H632 H 0.69557 0.39352 1.01241
 H633 H 0.61342 0.30704 0.99789
 H634 H 0.55578 0.35684 1.01693
 H635 H 0.60989 0.41702 0.99756
 H636 H 0.58553 0.39030 1.01796
 C637 C 0.49598 0.11709 1.13551
 C638 C 0.48568 0.09369 1.13198
 C639 C 0.48647 0.07646 1.15092
 C640 C 0.49720 0.08240 1.17359
 C641 C 0.50692 0.10610 1.17654
 N642 N 0.50604 0.12258 1.15775
 C643 C 0.49599 0.13614 1.11597
 N644 N 0.49975 0.15998 1.12237
 C645 C 0.50018 0.17848 1.10554
 C646 C 0.49663 0.17347 1.08052
 C647 C 0.49301 0.14903 1.07347
 C648 C 0.49280 0.13036 1.09102
 H649 H 0.47894 0.05836 1.14766
 H650 H 0.51500 0.11165 1.19382
 H651 H 0.50299 0.19709 1.11178
 H652 H 0.49083 0.14428 1.05429
 H653 H 0.47681 0.08861 1.11498
 H654 H 0.49069 0.11169 1.08482
 C655 C 0.00912 0.64146 0.62351
 C656 C 0.03019 0.64662 0.60957
 C657 C 0.02938 0.66442 0.59112
 C658 C 0.00766 0.67700 0.58626
 C659 C -0.01299 0.67129 0.60050
 N660 N -0.01175 0.65394 0.61843
 C661 C 0.00842 0.62229 0.64296
 N662 N -0.01375 0.61434 0.65127
 C663 C -0.01616 0.59656 0.66869
 C664 C 0.00461 0.58551 0.67891
 C665 C 0.02767 0.59368 0.67090
 C666 C 0.02968 0.61207 0.65312
 H667 H 0.04560 0.66789 0.58022
 H668 H -0.03008 0.68067 0.59747
 H669 H -0.03432 0.59121 0.67461
 H670 H 0.04422 0.58559 0.67806
 H671 H 0.04702 0.63677 0.61222
 H672 H 0.04775 0.61810 0.64773
 C673 C 0.49554 0.87610 -0.14312
 C674 C 0.49955 0.87076 -0.16804
 C675 C 0.49950 0.88969 -0.18537
 C676 C 0.49521 0.91389 -0.17810
 C677 C 0.49080 0.91839 -0.15315
 N678 N 0.49113 0.89970 -0.13659
 C679 C 0.49576 0.85706 -0.12356
 N680 N 0.48641 0.86274 -0.10115
 C681 C 0.48625 0.84669 -0.08200
 C682 C 0.49611 0.82320 -0.08469
 C683 C 0.50595 0.81694 -0.10758
 C684 C 0.50590 0.83375 -0.12698
 H685 H 0.50251 0.88536 -0.20451
 H686 H 0.48758 0.93680 -0.14671
 H687 H 0.47884 0.85250 -0.06458
 H688 H 0.51360 0.79898 -0.11057
 H689 H 0.50238 0.85229 -0.17437
 H690 H 0.51415 0.82846 -0.14414
 C691 C 0.98826 0.35871 0.37814
 C692 C 0.96710 0.35237 0.39129
 C693 C 0.96827 0.33473 0.40988
 C694 C 0.99052 0.32315 0.41576
 C695 C 1.01126 0.33020 0.40190
 N696 N 1.00959 0.34753 0.38402
 C697 C 0.98856 0.37785 0.35874
 N698 N 1.01041 0.38822 0.35243
 C699 C 1.01244 0.40601 0.33501
 C700 C 0.99161 0.41451 0.32268
 C701 C 0.96890 0.40391 0.32863
 C702 C 0.96729 0.38555 0.34652
 H703 H 0.95137 0.32986 0.41899
 H704 H 1.02916 0.32298 0.40582
 H705 H 1.03030 0.41380 0.33119
 H706 H 0.95243 0.40958 0.31922
 H707 H 0.94979 0.36109 0.38771
 H708 H 0.94963 0.37737 0.35029
 C709 C 0.49425 0.87517 0.14815
 C710 C 0.47329 0.88236 0.16091
 C711 C 0.47495 0.90095 0.17834
 C712 C 0.49751 0.91265 0.18346
 C713 C 0.51819 0.90414 0.17063
 N714 N 0.51601 0.88602 0.15372
 C715 C 0.49357 0.85618 0.12878
 N716 N 0.51472 0.84476 0.12265
 C717 C 0.51582 0.82775 0.10453
 C718 C 0.49476 0.82142 0.09113
 C719 C 0.47277 0.83301 0.09708
 C720 C 0.47209 0.85038 0.11577
 H721 H 0.45811 0.90665 0.18682
 H722 H 0.53631 0.91123 0.17433
 H723 H 0.53313 0.81915 0.10071
 H724 H 0.45621 0.82916 0.08685
 H725 H 0.45569 0.87383 0.15761
 H726 H 0.45506 0.85957 0.11933
 C727 C 0.00262 0.35360 0.62765
 C728 C -0.00101 0.32855 0.63280
 C729 C -0.00109 0.31167 0.61360
 C730 C 0.00270 0.31953 0.58932
 C731 C 0.00670 0.34460 0.58501
 N732 N 0.00650 0.36070 0.60395
 C733 C 0.00248 0.37274 0.64693
 N734 N 0.01106 0.39551 0.64105
 C735 C 0.01109 0.41438 0.65723
 C736 C 0.00189 0.41102 0.68107
 C737 C -0.00708 0.38771 0.68759
 C738 C -0.00690 0.36860 0.67064
 H739 H -0.00380 0.29243 0.61777
 H740 H 0.00950 0.35150 0.56655
 H741 H 0.01782 0.43212 0.65122
 H742 H -0.01419 0.38421 0.70583
 H743 H -0.00346 0.32178 0.65131
 H744 H -0.01448 0.35109 0.67615
 C745 C 0.51214 0.12606 0.85445
 C746 C 0.53316 0.11824 0.84195
 C747 C 0.53128 0.09931 0.82486
 C748 C 0.50857 0.08824 0.81993
 C749 C 0.48799 0.09681 0.83245
 N750 N 0.49030 0.11511 0.84914
 C751 C 0.51256 0.14559 0.87340
 N752 N 0.49083 0.15298 0.88287
 C753 C 0.48923 0.17019 0.90071
 C754 C 0.51045 0.18111 0.91039
 C755 C 0.53310 0.17392 0.90089
 C756 C 0.53428 0.15623 0.88249
 H757 H 0.54756 0.09350 0.81531
 H758 H 0.47016 0.08865 0.82940
 H759 H 0.47138 0.17484 0.90771
 H760 H 0.54994 0.18203 0.90764
 H761 H 0.55092 0.12645 0.84499
 H762 H 0.55208 0.15098 0.87598
 C763 C 1.00262 0.64442 0.37302
 C764 C 0.99242 0.66772 0.36942
 C765 C 0.99262 0.68457 0.38864
 C766 C 1.00280 0.67835 0.41150
 C767 C 1.01266 0.65486 0.41436
 N768 N 1.01224 0.63878 0.39540
 C769 C 1.00268 0.62535 0.35368
 N770 N 1.00702 0.60176 0.36052
 C771 C 1.00746 0.58305 0.34418
 C772 C 1.00332 0.58750 0.31911
 C773 C 0.99899 0.61168 0.31154
 C774 C 0.99877 0.63064 0.32868
 H775 H 0.98493 0.70253 0.38555
 H776 H 1.02030 0.64908 0.43176
 H777 H 1.01063 0.56466 0.35088
 H778 H 0.99614 0.61598 0.29232
 H779 H 0.98397 0.67294 0.35226
 H780 H 0.99597 0.64912 0.32214
 C781 C 1.14878 0.48861 0.12879
 C782 C 1.15819 0.46691 0.11898
 C783 C 1.17546 0.46809 0.10018
 C784 C 1.18349 0.49084 0.09058
 C785 C 1.17372 0.51210 0.10132
 N786 N 1.15700 0.51040 0.11968
 C787 C 1.12944 0.48891 0.14793
 N788 N 1.11859 0.51066 0.15306
 C789 C 1.10019 0.51269 0.16963
 C790 C 1.09134 0.49189 0.18208
 C791 C 1.10246 0.46934 0.17749
 C792 C 1.12156 0.46775 0.16062
 H793 H 1.18131 0.45093 0.09241
 H794 H 1.17967 0.53021 0.09577
 H795 H 1.09204 0.53043 0.17252
 H796 H 1.09645 0.45293 0.18706
 H797 H 1.15196 0.44905 0.12498
 H798 H 1.12983 0.45011 0.15784
 C799 C 0.62088 -0.01064 0.64106
 C800 C 0.61214 -0.03189 0.65295
 C801 C 0.59349 -0.03008 0.67028
 C802 C 0.58363 -0.00718 0.67607
 C803 C 0.59320 0.01364 0.66417
 N804 N 0.61125 0.01140 0.64723
 C805 C 0.64035 -0.01125 0.62216
 N806 N 0.65242 0.00996 0.61651
 C807 C 0.67008 0.01120 0.59902
 C808 C 0.67653 -0.00980 0.58583
 C809 C 0.66430 -0.03187 0.59127
 C810 C 0.64620 -0.03267 0.60928
 H811 H 0.58701 -0.04655 0.67942
 H812 H 0.58604 0.03164 0.66796
 H813 H 0.67916 0.02856 0.59556
 H814 H 0.66831 -0.04838 0.58116
 H815 H 0.61971 -0.04972 0.64934
 H816 H 0.63661 -0.04978 0.61245
 C817 C -0.15054 0.49612 0.87092
 C818 C -0.15822 0.47489 0.88356
 C819 C -0.17541 0.47670 0.90234
 C820 C -0.18493 0.49956 0.90879
 C821 C -0.17691 0.52030 0.89565
 N822 N -0.16013 0.51809 0.87743
 C823 C -0.13135 0.49567 0.85171
 N824 N -0.11949 0.51696 0.84591
 C825 C -0.10102 0.51804 0.82926
 C826 C -0.09322 0.49669 0.81747
 C827 C -0.10556 0.47464 0.82266
 C828 C -0.12468 0.47405 0.83958
 H829 H -0.18065 0.46030 0.91235
 H830 H -0.18392 0.53826 0.89987
 H831 H -0.09196 0.53542 0.82585
 H832 H -0.10046 0.45785 0.81356
 H833 H -0.15059 0.45713 0.87974
 H834 H -0.13405 0.45684 0.84286
 C835 C 0.38251 -0.00274 0.36265
 C836 C 0.38984 -0.02435 0.35094
 C837 C 0.40845 -0.02338 0.33348
 C838 C 0.41969 -0.00098 0.32739
 C839 C 0.41148 0.02028 0.33908
 N840 N 0.39342 0.01886 0.35617
 C841 C 0.36310 -0.00257 0.38163
 N842 N 0.35181 0.01894 0.38674
 C843 C 0.33407 0.02072 0.40409
 C844 C 0.32669 -0.00002 0.41760
 C845 C 0.33823 -0.02234 0.41280
 C846 C 0.35644 -0.02369 0.39498
 H847 H 0.41381 -0.04014 0.32448
 H848 H 0.41971 0.03793 0.33502
 H849 H 0.32558 0.03827 0.40709
 H850 H 0.33354 -0.03866 0.42320
 H851 H 0.38117 -0.04182 0.35478
 H852 H 0.36544 -0.04100 0.39226
 C853 C 0.13802 0.50441 0.88158
 C854 C 0.14424 0.52547 0.89505
 C855 C 0.16231 0.52418 0.91311
 C856 C 0.17414 0.50199 0.91799
 C857 C 0.16724 0.48132 0.90429
 N858 N 0.14962 0.48303 0.88675
 C859 C 0.11869 0.50446 0.86246
 N860 N 0.10812 0.48275 0.85595
 C861 C 0.09014 0.48120 0.83874
 C862 C 0.08168 0.50240 0.82693
 C863 C 0.09257 0.52493 0.83305
 C864 C 0.11110 0.52604 0.85065
 H865 H 0.16664 0.54044 0.92363
 H866 H 0.17598 0.46386 0.90734
 H867 H 0.08218 0.46345 0.83469
 H868 H 0.08700 0.54166 0.82397
 H869 H 0.13498 0.54267 0.89226
 H870 H 0.11950 0.54360 0.85453
 C871 C 0.63089 0.00163 0.35396
 C872 C 0.62821 0.02209 0.33848
 C873 C 0.60939 0.02232 0.32111
 C874 C 0.59350 0.00214 0.31895
 C875 C 0.59700 -0.01804 0.33456
 N876 N 0.61516 -0.01768 0.35160
 C877 C 0.64952 0.00092 0.37363
 N878 N 0.64443 -0.01181 0.39456
 C879 C 0.66045 -0.01322 0.41359
 C880 C 0.68341 -0.00152 0.41216
 C881 C 0.68915 0.01143 0.39051
 C882 C 0.67227 0.01277 0.37129
 H883 H 0.60722 0.03825 0.30940
 H884 H 0.58489 -0.03380 0.33367
 H885 H 0.65496 -0.02310 0.42996
 H886 H 0.70679 0.02028 0.38825
 H887 H 0.64000 0.03801 0.34022
 H888 H 0.67718 0.02255 0.35466
 C889 C 0.86512 0.50307 0.11470
 C890 C 0.86992 0.49621 0.09036
 C891 C 0.85104 0.49619 0.07313
 C892 C 0.82735 0.50293 0.07999
 C893 C 0.82323 0.50943 0.10456
 N894 N 0.84191 0.50921 0.12107
 C895 C 0.88448 0.50334 0.13371
 N896 N 0.87817 0.49986 0.15767
 C897 C 0.89500 0.49974 0.17609
 C898 C 0.91987 0.50355 0.17086
 C899 C 0.92672 0.50756 0.14634
 C900 C 0.90915 0.50750 0.12776
 H901 H 0.85505 0.49117 0.05435
 H902 H 0.80515 0.51443 0.11068
 H903 H 0.88891 0.49693 0.19480
 H904 H 0.94571 0.51044 0.14148
 H905 H 0.88793 0.49055 0.08466
 H906 H 0.91488 0.51101 0.10906
 C907 C 0.37146 0.01052 0.64673
 C908 C 0.37993 0.03191 0.65838
 C909 C 0.39888 0.03044 0.67550
 C910 C 0.40929 0.00775 0.68132
 C911 C 0.39977 -0.01328 0.66989
 N912 N 0.38147 -0.01137 0.65309
 C913 C 0.35219 0.01091 0.62753
 N914 N 0.34031 -0.01038 0.62192
 C915 C 0.32318 -0.01184 0.60385
 C916 C 0.31719 0.00899 0.58994
 C917 C 0.32916 0.03114 0.59543
 C918 C 0.34665 0.03219 0.61407
 H919 H 0.40531 0.04704 0.68430
 H920 H 0.40731 -0.03114 0.67377
 H921 H 0.31428 -0.02926 0.60039
 H922 H 0.32556 0.04753 0.58480
 H923 H 0.37203 0.04961 0.65463
 H924 H 0.35615 0.04934 0.61718
   
