data_POSCAR
  _audit_creation_date              2014-09-24
  _audit_creation_method            'ToBaCCo'
  _symmetry_space_group_name_H-M    'P1'
  _symmetry_Int_Tables_number       1
  _symmetry_cell_setting            triclinic
  loop_
  _symmetry_equiv_pos_as_xyz
 x,y,z
_cell_length_a 39.6155
_cell_length_b 39.8631
_cell_length_c 39.6610
_cell_angle_alpha 89.466900
_cell_angle_beta 90.458100
_cell_angle_gamma 90.798700
loop_
  _atom_site_label
  _atom_site_type_symbol
  _atom_site_fract_x
  _atom_site_fract_y
  _atom_site_fract_z
N1 N 0.16223 0.23232 0.24417
 N2 N 0.16984 0.20448 0.26035
 C3 C 0.14813 0.19994 0.28604
 C4 C 0.12585 0.22633 0.28587
 C5 C 0.13559 0.24645 0.25896
 H6 H 0.14800 0.17873 0.30324
 H7 H 0.12377 0.26920 0.25014
 Cu8 Cu 0.20653 0.17651 0.24511
 Cu9 Cu 0.18598 0.24735 0.20404
 Cu10 Cu 0.25039 0.19746 0.17517
 N11 N 0.24331 0.14911 0.22922
 N12 N 0.25984 0.15684 0.20150
 C13 C 0.28364 0.13360 0.19640
 C14 C 0.28193 0.11024 0.22245
 C15 C 0.25621 0.12095 0.24279
 H16 H 0.30137 0.13417 0.17581
 H17 H 0.24775 0.10905 0.26590
 N18 N 0.23687 0.23968 0.15241
 N19 N 0.21256 0.25869 0.16387
 C20 C 0.20926 0.28566 0.14353
 C21 C 0.23248 0.28369 0.11803
 C22 C 0.24968 0.25419 0.12431
 H23 H 0.19115 0.30539 0.14679
 H24 H 0.26990 0.24403 0.10957
 H25 H 0.20045 0.19999 0.18837
 H26 H 0.23155 0.22397 0.21470
 N27 N 0.65265 0.73243 0.73939
 N28 N 0.66264 0.70673 0.75775
 C29 C 0.64085 0.70195 0.78340
 C30 C 0.61595 0.72597 0.78070
 C31 C 0.62423 0.74472 0.75251
 H32 H 0.64281 0.68239 0.80233
 H33 H 0.61058 0.76592 0.74244
 Cu34 Cu 0.70284 0.68192 0.74559
 Cu35 Cu 0.67728 0.74872 0.70021
 Cu36 Cu 0.74935 0.70597 0.67866
 N37 N 0.74318 0.65769 0.73272
 N38 N 0.76123 0.66745 0.70664
 C39 C 0.78719 0.64644 0.70288
 C40 C 0.78539 0.62212 0.72780
 C41 C 0.75711 0.62998 0.74639
 H42 H 0.80588 0.64839 0.68320
 H43 H 0.74724 0.61643 0.76797
 N44 N 0.73314 0.74550 0.65342
 N45 N 0.70551 0.76160 0.66148
 C46 C 0.70095 0.78708 0.63944
 C47 C 0.72690 0.78706 0.61647
 C48 C 0.74689 0.76033 0.62603
 H49 H 0.68027 0.80449 0.63992
 H50 H 0.76962 0.75213 0.61390
 H51 H 0.69820 0.70315 0.68786
 H52 H 0.72399 0.73142 0.71551
 N53 N 0.34421 0.77096 0.73762
 N54 N 0.33421 0.79609 0.75613
 C55 C 0.35611 0.80034 0.78197
 C56 C 0.38110 0.77667 0.77948
 C57 C 0.37272 0.75839 0.75101
 H58 H 0.35425 0.81931 0.80116
 H59 H 0.38630 0.73762 0.74062
 Cu60 Cu 0.29373 0.82090 0.74431
 Cu61 Cu 0.31989 0.75652 0.69730
 Cu62 Cu 0.24665 0.79898 0.67694
 N63 N 0.25236 0.84432 0.73267
 N64 N 0.23397 0.83537 0.70644
 C65 C 0.20724 0.85569 0.70368
 C66 C 0.20894 0.87872 0.72945
 C67 C 0.23794 0.87077 0.74751
 H68 H 0.18819 0.85422 0.68403
 H69 H 0.24805 0.88338 0.76945
 N70 N 0.26359 0.76156 0.65008
 N71 N 0.29173 0.74567 0.65755
 C72 C 0.29689 0.72204 0.63415
 C73 C 0.27068 0.72316 0.61089
 C74 C 0.25004 0.74835 0.62183
 H75 H 0.31797 0.70513 0.63419
 H76 H 0.22694 0.75653 0.60981
 H77 H 0.29812 0.80204 0.68619
 H78 H 0.27327 0.77217 0.71312
 N79 N 0.83901 0.27599 0.24686
 N80 N 0.82375 0.29814 0.26554
 C81 C 0.84358 0.30634 0.29191
 C82 C 0.87277 0.28809 0.29012
 C83 C 0.86913 0.26889 0.26117
 H84 H 0.83716 0.32422 0.31111
 H85 H 0.88709 0.25162 0.25091
 Cu86 Cu 0.77944 0.31443 0.25426
 Cu87 Cu 0.81865 0.25956 0.20476
 Cu88 Cu 0.74587 0.30008 0.17804
 N89 N 0.74301 0.34124 0.23679
 N90 N 0.72999 0.33603 0.20671
 C91 C 0.70607 0.35904 0.20058
 C92 C 0.70413 0.37965 0.22835
 C93 C 0.72801 0.36761 0.25088
 H94 H 0.69147 0.36098 0.17750
 H95 H 0.73471 0.37758 0.27531
 N96 N 0.76601 0.26295 0.15299
 N97 N 0.79366 0.24743 0.16298
 C98 C 0.80033 0.22291 0.14087
 C99 C 0.77559 0.22309 0.11595
 C100 C 0.75434 0.24868 0.12450
 H101 H 0.82121 0.20584 0.14312
 H102 H 0.73177 0.25605 0.11100
 H103 H 0.79495 0.30454 0.19623
 H104 H 0.76859 0.26958 0.21416
 N105 N 0.85042 0.73028 0.25453
 N106 N 0.84113 0.70308 0.23820
 C107 C 0.86188 0.69899 0.21185
 C108 C 0.88537 0.72492 0.21173
 C109 C 0.87735 0.74437 0.23920
 H110 H 0.86025 0.67861 0.19407
 H111 H 0.89010 0.76697 0.24759
 Cu112 Cu 0.80315 0.67547 0.25330
 Cu113 Cu 0.82709 0.74553 0.29450
 Cu114 Cu 0.75894 0.69720 0.32137
 N115 N 0.76409 0.64925 0.26822
 N116 N 0.74732 0.65781 0.29520
 C117 C 0.72173 0.63588 0.30019
 C118 C 0.72233 0.61234 0.27501
 C119 C 0.74957 0.62149 0.25503
 H120 H 0.70372 0.63707 0.32047
 H121 H 0.75811 0.60904 0.23263
 N122 N 0.77434 0.73794 0.34456
 N123 N 0.80013 0.75661 0.33437
 C124 C 0.80347 0.78319 0.35496
 C125 C 0.77856 0.78108 0.37908
 C126 C 0.76061 0.75204 0.37178
 H127 H 0.82228 0.80295 0.35241
 H128 H 0.73888 0.74207 0.38494
 H129 H 0.80983 0.69890 0.30957
 H130 H 0.78104 0.72411 0.28209
 N131 N 0.34087 0.23675 -0.24080
 N132 N 0.33164 0.21052 -0.25866
 C133 C 0.35263 0.20773 -0.28501
 C134 C 0.37622 0.23354 -0.28353
 C135 C 0.36800 0.25155 -0.25509
 H136 H 0.35112 0.18827 -0.30382
 H137 H 0.38067 0.27361 -0.24529
 Cu138 Cu 0.29349 0.18235 -0.24531
 Cu139 Cu 0.31723 0.24988 -0.20032
 Cu140 Cu 0.24853 0.20060 -0.17652
 N141 N 0.25522 0.15467 -0.23133
 N142 N 0.23778 0.16198 -0.20438
 C143 C 0.21326 0.13870 -0.20001
 C144 C 0.21543 0.11557 -0.22553
 C145 C 0.24234 0.12645 -0.24506
 H146 H 0.19529 0.13839 -0.17962
 H147 H 0.25197 0.11466 -0.26736
 N148 N 0.26342 0.24063 -0.15155
 N149 N 0.28995 0.25904 -0.16027
 C150 C 0.29416 0.28398 -0.13791
 C151 C 0.26899 0.28108 -0.11406
 C152 C 0.24992 0.25351 -0.12352
 H153 H 0.31388 0.30294 -0.13905
 H154 H 0.22800 0.24346 -0.11064
 H155 H 0.29951 0.20249 -0.18772
 H156 H 0.27115 0.22932 -0.21404
 N157 N 0.65439 0.26240 -0.23944
 N158 N 0.66371 0.28906 -0.25697
 C159 C 0.64187 0.29358 -0.28272
 C160 C 0.61752 0.26854 -0.28130
 C161 C 0.62620 0.24905 -0.25344
 H162 H 0.64331 0.31372 -0.30114
 H163 H 0.61315 0.22699 -0.24392
 Cu164 Cu 0.70296 0.31579 -0.24406
 Cu165 Cu 0.67964 0.24727 -0.19974
 Cu166 Cu 0.75003 0.29501 -0.17654
 N167 N 0.74226 0.34237 -0.23097
 N168 N 0.76058 0.33425 -0.20444
 C169 C 0.78572 0.35705 -0.20074
 C170 C 0.78293 0.38071 -0.22627
 C171 C 0.75507 0.37060 -0.24504
 H172 H 0.80450 0.35669 -0.18081
 H173 H 0.74469 0.38296 -0.26706
 N174 N 0.73525 0.25443 -0.15162
 N175 N 0.70855 0.23622 -0.16044
 C176 C 0.70532 0.21021 -0.13871
 C177 C 0.73111 0.21212 -0.11515
 C178 C 0.74962 0.24049 -0.12405
 H179 H 0.68569 0.19112 -0.13984
 H180 H 0.77194 0.25024 -0.11151
 H181 H 0.69869 0.29386 -0.18662
 H182 H 0.72574 0.26755 -0.21376
 N183 N 0.15897 0.76985 0.25626
 N184 N 0.16849 0.79597 0.23803
 C185 C 0.14858 0.79787 0.21036
 C186 C 0.12550 0.77155 0.21137
 C187 C 0.13285 0.75425 0.24088
 H188 H 0.15032 0.81715 0.19106
 H189 H 0.11998 0.73225 0.25076
 Cu190 Cu 0.20518 0.82528 0.25338
 Cu191 Cu 0.18044 0.75826 0.29905
 Cu192 Cu 0.24547 0.81060 0.32672
 N193 N 0.24197 0.85445 0.26872
 N194 N 0.25679 0.84915 0.29804
 C195 C 0.28027 0.87331 0.30335
 C196 C 0.28036 0.89483 0.27567
 C197 C 0.25585 0.88200 0.25416
 H198 H 0.29640 0.87461 0.32542
 H199 H 0.24855 0.89224 0.22987
 N200 N 0.23031 0.77028 0.35200
 N201 N 0.20526 0.75068 0.34161
 C202 C 0.20089 0.72544 0.36401
 C203 C 0.22442 0.72925 0.38967
 C204 C 0.24273 0.75779 0.38120
 H205 H 0.18245 0.70538 0.36148
 H206 H 0.26364 0.76850 0.39532
 H207 H 0.19571 0.80643 0.31124
 H208 H 0.22689 0.78017 0.28885
 N209 N 0.48534 0.41291 0.50004
 N210 N 0.45782 0.42091 0.51623
 C211 C 0.45359 0.39965 0.54248
 C212 C 0.47978 0.37718 0.54276
 C213 C 0.49955 0.38630 0.51543
 H214 H 0.43281 0.40010 0.55998
 H215 H 0.52234 0.37442 0.50711
 Cu216 Cu 0.42966 0.45775 0.50107
 Cu217 Cu 0.50029 0.43721 0.45993
 Cu218 Cu 0.44957 0.50180 0.43103
 N219 N 0.40120 0.49362 0.48416
 N220 N 0.40882 0.51052 0.45657
 C221 C 0.38487 0.53351 0.45053
 C222 C 0.36097 0.53081 0.47577
 C223 C 0.37219 0.50535 0.49665
 H224 H 0.38512 0.55110 0.42963
 H225 H 0.35999 0.49618 0.51929
 N226 N 0.49182 0.48921 0.40870
 N227 N 0.51116 0.46471 0.41982
 C228 C 0.53792 0.46215 0.39932
 C229 C 0.53536 0.48612 0.37416
 C230 C 0.50580 0.50287 0.38081
 H231 H 0.55783 0.44405 0.40222
 H232 H 0.49510 0.52326 0.36633
 H233 H 0.47752 0.48215 0.47066
 H234 H 0.45265 0.45168 0.44462
 N235 N -0.01353 -0.09602 0.99334
 N236 N -0.04063 -0.08841 1.01040
 C237 C -0.04434 -0.11049 1.03607
 C238 C -0.01819 -0.13303 1.03495
 C239 C 0.00092 -0.12309 1.00748
 H240 H -0.06456 -0.11040 1.05422
 H241 H 0.02354 -0.13463 0.99829
 Cu242 Cu -0.06836 -0.05059 0.99689
 Cu243 Cu 0.00099 -0.07065 0.95389
 Cu244 Cu -0.04845 -0.00371 0.92864
 N245 N -0.09565 -0.01268 0.98288
 N246 N -0.08813 0.00520 0.95586
 C247 C -0.11119 0.02943 0.95171
 C248 C -0.13434 0.02657 0.97761
 C249 C -0.12364 -0.00028 0.99693
 H250 H -0.11080 0.04799 0.93166
 H251 H -0.13551 -0.00999 1.01952
 N252 N -0.00721 -0.01685 0.90467
 N253 N 0.01167 -0.04217 0.91463
 C254 C 0.03796 -0.04481 0.89360
 C255 C 0.03557 -0.02013 0.86921
 C256 C 0.00661 -0.00277 0.87689
 H257 H 0.05747 -0.06344 0.89563
 H258 H -0.00364 0.01845 0.86332
 H259 H -0.02067 -0.02557 0.96687
 H260 H -0.04652 -0.05424 0.93974
 N261 N 1.02160 0.59988 0.98089
 N262 N 1.04708 0.59018 0.99986
 C263 C 1.05213 0.61258 1.02467
 C264 C 1.02849 0.63761 1.02103
 C265 C 1.00947 0.62869 0.99310
 H266 H 1.07099 0.61037 1.04437
 H267 H 0.98821 0.64210 0.98264
 Cu268 Cu 1.07053 0.54856 0.99166
 Cu269 Cu 1.00594 0.57414 0.94221
 Cu270 Cu 1.04323 0.49724 0.92971
 N271 N 1.09015 0.50476 0.98462
 N272 N 1.07895 0.48445 0.96100
 C273 C 1.09756 0.45642 0.96138
 C274 C 1.12173 0.45945 0.98661
 C275 C 1.11629 0.49037 1.00078
 H276 H 1.09454 0.43603 0.94378
 H277 H 1.13093 0.50178 1.02086
 N278 N 1.00693 0.51463 0.90048
 N279 N 0.99352 0.54444 0.90453
 C280 C 0.97080 0.54982 0.87966
 C281 C 0.96984 0.52196 0.85912
 C282 C 0.99285 0.50012 0.87314
 H283 H 0.95584 0.57216 0.87688
 H284 H 0.99916 0.47567 0.86368
 H285 H 1.01944 0.52851 0.96323
 H286 H 1.05015 0.54862 0.93342
 N287 N 0.51274 0.10295 0.49729
 N288 N 0.54161 0.09759 0.51281
 C289 C 0.54496 0.11870 0.53886
 C290 C 0.51683 0.13861 0.53965
 C291 C 0.49675 0.12802 0.51287
 H292 H 0.56637 0.11965 0.55594
 H293 H 0.47239 0.13758 0.50536
 Cu294 Cu 0.57235 0.06389 0.49762
 Cu295 Cu 0.49848 0.07654 0.45832
 Cu296 Cu 0.54862 0.00878 0.43820
 N297 N 0.59646 0.02274 0.49128
 N298 N 0.58775 0.00131 0.46766
 C299 C 0.60918 -0.02467 0.46877
 C300 C 0.63228 -0.01903 0.49468
 C301 C 0.62334 0.01114 0.50841
 H302 H 0.60777 -0.04611 0.45230
 H303 H 0.63561 0.02376 0.52930
 N304 N 0.50779 0.02106 0.41201
 N305 N 0.48870 0.04671 0.41990
 C306 C 0.46310 0.04878 0.39748
 C307 C 0.46614 0.02336 0.37439
 C308 C 0.49478 0.00619 0.38430
 H309 H 0.44370 0.06759 0.39764
 H310 H 0.50547 -0.01535 0.37220
 H311 H 0.52339 0.03410 0.47525
 H312 H 0.54515 0.06019 0.44241
 N313 N -0.01601 0.09298 0.50533
 N314 N -0.04523 0.08688 0.49054
 C315 C -0.05041 0.11020 0.46636
 C316 C -0.02303 0.13201 0.46600
 C317 C -0.00160 0.12035 0.49109
 H318 H -0.07237 0.11127 0.45004
 H319 H 0.02252 0.13098 0.49862
 Cu320 Cu -0.07382 0.04894 0.50360
 Cu321 Cu 0.00073 0.06562 0.54244
 Cu322 Cu -0.04733 -0.00394 0.56495
 N323 N -0.09844 0.00781 0.51478
 N324 N -0.08802 -0.01261 0.53877
 C325 C -0.10927 -0.03914 0.54076
 C326 C -0.13425 -0.03528 0.51668
 C327 C -0.12670 -0.00515 0.50059
 H328 H -0.10658 -0.06001 0.55815
 H329 H -0.14047 0.00633 0.47999
 N330 N -0.00532 0.00885 0.58843
 N331 N 0.01339 0.03503 0.57948
 C332 C 0.04028 0.03725 0.60038
 C333 C 0.03823 0.01117 0.62357
 C334 C 0.00905 -0.00622 0.61533
 H335 H 0.05937 0.05685 0.59937
 H336 H -0.00106 -0.02805 0.62832
 H337 H -0.02349 0.02221 0.52631
 H338 H -0.04562 0.04768 0.55857
 N339 N 0.48642 0.59274 0.00206
 N340 N 0.45982 0.58377 -0.01593
 C341 C 0.45625 0.60553 -0.04191
 C342 C 0.48203 0.62932 -0.03990
 C343 C 0.50055 0.62046 -0.01170
 H344 H 0.43625 0.60436 -0.06058
 H345 H 0.52274 0.63332 -0.00198
 Cu346 Cu 0.43231 0.54473 -0.00335
 Cu347 Cu 0.50098 0.56807 0.04197
 Cu348 Cu 0.45135 0.50030 0.06666
 N349 N 0.40421 0.50699 0.01176
 N350 N 0.41200 0.48990 0.03917
 C351 C 0.38919 0.46506 0.04378
 C352 C 0.36577 0.46653 0.01799
 C353 C 0.37594 0.49351 -0.00200
 H354 H 0.38966 0.44697 0.06426
 H355 H 0.36396 0.50242 -0.02489
 N356 N 0.49216 0.51447 0.09129
 N357 N 0.51146 0.53997 0.08164
 C358 C 0.53770 0.54291 0.10326
 C359 C 0.53456 0.51804 0.12763
 C360 C 0.50545 0.50062 0.11937
 H361 H 0.55735 0.56192 0.10162
 H362 H 0.49491 0.47929 0.13287
 H363 H 0.47985 0.52243 0.02876
 H364 H 0.45321 0.55094 0.05423
 N365 N 0.51794 -0.09771 0.00865
 N366 N 0.54717 -0.09231 -0.00607
 C367 C 0.55141 -0.11563 -0.03002
 C368 C 0.52320 -0.13655 -0.03035
 C369 C 0.50243 -0.12430 -0.00569
 H370 H 0.57325 -0.11722 -0.04606
 H371 H 0.47819 -0.13458 0.00180
 Cu372 Cu 0.57662 -0.05520 0.00757
 Cu373 Cu 0.50320 -0.07145 0.04689
 Cu374 Cu 0.55721 -0.00797 0.07434
 N375 N 0.60622 -0.01877 0.02261
 N376 N 0.59895 -0.00111 0.04937
 C377 C 0.62332 0.02225 0.05430
 C378 C 0.64703 0.01921 0.02911
 C379 C 0.63533 -0.00692 0.00937
 H380 H 0.62316 0.04082 0.07399
 H381 H 0.64708 -0.01630 -0.01311
 N382 N 0.51373 -0.01857 0.09616
 N383 N 0.49293 -0.04235 0.08531
 C384 C 0.46553 -0.04344 0.10521
 C385 C 0.46919 -0.01925 0.12967
 C386 C 0.50006 -0.00389 0.12323
 H387 H 0.44449 -0.06079 0.10246
 H388 H 0.51183 0.01624 0.13733
 H389 H 0.52944 -0.02786 0.03479
 H390 H 0.55114 -0.05838 0.06331
 N391 N 1.00930 0.40519 0.50283
 N392 N 1.03697 0.41322 0.48636
 C393 C 1.04186 0.39060 0.46196
 C394 C 1.01585 0.36704 0.46310
 C395 C 0.99558 0.37718 0.48928
 H396 H 1.06301 0.39111 0.44494
 H397 H 0.97291 0.36466 0.49818
 Cu398 Cu 1.06510 0.45165 0.49869
 Cu399 Cu 0.99430 0.43099 0.54147
 Cu400 Cu 1.04611 0.49704 0.56686
 N401 N 1.09382 0.48870 0.51368
 N402 N 1.08672 0.50579 0.54084
 C403 C 1.11082 0.52940 0.54578
 C404 C 1.13429 0.52700 0.52027
 C405 C 1.12265 0.50102 0.50032
 H406 H 1.11087 0.54734 0.56605
 H407 H 1.13448 0.49182 0.47779
 N408 N 1.00393 0.48469 0.59002
 N409 N 0.98368 0.46008 0.58002
 C410 C 0.95677 0.45849 0.60067
 C411 C 0.96048 0.48325 0.62477
 C412 C 0.99062 0.49921 0.61729
 H413 H 0.93633 0.44035 0.59865
 H414 H 1.00189 0.51999 0.63085
 H415 H 1.01755 0.47580 0.52833
 H416 H 1.04230 0.44637 0.55549
 C417 C 0.38180 0.00218 0.24997
 C418 C 0.12321 -0.00196 0.74744
 C419 C 0.62048 0.50224 0.25039
 C420 C 0.87241 0.50045 0.74546
 C421 C 0.24493 0.37613 -0.00150
 C422 C 0.75484 0.12308 0.00558
 C423 C 0.24776 0.62611 0.49810
 C424 C 0.74718 0.87365 0.49308
 C425 C 0.00261 0.24716 0.37067
 C426 C 0.00528 0.74546 0.12170
 C427 C 0.49649 0.25519 0.63080
 C428 C 0.49933 0.75131 0.87254
 C429 C 0.09688 0.23029 0.30854
 C430 C 0.07631 0.25669 0.30626
 C431 C 0.04574 0.26139 0.32676
 C432 C 0.03536 0.24099 0.35189
 H433 H 0.08128 0.27612 0.28768
 H434 H 0.03073 0.28314 0.32050
 H435 H 0.09247 0.21047 0.32677
 H436 H 0.05017 0.21951 0.35918
 C437 C 0.58634 0.73148 0.80212
 C438 C 0.58115 0.71502 0.83129
 C439 C 0.55156 0.71998 0.85325
 C440 C 0.53043 0.74606 0.85060
 H441 H 0.59893 0.69620 0.83947
 H442 H 0.54797 0.70138 0.87295
 H443 H 0.56851 0.74976 0.79299
 H444 H 0.53538 0.76572 0.83227
 C445 C 0.41033 0.77284 0.80246
 C446 C 0.43402 0.74973 0.79756
 C447 C 0.46437 0.74537 0.81901
 C448 C 0.46806 0.75724 0.85051
 H449 H 0.43221 0.73362 0.77582
 H450 H 0.48401 0.73026 0.80833
 H451 H 0.41244 0.79011 0.82325
 H452 H 0.44710 0.76975 0.86209
 C453 C -0.10067 0.28985 0.31342
 C454 C -0.07395 0.26979 0.31292
 C455 C -0.04754 0.27260 0.33917
 C456 C -0.02549 0.24786 0.34407
 H457 H -0.07198 0.25047 0.29402
 H458 H -0.04690 0.29474 0.35473
 H459 H -0.10256 0.30798 0.33354
 H460 H -0.02756 0.22606 0.32792
 C461 C -0.08704 0.72966 0.18733
 C462 C -0.06510 0.75551 0.18899
 C463 C -0.03705 0.76137 0.16517
 C464 C -0.02467 0.73806 0.14455
 H465 H -0.06801 0.77429 0.20822
 H466 H -0.02525 0.78604 0.16552
 H467 H -0.08538 0.71140 0.16745
 H468 H -0.03476 0.71271 0.14543
 C469 C 0.40260 0.23901 0.69381
 C470 C 0.42491 0.26450 0.69676
 C471 C 0.45340 0.27068 0.67359
 C472 C 0.46572 0.24781 0.65248
 H473 H 0.42224 0.28262 0.71666
 H474 H 0.46574 0.29506 0.67506
 H475 H 0.40438 0.22170 0.67309
 H476 H 0.45524 0.22261 0.65235
 C477 C 0.59036 0.26512 0.69622
 C478 C 0.56701 0.24051 0.69853
 C479 C 0.53830 0.23647 0.67471
 C480 C 0.52674 0.26081 0.65414
 H481 H 0.56921 0.22143 0.71797
 H482 H 0.52543 0.21231 0.67488
 H483 H 0.58892 0.28335 0.67592
 H484 H 0.53777 0.28576 0.65524
 C485 C 0.09838 0.76485 0.18650
 C486 C 0.07697 0.73862 0.18941
 C487 C 0.04894 0.73128 0.16562
 C488 C 0.03573 0.75380 0.14407
 H489 H 0.08019 0.72080 0.20987
 H490 H 0.03772 0.70637 0.16697
 H491 H 0.09650 0.78203 0.16534
 H492 H 0.04514 0.77940 0.14404
 C493 C 0.30344 0.08102 0.22921
 C494 C 0.32348 0.06784 0.20591
 C495 C 0.34504 0.03849 0.21267
 C496 C 0.35950 0.03231 0.24284
 H497 H 0.32299 0.07766 0.18037
 H498 H 0.35060 0.02260 0.19149
 H499 H 0.30170 0.06948 0.25396
 H500 H 0.35408 0.04870 0.26369
 C501 C 0.80885 0.59390 0.73201
 C502 C 0.80554 0.57072 0.75650
 C503 C 0.82844 0.54202 0.76157
 C504 C 0.85036 0.53096 0.73860
 H505 H 0.78547 0.57295 0.77464
 H506 H 0.82621 0.52851 0.78529
 H507 H 0.82946 0.59280 0.71439
 H508 H 0.85206 0.54307 0.71415
 C509 C 0.80488 0.41051 0.76883
 C510 C 0.79965 0.43283 0.74389
 C511 C 0.82001 0.46376 0.73880
 C512 C 0.85144 0.46845 0.75104
 H513 H 0.77836 0.42951 0.72696
 H514 H 0.80861 0.48296 0.72316
 H515 H 0.82511 0.41432 0.78693
 H516 H 0.86376 0.44786 0.76391
 C517 C 0.30071 -0.07681 0.26953
 C518 C 0.32196 -0.06387 0.29267
 C519 C 0.34376 -0.03417 0.28623
 C520 C 0.35847 -0.02791 0.25638
 H521 H 0.32249 -0.07403 0.31806
 H522 H 0.34968 -0.01836 0.30759
 H523 H 0.29836 -0.06456 0.24514
 H524 H 0.35270 -0.04431 0.23541
 C525 C 0.18615 -0.09534 0.73440
 C526 C 0.18930 -0.07307 0.75947
 C527 C 0.16640 -0.04453 0.76454
 C528 C 0.14429 -0.03305 0.74142
 H529 H 0.20950 -0.07552 0.77781
 H530 H 0.16914 -0.03125 0.78814
 H531 H 0.16527 -0.09377 0.71679
 H532 H 0.14216 -0.04498 0.71712
 C533 C 0.68226 0.40900 0.23187
 C534 C 0.68159 0.42685 0.26036
 C535 C 0.66172 0.45745 0.26535
 C536 C 0.63896 0.46978 0.24344
 H537 H 0.69720 0.41947 0.28157
 H538 H 0.66643 0.47080 0.28864
 H539 H 0.66715 0.41593 0.21019
 H540 H 0.63306 0.45656 0.22040
 C541 C 0.69816 0.58422 0.27128
 C542 C 0.69920 0.56274 0.24559
 C543 C 0.67545 0.53416 0.24134
 C544 C 0.64509 0.53155 0.25624
 H545 H 0.71903 0.56519 0.22710
 H546 H 0.68323 0.51497 0.22402
 H547 H 0.67938 0.58128 0.29074
 H548 H 0.63639 0.55208 0.27135
 C549 C 0.19348 0.08578 0.77026
 C550 C 0.19738 0.06402 0.74509
 C551 C 0.17618 0.03364 0.74030
 C552 C 0.14536 0.02909 0.75371
 H553 H 0.21785 0.06764 0.72748
 H554 H 0.18625 0.01482 0.72381
 H555 H 0.17416 0.08167 0.78900
 H556 H 0.13444 0.04925 0.76781
 C557 C 0.23645 0.30849 0.09049
 C558 C 0.25953 0.30584 0.06621
 C559 C 0.26377 0.33054 0.03840
 C560 C 0.23977 0.35194 0.02802
 H561 H 0.27709 0.28530 0.06703
 H562 H 0.28755 0.33015 0.02520
 H563 H 0.21991 0.32982 0.09095
 H564 H 0.21542 0.35139 0.04016
 C565 C 0.73118 0.81077 0.58801
 C566 C 0.75787 0.80994 0.56751
 C567 C 0.76342 0.83296 0.53859
 C568 C 0.73966 0.85231 0.52426
 H569 H 0.77756 0.79194 0.57227
 H570 H 0.78838 0.83286 0.52762
 H571 H 0.71195 0.82948 0.58454
 H572 H 0.71411 0.85165 0.53370
 C573 C 0.77227 0.80556 0.40585
 C574 C 0.74615 0.80208 0.42695
 C575 C 0.73757 0.82604 0.45355
 C576 C 0.75803 0.85065 0.46487
 H577 H 0.72892 0.78099 0.42431
 H578 H 0.71305 0.82256 0.46508
 H579 H 0.78911 0.82706 0.40727
 H580 H 0.78321 0.85368 0.45485
 C581 C 0.26296 0.30232 -0.08464
 C582 C 0.28567 0.32504 -0.07381
 C583 C 0.28068 0.34580 -0.04376
 C584 C 0.25024 0.35586 -0.03346
 H585 H 0.30995 0.32728 -0.08598
 H586 H 0.30328 0.35385 -0.03046
 H587 H 0.23975 0.29804 -0.07094
 H588 H 0.22810 0.34811 -0.04768
 C589 C 0.73681 0.18830 -0.08702
 C590 C 0.76267 0.19157 -0.06518
 C591 C 0.76953 0.16797 -0.03698
 C592 C 0.74671 0.14622 -0.02414
 H593 H 0.78075 0.21189 -0.06845
 H594 H 0.79452 0.16921 -0.02577
 H595 H 0.71937 0.16730 -0.08502
 H596 H 0.72106 0.14641 -0.03369
 C597 C 0.23022 0.70721 0.41917
 C598 C 0.20753 0.68390 0.42887
 C599 C 0.21238 0.66111 0.45802
 C600 C 0.24270 0.65002 0.46826
 H601 H 0.18339 0.68217 0.41600
 H602 H 0.18965 0.65186 0.47010
 H603 H 0.25326 0.71104 0.43355
 H604 H 0.26519 0.65966 0.45595
 C605 C 0.26481 0.70220 0.58092
 C606 C 0.28821 0.68152 0.56910
 C607 C 0.28318 0.66022 0.53913
 C608 C 0.25286 0.64863 0.52868
 H609 H 0.31294 0.68092 0.58086
 H610 H 0.30583 0.65255 0.52640
 H611 H 0.24088 0.70485 0.56790
 H612 H 0.23036 0.65657 0.54152
 C613 C 0.77089 0.20069 0.08685
 C614 C 0.79411 0.17863 0.07741
 C615 C 0.78987 0.15646 0.04791
 C616 C 0.75968 0.14553 0.03632
 H617 H 0.81813 0.17779 0.09056
 H618 H 0.81284 0.14822 0.03618
 H619 H 0.74784 0.20343 0.07232
 H620 H 0.73694 0.15369 0.04860
 C621 C 0.48410 0.34929 0.56701
 C622 C 0.50980 0.32785 0.56541
 C623 C 0.51467 0.29919 0.58884
 C624 C 0.49056 0.28617 0.60892
 H625 H 0.52896 0.33149 0.54640
 H626 H 0.53911 0.28735 0.58844
 H627 H 0.46547 0.34687 0.58666
 H628 H 0.46535 0.29621 0.60797
 C629 C -0.01278 0.83856 0.05832
 C630 C 0.01341 0.81784 0.05542
 C631 C 0.02017 0.78940 0.07852
 C632 C -0.00297 0.77503 0.09875
 H633 H 0.03192 0.82235 0.03595
 H634 H 0.04543 0.77936 0.07814
 H635 H -0.03065 0.83532 0.07858
 H636 H -0.02886 0.78331 0.09754
 C637 C 0.02308 0.66682 0.04275
 C638 C 0.04591 0.67685 0.06579
 C639 C 0.04113 0.70589 0.08801
 C640 C 0.01079 0.71522 0.09923
 H641 H 0.07002 0.66449 0.06756
 H642 H 0.06376 0.71892 0.09644
 H643 H 0.00011 0.68078 0.03889
 H644 H -0.01151 0.70154 0.09082
 C645 C 0.51110 0.16523 0.56431
 C646 C 0.48502 0.18620 0.56230
 C647 C 0.47937 0.21365 0.58639
 C648 C 0.50305 0.22584 0.60763
 H649 H 0.46637 0.18307 0.54246
 H650 H 0.45473 0.22509 0.58577
 H651 H 0.52936 0.16723 0.58459
 H652 H 0.52849 0.21641 0.60686
 C653 C -0.01877 0.16115 0.44325
 C654 C 0.00928 0.18041 0.44305
 C655 C 0.01486 0.20964 0.42034
 C656 C -0.00482 0.21737 0.39372
 H657 H 0.02950 0.17503 0.46067
 H658 H 0.03698 0.22510 0.42545
 H659 H -0.03969 0.16643 0.42651
 H660 H -0.02621 0.20141 0.38748
 C661 C 0.48901 0.65849 0.93802
 C662 C 0.47287 0.66346 0.90865
 C663 C 0.48017 0.69218 0.88590
 C664 C 0.49181 0.72212 0.89657
 H665 H 0.45479 0.64493 0.89971
 H666 H 0.47462 0.68865 0.85941
 H667 H 0.50891 0.67562 0.94593
 H668 H 0.49623 0.72585 0.92327
 C669 C 0.51604 0.83408 0.94829
 C670 C 0.54038 0.81790 0.93209
 C671 C 0.53389 0.78761 0.91173
 C672 C 0.50562 0.78277 0.89335
 H673 H 0.56649 0.82558 0.93556
 H674 H 0.55394 0.76947 0.91058
 H675 H 0.49029 0.82465 0.94739
 H676 H 0.48628 0.80173 0.89385
 C677 C 0.01094 0.33687 0.44205
 C678 C 0.03427 0.32730 0.41988
 C679 C 0.03220 0.29696 0.39870
 C680 C 0.00396 0.27881 0.39250
 H681 H 0.05749 0.34170 0.41761
 H682 H 0.05578 0.29001 0.38739
 H683 H -0.01178 0.32204 0.44590
 H684 H -0.01927 0.28567 0.40461
 C685 C 0.33049 0.55087 0.48096
 C686 C 0.31904 0.57277 0.45789
 C687 C 0.28895 0.59369 0.46268
 C688 C 0.27803 0.60349 0.49302
 H689 H 0.33140 0.57495 0.43373
 H690 H 0.27667 0.60272 0.43995
 H691 H 0.31693 0.54673 0.50423
 H692 H 0.29047 0.59422 0.51559
 C693 C 0.83620 0.04753 -0.01540
 C694 C 0.82411 0.06973 -0.03783
 C695 C 0.79449 0.09088 -0.03160
 C696 C 0.78540 0.10115 -0.00081
 H697 H 0.83519 0.07162 -0.06263
 H698 H 0.78081 0.09950 -0.05368
 H699 H 0.82369 0.04358 0.00849
 H700 H 0.79921 0.09226 0.02109
 C701 C 0.67705 0.04052 0.02265
 C702 C 0.69091 0.06002 0.04650
 C703 C 0.72031 0.08238 0.04047
 C704 C 0.72505 0.09921 0.01134
 H705 H 0.68142 0.05868 0.07201
 H706 H 0.73715 0.08696 0.06162
 H707 H 0.68832 0.03949 -0.00210
 H708 H 0.70763 0.09475 -0.00940
 C709 C 0.16471 0.54790 0.51427
 C710 C 0.17736 0.56863 0.53772
 C711 C 0.20750 0.59032 0.53283
 C712 C 0.21746 0.60245 0.50269
 H713 H 0.16606 0.56907 0.56246
 H714 H 0.22062 0.59807 0.55554
 H715 H 0.17725 0.54529 0.49032
 H716 H 0.20431 0.59432 0.48010
 C717 C 0.14985 0.43703 -0.00495
 C718 C 0.15311 0.40661 -0.01852
 C719 C 0.18272 0.38520 -0.01223
 C720 C 0.21373 0.39778 -0.00581
 H721 H 0.13324 0.39646 -0.03446
 H722 H 0.17921 0.35839 -0.01515
 H723 H 0.16845 0.44624 0.01297
 H724 H 0.21707 0.42478 -0.00478
 C725 C 0.66066 0.96031 0.50629
 C726 C 0.67180 0.93414 0.48911
 C727 C 0.70135 0.91545 0.50127
 C728 C 0.71579 0.89249 0.48197
 H729 H 0.65984 0.92707 0.46552
 H730 H 0.71205 0.92101 0.52588
 H731 H 0.67357 0.96773 0.52931
 H732 H 0.70511 0.88771 0.45716
 C733 C 0.83793 0.94073 0.51022
 C734 C 0.81534 0.94474 0.48521
 C735 C 0.78781 0.92033 0.47809
 C736 C 0.77532 0.89874 0.50116
 H737 H 0.81776 0.96588 0.46807
 H738 H 0.77681 0.92079 0.45300
 H739 H 0.83694 0.91865 0.52625
 H740 H 0.78455 0.89980 0.52690
 C741 C 0.33708 0.44305 0.01364
 C742 C 0.31456 0.44582 -0.01154
 C743 C 0.28603 0.42211 -0.01699
 C744 C 0.27477 0.39959 0.00592
 H745 H 0.31746 0.46577 -0.03001
 H746 H 0.27327 0.42369 -0.04121
 H747 H 0.33529 0.42266 0.03169
 H748 H 0.28581 0.39883 0.03094
 C749 C 0.55919 0.49111 0.34612
 C750 C 0.55553 0.51527 0.32269
 C751 C 0.57842 0.52039 0.29372
 C752 C 0.59885 0.49674 0.28168
 H753 H 0.53520 0.53294 0.32485
 H754 H 0.57688 0.54427 0.28059
 H755 H 0.58039 0.47435 0.34530
 H756 H 0.59877 0.47211 0.29341
 C757 C 0.05938 -0.01498 0.84123
 C758 C 0.05528 0.00870 0.81744
 C759 C 0.07847 0.01415 0.78878
 C760 C 0.10091 -0.00838 0.77808
 H761 H 0.03433 0.02571 0.81906
 H762 H 0.07574 0.03750 0.77491
 H763 H 0.08091 -0.03131 0.84078
 H764 H 0.10234 -0.03259 0.79051
 C765 C 0.06051 0.00387 0.65248
 C766 C 0.09039 0.01936 0.65701
 C767 C 0.11244 0.01299 0.68649
 C768 C 0.10052 0.00407 0.71692
 H769 H 0.09994 0.03653 0.63795
 H770 H 0.13920 0.01746 0.68322
 H771 H 0.05204 -0.01527 0.67013
 H772 H 0.07352 0.00086 0.72003
 C773 C 0.55641 0.51110 0.15690
 C774 C 0.58693 0.52542 0.16079
 C775 C 0.60913 0.51830 0.18991
 C776 C 0.59743 0.51019 0.22064
 H777 H 0.59706 0.54161 0.14117
 H778 H 0.63599 0.52102 0.18593
 H779 H 0.54730 0.49278 0.17510
 H780 H 0.57040 0.50868 0.22446
 C781 C 0.44508 -0.01286 0.15695
 C782 C 0.44970 0.01157 0.17961
 C783 C 0.42611 0.01806 0.20748
 C784 C 0.40461 -0.00504 0.22019
 H785 H 0.47116 0.02851 0.17737
 H786 H 0.42757 0.04260 0.21895
 H787 H 0.42272 -0.02872 0.15781
 H788 H 0.40472 -0.03032 0.21047
 C789 C 0.93848 0.49127 0.65336
 C790 C 0.90718 0.47857 0.65663
 C791 C 0.88480 0.48633 0.68514
 C792 C 0.89605 0.49475 0.71604
 H793 H 0.89665 0.46285 0.63697
 H794 H 0.85794 0.48304 0.68088
 H795 H 0.94829 0.50900 0.67160
 H796 H 0.92301 0.49635 0.72071
 C797 C 0.94886 0.51573 0.82893
 C798 C 0.93318 0.54038 0.81209
 C799 C 0.91247 0.53443 0.78154
 C800 C 0.89369 0.50650 0.77708
 H801 H 0.93706 0.56618 0.81963
 H802 H 0.91135 0.55446 0.76295
 H803 H 0.94746 0.49027 0.81969
 H804 H 0.89387 0.48733 0.79665
 C805 C 0.44325 0.01741 0.34546
 C806 C 0.44747 -0.00747 0.32342
 C807 C 0.42466 -0.01378 0.29430
 C808 C 0.40438 0.00944 0.28048
 H809 H 0.46780 -0.02497 0.32723
 H810 H 0.42542 -0.03844 0.28313
 H811 H 0.42204 0.03404 0.34289
 H812 H 0.40531 0.03482 0.28992
   
