data_POSCAR
  _audit_creation_date              2014-09-24
  _audit_creation_method            'ToBaCCo'
  _symmetry_space_group_name_H-M    'P1'
  _symmetry_Int_Tables_number       1
  _symmetry_cell_setting            triclinic
  loop_
  _symmetry_equiv_pos_as_xyz
 x,y,z
_cell_length_a 33.7995
_cell_length_b 34.4235
_cell_length_c 12.8286
_cell_angle_alpha 90.894900
_cell_angle_beta 90.504400
_cell_angle_gamma 118.361000
loop_
  _atom_site_label
  _atom_site_type_symbol
  _atom_site_fract_x
  _atom_site_fract_y
  _atom_site_fract_z
C1 C 0.16881 0.40561 0.43711
 C2 C 0.16926 0.40819 0.54830
 C3 C 0.20687 0.40955 0.60184
 C4 C 0.24446 0.41177 0.54728
 C5 C 0.24223 0.40871 0.43695
 C6 C 0.20386 0.40328 0.38488
 H7 H 0.20273 0.40045 0.30030
 H8 H 0.20762 0.41047 0.68574
 C9 C 0.52277 -0.25525 0.40623
 C10 C 0.51637 -0.26886 0.51255
 C11 C 0.50762 -0.24284 0.58484
 C12 C 0.50811 -0.20321 0.55825
 C13 C 0.51442 -0.18968 0.45288
 C14 C 0.52120 -0.21632 0.37927
 H15 H 0.52389 -0.20720 0.29803
 H16 H 0.49966 -0.25371 0.66432
 C17 C 1.29983 0.77427 0.41309
 C18 C 1.30623 0.78942 0.51916
 C19 C 1.27717 0.76043 0.59314
 C20 C 1.24081 0.71913 0.56425
 C21 C 1.22966 0.70855 0.45666
 C22 C 1.26107 0.73511 0.38401
 H23 H 1.25522 0.72483 0.30237
 H24 H 1.28470 0.76889 0.67535
 C25 C 0.80917 0.53416 0.48238
 C26 C 0.79396 0.52693 0.58701
 C27 C 0.75561 0.53048 0.61372
 C28 C 0.73178 0.54213 0.54115
 C29 C 0.74593 0.54715 0.43577
 C30 C 0.78500 0.54486 0.40880
 H31 H 0.79429 0.54770 0.32751
 H32 H 0.74397 0.52290 0.69280
 C33 C 0.44479 0.27558 0.42607
 C34 C 0.44255 0.27511 0.53631
 C35 C 0.44233 0.23922 0.58944
 C36 C 0.44558 0.20487 0.53496
 C37 C 0.44586 0.20542 0.42437
 C38 C 0.44387 0.23974 0.37169
 H39 H 0.44798 0.24155 0.28784
 H40 H 0.43833 0.23726 0.67285
 C41 C 0.73185 0.19601 0.43501
 C42 C 0.73955 0.19629 0.54357
 C43 C 0.77405 0.23499 0.59260
 C44 C 0.79924 0.27406 0.53590
 C45 C 0.78830 0.27305 0.42838
 C46 C 0.75597 0.23439 0.37969
 H47 H 0.74945 0.23422 0.29658
 H48 H 0.78025 0.23447 0.67511
 O49 O 0.98421 0.53318 -0.15805
 O50 O 1.05735 0.55427 0.19404
 O51 O 0.93413 0.51249 0.09092
 O52 O 1.12254 0.56182 -0.08813
 O53 O 0.97563 0.51089 0.22209
 O54 O 1.05949 0.55441 -0.14792
 O55 O 1.07861 0.58283 0.04110
 O56 O 0.92177 0.48552 -0.09752
 C57 C 0.94338 0.51789 -0.15354
 C58 C 1.07773 0.58794 0.13837
 C59 C 0.94825 0.52275 0.18309
 C60 C 1.10037 0.56725 -0.16484
 O61 O 1.04257 0.46844 -0.17451
 O62 O 0.98481 0.43564 0.18159
 O63 O 0.92410 0.41453 -0.03989
 O64 O 1.11294 0.53593 0.10993
 O65 O 1.05990 0.47641 0.15839
 O66 O 0.96036 0.44503 -0.18270
 O67 O 1.08086 0.48157 -0.03373
 O68 O 0.92444 0.43703 0.14665
 Co69 Co 1.01143 0.49956 -0.15082
 Co70 Co 1.01861 0.49464 0.17625
 Co71 Co 0.93400 0.46558 0.02405
 Co72 Co 1.07617 0.53061 -0.00127
 O73 O 1.00776 0.49557 0.01696
 C74 C 1.07015 0.46280 -0.11986
 C75 C 0.94379 0.41783 0.18575
 C76 C 0.93151 0.41153 -0.13429
 C77 C 1.10073 0.50242 0.16200
 O78 O 0.47318 0.44758 -0.18336
 O79 O 0.46951 0.51282 0.27178
 O80 O 0.50793 0.43736 0.08667
 O81 O 0.40731 0.49598 -0.03769
 O82 O 0.45422 0.44940 0.14613
 O83 O 0.43548 0.49561 -0.18896
 O84 O 0.42442 0.50293 0.14200
 O85 O 0.52945 0.44980 -0.09674
 C86 C 0.49504 0.42906 -0.15303
 C87 C 0.43168 0.50867 0.23957
 C88 C 0.46912 0.42304 0.12589
 C89 C 0.40231 0.48722 -0.13222
 O90 O 0.51430 0.56619 -0.19235
 O91 O 0.52888 0.49134 0.23884
 O92 O 0.58869 0.53394 -0.05198
 O93 O 0.49411 0.58600 0.11084
 O94 O 0.53866 0.56433 0.17372
 O95 O 0.55306 0.51902 -0.19981
 O96 O 0.47257 0.57733 -0.07752
 O97 O 0.57646 0.52281 0.12573
 Co98 Co 0.49467 0.50747 -0.17339
 Co99 Co 0.49567 0.50764 0.15447
 Co100 Co 0.54641 0.48785 0.01523
 Co101 Co 0.45451 0.53834 0.03165
 O102 O 0.49932 0.51101 -0.00176
 C103 C 0.49699 0.58884 -0.15748
 C104 C 0.56848 0.50635 0.21337
 C105 C 0.58947 0.53593 -0.14826
 C106 C 0.52827 0.59394 0.16467
 O107 O 0.56548 0.07676 -0.18450
 O108 O 0.49576 -0.02800 0.19302
 O109 O 0.56585 0.06598 0.13720
 O110 O 0.48650 -0.06559 -0.12883
 O111 O 0.50943 0.04891 0.22766
 O112 O 0.53665 -0.00455 -0.19792
 O113 O 0.51443 -0.04993 0.05420
 O114 O 0.59300 0.08823 -0.02920
 C115 C 0.59885 0.09303 -0.12378
 C116 C 0.51554 -0.04700 0.15062
 C117 C 0.55070 0.06468 0.22433
 C118 C 0.51847 -0.04551 -0.19027
 O119 O 0.45388 -0.01766 -0.22624
 O120 O 0.43891 0.03418 0.11017
 O121 O 0.52924 0.11331 -0.07155
 O122 O 0.42982 -0.09880 0.04259
 O123 O 0.41934 -0.04354 0.09229
 O124 O 0.48486 0.06720 -0.19445
 O125 O 0.41937 -0.05167 -0.08825
 O126 O 0.50213 0.09498 0.10321
 Co127 Co 0.50888 0.02920 -0.18288
 Co128 Co 0.46893 0.00428 0.14130
 Co129 Co 0.54390 0.08522 0.03278
 Co130 Co 0.46871 -0.04646 -0.01365
 O131 O 0.50077 0.02063 -0.01285
 C132 C 0.41923 -0.04689 -0.18407
 C133 C 0.46002 0.07528 0.11457
 C134 C 0.50184 0.10432 -0.14811
 C135 C 0.41055 -0.08303 0.10712
 C136 C 1.13662 0.40991 0.37600
 C137 C 1.14954 0.43877 0.29879
 C138 C 1.11794 0.45106 0.25183
 C139 C 1.13265 0.49024 0.20800
 H140 H 1.18479 0.45776 0.27943
 H141 H 1.08220 0.42865 0.25745
 H142 H 1.10194 0.39515 0.40004
 H143 H 1.16832 0.51311 0.20447
 C144 C 0.52604 0.72016 0.32135
 C145 C 0.54354 0.69267 0.32312
 C146 C 0.53585 0.66341 0.23183
 C147 C 0.55164 0.63463 0.22832
 H148 H 0.56115 0.69005 0.39130
 H149 H 0.51144 0.66113 0.17319
 H150 H 0.51469 0.72526 0.24572
 H151 H 0.57608 0.63663 0.28639
 C152 C 0.32999 -0.20503 0.33277
 C153 C 0.35310 -0.16166 0.32286
 C154 C 0.37891 -0.14353 0.22874
 C155 C 0.38097 -0.10712 0.19109
 H156 H 0.34846 -0.13954 0.37625
 H157 H 0.39573 -0.15984 0.19067
 H158 H 0.32984 -0.22538 0.26694
 H159 H 0.36334 -0.09179 0.22991
 C160 C 0.84337 0.52161 0.44432
 C161 C 0.87344 0.54359 0.37092
 C162 C 0.90382 0.52728 0.32913
 C163 C 0.92905 0.54575 0.24589
 H164 H 0.87444 0.57290 0.33833
 H165 H 0.90212 0.49734 0.35973
 H166 H 0.84344 0.49292 0.47779
 H167 H 0.92779 0.57360 0.21082
 C168 C 0.46023 0.31741 0.36964
 C169 C 0.44422 0.32050 0.27635
 C170 C 0.46694 0.36255 0.22194
 C171 C 0.44491 0.37759 0.16227
 H172 H 0.41522 0.29259 0.24093
 H173 H 0.50250 0.38367 0.23861
 H174 H 0.48744 0.34681 0.40572
 H175 H 0.40864 0.35922 0.15357
 C176 C 0.69974 0.15681 0.37308
 C177 C 0.65545 0.13612 0.38897
 C178 C 0.62488 0.10517 0.30843
 C179 C 0.58020 0.08681 0.31542
 H180 H 0.64177 0.14499 0.45581
 H181 H 0.63936 0.10019 0.23760
 H182 H 0.71231 0.14941 0.30210
 H183 H 0.56527 0.09131 0.38592
 C184 C 0.44834 0.17012 -0.41290
 C185 C 0.46164 0.17148 -0.31325
 C186 C 0.46794 0.13470 -0.27263
 C187 C 0.49163 0.13917 -0.18489
 H188 H 0.47158 0.20060 -0.26418
 H189 H 0.45497 0.10423 -0.31836
 H190 H 0.44217 0.14095 -0.45851
 H191 H 0.50563 0.17008 -0.14072
 C192 C 0.69355 0.54637 -0.42772
 C193 C 0.68417 0.55123 -0.32830
 C194 C 0.63986 0.54591 -0.29700
 C195 C 0.63373 0.55312 -0.19718
 H196 H 0.70868 0.55775 -0.26662
 H197 H 0.61159 0.53146 -0.35151
 H198 H 0.67032 0.54651 -0.48576
 H199 H 0.66267 0.56716 -0.14440
 C200 C 0.83334 0.31399 -0.41740
 C201 C 0.85253 0.31863 -0.32265
 C202 C 0.88747 0.36274 -0.28335
 C203 C 0.90405 0.36800 -0.18611
 H204 H 0.84317 0.29056 -0.27322
 H205 H 0.89738 0.39143 -0.33138
 H206 H 0.84611 0.34379 -0.46226
 H207 H 0.89186 0.33937 -0.13702
 C208 C 0.50128 -0.17959 -0.36026
 C209 C 0.52084 -0.13572 -0.35506
 C210 C 0.51090 -0.11341 -0.26953
 C211 C 0.53307 -0.06968 -0.26058
 H212 H 0.54494 -0.11592 -0.41271
 H213 H 0.48348 -0.13259 -0.21791
 H214 H 0.48285 -0.19757 -0.29279
 H215 H 0.56023 -0.05080 -0.31314
 C216 C 0.28436 0.41811 -0.40158
 C217 C 0.29714 0.43488 -0.30521
 C218 C 0.34358 0.44948 -0.26828
 C219 C 0.35614 0.46765 -0.17356
 H220 H 0.27567 0.44247 -0.25647
 H221 H 0.36781 0.44723 -0.31949
 H222 H 0.30862 0.41288 -0.44593
 H223 H 0.33116 0.46870 -0.12270
 C224 C 1.22181 0.68701 -0.35087
 C225 C 1.17864 0.65771 -0.34261
 C226 C 1.16350 0.62623 -0.25671
 C227 C 1.12068 0.59553 -0.25401
 H228 H 1.15402 0.65747 -0.39751
 H229 H 1.18665 0.62915 -0.19428
 H230 H 1.24509 0.68845 -0.29022
 H231 H 1.09787 0.59379 -0.31613
 C232 C 0.81444 0.51531 -0.33232
 C233 C 0.85856 0.52998 -0.32410
 C234 C 0.87742 0.51586 -0.23862
 C235 C 0.92168 0.53518 -0.22400
 H236 H 0.88132 0.55364 -0.37849
 H237 H 0.85539 0.48828 -0.19143
 H238 H 0.79398 0.49713 -0.26733
 H239 H 0.94325 0.56268 -0.27202
 C240 C 0.44087 0.31058 -0.41057
 C241 C 0.45185 0.32163 -0.31001
 C242 C 0.45593 0.36352 -0.26844
 C243 C 0.48380 0.38417 -0.18832
 H244 H 0.46320 0.30337 -0.26133
 H245 H 0.43953 0.37947 -0.30931
 H246 H 0.43344 0.33276 -0.45589
 H247 H 0.50180 0.36889 -0.15152
 C248 C 0.71030 0.15671 -0.39598
 C249 C 0.69629 0.15943 -0.30059
 C250 C 0.65547 0.12235 -0.25994
 C251 C 0.64408 0.12272 -0.16100
 H252 H 0.71096 0.19061 -0.25760
 H253 H 0.63266 0.09651 -0.31346
 H254 H 0.69436 0.12491 -0.43636
 H255 H 0.66776 0.14747 -0.10667
 C256 C 1.13572 0.41494 -0.39934
 C257 C 1.13041 0.41740 -0.29605
 C258 C 1.09722 0.43105 -0.25798
 C259 C 1.09272 0.43742 -0.15661
 H260 H 1.15085 0.41155 -0.23975
 H261 H 1.07918 0.44013 -0.31456
 H262 H 1.11247 0.42074 -0.44612
 H263 H 1.11201 0.43003 -0.09983
 C264 C 0.51179 0.68777 -0.45064
 C265 C 0.52132 0.68181 -0.35142
 C266 C 0.51200 0.63826 -0.30967
 C267 C 0.50681 0.63117 -0.20647
 H268 H 0.53562 0.70965 -0.29705
 H269 H 0.50800 0.61184 -0.36291
 H270 H 0.49772 0.65952 -0.50377
 H271 H 0.50740 0.65690 -0.15562
 C272 C 0.34617 -0.16907 -0.44190
 C273 C 0.34288 -0.14196 -0.36967
 C274 C 0.38291 -0.10211 -0.32677
 C275 C 0.37942 -0.07861 -0.24591
 H276 H 0.31010 -0.14997 -0.33941
 H277 H 0.41592 -0.09423 -0.35540
 H278 H 0.37882 -0.16061 -0.47358
 H279 H 0.34666 -0.08885 -0.21263
 C280 C 0.50557 -0.15341 0.41487
 C281 C 0.52850 -0.12611 0.33777
 C282 C 0.51575 -0.09340 0.29601
 C283 C 0.53533 -0.07013 0.21091
 H284 H 0.55604 -0.12893 0.30235
 H285 H 0.48732 -0.09143 0.32906
 H286 H 0.47890 -0.14942 0.45143
 H287 H 0.56175 -0.07455 0.17439
 C288 C 0.28075 0.41683 0.36957
 C289 C 0.31911 0.45499 0.37523
 C290 C 0.35418 0.46595 0.29691
 C291 C 0.39568 0.49898 0.31410
 H292 H 0.32421 0.47891 0.43690
 H293 H 0.34637 0.44603 0.22577
 H294 H 0.27500 0.39405 0.30478
 H295 H 0.40445 0.51675 0.38838
 C296 C 1.18833 0.66913 0.41568
 C297 C 1.16518 0.67121 0.33134
 C298 C 1.12667 0.63129 0.28524
 C299 C 1.10848 0.63071 0.19058
 H300 H 1.17573 0.70248 0.29363
 H301 H 1.11546 0.60066 0.32643
 H302 H 1.17753 0.63772 0.45264
 H303 H 1.12145 0.66062 0.14598
 C304 C 0.45962 0.17724 0.36382
 C305 C 0.44068 0.15786 0.27269
 C306 C 0.46132 0.13572 0.21376
 C307 C 0.43774 0.10017 0.15280
 H308 H 0.41088 0.15845 0.24280
 H309 H 0.49675 0.14666 0.22904
 H310 H 0.48779 0.17378 0.39441
 H311 H 0.40163 0.08645 0.14377
 C312 C 0.71879 0.55112 0.35003
 C313 C 0.67659 0.51951 0.33412
 C314 C 0.64583 0.52465 0.26174
 C315 C 0.60204 0.50422 0.28184
 H316 H 0.66308 0.49094 0.38378
 H317 H 0.65878 0.54607 0.19556
 H318 H 0.73354 0.57953 0.30029
 H319 H 0.59004 0.48473 0.35138
 C320 C 0.81132 0.31104 0.36086
 C321 C 0.85386 0.32490 0.33546
 C322 C 0.87638 0.36216 0.26646
 C323 C 0.91971 0.37789 0.24585
 H324 H 0.87219 0.30898 0.36750
 H325 H 0.85774 0.37793 0.23540
 H326 H 0.79207 0.32546 0.32620
 H327 H 0.93847 0.36254 0.27838
   
