data_POSCAR
  _audit_creation_date              2014-09-24
  _audit_creation_method            'ToBaCCo'
  _symmetry_space_group_name_H-M    'P1'
  _symmetry_Int_Tables_number       1
  _symmetry_cell_setting            triclinic
  loop_
  _symmetry_equiv_pos_as_xyz
 x,y,z
_cell_length_a 46.4607
_cell_length_b 46.8655
_cell_length_c 46.5722
_cell_angle_alpha 90.125500
_cell_angle_beta 89.890900
_cell_angle_gamma 90.071800
loop_
  _atom_site_label
  _atom_site_type_symbol
  _atom_site_fract_x
  _atom_site_fract_y
  _atom_site_fract_z
C1 C 0.32478 0.35715 1.36356
 C2 C 0.33586 0.37036 1.33870
 C3 C 0.35891 0.35838 1.32348
 C4 C 0.37170 0.33323 1.33341
 C5 C 0.36209 0.31990 1.35878
 C6 C 0.33847 0.33213 1.37347
 H7 H 0.32548 0.38897 1.32973
 H8 H 0.39026 0.32516 1.32191
 H9 H 0.33053 0.32198 1.39270
 C10 C 1.17004 0.64260 0.86410
 C11 C 1.15722 0.66824 0.87360
 C12 C 1.13333 0.68005 0.85949
 C13 C 1.12177 0.66585 0.83560
 C14 C 1.13408 0.64039 0.82559
 C15 C 1.15787 0.62883 0.84001
 H16 H 1.16492 0.67867 0.89286
 H17 H 1.10389 0.67520 0.82407
 H18 H 1.16750 0.60962 0.83141
 C19 C 0.67514 -0.13691 0.13072
 C20 C 0.66215 -0.16167 0.11906
 C21 C 0.63706 -0.17330 0.13120
 C22 C 0.62472 -0.16035 0.15536
 C23 C 0.63706 -0.13586 0.16737
 C24 C 0.66179 -0.12406 0.15483
 H25 H 0.67189 -0.17287 0.10120
 H26 H 0.60569 -0.16961 0.16513
 H27 H 0.67024 -0.10460 0.16406
 C28 C -0.17210 1.13385 -0.36065
 C29 C -0.15734 1.15722 -0.37295
 C30 C -0.13351 1.16963 -0.35922
 C31 C -0.12353 1.15788 -0.33347
 C32 C -0.13743 1.13446 -0.32091
 C33 C -0.16169 1.12272 -0.33447
 H34 H -0.16554 1.16734 -0.39213
 H35 H -0.10464 1.16691 -0.32330
 H36 H -0.17202 1.10446 -0.32469
 C37 C 0.66929 0.63382 0.63259
 C38 C 0.65686 0.62152 0.65709
 C39 C 0.63233 0.63349 0.66987
 C40 C 0.61990 0.65792 0.65757
 C41 C 0.63198 0.67103 0.63302
 C42 C 0.65670 0.65832 0.62070
 H43 H 0.66666 0.60284 0.66658
 H44 H 0.60148 0.66725 0.66820
 H45 H 0.66630 0.66713 0.60151
 C46 C 0.82372 0.36534 0.13373
 C47 C 0.83722 0.34119 0.12192
 C48 C 0.86309 0.33041 0.13347
 C49 C 0.87512 0.34463 0.15736
 C50 C 0.86139 0.36820 0.17009
 C51 C 0.83594 0.37864 0.15787
 H52 H 0.82763 0.33118 0.10329
 H53 H 0.89449 0.33655 0.16728
 H54 H 0.82533 0.39689 0.16748
 C55 C 0.33182 0.13618 0.86423
 C56 C 0.34360 0.12248 0.83983
 C57 C 0.36741 0.13401 0.82521
 C58 C 0.38015 0.15922 0.83551
 C59 C 0.36903 0.17321 0.85970
 C60 C 0.34522 0.16144 0.87400
 H61 H 0.33308 0.10397 0.83070
 H62 H 0.39837 0.16836 0.82426
 H63 H 0.33790 0.17175 0.89348
 C64 C 0.17457 0.85859 0.36866
 C65 C 0.16225 0.87136 0.34415
 C66 C 0.13743 0.86021 0.33119
 C67 C 0.12412 0.83616 0.34312
 C68 C 0.13559 0.82301 0.36759
 C69 C 0.16050 0.83451 0.38038
 H70 H 0.17118 0.89080 0.33538
 H71 H 0.10552 0.82696 0.33257
 H72 H 0.16943 0.82366 0.39876
 Zn73 Zn -0.01217 1.00976 0.04122
 Zn74 Zn -0.01765 0.98296 -0.01699
 Zn75 Zn 0.01101 1.04011 -0.00973
 Zn76 Zn 0.03994 0.98784 0.01147
 O77 O 0.00522 1.00512 0.00642
 O78 O -0.04571 0.99162 0.04320
 O79 O -0.02855 1.00161 -0.04890
 O80 O -0.00197 1.06894 0.01203
 O81 O -0.05038 0.97153 0.00047
 O82 O -0.02009 1.04626 0.04951
 O83 O -0.00729 1.04352 -0.04315
 O84 O 0.06957 1.00863 -0.00138
 O85 O 0.00019 0.95090 -0.02899
 O86 O 0.04811 1.04758 -0.01717
 O87 O 0.04238 0.95491 -0.00746
 O88 O 0.04739 0.97969 0.04825
 O89 O 0.00866 0.99607 0.07042
 C90 C -0.05985 0.97641 0.02562
 C91 C -0.02312 1.02674 -0.05761
 C92 C -0.01505 1.06921 0.03597
 C93 C 0.07074 1.03299 -0.01315
 C94 C 0.02523 0.94138 -0.02371
 C95 C 0.03296 0.98375 0.07108
 Zn96 Zn 0.48714 0.00379 0.46149
 Zn97 Zn 0.48106 -0.02384 0.51944
 Zn98 Zn 0.53915 -0.01726 0.49164
 Zn99 Zn 0.50830 0.03384 0.51334
 O100 O 0.50384 -0.00097 0.49654
 O101 O 0.45374 -0.01465 0.45890
 O102 O 0.49939 -0.05591 0.53062
 O103 O 0.54730 -0.02520 0.45491
 O104 O 0.44873 -0.03532 0.50131
 O105 O 0.50871 -0.00925 0.43245
 O106 O 0.54198 -0.05036 0.51003
 O107 O 0.54490 0.04198 0.52176
 O108 O 0.46934 -0.00599 0.55193
 O109 O 0.56815 0.00438 0.50486
 O110 O 0.48940 0.03644 0.54633
 O111 O 0.49523 0.06267 0.49188
 O112 O 0.47942 0.04027 0.45324
 C113 C 0.43952 -0.03021 0.47614
 C114 C 0.52474 -0.06477 0.52542
 C115 C 0.53321 -0.02115 0.43197
 C116 C 0.56813 0.02843 0.51744
 C117 C 0.47400 0.01930 0.56074
 C118 C 0.48347 0.06311 0.46733
 Zn119 Zn 1.00433 0.46095 0.48414
 Zn120 Zn 1.03448 0.51217 0.50637
 Zn121 Zn 0.97662 0.51862 0.47846
 Zn122 Zn 0.98248 0.49055 0.53614
 O123 O 0.99938 0.49565 0.50118
 O124 O 1.04126 0.45275 0.47666
 O125 O 1.03732 0.54528 0.48820
 O126 O 0.96559 0.50094 0.44571
 O127 O 1.06362 0.49102 0.49312
 O128 O 0.98616 0.45867 0.45064
 O129 O 0.99486 0.55105 0.46761
 O130 O 0.94894 0.50851 0.53868
 O131 O 1.04240 0.51988 0.54318
 O132 O 0.94389 0.52954 0.49650
 O133 O 1.00351 0.50403 0.56535
 O134 O 0.97498 0.45391 0.54412
 O135 O 0.99081 0.43196 0.50517
 C136 C 1.06424 0.46674 0.48106
 C137 C 1.02025 0.55980 0.47286
 C138 C 0.97079 0.47593 0.43639
 C139 C 0.93463 0.52405 0.52162
 C140 C 1.02801 0.51598 0.56602
 C141 C 0.97902 0.43122 0.52975
 Zn142 Zn 0.51080 0.50648 1.03502
 Zn143 Zn 0.51851 0.48010 0.97665
 Zn144 Zn 0.45989 0.48488 1.00334
 Zn145 Zn 0.48977 0.53719 0.98356
 O146 O 0.49484 0.50209 0.99956
 O147 O 0.54396 0.48792 1.03809
 O148 O 0.50105 0.44787 0.96420
 O149 O 0.45122 0.47607 1.03968
 O150 O 0.55074 0.46879 0.99514
 O151 O 0.48856 0.49315 1.06351
 O152 O 0.45794 0.45230 0.98393
 O153 O 0.45289 0.54530 0.97606
 O154 O 0.53006 0.49883 0.94476
 O155 O 0.43072 0.50612 0.99039
 O156 O 0.50835 0.54051 0.95029
 O157 O 0.50295 0.56571 1.00550
 O158 O 0.51906 0.54281 1.04363
 C159 C 0.55894 0.47311 1.02084
 C160 C 0.47568 0.43858 0.96847
 C161 C 0.46443 0.48045 1.06310
 C162 C 0.43001 0.53088 0.97947
 C163 C 0.52442 0.52387 0.93591
 C164 C 0.51512 0.56579 1.02985
 C165 C 1.24941 0.39002 0.40418
 C166 C 1.25582 0.36081 0.40535
 C167 C 1.28076 0.35009 0.39250
 C168 C 1.30002 0.36824 0.37768
 C169 C 1.29344 0.39766 0.37683
 C170 C 1.26865 0.40836 0.39003
 C171 C 1.22252 0.40117 0.41712
 N172 N 1.21862 0.42965 0.42095
 N173 N 1.19418 0.43966 0.43205
 C174 C 1.17256 0.42165 0.43965
 N175 N 1.17647 0.39317 0.43586
 N176 N 1.20096 0.38315 0.42489
 C177 C 1.14508 0.43286 0.45122
 C178 C 1.12052 0.41536 0.45265
 C179 C 1.09431 0.42627 0.46253
 C180 C 1.09217 0.45484 0.47152
 C181 C 1.11686 0.47218 0.47062
 C182 C 1.14298 0.46136 0.46044
 H183 H 1.24140 0.34607 0.41602
 H184 H 1.28387 0.32724 0.39306
 H185 H 1.30782 0.41283 0.36677
 H186 H 1.26442 0.43104 0.38887
 H187 H 1.12139 0.39333 0.44566
 H188 H 1.07569 0.41236 0.46303
 H189 H 1.11591 0.49430 0.47734
 H190 H 1.16151 0.47537 0.45975
 C191 C 0.24529 0.60920 0.90409
 C192 C 0.23940 0.63854 0.90490
 C193 C 0.21452 0.64945 0.89222
 C194 C 0.19480 0.63135 0.87795
 C195 C 0.20085 0.60180 0.87750
 C196 C 0.22559 0.59094 0.89050
 C197 C 0.27210 0.59780 0.91686
 N198 N 0.27576 0.56928 0.92046
 N199 N 0.30012 0.55902 0.93136
 C200 C 0.32190 0.57683 0.93901
 N201 N 0.31821 0.60535 0.93547
 N202 N 0.29381 0.61562 0.92468
 C203 C 0.34931 0.56534 0.95034
 C204 C 0.37383 0.58284 0.95241
 C205 C 0.39997 0.57172 0.96207
 C206 C 0.40211 0.54293 0.97015
 C207 C 0.37748 0.52556 0.96859
 C208 C 0.35141 0.53661 0.95867
 H209 H 0.25418 0.65325 0.91515
 H210 H 0.21176 0.67236 0.89253
 H211 H 0.18609 0.58665 0.86797
 H212 H 0.22938 0.56816 0.88965
 H213 H 0.37297 0.60505 0.94613
 H214 H 0.41854 0.58567 0.96310
 H215 H 0.37842 0.50328 0.97461
 H216 H 0.33292 0.52258 0.95746
 C217 C -0.24648 0.89658 0.09647
 C218 C -0.26518 0.88068 0.07902
 C219 C -0.29092 0.86969 0.09012
 C220 C -0.29884 0.87434 0.11912
 C221 C -0.27973 0.89035 0.13640
 C222 C -0.25411 0.90124 0.12526
 C223 C -0.21909 0.90827 0.08506
 N224 N -0.20181 0.92433 0.10213
 N225 N -0.17713 0.93486 0.09225
 C226 C -0.16855 0.92981 0.06483
 N227 N -0.18580 0.91374 0.04765
 N228 N -0.21058 0.90319 0.05757
 C229 C -0.14088 0.94164 0.05424
 C230 C -0.13101 0.93618 0.02617
 C231 C -0.10470 0.94743 0.01668
 C232 C -0.08780 0.96435 0.03507
 C233 C -0.09779 0.96980 0.06304
 C234 C -0.12392 0.95861 0.07248
 H235 H -0.26006 0.87686 0.05665
 H236 H -0.30495 0.85851 0.07540
 H237 H -0.28358 0.89362 0.15906
 H238 H -0.24009 0.91312 0.13949
 H239 H -0.14355 0.92318 0.01157
 H240 H -0.09759 0.94285 -0.00501
 H241 H -0.08537 0.98275 0.07781
 H242 H -0.13077 0.96332 0.09422
 C243 C 0.75168 0.10141 0.60043
 C244 C 0.75529 0.10033 0.63029
 C245 C 0.78052 0.11040 0.64301
 C246 C 0.80276 0.12254 0.62627
 C247 C 0.79888 0.12352 0.59619
 C248 C 0.77385 0.11279 0.58347
 C249 C 0.72467 0.09114 0.58723
 N250 N 0.72409 0.08195 0.55954
 N251 N 0.69966 0.07261 0.54783
 C252 C 0.67481 0.07239 0.56326
 N253 N 0.67541 0.08172 0.59087
 N254 N 0.69985 0.09079 0.60265
 C255 C 0.64763 0.06200 0.55050
 C256 C 0.62109 0.07131 0.56152
 C257 C 0.59531 0.06094 0.55019
 C258 C 0.59551 0.04061 0.52799
 C259 C 0.62205 0.03139 0.51682
 C260 C 0.64788 0.04224 0.52777
 H261 H 0.73851 0.09167 0.64391
 H262 H 0.78170 0.10991 0.66620
 H263 H 0.81554 0.13168 0.58216
 H264 H 0.77167 0.11381 0.56035
 H265 H 0.62024 0.08666 0.57892
 H266 H 0.57519 0.06835 0.55932
 H267 H 0.62283 0.01578 0.49966
 H268 H 0.66805 0.03463 0.51894
 C269 C 0.40281 0.24472 0.39027
 C270 C 0.38974 0.26408 0.40923
 C271 C 0.37632 0.28866 0.39895
 C272 C 0.37579 0.29489 0.36928
 C273 C 0.38937 0.27542 0.35041
 C274 C 0.40247 0.25066 0.36076
 C275 C 0.41644 0.21835 0.40124
 N276 N 0.42379 0.19681 0.38310
 N277 N 0.43545 0.17285 0.39309
 C278 C 0.44039 0.16949 0.42163
 N279 N 0.43321 0.19111 0.43973
 N280 N 0.42144 0.21500 0.42976
 C281 C 0.45265 0.14259 0.43289
 C282 C 0.46227 0.14092 0.46144
 C283 C 0.47285 0.11527 0.47242
 C284 C 0.47378 0.09064 0.45519
 C285 C 0.46450 0.09237 0.42654
 C286 C 0.45419 0.11810 0.41547
 H287 H 0.38976 0.26024 0.43215
 H288 H 0.36744 0.30323 0.41467
 H289 H 0.38892 0.27842 0.32740
 H290 H 0.41228 0.23612 0.34553
 H291 H 0.46151 0.15941 0.47540
 H292 H 0.47979 0.11463 0.49459
 H293 H 0.46503 0.07379 0.41269
 H294 H 0.44692 0.11864 0.39340
 C295 C 0.90440 0.24671 0.60729
 C296 C 0.89900 0.24369 0.63684
 C297 C 0.88699 0.21858 0.64762
 C298 C 0.88000 0.19589 0.62913
 C299 C 0.88544 0.19879 0.59960
 C300 C 0.89763 0.22390 0.58880
 C301 C 0.91661 0.27367 0.59594
 N302 N 0.92448 0.27601 0.56793
 N303 N 0.93509 0.30042 0.55776
 C304 C 0.93821 0.32354 0.57514
 N305 N 0.93039 0.32117 0.60314
 N306 N 0.91986 0.29676 0.61332
 C307 C 0.94943 0.35091 0.56376
 C308 C 0.94894 0.37573 0.58079
 C309 C 0.95875 0.40172 0.56984
 C310 C 0.96946 0.40349 0.54166
 C311 C 0.97035 0.37862 0.52476
 C312 C 0.96036 0.35265 0.53565
 H313 H 0.90392 0.26079 0.65172
 H314 H 0.88266 0.21712 0.67043
 H315 H 0.88043 0.18155 0.58490
 H316 H 0.90150 0.22550 0.56593
 H317 H 0.94065 0.37519 0.60253
 H318 H 0.95781 0.42047 0.58344
 H319 H 0.97844 0.37925 0.50295
 H320 H 0.96115 0.33395 0.52198
 C321 C 0.09828 0.75968 -0.10973
 C322 C 0.07985 0.73778 -0.11920
 C323 C 0.09113 0.71199 -0.12947
 C324 C 0.12106 0.70761 -0.13049
 C325 C 0.13941 0.72974 -0.12155
 C326 C 0.12819 0.75539 -0.11125
 C327 C 0.08669 0.78670 -0.09778
 N328 N 0.10470 0.80608 -0.08566
 N329 N 0.09457 0.83017 -0.07439
 C330 C 0.06597 0.83602 -0.07475
 N331 N 0.04787 0.81671 -0.08699
 N332 N 0.05803 0.79251 -0.09823
 C333 C 0.05502 0.86282 -0.06175
 C334 C 0.02615 0.87124 -0.06497
 C335 C 0.01629 0.89677 -0.05268
 C336 C 0.03508 0.91422 -0.03677
 C337 C 0.06385 0.90563 -0.03347
 C338 C 0.07369 0.88035 -0.04585
 H339 H 0.05672 0.74037 -0.11829
 H340 H 0.07644 0.69527 -0.13603
 H341 H 0.16256 0.72727 -0.12263
 H342 H 0.14306 0.77185 -0.10441
 H343 H 0.01122 0.85824 -0.07712
 H344 H -0.00600 0.90280 -0.05558
 H345 H 0.07895 0.91856 -0.02142
 H346 H 0.09603 0.87455 -0.04281
 C347 C 0.59923 0.74903 1.09961
 C348 C 0.58230 0.77358 1.10346
 C349 C 0.59466 0.79888 1.11353
 C350 C 0.62424 0.80025 1.11946
 C351 C 0.64130 0.77594 1.11507
 C352 C 0.62888 0.75049 1.10544
 C353 C 0.58599 0.72196 1.08994
 N354 N 0.59951 0.69668 1.09435
 N355 N 0.58752 0.67226 1.08588
 C356 C 0.56156 0.67211 1.07251
 N357 N 0.54806 0.69740 1.06803
 N358 N 0.55997 0.72181 1.07668
 C359 C 0.54857 0.64500 1.06261
 C360 C 0.52723 0.64495 1.04127
 C361 C 0.51603 0.61923 1.03090
 C362 C 0.52561 0.59306 1.04199
 C363 C 0.54635 0.59314 1.06391
 C364 C 0.55787 0.61883 1.07395
 H365 H 0.55940 0.77311 1.09922
 H366 H 0.58113 0.81744 1.11669
 H367 H 0.66413 0.77646 1.11974
 H368 H 0.64250 0.73197 1.10255
 H369 H 0.51966 0.66477 1.03208
 H370 H 0.50002 0.61983 1.01404
 H371 H 0.55423 0.57331 1.07280
 H372 H 0.57415 0.61819 1.09055
 C373 C 0.38882 0.39753 1.24543
 C374 C 0.38261 0.36818 1.24632
 C375 C 0.37317 0.35546 1.27175
 C376 C 0.36932 0.37190 1.29669
 C377 C 0.37529 0.40126 1.29582
 C378 C 0.38519 0.41392 1.27048
 C379 C 0.39905 0.41085 1.21849
 N380 N 0.41292 0.43639 1.21886
 N381 N 0.42247 0.44812 1.19459
 C382 C 0.41834 0.43488 1.16894
 N383 N 0.40433 0.40944 1.16858
 N384 N 0.39496 0.39763 1.19284
 C385 C 0.42931 0.44756 1.14197
 C386 C 0.41863 0.43831 1.11532
 C387 C 0.42958 0.44952 1.08976
 C388 C 0.45175 0.46993 1.09027
 C389 C 0.46227 0.47940 1.11692
 C390 C 0.45100 0.46849 1.14252
 H391 H 0.38530 0.35495 1.22741
 H392 H 0.36849 0.33281 1.27187
 H393 H 0.37260 0.41432 1.31485
 H394 H 0.38971 0.43659 1.27045
 H395 H 0.40181 0.42234 1.11418
 H396 H 0.42107 0.44173 1.06958
 H397 H 0.47930 0.49517 1.11799
 H398 H 0.45972 0.47600 1.16272
 C399 C 0.60455 -0.09951 0.24578
 C400 C 0.61006 -0.12892 0.24368
 C401 C 0.61996 -0.14075 0.21796
 C402 C 0.62498 -0.12336 0.19397
 C403 C 0.61938 -0.09399 0.19595
 C404 C 0.60901 -0.08220 0.22156
 C405 C 0.59463 -0.08701 0.27326
 N406 N 0.58125 -0.06126 0.27399
 N407 N 0.57226 -0.05017 0.29881
 C408 C 0.57653 -0.06426 0.32390
 N409 N 0.59003 -0.08993 0.32315
 N410 N 0.59882 -0.10111 0.29834
 C411 C 0.56630 -0.05222 0.35147
 C412 C 0.57769 -0.06201 0.37758
 C413 C 0.56744 -0.05137 0.40370
 C414 C 0.54525 -0.03104 0.40428
 C415 C 0.53403 -0.02103 0.37817
 C416 C 0.54463 -0.03134 0.35202
 H417 H 0.60669 -0.14283 0.26192
 H418 H 0.62437 -0.16342 0.21699
 H419 H 0.62302 -0.08021 0.17765
 H420 H 0.60501 -0.05946 0.22255
 H421 H 0.59453 -0.07796 0.37785
 H422 H 0.57644 -0.05955 0.42347
 H423 H 0.51698 -0.00530 0.37795
 H424 H 0.53538 -0.02344 0.33225
 C425 C -0.10556 1.10042 -0.24109
 C426 C -0.10706 1.13004 -0.24555
 C427 C -0.11760 1.14099 -0.27131
 C428 C -0.12680 1.12261 -0.29333
 C429 C -0.12555 1.09298 -0.28885
 C430 C -0.11509 1.08200 -0.26298
 C431 C -0.09380 1.08899 -0.21388
 N432 N -0.09463 1.06061 -0.20801
 N433 N -0.08377 1.05050 -0.18359
 C434 C -0.07156 1.06837 -0.16406
 N435 N -0.07078 1.09672 -0.16996
 N436 N -0.08168 1.10681 -0.19430
 C437 C -0.05918 1.05736 -0.13695
 C438 C -0.04367 1.07569 -0.11874
 C439 C -0.03192 1.06563 -0.09316
 C440 C -0.03548 1.03699 -0.08501
 C441 C -0.05100 1.01858 -0.10315
 C442 C -0.06266 1.02864 -0.12892
 H443 H -0.10012 1.14488 -0.22910
 H444 H -0.11876 1.16392 -0.27390
 H445 H -0.13217 1.07827 -0.30554
 H446 H -0.11415 1.05908 -0.26031
 H447 H -0.04047 1.09791 -0.12425
 H448 H -0.02013 1.08043 -0.07969
 H449 H -0.05411 0.99639 -0.09748
 H450 H -0.07452 1.01395 -0.14243
 C451 C 1.10219 0.59991 0.74880
 C452 C 1.13188 0.60401 0.75291
 C453 C 1.14214 0.61705 0.77785
 C454 C 1.12298 0.62645 0.79921
 C455 C 1.09330 0.62255 0.79512
 C456 C 1.08300 0.60929 0.77023
 C457 C 1.09143 0.58616 0.72220
 N458 N 1.06328 0.57875 0.71948
 N459 N 1.05366 0.56662 0.69544
 C460 C 1.07175 0.56143 0.67308
 N461 N 1.09989 0.56881 0.67583
 N462 N 1.10952 0.58085 0.69988
 C463 C 1.06095 0.54861 0.64603
 C464 C 1.07850 0.54770 0.62142
 C465 C 1.06796 0.53672 0.59557
 C466 C 1.03970 0.52617 0.59378
 C467 C 1.02234 0.52648 0.61854
 C468 C 1.03281 0.53767 0.64434
 H469 H 1.14728 0.59710 0.73686
 H470 H 1.16512 0.62015 0.78027
 H471 H 1.07809 0.62948 0.81134
 H472 H 1.06000 0.60654 0.76772
 H473 H 1.10028 0.55594 0.62194
 H474 H 1.08190 0.53674 0.57691
 H475 H 1.00045 0.51855 0.61788
 H476 H 1.01876 0.53791 0.66292
 C477 C 0.74814 0.60035 0.59679
 C478 C 0.72581 0.60945 0.57867
 C479 C 0.70009 0.62001 0.59021
 C480 C 0.69618 0.62180 0.62012
 C481 C 0.71849 0.61264 0.63818
 C482 C 0.74409 0.60198 0.62668
 C483 C 0.77556 0.58925 0.58484
 N484 N 0.79563 0.57776 0.60250
 N485 N 0.82034 0.56781 0.59206
 C486 C 0.82617 0.56896 0.56351
 N487 N 0.80613 0.58050 0.54577
 N488 N 0.78132 0.59041 0.55623
 C489 C 0.85381 0.55766 0.55225
 C490 C 0.86194 0.56141 0.52336
 C491 C 0.88825 0.55067 0.51323
 C492 C 0.90680 0.53584 0.53175
 C493 C 0.89854 0.53212 0.56055
 C494 C 0.87249 0.54292 0.57066
 H495 H 0.72814 0.60834 0.55556
 H496 H 0.68317 0.62657 0.57571
 H497 H 0.71640 0.61420 0.66129
 H498 H 0.76085 0.59531 0.64132
 H499 H 0.84806 0.57271 0.50862
 H500 H 0.89399 0.55386 0.49092
 H501 H 0.91228 0.52087 0.57548
 H502 H 0.86699 0.53955 0.59300
 C503 C 0.74406 0.39630 1.09786
 C504 C 0.74798 0.39496 1.12777
 C505 C 0.77378 0.38498 1.13934
 C506 C 0.79637 0.37617 1.12131
 C507 C 0.79251 0.37752 1.09140
 C508 C 0.76663 0.38743 1.07980
 C509 C 0.71660 0.40703 1.08578
 N510 N 0.71150 0.40647 1.05704
 N511 N 0.68679 0.41628 1.04640
 C512 C 0.66618 0.42711 1.06406
 N513 N 0.67132 0.42760 1.09275
 N514 N 0.69594 0.41777 1.10337
 C515 C 0.63874 0.43848 1.05254
 C516 C 0.61925 0.45223 1.07103
 C517 C 0.59350 0.46331 1.06059
 C518 C 0.58637 0.46087 1.03137
 C519 C 0.60570 0.44695 1.01278
 C520 C 0.63169 0.43593 1.02326
 H521 H 0.73104 0.40147 1.14236
 H522 H 0.77588 0.38376 1.16245
 H523 H 0.80964 0.37121 1.07693
 H524 H 0.76441 0.38830 1.05668
 H525 H 0.62390 0.45465 1.09367
 H526 H 0.57913 0.47382 1.07558
 H527 H 0.60083 0.44474 0.99016
 H528 H 0.64620 0.42541 1.00843
 C529 C 0.25575 1.10476 -0.09522
 C530 C 0.26260 1.13389 -0.09440
 C531 C 0.28764 1.14410 -0.10740
 C532 C 0.30667 1.12552 -0.12200
 C533 C 0.29954 1.09620 -0.12275
 C534 C 0.27458 1.08599 -0.10938
 C535 C 0.22888 1.09421 -0.08170
 N536 N 0.22441 1.06586 -0.07758
 N537 N 0.20008 1.05649 -0.06567
 C538 C 0.17915 1.07506 -0.05750
 N539 N 0.18364 1.10339 -0.06162
 N540 N 0.20800 1.11276 -0.07339
 C541 C 0.15177 1.06463 -0.04496
 C542 C 0.12782 1.08282 -0.04270
 C543 C 0.10161 1.07268 -0.03201
 C544 C 0.09886 1.04420 -0.02303
 C545 C 0.12298 1.02619 -0.02465
 C546 C 0.14910 1.03624 -0.03564
 H547 H 0.24849 1.14898 -0.08379
 H548 H 0.29110 1.16693 -0.10701
 H549 H 0.31364 1.08073 -0.13275
 H550 H 0.26997 1.06336 -0.11033
 H551 H 0.12913 1.10480 -0.04971
 H552 H 0.08345 1.08710 -0.03098
 H553 H 0.12154 1.00411 -0.01798
 H554 H 0.16716 1.02172 -0.03694
 C555 C 0.25327 -0.10941 0.40357
 C556 C 0.24634 -0.10526 0.37458
 C557 C 0.22064 -0.11571 0.36326
 C558 C 0.20070 -0.13071 0.38054
 C559 C 0.20795 -0.13494 0.40972
 C560 C 0.23380 -0.12440 0.42102
 C561 C 0.28073 -0.09805 0.41518
 N562 N 0.28863 -0.10262 0.44289
 N563 N 0.31341 -0.09228 0.45298
 C564 C 0.33128 -0.07691 0.43577
 N565 N 0.32332 -0.07238 0.40813
 N566 N 0.29863 -0.08271 0.39807
 C567 C 0.35890 -0.06518 0.44659
 C568 C 0.37630 -0.04855 0.42843
 C569 C 0.40231 -0.03732 0.43815
 C570 C 0.41177 -0.04242 0.46632
 C571 C 0.39447 -0.05907 0.48459
 C572 C 0.36827 -0.07033 0.47483
 H573 H 0.26096 -0.09413 0.36034
 H574 H 0.21732 -0.11288 0.34047
 H575 H 0.19334 -0.14539 0.42442
 H576 H 0.23839 -0.12781 0.44354
 H577 H 0.36985 -0.04408 0.40657
 H578 H 0.41505 -0.02461 0.42345
 H579 H 0.40115 -0.06338 0.50642
 H580 H 0.35540 -0.08307 0.48938
 C581 C 0.59738 -0.25117 0.60017
 C582 C 0.57975 -0.27041 0.61513
 C583 C 0.59093 -0.29603 0.62571
 C584 C 0.62022 -0.30329 0.62166
 C585 C 0.63764 -0.28377 0.60634
 C586 C 0.62640 -0.25826 0.59583
 C587 C 0.58587 -0.22372 0.58929
 N588 N 0.60309 -0.20571 0.57424
 N589 N 0.59308 -0.18095 0.56458
 C590 C 0.56541 -0.17302 0.56952
 N591 N 0.54811 -0.19103 0.58456
 N592 N 0.55813 -0.21586 0.59425
 C593 C 0.55461 -0.14531 0.55860
 C594 C 0.52621 -0.13627 0.56394
 C595 C 0.51638 -0.11006 0.55336
 C596 C 0.53474 -0.09240 0.53721
 C597 C 0.56310 -0.10147 0.53200
 C598 C 0.57289 -0.12752 0.54255
 H599 H 0.55718 -0.26578 0.61861
 H600 H 0.57606 -0.31042 0.63617
 H601 H 0.66046 -0.28719 0.60347
 H602 H 0.64074 -0.24384 0.58461
 H603 H 0.51156 -0.14944 0.57626
 H604 H 0.49440 -0.10369 0.55773
 H605 H 0.57788 -0.08845 0.51967
 H606 H 0.59488 -0.13369 0.53799
 C607 C 1.09819 0.74456 0.39873
 C608 C 1.08045 0.76718 0.38994
 C609 C 1.09251 0.79275 0.38008
 C610 C 1.12256 0.79622 0.37876
 C611 C 1.14024 0.77357 0.38751
 C612 C 1.12822 0.74812 0.39744
 C613 C 1.08575 0.71732 0.40923
 N614 N 1.10316 0.69681 0.42013
 N615 N 1.09233 0.67231 0.42963
 C616 C 1.06359 0.66711 0.42863
 N617 N 1.04609 0.68758 0.41767
 N618 N 1.05695 0.71220 0.40818
 C619 C 1.05193 0.63972 0.43959
 C620 C 1.02274 0.63233 0.43624
 C621 C 1.01225 0.60629 0.44680
 C622 C 1.03072 0.58729 0.46107
 C623 C 1.05983 0.59479 0.46433
 C624 C 1.07028 0.62055 0.45370
 H625 H 1.05724 0.76520 0.39075
 H626 H 1.07832 0.80991 0.37369
 H627 H 1.16344 0.77527 0.38618
 H628 H 1.14259 0.73112 0.40384
 H629 H 1.00804 0.64660 0.42541
 H630 H 0.98971 0.60113 0.44397
 H631 H 1.07474 0.58068 0.47511
 H632 H 1.09285 0.62546 0.45675
 C633 C -0.09828 1.25397 0.10231
 C634 C -0.08122 1.27593 0.11369
 C635 C -0.09382 1.30111 0.12377
 C636 C -0.12389 1.30536 0.12218
 C637 C -0.14072 1.28344 0.10978
 C638 C -0.12811 1.25803 0.10035
 C639 C -0.08515 1.22671 0.09306
 N640 N -0.10093 1.20230 0.09281
 N641 N -0.08910 1.17764 0.08488
 C642 C -0.06107 1.17640 0.07666
 N643 N -0.04531 1.20083 0.07677
 N644 N -0.05707 1.22547 0.08497
 C645 C -0.04820 1.14902 0.06742
 C646 C -0.02456 1.14857 0.04856
 C647 C -0.01349 1.12262 0.03859
 C648 C -0.02545 1.09663 0.04779
 C649 C -0.04850 1.09711 0.06735
 C650 C -0.05995 1.12303 0.07683
 H651 H -0.05811 1.27345 0.11531
 H652 H -0.07967 1.31754 0.13200
 H653 H -0.16392 1.28498 0.10873
 H654 H -0.14181 1.24145 0.09161
 H655 H -0.01512 1.16828 0.04090
 H656 H 0.00432 1.12288 0.02356
 H657 H -0.05825 1.07742 0.07470
 H658 H -0.07805 1.12273 0.09151
 C659 C 0.40406 0.25364 0.88846
 C660 C 0.37416 0.24905 0.88750
 C661 C 0.36298 0.22305 0.87809
 C662 C 0.38136 0.20085 0.86946
 C663 C 0.41128 0.20543 0.87009
 C664 C 0.42252 0.23156 0.87951
 C665 C 0.41555 0.28123 0.89914
 N666 N 0.44426 0.28695 0.89902
 N667 N 0.45426 0.31172 0.90909
 C668 C 0.43595 0.33175 0.91973
 N669 N 0.40731 0.32599 0.91973
 N670 N 0.39734 0.30133 0.90965
 C671 C 0.44664 0.35916 0.93164
 C672 C 0.42738 0.37775 0.94550
 C673 C 0.43697 0.40339 0.95725
 C674 C 0.46608 0.41134 0.95539
 C675 C 0.48544 0.39296 0.94130
 C676 C 0.47582 0.36704 0.92962
 H677 H 0.35925 0.26558 0.89402
 H678 H 0.33984 0.22041 0.87731
 H679 H 0.42598 0.18865 0.86373
 H680 H 0.44565 0.23436 0.88002
 H681 H 0.40478 0.37245 0.94753
 H682 H 0.42141 0.41704 0.96784
 H683 H 0.50801 0.39849 0.93954
 H684 H 0.49120 0.35322 0.91903
 C685 C 0.59986 0.59857 0.74932
 C686 C 0.60867 0.58039 0.72692
 C687 C 0.61888 0.59166 0.70102
 C688 C 0.62061 0.62135 0.69697
 C689 C 0.61177 0.63947 0.71938
 C690 C 0.60146 0.62824 0.74517
 C691 C 0.58913 0.58688 0.77694
 N692 N 0.57803 0.60455 0.79725
 N693 N 0.56838 0.59431 0.82209
 C694 C 0.56946 0.56593 0.82781
 N695 N 0.58062 0.54819 0.80754
 N696 N 0.59023 0.55845 0.78261
 C697 C 0.55839 0.55480 0.85553
 C698 C 0.56197 0.52601 0.86329
 C699 C 0.55124 0.51585 0.88951
 C700 C 0.53655 0.53425 0.90837
 C701 C 0.53309 0.56299 0.90058
 C702 C 0.54392 0.57314 0.87459
 H703 H 0.60760 0.55744 0.72933
 H704 H 0.62527 0.57713 0.68406
 H705 H 0.61337 0.66242 0.71722
 H706 H 0.59503 0.64291 0.76198
 H707 H 0.57308 0.51133 0.84913
 H708 H 0.55422 0.49358 0.89488
 H709 H 0.52197 0.57780 0.91460
 H710 H 0.54071 0.59541 0.86939
 C711 C 0.39702 0.09637 0.74583
 C712 C 0.39488 0.12615 0.74894
 C713 C 0.38534 0.13820 0.77464
 C714 C 0.37779 0.12084 0.79803
 C715 C 0.37976 0.09104 0.79498
 C716 C 0.38927 0.07892 0.76913
 C717 C 0.40750 0.08397 0.71841
 N718 N 0.40772 0.05530 0.71381
 N719 N 0.41743 0.04451 0.68909
 C720 C 0.42737 0.06197 0.66799
 N721 N 0.42706 0.09057 0.67265
 N722 N 0.41733 0.10132 0.69726
 C723 C 0.43880 0.05045 0.64056
 C724 C 0.45230 0.06894 0.62101
 C725 C 0.46352 0.05865 0.59527
 C726 C 0.46148 0.02956 0.58816
 C727 C 0.44777 0.01095 0.60750
 C728 C 0.43663 0.02129 0.63355
 H729 H 0.40044 0.14028 0.73142
 H730 H 0.38346 0.16119 0.77603
 H731 H 0.37426 0.07712 0.81269
 H732 H 0.39073 0.05592 0.76749
 H733 H 0.45444 0.09150 0.62562
 H734 H 0.47382 0.07365 0.58087
 H735 H 0.44589 -0.01158 0.60263
 H736 H 0.42630 0.00649 0.64813
 C737 C 0.10548 0.89891 0.25370
 C738 C 0.13503 0.89368 0.25730
 C739 C 0.14526 0.88109 0.28240
 C740 C 0.12620 0.87328 0.30448
 C741 C 0.09662 0.87819 0.30086
 C742 C 0.08636 0.89100 0.27577
 C743 C 0.09483 0.91248 0.22703
 N744 N 0.06695 0.92081 0.22455
 N745 N 0.05752 0.93298 0.20051
 C746 C 0.07555 0.93728 0.17792
 N747 N 0.10341 0.92895 0.18042
 N748 N 0.11285 0.91687 0.20446
 C749 C 0.06501 0.95028 0.15092
 C750 C 0.08257 0.95078 0.12629
 C751 C 0.07233 0.96204 0.10052
 C752 C 0.04435 0.97326 0.09879
 C753 C 0.02699 0.97333 0.12355
 C754 C 0.03717 0.96187 0.14930
 H755 H 0.15038 0.89943 0.24076
 H756 H 0.16814 0.87720 0.28446
 H757 H 0.08149 0.87251 0.31763
 H758 H 0.06345 0.89465 0.27366
 H759 H 0.10413 0.94205 0.12676
 H760 H 0.08627 0.96171 0.08186
 H761 H 0.00532 0.98177 0.12293
 H762 H 0.02313 0.96196 0.16788
 C763 C 0.89360 0.40361 0.24947
 C764 C 0.88330 0.42170 0.22773
 C765 C 0.87299 0.41033 0.20185
 C766 C 0.87274 0.38066 0.19721
 C767 C 0.88288 0.36267 0.21904
 C768 C 0.89324 0.37397 0.24475
 C769 C 0.90472 0.41524 0.27698
 N770 N 0.91691 0.39755 0.29651
 N771 N 0.92697 0.40762 0.32126
 C772 C 0.92526 0.43583 0.32768
 N773 N 0.91302 0.45362 0.30819
 N774 N 0.90298 0.44353 0.28333
 C775 C 0.93672 0.44664 0.35539
 C776 C 0.93289 0.47521 0.36397
 C777 C 0.94379 0.48490 0.39032
 C778 C 0.95885 0.46624 0.40850
 C779 C 0.96266 0.43776 0.39980
 C780 C 0.95172 0.42810 0.37369
 H781 H 0.88333 0.44462 0.23062
 H782 H 0.86548 0.42476 0.18537
 H783 H 0.88237 0.33971 0.21646
 H784 H 0.90077 0.35935 0.26105
 H785 H 0.92140 0.49005 0.35040
 H786 H 0.94052 0.50698 0.39640
 H787 H 0.97410 0.42274 0.41323
 H788 H 0.95516 0.40599 0.36785
   
