data_POSCAR
  _audit_creation_date              2014-09-24
  _audit_creation_method            'ToBaCCo'
  _symmetry_space_group_name_H-M    'P1'
  _symmetry_Int_Tables_number       1
  _symmetry_cell_setting            triclinic
  loop_
  _symmetry_equiv_pos_as_xyz
 x,y,z
_cell_length_a 41.3280
_cell_length_b 41.7448
_cell_length_c 41.7303
_cell_angle_alpha 90.103600
_cell_angle_beta 90.089300
_cell_angle_gamma 89.749300
loop_
  _atom_site_label
  _atom_site_type_symbol
  _atom_site_fract_x
  _atom_site_fract_y
  _atom_site_fract_z
C1 C 0.19381 0.15407 0.19227
 C2 C 0.18055 0.13965 0.21956
 C3 C 0.15387 0.15345 0.23578
 C4 C 0.14096 0.18252 0.22385
 C5 C 0.15369 0.19693 0.19626
 C6 C 0.18032 0.18272 0.18053
 C7 C 0.22053 0.14021 0.17668
 C8 C 0.23450 0.15476 0.14947
 C9 C 0.22033 0.18334 0.13785
 C10 C 0.19334 0.19709 0.15292
 C11 C 0.17895 0.22487 0.14048
 C12 C 0.15197 0.23880 0.15553
 C13 C 0.13977 0.22501 0.18372
 H14 H 0.19205 0.11817 0.22869
 H15 H 0.11984 0.19331 0.23486
 H16 H 0.23119 0.11878 0.18687
 H17 H 0.22930 0.19442 0.11619
 H18 H 0.18881 0.23581 0.11908
 H19 H 0.11889 0.23567 0.19537
 C20 C -0.19755 0.84190 0.20326
 C21 C -0.18176 0.85573 0.22968
 C22 C -0.15415 0.84115 0.24350
 C23 C -0.14259 0.81235 0.22978
 C24 C -0.15783 0.79865 0.20307
 C25 C -0.18568 0.81318 0.19000
 C26 C -0.22493 0.85662 0.18984
 C27 C -0.24101 0.84319 0.16308
 C28 C -0.22899 0.81401 0.15041
 C29 C -0.20130 0.79926 0.16335
 C30 C -0.18823 0.77144 0.14929
 C31 C -0.15959 0.75772 0.16139
 C32 C -0.14496 0.77110 0.18866
 H33 H -0.19194 0.87732 0.24005
 H34 H -0.12064 0.80121 0.23867
 H35 H -0.23415 0.87817 0.20112
 H36 H -0.23986 0.80352 0.12926
 H37 H -0.19951 0.76124 0.12816
 H38 H -0.12316 0.76025 0.19836
 C39 C -0.19498 0.15213 -0.19562
 C40 C -0.18048 0.13877 -0.22298
 C41 C -0.15419 0.15396 -0.23776
 C42 C -0.14220 0.18260 -0.22476
 C43 C -0.15622 0.19602 -0.19724
 C44 C -0.18299 0.18098 -0.18281
 C45 C -0.22117 0.13693 -0.18089
 C46 C -0.23614 0.15011 -0.15339
 C47 C -0.22411 0.17939 -0.14117
 C48 C -0.19749 0.19459 -0.15538
 C49 C -0.18448 0.22268 -0.14202
 C50 C -0.15702 0.23706 -0.15561
 C51 C -0.14344 0.22389 -0.18356
 H52 H -0.18985 0.11670 -0.23302
 H53 H -0.12153 0.19409 -0.23574
 H54 H -0.23049 0.11531 -0.19182
 H55 H -0.23416 0.18971 -0.11952
 H56 H -0.19492 0.23268 -0.12037
 H57 H -0.12261 0.23519 -0.19444
 C58 C 0.19329 0.84634 -0.19362
 C59 C 0.17949 0.86072 -0.22079
 C60 C 0.15218 0.84728 -0.23605
 C61 C 0.13880 0.81908 -0.22298
 C62 C 0.15193 0.80494 -0.19538
 C63 C 0.17939 0.81845 -0.18070
 C64 C 0.22093 0.85941 -0.17924
 C65 C 0.23465 0.84527 -0.15185
 C66 C 0.22032 0.81779 -0.13867
 C67 C 0.19285 0.80416 -0.15303
 C68 C 0.17846 0.77663 -0.14010
 C69 C 0.15059 0.76351 -0.15425
 C70 C 0.13766 0.77767 -0.18200
 H71 H 0.19112 0.88167 -0.23073
 H72 H 0.11714 0.80875 -0.23324
 H73 H 0.23166 0.88087 -0.18917
 H74 H 0.23089 0.80678 -0.11758
 H75 H 0.18840 0.76588 -0.11857
 H76 H 0.11639 0.76738 -0.19318
 C77 C 0.15638 1.19844 0.80139
 C78 C 0.14451 1.18500 0.77276
 C79 C 0.15834 1.15677 0.75976
 C80 C 0.18557 1.14341 0.77537
 C81 C 0.19790 1.15685 0.80359
 C82 C 0.18289 1.18405 0.81705
 C83 C 0.14159 1.22563 0.81496
 C84 C 0.15242 1.23847 0.84449
 C85 C 0.17902 1.22351 0.85980
 C86 C 0.19441 1.19678 0.84620
 C87 C 0.22139 1.18273 0.86122
 C88 C 0.23710 1.15624 0.84730
 C89 C 0.22504 1.14331 0.81862
 H90 H 0.12326 1.19566 0.76186
 H91 H 0.19802 1.12290 0.76521
 H92 H 0.12060 1.23568 0.80305
 H93 H 0.18893 1.23337 0.88172
 H94 H 0.23064 1.19280 0.88337
 H95 H 0.23666 1.12243 0.80816
 C96 C 0.85184 0.80844 0.80598
 C97 C 0.86657 0.82240 0.77917
 C98 C 0.85466 0.85128 0.76587
 C99 C 0.82748 0.86590 0.78040
 C100 C 0.81218 0.85185 0.80681
 C101 C 0.82435 0.82299 0.81962
 C102 C 0.86422 0.78002 0.81922
 C103 C 0.84906 0.76520 0.84563
 C104 C 0.82110 0.77987 0.85859
 C105 C 0.80895 0.80865 0.84603
 C106 C 0.78161 0.82335 0.85958
 C107 C 0.76922 0.85200 0.84681
 C108 C 0.78461 0.86609 0.82039
 H109 H 0.88815 0.81117 0.76956
 H110 H 0.81695 0.88745 0.77034
 H111 H 0.88494 0.76885 0.80785
 H112 H 0.80942 0.76989 0.87950
 H113 H 0.76959 0.81223 0.87975
 H114 H 0.77526 0.88834 0.81064
 C115 C 0.15014 0.80448 1.19272
 C116 C 0.13723 0.81788 1.22078
 C117 C 0.15148 0.84495 1.23492
 C118 C 0.17895 0.85866 1.22074
 C119 C 0.19238 0.84533 1.19287
 C120 C 0.17795 0.81806 1.17887
 C121 C 0.13566 0.77768 1.17838
 C122 C 0.14897 0.76351 1.15055
 C123 C 0.17700 0.77733 1.13718
 C124 C 0.19125 0.80448 1.15091
 C125 C 0.21843 0.81849 1.13675
 C126 C 0.23271 0.84583 1.15027
 C127 C 0.21981 0.85893 1.17857
 H128 H 0.11576 0.80754 1.23142
 H129 H 0.19007 0.87949 1.23166
 H130 H 0.11481 0.76716 1.18992
 H131 H 0.18714 0.76803 1.11512
 H132 H 0.22860 0.80808 1.11515
 H133 H 0.23064 0.88016 1.18897
 C134 C 0.85089 1.19303 1.19158
 C135 C 0.86592 1.17968 1.21861
 C136 C 0.85424 1.15120 1.23268
 C137 C 0.82709 1.13623 1.21855
 C138 C 0.81146 1.14969 1.19189
 C139 C 0.82329 1.17826 1.17843
 C140 C 0.86306 1.22099 1.17748
 C141 C 0.84765 1.23467 1.15072
 C142 C 0.81968 1.22025 1.13823
 C143 C 0.80745 1.19215 1.15185
 C144 C 0.77963 1.17771 1.13931
 C145 C 0.76761 1.14932 1.15270
 C146 C 0.78380 1.13526 1.17879
 H147 H 0.88751 1.19108 1.22784
 H148 H 0.81677 1.11495 1.22916
 H149 H 0.88432 1.23236 1.18753
 H150 H 0.80778 1.23061 1.11750
 H151 H 0.76743 1.18837 1.11890
 H152 H 0.77441 1.11347 1.18930
 O153 O 0.45429 1.05816 1.05564
 O154 O 0.41908 1.02730 1.02646
 C155 C 0.42530 1.04983 1.04697
 O156 O 0.54793 1.05426 0.94480
 O157 O 0.58218 1.02366 0.97556
 C158 C 0.57666 1.04488 0.95356
 O159 O 0.45683 1.05864 0.94561
 O160 O 0.42026 1.02814 0.97327
 C161 C 0.42744 1.05064 0.95311
 O162 O 0.54492 1.05354 1.06119
 O163 O 0.58074 1.02428 1.03098
 C164 C 0.57410 1.04502 1.05323
 Zr165 Zr 0.49976 1.03863 1.04239
 O166 O 0.50319 1.08915 1.04399
 O167 O 0.49488 1.03697 1.09287
 Zr168 Zr 0.50171 1.03966 0.96143
 O169 O 0.50378 1.09012 0.96488
 O170 O 0.49969 1.04129 0.91076
 O171 O 0.47201 1.04579 1.00124
 O172 O 0.52892 1.04454 1.00262
 O173 O 0.54395 0.94150 1.06017
 O174 O 0.58021 0.97094 1.03097
 C175 C 0.57326 0.94995 1.05273
 O176 O 0.45539 0.94153 0.94387
 O177 O 0.41954 0.97227 0.97255
 C178 C 0.42619 0.95009 0.95172
 O179 O 0.54633 0.94355 0.94269
 O180 O 0.58138 0.97040 0.97571
 C181 C 0.57529 0.95085 0.95231
 O182 O 0.45265 0.94049 1.05551
 O183 O 0.41854 0.97190 1.02549
 C184 C 0.42394 0.94953 1.04633
 Zr185 Zr 0.49885 0.95764 1.04140
 O186 O 0.50166 0.90699 1.04053
 O187 O 0.49431 0.95723 1.09192
 Zr188 Zr 0.50068 0.95866 0.96030
 O189 O 0.50392 0.90804 0.96004
 O190 O 0.49802 0.95899 0.90963
 Zr191 Zr 0.45224 0.99939 1.00015
 Zr192 Zr 0.54825 0.99787 1.00252
 O193 O 0.52776 0.95183 1.00143
 O194 O 0.47089 0.95231 1.00005
 O195 O 0.52803 0.99765 1.04887
 O196 O 0.47323 0.99969 0.95428
 O197 O 0.47105 0.99857 1.04703
 O198 O 0.53014 0.99875 0.95528
 H199 H 0.54375 1.06313 1.00308
 H200 H 0.45896 1.00016 0.93518
 H201 H 0.54226 0.93287 1.00152
 H202 H 0.45587 0.99877 1.06539
 H203 H 0.51712 1.02721 0.90257
 H204 H 0.51578 0.97267 0.90176
 H205 H 0.48531 0.89979 0.97235
 H206 H 0.48344 0.89917 1.02731
 H207 H 0.51221 0.97018 1.10077
 H208 H 0.51387 1.02531 1.10149
 H209 H 0.49084 1.09749 1.02545
 H210 H 0.50436 1.09818 0.94257
 O211 O -0.06174 0.45465 0.05368
 O212 O -0.02918 0.41974 0.02579
 C213 C -0.05228 0.42592 0.04594
 O214 O -0.06014 0.54399 -0.05994
 O215 O -0.03100 0.57972 -0.02967
 C216 C -0.05196 0.57294 -0.05182
 O217 O -0.06156 0.45361 -0.05635
 O218 O -0.02913 0.41948 -0.02747
 C219 C -0.05202 0.42506 -0.04801
 O220 O -0.06073 0.54482 0.05655
 O221 O -0.03191 0.57989 0.02561
 C222 C -0.05281 0.57363 0.04784
 Zr223 Zr -0.04394 0.49986 0.03912
 O224 O -0.09511 0.50190 0.03928
 O225 O -0.04330 0.49668 0.08976
 Zr226 Zr -0.04403 0.49918 -0.04171
 O227 O -0.09507 0.49997 -0.03883
 O228 O -0.04523 0.49566 -0.09231
 O229 O -0.04951 0.47081 -0.00117
 O230 O -0.05038 0.52733 -0.00151
 O231 O 0.05254 0.54628 0.05685
 O232 O 0.02214 0.58093 0.02642
 C233 C 0.04353 0.57490 0.04844
 O234 O 0.05643 0.45578 -0.05748
 O235 O 0.02691 0.42033 -0.02756
 C236 C 0.04864 0.42691 -0.04894
 O237 O 0.05281 0.54590 -0.05968
 O238 O 0.02234 0.58035 -0.02920
 C239 C 0.04368 0.57455 -0.05120
 O240 O 0.05650 0.45654 0.05548
 O241 O 0.02649 0.42073 0.02635
 C242 C 0.04846 0.42756 0.04749
 Zr243 Zr 0.03793 0.50103 0.03930
 O244 O 0.08898 0.50500 0.03889
 O245 O 0.03810 0.49823 0.08995
 Zr246 Zr 0.03792 0.50058 -0.04183
 O247 O 0.08897 0.50445 -0.04155
 O248 O 0.03763 0.49720 -0.09245
 Zr249 Zr -0.00188 0.45260 -0.00103
 Zr250 Zr -0.00390 0.54767 -0.00144
 O251 O 0.04331 0.52864 -0.00134
 O252 O 0.04496 0.47231 -0.00112
 O253 O -0.00357 0.52904 0.04544
 O254 O -0.00250 0.47208 -0.04749
 O255 O -0.00250 0.47272 0.04523
 O256 O -0.00364 0.52836 -0.04815
 H257 H -0.06966 0.54153 -0.00170
 H258 H -0.00241 0.45751 -0.06626
 H259 H 0.06200 0.54342 -0.00134
 H260 H -0.00242 0.45840 0.06414
 H261 H -0.03079 0.51245 -0.10079
 H262 H 0.02450 0.51526 -0.10071
 H263 H 0.09760 0.48645 -0.02870
 H264 H 0.09761 0.48666 0.02648
 H265 H 0.02401 0.51564 0.09807
 H266 H -0.03157 0.51559 0.09800
 H267 H -0.10272 0.48764 0.02190
 H268 H -0.10305 0.49965 -0.06123
 O269 O 1.06201 -0.05383 0.54532
 O270 O 1.03131 -0.02399 0.58023
 C271 C 1.05352 -0.04520 0.57405
 O272 O 1.05808 0.05932 0.45318
 O273 O 1.02894 0.02740 0.41899
 C274 C 1.04968 0.04992 0.42461
 O275 O 1.06148 0.05851 0.54359
 O276 O 1.03059 0.02998 0.57906
 C277 C 1.05291 0.05068 0.57251
 O278 O 1.05882 -0.05817 0.45546
 O279 O 1.02936 -0.02796 0.41994
 C280 C 1.05030 -0.05021 0.42655
 Zr281 Zr 1.04382 -0.03912 0.50022
 O282 O 1.09493 -0.03838 0.49714
 O283 O 1.04456 -0.08965 0.50447
 Zr284 Zr 1.04354 0.04180 0.49882
 O285 O 1.09452 0.03817 0.49731
 O286 O 1.04516 0.09243 0.50092
 O287 O 1.05008 0.00190 0.52818
 O288 O 1.04944 0.00082 0.47158
 O289 O 0.94744 -0.05875 0.45598
 O290 O 0.97556 -0.02807 0.42005
 C291 C 0.95531 -0.05069 0.42698
 O292 O 0.94385 0.05795 0.54393
 O293 O 0.97489 0.02938 0.57954
 C294 C 0.95243 0.05015 0.57287
 O295 O 0.94667 0.05953 0.45382
 O296 O 0.97466 0.02692 0.41923
 C297 C 0.95447 0.05002 0.42517
 O298 O 0.94480 -0.05426 0.54585
 O299 O 0.97515 -0.02386 0.58040
 C300 C 0.95329 -0.04528 0.57447
 Zr301 Zr 0.96191 -0.03907 0.50053
 O302 O 0.91079 -0.03742 0.49709
 O303 O 0.96042 -0.08954 0.50481
 Zr304 Zr 0.96160 0.04176 0.49910
 O305 O 0.91049 0.04082 0.49557
 O306 O 0.96055 0.09238 0.50192
 Zr307 Zr 1.00295 0.00219 0.54729
 Zr308 Zr 1.00248 0.00038 0.45210
 O309 O 0.95570 0.00078 0.47194
 O310 O 0.95557 0.00188 0.52850
 O311 O 1.00276 -0.04599 0.47201
 O312 O 1.00266 0.04814 0.52661
 O313 O 1.00305 -0.04449 0.52819
 O314 O 1.00239 0.04752 0.47034
 H315 H 1.06827 0.00053 0.45690
 H316 H 1.00257 0.06733 0.54061
 H317 H 0.93676 0.00043 0.45737
 H318 H 1.00326 -0.06314 0.54285
 H319 H 1.02971 0.10063 0.48475
 H320 H 0.97484 0.10061 0.48486
 H321 H 0.90227 0.02891 0.51432
 H322 H 0.90254 -0.02648 0.51649
 H323 H 0.97624 -0.09844 0.48940
 H324 H 1.03104 -0.09844 0.48700
 H325 H 1.10272 -0.02250 0.51298
 H326 H 1.10264 0.06046 0.49674
 C327 C 1.11117 0.10805 0.31578
 C328 C 1.12721 0.08959 0.29264
 C329 C 1.14163 0.10455 0.26653
 C330 C 1.14005 0.13813 0.26289
 C331 C 1.12389 0.15566 0.28711
 N332 N 1.11037 0.14044 0.31258
 C333 C 1.09504 0.09288 0.34342
 N334 N 1.09523 0.10774 0.37251
 C335 C 1.08103 0.09462 0.39881
 C336 C 1.06507 0.06506 0.39648
 C337 C 1.06409 0.04977 0.36650
 C338 C 1.07911 0.06348 0.34006
 H339 H 1.15266 0.08933 0.24858
 H340 H 1.12283 0.18153 0.28660
 H341 H 1.08207 0.10735 0.42141
 H342 H 1.05196 0.02703 0.36349
 H343 H 1.12871 0.06378 0.29470
 H344 H 1.07783 0.05138 0.31713
 C345 C 0.89344 -0.11649 0.32265
 C346 C 0.89444 -0.14979 0.31873
 C347 C 0.87890 -0.16379 0.29258
 C348 C 0.86180 -0.14483 0.27021
 C349 C 0.86150 -0.11138 0.27535
 N350 N 0.87735 -0.09834 0.30075
 C351 C 0.90981 -0.10058 0.34977
 N352 N 0.92322 -0.07120 0.34533
 C353 C 0.93834 -0.05511 0.36939
 C354 C 0.93995 -0.06831 0.40028
 C355 C 0.92602 -0.09846 0.40541
 C356 C 0.91112 -0.11473 0.38022
 H357 H 0.87940 -0.18964 0.29083
 H358 H 0.84996 -0.09526 0.25857
 H359 H 0.94860 -0.03184 0.36447
 H360 H 0.92669 -0.10951 0.42887
 H361 H 0.90741 -0.16491 0.33548
 H362 H 0.90011 -0.13776 0.38474
 C363 C 0.88972 0.11252 0.67918
 C364 C 0.88252 0.14543 0.67962
 C365 C 0.86824 0.15897 0.70674
 C366 C 0.86094 0.13982 0.73332
 C367 C 0.86860 0.10706 0.73197
 N368 N 0.88282 0.09446 0.70541
 C369 C 0.90534 0.09710 0.65127
 N370 N 0.92504 0.07133 0.65609
 C371 C 0.94031 0.05604 0.63158
 C372 C 0.93579 0.06634 0.59985
 C373 C 0.91516 0.09258 0.59434
 C374 C 0.89998 0.10802 0.61991
 H375 H 0.86267 0.18435 0.70689
 H376 H 0.86374 0.09161 0.75218
 H377 H 0.95591 0.03587 0.63696
 H378 H 0.91083 0.10130 0.57028
 H379 H 0.88838 0.16072 0.65956
 H380 H 0.88384 0.12791 0.61505
 C381 C 1.11173 -0.10918 0.68163
 C382 C 1.10961 -0.14242 0.68542
 C383 C 1.12265 -0.15680 0.71269
 C384 C 1.13851 -0.13831 0.73623
 C385 C 1.14011 -0.10490 0.73115
 N386 N 1.12653 -0.09144 0.70467
 C387 C 1.09758 -0.09301 0.65348
 N388 N 1.08239 -0.06426 0.65732
 C389 C 1.06830 -0.04850 0.63240
 C390 C 1.06954 -0.06142 0.60133
 C391 C 1.08568 -0.09075 0.59683
 C392 C 1.09951 -0.10669 0.62283
 H393 H 1.12131 -0.18261 0.71445
 H394 H 1.15083 -0.08913 0.74875
 H395 H 1.05611 -0.02600 0.63694
 H396 H 1.08717 -0.10166 0.57331
 H397 H 1.09760 -0.15715 0.66767
 H398 H 1.11187 -0.12928 0.61894
 C399 C 0.31668 1.11375 1.10483
 C400 C 0.31179 1.14692 1.10341
 C401 C 0.28456 1.16045 1.11785
 C402 C 0.26205 1.14116 1.13425
 C403 C 0.26811 1.10784 1.13489
 N404 N 0.29458 1.09526 1.12013
 C405 C 0.34498 1.09830 1.08967
 N406 N 0.34175 1.06851 1.07678
 C407 C 0.36688 1.05281 1.06269
 C408 C 0.39765 1.06691 1.06160
 C409 C 0.40160 1.09744 1.07511
 C410 C 0.37532 1.11328 1.08898
 H411 H 0.28212 1.18625 1.11713
 H412 H 0.25130 1.09145 1.14589
 H413 H 0.36289 1.02915 1.05283
 H414 H 0.42494 1.10913 1.07482
 H415 H 0.32864 1.16230 1.09099
 H416 H 0.37890 1.13666 1.09963
 C417 C 0.31886 0.88731 0.89022
 C418 C 0.31780 0.88186 0.85702
 C419 C 0.29041 0.86797 0.84338
 C420 C 0.26414 0.85927 0.86268
 C421 C 0.26618 0.86494 0.89578
 N422 N 0.29299 0.87890 0.90851
 C423 C 0.34702 0.90285 0.90559
 N424 N 0.34230 0.92154 0.93196
 C425 C 0.36704 0.93690 0.94697
 C426 C 0.39891 0.93358 0.93570
 C427 C 0.40432 0.91398 0.90884
 C428 C 0.37852 0.89868 0.89373
 H429 H 0.28974 0.86395 0.81774
 H430 H 0.24623 0.85890 0.91138
 H431 H 0.36176 0.95158 0.96771
 H432 H 0.42848 0.91056 0.89938
 H433 H 0.33753 0.88892 0.84158
 H434 H 0.38334 0.88340 0.87329
 C435 C 0.67988 0.89047 1.11889
 C436 C 0.70314 0.90836 1.13541
 C437 C 0.72891 0.89278 1.15037
 C438 C 0.73211 0.85912 1.14883
 C439 C 0.70776 0.84218 1.13218
 N440 N 0.68262 0.85801 1.11814
 C441 C 0.65271 0.90629 1.10205
 N442 N 0.62310 0.89210 1.10137
 C443 C 0.59727 0.90565 1.08617
 C444 C 0.60069 0.93489 1.06995
 C445 C 0.63118 0.94957 1.07001
 C446 C 0.65710 0.93550 1.08612
 H447 H 0.74703 0.90757 1.16175
 H448 H 0.70792 0.81631 1.13107
 H449 H 0.57426 0.89337 1.08642
 H450 H 0.63500 0.97202 1.05768
 H451 H 0.70145 0.93421 1.13685
 H452 H 0.68049 0.94707 1.08555
 C453 C 0.68602 1.10271 0.89182
 C454 C 0.70928 1.08481 0.87517
 C455 C 0.73481 1.10041 0.86011
 C456 C 0.73774 1.13406 0.86169
 C457 C 0.71366 1.15096 0.87886
 N458 N 0.68871 1.13514 0.89287
 C459 C 0.65835 1.08714 0.90775
 N460 N 0.62920 1.10245 0.90855
 C461 C 0.60275 1.08934 0.92268
 C462 C 0.60497 1.05931 0.93764
 C463 C 0.63492 1.04334 0.93747
 C464 C 0.66157 1.05707 0.92244
 H465 H 0.75284 1.08568 0.84837
 H466 H 0.71369 1.17683 0.88014
 H467 H 0.58017 1.10257 0.92258
 H468 H 0.63769 1.02014 0.94877
 H469 H 0.70764 1.05899 0.87344
 H470 H 0.68455 1.04453 0.92285
 C471 C 0.10812 0.32144 0.11307
 C472 C 0.11388 0.32101 0.14627
 C473 C 0.12788 0.29393 0.16029
 C474 C 0.13634 0.26745 0.14131
 C475 C 0.12983 0.26871 0.10831
 N476 N 0.11594 0.29520 0.09525
 C477 C 0.09326 0.34935 0.09690
 N478 N 0.07536 0.34450 0.06992
 C479 C 0.06103 0.36898 0.05370
 C480 C 0.06469 0.40071 0.06429
 C481 C 0.08355 0.40628 0.09175
 C482 C 0.09777 0.38073 0.10813
 H483 H 0.13250 0.29382 0.18584
 H484 H 0.13554 0.24855 0.09296
 H485 H 0.04683 0.36355 0.03259
 H486 H 0.08710 0.43035 0.10077
 H487 H 0.10724 0.34108 0.16136
 H488 H 0.11254 0.38564 0.12899
 C489 C -0.11120 0.31624 -0.10907
 C490 C -0.09243 0.29059 -0.12058
 C491 C -0.10746 0.26496 -0.13583
 C492 C -0.14116 0.26467 -0.13974
 C493 C -0.15911 0.29086 -0.12814
 N494 N -0.14387 0.31578 -0.11348
 C495 C -0.09603 0.34376 -0.09259
 N496 N -0.10921 0.37357 -0.09568
 C497 C -0.09582 0.39986 -0.08167
 C498 C -0.06760 0.39689 -0.06306
 C499 C -0.05411 0.36621 -0.05907
 C500 C -0.06818 0.33973 -0.07373
 H501 H -0.09274 0.24515 -0.14426
 H502 H -0.18513 0.29165 -0.13102
 H503 H -0.10721 0.42300 -0.08510
 H504 H -0.03249 0.36262 -0.04479
 H505 H -0.06634 0.29045 -0.11825
 H506 H -0.05751 0.31631 -0.06999
 C507 C 0.10300 0.68352 -0.11145
 C508 C 0.08485 0.71031 -0.12115
 C509 C 0.10043 0.73626 -0.13520
 C510 C 0.13406 0.73575 -0.13953
 C511 C 0.15136 0.70843 -0.12974
 N512 N 0.13559 0.68323 -0.11631
 C513 C 0.08733 0.65581 -0.09595
 N514 N 0.09886 0.62565 -0.10133
 C515 C 0.08524 0.59931 -0.08773
 C516 C 0.05866 0.60261 -0.06698
 C517 C 0.04691 0.63362 -0.06074
 C518 C 0.06099 0.66012 -0.07523
 H519 H 0.08623 0.75692 -0.14236
 H520 H 0.17730 0.70702 -0.13305
 H521 H 0.09537 0.57593 -0.09292
 H522 H 0.02691 0.63753 -0.04447
 H523 H 0.05884 0.71110 -0.11826
 H524 H 0.05175 0.68379 -0.06969
 C525 C -0.11311 0.68033 0.11217
 C526 C -0.09496 0.70687 0.12217
 C527 C -0.11021 0.73193 0.13830
 C528 C -0.14352 0.73077 0.14450
 C529 C -0.16085 0.70376 0.13427
 N530 N -0.14537 0.67940 0.11877
 C531 C -0.09766 0.65334 0.09496
 N532 N -0.10853 0.62296 0.09965
 C533 C -0.09472 0.59715 0.08498
 C534 C -0.06855 0.60125 0.06393
 C535 C -0.05754 0.63251 0.05828
 C536 C -0.07191 0.65848 0.07374
 H537 H -0.09602 0.75243 0.14565
 H538 H -0.18654 0.70189 0.13890
 H539 H -0.10425 0.57353 0.08975
 H540 H -0.03774 0.63697 0.04196
 H541 H -0.06916 0.70812 0.11801
 H542 H -0.06319 0.68237 0.06875
 C543 C 1.11613 0.11117 0.67941
 C544 C 1.13290 0.09294 0.70215
 C545 C 1.14727 0.10804 0.72827
 C546 C 1.14480 0.14153 0.73238
 C547 C 1.12785 0.15887 0.70857
 N548 N 1.11444 0.14352 0.68300
 C549 C 1.09971 0.09554 0.65215
 N550 N 1.10107 0.10878 0.62238
 C551 C 1.08667 0.09487 0.59649
 C552 C 1.06922 0.06626 0.60001
 C553 C 1.06704 0.05276 0.63070
 C554 C 1.08242 0.06710 0.65666
 H555 H 1.15885 0.09294 0.74597
 H556 H 1.12599 0.18470 0.70956
 H557 H 1.08858 0.10631 0.57332
 H558 H 1.05352 0.03101 0.63468
 H559 H 1.13484 0.06716 0.69981
 H560 H 1.08036 0.05634 0.68016
 C561 C 0.89658 -0.10740 0.68341
 C562 C 0.89832 -0.14061 0.68782
 C563 C 0.88498 -0.15424 0.71524
 C564 C 0.86929 -0.13501 0.73837
 C565 C 0.86845 -0.10163 0.73285
 N566 N 0.88216 -0.08895 0.70618
 C567 C 0.91058 -0.09193 0.65487
 N568 N 0.92441 -0.06254 0.65788
 C569 C 0.93802 -0.04715 0.63261
 C570 C 0.93772 -0.06118 0.60200
 C571 C 0.92294 -0.09117 0.59829
 C572 C 0.90952 -0.10667 0.62465
 H573 H 0.88583 -0.18005 0.71732
 H574 H 0.85804 -0.08530 0.75016
 H575 H 0.94898 -0.02397 0.63646
 H576 H 0.92218 -0.10286 0.57511
 H577 H 0.91012 -0.15594 0.67040
 H578 H 0.89810 -0.12973 0.62132
 C579 C 1.10999 -0.11400 0.31940
 C580 C 1.11493 -0.14727 0.31772
 C581 C 1.12855 -0.16067 0.29019
 C582 C 1.13744 -0.14104 0.26445
 C583 C 1.13217 -0.10793 0.26709
 N584 N 1.11852 -0.09545 0.29400
 C585 C 1.09482 -0.09861 0.34757
 N586 N 1.07742 -0.07120 0.34330
 C587 C 1.06283 -0.05560 0.36799
 C588 C 1.06570 -0.06728 0.39942
 C589 C 1.08385 -0.09534 0.40443
 C590 C 1.09834 -0.11110 0.37861
 H591 H 1.13227 -0.18635 0.28903
 H592 H 1.13832 -0.09206 0.24756
 H593 H 1.04925 -0.03395 0.36301
 H594 H 1.08682 -0.10515 0.42826
 H595 H 1.10774 -0.16290 0.33708
 H596 H 1.11264 -0.13241 0.38308
 C597 C 0.89721 0.11192 0.31592
 C598 C 0.89862 0.14501 0.31072
 C599 C 0.88487 0.15797 0.28306
 C600 C 0.86912 0.13819 0.26049
 C601 C 0.86854 0.10498 0.26686
 N602 N 0.88264 0.09296 0.29373
 C603 C 0.91184 0.09696 0.34453
 N604 N 0.92501 0.06715 0.34189
 C605 C 0.93882 0.05186 0.36720
 C606 C 0.93938 0.06643 0.39755
 C607 C 0.92547 0.09697 0.40092
 C608 C 0.91185 0.11239 0.37445
 H609 H 0.88552 0.18372 0.28031
 H610 H 0.85808 0.08823 0.25004
 H611 H 0.94910 0.02826 0.36358
 H612 H 0.92538 0.10905 0.42391
 H613 H 0.91053 0.16074 0.32764
 H614 H 0.90096 0.13582 0.37753
 C615 C 0.10816 0.31983 -0.11320
 C616 C 0.10756 0.31619 -0.14659
 C617 C 0.12173 0.28918 -0.16059
 C618 C 0.13713 0.26570 -0.14156
 C619 C 0.13680 0.27046 -0.10802
 N620 N 0.12232 0.29672 -0.09501
 C621 C 0.09331 0.34789 -0.09725
 N622 N 0.07920 0.34416 -0.06803
 C623 C 0.06497 0.36895 -0.05212
 C624 C 0.06488 0.39984 -0.06539
 C625 C 0.07989 0.40431 -0.09520
 C626 C 0.09394 0.37842 -0.11125
 H627 H 0.12168 0.28766 -0.18647
 H628 H 0.14685 0.25283 -0.09183
 H629 H 0.05385 0.36450 -0.02910
 H630 H 0.08036 0.42771 -0.10635
 H631 H 0.09599 0.33385 -0.16178
 H632 H 0.10557 0.38238 -0.13412
 C633 C -0.11361 0.31848 0.10654
 C634 C -0.14707 0.31646 0.11205
 C635 C -0.15971 0.28918 0.12656
 C636 C -0.13917 0.26395 0.13567
 C637 C -0.10592 0.26684 0.12965
 N638 N -0.09418 0.29355 0.11526
 C639 C -0.09892 0.34662 0.09089
 N640 N -0.07098 0.34267 0.07409
 C641 C -0.05589 0.36744 0.05931
 C642 C -0.06874 0.39858 0.06134
 C643 C -0.09737 0.40323 0.07883
 C644 C -0.11252 0.37738 0.09357
 H645 H -0.18551 0.28786 0.13083
 H646 H -0.08935 0.24768 0.13589
 H647 H -0.03371 0.36278 0.04631
 H648 H -0.10807 0.42684 0.08119
 H649 H -0.16344 0.33537 0.10473
 H650 H -0.13421 0.38169 0.10744
 C651 C -0.11240 0.68045 -0.11384
 C652 C -0.14580 0.68603 -0.11259
 C653 C -0.15859 0.71400 -0.12587
 C654 C -0.13832 0.73647 -0.14104
 C655 C -0.10489 0.72942 -0.14201
 N656 N -0.09301 0.70235 -0.12819
 C657 C -0.09754 0.65210 -0.09861
 N658 N -0.06814 0.65516 -0.08425
 C659 C -0.05323 0.63028 -0.06925
 C660 C -0.06777 0.59996 -0.06858
 C661 C -0.09780 0.59611 -0.08383
 C662 C -0.11286 0.62216 -0.09867
 H663 H -0.18456 0.71726 -0.12508
 H664 H -0.08778 0.74604 -0.15222
 H665 H -0.03001 0.63421 -0.05800
 H666 H -0.10982 0.57311 -0.08387
 H667 H -0.16185 0.66930 -0.10091
 H668 H -0.13600 0.61882 -0.11038
 C669 C 0.10595 0.68212 0.10820
 C670 C 0.13938 0.68662 0.10557
 C671 C 0.15356 0.71353 0.11936
 C672 C 0.13468 0.73609 0.13633
 C673 C 0.10109 0.73034 0.13839
 N674 N 0.08780 0.70417 0.12416
 C675 C 0.09011 0.65412 0.09354
 N676 N 0.06053 0.65761 0.07953
 C677 C 0.04513 0.63275 0.06501
 C678 C 0.05940 0.60217 0.06454
 C679 C 0.08957 0.59801 0.07946
 C680 C 0.10505 0.62390 0.09380
 H681 H 0.17957 0.71573 0.11765
 H682 H 0.08501 0.74720 0.15004
 H683 H 0.02178 0.63689 0.05400
 H684 H 0.10145 0.57483 0.07965
 H685 H 0.15443 0.66969 0.09266
 H686 H 0.12829 0.62024 0.10526
 C687 C 0.32100 1.11461 0.89087
 C688 C 0.32080 1.12073 0.85779
 C689 C 0.29348 1.13443 0.84368
 C690 C 0.26637 1.14217 0.86236
 C691 C 0.26752 1.13577 0.89534
 N692 N 0.29432 1.12208 0.90855
 C693 C 0.34903 1.09920 0.90673
 N694 N 0.34397 1.08046 0.93291
 C695 C 0.36852 1.06494 0.94820
 C696 C 0.40051 1.06800 0.93731
 C697 C 0.40632 1.08780 0.91081
 C698 C 0.38073 1.10337 0.89548
 H699 H 0.29356 1.13908 0.81815
 H700 H 0.24693 1.14107 0.91048
 H701 H 0.36297 1.05024 0.96879
 H702 H 0.43061 1.09106 0.90170
 H703 H 0.34116 1.11437 0.84277
 H704 H 0.38585 1.11875 0.87529
 C705 C 0.31304 0.88975 1.10357
 C706 C 0.28596 0.88040 1.08554
 C707 C 0.25983 0.86610 1.10084
 C708 C 0.26048 0.86112 1.13405
 C709 C 0.28805 0.87063 1.15124
 N710 N 0.31340 0.88434 1.13575
 C711 C 0.34117 0.90514 1.08827
 N712 N 0.37135 0.90015 1.10048
 C713 C 0.39816 0.91366 1.08739
 C714 C 0.39534 0.93387 1.06064
 C715 C 0.36433 0.93963 1.04805
 C716 C 0.33731 0.92531 1.06168
 H717 H 0.23896 0.85917 1.08675
 H718 H 0.28958 0.86680 1.17685
 H719 H 0.42154 0.90884 1.09809
 H720 H 0.36085 0.95533 1.02771
 H721 H 0.28510 0.88362 1.05983
 H722 H 0.31363 0.93057 1.05186
 C723 C 0.68230 1.10650 1.11410
 C724 C 0.68258 1.13949 1.12070
 C725 C 0.71042 1.15344 1.13332
 C726 C 0.73788 1.13462 1.13959
 C727 C 0.73661 1.10172 1.13279
 N728 N 0.70934 1.08872 1.12009
 C729 C 0.65383 1.09084 1.09960
 N730 N 0.65845 1.06539 1.07968
 C731 C 0.63348 1.05028 1.06487
 C732 C 0.60147 1.06053 1.07001
 C733 C 0.59616 1.08632 1.09102
 C734 C 0.62221 1.10154 1.10578
 H735 H 0.71049 1.17891 1.13833
 H736 H 0.75747 1.08651 1.13698
 H737 H 0.63875 1.03047 1.04894
 H738 H 0.57191 1.09498 1.09585
 H739 H 0.66185 1.15454 1.11550
 H740 H 0.61755 1.12122 1.12208
 C741 C 0.68475 0.89448 0.88822
 C742 C 0.68717 0.89183 0.85475
 C743 C 0.71483 0.87817 0.84121
 C744 C 0.73999 0.86704 0.86089
 C745 C 0.73677 0.87038 0.89420
 N746 N 0.70971 0.88400 0.90684
 C747 C 0.65606 0.90883 0.90382
 N748 N 0.65972 0.92391 0.93254
 C749 C 0.63442 0.93751 0.94837
 C750 C 0.60304 0.93598 0.93550
 C751 C 0.59868 0.92013 0.90613
 C752 C 0.62507 0.90661 0.89021
 H753 H 0.71640 0.87597 0.81540
 H754 H 0.75588 0.86249 0.91014
 H755 H 0.63888 0.94930 0.97106
 H756 H 0.57490 0.91830 0.89534
 H757 H 0.66820 0.90061 0.83912
 H758 H 0.62105 0.89408 0.86784
   
