data_POSCAR
  _audit_creation_date              2014-09-24
  _audit_creation_method            'ToBaCCo'
  _symmetry_space_group_name_H-M    'P1'
  _symmetry_Int_Tables_number       1
  _symmetry_cell_setting            triclinic
  loop_
  _symmetry_equiv_pos_as_xyz
 x,y,z
_cell_length_a 26.4005
_cell_length_b 25.2472
_cell_length_c 32.3865
_cell_angle_alpha 90.000000
_cell_angle_beta 90.000000
_cell_angle_gamma 90.000000
loop_
  _atom_site_label
  _atom_site_type_symbol
  _atom_site_fract_x
  _atom_site_fract_y
  _atom_site_fract_z
B1 B 0.28156 0.23851 0.29424
 B2 B 0.22318 0.21626 0.28334
 B3 B 0.23251 0.28062 0.29380
 B4 B 0.28827 0.29958 0.27333
 B5 B 0.31289 0.24534 0.24981
 B6 B 0.27264 0.19317 0.25631
 B7 B 0.22347 0.26897 0.21106
 B8 B 0.28180 0.29114 0.22202
 B9 B 0.27305 0.22690 0.21158
 B10 B 0.21689 0.20791 0.23192
 B11 B 0.19205 0.26249 0.25596
 B12 B 0.23253 0.31430 0.24892
 B13 B 0.72700 0.77311 0.21158
 B14 B 0.71825 0.70887 0.22202
 B15 B 0.77658 0.73104 0.21106
 B16 B 0.78316 0.79210 0.23192
 B17 B 0.72741 0.80684 0.25631
 B18 B 0.68716 0.75467 0.24981
 B19 B 0.76755 0.71939 0.29380
 B20 B 0.77687 0.78375 0.28334
 B21 B 0.71849 0.76150 0.29424
 B22 B 0.71179 0.70042 0.27333
 B23 B 0.76752 0.68571 0.24892
 B24 B 0.80800 0.73752 0.25596
 B25 B 0.72700 0.22689 -0.21160
 B26 B 0.71825 0.29113 -0.22204
 B27 B 0.77658 0.26897 -0.21108
 B28 B 0.78316 0.20791 -0.23193
 B29 B 0.72741 0.19317 -0.25632
 B30 B 0.68716 0.24534 -0.24982
 B31 B 0.76755 0.28062 -0.29381
 B32 B 0.77687 0.21626 -0.28335
 B33 B 0.71849 0.23851 -0.29425
 B34 B 0.71179 0.29958 -0.27335
 B35 B 0.76752 0.31430 -0.24893
 B36 B 0.80801 0.26249 -0.25597
 B37 B 0.28156 0.76150 -0.29425
 B38 B 0.22318 0.78375 -0.28335
 B39 B 0.23250 0.71939 -0.29381
 B40 B 0.28826 0.70043 -0.27335
 B41 B 0.31289 0.75467 -0.24982
 B42 B 0.27264 0.80684 -0.25632
 B43 B 0.22347 0.73104 -0.21108
 B44 B 0.28180 0.70888 -0.22204
 B45 B 0.27305 0.77311 -0.21160
 B46 B 0.21689 0.79210 -0.23193
 B47 B 0.19205 0.73752 -0.25597
 B48 B 0.23253 0.68571 -0.24893
 B49 B 1.23250 1.28062 0.70619
 B50 B 1.22318 1.21626 0.71665
 B51 B 1.28156 1.23851 0.70575
 B52 B 1.28826 1.29958 0.72665
 B53 B 1.23253 1.31430 0.75107
 B54 B 1.19205 1.26249 0.74403
 B55 B 1.27305 1.22689 0.78840
 B56 B 1.28180 1.29113 0.77796
 B57 B 1.22347 1.26897 0.78892
 B58 B 1.21689 1.20791 0.76807
 B59 B 1.27264 1.19317 0.74368
 B60 B 1.31289 1.24534 0.75018
 B61 B 0.77658 0.73104 0.78892
 B62 B 0.71825 0.70888 0.77796
 B63 B 0.72700 0.77311 0.78840
 B64 B 0.78316 0.79210 0.76807
 B65 B 0.80801 0.73752 0.74403
 B66 B 0.76752 0.68571 0.75107
 B67 B 0.71849 0.76150 0.70575
 B68 B 0.77687 0.78375 0.71665
 B69 B 0.76755 0.71939 0.70619
 B70 B 0.71179 0.70043 0.72665
 B71 B 0.68716 0.75467 0.75018
 B72 B 0.72741 0.80684 0.74368
 B73 B 1.23251 0.71939 0.29380
 B74 B 1.22318 0.78375 0.28334
 B75 B 1.28156 0.76150 0.29424
 B76 B 1.28827 0.70042 0.27333
 B77 B 1.23253 0.68571 0.24892
 B78 B 1.19205 0.73752 0.25596
 B79 B 1.27305 0.77311 0.21158
 B80 B 1.28180 0.70887 0.22202
 B81 B 1.22347 0.73104 0.21106
 B82 B 1.21689 0.79210 0.23192
 B83 B 1.27264 0.80683 0.25631
 B84 B 1.31289 0.75467 0.24981
 B85 B 0.76755 1.28062 0.29380
 B86 B 0.77687 1.21626 0.28334
 B87 B 0.71849 1.23851 0.29424
 B88 B 0.71179 1.29958 0.27333
 B89 B 0.76752 1.31430 0.24892
 B90 B 0.80800 1.26249 0.25596
 B91 B 0.72700 1.22690 0.21158
 B92 B 0.71825 1.29113 0.22202
 B93 B 0.77658 1.26897 0.21106
 B94 B 0.78316 1.20791 0.23192
 B95 B 0.72741 1.19317 0.25631
 B96 B 0.68716 1.24534 0.24981
 N97 N 0.59129 1.05527 0.04461
 N98 N 0.62905 1.08686 0.05541
 N99 N 0.55523 0.94409 0.07262
 N100 N 0.56736 0.91136 0.10282
 N101 N 0.59129 0.94473 0.04461
 N102 N 0.62905 0.91315 0.05541
 N103 N 0.55523 1.05592 0.07262
 N104 N 0.56736 1.08865 0.10282
 C105 C 0.61307 1.10817 0.09141
 C106 C 0.61307 0.89184 0.09141
 N107 N 0.40876 0.94473 0.04461
 N108 N 0.37101 0.91315 0.05541
 N109 N 0.44482 1.05592 0.07262
 N110 N 0.43269 1.08865 0.10282
 N111 N 0.40876 1.05527 0.04461
 N112 N 0.37101 1.08686 0.05541
 N113 N 0.44482 0.94409 0.07262
 N114 N 0.43269 0.91136 0.10282
 Mn115 Mn 0.50003 1.00000 0.07291
 C116 C 0.38698 0.89184 0.09141
 C117 C 0.38698 1.10817 0.09141
 N118 N 0.59129 0.94473 -0.04462
 N119 N 0.62905 0.91315 -0.05542
 N120 N 0.55523 1.05592 -0.07264
 N121 N 0.56736 1.08865 -0.10284
 N122 N 0.59129 1.05527 -0.04462
 N123 N 0.62905 1.08686 -0.05542
 N124 N 0.55523 0.94409 -0.07264
 N125 N 0.56736 0.91136 -0.10283
 Mn126 Mn 0.59140 1.00000 -0.00001
 C127 C 0.61307 0.89184 -0.09142
 C128 C 0.61307 1.10817 -0.09142
 N129 N 0.40876 1.05527 -0.04462
 N130 N 0.37101 1.08686 -0.05542
 N131 N 0.44482 0.94409 -0.07264
 N132 N 0.43269 0.91136 -0.10283
 N133 N 0.40876 0.94473 -0.04462
 N134 N 0.37101 0.91315 -0.05542
 N135 N 0.44482 1.05592 -0.07264
 N136 N 0.43269 1.08865 -0.10284
 Mn137 Mn 0.40865 1.00000 -0.00001
 Mn138 Mn 0.50003 1.00000 -0.07293
 Cl139 Cl 0.50003 1.00000 -0.00001
 C140 C 0.38698 1.10817 -0.09142
 C141 C 0.38698 0.89184 -0.09142
 N142 N 0.94678 0.59497 0.54468
 N143 N 0.91145 0.63054 0.55321
 N144 N 1.05351 0.55688 0.57230
 N145 N 1.08934 0.56498 0.59990
 N146 N 1.05328 0.59497 0.54468
 N147 N 1.08860 0.63054 0.55321
 N148 N 0.94654 0.55688 0.57230
 N149 N 0.91072 0.56498 0.59990
 C150 C 0.88886 0.61071 0.58749
 C151 C 1.11120 0.61071 0.58749
 N152 N 1.05328 0.40504 0.54468
 N153 N 1.08860 0.36947 0.55321
 N154 N 0.94654 0.44313 0.57230
 N155 N 0.91072 0.43503 0.59990
 N156 N 0.94678 0.40504 0.54468
 N157 N 0.91145 0.36947 0.55321
 N158 N 1.05351 0.44313 0.57230
 N159 N 1.08934 0.43503 0.59990
 Mn160 Mn 1.00003 0.50000 0.57266
 C161 C 1.11120 0.38930 0.58749
 C162 C 0.88886 0.38930 0.58749
 N163 N 1.05328 0.59497 0.45530
 N164 N 1.08860 0.63054 0.44677
 N165 N 0.94654 0.55688 0.42769
 N166 N 0.91072 0.56498 0.40008
 N167 N 0.94678 0.59497 0.45530
 N168 N 0.91145 0.63054 0.44677
 N169 N 1.05351 0.55688 0.42769
 N170 N 1.08934 0.56498 0.40008
 Mn171 Mn 1.00003 0.59565 0.49999
 C172 C 1.11120 0.61071 0.41250
 C173 C 0.88886 0.61071 0.41250
 N174 N 0.94678 0.40504 0.45530
 N175 N 0.91145 0.36947 0.44677
 N176 N 1.05351 0.44313 0.42769
 N177 N 1.08934 0.43503 0.40008
 N178 N 1.05328 0.40504 0.45530
 N179 N 1.08860 0.36947 0.44677
 N180 N 0.94654 0.44313 0.42769
 N181 N 0.91072 0.43503 0.40008
 Mn182 Mn 1.00003 0.40436 0.49999
 Mn183 Mn 1.00003 0.50000 0.42733
 Cl184 Cl 1.00003 0.50000 0.49999
 C185 C 0.88886 0.38930 0.41250
 C186 C 1.11120 0.38930 0.41250
 N187 N 1.09120 0.55619 0.04512
 N188 N 1.12624 0.59182 0.05489
 N189 N 1.05486 0.44395 0.07290
 N190 N 1.06410 0.40851 0.10190
 N191 N 1.09120 0.44382 0.04512
 N192 N 1.12624 0.40819 0.05489
 N193 N 1.05486 0.55606 0.07290
 N194 N 1.06410 0.59150 0.10190
 C195 C 1.10831 0.61415 0.09020
 C196 C 1.10831 0.38586 0.09020
 N197 N 0.90885 0.44382 0.04512
 N198 N 0.87381 0.40819 0.05489
 N199 N 0.94519 0.55606 0.07290
 N200 N 0.93595 0.59150 0.10190
 N201 N 0.90885 0.55619 0.04512
 N202 N 0.87381 0.59182 0.05489
 N203 N 0.94519 0.44395 0.07290
 N204 N 0.93595 0.40851 0.10190
 Mn205 Mn 1.00003 0.50000 0.07305
 C206 C 0.89174 0.38586 0.09020
 C207 C 0.89174 0.61415 0.09020
 N208 N 1.09120 0.44382 -0.04514
 N209 N 1.12624 0.40819 -0.05491
 N210 N 1.05486 0.55606 -0.07291
 N211 N 1.06410 0.59150 -0.10191
 N212 N 1.09120 0.55619 -0.04514
 N213 N 1.12624 0.59182 -0.05491
 N214 N 1.05486 0.44395 -0.07291
 N215 N 1.06410 0.40851 -0.10191
 Mn216 Mn 1.09177 0.50000 -0.00001
 C217 C 1.10831 0.38586 -0.09021
 C218 C 1.10831 0.61415 -0.09021
 N219 N 0.90885 0.55619 -0.04514
 N220 N 0.87381 0.59182 -0.05491
 N221 N 0.94519 0.44395 -0.07291
 N222 N 0.93595 0.40851 -0.10191
 N223 N 0.90885 0.44382 -0.04514
 N224 N 0.87381 0.40819 -0.05491
 N225 N 0.94519 0.55606 -0.07291
 N226 N 0.93595 0.59150 -0.10191
 Mn227 Mn 0.90828 0.50000 -0.00001
 Mn228 Mn 1.00003 0.50000 -0.07306
 Cl229 Cl 1.00003 0.50000 -0.00001
 C230 C 0.89174 0.61415 -0.09021
 C231 C 0.89174 0.38586 -0.09021
 N232 N 0.59085 1.05615 0.54483
 N233 N 0.62454 1.09363 0.55322
 N234 N 0.55464 0.94398 0.57267
 N235 N 0.56253 0.90666 0.60042
 N236 N 0.59085 0.94386 0.54483
 N237 N 0.62454 0.90638 0.55322
 N238 N 0.55464 1.05603 0.57267
 N239 N 0.56253 1.09335 0.60042
 C240 C 0.60589 1.11696 0.58783
 C241 C 0.60589 0.88305 0.58783
 N242 N 0.40920 0.94386 0.54483
 N243 N 0.37551 0.90638 0.55322
 N244 N 0.44541 1.05603 0.57267
 N245 N 0.43752 1.09335 0.60042
 N246 N 0.40920 1.05615 0.54483
 N247 N 0.37551 1.09363 0.55322
 N248 N 0.44541 0.94398 0.57267
 N249 N 0.43752 0.90666 0.60042
 Mn250 Mn 0.50003 1.00000 0.57295
 C251 C 0.39417 0.88305 0.58783
 C252 C 0.39417 1.11696 0.58783
 N253 N 0.59085 0.94386 0.45516
 N254 N 0.62454 0.90638 0.44677
 N255 N 0.55464 1.05603 0.42732
 N256 N 0.56253 1.09335 0.39956
 N257 N 0.59085 1.05615 0.45516
 N258 N 0.62454 1.09363 0.44677
 N259 N 0.55464 0.94398 0.42732
 N260 N 0.56253 0.90666 0.39956
 Mn261 Mn 0.59153 1.00000 0.49999
 C262 C 0.60589 0.88305 0.41216
 C263 C 0.60589 1.11696 0.41216
 N264 N 0.40920 1.05615 0.45516
 N265 N 0.37551 1.09363 0.44677
 N266 N 0.44541 0.94398 0.42732
 N267 N 0.43752 0.90666 0.39956
 N268 N 0.40920 0.94386 0.45516
 N269 N 0.37551 0.90638 0.44677
 N270 N 0.44541 1.05603 0.42732
 N271 N 0.43752 1.09335 0.39956
 Mn272 Mn 0.40853 1.00000 0.49999
 Mn273 Mn 0.50003 1.00000 0.42703
 Cl274 Cl 0.50003 1.00000 0.49999
 C275 C 0.39417 1.11696 0.41216
 C276 C 0.39417 0.88305 0.41216
 N277 N 1.09108 1.05486 0.54495
 N278 N 1.12921 1.08378 0.55878
 N279 N 1.05350 0.94442 0.57150
 N280 N 1.06413 0.91381 0.60310
 N281 N 1.09108 0.94515 0.54495
 N282 N 1.12921 0.91623 0.55878
 N283 N 1.05350 1.05559 0.57150
 N284 N 1.06413 1.08620 0.60310
 C285 C 1.11088 1.10400 0.59451
 C286 C 1.11088 0.89601 0.59451
 N287 N 0.90897 0.94515 0.54495
 N288 N 0.87085 0.91623 0.55878
 N289 N 0.94655 1.05559 0.57150
 N290 N 0.93592 1.08620 0.60310
 N291 N 0.90897 1.05486 0.54494
 N292 N 0.87085 1.08378 0.55877
 N293 N 0.94655 0.94442 0.57150
 N294 N 0.93592 0.91381 0.60310
 Mn295 Mn 1.00003 1.00000 0.57149
 C296 C 0.88917 0.89601 0.59451
 C297 C 0.88917 1.10400 0.59451
 N298 N 1.09108 0.94515 0.45504
 N299 N 1.12921 0.91623 0.44121
 N300 N 1.05350 1.05559 0.42849
 N301 N 1.06413 1.08620 0.39689
 N302 N 1.09108 1.05486 0.45504
 N303 N 1.12921 1.08378 0.44121
 N304 N 1.05350 0.94442 0.42849
 N305 N 1.06413 0.91381 0.39689
 Mn306 Mn 1.09167 1.00000 0.49999
 C307 C 1.11088 0.89600 0.40548
 C308 C 1.11088 1.10400 0.40548
 N309 N 0.90897 1.05486 0.45504
 N310 N 0.87085 1.08378 0.44121
 N311 N 0.94655 0.94442 0.42849
 N312 N 0.93592 0.91381 0.39689
 N313 N 0.90897 0.94515 0.45504
 N314 N 0.87085 0.91623 0.44121
 N315 N 0.94655 1.05559 0.42849
 N316 N 0.93592 1.08620 0.39689
 Mn317 Mn 0.90838 1.00000 0.49999
 Mn318 Mn 1.00003 1.00000 0.42849
 Cl319 Cl 1.00003 1.00001 0.49999
 C320 C 0.88917 1.10400 0.40548
 C321 C 0.88917 0.89600 0.40548
 N322 N 0.59122 0.55472 0.04488
 N323 N 0.62928 0.58325 0.05930
 N324 N 0.55318 0.44444 0.07096
 N325 N 0.56324 0.41395 0.10266
 N326 N 0.59122 0.44529 0.04488
 N327 N 0.62928 0.41676 0.05930
 N328 N 0.55318 0.55557 0.07096
 N329 N 0.56324 0.58606 0.10266
 C330 C 0.61019 0.60353 0.09474
 C331 C 0.61019 0.39648 0.09475
 N332 N 0.40884 0.44529 0.04488
 N333 N 0.37077 0.41676 0.05930
 N334 N 0.44688 0.55557 0.07096
 N335 N 0.43681 0.58606 0.10266
 N336 N 0.40884 0.55472 0.04488
 N337 N 0.37077 0.58325 0.05930
 N338 N 0.44688 0.44444 0.07096
 N339 N 0.43681 0.41395 0.10266
 Mn340 Mn 0.50003 0.50001 0.07095
 C341 C 0.38986 0.39648 0.09475
 C342 C 0.38986 0.60353 0.09474
 N343 N 0.59122 0.44529 -0.04490
 N344 N 0.62928 0.41676 -0.05931
 N345 N 0.55318 0.55557 -0.07098
 N346 N 0.56324 0.58606 -0.10268
 N347 N 0.59122 0.55472 -0.04490
 N348 N 0.62928 0.58324 -0.05931
 N349 N 0.55318 0.44443 -0.07098
 N350 N 0.56324 0.41394 -0.10267
 Mn351 Mn 0.59191 0.50000 -0.00001
 C352 C 0.61019 0.39647 -0.09476
 C353 C 0.61019 0.60353 -0.09476
 N354 N 0.40884 0.55472 -0.04490
 N355 N 0.37077 0.58324 -0.05931
 N356 N 0.44688 0.44443 -0.07098
 N357 N 0.43681 0.41394 -0.10267
 N358 N 0.40884 0.44529 -0.04490
 N359 N 0.37077 0.41676 -0.05931
 N360 N 0.44688 0.55557 -0.07098
 N361 N 0.43681 0.58606 -0.10268
 Mn362 Mn 0.40814 0.50000 -0.00001
 Mn363 Mn 0.50003 0.50000 -0.07097
 Cl364 Cl 0.50003 0.50000 -0.00001
 C365 C 0.38986 0.60353 -0.09476
 C366 C 0.38986 0.39648 -0.09476
 N367 N 0.35325 1.19533 0.17702
 C368 C 0.30204 1.19943 0.17416
 N369 N 0.27838 1.17507 0.14206
 N370 N 0.30534 1.14746 0.11439
 C371 C 0.35663 1.14296 0.11814
 N372 N 0.37993 1.16774 0.14981
 N373 N 0.79782 0.63645 0.67017
 C374 C 0.79078 0.68958 0.66759
 N375 N 0.81277 0.71623 0.63581
 N376 N 0.84183 0.69082 0.60847
 C377 C 0.85020 0.63792 0.61221
 N378 N 0.82694 0.61116 0.64311
 N379 N 0.64680 0.80468 0.17702
 C380 C 0.69801 0.80058 0.17416
 N381 N 0.72167 0.82494 0.14206
 N382 N 0.69471 0.85255 0.11439
 C383 C 0.64342 0.85705 0.11814
 N384 N 0.62012 0.83227 0.14981
 N385 N 1.20223 0.36356 0.67017
 C386 C 1.20927 0.31043 0.66759
 N387 N 1.18728 0.28378 0.63581
 N388 N 1.15822 0.30919 0.60847
 C389 C 1.14985 0.36209 0.61221
 N390 N 1.17311 0.38885 0.64311
 N391 N 0.72167 1.17507 -0.14207
 C392 C 0.69801 1.19943 -0.17417
 N393 N 0.64680 1.19533 -0.17704
 N394 N 0.62012 1.16774 -0.14982
 C395 C 0.64342 1.14296 -0.11816
 N396 N 0.69471 1.14746 -0.11440
 N397 N 1.20223 0.63644 0.32981
 C398 C 1.20927 0.68958 0.33239
 N399 N 1.18728 0.71622 0.36418
 N400 N 1.15822 0.69081 0.39152
 C401 C 1.14985 0.63792 0.38777
 N402 N 1.17311 0.61116 0.35687
 N403 N 0.35325 0.80468 -0.17704
 C404 C 0.30204 0.80058 -0.17417
 N405 N 0.27838 0.82494 -0.14207
 N406 N 0.30534 0.85255 -0.11440
 C407 C 0.35663 0.85705 -0.11815
 N408 N 0.37993 0.83227 -0.14982
 N409 N 0.81277 0.28378 0.36418
 C410 C 0.79078 0.31043 0.33239
 N411 N 0.79782 0.36356 0.32981
 N412 N 0.82694 0.38885 0.35687
 C413 C 0.85020 0.36209 0.38777
 N414 N 0.84183 0.30919 0.39152
 N415 N 1.14187 0.30670 0.18142
 C416 C 1.18960 0.28962 0.17306
 N417 N 1.20904 0.30015 0.13496
 N418 N 1.18278 0.32882 0.10747
 C419 C 1.13587 0.34774 0.11695
 N420 N 1.11561 0.33484 0.15406
 N421 N 0.70485 0.79416 0.63034
 C422 C 0.68480 0.78198 0.66788
 N423 N 0.63685 0.79838 0.67618
 N424 N 0.61108 0.82785 0.64943
 C425 C 0.63212 0.84270 0.61308
 N426 N 0.67907 0.82414 0.60346
 N427 N 1.20904 0.69986 -0.13498
 C428 C 1.18960 0.71039 -0.17307
 N429 N 1.14187 0.69331 -0.18143
 N430 N 1.11561 0.66517 -0.15408
 C431 C 1.13586 0.65227 -0.11697
 N432 N 1.18278 0.67119 -0.10749
 N433 N 0.70485 1.20585 0.36965
 C434 C 0.68480 1.21803 0.33211
 N435 N 0.63685 1.20163 0.32381
 N436 N 0.61108 1.17216 0.35056
 C437 C 0.63212 1.15731 0.38690
 N438 N 0.67907 1.17587 0.39653
 N439 N 0.85818 0.69331 0.18142
 C440 C 0.81045 0.71039 0.17306
 N441 N 0.79101 0.69986 0.13496
 N442 N 0.81727 0.67119 0.10747
 C443 C 0.86419 0.65227 0.11695
 N444 N 0.88444 0.66517 0.15406
 N445 N 0.36320 1.20163 0.67618
 C446 C 0.31525 1.21803 0.66788
 N447 N 0.29520 1.20585 0.63034
 N448 N 0.32098 1.17587 0.60346
 C449 C 0.36793 1.15731 0.61308
 N450 N 0.38897 1.17216 0.64943
 N451 N 0.85818 0.30670 -0.18143
 C452 C 0.81045 0.28962 -0.17307
 N453 N 0.79101 0.30015 -0.13498
 N454 N 0.81727 0.32882 -0.10749
 C455 C 0.86419 0.34774 -0.11697
 N456 N 0.88444 0.33484 -0.15408
 N457 N 0.36320 0.79838 0.32381
 C458 C 0.31525 0.78198 0.33211
 N459 N 0.29521 0.79416 0.36965
 N460 N 0.32098 0.82414 0.39653
 C461 C 0.36793 0.84269 0.38690
 N462 N 0.38897 0.82785 0.35056
 N463 N 1.14175 1.18880 0.31802
 C464 C 1.19235 1.18122 0.31414
 N465 N 1.21607 1.14772 0.34054
 N466 N 1.19048 1.12394 0.37069
 C467 C 1.14020 1.13283 0.37513
 N468 N 1.11601 1.16446 0.34770
 N469 N 0.63838 0.68514 -0.18413
 C470 C 0.68810 0.67478 -0.19045
 N471 N 0.71231 0.64072 -0.16478
 N472 N 0.68806 0.61904 -0.13300
 C473 C 0.63880 0.63095 -0.12607
 N474 N 0.61397 0.66298 -0.15279
 N475 N 0.78398 1.14772 0.65944
 C476 C 0.80771 1.18121 0.68585
 N477 N 0.85830 1.18880 0.68197
 N478 N 0.88404 1.16446 0.65229
 C479 C 0.85985 1.13283 0.62486
 N480 N 0.80957 1.12394 0.62929
 N481 N 0.28775 0.64072 0.16477
 C482 C 0.31196 0.67478 0.19044
 N483 N 0.36167 0.68514 0.18412
 N484 N 0.38609 0.66298 0.15278
 C485 C 0.36125 0.63095 0.12606
 N486 N 0.31199 0.61904 0.13299
 N487 N 1.21607 0.85229 0.65944
 C488 C 1.19235 0.81880 0.68585
 N489 N 1.14175 0.81121 0.68197
 N490 N 1.11601 0.83555 0.65229
 C491 C 1.14020 0.86718 0.62486
 N492 N 1.19048 0.87607 0.62929
 N493 N 0.71231 0.35929 0.16477
 C494 C 0.68809 0.32523 0.19044
 N495 N 0.63838 0.31487 0.18412
 N496 N 0.61397 0.33703 0.15278
 C497 C 0.63880 0.36906 0.12606
 N498 N 0.68806 0.38097 0.13299
 N499 N 0.78398 0.85229 0.34054
 C500 C 0.80771 0.81879 0.31414
 N501 N 0.85830 0.81121 0.31802
 N502 N 0.88404 0.83554 0.34770
 C503 C 0.85985 0.86718 0.37513
 N504 N 0.80957 0.87607 0.37069
 N505 N 0.36167 0.31487 -0.18413
 C506 C 0.31196 0.32523 -0.19045
 N507 N 0.28774 0.35929 -0.16478
 N508 N 0.31199 0.38097 -0.13300
 C509 C 0.36125 0.36906 -0.12607
 N510 N 0.38609 0.33703 -0.15279
 N511 N 1.14187 0.30670 -0.18143
 C512 C 1.18960 0.28962 -0.17307
 N513 N 1.20904 0.30015 -0.13498
 N514 N 1.18278 0.32882 -0.10749
 C515 C 1.13587 0.34774 -0.11697
 N516 N 1.11561 0.33484 -0.15408
 N517 N 0.70485 0.79416 0.36965
 C518 C 0.68480 0.78198 0.33211
 N519 N 0.63685 0.79838 0.32381
 N520 N 0.61108 0.82785 0.35056
 C521 C 0.63212 0.84269 0.38690
 N522 N 0.67907 0.82414 0.39653
 N523 N 0.85818 0.69331 -0.18143
 C524 C 0.81045 0.71039 -0.17307
 N525 N 0.79101 0.69986 -0.13498
 N526 N 0.81727 0.67119 -0.10749
 C527 C 0.86419 0.65227 -0.11697
 N528 N 0.88444 0.66517 -0.15408
 N529 N 0.36320 1.20163 0.32381
 C530 C 0.31525 1.21803 0.33211
 N531 N 0.29521 1.20585 0.36965
 N532 N 0.32098 1.17587 0.39653
 C533 C 0.36793 1.15731 0.38690
 N534 N 0.38897 1.17216 0.35056
 N535 N 1.20904 0.69986 0.13496
 C536 C 1.18960 0.71038 0.17306
 N537 N 1.14187 0.69331 0.18142
 N538 N 1.11561 0.66517 0.15406
 C539 C 1.13587 0.65227 0.11695
 N540 N 1.18278 0.67119 0.10747
 N541 N 0.63685 1.20163 0.67618
 C542 C 0.68480 1.21803 0.66788
 N543 N 0.70485 1.20585 0.63034
 N544 N 0.67907 1.17587 0.60346
 C545 C 0.63212 1.15731 0.61308
 N546 N 0.61108 1.17216 0.64943
 N547 N 0.85818 0.30670 0.18142
 C548 C 0.81045 0.28962 0.17306
 N549 N 0.79101 0.30015 0.13496
 N550 N 0.81727 0.32882 0.10747
 C551 C 0.86419 0.34774 0.11695
 N552 N 0.88444 0.33484 0.15406
 N553 N 0.29520 0.79416 0.63034
 C554 C 0.31525 0.78198 0.66788
 N555 N 0.36320 0.79838 0.67618
 N556 N 0.38897 0.82785 0.64943
 C557 C 0.36793 0.84270 0.61308
 N558 N 0.32098 0.82414 0.60346
 N559 N 0.27838 1.17507 -0.14207
 C560 C 0.30204 1.19943 -0.17417
 N561 N 0.35325 1.19533 -0.17704
 N562 N 0.37993 1.16774 -0.14982
 C563 C 0.35663 1.14296 -0.11816
 N564 N 0.30534 1.14746 -0.11440
 N565 N 0.81277 0.71622 0.36418
 C566 C 0.79078 0.68958 0.33239
 N567 N 0.79782 0.63644 0.32981
 N568 N 0.82694 0.61116 0.35687
 C569 C 0.85020 0.63792 0.38777
 N570 N 0.84183 0.69081 0.39152
 N571 N 0.72167 1.17507 0.14206
 C572 C 0.69801 1.19943 0.17416
 N573 N 0.64680 1.19533 0.17702
 N574 N 0.62012 1.16774 0.14981
 C575 C 0.64342 1.14296 0.11814
 N576 N 0.69471 1.14746 0.11439
 N577 N 1.18728 0.71623 0.63581
 C578 C 1.20927 0.68958 0.66759
 N579 N 1.20223 0.63645 0.67017
 N580 N 1.17311 0.61116 0.64311
 C581 C 1.14985 0.63792 0.61221
 N582 N 1.15822 0.69082 0.60847
 N583 N 0.64680 0.80468 -0.17704
 C584 C 0.69801 0.80058 -0.17417
 N585 N 0.72167 0.82494 -0.14207
 N586 N 0.69471 0.85255 -0.11440
 C587 C 0.64342 0.85705 -0.11816
 N588 N 0.62012 0.83227 -0.14982
 N589 N 1.20223 0.36356 0.32981
 C590 C 1.20927 0.31043 0.33239
 N591 N 1.18728 0.28378 0.36418
 N592 N 1.15822 0.30919 0.39152
 C593 C 1.14985 0.36209 0.38777
 N594 N 1.17311 0.38885 0.35687
 N595 N 0.27838 0.82494 0.14206
 C596 C 0.30204 0.80058 0.17416
 N597 N 0.35325 0.80468 0.17702
 N598 N 0.37993 0.83227 0.14981
 C599 C 0.35663 0.85705 0.11814
 N600 N 0.30534 0.85255 0.11439
 N601 N 0.79782 0.36356 0.67017
 C602 C 0.79078 0.31043 0.66759
 N603 N 0.81277 0.28378 0.63581
 N604 N 0.84183 0.30919 0.60847
 C605 C 0.85020 0.36209 0.61221
 N606 N 0.82694 0.38885 0.64312
 N607 N 1.21607 1.14772 0.65944
 C608 C 1.19235 1.18121 0.68585
 N609 N 1.14175 1.18880 0.68197
 N610 N 1.11601 1.16446 0.65229
 C611 C 1.14020 1.13283 0.62486
 N612 N 1.19048 1.12394 0.62929
 N613 N 0.63838 0.68514 0.18412
 C614 C 0.68809 0.67478 0.19044
 N615 N 0.71231 0.64072 0.16477
 N616 N 0.68806 0.61904 0.13299
 C617 C 0.63880 0.63095 0.12606
 N618 N 0.61397 0.66298 0.15278
 N619 N 1.21607 0.85229 0.34054
 C620 C 1.19235 0.81879 0.31414
 N621 N 1.14175 0.81121 0.31802
 N622 N 1.11601 0.83554 0.34770
 C623 C 1.14020 0.86718 0.37513
 N624 N 1.19048 0.87607 0.37069
 N625 N 0.63838 0.31486 -0.18413
 C626 C 0.68810 0.32522 -0.19045
 N627 N 0.71231 0.35929 -0.16478
 N628 N 0.68806 0.38097 -0.13300
 C629 C 0.63880 0.36905 -0.12607
 N630 N 0.61397 0.33703 -0.15279
 N631 N 0.78398 1.14772 0.34054
 C632 C 0.80771 1.18122 0.31414
 N633 N 0.85830 1.18880 0.31802
 N634 N 0.88404 1.16446 0.34770
 C635 C 0.85985 1.13283 0.37513
 N636 N 0.80957 1.12394 0.37069
 N637 N 0.28774 0.64072 -0.16478
 C638 C 0.31196 0.67478 -0.19045
 N639 N 0.36167 0.68514 -0.18413
 N640 N 0.38609 0.66298 -0.15279
 C641 C 0.36125 0.63095 -0.12607
 N642 N 0.31199 0.61904 -0.13300
 N643 N 0.78398 0.85229 0.65944
 C644 C 0.80771 0.81880 0.68585
 N645 N 0.85830 0.81121 0.68197
 N646 N 0.88404 0.83555 0.65229
 C647 C 0.85985 0.86718 0.62486
 N648 N 0.80957 0.87607 0.62929
 N649 N 0.28775 0.35929 0.16477
 C650 C 0.31196 0.32523 0.19044
 N651 N 0.36167 0.31487 0.18412
 N652 N 0.38609 0.33703 0.15278
 C653 C 0.36125 0.36906 0.12606
 N654 N 0.31199 0.38097 0.13299
   
