data_POSCAR
  _audit_creation_date              2014-09-24
  _audit_creation_method            'ToBaCCo'
  _symmetry_space_group_name_H-M    'P1'
  _symmetry_Int_Tables_number       1
  _symmetry_cell_setting            triclinic
  loop_
  _symmetry_equiv_pos_as_xyz
 x,y,z
_cell_length_a 18.2241
_cell_length_b 18.1999
_cell_length_c 18.4115
_cell_angle_alpha 90.154600
_cell_angle_beta 89.926700
_cell_angle_gamma 120.053700
loop_
  _atom_site_label
  _atom_site_type_symbol
  _atom_site_fract_x
  _atom_site_fract_y
  _atom_site_fract_z
O1 O 0.08119 0.60187 1.32052
 O2 O -0.08476 0.52031 1.17972
 O3 O -0.08281 0.51801 1.32121
 O4 O 0.08091 0.60355 1.17915
 O5 O 0.08175 0.48256 1.17710
 O6 O -0.08388 0.39611 1.31734
 O7 O -0.08194 0.40048 1.17554
 O8 O 0.08123 0.48049 1.31870
 Cu9 Cu -0.00150 0.57309 1.25023
 Cu10 Cu -0.00068 0.42771 1.24704
 C11 C 0.10885 0.55477 1.34410
 C12 C -0.11105 0.44681 1.15301
 C13 C -0.11087 0.44271 1.34370
 C14 C 0.10904 0.55742 1.15387
 O15 O 0.39775 0.48133 1.32298
 O16 O 0.47932 0.39748 1.18118
 O17 O 0.48036 0.39949 1.32271
 O18 O 0.39518 0.47871 1.18127
 O19 O 0.51660 0.60009 1.17914
 O20 O 0.60177 0.52088 1.32057
 O21 O 0.60005 0.51953 1.17915
 O22 O 0.51848 0.60323 1.32111
 Cu23 Cu 0.42601 0.42706 1.25213
 Cu24 Cu 0.57129 0.57324 1.25001
 C25 C 0.44440 0.55647 1.34663
 C26 C 0.55339 0.44435 1.15579
 C27 C 0.55541 0.44667 1.34580
 C28 C 0.44173 0.55269 1.15572
 O29 O 0.51843 0.91708 1.32362
 O30 O 0.60389 1.08293 1.18275
 O31 O 0.59932 1.08130 1.32478
 O32 O 0.52079 0.91750 1.18202
 O33 O 0.39954 0.91742 1.17987
 O34 O 0.47943 1.08367 1.32070
 O35 O 0.48197 1.08144 1.17932
 O36 O 0.39746 0.91741 1.32209
 Cu37 Cu 0.57278 0.99980 1.25345
 Cu38 Cu 0.42735 0.99982 1.25051
 C39 C 0.44368 0.88943 1.34744
 C40 C 0.55719 1.10975 1.15648
 C41 C 0.55286 1.11040 1.34722
 C42 C 0.44691 0.89001 1.15631
 O43 O 0.91850 0.52076 0.67957
 O44 O 1.08343 0.60013 0.82088
 O45 O 1.08406 0.60286 0.67890
 O46 O 0.91950 0.51831 0.82125
 O47 O 0.91845 0.39643 0.81848
 O48 O 1.08318 0.48113 0.67626
 O49 O 1.08374 0.47891 0.81800
 O50 O 0.91876 0.39953 0.67661
 Cu51 Cu 1.00149 0.57274 0.75023
 Cu52 Cu 1.00096 0.42681 0.74712
 C53 C 0.89085 0.44672 0.65378
 C54 C 1.11108 0.55284 0.84396
 C55 C 1.11139 0.55624 0.65291
 C56 C 0.89144 0.44325 0.84449
 O57 O 0.47917 0.39623 0.68090
 O58 O 0.40060 0.48252 0.82221
 O59 O 0.39832 0.48051 0.68038
 O60 O 0.48235 0.40034 0.82238
 O61 O 0.60428 0.52118 0.81969
 O62 O 0.51988 0.60175 0.67852
 O63 O 0.52193 0.60403 0.81992
 O64 O 0.60024 0.51795 0.67806
 Cu65 Cu 0.42782 0.42774 0.75159
 Cu66 Cu 0.57387 0.57339 0.74891
 C67 C 0.55296 0.44271 0.65508
 C68 C 0.44798 0.55756 0.84550
 C69 C 0.44500 0.55466 0.65503
 C70 C 0.55748 0.44732 0.84545
 O71 O 0.60328 0.08125 0.67979
 O72 O 0.51778 -0.08312 0.82133
 O73 O 0.51872 -0.08424 0.67921
 O74 O 0.60020 0.08095 0.82144
 O75 O 0.47963 0.08222 0.81926
 O76 O 0.39810 -0.08318 0.67753
 O77 O 0.39659 -0.08304 0.81918
 O78 O 0.48198 0.08110 0.67761
 Cu79 Cu 0.57210 -0.00148 0.75048
 Cu80 Cu 0.42695 -0.00064 0.74830
 C81 C 0.55688 0.10875 0.65431
 C82 C 0.44304 -0.11040 0.84484
 C83 C 0.44471 -0.11142 0.65363
 C84 C 0.55348 0.10924 0.84490
 O85 O 0.46012 0.66813 0.91996
 O86 O 0.46255 0.81110 0.93592
 C87 C 0.41061 0.82677 0.90337
 O88 O 0.33282 0.79218 0.91958
 O89 O 0.18987 0.65158 0.93493
 C90 C 0.17416 0.58366 0.90246
 O91 O 0.20883 0.54057 0.91879
 O92 O 0.34910 0.53812 0.93573
 C93 C 0.41711 0.59019 0.90364
 O94 O 0.46167 0.65150 1.06526
 O95 O 0.45947 0.79222 1.08132
 C96 C 0.41633 0.82690 1.09764
 O97 O 0.34865 0.81113 1.06507
 O98 O 0.20791 0.66814 1.08028
 C99 C 0.17284 0.59016 1.09614
 O100 O 0.18893 0.53814 1.06393
 O101 O 0.33166 0.54046 1.08089
 C102 C 0.40945 0.58352 1.09738
 Cr103 Cr 0.45564 0.72810 1.00061
 Cr104 Cr 0.27249 0.72813 0.99998
 Cr105 Cr 0.27229 0.54464 0.99986
 O106 O 0.33347 0.66695 1.00018
 O107 O 0.53856 0.34679 0.93409
 O108 O 0.54029 0.20547 0.92159
 C109 C 0.58472 0.17276 0.90342
 O110 O 0.65419 0.19084 0.93386
 O111 O 0.79570 0.33395 0.92159
 C112 C 0.82816 0.41104 0.90316
 O113 O 0.80998 0.46260 0.93341
 O114 O 0.66711 0.46085 0.92152
 C115 C 0.58992 0.41629 0.90364
 O116 O 0.54049 0.33446 1.07980
 O117 O 0.53846 0.19116 1.06745
 C118 C 0.58974 0.17307 1.09796
 O119 O 0.66685 0.20563 1.07986
 O120 O 0.80970 0.34693 1.06768
 C121 C 0.82866 0.41709 1.09771
 O122 O 0.79636 0.46179 1.07921
 O123 O 0.65467 0.46318 1.06743
 C124 C 0.58495 0.41182 1.09772
 Cr125 Cr 0.54506 0.27225 1.00073
 Cr126 Cr 0.72884 0.27215 1.00073
 Cr127 Cr 0.72921 0.45648 1.00043
 O128 O 0.66772 0.33364 1.00067
 O129 O 0.65257 0.46151 0.56588
 O130 O 0.79347 0.45962 0.57894
 C131 C 0.82699 0.41563 0.59585
 O132 O 0.80940 0.34656 0.56460
 O133 O 0.66651 0.20529 0.57832
 C134 C 0.58925 0.17207 0.59613
 O135 O 0.53754 0.18949 0.56560
 O136 O 0.53947 0.33242 0.57946
 C137 C 0.58363 0.40993 0.59688
 O138 O 0.66577 0.45952 0.42045
 O139 O 0.80875 0.46159 0.43337
 C140 C 0.82596 0.41000 0.40197
 O141 O 0.79271 0.33251 0.41906
 O142 O 0.65208 0.18958 0.43263
 C143 C 0.58247 0.17113 0.40225
 O144 O 0.53834 0.20430 0.42025
 O145 O 0.53687 0.34599 0.43398
 C146 C 0.58826 0.41538 0.40333
 Cr147 Cr 0.72739 0.45503 0.49964
 Cr148 Cr 0.72741 0.27121 0.49870
 Cr149 Cr 0.54358 0.27085 0.49977
 O150 O 0.66611 0.33235 0.49932
 O151 O 0.33768 0.53829 0.57462
 O152 O 0.19502 0.53765 0.57088
 C153 C 0.17168 0.58700 0.59745
 O154 O 0.19949 0.66228 0.57540
 O155 O 0.34196 0.80510 0.57197
 C156 C 0.41484 0.82850 0.59790
 O157 O 0.46227 0.80107 0.57493
 O158 O 0.46249 0.65858 0.57053
 C159 C 0.41283 0.58590 0.59672
 O160 O 0.34178 0.53773 0.42823
 O161 O 0.19971 0.53842 0.42449
 C162 C 0.17222 0.58607 0.40254
 O163 O 0.19527 0.65877 0.42901
 O164 O 0.33806 0.80153 0.42550
 C165 C 0.41302 0.82903 0.40277
 O166 O 0.46226 0.80529 0.42853
 O167 O 0.46188 0.66248 0.42426
 C168 C 0.41454 0.58715 0.40197
 Cr169 Cr 0.27149 0.54394 0.49956
 Cr170 Cr 0.27166 0.72896 0.50043
 Cr171 Cr 0.45631 0.72892 0.49957
 O172 O 0.33315 0.66727 0.49983
   
