data_POSCAR
  _audit_creation_date              2014-09-24
  _audit_creation_method            'ToBaCCo'
  _symmetry_space_group_name_H-M    'P1'
  _symmetry_Int_Tables_number       1
  _symmetry_cell_setting            triclinic
  loop_
  _symmetry_equiv_pos_as_xyz
 x,y,z
_cell_length_a 40.3856
_cell_length_b 38.6533
_cell_length_c 40.1909
_cell_angle_alpha 89.354800
_cell_angle_beta 88.948200
_cell_angle_gamma 90.329700
loop_
  _atom_site_label
  _atom_site_type_symbol
  _atom_site_fract_x
  _atom_site_fract_y
  _atom_site_fract_z
C1 C 1.24989 0.25035 0.25100
 C2 C 0.74517 -0.26010 0.25235
 C3 C 0.74902 0.23973 -0.25702
 C4 C 1.24650 -0.24848 -0.24317
 C5 C 0.25150 0.24873 0.74877
 C6 C 0.75269 0.76079 0.74740
 C7 C 0.74896 0.26097 0.25522
 C8 C 0.25578 0.75089 0.24128
 N9 N 0.95844 0.03914 -0.05055
 N10 N 0.93691 0.04659 -0.07387
 N11 N 1.02785 0.06586 -0.03036
 N12 N 1.04940 0.09067 -0.03780
 N13 N 1.02793 0.04226 -0.05360
 N14 N 1.04944 0.05053 -0.07758
 N15 N 0.95832 0.06315 -0.02767
 N16 N 0.93677 0.08754 -0.03495
 C17 C 0.92319 0.07661 -0.06358
 C18 C 1.06292 0.08063 -0.06720
 N19 N 1.03046 0.04140 0.06474
 N20 N 1.05230 0.04989 0.08736
 N21 N 0.95993 0.06268 0.04433
 N22 N 0.93884 0.08698 0.05342
 N23 N 0.96100 0.03814 0.06716
 N24 N 0.94053 0.04501 0.09215
 N25 N 1.02940 0.06528 0.04127
 N26 N 1.05063 0.09044 0.04717
 Mn27 Mn 0.99387 0.06450 0.00689
 C28 C 1.06502 0.08035 0.07580
 C29 C 0.92651 0.07530 0.08308
 N30 N 1.03054 -0.03243 -0.05357
 N31 N 1.05047 -0.03965 -0.07890
 N32 N 0.96305 -0.06008 -0.02752
 N33 N 0.94310 -0.08608 -0.03461
 N34 N 0.96123 -0.03558 -0.05034
 N35 N 0.93999 -0.04427 -0.07340
 N36 N 1.03261 -0.05633 -0.03018
 N37 N 1.05432 -0.08017 -0.03893
 Mn38 Mn 0.99450 0.00336 -0.05223
 C39 C 1.06560 -0.06912 -0.06918
 C40 C 0.92849 -0.07562 -0.06306
 N41 N 0.96355 -0.03630 0.06709
 N42 N 0.94067 -0.04336 0.09004
 N43 N 1.03407 -0.05698 0.04177
 N44 N 1.05582 -0.08119 0.04912
 N45 N 1.03301 -0.03346 0.06512
 N46 N 1.05367 -0.04136 0.08908
 N47 N 0.96440 -0.06052 0.04444
 N48 N 0.94219 -0.08486 0.05155
 Mn49 Mn 0.99701 0.00243 0.06626
 Mn50 Mn 0.99859 -0.05878 0.00714
 Cl51 Cl 0.99599 0.00286 0.00701
 C52 C 0.92737 -0.07362 0.07995
 C53 C 1.06821 -0.07081 0.07848
 N54 N 1.03881 0.44228 0.53685
 N55 N 1.06031 0.41752 0.54283
 N56 N 0.96997 0.46657 0.56287
 N57 N 0.94864 0.45925 0.58720
 N58 N 0.96927 0.44266 0.53996
 N59 N 0.94757 0.41820 0.54832
 N60 N 1.03947 0.46559 0.56031
 N61 N 1.06132 0.45715 0.58302
 C62 C 1.07448 0.42732 0.57151
 C63 C 0.93455 0.42922 0.57765
 N64 N 0.97081 0.56553 0.54084
 N65 N 0.94958 0.58988 0.54942
 N66 N 1.04062 0.53996 0.56056
 N67 N 1.06367 0.54558 0.58268
 N68 N 1.04028 0.56503 0.53825
 N69 N 1.06295 0.58865 0.54490
 N70 N 0.97104 0.54079 0.56347
 N71 N 0.94981 0.54747 0.58785
 Mn72 Mn 1.00529 0.50326 0.56203
 C73 C 0.93632 0.57799 0.57862
 C74 C 1.07764 0.57584 0.57247
 N75 N 0.96786 0.44420 0.46809
 N76 N 0.94628 0.41958 0.46154
 N77 N 1.03726 0.46806 0.44219
 N78 N 1.05913 0.46089 0.41840
 N79 N 1.03734 0.44393 0.46547
 N80 N 1.05940 0.42002 0.45837
 N81 N 0.96766 0.46839 0.44485
 N82 N 0.94583 0.46072 0.42190
 Mn83 Mn 1.00328 0.44303 0.50255
 C84 C 0.93236 0.43037 0.43291
 C85 C 1.07304 0.43100 0.42912
 N86 N 1.03872 0.56668 0.46632
 N87 N 1.05983 0.59174 0.45846
 N88 N 0.96840 0.54330 0.44568
 N89 N 0.94573 0.55097 0.42355
 N90 N 0.96939 0.56705 0.46881
 N91 N 0.94772 0.59166 0.46274
 N92 N 1.03821 0.54331 0.44282
 N93 N 1.05921 0.55195 0.41842
 Mn94 Mn 1.00479 0.56637 0.50354
 Mn95 Mn 1.00290 0.50579 0.44352
 Cl96 Cl 1.00405 0.50462 0.50285
 C97 C 1.07282 0.58207 0.42876
 C98 C 0.93280 0.58104 0.43470
 N99 N 0.55206 0.03243 0.53372
 N100 N 0.57481 0.05493 0.54285
 N101 N 0.53123 -0.04225 0.55308
 N102 N 0.53895 -0.06568 0.57575
 N103 N 0.55447 -0.04008 0.52987
 N104 N 0.57844 -0.06215 0.53596
 N105 N 0.52835 0.02999 0.55642
 N106 N 0.53438 0.05056 0.58157
 C107 C 0.56318 0.06637 0.57258
 C108 C 0.56824 -0.07826 0.56443
 N109 N 0.43719 -0.04488 0.52945
 N110 N 0.41416 -0.06847 0.53603
 N111 N 0.45709 0.02714 0.55557
 N112 N 0.44838 0.04800 0.57998
 N113 N 0.43458 0.02722 0.53238
 N114 N 0.40979 0.04764 0.54062
 N115 N 0.46006 -0.04558 0.55224
 N116 N 0.45350 -0.07000 0.57461
 Mn117 Mn 0.49414 -0.00768 0.55459
 C118 C 0.42504 -0.08435 0.56394
 C119 C 0.41899 0.06088 0.57006
 N120 N 0.55630 -0.03550 0.45827
 N121 N 0.57926 -0.05869 0.45152
 N122 N 0.53186 0.03720 0.43838
 N123 N 0.53893 0.06196 0.41640
 N124 N 0.55370 0.03697 0.46217
 N125 N 0.57595 0.06166 0.45725
 N126 N 0.53365 -0.03536 0.43524
 N127 N 0.54046 -0.05858 0.41233
 Mn128 Mn 0.55443 -0.00152 0.49598
 C129 C 0.56892 -0.07307 0.42291
 C130 C 0.56627 0.07730 0.42881
 N131 N 0.43650 0.03169 0.46056
 N132 N 0.41338 0.05497 0.45505
 N133 N 0.46213 -0.03796 0.43437
 N134 N 0.45648 -0.06031 0.41045
 N135 N 0.43933 -0.04088 0.45797
 N136 N 0.41798 -0.06560 0.45113
 N137 N 0.46049 0.03459 0.43816
 N138 N 0.45459 0.06017 0.41713
 Mn139 Mn 0.43662 -0.00672 0.49503
 Mn140 Mn 0.49703 -0.00036 0.43616
 Cl141 Cl 0.49557 -0.00405 0.49545
 C142 C 0.42525 0.07280 0.42812
 C143 C 0.42911 -0.07767 0.42158
 N144 N 0.56343 0.53381 -0.04007
 N145 N 0.58848 0.54238 -0.06002
 N146 N 0.53906 0.55563 0.02993
 N147 N 0.54650 0.57892 0.05250
 N148 N 0.56116 0.53084 0.02959
 N149 N 0.58395 0.53640 0.05199
 N150 N 0.54086 0.55815 -0.04006
 N151 N 0.54984 0.58372 -0.06044
 C152 C 0.57940 0.57322 -0.07303
 C153 C 0.57437 0.56625 0.06639
 N154 N 0.44417 0.53237 0.02814
 N155 N 0.41938 0.53953 0.04862
 N156 N 0.46940 0.55913 -0.04071
 N157 N 0.46246 0.58495 -0.06116
 N158 N 0.44618 0.53523 -0.04151
 N159 N 0.42284 0.54426 -0.06238
 N160 N 0.46716 0.55651 0.02916
 N161 N 0.45838 0.58081 0.05042
 Mn162 Mn 0.50414 0.55770 -0.00538
 C163 C 0.42870 0.56952 0.06275
 C164 C 0.43355 0.57509 -0.07487
 N165 N 0.56024 0.45666 0.02744
 N166 N 0.58392 0.44786 0.04789
 N167 N 0.53898 0.43530 -0.04304
 N168 N 0.54717 0.41112 -0.06463
 N169 N 0.56226 0.45914 -0.04202
 N170 N 0.58700 0.45154 -0.06247
 N171 N 0.53703 0.43273 0.02713
 N172 N 0.54425 0.40712 0.04782
 Mn173 Mn 0.56192 0.49513 -0.00630
 C174 C 0.57337 0.41732 0.06089
 C175 C 0.57700 0.42191 -0.07688
 N176 N 0.44538 0.46080 -0.04344
 N177 N 0.42308 0.45542 -0.06638
 N178 N 0.46550 0.43353 0.02627
 N179 N 0.45829 0.40980 0.04924
 N180 N 0.44328 0.45817 0.02658
 N181 N 0.42057 0.45212 0.04993
 N182 N 0.46748 0.43602 -0.04352
 N183 N 0.46058 0.41291 -0.06638
 Mn184 Mn 0.44453 0.49659 -0.00759
 Mn185 Mn 0.50223 0.43402 -0.00828
 Cl186 Cl 0.50320 0.49589 -0.00691
 C187 C 0.43303 0.42565 -0.08073
 C188 C 0.43030 0.42197 0.06400
 C189 C 1.20039 0.20904 0.24718
 C190 C 1.17802 0.18884 0.22967
 C191 C 1.17798 0.18992 0.19494
 C192 C 1.19977 0.21259 0.17786
 C193 C 1.22237 0.23266 0.19532
 C194 C 1.22441 0.22986 0.23035
 N195 N 1.15596 0.16745 0.17769
 N196 N 1.15319 0.16861 0.14621
 C197 C 1.13173 0.14559 0.12893
 C198 C 1.12560 0.15198 0.09529
 C199 C 1.10420 0.13050 0.07788
 C200 C 1.08897 0.10187 0.09380
 C201 C 1.09577 0.09494 0.12737
 C202 C 1.11683 0.11676 0.14490
 H203 H 1.19987 0.20745 0.27411
 H204 H 1.16086 0.17201 0.24321
 H205 H 1.19954 0.21464 0.15098
 H206 H 1.23792 0.25034 0.18101
 H207 H 1.13707 0.17399 0.08267
 H208 H 1.09947 0.13637 0.05199
 H209 H 1.08430 0.07309 0.14025
 H210 H 1.12142 0.11113 0.17084
 C211 C 1.20144 0.74875 0.71300
 C212 C 1.18276 0.73166 0.68929
 C213 C 1.18703 0.69634 0.68400
 C214 C 1.21087 0.67834 0.70221
 C215 C 1.22982 0.69545 0.72574
 C216 C 1.22459 0.73082 0.73268
 N217 N 1.16692 0.67938 0.66007
 N218 N 1.16716 0.64669 0.65673
 C219 C 1.14667 0.62939 0.63339
 C220 C 1.14315 0.59346 0.63593
 C221 C 1.12130 0.57595 0.61543
 C222 C 1.10303 0.59412 0.59158
 C223 C 1.10766 0.63002 0.58798
 C224 C 1.12914 0.64763 0.60895
 H225 H 1.19780 0.77627 0.71609
 H226 H 1.16484 0.74599 0.67501
 H227 H 1.21527 0.65115 0.69787
 H228 H 1.24909 0.68081 0.73758
 H229 H 1.15661 0.57914 0.65458
 H230 H 1.11828 0.54824 0.61860
 H231 H 1.09379 0.64460 0.56983
 H232 H 1.13167 0.67543 0.60641
 C233 C 0.72778 0.22643 0.68356
 C234 C 0.70701 0.20859 0.66229
 C235 C 0.68385 0.18480 0.67494
 C236 C 0.68131 0.17914 0.70945
 C237 C 0.70242 0.19664 0.73083
 C238 C 0.72698 0.21978 0.71830
 N239 N 0.66347 0.16669 0.65210
 N240 N 0.63877 0.14831 0.66156
 C241 C 0.61931 0.12952 0.63837
 C242 C 0.59020 0.11315 0.64966
 C243 C 0.57138 0.09346 0.62795
 C244 C 0.58171 0.08946 0.59463
 C245 C 0.61069 0.10630 0.58318
 C246 C 0.62931 0.12632 0.60484
 H247 H 0.74378 0.24590 0.67231
 H248 H 0.70862 0.21374 0.63576
 H249 H 0.66323 0.16109 0.71986
 H250 H 0.69983 0.19195 0.75737
 H251 H 0.58226 0.11542 0.67542
 H252 H 0.54917 0.08069 0.63748
 H253 H 0.61918 0.10365 0.55762
 H254 H 0.65180 0.13869 0.59554
 C255 C 0.69827 0.73822 0.21048
 C256 C 0.67694 0.72121 0.18904
 C257 C 0.67983 0.68568 0.18401
 C258 C 0.70522 0.66747 0.19980
 C259 C 0.72657 0.68444 0.22131
 C260 C 0.72236 0.71986 0.22856
 N261 N 0.65700 0.66883 0.16254
 N262 N 0.65854 0.63655 0.15688
 C263 C 0.63598 0.61931 0.13545
 C264 C 0.64149 0.58453 0.12812
 C265 C 0.62096 0.56715 0.10622
 C266 C 0.59426 0.58425 0.09144
 C267 C 0.58810 0.61892 0.09952
 C268 C 0.60891 0.63643 0.12128
 H269 H 0.69549 0.76584 0.21364
 H270 H 0.65803 0.73578 0.17637
 H271 H 0.70871 0.64014 0.19542
 H272 H 0.74653 0.66962 0.23177
 H273 H 0.66217 0.57104 0.13898
 H274 H 0.62624 0.54040 0.10055
 H275 H 0.56773 0.63272 0.08843
 H276 H 0.60406 0.66330 0.12674
 C277 C 0.79078 -0.25500 0.20764
 C278 C 0.81103 -0.23636 0.18523
 C279 C 0.80824 -0.20046 0.18242
 C280 C 0.78398 -0.18344 0.20146
 C281 C 0.76338 -0.20209 0.22362
 C282 C 0.76737 -0.23813 0.22829
 N283 N 0.83044 -0.18195 0.16030
 N284 N 0.83252 -0.14908 0.16016
 C285 C 0.85507 -0.13045 0.13852
 C286 C 0.86043 -0.09522 0.14403
 C287 C 0.88365 -0.07664 0.12468
 C288 C 0.90155 -0.09296 0.09905
 C289 C 0.89542 -0.12809 0.09281
 C290 C 0.87253 -0.14681 0.11255
 H291 H 0.79365 -0.28280 0.20926
 H292 H 0.82926 -0.24991 0.17028
 H293 H 0.78071 -0.15575 0.19901
 H294 H 0.74416 -0.18804 0.23662
 H295 H 0.84710 -0.08231 0.16390
 H296 H 0.88777 -0.04955 0.12993
 H297 H 0.90890 -0.14129 0.07322
 H298 H 0.86866 -0.17401 0.10771
 C299 C 0.79888 0.24508 0.70315
 C300 C 0.82167 0.26404 0.68371
 C301 C 0.82289 0.30005 0.68569
 C302 C 0.80214 0.31687 0.70868
 C303 C 0.77918 0.29796 0.72808
 C304 C 0.77579 0.26180 0.72430
 N305 N 0.84474 0.31891 0.66354
 N306 N 0.84757 0.35168 0.66457
 C307 C 0.86870 0.37067 0.64186
 C308 C 0.87449 0.40577 0.64761
 C309 C 0.89552 0.42494 0.62638
 C310 C 0.91076 0.40933 0.59870
 C311 C 0.90428 0.37429 0.59242
 C312 C 0.88354 0.35500 0.61396
 H313 H 0.79812 0.21723 0.70053
 H314 H 0.83799 0.25068 0.66654
 H315 H 0.80330 0.34468 0.71135
 H316 H 0.76419 0.31209 0.74575
 H317 H 0.86303 0.41817 0.66890
 H318 H 0.90002 0.45194 0.63174
 H319 H 0.91577 0.36162 0.57131
 H320 H 0.87918 0.32794 0.60886
 C321 C 0.26125 -0.18983 0.72788
 C322 C 0.27928 -0.17050 0.70415
 C323 C 0.30418 -0.18597 0.68501
 C324 C 0.31026 -0.22141 0.68896
 C325 C 0.29173 -0.24098 0.71203
 C326 C 0.26777 -0.22539 0.73300
 N327 N 0.32261 -0.16534 0.66137
 N328 N 0.35083 -0.17464 0.65023
 C329 C 0.36894 -0.15395 0.62641
 C330 C 0.40353 -0.15567 0.62550
 C331 C 0.42192 -0.13345 0.60455
 C332 C 0.40580 -0.11011 0.58341
 C333 C 0.37106 -0.10972 0.58303
 C334 C 0.35272 -0.13118 0.60473
 H335 H 0.24163 -0.17688 0.74138
 H336 H 0.27389 -0.14329 0.70072
 H337 H 0.32886 -0.23409 0.67375
 H338 H 0.29623 -0.26853 0.71374
 H339 H 0.41624 -0.17324 0.64203
 H340 H 0.44872 -0.13417 0.60515
 H341 H 0.35814 -0.09179 0.56702
 H342 H 0.32595 -0.12979 0.60485
 C343 C 0.29631 0.25018 0.20669
 C344 C 0.32014 0.26641 0.18614
 C345 C 0.32490 0.30219 0.18741
 C346 C 0.30657 0.32142 0.21062
 C347 C 0.28299 0.30524 0.23140
 C348 C 0.27608 0.26947 0.22870
 N349 N 0.34789 0.31858 0.16458
 N350 N 0.34935 0.35136 0.16148
 C351 C 0.37139 0.36861 0.13838
 C352 C 0.36711 0.40400 0.13251
 C353 C 0.38666 0.42143 0.10865
 C354 C 0.41125 0.40375 0.09060
 C355 C 0.41634 0.36843 0.09727
 C356 C 0.39636 0.35086 0.12084
 H357 H 0.29306 0.22243 0.20498
 H358 H 0.33455 0.25113 0.16877
 H359 H 0.31055 0.34901 0.21284
 H360 H 0.27069 0.32112 0.24971
 H361 H 0.34800 0.41794 0.14593
 H362 H 0.38233 0.44869 0.10412
 H363 H 0.43513 0.35423 0.08365
 H364 H 0.40019 0.32349 0.12511
 C365 C 0.77113 0.17903 -0.23932
 C366 C 0.79001 0.15804 -0.21850
 C367 C 0.80783 0.17236 -0.19251
 C368 C 0.80758 0.20832 -0.18825
 C369 C 0.78905 0.22941 -0.20928
 C370 C 0.76909 0.21514 -0.23428
 N371 N 0.82652 0.14995 -0.17138
 N372 N 0.84007 0.16066 -0.14502
 C373 C 0.85932 0.13849 -0.12418
 C374 C 0.87162 0.15152 -0.09448
 C375 C 0.89162 0.13107 -0.07422
 C376 C 0.89987 0.09723 -0.08355
 C377 C 0.88702 0.08394 -0.11310
 C378 C 0.86684 0.10435 -0.13323
 H379 H 0.75883 0.16660 -0.25964
 H380 H 0.79080 0.13042 -0.22267
 H381 H 0.82188 0.22018 -0.16887
 H382 H 0.78968 0.25713 -0.20563
 H383 H 0.86600 0.17776 -0.08721
 H384 H 0.90120 0.14204 -0.05164
 H385 H 0.89295 0.05794 -0.12091
 H386 H 0.85763 0.09366 -0.15608
 C387 C 0.75043 0.68884 0.29335
 C388 C 0.76846 0.66781 0.31493
 C389 C 0.80188 0.67479 0.32053
 C390 C 0.81716 0.70300 0.30415
 C391 C 0.79948 0.72340 0.28183
 C392 C 0.76595 0.71601 0.27499
 N393 N 0.81998 0.65298 0.34271
 N394 N 0.84552 0.66411 0.35740
 C395 C 0.86528 0.64247 0.37817
 C396 C 0.88606 0.65796 0.40123
 C397 C 0.90712 0.63778 0.42056
 C398 C 0.90842 0.60180 0.41635
 C399 C 0.88745 0.58620 0.39330
 C400 C 0.86571 0.60635 0.37460
 H401 H 0.72425 0.68365 0.29066
 H402 H 0.75618 0.64650 0.32790
 H403 H 0.84290 0.70918 0.30847
 H404 H 0.81216 0.74545 0.27064
 H405 H 0.88607 0.68578 0.40406
 H406 H 0.92320 0.65047 0.43798
 H407 H 0.88804 0.55849 0.38962
 H408 H 0.85007 0.59390 0.35665
 C409 C 0.26948 0.18969 0.27162
 C410 C 0.28807 0.16906 0.29289
 C411 C 0.30986 0.18401 0.31515
 C412 C 0.31322 0.22010 0.31587
 C413 C 0.29392 0.24091 0.29525
 C414 C 0.27069 0.22621 0.27349
 N415 N 0.32809 0.16185 0.33677
 N416 N 0.35497 0.17121 0.35011
 C417 C 0.37211 0.14825 0.37192
 C418 C 0.40667 0.14999 0.37322
 C419 C 0.42407 0.12566 0.39196
 C420 C 0.40695 0.10008 0.41058
 C421 C 0.37221 0.09948 0.41061
 C422 C 0.35490 0.12309 0.39103
 H423 H 0.25465 0.17648 0.25362
 H424 H 0.28599 0.14116 0.29154
 H425 H 0.33025 0.23220 0.33274
 H426 H 0.29669 0.26874 0.29659
 H427 H 0.42017 0.16932 0.35865
 H428 H 0.45089 0.12663 0.39170
 H429 H 0.35852 0.07991 0.42471
 H430 H 0.32813 0.12158 0.39058
 C431 C 0.25285 0.70127 -0.20164
 C432 C 0.27166 0.67935 -0.18164
 C433 C 0.30583 0.68439 -0.17923
 C434 C 0.32086 0.71242 -0.19618
 C435 C 0.30217 0.73419 -0.21629
 C436 C 0.26802 0.72794 -0.22094
 N437 N 0.32474 0.66089 -0.15948
 N438 N 0.35569 0.66512 -0.15546
 C439 C 0.37501 0.64162 -0.13617
 C440 C 0.40795 0.65020 -0.12963
 C441 C 0.42727 0.62830 -0.11013
 C442 C 0.41393 0.59724 -0.09715
 C443 C 0.38108 0.58826 -0.10440
 C444 C 0.36170 0.61034 -0.12363
 H445 H 0.22638 0.69692 -0.20278
 H446 H 0.25959 0.65833 -0.16803
 H447 H 0.34709 0.71756 -0.19389
 H448 H 0.31475 0.75613 -0.22774
 H449 H 0.41851 0.67417 -0.13930
 H450 H 0.45252 0.63582 -0.10497
 H451 H 0.37015 0.56449 -0.09469
 H452 H 0.33635 0.60305 -0.12856
 C453 C 1.24289 -0.20398 -0.19673
 C454 C 1.22560 -0.18392 -0.17358
 C455 C 1.19110 -0.18573 -0.17134
 C456 C 1.17410 -0.20931 -0.19115
 C457 C 1.19142 -0.23031 -0.21349
 C458 C 1.22610 -0.22683 -0.21797
 N459 N 1.17368 -0.16349 -0.14890
 N460 N 1.14502 -0.15224 -0.15574
 C461 C 1.12653 -0.13069 -0.13354
 C462 C 1.10284 -0.10841 -0.14671
 C463 C 1.08385 -0.08749 -0.12575
 C464 C 1.08750 -0.08947 -0.09111
 C465 C 1.11108 -0.11205 -0.07781
 C466 C 1.13087 -0.13220 -0.09894
 H467 H 1.26957 -0.20134 -0.19844
 H468 H 1.23905 -0.16621 -0.15803
 H469 H 1.14744 -0.21190 -0.18888
 H470 H 1.17732 -0.24923 -0.22692
 H471 H 1.09920 -0.10716 -0.17332
 H472 H 1.06561 -0.07052 -0.13658
 H473 H 1.11422 -0.11404 -0.05115
 H474 H 1.14887 -0.14954 -0.08829
 C475 C 1.20969 0.30118 0.25471
 C476 C 1.18969 0.32441 0.27218
 C477 C 1.18686 0.32230 0.30682
 C478 C 1.20385 0.29613 0.32383
 C479 C 1.22394 0.27295 0.30646
 C480 C 1.22833 0.27578 0.27154
 N481 N 1.16612 0.34640 0.32412
 N482 N 1.16182 0.34467 0.35554
 C483 C 1.14096 0.36804 0.37353
 C484 C 1.13496 0.36164 0.40740
 C485 C 1.11341 0.38264 0.42556
 C486 C 1.09770 0.41074 0.41014
 C487 C 1.10449 0.41788 0.37633
 C488 C 1.12587 0.39655 0.35805
 H489 H 1.21111 0.30332 0.22783
 H490 H 1.17624 0.34404 0.25865
 H491 H 1.20139 0.29336 0.35060
 H492 H 1.23533 0.25256 0.32073
 H493 H 1.14653 0.33983 0.41960
 H494 H 1.10875 0.37660 0.45161
 H495 H 1.09265 0.43935 0.36386
 H496 H 1.13029 0.40208 0.33188
 C497 C 0.74184 -0.21352 0.29720
 C498 C 0.72450 -0.19293 0.31988
 C499 C 0.69023 -0.19652 0.32393
 C500 C 0.67366 -0.22232 0.30636
 C501 C 0.69099 -0.24325 0.28405
 C502 C 0.72518 -0.23788 0.27744
 N503 N 0.67272 -0.17342 0.34553
 N504 N 0.64129 -0.17122 0.34535
 C505 C 0.62337 -0.14784 0.36626
 C506 C 0.58992 -0.14186 0.35995
 C507 C 0.57209 -0.11776 0.37860
 C508 C 0.58737 -0.09968 0.40431
 C509 C 0.62069 -0.10646 0.41133
 C510 C 0.63867 -0.13018 0.39227
 H511 H 0.76834 -0.20986 0.29445
 H512 H 0.73773 -0.17363 0.33384
 H513 H 0.64729 -0.22645 0.31001
 H514 H 0.67731 -0.26369 0.27226
 H515 H 0.57787 -0.15537 0.34001
 H516 H 0.54640 -0.11314 0.37279
 H517 H 0.63305 -0.09285 0.43101
 H518 H 0.66448 -0.13454 0.39771
 C519 C 0.70431 0.28642 -0.25435
 C520 C 0.68131 0.30708 -0.23755
 C521 C 0.67776 0.30465 -0.20300
 C522 C 0.69606 0.27994 -0.18555
 C523 C 0.71822 0.25842 -0.20239
 C524 C 0.72415 0.26237 -0.23704
 N525 N 0.65557 0.32738 -0.18589
 N526 N 0.66205 0.33785 -0.15681
 C527 C 0.64019 0.35971 -0.13832
 C528 C 0.65355 0.38157 -0.11450
 C529 C 0.63295 0.40264 -0.09534
 C530 C 0.59845 0.40121 -0.09890
 C531 C 0.58493 0.37901 -0.12258
 C532 C 0.60573 0.35873 -0.14259
 H533 H 0.70701 0.28948 -0.28108
 H534 H 0.66690 0.32567 -0.25139
 H535 H 0.69269 0.27686 -0.15888
 H536 H 0.73013 0.23862 -0.18784
 H537 H 0.68005 0.38235 -0.11089
 H538 H 0.64393 0.41931 -0.07702
 H539 H 0.55837 0.37747 -0.12564
 H540 H 0.59496 0.34167 -0.16068
 C541 C 1.20508 0.20345 -0.24578
 C542 C 1.18276 0.18271 -0.22741
 C543 C 1.18075 0.18514 -0.19279
 C544 C 1.20081 0.20929 -0.17673
 C545 C 1.22331 0.22987 -0.19500
 C546 C 1.22706 0.22626 -0.22986
 N547 N 1.15815 0.16300 -0.17453
 N548 N 1.15365 0.16571 -0.14324
 C549 C 1.13144 0.14351 -0.12461
 C550 C 1.12462 0.15101 -0.09122
 C551 C 1.10257 0.13037 -0.07245
 C552 C 1.08726 0.10153 -0.08673
 C553 C 1.09462 0.09358 -0.12009
 C554 C 1.11642 0.11451 -0.13897
 H555 H 1.20579 0.20116 -0.27262
 H556 H 1.16694 0.16470 -0.24022
 H557 H 1.19909 0.21234 -0.15001
 H558 H 1.23721 0.24886 -0.18147
 H559 H 1.13614 0.17319 -0.07985
 H560 H 1.09742 0.13704 -0.04678
 H561 H 1.08313 0.07154 -0.13173
 H562 H 1.12148 0.10807 -0.16470
 C563 C 1.24290 0.69101 0.26680
 C564 C 1.22355 0.66953 0.28756
 C565 C 1.19796 0.68305 0.30707
 C566 C 1.19232 0.71881 0.30622
 C567 C 1.21127 0.74039 0.28503
 C568 C 1.23604 0.72694 0.26323
 N569 N 1.17821 0.65989 0.32741
 N570 N 1.15833 0.67061 0.34992
 C571 C 1.13796 0.64748 0.36966
 C572 C 1.12172 0.66025 0.39794
 C573 C 1.10116 0.63870 0.41747
 C574 C 1.09595 0.60401 0.40868
 C575 C 1.11223 0.59114 0.38025
 C576 C 1.13329 0.61263 0.36099
 H577 H 1.26357 0.67890 0.25427
 H578 H 1.22891 0.64213 0.28887
 H579 H 1.17303 0.73007 0.32162
 H580 H 1.20615 0.76788 0.28507
 H581 H 1.12502 0.68703 0.40486
 H582 H 1.08885 0.64943 0.43915
 H583 H 1.10864 0.56453 0.37291
 H584 H 1.14546 0.60221 0.33910
 C585 C 0.70725 0.21132 0.26066
 C586 C 0.68419 0.19089 0.27821
 C587 C 0.67874 0.19574 0.31220
 C588 C 0.69631 0.22177 0.32850
 C589 C 0.71918 0.24259 0.31089
 C590 C 0.72594 0.23708 0.27669
 N591 N 0.65504 0.17407 0.32939
 N592 N 0.65150 0.17413 0.36090
 C593 C 0.62801 0.15197 0.37780
 C594 C 0.63058 0.14696 0.41216
 C595 C 0.60984 0.12327 0.42894
 C596 C 0.58575 0.10472 0.41161
 C597 C 0.58213 0.11094 0.37739
 C598 C 0.60330 0.13420 0.36051
 H599 H 0.71046 0.20717 0.23419
 H600 H 0.67046 0.17119 0.26526
 H601 H 0.69187 0.22653 0.35469
 H602 H 0.73057 0.26351 0.32417
 H603 H 0.64942 0.16060 0.42575
 H604 H 0.61302 0.11903 0.45537
 H605 H 0.56378 0.09692 0.36348
 H606 H 0.60069 0.13790 0.33395
 C607 C 0.70891 0.71289 -0.24863
 C608 C 0.68620 0.69174 -0.23134
 C609 C 0.68349 0.69331 -0.19676
 C610 C 0.70265 0.71738 -0.17963
 C611 C 0.72457 0.73944 -0.19696
 C612 C 0.72926 0.73667 -0.23179
 N613 N 0.66097 0.67054 -0.17940
 N614 N 0.66702 0.65981 -0.15013
 C615 C 0.64454 0.63780 -0.13186
 C616 C 0.65717 0.61499 -0.10811
 C617 C 0.63590 0.59325 -0.08970
 C618 C 0.60153 0.59499 -0.09395
 C619 C 0.58874 0.61828 -0.11739
 C620 C 0.61019 0.63923 -0.13667
 H621 H 0.71070 0.71073 -0.27544
 H622 H 0.67115 0.67361 -0.24488
 H623 H 0.69998 0.71971 -0.15290
 H624 H 0.73705 0.75890 -0.18272
 H625 H 0.68359 0.61384 -0.10413
 H626 H 0.64627 0.57570 -0.07150
 H627 H 0.56228 0.62005 -0.12093
 H628 H 0.60002 0.65703 -0.15474
 C629 C 0.77659 -0.17927 -0.23591
 C630 C 0.79624 -0.15878 -0.21566
 C631 C 0.81467 -0.17371 -0.19026
 C632 C 0.81449 -0.20981 -0.18622
 C633 C 0.79515 -0.23043 -0.20674
 C634 C 0.77430 -0.21549 -0.23079
 N635 N 0.83357 -0.15160 -0.16935
 N636 N 0.84792 -0.16263 -0.14339
 C637 C 0.86691 -0.14010 -0.12291
 C638 C 0.88061 -0.15327 -0.09366
 C639 C 0.89997 -0.13211 -0.07363
 C640 C 0.90612 -0.09742 -0.08276
 C641 C 0.89195 -0.08413 -0.11186
 C642 C 0.87246 -0.10522 -0.13174
 H643 H 0.76368 -0.16636 -0.25576
 H644 H 0.79701 -0.13104 -0.21970
 H645 H 0.82931 -0.22208 -0.16733
 H646 H 0.79570 -0.25825 -0.20327
 H647 H 0.87648 -0.18007 -0.08654
 H648 H 0.91064 -0.14307 -0.05138
 H649 H 0.89624 -0.05749 -0.11950
 H650 H 0.86213 -0.09438 -0.15420
 C651 C 0.77217 0.32202 0.26880
 C652 C 0.79221 0.34379 0.28744
 C653 C 0.81087 0.33054 0.31350
 C654 C 0.81007 0.29480 0.32017
 C655 C 0.79033 0.27289 0.30131
 C656 C 0.76981 0.28618 0.27616
 N657 N 0.83091 0.35374 0.33225
 N658 N 0.84549 0.34407 0.35854
 C659 C 0.86600 0.36687 0.37720
 C660 C 0.87895 0.35487 0.40719
 C661 C 0.89986 0.37588 0.42564
 C662 C 0.90847 0.40930 0.41421
 C663 C 0.89514 0.42156 0.38428
 C664 C 0.87397 0.40054 0.36592
 H665 H 0.75921 0.33354 0.24822
 H666 H 0.79330 0.37117 0.28145
 H667 H 0.82494 0.28375 0.33970
 H668 H 0.79069 0.24537 0.30661
 H669 H 0.87299 0.32901 0.41616
 H670 H 0.90975 0.36567 0.44858
 H671 H 0.90136 0.44720 0.37488
 H672 H 0.86427 0.41039 0.34276
 C673 C 0.26810 -0.18980 0.26641
 C674 C 0.28765 -0.16906 0.28653
 C675 C 0.31133 -0.18377 0.30708
 C676 C 0.31451 -0.21981 0.30841
 C677 C 0.29561 -0.24063 0.28776
 C678 C 0.27318 -0.22609 0.26467
 N679 N 0.33251 -0.16151 0.32548
 N680 N 0.34866 -0.17218 0.35043
 C681 C 0.37065 -0.14965 0.36751
 C682 C 0.37478 -0.15413 0.40176
 C683 C 0.39436 -0.13095 0.41933
 C684 C 0.41114 -0.10384 0.40256
 C685 C 0.40835 -0.10039 0.36795
 C686 C 0.38781 -0.12285 0.35057
 H687 H 0.24936 -0.17678 0.25221
 H688 H 0.28428 -0.14128 0.28613
 H689 H 0.33240 -0.23181 0.32454
 H690 H 0.29958 -0.26832 0.28866
 H691 H 0.36182 -0.17481 0.41502
 H692 H 0.39623 -0.13401 0.44606
 H693 H 0.42093 -0.07949 0.35461
 H694 H 0.38520 -0.11928 0.32399
 C695 C 0.29674 0.25115 -0.20763
 C696 C 0.32025 0.26844 -0.18882
 C697 C 0.32404 0.30427 -0.19174
 C698 C 0.30459 0.32263 -0.21438
 C699 C 0.28127 0.30540 -0.23343
 C700 C 0.27590 0.26938 -0.22955
 N701 N 0.34763 0.32147 -0.17143
 N702 N 0.34949 0.35431 -0.17047
 C703 C 0.37245 0.37195 -0.14985
 C704 C 0.36868 0.40751 -0.14524
 C705 C 0.38897 0.42518 -0.12332
 C706 C 0.41378 0.40753 -0.10607
 C707 C 0.41850 0.37209 -0.11175
 C708 C 0.39779 0.35432 -0.13332
 H709 H 0.29459 0.22331 -0.20502
 H710 H 0.33546 0.25388 -0.17181
 H711 H 0.30771 0.35030 -0.21772
 H712 H 0.26829 0.32060 -0.25166
 H713 H 0.34930 0.42136 -0.15794
 H714 H 0.38494 0.45253 -0.11948
 H715 H 0.43742 0.35791 -0.09871
 H716 H 0.40127 0.32683 -0.13671
 C717 C 1.25028 -0.20531 0.19501
 C718 C 1.23185 -0.18566 0.17269
 C719 C 1.19747 -0.18886 0.17226
 C720 C 1.18180 -0.21371 0.19279
 C721 C 1.20026 -0.23444 0.21429
 C722 C 1.23494 -0.22934 0.21765
 N723 N 1.17887 -0.16664 0.15093
 N724 N 1.15026 -0.15604 0.15965
 C725 C 1.13086 -0.13420 0.13870
 C726 C 1.10749 -0.11232 0.15345
 C727 C 1.08793 -0.09085 0.13380
 C728 C 1.09063 -0.09183 0.09895
 C729 C 1.11382 -0.11408 0.08407
 C730 C 1.13420 -0.13476 0.10384
 H731 H 1.27680 -0.20109 0.19522
 H732 H 1.24434 -0.16701 0.15646
 H733 H 1.15526 -0.21752 0.19174
 H734 H 1.18678 -0.25440 0.22785
 H735 H 1.10462 -0.11176 0.18028
 H736 H 1.07001 -0.07417 0.14586
 H737 H 1.11623 -0.11533 0.05723
 H738 H 1.15195 -0.15174 0.09197
 C739 C 1.20855 0.29696 0.74476
 C740 C 1.18797 0.31922 0.72707
 C741 C 1.18610 0.31704 0.69249
 C742 C 1.20449 0.29168 0.67579
 C743 C 1.22523 0.26953 0.69337
 C744 C 1.22880 0.27267 0.72816
 N745 N 1.16525 0.34063 0.67495
 N746 N 1.16124 0.33864 0.64369
 C747 C 1.14058 0.36212 0.62583
 C748 C 1.13395 0.35545 0.59247
 C749 C 1.11289 0.37703 0.57460
 C750 C 1.09841 0.40593 0.58981
 C751 C 1.10580 0.41317 0.62305
 C752 C 1.12660 0.39132 0.64102
 H753 H 1.20933 0.29919 0.77157
 H754 H 1.17343 0.33823 0.74036
 H755 H 1.20283 0.28889 0.64910
 H756 H 1.23798 0.24980 0.67939
 H757 H 1.14470 0.33311 0.58047
 H758 H 1.10770 0.37090 0.54898
 H759 H 1.09494 0.43526 0.63538
 H760 H 1.13156 0.39712 0.66675
 C761 C 0.70543 -0.19607 0.74115
 C762 C 0.68181 -0.17833 0.72275
 C763 C 0.68026 -0.18255 0.68837
 C764 C 0.70220 -0.20533 0.67255
 C765 C 0.72563 -0.22337 0.69090
 C766 C 0.72857 -0.21822 0.72553
 N767 N 0.65614 -0.16360 0.67009
 N768 N 0.65602 -0.16339 0.63843
 C769 C 0.63225 -0.14420 0.61997
 C770 C 0.63769 -0.13906 0.58581
 C771 C 0.61634 -0.11826 0.56748
 C772 C 0.58885 -0.10280 0.58307
 C773 C 0.58259 -0.10920 0.61708
 C774 C 0.60428 -0.12955 0.63550
 H775 H 0.70574 -0.19257 0.76784
 H776 H 0.66467 -0.16121 0.73533
 H777 H 0.70087 -0.20970 0.64605
 H778 H 0.74056 -0.24198 0.67770
 H779 H 0.65909 -0.15035 0.57358
 H780 H 0.62162 -0.11383 0.54126
 H781 H 0.56159 -0.09753 0.62967
 H782 H 0.59946 -0.13343 0.66186
 C783 C 0.70064 0.30255 0.24735
 C784 C 0.67679 0.31911 0.22823
 C785 C 0.67604 0.31413 0.19391
 C786 C 0.69847 0.29120 0.17904
 C787 C 0.72176 0.27395 0.19818
 C788 C 0.72436 0.28039 0.23260
 N789 N 0.65277 0.33286 0.17440
 N790 N 0.65846 0.33854 0.14360
 C791 C 0.63611 0.35713 0.12302
 C792 C 0.64899 0.37461 0.09504
 C793 C 0.62835 0.39426 0.07500
 C794 C 0.59423 0.39563 0.08200
 C795 C 0.58094 0.37709 0.10937
 C796 C 0.60192 0.35831 0.13020
 H797 H 0.70071 0.30705 0.27390
 H798 H 0.65928 0.33638 0.24008
 H799 H 0.69757 0.28613 0.15263
 H800 H 0.73702 0.25508 0.18570
 H801 H 0.67527 0.37369 0.08926
 H802 H 0.63900 0.40821 0.05383
 H803 H 0.55465 0.37792 0.11507
 H804 H 0.59155 0.34460 0.15162
 C805 C 0.79503 0.25760 0.21072
 C806 C 0.81691 0.23938 0.19015
 C807 C 0.82036 0.20363 0.19398
 C808 C 0.80300 0.18652 0.21995
 C809 C 0.78105 0.20467 0.24049
 C810 C 0.77500 0.24025 0.23490
 N811 N 0.84094 0.18521 0.17084
 N812 N 0.84491 0.15263 0.17307
 C813 C 0.86471 0.13374 0.14965
 C814 C 0.87092 0.09876 0.15605
 C815 C 0.89056 0.07961 0.13408
 C816 C 0.90404 0.09512 0.10505
 C817 C 0.89717 0.13006 0.09821
 C818 C 0.87777 0.14931 0.12043
 H819 H 0.79253 0.28521 0.20675
 H820 H 0.83072 0.25308 0.17072
 H821 H 0.80607 0.15903 0.22416
 H822 H 0.76884 0.19043 0.26052
 H823 H 0.86083 0.08642 0.17837
 H824 H 0.89539 0.05271 0.13995
 H825 H 0.90732 0.14268 0.07607
 H826 H 0.87308 0.17628 0.11482
 C827 C 0.79881 0.75783 0.70301
 C828 C 0.82093 0.73991 0.68247
 C829 C 0.82384 0.70402 0.68543
 C830 C 0.80526 0.68633 0.71014
 C831 C 0.78300 0.70415 0.73059
 C832 C 0.77805 0.74010 0.72629
 N833 N 0.84548 0.68609 0.66293
 N834 N 0.84968 0.65354 0.66508
 C835 C 0.87075 0.63510 0.64249
 C836 C 0.87706 0.60016 0.64898
 C837 C 0.89803 0.58146 0.62791
 C838 C 0.91275 0.59740 0.59970
 C839 C 0.90582 0.63230 0.59275
 C840 C 0.88509 0.65110 0.61408
 H841 H 0.79696 0.78562 0.69996
 H842 H 0.83562 0.75399 0.66396
 H843 H 0.80774 0.65865 0.71356
 H844 H 0.76994 0.68940 0.74973
 H845 H 0.86602 0.58752 0.67069
 H846 H 0.90286 0.55458 0.63382
 H847 H 0.91690 0.64522 0.57121
 H848 H 0.88036 0.67806 0.60844
 C849 C 0.29745 0.24423 0.70453
 C850 C 0.31966 0.22591 0.68450
 C851 C 0.31944 0.18983 0.68510
 C852 C 0.29785 0.17213 0.70715
 C853 C 0.27637 0.19039 0.72806
 C854 C 0.27464 0.22690 0.72617
 N855 N 0.34146 0.17154 0.66342
 N856 N 0.33371 0.14191 0.65243
 C857 C 0.35564 0.12266 0.63148
 C858 C 0.34222 0.09886 0.60947
 C859 C 0.36293 0.07948 0.58879
 C860 C 0.39747 0.08280 0.59075
 C861 C 0.41101 0.10631 0.61320
 C862 C 0.39019 0.12656 0.63313
 H863 H 0.29788 0.27222 0.70309
 H864 H 0.33659 0.23987 0.66794
 H865 H 0.29820 0.14415 0.70873
 H866 H 0.26178 0.17550 0.74589
 H867 H 0.31563 0.09557 0.60814
 H868 H 0.35197 0.06126 0.57187
 H869 H 0.43760 0.10917 0.61511
 H870 H 0.40098 0.14464 0.65029
 C871 C 0.31390 0.74110 0.21674
 C872 C 0.33551 0.72279 0.19611
 C873 C 0.32395 0.69566 0.17693
 C874 C 0.28994 0.68811 0.17705
 C875 C 0.26808 0.70672 0.19731
 C876 C 0.27969 0.73221 0.21953
 N877 N 0.34729 0.67630 0.15757
 N878 N 0.33939 0.64818 0.14357
 C879 C 0.36270 0.62868 0.12431
 C880 C 0.35281 0.59670 0.11192
 C881 C 0.37463 0.57714 0.09262
 C882 C 0.40678 0.58943 0.08513
 C883 C 0.41689 0.62139 0.09789
 C884 C 0.39504 0.64088 0.11744
 H885 H 0.32448 0.76258 0.22991
 H886 H 0.36155 0.72966 0.19525
 H887 H 0.28024 0.66789 0.16150
 H888 H 0.24192 0.70043 0.19654
 H889 H 0.32802 0.58700 0.11713
 H890 H 0.36611 0.55261 0.08311
 H891 H 0.44150 0.63147 0.09246
 H892 H 0.40325 0.66557 0.12682
   
