data_POSCAR
  _audit_creation_date              2014-09-24
  _audit_creation_method            'ToBaCCo'
  _symmetry_space_group_name_H-M    'P1'
  _symmetry_Int_Tables_number       1
  _symmetry_cell_setting            triclinic
  loop_
  _symmetry_equiv_pos_as_xyz
 x,y,z
_cell_length_a 46.0917
_cell_length_b 46.0000
_cell_length_c 45.9555
_cell_angle_alpha 89.953400
_cell_angle_beta 89.967900
_cell_angle_gamma 89.958400
loop_
  _atom_site_label
  _atom_site_type_symbol
  _atom_site_fract_x
  _atom_site_fract_y
  _atom_site_fract_z
C1 C 0.25000 0.27201 0.22799
 C2 C 0.27171 0.27195 0.20659
 C3 C 0.29340 0.25043 0.20650
 C4 C 0.29316 0.22882 0.22818
 C5 C 0.27159 0.22860 0.24972
 C6 C 0.24993 0.25029 0.24967
 C7 C 0.22835 0.29345 0.22803
 C8 C 0.20659 0.29356 0.24951
 C9 C 0.20671 0.27185 0.27108
 C10 C 0.22822 0.25026 0.27131
 C11 C 0.22828 0.22858 0.29280
 C12 C 0.24981 0.20689 0.29301
 C13 C 0.27140 0.20709 0.27137
 H14 H 0.27151 0.28845 0.18974
 H15 H 0.31000 0.21237 0.22849
 H16 H 0.22866 0.31033 0.21156
 H17 H 0.18982 0.27154 0.28749
 H18 H 0.21134 0.22837 0.30917
 H19 H 0.28829 0.19068 0.27159
 C20 C 0.74985 -0.27180 0.22820
 C21 C 0.72812 -0.27179 0.20681
 C22 C 0.70615 -0.25029 0.20636
 C23 C 0.70670 -0.22867 0.22824
 C24 C 0.72827 -0.22850 0.24976
 C25 C 0.74988 -0.25017 0.24979
 C26 C 0.77155 -0.29322 0.22820
 C27 C 0.79354 -0.29368 0.24967
 C28 C 0.79305 -0.27176 0.27126
 C29 C 0.77151 -0.25021 0.27144
 C30 C 0.77144 -0.22851 0.29288
 C31 C 0.74993 -0.20682 0.29309
 C32 C 0.72840 -0.20702 0.27143
 H33 H 0.72933 -0.28803 0.18983
 H34 H 0.68973 -0.21246 0.22955
 H35 H 0.77029 -0.31022 0.21199
 H36 H 0.81004 -0.27046 0.28744
 H37 H 0.78835 -0.22830 0.30927
 H38 H 0.71151 -0.19060 0.27165
 C39 C 0.75026 0.27221 0.77163
 C40 C 0.72858 0.27219 0.79309
 C41 C 0.70667 0.25065 0.79363
 C42 C 0.70725 0.22902 0.77177
 C43 C 0.72877 0.22886 0.75018
 C44 C 0.75030 0.25057 0.75005
 C45 C 0.77190 0.29367 0.77153
 C46 C 0.79385 0.29413 0.74999
 C47 C 0.79337 0.27220 0.72843
 C48 C 0.77189 0.25061 0.72834
 C49 C 0.77184 0.22889 0.70691
 C50 C 0.75039 0.20717 0.70680
 C51 C 0.72890 0.20736 0.72853
 H52 H 0.72978 0.28845 0.81005
 H53 H 0.69032 0.21278 0.77053
 H54 H 0.77063 0.31068 0.78773
 H55 H 0.81033 0.27090 0.71220
 H56 H 0.78871 0.22869 0.69047
 H57 H 0.71206 0.19092 0.72839
 C58 C 0.24977 -0.27247 0.77209
 C59 C 0.27141 -0.27242 0.79357
 C60 C 0.29314 -0.25098 0.79370
 C61 C 0.29300 -0.22941 0.77199
 C62 C 0.27149 -0.22915 0.75043
 C63 C 0.24973 -0.25072 0.75052
 C64 C 0.22814 -0.29392 0.77201
 C65 C 0.20606 -0.29417 0.75062
 C66 C 0.20644 -0.27206 0.72919
 C67 C 0.22796 -0.25051 0.72904
 C68 C 0.22814 -0.22885 0.70751
 C69 C 0.24973 -0.20727 0.70724
 C70 C 0.27133 -0.20759 0.72883
 H71 H 0.27159 -0.28936 0.80998
 H72 H 0.30945 -0.21258 0.77212
 H73 H 0.22810 -0.30962 0.78955
 H74 H 0.19075 -0.27200 0.71168
 H75 H 0.21163 -0.22898 0.69072
 H76 H 0.28784 -0.19081 0.72904
 C77 C 0.75015 -0.27204 0.77206
 C78 C 0.72846 -0.27202 0.79351
 C79 C 0.70674 -0.25053 0.79368
 C80 C 0.70689 -0.22894 0.77201
 C81 C 0.72836 -0.22874 0.75038
 C82 C 0.75007 -0.25039 0.75039
 C83 C 0.77180 -0.29348 0.77198
 C84 C 0.79372 -0.29392 0.75040
 C85 C 0.79318 -0.27196 0.72881
 C86 C 0.77167 -0.25036 0.72871
 C87 C 0.77155 -0.22864 0.70726
 C88 C 0.75000 -0.20697 0.70707
 C89 C 0.72845 -0.20722 0.72874
 H90 H 0.72873 -0.28851 0.81038
 H91 H 0.69002 -0.21250 0.77174
 H92 H 0.77057 -0.31048 0.78822
 H93 H 0.81014 -0.27064 0.71257
 H94 H 0.78801 -0.22883 0.69040
 H95 H 0.71197 -0.19041 0.72900
 C96 C 0.25008 0.27186 0.77180
 C97 C 0.27177 0.27183 0.79320
 C98 C 0.29351 0.25037 0.79330
 C99 C 0.29336 0.22880 0.77162
 C100 C 0.27184 0.22856 0.75006
 C101 C 0.25009 0.25016 0.75013
 C102 C 0.22843 0.29331 0.77168
 C103 C 0.20671 0.29338 0.75019
 C104 C 0.20686 0.27164 0.72869
 C105 C 0.22836 0.25005 0.72853
 C106 C 0.22847 0.22835 0.70711
 C107 C 0.25005 0.20671 0.70691
 C108 C 0.27167 0.20701 0.72849
 H109 H 0.27193 0.28876 0.80959
 H110 H 0.30982 0.21195 0.77176
 H111 H 0.22870 0.31019 0.78811
 H112 H 0.18998 0.27130 0.71228
 H113 H 0.21195 0.22852 0.69033
 H114 H 0.28817 0.19021 0.72872
 C115 C 0.24968 -0.27202 0.22820
 C116 C 0.27142 -0.27203 0.20680
 C117 C 0.29338 -0.25055 0.20636
 C118 C 0.29281 -0.22895 0.22826
 C119 C 0.27122 -0.22877 0.24978
 C120 C 0.24963 -0.25042 0.24980
 C121 C 0.22798 -0.29342 0.22819
 C122 C 0.20597 -0.29386 0.24966
 C123 C 0.20644 -0.27196 0.27126
 C124 C 0.22798 -0.25044 0.27145
 C125 C 0.22802 -0.22876 0.29291
 C126 C 0.24952 -0.20710 0.29312
 C127 C 0.27108 -0.20730 0.27147
 H128 H 0.27023 -0.28825 0.18981
 H129 H 0.30977 -0.21276 0.22957
 H130 H 0.22926 -0.31041 0.21196
 H131 H 0.18943 -0.27065 0.28744
 H132 H 0.21110 -0.22854 0.30930
 H133 H 0.28796 -0.19091 0.27169
 C134 C 0.75064 0.27219 0.22793
 C135 C 0.72895 0.27215 0.20651
 C136 C 0.70721 0.25070 0.20645
 C137 C 0.70738 0.22916 0.22818
 C138 C 0.72890 0.22896 0.24974
 C139 C 0.75058 0.25061 0.24967
 C140 C 0.77224 0.29367 0.22797
 C141 C 0.79416 0.29414 0.24952
 C142 C 0.79367 0.27222 0.27114
 C143 C 0.77217 0.25065 0.27133
 C144 C 0.77209 0.22895 0.29282
 C145 C 0.75062 0.20724 0.29302
 C146 C 0.72908 0.20744 0.27137
 H147 H 0.72876 0.28904 0.19005
 H148 H 0.69096 0.21231 0.22808
 H149 H 0.77097 0.31064 0.21170
 H150 H 0.81063 0.27094 0.28736
 H151 H 0.78898 0.22874 0.30923
 H152 H 0.71220 0.19104 0.27159
 O153 O 0.22555 0.02812 0.47177
 O154 O 0.22558 -0.02854 0.52847
 O155 O 0.22562 0.02808 0.52845
 O156 O 0.22550 -0.02851 0.47179
 O157 O 0.27348 -0.02858 0.47170
 O158 O 0.27360 0.02801 0.52836
 O159 O 0.27356 -0.02861 0.52838
 O160 O 0.27353 0.02804 0.47168
 Cu161 Cu 0.22072 -0.00020 0.50013
 Cu162 Cu 0.27838 -0.00029 0.50002
 C163 C 0.24953 0.03764 0.46216
 C164 C 0.24957 -0.03813 0.53800
 C165 C 0.24963 0.03760 0.53797
 C166 C 0.24947 -0.03810 0.46218
 O167 O 0.77435 0.02832 0.52834
 O168 O 0.77420 -0.02828 0.47168
 O169 O 0.77438 0.02834 0.47167
 O170 O 0.77419 -0.02830 0.52836
 O171 O 0.72621 -0.02813 0.52837
 O172 O 0.72640 0.02852 0.47168
 O173 O 0.72622 -0.02811 0.47169
 O174 O 0.72637 0.02849 0.52835
 Cu175 Cu 0.77912 0.00000 0.50001
 Cu176 Cu 0.72146 0.00021 0.50003
 C177 C 0.75038 0.03796 0.53791
 C178 C 0.75019 -0.03775 0.46212
 C179 C 0.75042 0.03799 0.46211
 C180 C 0.75017 -0.03778 0.53794
 O181 O 0.47221 0.22688 0.02817
 O182 O 0.52874 0.22696 -0.02852
 O183 O 0.52872 0.22694 0.02816
 O184 O 0.47223 0.22689 -0.02850
 O185 O 0.47214 0.27497 -0.02853
 O186 O 0.52863 0.27502 0.02813
 O187 O 0.52866 0.27504 -0.02855
 O188 O 0.47212 0.27496 0.02814
 Cu189 Cu 0.50048 0.22207 -0.00017
 Cu190 Cu 0.50038 0.27985 -0.00021
 C191 C 0.46262 0.25091 0.03772
 C192 C 0.53825 0.25101 -0.03810
 C193 C 0.53821 0.25099 0.03770
 C194 C 0.46265 0.25092 -0.03808
 O195 O 0.52804 0.77302 0.02875
 O196 O 0.47156 0.77285 -0.02792
 O197 O 0.47153 0.77294 0.02875
 O198 O 0.52807 0.77294 -0.02792
 O199 O 0.52818 0.72486 -0.02781
 O200 O 0.47163 0.72486 0.02886
 O201 O 0.47166 0.72477 -0.02781
 O202 O 0.52815 0.72494 0.02886
 Cu203 Cu 0.49979 0.77779 0.00040
 Cu204 Cu 0.49992 0.72001 0.00054
 C205 C 0.53763 0.74901 0.03837
 C206 C 0.46207 0.74879 -0.03743
 C207 C 0.46204 0.74890 0.03837
 C208 C 0.53767 0.74890 -0.03743
 O209 O 0.02813 0.47208 0.22500
 O210 O -0.02844 0.52870 0.22502
 O211 O 0.02808 0.52870 0.22501
 O212 O -0.02838 0.47207 0.22502
 O213 O -0.02839 0.47202 0.27315
 O214 O 0.02807 0.52865 0.27313
 O215 O -0.02845 0.52865 0.27315
 O216 O 0.02812 0.47203 0.27312
 Cu217 Cu -0.00015 0.50039 0.22016
 Cu218 Cu -0.00016 0.50034 0.27799
 C219 C 0.03767 0.46250 0.24905
 C220 C -0.03799 0.53823 0.24909
 C221 C 0.03761 0.53823 0.24907
 C222 C -0.03791 0.46249 0.24909
 O223 O 0.02811 0.52828 0.77450
 O224 O -0.02841 0.47169 0.77433
 O225 O 0.02810 0.47166 0.77439
 O226 O -0.02841 0.52832 0.77443
 O227 O -0.02833 0.52844 0.72631
 O228 O 0.02818 0.47179 0.72627
 O229 O -0.02833 0.47182 0.72621
 O230 O 0.02819 0.52840 0.72637
 Cu231 Cu -0.00016 0.49997 0.77927
 Cu232 Cu -0.00006 0.50013 0.72143
 C233 C 0.03769 0.53789 0.75046
 C234 C -0.03791 0.46221 0.75024
 C235 C 0.03768 0.46216 0.75032
 C236 C -0.03791 0.53794 0.75038
 C237 C 0.35088 0.27676 0.15348
 C238 C 0.35967 0.25064 0.14059
 C239 C 0.34685 0.22445 0.14923
 C240 C 0.32531 0.22435 0.17067
 C241 C 0.31631 0.25050 0.18375
 C242 C 0.32934 0.27672 0.17491
 C243 C 0.38183 0.25071 0.11850
 C244 C 0.40037 0.25077 0.09999
 C245 C 0.42207 0.25083 0.07831
 C246 C 0.44059 0.25087 0.05978
 H247 H 0.36072 0.29715 0.14701
 H248 H 0.35343 0.20411 0.13934
 H249 H 0.31543 0.20388 0.17675
 H250 H 0.32313 0.29714 0.18482
 C251 C 0.65429 0.72353 0.14909
 C252 C 0.64053 0.74941 0.14118
 C253 C 0.64837 0.77538 0.15475
 C254 C 0.66988 0.77556 0.17618
 C255 C 0.68418 0.74961 0.18457
 C256 C 0.67585 0.72355 0.17047
 C257 C 0.61839 0.74931 0.11910
 C258 C 0.59985 0.74923 0.10061
 C259 C 0.57816 0.74914 0.07894
 C260 C 0.55965 0.74908 0.06042
 H261 H 0.64819 0.70321 0.13887
 H262 H 0.63801 0.79562 0.14860
 H263 H 0.67591 0.79642 0.18513
 H264 H 0.68495 0.70276 0.17656
 C265 C 0.65484 0.27679 -0.14896
 C266 C 0.64117 0.25090 -0.14099
 C267 C 0.64908 0.22493 -0.15456
 C268 C 0.67055 0.22477 -0.17605
 C269 C 0.68476 0.25074 -0.18450
 C270 C 0.67637 0.27679 -0.17039
 C271 C 0.61904 0.25097 -0.11888
 C272 C 0.60050 0.25101 -0.10037
 C273 C 0.57880 0.25104 -0.07868
 C274 C 0.56028 0.25104 -0.06015
 H275 H 0.64869 0.29711 -0.13874
 H276 H 0.63879 0.20467 -0.14837
 H277 H 0.67664 0.20391 -0.18499
 H278 H 0.68539 0.29759 -0.17653
 C279 C 0.36652 0.75469 -0.16926
 C280 C 0.35924 0.74873 -0.14030
 C281 C 0.33038 0.74285 -0.13288
 C282 C 0.30887 0.74292 -0.15433
 C283 C 0.31597 0.74890 -0.18351
 C284 C 0.34505 0.75478 -0.19074
 C285 C 0.38135 0.74870 -0.11819
 C286 C 0.39987 0.74869 -0.09968
 C287 C 0.42155 0.74870 -0.07800
 C288 C 0.44006 0.74873 -0.05948
 H289 H 0.38881 0.75919 -0.17525
 H290 H 0.32448 0.73829 -0.11051
 H291 H 0.28663 0.73867 -0.14803
 H292 H 0.35125 0.75910 -0.21306
 C293 C 0.14935 0.34677 0.22310
 C294 C 0.14050 0.35959 0.24925
 C295 C 0.15321 0.35085 0.27548
 C296 C 0.17469 0.32937 0.27560
 C297 C 0.18376 0.31636 0.24942
 C298 C 0.17084 0.32531 0.22315
 C299 C 0.11839 0.38171 0.24917
 C300 C 0.09988 0.40023 0.24911
 C301 C 0.07820 0.42192 0.24907
 C302 C 0.05969 0.44045 0.24905
 H303 H 0.13959 0.35332 0.20267
 H304 H 0.14658 0.36069 0.29585
 H305 H 0.18449 0.32322 0.29611
 H306 H 0.17708 0.31544 0.20270
 C307 C 0.13507 0.66775 0.73829
 C308 C 0.14058 0.64058 0.75067
 C309 C 0.16766 0.63490 0.76305
 C310 C 0.18919 0.65628 0.76310
 C311 C 0.18415 0.68400 0.75065
 C312 C 0.15652 0.68922 0.73822
 C313 C 0.11846 0.61851 0.75065
 C314 C 0.09992 0.60004 0.75062
 C315 C 0.07823 0.57840 0.75057
 C316 C 0.05971 0.55990 0.75053
 H317 H 0.11405 0.67247 0.72885
 H318 H 0.17225 0.61380 0.77249
 H319 H 0.21011 0.65034 0.77192
 H320 H 0.15070 0.71022 0.72940
 C321 C -0.14871 0.65468 0.27535
 C322 C -0.14092 0.64104 0.24937
 C323 C -0.15470 0.64890 0.22348
 C324 C -0.17624 0.67031 0.22350
 C325 C -0.18452 0.68449 0.24957
 C326 C -0.17020 0.67614 0.27553
 C327 C -0.11878 0.61895 0.24927
 C328 C -0.10024 0.60045 0.24920
 C329 C -0.07855 0.57878 0.24914
 C330 C -0.06003 0.56026 0.24911
 H331 H -0.13833 0.64856 0.29560
 H332 H -0.14863 0.63863 0.20315
 H333 H -0.18536 0.67637 0.20270
 H334 H -0.17619 0.68514 0.29640
 C335 C -0.15446 0.35161 0.77598
 C336 C -0.14074 0.35945 0.75004
 C337 C -0.14856 0.34579 0.72409
 C338 C -0.17001 0.32432 0.72400
 C339 C -0.18427 0.31599 0.75001
 C340 C -0.17596 0.33019 0.77604
 C341 C -0.11862 0.38153 0.75005
 C342 C -0.10010 0.40002 0.75008
 C343 C -0.07843 0.42168 0.75012
 C344 C -0.05992 0.44018 0.75017
 H345 H -0.14837 0.36189 0.79628
 H346 H -0.13823 0.35189 0.70380
 H347 H -0.17603 0.31530 0.70315
 H348 H -0.18503 0.32415 0.79688
 C349 C 0.24359 0.16958 0.36648
 C350 C 0.24963 0.14068 0.35914
 C351 C 0.25572 0.13339 0.33022
 C352 C 0.25579 0.15490 0.30870
 C353 C 0.24974 0.18402 0.31585
 C354 C 0.24364 0.19112 0.34500
 C355 C 0.24957 0.11853 0.38128
 C356 C 0.24954 0.09997 0.39982
 C357 C 0.24952 0.07826 0.42153
 C358 C 0.24952 0.05971 0.44008
 H359 H 0.23893 0.17548 0.38882
 H360 H 0.26034 0.11107 0.32428
 H361 H 0.26021 0.14869 0.28641
 H362 H 0.23926 0.21339 0.35124
 C363 C 0.75640 0.16987 0.63337
 C364 C 0.75048 0.14096 0.64079
 C365 C 0.74455 0.13366 0.66976
 C366 C 0.74451 0.15517 0.69124
 C367 C 0.75043 0.18430 0.68400
 C368 C 0.75639 0.19141 0.65482
 C369 C 0.75048 0.11881 0.61869
 C370 C 0.75047 0.10026 0.60018
 C371 C 0.75046 0.07855 0.57849
 C372 C 0.75043 0.06001 0.55997
 H373 H 0.76094 0.17578 0.61100
 H374 H 0.74002 0.11134 0.67575
 H375 H 0.74022 0.14896 0.71356
 H376 H 0.76066 0.21369 0.64852
 C377 C 0.27578 -0.15407 0.64968
 C378 C 0.24968 -0.14107 0.64111
 C379 C 0.22361 -0.14967 0.65413
 C380 C 0.22360 -0.17119 0.67563
 C381 C 0.24972 -0.18439 0.68441
 C382 C 0.27582 -0.17558 0.67119
 C383 C 0.24966 -0.11893 0.61895
 C384 C 0.24963 -0.10040 0.60039
 C385 C 0.24959 -0.07871 0.57865
 C386 C 0.24958 -0.06019 0.56008
 H387 H 0.29608 -0.14764 0.63969
 H388 H 0.20329 -0.13969 0.64771
 H389 H 0.20321 -0.17724 0.68565
 H390 H 0.29622 -0.18560 0.67722
 C391 C 0.75601 -0.16958 0.36653
 C392 C 0.74999 -0.14068 0.35917
 C393 C 0.74396 -0.13336 0.33023
 C394 C 0.74393 -0.15484 0.30873
 C395 C 0.74996 -0.18397 0.31591
 C396 C 0.75601 -0.19110 0.34507
 C397 C 0.75001 -0.11854 0.38129
 C398 C 0.75003 -0.10001 0.39982
 C399 C 0.75007 -0.07831 0.42152
 C400 C 0.75012 -0.05979 0.44006
 H401 H 0.76063 -0.17550 0.38888
 H402 H 0.73935 -0.11103 0.32428
 H403 H 0.73955 -0.14862 0.28643
 H404 H 0.76037 -0.21338 0.35133
 C405 C 0.64940 0.72304 -0.15319
 C406 C 0.64061 0.74915 -0.14029
 C407 C 0.65340 0.77535 -0.14892
 C408 C 0.67489 0.77549 -0.17040
 C409 C 0.68390 0.74935 -0.18351
 C410 C 0.67091 0.72312 -0.17465
 C411 C 0.61847 0.74905 -0.11819
 C412 C 0.59993 0.74898 -0.09968
 C413 C 0.57823 0.74893 -0.07800
 C414 C 0.55970 0.74890 -0.05948
 H415 H 0.63959 0.70264 -0.14672
 H416 H 0.64680 0.79568 -0.13902
 H417 H 0.68474 0.79597 -0.17648
 H418 H 0.67712 0.70271 -0.18460
 C419 C 0.33087 0.25653 -0.13336
 C420 C 0.35972 0.25067 -0.14082
 C421 C 0.36697 0.24471 -0.16979
 C422 C 0.34546 0.24460 -0.19123
 C423 C 0.31638 0.25048 -0.18395
 C424 C 0.30932 0.25645 -0.15476
 C425 C 0.38188 0.25075 -0.11877
 C426 C 0.40042 0.25080 -0.10028
 C427 C 0.42211 0.25086 -0.07863
 C428 C 0.44063 0.25090 -0.06012
 H429 H 0.32501 0.26109 -0.11099
 H430 H 0.38926 0.24022 -0.17581
 H431 H 0.35162 0.24029 -0.21355
 H432 H 0.28709 0.26069 -0.14843
 C433 C 0.34530 0.72327 0.14906
 C434 C 0.35904 0.74914 0.14116
 C435 C 0.35116 0.77511 0.15474
 C436 C 0.32964 0.77529 0.17618
 C437 C 0.31536 0.74935 0.18456
 C438 C 0.32373 0.72329 0.17044
 C439 C 0.38120 0.74905 0.11909
 C440 C 0.39976 0.74899 0.10059
 C441 C 0.42147 0.74894 0.07893
 C442 C 0.44000 0.74891 0.06041
 H443 H 0.35143 0.70295 0.13883
 H444 H 0.36151 0.79536 0.14859
 H445 H 0.32358 0.79615 0.18514
 H446 H 0.31464 0.70250 0.17653
 C447 C 0.63379 0.24503 0.16950
 C448 C 0.64106 0.25091 0.14052
 C449 C 0.66992 0.25674 0.13306
 C450 C 0.69145 0.25669 0.15448
 C451 C 0.68437 0.25078 0.18368
 C452 C 0.65528 0.24494 0.19096
 C453 C 0.61893 0.25096 0.11844
 C454 C 0.60040 0.25098 0.09994
 C455 C 0.57872 0.25100 0.07827
 C456 C 0.56022 0.25100 0.05975
 H457 H 0.61151 0.24056 0.17553
 H458 H 0.67580 0.26125 0.11068
 H459 H 0.71368 0.26090 0.14815
 H460 H 0.64911 0.24068 0.21329
 C461 C -0.14868 0.65445 0.72445
 C462 C -0.14079 0.64077 0.75040
 C463 C -0.15448 0.64859 0.77635
 C464 C -0.17600 0.67001 0.77642
 C465 C -0.18437 0.68423 0.75040
 C466 C -0.17015 0.67592 0.72437
 C467 C -0.11865 0.61868 0.75039
 C468 C -0.10012 0.60018 0.75039
 C469 C -0.07843 0.57851 0.75039
 C470 C -0.05992 0.55999 0.75039
 H471 H -0.13837 0.64835 0.70414
 H472 H -0.14834 0.63829 0.79665
 H473 H -0.18504 0.67604 0.79727
 H474 H -0.17622 0.68495 0.70352
 C475 C -0.15417 0.35162 0.22338
 C476 C -0.14050 0.35951 0.24929
 C477 C -0.14833 0.34587 0.27528
 C478 C -0.16975 0.32437 0.27543
 C479 C -0.18397 0.31600 0.24944
 C480 C -0.17564 0.33018 0.22337
 C481 C -0.11843 0.38164 0.24922
 C482 C -0.09997 0.40018 0.24916
 C483 C -0.07835 0.42189 0.24912
 C484 C -0.05988 0.44043 0.24910
 H485 H -0.14807 0.36189 0.20305
 H486 H -0.13803 0.35201 0.29555
 H487 H -0.17579 0.31537 0.29630
 H488 H -0.18467 0.32409 0.20255
 C489 C 0.14937 0.34655 0.77642
 C490 C 0.14057 0.35934 0.75024
 C491 C 0.15335 0.35061 0.72403
 C492 C 0.17486 0.32916 0.72399
 C493 C 0.18387 0.31616 0.75021
 C494 C 0.17088 0.32511 0.77644
 C495 C 0.11842 0.38142 0.75025
 C496 C 0.09989 0.39992 0.75026
 C497 C 0.07821 0.42159 0.75028
 C498 C 0.05970 0.44011 0.75030
 H499 H 0.13955 0.35309 0.79682
 H500 H 0.14676 0.36043 0.70364
 H501 H 0.18470 0.32300 0.70350
 H502 H 0.17709 0.31525 0.79692
 C503 C 0.14822 0.65456 0.27532
 C504 C 0.14044 0.64095 0.24933
 C505 C 0.15424 0.64882 0.22344
 C506 C 0.17577 0.67020 0.22347
 C507 C 0.18404 0.68434 0.24955
 C508 C 0.16970 0.67599 0.27551
 C509 C 0.11831 0.61889 0.24923
 C510 C 0.09979 0.60041 0.24916
 C511 C 0.07811 0.57876 0.24910
 C512 C 0.05961 0.56026 0.24908
 H513 H 0.13783 0.64843 0.29557
 H514 H 0.14819 0.63858 0.20311
 H515 H 0.18490 0.67627 0.20267
 H516 H 0.17568 0.68496 0.29639
 C517 C 0.72391 -0.15369 0.64962
 C518 C 0.75000 -0.14077 0.64097
 C519 C 0.77610 -0.14944 0.65389
 C520 C 0.77613 -0.17097 0.67539
 C521 C 0.75000 -0.18410 0.68425
 C522 C 0.72388 -0.17521 0.67112
 C523 C 0.75001 -0.11862 0.61883
 C524 C 0.75002 -0.10008 0.60028
 C525 C 0.75006 -0.07837 0.57856
 C526 C 0.75010 -0.05983 0.56001
 H527 H 0.70359 -0.14720 0.63970
 H528 H 0.79641 -0.13952 0.64741
 H529 H 0.79653 -0.17709 0.68534
 H530 H 0.70348 -0.18517 0.67721
 C531 C 0.25545 -0.13367 0.33030
 C532 C 0.24941 -0.14100 0.35923
 C533 C 0.24340 -0.16990 0.36659
 C534 C 0.24342 -0.19141 0.34511
 C535 C 0.24948 -0.18427 0.31596
 C536 C 0.25550 -0.15514 0.30879
 C537 C 0.24938 -0.11888 0.38136
 C538 C 0.24938 -0.10035 0.39990
 C539 C 0.24939 -0.07866 0.42159
 C540 C 0.24942 -0.06014 0.44013
 H541 H 0.26005 -0.11135 0.32435
 H542 H 0.23877 -0.17583 0.38894
 H543 H 0.23907 -0.21369 0.35137
 H544 H 0.25987 -0.14891 0.28649
 C545 C 0.74474 0.13375 0.33020
 C546 C 0.75070 0.14105 0.35914
 C547 C 0.75665 0.16995 0.36650
 C548 C 0.75666 0.19149 0.34502
 C549 C 0.75068 0.18438 0.31586
 C550 C 0.74472 0.15525 0.30868
 C551 C 0.75066 0.11890 0.38128
 C552 C 0.75062 0.10034 0.39981
 C553 C 0.75055 0.07861 0.42150
 C554 C 0.75049 0.06006 0.44004
 H555 H 0.74018 0.11143 0.32425
 H556 H 0.76121 0.17585 0.38886
 H557 H 0.76096 0.21376 0.35127
 H558 H 0.74040 0.14905 0.28638
 C559 C 0.27603 0.15344 0.64945
 C560 C 0.24992 0.14049 0.64093
 C561 C 0.22386 0.14914 0.65395
 C562 C 0.22388 0.17066 0.67541
 C563 C 0.25001 0.18382 0.68414
 C564 C 0.27610 0.17496 0.67092
 C565 C 0.24987 0.11836 0.61881
 C566 C 0.24981 0.09982 0.60028
 C567 C 0.24973 0.07814 0.57858
 C568 C 0.24968 0.05963 0.56004
 H569 H 0.29632 0.14696 0.63946
 H570 H 0.20353 0.13920 0.64757
 H571 H 0.20350 0.17676 0.68544
 H572 H 0.29651 0.18494 0.67691
   
