data_POSCAR
  _audit_creation_date              2014-09-24
  _audit_creation_method            'ToBaCCo'
  _symmetry_space_group_name_H-M    'P1'
  _symmetry_Int_Tables_number       1
  _symmetry_cell_setting            triclinic
  loop_
  _symmetry_equiv_pos_as_xyz
 x,y,z
_cell_length_a 26.4927
_cell_length_b 26.4903
_cell_length_c 26.4743
_cell_angle_alpha 89.953200
_cell_angle_beta 90.139300
_cell_angle_gamma 89.999800
loop_
  _atom_site_label
  _atom_site_type_symbol
  _atom_site_fract_x
  _atom_site_fract_y
  _atom_site_fract_z
O1 O -0.13018 0.06706 0.00123
 O2 O 0.12929 0.06700 -0.00264
 O3 O -0.00211 0.12842 0.06718
 O4 O 0.00136 0.12860 -0.06907
 O5 O 0.00098 0.06770 -0.13097
 O6 O -0.00194 0.06723 0.12907
 O7 O 0.06811 0.12878 -0.00268
 O8 O -0.06833 0.12826 0.00123
 Zr9 Zr -0.00018 0.08744 -0.00093
 O10 O 0.04545 0.04474 -0.04674
 O11 O -0.04596 0.04454 0.04485
 C12 C -0.11510 0.11373 0.00236
 C13 C 0.11480 0.11379 -0.00365
 C14 C -0.00306 0.11391 0.11400
 C15 C 0.00203 0.11446 -0.11604
 H16 H 0.06702 0.06609 0.06645
 O17 O 0.04543 0.04453 0.04489
 H18 H -0.06774 0.06604 -0.06795
 O19 O -0.04613 0.04445 -0.04641
 O20 O 0.12929 -0.06909 0.00126
 O21 O -0.13020 -0.06993 -0.00238
 O22 O 0.06800 -0.00314 0.12884
 O23 O 0.06787 0.00095 -0.13085
 O24 O -0.06912 -0.00274 -0.13076
 O25 O -0.06809 0.00086 0.12888
 O26 O 0.00175 -0.13117 0.06795
 O27 O -0.00219 -0.13091 -0.06916
 O28 O 0.00188 -0.06931 0.12895
 O29 O -0.00264 -0.06903 -0.13045
 O30 O 0.12963 -0.00298 0.06761
 O31 O -0.13009 0.00051 0.06772
 O32 O -0.13003 -0.00334 -0.06891
 O33 O 0.12909 0.00087 -0.06886
 O34 O 0.06825 -0.13103 0.00116
 O35 O -0.06835 -0.13094 -0.00260
 Zr36 Zr 0.08824 -0.00109 -0.00070
 Zr37 Zr -0.08912 -0.00137 -0.00066
 Zr38 Zr -0.00015 -0.00110 0.08785
 Zr39 Zr -0.00055 -0.00083 -0.08974
 Zr40 Zr -0.00015 -0.09000 -0.00068
 O41 O -0.04603 -0.04687 -0.04653
 O42 O 0.04556 -0.04694 0.04510
 C43 C 0.11488 -0.11589 0.00226
 C44 C -0.11528 -0.11672 -0.00339
 C45 C 0.11472 -0.00414 0.11430
 C46 C 0.11458 0.00191 -0.11573
 C47 C -0.11583 -0.00403 -0.11583
 C48 C -0.11490 0.00174 0.11440
 C49 C 0.00276 -0.11626 0.11477
 C50 C -0.00350 -0.11580 -0.11585
 H51 H -0.06725 -0.06848 0.06655
 O52 O -0.04579 -0.04694 0.04493
 H53 H 0.06669 -0.06812 -0.06797
 O54 O 0.04512 -0.04662 -0.04644
 O55 O 0.37053 0.56784 0.00169
 O56 O 0.63005 0.56749 -0.00176
 O57 O 0.49871 0.62913 0.06795
 O58 O 0.50257 0.62888 -0.06826
 O59 O 0.50208 0.56770 -0.13008
 O60 O 0.49874 0.56813 0.12985
 O61 O 0.56894 0.62934 -0.00193
 O62 O 0.43244 0.62898 0.00172
 Zr63 Zr 0.50057 0.58802 -0.00012
 O64 O 0.54605 0.54503 -0.04586
 O65 O 0.45458 0.54533 0.04558
 C66 C 0.38564 0.61449 0.00272
 C67 C 0.61564 0.61432 -0.00283
 C68 C 0.49782 0.61492 0.11492
 C69 C 0.50346 0.61431 -0.11502
 H70 H 0.56772 0.56671 0.06729
 O71 O 0.54614 0.54516 0.04572
 H72 H 0.43311 0.56663 -0.06733
 O73 O 0.45464 0.54502 -0.04573
 O74 O 0.62984 0.43125 0.00232
 O75 O 0.37031 0.43099 -0.00186
 O76 O 0.56850 0.49763 0.12972
 O77 O 0.56848 0.50121 -0.12998
 O78 O 0.43143 0.49784 -0.13020
 O79 O 0.43232 0.50168 0.12956
 O80 O 0.50228 0.36968 0.06844
 O81 O 0.49845 0.36943 -0.06846
 O82 O 0.50242 0.43155 0.12961
 O83 O 0.49804 0.43121 -0.12979
 O84 O 0.63021 0.49757 0.06872
 O85 O 0.37041 0.50129 0.06829
 O86 O 0.37048 0.49764 -0.06839
 O87 O 0.62973 0.50132 -0.06799
 O88 O 0.56862 0.36947 0.00195
 O89 O 0.43212 0.36978 -0.00197
 Zr90 Zr 0.58892 0.49939 0.00022
 Zr91 Zr 0.41146 0.49940 -0.00007
 Zr92 Zr 0.50037 0.49971 0.08861
 Zr93 Zr 0.50005 0.49943 -0.08897
 Zr94 Zr 0.50033 0.41064 -0.00006
 O95 O 0.45438 0.45364 -0.04589
 O96 O 0.54599 0.45370 0.04588
 C97 C 0.61528 0.38449 0.00321
 C98 C 0.38533 0.38430 -0.00291
 C99 C 0.61538 0.49662 0.11551
 C100 C 0.61518 0.50227 -0.11486
 C101 C 0.38466 0.49687 -0.11533
 C102 C 0.38551 0.50252 0.11500
 C103 C 0.50343 0.38476 0.11510
 C104 C 0.49724 0.38442 -0.11520
 H105 H 0.43325 0.43235 0.06716
 O106 O 0.45477 0.45386 0.04556
 H107 H 0.56734 0.43227 -0.06713
 O108 O 0.54581 0.45384 -0.04564
 O109 O -0.12976 0.56775 0.50124
 O110 O 0.12975 0.56687 0.49782
 O111 O -0.00171 0.62858 0.56739
 O112 O 0.00202 0.62879 0.43112
 O113 O 0.00173 0.56772 0.36924
 O114 O -0.00168 0.56741 0.62932
 O115 O 0.06865 0.62875 0.49755
 O116 O -0.06785 0.62870 0.50122
 Zr117 Zr 0.00028 0.58763 0.49933
 O118 O 0.04595 0.54471 0.45375
 O119 O -0.04555 0.54489 0.54520
 C120 C -0.11480 0.61452 0.50216
 C121 C 0.11530 0.61365 0.49661
 C122 C -0.00278 0.61406 0.61420
 C123 C 0.00280 0.61441 0.38425
 H124 H 0.06739 0.56620 0.56683
 O125 O 0.04581 0.54464 0.54526
 H126 H -0.06716 0.56637 0.43219
 O127 O -0.04563 0.54474 0.45377
 O128 O 0.12972 0.43076 0.50183
 O129 O -0.12980 0.43073 0.49760
 O130 O 0.06837 0.49726 0.62948
 O131 O 0.06844 0.50110 0.36970
 O132 O -0.06858 0.49738 0.36940
 O133 O -0.06787 0.50104 0.62920
 O134 O 0.00193 0.36897 0.56813
 O135 O -0.00175 0.36919 0.43109
 O136 O 0.00200 0.43081 0.62931
 O137 O -0.00208 0.43105 0.36981
 O138 O 0.13013 0.49718 0.56838
 O139 O -0.12980 0.50098 0.56796
 O140 O -0.12965 0.49726 0.43125
 O141 O 0.12961 0.50091 0.43176
 O142 O 0.06857 0.36894 0.50146
 O143 O -0.06797 0.36950 0.49742
 Zr144 Zr 0.08872 0.49887 0.49989
 Zr145 Zr -0.08874 0.49916 0.49957
 Zr146 Zr 0.00019 0.49907 0.58825
 Zr147 Zr -0.00004 0.49928 0.41058
 Zr148 Zr 0.00024 0.41020 0.49959
 O149 O -0.04562 0.45346 0.45381
 O150 O 0.04593 0.45309 0.54561
 C151 C 0.11524 0.38396 0.50267
 C152 C -0.11474 0.38406 0.49643
 C153 C 0.11519 0.49632 0.61511
 C154 C 0.11511 0.50208 0.38490
 C155 C -0.11523 0.49634 0.38443
 C156 C -0.11469 0.50203 0.61468
 C157 C 0.00287 0.38397 0.61486
 C158 C -0.00297 0.38426 0.38438
 H159 H -0.06698 0.43190 0.56669
 O160 O -0.04544 0.45341 0.54512
 H161 H 0.06719 0.43194 0.43245
 O162 O 0.04562 0.45348 0.45393
 O163 O 0.37072 0.06676 0.50139
 O164 O 0.63022 0.06653 0.49785
 O165 O 0.49880 0.12808 0.56768
 O166 O 0.50258 0.12809 0.43156
 O167 O 0.50233 0.06707 0.36961
 O168 O 0.49885 0.06690 0.62955
 O169 O 0.56897 0.12827 0.49779
 O170 O 0.43255 0.12795 0.50149
 Zr171 Zr 0.50072 0.08702 0.49960
 O172 O 0.54639 0.04418 0.45389
 O173 O 0.45482 0.04427 0.54533
 C174 C 0.38575 0.11345 0.50247
 C175 C 0.61564 0.11329 0.49675
 C176 C 0.49780 0.11359 0.61451
 C177 C 0.50350 0.11369 0.38475
 H178 H 0.56792 0.06569 0.56696
 O179 O 0.54639 0.04412 0.54536
 H180 H 0.43337 0.06565 0.43237
 O181 O 0.45494 0.04404 0.45393
 O182 O 0.63047 -0.06969 0.50165
 O183 O 0.37094 -0.07009 0.49764
 O184 O 0.56874 -0.00336 0.62938
 O185 O 0.56893 0.00069 0.36973
 O186 O 0.43211 -0.00327 0.36955
 O187 O 0.43258 0.00026 0.62921
 O188 O 0.50304 -0.13137 0.56784
 O189 O 0.49908 -0.13148 0.43083
 O190 O 0.50295 -0.06953 0.62904
 O191 O 0.49876 -0.06953 0.36968
 O192 O 0.63054 -0.00349 0.56831
 O193 O 0.37071 -0.00004 0.56793
 O194 O 0.37101 -0.00362 0.43137
 O195 O 0.63016 0.00065 0.43172
 O196 O 0.56943 -0.13161 0.50126
 O197 O 0.43281 -0.13126 0.49734
 Zr198 Zr 0.58930 -0.00159 0.49985
 Zr199 Zr 0.41188 -0.00165 0.49963
 Zr200 Zr 0.50067 -0.00140 0.58820
 Zr201 Zr 0.50056 -0.00136 0.41068
 Zr202 Zr 0.50099 -0.09042 0.49937
 O203 O 0.45498 -0.04726 0.45374
 O204 O 0.54645 -0.04734 0.54545
 C205 C 0.61610 -0.11654 0.50241
 C206 C 0.38603 -0.11673 0.49643
 C207 C 0.61552 -0.00444 0.61498
 C208 C 0.61560 0.00178 0.38488
 C209 C 0.38548 -0.00449 0.38459
 C210 C 0.38575 0.00106 0.61466
 C211 C 0.50416 -0.11627 0.61449
 C212 C 0.49797 -0.11638 0.38412
 H213 H 0.43378 -0.06887 0.56664
 O214 O 0.45527 -0.04731 0.54506
 H215 H 0.56795 -0.06855 0.43232
 O216 O 0.54636 -0.04708 0.45385
 C217 C 0.23303 0.22604 -0.00686
 C218 C 0.18186 0.24104 -0.00339
 C219 C 0.14335 0.20448 -0.00276
 C220 C 0.15501 0.15277 -0.00535
 C221 C 0.20582 0.13824 -0.00919
 C222 C 0.24422 0.17417 -0.00998
 C223 C 0.27307 0.26608 -0.00670
 C224 C 0.32494 0.25487 -0.00959
 C225 C 0.36087 0.29326 -0.00857
 C226 C 0.34635 0.34408 -0.00470
 C227 C 0.29464 0.35575 -0.00226
 C228 C 0.25807 0.31724 -0.00312
 C229 C 0.16949 0.29238 -0.00027
 C230 C 0.20674 0.32963 -0.00015
 H231 H 0.13034 0.30397 0.00231
 H232 H 0.19516 0.36877 0.00253
 H233 H 0.10432 0.21640 0.00015
 H234 H 0.21622 0.09877 -0.01154
 H235 H 0.40034 0.28285 -0.01078
 H236 H 0.28272 0.39479 0.00070
 H237 H 0.28234 0.16030 -0.01287
 H238 H 0.33881 0.21674 -0.01249
 C239 C 0.23357 -0.27447 0.49259
 C240 C 0.18248 -0.25936 0.49667
 C241 C 0.14394 -0.29582 0.49755
 C242 C 0.15551 -0.34751 0.49465
 C243 C 0.20622 -0.36216 0.49017
 C244 C 0.24466 -0.32634 0.48912
 C245 C 0.27366 -0.23457 0.49258
 C246 C 0.32547 -0.24591 0.48914
 C247 C 0.36148 -0.20762 0.49015
 C248 C 0.34706 -0.15684 0.49454
 C249 C 0.29543 -0.14503 0.49744
 C250 C 0.25880 -0.18341 0.49662
 C251 C 0.17022 -0.20804 0.50016
 C252 C 0.20754 -0.17089 0.50013
 H253 H 0.13112 -0.19639 0.50319
 H254 H 0.19608 -0.13173 0.50314
 H255 H 0.10496 -0.28385 0.50094
 H256 H 0.21651 -0.40164 0.48753
 H257 H 0.40091 -0.21808 0.48754
 H258 H 0.28361 -0.10600 0.50079
 H259 H 0.28271 -0.34028 0.48575
 H260 H 0.33924 -0.28403 0.48584
 C261 C 0.77418 0.76668 -0.00610
 C262 C 0.75915 0.81793 -0.00514
 C263 C 0.79572 0.85652 -0.00463
 C264 C 0.84769 0.84497 -0.00478
 C265 C 0.86206 0.79380 -0.00602
 C266 C 0.82609 0.75541 -0.00670
 C267 C 0.73410 0.72660 -0.00606
 C268 C 0.74533 0.67463 -0.00687
 C269 C 0.70688 0.63872 -0.00607
 C270 C 0.65594 0.65332 -0.00448
 C271 C 0.64428 0.70512 -0.00416
 C272 C 0.68285 0.74168 -0.00489
 C273 C 0.70773 0.83036 -0.00440
 C274 C 0.67045 0.79310 -0.00424
 H275 H 0.69607 0.86957 -0.00372
 H276 H 0.63125 0.80478 -0.00344
 H277 H 0.78341 0.89555 -0.00377
 H278 H 0.90148 0.78290 -0.00635
 H279 H 0.71734 0.59920 -0.00657
 H280 H 0.60518 0.71713 -0.00307
 H281 H 0.83998 0.71719 -0.00749
 H282 H 0.78352 0.66069 -0.00797
 C283 C 0.77330 0.26582 0.49253
 C284 C 0.75823 0.31691 0.49679
 C285 C 0.79471 0.35546 0.49762
 C286 C 0.84637 0.34387 0.49447
 C287 C 0.86097 0.29316 0.48980
 C288 C 0.82513 0.25472 0.48880
 C289 C 0.73340 0.22572 0.49261
 C290 C 0.74473 0.17391 0.48903
 C291 C 0.70646 0.13789 0.49014
 C292 C 0.65570 0.15230 0.49477
 C293 C 0.64390 0.20393 0.49780
 C294 C 0.68227 0.24058 0.49688
 C295 C 0.70693 0.32917 0.50052
 C296 C 0.66978 0.29184 0.50055
 H297 H 0.69530 0.36827 0.50370
 H298 H 0.63064 0.30330 0.50374
 H299 H 0.78276 0.39443 0.50118
 H300 H 0.90042 0.28284 0.48697
 H301 H 0.71691 0.09846 0.48740
 H302 H 0.60488 0.21573 0.50133
 H303 H 0.83905 0.21668 0.48527
 H304 H 0.78283 0.16014 0.48554
 C305 C 0.77295 0.23193 0.00696
 C306 C 0.75789 0.18090 0.00191
 C307 C 0.79437 0.14237 0.00085
 C308 C 0.84602 0.15390 0.00450
 C309 C 0.86062 0.20455 0.00992
 C310 C 0.82478 0.24297 0.01118
 C311 C 0.73305 0.27203 0.00711
 C312 C 0.74434 0.32379 0.01152
 C313 C 0.70607 0.35982 0.01052
 C314 C 0.65534 0.34547 0.00518
 C315 C 0.64357 0.29388 0.00136
 C316 C 0.68193 0.25723 0.00217
 C317 C 0.70660 0.16869 -0.00238
 C318 C 0.66946 0.20602 -0.00227
 H319 H 0.69498 0.12964 -0.00616
 H320 H 0.63033 0.19460 -0.00596
 H321 H 0.78243 0.10344 -0.00330
 H322 H 0.90007 0.21481 0.01318
 H323 H 0.71649 0.39922 0.01389
 H324 H 0.60457 0.28213 -0.00274
 H325 H 0.83868 0.28097 0.01529
 H326 H 0.78242 0.33750 0.01559
 C327 C 0.77471 -0.26886 0.50530
 C328 C 0.75967 -0.32011 0.50423
 C329 C 0.79623 -0.35869 0.50358
 C330 C 0.84820 -0.34715 0.50367
 C331 C 0.86259 -0.29599 0.50501
 C332 C 0.82663 -0.25760 0.50584
 C333 C 0.73462 -0.22879 0.50540
 C334 C 0.74584 -0.17682 0.50639
 C335 C 0.70737 -0.14091 0.50568
 C336 C 0.65644 -0.15551 0.50399
 C337 C 0.64479 -0.20732 0.50350
 C338 C 0.68337 -0.24387 0.50417
 C339 C 0.70825 -0.33254 0.50349
 C340 C 0.67097 -0.29529 0.50340
 H341 H 0.69659 -0.37175 0.50274
 H342 H 0.63176 -0.30697 0.50258
 H343 H 0.78391 -0.39772 0.50264
 H344 H 0.90201 -0.28510 0.50533
 H345 H 0.71783 -0.10139 0.50632
 H346 H 0.60569 -0.21934 0.50234
 H347 H 0.84051 -0.21937 0.50670
 H348 H 0.78404 -0.16288 0.50758
 C349 C 0.23345 0.27168 0.50636
 C350 C 0.18231 0.25671 0.50229
 C351 C 0.14380 0.29328 0.50149
 C352 C 0.15545 0.34497 0.50450
 C353 C 0.20624 0.35947 0.50894
 C354 C 0.24464 0.32354 0.50990
 C355 C 0.27349 0.23165 0.50633
 C356 C 0.32536 0.24282 0.50981
 C357 C 0.36129 0.20443 0.50879
 C358 C 0.34677 0.15365 0.50433
 C359 C 0.29508 0.14201 0.50138
 C360 C 0.25851 0.18051 0.50224
 C361 C 0.16994 0.20540 0.49873
 C362 C 0.20719 0.16815 0.49871
 H363 H 0.13081 0.19384 0.49570
 H364 H 0.19561 0.12903 0.49566
 H365 H 0.10479 0.28138 0.49810
 H366 H 0.21663 0.39893 0.51163
 H367 H 0.40075 0.21481 0.51146
 H368 H 0.28317 0.10300 0.49799
 H369 H 0.28274 0.33738 0.51325
 H370 H 0.33920 0.28092 0.51318
 C371 C 0.23319 0.77224 0.00633
 C372 C 0.18210 0.75713 0.00217
 C373 C 0.14354 0.79359 0.00125
 C374 C 0.15512 0.84528 0.00420
 C375 C 0.20584 0.85993 0.00872
 C376 C 0.24429 0.82411 0.00981
 C377 C 0.27329 0.73234 0.00640
 C378 C 0.32512 0.74367 0.00996
 C379 C 0.36112 0.70538 0.00901
 C380 C 0.34669 0.65460 0.00454
 C381 C 0.29504 0.64281 0.00153
 C382 C 0.25841 0.68118 0.00232
 C383 C 0.16982 0.70581 -0.00135
 C384 C 0.20715 0.66866 -0.00128
 H385 H 0.13072 0.69416 -0.00444
 H386 H 0.19568 0.62951 -0.00431
 H387 H 0.10456 0.78161 -0.00219
 H388 H 0.21614 0.89941 0.01138
 H389 H 0.40057 0.71583 0.01172
 H390 H 0.28322 0.60378 -0.00187
 H391 H 0.28235 0.83805 0.01322
 H392 H 0.33889 0.78180 0.01333
 C393 C -0.00684 0.23204 0.22621
 C394 C -0.00296 0.18089 0.24125
 C395 C -0.00215 0.14240 0.20469
 C396 C -0.00493 0.15408 0.15296
 C397 C -0.00918 0.20487 0.13838
 C398 C -0.01016 0.24325 0.17430
 C399 C -0.00683 0.27205 0.26623
 C400 C -0.01013 0.32392 0.25497
 C401 C -0.00913 0.35984 0.29335
 C402 C -0.00487 0.34531 0.34419
 C403 C -0.00209 0.29361 0.35591
 C404 C -0.00293 0.25706 0.31742
 C405 C 0.00040 0.16849 0.29261
 C406 C 0.00042 0.20574 0.32986
 H407 H 0.00328 0.12935 0.30423
 H408 H 0.00332 0.19416 0.36903
 H409 H 0.00107 0.10338 0.21664
 H410 H -0.01171 0.21528 0.09888
 H411 H -0.01163 0.39931 0.28291
 H412 H 0.00115 0.28170 0.39498
 H413 H -0.01336 0.28136 0.16040
 H414 H -0.01334 0.33778 0.21682
 C415 C 0.49383 0.27200 0.76667
 C416 C 0.49775 0.25708 0.81789
 C417 C 0.49844 0.29369 0.85637
 C418 C 0.49548 0.34538 0.84462
 C419 C 0.49122 0.35983 0.79375
 C420 C 0.49036 0.32386 0.75538
 C421 C 0.49393 0.23192 0.72667
 C422 C 0.49062 0.24305 0.67474
 C423 C 0.49164 0.20461 0.63886
 C424 C 0.49594 0.15383 0.65347
 C425 C 0.49877 0.14223 0.70524
 C426 C 0.49791 0.18078 0.74176
 C427 C 0.50123 0.20577 0.83036
 C428 C 0.50130 0.16848 0.79315
 H429 H 0.50416 0.19424 0.86955
 H430 H 0.50428 0.12936 0.80481
 H431 H 0.50170 0.28182 0.89544
 H432 H 0.48859 0.39928 0.78327
 H433 H 0.48910 0.21497 0.59935
 H434 H 0.50205 0.10323 0.71722
 H435 H 0.48713 0.33766 0.71722
 H436 H 0.48738 0.28114 0.66081
 C437 C -0.00731 0.77204 0.76622
 C438 C -0.00274 0.75710 0.81737
 C439 C -0.00195 0.79366 0.85580
 C440 C -0.00545 0.84528 0.84404
 C441 C -0.01045 0.85977 0.79327
 C442 C -0.01141 0.82384 0.75494
 C443 C -0.00716 0.73205 0.72625
 C444 C -0.01099 0.74324 0.67438
 C445 C -0.00979 0.70489 0.63848
 C446 C -0.00482 0.65419 0.65308
 C447 C -0.00153 0.64251 0.70476
 C448 C -0.00252 0.68096 0.74129
 C449 C 0.00135 0.70585 0.82983
 C450 C 0.00143 0.66860 0.79261
 H451 H 0.00476 0.69433 0.86898
 H452 H 0.00490 0.62950 0.80421
 H453 H 0.00186 0.78181 0.89483
 H454 H -0.01356 0.89920 0.78285
 H455 H -0.01274 0.71524 0.59899
 H456 H 0.00228 0.60353 0.71669
 H457 H -0.01521 0.83765 0.71683
 H458 H -0.01473 0.78130 0.66048
 C459 C 0.49496 -0.26857 0.22547
 C460 C 0.49583 -0.31984 0.24052
 C461 C 0.49639 -0.35839 0.20394
 C462 C 0.49638 -0.34680 0.15194
 C463 C 0.49521 -0.29562 0.13753
 C464 C 0.49449 -0.25726 0.17352
 C465 C 0.49496 -0.22854 0.26556
 C466 C 0.49426 -0.17656 0.25431
 C467 C 0.49499 -0.14069 0.29279
 C468 C 0.49641 -0.15533 0.34377
 C469 C 0.49665 -0.20713 0.35545
 C470 C 0.49598 -0.24366 0.31686
 C471 C 0.49642 -0.33231 0.29198
 C472 C 0.49653 -0.29509 0.32928
 H473 H 0.49702 -0.37154 0.30365
 H474 H 0.49721 -0.30679 0.36852
 H475 H 0.49718 -0.39744 0.21626
 H476 H 0.49497 -0.28470 0.09808
 H477 H 0.49459 -0.10116 0.28231
 H478 H 0.49761 -0.21918 0.39459
 H479 H 0.49375 -0.21903 0.15961
 H480 H 0.49330 -0.16258 0.21609
 C481 C 0.00576 0.77313 0.23161
 C482 C 0.00470 0.75811 0.18033
 C483 C 0.00411 0.79469 0.14168
 C484 C 0.00427 0.84668 0.15316
 C485 C 0.00565 0.86104 0.20437
 C486 C 0.00641 0.82506 0.24282
 C487 C 0.00577 0.73302 0.27176
 C488 C 0.00663 0.74422 0.32377
 C489 C 0.00591 0.70573 0.35974
 C490 C 0.00432 0.65478 0.34518
 C491 C 0.00390 0.64316 0.29334
 C492 C 0.00457 0.68176 0.25672
 C493 C 0.00395 0.70667 0.16795
 C494 C 0.00384 0.66938 0.20526
 H495 H 0.00321 0.69501 0.12872
 H496 H 0.00303 0.63018 0.19360
 H497 H 0.00316 0.78238 0.10263
 H498 H 0.00603 0.90046 0.21523
 H499 H 0.00646 0.71619 0.39927
 H500 H 0.00279 0.60406 0.28133
 H501 H 0.00731 0.83893 0.28107
 H502 H 0.00773 0.78242 0.33769
 C503 C 0.50835 -0.26808 0.77262
 C504 C 0.50311 -0.31913 0.75777
 C505 C 0.50195 -0.35746 0.79443
 C506 C 0.50567 -0.34568 0.84603
 C507 C 0.51129 -0.29504 0.86044
 C508 C 0.51267 -0.25680 0.82442
 C509 C 0.50853 -0.22820 0.73255
 C510 C 0.51310 -0.17643 0.74367
 C511 C 0.51198 -0.14056 0.70527
 C512 C 0.50636 -0.15511 0.65461
 C513 C 0.50250 -0.20670 0.64299
 C514 C 0.50341 -0.24319 0.68149
 C515 C 0.49871 -0.33158 0.70653
 C516 C 0.49885 -0.29442 0.66920
 H517 H 0.49481 -0.37067 0.69511
 H518 H 0.49504 -0.30597 0.63011
 H519 H 0.49765 -0.39642 0.78267
 H520 H 0.51462 -0.28465 0.89988
 H521 H 0.51546 -0.10114 0.71554
 H522 H 0.49823 -0.21855 0.60402
 H523 H 0.51692 -0.21876 0.83817
 H524 H 0.51736 -0.16258 0.78169
 C525 C 0.50746 0.27226 0.23296
 C526 C 0.50310 0.25746 0.18177
 C527 C 0.50222 0.29414 0.14340
 C528 C 0.50539 0.34576 0.15523
 C529 C 0.51012 0.36012 0.20603
 C530 C 0.51119 0.32406 0.24432
 C531 C 0.50746 0.23211 0.27286
 C532 C 0.51124 0.24313 0.32475
 C533 C 0.51018 0.20464 0.36058
 C534 C 0.50541 0.15395 0.34590
 C535 C 0.50220 0.14245 0.29419
 C536 C 0.50308 0.18105 0.25773
 C537 C 0.49931 0.20622 0.16922
 C538 C 0.49930 0.16885 0.20637
 H539 H 0.49607 0.19482 0.13004
 H540 H 0.49603 0.12978 0.19470
 H541 H 0.49861 0.28238 0.10434
 H542 H 0.51297 0.39954 0.21650
 H543 H 0.51307 0.21487 0.40009
 H544 H 0.49856 0.10350 0.28219
 H545 H 0.51476 0.33777 0.28247
 H546 H 0.51485 0.28115 0.33872
 C547 C 0.00515 0.23129 0.77344
 C548 C 0.00398 0.18006 0.75835
 C549 C 0.00326 0.14140 0.79491
 C550 C 0.00344 0.15284 0.84693
 C551 C 0.00483 0.20399 0.86136
 C552 C 0.00569 0.24245 0.82541
 C553 C 0.00538 0.27145 0.73337
 C554 C 0.00646 0.32340 0.74466
 C555 C 0.00591 0.35938 0.70620
 C556 C 0.00431 0.34489 0.65520
 C557 C 0.00372 0.29311 0.64349
 C558 C 0.00421 0.25647 0.68207
 C559 C 0.00327 0.16774 0.70687
 C560 C 0.00333 0.20507 0.66960
 H561 H 0.00243 0.12855 0.69516
 H562 H 0.00254 0.19347 0.63036
 H563 H 0.00228 0.10239 0.78255
 H564 H 0.00518 0.21481 0.90082
 H565 H 0.00661 0.39889 0.71670
 H566 H 0.00261 0.28116 0.60435
 H567 H 0.00661 0.28064 0.83935
 H568 H 0.00759 0.33726 0.78289
 C569 C 0.22715 -0.00823 0.23235
 C570 C 0.24201 -0.00402 0.18119
 C571 C 0.20536 -0.00312 0.14272
 C572 C 0.15374 -0.00611 0.15444
 C573 C 0.13934 -0.01069 0.20522
 C574 C 0.17535 -0.01178 0.24359
 C575 C 0.26724 -0.00829 0.27236
 C576 C 0.25614 -0.01194 0.32422
 C577 C 0.29457 -0.01096 0.36016
 C578 C 0.34528 -0.00638 0.34563
 C579 C 0.35686 -0.00328 0.29395
 C580 C 0.31832 -0.00409 0.25737
 C581 C 0.29327 -0.00039 0.16879
 C582 C 0.33059 -0.00042 0.20605
 H583 H 0.30472 0.00275 0.12964
 H584 H 0.36969 0.00271 0.19449
 H585 H 0.21714 0.00037 0.10368
 H586 H 0.09991 -0.01339 0.21562
 H587 H 0.28427 -0.01373 0.39963
 H588 H 0.39584 0.00022 0.28207
 H589 H 0.16159 -0.01522 0.28170
 H590 H 0.21809 -0.01540 0.33808
 C591 C 0.26785 0.49395 0.77394
 C592 C 0.31908 0.49485 0.75894
 C593 C 0.35773 0.49548 0.79556
 C594 C 0.34628 0.49548 0.84756
 C595 C 0.29513 0.49433 0.86190
 C596 C 0.25668 0.49356 0.82588
 C597 C 0.22770 0.49380 0.73380
 C598 C 0.17575 0.49304 0.74499
 C599 C 0.13977 0.49360 0.70647
 C600 C 0.15427 0.49490 0.65550
 C601 C 0.20605 0.49520 0.64387
 C602 C 0.24268 0.49471 0.68251
 C603 C 0.33141 0.49536 0.70748
 C604 C 0.29409 0.49533 0.67014
 H605 H 0.37060 0.49600 0.69583
 H606 H 0.30569 0.49594 0.63092
 H607 H 0.39675 0.49627 0.78327
 H608 H 0.28430 0.49413 0.90134
 H609 H 0.10027 0.49316 0.71692
 H610 H 0.21800 0.49609 0.60475
 H611 H 0.21848 0.49283 0.83975
 H612 H 0.16187 0.49216 0.78321
 C613 C 0.76773 -0.00756 0.77356
 C614 C 0.81895 -0.00619 0.75859
 C615 C 0.85749 -0.00543 0.79521
 C616 C 0.84591 -0.00569 0.84715
 C617 C 0.79480 -0.00735 0.86149
 C618 C 0.75645 -0.00830 0.82547
 C619 C 0.72770 -0.00771 0.73345
 C620 C 0.67578 -0.00896 0.74467
 C621 C 0.63987 -0.00819 0.70618
 C622 C 0.65445 -0.00618 0.65528
 C623 C 0.70618 -0.00552 0.64361
 C624 C 0.74274 -0.00622 0.68221
 C625 C 0.83139 -0.00524 0.70717
 C626 C 0.79413 -0.00520 0.66983
 H627 H 0.87058 -0.00425 0.69559
 H628 H 0.80575 -0.00417 0.63062
 H629 H 0.89651 -0.00426 0.78297
 H630 H 0.78393 -0.00780 0.90092
 H631 H 0.60036 -0.00902 0.71660
 H632 H 0.71814 -0.00413 0.60450
 H633 H 0.71826 -0.00939 0.83932
 H634 H 0.66186 -0.01039 0.78285
 C635 C -0.27393 0.49332 0.23206
 C636 C -0.25900 0.49426 0.18079
 C637 C -0.29564 0.49494 0.14221
 C638 C -0.34755 0.49501 0.15381
 C639 C -0.36184 0.49376 0.20498
 C640 C -0.32580 0.49289 0.24337
 C641 C -0.23379 0.49324 0.27213
 C642 C -0.24495 0.49245 0.32411
 C643 C -0.20645 0.49319 0.36003
 C644 C -0.15556 0.49470 0.34543
 C645 C -0.14396 0.49498 0.29363
 C646 C -0.18258 0.49430 0.25705
 C647 C -0.20761 0.49484 0.16833
 C648 C -0.17026 0.49491 0.20561
 H649 H -0.19605 0.49550 0.12910
 H650 H -0.13108 0.49562 0.19394
 H651 H -0.28343 0.49579 0.10315
 H652 H -0.40123 0.49355 0.21589
 H653 H -0.21686 0.49273 0.39957
 H654 H -0.10487 0.49600 0.28164
 H655 H -0.33962 0.49211 0.28161
 H656 H -0.28311 0.49141 0.33807
 C657 C 0.23309 0.00512 0.77241
 C658 C 0.18195 0.00158 0.75718
 C659 C 0.14333 0.00096 0.79359
 C660 C 0.15487 0.00364 0.84539
 C661 C 0.20566 0.00760 0.86013
 C662 C 0.24416 0.00836 0.82436
 C663 C 0.27325 0.00488 0.73254
 C664 C 0.32512 0.00778 0.74397
 C665 C 0.36115 0.00671 0.70570
 C666 C 0.34672 0.00279 0.65479
 C667 C 0.29501 0.00031 0.64292
 C668 C 0.25836 0.00123 0.68128
 C669 C 0.16970 -0.00161 0.70576
 C670 C 0.20704 -0.00177 0.66866
 H671 H 0.13057 -0.00423 0.69397
 H672 H 0.19554 -0.00450 0.62944
 H673 H 0.10432 -0.00202 0.78149
 H674 H 0.21599 0.01004 0.89967
 H675 H 0.40060 0.00894 0.71628
 H676 H 0.28315 -0.00269 0.60381
 H677 H 0.28225 0.01135 0.83840
 H678 H 0.33890 0.01072 0.78219
 C679 C 0.27331 0.50627 0.23297
 C680 C 0.25834 0.50207 0.18177
 C681 C 0.29490 0.50126 0.14336
 C682 C 0.34657 0.50438 0.15514
 C683 C 0.36108 0.50897 0.20596
 C684 C 0.32515 0.50994 0.24428
 C685 C 0.23328 0.50620 0.27292
 C686 C 0.24445 0.50976 0.32483
 C687 C 0.20606 0.50866 0.36068
 C688 C 0.15531 0.50405 0.34603
 C689 C 0.14367 0.50105 0.29429
 C690 C 0.18216 0.50197 0.25780
 C691 C 0.20705 0.49840 0.16927
 C692 C 0.16980 0.49836 0.20644
 H693 H 0.19550 0.49527 0.13009
 H694 H 0.13068 0.49520 0.19477
 H695 H 0.28300 0.49777 0.10430
 H696 H 0.40053 0.51176 0.21643
 H697 H 0.21642 0.51139 0.40019
 H698 H 0.10467 0.49754 0.28228
 H699 H 0.33898 0.51341 0.28243
 H700 H 0.28253 0.51323 0.33877
 C701 C 0.77327 0.00579 0.23259
 C702 C 0.75816 0.00149 0.18145
 C703 C 0.79460 0.00058 0.14294
 C704 C 0.84629 0.00368 0.15460
 C705 C 0.86095 0.00834 0.20537
 C706 C 0.82514 0.00942 0.24377
 C707 C 0.73338 0.00584 0.27264
 C708 C 0.74472 0.00956 0.32450
 C709 C 0.70645 0.00851 0.36047
 C710 C 0.65568 0.00380 0.34595
 C711 C 0.64387 0.00067 0.29426
 C712 C 0.68223 0.00154 0.25767
 C713 C 0.70684 -0.00221 0.16908
 C714 C 0.66971 -0.00219 0.20636
 H715 H 0.69518 -0.00541 0.12995
 H716 H 0.63056 -0.00538 0.19482
 H717 H 0.78260 -0.00298 0.10393
 H718 H 0.90043 0.01111 0.21573
 H719 H 0.71691 0.01134 0.39994
 H720 H 0.60485 -0.00291 0.28237
 H721 H 0.83909 0.01293 0.28187
 H722 H 0.78283 0.01312 0.33834
 C723 C -0.26673 0.50584 0.77293
 C724 C -0.31792 0.50233 0.75787
 C725 C -0.35638 0.50157 0.79442
 C726 C -0.34464 0.50406 0.84618
 C727 C -0.29381 0.50795 0.86077
 C728 C -0.25545 0.50886 0.82485
 C729 C -0.22675 0.50578 0.73290
 C730 C -0.17485 0.50871 0.74415
 C731 C -0.13899 0.50772 0.70576
 C732 C -0.15360 0.50385 0.65490
 C733 C -0.20533 0.50142 0.64318
 C734 C -0.24184 0.50225 0.68168
 C735 C -0.33039 0.49931 0.70649
 C736 C -0.29319 0.49927 0.66924
 H737 H -0.36955 0.49671 0.69485
 H738 H -0.30485 0.49665 0.63006
 H739 H -0.39543 0.49863 0.78245
 H740 H -0.28334 0.51023 0.90028
 H741 H -0.09949 0.50994 0.71621
 H742 H -0.21732 0.49847 0.60411
 H743 H -0.21731 0.51178 0.83876
 H744 H -0.16093 0.51161 0.78232
   
