data_POSCAR
  _audit_creation_date              2014-09-24
  _audit_creation_method            'ToBaCCo'
  _symmetry_space_group_name_H-M    'P1'
  _symmetry_Int_Tables_number       1
  _symmetry_cell_setting            triclinic
  loop_
  _symmetry_equiv_pos_as_xyz
 x,y,z
_cell_length_a 47.9385
_cell_length_b 51.3667
_cell_length_c 48.5534
_cell_angle_alpha 85.337900
_cell_angle_beta 95.223100
_cell_angle_gamma 95.284200
loop_
  _atom_site_label
  _atom_site_type_symbol
  _atom_site_fract_x
  _atom_site_fract_y
  _atom_site_fract_z
C1 C 0.22064 0.27547 0.27873
 C2 C 0.23903 0.29322 0.25955
 C3 C 0.25425 0.28027 0.24359
 C4 C 0.24930 0.25024 0.24803
 C5 C 0.20243 0.25715 0.25953
 C6 C 0.21725 0.24389 0.24339
 C7 C 0.24089 0.25726 0.29531
 C8 C 0.25601 0.24419 0.27933
 H9 H 0.23978 0.31440 0.25885
 H10 H 0.26181 0.23955 0.23529
 H11 H 0.17976 0.25447 0.25932
 H12 H 0.24154 0.25319 0.31755
 C13 C 0.72831 0.77376 0.28266
 C14 C 0.74572 0.79104 0.26215
 C15 C 0.76091 0.77761 0.24662
 C16 C 0.75729 0.74779 0.25300
 C17 C 0.71039 0.75399 0.26488
 C18 C 0.72542 0.74056 0.24916
 C19 C 0.74962 0.75698 0.29985
 C20 C 0.76484 0.74349 0.28437
 H21 H 0.74647 0.81224 0.26075
 H22 H 0.76961 0.73677 0.24038
 H23 H 0.68769 0.75126 0.26451
 H24 H 0.75079 0.75375 0.32216
 C25 C 0.71482 0.27489 0.77453
 C26 C 0.73341 0.29098 0.75673
 C27 C 0.75086 0.27672 0.74187
 C28 C 0.74560 0.24830 0.74753
 C29 C 0.69771 0.25609 0.75490
 C30 C 0.71377 0.24203 0.74089
 C31 C 0.73399 0.25729 0.79322
 C32 C 0.75017 0.24335 0.77924
 H33 H 0.73188 0.31187 0.75321
 H34 H 0.75816 0.23584 0.73695
 H35 H 0.67514 0.25475 0.75091
 H36 H 0.73482 0.25632 0.81564
 C37 C 0.22426 0.77782 0.78175
 C38 C 0.24294 0.79467 0.76195
 C39 C 0.25748 0.78080 0.74618
 C40 C 0.25255 0.75091 0.75232
 C41 C 0.20590 0.75904 0.76329
 C42 C 0.22053 0.74495 0.74787
 C43 C 0.24482 0.76043 0.79909
 C44 C 0.25935 0.74604 0.78384
 H45 H 0.24483 0.81588 0.76104
 H46 H 0.26425 0.73918 0.73986
 H47 H 0.18315 0.75748 0.76227
 H48 H 0.24894 0.76038 0.82131
 C49 C 0.04360 0.03699 0.00242
 H50 H 0.04340 0.03976 -0.01992
 C51 C 0.06086 0.05391 0.01904
 H52 H 0.07423 0.06947 0.00932
 C53 C 0.02619 0.01338 0.04215
 H54 H 0.01217 -0.00200 0.05111
 C55 C 0.04311 0.02981 0.05953
 H56 H 0.04189 0.02680 0.08174
 N57 N 0.02687 0.01709 0.01415
 C58 C 0.00952 -0.04028 -0.04819
 H59 H -0.01322 -0.04232 -0.04955
 C60 C 0.02395 -0.05554 -0.06370
 H61 H 0.01212 -0.06941 -0.07687
 C62 C 0.05248 -0.02044 -0.02840
 H63 H 0.06355 -0.00706 -0.01432
 C64 C 0.06774 -0.03534 -0.04350
 H65 H 0.09049 -0.03279 -0.04125
 Zn66 Zn 0.00280 -0.00408 -0.00975
 N67 N 0.02389 -0.02302 -0.03113
 C68 C -0.02075 0.01949 -0.06090
 N69 N -0.01980 0.01864 -0.03276
 C70 C -0.03445 0.03479 -0.01983
 C71 C -0.05155 0.05218 -0.03528
 C72 C -0.03758 0.03664 -0.07719
 C73 C -0.00702 -0.04737 0.02806
 C74 C -0.02262 -0.06565 0.04468
 C75 C -0.06484 -0.04622 0.02552
 C76 C -0.04842 -0.02829 0.00930
 N77 N -0.01999 -0.02885 0.01124
 H78 H -0.00850 0.00690 -0.07081
 H79 H -0.03288 0.03406 0.00258
 H80 H -0.06294 0.06494 -0.02455
 H81 H -0.03849 0.03670 -0.09956
 H82 H 0.01558 -0.04767 0.02882
 H83 H -0.01188 -0.08014 0.05807
 H84 H -0.08734 -0.04495 0.02426
 H85 H -0.05845 -0.01383 -0.00463
 C86 C 0.05348 -0.05321 -0.06141
 C87 C 0.06072 0.05044 0.04803
 C88 C -0.05192 -0.06505 0.04375
 C89 C -0.05342 0.05316 -0.06437
 C90 C 0.05000 0.53263 0.51034
 H91 H 0.05009 0.53468 0.48800
 C92 C 0.06710 0.55002 0.52652
 H93 H 0.08068 0.56519 0.51647
 C94 C 0.03187 0.51045 0.55047
 H95 H 0.01761 0.49545 0.55971
 C96 C 0.04864 0.52739 0.56744
 H97 H 0.04707 0.52516 0.58962
 N98 N 0.03293 0.51325 0.52247
 C99 C 0.01504 0.45465 0.46151
 H100 H -0.00770 0.45286 0.46022
 C101 C 0.02918 0.43927 0.44589
 H102 H 0.01714 0.42552 0.43272
 C103 C 0.05826 0.47426 0.48097
 H104 H 0.06953 0.48771 0.49488
 C105 C 0.07326 0.45924 0.46575
 H106 H 0.09601 0.46170 0.46774
 Zn107 Zn 0.00877 0.49186 0.49889
 N108 N 0.02967 0.47195 0.47835
 C109 C -0.01294 0.51494 0.44680
 N110 N -0.01283 0.51464 0.47485
 C111 C -0.02737 0.53155 0.48687
 C112 C -0.04329 0.54933 0.47055
 C113 C -0.02864 0.53241 0.42966
 C114 C -0.00284 0.44962 0.53762
 C115 C -0.01932 0.43180 0.55392
 C116 C -0.06063 0.45158 0.53281
 C117 C -0.04336 0.46904 0.51696
 N118 N -0.01498 0.46804 0.51994
 H119 H -0.00067 0.50185 0.43762
 H120 H -0.02661 0.53112 0.50924
 H121 H -0.05510 0.56230 0.48055
 H122 H -0.02828 0.53254 0.40739
 H123 H 0.01974 0.44895 0.53920
 H124 H -0.00926 0.41732 0.56791
 H125 H -0.08311 0.45313 0.53061
 H126 H -0.05271 0.48340 0.50237
 C127 C 0.05871 0.44153 0.44781
 C128 C 0.06648 0.54759 0.55549
 C129 C -0.04864 0.43276 0.55176
 C130 C -0.04410 0.54991 0.44152
 C131 C 0.54372 0.03518 0.49855
 H132 H 0.54190 0.03870 0.47621
 C133 C 0.56116 0.05225 0.51482
 H134 H 0.57301 0.06874 0.50480
 C135 C 0.53042 0.00927 0.53865
 H136 H 0.51825 -0.00745 0.54782
 C137 C 0.54762 0.02582 0.55571
 H138 H 0.54825 0.02183 0.57799
 N139 N 0.52873 0.01426 0.51065
 C140 C 0.51144 -0.04513 0.45053
 H141 H 0.48871 -0.04768 0.44909
 C142 C 0.52636 -0.06047 0.43560
 H143 H 0.51493 -0.07483 0.42275
 C144 C 0.55388 -0.02407 0.46998
 H145 H 0.56457 -0.01003 0.48357
 C146 C 0.56963 -0.03901 0.45545
 H147 H 0.59235 -0.03594 0.45770
 Zn148 Zn 0.50417 -0.00720 0.48763
 N149 N 0.52530 -0.02723 0.46719
 C150 C 0.47756 0.01213 0.43568
 N151 N 0.48209 0.01525 0.46335
 C152 C 0.47179 0.03538 0.47466
 C153 C 0.45564 0.05289 0.45820
 C154 C 0.46142 0.02918 0.41844
 C155 C 0.48452 -0.05613 0.51356
 C156 C 0.46747 -0.07312 0.53014
 C157 C 0.44269 -0.03636 0.53940
 C158 C 0.46022 -0.02008 0.52270
 N159 N 0.48052 -0.03013 0.50997
 H160 H 0.48649 -0.00344 0.42679
 H161 H 0.47641 0.03808 0.49649
 H162 H 0.44729 0.06849 0.46778
 H163 H 0.45815 0.02646 0.39647
 H164 H 0.50114 -0.06374 0.50384
 H165 H 0.47080 -0.09378 0.53248
 H166 H 0.42689 -0.02786 0.54958
 H167 H 0.45765 0.00063 0.52011
 C168 C 0.55588 -0.05751 0.43797
 C169 C 0.56315 0.04775 0.54383
 C170 C 0.44615 -0.06329 0.54326
 C171 C 0.45017 0.04986 0.42970
 C172 C 0.55063 0.53592 0.00675
 H173 H 0.55079 0.53819 -0.01559
 C174 C 0.56840 0.55258 0.02321
 H175 H 0.58252 0.56744 0.01338
 C176 C 0.53183 0.51384 0.04659
 H177 H 0.51708 0.49918 0.05564
 C178 C 0.54924 0.53005 0.06382
 H179 H 0.54766 0.52759 0.08600
 N180 N 0.53297 0.51688 0.01861
 C181 C 0.51408 0.45879 -0.04283
 H182 H 0.49134 0.45757 -0.04456
 C183 C 0.52806 0.44301 -0.05817
 H184 H 0.51590 0.42993 -0.07200
 C185 C 0.55745 0.47748 -0.02272
 H186 H 0.56884 0.49055 -0.00849
 C187 C 0.57229 0.46208 -0.03767
 H188 H 0.59502 0.46352 -0.03474
 Zn189 Zn 0.50837 0.49604 -0.00517
 N190 N 0.52887 0.47580 -0.02577
 C191 C 0.48612 0.51943 -0.05703
 N192 N 0.48706 0.51926 -0.02893
 C193 C 0.47303 0.53628 -0.01651
 C194 C 0.45644 0.55378 -0.03243
 C195 C 0.46979 0.53668 -0.07379
 C196 C 0.49585 0.45398 0.03365
 C197 C 0.47902 0.43690 0.05036
 C198 C 0.43832 0.45761 0.02916
 C199 C 0.45592 0.47427 0.01289
 N200 N 0.48420 0.47258 0.01582
 H201 H 0.49789 0.50615 -0.06654
 H202 H 0.47457 0.53605 0.00588
 H203 H 0.44545 0.56716 -0.02210
 H204 H 0.46877 0.53614 -0.09610
 H205 H 0.51837 0.45280 0.03528
 H206 H 0.48880 0.42281 0.06506
 H207 H 0.41588 0.45934 0.02657
 H208 H 0.44690 0.48860 -0.00198
 C209 C 0.55758 0.44459 -0.05574
 C210 C 0.56782 0.54977 0.05217
 C211 C 0.44986 0.43885 0.04849
 C212 C 0.45445 0.55398 -0.06148
 C213 C 0.18686 -0.19589 -0.16047
 C214 C 0.17301 -0.17567 -0.17527
 C215 C 0.17521 -0.17103 -0.20379
 C216 C 0.19159 -0.18625 -0.21736
 C217 C 0.20651 -0.20612 -0.20258
 C218 C 0.20327 -0.21115 -0.17398
 C219 C 0.15662 -0.15968 -0.16113
 C220 C 0.14313 -0.14625 -0.14907
 C221 C 0.12760 -0.13049 -0.13472
 C222 C 0.11455 -0.11703 -0.12224
 C223 C 0.09920 -0.10098 -0.10708
 C224 C 0.07504 -0.09015 -0.11966
 C225 C 0.06015 -0.07459 -0.10485
 C226 C 0.06930 -0.06963 -0.07725
 C227 C 0.09363 -0.08061 -0.06482
 C228 C 0.10845 -0.09617 -0.07964
 H229 H 0.18490 -0.19993 -0.13845
 H230 H 0.16430 -0.15563 -0.21554
 H231 H 0.19273 -0.18242 -0.23951
 H232 H 0.21283 -0.22699 -0.16181
 H233 H 0.06773 -0.09369 -0.14091
 H234 H 0.04170 -0.06617 -0.11510
 H235 H 0.10098 -0.07749 -0.04349
 H236 H 0.12708 -0.10452 -0.06968
 C237 C 0.19932 0.31306 0.33782
 C238 C 0.17423 0.32261 0.32599
 C239 C 0.16440 0.31722 0.29888
 C240 C 0.17936 0.30200 0.28379
 C241 C 0.20413 0.29137 0.29579
 C242 C 0.21432 0.29784 0.32279
 C243 C 0.15886 0.33826 0.34158
 C244 C 0.14609 0.35133 0.35478
 C245 C 0.13123 0.36659 0.37036
 C246 C 0.11860 0.37961 0.38375
 C247 C 0.10357 0.39513 0.39982
 C248 C 0.07917 0.40605 0.38802
 C249 C 0.06456 0.42112 0.40362
 C250 C 0.07420 0.42548 0.43125
 C251 C 0.09877 0.41441 0.44291
 C252 C 0.11333 0.39933 0.42728
 H253 H 0.20745 0.31759 0.35860
 H254 H 0.14525 0.32493 0.28931
 H255 H 0.17160 0.29873 0.26261
 H256 H 0.23413 0.29166 0.33231
 H257 H 0.07148 0.40298 0.36675
 H258 H 0.04594 0.42966 0.39394
 H259 H 0.10652 0.41711 0.46423
 H260 H 0.13215 0.39089 0.43664
 C261 C 0.67168 -0.18280 0.29796
 C262 C 0.67872 -0.17844 0.32588
 C263 C 0.70211 -0.18932 0.34002
 C264 C 0.71826 -0.20476 0.32645
 C265 C 0.71098 -0.20997 0.29848
 C266 C 0.68778 -0.19823 0.28433
 C267 C 0.66222 -0.16252 0.33996
 C268 C 0.64851 -0.14922 0.35192
 C269 C 0.63262 -0.13368 0.36613
 C270 C 0.61916 -0.12044 0.37842
 C271 C 0.60325 -0.10465 0.39330
 C272 C 0.61227 -0.09933 0.42065
 C273 C 0.59689 -0.08400 0.43518
 C274 C 0.57223 -0.07378 0.42252
 C275 C 0.56332 -0.07927 0.39501
 C276 C 0.57876 -0.09459 0.38051
 H277 H 0.65382 -0.17418 0.28668
 H278 H 0.70804 -0.18567 0.36152
 H279 H 0.73665 -0.21197 0.33798
 H280 H 0.68213 -0.20098 0.26259
 H281 H 0.63116 -0.10709 0.43078
 H282 H 0.60408 -0.08045 0.45644
 H283 H 0.54462 -0.07142 0.38459
 H284 H 0.57163 -0.09854 0.35932
 C285 C 0.65533 0.30277 -0.19127
 C286 C 0.67056 0.32203 -0.17595
 C287 C 0.69978 0.32566 -0.17636
 C288 C 0.71365 0.31028 -0.19227
 C289 C 0.69857 0.29113 -0.20837
 C290 C 0.66913 0.28735 -0.20722
 C291 C 0.65617 0.33803 -0.15983
 C292 C 0.64395 0.35143 -0.14647
 C293 C 0.62951 0.36712 -0.13097
 C294 C 0.61709 0.38054 -0.11782
 C295 C 0.60220 0.39658 -0.10220
 C296 C 0.61221 0.42268 -0.09881
 C297 C 0.59772 0.43830 -0.08371
 C298 C 0.57296 0.42801 -0.07181
 C299 C 0.56307 0.40173 -0.07536
 C300 C 0.57761 0.38614 -0.09045
 H301 H 0.63270 0.29961 -0.19084
 H302 H 0.71185 0.34039 -0.16440
 H303 H 0.73632 0.31339 -0.19214
 H304 H 0.65638 0.27245 -0.21812
 H305 H 0.63117 0.43098 -0.10790
 H306 H 0.60567 0.45853 -0.08166
 H307 H 0.54430 0.39313 -0.06616
 H308 H 0.56971 0.36594 -0.09290
 C309 C -0.18571 0.20491 -0.20473
 C310 C -0.19231 0.19015 -0.18030
 C311 C -0.21767 0.19284 -0.16906
 C312 C -0.23637 0.21017 -0.18216
 C313 C -0.22995 0.22507 -0.20673
 C314 C -0.20442 0.22226 -0.21789
 C315 C -0.17315 0.17228 -0.16663
 C316 C -0.15741 0.15723 -0.15480
 C317 C -0.13934 0.13953 -0.14050
 C318 C -0.12420 0.12438 -0.12788
 C319 C -0.10650 0.10626 -0.11230
 C320 C -0.11560 0.09243 -0.08827
 C321 C -0.09841 0.07509 -0.07278
 C322 C -0.07180 0.07132 -0.08113
 C323 C -0.06290 0.08518 -0.10544
 C324 C -0.08015 0.10256 -0.12090
 H325 H -0.16609 0.20306 -0.21355
 H326 H -0.22303 0.18146 -0.15020
 H327 H -0.25603 0.21161 -0.17327
 H328 H -0.19868 0.23376 -0.23653
 H329 H -0.13600 0.09508 -0.08146
 H330 H -0.10604 0.06443 -0.05441
 H331 H -0.04242 0.08293 -0.11224
 H332 H -0.07287 0.11322 -0.13944
 C333 C -0.19340 0.68380 0.29710
 C334 C -0.17728 0.68926 0.32180
 C335 C -0.17962 0.71268 0.33389
 C336 C -0.19821 0.73046 0.32155
 C337 C -0.21475 0.72503 0.29690
 C338 C -0.21200 0.70160 0.28468
 C339 C -0.15892 0.67059 0.33527
 C340 C -0.14373 0.65509 0.34717
 C341 C -0.12616 0.63714 0.36178
 C342 C -0.11132 0.62197 0.37481
 C343 C -0.09382 0.60406 0.39097
 C344 C -0.07802 0.61205 0.41495
 C345 C -0.06168 0.59452 0.43126
 C346 C -0.06093 0.56870 0.42379
 C347 C -0.07666 0.56093 0.39948
 C348 C -0.09303 0.57851 0.38321
 H349 H -0.19186 0.66565 0.28764
 H350 H -0.16723 0.71712 0.35299
 H351 H -0.19959 0.74850 0.33125
 H352 H -0.22475 0.69666 0.26596
 H353 H -0.07845 0.63180 0.42114
 H354 H -0.04948 0.60121 0.44962
 H355 H -0.07677 0.54112 0.39335
 H356 H -0.10528 0.57209 0.36474
 C357 C 0.29705 0.18393 0.28937
 C358 C 0.31305 0.18824 0.31442
 C359 C 0.31065 0.21096 0.32778
 C360 C 0.29222 0.22922 0.31628
 C361 C 0.27592 0.22501 0.29121
 C362 C 0.27860 0.20222 0.27778
 C363 C 0.33157 0.16924 0.32685
 C364 C 0.34705 0.15360 0.33795
 C365 C 0.36510 0.13561 0.35170
 C366 C 0.38046 0.12053 0.36409
 C367 C 0.39870 0.10287 0.37963
 C368 C 0.41887 0.11237 0.39987
 C369 C 0.43584 0.09519 0.41590
 C370 C 0.43286 0.06822 0.41192
 C371 C 0.41279 0.05889 0.39122
 C372 C 0.39579 0.07613 0.37522
 H373 H 0.29865 0.16634 0.27892
 H374 H 0.32296 0.21451 0.34717
 H375 H 0.29089 0.24675 0.32691
 H376 H 0.26602 0.19822 0.25869
 H377 H 0.42132 0.13304 0.40344
 H378 H 0.45137 0.10303 0.43137
 H379 H 0.40979 0.03820 0.38787
 H380 H 0.38015 0.06855 0.35968
 C381 C 0.32139 0.70422 -0.20384
 C382 C 0.31628 0.69089 -0.17826
 C383 C 0.29251 0.69538 -0.16523
 C384 C 0.27401 0.71323 -0.17759
 C385 C 0.27905 0.72696 -0.20321
 C386 C 0.30286 0.72209 -0.21627
 C387 C 0.33544 0.67275 -0.16514
 C388 C 0.35118 0.65757 -0.15356
 C389 C 0.36923 0.63982 -0.13934
 C390 C 0.38430 0.62467 -0.12662
 C391 C 0.40183 0.60661 -0.11072
 C392 C 0.39276 0.59355 -0.08629
 C393 C 0.40981 0.57636 -0.07039
 C394 C 0.43625 0.57199 -0.07870
 C395 C 0.44513 0.58506 -0.10342
 C396 C 0.42802 0.60229 -0.11930
 H397 H 0.33975 0.70092 -0.21411
 H398 H 0.28826 0.68506 -0.14549
 H399 H 0.25558 0.71600 -0.16721
 H400 H 0.30753 0.73233 -0.23580
 H401 H 0.37250 0.59670 -0.07949
 H402 H 0.40219 0.56630 -0.05171
 H403 H 0.46548 0.58231 -0.11021
 H404 H 0.43528 0.61237 -0.13814
 C405 C -0.17773 -0.20702 0.20220
 C406 C -0.18533 -0.18416 0.18677
 C407 C -0.21064 -0.17397 0.19068
 C408 C -0.22821 -0.18646 0.21004
 C409 C -0.22067 -0.20934 0.22579
 C410 C -0.19531 -0.21958 0.22158
 C411 C -0.16701 -0.17077 0.16731
 C412 C -0.15185 -0.15906 0.15115
 C413 C -0.13430 -0.14478 0.13240
 C414 C -0.11948 -0.13211 0.11656
 C415 C -0.10198 -0.11640 0.09789
 C416 C -0.11196 -0.11092 0.07023
 C417 C -0.09553 -0.09456 0.05246
 C418 C -0.06887 -0.08345 0.06216
 C419 C -0.05886 -0.08941 0.08990
 C420 C -0.07534 -0.10575 0.10764
 H421 H -0.15811 -0.21501 0.19943
 H422 H -0.21676 -0.15631 0.17881
 H423 H -0.24780 -0.17832 0.21250
 H424 H -0.18872 -0.23693 0.23366
 H425 H -0.13256 -0.11906 0.06247
 H426 H -0.10366 -0.09062 0.03113
 H427 H -0.03861 -0.08088 0.09811
 H428 H -0.06747 -0.10975 0.12905
 C429 C -0.19744 0.28780 0.68734
 C430 C -0.19002 0.31467 0.68809
 C431 C -0.20177 0.32886 0.70675
 C432 C -0.22104 0.31636 0.72446
 C433 C -0.22922 0.28918 0.72391
 C434 C -0.21671 0.27514 0.70504
 C435 C -0.17052 0.32789 0.66966
 C436 C -0.15440 0.33950 0.65435
 C437 C -0.13576 0.35370 0.63657
 C438 C -0.12007 0.36631 0.62152
 C439 C -0.10159 0.38193 0.60370
 C440 C -0.07528 0.39242 0.61455
 C441 C -0.05787 0.40862 0.59757
 C442 C -0.06659 0.41461 0.56948
 C443 C -0.09293 0.40367 0.55869
 C444 C -0.11029 0.38746 0.57571
 H445 H -0.18847 0.27660 0.67288
 H446 H -0.19596 0.34968 0.70772
 H447 H -0.22868 0.32828 0.73898
 H448 H -0.22197 0.25453 0.70290
 H449 H -0.06839 0.38839 0.63623
 H450 H -0.03789 0.41700 0.60659
 H451 H -0.10008 0.40762 0.53708
 H452 H -0.13062 0.37944 0.56709
 C453 C 0.31659 -0.20534 0.69848
 C454 C 0.31007 -0.18132 0.68487
 C455 C 0.28606 -0.17001 0.69077
 C456 C 0.26884 -0.18246 0.71046
 C457 C 0.27544 -0.20641 0.72469
 C458 C 0.29935 -0.21784 0.71819
 C459 C 0.32825 -0.16789 0.66530
 C460 C 0.34336 -0.15610 0.64913
 C461 C 0.36090 -0.14171 0.63044
 C462 C 0.37573 -0.12895 0.61468
 C463 C 0.39327 -0.11317 0.59610
 C464 C 0.38181 -0.09366 0.57787
 C465 C 0.39893 -0.07762 0.56050
 C466 C 0.42782 -0.08087 0.56113
 C467 C 0.43909 -0.10074 0.57931
 C468 C 0.42191 -0.11675 0.59670
 H469 H 0.33516 -0.21427 0.69408
 H470 H 0.28071 -0.15149 0.68025
 H471 H 0.25023 -0.17336 0.71435
 H472 H 0.30518 -0.23612 0.72865
 H473 H 0.35965 -0.09073 0.57722
 H474 H 0.38955 -0.06275 0.54647
 H475 H 0.46130 -0.10352 0.58053
 H476 H 0.43103 -0.13171 0.61083
 C477 C 0.30805 0.33116 0.21357
 C478 C 0.31249 0.32051 0.18888
 C479 C 0.29824 0.29654 0.18222
 C480 C 0.27946 0.28336 0.20008
 C481 C 0.27454 0.29402 0.22479
 C482 C 0.28926 0.31802 0.23142
 C483 C 0.33126 0.33448 0.17019
 C484 C 0.34675 0.34656 0.15458
 C485 C 0.36462 0.36118 0.13637
 C486 C 0.37963 0.37411 0.12089
 C487 C 0.39722 0.39012 0.10254
 C488 C 0.41900 0.37951 0.09103
 C489 C 0.43612 0.39528 0.07336
 C490 C 0.43161 0.42187 0.06697
 C491 C 0.40963 0.43229 0.07865
 C492 C 0.39258 0.41651 0.09629
 H493 H 0.31906 0.34966 0.21900
 H494 H 0.30147 0.28814 0.16312
 H495 H 0.26846 0.26513 0.19417
 H496 H 0.28653 0.32657 0.25055
 H497 H 0.42274 0.35908 0.09570
 H498 H 0.45267 0.38662 0.06448
 H499 H 0.40589 0.45276 0.07450
 H500 H 0.37585 0.42495 0.10517
 C501 C 0.16586 0.19070 0.21314
 C502 C 0.17761 0.18715 0.18853
 C503 C 0.20255 0.20177 0.18205
 C504 C 0.21554 0.22006 0.19999
 C505 C 0.20372 0.22409 0.22460
 C506 C 0.17881 0.20899 0.23108
 C507 C 0.16382 0.16881 0.16975
 C508 C 0.15196 0.15359 0.15402
 C509 C 0.13771 0.13593 0.13566
 C510 C 0.12522 0.12094 0.12004
 C511 C 0.10990 0.10316 0.10153
 C512 C 0.09670 0.11285 0.07638
 C513 C 0.08101 0.09570 0.05880
 C514 C 0.07826 0.06857 0.06619
 C515 C 0.09186 0.05900 0.09140
 C516 C 0.10756 0.07620 0.10894
 H517 H 0.14663 0.17938 0.21844
 H518 H 0.21183 0.19920 0.16303
 H519 H 0.23450 0.23131 0.19422
 H520 H 0.16942 0.21105 0.25014
 H521 H 0.09827 0.13371 0.07050
 H522 H 0.07049 0.10372 0.03973
 H523 H 0.09044 0.03821 0.09751
 H524 H 0.11772 0.06848 0.12835
 C525 C 0.20542 0.70437 0.68552
 C526 C 0.18087 0.68916 0.69219
 C527 C 0.16927 0.69220 0.71703
 C528 C 0.18212 0.71036 0.73515
 C529 C 0.20680 0.72574 0.72864
 C530 C 0.21833 0.72255 0.70364
 C531 C 0.16742 0.67052 0.67354
 C532 C 0.15585 0.65489 0.65811
 C533 C 0.14192 0.63661 0.64025
 C534 C 0.12969 0.62102 0.62514
 C535 C 0.11468 0.60248 0.60726
 C536 C 0.11224 0.57575 0.61585
 C537 C 0.09685 0.55784 0.59890
 C538 C 0.08366 0.56645 0.57310
 C539 C 0.08649 0.59334 0.56455
 C540 C 0.10188 0.61121 0.58154
 H541 H 0.21451 0.70226 0.66628
 H542 H 0.15031 0.68049 0.72243
 H543 H 0.17295 0.71210 0.75442
 H544 H 0.23705 0.73439 0.69783
 H545 H 0.12209 0.56877 0.63571
 H546 H 0.09535 0.53724 0.60592
 H547 H 0.07628 0.60065 0.54501
 H548 H 0.10352 0.63187 0.57475
 C549 C 0.70262 0.20119 0.67848
 C550 C 0.67770 0.18595 0.68387
 C551 C 0.66477 0.18886 0.70800
 C552 C 0.67656 0.20702 0.72658
 C553 C 0.70150 0.22256 0.72127
 C554 C 0.71448 0.21937 0.69709
 C555 C 0.66502 0.16760 0.66456
 C556 C 0.65382 0.15227 0.64862
 C557 C 0.64006 0.13440 0.63021
 C558 C 0.62779 0.11922 0.61467
 C559 C 0.61255 0.10123 0.59634
 C560 C 0.61235 0.07417 0.60285
 C561 C 0.59656 0.05673 0.58563
 C562 C 0.58074 0.06616 0.56164
 C563 C 0.58135 0.09340 0.55513
 C564 C 0.59713 0.11079 0.57239
 H565 H 0.71274 0.19917 0.65980
 H566 H 0.64551 0.17713 0.71242
 H567 H 0.66630 0.20872 0.74524
 H568 H 0.73342 0.23128 0.69223
 H569 H 0.62421 0.06655 0.62135
 H570 H 0.59680 0.03588 0.59102
 H571 H 0.56910 0.10130 0.53705
 H572 H 0.59700 0.13171 0.56724
 C573 C 0.71074 0.70077 0.18622
 C574 C 0.68660 0.68494 0.19292
 C575 C 0.67536 0.68702 0.21818
 C576 C 0.68807 0.70497 0.23660
 C577 C 0.71222 0.72111 0.22996
 C578 C 0.72351 0.71874 0.20464
 C579 C 0.67297 0.66691 0.17373
 C580 C 0.66113 0.65190 0.15778
 C581 C 0.64678 0.63443 0.13928
 C582 C 0.63411 0.61957 0.12364
 C583 C 0.61848 0.60191 0.10520
 C584 C 0.61495 0.57508 0.11309
 C585 C 0.59879 0.55806 0.09570
 C586 C 0.58592 0.56767 0.07015
 C587 C 0.58990 0.59463 0.06225
 C588 C 0.60605 0.61163 0.07969
 H589 H 0.71954 0.69941 0.16666
 H590 H 0.65671 0.67482 0.22360
 H591 H 0.67912 0.70607 0.25611
 H592 H 0.74181 0.73116 0.19874
 H593 H 0.62450 0.56735 0.13279
 H594 H 0.59642 0.53736 0.10221
 H595 H 0.57997 0.60269 0.04290
 H596 H 0.60854 0.63239 0.07343
   
