data_POSCAR
  _audit_creation_date              2014-09-24
  _audit_creation_method            'ToBaCCo'
  _symmetry_space_group_name_H-M    'P1'
  _symmetry_Int_Tables_number       1
  _symmetry_cell_setting            triclinic
  loop_
  _symmetry_equiv_pos_as_xyz
 x,y,z
_cell_length_a 52.1509
_cell_length_b 52.1573
_cell_length_c 49.9073
_cell_angle_alpha 89.972400
_cell_angle_beta 89.961600
_cell_angle_gamma 90.002700
loop_
  _atom_site_label
  _atom_site_type_symbol
  _atom_site_fract_x
  _atom_site_fract_y
  _atom_site_fract_z
O1 O -0.02468 0.28275 0.02534
 O2 O 0.02583 0.28280 -0.02621
 O3 O -0.02410 0.28243 -0.02683
 O4 O 0.02525 0.28260 0.02597
 O5 O 0.02531 0.24019 0.02600
 O6 O -0.02397 0.24002 -0.02672
 O7 O 0.02596 0.24040 -0.02617
 O8 O -0.02462 0.24034 0.02545
 Cu9 Cu 0.00057 0.28692 -0.00044
 Cu10 Cu 0.00068 0.23596 -0.00035
 C11 C -0.03318 0.26156 0.03410
 C12 C 0.03443 0.26163 -0.03490
 C13 C -0.03236 0.26117 -0.03567
 C14 C 0.03360 0.26140 0.03489
 O15 O 0.47441 0.78773 0.52559
 O16 O 0.52499 0.78761 0.47402
 O17 O 0.47499 0.78770 0.47344
 O18 O 0.52441 0.78766 0.52616
 O19 O 0.52433 0.74526 0.52621
 O20 O 0.47493 0.74530 0.47351
 O21 O 0.52491 0.74521 0.47409
 O22 O 0.47435 0.74533 0.52563
 Cu23 Cu 0.49971 0.79196 0.49980
 Cu24 Cu 0.49962 0.74100 0.49987
 C25 C 0.46581 0.76654 0.53427
 C26 C 0.53353 0.76638 0.46541
 C27 C 0.46658 0.76650 0.46462
 C28 C 0.53276 0.76645 0.53504
 O29 O 1.02598 0.72226 0.02562
 O30 O 0.97542 0.72244 -0.02591
 O31 O 1.02532 0.72226 -0.02663
 O32 O 0.97608 0.72239 0.02631
 O33 O 0.97620 0.76479 0.02632
 O34 O 1.02546 0.76465 -0.02665
 O35 O 0.97554 0.76484 -0.02592
 O36 O 1.02611 0.76466 0.02562
 Cu37 Cu 1.00069 0.71806 -0.00015
 Cu38 Cu 1.00085 0.76901 -0.00016
 C39 C 1.03454 0.74343 0.03438
 C40 C 0.96697 0.74366 -0.03465
 C41 C 1.03366 0.74343 -0.03563
 C42 C 0.96786 0.74360 0.03529
 O43 O 0.52527 0.21556 0.52595
 O44 O 0.47485 0.21550 0.47439
 O45 O 0.52478 0.21586 0.47378
 O46 O 0.47534 0.21572 0.52657
 O47 O 0.47529 0.25812 0.52655
 O48 O 0.52466 0.25827 0.47383
 O49 O 0.47474 0.25790 0.47437
 O50 O 0.52521 0.25796 0.52600
 Cu51 Cu 0.50007 0.21138 0.50017
 Cu52 Cu 0.49997 0.26234 0.50019
 C53 C 0.53375 0.23675 0.53469
 C54 C 0.46629 0.23667 0.46566
 C55 C 0.53306 0.23711 0.46490
 C56 C 0.46699 0.23692 0.53547
 O57 O 0.71468 -0.02540 0.02901
 O58 O 0.71393 0.02520 -0.02247
 O59 O 0.71318 -0.02478 -0.02308
 O60 O 0.71562 0.02450 0.02970
 O61 O 0.75800 0.02380 0.02825
 O62 O 0.75557 -0.02543 -0.02449
 O63 O 0.75630 0.02453 -0.02391
 O64 O 0.75706 -0.02609 0.02758
 Cu65 Cu 0.71007 -0.00003 0.00342
 Cu66 Cu 0.76101 -0.00085 0.00170
 C67 C 0.73599 -0.03431 0.03695
 C68 C 0.73498 0.03342 -0.03188
 C69 C 0.73398 -0.03348 -0.03262
 C70 C 0.73723 0.03244 0.03790
 O71 O 0.21957 0.47406 0.52227
 O72 O 0.22136 0.52445 0.47059
 O73 O 0.22113 0.47457 0.47012
 O74 O 0.22006 0.52401 0.52284
 O75 O 0.26245 0.52369 0.52404
 O76 O 0.26352 0.47427 0.47136
 O77 O 0.26375 0.52416 0.47178
 O78 O 0.26196 0.47373 0.52351
 Cu79 Cu 0.21626 0.49932 0.49635
 Cu80 Cu 0.26719 0.49895 0.49781
 C81 C 0.24046 0.46537 0.53159
 C82 C 0.24284 0.53275 0.46239
 C83 C 0.24251 0.46609 0.46184
 C84 C 0.24108 0.53217 0.53237
 O85 O 0.28506 1.02555 0.02219
 O86 O 0.28419 0.97509 -0.02941
 O87 O 0.28340 1.02502 -0.03000
 O88 O 0.28563 0.97556 0.02268
 O89 O 0.24324 0.97504 0.02406
 O90 O 0.24102 1.02446 -0.02858
 O91 O 0.24180 0.97454 -0.02802
 O92 O 0.24269 1.02501 0.02360
 Cu93 Cu 0.28885 1.00039 -0.00376
 Cu94 Cu 0.23791 0.99973 -0.00208
 C95 C 0.26403 1.03381 0.03161
 C96 C 0.26285 0.96627 -0.03740
 C97 C 0.26183 1.03306 -0.03821
 C98 C 0.26479 0.96689 0.03219
 O99 O 0.77924 0.52452 0.52957
 O100 O 0.78126 0.47417 0.47794
 O101 O 0.78058 0.52410 0.47734
 O102 O 0.77966 0.47465 0.53007
 O103 O 0.73727 0.47419 0.52880
 O104 O 0.73819 0.52361 0.47610
 O105 O 0.73887 0.47368 0.47667
 O106 O 0.73685 0.52407 0.52834
 Cu107 Cu 0.78446 0.49943 0.50385
 Cu108 Cu 0.73352 0.49886 0.50234
 C109 C 0.75772 0.53273 0.53774
 C110 C 0.76041 0.46540 0.46862
 C111 C 0.75953 0.53217 0.46779
 C112 C 0.75830 0.46609 0.53834
 C113 C 0.24349 0.25760 0.24748
 C114 C 0.26173 0.23885 0.24747
 C115 C 0.26312 0.21929 0.22586
 C116 C 0.28119 0.23700 0.26910
 C117 C 0.24382 0.27879 0.26738
 C118 C 0.22224 0.25781 0.22768
 C119 C 0.26313 0.19312 0.23248
 C120 C 0.26397 0.17453 0.21234
 C121 C 0.26501 0.18190 0.18539
 C122 C 0.26549 0.20796 0.17865
 C123 C 0.26468 0.22659 0.19878
 C124 C 0.27377 0.23549 0.29614
 C125 C 0.29230 0.23458 0.31635
 C126 C 0.31839 0.23490 0.30971
 C127 C 0.32588 0.23579 0.28278
 C128 C 0.30738 0.23673 0.26257
 C129 C 0.26560 0.29439 0.27051
 C130 C 0.26579 0.31394 0.28969
 C131 C 0.24415 0.31824 0.30569
 C132 C 0.22224 0.30309 0.30228
 C133 C 0.22203 0.28354 0.28316
 C134 C 0.21791 0.27976 0.21203
 C135 C 0.19820 0.28009 0.19309
 C136 C 0.18250 0.25856 0.18975
 C137 C 0.18641 0.23676 0.20562
 C138 C 0.20611 0.23642 0.22460
 H139 H 0.26209 0.18711 0.25323
 H140 H 0.26366 0.15442 0.21778
 H141 H 0.26643 0.21388 0.15786
 H142 H 0.26520 0.24667 0.19328
 H143 H 0.25366 0.23519 0.30156
 H144 H 0.28630 0.23377 0.33712
 H145 H 0.31347 0.23774 0.24184
 H146 H 0.28242 0.29136 0.25819
 H147 H 0.28281 0.32562 0.29207
 H148 H 0.20537 0.30630 0.31452
 H149 H 0.20501 0.27182 0.28093
 H150 H 0.23003 0.29649 0.21423
 H151 H 0.19529 0.29707 0.18095
 H152 H 0.17429 0.22004 0.20328
 H153 H 0.20882 0.21949 0.23685
 H154 H 0.34602 0.23599 0.27743
 C155 C 0.76182 0.73979 0.25237
 C156 C 0.74317 0.75812 0.25223
 C157 C 0.74165 0.77776 0.23072
 C158 C 0.72335 0.75953 0.27358
 C159 C 0.76168 0.71848 0.27214
 C160 C 0.78320 0.74012 0.23268
 C161 C 0.74118 0.80389 0.23747
 C162 C 0.74006 0.82256 0.21744
 C163 C 0.73919 0.81532 0.19045
 C164 C 0.73922 0.78930 0.18357
 C165 C 0.74031 0.77058 0.20360
 C166 C 0.73028 0.76108 0.30075
 C167 C 0.71138 0.76228 0.32060
 C168 C 0.68541 0.76219 0.31348
 C169 C 0.67841 0.76106 0.28643
 C170 C 0.69727 0.75983 0.26658
 C171 C 0.74013 0.70251 0.27501
 C172 C 0.74000 0.68298 0.29421
 C173 C 0.76149 0.67905 0.31051
 C174 C 0.78322 0.69451 0.30731
 C175 C 0.78336 0.71405 0.28815
 C176 C 0.78788 0.71849 0.21667
 C177 C 0.80735 0.71889 0.19742
 C178 C 0.82249 0.74084 0.19414
 C179 C 0.81833 0.76227 0.21047
 C180 C 0.79888 0.76188 0.22976
 H181 H 0.74204 0.80979 0.25826
 H182 H 0.73998 0.84265 0.22298
 H183 H 0.73842 0.78348 0.16275
 H184 H 0.74015 0.75053 0.19800
 H185 H 0.75029 0.76139 0.30654
 H186 H 0.71701 0.76329 0.34147
 H187 H 0.69154 0.75881 0.24575
 H188 H 0.72340 0.70530 0.26250
 H189 H 0.72312 0.67105 0.29643
 H190 H 0.79997 0.69158 0.31978
 H191 H 0.80021 0.72605 0.28612
 H192 H 0.77610 0.70149 0.21873
 H193 H 0.81043 0.70219 0.18493
 H194 H 0.83001 0.77931 0.20818
 H195 H 0.79589 0.77858 0.24225
 H196 H 0.65838 0.76105 0.28070
 C197 C 0.74306 0.24081 0.25203
 C198 C 0.76150 0.25935 0.25193
 C199 C 0.78098 0.26098 0.23026
 C200 C 0.76307 0.27893 0.27348
 C201 C 0.72192 0.24076 0.27199
 C202 C 0.74306 0.21964 0.23214
 C203 C 0.80717 0.26114 0.23677
 C204 C 0.82569 0.26199 0.21654
 C205 C 0.81823 0.26289 0.18962
 C206 C 0.79214 0.26329 0.18300
 C207 C 0.77359 0.26248 0.20322
 C208 C 0.76466 0.27168 0.30056
 C209 C 0.76540 0.29032 0.32066
 C210 C 0.76485 0.31637 0.31387
 C211 C 0.76386 0.32371 0.28691
 C212 C 0.76308 0.30509 0.26680
 C213 C 0.70591 0.26224 0.27515
 C214 C 0.68626 0.26200 0.29422
 C215 C 0.68226 0.24022 0.31010
 C216 C 0.69785 0.21862 0.30671
 C217 C 0.71751 0.21884 0.28768
 C218 C 0.72113 0.21515 0.21652
 C219 C 0.72100 0.19558 0.19742
 C220 C 0.74270 0.18016 0.19389
 C221 C 0.76448 0.18420 0.20974
 C222 C 0.76463 0.20377 0.22888
 H223 H 0.81324 0.26015 0.25749
 H224 H 0.84582 0.26174 0.22188
 H225 H 0.78616 0.26411 0.16223
 H226 H 0.75349 0.26287 0.19781
 H227 H 0.76516 0.25160 0.30610
 H228 H 0.76628 0.28444 0.34146
 H229 H 0.76203 0.31106 0.24604
 H230 H 0.70868 0.27915 0.26288
 H231 H 0.67422 0.27877 0.29660
 H232 H 0.69488 0.20165 0.31885
 H233 H 0.72954 0.20205 0.28542
 H234 H 0.70427 0.22707 0.21885
 H235 H 0.70403 0.19256 0.18531
 H236 H 0.78133 0.17230 0.20725
 H237 H 0.78155 0.20661 0.24108
 H238 H 0.76349 0.34381 0.28144
 C239 C 0.26078 0.75938 0.24757
 C240 C 0.24232 0.74084 0.24743
 C241 C 0.22101 0.74112 0.22765
 C242 C 0.24253 0.71943 0.26709
 C243 C 0.28033 0.76088 0.26917
 C244 C 0.26235 0.77913 0.22617
 C245 C 0.20523 0.76280 0.22475
 C246 C 0.18570 0.76306 0.20556
 C247 C 0.18158 0.74158 0.18930
 C248 C 0.19686 0.71973 0.19252
 C249 C 0.21641 0.71946 0.21167
 C250 C 0.22081 0.71475 0.28300
 C251 C 0.22108 0.69520 0.30216
 C252 C 0.24298 0.68000 0.30547
 C253 C 0.26449 0.68418 0.28925
 C254 C 0.26424 0.70371 0.27004
 C255 C 0.30650 0.76139 0.26251
 C256 C 0.32509 0.76258 0.28262
 C257 C 0.31773 0.76347 0.30958
 C258 C 0.29167 0.76339 0.31636
 C259 C 0.27304 0.76224 0.29625
 C260 C 0.26389 0.77209 0.19902
 C261 C 0.26504 0.79090 0.17909
 C262 C 0.26495 0.81689 0.18611
 C263 C 0.26390 0.82400 0.21312
 C264 C 0.26271 0.80522 0.23306
 H265 H 0.20814 0.77952 0.23723
 H266 H 0.17390 0.78002 0.20334
 H267 H 0.19379 0.70298 0.18010
 H268 H 0.22826 0.70251 0.21371
 H269 H 0.20384 0.72656 0.28091
 H270 H 0.20430 0.69209 0.31456
 H271 H 0.28101 0.70670 0.25762
 H272 H 0.31250 0.76053 0.24175
 H273 H 0.34520 0.76270 0.27715
 H274 H 0.28576 0.76421 0.33716
 H275 H 0.25296 0.76238 0.30178
 H276 H 0.26414 0.75206 0.19332
 H277 H 0.26597 0.78519 0.15824
 H278 H 0.26388 0.84406 0.21877
 H279 H 0.26171 0.81103 0.25387
 H280 H 0.28150 0.67245 0.29154
 C281 C 0.75687 0.25753 0.75269
 C282 C 0.73850 0.23892 0.75270
 C283 C 0.71901 0.23723 0.73108
 C284 C 0.73698 0.21935 0.77429
 C285 C 0.77815 0.25756 0.77246
 C286 C 0.75666 0.27875 0.73282
 C287 C 0.69282 0.23712 0.73763
 C288 C 0.67431 0.23625 0.71742
 C289 C 0.68178 0.23528 0.69050
 C290 C 0.70787 0.23482 0.68384
 C291 C 0.72641 0.23566 0.70404
 C292 C 0.73549 0.22661 0.80137
 C293 C 0.73453 0.20797 0.82149
 C294 C 0.73479 0.18192 0.81473
 C295 C 0.73575 0.17458 0.78778
 C296 C 0.73674 0.19319 0.76765
 C297 C 0.79413 0.23606 0.77552
 C298 C 0.81391 0.23628 0.79442
 C299 C 0.81806 0.25806 0.81021
 C300 C 0.80250 0.27970 0.80691
 C301 C 0.78271 0.27949 0.78806
 C302 C 0.77846 0.28335 0.71699
 C303 C 0.77835 0.30292 0.69787
 C304 C 0.75654 0.31822 0.69452
 C305 C 0.73490 0.31407 0.71058
 C306 C 0.73500 0.29451 0.72975
 H307 H 0.68675 0.23817 0.75836
 H308 H 0.65417 0.23655 0.72279
 H309 H 0.71385 0.23395 0.66307
 H310 H 0.74652 0.23524 0.69861
 H311 H 0.73514 0.24669 0.80689
 H312 H 0.73366 0.21386 0.84229
 H313 H 0.73772 0.18720 0.74690
 H314 H 0.79124 0.21914 0.76332
 H315 H 0.82592 0.21948 0.79673
 H316 H 0.80559 0.29667 0.81898
 H317 H 0.77070 0.29631 0.78587
 H318 H 0.79539 0.27150 0.71917
 H319 H 0.79521 0.30601 0.68559
 H320 H 0.71797 0.32589 0.70824
 H321 H 0.71818 0.29158 0.74211
 H322 H 0.73590 0.15447 0.78232
 C323 C 0.23791 0.73989 0.74761
 C324 C 0.25640 0.75838 0.74769
 C325 C 0.27620 0.75992 0.72633
 C326 C 0.25777 0.77807 0.76916
 C327 C 0.21655 0.74007 0.76733
 C328 C 0.23816 0.71857 0.72786
 C329 C 0.30228 0.76039 0.73331
 C330 C 0.32112 0.76169 0.71344
 C331 C 0.31410 0.76272 0.68640
 C332 C 0.28812 0.76265 0.67929
 C333 C 0.26925 0.76138 0.69916
 C334 C 0.25920 0.77097 0.79630
 C335 C 0.26015 0.78973 0.81628
 C336 C 0.25996 0.81574 0.80932
 C337 C 0.25901 0.82292 0.78231
 C338 C 0.25802 0.80419 0.76233
 C339 C 0.20070 0.76170 0.77022
 C340 C 0.18131 0.76199 0.78958
 C341 C 0.17739 0.74057 0.80601
 C342 C 0.19268 0.71874 0.80275
 C343 C 0.21210 0.71844 0.78343
 C344 C 0.21647 0.71395 0.71192
 C345 C 0.21671 0.69441 0.69278
 C346 C 0.23857 0.67913 0.68951
 C347 C 0.26007 0.68326 0.70573
 C348 C 0.25984 0.70279 0.72492
 H349 H 0.30803 0.75944 0.75414
 H350 H 0.34116 0.76181 0.71916
 H351 H 0.28248 0.76357 0.65843
 H352 H 0.24923 0.76155 0.69339
 H353 H 0.25953 0.75092 0.80196
 H354 H 0.26102 0.78397 0.83711
 H355 H 0.25709 0.81005 0.74152
 H356 H 0.20352 0.77841 0.75766
 H357 H 0.16950 0.77894 0.79185
 H358 H 0.18977 0.70204 0.81532
 H359 H 0.22401 0.70154 0.78140
 H360 H 0.19953 0.72580 0.71400
 H361 H 0.19995 0.69134 0.68038
 H362 H 0.27704 0.67147 0.70347
 H363 H 0.27659 0.70571 0.73736
 H364 H 0.25892 0.84299 0.77670
 C365 C 0.25729 0.24065 0.74865
 C366 C 0.23896 0.25929 0.74863
 C367 C 0.23754 0.27886 0.72703
 C368 C 0.21943 0.26104 0.77024
 C369 C 0.25714 0.21951 0.76861
 C370 C 0.27849 0.24047 0.72875
 C371 C 0.23763 0.30503 0.73365
 C372 C 0.23698 0.32363 0.71350
 C373 C 0.23603 0.31628 0.68654
 C374 C 0.23539 0.29023 0.67981
 C375 C 0.23600 0.27159 0.69995
 C376 C 0.22676 0.26259 0.79730
 C377 C 0.20816 0.26347 0.81747
 C378 C 0.18209 0.26309 0.81079
 C379 C 0.17469 0.26215 0.78385
 C380 C 0.19325 0.26124 0.76367
 C381 C 0.23548 0.20375 0.77185
 C382 C 0.23549 0.18419 0.79103
 C383 C 0.25721 0.18005 0.80694
 C384 C 0.27899 0.19537 0.80344
 C385 C 0.27900 0.21494 0.78431
 C386 C 0.28282 0.21852 0.71312
 C387 C 0.30248 0.21820 0.69410
 C388 C 0.31816 0.23973 0.69066
 C389 C 0.31425 0.26154 0.70650
 C390 C 0.29460 0.26188 0.72557
 H391 H 0.23865 0.31101 0.75440
 H392 H 0.23742 0.34374 0.71893
 H393 H 0.23453 0.28433 0.65902
 H394 H 0.23542 0.25152 0.69446
 H395 H 0.24685 0.26295 0.80276
 H396 H 0.21410 0.26433 0.83825
 H397 H 0.18723 0.26021 0.74293
 H398 H 0.21861 0.20665 0.75959
 H399 H 0.21858 0.17236 0.79348
 H400 H 0.29592 0.19229 0.81560
 H401 H 0.29592 0.22678 0.78200
 H402 H 0.27071 0.20178 0.71540
 H403 H 0.30538 0.20121 0.68198
 H404 H 0.32636 0.27826 0.70409
 H405 H 0.29189 0.27881 0.73779
 H406 H 0.15457 0.26191 0.77846
 C407 C 0.73878 0.75949 0.75188
 C408 C 0.75733 0.74106 0.75208
 C409 C 0.75720 0.71961 0.73250
 C410 C 0.77863 0.74146 0.77186
 C411 C 0.73709 0.77922 0.77326
 C412 C 0.71921 0.76087 0.73029
 C413 C 0.73557 0.70376 0.72966
 C414 C 0.73539 0.68418 0.71054
 C415 C 0.75691 0.68009 0.69430
 C416 C 0.77873 0.69542 0.69749
 C417 C 0.77892 0.71502 0.71657
 C418 C 0.78333 0.71982 0.78788
 C419 C 0.80291 0.72018 0.80699
 C420 C 0.81814 0.74208 0.81013
 C421 C 0.81390 0.76354 0.79385
 C422 C 0.79433 0.76320 0.77471
 C423 C 0.73665 0.80532 0.76635
 C424 C 0.73531 0.82408 0.78628
 C425 C 0.73419 0.81694 0.81329
 C426 C 0.73419 0.79094 0.82032
 C427 C 0.73550 0.77215 0.80040
 C428 C 0.72648 0.76222 0.70320
 C429 C 0.70784 0.76330 0.68310
 C430 C 0.68179 0.76330 0.68990
 C431 C 0.67444 0.76238 0.71686
 C432 C 0.69305 0.76127 0.73696
 H433 H 0.71881 0.70669 0.74210
 H434 H 0.71846 0.67235 0.70833
 H435 H 0.79550 0.69237 0.68507
 H436 H 0.79582 0.72693 0.71858
 H437 H 0.77154 0.70283 0.78588
 H438 H 0.80607 0.70344 0.81943
 H439 H 0.79134 0.77990 0.76220
 H440 H 0.73769 0.81114 0.74555
 H441 H 0.73527 0.84414 0.78063
 H442 H 0.73321 0.78522 0.84116
 H443 H 0.73531 0.75212 0.80611
 H444 H 0.74656 0.76244 0.69765
 H445 H 0.71374 0.76414 0.66230
 H446 H 0.65434 0.76244 0.72235
 H447 H 0.68706 0.76040 0.75773
 H448 H 0.82565 0.78054 0.79601
 C449 C 0.26437 0.05241 0.05062
 C450 C 0.26469 0.06893 0.06752
 C451 C 0.26505 0.08860 0.08774
 C452 C 0.26111 0.11430 0.08063
 C453 C 0.26134 0.13338 0.10032
 C454 C 0.26553 0.12685 0.12720
 C455 C 0.26952 0.10117 0.13430
 C456 C 0.26928 0.08209 0.11462
 C457 C 0.26551 0.14642 0.14753
 C458 C 0.26537 0.16268 0.16470
 H459 H 0.25782 0.11955 0.05991
 H460 H 0.25821 0.15318 0.09461
 H461 H 0.27274 0.09590 0.15503
 H462 H 0.27235 0.06228 0.12035
 C463 C 0.75701 0.55207 0.55814
 C464 C 0.75655 0.56822 0.57540
 C465 C 0.75617 0.58742 0.59609
 C466 C 0.75296 0.61331 0.58939
 C467 C 0.75289 0.63199 0.60949
 C468 C 0.75602 0.62486 0.63636
 C469 C 0.75916 0.59897 0.64307
 C470 C 0.75923 0.58028 0.62297
 C471 C 0.75624 0.64414 0.65697
 C472 C 0.75650 0.66043 0.67409
 H473 H 0.75060 0.61904 0.56867
 H474 H 0.75047 0.65197 0.60408
 H475 H 0.76162 0.59325 0.66378
 H476 H 0.76175 0.56032 0.62837
 C477 C 0.73626 0.94590 0.05690
 C478 C 0.73647 0.92925 0.07366
 C479 C 0.73672 0.90940 0.09369
 C480 C 0.73421 0.91577 0.12083
 C481 C 0.73454 0.89650 0.14032
 C482 C 0.73737 0.87079 0.13275
 C483 C 0.73985 0.86441 0.10561
 C484 C 0.73952 0.88369 0.08611
 C485 C 0.73789 0.85104 0.15287
 C486 C 0.73842 0.83465 0.16990
 H487 H 0.73204 0.93559 0.12691
 H488 H 0.73263 0.90164 0.16126
 H489 H 0.74207 0.84460 0.09954
 H490 H 0.74148 0.87856 0.06517
 C491 C 0.23972 0.44570 0.55168
 C492 C 0.23904 0.42920 0.56859
 C493 C 0.23820 0.40954 0.58883
 C494 C 0.23477 0.41622 0.61578
 C495 C 0.23404 0.39715 0.63548
 C496 C 0.23673 0.37132 0.62832
 C497 C 0.24012 0.36463 0.60136
 C498 C 0.24084 0.38370 0.58165
 C499 C 0.23627 0.35176 0.64866
 C500 C 0.23604 0.33550 0.66585
 H501 H 0.23270 0.43614 0.62156
 H502 H 0.23145 0.40254 0.65627
 H503 H 0.24225 0.34472 0.59560
 H504 H 0.24351 0.37833 0.56087
 C505 C 0.94717 0.26163 0.05422
 C506 C 0.93070 0.26184 0.07118
 C507 C 0.91111 0.26221 0.09149
 C508 C 0.91690 0.27091 0.11735
 C509 C 0.89789 0.27128 0.13712
 C510 C 0.87300 0.26296 0.13112
 C511 C 0.86719 0.25429 0.10526
 C512 C 0.88621 0.25392 0.08548
 C513 C 0.85354 0.26311 0.15157
 C514 C 0.83736 0.26311 0.16884
 H515 H 0.93608 0.27737 0.12221
 H516 H 0.90260 0.27799 0.15706
 H517 H 0.84802 0.24778 0.10042
 H518 H 0.88152 0.24716 0.06555
 C519 C 0.44593 0.76655 0.55414
 C520 C 0.42914 0.76645 0.57075
 C521 C 0.40906 0.76621 0.59055
 C522 C 0.41444 0.77305 0.61710
 C523 C 0.39498 0.77259 0.63639
 C524 C 0.37005 0.76529 0.62920
 C525 C 0.36466 0.75852 0.60263
 C526 C 0.38413 0.75898 0.58335
 C527 C 0.35013 0.76451 0.64915
 C528 C 0.33360 0.76376 0.66602
 H529 H 0.43366 0.77866 0.62289
 H530 H 0.39936 0.77784 0.65688
 H531 H 0.34546 0.75282 0.59687
 H532 H 0.37976 0.75364 0.56287
 C533 C 0.05294 0.74335 0.05361
 C534 C 0.06919 0.74323 0.07079
 C535 C 0.08851 0.74304 0.09140
 C536 C 0.10437 0.76443 0.09510
 C537 C 0.12312 0.76422 0.11515
 C538 C 0.12607 0.74263 0.13158
 C539 C 0.11019 0.72125 0.12789
 C540 C 0.09145 0.72146 0.10784
 C541 C 0.14550 0.74233 0.15207
 C542 C 0.16187 0.74202 0.16912
 H543 H 0.10226 0.78122 0.08251
 H544 H 0.13531 0.78085 0.11780
 H545 H 0.11233 0.70445 0.14045
 H546 H 0.07929 0.70482 0.10517
 C547 C 0.55332 0.23669 0.55484
 C548 C 0.56972 0.23650 0.57185
 C549 C 0.58921 0.23618 0.59223
 C550 C 0.61495 0.23236 0.58523
 C551 C 0.63386 0.23198 0.60509
 C552 C 0.62709 0.23540 0.63202
 C553 C 0.60135 0.23921 0.63902
 C554 C 0.58245 0.23960 0.61917
 C555 C 0.64651 0.23515 0.65248
 C556 C 0.66266 0.23510 0.66974
 H557 H 0.62038 0.22969 0.56446
 H558 H 0.65371 0.22904 0.59946
 H559 H 0.59592 0.24189 0.65979
 H560 H 0.56260 0.24255 0.62481
 C561 C 0.73470 0.05208 0.94917
 C562 C 0.73444 0.06865 0.93232
 C563 C 0.73417 0.08838 0.91215
 C564 C 0.73130 0.08182 0.88510
 C565 C 0.73117 0.10096 0.86547
 C566 C 0.73390 0.12675 0.87280
 C567 C 0.73672 0.13332 0.89986
 C568 C 0.73685 0.11417 0.91950
 C569 C 0.73404 0.14638 0.85253
 C570 C 0.73429 0.16267 0.83539
 H571 H 0.72922 0.06194 0.87920
 H572 H 0.72901 0.09567 0.84460
 H573 H 0.73887 0.15319 0.90575
 H574 H 0.73908 0.11945 0.94036
 C575 C 0.24346 0.55211 0.44198
 C576 C 0.24384 0.56828 0.42470
 C577 C 0.24412 0.58750 0.40400
 C578 C 0.24512 0.58021 0.37700
 C579 C 0.24510 0.59887 0.35686
 C580 C 0.24406 0.62492 0.36364
 C581 C 0.24312 0.63221 0.39065
 C582 C 0.24314 0.61355 0.41078
 C583 C 0.24378 0.64415 0.34295
 C584 C 0.24345 0.66040 0.32576
 H585 H 0.24585 0.56012 0.37153
 H586 H 0.24581 0.59302 0.33605
 H587 H 0.24229 0.65230 0.39612
 H588 H 0.24233 0.61941 0.43159
 C589 C 0.26254 0.94650 0.94264
 C590 C 0.26231 0.92986 0.92588
 C591 C 0.26206 0.91000 0.90588
 C592 C 0.26460 0.91633 0.87872
 C593 C 0.26432 0.89705 0.85926
 C594 C 0.26150 0.87134 0.86688
 C595 C 0.25898 0.86499 0.89403
 C596 C 0.25926 0.88429 0.91350
 C597 C 0.26107 0.85155 0.84680
 C598 C 0.26062 0.83512 0.82982
 H599 H 0.26677 0.93615 0.87260
 H600 H 0.26627 0.90217 0.83832
 H601 H 0.25678 0.84518 0.90014
 H602 H 0.25728 0.87917 0.93444
 C603 C 0.76123 0.44575 0.44855
 C604 C 0.76197 0.42926 0.43166
 C605 C 0.76285 0.40961 0.41145
 C606 C 0.76631 0.41630 0.38449
 C607 C 0.76705 0.39723 0.36481
 C608 C 0.76434 0.37141 0.37200
 C609 C 0.76093 0.36471 0.39896
 C610 C 0.76020 0.38378 0.41865
 C611 C 0.76475 0.35186 0.35168
 C612 C 0.76492 0.33560 0.33453
 H613 H 0.76838 0.43621 0.37870
 H614 H 0.76965 0.40262 0.34402
 H615 H 0.75877 0.34480 0.40474
 H616 H 0.75751 0.37840 0.43944
 C617 C 0.05302 0.26174 0.94606
 C618 C 0.06950 0.26196 0.92911
 C619 C 0.08910 0.26236 0.90880
 C620 C 0.08306 0.27006 0.88266
 C621 C 0.10208 0.27045 0.86289
 C622 C 0.12723 0.26316 0.86919
 C623 C 0.13328 0.25549 0.89534
 C624 C 0.11425 0.25510 0.91511
 C625 C 0.14671 0.26333 0.84876
 C626 C 0.16291 0.26333 0.83152
 H627 H 0.06368 0.27572 0.87756
 H628 H 0.09719 0.27639 0.84273
 H629 H 0.15265 0.24978 0.90042
 H630 H 0.11913 0.24912 0.93527
 C631 C 0.55343 0.76629 0.44556
 C632 C 0.57023 0.76612 0.42896
 C633 C 0.59033 0.76581 0.40919
 C634 C 0.58513 0.77317 0.38275
 C635 C 0.60462 0.77265 0.36349
 C636 C 0.62939 0.76478 0.37060
 C637 C 0.63461 0.75748 0.39706
 C638 C 0.61512 0.75800 0.41632
 C639 C 0.64934 0.76397 0.35069
 C640 C 0.66589 0.76321 0.33383
 H641 H 0.56604 0.77923 0.37701
 H642 H 0.60038 0.77831 0.34308
 H643 H 0.65369 0.75134 0.40277
 H644 H 0.61934 0.75226 0.43671
 C645 C 0.94744 0.74372 0.94511
 C646 C 0.93109 0.74371 0.92804
 C647 C 0.91161 0.74362 0.90761
 C648 C 0.91662 0.75448 0.88245
 C649 C 0.89773 0.75428 0.86256
 C650 C 0.87375 0.74321 0.86773
 C651 C 0.86873 0.73237 0.89289
 C652 C 0.88762 0.73258 0.91278
 C653 C 0.85430 0.74292 0.84727
 C654 C 0.83790 0.74258 0.83025
 H655 H 0.93510 0.76306 0.87822
 H656 H 0.90182 0.76271 0.84317
 H657 H 0.85026 0.72376 0.89711
 H658 H 0.88353 0.72411 0.93215
 C659 C 0.44673 0.23656 0.44549
 C660 C 0.43034 0.23634 0.42848
 C661 C 0.41087 0.23597 0.40807
 C662 C 0.38533 0.23076 0.41488
 C663 C 0.36644 0.23032 0.39499
 C664 C 0.37304 0.23508 0.36823
 C665 C 0.39858 0.24030 0.36143
 C666 C 0.41746 0.24074 0.38131
 C667 C 0.35363 0.23479 0.34776
 C668 C 0.33750 0.23471 0.33048
 H669 H 0.38003 0.22703 0.43551
 H670 H 0.34674 0.22629 0.40047
 H671 H 0.40388 0.24403 0.34080
 H672 H 0.43715 0.24478 0.37582
 C673 C 0.73313 0.94707 0.94712
 C674 C 0.73259 0.93060 0.93021
 C675 C 0.73216 0.91085 0.91010
 C676 C 0.73000 0.91739 0.88297
 C677 C 0.73002 0.89820 0.86341
 C678 C 0.73221 0.87240 0.87091
 C679 C 0.73427 0.86585 0.89805
 C680 C 0.73424 0.88504 0.91761
 C681 C 0.73269 0.85271 0.85075
 C682 C 0.73328 0.83633 0.83375
 H683 H 0.72841 0.93728 0.87695
 H684 H 0.72845 0.90346 0.84247
 H685 H 0.73601 0.84596 0.90406
 H686 H 0.73596 0.87978 0.93854
 C687 C 0.24295 0.44688 0.44128
 C688 C 0.24335 0.43073 0.42401
 C689 C 0.24381 0.41142 0.40342
 C690 C 0.24264 0.41854 0.37636
 C691 C 0.24296 0.39975 0.35637
 C692 C 0.24447 0.37377 0.36335
 C693 C 0.24569 0.36666 0.39040
 C694 C 0.24537 0.38545 0.41039
 C695 C 0.24454 0.35438 0.34284
 C696 C 0.24445 0.33800 0.32581
 H697 H 0.24143 0.43857 0.37075
 H698 H 0.24198 0.40545 0.33552
 H699 H 0.24684 0.34663 0.39603
 H700 H 0.24628 0.37973 0.43124
 C701 C 0.26099 0.05122 0.94233
 C702 C 0.26020 0.06736 0.92506
 C703 C 0.25926 0.08666 0.90447
 C704 C 0.26413 0.08007 0.87773
 C705 C 0.26338 0.09888 0.85776
 C706 C 0.25774 0.12435 0.86445
 C707 C 0.25280 0.13093 0.89118
 C708 C 0.25356 0.11212 0.91115
 C709 C 0.25733 0.14380 0.84400
 C710 C 0.25716 0.16024 0.82701
 H711 H 0.26856 0.06044 0.87235
 H712 H 0.26726 0.09360 0.83716
 H713 H 0.24846 0.15057 0.89658
 H714 H 0.24977 0.11743 0.93176
 C715 C 0.75986 0.55131 0.44715
 C716 C 0.76007 0.56737 0.42977
 C717 C 0.76028 0.58655 0.40902
 C718 C 0.76256 0.57926 0.38210
 C719 C 0.76274 0.59791 0.36194
 C720 C 0.76064 0.62392 0.36863
 C721 C 0.75835 0.63119 0.39555
 C722 C 0.75817 0.61255 0.41570
 C723 C 0.76089 0.64315 0.34794
 C724 C 0.76114 0.65941 0.33077
 H725 H 0.76420 0.55921 0.37671
 H726 H 0.76453 0.59208 0.34119
 H727 H 0.75671 0.65124 0.40094
 H728 H 0.75638 0.61839 0.43645
 C729 C 0.05160 0.74334 0.94466
 C730 C 0.06747 0.74317 0.92708
 C731 C 0.08637 0.74285 0.90604
 C732 C 0.10942 0.72950 0.90960
 C733 C 0.12774 0.72907 0.88913
 C734 C 0.12308 0.74199 0.86499
 C735 C 0.10003 0.75535 0.86143
 C736 C 0.08170 0.75578 0.88191
 C737 C 0.14199 0.74156 0.84398
 C738 C 0.15801 0.74113 0.82655
 H739 H 0.11322 0.71942 0.92817
 H740 H 0.14551 0.71869 0.89210
 H741 H 0.09623 0.76541 0.84285
 H742 H 0.06393 0.76615 0.87894
 C743 C 0.55233 0.23726 0.44440
 C744 C 0.56857 0.23752 0.42720
 C745 C 0.58802 0.23794 0.40675
 C746 C 0.58427 0.25222 0.38329
 C747 C 0.60328 0.25278 0.36351
 C748 C 0.62611 0.23906 0.36712
 C749 C 0.62985 0.22475 0.39057
 C750 C 0.61085 0.22420 0.41034
 C751 C 0.64573 0.23965 0.34685
 C752 C 0.66230 0.24001 0.33001
 H753 H 0.56670 0.26294 0.38032
 H754 H 0.60019 0.26390 0.34546
 H755 H 0.64744 0.21408 0.39356
 H756 H 0.61396 0.21311 0.42841
 C757 C 0.94837 0.26099 0.94385
 C758 C 0.93212 0.26063 0.92671
 C759 C 0.91262 0.26003 0.90634
 C760 C 0.91480 0.27563 0.88359
 C761 C 0.89578 0.27506 0.86386
 C762 C 0.87453 0.25886 0.86679
 C763 C 0.87238 0.24322 0.88951
 C764 C 0.89139 0.24380 0.90924
 C765 C 0.85480 0.25847 0.84667
 C766 C 0.83813 0.25822 0.82996
 H767 H 0.93115 0.28825 0.88115
 H768 H 0.89761 0.28725 0.84638
 H769 H 0.85600 0.23065 0.89199
 H770 H 0.88952 0.23165 0.92675
 C771 C 0.44714 0.76649 0.44431
 C772 C 0.43071 0.76641 0.42733
 C773 C 0.41103 0.76624 0.40712
 C774 C 0.38618 0.75806 0.41356
 C775 C 0.36709 0.75772 0.39389
 C776 C 0.37277 0.76556 0.36770
 C777 C 0.39760 0.77379 0.36127
 C778 C 0.41669 0.77412 0.38094
 C779 C 0.35322 0.76496 0.34737
 C780 C 0.33696 0.76434 0.33022
 H781 H 0.38160 0.75191 0.43375
 H782 H 0.34796 0.75130 0.39908
 H783 H 0.40221 0.77986 0.34106
 H784 H 0.43584 0.78047 0.37573
 C785 C 0.26557 0.94736 0.05241
 C786 C 0.26607 0.93084 0.06930
 C787 C 0.26648 0.91103 0.08937
 C788 C 0.26879 0.91749 0.11651
 C789 C 0.26882 0.89825 0.13604
 C790 C 0.26654 0.87248 0.12851
 C791 C 0.26432 0.86601 0.10136
 C792 C 0.26429 0.88525 0.08183
 C793 C 0.26618 0.85273 0.14865
 C794 C 0.26571 0.83631 0.16564
 H795 H 0.27046 0.93737 0.12256
 H796 H 0.27051 0.90346 0.15697
 H797 H 0.26252 0.84614 0.09533
 H798 H 0.26247 0.88005 0.06091
 C799 C 0.75791 0.44688 0.55891
 C800 C 0.75755 0.43073 0.57618
 C801 C 0.75711 0.41142 0.59678
 C802 C 0.75801 0.41854 0.62383
 C803 C 0.75767 0.39974 0.64383
 C804 C 0.75642 0.37376 0.63685
 C805 C 0.75548 0.36664 0.60980
 C806 C 0.75582 0.38543 0.58980
 C807 C 0.75630 0.35437 0.65736
 C808 C 0.75633 0.33799 0.67440
 H809 H 0.75901 0.43858 0.62944
 H810 H 0.75842 0.40545 0.66468
 H811 H 0.75453 0.34660 0.60418
 H812 H 0.75512 0.37972 0.56895
 C813 C 0.73820 0.05158 0.05849
 C814 C 0.73906 0.06768 0.07576
 C815 C 0.74008 0.08697 0.09633
 C816 C 0.74137 0.11295 0.08931
 C817 C 0.74222 0.13172 0.10927
 C818 C 0.74180 0.12460 0.13634
 C819 C 0.74058 0.09862 0.14337
 C820 C 0.73973 0.07983 0.12340
 C821 C 0.74235 0.14398 0.15683
 C822 C 0.74262 0.16037 0.17383
 H823 H 0.74165 0.11867 0.06844
 H824 H 0.74313 0.15176 0.10362
 H825 H 0.74022 0.09291 0.16424
 H826 H 0.73874 0.05980 0.12904
 C827 C 0.24070 0.55131 0.55300
 C828 C 0.24043 0.56738 0.57037
 C829 C 0.24014 0.58657 0.59109
 C830 C 0.23869 0.61260 0.58431
 C831 C 0.23843 0.63125 0.60444
 C832 C 0.23962 0.62397 0.63144
 C833 C 0.24107 0.59794 0.63823
 C834 C 0.24133 0.57928 0.61810
 C835 C 0.23931 0.64321 0.65211
 C836 C 0.23900 0.65948 0.66926
 H837 H 0.23776 0.61846 0.56351
 H838 H 0.23730 0.65133 0.59896
 H839 H 0.24199 0.59209 0.65904
 H840 H 0.24246 0.55920 0.62357
 C841 C 0.94885 0.74360 0.05607
 C842 C 0.93292 0.74349 0.07359
 C843 C 0.91393 0.74322 0.09453
 C844 C 0.91886 0.75540 0.11902
 C845 C 0.90044 0.75499 0.13941
 C846 C 0.87702 0.74240 0.13540
 C847 C 0.87209 0.73024 0.11091
 C848 C 0.89050 0.73065 0.09052
 C849 C 0.85803 0.74195 0.15633
 C850 C 0.84194 0.74149 0.17369
 H851 H 0.93692 0.76516 0.12234
 H852 H 0.90445 0.76446 0.15827
 H853 H 0.85404 0.72046 0.10759
 H854 H 0.88649 0.72116 0.07168
 C855 C 0.44775 0.23695 0.55601
 C856 C 0.43155 0.23713 0.57325
 C857 C 0.41216 0.23748 0.59376
 C858 C 0.41675 0.25008 0.61808
 C859 C 0.39780 0.25059 0.63792
 C860 C 0.37419 0.23850 0.63351
 C861 C 0.36961 0.22586 0.60921
 C862 C 0.38856 0.22535 0.58938
 C863 C 0.35462 0.23908 0.65384
 C864 C 0.33808 0.23946 0.67072
 H865 H 0.43493 0.25954 0.62166
 H866 H 0.40153 0.26042 0.65664
 H867 H 0.35142 0.21645 0.60560
 H868 H 0.38480 0.21557 0.57064
 C869 C 0.05284 0.26135 0.05539
 C870 C 0.06907 0.26110 0.07257
 C871 C 0.08851 0.26060 0.09299
 C872 C 0.08461 0.27346 0.11729
 C873 C 0.10353 0.27292 0.13713
 C874 C 0.12642 0.25950 0.13274
 C875 C 0.13031 0.24661 0.10845
 C876 C 0.11140 0.24716 0.08862
 C877 C 0.14601 0.25909 0.15302
 C878 C 0.16256 0.25880 0.16986
 H879 H 0.06697 0.28390 0.12088
 H880 H 0.10035 0.28297 0.15584
 H881 H 0.14796 0.23620 0.10484
 H882 H 0.11461 0.23713 0.06991
 C883 C 0.55221 0.76641 0.55534
 C884 C 0.56866 0.76631 0.57231
 C885 C 0.58835 0.76610 0.59250
 C886 C 0.61361 0.75971 0.58560
 C887 C 0.63272 0.75934 0.60525
 C888 C 0.62666 0.76536 0.63187
 C889 C 0.60141 0.77179 0.63875
 C890 C 0.58230 0.77216 0.61910
 C891 C 0.64625 0.76474 0.65215
 C892 C 0.66254 0.76414 0.66927
 H893 H 0.61850 0.75498 0.56509
 H894 H 0.65218 0.75432 0.59971
 H895 H 0.59651 0.77645 0.65927
 H896 H 0.56283 0.77711 0.62466
   
