data_POSCAR
  _audit_creation_date              2014-09-24
  _audit_creation_method            'ToBaCCo'
  _symmetry_space_group_name_H-M    'P1'
  _symmetry_Int_Tables_number       1
  _symmetry_cell_setting            triclinic
  loop_
  _symmetry_equiv_pos_as_xyz
 x,y,z
_cell_length_a 40.7314
_cell_length_b 40.5610
_cell_length_c 40.6868
_cell_angle_alpha 89.936900
_cell_angle_beta 89.938000
_cell_angle_gamma 89.998000
loop_
  _atom_site_label
  _atom_site_type_symbol
  _atom_site_fract_x
  _atom_site_fract_y
  _atom_site_fract_z
C1 C 0.18952 1.23270 0.18987
 C2 C 0.21772 1.21844 0.17613
 C3 C 0.23159 1.19028 0.19046
 C4 C 0.21734 1.17641 0.21861
 C5 C 0.18914 1.19062 0.23241
 C6 C 0.17527 1.21880 0.21805
 H7 H 0.22850 1.22879 0.15401
 H8 H 0.22782 1.15428 0.22933
 H9 H 0.15313 1.22951 0.22840
 C10 C 0.81089 0.76650 0.18980
 C11 C 0.82482 0.78067 0.21794
 C12 C 0.81061 0.80878 0.23201
 C13 C 0.78239 0.82266 0.21802
 C14 C 0.76844 0.80853 0.18991
 C15 C 0.78265 0.78043 0.17584
 H16 H 0.84699 0.77030 0.22851
 H17 H 0.77172 0.84474 0.22858
 H18 H 0.77211 0.76986 0.15374
 C19 C 0.81003 1.23325 -0.18936
 C20 C 0.78188 1.21921 -0.17527
 C21 C 0.76769 1.19110 -0.18933
 C22 C 0.78158 1.17708 -0.21755
 C23 C 0.80971 1.19107 -0.23167
 C24 C 0.82390 1.21918 -0.21762
 H25 H 0.77138 1.22969 -0.15309
 H26 H 0.77093 1.15500 -0.22811
 H27 H 0.84600 1.22964 -0.22829
 C28 C 0.18984 0.76754 -0.19038
 C29 C 0.21799 0.78154 -0.17633
 C30 C 0.23212 0.80975 -0.19034
 C31 C 0.21817 0.82391 -0.21846
 C32 C 0.19005 0.80996 -0.23254
 C33 C 0.17592 0.78175 -0.21854
 H34 H 0.22853 0.77094 -0.15423
 H35 H 0.22878 0.84607 -0.22898
 H36 H 0.15382 0.77133 -0.22917
 C37 C 0.55007 1.04520 -0.00900
 H38 H 0.55069 1.04496 0.01758
 C39 C 0.57260 1.06427 -0.02655
 H40 H 0.59061 1.07889 -0.01349
 C41 C 0.52657 1.02557 -0.05859
 H42 H 0.50908 1.00991 -0.07098
 C43 C 0.54870 1.04428 -0.07710
 H44 H 0.54802 1.04321 -0.10369
 N45 N 0.52758 1.02645 -0.02516
 C46 C 0.44973 1.00914 0.04644
 H47 H 0.44912 0.98247 0.04627
 C48 C 0.42717 1.02672 0.06540
 H49 H 0.40915 1.01359 0.08002
 C50 C 0.47322 1.05891 0.02673
 H51 H 0.49070 1.07136 0.01107
 C52 C 0.45105 1.07745 0.04534
 H53 H 0.45172 1.10413 0.04419
 Zn54 Zn 0.49990 0.99943 0.00076
 N55 N 0.47222 1.02537 0.02769
 C56 C 0.52660 0.97330 0.06004
 N57 N 0.52759 0.97240 0.02660
 C58 C 0.55007 0.95366 0.01038
 C59 C 0.57264 0.93463 0.02788
 C60 C 0.54877 0.95462 0.07849
 C61 C 0.44973 0.98977 -0.04481
 C62 C 0.42719 0.97222 -0.06378
 C63 C 0.45109 0.92145 -0.04385
 C64 C 0.47323 0.93996 -0.02523
 N65 N 0.47222 0.97351 -0.02613
 H66 H 0.50911 0.98895 0.07247
 H67 H 0.55068 0.95389 -0.01620
 H68 H 0.59066 0.92002 0.01477
 H69 H 0.54811 0.95571 0.10508
 H70 H 0.44911 1.01643 -0.04459
 H71 H 0.40919 0.98537 -0.07836
 H72 H 0.45177 0.89478 -0.04277
 H73 H 0.49071 0.92749 -0.00963
 C74 C 0.42776 1.06117 0.06474
 C75 C 0.57198 1.06370 -0.06090
 C76 C 0.42781 0.93776 -0.06320
 C77 C 0.57206 0.93522 0.06223
 C78 C -0.00919 0.55029 1.04508
 H79 H 0.01736 0.55095 1.04489
 C80 C -0.02677 0.57287 1.06406
 H81 H -0.01375 0.59095 1.07867
 C82 C -0.05869 0.52664 1.02542
 H83 H -0.07103 0.50909 1.00978
 C84 C -0.07722 0.54883 1.04404
 H85 H -0.10378 0.54810 1.04293
 N86 N -0.02529 0.52770 1.02636
 C87 C 0.04621 0.44956 1.00933
 H88 H 0.04609 0.44893 0.98275
 C89 C 0.06513 0.42692 1.02692
 H90 H 0.07976 0.40884 1.01389
 C91 C 0.02645 0.47315 1.05888
 H92 H 0.01079 0.49070 1.07124
 C93 C 0.04501 0.45092 1.07742
 H94 H 0.04382 0.45161 1.10402
 Zn95 Zn 0.00064 0.49993 0.99950
 N96 N 0.02747 0.47213 1.02544
 C97 C 0.05995 0.52674 0.97356
 N98 N 0.02655 0.52775 0.97260
 C99 C 0.01042 0.55034 0.95387
 C100 C 0.02797 0.57299 0.93489
 C101 C 0.07845 0.54899 0.95494
 C102 C -0.04489 0.44954 0.98977
 C103 C -0.06385 0.42694 0.97224
 C104 C -0.04382 0.45100 0.92167
 C105 C -0.02521 0.47319 0.94016
 N106 N -0.02618 0.47214 0.97360
 H107 H 0.07231 0.50917 0.98921
 H108 H -0.01613 0.55096 0.95404
 H109 H 0.01493 0.59108 0.92028
 H110 H 0.10501 0.54830 0.95608
 H111 H -0.04472 0.44888 1.01636
 H112 H -0.07846 0.40886 0.98531
 H113 H -0.04270 0.45173 0.89508
 H114 H -0.00959 0.49076 0.92776
 C115 C 0.06442 0.42754 1.06127
 C116 C -0.06108 0.57220 1.06344
 C117 C -0.06321 0.42762 0.93789
 C118 C 0.06228 0.57238 0.93554
 C119 C 1.04521 -0.00885 0.54977
 H120 H 1.04503 0.01781 0.55039
 C121 C 1.06416 -0.02647 0.57232
 H122 H 1.07875 -0.01337 0.59033
 C123 C 1.02557 -0.05859 0.52628
 H124 H 1.00995 -0.07101 0.50880
 C125 C 1.04417 -0.07716 0.54843
 H126 H 1.04304 -0.10384 0.54776
 N127 N 1.02651 -0.02505 0.52728
 C128 C 1.00940 0.04674 0.44933
 H129 H 0.98285 0.04657 0.44873
 C130 C 1.02694 0.06576 0.42672
 H131 H 1.01389 0.08042 0.40869
 C132 C 1.05893 0.02697 0.47282
 H133 H 1.07130 0.01127 0.49032
 C134 C 1.07742 0.04564 0.45061
 H135 H 1.10399 0.04448 0.45127
 Zn136 Zn 0.99965 0.00095 0.49958
 N137 N 1.02553 0.02794 0.47184
 C138 C 0.97373 0.06045 0.52630
 N139 N 0.97278 0.02691 0.52731
 C140 C 0.95408 0.01067 0.54984
 C141 C 0.93515 0.02825 0.57244
 C142 C 0.95516 0.07898 0.54850
 C143 C 0.98997 -0.04477 0.44940
 C144 C 0.97248 -0.06383 0.42687
 C145 C 0.92195 -0.04382 0.45083
 C146 C 0.94040 -0.02511 0.47295
 N147 N 0.97380 -0.02602 0.47191
 H148 H 0.98935 0.07290 0.50877
 H149 H 0.95426 -0.01599 0.55047
 H150 H 0.92057 0.01512 0.59049
 H151 H 0.95629 0.10566 0.54782
 H152 H 1.01653 -0.04456 0.44874
 H153 H 0.98555 -0.07847 0.40885
 H154 H 0.89538 -0.04273 0.45155
 H155 H 0.92800 -0.00945 0.49046
 C156 C 1.06125 0.06509 0.42730
 C157 C 1.06353 -0.06092 0.57172
 C158 C 0.93816 -0.06325 0.42753
 C159 C 0.93580 0.06270 0.57184
 C160 C 0.11799 0.35444 1.15033
 C161 C 0.10876 0.31742 1.14867
 C162 C 0.14523 0.30888 1.14419
 C163 C 0.15476 0.34548 1.14612
 C164 C 0.11468 0.35654 1.11277
 C165 C 0.15116 0.34802 1.10827
 C166 C 0.10520 0.31993 1.11088
 C167 C 0.14191 0.31101 1.10664
 C168 C 0.16182 0.28180 1.16127
 C169 C 0.17503 0.25899 1.17490
 C170 C 0.09725 0.38253 1.09487
 C171 C 0.08250 0.40335 1.07975
 H172 H 0.10795 0.37261 1.16808
 H173 H 0.09150 0.30455 1.16548
 H174 H 0.17534 0.35566 1.16082
 H175 H 0.16840 0.36089 1.09145
 H176 H 0.08463 0.30970 1.09619
 H177 H 0.15193 0.29286 1.08886
 C178 C -0.14900 0.65109 1.10932
 C179 C -0.15290 0.65383 1.14713
 C180 C -0.14374 0.69051 1.14493
 C181 C -0.14012 0.68818 1.10742
 C182 C -0.11246 0.64299 1.11407
 C183 C -0.10335 0.67969 1.11191
 C184 C -0.11606 0.64529 1.15159
 C185 C -0.10721 0.68239 1.14967
 C186 C -0.16073 0.71752 1.16171
 C187 C -0.17426 0.74027 1.17510
 C188 C -0.09462 0.61707 1.09648
 C189 C -0.07954 0.59632 1.08162
 H190 H -0.16597 0.63792 1.09252
 H191 H -0.17347 0.64352 1.16181
 H192 H -0.15021 0.70611 1.08943
 H193 H -0.08279 0.69005 1.09725
 H194 H -0.10596 0.62735 1.16955
 H195 H -0.09021 0.69556 1.16645
 C196 C -0.09745 0.32526 0.87383
 C197 C -0.12621 0.30482 0.88813
 C198 C -0.14485 0.30926 0.85562
 C199 C -0.11633 0.32932 0.84105
 C200 C -0.11389 0.35680 0.88670
 C201 C -0.13252 0.36130 0.85419
 C202 C -0.14241 0.33673 0.90126
 C203 C -0.16133 0.34079 0.86847
 C204 C -0.16170 0.28224 0.83875
 C205 C -0.17516 0.25948 0.82534
 C206 C -0.09627 0.38273 0.90445
 C207 C -0.08139 0.40349 0.91948
 H208 H -0.07099 0.31915 0.87622
 H209 H -0.12380 0.28131 0.90191
 H210 H -0.10580 0.32596 0.81610
 H211 H -0.13491 0.38483 0.84044
 H212 H -0.15294 0.34007 0.92621
 H213 H -0.18780 0.34686 0.86607
 C214 C 0.14948 0.65301 0.89135
 C215 C 0.15519 0.65484 0.85371
 C216 C 0.14469 0.69122 0.85430
 C217 C 0.13926 0.68979 0.89164
 C218 C 0.11353 0.64347 0.88505
 C219 C 0.10308 0.67986 0.88559
 C220 C 0.11894 0.64486 0.84769
 C221 C 0.10874 0.68166 0.84800
 C222 C 0.16160 0.71835 0.83759
 C223 C 0.17507 0.74120 0.82426
 C224 C 0.09575 0.61744 0.90258
 C225 C 0.08071 0.59659 0.91740
 H226 H 0.16603 0.64093 0.90937
 H227 H 0.17682 0.64487 0.84040
 H228 H 0.14780 0.70856 0.90954
 H229 H 0.08146 0.68988 0.89889
 H230 H 0.11038 0.62608 0.82982
 H231 H 0.09218 0.69375 0.82999
 C232 C 1.13855 0.09951 0.33411
 C233 C 1.12202 0.11564 0.30386
 C234 C 1.14377 0.14621 0.30862
 C235 C 1.16057 0.13034 0.33849
 C236 C 1.11253 0.11555 0.35630
 C237 C 1.13427 0.14612 0.36112
 C238 C 1.09576 0.13143 0.32641
 C239 C 1.11775 0.16227 0.33079
 C240 C 1.16074 0.16284 0.28152
 C241 C 1.17427 0.17609 0.25870
 C242 C 1.09472 0.09806 0.38230
 C243 C 1.07967 0.08325 0.40312
 H244 H 1.14690 0.07351 0.33576
 H245 H 1.11716 0.10328 0.28002
 H246 H 1.18742 0.13008 0.34314
 H247 H 1.13909 0.15845 0.38497
 H248 H 1.06892 0.13170 0.32173
 H249 H 1.10940 0.18827 0.32912
 C250 C 1.09908 -0.11979 0.67641
 C251 C 1.11248 -0.15544 0.67417
 C252 C 1.14468 -0.14377 0.68999
 C253 C 1.13151 -0.10838 0.69260
 C254 C 1.11397 -0.11242 0.64247
 C255 C 1.14616 -0.10075 0.65829
 C256 C 1.12712 -0.14782 0.63980
 C257 C 1.15961 -0.13643 0.65607
 C258 C 1.16136 -0.16080 0.71698
 C259 C 1.17467 -0.17436 0.73972
 C260 C 1.09646 -0.09454 0.61657
 C261 C 1.08165 -0.07943 0.59582
 H262 H 1.07401 -0.11276 0.68450
 H263 H 1.09882 -0.17813 0.68100
 H264 H 1.13349 -0.09233 0.71460
 H265 H 1.15981 -0.07806 0.65147
 H266 H 1.12511 -0.16383 0.61779
 H267 H 1.18469 -0.14347 0.64802
 C268 C 0.89700 -0.14812 0.34348
 C269 C 0.86044 -0.15872 0.34444
 C270 C 0.85616 -0.14520 0.30942
 C271 C 0.89242 -0.13488 0.30807
 C272 C 0.88712 -0.11413 0.35688
 C273 C 0.88281 -0.10065 0.32185
 C274 C 0.85085 -0.12443 0.35828
 C275 C 0.84628 -0.11121 0.32282
 C276 C 0.83936 -0.16210 0.28245
 C277 C 0.82601 -0.17559 0.25973
 C278 C 0.90481 -0.09644 0.38276
 C279 C 0.91979 -0.08151 0.40347
 H280 H 0.91805 -0.16310 0.35227
 H281 H 0.85105 -0.18279 0.35342
 H282 H 0.90934 -0.13935 0.28714
 H283 H 0.89219 -0.07659 0.31283
 H284 H 0.83396 -0.11993 0.37923
 H285 H 0.82524 -0.09622 0.31402
 C286 C 0.85689 0.09956 0.66282
 C287 C 0.87326 0.11233 0.69468
 C288 C 0.85492 0.14517 0.69054
 C289 C 0.83827 0.13267 0.65906
 C290 C 0.88552 0.11401 0.64284
 C291 C 0.86719 0.14685 0.63864
 C292 C 0.90212 0.12652 0.67434
 C293 C 0.88355 0.15962 0.67058
 C294 C 0.83829 0.16208 0.71765
 C295 C 0.82504 0.17554 0.74048
 C296 C 0.90297 0.09622 0.61683
 C297 C 0.91773 0.08116 0.59601
 H298 H 0.84612 0.07467 0.65934
 H299 H 0.87558 0.09831 0.71802
 H300 H 0.81182 0.13541 0.65310
 H301 H 0.86490 0.16083 0.61529
 H302 H 0.92856 0.12379 0.68034
 H303 H 0.89432 0.18451 0.67407
 C304 C 0.35156 1.15009 0.11364
 C305 C 0.31440 1.14413 0.10810
 C306 C 0.30924 1.14396 0.14551
 C307 C 0.34597 1.15020 0.15135
 C308 C 0.35686 1.11261 0.11500
 C309 C 0.35172 1.11242 0.15241
 C310 C 0.32011 1.10641 0.10920
 C311 C 0.31456 1.10648 0.14685
 C312 C 0.28217 1.16099 0.16206
 C313 C 0.25939 1.17457 0.17524
 C314 C 0.38282 1.09474 0.09758
 C315 C 0.40361 1.07964 0.08283
 H316 H 0.36707 1.16781 0.09979
 H317 H 0.29877 1.15735 0.09005
 H318 H 0.35629 1.16841 0.16887
 H319 H 0.36736 1.09918 0.17044
 H320 H 0.30974 1.08821 0.09169
 H321 H 0.29905 1.08873 0.16069
 C322 C 0.63738 1.14261 -0.13692
 C323 C 0.66550 1.16217 -0.12023
 C324 C 0.69022 1.14540 -0.14335
 C325 C 0.66256 1.12613 -0.16033
 C326 C 0.64271 1.11447 -0.11218
 C327 C 0.66744 1.09773 -0.13530
 C328 C 0.67039 1.13375 -0.09523
 C329 C 0.69548 1.11726 -0.11860
 C330 C 0.71722 1.16220 -0.16028
 C331 C 0.73995 1.17560 -0.17376
 C332 C 0.61681 1.09684 -0.09439
 C333 C 0.59607 1.08194 -0.07934
 H334 H 0.61318 1.15283 -0.14424
 H335 H 0.66500 1.18885 -0.11423
 H336 H 0.65965 1.12319 -0.18729
 H337 H 0.66796 1.07105 -0.14131
 H338 H 0.67332 1.13670 -0.06827
 H339 H 0.71966 1.10701 -0.11125
 C340 C 0.35712 0.84944 -0.12132
 C341 C 0.32097 0.84747 -0.10954
 C342 C 0.30959 0.85547 -0.14464
 C343 C 0.34530 0.85716 -0.15673
 C344 C 0.35709 0.88655 -0.11379
 C345 C 0.34572 0.89455 -0.14889
 C346 C 0.32137 0.88483 -0.10175
 C347 C 0.30961 0.89257 -0.13708
 C348 C 0.28259 0.83861 -0.16142
 C349 C 0.25986 0.82521 -0.17482
 C350 C 0.38299 0.90430 -0.09621
 C351 C 0.40373 0.91933 -0.08136
 H352 H 0.37695 0.83191 -0.11464
 H353 H 0.31050 0.82793 -0.09354
 H354 H 0.35482 0.84558 -0.17953
 H355 H 0.35619 0.91410 -0.16488
 H356 H 0.31180 0.89640 -0.07895
 H357 H 0.28979 0.91013 -0.14374
 C358 C 0.64330 0.87762 0.15037
 C359 C 0.65492 0.84194 0.14313
 C360 C 0.69069 0.85392 0.14426
 C361 C 0.67950 0.88930 0.15178
 C362 C 0.64301 0.88467 0.11327
 C363 C 0.67879 0.89660 0.11442
 C364 C 0.65419 0.84929 0.10574
 C365 C 0.69035 0.86099 0.10715
 C366 C 0.71778 0.83722 0.16107
 C367 C 0.74060 0.82392 0.17446
 C368 C 0.61702 0.90221 0.09557
 C369 C 0.59622 0.91704 0.08059
 H370 H 0.62365 0.88466 0.16794
 H371 H 0.64543 0.81928 0.15514
 H372 H 0.69021 0.90556 0.17089
 H373 H 0.68833 0.91925 0.10243
 H374 H 0.64348 0.83304 0.08661
 H375 H 0.70999 0.85397 0.08956
   
