data_POSCAR
  _audit_creation_date              2014-09-24
  _audit_creation_method            'ToBaCCo'
  _symmetry_space_group_name_H-M    'P1'
  _symmetry_Int_Tables_number       1
  _symmetry_cell_setting            triclinic
  loop_
  _symmetry_equiv_pos_as_xyz
 x,y,z
_cell_length_a 40.4081
_cell_length_b 40.4056
_cell_length_c 40.4048
_cell_angle_alpha 89.999900
_cell_angle_beta 90.000000
_cell_angle_gamma 90.000000
loop_
  _atom_site_label
  _atom_site_type_symbol
  _atom_site_fract_x
  _atom_site_fract_y
  _atom_site_fract_z
Si1 Si 0.25001 0.50000 1.00001
 Si2 Si 0.75001 0.50000 0.00001
 Si3 Si 0.00002 0.24999 0.50002
 Si4 Si 1.00002 0.75000 0.50000
 Si5 Si 0.50002 0.00000 0.25001
 Si6 Si 0.50002 -0.00001 0.75001
 C7 C 0.30057 0.02517 0.46028
 H8 H 0.30134 0.04407 0.47924
 C9 C 0.32309 0.02606 0.43410
 H10 H 0.34123 0.04576 0.43277
 C11 C 0.27669 -0.02422 0.43937
 H12 H 0.25906 -0.04415 0.44188
 C13 C 0.29880 -0.02427 0.41276
 H14 H 0.29794 -0.04408 0.39471
 N15 N 0.27788 0.00037 0.46237
 C16 C 0.19946 0.03972 0.52519
 H17 H 0.19869 0.02077 0.54409
 C18 C 0.17694 0.06591 0.52608
 H19 H 0.15880 0.06724 0.54578
 C20 C 0.22334 0.06064 0.47579
 H21 H 0.24097 0.05813 0.45587
 C22 C 0.20123 0.08724 0.47575
 H23 H 0.20209 0.10529 0.45594
 Zn24 Zn 0.25001 -0.00000 0.50001
 N25 N 0.22215 0.03763 0.50039
 C26 C 0.27669 0.02421 0.56066
 N27 N 0.27788 -0.00038 0.53765
 C28 C 0.30057 -0.02518 0.53974
 C29 C 0.32309 -0.02607 0.56592
 C30 C 0.29880 0.02426 0.58726
 C31 C 0.19946 -0.03973 0.47484
 C32 C 0.17694 -0.06592 0.47394
 C33 C 0.20123 -0.08725 0.52427
 C34 C 0.22334 -0.06065 0.52423
 N35 N 0.22215 -0.03764 0.49963
 H36 H 0.25906 0.04414 0.55815
 H37 H 0.30134 -0.04408 0.52079
 H38 H 0.34123 -0.04577 0.56725
 H39 H 0.29794 0.04407 0.60531
 H40 H 0.19869 -0.02078 0.45594
 H41 H 0.15880 -0.06724 0.45425
 H42 H 0.20209 -0.10530 0.54408
 H43 H 0.24097 -0.05814 0.54415
 C44 C 0.17778 0.08982 0.50108
 C45 C 0.32225 0.00107 0.41018
 C46 C 0.17778 -0.08983 0.49894
 C47 C 0.32225 -0.00107 0.58984
 C48 C 0.69946 0.02517 0.53974
 H49 H 0.69869 0.04407 0.52079
 C50 C 0.67694 0.02606 0.56593
 H51 H 0.65880 0.04575 0.56726
 C52 C 0.72334 -0.02423 0.56065
 H53 H 0.74097 -0.04415 0.55814
 C54 C 0.70123 -0.02428 0.58726
 H55 H 0.70209 -0.04409 0.60531
 N56 N 0.72215 0.00037 0.53765
 C57 C 0.80058 0.03972 0.47484
 H58 H 0.80135 0.02077 0.45594
 C59 C 0.82310 0.06591 0.47395
 H60 H 0.84124 0.06724 0.45425
 C61 C 0.77670 0.06064 0.52424
 H62 H 0.75907 0.05812 0.54416
 C63 C 0.79881 0.08724 0.52428
 H64 H 0.79795 0.10529 0.54409
 Zn65 Zn 0.75002 -0.00000 0.50001
 N66 N 0.77789 0.03763 0.49964
 C67 C 0.72334 0.02422 0.43937
 N68 N 0.72215 -0.00038 0.46237
 C69 C 0.69946 -0.02517 0.46028
 C70 C 0.67694 -0.02606 0.43409
 C71 C 0.70123 0.02427 0.41276
 C72 C 0.80058 -0.03973 0.52518
 C73 C 0.82310 -0.06592 0.52607
 C74 C 0.79881 -0.08725 0.47574
 C75 C 0.77670 -0.06065 0.47579
 N76 N 0.77789 -0.03764 0.50039
 H77 H 0.74097 0.04414 0.44188
 H78 H 0.69869 -0.04408 0.47923
 H79 H 0.65880 -0.04576 0.43277
 H80 H 0.70209 0.04408 0.39472
 H81 H 0.80135 -0.02078 0.54408
 H82 H 0.84124 -0.06725 0.54577
 H83 H 0.79795 -0.10530 0.45593
 H84 H 0.75907 -0.05813 0.45586
 C85 C 0.82225 0.08982 0.49895
 C86 C 0.67779 0.00106 0.58984
 C87 C 0.82225 -0.08983 0.50107
 C88 C 0.67779 -0.00107 0.41018
 C89 C 0.47477 0.19944 1.03970
 H90 H 0.45590 0.19867 1.02073
 C91 C 0.47385 0.17692 1.06589
 H92 H 0.45416 0.15877 1.06719
 C93 C 0.52413 0.22333 1.06068
 H94 H 0.54406 0.24097 1.05820
 C95 C 0.52415 0.20123 1.08729
 H96 H 0.54393 0.20209 1.10536
 N97 N 0.49957 0.22214 1.03764
 C98 C 0.46034 0.30057 0.97475
 H99 H 0.47934 0.30134 0.95590
 C100 C 0.43416 0.32308 0.97379
 H101 H 0.43288 0.34123 0.95409
 C102 C 0.43931 0.27668 1.02409
 H103 H 0.44177 0.25904 1.04402
 C104 C 0.41270 0.29878 1.02407
 H105 H 0.39461 0.29792 1.04383
 Zn106 Zn 0.50001 0.25001 1.00000
 N107 N 0.46238 0.27788 0.99955
 C108 C 0.47589 0.22333 0.93933
 N109 N 0.50045 0.22214 0.96236
 C110 C 0.52525 0.19944 0.96031
 C111 C 0.52617 0.17692 0.93412
 C112 C 0.47587 0.20122 0.91272
 C113 C 0.53967 0.30057 1.02525
 C114 C 0.56586 0.32309 1.02621
 C115 C 0.58732 0.29878 0.97594
 C116 C 0.56071 0.27668 0.97592
 N117 N 0.53764 0.27788 1.00046
 H118 H 0.45596 0.24096 0.94181
 H119 H 0.54412 0.19867 0.97928
 H120 H 0.54586 0.15877 0.93282
 H121 H 0.45609 0.20208 0.89465
 H122 H 0.52068 0.30135 1.04411
 H123 H 0.56714 0.34123 1.04591
 H124 H 0.60541 0.29792 0.95617
 H125 H 0.55825 0.25904 0.95599
 C126 C 0.41018 0.32223 0.99873
 C127 C 0.49882 0.17777 1.08983
 C128 C 0.58983 0.32223 1.00128
 C129 C 0.50120 0.17777 0.91018
 C130 C 0.47477 0.80055 -0.03968
 H131 H 0.45590 0.80132 -0.02070
 C132 C 0.47385 0.82307 -0.06587
 H133 H 0.45416 0.84122 -0.06717
 C134 C 0.52413 0.77666 -0.06066
 H135 H 0.54406 0.75902 -0.05817
 C136 C 0.52415 0.79876 -0.08726
 H137 H 0.54393 0.79790 -0.10534
 N138 N 0.49957 0.77785 -0.03762
 C139 C 0.46034 0.69942 0.02527
 H140 H 0.47934 0.69865 0.04413
 C141 C 0.43416 0.67691 0.02623
 H142 H 0.43288 0.65876 0.04593
 C143 C 0.43931 0.72331 -0.02407
 H144 H 0.44177 0.74095 -0.04399
 C145 C 0.41270 0.70121 -0.02405
 H146 H 0.39461 0.70207 -0.04381
 Zn147 Zn 0.50001 0.74998 0.00002
 N148 N 0.46238 0.72211 0.00047
 C149 C 0.47589 0.77666 0.06070
 N150 N 0.50045 0.77786 0.03766
 C151 C 0.52525 0.80055 0.03972
 C152 C 0.52617 0.82307 0.06590
 C153 C 0.47587 0.79877 0.08730
 C154 C 0.53967 0.69942 -0.02523
 C155 C 0.56586 0.67690 -0.02619
 C156 C 0.58732 0.70121 0.02408
 C157 C 0.56071 0.72331 0.02411
 N158 N 0.53764 0.72211 -0.00043
 H159 H 0.45596 0.75903 0.05821
 H160 H 0.54412 0.80132 0.02074
 H161 H 0.54586 0.84122 0.06720
 H162 H 0.45609 0.79791 0.10537
 H163 H 0.52067 0.69864 -0.04409
 H164 H 0.56714 0.65876 -0.04589
 H165 H 0.60541 0.70207 0.04385
 H166 H 0.55825 0.74095 0.04403
 C167 C 0.41018 0.67776 0.00129
 C168 C 0.49882 0.82222 -0.08981
 C169 C 0.58983 0.67776 -0.00125
 C170 C 0.50120 0.82222 0.08984
 C171 C 1.03967 0.47474 0.19943
 H172 H 1.02068 0.45588 0.19866
 C173 C 1.06586 0.47378 0.17692
 H174 H 1.06714 0.45408 0.15877
 C175 C 1.06071 0.52407 0.22333
 H176 H 1.05825 0.54400 0.24096
 C177 C 1.08732 0.52405 0.20122
 H178 H 1.10541 0.54382 0.20209
 N179 N 1.03764 0.49953 0.22213
 C180 C 0.97478 0.46029 0.30057
 H181 H 0.95590 0.47927 0.30134
 C182 C 0.97386 0.43411 0.32309
 H183 H 0.95416 0.43280 0.34124
 C184 C 1.02414 0.43931 0.27667
 H185 H 1.04406 0.44180 0.25904
 C186 C 1.02415 0.41271 0.29879
 H187 H 1.04394 0.39464 0.29792
 Zn188 Zn 1.00001 0.49999 0.25000
 N189 N 0.99957 0.46235 0.27787
 C190 C 0.93931 0.47590 0.22333
 N191 N 0.96238 0.50044 0.22213
 C192 C 0.96035 0.52524 0.19943
 C193 C 0.93416 0.52619 0.17692
 C194 C 0.91270 0.47592 0.20122
 C195 C 1.02525 0.53968 0.30056
 C196 C 1.02617 0.56587 0.32308
 C197 C 0.97587 0.58727 0.29878
 C198 C 0.97589 0.56067 0.27667
 N199 N 1.00045 0.53763 0.27787
 H200 H 0.94177 0.45598 0.24097
 H201 H 0.97934 0.54409 0.19866
 H202 H 0.93288 0.54589 0.15877
 H203 H 0.89461 0.45616 0.20209
 H204 H 1.04412 0.52071 0.30134
 H205 H 1.04586 0.56717 0.34123
 H206 H 0.95609 0.60534 0.29792
 H207 H 0.95596 0.55818 0.25904
 C208 C 0.99882 0.41016 0.32224
 C209 C 1.08984 0.49871 0.17777
 C210 C 1.00120 0.58982 0.32224
 C211 C 0.91018 0.50126 0.17777
 C212 C -0.03965 0.47475 0.80059
 H213 H -0.02066 0.45590 0.80136
 C214 C -0.06584 0.47380 0.82310
 H215 H -0.06712 0.45410 0.84125
 C216 C -0.06069 0.52409 0.77669
 H217 H -0.05823 0.54402 0.75906
 C218 C -0.08730 0.52407 0.79880
 H219 H -0.10539 0.54383 0.79793
 N220 N -0.03762 0.49955 0.77789
 C221 C 0.02525 0.46031 0.69946
 H222 H 0.04412 0.47928 0.69868
 C223 C 0.02617 0.43412 0.67694
 H224 H 0.04586 0.43282 0.65879
 C225 C -0.02411 0.43933 0.72335
 H226 H -0.04404 0.44181 0.74098
 C227 C -0.02413 0.41272 0.70124
 H228 H -0.04391 0.39465 0.70210
 Zn229 Zn 0.00001 0.50000 0.75002
 N230 N 0.00045 0.46236 0.72215
 C231 C 0.06071 0.47592 0.77669
 N232 N 0.03764 0.50046 0.77789
 C233 C 0.03967 0.52525 0.80059
 C234 C 0.06586 0.52621 0.82310
 C235 C 0.08732 0.47594 0.79880
 C236 C -0.02522 0.53970 0.69946
 C237 C -0.02614 0.56589 0.67694
 C238 C 0.02415 0.58728 0.70124
 C239 C 0.02414 0.56068 0.72335
 N240 N -0.00043 0.53764 0.72215
 H241 H 0.05825 0.45599 0.75906
 H242 H 0.02068 0.54411 0.80136
 H243 H 0.06714 0.54591 0.84125
 H244 H 0.10541 0.45618 0.79794
 H245 H -0.04410 0.52073 0.69868
 H246 H -0.04584 0.56719 0.65879
 H247 H 0.04394 0.60535 0.70210
 H248 H 0.04406 0.55819 0.74098
 C249 C 0.00120 0.41018 0.67779
 C250 C -0.08982 0.49873 0.82225
 C251 C -0.00118 0.58983 0.67778
 C252 C 0.08984 0.50128 0.82225
 C253 C 0.03631 0.22356 0.50002
 C254 C 0.05958 0.20491 0.50009
 C255 C 0.08606 0.18213 0.50021
 C256 C 0.10802 0.16196 0.50036
 C257 C 0.13301 0.13755 0.50058
 C258 C 0.15374 0.11610 0.50079
 C259 C 0.72358 0.53629 -0.00020
 C260 C 0.70493 0.55956 -0.00034
 C261 C 0.68215 0.58604 -0.00051
 C262 C 0.66198 0.60800 -0.00066
 C263 C 0.63757 0.63299 -0.00085
 C264 C 0.61612 0.65372 -0.00103
 C265 C 0.96372 -0.22357 0.50001
 C266 C 0.94046 -0.20492 0.50007
 C267 C 0.91398 -0.18214 0.50020
 C268 C 0.89201 -0.16197 0.50035
 C269 C 0.86703 -0.13756 0.50057
 C270 C 0.84629 -0.11611 0.50078
 C271 C 0.27644 0.46370 0.99979
 C272 C 0.29509 0.44043 0.99965
 C273 C 0.31787 0.41395 0.99948
 C274 C 0.33804 0.39199 0.99932
 C275 C 0.36245 0.36700 0.99913
 C276 C 0.38390 0.34627 0.99895
 C277 C 0.96372 0.22356 0.50002
 C278 C 0.94046 0.20491 0.49995
 C279 C 0.91398 0.18213 0.49982
 C280 C 0.89201 0.16196 0.49967
 C281 C 0.86703 0.13755 0.49946
 C282 C 0.84629 0.11610 0.49924
 C283 C 0.27644 0.53629 0.00023
 C284 C 0.29509 0.55956 0.00037
 C285 C 0.31787 0.58604 0.00055
 C286 C 0.33804 0.60800 0.00070
 C287 C 0.36245 0.63299 0.00089
 C288 C 0.38390 0.65372 0.00107
 C289 C 0.03631 -0.22357 0.50000
 C290 C 0.05958 -0.20492 0.49994
 C291 C 0.08606 -0.18214 0.49981
 C292 C 0.10802 -0.16197 0.49966
 C293 C 0.13301 -0.13756 0.49944
 C294 C 0.15374 -0.11611 0.49923
 C295 C 0.72358 0.46370 1.00022
 C296 C 0.70493 0.44043 1.00036
 C297 C 0.68215 0.41395 1.00053
 C298 C 0.66198 0.39199 1.00069
 C299 C 0.63757 0.36700 1.00087
 C300 C 0.61612 0.34627 1.00105
 C301 C 0.49996 0.03630 1.22358
 C302 C 0.49986 0.05956 1.20493
 C303 C 0.49970 0.08604 1.18214
 C304 C 0.49953 0.10800 1.16197
 C305 C 0.49930 0.13299 1.13756
 C306 C 0.49909 0.15373 1.11611
 C307 C -0.00004 0.72357 0.53630
 C308 C -0.00014 0.70491 0.55957
 C309 C -0.00029 0.68213 0.58605
 C310 C -0.00046 0.66196 0.60801
 C311 C -0.00069 0.63755 0.63300
 C312 C -0.00091 0.61610 0.65374
 C313 C 0.49996 0.96369 -0.22356
 C314 C 0.49986 0.94043 -0.20490
 C315 C 0.49970 0.91395 -0.18212
 C316 C 0.49953 0.89199 -0.16194
 C317 C 0.49930 0.86700 -0.13754
 C318 C 0.49909 0.84626 -0.11609
 C319 C 0.99996 0.27642 0.46372
 C320 C 0.99986 0.29508 0.44046
 C321 C 0.99971 0.31786 0.41398
 C322 C 0.99954 0.33803 0.39201
 C323 C 0.99931 0.36244 0.36702
 C324 C 0.99909 0.38389 0.34629
 C325 C 0.50007 0.96371 0.22358
 C326 C 0.50017 0.94044 0.20493
 C327 C 0.50033 0.91396 0.18215
 C328 C 0.50049 0.89200 0.16197
 C329 C 0.50072 0.86701 0.13757
 C330 C 0.50093 0.84627 0.11612
 C331 C 0.00008 0.27643 0.53632
 C332 C 0.00017 0.29508 0.55958
 C333 C 0.00033 0.31786 0.58606
 C334 C 0.00050 0.33804 0.60802
 C335 C 0.00072 0.36245 0.63301
 C336 C 0.00093 0.38390 0.65374
 C337 C 0.50007 0.03629 0.77644
 C338 C 0.50017 0.05955 0.79509
 C339 C 0.50033 0.08603 0.81787
 C340 C 0.50049 0.10799 0.83805
 C341 C 0.50072 0.13298 0.86246
 C342 C 0.50093 0.15372 0.88390
 C343 C 1.00008 0.72356 0.46371
 C344 C 1.00017 0.70491 0.44044
 C345 C 1.00033 0.68213 0.41397
 C346 C 1.00050 0.66195 0.39200
 C347 C 1.00072 0.63754 0.36701
 C348 C 1.00093 0.61609 0.34628
 C349 C 1.22358 0.49978 0.03631
 C350 C 1.20493 0.49963 0.05957
 C351 C 1.18215 0.49946 0.08605
 C352 C 1.16198 0.49931 0.10802
 C353 C 1.13757 0.49912 0.13300
 C354 C 1.11612 0.49894 0.15374
 C355 C 0.53631 -0.00001 0.72358
 C356 C 0.55958 0.00005 0.70493
 C357 C 0.58606 0.00018 0.68215
 C358 C 0.60802 0.00033 0.66197
 C359 C 0.63301 0.00055 0.63757
 C360 C 0.65375 0.00077 0.61612
 C361 C -0.22356 0.49978 0.96371
 C362 C -0.20491 0.49964 0.94045
 C363 C -0.18213 0.49947 0.91397
 C364 C -0.16196 0.49932 0.89200
 C365 C -0.13755 0.49913 0.86702
 C366 C -0.11610 0.49896 0.84628
 C367 C 0.46372 0.00001 0.27645
 C368 C 0.44046 0.00007 0.29510
 C369 C 0.41398 0.00020 0.31788
 C370 C 0.39201 0.00035 0.33805
 C371 C 0.36702 0.00056 0.36246
 C372 C 0.34629 0.00078 0.38390
 C373 C 0.22358 0.50021 0.96371
 C374 C 0.20493 0.50036 0.94045
 C375 C 0.18215 0.50053 0.91397
 C376 C 0.16198 0.50068 0.89200
 C377 C 0.13757 0.50087 0.86702
 C378 C 0.11612 0.50105 0.84629
 C379 C 0.53631 0.00000 0.27645
 C380 C 0.55958 -0.00006 0.29510
 C381 C 0.58606 -0.00019 0.31787
 C382 C 0.60802 -0.00034 0.33805
 C383 C 0.63301 -0.00056 0.36245
 C384 C 0.65375 -0.00078 0.38390
 C385 C 0.77644 0.50021 0.03631
 C386 C 0.79509 0.50035 0.05957
 C387 C 0.81787 0.50052 0.08605
 C388 C 0.83804 0.50067 0.10802
 C389 C 0.86245 0.50086 0.13301
 C390 C 0.88390 0.50103 0.15374
 C391 C 0.46372 -0.00002 0.72357
 C392 C 0.44046 -0.00008 0.70492
 C393 C 0.41398 -0.00021 0.68215
 C394 C 0.39201 -0.00035 0.66197
 C395 C 0.36702 -0.00057 0.63757
 C396 C 0.34629 -0.00079 0.61612
   
