data_POSCAR
  _audit_creation_date              2014-09-24
  _audit_creation_method            'ToBaCCo'
  _symmetry_space_group_name_H-M    'P1'
  _symmetry_Int_Tables_number       1
  _symmetry_cell_setting            triclinic
  loop_
  _symmetry_equiv_pos_as_xyz
 x,y,z
_cell_length_a 39.0936
_cell_length_b 38.4327
_cell_length_c 40.5822
_cell_angle_alpha 86.778000
_cell_angle_beta 88.472300
_cell_angle_gamma 90.511100
loop_
  _atom_site_label
  _atom_site_type_symbol
  _atom_site_fract_x
  _atom_site_fract_y
  _atom_site_fract_z
N1 N 0.58846 0.68601 0.61984
 N2 N 0.57629 0.67040 0.64740
 C3 C 0.55032 0.68926 0.65928
 C4 C 0.54573 0.71786 0.63780
 C5 C 0.57036 0.71505 0.61299
 H6 H 0.53573 0.68279 0.68183
 H7 H 0.57532 0.73318 0.59203
 Cu8 Cu 0.59551 0.62693 0.66499
 Cu9 Cu 0.62801 0.66853 0.59588
 Cu10 Cu 0.66392 0.59206 0.62796
 N11 N 0.61518 0.58349 0.68212
 N12 N 0.64265 0.57062 0.66813
 C13 C 0.65161 0.54129 0.68533
 C14 C 0.62828 0.53518 0.71122
 C15 C 0.60542 0.56251 0.70846
 H16 H 0.67323 0.52527 0.67922
 H17 H 0.58368 0.56711 0.72459
 N18 N 0.68167 0.61751 0.58748
 N19 N 0.66816 0.64673 0.57536
 C20 C 0.68587 0.65764 0.54770
 C21 C 0.71161 0.63403 0.54214
 C22 C 0.70810 0.60893 0.56768
 H23 H 0.68011 0.68069 0.53244
 H24 H 0.72372 0.58603 0.57139
 H25 H 0.62053 0.61664 0.61078
 H26 H 0.64943 0.64257 0.63612
 N27 N 0.90520 0.31800 0.12874
 N28 N 0.91541 0.33249 0.15543
 C29 C 0.94211 0.31454 0.16772
 C30 C 0.94926 0.28771 0.14742
 C31 C 0.92530 0.29066 0.12285
 H32 H 0.95585 0.32081 0.18944
 H33 H 0.92228 0.27405 0.10248
 Cu34 Cu 0.89381 0.37450 0.17013
 Cu35 Cu 0.86585 0.33489 0.10422
 Cu36 Cu 0.82610 0.40882 0.13162
 N37 N 0.87220 0.41651 0.18484
 N38 N 0.84525 0.42941 0.16999
 C39 C 0.83524 0.45824 0.18481
 C40 C 0.85737 0.46399 0.20993
 C41 C 0.88056 0.43701 0.20933
 H42 H 0.81385 0.47428 0.17749
 H43 H 0.90176 0.43259 0.22557
 N44 N 0.81067 0.38424 0.09324
 N45 N 0.82560 0.35596 0.08296
 C46 C 0.80903 0.34526 0.05658
 C47 C 0.78255 0.36802 0.04993
 C48 C 0.78445 0.39242 0.07348
 H49 H 0.81595 0.32286 0.04299
 H50 H 0.76776 0.41446 0.07598
 H51 H 0.87087 0.38638 0.11541
 H52 H 0.84170 0.35835 0.14284
 N53 N 0.42238 0.16274 -0.10801
 N54 N 0.43639 0.15220 -0.13548
 C55 C 0.46279 0.17359 -0.14486
 C56 C 0.46545 0.19874 -0.12192
 C57 C 0.43955 0.19097 -0.09883
 H58 H 0.47912 0.17081 -0.16645
 H59 H 0.43361 0.20496 -0.07704
 Cu60 Cu 0.41893 0.11129 -0.15592
 Cu61 Cu 0.38285 0.13922 -0.08628
 Cu62 Cu 0.35213 0.06550 -0.12182
 N63 N 0.40164 0.06984 -0.17561
 N64 N 0.37510 0.05242 -0.16242
 C65 C 0.36730 0.02616 -0.18158
 C66 C 0.39037 0.02692 -0.20796
 C67 C 0.41185 0.05498 -0.20347
 H68 H 0.34622 0.00798 -0.17689
 H69 H 0.43265 0.06443 -0.21974
 N70 N 0.33230 0.08300 -0.08084
 N71 N 0.34322 0.11176 -0.06800
 C72 C 0.32350 0.11781 -0.04123
 C73 C 0.29928 0.09141 -0.03695
 C74 C 0.30571 0.06970 -0.06227
 H75 H 0.32673 0.13954 -0.02577
 H76 H 0.29153 0.04633 -0.06708
 H77 H 0.39362 0.09054 -0.10282
 H78 H 0.36367 0.11807 -0.12783
 N79 N 0.08037 0.82255 0.39773
 N80 N 0.07017 0.83439 0.36865
 C81 C 0.04154 0.81712 0.36113
 C82 C 0.03327 0.79335 0.38719
 C83 C 0.05835 0.79769 0.40999
 H84 H 0.02766 0.82195 0.33867
 H85 H 0.06071 0.78331 0.43350
 Cu86 Cu 0.09468 0.87178 0.34360
 Cu87 Cu 0.12238 0.83891 0.41661
 Cu88 Cu 0.16089 0.91210 0.37790
 N89 N 0.11255 0.91649 0.32577
 N90 N 0.13869 0.93188 0.33883
 C91 C 0.14638 0.96158 0.32087
 C92 C 0.12362 0.96515 0.29548
 C93 C 0.10246 0.93604 0.29929
 H94 H 0.16701 0.97931 0.32583
 H95 H 0.08173 0.92924 0.28368
 N96 N 0.17929 0.88792 0.41765
 N97 N 0.16508 0.85938 0.43180
 C98 C 0.18456 0.84766 0.45685
 C99 C 0.21198 0.87017 0.45889
 C100 C 0.20793 0.89545 0.43371
 H101 H 0.17937 0.82437 0.47245
 H102 H 0.22515 0.91700 0.42695
 H103 H 0.11587 0.88898 0.39601
 H104 H 0.14674 0.86062 0.37409
 C105 C 0.10629 0.15395 0.10256
 C106 C 0.13753 0.14174 0.09029
 C107 C 0.15327 0.11377 0.10635
 C108 C 0.13811 0.09789 0.13518
 C109 C 0.10734 0.11007 0.14741
 C110 C 0.09142 0.13846 0.13110
 C111 C 0.08481 0.17990 0.09136
 N112 N 0.05762 0.18091 0.11269
 C113 C 0.06134 0.15570 0.13713
 C114 C 0.09852 0.08954 0.17528
 N115 N 0.12326 0.06529 0.18024
 C116 C 0.14766 0.07040 0.15601
 C117 C 0.18310 0.10762 0.08888
 N118 N 0.18580 0.13141 0.06285
 C119 C 0.15820 0.15248 0.06363
 H120 H 0.08857 0.19679 0.06927
 H121 H 0.04310 0.14975 0.15725
 H122 H 0.07600 0.09243 0.19094
 H123 H 0.17056 0.05499 0.15361
 H124 H 0.20179 0.08787 0.09511
 H125 H 0.15360 0.17408 0.04607
 C126 C 0.40105 0.87138 0.59086
 C127 C 0.37226 0.88908 0.57904
 C128 C 0.35910 0.91659 0.59576
 C129 C 0.37431 0.92647 0.62477
 C130 C 0.40266 0.90892 0.63651
 C131 C 0.41601 0.88105 0.61953
 C132 C 0.41962 0.84410 0.57937
 N133 N 0.44510 0.83668 0.60060
 C134 C 0.44318 0.85918 0.62525
 C135 C 0.41185 0.92394 0.66503
 N136 N 0.38964 0.95006 0.67086
 C137 C 0.36651 0.95163 0.64651
 C138 C 0.33140 0.92898 0.57861
 N139 N 0.32715 0.90928 0.55230
 C140 C 0.35208 0.88486 0.55225
 H141 H 0.41494 0.83051 0.55724
 H142 H 0.46062 0.86009 0.64547
 H143 H 0.43265 0.91588 0.68070
 H144 H 0.34550 0.96976 0.64483
 H145 H 0.31522 0.95045 0.58497
 H146 H 0.35551 0.86568 0.53393
 C147 C 0.87200 0.66513 0.37042
 C148 C 0.84352 0.65028 0.38787
 C149 C 0.82865 0.62005 0.37764
 C150 C 0.84192 0.60435 0.34973
 C151 C 0.86993 0.61907 0.33246
 C152 C 0.88489 0.64981 0.34270
 C153 C 0.89214 0.69391 0.37510
 N154 N 0.91670 0.69645 0.35073
 C155 C 0.91232 0.66981 0.33067
 C156 C 0.87789 0.59785 0.30722
 N157 N 0.85534 0.57063 0.30880
 C158 C 0.83308 0.57457 0.33450
 C159 C 0.80215 0.61113 0.39958
 N160 N 0.80032 0.63539 0.42258
 C161 C 0.82565 0.65940 0.41572
 H162 H 0.88893 0.71185 0.39456
 H163 H 0.92828 0.66510 0.30920
 H164 H 0.89847 0.60205 0.28903
 H165 H 0.81233 0.55671 0.34187
 H166 H 0.78541 0.58859 0.39895
 H167 H 0.83122 0.68145 0.43021
 C168 C 0.62106 0.33539 -0.10819
 C169 C 0.64973 0.35059 -0.09443
 C170 C 0.66328 0.38159 -0.10833
 C171 C 0.64843 0.39774 -0.13623
 C172 C 0.62007 0.38281 -0.14971
 C173 C 0.60645 0.35131 -0.13575
 C174 C 0.60225 0.30562 -0.09973
 N175 N 0.57697 0.30287 -0.12172
 C176 C 0.57921 0.33083 -0.14378
 C177 C 0.61080 0.40432 -0.17617
 N178 N 0.63298 0.43183 -0.17907
 C179 C 0.65621 0.42789 -0.15495
 C180 C 0.69031 0.39069 -0.08945
 N181 N 0.69372 0.36585 -0.06469
 C182 C 0.66893 0.34121 -0.06747
 H183 H 0.60671 0.28714 -0.07920
 H184 H 0.56203 0.33625 -0.16386
 H185 H 0.58981 0.39998 -0.19236
 H186 H 0.67707 0.44584 -0.15119
 H187 H 0.70624 0.41384 -0.09324
 H188 H 0.66453 0.31862 -0.05071
 C189 C -0.02449 0.26354 0.15158
 C190 C -0.01592 0.24102 0.12884
 C191 C 0.01251 0.21668 0.13407
 C192 C 0.02915 0.20380 0.10839
 H193 H -0.02878 0.24135 0.10551
 H194 H 0.02085 0.21040 0.15894
 H195 H -0.00974 0.26406 0.17381
 H196 H 0.02245 0.21243 0.08350
 C197 C 0.52056 0.74565 0.64194
 C198 C 0.51119 0.76709 0.61682
 C199 C 0.48585 0.79451 0.62187
 C200 C 0.47020 0.81019 0.59628
 H201 H 0.52161 0.76391 0.59217
 H202 H 0.47921 0.80119 0.64681
 H203 H 0.50865 0.74777 0.66617
 H204 H 0.47534 0.80166 0.57163
 C205 C 1.00603 0.76955 0.39073
 C206 C 0.98477 0.76336 0.36638
 C207 C 0.95693 0.73745 0.37156
 C208 C 0.94288 0.72277 0.34603
 H209 H 0.98848 0.77630 0.34212
 H210 H 0.94886 0.72917 0.39655
 H211 H 1.00281 0.75469 0.41415
 H212 H 0.95290 0.72915 0.32123
 C213 C 0.49057 0.22747 -0.12111
 C214 C 0.51023 0.23777 -0.14746
 C215 C 0.53517 0.26683 -0.14746
 C216 C 0.55203 0.27514 -0.12061
 H217 H 0.50680 0.22589 -0.17072
 H218 H 0.54134 0.28025 -0.17104
 H219 H 0.49189 0.24114 -0.09857
 H220 H 0.54832 0.25952 -0.09771
 C221 C 0.12358 -0.00650 0.26949
 C222 C 0.09708 -0.00109 0.24965
 C223 C 0.09653 0.02710 0.22341
 C224 C 0.12469 0.03886 0.20662
 H225 H 0.07401 -0.01670 0.25362
 H226 H 0.07168 0.03659 0.21628
 H227 H 0.14561 0.01084 0.26740
 H228 H 0.14915 0.02694 0.21161
 C229 C 0.62881 0.50721 -0.26528
 C230 C 0.60365 0.50072 -0.24259
 C231 C 0.60436 0.47096 -0.21804
 C232 C 0.63313 0.46011 -0.20371
 H233 H 0.58063 0.51616 -0.24294
 H234 H 0.58003 0.45936 -0.20992
 H235 H 0.65028 0.48962 -0.26627
 H236 H 0.65695 0.47410 -0.20931
 C237 C 0.39008 1.00371 0.76439
 C238 C 0.41695 1.00103 0.74355
 C239 C 0.41695 0.97795 0.71568
 C240 C 0.38892 0.97176 0.69853
 H241 H 0.44057 1.01474 0.74787
 H242 H 0.44135 0.96778 0.70776
 H243 H 0.36745 0.98774 0.76182
 H244 H 0.36526 0.98479 0.70444
 C245 C 0.85597 0.49312 0.23199
 C246 C 0.88276 0.50210 0.24968
 C247 C 0.88246 0.53189 0.27109
 C248 C 0.85436 0.54225 0.28728
 H249 H 0.90678 0.48864 0.24695
 H250 H 0.90688 0.54413 0.27525
 H251 H 0.83282 0.50838 0.23243
 H252 H 0.83058 0.52781 0.28578
 C253 C 0.27209 0.08679 -0.01123
 C254 C 0.25998 0.11353 0.00502
 C255 C 0.23214 0.10851 0.02998
 C256 C 0.21356 0.13552 0.03908
 H257 H 0.26981 0.13965 -0.00094
 H258 H 0.22602 0.08245 0.04011
 H259 H 0.26071 0.06109 -0.00668
 H260 H 0.21831 0.16107 0.02703
 C261 C 0.73693 0.63400 0.51459
 C262 C 0.74290 0.66196 0.49395
 C263 C 0.76832 0.66241 0.46634
 C264 C 0.77613 0.63411 0.44990
 H265 H 0.73010 0.68620 0.49823
 H266 H 0.77920 0.68748 0.45813
 H267 H 0.75168 0.61055 0.51202
 H268 H 0.76278 0.60972 0.45615
 C269 C 0.75765 0.36769 0.02335
 C270 C 0.75301 0.34000 0.00527
 C271 C 0.72755 0.33905 -0.02091
 C272 C 0.71847 0.36739 -0.03927
 H273 H 0.76681 0.31622 0.01096
 H274 H 0.71750 0.31373 -0.02626
 H275 H 0.74192 0.39053 0.01951
 H276 H 0.73099 0.39216 -0.03598
 C277 C 0.24013 0.86614 0.48209
 C278 C 0.25984 0.89290 0.48978
 C279 C 0.28757 0.88764 0.51329
 C280 C 0.30078 0.91432 0.52864
 H281 H 0.25491 0.91894 0.47946
 H282 H 0.29643 0.86143 0.51905
 H283 H 0.24391 0.84060 0.49410
 H284 H 0.29008 0.94010 0.52465
   
