data_POSCAR
  _audit_creation_date              2014-09-24
  _audit_creation_method            'ToBaCCo'
  _symmetry_space_group_name_H-M    'P1'
  _symmetry_Int_Tables_number       1
  _symmetry_cell_setting            triclinic
  loop_
  _symmetry_equiv_pos_as_xyz
 x,y,z
_cell_length_a 25.2388
_cell_length_b 24.3422
_cell_length_c 23.4158
_cell_angle_alpha 89.919700
_cell_angle_beta 93.922000
_cell_angle_gamma 89.955000
loop_
  _atom_site_label
  _atom_site_type_symbol
  _atom_site_fract_x
  _atom_site_fract_y
  _atom_site_fract_z
C1 C 0.31412 0.33377 0.23549
 H2 H 0.31732 0.33421 0.28157
 C3 C 0.35211 0.36146 0.20582
 H4 H 0.38458 0.38237 0.22932
 C5 C 0.26863 0.30615 0.14846
 H6 H 0.23598 0.28482 0.12609
 C7 C 0.30568 0.33359 0.11705
 H8 H 0.30163 0.33286 0.07071
 N9 N 0.27447 0.30501 0.20671
 C10 C 0.16455 0.27593 0.33937
 H11 H 0.16849 0.23189 0.34428
 C12 C 0.13403 0.30567 0.37609
 H13 H 0.11394 0.28458 0.40915
 C14 C 0.18568 0.35740 0.29003
 H15 H 0.20586 0.37719 0.25632
 C16 C 0.15548 0.38871 0.32578
 H17 H 0.15208 0.43269 0.31938
 Zn18 Zn 0.23025 0.25914 0.24961
 N19 N 0.18919 0.30202 0.29712
 C20 C 0.30180 0.23665 0.34389
 N21 N 0.27426 0.21307 0.29829
 C22 C 0.27787 0.15815 0.28827
 C23 C 0.31203 0.12536 0.32313
 C24 C 0.33683 0.20552 0.37941
 C25 C 0.13199 0.21251 0.20607
 C26 C 0.10006 0.17494 0.17436
 C27 C 0.17742 0.14532 0.12745
 C28 C 0.20790 0.18297 0.16033
 N29 N 0.18521 0.21476 0.19977
 H30 H 0.29642 0.27967 0.35300
 H31 H 0.25471 0.13945 0.25316
 H32 H 0.31521 0.08188 0.31421
 H33 H 0.35969 0.22515 0.41450
 H34 H 0.11443 0.23847 0.23704
 H35 H 0.05817 0.17198 0.18133
 H36 H 0.19629 0.11922 0.09737
 H37 H 0.25022 0.18550 0.15588
 C38 C 0.12896 0.36258 0.36890
 C39 C 0.34901 0.35991 0.14598
 C40 C 0.12321 0.13973 0.13581
 C41 C 0.34216 0.14920 0.36906
 C42 C 0.81170 0.84301 0.22958
 H43 H 0.80495 0.85430 0.27310
 C44 C 0.85069 0.87038 0.20094
 H45 H 0.87453 0.90133 0.22374
 C46 C 0.78856 0.78908 0.14776
 H47 H 0.76377 0.75827 0.12650
 C48 C 0.82725 0.81515 0.11760
 H49 H 0.83114 0.80418 0.07325
 N50 N 0.78322 0.80141 0.20371
 C51 C 0.69756 0.80166 0.34924
 H52 H 0.71962 0.76868 0.37068
 C53 C 0.66762 0.83708 0.38089
 H54 H 0.66692 0.83148 0.42673
 C55 C 0.67035 0.84873 0.26334
 H56 H 0.67160 0.85259 0.21743
 C57 C 0.63963 0.88497 0.29338
 H58 H 0.61677 0.91677 0.27059
 Zn59 Zn 0.73844 0.75936 0.24951
 N60 N 0.69833 0.80806 0.29160
 C61 C 0.82155 0.73917 0.33423
 N62 N 0.78152 0.71510 0.30130
 C63 C 0.77243 0.66004 0.30456
 C64 C 0.80596 0.62670 0.33959
 C65 C 0.85589 0.70738 0.36990
 C66 C 0.63857 0.71550 0.20907
 C67 C 0.60454 0.67763 0.18064
 C68 C 0.68067 0.63586 0.14096
 C69 C 0.71327 0.67388 0.17077
 N70 N 0.69197 0.71270 0.20416
 H71 H 0.82747 0.78295 0.33238
 H72 H 0.73962 0.64163 0.27955
 H73 H 0.79963 0.58271 0.34037
 H74 H 0.88875 0.72668 0.39439
 H75 H 0.62234 0.74596 0.23650
 H76 H 0.56230 0.67943 0.18605
 H77 H 0.69826 0.60510 0.11472
 H78 H 0.75589 0.67135 0.16871
 C79 C 0.63846 0.87934 0.35287
 C80 C 0.86109 0.85443 0.14504
 C81 C 0.62576 0.63653 0.14704
 C82 C 0.84871 0.65047 0.37175
 C83 C 0.84432 0.33372 0.73897
 H84 H 0.85095 0.33424 0.78510
 C85 C 0.87617 0.36545 0.70528
 H86 H 0.90702 0.39103 0.72569
 C87 C 0.79546 0.30055 0.65607
 H88 H 0.76347 0.27588 0.63697
 C89 C 0.82706 0.33076 0.62078
 H90 H 0.81958 0.32852 0.57474
 N91 N 0.80519 0.30171 0.71398
 C92 C 0.68989 0.27504 0.84306
 H93 H 0.69060 0.23076 0.84691
 C94 C 0.65346 0.30522 0.87242
 H95 H 0.62724 0.28421 0.89996
 C96 C 0.72079 0.35614 0.80017
 H97 H 0.74622 0.37574 0.77098
 C98 C 0.68484 0.38797 0.82887
 H99 H 0.68316 0.43197 0.82210
 Zn100 Zn 0.76553 0.25650 0.76136
 N101 N 0.72229 0.30056 0.80716
 C102 C 0.80654 0.20207 0.86370
 N103 N 0.81345 0.21145 0.80744
 C104 C 0.85265 0.18538 0.78099
 C105 C 0.88340 0.14473 0.80955
 C106 C 0.83546 0.16092 0.89351
 C107 C 0.66712 0.21213 0.71712
 C108 C 0.63397 0.17681 0.68449
 C109 C 0.71098 0.13941 0.64273
 C110 C 0.74296 0.17405 0.67787
 N111 N 0.72075 0.20957 0.71428
 H112 H 0.77759 0.22515 0.88546
 H113 H 0.85895 0.19482 0.73685
 H114 H 0.91193 0.12272 0.78570
 H115 H 0.82860 0.15402 0.93814
 H116 H 0.64955 0.24174 0.74428
 H117 H 0.59144 0.17893 0.68802
 H118 H 0.72907 0.11270 0.61262
 H119 H 0.78546 0.17345 0.67499
 C120 C 0.64993 0.36217 0.86443
 C121 C 0.86864 0.36287 0.64533
 C122 C 0.65583 0.13953 0.64704
 C123 C 0.87253 0.12891 0.86565
 C124 C 0.33027 0.85135 0.72536
 H125 H 0.32393 0.86341 0.76879
 C126 C 0.35797 0.88607 0.69057
 H127 H 0.37174 0.92542 0.70717
 C128 C 0.32026 0.78524 0.65128
 H129 H 0.30571 0.74563 0.63646
 C130 C 0.35024 0.81738 0.61613
 H131 H 0.35933 0.80184 0.57461
 N132 N 0.30997 0.80318 0.70435
 C133 C 0.19358 0.77401 0.83126
 H134 H 0.20030 0.73061 0.83869
 C135 C 0.15590 0.80184 0.86132
 H136 H 0.13419 0.78005 0.89263
 C137 C 0.21191 0.85498 0.77994
 H138 H 0.23157 0.87509 0.74620
 C139 C 0.17481 0.88445 0.80925
 H140 H 0.16757 0.92737 0.79923
 Zn141 Zn 0.26899 0.75855 0.75030
 N142 N 0.22160 0.80102 0.79229
 C143 C 0.31808 0.71909 0.85661
 N144 N 0.31645 0.71587 0.79849
 C145 C 0.34773 0.67975 0.77189
 C146 C 0.37839 0.64133 0.80371
 C147 C 0.34885 0.68187 0.89018
 C148 C 0.19165 0.73656 0.66300
 C149 C 0.15487 0.70535 0.62981
 C150 C 0.18921 0.62372 0.67833
 C151 C 0.22506 0.65651 0.71092
 N152 N 0.22546 0.71190 0.70291
 H153 H 0.29448 0.74939 0.87702
 H154 H 0.34651 0.67882 0.72564
 H155 H 0.40065 0.61068 0.78189
 H156 H 0.34833 0.68318 0.93637
 H157 H 0.19248 0.78074 0.65805
 H158 H 0.12708 0.72550 0.59930
 H159 H 0.18827 0.57982 0.68582
 H160 H 0.25111 0.63777 0.74387
 C161 C 0.14629 0.85768 0.85025
 C162 C 0.36762 0.86959 0.63474
 C163 C 0.15284 0.64845 0.63829
 C164 C 0.37750 0.64093 0.86343
 C165 C 0.00036 -0.02939 -0.00085
 C166 C -0.00100 0.50743 0.50657
 C167 C 0.50276 0.01080 0.49700
 C168 C 0.49767 0.47604 0.00539
 C169 C 0.09049 -0.04383 -0.04636
 C170 C 0.12474 -0.07031 -0.08124
 C171 C 0.10672 -0.11200 -0.11809
 C172 C 0.05204 -0.12446 -0.12323
 C173 C 0.01662 -0.09832 -0.08683
 C174 C 0.03647 -0.05946 -0.04391
 C175 C -0.03695 -0.11440 -0.09318
 N176 N -0.05390 -0.15154 -0.13343
 N177 N -0.02083 -0.17452 -0.16819
 C178 C 0.03156 -0.16234 -0.16439
 H179 H 0.10790 -0.01042 -0.02155
 H180 H 0.16621 -0.05841 -0.07890
 H181 H -0.06539 -0.09931 -0.06584
 H182 H 0.05661 -0.18203 -0.19397
 C183 C 0.08790 0.46322 0.47870
 C184 C 0.11813 0.42915 0.44624
 C185 C 0.09431 0.39477 0.40477
 C186 C 0.03849 0.39384 0.39599
 C187 C 0.00685 0.42960 0.42787
 C188 C 0.03166 0.46616 0.47050
 C189 C -0.04835 0.42917 0.41318
 N190 N -0.06978 0.39460 0.37262
 N191 N -0.04000 0.36045 0.34434
 C192 C 0.01336 0.35919 0.35430
 H193 H 0.11040 0.48759 0.51000
 H194 H 0.16101 0.42987 0.45348
 H195 H -0.07505 0.45715 0.43109
 H196 H 0.03557 0.33138 0.32904
 C197 C 0.53075 -0.07836 0.44580
 C198 C 0.56341 -0.10901 0.41292
 C199 C 0.60458 -0.08457 0.38572
 C200 C 0.61253 -0.02735 0.39066
 C201 C 0.57783 0.00510 0.42240
 C202 C 0.53656 -0.02074 0.45286
 C203 C 0.58578 0.06250 0.42166
 N204 N 0.62683 0.08463 0.39518
 N205 N 0.66075 0.05362 0.36853
 C206 C 0.65499 -0.00155 0.36534
 H207 H 0.50261 -0.10205 0.46800
 H208 H 0.55709 -0.15298 0.40969
 H209 H 0.55890 0.09061 0.43968
 H210 H 0.68382 -0.02464 0.34311
 C211 C 0.59042 0.46047 -0.03435
 C212 C 0.62624 0.43395 -0.06740
 C213 C 0.60930 0.39410 -0.10692
 C214 C 0.55435 0.38408 -0.11684
 C215 C 0.51736 0.40983 -0.08197
 C216 C 0.53566 0.44636 -0.03619
 C217 C 0.46362 0.39581 -0.09293
 N218 N 0.44798 0.36120 -0.13612
 N219 N 0.48255 0.33886 -0.16958
 C220 C 0.53518 0.34904 -0.16137
 H221 H 0.60732 0.49265 -0.00743
 H222 H 0.66803 0.44422 -0.06136
 H223 H 0.43396 0.41046 -0.06695
 H224 H 0.56146 0.33012 -0.19021
 C225 C -0.01953 0.03749 -0.08259
 C226 C -0.04862 0.07609 -0.11499
 C227 C -0.10260 0.08481 -0.10788
 C228 C -0.12916 0.04596 -0.07391
 C229 C -0.09972 0.00385 -0.04232
 C230 C -0.04210 0.00305 -0.04186
 C231 C -0.13034 -0.03717 -0.01683
 N232 N -0.18397 -0.03469 -0.01943
 N233 N -0.21065 0.00456 -0.04813
 C234 C -0.18536 0.04381 -0.07649
 H235 H 0.02294 0.03799 -0.08640
 H236 H -0.02662 0.10330 -0.14134
 H237 H -0.11410 -0.07400 0.00167
 H238 H -0.21003 0.07100 -0.10322
 C239 C -0.07280 0.58114 0.49316
 C240 C -0.11014 0.61322 0.46216
 C241 C -0.11105 0.61557 0.40281
 C242 C -0.07047 0.58948 0.37434
 C243 C -0.02998 0.55921 0.40616
 C244 C -0.03534 0.54833 0.46648
 C245 C 0.01469 0.54449 0.37597
 N246 N 0.01494 0.55245 0.31870
 N247 N -0.02541 0.57621 0.28882
 C248 C -0.06787 0.59541 0.31471
 H249 H -0.07527 0.58003 0.53885
 H250 H -0.13928 0.63572 0.48477
 H251 H 0.05086 0.52905 0.39621
 H252 H -0.09852 0.61638 0.28851
 C253 C 0.45992 0.05884 0.40568
 C254 C 0.42128 0.09010 0.37595
 C255 C 0.38130 0.11582 0.40405
 C256 C 0.38046 0.11039 0.46404
 C257 C 0.42143 0.08060 0.49552
 C258 C 0.46185 0.05230 0.46598
 C259 C 0.42022 0.08064 0.55575
 N260 N 0.37973 0.10479 0.58141
 N261 N 0.34005 0.12964 0.55134
 C262 C 0.33899 0.13320 0.49363
 H263 H 0.48676 0.03785 0.37934
 H264 H 0.42228 0.09366 0.32988
 H265 H 0.45155 0.06326 0.58330
 H266 H 0.30549 0.15356 0.47150
 C267 C 0.48467 0.54805 -0.07260
 C268 C 0.45805 0.58901 -0.10423
 C269 C 0.40347 0.59549 -0.10282
 C270 C 0.37416 0.55652 -0.07309
 C271 C 0.40073 0.51272 -0.04172
 C272 C 0.45858 0.51123 -0.03670
 C273 C 0.36720 0.47178 -0.02046
 N274 N 0.31367 0.47701 -0.02526
 N275 N 0.28988 0.51945 -0.05171
 C276 C 0.31817 0.55889 -0.07634
 H277 H 0.52752 0.54806 -0.07293
 H278 H 0.48077 0.61730 -0.12865
 H279 H 0.38120 0.43360 -0.00293
 H280 H 0.29619 0.59085 -0.09955
 C281 C -0.05408 -0.03913 0.08519
 C282 C -0.08811 -0.06545 0.12041
 C283 C -0.09643 -0.12211 0.11667
 C284 C -0.06177 -0.15369 0.08415
 C285 C -0.02484 -0.12717 0.04917
 C286 C -0.02549 -0.06762 0.04428
 C287 C 0.01201 -0.16208 0.02390
 N288 N 0.01009 -0.21729 0.03018
 N289 N -0.02480 -0.24129 0.06187
 C290 C -0.05989 -0.21148 0.08983
 H291 H -0.05464 0.00530 0.08615
 H292 H -0.11221 -0.04002 0.14637
 H293 H 0.04510 -0.14771 0.00227
 H294 H -0.08428 -0.23346 0.11828
 C295 C -0.09020 0.46480 0.53578
 C296 C -0.12043 0.43063 0.56822
 C297 C -0.09663 0.39465 0.60852
 C298 C -0.04064 0.39158 0.61469
 C299 C -0.00915 0.42914 0.58478
 C300 C -0.03391 0.46687 0.54322
 C301 C 0.04603 0.42821 0.59943
 N302 N 0.06787 0.38964 0.63561
 N303 N 0.03846 0.35187 0.65941
 C304 C -0.01499 0.35150 0.65017
 H305 H -0.11274 0.48997 0.50514
 H306 H -0.16333 0.43298 0.56219
 H307 H 0.07237 0.45844 0.58467
 H308 H -0.03684 0.31961 0.67046
 C309 C 0.47673 -0.03785 0.59044
 C310 C 0.44504 -0.07076 0.62220
 C311 C 0.39879 -0.09463 0.59775
 C312 C 0.38451 -0.08492 0.53906
 C313 C 0.41995 -0.05631 0.50460
 C314 C 0.46703 -0.03014 0.53062
 C315 C 0.40642 -0.05508 0.44508
 N316 N 0.35909 -0.07476 0.42329
 N317 N 0.32407 -0.09649 0.45664
 C318 C 0.33505 -0.10203 0.51371
 H319 H 0.50800 -0.01716 0.61523
 H320 H 0.45664 -0.07673 0.66719
 H321 H 0.43324 -0.04019 0.41505
 H322 H 0.30465 -0.11920 0.53868
 C323 C 0.43677 0.46667 0.08590
 C324 C 0.40019 0.44074 0.11833
 C325 C 0.39184 0.38446 0.11392
 C326 C 0.42544 0.35251 0.08116
 C327 C 0.46530 0.37826 0.04958
 C328 C 0.46743 0.43786 0.04691
 C329 C 0.50149 0.34234 0.02483
 N330 N 0.49518 0.28713 0.02683
 N331 N 0.45609 0.26407 0.05342
 C332 C 0.42143 0.29477 0.08111
 H333 H 0.43749 0.51105 0.08791
 H334 H 0.37600 0.46549 0.14487
 H335 H 0.53689 0.35577 0.00671
 H336 H 0.39195 0.27341 0.10405
 C337 C 0.01913 0.07036 0.03801
 C338 C 0.04788 0.10988 0.06980
 C339 C 0.09166 0.09548 0.10603
 C340 C 0.10477 0.03937 0.11317
 C341 C 0.07688 -0.00133 0.07923
 C342 C 0.03403 0.01394 0.03810
 C343 C 0.09369 -0.05603 0.08762
 N344 N 0.13305 -0.06917 0.12754
 N345 N 0.15749 -0.03119 0.16034
 C346 C 0.14466 0.02255 0.15461
 H347 H -0.01580 0.08559 0.01405
 H348 H 0.03575 0.15252 0.06585
 H349 H 0.07693 -0.08854 0.06249
 H350 H 0.16534 0.05143 0.18317
 C351 C 0.07157 0.58012 0.51852
 C352 C 0.10950 0.61184 0.54879
 C353 C 0.11047 0.61545 0.60809
 C354 C 0.06896 0.59136 0.63702
 C355 C 0.02841 0.56056 0.60590
 C356 C 0.03374 0.54843 0.54588
 C357 C -0.01637 0.54667 0.63627
 N358 N -0.01723 0.55675 0.69308
 N359 N 0.02262 0.58185 0.72229
 C360 C 0.06534 0.60001 0.69615
 H361 H 0.07410 0.57812 0.47289
 H362 H 0.13930 0.63278 0.52565
 H363 H -0.05236 0.53062 0.61641
 H364 H 0.09518 0.62252 0.72175
 C365 C 0.54240 0.09987 0.54376
 C366 C 0.57870 0.12966 0.57803
 C367 C 0.62010 0.10400 0.61003
 C368 C 0.62546 0.04623 0.60664
 C369 C 0.58902 0.01507 0.57023
 C370 C 0.54495 0.04190 0.53866
 C371 C 0.59683 -0.04241 0.56935
 N372 N 0.63698 -0.06623 0.60183
 N373 N 0.67006 -0.03697 0.63622
 C374 C 0.66527 0.01818 0.64029
 H375 H 0.51319 0.12435 0.51963
 H376 H 0.57449 0.17396 0.57915
 H377 H 0.57005 -0.06955 0.54607
 H378 H 0.69223 0.03917 0.67062
 C379 C 0.51765 0.57341 0.04971
 C380 C 0.54802 0.61106 0.08226
 C381 C 0.59099 0.59407 0.11840
 C382 C 0.60058 0.53722 0.12560
 C383 C 0.57134 0.49844 0.09042
 C384 C 0.53065 0.51659 0.04815
 C385 C 0.58492 0.44278 0.09847
 N386 N 0.62239 0.42708 0.13945
 N387 N 0.64792 0.46336 0.17355
 C388 C 0.63823 0.51781 0.16811
 H389 H 0.48345 0.59044 0.02587
 H390 H 0.53809 0.65430 0.07852
 H391 H 0.56700 0.41144 0.07245
 H392 H 0.65948 0.54527 0.19778
   
