data_POSCAR
  _audit_creation_date              2014-09-24
  _audit_creation_method            'ToBaCCo'
  _symmetry_space_group_name_H-M    'P1'
  _symmetry_Int_Tables_number       1
  _symmetry_cell_setting            triclinic
  loop_
  _symmetry_equiv_pos_as_xyz
 x,y,z
_cell_length_a 49.0570
_cell_length_b 47.0297
_cell_length_c 18.9812
_cell_angle_alpha 90.098700
_cell_angle_beta 90.460900
_cell_angle_gamma 119.445700
loop_
  _atom_site_label
  _atom_site_type_symbol
  _atom_site_fract_x
  _atom_site_fract_y
  _atom_site_fract_z
C1 C 0.16289 0.47282 0.49139
 C2 C 0.18096 0.47762 0.43121
 C3 C 0.20500 0.46967 0.43330
 C4 C 0.21182 0.45826 0.49623
 C5 C 0.19169 0.45146 0.55437
 C6 C 0.16704 0.45872 0.55295
 C7 C 0.24157 0.45686 0.50407
 C8 C 0.25635 0.46232 0.57074
 C9 C 0.28582 0.46495 0.57797
 C10 C 0.30138 0.46306 0.51840
 C11 C 0.28715 0.45674 0.45135
 C12 C 0.25691 0.45303 0.44500
 H13 H 0.14543 0.48054 0.48962
 H14 H 0.21994 0.47533 0.38788
 H15 H 0.19492 0.43988 0.60033
 H16 H 0.24594 0.46618 0.61723
 H17 H 0.32493 0.46700 0.52494
 H18 H 0.24545 0.44728 0.39396
 C19 C 0.56897 -0.29186 0.53045
 C20 C 0.55953 -0.28726 0.46278
 C21 C 0.54986 -0.26360 0.45513
 C22 C 0.54964 -0.24497 0.51327
 C23 C 0.56045 -0.24961 0.57889
 C24 C 0.56763 -0.27468 0.58978
 C25 C 0.53534 -0.22312 0.50871
 C26 C 0.52313 -0.21658 0.57017
 C27 C 0.51071 -0.19555 0.56893
 C28 C 0.50800 -0.18269 0.50490
 C29 C 0.51847 -0.18966 0.44224
 C30 C 0.53304 -0.20907 0.44443
 H31 H 0.57605 -0.31007 0.53751
 H32 H 0.54012 -0.26162 0.40534
 H33 H 0.56303 -0.23389 0.62296
 H34 H 0.52287 -0.22778 0.61999
 H35 H 0.49883 -0.16589 0.50422
 H36 H 0.54235 -0.21307 0.39628
 C37 C 1.31176 0.84149 0.51682
 C38 C 1.29648 0.83940 0.45256
 C39 C 1.26361 0.82019 0.45009
 C40 C 1.24659 0.80028 0.50752
 C41 C 1.26303 0.80304 0.57111
 C42 C 1.29538 0.82409 0.57598
 C43 C 1.21240 0.77549 0.49885
 C44 C 1.19252 0.76174 0.55763
 C45 C 1.16150 0.73573 0.54902
 C46 C 1.14930 0.72742 0.47995
 C47 C 1.16835 0.74055 0.42145
 C48 C 1.19991 0.76337 0.43103
 H49 H 1.33664 0.85820 0.52266
 H50 H 1.25150 0.81943 0.40190
 H51 H 1.25142 0.78848 0.61660
 H52 H 1.20176 0.76964 0.61006
 H53 H 1.12494 0.70951 0.47083
 H54 H 1.21450 0.77075 0.38487
 C55 C 0.83068 0.51390 0.52851
 C56 C 0.82423 0.52040 0.46047
 C57 C 0.79997 0.52779 0.45027
 C58 C 0.78038 0.52598 0.50696
 C59 C 0.78732 0.51853 0.57470
 C60 C 0.81259 0.51317 0.58536
 C61 C 0.75160 0.52922 0.49512
 C62 C 0.73623 0.53488 0.55212
 C63 C 0.70628 0.53197 0.54374
 C64 C 0.69379 0.52733 0.47494
 C65 C 0.70939 0.52371 0.41744
 C66 C 0.73765 0.52388 0.42756
 H67 H 0.85007 0.50936 0.53757
 H68 H 0.79618 0.53396 0.39770
 H69 H 0.77282 0.51553 0.61961
 H70 H 0.74664 0.53965 0.60393
 H71 H 0.67204 0.52734 0.46474
 H72 H 0.74765 0.51852 0.38244
 C73 C 0.40857 0.27824 0.46290
 C74 C 0.40947 0.26067 0.40421
 C75 C 0.41809 0.23659 0.41345
 C76 C 0.42756 0.23112 0.48019
 C77 C 0.42668 0.24935 0.53831
 C78 C 0.41766 0.27341 0.53044
 C79 C 0.44202 0.20962 0.48772
 C80 C 0.44140 0.19431 0.55248
 C81 C 0.45852 0.17761 0.56160
 C82 C 0.47398 0.17418 0.50276
 C83 C 0.47357 0.18762 0.43753
 C84 C 0.45837 0.20597 0.43076
 H85 H 0.40145 0.29645 0.45492
 H86 H 0.41826 0.22296 0.36765
 H87 H 0.43613 0.24718 0.58838
 H88 H 0.42873 0.19658 0.59648
 H89 H 0.48463 0.15877 0.50592
 H90 H 0.45997 0.21775 0.38090
 C91 C 0.71815 0.14751 0.48838
 C92 C 0.73260 0.16524 0.42818
 C93 C 0.75849 0.19657 0.43500
 C94 C 0.77166 0.20991 0.50210
 C95 C 0.75676 0.19097 0.56224
 C96 C 0.72921 0.16074 0.55546
 C97 C 0.79855 0.24445 0.50865
 C98 C 0.80529 0.26260 0.57261
 C99 C 0.82657 0.29638 0.57424
 C100 C 0.84154 0.31186 0.51183
 C101 C 0.83695 0.29430 0.44937
 C102 C 0.81640 0.26061 0.44871
 H103 H 0.69693 0.12410 0.48299
 H104 H 0.76709 0.21046 0.38724
 H105 H 0.76513 0.19995 0.61480
 H106 H 0.79271 0.25163 0.62029
 H107 H 0.85852 0.33770 0.51275
 H108 H 0.81402 0.24756 0.40022
 N109 N 0.98001 0.55025 0.08693
 N110 N 0.95758 0.55665 0.10498
 N111 N 1.04841 0.56407 0.10778
 N112 N 1.07307 0.58197 0.14788
 N113 N 1.04452 0.58223 0.06066
 N114 N 1.06609 0.61325 0.06894
 N115 N 0.98354 0.53218 0.13480
 N116 N 0.96347 0.52553 0.18633
 C117 C 0.94747 0.54097 0.16723
 C118 C 1.08416 0.61246 0.12252
 N119 N 1.04321 0.47977 0.06656
 N120 N 1.06544 0.47176 0.07465
 N121 N 0.98270 0.47072 0.13828
 N122 N 0.96226 0.45874 0.18953
 N123 N 0.97854 0.44766 0.09326
 N124 N 0.95525 0.41916 0.11325
 N125 N 1.04733 0.50278 0.11166
 N126 N 1.07244 0.51127 0.15076
 Mn127 Mn 1.01553 0.51744 0.12374
 C128 C 1.08381 0.49210 0.12692
 C129 C 0.94536 0.42662 0.17343
 N130 N 1.03147 0.57378 -0.09010
 N131 N 1.05020 0.60278 -0.11771
 N132 N 0.96221 0.51837 -0.10612
 N133 N 0.93562 0.50799 -0.14058
 N134 N 0.96693 0.54191 -0.06208
 N135 N 0.94369 0.54853 -0.06620
 N136 N 1.02652 0.55044 -0.13515
 N137 N 1.04166 0.56280 -0.19400
 Mn138 Mn 1.00583 0.56248 -0.00122
 C139 C 1.05665 0.59538 -0.18248
 C140 C 0.92415 0.52676 -0.11496
 N141 N 0.96524 0.43894 -0.05659
 N142 N 0.94327 0.40795 -0.06450
 N143 N 1.02541 0.48870 -0.13180
 N144 N 1.03918 0.48863 -0.19095
 N145 N 1.02994 0.47137 -0.08362
 N146 N 1.04724 0.45929 -0.10896
 N147 N 0.96120 0.45721 -0.10301
 N148 N 0.93644 0.43948 -0.14278
 Mn149 Mn 1.00430 0.45906 0.00505
 Mn150 Mn 0.99383 0.50372 -0.11933
 Cl151 Cl 1.00499 0.51071 0.00200
 C152 C 0.92509 0.40887 -0.11795
 C153 C 1.05314 0.47076 -0.17577
 N154 N 0.45501 0.42096 0.04257
 N155 N 0.43933 0.38863 0.04556
 N156 N 0.45684 0.47590 0.13365
 N157 N 0.44461 0.47655 0.19482
 N158 N 0.43528 0.46531 0.08376
 N159 N 0.40791 0.45889 0.10980
 N160 N 0.47768 0.43278 0.08981
 N161 N 0.47859 0.40907 0.12459
 C162 C 0.45501 0.38169 0.09575
 C163 C 0.41429 0.46655 0.17902
 N164 N 0.54134 0.55027 0.10281
 N165 N 0.55262 0.57943 0.13272
 N166 N 0.54118 0.48372 0.10139
 N167 N 0.55422 0.47062 0.14087
 N168 N 0.56214 0.50662 0.06125
 N169 N 0.59017 0.51000 0.07383
 N170 N 0.52112 0.52751 0.14451
 N171 N 0.51837 0.54035 0.20380
 Mn172 Mn 0.49925 0.48000 0.11760
 C173 C 0.53797 0.57269 0.19590
 C174 C 0.58465 0.48673 0.12248
 N175 N 0.43334 0.48228 -0.06262
 N176 N 0.40525 0.47849 -0.07678
 N177 N 0.47403 0.46137 -0.14550
 N178 N 0.47487 0.44868 -0.20676
 N179 N 0.45402 0.43870 -0.10345
 N180 N 0.44087 0.40981 -0.13497
 N181 N 0.45449 0.50550 -0.10194
 N182 N 0.44150 0.51834 -0.14232
 Mn183 Mn 0.44409 0.45156 -0.01004
 C184 C 0.41092 0.50182 -0.12545
 C185 C 0.45434 0.41653 -0.19936
 N186 N 0.56029 0.52355 -0.08563
 N187 N 0.58654 0.52633 -0.11145
 N188 N 0.51843 0.55645 -0.09119
 N189 N 0.52089 0.58016 -0.13224
 N190 N 0.54101 0.56795 -0.04360
 N191 N 0.55971 0.59963 -0.05286
 N192 N 0.53811 0.51212 -0.13405
 N193 N 0.54837 0.50648 -0.19329
 Mn194 Mn 0.55154 0.53733 0.00893
 Mn195 Mn 0.49624 0.50889 -0.11828
 Cl196 Cl 0.49776 0.49449 -0.00043
 C197 C 0.57847 0.51516 -0.17879
 C198 C 0.54611 0.60708 -0.10664
 N199 N 0.44782 -0.02366 0.09209
 N200 N 0.41992 -0.04612 0.11414
 N201 N 0.50171 0.04717 0.11663
 N202 N 0.50953 0.07243 0.15870
 N203 N 0.48010 0.04417 0.07123
 N204 N 0.47251 0.06715 0.08155
 N205 N 0.46974 -0.02079 0.13639
 N206 N 0.45759 -0.04125 0.18900
 C207 C 0.42657 -0.05702 0.17456
 C208 C 0.49141 0.08492 0.13567
 N209 N 0.57705 0.04291 0.06227
 N210 N 0.60703 0.06426 0.07301
 N211 N 0.52767 -0.02193 0.12987
 N212 N 0.52139 -0.04389 0.17946
 N213 N 0.54476 -0.02483 0.08055
 N214 N 0.55108 -0.04839 0.09572
 N215 N 0.55983 0.04650 0.11032
 N216 N 0.57736 0.07076 0.15349
 Mn217 Mn 0.51477 0.01278 0.12394
 C218 C 0.60664 0.08196 0.12919
 C219 C 0.53618 -0.06015 0.15742
 N220 N 0.47225 0.03436 -0.07942
 N221 N 0.46705 0.05870 -0.09567
 N222 N 0.45662 -0.03730 -0.10768
 N223 N 0.43880 -0.06234 -0.14891
 N224 N 0.43981 -0.03364 -0.05882
 N225 N 0.40995 -0.05588 -0.06622
 N226 N 0.48922 0.03079 -0.12805
 N227 N 0.49638 0.05262 -0.17792
 Mn228 Mn 0.45963 0.00531 0.00635
 C229 C 0.48244 0.06985 -0.15741
 C230 C 0.40980 -0.07400 -0.12202
 N231 N 0.53662 -0.03497 -0.06976
 N232 N 0.54229 -0.05953 -0.07812
 N233 N 0.54712 0.02988 -0.13448
 N234 N 0.55970 0.04874 -0.18948
 N235 N 0.56894 0.03301 -0.08952
 N236 N 0.59703 0.05394 -0.11331
 N237 N 0.51455 -0.03794 -0.11365
 N238 N 0.50436 -0.06454 -0.15224
 Mn239 Mn 0.55723 0.00409 -0.00424
 Mn240 Mn 0.50185 -0.00369 -0.12149
 Cl241 Cl 0.50840 0.00468 0.00118
 C242 C 0.52160 -0.07796 -0.12939
 C243 C 0.59078 0.06384 -0.17548
 C244 C 1.17068 0.51835 0.37829
 C245 C 1.17465 0.49082 0.37098
 C246 C 1.16650 0.47356 0.30644
 C247 C 1.15035 0.48095 0.25425
 C248 C 1.14507 0.50763 0.26458
 C249 C 1.15679 0.52716 0.32491
 C250 C 1.12578 0.51275 0.21787
 C251 C 1.10985 0.49048 0.16304
 C252 C 1.11643 0.46504 0.15023
 C253 C 1.13691 0.46057 0.19506
 H254 H 1.16909 0.45207 0.30049
 H255 H 1.15310 0.54782 0.33326
 H256 H 1.12119 0.53272 0.22789
 H257 H 1.14065 0.44000 0.18598
 H258 H 1.17735 0.53242 0.42687
 H259 H 1.10460 0.44772 0.10787
 C260 C 0.56161 0.70290 0.33503
 C261 C 0.55751 0.69213 0.40560
 C262 C 0.55079 0.65972 0.41808
 C263 C 0.54876 0.63903 0.36284
 C264 C 0.55368 0.65037 0.29275
 C265 C 0.56005 0.68240 0.27947
 C266 C 0.55139 0.62916 0.23750
 C267 C 0.54324 0.59661 0.25215
 C268 C 0.53830 0.58581 0.32219
 C269 C 0.54128 0.60683 0.37700
 H270 H 0.54537 0.64956 0.47055
 H271 H 0.56377 0.69159 0.22609
 H272 H 0.55483 0.63752 0.18345
 H273 H 0.53735 0.59774 0.43050
 H274 H 0.56723 0.72763 0.32252
 H275 H 0.53209 0.56089 0.33472
 C276 C 0.30248 -0.13209 0.33900
 C277 C 0.31425 -0.14417 0.39238
 C278 C 0.34483 -0.13937 0.38480
 C279 C 0.36373 -0.12149 0.32879
 C280 C 0.35226 -0.10814 0.27769
 C281 C 0.32136 -0.11411 0.28261
 C282 C 0.37225 -0.08832 0.22411
 C283 C 0.40356 -0.08149 0.22256
 C284 C 0.41410 -0.09617 0.27207
 C285 C 0.39435 -0.11611 0.32443
 H286 H 0.35408 -0.15001 0.42200
 H287 H 0.31204 -0.10419 0.24383
 H288 H 0.36396 -0.07707 0.18604
 H289 H 0.40336 -0.12650 0.36285
 H290 H 0.27934 -0.13475 0.34235
 H291 H 0.43801 -0.09158 0.27137
 C292 C 0.84799 0.49101 0.39956
 C293 C 0.84241 0.51763 0.40114
 C294 C 0.85626 0.54213 0.34983
 C295 C 0.87707 0.54098 0.30056
 C296 C 0.88375 0.51495 0.30268
 C297 C 0.86849 0.48972 0.35108
 C298 C 0.90623 0.51492 0.25774
 C299 C 0.92210 0.54035 0.20976
 C300 C 0.91441 0.56539 0.20530
 C301 C 0.89219 0.56584 0.25071
 H302 H 0.85206 0.56270 0.35043
 H303 H 0.87300 0.46935 0.35263
 H304 H 0.91173 0.49527 0.26088
 H305 H 0.88731 0.58590 0.24778
 H306 H 0.83703 0.47147 0.43746
 H307 H 0.92633 0.58518 0.16838
 C308 C 0.38271 0.27909 0.31693
 C309 C 0.40672 0.27193 0.33277
 C310 C 0.43160 0.28154 0.28547
 C311 C 0.43433 0.30124 0.22748
 C312 C 0.41106 0.31013 0.21449
 C313 C 0.38464 0.29767 0.25773
 C314 C 0.41608 0.33370 0.16305
 C315 C 0.44471 0.34953 0.12746
 C316 C 0.46684 0.33924 0.13795
 C317 C 0.46144 0.31480 0.18652
 H318 H 0.45047 0.27657 0.29783
 H319 H 0.36652 0.30410 0.24857
 H320 H 0.39933 0.34226 0.15644
 H321 H 0.47952 0.30831 0.19578
 H322 H 0.36329 0.27179 0.35258
 H323 H 0.48921 0.35160 0.11163
 C324 C 0.71977 0.12622 0.32782
 C325 C 0.71774 0.15217 0.35898
 C326 C 0.69779 0.16247 0.32943
 C327 C 0.67836 0.14555 0.27184
 C328 C 0.67980 0.11875 0.24172
 C329 C 0.70128 0.10992 0.26887
 C330 C 0.65817 0.09983 0.18871
 C331 C 0.63429 0.10648 0.16839
 C332 C 0.63377 0.13376 0.19686
 C333 C 0.65597 0.15352 0.24721
 H334 H 0.69584 0.18214 0.35443
 H335 H 0.70265 0.08940 0.24681
 H336 H 0.65818 0.07833 0.16800
 H337 H 0.65448 0.17389 0.26977
 H338 H 0.73487 0.11787 0.35072
 H339 H 0.61531 0.13899 0.18212
 C340 C 0.43452 0.14949 -0.32655
 C341 C 0.45997 0.16345 -0.37339
 C342 C 0.48678 0.16095 -0.35649
 C343 C 0.48693 0.14190 -0.30031
 C344 C 0.46032 0.12564 -0.25729
 C345 C 0.43465 0.13059 -0.26935
 C346 C 0.45946 0.10360 -0.20573
 C347 C 0.48465 0.09735 -0.19907
 C348 C 0.51153 0.11517 -0.23974
 C349 C 0.51282 0.13749 -0.28932
 H350 H 0.50764 0.17332 -0.38828
 H351 H 0.41411 0.11866 -0.23653
 H352 H 0.43862 0.08985 -0.17457
 H353 H 0.53351 0.15008 -0.32153
 H354 H 0.41347 0.15087 -0.33676
 H355 H 0.53131 0.11098 -0.23483
 C356 C 0.70227 0.54863 -0.33381
 C357 C 0.68828 0.53195 -0.39753
 C358 C 0.65523 0.51411 -0.40102
 C359 C 0.63685 0.51354 -0.34443
 C360 C 0.65113 0.53091 -0.28179
 C361 C 0.68392 0.54824 -0.27698
 C362 C 0.63226 0.53083 -0.22583
 C363 C 0.59939 0.51371 -0.23283
 C364 C 0.58575 0.49595 -0.29509
 C365 C 0.60422 0.49578 -0.35010
 H366 H 0.64334 0.49932 -0.44687
 H367 H 0.69543 0.56182 -0.22951
 H368 H 0.64305 0.54462 -0.17809
 H369 H 0.59290 0.48211 -0.39764
 H370 H 0.72741 0.56325 -0.32818
 H371 H 0.56055 0.48234 -0.30182
 C372 C 0.83615 0.34645 -0.36683
 C373 C 0.83366 0.31533 -0.36367
 C374 C 0.84336 0.30624 -0.30146
 C375 C 0.85944 0.32972 -0.24803
 C376 C 0.86319 0.36138 -0.25459
 C377 C 0.85006 0.36891 -0.31224
 C378 C 0.88223 0.38599 -0.20681
 C379 C 0.89933 0.38029 -0.15448
 C380 C 0.89427 0.34842 -0.14525
 C381 C 0.87414 0.32318 -0.19127
 H382 H 0.84190 0.28251 -0.29837
 H383 H 0.85250 0.39299 -0.31756
 H384 H 0.88562 0.41039 -0.21401
 H385 H 0.87158 0.29910 -0.18503
 H386 H 0.82810 0.35380 -0.41305
 H387 H 0.90707 0.34340 -0.10501
 C388 C 0.47582 -0.18210 -0.36035
 C389 C 0.50340 -0.18404 -0.36511
 C390 C 0.52626 -0.17018 -0.31149
 C391 C 0.52307 -0.15160 -0.25760
 C392 C 0.49614 -0.14796 -0.25621
 C393 C 0.47206 -0.16445 -0.30586
 C394 C 0.49478 -0.12590 -0.20888
 C395 C 0.52037 -0.10654 -0.16446
 C396 C 0.54605 -0.11196 -0.16223
 C397 C 0.54733 -0.13451 -0.20841
 H398 H 0.54771 -0.17141 -0.31525
 H399 H 0.45117 -0.16209 -0.30504
 H400 H 0.47468 -0.12212 -0.21022
 H401 H 0.56804 -0.13719 -0.20838
 H402 H 0.45787 -0.19292 -0.40087
 H403 H 0.56592 -0.09738 -0.12805
 C404 C 0.28958 0.44542 -0.30215
 C405 C 0.30118 0.47038 -0.35242
 C406 C 0.32952 0.49907 -0.33955
 C407 C 0.34732 0.50199 -0.27914
 C408 C 0.33661 0.47589 -0.23073
 C409 C 0.30720 0.44813 -0.24159
 C410 C 0.35640 0.47712 -0.17533
 C411 C 0.38689 0.50379 -0.16922
 C412 C 0.39621 0.53059 -0.21438
 C413 C 0.37658 0.52976 -0.26873
 H414 H 0.33838 0.51835 -0.37845
 H415 H 0.29847 0.42797 -0.20497
 H416 H 0.34902 0.45633 -0.14079
 H417 H 0.38495 0.55012 -0.30481
 H418 H 0.26770 0.42314 -0.31166
 H419 H 0.41948 0.55155 -0.21012
 C420 C 1.14807 0.72804 -0.32356
 C421 C 1.14393 0.71602 -0.39343
 C422 C 1.12283 0.68249 -0.40481
 C423 C 1.10657 0.66171 -0.34938
 C424 C 1.11053 0.67404 -0.28000
 C425 C 1.13128 0.70736 -0.26775
 C426 C 1.09400 0.65262 -0.22453
 C427 C 1.07430 0.61908 -0.23838
 C428 C 1.07106 0.60741 -0.30786
 C429 C 1.08683 0.62847 -0.36273
 H430 H 1.12025 0.67158 -0.45647
 H431 H 1.13473 0.71741 -0.21494
 H432 H 1.09680 0.66184 -0.17106
 H433 H 1.08369 0.61865 -0.41573
 H434 H 1.16352 0.75359 -0.31174
 H435 H 1.05600 0.58180 -0.32026
 C436 C 0.81938 0.47648 -0.33194
 C437 C 0.82084 0.50657 -0.34435
 C438 C 0.83629 0.53234 -0.29595
 C439 C 0.85334 0.52924 -0.23965
 C440 C 0.85371 0.49957 -0.23078
 C441 C 0.83537 0.47283 -0.27484
 C442 C 0.87474 0.49809 -0.18293
 C443 C 0.89630 0.52614 -0.14585
 C444 C 0.89396 0.55466 -0.14980
 C445 C 0.87242 0.55615 -0.19631
 H446 H 0.83767 0.55568 -0.30630
 H447 H 0.83533 0.44991 -0.26839
 H448 H 0.87627 0.47589 -0.17930
 H449 H 0.87225 0.57898 -0.20196
 H450 H 0.80759 0.45653 -0.36926
 H451 H 0.91035 0.57647 -0.12124
 C452 C 0.41644 0.28344 -0.34210
 C453 C 0.42055 0.29431 -0.41257
 C454 C 0.42916 0.32726 -0.42492
 C455 C 0.43423 0.34879 -0.36906
 C456 C 0.42976 0.33748 -0.29895
 C457 C 0.42059 0.30466 -0.28613
 C458 C 0.43535 0.35941 -0.24306
 C459 C 0.44645 0.39264 -0.25688
 C460 C 0.45101 0.40357 -0.32681
 C461 C 0.44464 0.38180 -0.38244
 H462 H 0.43412 0.33708 -0.47774
 H463 H 0.41703 0.29549 -0.23273
 H464 H 0.43210 0.35094 -0.18909
 H465 H 0.44833 0.39091 -0.43592
 H466 H 0.40912 0.25823 -0.32992
 H467 H 0.45943 0.42906 -0.33856
 C468 C 0.71984 0.13697 -0.32232
 C469 C 0.70890 0.14516 -0.38327
 C470 C 0.67762 0.13812 -0.38707
 C471 C 0.65700 0.12186 -0.33226
 C472 C 0.66765 0.11250 -0.27188
 C473 C 0.69928 0.12059 -0.26699
 C474 C 0.64625 0.09456 -0.21868
 C475 C 0.61447 0.08573 -0.22610
 C476 C 0.60461 0.09624 -0.28540
 C477 C 0.62567 0.11419 -0.33789
 H478 H 0.66925 0.14504 -0.43348
 H479 H 0.70797 0.11381 -0.22101
 H480 H 0.65407 0.08659 -0.17305
 H481 H 0.61728 0.12144 -0.38369
 H482 H 0.74399 0.14249 -0.31839
 H483 H 0.58035 0.09002 -0.29200
 C484 C 1.15889 0.45632 -0.31790
 C485 C 1.14771 0.45394 -0.38778
 C486 C 1.11716 0.44912 -0.39750
 C487 C 1.10003 0.45092 -0.34096
 C488 C 1.11235 0.45559 -0.27178
 C489 C 1.14134 0.45709 -0.26062
 C490 C 1.09604 0.46008 -0.21595
 C491 C 1.06839 0.46120 -0.22996
 C492 C 1.05601 0.45545 -0.29866
 C493 C 1.07140 0.44984 -0.35350
 H494 H 1.10662 0.44456 -0.44960
 H495 H 1.15115 0.46044 -0.20792
 H496 H 1.10568 0.46461 -0.16291
 H497 H 1.06160 0.44612 -0.40629
 H498 H 1.18210 0.46005 -0.30704
 H499 H 1.03453 0.45586 -0.31019
 C500 C 0.54911 0.71559 -0.28815
 C501 C 0.56875 0.71441 -0.34097
 C502 C 0.58573 0.69809 -0.32528
 C503 C 0.58043 0.68034 -0.26264
 C504 C 0.55794 0.67882 -0.21448
 C505 C 0.54354 0.69771 -0.22618
 C506 C 0.54868 0.65675 -0.15822
 C507 C 0.56212 0.63672 -0.14912
 C508 C 0.58647 0.64049 -0.19319
 C509 C 0.59560 0.66217 -0.24969
 H510 H 0.60241 0.69826 -0.36256
 H511 H 0.52660 0.69725 -0.18922
 H512 H 0.52964 0.65356 -0.12454
 H513 H 0.61316 0.66326 -0.28555
 H514 H 0.53534 0.72752 -0.29705
 H515 H 0.59670 0.62478 -0.18724
 C516 C 0.33996 -0.17381 -0.35661
 C517 C 0.31313 -0.17030 -0.35734
 C518 C 0.30777 -0.15440 -0.30082
 C519 C 0.33082 -0.13889 -0.24814
 C520 C 0.35895 -0.14028 -0.25134
 C521 C 0.36260 -0.15912 -0.30371
 C522 C 0.38390 -0.12080 -0.20575
 C523 C 0.38136 -0.09955 -0.15758
 C524 C 0.35256 -0.10023 -0.15073
 C525 C 0.32743 -0.11978 -0.19574
 H526 H 0.28726 -0.15135 -0.30169
 H527 H 0.38388 -0.16069 -0.30650
 H528 H 0.40598 -0.12066 -0.21076
 H529 H 0.30598 -0.11860 -0.19204
 H530 H 0.34441 -0.18595 -0.39994
 H531 H 0.35007 -0.08416 -0.11363
 C532 C 0.48632 -0.17537 0.36341
 C533 C 0.51493 -0.17462 0.37669
 C534 C 0.54093 -0.15486 0.33479
 C535 C 0.53906 -0.13377 0.28482
 C536 C 0.51082 -0.13277 0.27669
 C537 C 0.48430 -0.15456 0.31416
 C538 C 0.50990 -0.10908 0.23359
 C539 C 0.53660 -0.08680 0.19707
 C540 C 0.56397 -0.08923 0.20142
 C541 C 0.56531 -0.11235 0.24558
 H542 H 0.56308 -0.15409 0.34473
 H543 H 0.46236 -0.15450 0.30766
 H544 H 0.48859 -0.10755 0.22943
 H545 H 0.58707 -0.11288 0.25048
 H546 H 0.46590 -0.19077 0.39451
 H547 H 0.58472 -0.07228 0.17313
 C548 C 0.30204 0.46813 0.32297
 C549 C 0.30491 0.45579 0.38854
 C550 C 0.32695 0.44497 0.39551
 C551 C 0.34738 0.44884 0.34061
 C552 C 0.34465 0.46174 0.27541
 C553 C 0.32141 0.47064 0.26670
 C554 C 0.36586 0.46643 0.22115
 C555 C 0.39051 0.45982 0.23303
 C556 C 0.39299 0.44715 0.29813
 C557 C 0.37131 0.44116 0.35103
 H558 H 0.32898 0.43439 0.44457
 H559 H 0.31900 0.48071 0.21725
 H560 H 0.36402 0.47643 0.17105
 H561 H 0.37380 0.43137 0.40081
 H562 H 0.28565 0.47705 0.31571
 H563 H 0.41170 0.44167 0.30794
 C564 C 1.13055 0.72932 0.32247
 C565 C 1.15562 0.72665 0.35125
 C566 C 1.16524 0.70633 0.31861
 C567 C 1.14828 0.68667 0.26104
 C568 C 1.12229 0.68858 0.23366
 C569 C 1.11433 0.71085 0.26324
 C570 C 1.10321 0.66633 0.18136
 C571 C 1.10883 0.64117 0.15948
 C572 C 1.13530 0.64024 0.18491
 C573 C 1.15528 0.66324 0.23425
 H574 H 1.18424 0.70384 0.34174
 H575 H 1.09445 0.71257 0.24321
 H576 H 1.08235 0.66659 0.16295
 H577 H 1.17502 0.66138 0.25474
 H578 H 1.12280 0.74477 0.34763
 H579 H 1.13971 0.62076 0.16885
 C580 C 0.51508 0.17912 0.38187
 C581 C 0.48666 0.17945 0.37563
 C582 C 0.46835 0.16681 0.31423
 C583 C 0.47660 0.15085 0.26324
 C584 C 0.50396 0.14835 0.27292
 C585 C 0.52375 0.16381 0.33075
 C586 C 0.50994 0.12859 0.22748
 C587 C 0.48861 0.11080 0.17331
 C588 C 0.46273 0.11531 0.16084
 C589 C 0.45678 0.13525 0.20546
 H590 H 0.44632 0.16683 0.30914
 H591 H 0.54501 0.16250 0.33847
 H592 H 0.53018 0.12554 0.23693
 H593 H 0.43586 0.13713 0.19684
 H594 H 0.52977 0.18921 0.42831
 H595 H 0.44614 0.10205 0.11895
 C596 C 0.70600 0.54357 0.29778
 C597 C 0.69477 0.51825 0.34710
 C598 C 0.66690 0.48920 0.33333
 C599 C 0.64902 0.48627 0.27311
 C600 C 0.65931 0.51267 0.22562
 C601 C 0.68841 0.54078 0.23714
 C602 C 0.63930 0.51144 0.17081
 C603 C 0.60893 0.48458 0.16472
 C604 C 0.60001 0.45753 0.20884
 C605 C 0.61995 0.45827 0.26237
 H606 H 0.65828 0.46972 0.37178
 H607 H 0.69678 0.56119 0.20124
 H608 H 0.64634 0.53244 0.13708
 H609 H 0.61189 0.43771 0.29781
 H610 H 0.72748 0.56616 0.30818
 H611 H 0.57681 0.43645 0.20451
 C612 C 0.86859 0.29975 0.34129
 C613 C 0.85367 0.31193 0.38508
 C614 C 0.85660 0.34257 0.37044
 C615 C 0.87613 0.36200 0.31671
 C616 C 0.89208 0.35019 0.27441
 C617 C 0.88749 0.31867 0.28597
 C618 C 0.91340 0.37074 0.22382
 C619 C 0.91971 0.40317 0.21758
 C620 C 0.90309 0.41425 0.25859
 C621 C 0.88115 0.39371 0.30710
 H622 H 0.84461 0.35189 0.40292
 H623 H 0.89947 0.30917 0.25410
 H624 H 0.92638 0.36221 0.19254
 H625 H 0.86905 0.40306 0.33904
 H626 H 0.86670 0.27622 0.35160
 H627 H 0.90752 0.43912 0.25398
   
