data_POSCAR
  _audit_creation_date              2014-09-24
  _audit_creation_method            'ToBaCCo'
  _symmetry_space_group_name_H-M    'P1'
  _symmetry_Int_Tables_number       1
  _symmetry_cell_setting            triclinic
  loop_
  _symmetry_equiv_pos_as_xyz
 x,y,z
_cell_length_a 33.4898
_cell_length_b 38.1587
_cell_length_c 33.6296
_cell_angle_alpha 90.036200
_cell_angle_beta 90.628400
_cell_angle_gamma 89.474800
loop_
  _atom_site_label
  _atom_site_type_symbol
  _atom_site_fract_x
  _atom_site_fract_y
  _atom_site_fract_z
O1 O 0.27437 0.29107 0.19643
 O2 O 0.31342 0.21393 0.25095
 O3 O 0.27801 0.22178 0.18397
 O4 O 0.31016 0.27973 0.26579
 O5 O 0.25358 0.26900 0.29625
 O6 O 0.21630 0.22508 0.20582
 O7 O 0.25233 0.20369 0.27192
 O8 O 0.21894 0.28862 0.23133
 Cu9 Cu 0.29969 0.25285 0.22081
 Cu10 Cu 0.22939 0.24560 0.25422
 C11 C 0.24062 0.30377 0.20604
 C12 C 0.28896 0.19494 0.26961
 C13 C 0.24130 0.21406 0.18046
 C14 C 0.28789 0.28293 0.29597
 O15 O 0.80585 0.28593 0.24486
 O16 O 0.77152 0.21232 0.30661
 O17 O 0.80519 0.21835 0.23930
 O18 O 0.77186 0.28118 0.31557
 O19 O 0.71355 0.28641 0.28496
 O20 O 0.74511 0.22068 0.21152
 O21 O 0.71094 0.21861 0.28115
 O22 O 0.74682 0.28777 0.21511
 Cu23 Cu 0.79448 0.24959 0.27998
 Cu24 Cu 0.72309 0.25379 0.24555
 C25 C 0.78260 0.29822 0.21804
 C26 C 0.73531 0.20274 0.30426
 C27 C 0.78069 0.20878 0.21243
 C28 C 0.73701 0.29456 0.31330
 O29 O 0.74513 0.78837 0.72467
 O30 O 0.78171 0.71809 0.79135
 O31 O 0.74823 0.71659 0.72494
 O32 O 0.78254 0.78196 0.79680
 O33 O 0.72080 0.78938 0.81763
 O34 O 0.68658 0.72199 0.74699
 O35 O 0.72220 0.71771 0.81915
 O36 O 0.68590 0.78798 0.75305
 Cu37 Cu 0.76949 0.75263 0.75497
 Cu38 Cu 0.69855 0.75291 0.78816
 C39 C 0.70990 0.80068 0.72818
 C40 C 0.75778 0.70609 0.81681
 C41 C 0.71190 0.70741 0.72434
 C42 C 0.75760 0.79725 0.81922
 O43 O 0.28781 0.78365 0.71329
 O44 O 0.24915 0.72483 0.79028
 O45 O 0.28338 0.71577 0.72109
 O46 O 0.25401 0.79141 0.78233
 O47 O 0.19547 0.79356 0.75178
 O48 O 0.22488 0.71790 0.69011
 O49 O 0.19030 0.72490 0.75993
 O50 O 0.22884 0.78436 0.68325
 Cu51 Cu 0.27454 0.75365 0.75462
 Cu52 Cu 0.20368 0.75505 0.71866
 C53 C 0.26509 0.79376 0.68492
 C54 C 0.21296 0.71539 0.78856
 C55 C 0.25960 0.70470 0.69433
 C56 C 0.21970 0.80541 0.77780
 C57 C 0.97479 -0.06966 -0.09434
 C58 C 1.01535 -0.06880 -0.09835
 C59 C 1.02886 -0.04112 -0.07534
 N60 N 0.99785 -0.02656 -0.05560
 C61 C 0.96469 -0.04435 -0.06647
 C62 C 1.06853 -0.02837 -0.07442
 C63 C 1.07908 0.00304 -0.05477
 C64 C 1.11199 0.02291 -0.06446
 C65 C 1.11443 0.04931 -0.03687
 C66 C 1.08332 0.04457 -0.01055
 N67 N 1.06136 0.01659 -0.02212
 C68 C 1.07791 0.06432 0.02478
 C69 C 1.04052 0.06597 0.04422
 C70 C 1.03267 0.08388 0.07922
 C71 C 0.99214 0.08363 0.08403
 C72 C 0.97654 0.06350 0.05340
 N73 N 1.00618 0.05284 0.02915
 C74 C 0.93576 0.05509 0.04832
 C75 C 0.92212 0.02660 0.02507
 C76 C 0.88505 0.01151 0.02977
 C77 C 0.88261 -0.01534 0.00288
 C78 C 0.91793 -0.01562 -0.01844
 N79 N 0.94218 0.00990 -0.00427
 C80 C 0.92591 -0.03893 -0.05049
 H81 H 0.95563 -0.08742 -0.11044
 H82 H 1.03208 -0.08653 -0.11693
 H83 H 0.96893 0.01786 -0.01641
 H84 H 1.13232 0.01861 -0.08883
 H85 H 1.13701 0.06940 -0.03597
 H86 H 1.05352 0.09622 0.09943
 H87 H 0.97672 0.09622 0.10822
 H88 H 0.85757 -0.03289 -0.00021
 H89 H 1.03909 0.00459 -0.00574
 H90 H 0.86241 0.01857 0.05115
 C91 C 0.47004 0.56227 0.60796
 C92 C 0.51088 0.56271 0.61078
 C93 C 0.52513 0.54365 0.57878
 N94 N 0.49423 0.53060 0.55734
 C95 C 0.46043 0.54163 0.57531
 C96 C 0.56572 0.54059 0.56783
 C97 C 0.57806 0.51825 0.53668
 C98 C 0.61373 0.52105 0.51641
 C99 C 0.61632 0.49236 0.49175
 C100 C 0.58219 0.47284 0.49774
 N101 N 0.55886 0.48896 0.52490
 C102 C 0.57479 0.43957 0.48089
 C103 C 0.53641 0.42457 0.48041
 C104 C 0.52808 0.39009 0.47066
 C105 C 0.48728 0.38714 0.47067
 C106 C 0.47211 0.41990 0.48051
 N107 N 0.50217 0.44272 0.48646
 C108 C 0.43117 0.42904 0.48079
 C109 C 0.41677 0.46084 0.49722
 C110 C 0.37867 0.47436 0.49108
 C111 C 0.37581 0.50431 0.51362
 C112 C 0.41244 0.50865 0.53269
 N113 N 0.43704 0.48170 0.52287
 C114 C 0.42136 0.53562 0.56041
 H115 H 0.45021 0.57577 0.62802
 H116 H 0.52785 0.57608 0.63363
 H117 H 0.46458 0.47591 0.53595
 H118 H 0.63586 0.54138 0.51953
 H119 H 0.64086 0.48628 0.47217
 H120 H 0.54914 0.36928 0.46401
 H121 H 0.47068 0.36362 0.46395
 H122 H 0.34930 0.52052 0.51606
 H123 H 0.53405 0.47824 0.53857
 H124 H 0.35515 0.46365 0.47255
 C125 C -0.00471 0.41243 0.07358
 C126 C 0.03609 0.41553 0.07329
 C127 C 0.04418 0.44814 0.05725
 N128 N 0.00976 0.46532 0.04866
 C129 C -0.02019 0.44364 0.05874
 C130 C 0.08251 0.46295 0.05449
 C131 C 0.09084 0.49308 0.03160
 C132 C 0.12688 0.51064 0.03232
 C133 C 0.12376 0.53717 0.00478
 C134 C 0.08569 0.53543 -0.01187
 N135 N 0.06618 0.50794 0.00411
 C136 C 0.07069 0.55780 -0.04240
 C137 C 0.02997 0.55865 -0.05415
 C138 C 0.01462 0.57565 -0.08750
 C139 C -0.02608 0.57252 -0.08617
 C140 C -0.03451 0.55475 -0.05139
 N141 N -0.00021 0.54614 -0.03203
 C142 C -0.07319 0.54929 -0.03618
 C143 C -0.07989 0.52762 -0.00291
 C144 C -0.11432 0.52796 0.01964
 C145 C -0.11094 0.50058 0.04602
 C146 C -0.07447 0.48440 0.03895
 N147 N -0.05554 0.50122 0.00933
 C148 C -0.06107 0.45305 0.05722
 H149 H -0.02092 0.38995 0.08416
 H150 H 0.05727 0.39600 0.08385
 H151 H -0.03020 0.49226 -0.00531
 H152 H 0.15304 0.50466 0.05033
 H153 H 0.14725 0.55529 -0.00236
 H154 H 0.03061 0.58922 -0.11046
 H155 H -0.04695 0.58280 -0.10809
 H156 H -0.13307 0.49309 0.06756
 H157 H 0.03902 0.49799 -0.00563
 H158 H -0.13960 0.54571 0.01691
 C159 C 0.49555 1.02950 0.36500
 C160 C 0.53620 1.03145 0.37047
 C161 C 0.54385 1.02292 0.40991
 N162 N 0.50943 1.01524 0.42844
 C163 C 0.47990 1.01942 0.40114
 C164 C 0.58115 1.02564 0.42977
 C165 C 0.58763 1.00991 0.46744
 C166 C 0.61794 1.01836 0.49415
 C167 C 0.61583 0.99487 0.52507
 C168 C 0.58386 0.97315 0.51674
 N169 N 0.56687 0.98245 0.48161
 C170 C 0.57269 0.94401 0.53976
 C171 C 0.53503 0.92815 0.53579
 C172 C 0.52419 0.89670 0.55301
 C173 C 0.48402 0.89297 0.54581
 C174 C 0.47153 0.92269 0.52531
 N175 N 0.50283 0.94398 0.51899
 C176 C 0.43151 0.93182 0.51611
 C177 C 0.42193 0.96056 0.49118
 C178 C 0.38538 0.97787 0.48990
 C179 C 0.38758 1.00246 0.46009
 C180 C 0.42530 0.99922 0.44376
 N181 N 0.44616 0.97383 0.46313
 C182 C 0.43889 1.01751 0.41000
 H183 H 0.47933 1.03516 0.33771
 H184 H 0.55754 1.03885 0.34812
 H185 H 0.47366 0.96341 0.45468
 H186 H 0.63959 1.03908 0.49160
 H187 H 0.63577 0.99381 0.55059
 H188 H 0.54303 0.87859 0.56955
 H189 H 0.46603 0.87122 0.55545
 H190 H 0.36391 1.02043 0.45132
 H191 H 0.54519 0.96841 0.46607
 H192 H 0.35978 0.97325 0.50848
 C193 C 1.17544 0.16823 0.10863
 C194 C 1.20055 0.14149 0.09705
 C195 C 1.24048 0.13970 0.10878
 C196 C 1.25483 0.16607 0.13423
 C197 C 1.22846 0.19199 0.14971
 C198 C 1.18826 0.19321 0.13610
 O199 O 1.13874 0.16540 0.09380
 C200 C 1.14039 0.13570 0.07332
 C201 C 1.17718 0.11951 0.07530
 C202 C 1.18372 0.08574 0.06111
 C203 C 1.15084 0.06786 0.04491
 C204 C 1.11279 0.08451 0.04103
 C205 C 1.10836 0.11968 0.05401
 H206 H 1.25981 0.11858 0.09898
 H207 H 1.28566 0.16461 0.14422
 H208 H 1.16740 0.21281 0.14687
 H209 H 1.21250 0.07288 0.06444
 H210 H 1.15487 0.04083 0.03586
 H211 H 1.08022 0.13365 0.05103
 C212 C 0.65232 0.65053 0.65429
 C213 C 0.67512 0.62034 0.65540
 C214 C 0.71081 0.61767 0.67673
 C215 C 0.72336 0.64724 0.69810
 C216 C 0.69964 0.67820 0.69862
 C217 C 0.66366 0.67993 0.67630
 O218 O 0.61932 0.64741 0.63235
 C219 C 0.62111 0.61442 0.61979
 C220 C 0.65439 0.59663 0.63349
 C221 C 0.66073 0.56114 0.62649
 C222 C 0.63133 0.54314 0.60485
 C223 C 0.59691 0.56091 0.58976
 C224 C 0.59238 0.59738 0.59667
 H225 H 0.72820 0.59362 0.67716
 H226 H 0.75079 0.64567 0.71540
 H227 H 0.64503 0.70328 0.67638
 H228 H 0.68677 0.54755 0.63829
 H229 H 0.63507 0.51522 0.60020
 H230 H 0.56665 0.61178 0.58542
 C231 C -0.15240 0.36351 0.16480
 C232 C -0.17262 0.36596 0.12908
 C233 C -0.20814 0.34860 0.12144
 C234 C -0.22326 0.32742 0.15168
 C235 C -0.20252 0.32352 0.18852
 C236 C -0.16661 0.34212 0.19520
 O237 O -0.11905 0.38214 0.16571
 C238 C -0.11813 0.39638 0.12967
 C239 C -0.15009 0.38702 0.10606
 C240 C -0.15435 0.39764 0.06672
 C241 C -0.12448 0.41889 0.05104
 C242 C -0.09151 0.42958 0.07486
 C243 C -0.08851 0.41826 0.11493
 H244 H -0.22346 0.35096 0.09305
 H245 H -0.25055 0.31321 0.14585
 H246 H -0.15000 0.33961 0.22286
 H247 H -0.17954 0.38952 0.04861
 H248 H -0.12698 0.42718 0.02030
 H249 H -0.06382 0.42612 0.13387
 C250 C 0.33129 0.85472 0.62741
 C251 C 0.31388 0.85271 0.59024
 C252 C 0.27981 0.83319 0.58253
 C253 C 0.26322 0.81474 0.61435
 C254 C 0.28124 0.81562 0.65276
 C255 C 0.31569 0.83612 0.65932
 O256 O 0.36378 0.87438 0.62829
 C257 C 0.36714 0.88474 0.59081
 C258 C 0.33755 0.87200 0.56625
 C259 C 0.33660 0.87811 0.52548
 C260 C 0.36761 0.89793 0.50935
 C261 C 0.39838 0.91158 0.53409
 C262 C 0.39759 0.90531 0.57558
 H263 H 0.26670 0.83192 0.55301
 H264 H 0.23704 0.79895 0.60879
 H265 H 0.33016 0.83726 0.68824
 H266 H 0.31331 0.86740 0.50664
 H267 H 0.36800 0.90236 0.47755
 H268 H 0.42051 0.91550 0.59526
 C269 C -0.17668 0.65328 -0.11445
 C270 C -0.19689 0.62204 -0.11394
 C271 C -0.23350 0.61751 -0.13323
 C272 C -0.24953 0.64621 -0.15441
 C273 C -0.22825 0.67804 -0.15662
 C274 C -0.19156 0.68172 -0.13606
 O275 O -0.14197 0.65199 -0.09515
 C276 C -0.13989 0.61910 -0.08257
 C277 C -0.17248 0.59952 -0.09363
 C278 C -0.17474 0.56371 -0.08643
 C279 C -0.14195 0.54746 -0.06741
 C280 C -0.10819 0.56724 -0.05527
 C281 C -0.10775 0.60378 -0.06229
 H282 H -0.24878 0.59265 -0.13260
 H283 H -0.27747 0.64321 -0.17053
 H284 H -0.17468 0.70575 -0.13770
 H285 H -0.20026 0.54864 -0.09619
 H286 H -0.14251 0.51942 -0.06255
 H287 H -0.08247 0.61958 -0.05342
 C288 C 0.35447 1.12972 0.32392
 C289 C 0.33110 1.10027 0.32212
 C290 C 0.29331 1.10031 0.30446
 C291 C 0.27920 1.13194 0.28783
 C292 C 0.30330 1.16232 0.28845
 C293 C 0.34149 1.16109 0.30672
 O294 O 0.38872 1.12462 0.34332
 C295 C 0.38713 1.09116 0.35377
 C296 C 0.35274 1.07490 0.34119
 C297 C 0.34537 1.03968 0.34858
 C298 C 0.37445 1.02061 0.37014
 C299 C 0.40955 1.03715 0.38462
 C300 C 0.41589 1.07296 0.37598
 H301 H 0.27524 1.07695 0.30376
 H302 H 0.24993 1.13265 0.27383
 H303 H 0.36027 1.18403 0.30799
 H304 H 0.31826 1.02732 0.33811
 H305 H 0.36944 0.99313 0.37616
 H306 H 0.44220 1.08640 0.38681
 C307 C 1.16155 -0.12079 -0.17861
 C308 C 1.18315 -0.11550 -0.14419
 C309 C 1.21813 -0.13380 -0.13525
 C310 C 1.23116 -0.15903 -0.16263
 C311 C 1.20830 -0.16662 -0.19749
 C312 C 1.17311 -0.14670 -0.20563
 O313 O 1.12878 -0.10096 -0.18097
 C314 C 1.12937 -0.08329 -0.14691
 C315 C 1.16172 -0.09167 -0.12314
 C316 C 1.16610 -0.07929 -0.08451
 C317 C 1.13537 -0.05813 -0.06943
 C318 C 1.10159 -0.04888 -0.09327
 C319 C 1.09969 -0.06041 -0.13333
 H320 H 1.23458 -0.12913 -0.10790
 H321 H 1.25813 -0.17373 -0.15555
 H322 H 1.15489 -0.15149 -0.23185
 H323 H 1.19135 -0.08696 -0.06601
 H324 H 1.13735 -0.04954 -0.03877
 H325 H 1.07500 -0.05312 -0.15274
 C326 C 0.67191 0.35783 0.37015
 C327 C 0.69340 0.36108 0.40503
 C328 C 0.73014 0.34451 0.41117
 C329 C 0.74505 0.32343 0.38028
 C330 C 0.72296 0.31909 0.34434
 C331 C 0.68603 0.33698 0.33926
 O332 O 0.63721 0.37483 0.37054
 C333 C 0.63659 0.38901 0.40653
 C334 C 0.67017 0.38135 0.42894
 C335 C 0.67474 0.39235 0.46819
 C336 C 0.64332 0.41180 0.48499
 C337 C 0.60843 0.41997 0.46237
 C338 C 0.60536 0.40868 0.42241
 H339 H 0.74646 0.34726 0.43893
 H340 H 0.77325 0.30983 0.38480
 H341 H 0.66825 0.33418 0.31238
 H342 H 0.70119 0.38568 0.48545
 H343 H 0.64581 0.42014 0.51569
 H344 H 0.57902 0.41446 0.40454
 C345 C 0.82384 -0.14860 -0.11798
 C346 C 0.80145 -0.11827 -0.11615
 C347 C 0.76260 -0.11591 -0.13112
 C348 C 0.74664 -0.14578 -0.14965
 C349 C 0.77081 -0.17607 -0.15563
 C350 C 0.80983 -0.17751 -0.13902
 O351 O 0.85955 -0.14580 -0.10088
 C352 C 0.86022 -0.11264 -0.08906
 C353 C 0.82596 -0.09435 -0.09887
 C354 C 0.82271 -0.05822 -0.09458
 C355 C 0.85624 -0.04036 -0.07985
 C356 C 0.89124 -0.05890 -0.06730
 C357 C 0.89234 -0.09588 -0.07077
 H358 H 0.74532 -0.09190 -0.12883
 H359 H 0.71674 -0.14420 -0.16220
 H360 H 0.82883 -0.20042 -0.14255
 H361 H 0.79608 -0.04410 -0.10401
 H362 H 0.85494 -0.01205 -0.07786
 H363 H 0.91799 -0.11109 -0.06082
 C364 C 0.34901 0.34230 0.36235
 C365 C 0.32842 0.33990 0.39740
 C366 C 0.29434 0.31967 0.40118
 C367 C 0.28101 0.30115 0.36751
 C368 C 0.30197 0.30294 0.33106
 C369 C 0.33652 0.32391 0.32865
 O370 O 0.38048 0.36308 0.36484
 C371 C 0.37984 0.37397 0.40231
 C372 C 0.34868 0.36051 0.42361
 C373 C 0.34278 0.36828 0.46359
 C374 C 0.37016 0.39080 0.48231
 C375 C 0.40236 0.40513 0.46083
 C376 C 0.40707 0.39662 0.42018
 H377 H 0.27855 0.31821 0.42904
 H378 H 0.25457 0.28521 0.36998
 H379 H 0.35315 0.32602 0.30134
 H380 H 0.31815 0.35728 0.47981
 H381 H 0.36644 0.39710 0.51346
 H382 H 0.43133 0.40730 0.40310
 C383 C 0.16048 0.64577 -0.15242
 C384 C 0.16415 0.65964 -0.11477
 C385 C 0.18425 0.69064 -0.10690
 C386 C 0.20116 0.70815 -0.13917
 C387 C 0.19672 0.69501 -0.17838
 C388 C 0.17605 0.66338 -0.18518
 O389 O 0.14036 0.61591 -0.15324
 C390 C 0.13080 0.61107 -0.11539
 C391 C 0.14424 0.63735 -0.09077
 C392 C 0.13533 0.63886 -0.05053
 C393 C 0.11126 0.61237 -0.03507
 C394 C 0.09772 0.58450 -0.05954
 C395 C 0.10822 0.58361 -0.10022
 H396 H 0.18679 0.70097 -0.07701
 H397 H 0.21682 0.73245 -0.13385
 H398 H 0.17238 0.65287 -0.21490
 H399 H 0.14558 0.66021 -0.03195
 H400 H 0.10285 0.61357 -0.00409
 H401 H 0.09788 0.56286 -0.11963
 C402 C 0.66877 1.13910 0.35292
 C403 C 0.69622 1.11444 0.36566
 C404 C 0.73713 1.11861 0.36112
 C405 C 0.75019 1.14919 0.34216
 C406 C 0.72225 1.17405 0.32649
 C407 C 0.68087 1.16874 0.33230
 O408 O 0.63146 1.13106 0.36176
 C409 C 0.63536 1.10036 0.37991
 C410 C 0.67424 1.08863 0.38234
 C411 C 0.68462 1.05607 0.39810
 C412 C 0.65366 1.03496 0.41219
 C413 C 0.61344 1.04727 0.41199
 C414 C 0.60448 1.08066 0.39560
 H415 H 0.75825 1.09912 0.37196
 H416 H 0.78197 1.15263 0.33820
 H417 H 0.65862 1.18731 0.32153
 H418 H 0.71533 1.04699 0.39889
 H419 H 0.66104 1.00921 0.42377
 H420 H 0.57433 1.09114 0.39517
 C421 C 0.19545 0.36789 0.13347
 C422 C 0.18817 0.39581 0.15841
 C423 C 0.19938 0.39581 0.19836
 C424 C 0.21832 0.36560 0.21337
 C425 C 0.22604 0.33656 0.18830
 C426 C 0.21512 0.33788 0.14763
 O427 O 0.17873 0.37175 0.09772
 C428 C 0.16045 0.40270 0.10017
 C429 C 0.16548 0.41855 0.13666
 C430 C 0.14632 0.44969 0.14690
 C431 C 0.12040 0.46485 0.11864
 C432 C 0.11414 0.44869 0.08119
 C433 C 0.13500 0.41752 0.07147
 H434 H 0.19236 0.41770 0.21762
 H435 H 0.22605 0.36436 0.24471
 H436 H 0.21942 0.31541 0.12841
 H437 H 0.15012 0.46126 0.17607
 H438 H 0.10406 0.48849 0.12628
 H439 H 0.12977 0.40433 0.04340
 C440 C 0.67364 0.85761 0.64373
 C441 C 0.66138 0.88673 0.66470
 C442 C 0.66634 0.88985 0.70562
 C443 C 0.68405 0.86156 0.72589
 C444 C 0.69667 0.83123 0.70505
 C445 C 0.69213 0.82939 0.66329
 O446 O 0.66269 0.85864 0.60566
 C447 C 0.64305 0.88895 0.60262
 C448 C 0.64153 0.90716 0.63792
 C449 C 0.61983 0.93814 0.64240
 C450 C 0.59841 0.95068 0.60923
 C451 C 0.59917 0.93221 0.57271
 C452 C 0.62225 0.90119 0.56912
 H453 H 0.65562 0.91266 0.72155
 H454 H 0.68704 0.86281 0.75797
 H455 H 0.70035 0.80594 0.64706
 H456 H 0.61843 0.95156 0.67071
 H457 H 0.58029 0.97418 0.61214
 H458 H 0.62231 0.88627 0.54173
 C459 C 0.83862 0.13899 0.15786
 C460 C 0.82445 0.14425 0.11977
 C461 C 0.79454 0.16853 0.11053
 C462 C 0.77898 0.18861 0.14180
 C463 C 0.79419 0.18466 0.18107
 C464 C 0.82418 0.15923 0.18924
 O465 O 0.86769 0.11513 0.16004
 C466 C 0.87234 0.10547 0.12243
 C467 C 0.84685 0.12282 0.09661
 C468 C 0.84853 0.11878 0.05563
 C469 C 0.87803 0.09630 0.04060
 C470 C 0.90467 0.07798 0.06649
 C471 C 0.90089 0.08184 0.10815
 H472 H 0.78402 0.17226 0.08027
 H473 H 0.75627 0.20820 0.13517
 H474 H 0.83643 0.15581 0.21894
 H475 H 0.82858 0.13314 0.03589
 H476 H 0.88053 0.09333 0.00868
 H477 H 0.92011 0.06757 0.12867
 C478 C 0.31327 0.62714 0.64969
 C479 C 0.30909 0.63506 0.60993
 C480 C 0.28655 0.66341 0.59617
 C481 C 0.26813 0.68488 0.62458
 C482 C 0.27364 0.67830 0.66576
 C483 C 0.29621 0.64881 0.67853
 O484 O 0.33689 0.59957 0.65643
 C485 C 0.34833 0.59025 0.62020
 C486 C 0.33264 0.61149 0.59079
 C487 C 0.34409 0.60896 0.55128
 C488 C 0.37318 0.58374 0.54178
 C489 C 0.38909 0.56086 0.57132
 C490 C 0.37567 0.56370 0.61098
 H491 H 0.28391 0.66921 0.56475
 H492 H 0.25136 0.70770 0.61461
 H493 H 0.30127 0.64358 0.70983
 H494 H 0.33227 0.62670 0.52888
 H495 H 0.38373 0.58216 0.51149
 H496 H 0.38758 0.54682 0.63419
   
