data_POSCAR
  _audit_creation_date              2014-09-24
  _audit_creation_method            'ToBaCCo'
  _symmetry_space_group_name_H-M    'P1'
  _symmetry_Int_Tables_number       1
  _symmetry_cell_setting            triclinic
  loop_
  _symmetry_equiv_pos_as_xyz
 x,y,z
_cell_length_a 49.2923
_cell_length_b 34.6954
_cell_length_c 37.4245
_cell_angle_alpha 91.045200
_cell_angle_beta 90.073200
_cell_angle_gamma 85.529400
loop_
  _atom_site_label
  _atom_site_type_symbol
  _atom_site_fract_x
  _atom_site_fract_y
  _atom_site_fract_z
C1 C 1.23271 0.21772 0.20208
 C2 C 1.25317 0.24147 0.18300
 C3 C 1.26786 0.26325 0.20535
 C4 C 1.26082 0.25928 0.24522
 C5 C 1.24977 0.19418 0.22946
 C6 C 1.26429 0.21555 0.25242
 C7 C 1.21547 0.24793 0.22443
 C8 C 1.22993 0.26944 0.24728
 H9 H 1.25595 0.24182 0.15443
 H10 H 1.27248 0.27751 0.26331
 H11 H 1.25044 0.16293 0.22996
 H12 H 1.19345 0.25051 0.22345
 C13 C 0.73748 -0.28409 0.20824
 C14 C 0.75750 -0.26160 0.18756
 C15 C 0.77208 -0.23799 0.20818
 C16 C 0.76533 -0.23911 0.24837
 C17 C 0.75461 -0.30546 0.23708
 C18 C 0.76907 -0.28212 0.25829
 C19 C 0.72002 -0.25328 0.22968
 C20 C 0.73440 -0.22950 0.25038
 H21 H 0.76012 -0.26472 0.15889
 H22 H 0.77693 -0.21955 0.26524
 H23 H 0.75437 -0.33612 0.24149
 H24 H 0.69804 -0.25260 0.23090
 C25 C 0.73712 0.22270 -0.30074
 C26 C 0.75497 0.24789 -0.31821
 C27 C 0.76695 0.27519 -0.29481
 C28 C 0.75830 0.27157 -0.25730
 C29 C 0.75347 0.20436 -0.27219
 C30 C 0.76543 0.23094 -0.24789
 C31 C 0.71718 0.24846 -0.28168
 C32 C 0.72835 0.27584 -0.25790
 H33 H 0.76078 0.24333 -0.34594
 H34 H 0.76640 0.29314 -0.23909
 H35 H 0.75652 0.17358 -0.26929
 H36 H 0.69576 0.24334 -0.28141
 C37 C 1.23947 -0.27667 -0.29420
 C38 C 1.26047 -0.25339 -0.31269
 C39 C 1.27405 -0.23037 -0.29007
 C40 C 1.26559 -0.23303 -0.25052
 C41 C 1.25561 -0.29885 -0.26519
 C42 C 1.26898 -0.27644 -0.24194
 C43 C 1.22121 -0.24594 -0.27385
 C44 C 1.23461 -0.22327 -0.25081
 H45 H 1.26430 -0.25414 -0.34107
 H46 H 1.27651 -0.21419 -0.23208
 H47 H 1.25648 -0.33007 -0.26366
 H48 H 1.19925 -0.24364 -0.27645
 C49 C 0.23284 0.22011 0.79586
 C50 C 0.25205 0.24245 0.81490
 C51 C 0.26797 0.26544 0.79270
 C52 C 0.26123 0.26134 0.75468
 C53 C 0.21564 0.24950 0.77346
 C54 C 0.23035 0.27136 0.75213
 C55 C 0.24976 0.19616 0.76758
 C56 C 0.26469 0.21764 0.74604
 H57 H 0.25548 0.23887 0.84324
 H58 H 0.27228 0.27894 0.73614
 H59 H 0.19364 0.25061 0.77224
 H60 H 0.24936 0.16523 0.76395
 C61 C 0.73190 0.71209 0.79458
 C62 C 0.74851 0.73956 0.81236
 C63 C 0.76070 0.76547 0.78837
 C64 C 0.75348 0.75806 0.75052
 C65 C 0.71226 0.73567 0.77412
 C66 C 0.72356 0.76029 0.74886
 C67 C 0.75021 0.69221 0.76859
 C68 C 0.76187 0.71696 0.74353
 H69 H 0.75566 0.73555 0.83944
 H70 H 0.76193 0.77757 0.73134
 H71 H 0.69064 0.73654 0.77970
 H72 H 0.75681 0.66181 0.77075
 C73 C 0.73554 0.22355 0.30071
 C74 C 0.75487 0.24979 0.31948
 C75 C 0.76664 0.27432 0.29732
 C76 C 0.75805 0.27027 0.25782
 C77 C 0.71537 0.25105 0.28081
 C78 C 0.72686 0.27564 0.25869
 C79 C 0.75311 0.20287 0.27117
 C80 C 0.76460 0.22706 0.24816
 H81 H 0.75964 0.24792 0.34769
 H82 H 0.76707 0.29095 0.23995
 H83 H 0.69352 0.25023 0.28340
 H84 H 0.75830 0.17208 0.27045
 C85 C 0.23113 0.72761 0.29839
 C86 C 0.24784 0.75838 0.31577
 C87 C 0.25919 0.78180 0.29209
 C88 C 0.25246 0.77250 0.25255
 C89 C 0.21038 0.75056 0.27513
 C90 C 0.22120 0.77327 0.25054
 C91 C 0.25097 0.70627 0.27178
 C92 C 0.26200 0.72927 0.24726
 H93 H 0.25324 0.75902 0.34373
 H94 H 0.26094 0.79228 0.23335
 H95 H 0.18874 0.74731 0.27688
 H96 H 0.25633 0.67553 0.27348
 O97 O 1.03110 0.05755 0.06314
 O98 O 1.06203 0.02569 0.02511
 C99 C 1.05581 0.04800 0.05255
 O100 O 0.96043 -0.07574 0.05050
 O101 O 0.92844 -0.03589 0.02177
 C102 C 0.93540 -0.06409 0.04304
 O103 O 1.03625 -0.07432 0.05295
 O104 O 1.06444 -0.03823 0.02103
 C105 C 1.06019 -0.06392 0.04474
 O106 O 0.95498 0.06554 0.06054
 O107 O 0.92590 0.03113 0.02708
 C108 C 0.93077 0.05667 0.05149
 Zr109 Zr 0.99348 0.04295 0.04151
 O110 O 0.99112 0.04042 0.09791
 O111 O 0.99284 0.10394 0.04327
 Zr112 Zr 0.99733 -0.05456 0.03342
 O113 O 0.99585 -0.06268 0.08925
 O114 O 1.00102 -0.11484 0.02324
 O115 O 1.01962 -0.00702 0.04405
 O116 O 0.97194 -0.00554 0.04468
 O117 O 0.95286 0.07527 -0.06093
 O118 O 0.92475 0.03575 -0.03280
 C119 C 0.92891 0.06474 -0.05302
 O120 O 1.03378 -0.06346 -0.07996
 O121 O 1.06343 -0.03395 -0.04308
 C122 C 1.05811 -0.05527 -0.07071
 O123 O 0.95821 -0.06695 -0.07438
 O124 O 0.92758 -0.03192 -0.03813
 C125 C 0.93355 -0.05709 -0.06351
 O126 O 1.02885 0.06979 -0.06638
 O127 O 1.06089 0.03070 -0.03692
 C128 C 1.05387 0.05846 -0.05862
 Zr129 Zr 0.99204 0.04970 -0.04806
 O130 O 0.99278 0.05077 -0.10470
 O131 O 0.99112 0.11072 -0.04512
 Zr132 Zr 0.99570 -0.04751 -0.05594
 O133 O 0.99208 -0.04433 -0.11216
 O134 O 1.00114 -0.10861 -0.05929
 Zr135 Zr 1.03541 -0.00349 -0.00804
 Zr136 Zr 0.95399 -0.00106 -0.00624
 O137 O 0.96995 0.00241 -0.05805
 O138 O 1.01801 0.00095 -0.05943
 O139 O 0.96820 0.05455 -0.00209
 O140 O 1.02084 -0.05878 -0.01237
 O141 O 1.01625 0.05270 -0.00310
 O142 O 0.97239 -0.05777 -0.01123
 H143 H 0.96021 -0.00651 0.06608
 H144 H 1.03435 -0.08140 -0.01447
 H145 H 0.95714 0.00429 -0.07846
 H146 H 1.02750 0.07511 -0.00120
 H147 H 1.00193 -0.12708 0.04697
 H148 H 0.98702 -0.11887 -0.04414
 H149 H 1.00184 -0.02194 -0.11959
 H150 H 0.97414 0.04845 -0.11388
 H151 H 0.98196 0.11891 -0.02242
 H152 H 0.99286 0.11155 0.06892
 H153 H 1.00620 0.02214 0.10595
 H154 H 1.00625 -0.04251 0.10056
 O155 O 1.04163 0.55970 0.57037
 O156 O 1.07103 0.52083 0.53543
 C157 C 1.06588 0.54595 0.56111
 O158 O 0.96168 0.43809 0.56694
 O159 O 0.93267 0.47807 0.53377
 C160 C 0.93744 0.45144 0.55743
 O161 O 1.03753 0.43126 0.57155
 O162 O 1.06905 0.45717 0.53601
 C163 C 1.06243 0.43623 0.56257
 O164 O 0.96597 0.57791 0.56570
 O165 O 0.93477 0.54543 0.53401
 C166 C 0.94118 0.57196 0.55666
 Zr167 Zr 1.00325 0.54872 0.54913
 O168 O 0.99998 0.55026 0.60556
 O169 O 1.00866 0.60868 0.54924
 Zr170 Zr 1.00035 0.45162 0.54819
 O171 O 0.99826 0.44575 0.60419
 O172 O 1.00204 0.39060 0.54270
 O173 O 1.02586 0.49625 0.55576
 O174 O 0.97817 0.50437 0.55543
 O175 O 0.96613 0.57623 0.44301
 O176 O 0.93475 0.54484 0.47426
 C177 C 0.94132 0.57070 0.45190
 O178 O 1.03750 0.42974 0.43512
 O179 O 1.06908 0.45656 0.47086
 C180 C 1.06242 0.43499 0.44398
 O181 O 0.96166 0.43682 0.44017
 O182 O 0.93268 0.47799 0.47346
 C183 C 0.93744 0.45077 0.44958
 O184 O 1.04177 0.55817 0.43820
 O185 O 1.07116 0.52034 0.47288
 C186 C 1.06603 0.54483 0.44748
 Zr187 Zr 1.00335 0.54767 0.45933
 O188 O 1.00010 0.54815 0.40291
 O189 O 1.00877 0.60764 0.46025
 Zr190 Zr 1.00038 0.45061 0.45891
 O191 O 0.99804 0.44341 0.40285
 O192 O 1.00213 0.38969 0.46349
 Zr193 Zr 1.04272 0.49288 0.50383
 Zr194 Zr 0.96111 0.50678 0.50391
 O195 O 0.97826 0.50320 0.45237
 O196 O 1.02590 0.49504 0.45193
 O197 O 0.97920 0.55992 0.50427
 O198 O 1.02445 0.44004 0.50348
 O199 O 1.02735 0.55121 0.50429
 O200 O 0.97552 0.44786 0.50350
 H201 H 0.96593 0.50703 0.57645
 H202 H 1.03683 0.41610 0.50327
 H203 H 0.96611 0.50539 0.43128
 H204 H 1.04038 0.57157 0.50444
 H205 H 0.98386 0.38352 0.53492
 H206 H 0.98392 0.38273 0.47098
 H207 H 0.99893 0.46934 0.39267
 H208 H 1.01431 0.52911 0.39318
 H209 H 0.99363 0.62078 0.47424
 H210 H 0.99376 0.62145 0.53498
 H211 H 1.01425 0.53150 0.61499
 H212 H 0.99809 0.47209 0.61466
 O213 O 0.54033 0.06497 0.55935
 O214 O 0.56990 0.02493 0.52580
 C215 C 0.56468 0.05246 0.54936
 O216 O 0.46374 -0.06396 0.56215
 O217 O 0.43322 -0.02465 0.53041
 C218 C 0.43910 -0.05122 0.55382
 O219 O 0.54026 -0.06878 0.56301
 O220 O 0.56982 -0.03918 0.52720
 C221 C 0.56468 -0.06182 0.55309
 O222 O 0.46450 0.07691 0.55880
 O223 O 0.43357 0.04228 0.52888
 C224 C 0.43979 0.06951 0.55090
 Zr225 Zr 0.50198 0.04909 0.54179
 O226 O 0.50001 0.04907 0.59833
 O227 O 0.50509 0.10960 0.54295
 Zr228 Zr 0.50162 -0.04808 0.54295
 O229 O 0.49972 -0.04796 0.59942
 O230 O 0.50448 -0.10930 0.54172
 O231 O 0.52620 -0.00208 0.54883
 O232 O 0.47819 0.00368 0.54960
 O233 O 0.46260 0.07327 0.43649
 O234 O 0.43251 0.04062 0.46884
 C235 C 0.43813 0.06657 0.44597
 O236 O 0.53707 -0.07152 0.42940
 O237 O 0.56816 -0.04186 0.46373
 C238 C 0.56185 -0.06473 0.43772
 O239 O 0.46116 -0.06716 0.43580
 O240 O 0.43208 -0.02649 0.46934
 C241 C 0.43688 -0.05389 0.44565
 O242 O 0.53889 0.06002 0.43128
 O243 O 0.56896 0.02114 0.46410
 C244 C 0.56335 0.04658 0.43982
 Zr245 Zr 0.50065 0.04638 0.45172
 O246 O 0.49685 0.04346 0.39537
 O247 O 0.50402 0.10673 0.44930
 Zr248 Zr 0.49980 -0.05101 0.45322
 O249 O 0.49631 -0.05780 0.39723
 O250 O 0.50287 -0.11193 0.45817
 Zr251 Zr 0.54160 -0.00572 0.49626
 Zr252 Zr 0.46023 0.00426 0.49849
 O253 O 0.47649 0.00055 0.44644
 O254 O 0.52422 -0.00548 0.44469
 O255 O 0.47706 0.05833 0.49733
 O256 O 0.52467 -0.05950 0.49736
 O257 O 0.52491 0.05199 0.49599
 O258 O 0.47611 -0.05401 0.49892
 H259 H 0.46635 0.00609 0.57102
 H260 H 0.53734 -0.08313 0.49712
 H261 H 0.46397 0.00171 0.42569
 H262 H 0.53702 0.07344 0.49519
 H263 H 0.48795 -0.11761 0.52974
 H264 H 0.48519 -0.11948 0.46708
 H265 H 0.50243 -0.03405 0.38672
 H266 H 0.51338 0.02883 0.38580
 H267 H 0.49051 0.11940 0.46610
 H268 H 0.49136 0.12112 0.52619
 H269 H 0.51714 0.03582 0.60721
 H270 H 0.51264 -0.02958 0.60831
 O271 O 0.53428 0.55963 0.07232
 O272 O 0.56580 0.52292 0.03872
 C273 C 0.55916 0.54847 0.06352
 O274 O 0.46098 0.42755 0.06161
 O275 O 0.43096 0.46694 0.02930
 C276 C 0.43648 0.43958 0.05202
 O277 O 0.53709 0.42625 0.06852
 O278 O 0.56712 0.45810 0.03541
 C279 C 0.56160 0.43421 0.06005
 O280 O 0.45810 0.56788 0.06697
 O281 O 0.42966 0.53362 0.03235
 C282 C 0.43405 0.55943 0.05672
 Zr283 Zr 0.49706 0.54364 0.05071
 O284 O 0.49294 0.54089 0.10692
 O285 O 0.49859 0.60441 0.05444
 Zr286 Zr 0.49907 0.44611 0.04607
 O287 O 0.49498 0.44139 0.10203
 O288 O 0.50357 0.38505 0.04078
 O289 O 0.52212 0.49298 0.05663
 O290 O 0.47432 0.49642 0.05395
 O291 O 0.46174 0.57368 -0.05481
 O292 O 0.43120 0.53714 -0.02757
 C293 C 0.43713 0.56542 -0.04773
 O294 O 0.54041 0.43022 -0.06382
 O295 O 0.56894 0.46088 -0.02617
 C296 C 0.56454 0.43814 -0.05316
 O297 O 0.46395 0.43023 -0.06351
 O298 O 0.43266 0.46830 -0.03070
 C299 C 0.43910 0.44153 -0.05448
 O300 O 0.53776 0.56339 -0.05630
 O301 O 0.56720 0.52495 -0.02238
 C302 C 0.56204 0.55159 -0.04565
 Zr303 Zr 0.49943 0.54613 -0.03963
 O304 O 0.49740 0.54429 -0.09619
 O305 O 0.50133 0.60675 -0.04083
 Zr306 Zr 0.50119 0.44904 -0.04382
 O307 O 0.49933 0.45028 -0.10029
 O308 O 0.50576 0.38786 -0.04566
 Zr309 Zr 0.53964 0.49345 0.00531
 Zr310 Zr 0.45845 0.49946 0.00171
 O311 O 0.47654 0.49968 -0.04921
 O312 O 0.52482 0.49608 -0.04757
 O313 O 0.47394 0.55441 0.00487
 O314 O 0.52405 0.43876 0.00184
 O315 O 0.52153 0.55043 0.00693
 O316 O 0.47587 0.44190 -0.00019
 H317 H 0.46172 0.49674 0.07458
 H318 H 0.53707 0.41550 0.00130
 H319 H 0.46448 0.50147 -0.07042
 H320 H 0.53303 0.57259 0.00843
 H321 H 0.48696 0.37662 0.02909
 H322 H 0.49028 0.37843 -0.03248
 H323 H 0.51312 0.46744 -0.10834
 H324 H 0.51535 0.53371 -0.10529
 H325 H 0.49143 0.61759 -0.01955
 H326 H 0.48358 0.61624 0.03973
 H327 H 0.50952 0.52659 0.11629
 H328 H 0.50558 0.46145 0.11317
 C329 C 1.21888 0.18598 0.14230
 C330 C 1.20136 0.16367 0.12280
 C331 C 1.17990 0.14728 0.13976
 C332 C 1.17675 0.15210 0.17688
 C333 C 1.19434 0.17398 0.19643
 C334 C 1.21520 0.19230 0.17941
 N335 N 1.16102 0.12708 0.11878
 N336 N 1.13905 0.11700 0.13230
 C337 C 1.11926 0.09777 0.11214
 C338 C 1.09396 0.09371 0.12781
 C339 C 1.07346 0.07723 0.10849
 C340 C 1.07808 0.06393 0.07316
 C341 C 1.10383 0.06691 0.05774
 C342 C 1.12425 0.08402 0.07701
 H343 H 1.23506 0.19791 0.12784
 H344 H 1.20419 0.15978 0.09424
 H345 H 1.16054 0.13927 0.19078
 H346 H 1.19133 0.17729 0.22502
 H347 H 1.08995 0.10413 0.15489
 H348 H 1.05394 0.07499 0.12122
 H349 H 1.10794 0.05691 0.03055
 H350 H 1.14375 0.08675 0.06443
 C351 C 1.22666 0.69036 0.64612
 C352 C 1.21003 0.66636 0.62697
 C353 C 1.18945 0.64837 0.64430
 C354 C 1.18619 0.65354 0.68136
 C355 C 1.20279 0.67717 0.70051
 C356 C 1.22292 0.69666 0.68321
 N357 N 1.17120 0.62659 0.62380
 N358 N 1.14995 0.61507 0.63811
 C359 C 1.13035 0.59464 0.61890
 C360 C 1.10536 0.59047 0.63532
 C361 C 1.08463 0.57388 0.61665
 C362 C 1.08878 0.56046 0.58129
 C363 C 1.11436 0.56290 0.56531
 C364 C 1.13499 0.58033 0.58388
 H365 H 1.24207 0.70374 0.63143
 H366 H 1.21282 0.66245 0.59839
 H367 H 1.17058 0.63971 0.69555
 H368 H 1.19964 0.68079 0.72906
 H369 H 1.10165 0.60127 0.66235
 H370 H 1.06522 0.57192 0.62976
 H371 H 1.11805 0.55260 0.53815
 H372 H 1.15430 0.58310 0.57081
 C373 C 0.73138 0.15715 0.66990
 C374 C 0.71564 0.13362 0.64880
 C375 C 0.69277 0.14956 0.63067
 C376 C 0.68733 0.18986 0.63097
 C377 C 0.70314 0.21343 0.65153
 C378 C 0.72422 0.19742 0.67375
 N379 N 0.67425 0.12463 0.61429
 N380 N 0.64997 0.13759 0.60751
 C381 C 0.62962 0.11495 0.59246
 C382 C 0.60282 0.13117 0.59254
 C383 C 0.58191 0.11041 0.57910
 C384 C 0.58741 0.07293 0.56462
 C385 C 0.61448 0.05665 0.56403
 C386 C 0.63550 0.07742 0.57824
 H387 H 0.74879 0.14307 0.68313
 H388 H 0.72064 0.10267 0.64782
 H389 H 0.67031 0.20312 0.61611
 H390 H 0.69790 0.24435 0.65155
 H391 H 0.59809 0.16006 0.60341
 H392 H 0.56141 0.12412 0.57957
 H393 H 0.61933 0.02794 0.55287
 H394 H 0.65618 0.06440 0.57788
 C395 C 0.72864 0.65143 0.17735
 C396 C 0.71162 0.62843 0.15781
 C397 C 0.68690 0.64455 0.14435
 C398 C 0.68043 0.68454 0.14792
 C399 C 0.69755 0.70757 0.16688
 C400 C 0.72100 0.69096 0.18391
 N401 N 0.66795 0.61995 0.12880
 N402 N 0.64287 0.63151 0.12716
 C403 C 0.62259 0.60887 0.11219
 C404 C 0.59536 0.62226 0.11672
 C405 C 0.57476 0.60186 0.10188
 C406 C 0.58112 0.56778 0.08173
 C407 C 0.60858 0.55405 0.07750
 C408 C 0.62922 0.57438 0.09282
 H409 H 0.74750 0.63795 0.18760
 H410 H 0.71718 0.59778 0.15434
 H411 H 0.66186 0.69789 0.13659
 H412 H 0.69192 0.73830 0.16914
 H413 H 0.59011 0.64884 0.13164
 H414 H 0.55387 0.61343 0.10546
 H415 H 0.61409 0.52790 0.06207
 H416 H 0.65025 0.56362 0.08902
 C417 C 0.81715 -0.20918 0.20977
 C418 C 0.83703 -0.18882 0.19350
 C419 C 0.83220 -0.17215 0.16010
 C420 C 0.80694 -0.17537 0.14335
 C421 C 0.78718 -0.19601 0.15944
 C422 C 0.79223 -0.21361 0.19261
 N423 N 0.85354 -0.15349 0.14318
 N424 N 0.84991 -0.13553 0.11400
 C425 C 0.87156 -0.11809 0.09652
 C426 C 0.86548 -0.09377 0.06771
 C427 C 0.88618 -0.07629 0.05015
 C428 C 0.91347 -0.08342 0.06082
 C429 C 0.91952 -0.10832 0.08949
 C430 C 0.89876 -0.12534 0.10730
 H431 H 0.82172 -0.22256 0.23508
 H432 H 0.85643 -0.18656 0.20666
 H433 H 0.80267 -0.16264 0.11755
 H434 H 0.76797 -0.19841 0.14582
 H435 H 0.84459 -0.08808 0.05908
 H436 H 0.88080 -0.05716 0.02830
 H437 H 0.94027 -0.11428 0.09853
 H438 H 0.90398 -0.14427 0.12935
 C439 C 0.80433 0.31814 0.71565
 C440 C 0.82421 0.34080 0.70221
 C441 C 0.82563 0.34812 0.66567
 C442 C 0.80651 0.33301 0.64264
 C443 C 0.78698 0.30979 0.65582
 C444 C 0.78575 0.30109 0.69259
 N445 N 0.84730 0.36930 0.65238
 N446 N 0.84735 0.38200 0.62063
 C447 C 0.86968 0.40114 0.60644
 C448 C 0.86629 0.42072 0.57413
 C449 C 0.88807 0.43797 0.55862
 C450 C 0.91389 0.43520 0.57482
 C451 C 0.91719 0.41572 0.60740
 C452 C 0.89526 0.39911 0.62321
 H453 H 0.80480 0.31286 0.74389
 H454 H 0.83883 0.35228 0.72035
 H455 H 0.80698 0.33848 0.61426
 H456 H 0.77258 0.29941 0.63683
 H457 H 0.84673 0.42237 0.56081
 H458 H 0.88485 0.45266 0.53353
 H459 H 0.93677 0.41321 0.62066
 H460 H 0.89847 0.38392 0.64805
 C461 C 0.31825 -0.19932 0.71532
 C462 C 0.33799 -0.17708 0.70104
 C463 C 0.33365 -0.15887 0.66819
 C464 C 0.30896 -0.16238 0.65011
 C465 C 0.28936 -0.18482 0.66421
 C466 C 0.29399 -0.20411 0.69667
 N467 N 0.35504 -0.13873 0.65295
 N468 N 0.35195 -0.12019 0.62398
 C469 C 0.37376 -0.10172 0.60778
 C470 C 0.36841 -0.07905 0.57762
 C471 C 0.38950 -0.06208 0.56028
 C472 C 0.41644 -0.06795 0.57265
 C473 C 0.42167 -0.09052 0.60314
 C474 C 0.40054 -0.10712 0.62061
 H475 H 0.32244 -0.21387 0.74022
 H476 H 0.35695 -0.17465 0.71524
 H477 H 0.30504 -0.14852 0.62474
 H478 H 0.27061 -0.18733 0.64953
 H479 H 0.34786 -0.07479 0.56737
 H480 H 0.38478 -0.04492 0.53687
 H481 H 0.44213 -0.09546 0.61353
 H482 H 0.40524 -0.12464 0.64378
 C483 C 0.31340 0.29066 0.20909
 C484 C 0.33359 0.31172 0.19437
 C485 C 0.32897 0.33133 0.16231
 C486 C 0.30355 0.33044 0.14545
 C487 C 0.28343 0.30917 0.16001
 C488 C 0.28831 0.28854 0.19172
 N489 N 0.35077 0.35033 0.14672
 N490 N 0.34778 0.37017 0.11848
 C491 C 0.37009 0.38767 0.10243
 C492 C 0.36508 0.41295 0.07401
 C493 C 0.38655 0.42998 0.05755
 C494 C 0.41353 0.42150 0.06898
 C495 C 0.41844 0.39592 0.09745
 C496 C 0.39696 0.37930 0.11408
 H497 H 0.31787 0.27485 0.23322
 H498 H 0.35313 0.31211 0.20760
 H499 H 0.29944 0.34544 0.12068
 H500 H 0.26412 0.30857 0.14628
 H501 H 0.34446 0.41957 0.06469
 H502 H 0.38201 0.44968 0.03586
 H503 H 0.43890 0.38884 0.10712
 H504 H 0.40141 0.35968 0.13586
 C505 C 0.80063 0.24241 -0.20228
 C506 C 0.81898 0.22816 -0.17618
 C507 C 0.81898 0.18996 -0.16496
 C508 C 0.79971 0.16640 -0.17930
 C509 C 0.78164 0.18031 -0.20568
 C510 C 0.78220 0.21831 -0.21867
 N511 N 0.83972 0.17497 -0.14090
 N512 N 0.83934 0.14150 -0.12757
 C513 C 0.86102 0.12487 -0.10582
 C514 C 0.85802 0.08941 -0.08959
 C515 C 0.87974 0.07048 -0.07115
 C516 C 0.90503 0.08657 -0.06909
 C517 C 0.90773 0.12274 -0.08457
 C518 C 0.88590 0.14181 -0.10264
 H519 H 0.80227 0.27169 -0.21047
 H520 H 0.83372 0.24674 -0.16526
 H521 H 0.79900 0.13686 -0.17075
 H522 H 0.76703 0.16088 -0.21518
 H523 H 0.83899 0.07596 -0.09200
 H524 H 0.87701 0.04261 -0.05968
 H525 H 0.92688 0.13601 -0.08332
 H526 H 0.88877 0.16912 -0.11508
 C527 C 0.77716 0.67135 0.30855
 C528 C 0.79362 0.65522 0.33567
 C529 C 0.81829 0.67045 0.34410
 C530 C 0.82576 0.70332 0.32626
 C531 C 0.80925 0.71957 0.29925
 C532 C 0.78521 0.70305 0.28930
 N533 N 0.83626 0.65044 0.36880
 N534 N 0.85999 0.66101 0.37482
 C535 C 0.87904 0.63994 0.39737
 C536 C 0.90548 0.65158 0.39952
 C537 C 0.92555 0.62948 0.41797
 C538 C 0.91940 0.59536 0.43487
 C539 C 0.89251 0.58451 0.43397
 C540 C 0.87246 0.60655 0.41516
 H541 H 0.75828 0.65866 0.30247
 H542 H 0.78754 0.63008 0.34941
 H543 H 0.84470 0.71579 0.33247
 H544 H 0.81593 0.74412 0.28541
 H545 H 0.91074 0.67724 0.38589
 H546 H 0.94600 0.63886 0.41851
 H547 H 0.88719 0.55837 0.44676
 H548 H 0.85208 0.59703 0.41381
 C549 C 0.27433 0.16319 0.29740
 C550 C 0.29103 0.14532 0.32347
 C551 C 0.31470 0.16170 0.33462
 C552 C 0.32101 0.19708 0.32027
 C553 C 0.30427 0.21505 0.29431
 C554 C 0.28107 0.19790 0.28185
 N555 N 0.33271 0.14101 0.35896
 N556 N 0.35543 0.15342 0.36776
 C557 C 0.37462 0.13261 0.39041
 C558 C 0.40012 0.14686 0.39521
 C559 C 0.42045 0.12577 0.41410
 C560 C 0.41554 0.09004 0.42894
 C561 C 0.38951 0.07643 0.42548
 C562 C 0.36919 0.09747 0.40609
 H563 H 0.25617 0.14965 0.28943
 H564 H 0.28581 0.11821 0.33447
 H565 H 0.33915 0.21051 0.32857
 H566 H 0.31008 0.24177 0.28344
 H567 H 0.40451 0.17390 0.38329
 H568 H 0.44021 0.13722 0.41662
 H569 H 0.38520 0.04895 0.43658
 H570 H 0.34955 0.08593 0.40273
 C571 C 0.27583 0.67394 -0.19414
 C572 C 0.29162 0.65577 -0.16740
 C573 C 0.31613 0.67015 -0.15686
 C574 C 0.32412 0.70418 -0.17229
 C575 C 0.30827 0.72249 -0.19901
 C576 C 0.28437 0.70690 -0.21100
 N577 N 0.33336 0.64830 -0.13245
 N578 N 0.35654 0.65897 -0.12343
 C579 C 0.37502 0.63647 -0.10111
 C580 C 0.40061 0.64974 -0.09471
 C581 C 0.42040 0.62699 -0.07646
 C582 C 0.41493 0.59035 -0.06402
 C583 C 0.38878 0.57765 -0.06903
 C584 C 0.36894 0.60048 -0.08767
 H585 H 0.25708 0.66180 -0.20193
 H586 H 0.28513 0.62975 -0.15558
 H587 H 0.34297 0.71600 -0.16449
 H588 H 0.31534 0.74785 -0.21116
 H589 H 0.40550 0.67739 -0.10490
 H590 H 0.44023 0.63788 -0.07265
 H591 H 0.38399 0.54959 -0.05973
 H592 H 0.34922 0.58964 -0.09235
 C593 C 1.22767 -0.18987 -0.19098
 C594 C 1.21110 -0.16689 -0.16721
 C595 C 1.18653 -0.14826 -0.17896
 C596 C 1.17960 -0.15085 -0.21532
 C597 C 1.19610 -0.17354 -0.23898
 C598 C 1.21983 -0.19434 -0.22686
 N599 N 1.16791 -0.12939 -0.15353
 N600 N 1.14348 -0.11961 -0.16262
 C601 C 1.12314 -0.10210 -0.13896
 C602 C 1.09635 -0.09796 -0.15134
 C603 C 1.07540 -0.08281 -0.12906
 C604 C 1.08086 -0.07092 -0.09385
 C605 C 1.10794 -0.07421 -0.08155
 C606 C 1.12898 -0.09004 -0.10390
 H607 H 1.24578 -0.20571 -0.18088
 H608 H 1.21675 -0.16511 -0.13930
 H609 H 1.16097 -0.13628 -0.22532
 H610 H 1.18986 -0.17571 -0.26666
 H611 H 1.09165 -0.10711 -0.17832
 H612 H 1.05486 -0.08027 -0.13956
 H613 H 1.11276 -0.06520 -0.05458
 H614 H 1.14962 -0.09294 -0.09384
 C615 C 1.22622 0.30011 0.30870
 C616 C 1.21099 0.32191 0.33471
 C617 C 1.18571 0.34068 0.32600
 C618 C 1.17668 0.33949 0.29037
 C619 C 1.19187 0.31806 0.26447
 C620 C 1.21634 0.29705 0.27356
 N621 N 1.16855 0.35845 0.35365
 N622 N 1.14334 0.36632 0.34754
 C623 C 1.12415 0.38329 0.37301
 C624 C 1.09669 0.38505 0.36364
 C625 C 1.07687 0.40113 0.38707
 C626 C 1.08409 0.41640 0.42053
 C627 C 1.11182 0.41482 0.43004
 C628 C 1.13178 0.39808 0.40647
 H629 H 1.24493 0.28407 0.31655
 H630 H 1.21828 0.32264 0.36201
 H631 H 1.15747 0.35430 0.28269
 H632 H 1.18405 0.31708 0.23744
 H633 H 1.09062 0.37377 0.33791
 H634 H 1.05583 0.40211 0.37856
 H635 H 1.11803 0.42647 0.45554
 H636 H 1.15300 0.39704 0.41416
 C637 C 0.72986 -0.19564 0.31025
 C638 C 0.71390 -0.17315 0.33505
 C639 C 0.68856 -0.15557 0.32494
 C640 C 0.68029 -0.15827 0.28909
 C641 C 0.69618 -0.18040 0.26442
 C642 C 0.72058 -0.20052 0.27505
 N643 N 0.67045 -0.13786 0.35150
 N644 N 0.64519 -0.13217 0.34453
 C645 C 0.62522 -0.11550 0.36907
 C646 C 0.59791 -0.11602 0.35936
 C647 C 0.57744 -0.10028 0.38206
 C648 C 0.58394 -0.08316 0.41500
 C649 C 0.61150 -0.08257 0.42482
 C650 C 0.63207 -0.09887 0.40206
 H651 H 0.74856 -0.21097 0.31914
 H652 H 0.72059 -0.17119 0.36255
 H653 H 0.66106 -0.14434 0.28036
 H654 H 0.68886 -0.18295 0.23724
 H655 H 0.59246 -0.12876 0.33397
 H656 H 0.55651 -0.10097 0.37342
 H657 H 0.61715 -0.06946 0.44996
 H658 H 0.65315 -0.09815 0.41000
 C659 C 0.68424 0.31137 -0.24706
 C660 C 0.66578 0.33221 -0.22461
 C661 C 0.67343 0.34370 -0.19045
 C662 C 0.70055 0.33576 -0.17942
 C663 C 0.71941 0.31498 -0.20220
 C664 C 0.71120 0.30113 -0.23599
 N665 N 0.65253 0.36145 -0.16763
 N666 N 0.65609 0.37345 -0.13574
 C667 C 0.63321 0.38931 -0.11492
 C668 C 0.63738 0.40730 -0.08173
 C669 C 0.61516 0.42307 -0.06138
 C670 C 0.58832 0.42065 -0.07375
 C671 C 0.58430 0.40211 -0.10683
 C672 C 0.60641 0.38678 -0.12719
 H673 H 0.67714 0.30349 -0.27337
 H674 H 0.64507 0.33870 -0.23364
 H675 H 0.70690 0.34453 -0.15300
 H676 H 0.73971 0.30775 -0.19212
 H677 H 0.65786 0.40939 -0.07178
 H678 H 0.61900 0.43713 -0.03600
 H679 H 0.56400 0.39981 -0.11735
 H680 H 0.60246 0.37284 -0.15257
 C681 C 1.22288 0.15797 -0.17193
 C682 C 1.20540 0.13668 -0.15214
 C683 C 1.18081 0.15419 -0.13905
 C684 C 1.17484 0.19403 -0.14350
 C685 C 1.19241 0.21541 -0.16280
 C686 C 1.21584 0.19723 -0.17926
 N687 N 1.16164 0.13093 -0.12287
 N688 N 1.13699 0.14386 -0.11841
 C689 C 1.11683 0.12165 -0.10320
 C690 C 1.08972 0.13675 -0.10380
 C691 C 1.06925 0.11590 -0.08984
 C692 C 1.07563 0.07959 -0.07457
 C693 C 1.10295 0.06448 -0.07382
 C694 C 1.12343 0.08527 -0.08824
 H695 H 1.24163 0.14336 -0.18175
 H696 H 1.21058 0.10617 -0.14805
 H697 H 1.15636 0.20854 -0.13260
 H698 H 1.18715 0.24606 -0.16576
 H699 H 1.08445 0.16476 -0.11531
 H700 H 1.04846 0.12852 -0.09058
 H701 H 1.10849 0.03658 -0.06224
 H702 H 1.14431 0.07308 -0.08753
 C703 C 1.21703 0.70288 0.36009
 C704 C 1.20171 0.67883 0.38036
 C705 C 1.18589 0.65201 0.36359
 C706 C 1.18655 0.64817 0.32620
 C707 C 1.20206 0.67171 0.30597
 C708 C 1.21711 0.70005 0.32241
 N709 N 1.16800 0.63089 0.38463
 N710 N 1.14911 0.61318 0.36997
 C711 C 1.12992 0.59306 0.38968
 C712 C 1.10628 0.58322 0.37222
 C713 C 1.08580 0.56679 0.39101
 C714 C 1.08893 0.55898 0.42752
 C715 C 1.11323 0.56708 0.44476
 C716 C 1.13353 0.58451 0.42605
 H717 H 1.22795 0.72408 0.37433
 H718 H 1.20134 0.68214 0.40919
 H719 H 1.17465 0.62751 0.31251
 H720 H 1.20164 0.66866 0.27712
 H721 H 1.10332 0.58958 0.34420
 H722 H 1.06733 0.56053 0.37706
 H723 H 1.11604 0.56138 0.47291
 H724 H 1.15176 0.59172 0.44001
 C725 C 0.70576 0.21769 0.35458
 C726 C 0.68687 0.19858 0.37387
 C727 C 0.68223 0.16036 0.36525
 C728 C 0.69764 0.14065 0.33816
 C729 C 0.71630 0.15985 0.31843
 C730 C 0.72025 0.19901 0.32590
 N731 N 0.65996 0.14362 0.38179
 N732 N 0.65609 0.10796 0.37819
 C733 C 0.63247 0.09272 0.39274
 C734 C 0.63302 0.05328 0.39997
 C735 C 0.61032 0.03804 0.41494
 C736 C 0.58649 0.06198 0.42176
 C737 C 0.58562 0.10124 0.41327
 C738 C 0.60857 0.11664 0.39922
 H739 H 0.70786 0.24796 0.36063
 H740 H 0.67497 0.21412 0.39459
 H741 H 0.69415 0.11110 0.33086
 H742 H 0.72616 0.14426 0.29624
 H743 H 0.65125 0.03455 0.39474
 H744 H 0.61134 0.00761 0.42122
 H745 H 0.56751 0.12021 0.41856
 H746 H 0.60764 0.14713 0.39329
 C747 C 0.70520 0.65520 -0.20125
 C748 C 0.68689 0.63380 -0.18353
 C749 C 0.68044 0.64191 -0.14788
 C750 C 0.69333 0.67095 -0.12938
 C751 C 0.71162 0.69294 -0.14718
 C752 C 0.71777 0.68568 -0.18373
 N753 N 0.65877 0.62277 -0.13254
 N754 N 0.65348 0.62377 -0.09930
 C755 C 0.63039 0.60593 -0.08615
 C756 C 0.63007 0.59411 -0.05067
 C757 C 0.60789 0.57593 -0.03765
 C758 C 0.58537 0.57042 -0.05976
 C759 C 0.58539 0.58317 -0.09507
 C760 C 0.60789 0.60039 -0.10833
 H761 H 0.70829 0.64932 -0.22955
 H762 H 0.67678 0.61178 -0.19812
 H763 H 0.68818 0.67802 -0.10180
 H764 H 0.71948 0.71681 -0.13259
 H765 H 0.64719 0.59845 -0.03330
 H766 H 0.60815 0.56667 -0.01015
 H767 H 0.56823 0.57923 -0.11250
 H768 H 0.60761 0.60977 -0.13577
 C769 C 0.79891 -0.19353 -0.22268
 C770 C 0.81951 -0.17155 -0.20942
 C771 C 0.82129 -0.16294 -0.17291
 C772 C 0.80166 -0.17571 -0.14978
 C773 C 0.78134 -0.19815 -0.16280
 C774 C 0.77993 -0.20860 -0.19945
 N775 N 0.84359 -0.14247 -0.15972
 N776 N 0.84422 -0.12979 -0.12760
 C777 C 0.86669 -0.11080 -0.11304
 C778 C 0.86344 -0.09172 -0.07991
 C779 C 0.88505 -0.07391 -0.06416
 C780 C 0.91064 -0.07548 -0.08096
 C781 C 0.91393 -0.09481 -0.11426
 C782 C 0.89207 -0.11211 -0.13031
 H783 H 0.79909 -0.19978 -0.25093
 H784 H 0.83441 -0.16166 -0.22768
 H785 H 0.80228 -0.16901 -0.12143
 H786 H 0.76661 -0.20680 -0.14375
 H787 H 0.84404 -0.09067 -0.06623
 H788 H 0.88178 -0.05936 -0.03852
 H789 H 0.93334 -0.09643 -0.12795
 H790 H 0.89512 -0.12699 -0.15584
 C791 C 0.81078 0.30457 0.29155
 C792 C 0.83083 0.32679 0.30560
 C793 C 0.82699 0.34590 0.33863
 C794 C 0.80247 0.34337 0.35722
 C795 C 0.78247 0.32091 0.34326
 C796 C 0.78662 0.30091 0.31047
 N797 N 0.84893 0.36555 0.35358
 N798 N 0.84668 0.38511 0.38266
 C799 C 0.86939 0.40267 0.39811
 C800 C 0.86525 0.42741 0.42787
 C801 C 0.88728 0.44363 0.44435
 C802 C 0.91391 0.43480 0.43158
 C803 C 0.91793 0.41013 0.40150
 C804 C 0.89589 0.39434 0.38484
 H805 H 0.81479 0.28891 0.26676
 H806 H 0.84974 0.32830 0.29117
 H807 H 0.79906 0.35784 0.38288
 H808 H 0.76391 0.31874 0.35830
 H809 H 0.84494 0.43396 0.43841
 H810 H 0.88346 0.46264 0.46735
 H811 H 0.93813 0.40289 0.39083
 H812 H 0.89965 0.37514 0.36196
 C813 C 0.30486 -0.19174 0.28606
 C814 C 0.32604 -0.17169 0.30036
 C815 C 0.32270 -0.15128 0.33285
 C816 C 0.29738 -0.14986 0.35028
 C817 C 0.27620 -0.16999 0.33598
 C818 C 0.27989 -0.19178 0.30401
 N819 N 0.34573 -0.13438 0.34844
 N820 N 0.34435 -0.11553 0.37799
 C821 C 0.36773 -0.10011 0.39414
 C822 C 0.36425 -0.07647 0.42475
 C823 C 0.38665 -0.06150 0.44152
 C824 C 0.41314 -0.07029 0.42815
 C825 C 0.41660 -0.09429 0.39750
 C826 C 0.39412 -0.10894 0.38057
 H827 H 0.30867 -0.20900 0.26214
 H828 H 0.34546 -0.17323 0.28672
 H829 H 0.29422 -0.13424 0.37542
 H830 H 0.25715 -0.16948 0.35044
 H831 H 0.34407 -0.06958 0.43563
 H832 H 0.38321 -0.04317 0.46506
 H833 H 0.43666 -0.10153 0.38638
 H834 H 0.39740 -0.12734 0.35707
 C835 C 0.30868 0.30216 -0.21551
 C836 C 0.32939 0.32303 -0.20114
 C837 C 0.33008 0.33180 -0.16465
 C838 C 0.30963 0.31965 -0.14247
 C839 C 0.28915 0.29824 -0.15657
 C840 C 0.28835 0.28849 -0.19342
 N841 N 0.35198 0.35233 -0.15062
 N842 N 0.35147 0.36622 -0.11891
 C843 C 0.37355 0.38565 -0.10404
 C844 C 0.36950 0.40613 -0.07174
 C845 C 0.39070 0.42478 -0.05599
 C846 C 0.41658 0.42265 -0.07202
 C847 C 0.42067 0.40191 -0.10445
 C848 C 0.39925 0.38377 -0.12050
 H849 H 0.30970 0.29604 -0.24378
 H850 H 0.34506 0.33230 -0.21857
 H851 H 0.30960 0.32635 -0.11410
 H852 H 0.27369 0.29039 -0.13824
 H853 H 0.34982 0.40764 -0.05874
 H854 H 0.38692 0.44035 -0.03094
 H855 H 0.44036 0.39983 -0.11745
 H856 H 0.40288 0.36785 -0.14540
 C857 C 1.18346 -0.23031 0.20631
 C858 C 1.16593 -0.21397 0.18056
 C859 C 1.16878 -0.17665 0.16858
 C860 C 1.19018 -0.15597 0.18204
 C861 C 1.20793 -0.17244 0.20810
 C862 C 1.20427 -0.20948 0.22109
 N863 N 1.14867 -0.16049 0.14425
 N864 N 1.14941 -0.12773 0.12965
 C865 C 1.12761 -0.11316 0.10680
 C866 C 1.12999 -0.07903 0.08800
 C867 C 1.10844 -0.06358 0.06682
 C868 C 1.08394 -0.08181 0.06450
 C869 C 1.08176 -0.11628 0.08307
 C870 C 1.10337 -0.13189 0.10381
 H871 H 1.18055 -0.25934 0.21487
 H872 H 1.14967 -0.23029 0.17026
 H873 H 1.19275 -0.12698 0.17310
 H874 H 1.22385 -0.15584 0.21890
 H875 H 1.14846 -0.06416 0.09007
 H876 H 1.11068 -0.03677 0.05312
 H877 H 1.06322 -0.13108 0.08183
 H878 H 1.10086 -0.15824 0.11807
 C879 C 1.22664 0.30148 0.69157
 C880 C 1.21144 0.32351 0.66641
 C881 C 1.18651 0.34305 0.67612
 C882 C 1.17788 0.34251 0.71188
 C883 C 1.19301 0.32081 0.73690
 C884 C 1.21704 0.29903 0.72676
 N885 N 1.16913 0.36066 0.64926
 N886 N 1.14407 0.36891 0.65619
 C887 C 1.12463 0.38565 0.63152
 C888 C 1.09733 0.38807 0.64163
 C889 C 1.07728 0.40382 0.61886
 C890 C 1.08418 0.41803 0.58539
 C891 C 1.11176 0.41581 0.57517
 C892 C 1.13193 0.39942 0.59806
 H893 H 1.24503 0.28479 0.68300
 H894 H 1.21838 0.32373 0.63898
 H895 H 1.15896 0.35792 0.72031
 H896 H 1.18547 0.32009 0.76403
 H897 H 1.09155 0.37754 0.66739
 H898 H 1.05635 0.40537 0.62785
 H899 H 1.11770 0.42665 0.54962
 H900 H 1.15303 0.39782 0.58983
 C901 C 0.68102 -0.23302 0.71502
 C902 C 0.66345 -0.21367 0.69126
 C903 C 0.67085 -0.18085 0.67424
 C904 C 0.69676 -0.16777 0.68051
 C905 C 0.71474 -0.18736 0.70459
 C906 C 0.70683 -0.21990 0.72305
 N907 N 0.65082 -0.16146 0.65190
 N908 N 0.65436 -0.13217 0.63303
 C909 C 0.63201 -0.11499 0.61261
 C910 C 0.63631 -0.08575 0.58845
 C911 C 0.61455 -0.06878 0.56857
 C912 C 0.58804 -0.08055 0.57292
 C913 C 0.58387 -0.10990 0.59719
 C914 C 0.60557 -0.12699 0.61669
 H915 H 0.67421 -0.25912 0.72616
 H916 H 0.64370 -0.22432 0.68614
 H917 H 0.70283 -0.14222 0.66746
 H918 H 0.73411 -0.17572 0.70975
 H919 H 0.65650 -0.07614 0.58499
 H920 H 0.61844 -0.04616 0.55014
 H921 H 0.56380 -0.11973 0.60119
 H922 H 0.60154 -0.14944 0.63523
 C923 C 0.68656 0.32283 0.25256
 C924 C 0.66779 0.34402 0.23139
 C925 C 0.67206 0.34651 0.19467
 C926 C 0.69625 0.32930 0.17944
 C927 C 0.71519 0.30801 0.20075
 C928 C 0.70996 0.30357 0.23725
 N929 N 0.65048 0.36399 0.17349
 N930 N 0.65232 0.36862 0.13999
 C931 C 0.62939 0.38430 0.11998
 C932 C 0.63328 0.39748 0.08542
 C933 C 0.61119 0.41342 0.06570
 C934 C 0.58473 0.41564 0.08009
 C935 C 0.58080 0.40148 0.11443
 C936 C 0.60294 0.38619 0.13432
 H937 H 0.68229 0.32032 0.28078
 H938 H 0.64931 0.35733 0.24339
 H939 H 0.69993 0.33094 0.15102
 H940 H 0.73304 0.29324 0.18839
 H941 H 0.65352 0.39593 0.07398
 H942 H 0.61481 0.42398 0.03921
 H943 H 0.56069 0.40301 0.12627
 H944 H 0.59936 0.37577 0.16086
 C945 C 0.80272 0.23482 0.20451
 C946 C 0.82152 0.21925 0.17922
 C947 C 0.82031 0.18136 0.16638
 C948 C 0.79931 0.15956 0.17802
 C949 C 0.78065 0.17495 0.20354
 C950 C 0.78267 0.21238 0.21815
 N951 N 0.84153 0.16498 0.14342
 N952 N 0.84093 0.13150 0.12911
 C953 C 0.86314 0.11433 0.10821
 C954 C 0.86002 0.07971 0.08943
 C955 C 0.88185 0.06120 0.07040
 C956 C 0.90733 0.07683 0.07040
 C957 C 0.91034 0.11175 0.08909
 C958 C 0.88841 0.13045 0.10767
 H959 H 0.80464 0.26401 0.21386
 H960 H 0.83748 0.23649 0.17017
 H961 H 0.79775 0.13029 0.16816
 H962 H 0.76483 0.15720 0.21200
 H963 H 0.84068 0.06689 0.08983
 H964 H 0.87894 0.03425 0.05636
 H965 H 0.92966 0.12462 0.08940
 H966 H 0.89138 0.15707 0.12218
 C967 C 0.77773 0.66308 0.70366
 C968 C 0.79557 0.64670 0.67781
 C969 C 0.81541 0.66816 0.66324
 C970 C 0.81626 0.70724 0.67322
 C971 C 0.79789 0.72414 0.69855
 C972 C 0.77896 0.70189 0.71535
 N973 N 0.83520 0.64874 0.63997
 N974 N 0.85725 0.66307 0.63165
 C975 C 0.87727 0.64175 0.60993
 C976 C 0.90347 0.65442 0.60814
 C977 C 0.92422 0.63199 0.59039
 C978 C 0.91893 0.59671 0.57367
 C979 C 0.89233 0.58484 0.57425
 C980 C 0.87170 0.60703 0.59243
 H981 H 0.76267 0.64508 0.71389
 H982 H 0.79448 0.61668 0.66988
 H983 H 0.83139 0.72449 0.66191
 H984 H 0.79983 0.75392 0.70599
 H985 H 0.90800 0.68109 0.62154
 H986 H 0.94446 0.64208 0.59008
 H987 H 0.88763 0.55784 0.56158
 H988 H 0.85156 0.59670 0.59334
 C989 C 0.27376 0.16876 0.69635
 C990 C 0.29078 0.15151 0.66977
 C991 C 0.31602 0.16568 0.66295
 C992 C 0.32382 0.19802 0.68245
 C993 C 0.30685 0.21523 0.70897
 C994 C 0.28184 0.20051 0.71654
 N995 N 0.33406 0.14558 0.63776
 N996 N 0.35757 0.15674 0.63183
 C997 C 0.37679 0.13620 0.60853
 C998 C 0.40278 0.14930 0.60596
 C999 C 0.42304 0.12809 0.58643
 C1000 C 0.41756 0.09336 0.56889
 C1001 C 0.39109 0.08099 0.57030
 C1002 C 0.37083 0.10219 0.59015
 H1003 H 0.25436 0.15718 0.70115
 H1004 H 0.28453 0.12663 0.65491
 H1005 H 0.34330 0.20946 0.67781
 H1006 H 0.31380 0.23915 0.72435
 H1007 H 0.40754 0.17548 0.62003
 H1008 H 0.44315 0.13861 0.58559
 H1009 H 0.38628 0.05434 0.55708
 H1010 H 0.35081 0.09156 0.59181
 C1011 C 0.29942 0.73730 0.20237
 C1012 C 0.31905 0.72168 0.17814
 C1013 C 0.32052 0.68241 0.16882
 C1014 C 0.30154 0.65892 0.18329
 C1015 C 0.28214 0.67435 0.20792
 C1016 C 0.28128 0.71361 0.21873
 N1017 N 0.34219 0.66676 0.14610
 N1018 N 0.34284 0.63256 0.13304
 C1019 C 0.36535 0.61611 0.11218
 C1020 C 0.36293 0.58102 0.09388
 C1021 C 0.38505 0.56309 0.07499
 C1022 C 0.41017 0.57972 0.07467
 C1023 C 0.41248 0.61516 0.09281
 C1024 C 0.39021 0.63335 0.11121
 H1025 H 0.29911 0.76776 0.20850
 H1026 H 0.33340 0.74021 0.16687
 H1027 H 0.30207 0.62848 0.17623
 H1028 H 0.26790 0.65524 0.21840
 H1029 H 0.34394 0.56734 0.09459
 H1030 H 0.38269 0.53567 0.06149
 H1031 H 0.43154 0.62872 0.09294
 H1032 H 0.39262 0.66037 0.12535
   
