data_POSCAR
  _audit_creation_date              2014-09-24
  _audit_creation_method            'ToBaCCo'
  _symmetry_space_group_name_H-M    'P1'
  _symmetry_Int_Tables_number       1
  _symmetry_cell_setting            triclinic
  loop_
  _symmetry_equiv_pos_as_xyz
 x,y,z
_cell_length_a 19.4205
_cell_length_b 20.5858
_cell_length_c 45.7088
_cell_angle_alpha 90.048300
_cell_angle_beta 84.090500
_cell_angle_gamma 124.767000
loop_
  _atom_site_label
  _atom_site_type_symbol
  _atom_site_fract_x
  _atom_site_fract_y
  _atom_site_fract_z
C1 C -0.07264 0.00786 0.55892
 H2 H -0.05621 -0.02113 0.57358
 C3 C -0.08742 0.06305 0.56977
 H4 H -0.08431 0.07451 0.59290
 C5 C -0.08394 0.03747 0.51027
 H6 H -0.07656 0.03142 0.48686
 C7 C -0.09878 0.09297 0.52013
 H8 H -0.10628 0.12664 0.50417
 N9 N -0.06821 -0.00157 0.52946
 C10 C 0.08657 -0.08427 0.53841
 H11 H 0.14054 -0.03482 0.52487
 C12 C 0.09443 -0.13939 0.55252
 H13 H 0.15528 -0.13063 0.55033
 C14 C -0.05991 -0.15954 0.55559
 H15 H -0.12057 -0.16878 0.55542
 C16 C -0.05453 -0.21546 0.57051
 H17 H -0.11118 -0.26732 0.58212
 Zn18 Zn -0.00456 -0.03773 0.51233
 N19 N 0.00983 -0.09635 0.53957
 C20 C 0.14607 0.11043 0.51677
 N21 N 0.09970 0.05654 0.49738
 C22 C 0.11996 0.07476 0.46778
 C23 C 0.18865 0.14980 0.45665
 C24 C 0.21507 0.18679 0.50655
 C25 C -0.12957 -0.13104 0.47335
 C26 C -0.15756 -0.17671 0.44898
 C27 C -0.02538 -0.16424 0.44109
 C28 C -0.00136 -0.12110 0.46599
 N29 N -0.05190 -0.10311 0.48095
 H30 H 0.12724 0.09503 0.54021
 H31 H 0.08039 0.03290 0.45266
 H32 H 0.20217 0.16356 0.43301
 H33 H 0.25007 0.22922 0.52235
 H34 H -0.16972 -0.11781 0.48607
 H35 H -0.21953 -0.19775 0.44327
 H36 H 0.01804 -0.17545 0.42969
 H37 H 0.05945 -0.09942 0.47294
 C38 C 0.02267 -0.20719 0.56801
 C39 C -0.09588 0.10944 0.54996
 C40 C -0.10446 -0.19256 0.43190
 C41 C 0.23594 0.20750 0.47608
 C42 C 1.10844 0.16268 0.11157
 H43 H 1.06749 0.18214 0.11062
 C44 C 1.18084 0.19665 0.09124
 H45 H 1.19274 0.23965 0.07425
 C46 C 1.14425 0.08568 0.13553
 H47 H 1.13104 0.04450 0.15351
 C48 C 1.21684 0.11723 0.11528
 H49 H 1.25830 0.09859 0.11735
 N50 N 1.09076 0.10741 0.13292
 C51 C 0.90072 0.13753 0.16388
 H52 H 0.92346 0.15950 0.18477
 C53 C 0.84122 0.14681 0.15351
 H54 H 0.81911 0.17715 0.16633
 C55 C 0.89865 0.06790 0.12221
 H56 H 0.91985 0.03533 0.11059
 C57 C 0.84118 0.07749 0.11075
 H58 H 0.81840 0.05235 0.09015
 Zn59 Zn 0.99656 0.07065 0.16172
 N60 N 0.92738 0.09796 0.14820
 C61 C 1.10255 0.19654 0.19585
 N62 N 1.04064 0.11748 0.19695
 C63 C 1.01966 0.06978 0.22156
 C64 C 1.06341 0.10038 0.24588
 C65 C 1.14889 0.22963 0.21970
 C66 C 0.94280 -0.09281 0.15804
 C67 C 0.88840 -0.17379 0.16702
 C68 C 0.79688 -0.14756 0.19618
 C69 C 0.85254 -0.06776 0.18668
 N70 N 0.92534 -0.04137 0.16882
 H71 H 1.11913 0.23303 0.17583
 H72 H 0.97172 0.00696 0.22202
 H73 H 1.04568 0.06013 0.26480
 H74 H 1.20039 0.29194 0.21798
 H75 H 0.99968 -0.07120 0.14317
 H76 H 0.90524 -0.21319 0.15924
 H77 H 0.74113 -0.16635 0.21139
 H78 H 0.83944 -0.02584 0.19455
 C79 C 0.81055 0.11592 0.12669
 C80 C 1.23590 0.17372 0.09289
 C81 C 0.81538 -0.20155 0.18702
 C82 C 1.13106 0.18080 0.24483
 C83 C 0.09990 0.98923 0.87727
 H84 H 0.04776 0.97670 0.89314
 C85 C 0.17637 1.01170 0.88682
 H86 H 0.18319 1.01768 0.91008
 C87 C 0.15402 0.99410 0.82779
 H88 H 0.14391 0.98517 0.80487
 C89 C 0.23187 1.01831 0.83627
 H90 H 0.28163 1.02836 0.81971
 N91 N 0.09045 0.98134 0.84813
 C92 C -0.16683 0.85388 0.87369
 H93 H -0.17532 0.80216 0.86411
 C94 C -0.22984 0.84486 0.89471
 H95 H -0.28519 0.78558 0.90094
 C96 C -0.08569 0.99325 0.87591
 H97 H -0.02957 1.05101 0.86815
 C98 C -0.14783 0.98718 0.89653
 H99 H -0.13815 1.04094 0.90463
 Zn100 Zn -0.01394 0.94264 0.83396
 N101 N -0.09644 0.92723 0.86475
 C102 C -0.04654 0.79468 0.83728
 N103 N -0.04489 0.84610 0.81813
 C104 C -0.05161 0.83280 0.78906
 C105 C -0.05725 0.76646 0.77811
 C106 C -0.05180 0.72828 0.82735
 C107 C 0.07431 1.09005 0.80149
 C108 C 0.08216 1.15133 0.78507
 C109 C -0.06295 1.06182 0.77594
 C110 C -0.06807 1.00175 0.79260
 N111 N -0.00036 1.01732 0.80546
 H112 H -0.03951 0.80756 0.86016
 H113 H -0.04808 0.87555 0.77411
 H114 H -0.05906 0.75802 0.75474
 H115 H -0.05110 0.68935 0.84301
 H116 H 0.12686 1.10233 0.81237
 H117 H 0.14185 1.20902 0.78288
 H118 H -0.11834 1.04967 0.76694
 H119 H -0.12726 0.94382 0.79654
 C120 C -0.22168 0.91224 0.90620
 C121 C 0.24361 1.02714 0.86614
 C122 C 0.01215 1.13844 0.77293
 C123 C -0.05443 0.71488 0.79726
 C124 C 0.36293 0.14419 -0.01441
 C125 C 0.36365 0.11608 -0.04150
 C126 C 0.42681 0.10314 -0.04380
 N127 N 0.46601 0.12479 -0.01924
 C128 C 0.42669 0.14927 -0.00121
 C129 C 0.45086 0.07666 -0.06887
 C130 C 0.50842 0.05475 -0.06896
 C131 C 0.53874 0.03457 -0.09360
 C132 C 0.58641 0.01068 -0.08409
 C133 C 0.58398 0.01631 -0.05384
 N134 N 0.53600 0.04271 -0.04480
 C135 C 0.61843 -0.01030 -0.03523
 C136 C 0.62618 0.00560 -0.00519
 C137 C 0.65052 -0.02726 0.01423
 C138 C 0.65304 0.00519 0.04069
 C139 C 0.63110 0.05762 0.03653
 N140 N 0.61518 0.05798 0.00841
 C141 C 0.62880 0.10621 0.05803
 C142 C 0.59453 0.14993 0.05367
 C143 C 0.60821 0.21250 0.06992
 C144 C 0.55621 0.23220 0.06134
 C145 C 0.51394 0.18260 0.03959
 N146 N 0.53767 0.13284 0.03492
 C147 C 0.45076 0.18052 0.02624
 H148 H 0.32111 0.16040 -0.00573
 H149 H 0.32232 0.10736 -0.05747
 H150 H 0.50807 0.08332 0.02264
 H151 H 0.52589 0.03400 -0.11608
 H152 H 0.61719 -0.01075 -0.09787
 H153 H 0.66469 -0.07040 0.00988
 H154 H 0.66847 -0.00917 0.06068
 H155 H 0.55017 0.27785 0.07007
 H156 H 0.51502 0.04279 -0.02304
 H157 H 0.65055 0.24074 0.08648
 C158 C -0.02011 0.24420 0.67284
 C159 C -0.02873 0.24675 0.64342
 C160 C -0.06424 0.28846 0.64042
 N161 N -0.07906 0.30988 0.66698
 C162 C -0.05141 0.28370 0.68673
 C163 C -0.08165 0.30769 0.61373
 C164 C -0.09492 0.36846 0.61145
 C165 C -0.12850 0.38112 0.58848
 C166 C -0.11436 0.45426 0.59131
 C167 C -0.07553 0.48280 0.61650
 N168 N -0.06480 0.43007 0.62889
 C169 C -0.04163 0.55982 0.62554
 C170 C -0.03398 0.57697 0.65532
 C171 C 0.00416 0.65167 0.66588
 C172 C -0.00272 0.64123 0.69602
 C173 C -0.04418 0.56057 0.70269
 N174 N -0.06417 0.52147 0.67783
 C175 C -0.06221 0.52350 0.73107
 C176 C -0.08496 0.44503 0.73512
 C177 C -0.11897 0.39892 0.76165
 C178 C -0.11524 0.33464 0.75775
 C179 C -0.08161 0.34207 0.72876
 N180 N -0.06438 0.40866 0.71499
 C181 C -0.05448 0.29589 0.71702
 H182 H 0.00698 0.21724 0.68271
 H183 H -0.00813 0.22317 0.62622
 H184 H -0.02730 0.43403 0.69474
 H185 H -0.15732 0.34313 0.57081
 H186 H -0.12956 0.48379 0.57634
 H187 H 0.03469 0.70786 0.65327
 H188 H 0.02251 0.68807 0.71103
 H189 H -0.13263 0.28894 0.77451
 H190 H -0.02685 0.44190 0.64541
 H191 H -0.14057 0.41199 0.78211
 C192 C 0.27271 0.34011 0.35335
 C193 C 0.29361 0.35720 0.38141
 C194 C 0.38103 0.40279 0.37900
 N195 N 0.41422 0.41454 0.35044
 C196 C 0.34805 0.37589 0.33473
 C197 C 0.42859 0.42593 0.40299
 C198 C 0.51705 0.48161 0.39941
 C199 C 0.56992 0.49161 0.41982
 C200 C 0.65009 0.55310 0.40851
 C201 C 0.64409 0.57849 0.38139
 N202 N 0.56277 0.53483 0.37600
 C203 C 0.71264 0.64238 0.36298
 C204 C 0.71119 0.65368 0.33267
 C205 C 0.77447 0.71931 0.31467
 C206 C 0.75302 0.70445 0.28662
 C207 C 0.67659 0.63024 0.28834
 N208 N 0.65154 0.59920 0.31660
 C209 C 0.63587 0.58940 0.26381
 C210 C 0.55558 0.51572 0.26656
 C211 C 0.52134 0.46557 0.24402
 C212 C 0.44222 0.40175 0.25556
 C213 C 0.42932 0.41525 0.28469
 N214 N 0.49838 0.48522 0.29108
 C215 C 0.35446 0.36480 0.30432
 H216 H 0.20923 0.30433 0.34734
 H217 H 0.24943 0.33730 0.40132
 H218 H 0.50327 0.51399 0.31025
 H219 H 0.55307 0.45769 0.44056
 H220 H 0.70654 0.57580 0.41896
 H221 H 0.83109 0.77191 0.32097
 H222 H 0.79119 0.74363 0.26726
 H223 H 0.39921 0.35150 0.24367
 H224 H 0.53890 0.54589 0.35877
 H225 H 0.54998 0.47353 0.22156
 C226 C -0.08867 0.18164 0.55944
 C227 C -0.05304 0.24935 0.54112
 C228 C -0.04613 0.30516 0.55888
 C229 C -0.07958 0.26753 0.58680
 O230 O -0.10415 0.19273 0.58724
 H231 H -0.02976 0.25867 0.51790
 H232 H -0.01701 0.36691 0.55236
 C233 C 0.76214 0.71652 0.20097
 C234 C 0.76915 0.65506 0.19388
 C235 C 0.71748 0.59595 0.21550
 C236 C 0.68225 0.62536 0.23401
 O237 O 0.70910 0.69804 0.22518
 H238 H 0.81004 0.65444 0.17611
 H239 H 0.71050 0.54025 0.21848
 C240 C 0.32536 0.05265 -0.12416
 C241 C 0.40312 0.10144 -0.14087
 C242 C 0.46096 0.11548 -0.12267
 C243 C 0.41431 0.07306 -0.09637
 O244 O 0.33213 0.03540 -0.09722
 H245 H 0.41634 0.12690 -0.16315
 H246 H 0.52903 0.15426 -0.12758
 C247 C 0.02621 0.72735 0.57885
 C248 C 0.07830 0.70798 0.56507
 C249 C 0.05765 0.64138 0.58038
 C250 C -0.00503 0.62522 0.60247
 O251 O -0.02469 0.67702 0.60162
 H252 H 0.12434 0.73768 0.54571
 H253 H 0.08549 0.60877 0.57623
 C254 C 0.18561 0.21248 0.26889
 C255 C 0.18163 0.16634 0.29189
 C256 C 0.24422 0.21740 0.30785
 C257 C 0.28204 0.29130 0.29376
 O258 O 0.24725 0.28863 0.26992
 H259 H 0.13977 0.10281 0.29645
 H260 H 0.26105 0.20262 0.32740
 C261 C 0.71416 -0.09365 -0.07386
 C262 C 0.64068 -0.16353 -0.06135
 C263 C 0.59634 -0.14118 -0.04456
 C264 C 0.64544 -0.05976 -0.04791
 O265 O 0.71665 -0.03060 -0.06558
 H266 H 0.62060 -0.22390 -0.06399
 H267 H 0.53486 -0.17952 -0.03181
 C268 C 0.31101 0.20565 0.07084
 C269 C 0.34973 0.27484 0.05298
 C270 C 0.41090 0.27709 0.03445
 C271 C 0.40490 0.20946 0.04252
 O272 O 0.34493 0.16629 0.06455
 H273 H 0.33434 0.31772 0.05297
 H274 H 0.45274 0.32098 0.01658
 C275 C 0.87011 0.76593 0.40763
 C276 C 0.91831 0.75158 0.38768
 C277 C 0.86682 0.70667 0.36734
 C278 C 0.79127 0.69664 0.37616
 O279 O 0.79285 0.73216 0.40044
 H280 H 0.98298 0.77064 0.38757
 H281 H 0.88143 0.68176 0.34889
 C282 C 0.01560 0.20609 0.75973
 C283 C 0.06963 0.28340 0.76700
 C284 C 0.04948 0.32602 0.75205
 C285 C -0.01522 0.27211 0.73665
 O286 O -0.03641 0.19896 0.74123
 H287 H 0.11657 0.30606 0.78210
 H288 H 0.07826 0.38909 0.75231
 C289 C 0.74424 0.11956 0.11546
 C290 C 0.68145 0.11904 0.13279
 C291 C 0.62911 0.11353 0.11371
 C292 C 0.66461 0.11250 0.08604
 O293 O 0.73398 0.11537 0.08719
 H294 H 0.67267 0.11895 0.15656
 H295 H 0.57105 0.10920 0.11934
 C296 C 0.30332 0.28896 0.46386
 C297 C 0.34257 0.35610 0.47950
 C298 C 0.39534 0.41752 0.45885
 C299 C 0.38466 0.38321 0.43224
 O300 O 0.32883 0.30565 0.43528
 H301 H 0.33261 0.36050 0.50292
 H302 H 0.43595 0.47983 0.46263
 C303 C -0.04760 0.65132 0.78571
 C304 C -0.01032 0.62095 0.79927
 C305 C -0.01131 0.56893 0.78074
 C306 C -0.05015 0.57014 0.75731
 O307 O -0.07112 0.62107 0.76006
 H308 H 0.01754 0.63699 0.81966
 H309 H 0.01511 0.53550 0.78362
   
