data_POSCAR
  _audit_creation_date              2014-09-24
  _audit_creation_method            'ToBaCCo'
  _symmetry_space_group_name_H-M    'P1'
  _symmetry_Int_Tables_number       1
  _symmetry_cell_setting            triclinic
  loop_
  _symmetry_equiv_pos_as_xyz
 x,y,z
_cell_length_a 27.6447
_cell_length_b 27.4104
_cell_length_c 27.2740
_cell_angle_alpha 84.992900
_cell_angle_beta 94.470700
_cell_angle_gamma 94.239200
loop_
  _atom_site_label
  _atom_site_type_symbol
  _atom_site_fract_x
  _atom_site_fract_y
  _atom_site_fract_z
C1 C 0.20562 0.28013 0.28488
 C2 C 0.24506 0.31307 0.25966
 C3 C 0.27176 0.28949 0.23039
 C4 C 0.25713 0.23441 0.22965
 C5 C 0.17573 0.25554 0.24283
 C6 C 0.20256 0.23194 0.21364
 C7 C 0.23258 0.23800 0.31280
 C8 C 0.25968 0.21419 0.28409
 H9 H 0.24929 0.35236 0.26245
 H10 H 0.27927 0.21496 0.20634
 H11 H 0.13643 0.25478 0.23838
 H12 H 0.22981 0.22731 0.35161
 C13 C 0.70672 0.78681 0.29243
 C14 C 0.73397 0.82108 0.25488
 C15 C 0.76448 0.79837 0.22863
 C16 C 0.76422 0.74265 0.24208
 C17 C 0.68064 0.74668 0.26200
 C18 C 0.71067 0.72380 0.23562
 C19 C 0.74669 0.76041 0.32407
 C20 C 0.77667 0.73711 0.29800
 H21 H 0.73135 0.86046 0.25179
 H22 H 0.78802 0.72317 0.22084
 H23 H 0.64207 0.73789 0.26027
 H24 H 0.74912 0.75807 0.36404
 C25 C 0.70401 0.29820 0.76757
 C26 C 0.73235 0.32850 0.73223
 C27 C 0.76487 0.30257 0.70715
 C28 C 0.76034 0.24969 0.72051
 C29 C 0.67639 0.25926 0.73671
 C30 C 0.70604 0.23399 0.71219
 C31 C 0.74126 0.26983 0.80136
 C32 C 0.77069 0.24416 0.77681
 H33 H 0.72664 0.36700 0.72385
 H34 H 0.78357 0.22768 0.70115
 H35 H 0.63720 0.25380 0.73233
 H36 H 0.74296 0.26922 0.84121
 C37 C 0.20973 0.78709 0.79850
 C38 C 0.23860 0.81931 0.76057
 C39 C 0.26599 0.79388 0.73364
 C40 C 0.26248 0.73827 0.74743
 C41 C 0.18060 0.74856 0.76865
 C42 C 0.20771 0.72299 0.74142
 C43 C 0.24804 0.75785 0.82982
 C44 C 0.27577 0.73254 0.80322
 H45 H 0.23765 0.85888 0.75601
 H46 H 0.28561 0.71772 0.72627
 H47 H 0.14170 0.74304 0.76949
 H48 H 0.25073 0.75389 0.86952
 C49 C 0.01961 0.06394 0.05997
 H50 H -0.01832 0.05750 0.06688
 C51 C 0.04892 0.09696 0.08715
 H52 H 0.03298 0.11624 0.11424
 C53 C 0.08697 0.04496 0.01825
 H54 H 0.10178 0.02472 -0.00860
 C55 C 0.11782 0.07727 0.04517
 H56 H 0.15605 0.08192 0.03845
 N57 N 0.03851 0.03991 0.02508
 C58 C 0.02855 -0.08884 -0.03815
 H59 H 0.00652 -0.10491 -0.00912
 C60 C 0.05589 -0.11889 -0.06228
 H61 H 0.05461 -0.15798 -0.05180
 C62 C 0.05801 -0.01860 -0.08676
 H63 H 0.05954 0.02075 -0.09531
 C64 C 0.08490 -0.04752 -0.11277
 H65 H 0.10686 -0.03043 -0.14156
 Zn66 Zn -0.00528 0.00015 -0.01430
 N67 N 0.03022 -0.03959 -0.05045
 C68 C -0.04577 0.04328 -0.10714
 N69 N -0.04512 0.04206 -0.05707
 C70 C -0.07275 0.07178 -0.03521
 C71 C -0.10033 0.10596 -0.06345
 C72 C -0.07267 0.07728 -0.13691
 C73 C -0.02542 -0.06050 0.07143
 C74 C -0.05484 -0.08736 0.10500
 C75 C -0.12474 -0.07240 0.04823
 C76 C -0.09399 -0.04602 0.01570
 N77 N -0.04544 -0.04000 0.02807
 H78 H -0.02521 0.01834 -0.12426
 H79 H -0.07377 0.06890 0.00434
 H80 H -0.12209 0.12885 -0.04489
 H81 H -0.07150 0.07865 -0.17660
 H82 H 0.01332 -0.05511 0.08033
 H83 H -0.03843 -0.10240 0.13987
 H84 H -0.16329 -0.07666 0.03770
 H85 H -0.10900 -0.02993 -0.01927
 C86 C 0.08422 -0.09822 -0.10021
 C87 C 0.09848 0.10468 0.07915
 C88 C -0.10535 -0.09286 0.09392
 C89 C -0.09968 0.10993 -0.11503
 C90 C 0.08986 0.56996 0.52268
 H91 H 0.09110 0.58023 0.48356
 C92 C 0.11896 0.59658 0.55666
 H93 H 0.14212 0.62763 0.54320
 C94 C 0.05570 0.51879 0.58744
 H95 H 0.03040 0.48913 0.59950
 C96 C 0.08435 0.54408 0.62259
 H97 H 0.08119 0.53285 0.66133
 N98 N 0.05887 0.53203 0.53852
 C99 C 0.02693 0.43483 0.42016
 H100 H -0.01232 0.43456 0.41598
 C101 C 0.05137 0.40538 0.39244
 H102 H 0.03062 0.38234 0.36693
 C103 C 0.10146 0.46390 0.45990
 H104 H 0.12082 0.48643 0.48658
 C105 C 0.12734 0.43488 0.43304
 H106 H 0.16645 0.43650 0.43875
 Zn107 Zn 0.01681 0.50054 0.49100
 N108 N 0.05220 0.46351 0.45287
 C109 C -0.01963 0.55133 0.40100
 N110 N -0.01556 0.54989 0.45112
 C111 C -0.03699 0.58277 0.47539
 C112 C -0.06712 0.61623 0.44955
 C113 C -0.04926 0.58454 0.37354
 C114 C -0.01502 0.41616 0.55001
 C115 C -0.04748 0.38673 0.57861
 C116 C -0.11042 0.44092 0.54920
 C117 C -0.07709 0.46880 0.52073
 N118 N -0.02986 0.45730 0.52317
 H119 H -0.00121 0.52579 0.38226
 H120 H -0.03265 0.58120 0.51525
 H121 H -0.08593 0.63998 0.47021
 H122 H -0.05271 0.58439 0.33377
 H123 H 0.02256 0.40738 0.55074
 H124 H -0.03471 0.35536 0.60159
 H125 H -0.14740 0.45174 0.54835
 H126 H -0.08888 0.50048 0.49797
 C127 C 0.10225 0.40500 0.39887
 C128 C 0.11610 0.58400 0.60749
 C129 C -0.09536 0.40018 0.57963
 C130 C -0.07491 0.61649 0.39795
 C131 C 0.54032 0.08451 0.52328
 H132 H 0.51411 0.10003 0.49599
 C133 C 0.57213 0.11570 0.55040
 H134 H 0.56948 0.15500 0.54421
 C135 C 0.57571 0.01468 0.56452
 H136 H 0.57710 -0.02480 0.56938
 C137 C 0.60776 0.04450 0.59294
 H138 H 0.63383 0.02776 0.61976
 N139 N 0.54217 0.03497 0.53122
 C140 C 0.52495 -0.09569 0.46062
 H141 H 0.49575 -0.11305 0.48133
 C142 C 0.55215 -0.12433 0.43474
 H143 H 0.54358 -0.16359 0.43582
 C144 C 0.57232 -0.02382 0.43460
 H145 H 0.57974 0.01548 0.43470
 C146 C 0.60098 -0.05122 0.40884
 H147 H 0.63032 -0.03274 0.38882
 Zn148 Zn 0.49845 -0.00710 0.49464
 N149 N 0.53515 -0.04632 0.45979
 C150 C 0.45915 0.03078 0.40028
 N151 N 0.45721 0.03033 0.45002
 C152 C 0.42344 0.05464 0.46996
 C153 C 0.38944 0.08039 0.43959
 C154 C 0.42596 0.05646 0.36845
 C155 C 0.46507 -0.04806 0.58710
 C156 C 0.43347 -0.07666 0.61726
 C157 C 0.38646 -0.10159 0.54413
 C158 C 0.41916 -0.07292 0.51535
 N159 N 0.45775 -0.04712 0.53707
 H160 H 0.48592 0.01069 0.38520
 H161 H 0.42261 0.05341 0.50965
 H162 H 0.36296 0.09962 0.45630
 H163 H 0.42749 0.05601 0.32894
 H164 H 0.49494 -0.02627 0.60385
 H165 H 0.43931 -0.07680 0.65699
 H166 H 0.35569 -0.12174 0.52650
 H167 H 0.41358 -0.07078 0.47554
 C168 C 0.59088 -0.10215 0.40867
 C169 C 0.60612 0.09572 0.58607
 C170 C 0.39378 -0.10375 0.59561
 C171 C 0.39008 0.08109 0.38809
 C172 C 0.57300 0.57699 0.02632
 H173 H 0.55738 0.59347 -0.00822
 C174 C 0.60415 0.60547 0.05695
 H175 H 0.61179 0.64399 0.04587
 C176 C 0.58047 0.50719 0.08345
 H177 H 0.57069 0.46891 0.09360
 C178 C 0.61144 0.53441 0.11537
 H179 H 0.62566 0.51671 0.15001
 N180 N 0.56141 0.52897 0.04026
 C181 C 0.52114 0.42787 -0.07394
 H182 H 0.48190 0.42814 -0.07729
 C183 C 0.54464 0.40205 -0.10602
 H184 H 0.52305 0.38292 -0.13414
 C185 C 0.59668 0.45431 -0.03450
 H186 H 0.61689 0.47490 -0.00670
 C187 C 0.62161 0.42858 -0.06540
 H188 H 0.66083 0.42919 -0.06016
 Zn189 Zn 0.51510 0.49248 0.00083
 N190 N 0.54735 0.45408 -0.03963
 C191 C 0.47458 0.54069 -0.08917
 N192 N 0.47570 0.53731 -0.03896
 C193 C 0.44890 0.56639 -0.01535
 C194 C 0.41841 0.59903 -0.04202
 C195 C 0.44448 0.57302 -0.11739
 C196 C 0.46500 0.40301 0.03760
 C197 C 0.43382 0.37453 0.06844
 C198 C 0.42622 0.44576 0.11265
 C199 C 0.45782 0.47257 0.08143
 N200 N 0.47537 0.45150 0.04375
 H201 H 0.49715 0.51866 -0.10759
 H202 H 0.45102 0.56446 0.02435
 H203 H 0.39634 0.62037 -0.02215
 H204 H 0.44409 0.57518 -0.15724
 H205 H 0.48048 0.38626 0.00861
 H206 H 0.42622 0.33610 0.06269
 H207 H 0.41152 0.46426 0.14106
 H208 H 0.46842 0.51038 0.08750
 C209 C 0.59569 0.40281 -0.10261
 C210 C 0.62324 0.58437 0.10249
 C211 C 0.41298 0.39614 0.10600
 C212 C 0.41570 0.60259 -0.09375
 C213 C 0.17623 -0.18771 -0.12253
 C214 C 0.17673 -0.18419 -0.17425
 C215 C 0.14137 -0.15602 -0.20148
 C216 C 0.11043 -0.12870 -0.17766
 C217 C 0.11334 -0.12963 -0.12590
 C218 C 0.14496 -0.16128 -0.09915
 C219 C 0.18199 -0.14997 -0.05842
 C220 C 0.21656 -0.17820 -0.08379
 H221 H 0.13868 -0.15404 -0.24142
 H222 H 0.08506 -0.10600 -0.19967
 H223 H 0.17185 -0.16828 -0.02232
 H224 H 0.19290 -0.11010 -0.05830
 H225 H 0.22677 -0.21225 -0.06142
 H226 H 0.24759 -0.15479 -0.09857
 C227 C 0.18369 0.30836 0.36688
 C228 C 0.17557 0.30849 0.31545
 C229 C 0.14011 0.33911 0.29228
 C230 C 0.11605 0.36994 0.31950
 C231 C 0.12803 0.37265 0.37041
 C232 C 0.16095 0.33989 0.39357
 C233 C 0.20589 0.34861 0.42676
 C234 C 0.23031 0.31363 0.39801
 H235 H 0.13224 0.34070 0.25269
 H236 H 0.08968 0.39343 0.30023
 H237 H 0.20088 0.33432 0.46557
 H238 H 0.22275 0.38661 0.42191
 H239 H 0.23882 0.27903 0.42032
 H240 H 0.26061 0.33159 0.37699
 C241 C 0.62577 -0.19693 0.32694
 C242 C 0.67597 -0.18613 0.32369
 C243 C 0.69881 -0.15063 0.35406
 C244 C 0.67161 -0.12407 0.38274
 C245 C 0.62071 -0.13241 0.38208
 C246 C 0.59907 -0.17077 0.35564
 C247 C 0.55635 -0.16993 0.31889
 C248 C 0.58526 -0.19800 0.28711
 H249 H 0.73777 -0.14247 0.35452
 H250 H 0.69030 -0.09624 0.40446
 H251 H 0.54936 -0.13226 0.30261
 H252 H 0.52412 -0.19177 0.33304
 H253 H 0.59521 -0.17668 0.25234
 H254 H 0.56880 -0.23573 0.28256
 C255 C 0.62517 0.31356 -0.19389
 C256 C 0.67354 0.32793 -0.20337
 C257 C 0.69423 0.37105 -0.18297
 C258 C 0.66842 0.39651 -0.15210
 C259 C 0.62158 0.37875 -0.13893
 C260 C 0.59996 0.33835 -0.16260
 C261 C 0.57581 0.29193 -0.14071
 C262 C 0.60335 0.26479 -0.17467
 H263 H 0.73124 0.38430 -0.18952
 H264 H 0.68606 0.42925 -0.13747
 H265 H 0.53586 0.28964 -0.14990
 H266 H 0.58719 0.28411 -0.10095
 H267 H 0.57904 0.24672 -0.20312
 H268 H 0.63081 0.24120 -0.15472
 C269 C -0.17744 0.17263 -0.21921
 C270 C -0.19082 0.21409 -0.19843
 C271 C -0.16599 0.22604 -0.15349
 C272 C -0.13410 0.19353 -0.12748
 C273 C -0.12669 0.14807 -0.14558
 C274 C -0.14626 0.14040 -0.19345
 C275 C -0.17438 0.09661 -0.21268
 C276 C -0.20857 0.13190 -0.24080
 H277 H -0.17251 0.25949 -0.13743
 H278 H -0.11697 0.20322 -0.09229
 H279 H -0.19177 0.07249 -0.18317
 H280 H -0.15317 0.07748 -0.23723
 H281 H -0.24572 0.12834 -0.22744
 H282 H -0.20716 0.13295 -0.28150
 C283 C -0.16203 0.71733 0.36761
 C284 C -0.18557 0.70604 0.32240
 C285 C -0.17499 0.66212 0.30349
 C286 C -0.13896 0.63295 0.32761
 C287 C -0.11220 0.64731 0.37097
 C288 C -0.12628 0.68895 0.39107
 C289 C -0.09605 0.73300 0.40697
 C290 C -0.13535 0.76405 0.38130
 H291 H -0.19453 0.65014 0.27023
 H292 H -0.13238 0.59922 0.31217
 H293 H -0.06094 0.73843 0.38926
 H294 H -0.09308 0.73427 0.44772
 H295 H -0.12313 0.78758 0.34865
 H296 H -0.15508 0.78300 0.40727
 C297 C 0.33284 0.16517 0.28566
 C298 C 0.28808 0.17226 0.30363
 C299 C 0.27263 0.13972 0.34318
 C300 C 0.30474 0.10727 0.36874
 C301 C 0.35297 0.10676 0.35532
 C302 C 0.36464 0.13319 0.31097
 C303 C 0.40806 0.16677 0.29962
 C304 C 0.37323 0.20176 0.27193
 H305 H 0.23692 0.14141 0.35640
 H306 H 0.29273 0.08490 0.40079
 H307 H 0.43183 0.15077 0.27507
 H308 H 0.42715 0.18149 0.33319
 H309 H 0.37694 0.20589 0.23146
 H310 H 0.37204 0.23676 0.28941
 C311 C 0.34118 0.71183 -0.13089
 C312 C 0.31295 0.70020 -0.17332
 C313 C 0.32089 0.65475 -0.19140
 C314 C 0.35498 0.62312 -0.16629
 C315 C 0.38220 0.63614 -0.12246
 C316 C 0.37381 0.68171 -0.10691
 C317 C 0.38950 0.71703 -0.06920
 C318 C 0.35252 0.75105 -0.09644
 H319 H 0.29989 0.64286 -0.22392
 H320 H 0.35889 0.58806 -0.18046
 H321 H 0.42792 0.73149 -0.07188
 H322 H 0.37947 0.70338 -0.03154
 H323 H 0.36961 0.78505 -0.11490
 H324 H 0.32156 0.75645 -0.07429
 C325 C -0.15411 -0.18573 0.19255
 C326 C -0.20234 -0.17371 0.19442
 C327 C -0.21624 -0.13015 0.16714
 C328 C -0.18444 -0.10301 0.13548
 C329 C -0.13761 -0.11840 0.13049
 C330 C -0.12247 -0.15832 0.16200
 C331 C -0.09814 -0.20223 0.15055
 C332 C -0.13325 -0.23259 0.18303
 H333 H -0.25239 -0.11792 0.16872
 H334 H -0.19705 -0.07064 0.11414
 H335 H -0.05978 -0.20189 0.16620
 H336 H -0.10374 -0.20943 0.11094
 H337 H -0.11504 -0.25060 0.21692
 H338 H -0.15911 -0.25698 0.16147
 C339 C -0.16815 0.29997 0.65239
 C340 C -0.19904 0.32640 0.67744
 C341 C -0.18943 0.37812 0.67463
 C342 C -0.15488 0.40171 0.64393
 C343 C -0.12826 0.37470 0.61524
 C344 C -0.13346 0.32358 0.62248
 C345 C -0.14184 0.28700 0.58496
 C346 C -0.18003 0.26122 0.61697
 H347 H -0.20838 0.40139 0.69545
 H348 H -0.14982 0.44139 0.64179
 H349 H -0.10966 0.26533 0.58328
 H350 H -0.15721 0.30306 0.54873
 H351 H -0.16988 0.22432 0.63283
 H352 H -0.21755 0.26244 0.59929
 C353 C 0.33856 -0.20240 0.68381
 C354 C 0.29545 -0.18281 0.69393
 C355 C 0.28111 -0.14066 0.66444
 C356 C 0.31241 -0.11596 0.63065
 C357 C 0.35876 -0.13257 0.62635
 C358 C 0.36972 -0.17766 0.65116
 C359 C 0.41387 -0.19249 0.68230
 C360 C 0.37967 -0.21970 0.71809
 H361 H 0.24664 -0.12575 0.66870
 H362 H 0.30162 -0.08244 0.61004
 H363 H 0.43541 -0.16096 0.69805
 H364 H 0.43520 -0.21739 0.66376
 H365 H 0.38126 -0.20386 0.75441
 H366 H 0.38131 -0.26024 0.72010
 C367 C 0.33368 0.35852 0.21251
 C368 C 0.30714 0.31616 0.19808
 C369 C 0.31217 0.30258 0.15017
 C370 C 0.34611 0.32852 0.11986
 C371 C 0.37637 0.36835 0.13698
 C372 C 0.36750 0.38365 0.18301
 C373 C 0.40212 0.39344 0.22643
 C374 C 0.36492 0.36601 0.25870
 H375 H 0.29001 0.27197 0.13603
 H376 H 0.34855 0.31702 0.08326
 H377 H 0.40728 0.43318 0.23224
 H378 H 0.43627 0.37440 0.22637
 H379 H 0.34854 0.39000 0.28280
 H380 H 0.37746 0.33107 0.27751
 C381 C 0.20156 0.16392 0.15764
 C382 C 0.18073 0.20511 0.17172
 C383 C 0.13696 0.21869 0.14576
 C384 C 0.11147 0.18735 0.11307
 C385 C 0.12933 0.14194 0.10545
 C386 C 0.17646 0.13304 0.12517
 C387 C 0.19519 0.08820 0.15305
 C388 C 0.22265 0.12196 0.18863
 H389 H 0.12089 0.25201 0.15276
 H390 H 0.07649 0.19734 0.09604
 H391 H 0.21953 0.06947 0.13128
 H392 H 0.16594 0.06392 0.17007
 H393 H 0.26278 0.12258 0.18736
 H394 H 0.20938 0.11734 0.22633
 C395 C 0.14461 0.65473 0.72048
 C396 C 0.18690 0.68403 0.70959
 C397 C 0.21051 0.67320 0.66805
 C398 C 0.18922 0.63862 0.63601
 C399 C 0.14384 0.61362 0.64478
 C400 C 0.12430 0.62003 0.68941
 C401 C 0.07356 0.62879 0.69925
 C402 C 0.09532 0.66755 0.73243
 H403 H 0.24382 0.69353 0.65812
 H404 H 0.20732 0.63324 0.60331
 H405 H 0.05540 0.59663 0.71980
 H406 H 0.05224 0.64407 0.66589
 H407 H 0.08875 0.65820 0.77195
 H408 H 0.08634 0.70509 0.71742
 C409 C 0.67274 0.14908 0.69757
 C410 C 0.68767 0.19642 0.67905
 C411 C 0.68404 0.20728 0.62761
 C412 C 0.65977 0.17342 0.59653
 C413 C 0.63913 0.12801 0.61652
 C414 C 0.64935 0.11550 0.66698
 C415 C 0.61611 0.09532 0.70553
 C416 C 0.64175 0.13222 0.73901
 H417 H 0.69676 0.24310 0.61185
 H418 H 0.65496 0.18382 0.55733
 H419 H 0.62269 0.05664 0.71849
 H420 H 0.57744 0.10243 0.69495
 H421 H 0.66295 0.11471 0.77125
 H422 H 0.61790 0.16070 0.74785
 C423 C 0.66681 0.64225 0.22006
 C424 C 0.69376 0.68479 0.20307
 C425 C 0.70657 0.68804 0.15381
 C426 C 0.68592 0.65376 0.12108
 C427 C 0.65319 0.61476 0.13746
 C428 C 0.64783 0.60779 0.18827
 C429 C 0.60364 0.59578 0.21622
 C430 C 0.62419 0.63388 0.25102
 H431 H 0.72967 0.71892 0.13973
 H432 H 0.69366 0.65923 0.08261
 H433 H 0.60244 0.55768 0.23397
 H434 H 0.56971 0.60614 0.19442
 H435 H 0.63445 0.61771 0.28886
 H436 H 0.60128 0.66566 0.24911
   
