data_POSCAR
  _audit_creation_date              2014-09-24
  _audit_creation_method            'ToBaCCo'
  _symmetry_space_group_name_H-M    'P1'
  _symmetry_Int_Tables_number       1
  _symmetry_cell_setting            triclinic
  loop_
  _symmetry_equiv_pos_as_xyz
 x,y,z
_cell_length_a 44.2516
_cell_length_b 43.9690
_cell_length_c 45.0802
_cell_angle_alpha 92.383500
_cell_angle_beta 90.799900
_cell_angle_gamma 92.079300
loop_
  _atom_site_label
  _atom_site_type_symbol
  _atom_site_fract_x
  _atom_site_fract_y
  _atom_site_fract_z
C1 C 0.19557 1.23232 0.18792
 C2 C 0.18220 1.22271 0.21440
 C3 C 0.19153 1.19663 0.22878
 C4 C 0.21586 1.18073 0.21659
 C5 C 0.22980 1.18982 0.19047
 C6 C 0.21962 1.21549 0.17640
 H7 H 0.16567 1.23680 0.22500
 H8 H 0.22338 1.16028 0.22645
 H9 H 0.22935 1.22085 0.15530
 C10 C 0.80706 0.76396 0.19105
 C11 C 0.81867 0.77931 0.21715
 C12 C 0.80650 0.80652 0.22817
 C13 C 0.78180 0.81835 0.21328
 C14 C 0.76937 0.80345 0.18757
 C15 C 0.78188 0.77626 0.17684
 H16 H 0.83670 0.76975 0.22978
 H17 H 0.77307 0.83993 0.22098
 H18 H 0.77260 0.76570 0.15647
 C19 C 0.80103 1.22505 -0.19103
 C20 C 0.77510 1.21121 -0.17871
 C21 C 0.76189 1.18413 -0.19123
 C22 C 0.77433 1.17070 -0.21676
 C23 C 0.80002 1.18383 -0.23012
 C24 C 0.81294 1.21111 -0.21696
 H25 H 0.76460 1.22147 -0.15944
 H26 H 0.76287 1.15058 -0.22675
 H27 H 0.83414 1.21987 -0.22529
 C28 C 0.17429 0.77272 -0.20009
 C29 C 0.16106 0.78482 -0.22532
 C30 C 0.17395 0.81069 -0.23858
 C31 C 0.20092 0.82396 -0.22586
 C32 C 0.21427 0.81235 -0.20044
 C33 C 0.20089 0.78664 -0.18784
 H34 H 0.14134 0.77297 -0.23526
 H35 H 0.21115 0.84426 -0.23479
 H36 H 0.21058 0.77812 -0.16775
 C37 C 0.54655 1.03067 -0.00220
 H38 H 0.54753 1.03079 0.02180
 C39 C 0.56860 1.04676 -0.01762
 H40 H 0.58632 1.05963 -0.00532
 C41 C 0.52252 1.01316 -0.04736
 H42 H 0.50499 0.99941 -0.05889
 C43 C 0.54403 1.02908 -0.06368
 H44 H 0.54279 1.02743 -0.08770
 N45 N 0.52414 1.01425 -0.01717
 C46 C 0.45059 1.00193 0.04496
 H47 H 0.44811 0.97734 0.04399
 C48 C 0.43055 1.01923 0.06161
 H49 H 0.41289 1.00775 0.07377
 C50 C 0.47648 1.04670 0.02989
 H51 H 0.49398 1.05732 0.01697
 C52 C 0.45702 1.06488 0.04639
 H53 H 0.45977 1.08943 0.04598
 Zn54 Zn 0.49731 0.99057 0.00560
 N55 N 0.47298 1.01581 0.02954
 C56 C 0.51960 0.96723 0.05944
 N57 N 0.52147 0.96626 0.02932
 C58 C 0.54239 0.94938 0.01507
 C59 C 0.56263 0.93264 0.03118
 C60 C 0.53934 0.95069 0.07644
 C61 C 0.45051 0.98021 -0.03616
 C62 C 0.42946 0.96334 -0.05405
 C63 C 0.45052 0.91719 -0.03683
 C64 C 0.47121 0.93496 -0.01927
 N65 N 0.47093 0.96588 -0.01937
 H66 H 0.50327 0.98131 0.07039
 H67 H 0.54360 0.94933 -0.00889
 H68 H 0.57916 0.91937 0.01941
 H69 H 0.53798 0.95220 0.10042
 H70 H 0.45042 1.00483 -0.03537
 H71 H 0.41307 0.97521 -0.06686
 H72 H 0.45123 0.89261 -0.03664
 H73 H 0.48723 0.92399 -0.00536
 C74 C 0.43353 1.05115 0.06233
 C75 C 0.56764 1.04590 -0.04879
 C76 C 0.42921 0.93137 -0.05447
 C77 C 0.56143 0.93337 0.06230
 C78 C 0.00330 0.54913 1.04348
 H79 H 0.02774 0.54992 1.04283
 C80 C -0.01166 0.57102 1.06042
 H81 H 0.00153 0.58834 1.07315
 C82 C -0.04342 0.52542 1.02758
 H83 H -0.05573 0.50799 1.01426
 C84 C -0.05932 0.54691 1.04420
 H85 H -0.08380 0.54575 1.04346
 N86 N -0.01266 0.52681 1.02767
 C87 C 0.05109 0.45426 1.01493
 H88 H 0.05062 0.45152 0.99096
 C89 C 0.06802 0.43487 1.03178
 H90 H 0.08046 0.41713 1.02059
 C91 C 0.03399 0.47969 1.05858
 H92 H 0.02019 0.49671 1.06899
 C93 C 0.05054 0.46076 1.07629
 H94 H 0.04978 0.46391 1.10021
 Zn95 Zn 0.00973 0.49928 1.00417
 N96 N 0.03455 0.47614 1.02848
 C97 C 0.06397 0.52252 0.97865
 N98 N 0.03325 0.52292 0.97833
 C99 C 0.01821 0.54205 0.96092
 C100 C 0.03410 0.56180 0.94280
 C101 C 0.08079 0.54193 0.96086
 C102 C -0.03344 0.45171 0.99855
 C103 C -0.05213 0.42928 0.98425
 C104 C -0.03546 0.44734 0.93708
 C105 C -0.01704 0.46946 0.95232
 N106 N -0.01646 0.47128 0.98252
 H107 H 0.07554 0.50761 0.99309
 H108 H -0.00621 0.54232 0.96157
 H109 H 0.02168 0.57734 0.92965
 H110 H 0.10522 0.54126 0.96136
 H111 H -0.03225 0.45345 1.02256
 H112 H -0.06564 0.41409 0.99746
 H113 H -0.03523 0.44585 0.91305
 H114 H -0.00283 0.48474 0.93998
 C115 C 0.06764 0.43779 1.06292
 C116 C -0.04341 0.57017 1.06084
 C117 C -0.05318 0.42674 0.95309
 C118 C 0.06585 0.56207 0.94275
 C119 C 1.04464 0.00513 0.54561
 H120 H 1.04401 0.02964 0.54857
 C121 C 1.06139 -0.01145 0.56536
 H122 H 1.07337 0.00056 0.58366
 C123 C 1.02841 -0.04022 0.51890
 H124 H 1.01516 -0.05140 0.50106
 C125 C 1.04503 -0.05768 0.53801
 H126 H 1.04484 -0.08215 0.53416
 N127 N 1.02863 -0.00938 0.52293
 C128 C 1.01602 0.05789 0.45617
 H129 H 0.99157 0.05761 0.45497
 C130 C 1.03293 0.07529 0.43675
 H131 H 1.02129 0.08882 0.42099
 C132 C 1.06073 0.04003 0.47795
 H133 H 1.07142 0.02562 0.49352
 C134 C 1.07856 0.05708 0.45887
 H135 H 1.10291 0.05558 0.45998
 Zn136 Zn 1.00501 0.01483 0.49857
 N137 N 1.03004 0.04064 0.47615
 C138 C 0.98215 0.06888 0.52506
 N139 N 0.97996 0.03791 0.52387
 C140 C 0.96127 0.02254 0.54220
 C141 C 0.94358 0.03837 0.56259
 C142 C 0.96496 0.08562 0.54521
 C143 C 0.99742 -0.02526 0.44962
 C144 C 0.98218 -0.04250 0.42706
 C145 C 0.93478 -0.02789 0.44837
 C146 C 0.95098 -0.01080 0.47054
 N147 N 0.98175 -0.00990 0.47080
 H148 H 0.99762 0.08069 0.51080
 H149 H 0.96047 -0.00210 0.54122
 H150 H 0.92922 0.02572 0.57734
 H151 H 0.96695 0.11025 0.54580
 H152 H 1.02189 -0.02380 0.45013
 H153 H 0.99512 -0.05468 0.41050
 H154 H 0.91031 -0.02797 0.44816
 H155 H 0.93892 0.00218 0.48711
 C156 C 1.06465 0.07469 0.43763
 C157 C 1.06169 -0.04335 0.56177
 C158 C 0.95044 -0.04381 0.42611
 C159 C 0.94545 0.07035 0.56441
 C160 C 0.20307 0.27457 1.15374
 C161 C 0.19175 0.29883 1.13843
 C162 C 0.16176 0.30728 1.14193
 C163 C 0.14306 0.29064 1.16081
 C164 C 0.15425 0.26637 1.17610
 C165 C 0.18453 0.25766 1.17291
 C166 C 0.15024 0.33231 1.12435
 C167 C 0.12698 0.34915 1.13303
 C168 C 0.11327 0.37277 1.11501
 C169 C 0.08480 0.38311 1.12324
 C170 C 0.07022 0.40445 1.10659
 C171 C 0.08384 0.41614 1.08130
 C172 C 0.11262 0.40637 1.07335
 C173 C 0.12728 0.38502 1.09005
 H174 H 0.22672 0.26992 1.15103
 H175 H 0.20662 0.31125 1.12393
 H176 H 0.11940 0.29551 1.16308
 H177 H 0.13832 0.25355 1.18912
 H178 H 0.16143 0.33652 1.10370
 H179 H 0.11665 0.34498 1.15417
 H180 H 0.07348 0.37419 1.14236
 H181 H 0.04791 0.41122 1.11312
 H182 H 0.12391 0.41541 1.05428
 H183 H 0.14953 0.37853 1.08329
 C184 C -0.19518 0.71590 1.16027
 C185 C -0.18079 0.69121 1.14686
 C186 C -0.14975 0.68764 1.15116
 C187 C -0.13357 0.70845 1.17041
 C188 C -0.14785 0.73308 1.18393
 C189 C -0.17892 0.73773 1.17878
 C190 C -0.13498 0.66206 1.13537
 C191 C -0.10576 0.66349 1.12779
 C192 C -0.09071 0.63899 1.11066
 C193 C -0.06440 0.64660 1.09519
 C194 C -0.04918 0.62434 1.07896
 C195 C -0.05977 0.59379 1.07805
 C196 C -0.08598 0.58605 1.09376
 C197 C -0.10127 0.60837 1.10998
 H198 H -0.21928 0.71715 1.15655
 H199 H -0.19394 0.67507 1.13266
 H200 H -0.10976 0.70591 1.17505
 H201 H -0.13376 0.74918 1.19716
 H202 H -0.14920 0.64258 1.12802
 H203 H -0.09249 0.68431 1.13270
 H204 H -0.05571 0.66997 1.09542
 H205 H -0.02930 0.63115 1.06680
 H206 H -0.09437 0.56262 1.09396
 H207 H -0.12090 0.60139 1.12237
 C208 C -0.16667 0.27201 0.80641
 C209 C -0.15141 0.29722 0.82034
 C210 C -0.15318 0.30276 0.85107
 C211 C -0.17167 0.28325 0.86750
 C212 C -0.18697 0.25806 0.85368
 C213 C -0.18451 0.25155 0.82284
 C214 C -0.13570 0.32910 0.86514
 C215 C -0.12639 0.32997 0.89364
 C216 C -0.10772 0.35534 0.90795
 C217 C -0.09146 0.34973 0.93398
 C218 C -0.07375 0.37284 0.94853
 C219 C -0.07204 0.40226 0.93749
 C220 C -0.08849 0.40802 0.91154
 C221 C -0.10626 0.38487 0.89697
 H222 H -0.16498 0.26931 0.78254
 H223 H -0.13785 0.31230 0.80702
 H224 H -0.17444 0.28727 0.89113
 H225 H -0.19950 0.24307 0.86785
 H226 H -0.12869 0.34721 0.85093
 H227 H -0.13109 0.31044 0.90690
 H228 H -0.09225 0.32727 0.94301
 H229 H -0.06106 0.36755 0.96824
 H230 H -0.08805 0.43061 0.90281
 H231 H -0.11918 0.39044 0.87753
 C232 C 0.12834 0.74343 0.81669
 C233 C 0.11479 0.71851 0.83023
 C234 C 0.13244 0.69563 0.84152
 C235 C 0.16403 0.69779 0.83826
 C236 C 0.17759 0.72274 0.82467
 C237 C 0.15991 0.74591 0.81387
 C238 C 0.11696 0.66985 0.85604
 C239 C 0.13044 0.65289 0.87608
 C240 C 0.11414 0.62860 0.89202
 C241 C 0.12491 0.62109 0.92011
 C242 C 0.10955 0.59918 0.93638
 C243 C 0.08316 0.58408 0.92478
 C244 C 0.07294 0.59086 0.89622
 C245 C 0.08828 0.61279 0.87996
 H246 H 0.11410 0.76105 0.80887
 H247 H 0.09042 0.71733 0.83229
 H248 H 0.17835 0.68013 0.84572
 H249 H 0.20191 0.72370 0.82227
 H250 H 0.09299 0.66625 0.85147
 H251 H 0.15363 0.65833 0.88284
 H252 H 0.14490 0.63274 0.92981
 H253 H 0.11788 0.59469 0.95841
 H254 H 0.05309 0.57909 0.88638
 H255 H 0.07994 0.61707 0.85791
 C256 C 1.14534 0.19231 0.25866
 C257 C 1.12959 0.18046 0.28245
 C258 C 1.14391 0.16230 0.30278
 C259 C 1.17464 0.15638 0.29895
 C260 C 1.19049 0.16816 0.27510
 C261 C 1.17612 0.18612 0.25416
 C262 C 1.12541 0.14838 0.32620
 C263 C 1.13687 0.13699 0.35094
 C264 C 1.11773 0.12159 0.37297
 C265 C 1.12790 0.12100 0.40257
 C266 C 1.11064 0.10606 0.42370
 C267 C 1.08292 0.09116 0.41556
 C268 C 1.07298 0.09141 0.38583
 C269 C 1.09018 0.10634 0.36477
 H270 H 1.13252 0.20483 0.24297
 H271 H 1.10581 0.18505 0.28462
 H272 H 1.18647 0.14206 0.31381
 H273 H 1.21426 0.16348 0.27371
 H274 H 1.10111 0.14812 0.32298
 H275 H 1.16083 0.13971 0.35589
 H276 H 1.14919 0.13230 0.40939
 H277 H 1.11886 0.10637 0.44645
 H278 H 1.05219 0.07941 0.37865
 H279 H 1.08215 0.10516 0.34196
 C280 C 1.12823 -0.17964 0.73173
 C281 C 1.11423 -0.16590 0.70805
 C282 C 1.13114 -0.14869 0.68824
 C283 C 1.16274 -0.14633 0.69212
 C284 C 1.17681 -0.15982 0.71595
 C285 C 1.15984 -0.17654 0.73650
 C286 C 1.11482 -0.13387 0.66402
 C287 C 1.12678 -0.11116 0.64836
 C288 C 1.10984 -0.09500 0.62545
 C289 C 1.12191 -0.06705 0.61618
 C290 C 1.10655 -0.05050 0.59530
 C291 C 1.07866 -0.06151 0.58311
 C292 C 1.06686 -0.08982 0.59186
 C293 C 1.08232 -0.10649 0.61260
 H294 H 1.11374 -0.19131 0.74705
 H295 H 1.08985 -0.16824 0.70560
 H296 H 1.17695 -0.13451 0.67670
 H297 H 1.20122 -0.15793 0.71739
 H298 H 1.09139 -0.14099 0.66041
 H299 H 1.14951 -0.10253 0.65352
 H300 H 1.14322 -0.05778 0.62535
 H301 H 1.11663 -0.02910 0.58861
 H302 H 1.04535 -0.09894 0.58309
 H303 H 1.07250 -0.12831 0.61822
 C304 C 0.80259 -0.16241 0.27606
 C305 C 0.81604 -0.14608 0.30039
 C306 C 0.84764 -0.14348 0.30359
 C307 C 0.86556 -0.15843 0.28237
 C308 C 0.85214 -0.17467 0.25807
 C309 C 0.82052 -0.17675 0.25452
 C310 C 0.86111 -0.12563 0.32947
 C311 C 0.88910 -0.11279 0.32932
 C312 C 0.90340 -0.09475 0.35467
 C313 C 0.92925 -0.07651 0.34923
 C314 C 0.94430 -0.05985 0.37234
 C315 C 0.93392 -0.06111 0.40158
 C316 C 0.90796 -0.07923 0.40714
 C317 C 0.89292 -0.09603 0.38399
 H318 H 0.77816 -0.16399 0.27421
 H319 H 0.80171 -0.13515 0.31661
 H320 H 0.88994 -0.15798 0.28451
 H321 H 0.86662 -0.18528 0.24179
 H322 H 0.84683 -0.12184 0.34844
 H323 H 0.90208 -0.11445 0.30919
 H324 H 0.93790 -0.07513 0.32694
 H325 H 0.96399 -0.04578 0.36728
 H326 H 0.89972 -0.08097 0.42954
 H327 H 0.87363 -0.11042 0.38939
 C328 C 0.80992 0.13776 0.73869
 C329 C 0.82358 0.12374 0.71422
 C330 C 0.84088 0.14085 0.69466
 C331 C 0.84346 0.17262 0.69957
 C332 C 0.82995 0.18672 0.72411
 C333 C 0.81308 0.16959 0.74443
 C334 C 0.85548 0.12466 0.66942
 C335 C 0.87943 0.13616 0.65510
 C336 C 0.89531 0.11919 0.63119
 C337 C 0.92516 0.12834 0.62482
 C338 C 0.94131 0.11271 0.60298
 C339 C 0.92789 0.08759 0.58687
 C340 C 0.89780 0.07879 0.59272
 C341 C 0.88158 0.09450 0.61451
 H342 H 0.79819 0.12310 0.75377
 H343 H 0.82112 0.09922 0.71095
 H344 H 0.85543 0.18688 0.68430
 H345 H 0.83194 0.21131 0.72631
 H346 H 0.84728 0.10162 0.66395
 H347 H 0.88930 0.15813 0.66235
 H348 H 0.93623 0.14738 0.63715
 H349 H 0.96455 0.11988 0.59917
 H350 H 0.88668 0.05992 0.58021
 H351 H 0.85829 0.08737 0.61785
 C352 C 0.25112 1.13940 0.17548
 C353 C 0.27319 1.12205 0.16178
 C354 C 0.29856 1.13612 0.14902
 C355 C 0.30129 1.16818 0.15022
 C356 C 0.27923 1.18555 0.16405
 C357 C 0.25385 1.17137 0.17676
 C358 C 0.32057 1.11647 0.13363
 C359 C 0.34843 1.12592 0.12584
 C360 C 0.36974 1.10601 0.10978
 C361 C 0.40077 1.11400 0.11092
 C362 C 0.42153 1.09619 0.09567
 C363 C 0.41168 1.06998 0.07885
 C364 C 0.38063 1.06212 0.07744
 C365 C 0.35986 1.07999 0.09254
 H366 H 0.23154 1.12776 0.18448
 H367 H 0.27026 1.09745 0.16091
 H368 H 0.31996 1.18012 0.14004
 H369 H 0.28199 1.21015 0.16474
 H370 H 0.31353 1.09285 0.12940
 H371 H 0.35667 1.14873 0.13225
 H372 H 0.40899 1.13405 0.12378
 H373 H 0.44535 1.10274 0.09726
 H374 H 0.37230 1.04248 0.06406
 H375 H 0.33612 1.07362 0.09000
 C376 C 0.71104 1.18661 -0.16733
 C377 C 0.68663 1.17272 -0.15310
 C378 C 0.68629 1.14145 -0.14796
 C379 C 0.71033 1.12405 -0.15838
 C380 C 0.73461 1.13790 -0.17278
 C381 C 0.73538 1.16937 -0.17711
 C382 C 0.66050 1.12762 -0.13205
 C383 C 0.66337 1.10345 -0.11517
 C384 C 0.63820 1.08979 -0.09827
 C385 C 0.64517 1.07344 -0.07315
 C386 C 0.62224 1.05958 -0.05691
 C387 C 0.59180 1.06144 -0.06566
 C388 C 0.58477 1.07756 -0.09098
 C389 C 0.60772 1.09163 -0.10714
 H390 H 0.71085 1.21083 -0.17079
 H391 H 0.66820 1.18652 -0.14562
 H392 H 0.71037 1.09972 -0.15566
 H393 H 0.75308 1.12407 -0.18008
 H394 H 0.63921 1.13895 -0.13277
 H395 H 0.68549 1.09417 -0.11214
 H396 H 0.66847 1.07140 -0.06605
 H397 H 0.62839 1.04687 -0.03780
 H398 H 0.56149 1.07936 -0.09822
 H399 H 0.60151 1.10333 -0.12684
 C400 C 0.24361 0.85986 -0.18314
 C401 C 0.26882 0.87453 -0.16920
 C402 C 0.29230 0.85769 -0.15774
 C403 C 0.29044 0.82570 -0.16125
 C404 C 0.26521 0.81100 -0.17526
 C405 C 0.24145 0.82791 -0.18624
 C406 C 0.31833 0.87439 -0.14273
 C407 C 0.33620 0.86215 -0.12248
 C408 C 0.36082 0.87973 -0.10608
 C409 C 0.36977 0.87038 -0.07800
 C410 C 0.39217 0.88691 -0.06138
 C411 C 0.40633 0.91305 -0.07263
 C412 C 0.39801 0.92190 -0.10112
 C413 C 0.37560 0.90539 -0.11773
 H414 H 0.22552 0.87353 -0.19099
 H415 H 0.26973 0.89918 -0.16693
 H416 H 0.30852 0.81193 -0.15364
 H417 H 0.26441 0.78638 -0.17781
 H418 H 0.32139 0.89830 -0.14713
 H419 H 0.33138 0.83909 -0.11592
 H420 H 0.35892 0.85058 -0.06860
 H421 H 0.39788 0.87962 -0.03942
 H422 H 0.40901 0.94151 -0.11068
 H423 H 0.37019 0.91265 -0.13975
 C424 C 0.74492 0.81766 0.13978
 C425 C 0.72212 0.83151 0.12411
 C426 C 0.69827 0.84534 0.13908
 C427 C 0.69781 0.84504 0.17032
 C428 C 0.72061 0.83105 0.18600
 C429 C 0.74448 0.81728 0.17092
 C430 C 0.67547 0.86086 0.12121
 C431 C 0.64877 0.86997 0.13146
 C432 C 0.62681 0.88612 0.11316
 C433 C 0.59627 0.88569 0.12126
 C434 C 0.57497 0.90093 0.10478
 C435 C 0.58381 0.91702 0.07986
 C436 C 0.61442 0.91784 0.07200
 C437 C 0.63572 0.90276 0.08852
 H438 H 0.76332 0.80788 0.12750
 H439 H 0.72330 0.83166 0.10013
 H440 H 0.68039 0.85602 0.18292
 H441 H 0.71961 0.83107 0.20999
 H442 H 0.68084 0.86407 0.09819
 H443 H 0.64195 0.86456 0.15361
 H444 H 0.58883 0.87333 0.14030
 H445 H 0.55151 0.89984 0.11132
 H446 H 0.62203 0.93072 0.05337
 H447 H 0.65915 0.90484 0.08220
   
