data_POSCAR
  _audit_creation_date              2014-09-24
  _audit_creation_method            'ToBaCCo'
  _symmetry_space_group_name_H-M    'P1'
  _symmetry_Int_Tables_number       1
  _symmetry_cell_setting            triclinic
  loop_
  _symmetry_equiv_pos_as_xyz
 x,y,z
_cell_length_a 42.3283
_cell_length_b 42.4494
_cell_length_c 14.3999
_cell_angle_alpha 89.951500
_cell_angle_beta 89.995100
_cell_angle_gamma 120.177700
loop_
  _atom_site_label
  _atom_site_type_symbol
  _atom_site_fract_x
  _atom_site_fract_y
  _atom_site_fract_z
C1 C 0.31353 0.48804 0.41742
 C2 C 0.33042 0.48916 0.50186
 C3 C 0.31435 0.48813 0.58809
 C4 C 0.27839 0.48317 0.58896
 C5 C 0.26071 0.48190 0.50379
 C6 C 0.27836 0.48438 0.41790
 C7 C 0.25983 0.48204 0.33490
 C8 C 0.22580 0.47942 0.33563
 C9 C 0.20739 0.47623 0.41931
 C10 C 0.22477 0.47712 0.50436
 C11 C 0.25854 0.47723 0.67179
 C12 C 0.22458 0.47467 0.67264
 C13 C 0.20633 0.47321 0.58986
 C14 C 0.17092 0.46946 0.59001
 C15 C 0.15556 0.47113 0.50507
 C16 C 0.17225 0.47262 0.42017
 H17 H 0.27113 0.48192 0.26782
 H18 H 0.21422 0.48003 0.26925
 H19 H 0.26827 0.47354 0.73771
 H20 H 0.21326 0.47426 0.74001
 H21 H 0.35787 0.49341 0.49962
 H22 H 0.12825 0.46733 0.50402
 C23 C 0.52194 -0.30242 0.41547
 C24 C 0.52285 -0.31794 0.50125
 C25 C 0.52362 -0.30166 0.58647
 C26 C 0.52369 -0.26831 0.58690
 C27 C 0.52042 -0.25320 0.50225
 C28 C 0.52217 -0.26869 0.41634
 C29 C 0.52762 -0.24792 0.33540
 C30 C 0.52401 -0.21712 0.33637
 C31 C 0.51581 -0.20510 0.41885
 C32 C 0.51691 -0.22152 0.50356
 C33 C 0.52955 -0.24817 0.66876
 C34 C 0.52634 -0.21719 0.66979
 C35 C 0.51621 -0.20547 0.58955
 C36 C 0.50909 -0.17604 0.59084
 C37 C 0.50583 -0.16183 0.50546
 C38 C 0.50929 -0.17550 0.42004
 H39 H 0.53621 -0.25421 0.27088
 H40 H 0.52903 -0.20220 0.27210
 H41 H 0.53788 -0.25540 0.73245
 H42 H 0.53342 -0.20185 0.73366
 H43 H 0.52094 -0.34432 0.50263
 H44 H 0.49886 -0.14056 0.50470
 C45 C 1.17342 0.68550 0.41679
 C46 C 1.16148 0.66612 0.50073
 C47 C 1.17762 0.68199 0.58628
 C48 C 1.21072 0.71616 0.58503
 C49 C 1.22237 0.73678 0.50180
 C50 C 1.20230 0.72226 0.41883
 C51 C 1.21075 0.74557 0.34202
 C52 C 1.24154 0.78027 0.34222
 C53 C 1.26567 0.79279 0.41829
 C54 C 1.25400 0.77222 0.50172
 C55 C 1.23364 0.72946 0.66318
 C56 C 1.26418 0.76425 0.66361
 C57 C 1.27350 0.78705 0.58532
 C58 C 1.30319 0.82341 0.58672
 C59 C 1.31706 0.84127 0.50144
 C60 C 1.29972 0.82623 0.41601
 H61 H 1.19311 0.73771 0.28192
 H62 H 1.24548 0.79752 0.28302
 H63 H 1.22859 0.71276 0.72435
 H64 H 1.28103 0.77269 0.72529
 H65 H 1.13802 0.63893 0.49932
 H66 H 1.34140 0.86775 0.50220
 C67 C 0.70012 0.52693 0.58832
 C68 C 0.68261 0.52381 0.50319
 C69 C 0.69873 0.52381 0.41817
 C70 C 0.73324 0.52596 0.41807
 C71 C 0.74900 0.52397 0.50319
 C72 C 0.73263 0.52477 0.58855
 C73 C 0.74863 0.52210 0.67145
 C74 C 0.78080 0.52095 0.67108
 C75 C 0.79662 0.51819 0.58779
 C76 C 0.78138 0.52143 0.50274
 C77 C 0.75322 0.53156 0.33585
 C78 C 0.78559 0.53066 0.33567
 C79 C 0.79886 0.52313 0.41720
 C80 C 0.83011 0.51910 0.41618
 C81 C 0.84461 0.51574 0.50055
 C82 C 0.82837 0.51457 0.58664
 H83 H 0.73633 0.52023 0.73839
 H84 H 0.79322 0.52316 0.73782
 H85 H 0.74468 0.53775 0.27099
 H86 H 0.80034 0.53663 0.27083
 H87 H 0.65689 0.52350 0.50228
 H88 H 0.86776 0.51148 0.49832
 C89 C 0.47969 0.17663 0.58791
 C90 C 0.48047 0.16120 0.50196
 C91 C 0.48319 0.17866 0.41736
 C92 C 0.48786 0.21406 0.41785
 C93 C 0.48445 0.22915 0.50239
 C94 C 0.47839 0.20958 0.58686
 C95 C 0.46810 0.22212 0.66531
 C96 C 0.46996 0.25579 0.66524
 C97 C 0.48117 0.27802 0.58583
 C98 C 0.48591 0.26340 0.50195
 C99 C 0.49608 0.23490 0.33616
 C100 C 0.49769 0.26844 0.33589
 C101 C 0.49105 0.28244 0.41723
 C102 C 0.48980 0.31515 0.41641
 C103 C 0.48899 0.33097 0.50104
 C104 C 0.48556 0.31343 0.58619
 H105 H 0.45698 0.20544 0.72664
 H106 H 0.46105 0.26347 0.72717
 H107 H 0.50179 0.22566 0.27168
 H108 H 0.50464 0.28351 0.27132
 H109 H 0.47917 0.13514 0.49974
 H110 H 0.49012 0.35700 0.50029
 C111 C 0.81754 0.30563 0.58801
 C112 C 0.83268 0.32293 0.50293
 C113 C 0.81675 0.30703 0.41753
 C114 C 0.78456 0.27231 0.41639
 C115 C 0.76726 0.25566 0.50137
 C116 C 0.78282 0.27315 0.58699
 C117 C 0.76209 0.25875 0.66851
 C118 C 0.72977 0.22536 0.66812
 C119 C 0.71652 0.20516 0.58590
 C120 C 0.73442 0.22119 0.50099
 C121 C 0.76940 0.25348 0.33301
 C122 C 0.73723 0.21992 0.33262
 C123 C 0.71966 0.20280 0.41587
 C124 C 0.68752 0.16803 0.41657
 C125 C 0.67072 0.15243 0.50126
 C126 C 0.68512 0.16996 0.58587
 H127 H 0.77020 0.27357 0.73335
 H128 H 0.71502 0.21583 0.73292
 H129 H 0.78239 0.26401 0.26675
 H130 H 0.72631 0.20777 0.26580
 H131 H 0.85835 0.34844 0.50210
 H132 H 0.64713 0.12515 0.50154
 N133 N 1.03664 0.47348 -0.16084
 N134 N 1.06277 0.47964 -0.22071
 N135 N 0.95813 0.41584 -0.09636
 N136 N 0.93017 0.38268 -0.10863
 N137 N 0.95986 0.43758 -0.16359
 N138 N 0.93297 0.41976 -0.22344
 N139 N 1.03481 0.45112 -0.09517
 N140 N 1.05973 0.44159 -0.10826
 C141 C 1.07701 0.45972 -0.18648
 C142 C 0.91469 0.38559 -0.18789
 N143 N 0.95983 0.44011 0.16881
 N144 N 0.93174 0.42419 0.22597
 N145 N 1.03461 0.45259 0.10399
 N146 N 1.06025 0.44414 0.11789
 N147 N 1.03656 0.47596 0.16668
 N148 N 1.06357 0.48392 0.22536
 N149 N 0.95760 0.41733 0.10400
 N150 N 0.92763 0.38531 0.11474
 Mn151 Mn 0.99616 0.43380 0.00423
 C152 C 0.91207 0.39011 0.19150
 C153 C 1.07814 0.46393 0.19348
 N154 N 0.96292 0.50672 -0.16864
 N155 N 0.93542 0.49666 -0.22679
 N156 N 1.03936 0.56535 -0.10224
 N157 N 1.06702 0.59865 -0.11430
 N158 N 1.03959 0.54325 -0.16564
 N159 N 1.06729 0.56116 -0.22359
 N160 N 0.96221 0.52801 -0.10356
 N161 N 0.93381 0.53261 -0.11492
 Mn162 Mn 0.99991 0.49033 -0.16582
 C163 C 0.91765 0.51308 -0.19244
 C164 C 1.08420 0.59568 -0.18997
 N165 N 1.03885 0.54534 0.16299
 N166 N 1.06566 0.56364 0.22248
 N167 N 0.96213 0.52957 0.09687
 N168 N 0.93477 0.53584 0.10754
 N169 N 0.96256 0.50910 0.16470
 N170 N 0.93591 0.50133 0.22421
 N171 N 1.03947 0.56679 0.09639
 N172 N 1.06741 0.60015 0.10729
 Mn173 Mn 0.99960 0.49267 0.16682
 Mn174 Mn 1.00067 0.54777 -0.00322
 Cl175 Cl 0.99913 0.49117 0.00046
 C176 C 1.08331 0.59765 0.18630
 C177 C 0.91888 0.51816 0.18746
 N178 N 0.49285 0.45458 -0.16227
 N179 N 0.50190 0.43642 -0.22046
 N180 N 0.43289 0.47230 -0.09996
 N181 N 0.40016 0.46844 -0.11155
 N182 N 0.45529 0.49309 -0.16549
 N183 N 0.43833 0.50339 -0.22437
 N184 N 0.47044 0.43278 -0.09811
 N185 N 0.46434 0.39930 -0.10954
 C186 C 0.48401 0.40209 -0.18630
 C187 C 0.40406 0.48780 -0.18973
 N188 N 0.45321 0.49171 0.16758
 N189 N 0.43554 0.50136 0.22582
 N190 N 0.46897 0.43193 0.10097
 N191 N 0.46200 0.39819 0.11231
 N192 N 0.49118 0.45323 0.16595
 N193 N 0.49978 0.43450 0.22367
 N194 N 0.43150 0.47131 0.10064
 N195 N 0.39845 0.46682 0.11104
 Mn196 Mn 0.45046 0.45172 0.00081
 C197 C 0.40151 0.48561 0.18969
 C198 C 0.48145 0.40025 0.18888
 N199 N 0.52354 0.56087 -0.16260
 N200 N 0.51434 0.57858 -0.22187
 N201 N 0.58296 0.54507 -0.09398
 N202 N 0.61726 0.55404 -0.10811
 N203 N 0.56177 0.52286 -0.15913
 N204 N 0.58118 0.51632 -0.21984
 N205 N 0.54374 0.58250 -0.09533
 N206 N 0.54841 0.61549 -0.10628
 Mn207 Mn 0.50843 0.50776 -0.16336
 C208 C 0.53010 0.61252 -0.18585
 C209 C 0.61569 0.53577 -0.18639
 N210 N 0.55953 0.52148 0.16911
 N211 N 0.57704 0.51112 0.22592
 N212 N 0.54243 0.58158 0.10498
 N213 N 0.54637 0.61429 0.11544
 N214 N 0.52137 0.55944 0.17050
 N215 N 0.51094 0.57657 0.22833
 N216 N 0.58170 0.54372 0.10525
 N217 N 0.61486 0.54854 0.11582
 Mn218 Mn 0.50638 0.50640 0.16928
 Mn219 Mn 0.56306 0.56368 0.00536
 Cl220 Cl 0.50709 0.50738 0.00297
 C221 C 0.61143 0.52822 0.19169
 C222 C 0.52677 0.61066 0.19302
 N223 N 0.41655 -0.03665 0.10169
 N224 N 0.38308 -0.06454 0.11225
 N225 N 0.47967 0.04034 0.16312
 N226 N 0.48924 0.06773 0.22130
 N227 N 0.45759 0.04026 0.09892
 N228 N 0.45174 0.06770 0.11121
 N229 N 0.43797 -0.03602 0.16859
 N230 N 0.41952 -0.06304 0.22747
 C231 C 0.38540 -0.08046 0.19143
 C232 C 0.47175 0.08464 0.18745
 N233 N 0.56663 0.03374 0.09916
 N234 N 0.60133 0.05815 0.11262
 N235 N 0.50403 -0.03999 0.16872
 N236 N 0.49357 -0.06696 0.22876
 N237 N 0.52369 -0.04279 0.10215
 N238 N 0.52665 -0.07202 0.11405
 N239 N 0.54602 0.03646 0.16312
 N240 N 0.56621 0.06285 0.22208
 Mn241 Mn 0.49199 0.00035 0.16704
 C242 C 0.60059 0.07623 0.18904
 C243 C 0.50780 -0.08667 0.19330
 N244 N 0.45758 0.03953 -0.10009
 N245 N 0.45417 0.06858 -0.11076
 N246 N 0.43740 -0.03809 -0.16437
 N247 N 0.41873 -0.06534 -0.22221
 N248 N 0.41608 -0.03755 -0.09891
 N249 N 0.38224 -0.06470 -0.11015
 N250 N 0.47848 0.03813 -0.16543
 N251 N 0.48909 0.06561 -0.22383
 Mn252 Mn 0.43648 0.00130 0.00039
 C253 C 0.47377 0.08433 -0.18848
 C254 C 0.38442 -0.08169 -0.18744
 N255 N 0.52314 -0.04390 -0.09702
 N256 N 0.52585 -0.07338 -0.10648
 N257 N 0.54504 0.03466 -0.16414
 N258 N 0.56447 0.06182 -0.22196
 N259 N 0.56605 0.03284 -0.09980
 N260 N 0.60030 0.05884 -0.11161
 N261 N 0.50330 -0.04172 -0.16400
 N262 N 0.49250 -0.06929 -0.22203
 Mn263 Mn 0.54517 -0.00515 0.00107
 Mn264 Mn 0.49113 -0.00163 -0.16557
 Cl265 Cl 0.49118 -0.00125 0.00081
 C266 C 0.50662 -0.08879 -0.18475
 C267 C 0.59885 0.07665 -0.18791
 N268 N 1.12011 0.43937 0.20988
 N269 N 1.14510 0.44180 0.26892
 C270 C 1.15029 0.46656 0.33467
 C271 C 1.12695 0.47999 0.31730
 C272 C 1.10840 0.46205 0.23758
 H273 H 1.12279 0.49876 0.35921
 H274 H 1.11023 0.42132 0.15389
 H275 H 1.15680 0.42523 0.26669
 N276 N 0.50612 0.65592 0.18932
 N277 N 0.50372 0.67952 0.25254
 C278 C 0.51949 0.67808 0.33301
 C279 C 0.53059 0.65236 0.32316
 C280 C 0.52220 0.63975 0.23304
 H281 H 0.54372 0.64401 0.37415
 H282 H 0.49510 0.65039 0.12243
 H283 H 0.48808 0.69188 0.24109
 N284 N 0.33488 -0.14467 0.18410
 N285 N 0.31166 -0.17111 0.24745
 C286 C 0.31722 -0.15534 0.33219
 C287 C 0.34527 -0.11905 0.32407
 C288 C 0.35509 -0.11365 0.23142
 H289 H 0.35730 -0.09852 0.37765
 H290 H 0.33761 -0.14936 0.11416
 H291 H 0.29679 -0.19884 0.23176
 N292 N 0.85294 0.49863 0.19095
 N293 N 0.82926 0.49801 0.25186
 C294 C 0.84748 0.51627 0.32887
 C295 C 0.88430 0.52791 0.31695
 C296 C 0.88650 0.51649 0.22867
 H297 H 0.90631 0.54181 0.36642
 H298 H 0.84588 0.48532 0.12688
 H299 H 0.80098 0.48355 0.24218
 N300 N 0.46063 0.33426 0.19972
 N301 N 0.46312 0.31187 0.25905
 C302 C 0.48553 0.33149 0.32925
 C303 C 0.49750 0.36813 0.31383
 C304 C 0.48096 0.36856 0.23131
 H305 H 0.51413 0.39100 0.35877
 H306 H 0.44389 0.32589 0.14099
 H307 H 0.44780 0.28351 0.25405
 N308 N 0.66785 0.11452 0.20879
 N309 N 0.69091 0.13883 0.26847
 C310 C 0.67173 0.14579 0.33176
 C311 C 0.63475 0.12438 0.31233
 C312 C 0.63357 0.10510 0.23388
 H313 H 0.61194 0.12204 0.35200
 H314 H 0.67550 0.10356 0.15422
 H315 H 0.71907 0.14893 0.26820
 N316 N 0.49066 0.14933 -0.18268
 N317 N 0.49306 0.17541 -0.24578
 C318 C 0.48073 0.15896 -0.32909
 C319 C 0.47201 0.12266 -0.32080
 C320 C 0.47825 0.11791 -0.22911
 H321 H 0.46158 0.10165 -0.37342
 H322 H 0.49902 0.15433 -0.11339
 H323 H 0.50642 0.20326 -0.23133
 N324 N 0.68221 0.55885 -0.19858
 N325 N 0.70582 0.55613 -0.26121
 C326 C 0.68551 0.53376 -0.33081
 C327 C 0.64884 0.52261 -0.31468
 C328 C 0.64806 0.53855 -0.23149
 H329 H 0.62556 0.50515 -0.35773
 H330 H 0.69031 0.57500 -0.13890
 H331 H 0.73425 0.57240 -0.25857
 N332 N 0.86512 0.32102 -0.19542
 N333 N 0.83770 0.29876 -0.25762
 C334 C 0.83869 0.31955 -0.33005
 C335 C 0.86708 0.35522 -0.31543
 C336 C 0.88261 0.35485 -0.23105
 H337 H 0.87586 0.37857 -0.36051
 H338 H 0.87153 0.31211 -0.13443
 H339 H 0.82287 0.27038 -0.25268
 N340 N 0.49201 -0.15321 -0.18086
 N341 N 0.49211 -0.17798 -0.24432
 C342 C 0.50439 -0.16060 -0.32662
 C343 C 0.51040 -0.12529 -0.31782
 C344 C 0.50285 -0.12183 -0.22650
 H345 H 0.52067 -0.10394 -0.36971
 H346 H 0.48387 -0.15885 -0.11149
 H347 H 0.48077 -0.20576 -0.23073
 N348 N 0.35826 0.50789 -0.18809
 N349 N 0.33377 0.50890 -0.25117
 C350 C 0.33517 0.49260 -0.33054
 C351 C 0.36194 0.48285 -0.32075
 C352 C 0.37499 0.49223 -0.23109
 H353 H 0.37029 0.46955 -0.37115
 H354 H 0.36358 0.51905 -0.12141
 H355 H 0.32052 0.52373 -0.24049
 N356 N 1.13409 0.65994 -0.19061
 N357 N 1.16046 0.68399 -0.25262
 C358 C 1.15874 0.66526 -0.33024
 C359 C 1.13105 0.62894 -0.31848
 C360 C 1.11648 0.62700 -0.23102
 H361 H 1.12147 0.60687 -0.36800
 H362 H 1.12800 0.66730 -0.12676
 H363 H 1.17452 0.71222 -0.24376
 N364 N 0.85117 0.49095 -0.19299
 N365 N 0.82586 0.49037 -0.25605
 C366 C 0.84427 0.50915 -0.33257
 C367 C 0.88114 0.52030 -0.32111
 C368 C 0.88422 0.50904 -0.23322
 H369 H 0.90330 0.53540 -0.36957
 H370 H 0.84482 0.47775 -0.12871
 H371 H 0.79760 0.47416 -0.24802
 N372 N 0.50098 0.35398 -0.18565
 N373 N 0.50214 0.33112 -0.24595
 C374 C 0.48708 0.33320 -0.32680
 C375 C 0.47701 0.35956 -0.31773
 C376 C 0.48604 0.37170 -0.22748
 H377 H 0.46530 0.36913 -0.36960
 H378 H 0.51187 0.35856 -0.11866
 H379 H 0.51476 0.31584 -0.23270
 N380 N 0.66536 0.12125 -0.19811
 N381 N 0.68813 0.14618 -0.25715
 C382 C 0.66871 0.14900 -0.32764
 C383 C 0.63190 0.12444 -0.31296
 C384 C 0.63108 0.10744 -0.23033
 H385 H 0.60918 0.11842 -0.35839
 H386 H 0.67343 0.11291 -0.13885
 H387 H 0.71656 0.15943 -0.25147
 N388 N 1.12012 0.43629 -0.19798
 N389 N 1.14677 0.43932 -0.26020
 C390 C 1.14929 0.46207 -0.32922
 C391 C 1.12383 0.47312 -0.31326
 C392 C 1.10663 0.45680 -0.23074
 H393 H 1.11837 0.49077 -0.35629
 H394 H 1.11168 0.41986 -0.13872
 H395 H 1.15871 0.42297 -0.25799
 N396 N 0.50567 0.65468 -0.18891
 N397 N 0.50287 0.67645 -0.24985
 C398 C 0.52210 0.67844 -0.32676
 C399 C 0.53675 0.65591 -0.31473
 C400 C 0.52602 0.64182 -0.22641
 H401 H 0.55213 0.64971 -0.36414
 H402 H 0.49215 0.64724 -0.12502
 H403 H 0.48643 0.68804 -0.24021
 N404 N 0.32068 -0.13416 -0.18896
 N405 N 0.29836 -0.16139 -0.25165
 C406 C 0.31798 -0.15700 -0.32968
 C407 C 0.35293 -0.12707 -0.31766
 C408 C 0.35341 -0.11381 -0.22957
 H409 H 0.37533 -0.11583 -0.36677
 H410 H 0.31260 -0.13022 -0.12352
 H411 H 0.27035 -0.17885 -0.24206
 N412 N 0.48729 -0.15275 0.19664
 N413 N 0.48722 -0.17642 0.25651
 C414 C 0.50472 -0.15847 0.33451
 C415 C 0.51516 -0.12199 0.32457
 C416 C 0.50383 -0.11962 0.23643
 H417 H 0.52912 -0.10015 0.37430
 H418 H 0.47516 -0.15947 0.13102
 H419 H 0.47420 -0.20446 0.24481
 N420 N 0.36158 0.51275 0.19849
 N421 N 0.33907 0.51426 0.25959
 C422 C 0.33429 0.49157 0.33081
 C423 C 0.35565 0.47581 0.31517
 C424 C 0.37202 0.48957 0.23028
 H425 H 0.35987 0.45800 0.36088
 H426 H 0.37115 0.52885 0.13878
 H427 H 0.32887 0.53207 0.25454
 N428 N 1.14738 0.64913 0.18459
 N429 N 1.17145 0.67176 0.24551
 C430 C 1.15500 0.66632 0.32917
 C431 C 1.11916 0.63797 0.32110
 C432 C 1.11553 0.62818 0.22871
 H433 H 1.09849 0.62590 0.37465
 H434 H 1.15322 0.64707 0.11512
 H435 H 1.19899 0.68938 0.23018
 N436 N 0.45320 0.13148 0.19942
 N437 N 0.45645 0.15645 0.25943
 C438 C 0.47805 0.15787 0.33014
 C439 C 0.48871 0.13225 0.31438
 C440 C 0.47228 0.11616 0.23101
 H441 H 0.50453 0.12499 0.35942
 H442 H 0.43689 0.12409 0.13996
 H443 H 0.44232 0.17067 0.25425
 N444 N 0.65360 0.50360 0.19541
 N445 N 0.67597 0.50157 0.25604
 C446 C 0.67845 0.52153 0.33157
 C447 C 0.65587 0.53612 0.31882
 C448 C 0.64104 0.52439 0.23170
 H449 H 0.65006 0.55206 0.36715
 H450 H 0.64568 0.48944 0.13258
 H451 H 0.68772 0.48524 0.24728
 N452 N 0.84441 0.35287 0.19618
 N453 N 0.81911 0.33180 0.25696
 C454 C 0.83563 0.32711 0.33156
 C455 C 0.87315 0.34695 0.31835
 C456 C 0.87742 0.36237 0.23155
 H457 H 0.89443 0.35058 0.36625
 H458 H 0.83916 0.36202 0.13389
 H459 H 0.79122 0.32231 0.24888
   
