data_POSCAR
  _audit_creation_date              2014-09-24
  _audit_creation_method            'ToBaCCo'
  _symmetry_space_group_name_H-M    'P1'
  _symmetry_Int_Tables_number       1
  _symmetry_cell_setting            triclinic
  loop_
  _symmetry_equiv_pos_as_xyz
 x,y,z
_cell_length_a 29.1790
_cell_length_b 29.1786
_cell_length_c 29.1786
_cell_angle_alpha 75.116500
_cell_angle_beta 104.888000
_cell_angle_gamma 75.106600
loop_
  _atom_site_label
  _atom_site_type_symbol
  _atom_site_fract_x
  _atom_site_fract_y
  _atom_site_fract_z
O1 O 0.57620 0.48055 0.04776
 O2 O 0.44303 0.49952 0.03476
 O3 O 0.52039 0.42311 0.04871
 O4 O 0.49880 0.55692 0.03375
 O5 O 0.47830 0.57665 -0.04905
 O6 O 0.49990 0.44285 -0.03408
 O7 O 0.42249 0.51921 -0.04802
 O8 O 0.55568 0.50025 -0.03503
 Cu9 Cu 0.51163 0.48808 0.04959
 Cu10 Cu 0.48706 0.51168 -0.04989
 C11 C 0.58826 0.48794 0.00840
 C12 C 0.41042 0.51185 -0.00866
 C13 C 0.51306 0.41055 0.00966
 C14 C 0.48567 0.58921 -0.01000
 O15 O -0.04787 0.57781 0.48045
 O16 O -0.03488 0.44463 0.49945
 O17 O -0.03385 0.50043 0.55683
 O18 O -0.04883 0.52198 0.42302
 O19 O 0.03396 0.50147 0.44275
 O20 O 0.04896 0.47991 0.57654
 O21 O 0.04791 0.42409 0.51913
 O22 O 0.03492 0.55728 0.50014
 Cu23 Cu -0.04970 0.51325 0.48799
 Cu24 Cu 0.04978 0.48866 0.51157
 C25 C -0.00850 0.58988 0.48783
 C26 C 0.00854 0.41203 0.51179
 C27 C 0.00991 0.48728 0.58911
 C28 C -0.00978 0.51461 0.41046
 O29 O 0.49959 0.03456 0.55724
 O30 O 0.48058 0.04757 0.42405
 O31 O 0.42318 0.04854 0.47988
 O32 O 0.55698 0.03357 0.50142
 O33 O 0.57671 -0.04923 0.52192
 O34 O 0.44291 -0.03426 0.50037
 O35 O 0.50029 -0.03522 0.44457
 O36 O 0.51928 -0.04822 0.57776
 Cu37 Cu 0.48814 0.04940 0.48863
 Cu38 Cu 0.51175 -0.05008 0.51319
 C39 C 0.51191 -0.00886 0.58984
 C40 C 0.48795 0.00821 0.41198
 C41 C 0.41062 0.00949 0.48723
 C42 C 0.58927 -0.01018 0.51455
 C43 C 0.50335 -0.00783 -0.04532
 C44 C 0.49539 -0.04433 -0.00909
 C45 C 0.49199 -0.03644 0.03548
 C46 C 0.49631 0.00746 0.04439
 C47 C 0.50426 0.04397 0.00816
 C48 C 0.50767 0.03607 -0.03641
 H49 H 0.51358 0.06436 -0.06442
 H50 H 0.48608 -0.06472 0.06349
 C51 C -0.00819 0.50512 1.04409
 C52 C -0.04440 0.49715 1.00758
 C53 C -0.03549 0.49284 0.96369
 C54 C 0.00908 0.49625 0.95580
 C55 C 0.04530 0.50420 0.99232
 C56 C 0.03639 0.50853 1.03621
 H57 H 0.06439 0.51445 1.06450
 H58 H -0.06350 0.48691 0.93540
 C59 C 0.04396 0.00818 0.49587
 C60 C 0.00742 0.04443 0.50378
 C61 C -0.03650 0.03555 0.50805
 C62 C -0.04438 -0.00903 0.50464
 C63 C -0.00785 -0.04527 0.49671
 C64 C 0.03607 -0.03639 0.49245
 H65 H 0.06437 -0.06441 0.48656
 H66 H -0.06480 0.06357 0.51394
 C67 C -0.26842 0.48501 1.01632
 C68 C -0.23371 0.48041 1.06803
 C69 C -0.18739 0.48237 1.06838
 C70 C -0.18043 0.48874 1.01698
 C71 C -0.22455 0.53632 0.97972
 C72 C -0.27074 0.53437 0.97937
 C73 C -0.23815 0.44288 1.00212
 C74 C -0.19190 0.44484 1.00247
 C75 C -0.31865 0.48365 1.01511
 C76 C -0.36075 0.48442 1.01267
 C77 C -0.13100 0.49122 1.01632
 C78 C -0.09115 0.49378 1.01355
 H79 H -0.24452 0.47594 1.10140
 H80 H -0.15853 0.47958 1.10202
 H81 H -0.21992 0.56879 0.95575
 H82 H -0.30565 0.56517 0.95507
 H83 H -0.25178 0.41399 0.99273
 H84 H -0.16592 0.41760 0.99337
 C85 C 0.26966 0.51524 0.98362
 C86 C 0.24145 0.50293 0.93875
 C87 C 0.19506 0.50125 0.93840
 C88 C 0.18150 0.51206 0.98295
 C89 C 0.18697 0.56352 0.98050
 C90 C 0.23333 0.56519 0.98085
 C91 C 0.27142 0.47538 1.03070
 C92 C 0.22516 0.47371 1.03035
 C93 C 0.31998 0.51629 0.98484
 C94 C 0.36216 0.51526 0.98731
 C95 C 0.13200 0.50985 0.98362
 C96 C 0.09210 0.50746 0.98638
 H97 H 0.25654 0.49618 0.90979
 H98 H 0.17042 0.49306 0.90918
 H99 H 0.15703 0.59583 0.97854
 H100 H 0.24311 0.59891 0.97921
 H101 H 0.30603 0.45058 1.06164
 H102 H 0.22017 0.44747 1.06098
 C103 C -0.01634 -0.26945 0.48488
 C104 C -0.06863 -0.23393 0.47787
 C105 C -0.06904 -0.18757 0.47975
 C106 C -0.01714 -0.18138 0.48845
 C107 C -0.00032 -0.19389 0.44603
 C108 C 0.00010 -0.24018 0.44415
 C109 C 0.01883 -0.27152 0.53512
 C110 C 0.01841 -0.22529 0.53700
 C111 C -0.01506 -0.31973 0.48363
 C112 C -0.01254 -0.36188 0.48453
 C113 C -0.01654 -0.13191 0.49086
 C114 C -0.01380 -0.09204 0.49337
 H115 H -0.10231 -0.24426 0.47191
 H116 H -0.10306 -0.15818 0.47540
 H117 H 0.01024 -0.16855 0.41969
 H118 H 0.01101 -0.25449 0.41624
 H119 H 0.04202 -0.30631 0.56656
 H120 H 0.04122 -0.22049 0.57003
 C121 C 0.01634 0.26861 0.51520
 C122 C 0.05731 0.24317 0.49656
 C123 C 0.05760 0.19683 0.49479
 C124 C 0.01690 0.18053 0.51184
 C125 C -0.03310 0.22350 0.47825
 C126 C -0.03339 0.26972 0.48001
 C127 C 0.02560 0.23022 0.56669
 C128 C 0.02589 0.18389 0.56492
 C129 C 0.01520 0.31889 0.51635
 C130 C 0.01280 0.36102 0.51544
 C131 C 0.01618 0.13107 0.50955
 C132 C 0.01338 0.09120 0.50709
 H133 H 0.08379 0.26003 0.48578
 H134 H 0.08429 0.17400 0.48250
 H135 H -0.06549 0.21809 0.45505
 H136 H -0.06603 0.30387 0.45833
 H137 H 0.03151 0.23863 0.60145
 H138 H 0.03207 0.15261 0.59820
 C139 C 0.51500 -0.01659 -0.26948
 C140 C 0.50642 -0.06344 -0.23978
 C141 C 0.50459 -0.06378 -0.19343
 C142 C 0.51153 -0.01725 -0.18141
 C143 C 0.47075 0.02826 -0.22540
 C144 C 0.47257 0.02860 -0.27162
 C145 C 0.56358 -0.01550 -0.23433
 C146 C 0.56176 -0.01585 -0.18802
 C147 C 0.51620 -0.01538 -0.31976
 C148 C 0.51525 -0.01289 -0.36192
 C149 C 0.50917 -0.01658 -0.13195
 C150 C 0.50668 -0.01380 -0.09208
 H151 H 0.50221 -0.09367 -0.25387
 H152 H 0.49880 -0.09427 -0.16783
 H153 H 0.44280 0.05766 -0.22066
 H154 H 0.44619 0.05831 -0.30644
 H155 H 0.59653 -0.01465 -0.24483
 H156 H 0.59317 -0.01530 -0.15885
 C157 C 0.48471 0.01613 0.26858
 C158 C 0.50239 0.05778 0.24281
 C159 C 0.50421 0.05814 0.19646
 C160 C 0.48817 0.01682 0.18050
 C161 C 0.43527 0.02477 0.18409
 C162 C 0.43345 0.02440 0.23042
 C163 C 0.52071 -0.03320 0.26979
 C164 C 0.52252 -0.03284 0.22357
 C165 C 0.48349 0.01492 0.31886
 C166 C 0.48435 0.01248 0.36098
 C167 C 0.49052 0.01617 0.13103
 C168 C 0.49300 0.01341 0.09116
 H169 H 0.51252 0.08465 0.25945
 H170 H 0.51590 0.08528 0.17342
 H171 H 0.40214 0.03030 0.15296
 H172 H 0.39879 0.02961 0.23898
 H173 H 0.54288 -0.06564 0.30401
 H174 H 0.54626 -0.06496 0.21823
 C175 C 0.48162 -0.26716 -0.01917
 C176 C 0.42995 -0.22795 -0.03042
 C177 C 0.43203 -0.18170 -0.03080
 C178 C 0.48557 -0.17929 -0.01989
 C179 C 0.50433 -0.19667 -0.05925
 C180 C 0.50226 -0.24293 -0.05887
 C181 C 0.51542 -0.26805 0.03117
 C182 C 0.51748 -0.22193 0.03079
 C183 C 0.48029 -0.31736 -0.01780
 C184 C 0.48140 -0.35958 -0.01498
 C185 C 0.48830 -0.13005 -0.01911
 C186 C 0.49130 -0.09050 -0.01590
 H187 H 0.39487 -0.23578 -0.03756
 H188 H 0.39869 -0.14986 -0.03829
 H189 H 0.51794 -0.17461 -0.08514
 H190 H 0.51409 -0.26051 -0.08447
 H191 H 0.53595 -0.30199 0.06428
 H192 H 0.53981 -0.21637 0.06357
 C193 C 0.51746 0.26687 0.01863
 C194 C 0.56741 0.23026 0.02176
 C195 C 0.56547 0.18400 0.02203
 C196 C 0.51377 0.17898 0.01913
 C197 C 0.47582 0.22270 -0.02841
 C198 C 0.47775 0.26884 -0.02867
 C199 C 0.50464 0.23895 0.06326
 C200 C 0.50270 0.19267 0.06351
 C201 C 0.51864 0.31709 0.01738
 C202 C 0.51742 0.35932 0.01462
 C203 C 0.51118 0.12972 0.01822
 C204 C 0.50828 0.09016 0.01496
 H205 H 0.60131 0.23976 0.02372
 H206 H 0.59774 0.15385 0.02422
 H207 H 0.44964 0.21785 -0.05920
 H208 H 0.45324 0.30350 -0.05970
 H209 H 0.49778 0.25414 0.09212
 H210 H 0.49417 0.16821 0.09256
 C211 C -0.26715 -0.01927 0.51847
 C212 C -0.23480 -0.01001 0.56332
 C213 C -0.18860 -0.01034 0.56120
 C214 C -0.17933 -0.01990 0.51445
 C215 C -0.22365 0.02081 0.46922
 C216 C -0.26976 0.02114 0.47134
 C217 C -0.23438 -0.06949 0.51794
 C218 C -0.18812 -0.06982 0.51583
 C219 C -0.31732 -0.01795 0.51986
 C220 C -0.35953 -0.01515 0.51878
 C221 C -0.13011 -0.01906 0.51168
 C222 C -0.09057 -0.01583 0.50870
 H223 H -0.24703 -0.00387 0.59407
 H224 H -0.16123 -0.00448 0.59016
 H225 H -0.21922 0.04706 0.43817
 H226 H -0.30481 0.04770 0.44209
 H227 H -0.24639 -0.10191 0.51921
 H228 H -0.16049 -0.10250 0.51528
 C229 C 0.26693 0.01852 0.48283
 C230 C 0.23065 0.02069 0.43316
 C231 C 0.18438 0.02098 0.43508
 C232 C 0.17901 0.01908 0.48647
 C233 C 0.19231 0.06398 0.49661
 C234 C 0.23861 0.06369 0.49469
 C235 C 0.26895 -0.02831 0.52318
 C236 C 0.22280 -0.02802 0.52510
 C237 C 0.31716 0.01724 0.48166
 C238 C 0.35939 0.01446 0.48288
 C239 C 0.12974 0.01820 0.48903
 C240 C 0.09017 0.01496 0.49190
 H241 H 0.24038 0.02200 0.39946
 H242 H 0.15445 0.02256 0.40299
 H243 H 0.16759 0.09337 0.50452
 H244 H 0.25355 0.09288 0.50094
 H245 H 0.30366 -0.05906 0.54814
 H246 H 0.21799 -0.05851 0.55169
 C247 C -0.01874 0.51874 1.26685
 C248 C -0.00658 0.56206 1.23576
 C249 C -0.00682 0.56002 1.18956
 C250 C -0.01921 0.51485 1.17902
 C251 C -0.07009 0.51913 1.18662
 C252 C -0.06985 0.52117 1.23288
 C253 C 0.01975 0.47026 1.26939
 C254 C 0.01950 0.46822 1.22328
 C255 C -0.01750 0.52004 1.31703
 C256 C -0.01474 0.51890 1.35925
 C257 C -0.01829 0.51215 1.12980
 C258 C -0.01501 0.50919 1.09027
 H259 H 0.00140 0.59178 1.24881
 H260 H 0.00094 0.58801 1.16302
 H261 H -0.10332 0.52050 1.15821
 H262 H -0.10289 0.52430 1.24413
 H263 H 0.04500 0.44009 1.30440
 H264 H 0.04451 0.43631 1.21879
 C265 C 0.01913 0.48298 0.73282
 C266 C 0.02780 0.43169 0.77118
 C267 C 0.02819 0.43364 0.81747
 C268 C 0.01986 0.48669 0.82076
 C269 C -0.02995 0.52068 0.77775
 C270 C -0.03034 0.51874 0.73159
 C271 C 0.06054 0.50110 0.75828
 C272 C 0.06093 0.50305 0.80458
 C273 C 0.01774 0.48177 0.68258
 C274 C 0.01491 0.48296 0.64034
 C275 C 0.01908 0.48930 0.87004
 C276 C 0.01587 0.49221 0.90961
 H277 H 0.03328 0.39693 0.76279
 H278 H 0.03401 0.40053 0.84876
 H279 H -0.06216 0.54428 0.78309
 H280 H -0.06288 0.54065 0.69740
 H281 H 0.08725 0.51138 0.74148
 H282 H 0.08793 0.51501 0.82745
   
