data_POSCAR
  _audit_creation_date              2014-09-24
  _audit_creation_method            'ToBaCCo'
  _symmetry_space_group_name_H-M    'P1'
  _symmetry_Int_Tables_number       1
  _symmetry_cell_setting            triclinic
  loop_
  _symmetry_equiv_pos_as_xyz
 x,y,z
_cell_length_a 43.0630
_cell_length_b 43.2197
_cell_length_c 43.3661
_cell_angle_alpha 89.900500
_cell_angle_beta 88.578000
_cell_angle_gamma 89.307000
loop_
  _atom_site_label
  _atom_site_type_symbol
  _atom_site_fract_x
  _atom_site_fract_y
  _atom_site_fract_z
C1 C 0.17960 0.50985 1.00721
 H2 H 0.17189 0.50690 0.98392
 C3 C 0.15749 0.51207 1.03108
 H4 H 0.13327 0.51186 1.02504
 C5 C 0.22030 0.51478 1.04239
 H6 H 0.24492 0.51481 1.04680
 C7 C 0.19889 0.51766 1.06706
 H8 H 0.20775 0.51960 1.09009
 N9 N 0.21041 0.51078 1.01310
 C10 C 0.28496 0.53796 0.94792
 H11 H 0.28083 0.52170 0.92963
 C12 C 0.30938 0.55877 0.94479
 H13 H 0.32375 0.55828 0.92396
 C14 C 0.27080 0.55869 0.99680
 H15 H 0.25583 0.55873 1.01708
 C16 C 0.29521 0.57965 0.99482
 H17 H 0.29895 0.59492 1.01410
 Zn18 Zn 0.23863 0.50423 0.97900
 N19 N 0.26691 0.53750 0.97410
 C20 C 0.20537 0.52695 0.92883
 N21 N 0.21522 0.50064 0.94297
 C22 C 0.20505 0.47236 0.93434
 C23 C 0.18313 0.46988 0.91130
 C24 C 0.18354 0.52552 0.90563
 C25 C 0.26089 0.45204 1.01246
 C26 C 0.28159 0.42773 1.01826
 C27 C 0.30264 0.43322 0.96644
 C28 C 0.28179 0.45766 0.96176
 N29 N 0.26214 0.46727 0.98496
 H30 H 0.21333 0.54918 0.93666
 H31 H 0.21282 0.45186 0.94637
 H32 H 0.17459 0.44727 0.90529
 H33 H 0.17486 0.54683 0.89568
 H34 H 0.24461 0.45926 1.03039
 H35 H 0.28119 0.41668 1.04070
 H36 H 0.31913 0.42690 0.94820
 H37 H 0.28191 0.46950 0.93982
 C38 C 0.31551 0.57927 0.96894
 C39 C 0.16676 0.51556 1.06183
 C40 C 0.30335 0.41864 0.99534
 C41 C 0.17153 0.49677 0.89717
 C42 C 0.78112 0.51908 -0.02156
 H43 H 0.77856 0.54007 -0.00814
 C44 C 0.80428 0.51685 -0.04459
 H45 H 0.81942 0.53629 -0.04891
 C46 C 0.76602 0.46739 -0.03061
 H47 H 0.75185 0.44780 -0.02430
 C48 C 0.78917 0.46402 -0.05353
 H49 H 0.79215 0.44203 -0.06522
 N50 N 0.76247 0.49460 -0.01512
 C51 C 0.69563 0.54172 0.04640
 H52 H 0.69819 0.52751 0.06676
 C53 C 0.67447 0.56646 0.04676
 H54 H 0.66128 0.57152 0.06776
 C55 C 0.70900 0.55151 -0.00602
 H56 H 0.72153 0.54478 -0.02688
 C57 C 0.68799 0.57637 -0.00672
 H58 H 0.68478 0.58863 -0.02822
 Zn59 Zn 0.73549 0.49731 0.01995
 N60 N 0.71223 0.53465 0.02024
 C61 C 0.77079 0.51982 0.06959
 N62 N 0.76156 0.49428 0.05417
 C63 C 0.77493 0.46613 0.05909
 C64 C 0.79900 0.46289 0.07974
 C65 C 0.79528 0.51772 0.09015
 C66 C 0.69068 0.46064 -0.00651
 C67 C 0.66776 0.43823 -0.00798
 C68 C 0.67640 0.42585 0.04549
 C69 C 0.69952 0.44827 0.04580
 N70 N 0.70631 0.46497 0.01994
 H71 H 0.76056 0.54216 0.06449
 H72 H 0.76777 0.44636 0.04587
 H73 H 0.80954 0.44027 0.08288
 H74 H 0.80358 0.53861 0.10075
 H75 H 0.69611 0.47469 -0.02656
 H76 H 0.65620 0.43479 -0.02956
 H77 H 0.67079 0.41339 0.06654
 H78 H 0.71140 0.45289 0.06694
 C79 C 0.66993 0.58377 0.01975
 C80 C 0.80885 0.48886 -0.06049
 C81 C 0.66007 0.42062 0.01834
 C82 C 0.81036 0.48908 0.09470
 C83 C -0.00909 0.29311 0.45097
 H84 H -0.03156 0.28927 0.46194
 C85 C -0.00579 0.31611 0.42855
 H86 H -0.02614 0.32976 0.42311
 C87 C 0.04473 0.28155 0.44781
 H88 H 0.06447 0.26852 0.45596
 C89 C 0.04926 0.30472 0.42573
 H90 H 0.07251 0.30791 0.41634
 N91 N 0.01594 0.27640 0.46012
 C92 C -0.03005 0.20499 0.51468
 H93 H -0.01765 0.20818 0.53581
 C94 C -0.05278 0.18245 0.51316
 H95 H -0.05817 0.16887 0.53355
 C96 C -0.03770 0.21901 0.46254
 H97 H -0.03106 0.23274 0.44265
 C98 C -0.06045 0.19638 0.45988
 H99 H -0.07119 0.19299 0.43785
 Zn100 Zn 0.01065 0.24984 0.49442
 N101 N -0.02303 0.22279 0.48968
 C102 C -0.02572 0.27893 0.54141
 N103 N 0.00343 0.27588 0.52887
 C104 C 0.02686 0.29442 0.53776
 C105 C 0.02133 0.31742 0.55988
 C106 C -0.03232 0.30175 0.56341
 C107 C 0.05407 0.20670 0.47393
 C108 C 0.07692 0.18376 0.47587
 C109 C 0.08281 0.19673 0.52957
 C110 C 0.05996 0.21978 0.52649
 N111 N 0.04589 0.22399 0.49903
 H112 H -0.04428 0.26471 0.53330
 H113 H 0.04960 0.29208 0.52677
 H114 H 0.03998 0.33268 0.56591
 H115 H -0.05581 0.30433 0.57264
 H116 H 0.04212 0.21023 0.45253
 H117 H 0.08292 0.17024 0.45554
 H118 H 0.09280 0.19275 0.55191
 H119 H 0.05245 0.23322 0.54637
 C120 C -0.06799 0.17747 0.48535
 C121 C 0.02390 0.32297 0.41595
 C122 C 0.09107 0.17790 0.50416
 C123 C -0.00876 0.32171 0.57248
 C124 C 0.96811 0.71335 0.55387
 H125 H 0.94824 0.72603 0.54546
 C126 C 0.96421 0.69219 0.57807
 H127 H 0.94137 0.68897 0.58853
 C128 C 1.02174 0.70061 0.54948
 H129 H 1.04393 0.70348 0.53763
 C130 C 1.01902 0.67975 0.57391
 H131 H 1.03923 0.66655 0.58082
 N132 N 0.99659 0.71713 0.54017
 C133 C 0.95708 0.77358 0.47027
 H134 H 0.96622 0.75991 0.45122
 C135 C 0.93516 0.79685 0.46472
 H136 H 0.92709 0.80039 0.44151
 C137 C 0.95818 0.78735 0.52312
 H138 H 0.96817 0.78419 0.54557
 C139 C 0.93605 0.81071 0.51864
 H140 H 0.92906 0.82547 0.53780
 Zn141 Zn 1.00263 0.74262 0.50511
 N142 N 0.96830 0.76944 0.49907
 C143 C 0.98234 0.69940 0.46366
 N144 N 1.00787 0.71578 0.47095
 C145 C 1.03536 0.71177 0.45518
 C146 C 1.03760 0.69092 0.43053
 C147 C 0.98340 0.67884 0.43897
 C148 C 1.04831 0.77398 0.53857
 C149 C 1.07025 0.79700 0.54295
 C150 C 1.06959 0.80809 0.48835
 C151 C 1.04736 0.78515 0.48507
 N152 N 1.03720 0.76864 0.50999
 H153 H 0.96099 0.70256 0.47703
 H154 H 1.05561 0.72437 0.46193
 H155 H 1.05954 0.68783 0.41810
 H156 H 0.96278 0.66604 0.43347
 H157 H 1.03905 0.76150 0.55829
 H158 H 1.07826 0.80156 0.56596
 H159 H 1.07671 0.82167 0.46844
 H160 H 1.03733 0.78124 0.46281
 C161 C 0.92480 0.81609 0.48898
 C162 C 0.98993 0.67515 0.58832
 C163 C 1.08080 0.81466 0.51770
 C164 C 1.01125 0.67443 0.42205
 C165 C 0.47751 -0.02696 0.29418
 H166 H 0.49322 -0.04535 0.28674
 C167 C 0.45695 -0.03179 0.31905
 H168 H 0.45645 -0.05430 0.33002
 C169 C 0.46009 0.02499 0.28944
 H170 H 0.46236 0.04744 0.27868
 C171 C 0.43935 0.02126 0.31446
 H172 H 0.42570 0.04098 0.32246
 N173 N 0.47876 0.00106 0.27996
 C174 C 0.54107 -0.02549 0.20360
 H175 H 0.55954 -0.00944 0.20796
 C176 C 0.54386 -0.04595 0.17883
 H177 H 0.56542 -0.04594 0.16555
 C178 C 0.49129 -0.04460 0.21690
 H179 H 0.47034 -0.04309 0.23109
 C180 C 0.49299 -0.06545 0.19227
 H181 H 0.47273 -0.07924 0.18822
 Zn182 Zn 0.51172 0.00733 0.25106
 N183 N 0.51506 -0.02502 0.22190
 C184 C 0.56536 -0.01663 0.27945
 N185 N 0.54806 0.00933 0.27443
 C186 C 0.55404 0.03627 0.28909
 C187 C 0.57868 0.03808 0.30921
 C188 C 0.58968 -0.01613 0.30020
 C189 C 0.47795 0.04923 0.21503
 C190 C 0.47402 0.07336 0.19396
 C191 C 0.52804 0.08621 0.19948
 C192 C 0.53093 0.06188 0.22042
 N193 N 0.50606 0.04398 0.22782
 H194 H 0.55942 -0.03809 0.26837
 H195 H 0.53930 0.05633 0.28554
 H196 H 0.58321 0.06008 0.31998
 H197 H 0.60205 -0.03747 0.30493
 H198 H 0.45887 0.03391 0.22034
 H199 H 0.45179 0.07647 0.18317
 H200 H 0.54825 0.09985 0.19349
 H201 H 0.55346 0.05643 0.22954
 C202 C 0.51934 -0.06611 0.17208
 C203 C 0.43795 -0.00731 0.33000
 C204 C 0.49946 0.09181 0.18549
 C205 C 0.59644 0.01145 0.31577
 C206 C 0.55302 -0.02638 0.70833
 H207 H 0.53978 -0.04712 0.71271
 C208 C 0.57782 -0.02699 0.68697
 H209 H 0.58339 -0.04828 0.67483
 C210 C 0.56028 0.02708 0.71729
 H211 H 0.55265 0.04839 0.72819
 C212 C 0.58524 0.02751 0.69616
 H213 H 0.59712 0.04907 0.69175
 N214 N 0.54483 0.00034 0.72308
 C215 C 0.48379 -0.03946 0.79385
 H216 H 0.46237 -0.02753 0.78846
 C217 C 0.48447 -0.06021 0.81855
 H218 H 0.46340 -0.06423 0.83203
 C219 C 0.53780 -0.04682 0.78421
 H220 H 0.55872 -0.04065 0.77148
 C221 C 0.53959 -0.06750 0.80892
 H222 H 0.56183 -0.07772 0.81453
 Zn223 Zn 0.50867 -0.00010 0.74880
 N224 N 0.51022 -0.03311 0.77736
 C225 C 0.46265 -0.03225 0.71672
 N226 N 0.47484 -0.00396 0.72222
 C227 C 0.46643 0.02131 0.70551
 C228 C 0.44486 0.01871 0.68217
 C229 C 0.44136 -0.03597 0.69323
 C230 C 0.53143 0.04497 0.78746
 C231 C 0.53038 0.06939 0.80835
 C232 C 0.47526 0.07458 0.80036
 C233 C 0.47757 0.05054 0.77882
 N234 N 0.50538 0.03623 0.77291
 H235 H 0.47049 -0.05219 0.72959
 H236 H 0.47730 0.04330 0.70964
 H237 H 0.43905 0.03888 0.66853
 H238 H 0.43241 -0.05875 0.68856
 H239 H 0.55304 0.03252 0.78320
 H240 H 0.55171 0.07614 0.81902
 H241 H 0.45263 0.08459 0.80579
 H242 H 0.45689 0.04236 0.76795
 C243 C 0.51277 -0.07403 0.82673
 C244 C 0.59406 0.00032 0.68038
 C245 C 0.50187 0.08405 0.81585
 C246 C 0.43255 -0.01033 0.67540
 C247 C 0.22353 -0.03619 0.50729
 C248 C 0.23717 -0.00692 0.50586
 C249 C 0.21840 0.01977 0.50455
 C250 C 0.18587 0.01740 0.50488
 C251 C 0.17249 -0.01207 0.50718
 C252 C 0.19110 -0.03892 0.50806
 C253 C 0.27119 -0.00435 0.50515
 C254 C 0.28763 -0.00422 0.47686
 C255 C 0.32024 -0.00256 0.47592
 C256 C 0.33609 -0.00134 0.50389
 C257 C 0.31975 -0.00138 0.53233
 C258 C 0.28722 -0.00270 0.53278
 H259 H 0.23815 -0.05676 0.50796
 H260 H 0.22922 0.04221 0.50252
 H261 H 0.27495 -0.00586 0.45566
 H262 H 0.27440 -0.00297 0.55461
 H263 H 0.14745 -0.01423 0.50766
 H264 H 0.36116 0.00052 0.50363
 C265 C 0.78787 -0.02561 0.49361
 C266 C 0.77631 0.00485 0.49384
 C267 C 0.79688 0.02977 0.49310
 C268 C 0.82914 0.02445 0.49190
 C269 C 0.84039 -0.00619 0.49069
 C270 C 0.82000 -0.03128 0.49185
 C271 C 0.74265 0.01078 0.49542
 C272 C 0.72708 0.01261 0.52417
 C273 C 0.69519 0.01945 0.52580
 C274 C 0.67896 0.02365 0.49847
 C275 C 0.69420 0.02189 0.46950
 C276 C 0.72627 0.01546 0.46819
 H277 H 0.77189 -0.04479 0.49456
 H278 H 0.78766 0.05318 0.49431
 H279 H 0.73989 0.00936 0.54516
 H280 H 0.73863 0.01445 0.44614
 H281 H 0.86520 -0.01064 0.48947
 H282 H 0.65408 0.02766 0.49988
 C283 C 0.51328 0.28583 0.99785
 C284 C 0.48812 0.26559 0.99647
 C285 C 0.45775 0.27742 0.99485
 C286 C 0.45241 0.30946 0.99563
 C287 C 0.47765 0.32952 0.99745
 C288 C 0.50829 0.31803 0.99801
 C289 C 0.49374 0.23202 0.99760
 C290 C 0.49710 0.21737 1.02624
 C291 C 0.50441 0.18575 1.02761
 C292 C 0.50775 0.16884 1.00018
 C293 C 0.50468 0.18318 0.97130
 C294 C 0.49743 0.21496 0.97020
 H295 H 0.53668 0.27638 0.99833
 H296 H 0.43836 0.26174 0.99366
 H297 H 0.49483 0.23074 1.04732
 H298 H 0.49552 0.22664 0.94819
 H299 H 0.47329 0.35426 0.99820
 H300 H 0.51255 0.14421 1.00146
 C301 C 0.51606 0.71692 0.01259
 C302 C 0.49057 0.73549 0.00459
 C303 C 0.46242 0.72172 -0.00283
 C304 C 0.45934 0.68942 -0.00183
 C305 C 0.48514 0.67107 0.00609
 C306 C 0.51365 0.68455 0.01310
 C307 C 0.49329 0.76941 0.00415
 C308 C 0.49172 0.78560 -0.02379
 C309 C 0.49484 0.81787 -0.02445
 C310 C 0.49857 0.83392 0.00335
 C311 C 0.49939 0.81801 0.03167
 C312 C 0.49726 0.78559 0.03172
 H313 H 0.53772 0.72775 0.01838
 H314 H 0.44293 0.73626 -0.00922
 H315 H 0.48889 0.77295 -0.04507
 H316 H 0.49842 0.77285 0.05322
 H317 H 0.48306 0.64614 0.00681
 H318 H 0.49980 0.85894 0.00295
 C319 C 1.01675 0.53033 0.28120
 C320 C 1.00901 0.50413 0.26414
 C321 C 1.00790 0.47507 0.27846
 C322 C 1.01531 0.47190 0.30962
 C323 C 1.02349 0.49816 0.32644
 C324 C 1.02374 0.52755 0.31256
 C325 C 1.00238 0.50691 0.23117
 C326 C 1.02705 0.50722 0.20940
 C327 C 1.02112 0.50778 0.17771
 C328 C 0.99018 0.50896 0.16829
 C329 C 0.96529 0.50777 0.18976
 C330 C 0.97156 0.50703 0.22135
 H331 H 1.01715 0.55282 0.27011
 H332 H 1.00169 0.45490 0.26524
 H333 H 1.05073 0.50577 0.21723
 H334 H 0.95264 0.50565 0.23823
 H335 H 1.02817 0.49589 0.35079
 H336 H 0.98533 0.51048 0.14393
 C337 C -0.02857 0.52190 0.71925
 C338 C -0.02223 0.49449 0.73539
 C339 C -0.01714 0.46677 0.71918
 C340 C -0.01921 0.46607 0.68696
 C341 C -0.02589 0.49357 0.67104
 C342 C -0.03012 0.52164 0.68695
 C343 C -0.02118 0.49449 0.76928
 C344 C -0.04863 0.49860 0.78695
 C345 C -0.04822 0.49603 0.81919
 C346 C -0.01990 0.49034 0.83364
 C347 C 0.00790 0.48703 0.81624
 C348 C 0.00699 0.48878 0.78394
 H349 H -0.03204 0.54339 0.73178
 H350 H -0.01229 0.44564 0.73177
 H351 H -0.07044 0.50257 0.77553
 H352 H 0.02810 0.48550 0.77014
 H353 H -0.02652 0.49338 0.64607
 H354 H -0.01946 0.48925 0.85859
 C355 C 0.13892 0.15261 0.52592
 C356 C 0.11263 0.15099 0.50741
 C357 C 0.10651 0.12309 0.49217
 C358 C 0.12631 0.09736 0.49507
 C359 C 0.15265 0.09916 0.51373
 C360 C 0.15876 0.12693 0.52906
 C361 C 0.17224 0.07311 0.51683
 C362 C 0.16571 0.04531 0.50150
 C363 C 0.13958 0.04412 0.48273
 C364 C 0.12004 0.06981 0.47964
 H365 H 0.08596 0.12115 0.47840
 H366 H 0.17887 0.12881 0.54343
 H367 H 0.19217 0.07432 0.53153
 H368 H 0.10003 0.06813 0.46508
 H369 H 0.14433 0.17385 0.53774
 H370 H 0.13436 0.02329 0.47012
 C371 C 0.64912 0.63499 0.00115
 C372 C 0.64490 0.60772 0.01843
 C373 C 0.61590 0.60253 0.03308
 C374 C 0.59125 0.62370 0.02979
 C375 C 0.59554 0.65063 0.01175
 C376 C 0.62470 0.65626 -0.00212
 C377 C 0.57040 0.67100 0.00721
 C378 C 0.54090 0.66462 0.02023
 C379 C 0.53720 0.63817 0.03883
 C380 C 0.56213 0.61792 0.04359
 H381 H 0.61206 0.58141 0.04606
 H382 H 0.62847 0.67687 -0.01591
 H383 H 0.57350 0.69115 -0.00742
 H384 H 0.55848 0.59748 0.05766
 H385 H 0.67130 0.63977 -0.01004
 H386 H 0.51488 0.63302 0.04956
 C387 C 0.91229 -0.13684 0.45798
 C388 C 0.90487 -0.15650 0.48288
 C389 C 0.87982 -0.14865 0.50290
 C390 C 0.86305 -0.12094 0.49868
 C391 C 0.87157 -0.10081 0.47425
 C392 C 0.89582 -0.10923 0.45372
 C393 C 0.85641 -0.07212 0.47134
 C394 C 0.83281 -0.06318 0.49252
 C395 C 0.82346 -0.08388 0.51587
 C396 C 0.83852 -0.11254 0.51898
 H397 H 0.87379 -0.16382 0.52200
 H398 H 0.90257 -0.09410 0.43483
 H399 H 0.86349 -0.05634 0.45308
 H400 H 0.83154 -0.12774 0.53773
 H401 H 0.93167 -0.14226 0.44245
 H402 H 0.80539 -0.07732 0.53249
 C403 C 0.34579 0.40042 1.02924
 C404 C 0.32868 0.39646 1.00239
 C405 C 0.33767 0.37316 0.98129
 C406 C 0.36430 0.35493 0.98630
 C407 C 0.38218 0.36024 1.01265
 C408 C 0.37235 0.38251 1.03431
 C409 C 0.41024 0.34409 1.01631
 C410 C 0.42069 0.32260 0.99404
 C411 C 0.40206 0.31616 0.96880
 C412 C 0.37406 0.33229 0.96489
 H413 H 0.32441 0.36981 0.96065
 H414 H 0.38571 0.38674 1.05469
 H415 H 0.42454 0.34891 1.03593
 H416 H 0.36056 0.32775 0.94467
 H417 H 0.33943 0.41840 1.04566
 H418 H 0.40989 0.29969 0.95139
 C419 C 0.88259 0.15512 0.46533
 C420 C 0.90951 0.15181 0.48283
 C421 C 0.91499 0.12363 0.49816
 C422 C 0.89381 0.09940 0.49657
 C423 C 0.86680 0.10293 0.47900
 C424 C 0.86146 0.13087 0.46337
 C425 C 0.84569 0.07845 0.47740
 C426 C 0.85122 0.05056 0.49331
 C427 C 0.87809 0.04763 0.51095
 C428 C 0.89923 0.07170 0.51242
 H429 H 0.93595 0.12037 0.51116
 H430 H 0.84086 0.13406 0.44982
 H431 H 0.82522 0.08099 0.46353
 H432 H 0.91972 0.06873 0.52618
 H433 H 0.87762 0.17663 0.45350
 H434 H 0.88262 0.02676 0.52402
 C435 C 0.37206 0.58602 -0.04444
 C436 C 0.34414 0.59829 -0.03176
 C437 C 0.34440 0.62777 -0.01796
 C438 C 0.37229 0.64405 -0.01570
 C439 C 0.40020 0.63108 -0.02798
 C440 C 0.39973 0.60233 -0.04277
 C441 C 0.42830 0.64660 -0.02447
 C442 C 0.42913 0.67469 -0.00821
 C443 C 0.40110 0.68778 0.00326
 C444 C 0.37292 0.67269 -0.00059
 H445 H 0.32307 0.63782 -0.00848
 H446 H 0.42095 0.59202 -0.05225
 H447 H 0.44962 0.63651 -0.03399
 H448 H 0.35176 0.68300 0.00899
 H449 H 0.37284 0.56321 -0.05471
 H450 H 0.40104 0.70924 0.01612
 C451 C 0.09369 -0.13681 0.54561
 C452 C 0.10110 -0.15836 0.52226
 C453 C 0.12663 -0.15293 0.50223
 C454 C 0.14406 -0.12585 0.50497
 C455 C 0.13564 -0.10380 0.52784
 C456 C 0.11075 -0.10973 0.54833
 C457 C 0.15175 -0.07585 0.52935
 C458 C 0.17634 -0.06968 0.50845
 C459 C 0.18539 -0.09222 0.48662
 C460 C 0.16930 -0.12005 0.48481
 H461 H 0.13263 -0.16958 0.48431
 H462 H 0.10406 -0.09313 0.56606
 H463 H 0.14488 -0.05865 0.54645
 H464 H 0.17620 -0.13674 0.46724
 H465 H 0.07395 -0.14039 0.56110
 H466 H 0.20420 -0.08780 0.47022
 C467 C 0.63626 0.36990 1.03444
 C468 C 0.63452 0.39773 1.01763
 C469 C 0.60802 0.40376 1.00015
 C470 C 0.58383 0.38241 0.99926
 C471 C 0.58569 0.35468 1.01645
 C472 C 0.61203 0.34865 1.03396
 C473 C 0.56112 0.33359 1.01593
 C474 C 0.53476 0.33981 0.99825
 C475 C 0.53359 0.36728 0.98082
 C476 C 0.55776 0.38843 0.98146
 H477 H 0.60589 0.42532 0.98755
 H478 H 0.61397 0.32744 1.04717
 H479 H 0.56229 0.31268 1.02970
 H480 H 0.55609 0.40946 0.96794
 H481 H 0.65653 0.36436 1.04776
 H482 H 0.51399 0.37239 0.96642
 C483 C 0.47070 0.13364 1.15708
 C484 C 0.49710 0.11448 1.15990
 C485 C 0.52069 0.11554 1.13697
 C486 C 0.51761 0.13464 1.11110
 C487 C 0.49077 0.15349 1.10814
 C488 C 0.46765 0.15314 1.13150
 C489 C 0.48710 0.17145 1.08138
 C490 C 0.50959 0.17003 1.05736
 C491 C 0.53644 0.15174 1.06092
 C492 C 0.54053 0.13435 1.08763
 H493 H 0.54088 0.10045 1.13855
 H494 H 0.44692 0.16743 1.12968
 H495 H 0.46624 0.18537 1.07861
 H496 H 0.56126 0.12009 1.08959
 H497 H 0.45231 0.13334 1.17457
 H498 H 0.55412 0.15061 1.04273
 C499 C 0.00729 0.64998 0.63702
 C500 C -0.01352 0.65126 0.61260
 C501 C -0.03595 0.62813 0.61003
 C502 C -0.03651 0.60307 0.63066
 C503 C -0.01504 0.60167 0.65481
 C504 C 0.00634 0.62557 0.65815
 C505 C -0.01436 0.57574 0.67433
 C506 C -0.03416 0.55073 0.66937
 C507 C -0.05582 0.55259 0.64574
 C508 C -0.05723 0.57869 0.62674
 H509 H -0.05179 0.62879 0.59098
 H510 H 0.02296 0.62487 0.67650
 H511 H 0.00270 0.57423 0.69226
 H512 H -0.07382 0.57935 0.60837
 H513 H 0.02465 0.66770 0.63941
 H514 H -0.07131 0.53354 0.64167
 C515 C 0.53852 0.91156 -0.12409
 C516 C 0.51462 0.90674 -0.14499
 C517 C 0.49185 0.88457 -0.13800
 C518 C 0.49276 0.86767 -0.11034
 C519 C 0.51657 0.87321 -0.08923
 C520 C 0.53944 0.89502 -0.09643
 C521 C 0.51703 0.85695 -0.06121
 C522 C 0.49425 0.83487 -0.05413
 C523 C 0.47101 0.82910 -0.07548
 C524 C 0.47017 0.84547 -0.10329
 H525 H 0.47348 0.88051 -0.15410
 H526 H 0.55789 0.89951 -0.08055
 H527 H 0.53527 0.86122 -0.04501
 H528 H 0.45179 0.84086 -0.11921
 H529 H 0.55609 0.92878 -0.12878
 H530 H 0.45318 0.81225 -0.07039
 C531 C 1.05643 0.36492 0.39483
 C532 C 1.02823 0.34848 0.39564
 C533 C 1.00402 0.35913 0.37672
 C534 C 1.00742 0.38592 0.35867
 C535 C 1.03528 0.40274 0.35945
 C536 C 1.05977 0.39178 0.37718
 C537 C 1.03798 0.43053 0.34289
 C538 C 1.01331 0.44148 0.32515
 C539 C 0.98616 0.42397 0.32347
 C540 C 0.98316 0.39647 0.34021
 H541 H 0.98258 0.34641 0.37545
 H542 H 1.08136 0.40436 0.37795
 H543 H 1.05913 0.44382 0.34396
 H544 H 0.96168 0.38375 0.33913
 H545 H 1.07554 0.35842 0.40931
 H546 H 0.96687 0.43212 0.30996
 C547 C 0.53959 0.92248 0.11939
 C548 C 0.52061 0.91470 0.14534
 C549 C 0.50233 0.88780 0.14332
 C550 C 0.50240 0.86995 0.11627
 C551 C 0.52114 0.87859 0.09062
 C552 C 0.53984 0.90468 0.09255
 C553 C 0.52059 0.86126 0.06329
 C554 C 0.50134 0.83534 0.06114
 C555 C 0.48314 0.82662 0.08703
 C556 C 0.48373 0.84369 0.11435
 H557 H 0.48844 0.87999 0.16289
 H558 H 0.55425 0.91177 0.07301
 H559 H 0.53511 0.86798 0.04369
 H560 H 0.46917 0.83665 0.13379
 H561 H 0.55327 0.94327 0.11876
 H562 H 0.46781 0.80700 0.08594
 C563 C -0.04254 0.36684 0.58783
 C564 C -0.01607 0.34837 0.59299
 C565 C 0.00392 0.35635 0.61679
 C566 C -0.00225 0.38271 0.63494
 C567 C -0.02859 0.40146 0.62904
 C568 C -0.04872 0.39316 0.60564
 C569 C -0.03418 0.42840 0.64636
 C570 C -0.01392 0.43683 0.66973
 C571 C 0.01177 0.41768 0.67596
 C572 C 0.01763 0.39089 0.65864
 H573 H 0.02425 0.34210 0.62110
 H574 H -0.06902 0.40725 0.60084
 H575 H -0.05427 0.44286 0.64169
 H576 H 0.03788 0.37677 0.66356
 H577 H -0.05805 0.36138 0.56938
 H578 H 0.02776 0.42386 0.69377
 C579 C 0.47773 0.13165 0.84103
 C580 C 0.49971 0.10725 0.84128
 C581 C 0.51918 0.10435 0.86674
 C582 C 0.51677 0.12509 0.89143
 C583 C 0.49408 0.14896 0.89139
 C584 C 0.47484 0.15220 0.86591
 C585 C 0.49065 0.16864 0.91709
 C586 C 0.50975 0.16465 0.94274
 C587 C 0.53314 0.14164 0.94169
 C588 C 0.53646 0.12193 0.91644
 H589 H 0.53572 0.08534 0.86798
 H590 H 0.45744 0.17050 0.86529
 H591 H 0.47251 0.18623 0.91756
 H592 H 0.55428 0.10401 0.91662
 H593 H 0.46272 0.13491 0.82161
 H594 H 0.54879 0.13861 0.96065
 C595 C 0.98930 0.65223 0.37425
 C596 C 1.01260 0.65193 0.39635
 C597 C 1.03568 0.62868 0.39515
 C598 C 1.03452 0.60500 0.37307
 C599 C 1.01052 0.60514 0.35138
 C600 C 0.98841 0.62920 0.35178
 C601 C 1.00822 0.58056 0.33052
 C602 C 1.02905 0.55534 0.33159
 C603 C 1.05325 0.55572 0.35273
 C604 C 1.05614 0.58048 0.37313
 H605 H 1.05353 0.62815 0.41235
 H606 H 0.96989 0.62970 0.33531
 H607 H 0.98922 0.58023 0.31457
 H608 H 1.07470 0.57998 0.38954
 H609 H 0.97145 0.67012 0.37470
 H610 H 1.06965 0.53657 0.35378
 C611 C 1.14963 0.53245 0.11410
 C612 C 1.14439 0.51628 0.08645
 C613 C 1.11600 0.50060 0.08384
 C614 C 1.09333 0.50166 0.10749
 C615 C 1.09846 0.51883 0.13449
 C616 C 1.12681 0.53395 0.13766
 C617 C 1.07506 0.52068 0.15768
 C618 C 1.04672 0.50528 0.15415
 C619 C 1.04258 0.48733 0.12756
 C620 C 1.06551 0.48570 0.10442
 H621 H 1.11168 0.48647 0.06383
 H622 H 1.13126 0.54719 0.15825
 H623 H 1.07865 0.53454 0.17805
 H624 H 1.06142 0.47201 0.08403
 H625 H 1.17072 0.54531 0.11718
 H626 H 1.02149 0.47438 0.12459
 C627 C 0.63941 -0.02379 0.65123
 C628 C 0.61825 0.00097 0.65540
 C629 C 0.61900 0.02577 0.63440
 C630 C 0.63973 0.02539 0.60901
 C631 C 0.66045 0.00006 0.60457
 C632 C 0.66044 -0.02418 0.62611
 C633 C 0.67990 -0.00109 0.57807
 C634 C 0.67822 0.02242 0.55574
 C635 C 0.65822 0.04790 0.56091
 C636 C 0.63926 0.04947 0.58738
 H637 H 0.60247 0.04476 0.63700
 H638 H 0.67619 -0.04375 0.62317
 H639 H 0.69514 -0.02091 0.57407
 H640 H 0.62362 0.06910 0.59051
 H641 H 0.63952 -0.04300 0.66729
 H642 H 0.65686 0.06637 0.54406
 C643 C -0.14476 0.45889 0.92004
 C644 C -0.16446 0.48488 0.91759
 C645 C -0.15772 0.50751 0.89515
 C646 C -0.13137 0.50436 0.87559
 C647 C -0.11130 0.47848 0.87886
 C648 C -0.11835 0.45577 0.90094
 C649 C -0.08435 0.47587 0.86019
 C650 C -0.07731 0.49855 0.83796
 C651 C -0.09779 0.52373 0.83420
 C652 C -0.12452 0.52673 0.85301
 H653 H -0.17295 0.52751 0.89297
 H654 H -0.10326 0.43576 0.90368
 H655 H -0.06882 0.45616 0.86289
 H656 H -0.13970 0.54664 0.85006
 H657 H -0.14935 0.44135 0.93738
 H658 H -0.09269 0.54145 0.81719
 C659 C 0.42964 -0.02843 0.38352
 C660 C 0.41848 -0.01094 0.35862
 C661 C 0.38928 0.00391 0.36179
 C662 C 0.37181 0.00172 0.38950
 C663 C 0.38345 -0.01579 0.41432
 C664 C 0.41225 -0.03095 0.41099
 C665 C 0.36631 -0.01754 0.44220
 C666 C 0.33772 -0.00171 0.44589
 C667 C 0.32625 0.01544 0.42092
 C668 C 0.34307 0.01706 0.39298
 H669 H 0.38016 0.01719 0.34275
 H670 H 0.42160 -0.04437 0.42982
 H671 H 0.37524 -0.03128 0.46102
 H672 H 0.33379 0.03066 0.37425
 H673 H 0.45225 -0.03962 0.38210
 H674 H 0.30452 0.02819 0.42318
 C675 C 0.14379 0.51438 0.84982
 C676 C 0.14499 0.49525 0.87603
 C677 C 0.11954 0.47629 0.88340
 C678 C 0.09280 0.47729 0.86562
 C679 C 0.09153 0.49715 0.83973
 C680 C 0.11736 0.51520 0.83173
 C681 C 0.06412 0.49936 0.82294
 C682 C 0.03777 0.48237 0.83203
 C683 C 0.03960 0.46213 0.85735
 C684 C 0.06689 0.45953 0.87392
 H685 H 0.11994 0.46183 0.90384
 H686 H 0.11685 0.53048 0.81191
 H687 H 0.06287 0.51526 0.80364
 H688 H 0.06751 0.44409 0.89362
 H689 H 0.16320 0.52898 0.84353
 H690 H 0.01975 0.44849 0.86449
 C691 C 0.64633 -0.00786 0.33910
 C692 C 0.62010 0.01195 0.34035
 C693 C 0.61575 0.03143 0.36612
 C694 C 0.63664 0.03078 0.39034
 C695 C 0.66214 0.00993 0.38943
 C696 C 0.66702 -0.00901 0.36349
 C697 C 0.68173 0.00780 0.41482
 C698 C 0.67609 0.02640 0.44106
 C699 C 0.65158 0.04822 0.44081
 C700 C 0.63193 0.05022 0.41584
 H701 H 0.59546 0.04639 0.36811
 H702 H 0.68664 -0.02492 0.36218
 H703 H 0.70046 -0.00918 0.41466
 H704 H 0.61275 0.06669 0.41668
 H705 H 0.65085 -0.02267 0.31937
 H706 H 0.64724 0.06350 0.46024
 C707 C 0.86423 0.46798 0.10039
 C708 C 0.83983 0.48702 0.11184
 C709 C 0.84466 0.50507 0.13830
 C710 C 0.87367 0.50458 0.15258
 C711 C 0.89792 0.48561 0.14038
 C712 C 0.89284 0.46713 0.11461
 C713 C 0.92723 0.48600 0.15353
 C714 C 0.93315 0.50557 0.17848
 C715 C 0.90874 0.52366 0.19124
 C716 C 0.87919 0.52315 0.17839
 H717 H 0.82606 0.51970 0.14753
 H718 H 0.91129 0.45258 0.10493
 H719 H 0.94572 0.47143 0.14394
 H720 H 0.86089 0.53778 0.18819
 H721 H 0.86161 0.45439 0.07969
 H722 H 0.91279 0.53889 0.21049
 C723 C 0.41941 -0.03760 0.62672
 C724 C 0.41262 -0.01414 0.64833
 C725 C 0.38787 0.00657 0.64305
 C726 C 0.37038 0.00413 0.61627
 C727 C 0.37803 -0.01902 0.59426
 C728 C 0.40238 -0.03994 0.59985
 C729 C 0.36138 -0.02071 0.56691
 C730 C 0.33677 0.00007 0.56151
 C731 C 0.32876 0.02244 0.58386
 C732 C 0.34556 0.02461 0.61093
 H733 H 0.38236 0.02459 0.65974
 H734 H 0.40847 -0.05789 0.58329
 H735 H 0.36740 -0.03825 0.54987
 H736 H 0.33927 0.04240 0.62760
 H737 H 0.43857 -0.05359 0.63020
 H738 H 0.30988 0.03868 0.58003
   
