data_POSCAR
  _audit_creation_date              2014-09-24
  _audit_creation_method            'ToBaCCo'
  _symmetry_space_group_name_H-M    'P1'
  _symmetry_Int_Tables_number       1
  _symmetry_cell_setting            triclinic
  loop_
  _symmetry_equiv_pos_as_xyz
 x,y,z
_cell_length_a 42.6147
_cell_length_b 42.6874
_cell_length_c 42.6099
_cell_angle_alpha 89.819500
_cell_angle_beta 89.940000
_cell_angle_gamma 90.113200
loop_
  _atom_site_label
  _atom_site_type_symbol
  _atom_site_fract_x
  _atom_site_fract_y
  _atom_site_fract_z
C1 C 0.16252 0.18669 0.20800
 C2 C 0.16104 0.20883 0.18361
 C3 C 0.18226 0.20749 0.15896
 C4 C 0.20566 0.18434 0.15874
 C5 C 0.20728 0.16301 0.18305
 C6 C 0.18531 0.16385 0.20744
 C7 C 0.14409 0.18105 0.23404
 N8 N 0.15477 0.15479 0.24894
 C9 C 0.18029 0.14449 0.23269
 C10 C 0.23231 0.14373 0.17735
 N11 N 0.24628 0.15253 0.14992
 C12 C 0.22971 0.17732 0.13826
 C13 C 0.17482 0.23136 0.13849
 N14 N 0.14983 0.24723 0.15023
 C15 C 0.14126 0.23360 0.17780
 H16 H 0.12337 0.19421 0.24033
 H17 H 0.19455 0.12438 0.23852
 H18 H 0.23911 0.12420 0.19205
 H19 H 0.23519 0.19025 0.11707
 H20 H 0.18695 0.23705 0.11687
 H21 H 0.12184 0.24097 0.19239
 C22 C -0.15407 0.82250 0.20344
 C23 C -0.15442 0.79808 0.18145
 C24 C -0.17904 0.79551 0.16043
 C25 C -0.20331 0.81770 0.16071
 C26 C -0.20266 0.84194 0.18205
 C27 C -0.17818 0.84401 0.20394
 C28 C -0.13359 0.83045 0.22710
 N29 N -0.14492 0.85604 0.24253
 C30 C -0.17224 0.86442 0.22811
 C31 C -0.22815 0.86070 0.17597
 N32 N -0.24461 0.84847 0.15143
 C33 C -0.22948 0.82186 0.14227
 C34 C -0.17309 0.76989 0.14179
 N35 N -0.14537 0.75704 0.15082
 C36 C -0.13380 0.77414 0.17506
 H37 H -0.11272 0.81744 0.23324
 H38 H -0.18682 0.88421 0.23417
 H39 H -0.23418 0.88155 0.18898
 H40 H -0.23590 0.80718 0.12264
 H41 H -0.18742 0.76172 0.12251
 H42 H -0.11193 0.76955 0.18711
 C43 C -0.16384 0.18182 -0.20853
 C44 C -0.16427 0.20642 -0.18678
 C45 C -0.18666 0.20684 -0.16325
 C46 C -0.20866 0.18244 -0.16094
 C47 C -0.20765 0.15784 -0.18184
 C48 C -0.18515 0.15760 -0.20589
 C49 C -0.14483 0.17532 -0.23379
 N50 N -0.15389 0.14749 -0.24666
 C51 C -0.17859 0.13657 -0.22935
 C52 C -0.23084 0.13704 -0.17330
 N53 N -0.24639 0.14848 -0.14779
 C54 C -0.23270 0.17640 -0.14022
 C55 C -0.18053 0.23252 -0.14475
 N56 N -0.15473 0.24740 -0.15624
 C57 C -0.14475 0.23166 -0.18206
 H58 H -0.12524 0.18961 -0.24136
 H59 H -0.19166 0.11529 -0.23367
 H60 H -0.23630 0.11560 -0.18560
 H61 H -0.23887 0.19108 -0.12053
 H62 H -0.19293 0.23895 -0.12355
 H63 H -0.12430 0.23767 -0.19593
 C64 C 0.16836 0.81203 -0.21319
 C65 C 0.16946 0.78673 -0.19223
 C66 C 0.19161 0.78609 -0.16848
 C67 C 0.21293 0.81107 -0.16538
 C68 C 0.21116 0.83635 -0.18561
 C69 C 0.18874 0.83685 -0.20962
 C70 C 0.14864 0.81924 -0.23767
 N71 N 0.15625 0.84818 -0.24899
 C72 C 0.18081 0.85907 -0.23164
 C73 C 0.23300 0.85795 -0.17609
 N74 N 0.24857 0.84655 -0.15057
 C75 C 0.23626 0.81769 -0.14399
 C76 C 0.18505 0.76024 -0.15007
 N77 N 0.15925 0.74568 -0.16189
 C78 C 0.14978 0.76161 -0.18780
 H79 H 0.12926 0.80485 -0.24550
 H80 H 0.19265 0.88128 -0.23489
 H81 H 0.23738 0.88010 -0.18767
 H82 H 0.24273 0.80287 -0.12441
 H83 H 0.19677 0.75379 -0.12848
 H84 H 0.12915 0.75617 -0.20157
 C85 C 0.18788 1.16212 0.79312
 C86 C 0.20906 1.16189 0.81828
 C87 C 0.20622 1.18376 0.84198
 C88 C 0.18250 1.20641 0.84057
 C89 C 0.16227 1.20724 0.81531
 C90 C 0.16491 1.18482 0.79141
 C91 C 0.18341 1.14213 0.76830
 N92 N 0.15822 1.15205 0.75123
 C93 C 0.14712 1.17853 0.76522
 C94 C 0.14161 1.23144 0.82042
 N95 N 0.14852 1.24527 0.84843
 C96 C 0.17362 1.22979 0.86080
 C97 C 0.22913 1.17741 0.86379
 N98 N 0.24602 1.15244 0.85370
 C99 C 0.23387 1.14274 0.82591
 H100 H 0.19769 1.12182 0.76335
 H101 H 0.12638 1.19137 0.75830
 H102 H 0.12230 1.23752 0.80514
 H103 H 0.18535 1.23532 0.88259
 H104 H 0.23339 1.19017 0.88528
 H105 H 0.24219 1.12291 0.81249
 C106 C 0.81308 0.84046 0.79202
 C107 C 0.78862 0.83764 0.81392
 C108 C 0.78928 0.81386 0.83596
 C109 C 0.81415 0.79248 0.83628
 C110 C 0.83857 0.79558 0.81520
 C111 C 0.83804 0.81986 0.79285
 C112 C 0.81863 0.86132 0.76803
 N113 N 0.84653 0.85419 0.75406
 C114 C 0.85853 0.82880 0.76947
 C115 C 0.85966 0.77198 0.82170
 N116 N 0.84836 0.75423 0.84594
 C117 C 0.82046 0.76699 0.85491
 C118 C 0.76389 0.81787 0.85542
 N119 N 0.74783 0.84363 0.84583
 C120 C 0.76262 0.85571 0.82023
 H121 H 0.80353 0.88075 0.76202
 H122 H 0.88012 0.81683 0.76376
 H123 H 0.88110 0.76769 0.80881
 H124 H 0.80588 0.75908 0.87416
 H125 H 0.75806 0.80360 0.87566
 H126 H 0.75595 0.87702 0.80815
 C127 C 0.18341 0.83394 1.21136
 C128 C 0.20671 0.83389 1.18800
 C129 C 0.20648 0.81093 1.16512
 C130 C 0.18321 0.78771 1.16533
 C131 C 0.16037 0.78779 1.18836
 C132 C 0.16070 0.81085 1.21166
 C133 C 0.17669 0.85403 1.23569
 N134 N 0.15063 0.84342 1.25113
 C135 C 0.14091 0.81687 1.23632
 C136 C 0.13966 0.76402 1.18161
 N137 N 0.14954 0.74942 1.15513
 C138 C 0.17627 0.76364 1.14508
 C139 C 0.23050 0.81747 1.14461
 N140 N 0.24552 0.84372 1.15450
 C141 C 0.23121 0.85389 1.18110
 H142 H 0.19034 0.87449 1.24181
 H143 H 0.12014 0.80336 1.24195
 H144 H 0.11866 0.75810 1.19467
 H145 H 0.18895 0.75772 1.12389
 H146 H 0.23648 0.80419 1.12384
 H147 H 0.23750 0.87486 1.19388
 C148 C 0.81795 1.16169 1.20816
 C149 C 0.79395 1.16135 1.18576
 C150 C 0.79147 1.18543 1.16417
 C151 C 0.81342 1.20997 1.16443
 C152 C 0.83730 1.21018 1.18646
 C153 C 0.83929 1.18601 1.20882
 C154 C 0.82611 1.14095 1.23138
 N155 N 0.85188 1.15203 1.24673
 C156 C 0.85997 1.17980 1.23289
 C157 C 0.85616 1.23559 1.17983
 N158 N 0.84425 1.25078 1.15442
 C159 C 0.81802 1.23533 1.14498
 C160 C 0.76658 1.17837 1.14480
 N161 N 0.75421 1.15047 1.15407
 C162 C 0.77083 1.13992 1.17910
 H163 H 0.81335 1.11972 1.23692
 H164 H 0.88001 1.19414 1.23893
 H165 H 0.87725 1.24227 1.19230
 H166 H 0.80402 1.24138 1.12467
 H167 H 0.75869 1.19199 1.12485
 H168 H 0.76652 1.11812 1.19145
 O169 O 0.45348 0.94132 0.95049
 O170 O 0.42024 0.97309 0.97827
 C171 C 0.42561 0.95070 0.95852
 O172 O 0.54317 0.94212 1.05993
 O173 O 0.57783 0.97079 1.03010
 C174 C 0.57142 0.95001 1.05149
 O175 O 0.45473 0.94162 1.05894
 O176 O 0.42082 0.97215 1.03043
 C177 C 0.42666 0.95022 1.05066
 O178 O 0.54187 0.94314 0.94578
 O179 O 0.57697 0.97031 0.97612
 C180 C 0.57028 0.95041 0.95421
 Zr181 Zr 0.49819 0.95859 0.96411
 O182 O 0.50093 0.90908 0.96379
 O183 O 0.49384 0.95914 0.91462
 Zr184 Zr 0.49914 0.95853 1.04361
 O185 O 0.50129 0.90900 1.04439
 O186 O 0.49657 0.95955 1.09323
 O187 O 0.47064 0.95290 1.00424
 O188 O 0.52570 0.95236 1.00349
 O189 O 0.54382 1.05261 0.94640
 O190 O 0.57813 1.02281 0.97528
 C191 C 0.57196 1.04385 0.95413
 O192 O 0.45726 1.05598 1.05886
 O193 O 0.42186 1.02693 1.03059
 C194 C 0.42881 1.04849 1.05085
 O195 O 0.54540 1.05221 1.06004
 O196 O 0.57869 1.02286 1.02977
 C197 C 0.57330 1.04351 1.05135
 O198 O 0.45560 1.05607 0.94947
 O199 O 0.42133 1.02677 0.97896
 C200 C 0.42741 1.04826 0.95829
 Zr201 Zr 0.49967 1.03780 0.96392
 O202 O 0.50367 1.08724 0.96338
 O203 O 0.49591 1.03714 0.91438
 Zr204 Zr 0.50078 1.03767 1.04341
 O205 O 0.50497 1.08709 1.04364
 O206 O 0.49814 1.03696 1.09303
 Zr207 Zr 0.45296 0.99900 1.00441
 Zr208 Zr 0.54604 0.99735 1.00312
 O209 O 0.52749 1.04300 1.00327
 O210 O 0.47246 1.04440 1.00406
 O211 O 0.52690 0.99774 0.95750
 O212 O 0.47274 0.99858 1.04961
 O213 O 0.47166 0.99866 0.95869
 O214 O 0.52809 0.99758 1.04924
 H215 H 0.53942 0.93365 1.00327
 H216 H 0.45859 0.99878 1.06807
 H217 H 0.54194 1.06121 1.00310
 H218 H 0.45719 0.99891 0.94050
 H219 H 0.51555 0.97045 1.10094
 H220 H 0.51607 1.02450 1.10082
 H221 H 0.48788 1.09555 1.03044
 H222 H 0.48677 1.09563 0.97686
 H223 H 0.51408 1.02532 0.90616
 H224 H 0.51163 0.97147 0.90616
 H225 H 0.48400 0.90105 0.97753
 H226 H 0.48409 0.90112 1.03097
 O227 O 0.05460 0.45467 -0.05798
 O228 O 0.02517 0.42097 -0.02782
 C229 C 0.04631 0.42673 -0.04903
 O230 O 0.05302 0.54564 0.05188
 O231 O 0.02466 0.57930 0.02086
 C232 C 0.04490 0.57359 0.04287
 O233 O 0.05510 0.45757 0.05223
 O234 O 0.02526 0.42241 0.02459
 C235 C 0.04684 0.42918 0.04495
 O236 O 0.05377 0.54248 -0.06218
 O237 O 0.02501 0.57763 -0.03354
 C238 C 0.04573 0.57086 -0.05477
 Zr239 Zr 0.03804 0.49909 -0.04353
 O240 O 0.08765 0.50184 -0.04293
 O241 O 0.03826 0.49490 -0.09302
 Zr242 Zr 0.03794 0.50118 0.03573
 O243 O 0.08752 0.50430 0.03547
 O244 O 0.03782 0.49925 0.08539
 O245 O 0.04406 0.47212 -0.00307
 O246 O 0.04387 0.52729 -0.00470
 O247 O -0.05630 0.54284 -0.06221
 O248 O -0.02718 0.57798 -0.03373
 C249 C -0.04785 0.57120 -0.05501
 O250 O -0.05994 0.45836 0.05155
 O251 O -0.02946 0.42298 0.02506
 C252 C -0.05166 0.42995 0.04469
 O253 O -0.05603 0.54630 0.05194
 O254 O -0.02711 0.57949 0.02087
 C255 C -0.04742 0.57417 0.04294
 O256 O -0.05919 0.45479 -0.05706
 O257 O -0.02894 0.42124 -0.02782
 C258 C -0.05065 0.42686 -0.04836
 Zr259 Zr -0.04138 0.49925 -0.04354
 O260 O -0.09094 0.50276 -0.04346
 O261 O -0.04124 0.49460 -0.09299
 Zr262 Zr -0.04140 0.50160 0.03570
 O263 O -0.09092 0.50547 0.03592
 O264 O -0.04089 0.49934 0.08534
 Zr265 Zr -0.00183 0.45362 -0.00247
 Zr266 Zr -0.00143 0.54675 -0.00540
 O267 O -0.04697 0.52765 -0.00478
 O268 O -0.04760 0.47243 -0.00304
 O269 O -0.00153 0.52692 -0.05062
 O270 O -0.00191 0.47431 0.04230
 O271 O -0.00181 0.47189 -0.04843
 O272 O -0.00156 0.52946 0.04099
 H273 H 0.06237 0.54138 -0.00505
 H274 H -0.00208 0.46063 0.06113
 H275 H -0.06526 0.54194 -0.00513
 H276 H -0.00198 0.45738 -0.06653
 H277 H 0.02501 0.51698 0.09298
 H278 H -0.02874 0.51754 0.09298
 H279 H -0.09930 0.48843 0.02266
 H280 H -0.09923 0.48524 -0.03065
 H281 H -0.02855 0.51203 -0.10166
 H282 H 0.02525 0.51207 -0.10157
 H283 H 0.09549 0.48369 -0.03077
 H284 H 0.09554 0.48640 0.02317
 O285 O 1.05671 -0.05475 0.54627
 O286 O 1.02775 -0.02451 0.57990
 C287 C 1.04857 -0.04588 0.57426
 O288 O 1.05820 0.05780 0.45665
 O289 O 1.03014 0.02734 0.42234
 C290 C 1.05039 0.04919 0.42847
 O291 O 1.06039 0.05542 0.54493
 O292 O 1.02958 0.02750 0.57933
 C293 C 1.05178 0.04745 0.57311
 O294 O 1.05466 -0.05850 0.45834
 O295 O 1.02921 -0.02674 0.42313
 C296 C 1.04786 -0.04976 0.42994
 Zr297 Zr 1.04066 -0.03920 0.50182
 O298 O 1.09027 -0.03953 0.49883
 O299 O 1.04011 -0.08862 0.50583
 Zr300 Zr 1.04345 0.03996 0.50084
 O301 O 1.09294 0.03672 0.49780
 O302 O 1.04672 0.08932 0.50374
 O303 O 1.04786 0.00043 0.52942
 O304 O 1.04818 -0.00004 0.47409
 O305 O 0.94581 -0.05339 0.45650
 O306 O 0.97688 -0.02565 0.42225
 C307 C 0.95516 -0.04607 0.42837
 O308 O 0.94631 0.05804 0.54394
 O309 O 0.97469 0.02833 0.57876
 C310 C 0.95352 0.04907 0.57224
 O311 O 0.95059 0.06035 0.45524
 O312 O 0.97781 0.02827 0.42180
 C313 C 0.95838 0.05090 0.42731
 O314 O 0.94202 -0.04977 0.54475
 O315 O 0.97383 -0.02347 0.57922
 C316 C 0.95082 -0.04236 0.57296
 Zr317 Zr 0.96130 -0.03662 0.50073
 O318 O 0.91181 -0.03600 0.49673
 O319 O 0.96058 -0.08607 0.50481
 Zr320 Zr 0.96418 0.04272 0.49994
 O321 O 0.91474 0.04477 0.49575
 O322 O 0.96642 0.09217 0.50312
 Zr323 Zr 1.00181 0.00203 0.54739
 Zr324 Zr 1.00302 0.00122 0.45426
 O325 O 0.95737 0.00301 0.47312
 O326 O 0.95624 0.00345 0.52814
 O327 O 1.00112 -0.04434 0.47340
 O328 O 1.00363 0.04724 0.52762
 O329 O 1.00039 -0.04344 0.52852
 O330 O 1.00435 0.04716 0.47235
 H331 H 1.06660 -0.00066 0.45988
 H332 H 1.00390 0.06565 0.54171
 H333 H 0.93909 0.00348 0.45877
 H334 H 0.99951 -0.06170 0.54290
 H335 H 1.03144 0.09809 0.48867
 H336 H 0.97825 0.09994 0.48468
 H337 H 0.90573 0.03217 0.51308
 H338 H 0.90382 -0.02106 0.51251
 H339 H 0.97096 -0.09474 0.48596
 H340 H 1.02449 -0.09652 0.49062
 H341 H 1.09847 -0.02832 0.51739
 H342 H 1.10040 0.02601 0.51700
 C343 C 1.11189 0.11013 0.32507
 C344 C 1.13325 0.09363 0.30653
 C345 C 1.14811 0.10869 0.28159
 C346 C 1.14135 0.14025 0.27442
 C347 C 1.11983 0.15596 0.29405
 N348 N 1.10610 0.14080 0.31865
 C349 C 1.09545 0.09447 0.35118
 N350 N 1.09295 0.10901 0.37946
 C351 C 1.07876 0.09505 0.40451
 C352 C 1.06564 0.06498 0.40159
 C353 C 1.06731 0.05006 0.37236
 C354 C 1.08245 0.06456 0.34725
 H355 H 1.16386 0.09493 0.26737
 H356 H 1.11428 0.18038 0.29039
 H357 H 1.07756 0.10751 0.42656
 H358 H 1.05725 0.02703 0.36901
 H359 H 1.13848 0.06926 0.31134
 H360 H 1.08372 0.05268 0.32486
 C361 C 0.89512 -0.10251 0.32183
 C362 C 0.86376 -0.09629 0.31434
 C363 C 0.85052 -0.10965 0.28761
 C364 C 0.86819 -0.12985 0.26834
 C365 C 0.89975 -0.13523 0.27687
 N366 N 0.91223 -0.12139 0.30273
 C367 C 0.91006 -0.08854 0.34975
 N368 N 0.94039 -0.07862 0.34800
 C369 C 0.95526 -0.06511 0.37276
 C370 C 0.93961 -0.06147 0.40154
 C371 C 0.90858 -0.07220 0.40404
 C372 C 0.89365 -0.08550 0.37816
 H373 H 0.82611 -0.10477 0.28291
 H374 H 0.91491 -0.14972 0.26272
 H375 H 0.97933 -0.05740 0.37000
 H376 H 0.89569 -0.06980 0.42582
 H377 H 0.84967 -0.08095 0.32881
 H378 H 0.86968 -0.09366 0.38044
 C379 C 0.88831 0.10374 0.67649
 C380 C 0.86829 0.08648 0.69611
 C381 C 0.85385 0.10111 0.72149
 C382 C 0.85955 0.13301 0.72792
 C383 C 0.87967 0.14942 0.70723
 N384 N 0.89307 0.13465 0.68238
 C385 C 0.90451 0.08897 0.64975
 N386 N 0.90884 0.10552 0.62270
 C387 C 0.92396 0.09320 0.59743
 C388 C 0.93639 0.06283 0.59894
 C389 C 0.93246 0.04555 0.62674
 C390 C 0.91638 0.05843 0.65207
 H391 H 0.83908 0.08689 0.73645
 H392 H 0.88435 0.17410 0.71014
 H393 H 0.92674 0.10732 0.57646
 H394 H 0.94164 0.02198 0.62882
 H395 H 0.86365 0.06192 0.69176
 H396 H 0.91388 0.04488 0.67345
 C397 C 1.11051 -0.10528 0.67804
 C398 C 1.12832 -0.08801 0.69949
 C399 C 1.14408 -0.10354 0.72358
 C400 C 1.14149 -0.13631 0.72700
 C401 C 1.12310 -0.15257 0.70483
 N402 N 1.10869 -0.13692 0.68108
 C403 C 1.09413 -0.08977 0.65196
 N404 N 1.09617 -0.10203 0.62260
 C405 C 1.08189 -0.08846 0.59751
 C406 C 1.06384 -0.06122 0.60140
 C407 C 1.06067 -0.04890 0.63174
 C408 C 1.07616 -0.06281 0.65697
 H409 H 1.15733 -0.08955 0.74002
 H410 H 1.12087 -0.17777 0.70559
 H411 H 1.08455 -0.09907 0.57463
 H412 H 1.04631 -0.02850 0.63601
 H413 H 1.13033 -0.06279 0.69737
 H414 H 1.07369 -0.05296 0.68024
 C415 C 0.32548 1.11115 1.10993
 C416 C 0.31904 1.10643 1.14179
 C417 C 0.29254 1.12004 1.15508
 C418 C 0.27242 1.13902 1.13692
 C419 C 0.28016 1.14339 1.10499
 N420 N 0.30581 1.12917 1.09244
 C421 C 0.35268 1.09604 1.09495
 N422 N 0.34941 1.08317 1.06596
 C423 C 0.37333 1.06789 1.05149
 C424 C 0.40273 1.06536 1.06610
 C425 C 0.40676 1.07910 1.09568
 C426 C 0.38174 1.09422 1.11028
 H427 H 0.28856 1.11622 1.17984
 H428 H 0.26541 1.15710 1.08962
 H429 H 0.36938 1.05785 1.02858
 H430 H 0.42908 1.07769 1.10774
 H431 H 0.33406 1.09186 1.15619
 H432 H 0.38513 1.10460 1.13319
 C433 C 0.32063 0.89193 0.89794
 C434 C 0.30090 0.90925 0.87825
 C435 C 0.27695 0.89415 0.86200
 C436 C 0.27203 0.86163 0.86552
 C437 C 0.29235 0.84528 0.88593
 N438 N 0.31599 0.86054 0.90099
 C439 C 0.34690 0.90710 0.91460
 N440 N 0.37486 0.89192 0.91710
 C441 C 0.40026 0.90526 0.93108
 C442 C 0.39816 0.93546 0.94388
 C443 C 0.36929 0.95113 0.94224
 C444 C 0.34371 0.93713 0.92747
 H445 H 0.26197 0.90839 0.84736
 H446 H 0.29034 0.82026 0.88921
 H447 H 0.42200 0.89225 0.93224
 H448 H 0.36662 0.97443 0.95187
 H449 H 0.30429 0.93420 0.87495
 H450 H 0.32163 0.94959 0.92632
 C451 C 0.67591 0.88797 1.10972
 C452 C 0.68278 0.85633 1.10456
 C453 C 0.70940 0.84311 1.11829
 C454 C 0.72906 0.86112 1.13785
 C455 C 0.72086 0.89280 1.14254
 N456 N 0.69522 0.90524 1.12824
 C457 C 0.64862 0.90319 1.09484
 N458 N 0.65152 0.93300 1.08375
 C459 C 0.62733 0.94829 1.06969
 C460 C 0.59791 0.93376 1.06681
 C461 C 0.59428 0.90322 1.07857
 C462 C 0.61964 0.88775 1.09233
 H463 H 0.71390 0.81858 1.11407
 H464 H 0.73525 0.90818 1.15655
 H465 H 0.63100 0.97187 1.06110
 H466 H 0.57198 0.89116 1.07675
 H467 H 0.66805 0.84208 1.08959
 H468 H 0.61649 0.86422 1.10135
 C469 C 0.67684 1.10610 0.89645
 C470 C 0.68319 1.13783 0.90183
 C471 C 0.70909 1.15190 0.88753
 C472 C 0.72864 1.13464 0.86724
 C473 C 0.72136 1.10266 0.86283
 N474 N 0.69626 1.08942 0.87753
 C475 C 0.64951 1.09049 0.91095
 N476 N 0.65222 1.06051 0.92165
 C477 C 0.62785 1.04508 0.93547
 C478 C 0.59855 1.05975 0.93855
 C479 C 0.59514 1.09038 0.92705
 C480 C 0.62059 1.10588 0.91348
 H481 H 0.71291 1.17656 0.89173
 H482 H 0.73585 1.08780 0.84839
 H483 H 0.63131 1.02136 0.94382
 H484 H 0.57295 1.10254 0.92903
 H485 H 0.66840 1.15161 0.91717
 H486 H 0.61755 1.12951 0.90468
 C487 C 0.10687 0.32616 0.10815
 C488 C 0.10990 0.32475 0.14094
 C489 C 0.12387 0.29864 0.15482
 C490 C 0.13515 0.27413 0.13614
 C491 C 0.13166 0.27640 0.10347
 N492 N 0.11753 0.30187 0.09048
 C493 C 0.09182 0.35313 0.09246
 N494 N 0.07451 0.34826 0.06609
 C495 C 0.05990 0.37204 0.05064
 C496 C 0.06274 0.40301 0.06135
 C497 C 0.08089 0.40854 0.08826
 C498 C 0.09530 0.38371 0.10393
 H499 H 0.12623 0.29773 0.18010
 H500 H 0.13971 0.25774 0.08837
 H501 H 0.04616 0.36668 0.03001
 H502 H 0.08377 0.43202 0.09738
 H503 H 0.10110 0.34334 0.15574
 H504 H 0.10942 0.38850 0.12447
 C505 C -0.10868 0.32270 -0.11105
 C506 C -0.09088 0.29982 -0.12654
 C507 C -0.10607 0.27533 -0.14191
 C508 C -0.13892 0.27341 -0.14173
 C509 C -0.15590 0.29694 -0.12630
 N510 N -0.14058 0.32080 -0.11172
 C511 C -0.09351 0.34890 -0.09427
 N512 N -0.10771 0.37745 -0.09377
 C513 C -0.09468 0.40259 -0.07912
 C514 C -0.06585 0.39963 -0.06346
 C515 C -0.05122 0.37020 -0.06311
 C516 C -0.06487 0.34488 -0.07854
 H517 H -0.09213 0.25754 -0.15338
 H518 H -0.18128 0.29642 -0.12599
 H519 H -0.10687 0.42480 -0.07972
 H520 H -0.02897 0.36684 -0.05131
 H521 H -0.06551 0.30097 -0.12707
 H522 H -0.05329 0.32235 -0.07784
 C523 C 0.10913 0.67243 -0.11729
 C524 C 0.09267 0.69702 -0.13164
 C525 C 0.10923 0.72092 -0.14663
 C526 C 0.14213 0.72059 -0.14715
 C527 C 0.15776 0.69556 -0.13263
 N528 N 0.14108 0.67222 -0.11847
 C529 C 0.09234 0.64677 -0.10113
 N530 N 0.10362 0.61703 -0.10294
 C531 C 0.08899 0.59243 -0.08873
 C532 C 0.06158 0.59720 -0.07102
 C533 C 0.04998 0.62783 -0.06840
 C534 C 0.06511 0.65257 -0.08357
 H535 H 0.09635 0.73997 -0.15736
 H536 H 0.18312 0.69445 -0.13282
 H537 H 0.09901 0.56927 -0.09101
 H538 H 0.02926 0.63272 -0.05458
 H539 H 0.06727 0.69760 -0.13159
 H540 H 0.05594 0.67606 -0.08106
 C541 C -0.10152 0.68022 0.10615
 C542 C -0.08310 0.70508 0.11740
 C543 C -0.09750 0.73017 0.13255
 C544 C -0.13019 0.73075 0.13622
 C545 C -0.14775 0.70531 0.12492
 N546 N -0.13316 0.68090 0.11057
 C547 C -0.08723 0.65339 0.08963
 N548 N -0.09949 0.62416 0.09361
 C549 C -0.08726 0.59856 0.07909
 C550 C -0.06144 0.60170 0.05876
 C551 C -0.04901 0.63181 0.05382
 C552 C -0.06163 0.65758 0.06933
 H553 H -0.08319 0.74940 0.14087
 H554 H -0.17298 0.70477 0.12772
 H555 H -0.09783 0.57587 0.08333
 H556 H -0.02949 0.63552 0.03799
 H557 H -0.05783 0.70500 0.11479
 H558 H -0.05182 0.68061 0.06500
 C559 C 1.11602 0.10629 0.67567
 C560 C 1.13696 0.08989 0.69491
 C561 C 1.15174 0.10533 0.71962
 C562 C 1.14522 0.13709 0.72589
 C563 C 1.12422 0.15264 0.70553
 N564 N 1.11064 0.13716 0.68122
 C565 C 1.09962 0.09060 0.64965
 N566 N 1.09650 0.10561 0.62160
 C567 C 1.08160 0.09220 0.59680
 C568 C 1.06813 0.06228 0.59977
 C569 C 1.07054 0.04677 0.62870
 C570 C 1.08656 0.06066 0.65357
 H571 H 1.16721 0.09176 0.73441
 H572 H 1.11895 0.17721 0.70839
 H573 H 1.07993 0.10509 0.57495
 H574 H 1.06035 0.02381 0.63197
 H575 H 1.14195 0.06538 0.69079
 H576 H 1.08822 0.04840 0.67579
 C577 C 0.88738 -0.10004 0.67725
 C578 C 0.85560 -0.09520 0.68400
 C579 C 0.84202 -0.11013 0.70983
 C580 C 0.85983 -0.13046 0.72895
 C581 C 0.89179 -0.13443 0.72118
 N582 N 0.90453 -0.11913 0.69617
 C583 C 0.90273 -0.08463 0.65022
 N584 N 0.93305 -0.07491 0.65288
 C585 C 0.94863 -0.06090 0.62875
 C586 C 0.93383 -0.05667 0.59962
 C587 C 0.90271 -0.06685 0.59627
 C588 C 0.88700 -0.08060 0.62157
 H589 H 0.81733 -0.10628 0.71397
 H590 H 0.90703 -0.14894 0.73525
 H591 H 0.97274 -0.05363 0.63217
 H592 H 0.89049 -0.06404 0.57417
 H593 H 0.84142 -0.07976 0.66967
 H594 H 0.86309 -0.08863 0.61851
 C595 C 1.10693 -0.11450 0.32794
 C596 C 1.10074 -0.14596 0.32123
 C597 C 1.11518 -0.15999 0.29552
 C598 C 1.13639 -0.14298 0.27655
 C599 C 1.14209 -0.11142 0.28455
 N600 N 1.12711 -0.09813 0.30935
 C601 C 1.09149 -0.09865 0.35444
 N602 N 1.08140 -0.06863 0.35083
 C603 C 1.06692 -0.05280 0.37438
 C604 C 1.06259 -0.06700 0.40383
 C605 C 1.07313 -0.09783 0.40810
 C606 C 1.08733 -0.11382 0.38339
 H607 H 1.11018 -0.18443 0.29126
 H608 H 1.15751 -0.09683 0.27063
 H609 H 1.05926 -0.02903 0.37020
 H610 H 1.07022 -0.10964 0.43045
 H611 H 1.08449 -0.15948 0.33541
 H612 H 1.09552 -0.13754 0.38707
 C613 C 0.89768 0.10849 0.32172
 C614 C 0.87711 0.09113 0.30298
 C615 C 0.86169 0.10565 0.27813
 C616 C 0.86688 0.13761 0.27133
 C617 C 0.88791 0.15408 0.29089
 N618 N 0.90223 0.13941 0.31538
 C619 C 0.91415 0.09370 0.34831
 N620 N 0.91745 0.10956 0.37580
 C621 C 0.93151 0.09653 0.40136
 C622 C 0.94359 0.06599 0.39985
 C623 C 0.94102 0.04960 0.37147
 C624 C 0.92619 0.06327 0.34578
 H625 H 0.84644 0.09132 0.26389
 H626 H 0.89240 0.17877 0.28748
 H627 H 0.93335 0.11003 0.42275
 H628 H 0.94999 0.02598 0.36928
 H629 H 0.87267 0.06657 0.30771
 H630 H 0.92436 0.05027 0.32408
 C631 C 0.10320 0.32170 -0.11068
 C632 C 0.09879 0.31554 -0.14264
 C633 C 0.11345 0.28973 -0.15624
 C634 C 0.13314 0.27016 -0.13827
 C635 C 0.13656 0.27727 -0.10610
 N636 N 0.12153 0.30224 -0.09335
 C637 C 0.08842 0.34893 -0.09547
 N638 N 0.07693 0.34606 -0.06576
 C639 C 0.06324 0.37043 -0.05050
 C640 C 0.06126 0.39994 -0.06497
 C641 C 0.07342 0.40345 -0.09540
 C642 C 0.08677 0.37798 -0.11079
 H643 H 0.11003 0.28599 -0.18107
 H644 H 0.15046 0.26273 -0.09072
 H645 H 0.05423 0.36682 -0.02703
 H646 H 0.07225 0.42579 -0.10746
 H647 H 0.08397 0.33040 -0.15694
 H648 H 0.09620 0.38113 -0.13420
 C649 C -0.11498 0.32862 0.10785
 C650 C -0.14779 0.32577 0.10921
 C651 C -0.16123 0.30019 0.12468
 C652 C -0.14212 0.27759 0.13898
 C653 C -0.10944 0.28129 0.13710
 N654 N -0.09686 0.30622 0.12158
 C655 C -0.09960 0.35504 0.09137
 N656 N -0.07117 0.35048 0.07750
 C657 C -0.05565 0.37381 0.06213
 C658 C -0.06852 0.40404 0.06057
 C659 C -0.09764 0.40930 0.07501
 C660 C -0.11328 0.38491 0.09029
 H661 H -0.18653 0.29814 0.12562
 H662 H -0.09392 0.26407 0.14738
 H663 H -0.03309 0.36882 0.05159
 H664 H -0.10840 0.43226 0.07447
 H665 H -0.16295 0.34272 0.09796
 H666 H -0.13547 0.38962 0.10169
 C667 C -0.10930 0.67505 -0.11484
 C668 C -0.14131 0.68037 -0.10989
 C669 C -0.15538 0.70688 -0.12273
 C670 C -0.13786 0.72815 -0.14116
 C671 C -0.10572 0.72157 -0.14569
 N672 N -0.09243 0.69586 -0.13226
 C673 C -0.09355 0.64772 -0.10068
 N674 N -0.06454 0.65121 -0.08781
 C675 C -0.04944 0.62715 -0.07331
 C676 C -0.06342 0.59736 -0.07160
 C677 C -0.09298 0.59313 -0.08543
 C678 C -0.10820 0.61827 -0.09976
 H679 H -0.18023 0.70997 -0.11878
 H680 H -0.09078 0.73722 -0.15896
 H681 H -0.02660 0.63132 -0.06312
 H682 H -0.10462 0.57057 -0.08462
 H683 H -0.15525 0.66444 -0.09576
 H684 H -0.13110 0.61470 -0.11017
 C685 C 0.10266 0.67673 0.10707
 C686 C 0.08509 0.70067 0.12112
 C687 C 0.10053 0.72444 0.13735
 C688 C 0.13336 0.72458 0.13924
 C689 C 0.15007 0.70021 0.12495
 N690 N 0.13450 0.67702 0.10967
 C691 C 0.08734 0.65087 0.09011
 N692 N 0.09987 0.62163 0.09190
 C693 C 0.08678 0.59670 0.07706
 C694 C 0.05969 0.60059 0.05872
 C695 C 0.04689 0.63073 0.05596
 C696 C 0.06046 0.65585 0.07180
 H697 H 0.08691 0.74298 0.14799
 H698 H 0.17541 0.69946 0.12626
 H699 H 0.09766 0.57393 0.07951
 H700 H 0.02629 0.63488 0.04175
 H701 H 0.05971 0.70078 0.11999
 H702 H 0.05035 0.67897 0.06931
 C703 C 0.32238 1.11019 0.90072
 C704 C 0.29689 1.12154 0.91819
 C705 C 0.27186 1.13579 0.90271
 C706 C 0.27201 1.13840 0.86992
 C707 C 0.29803 1.12699 0.85333
 N708 N 0.32237 1.11354 0.86894
 C709 C 0.34904 1.09446 0.91616
 N710 N 0.37863 1.09878 0.90483
 C711 C 0.40405 1.08466 0.91801
 C712 C 0.40029 1.06441 0.94380
 C713 C 0.36982 1.05921 0.95530
 C714 C 0.34426 1.07435 0.94178
 H715 H 0.25216 1.14430 0.91626
 H716 H 0.29911 1.12905 0.82803
 H717 H 0.42704 1.08904 0.90811
 H718 H 0.36560 1.04328 0.97466
 H719 H 0.29644 1.11970 0.94353
 H720 H 0.32094 1.06975 0.95080
 C721 C 0.32119 0.88832 1.10794
 C722 C 0.29766 0.87357 1.09029
 C723 C 0.27281 0.85880 1.10566
 C724 C 0.27118 0.85884 1.13853
 C725 C 0.29521 0.87374 1.15535
 N726 N 0.31944 0.88772 1.13985
 C727 C 0.34795 0.90420 1.09258
 N728 N 0.37656 0.90405 1.10679
 C729 C 0.40210 0.91821 1.09378
 C730 C 0.39946 0.93416 1.06504
 C731 C 0.37006 0.93491 1.05024
 C732 C 0.34435 0.91991 1.06383
 H733 H 0.25465 0.84767 1.09186
 H734 H 0.29494 0.87388 1.18073
 H735 H 0.42429 0.91734 1.10608
 H736 H 0.36696 0.94697 1.02805
 H737 H 0.29864 0.87301 1.06492
 H738 H 0.32180 0.92113 1.05222
 C739 C 0.67914 1.10272 1.11031
 C740 C 0.70474 1.08562 1.12192
 C741 C 0.72940 1.10137 1.13648
 C742 C 0.72880 1.13408 1.13918
 C743 C 0.70281 1.15034 1.12727
 N744 N 0.67879 1.13444 1.11357
 C745 C 0.65242 1.08692 1.09503
 N746 N 0.62293 1.09843 1.09909
 C747 C 0.59734 1.08485 1.08572
 C748 C 0.60076 1.05833 1.06657
 C749 C 0.63109 1.04655 1.06162
 C750 C 0.65688 1.06059 1.07595
 H751 H 0.74913 1.08806 1.14530
 H752 H 0.70141 1.17555 1.12932
 H753 H 0.57446 1.09498 1.08985
 H754 H 0.63497 1.02653 1.04660
 H755 H 0.70548 1.06033 1.12026
 H756 H 0.68010 1.05133 1.07159
 C757 C 0.67264 0.88730 0.89349
 C758 C 0.69565 0.87126 0.91070
 C759 C 0.72009 0.85644 0.89495
 C760 C 0.72183 0.85764 0.86210
 C761 C 0.69811 0.87352 0.84569
 N762 N 0.67431 0.88762 0.86156
 C763 C 0.64675 0.90385 0.90940
 N764 N 0.61787 0.90485 0.89578
 C765 C 0.59309 0.91949 0.90954
 C766 C 0.59684 0.93465 0.93851
 C767 C 0.62660 0.93438 0.95258
 C768 C 0.65150 0.91897 0.93820
 H769 H 0.73802 0.84463 0.90850
 H770 H 0.69848 0.87461 0.82033
 H771 H 0.57061 0.91942 0.89776
 H772 H 0.63060 0.94582 0.97488
 H773 H 0.69468 0.86998 0.93606
 H774 H 0.67433 0.91930 0.94932
   
