data_POSCAR
  _audit_creation_date              2014-09-24
  _audit_creation_method            'ToBaCCo'
  _symmetry_space_group_name_H-M    'P1'
  _symmetry_Int_Tables_number       1
  _symmetry_cell_setting            triclinic
  loop_
  _symmetry_equiv_pos_as_xyz
 x,y,z
_cell_length_a 51.8814
_cell_length_b 51.8256
_cell_length_c 52.3864
_cell_angle_alpha 92.318700
_cell_angle_beta 89.047200
_cell_angle_gamma 88.978500
loop_
  _atom_site_label
  _atom_site_type_symbol
  _atom_site_fract_x
  _atom_site_fract_y
  _atom_site_fract_z
N1 N 0.18126 1.23956 0.17435
 N2 N 0.16338 1.24030 0.19241
 C3 C 0.14781 1.26101 0.18950
 C4 C 0.15629 1.27404 0.16833
 C5 C 0.17769 1.25970 0.15931
 H6 H 0.13134 1.26590 0.20172
 H7 H 0.18977 1.26333 0.14289
 Cu8 Cu 0.16181 1.21356 0.21740
 Cu9 Cu 0.20752 1.21219 0.17120
 Cu10 Cu 0.20546 1.16492 0.21621
 N11 N 0.16073 1.18695 0.24255
 N12 N 0.17805 1.16814 0.24209
 C13 C 0.17276 1.15217 0.26102
 C14 C 0.15072 1.16128 0.27416
 C15 C 0.14373 1.18353 0.26177
 H16 H 0.18394 1.13491 0.26445
 H17 H 0.12738 1.19621 0.26615
 N18 N 0.23163 1.16503 0.18849
 N19 N 0.23236 1.18294 0.17131
 C20 C 0.25183 1.17723 0.15458
 C21 C 0.26401 1.15460 0.16149
 C22 C 0.25061 1.14749 0.18314
 H23 H 0.25647 1.18852 0.13830
 H24 H 0.25422 1.13065 0.19411
 H25 H 0.18615 1.18409 0.18820
 H26 H 0.20742 1.20382 0.20938
 N27 N 0.79762 0.75393 0.17856
 N28 N 0.81145 0.75278 0.19928
 C29 C 0.82905 0.73345 0.19614
 C30 C 0.82623 0.72202 0.17202
 C31 C 0.80606 0.73553 0.16143
 H32 H 0.84354 0.72882 0.20992
 H33 H 0.79835 0.73245 0.14253
 Cu34 Cu 0.80666 0.77795 0.22749
 Cu35 Cu 0.77057 0.77997 0.17483
 Cu36 Cu 0.76825 0.83013 0.22046
 N37 N 0.80867 0.80839 0.25016
 N38 N 0.79350 0.82862 0.24753
 C39 C 0.79924 0.84694 0.26535
 C40 C 0.81937 0.83787 0.27995
 C41 C 0.82475 0.81318 0.26960
 H42 H 0.78979 0.86569 0.26697
 H43 H 0.83937 0.79964 0.27544
 N44 N 0.74437 0.82786 0.19158
 N45 N 0.74480 0.80833 0.17459
 C46 C 0.72625 0.81219 0.15742
 C47 C 0.71372 0.83540 0.16371
 C48 C 0.72574 0.84483 0.18546
 H49 H 0.72264 0.79949 0.14104
 H50 H 0.72120 0.86274 0.19601
 H51 H 0.79103 0.80705 0.19586
 H52 H 0.76413 0.79096 0.21296
 N53 N 0.81789 1.24246 -0.15642
 N54 N 0.83865 1.23802 -0.17073
 C55 C 0.85628 1.25595 -0.16485
 C56 C 0.84608 1.27253 -0.14569
 C57 C 0.82163 1.26330 -0.14086
 H58 H 0.87526 1.25653 -0.17360
 H59 H 0.80755 1.27112 -0.12707
 Cu60 Cu 0.84120 1.20891 -0.19522
 Cu61 Cu 0.78796 1.22043 -0.15861
 Cu62 Cu 0.78809 1.17469 -0.20853
 N63 N 0.83927 1.18627 -0.22553
 N64 N 0.81832 1.17356 -0.23117
 C65 C 0.82252 1.15938 -0.25300
 C66 C 0.84767 1.16316 -0.26147
 C67 C 0.85760 1.18050 -0.24341
 H68 H 0.80851 1.14660 -0.26146
 H69 H 0.87668 1.18850 -0.24312
 N70 N 0.75955 1.17884 -0.18327
 N71 N 0.75961 1.19621 -0.16417
 C72 C 0.73864 1.19311 -0.14922
 C73 C 0.72461 1.17269 -0.15928
 C74 C 0.73851 1.16420 -0.18097
 H75 H 0.73452 1.20424 -0.13171
 H76 H 0.73415 1.14801 -0.19370
 H77 H 0.80536 1.18725 -0.17510
 H78 H 0.79464 1.21265 -0.19731
 N79 N 0.18861 0.76327 -0.17551
 N80 N 0.16740 0.76709 -0.18828
 C81 C 0.15039 0.74876 -0.18274
 C82 C 0.16146 0.73250 -0.16544
 C83 C 0.18578 0.74240 -0.16131
 H84 H 0.13127 0.74764 -0.19052
 H85 H 0.20040 0.73503 -0.14893
 Cu86 Cu 0.16348 0.79577 -0.21068
 Cu87 Cu 0.21792 0.78608 -0.17794
 Cu88 Cu 0.21547 0.83057 -0.22532
 N89 N 0.16415 0.81756 -0.23993
 N90 N 0.18474 0.83039 -0.24621
 C91 C 0.17978 0.84376 -0.26713
 C92 C 0.15449 0.83932 -0.27430
 C93 C 0.14529 0.82245 -0.25645
 H94 H 0.19336 0.85648 -0.27581
 H95 H 0.12637 0.81415 -0.25544
 N96 N 0.24463 0.82782 -0.20187
 N97 N 0.24546 0.81101 -0.18365
 C98 C 0.26658 0.81525 -0.16961
 C99 C 0.27972 0.83584 -0.17934
 C100 C 0.26518 0.84322 -0.19989
 H101 H 0.27136 0.80481 -0.15283
 H102 H 0.26875 0.85919 -0.21200
 H103 H 0.19942 0.81851 -0.19143
 H104 H 0.20996 0.79270 -0.21570
 C105 C 0.51837 1.04589 -0.03230
 H106 H 0.50346 1.05546 -0.02060
 C107 C 0.53477 1.06058 -0.04710
 H108 H 0.53193 1.08133 -0.04699
 C109 C 0.54048 1.00738 -0.04638
 H110 H 0.54275 0.98663 -0.04568
 C111 C 0.55730 1.02129 -0.06141
 H112 H 0.57264 1.01106 -0.07206
 N113 N 0.52140 1.01976 -0.03234
 C114 C 0.47585 1.01956 0.03393
 H115 H 0.48965 1.00802 0.04389
 C116 C 0.45714 1.03406 0.04793
 H117 H 0.45720 1.03398 0.06860
 C118 C 0.45857 1.03325 -0.00496
 H119 H 0.45907 1.03247 -0.02563
 C120 C 0.43956 1.04806 0.00828
 H121 H 0.42539 1.05855 -0.00238
 Zn122 Zn 0.50068 0.99909 -0.01161
 N123 N 0.47640 1.01961 0.00796
 C124 C 0.53787 0.99575 0.02611
 N125 N 0.52332 0.98130 0.00984
 C126 C 0.52614 0.95516 0.00789
 C127 C 0.54403 0.94254 0.02292
 C128 C 0.55565 0.98392 0.04178
 C129 C 0.48296 0.97557 -0.05797
 C130 C 0.46735 0.95927 -0.07262
 C131 C 0.44936 0.94322 -0.03362
 C132 C 0.46530 0.95983 -0.01973
 N133 N 0.48167 0.97555 -0.03201
 H134 H 0.53555 1.01656 0.02695
 H135 H 0.51497 0.94408 -0.00573
 H136 H 0.54640 0.92179 0.02053
 H137 H 0.56647 0.99587 0.05503
 H138 H 0.49570 0.98857 -0.06739
 H139 H 0.46865 0.95955 -0.09325
 H140 H 0.43604 0.93132 -0.02345
 H141 H 0.46435 0.96055 0.00093
 C142 C 0.43867 1.04857 0.03511
 C143 C 0.55461 1.04828 -0.06188
 C144 C 0.45010 0.94295 -0.06044
 C145 C 0.55911 0.95693 0.04023
 C146 C -0.00555 0.53122 1.04868
 H147 H 0.00742 0.51894 1.05888
 C148 C -0.02110 0.54952 1.06224
 H149 H -0.01980 0.55113 1.08284
 C150 C -0.02168 0.54514 1.00940
 H151 H -0.02150 0.54348 0.98875
 C152 C -0.03778 0.56341 1.02216
 H153 H -0.05036 0.57531 1.01107
 N154 N -0.00620 0.52932 1.02274
 C155 C 0.06200 0.48619 1.02454
 H156 H 0.07194 0.49928 1.01241
 C157 C 0.07625 0.46909 1.03895
 H158 H 0.09710 0.46964 1.03816
 C159 C 0.02287 0.46906 1.03978
 H160 H 0.00202 0.46886 1.03952
 C161 C 0.03634 0.45159 1.05441
 H162 H 0.02565 0.43789 1.06528
 Zn163 Zn 0.01590 0.50627 1.00350
 N164 N 0.03579 0.48580 1.02515
 C165 C 0.05129 0.54508 0.99582
 N166 N 0.03733 0.52675 0.98330
 C167 C 0.03746 0.52452 0.95734
 C168 C 0.05219 0.54115 0.94293
 C169 C 0.06630 0.56206 0.98219
 C170 C -0.02959 0.48382 0.98337
 C171 C -0.04338 0.46567 0.96898
 C172 C -0.00300 0.44623 0.95386
 C173 C 0.01001 0.46479 0.96850
 N174 N -0.00337 0.48317 0.98276
 H175 H 0.05042 0.54674 1.01647
 H176 H 0.02581 0.51020 0.94772
 H177 H 0.05210 0.53908 0.92229
 H178 H 0.07682 0.57687 0.99254
 H179 H -0.03994 0.49811 0.99532
 H180 H -0.06425 0.46665 0.96957
 H181 H 0.00802 0.43148 0.94304
 H182 H 0.03086 0.46436 0.96881
 C183 C 0.06343 0.45124 1.05391
 C184 C -0.03752 0.56600 1.04897
 C185 C -0.03009 0.44645 0.95406
 C186 C 0.06675 0.56034 0.95536
 C187 C 1.04553 -0.02156 0.51970
 H188 H 1.05453 -0.00802 0.50735
 C189 C 1.06056 -0.03494 0.53688
 H190 H 1.08104 -0.03140 0.53749
 C191 C 1.00768 -0.04092 0.53526
 H192 H 0.98695 -0.04274 0.53481
 C193 C 1.02199 -0.05501 0.55238
 H194 H 1.01205 -0.06814 0.56453
 N195 N 1.01959 -0.02481 0.51918
 C196 C 1.01645 0.04116 0.47641
 H197 H 1.00320 0.05128 0.48957
 C198 C 1.03098 0.05515 0.45926
 H199 H 1.02918 0.07601 0.45990
 C200 C 1.03455 0.00177 0.45924
 H201 H 1.03552 -0.01910 0.45919
 C202 C 1.04937 0.01497 0.44172
 H203 H 1.06156 0.00402 0.42808
 Zn204 Zn 0.99836 -0.00498 0.49812
 N205 N 1.01863 0.01495 0.47623
 C206 C 0.98953 0.03355 0.53607
 N207 N 0.97740 0.01634 0.52037
 C208 C 0.95149 0.01311 0.52215
 C209 C 0.93673 0.02755 0.54036
 C210 C 0.97550 0.04869 0.55421
 C211 C 0.97981 -0.05263 0.47688
 C212 C 0.96520 -0.06779 0.46011
 C213 C 0.94728 -0.02877 0.44329
 C214 C 0.96209 -0.01438 0.46048
 N215 N 0.97787 -0.02642 0.47689
 H216 H 1.01024 0.03537 0.53458
 H217 H 0.94232 -0.00123 0.51001
 H218 H 0.91629 0.02400 0.54199
 H219 H 0.98563 0.06260 0.56608
 H220 H 0.99294 -0.06189 0.48957
 H221 H 0.96681 -0.08861 0.46064
 H222 H 0.93529 -0.01873 0.43003
 H223 H 0.96130 0.00650 0.46057
 C224 C 1.04770 0.04205 0.44155
 C225 C 1.04883 -0.05194 0.55363
 C226 C 0.94872 -0.05589 0.44289
 C227 C 0.94873 0.04559 0.55685
 C228 C 0.12327 0.30872 1.16939
 C229 C 0.11197 0.33033 1.15864
 C230 C 0.12223 0.34012 1.13627
 C231 C 0.14430 0.32825 1.12486
 C232 C 0.15571 0.30667 1.13557
 C233 C 0.14526 0.29633 1.15793
 N234 N 0.10953 0.36164 1.12520
 N235 N 0.11735 0.37080 1.10433
 C236 C 0.10436 0.39188 1.09283
 C237 C 0.11323 0.39981 1.06909
 C238 C 0.10024 0.41940 1.05667
 C239 C 0.07811 0.43153 1.06787
 C240 C 0.06958 0.42389 1.09201
 C241 C 0.08255 0.40422 1.10438
 H242 H 0.11447 0.30183 1.18661
 H243 H 0.09496 0.33934 1.16763
 H244 H 0.15264 0.33549 1.10753
 H245 H 0.17256 0.29813 1.12596
 H246 H 0.12996 0.39039 1.05997
 H247 H 0.10711 0.42451 1.03794
 H248 H 0.05283 0.43308 1.10132
 H249 H 0.07540 0.39851 1.12280
 C250 C -0.14441 0.68325 1.17425
 C251 C -0.12880 0.66385 1.16238
 C252 C -0.12568 0.66240 1.13577
 C253 C -0.13883 0.68029 1.12103
 C254 C -0.15477 0.69940 1.13283
 C255 C -0.15756 0.70121 1.15957
 N256 N -0.10907 0.64275 1.12412
 N257 N -0.10173 0.64358 1.10087
 C258 C -0.08550 0.62402 1.08861
 C259 C -0.07464 0.62866 1.06468
 C260 C -0.05884 0.61001 1.05200
 C261 C -0.05395 0.58603 1.06285
 C262 C -0.06499 0.58142 1.08695
 C263 C -0.08051 0.60030 1.09979
 H264 H -0.14637 0.68406 1.19487
 H265 H -0.11884 0.65012 1.17394
 H266 H -0.13684 0.67948 1.10041
 H267 H -0.16447 0.71307 1.12101
 H268 H -0.07827 0.64692 1.05593
 H269 H -0.05026 0.61455 1.03379
 H270 H -0.06201 0.56308 1.09573
 H271 H -0.08890 0.59621 1.11822
 C272 C -0.15128 0.30568 0.89045
 C273 C -0.13890 0.32615 0.90300
 C274 C -0.11630 0.33611 0.89273
 C275 C -0.10619 0.32544 0.86952
 C276 C -0.11850 0.30491 0.85696
 C277 C -0.14115 0.29470 0.86732
 N278 N -0.10381 0.35669 0.90644
 N279 N -0.08342 0.36696 0.89804
 C280 C -0.07078 0.38722 0.91208
 C281 C -0.04872 0.39802 0.90150
 C282 C -0.03559 0.41741 0.91498
 C283 C -0.04435 0.42632 0.93938
 C284 C -0.06663 0.41552 0.94988
 C285 C -0.07974 0.39617 0.93637
 H286 H -0.16853 0.29825 0.89914
 H287 H -0.14684 0.33418 0.92092
 H288 H -0.08873 0.33284 0.86116
 H289 H -0.11026 0.29716 0.83909
 H290 H -0.04164 0.39132 0.88279
 H291 H -0.01869 0.42555 0.90623
 H292 H -0.07365 0.42164 0.96878
 H293 H -0.09670 0.38804 0.94502
 C294 C 0.12620 0.70008 0.83737
 C295 C 0.11455 0.67942 0.84908
 C296 C 0.12589 0.66825 0.87008
 C297 C 0.14936 0.67778 0.87915
 C298 C 0.16107 0.69845 0.86745
 C299 C 0.14953 0.71000 0.84652
 N300 N 0.11286 0.64777 0.88217
 N301 N 0.12190 0.63681 0.90149
 C302 C 0.10837 0.61682 0.91389
 C303 C 0.11916 0.60597 0.93537
 C304 C 0.10589 0.58729 0.94862
 C305 C 0.08152 0.57912 0.94054
 C306 C 0.07095 0.58973 0.91866
 C307 C 0.08423 0.60842 0.90545
 H308 H 0.11682 0.70820 0.82118
 H309 H 0.09648 0.67222 0.84190
 H310 H 0.15850 0.66947 0.89541
 H311 H 0.17893 0.70557 0.87514
 H312 H 0.13777 0.61223 0.94203
 H313 H 0.11468 0.57925 0.96521
 H314 H 0.05209 0.58412 0.91214
 H315 H 0.07545 0.61657 0.88892
 C316 C 1.11466 0.16088 0.30520
 C317 C 1.10163 0.14924 0.32514
 C318 C 1.11146 0.12669 0.33535
 C319 C 1.13473 0.11589 0.32552
 C320 C 1.14778 0.12738 0.30550
 C321 C 1.13790 0.15003 0.29483
 N322 N 1.09719 0.11485 0.35524
 N323 N 1.10559 0.09488 0.36604
 C324 C 1.09109 0.08259 0.38547
 C325 C 1.10206 0.06138 0.39721
 C326 C 1.08815 0.04841 0.41565
 C327 C 1.06285 0.05641 0.42261
 C328 C 1.05197 0.07791 0.41093
 C329 C 1.06596 0.09092 0.39254
 H330 H 1.10614 0.17820 0.29788
 H331 H 1.08367 0.15775 0.33256
 H332 H 1.14275 0.09842 0.33311
 H333 H 1.16556 0.11826 0.29853
 H334 H 1.12144 0.05481 0.39195
 H335 H 1.09725 0.03218 0.42454
 H336 H 1.03242 0.08435 0.41555
 H337 H 1.05700 0.10721 0.38363
 C338 C 1.11412 -0.15330 0.70312
 C339 C 1.10047 -0.14169 0.68376
 C340 C 1.11317 -0.12682 0.66601
 C341 C 1.13988 -0.12357 0.66779
 C342 C 1.15357 -0.13477 0.68743
 C343 C 1.14090 -0.14980 0.70551
 N344 N 1.09836 -0.11462 0.64694
 N345 N 1.10866 -0.10468 0.62752
 C346 C 1.09344 -0.09175 0.60920
 C347 C 1.10438 -0.08651 0.58543
 C348 C 1.08990 -0.07388 0.56723
 C349 C 1.06427 -0.06579 0.57273
 C350 C 1.05353 -0.07084 0.59685
 C351 C 1.06787 -0.08386 0.61479
 H352 H 1.10332 -0.16445 0.71647
 H353 H 1.07984 -0.14424 0.68262
 H354 H 1.15010 -0.11203 0.65429
 H355 H 1.17409 -0.13165 0.68817
 H356 H 1.12408 -0.09251 0.58089
 H357 H 1.09874 -0.07072 0.54879
 H358 H 1.03415 -0.06436 0.60212
 H359 H 1.05910 -0.08736 0.63320
 C360 C 0.82346 -0.12416 0.30914
 C361 C 0.83632 -0.11091 0.32874
 C362 C 0.85806 -0.12187 0.33970
 C363 C 0.86663 -0.14662 0.33116
 C364 C 0.85369 -0.16005 0.31172
 C365 C 0.83200 -0.14895 0.30015
 N366 N 0.87124 -0.10736 0.35916
 N367 N 0.89251 -0.11511 0.36819
 C368 C 0.90581 -0.10045 0.38746
 C369 C 0.93043 -0.10868 0.39443
 C370 C 0.94431 -0.09436 0.41253
 C371 C 0.93365 -0.07157 0.42420
 C372 C 0.90868 -0.06362 0.41745
 C373 C 0.89492 -0.07787 0.39919
 H374 H 0.80682 -0.11475 0.30123
 H375 H 0.82948 -0.09185 0.33523
 H376 H 0.88338 -0.15557 0.33943
 H377 H 0.86113 -0.17897 0.30568
 H378 H 0.93906 -0.12602 0.38546
 H379 H 0.96361 -0.10085 0.41695
 H380 H 0.89970 -0.04645 0.42636
 H381 H 0.87581 -0.07121 0.39425
 C382 C 0.88733 0.15445 0.71322
 C383 C 0.90035 0.14187 0.69262
 C384 C 0.88706 0.12634 0.67508
 C385 C 0.86038 0.12344 0.67831
 C386 C 0.84731 0.13565 0.69918
 C387 C 0.86060 0.15131 0.71708
 N388 N 0.90130 0.11310 0.65474
 N389 N 0.89050 0.10220 0.63563
 C390 C 0.90529 0.08829 0.61606
 C391 C 0.89381 0.08175 0.59277
 C392 C 0.90789 0.06816 0.57340
 C393 C 0.93368 0.06045 0.57719
 C394 C 0.94495 0.06681 0.60084
 C395 C 0.93100 0.08075 0.61997
 H396 H 0.89859 0.16607 0.72633
 H397 H 0.92096 0.14416 0.69035
 H398 H 0.84972 0.11141 0.66499
 H399 H 0.82679 0.13276 0.70103
 H400 H 0.87399 0.08744 0.58953
 H401 H 0.89863 0.06397 0.55538
 H402 H 0.96446 0.06066 0.60482
 H403 H 0.94020 0.08525 0.63796
 C404 C 0.29406 1.11607 0.15587
 C405 C 0.31429 1.10265 0.14298
 C406 C 0.32678 1.11333 0.12217
 C407 C 0.31894 1.13784 0.11442
 C408 C 0.29871 1.15131 0.12729
 C409 C 0.28590 1.14056 0.14813
 N410 N 0.34708 1.09877 0.10913
 N411 N 0.35901 1.10709 0.08978
 C412 C 0.37912 1.09230 0.07667
 C413 C 0.39121 1.10248 0.05533
 C414 C 0.41062 1.08837 0.04186
 C415 C 0.41830 1.06376 0.04958
 C416 C 0.40619 1.05364 0.07112
 C417 C 0.38677 1.06776 0.08454
 H418 H 0.28476 1.10701 0.17171
 H419 H 0.32015 1.08376 0.14913
 H420 H 0.32835 1.14654 0.09839
 H421 H 0.29322 1.17014 0.12080
 H422 H 0.38553 1.12140 0.04911
 H423 H 0.41978 1.09682 0.02555
 H424 H 0.41142 1.03461 0.07734
 H425 H 0.37766 1.05942 0.10094
 C426 C 0.68890 1.17276 -0.12622
 C427 C 0.66799 1.16099 -0.11457
 C428 C 0.65898 1.13739 -0.12434
 C429 C 0.67082 1.12586 -0.14636
 C430 C 0.69176 1.13757 -0.15804
 C431 C 0.70132 1.16103 -0.14791
 N432 N 0.63856 1.12513 -0.11098
 N433 N 0.62933 1.10372 -0.11888
 C434 C 0.60962 1.09098 -0.10495
 C435 C 0.60011 1.06769 -0.11499
 C436 C 0.58189 1.05404 -0.10126
 C437 C 0.57290 1.06347 -0.07711
 C438 C 0.58217 1.08714 -0.06727
 C439 C 0.60036 1.10079 -0.08106
 H440 H 0.69538 1.19091 -0.11796
 H441 H 0.65900 1.17010 -0.09763
 H442 H 0.66420 1.10758 -0.15429
 H443 H 0.70069 1.12788 -0.17466
 H444 H 0.60707 1.05996 -0.13339
 H445 H 0.57487 1.03608 -0.10954
 H446 H 0.57591 1.09477 -0.04860
 H447 H 0.60750 1.11871 -0.07282
 C448 C 0.31083 0.87253 -0.17769
 C449 C 0.33148 0.88543 -0.16651
 C450 C 0.34447 0.87493 -0.14609
 C451 C 0.33694 0.85092 -0.13724
 C452 C 0.31628 0.83797 -0.14840
 C453 C 0.30271 0.84877 -0.16856
 N454 N 0.36449 0.88947 -0.13411
 N455 N 0.37676 0.88139 -0.11508
 C456 C 0.39609 0.89650 -0.10261
 C457 C 0.40854 0.88665 -0.08152
 C458 C 0.42645 0.90149 -0.06807
 C459 C 0.43221 0.92654 -0.07554
 C460 C 0.42000 0.93619 -0.09705
 C461 C 0.40211 0.92133 -0.11047
 H462 H 0.30098 0.88157 -0.19310
 H463 H 0.33711 0.90393 -0.17349
 H464 H 0.34674 0.84235 -0.12150
 H465 H 0.31088 0.81962 -0.14099
 H466 H 0.40410 0.86753 -0.07530
 H467 H 0.43576 0.89339 -0.05179
 H468 H 0.42373 0.95553 -0.10308
 H469 H 0.39267 0.92944 -0.12666
 C470 C 0.67604 0.83308 0.13451
 C471 C 0.65676 0.84502 0.12057
 C472 C 0.65439 0.87196 0.12089
 C473 C 0.67117 0.88694 0.13590
 C474 C 0.69014 0.87502 0.15022
 C475 C 0.69294 0.84798 0.14945
 N476 N 0.63503 0.88364 0.10572
 N477 N 0.63524 0.90755 0.10107
 C478 C 0.61588 0.91946 0.08607
 C479 C 0.62012 0.94417 0.07732
 C480 C 0.60184 0.95625 0.06233
 C481 C 0.57862 0.94398 0.05618
 C482 C 0.57432 0.91920 0.06532
 C483 C 0.59284 0.90698 0.07998
 H484 H 0.67760 0.81221 0.13375
 H485 H 0.64389 0.83327 0.10916
 H486 H 0.66961 0.90782 0.13656
 H487 H 0.70299 0.88700 0.16142
 H488 H 0.63786 0.95394 0.08182
 H489 H 0.60615 0.97505 0.05525
 H490 H 0.55651 0.90933 0.06143
 H491 H 0.58904 0.88794 0.08676
   
