data_POSCAR
  _audit_creation_date              2014-09-24
  _audit_creation_method            'ToBaCCo'
  _symmetry_space_group_name_H-M    'P1'
  _symmetry_Int_Tables_number       1
  _symmetry_cell_setting            triclinic
  loop_
  _symmetry_equiv_pos_as_xyz
 x,y,z
_cell_length_a 67.6183
_cell_length_b 67.6425
_cell_length_c 19.9647
_cell_angle_alpha 89.937100
_cell_angle_beta 90.067600
_cell_angle_gamma 120.027100
loop_
  _atom_site_label
  _atom_site_type_symbol
  _atom_site_fract_x
  _atom_site_fract_y
  _atom_site_fract_z
C1 C 0.24885 0.49744 0.52899
 C2 C 0.24880 0.49784 0.46068
 C3 C 0.22933 0.49641 0.42206
 C4 C 0.26821 0.49953 0.42127
 C5 C 0.26706 0.49617 0.56720
 C6 C 0.23075 0.49829 0.56879
 C7 C 0.20692 0.47841 0.43261
 C8 C 0.18869 0.47755 0.39700
 C9 C 0.19269 0.49455 0.34992
 C10 C 0.21506 0.51227 0.33820
 C11 C 0.23327 0.51313 0.37387
 C12 C 0.26425 0.48289 0.37293
 C13 C 0.28251 0.48367 0.33790
 C14 C 0.30486 0.50121 0.35044
 C15 C 0.30887 0.51822 0.39726
 C16 C 0.29062 0.51747 0.43226
 C17 C 0.27973 0.51280 0.61568
 C18 C 0.29747 0.51227 0.65010
 C19 C 0.30259 0.49500 0.63681
 C20 C 0.28967 0.47805 0.58971
 C21 C 0.27190 0.47855 0.55531
 C22 C 0.22571 0.51589 0.55914
 C23 C 0.20814 0.51608 0.59545
 C24 C 0.19563 0.49884 0.64224
 C25 C 0.20094 0.48157 0.65323
 C26 C 0.21848 0.48135 0.61690
 H27 H 0.20358 0.46510 0.46860
 H28 H 0.17151 0.46366 0.40651
 H29 H 0.21849 0.52554 0.30188
 H30 H 0.25044 0.52706 0.36474
 H31 H 0.24709 0.46900 0.36354
 H32 H 0.27923 0.47045 0.30170
 H33 H 0.29396 0.53068 0.46852
 H34 H 0.27616 0.52644 0.62582
 H35 H 0.30732 0.52543 0.68658
 H36 H 0.29342 0.46455 0.57927
 H37 H 0.26205 0.46533 0.51901
 H38 H 0.23527 0.52936 0.52318
 H39 H 0.20423 0.52957 0.58678
 H40 H 0.19139 0.46818 0.68941
 H41 H 0.22220 0.46773 0.62534
 H42 H 0.32610 0.53190 0.40716
 C43 C 0.50295 -0.24930 0.53531
 C44 C 0.50270 -0.24939 0.46698
 C45 C 0.50118 -0.26881 0.42796
 C46 C 0.50417 -0.23001 0.42791
 C47 C 0.50196 -0.23116 0.57460
 C48 C 0.50428 -0.26737 0.57397
 C49 C 0.51782 -0.26481 0.37952
 C50 C 0.51705 -0.28302 0.34427
 C51 C 0.49953 -0.30539 0.35667
 C52 C 0.48257 -0.30946 0.40374
 C53 C 0.48330 -0.29125 0.43897
 C54 C 0.52218 -0.20760 0.43833
 C55 C 0.52306 -0.18944 0.40230
 C56 C 0.50611 -0.19354 0.35504
 C57 C 0.48842 -0.21588 0.34338
 C58 C 0.48751 -0.23404 0.37943
 C59 C 0.48439 -0.22612 0.56410
 C60 C 0.48407 -0.20854 0.60000
 C61 C 0.50115 -0.19601 0.64723
 C62 C 0.51839 -0.20131 0.65903
 C63 C 0.51874 -0.21886 0.62313
 C64 C 0.48751 -0.28016 0.62193
 C65 C 0.48801 -0.29790 0.65636
 C66 C 0.50541 -0.30290 0.64356
 C67 C 0.52255 -0.28979 0.59707
 C68 C 0.52206 -0.27203 0.56271
 H69 H 0.53165 -0.24763 0.37006
 H70 H 0.53023 -0.27968 0.30788
 H71 H 0.46888 -0.32669 0.41352
 H72 H 0.47007 -0.29464 0.47524
 H73 H 0.53544 -0.20419 0.47457
 H74 H 0.53687 -0.17223 0.41151
 H75 H 0.47358 -0.25121 0.37039
 H76 H 0.47104 -0.23570 0.52783
 H77 H 0.47060 -0.20465 0.59067
 H78 H 0.53166 -0.19175 0.69555
 H79 H 0.53235 -0.22257 0.63224
 H80 H 0.47375 -0.27672 0.63154
 H81 H 0.47468 -0.30787 0.69232
 H82 H 0.53618 -0.29339 0.58689
 H83 H 0.53538 -0.26208 0.52677
 H84 H 0.47525 -0.21924 0.30685
 C85 C 1.24745 0.75283 0.53657
 C86 C 1.24749 0.75303 0.46825
 C87 C 1.26563 0.77236 0.42945
 C88 C 1.22944 0.73386 0.42889
 C89 C 1.22819 0.73461 0.57537
 C90 C 1.26667 0.77081 0.57598
 C91 C 1.27053 0.79490 0.44039
 C92 C 1.28805 0.81296 0.40470
 C93 C 1.30068 0.80866 0.35721
 C94 C 1.29552 0.78618 0.34505
 C95 C 1.27803 0.76813 0.38078
 C96 C 1.21688 0.73821 0.38094
 C97 C 1.19944 0.72025 0.34484
 C98 C 1.19451 0.69780 0.35590
 C99 C 1.20730 0.69339 0.40259
 C100 C 1.22477 0.71134 0.43868
 C101 C 1.23251 0.72206 0.62343
 C102 C 1.21452 0.70455 0.65929
 C103 C 1.19203 0.69952 0.64787
 C104 C 1.18765 0.71228 0.60094
 C105 C 1.20565 0.72982 0.56512
 C106 C 1.28921 0.77564 0.56560
 C107 C 1.30720 0.79305 0.60178
 C108 C 1.30280 0.80562 0.64920
 C109 C 1.28030 0.80051 0.66083
 C110 C 1.26233 0.78314 0.62461
 H111 H 1.26087 0.79847 0.47678
 H112 H 1.29178 0.83026 0.41444
 H113 H 1.30510 0.78258 0.30838
 H114 H 1.27442 0.75087 0.37134
 H115 H 1.22033 0.75547 0.37241
 H116 H 1.18967 0.72385 0.30875
 H117 H 1.23455 0.70769 0.47453
 H118 H 1.24978 0.72559 0.63233
 H119 H 1.21818 0.69486 0.69551
 H120 H 1.17034 0.70865 0.59178
 H121 H 1.20201 0.73959 0.52920
 H122 H 1.29286 0.76603 0.52922
 H123 H 1.32452 0.79675 0.59245
 H124 H 1.27664 0.81007 0.69744
 H125 H 1.24505 0.77956 0.63359
 H126 H 1.20368 0.67608 0.41132
 C127 C 0.75168 0.50229 0.53647
 C128 C 0.75151 0.50199 0.46815
 C129 C 0.76939 0.50039 0.42931
 C130 C 0.73360 0.50347 0.42895
 C131 C 0.73258 0.50140 0.57570
 C132 C 0.77103 0.50355 0.57527
 C133 C 0.78217 0.51705 0.38102
 C134 C 0.79969 0.51627 0.34620
 C135 C 0.80447 0.49873 0.35891
 C136 C 0.79141 0.48174 0.40578
 C137 C 0.77387 0.48248 0.44058
 C138 C 0.72921 0.52148 0.43917
 C139 C 0.71193 0.52234 0.40311
 C140 C 0.69904 0.50537 0.35602
 C141 C 0.70368 0.48768 0.34453
 C142 C 0.72094 0.48678 0.38060
 C143 C 0.70994 0.48385 0.56545
 C144 C 0.69208 0.48358 0.60142
 C145 C 0.69669 0.50071 0.64851
 C146 C 0.71928 0.51795 0.66000
 C147 C 0.73713 0.51823 0.62399
 C148 C 0.76693 0.48681 0.62350
 C149 C 0.78512 0.48728 0.65827
 C150 C 0.80757 0.50462 0.64556
 C151 C 0.81171 0.52172 0.59875
 C152 C 0.79353 0.52126 0.56404
 H153 H 0.77890 0.53092 0.37140
 H154 H 0.80966 0.52949 0.30996
 H155 H 0.79492 0.46804 0.41580
 H156 H 0.76393 0.46924 0.47677
 H157 H 0.73909 0.53476 0.47528
 H158 H 0.70854 0.53616 0.41217
 H159 H 0.72417 0.47285 0.37170
 H160 H 0.70612 0.47046 0.52935
 H161 H 0.67470 0.47008 0.59220
 H162 H 0.72312 0.53129 0.69635
 H163 H 0.75448 0.53183 0.63289
 H164 H 0.74970 0.47310 0.63310
 H165 H 0.78166 0.47398 0.69448
 H166 H 0.82898 0.53531 0.58864
 H167 H 0.79698 0.53457 0.52792
 H168 H 0.69384 0.47448 0.30812
 C169 C 0.49756 0.24826 0.53762
 C170 C 0.49793 0.24859 0.46930
 C171 C 0.49652 0.26659 0.43040
 C172 C 0.49956 0.23080 0.43014
 C173 C 0.49629 0.22885 0.57609
 C174 C 0.49839 0.26725 0.57715
 C175 C 0.47849 0.27097 0.44058
 C176 C 0.47765 0.28828 0.40460
 C177 C 0.49466 0.30120 0.35764
 C178 C 0.51238 0.29659 0.34626
 C179 C 0.51326 0.27931 0.38224
 C180 C 0.48292 0.21811 0.38168
 C181 C 0.48371 0.20065 0.34664
 C182 C 0.50123 0.19583 0.35928
 C183 C 0.51822 0.20881 0.40627
 C184 C 0.51748 0.22631 0.44129
 C185 C 0.51296 0.23288 0.62456
 C186 C 0.51245 0.21466 0.65915
 C187 C 0.49516 0.19222 0.64602
 C188 C 0.47814 0.18814 0.59895
 C189 C 0.47863 0.20636 0.56442
 C190 C 0.51599 0.28990 0.56742
 C191 C 0.51617 0.30769 0.60353
 C192 C 0.49891 0.30299 0.65024
 C193 C 0.48164 0.28039 0.66128
 C194 C 0.48144 0.26261 0.62513
 H195 H 0.46517 0.26105 0.47653
 H196 H 0.46380 0.29163 0.41358
 H197 H 0.52561 0.30646 0.30995
 H198 H 0.52720 0.27610 0.37337
 H199 H 0.46906 0.22140 0.37216
 H200 H 0.47050 0.19072 0.31031
 H201 H 0.53069 0.23618 0.47762
 H202 H 0.52662 0.25011 0.63453
 H203 H 0.52569 0.21808 0.69558
 H204 H 0.46459 0.17088 0.58852
 H205 H 0.46537 0.20295 0.52814
 H206 H 0.52946 0.29378 0.53156
 H207 H 0.52970 0.32508 0.59467
 H208 H 0.46820 0.27649 0.69734
 H209 H 0.46781 0.24525 0.63362
 H210 H 0.53191 0.20528 0.41624
 C211 C 0.75006 0.25052 0.53638
 C212 C 0.74977 0.25060 0.46805
 C213 C 0.73161 0.23126 0.42941
 C214 C 0.76774 0.26987 0.42872
 C215 C 0.76963 0.26840 0.57502
 C216 C 0.73086 0.23241 0.57556
 C217 C 0.72725 0.20885 0.43934
 C218 C 0.70961 0.19068 0.40435
 C219 C 0.69634 0.19475 0.35862
 C220 C 0.70096 0.21710 0.34734
 C221 C 0.71858 0.23529 0.38234
 C222 C 0.78005 0.26560 0.37984
 C223 C 0.79771 0.28367 0.34468
 C224 C 0.80312 0.30616 0.35762
 C225 C 0.79051 0.31050 0.40501
 C226 C 0.77281 0.29244 0.44015
 C227 C 0.76586 0.28108 0.62383
 C228 C 0.78425 0.29863 0.65836
 C229 C 0.80660 0.30356 0.64486
 C230 C 0.81041 0.29055 0.59751
 C231 C 0.79202 0.27298 0.56305
 C232 C 0.70835 0.22780 0.56578
 C233 C 0.69027 0.20988 0.60024
 C234 C 0.69454 0.19657 0.64527
 C235 C 0.71699 0.20150 0.65667
 C236 C 0.73508 0.21941 0.62221
 H237 H 0.73739 0.20545 0.47451
 H238 H 0.70626 0.17347 0.41320
 H239 H 0.69082 0.22044 0.31194
 H240 H 0.72178 0.25246 0.37374
 H241 H 0.77631 0.24832 0.37007
 H242 H 0.80733 0.28012 0.30802
 H243 H 0.76324 0.29604 0.47678
 H244 H 0.74871 0.27770 0.63405
 H245 H 0.78104 0.30850 0.69500
 H246 H 0.82759 0.29409 0.58677
 H247 H 0.79523 0.26310 0.52652
 H248 H 0.70479 0.23789 0.53085
 H249 H 0.67297 0.20627 0.59127
 H250 H 0.72048 0.19133 0.69150
 H251 H 0.75232 0.22277 0.63062
 H252 H 0.79450 0.32784 0.41521
 O253 O 0.96878 0.51890 -0.12303
 O254 O 0.94346 0.48826 -0.05965
 C255 C 0.94828 0.50348 -0.10577
 O256 O 1.03259 0.48030 -0.11866
 O257 O 1.05770 0.51157 -0.05710
 C258 C 1.05303 0.49573 -0.10091
 O259 O 0.96872 0.45001 -0.12498
 O260 O 0.94343 0.45497 -0.06051
 C261 C 0.94822 0.44480 -0.10730
 O262 O 1.03255 0.55277 -0.11550
 O263 O 1.05768 0.54608 -0.05579
 C264 C 1.05300 0.55765 -0.09828
 Zr265 Zr 1.00065 0.52538 -0.08403
 O266 O 1.00308 0.52791 -0.18972
 O267 O 0.99953 0.55594 -0.07539
 Zr268 Zr 1.00061 0.47541 -0.08618
 O269 O 1.00326 0.47735 -0.19195
 O270 O 0.99811 0.44294 -0.08692
 O271 O 0.98025 0.49025 -0.09859
 O272 O 1.02051 0.51039 -0.09715
 O273 O 1.03224 0.55187 0.11717
 O274 O 1.05752 0.54557 0.05707
 C275 C 1.05273 0.55684 0.10022
 O276 O 0.96846 0.44930 0.12117
 O277 O 0.94334 0.45465 0.05680
 C278 C 0.94801 0.44431 0.10343
 O279 O 1.03254 0.47957 0.11484
 O280 O 1.05784 0.51136 0.05522
 C281 C 1.05305 0.49513 0.09788
 O282 O 0.96839 0.51794 0.12295
 O283 O 0.94330 0.48777 0.05774
 C284 C 0.94795 0.50258 0.10492
 Zr285 Zr 1.00038 0.52459 0.08461
 O286 O 1.00283 0.52532 0.19043
 O287 O 0.99821 0.55474 0.08474
 Zr288 Zr 1.00044 0.47469 0.08280
 O289 O 1.00296 0.47531 0.18856
 O290 O 0.99780 0.44216 0.08008
 Zr291 Zr 0.96630 0.48288 -0.00121
 Zr292 Zr 1.03467 0.51705 -0.00026
 O293 O 1.02027 0.50954 0.09631
 O294 O 0.98000 0.48938 0.09659
 O295 O 1.02099 0.53901 0.00066
 O296 O 0.98060 0.46148 -0.00203
 O297 O 0.98050 0.51856 0.00008
 O298 O 1.02095 0.48136 -0.00159
 H299 H 1.03079 0.51572 -0.13654
 H300 H 0.97029 0.44470 -0.00240
 H301 H 1.03050 0.51455 0.13585
 H302 H 0.97018 0.52500 0.00038
 H303 H 1.01083 0.44406 -0.05953
 H304 H 1.01113 0.44374 0.05501
 H305 H 0.99071 0.47773 0.20649
 H306 H 0.98994 0.51090 0.20758
 H307 H 1.00921 0.56517 0.05101
 H308 H 0.99955 0.56118 -0.12178
 H309 H 0.99166 0.51289 -0.20802
 H310 H 0.99023 0.47862 -0.20932
 O311 O 0.44987 0.48155 0.11961
 O312 O 0.45513 0.51165 0.05366
 C313 C 0.44484 0.49687 0.10087
 O314 O 0.55222 0.51988 0.11564
 O315 O 0.54597 0.48815 0.05635
 C316 C 0.55723 0.50434 0.09921
 O317 O 0.51844 0.55011 0.11945
 O318 O 0.48830 0.54481 0.05362
 C319 C 0.50310 0.55513 0.10079
 O320 O 0.47990 0.44757 0.11523
 O321 O 0.51177 0.45397 0.05635
 C322 C 0.49552 0.44264 0.09902
 Zr323 Zr 0.47511 0.47467 0.08185
 O324 O 0.47484 0.47260 0.18766
 O325 O 0.44339 0.44407 0.07412
 Zr326 Zr 0.52512 0.52469 0.08223
 O327 O 0.52620 0.52367 0.18811
 O328 O 0.55506 0.55723 0.08131
 O329 O 0.48990 0.50989 0.09417
 O330 O 0.50998 0.48981 0.09545
 O331 O 0.48014 0.44689 -0.11721
 O332 O 0.51171 0.45365 -0.05606
 C333 C 0.49569 0.44209 -0.09916
 O334 O 0.51930 0.54967 -0.12661
 O335 O 0.48868 0.54460 -0.06366
 C336 C 0.50391 0.55483 -0.10982
 O337 O 0.55284 0.51925 -0.11746
 O338 O 0.54629 0.48793 -0.05532
 C339 C 0.55772 0.50378 -0.09897
 O340 O 0.45012 0.48058 -0.12639
 O341 O 0.45532 0.51128 -0.06371
 C342 C 0.44502 0.49602 -0.10978
 Zr343 Zr 0.47561 0.47435 -0.08691
 O344 O 0.47747 0.47314 -0.19258
 O345 O 0.44330 0.44416 -0.08647
 Zr346 Zr 0.52564 0.52430 -0.08683
 O347 O 0.52720 0.52278 -0.19248
 O348 O 0.55565 0.55678 -0.08586
 Zr349 Zr 0.48330 0.51662 -0.00407
 Zr350 Zr 0.51742 0.48254 -0.00061
 O351 O 0.51057 0.48936 -0.09814
 O352 O 0.49046 0.50950 -0.10104
 O353 O 0.48178 0.46050 -0.00148
 O354 O 0.51903 0.53805 -0.00325
 O355 O 0.46179 0.48093 -0.00339
 O356 O 0.53948 0.51821 -0.00126
 H357 H 0.51498 0.48475 0.13539
 H358 H 0.52551 0.55482 -0.00359
 H359 H 0.51579 0.48408 -0.13700
 H360 H 0.44501 0.47448 -0.00375
 H361 H 0.56679 0.55585 0.05548
 H362 H 0.56724 0.55545 -0.05911
 H363 H 0.51271 0.52080 -0.21062
 H364 H 0.47870 0.48734 -0.21064
 H365 H 0.44376 0.43404 -0.05142
 H366 H 0.43824 0.43906 0.12068
 H367 H 0.47891 0.48785 0.20511
 H368 H 0.51171 0.52198 0.20523
 O369 O 0.54943 0.03104 -0.12362
 O370 O 0.54457 0.05639 -0.05916
 C371 C 0.55462 0.05155 -0.10617
 O372 O 0.44709 -0.03292 -0.11380
 O373 O 0.45359 -0.05795 -0.05280
 C374 C 0.44218 -0.05334 -0.09605
 O375 O 0.48067 0.03108 -0.12135
 O376 O 0.51136 0.05645 -0.05819
 C377 C 0.49611 0.05159 -0.10427
 O378 O 0.51941 -0.03278 -0.11561
 O379 O 0.48798 -0.05773 -0.05433
 C380 C 0.50388 -0.05318 -0.09786
 Zr381 Zr 0.52429 -0.00080 -0.08356
 O382 O 0.52376 -0.00333 -0.18928
 O383 O 0.55601 0.00029 -0.07674
 Zr384 Zr 0.47432 -0.00074 -0.08251
 O385 O 0.47259 -0.00354 -0.18824
 O386 O 0.44435 0.00178 -0.08072
 O387 O 0.50946 0.01957 -0.09673
 O388 O 0.48932 -0.02062 -0.09490
 O389 O 0.52060 -0.03208 0.11720
 O390 O 0.48857 -0.05739 0.05866
 C391 C 0.50495 -0.05257 0.10076
 O392 O 0.48175 0.03173 0.12470
 O393 O 0.51185 0.05672 0.05909
 C394 C 0.49709 0.05213 0.10635
 O395 O 0.44782 -0.03229 0.11921
 O396 O 0.45391 -0.05770 0.05896
 C397 C 0.44272 -0.05282 0.10218
 O398 O 0.55056 0.03168 0.12247
 O399 O 0.54506 0.05672 0.05824
 C400 C 0.55554 0.05210 0.10461
 Zr401 Zr 0.52490 -0.00033 0.08516
 O402 O 0.52378 -0.00267 0.19102
 O403 O 0.55722 0.00183 0.08353
 Zr404 Zr 0.47497 -0.00030 0.08648
 O405 O 0.47401 -0.00270 0.19230
 O406 O 0.44506 0.00235 0.08647
 Zr407 Zr 0.51674 0.03366 0.00050
 Zr408 Zr 0.48246 -0.03463 0.00218
 O409 O 0.49002 -0.02016 0.09862
 O410 O 0.51021 0.02012 0.09847
 O411 O 0.51811 -0.02103 0.00113
 O412 O 0.48102 0.01940 0.00161
 O413 O 0.53820 0.01944 0.00014
 O414 O 0.46049 -0.02092 0.00255
 H415 H 0.48409 -0.03093 -0.13423
 H416 H 0.47457 0.02971 0.00175
 H417 H 0.48501 -0.03039 0.13818
 H418 H 0.55498 0.02975 -0.00042
 H419 H 0.43270 -0.01132 -0.05462
 H420 H 0.43335 -0.01058 0.06000
 H421 H 0.48864 0.00989 0.20946
 H422 H 0.52251 0.01033 0.20849
 H423 H 0.55650 -0.00907 0.04924
 H424 H 0.56093 0.00021 -0.12343
 H425 H 0.51986 0.00793 -0.20712
 H426 H 0.48696 0.00916 -0.20638
 C427 C 1.12279 0.48698 0.15843
 C428 C 1.14336 0.50814 0.19058
 C429 C 1.14085 0.49380 0.25312
 C430 C 1.12058 0.47265 0.22154
 C431 C 1.10663 0.49400 0.19091
 C432 C 1.10412 0.47967 0.25346
 C433 C 1.12691 0.51515 0.22250
 C434 C 1.12468 0.50082 0.28554
 C435 C 1.15990 0.49385 0.28830
 C436 C 1.17561 0.49409 0.31770
 C437 C 1.08753 0.49423 0.15692
 C438 C 1.07179 0.49456 0.12962
 H439 H 1.12180 0.48131 0.10577
 H440 H 1.15972 0.51984 0.16511
 H441 H 1.11819 0.45517 0.22155
 H442 H 1.08777 0.46796 0.27894
 H443 H 1.12930 0.53263 0.22251
 H444 H 1.12566 0.50650 0.33819
 C445 C 0.47970 0.61001 0.20284
 C446 C 0.48511 0.61603 0.27799
 C447 C 0.49982 0.64134 0.25884
 C448 C 0.49439 0.63562 0.18424
 C449 C 0.50107 0.60763 0.19721
 C450 C 0.51577 0.63294 0.17807
 C451 C 0.50649 0.61335 0.27180
 C452 C 0.52118 0.63894 0.25319
 C453 C 0.49937 0.66021 0.29337
 C454 C 0.49928 0.67583 0.32204
 C455 C 0.50186 0.58891 0.16288
 C456 C 0.50249 0.57351 0.13459
 H457 H 0.46264 0.59790 0.18176
 H458 H 0.47249 0.60929 0.31943
 H459 H 0.48941 0.64498 0.14862
 H460 H 0.52839 0.63968 0.13662
 H461 H 0.51148 0.60400 0.30743
 H462 H 0.53824 0.65104 0.27428
 C463 C 0.38490 -0.10771 0.27267
 C464 C 0.35957 -0.11427 0.26383
 C465 C 0.35303 -0.13948 0.25885
 C466 C 0.37806 -0.13320 0.26822
 C467 C 0.38781 -0.10583 0.19620
 C468 C 0.38127 -0.13105 0.19122
 C469 C 0.36278 -0.11210 0.18680
 C470 C 0.35593 -0.13762 0.18238
 C471 C 0.33381 -0.15824 0.29420
 C472 C 0.31816 -0.17373 0.32364
 C473 C 0.40730 -0.08703 0.16189
 C474 C 0.42343 -0.07146 0.13429
 H475 H 0.39703 -0.09520 0.30943
 H476 H 0.35044 -0.10757 0.29407
 H477 H 0.38414 -0.14208 0.30210
 H478 H 0.39040 -0.13775 0.16099
 H479 H 0.35671 -0.10322 0.15292
 H480 H 0.34379 -0.15013 0.14564
 C481 C 0.87414 0.47917 0.23558
 C482 C 0.87567 0.49401 0.29662
 C483 C 0.85833 0.49913 0.26262
 C484 C 0.85649 0.48429 0.20212
 C485 C 0.89347 0.50051 0.20171
 C486 C 0.87612 0.50563 0.16771
 C487 C 0.89530 0.51535 0.26220
 C488 C 0.87766 0.52047 0.22873
 C489 C 0.83890 0.49863 0.29664
 C490 C 0.82309 0.49850 0.32485
 C491 C 0.91304 0.50135 0.16760
 C492 C 0.92906 0.50200 0.13922
 H493 H 0.87293 0.46220 0.23801
 H494 H 0.87526 0.48920 0.35000
 H495 H 0.84032 0.47151 0.17781
 H496 H 0.87653 0.51043 0.11433
 H497 H 0.91147 0.52813 0.28652
 H498 H 0.87888 0.53744 0.22626
 C499 C 0.48312 0.37901 0.26238
 C500 C 0.47247 0.35436 0.23486
 C501 C 0.49401 0.35385 0.25673
 C502 C 0.50465 0.37821 0.28478
 C503 C 0.49433 0.38821 0.19388
 C504 C 0.51586 0.38769 0.21576
 C505 C 0.48369 0.36386 0.16578
 C506 C 0.50522 0.36304 0.18823
 C507 C 0.49398 0.33487 0.29223
 C508 C 0.49417 0.31943 0.32184
 C509 C 0.49461 0.40748 0.15938
 C510 C 0.49496 0.42346 0.13153
 H511 H 0.47405 0.38580 0.29251
 H512 H 0.45463 0.34044 0.24310
 H513 H 0.51327 0.38390 0.33410
 H514 H 0.53371 0.40161 0.20754
 H515 H 0.47508 0.35818 0.11644
 H516 H 0.51430 0.35626 0.15812
 C517 C 0.63130 0.12344 0.16605
 C518 C 0.63000 0.14313 0.20147
 C519 C 0.64309 0.14092 0.26126
 C520 C 0.64468 0.12153 0.22639
 C521 C 0.60883 0.10622 0.20026
 C522 C 0.62192 0.10401 0.26006
 C523 C 0.60724 0.12561 0.23513
 C524 C 0.62062 0.12370 0.29547
 C525 C 0.66216 0.16018 0.29548
 C526 C 0.67779 0.17597 0.32400
 C527 C 0.58979 0.08687 0.16626
 C528 C 0.57415 0.07096 0.13820
 H529 H 0.63547 0.12311 0.11245
 H530 H 0.63354 0.15943 0.17775
 H531 H 0.66029 0.12007 0.22315
 H532 H 0.61838 0.08772 0.28380
 H533 H 0.59162 0.12706 0.23836
 H534 H 0.61645 0.12403 0.34907
 C535 C 0.51615 0.12408 -0.23862
 C536 C 0.49962 0.12184 -0.29575
 C537 C 0.49542 0.13954 -0.26019
 C538 C 0.51195 0.14208 -0.20359
 C539 C 0.49585 0.10516 -0.19994
 C540 C 0.49166 0.12287 -0.16439
 C541 C 0.47933 0.10262 -0.25654
 C542 C 0.47513 0.12062 -0.22151
 C543 C 0.49520 0.15868 -0.29387
 C544 C 0.49511 0.17442 -0.32188
 C545 C 0.49603 0.08602 -0.16620
 C546 C 0.49610 0.07028 -0.13814
 H547 H 0.53302 0.12528 -0.24528
 H548 H 0.50289 0.12163 -0.35015
 H549 H 0.52536 0.15852 -0.18219
 H550 H 0.48839 0.12307 -0.10998
 H551 H 0.46592 0.08618 -0.27796
 H552 H 0.45826 0.11941 -0.21484
 C553 C 0.63432 0.50874 -0.15815
 C554 C 0.63270 0.48729 -0.19151
 C555 C 0.64519 0.50179 -0.25316
 C556 C 0.64711 0.52322 -0.22036
 C557 C 0.61154 0.50305 -0.19116
 C558 C 0.62403 0.51753 -0.25281
 C559 C 0.60962 0.48161 -0.22396
 C560 C 0.62240 0.49610 -0.28611
 C561 C 0.66388 0.50118 -0.28831
 C562 C 0.67927 0.50085 -0.31775
 C563 C 0.59262 0.50363 -0.15737
 C564 C 0.57683 0.50387 -0.13031
 H565 H 0.63901 0.51395 -0.10516
 H566 H 0.63646 0.47484 -0.16671
 H567 H 0.66274 0.54032 -0.21929
 H568 H 0.62028 0.52998 -0.27763
 H569 H 0.59398 0.46451 -0.22504
 H570 H 0.61769 0.49088 -0.33910
 C571 C 0.87427 0.39198 -0.23518
 C572 C 0.87615 0.37905 -0.29663
 C573 C 0.85976 0.35630 -0.26217
 C574 C 0.85758 0.36894 -0.20125
 C575 C 0.89439 0.39107 -0.20255
 C576 C 0.87800 0.36833 -0.16809
 C577 C 0.89657 0.37844 -0.26348
 C578 C 0.87988 0.35540 -0.22954
 C579 C 0.84047 0.33699 -0.29553
 C580 C 0.82457 0.32122 -0.32329
 C581 C 0.91366 0.41037 -0.16911
 C582 C 0.92947 0.42616 -0.14119
 H583 H 0.87218 0.40724 -0.23714
 H584 H 0.87518 0.38323 -0.34987
 H585 H 0.84134 0.36481 -0.17601
 H586 H 0.87897 0.36414 -0.11485
 H587 H 0.91281 0.38257 -0.28871
 H588 H 0.88197 0.34014 -0.22757
 C589 C 0.51832 -0.10549 -0.25111
 C590 C 0.52329 -0.12328 -0.21800
 C591 C 0.50208 -0.14244 -0.25293
 C592 C 0.49711 -0.12494 -0.28654
 C593 C 0.50323 -0.10757 -0.19100
 C594 C 0.48202 -0.12673 -0.22592
 C595 C 0.50820 -0.12506 -0.15734
 C596 C 0.48698 -0.14453 -0.19282
 C597 C 0.50154 -0.16173 -0.28795
 C598 C 0.50125 -0.17745 -0.31725
 C599 C 0.50375 -0.08811 -0.15709
 C600 C 0.50397 -0.07212 -0.12975
 H601 H 0.53122 -0.08922 -0.27470
 H602 H 0.54025 -0.12208 -0.21513
 H603 H 0.49254 -0.12510 -0.34003
 H604 H 0.46506 -0.12793 -0.22879
 H605 H 0.51277 -0.12489 -0.10384
 H606 H 0.47409 -0.16080 -0.16924
 C607 C 0.38478 0.51433 -0.19899
 C608 C 0.38154 0.51403 -0.27590
 C609 C 0.35649 0.49521 -0.26720
 C610 C 0.35943 0.49552 -0.19082
 C611 C 0.39126 0.49568 -0.20645
 C612 C 0.36621 0.47687 -0.19775
 C613 C 0.38832 0.49538 -0.28282
 C614 C 0.36297 0.47656 -0.27465
 C615 C 0.33715 0.49499 -0.30112
 C616 C 0.32133 0.49491 -0.32924
 C617 C 0.41057 0.49588 -0.17242
 C618 C 0.42636 0.49598 -0.14408
 H619 H 0.39396 0.52987 -0.16752
 H620 H 0.38762 0.52931 -0.30840
 H621 H 0.34734 0.49557 -0.15337
 H622 H 0.36013 0.46159 -0.16523
 H623 H 0.40042 0.49533 -0.32027
 H624 H 0.35379 0.46102 -0.30612
 C625 C 1.10331 0.62722 -0.24435
 C626 C 1.12234 0.64902 -0.21003
 C627 C 1.14018 0.64730 -0.25335
 C628 C 1.12144 0.62580 -0.28818
 C629 C 1.10638 0.61264 -0.19078
 C630 C 1.12423 0.61094 -0.23410
 C631 C 1.12511 0.63414 -0.15589
 C632 C 1.14325 0.63273 -0.19978
 C633 C 1.15898 0.66646 -0.28875
 C634 C 1.17447 0.68206 -0.31833
 C635 C 1.08745 0.59319 -0.15671
 C636 C 1.07178 0.57704 -0.12955
 H637 H 1.08667 0.62474 -0.26230
 H638 H 1.12177 0.66490 -0.20055
 H639 H 1.12013 0.62258 -0.34296
 H640 H 1.12480 0.59506 -0.24360
 H641 H 1.12640 0.63734 -0.10110
 H642 H 1.15989 0.63521 -0.18185
 C643 C 0.87373 0.48256 -0.22982
 C644 C 0.85804 0.49045 -0.19727
 C645 C 0.86021 0.50425 -0.26076
 C646 C 0.87560 0.49636 -0.29384
 C647 C 0.89463 0.50377 -0.20086
 C648 C 0.89680 0.51756 -0.26435
 C649 C 0.87924 0.51165 -0.16778
 C650 C 0.88111 0.52545 -0.23180
 C651 C 0.84108 0.50450 -0.29431
 C652 C 0.82534 0.50463 -0.32230
 C653 C 0.91380 0.50357 -0.16735
 C654 C 0.92956 0.50348 -0.13947
 H655 H 0.87092 0.46493 -0.22864
 H656 H 0.84189 0.47931 -0.17005
 H657 H 0.87388 0.49008 -0.34606
 H658 H 0.91294 0.52870 -0.29157
 H659 H 0.88096 0.51793 -0.11556
 H660 H 0.88393 0.54309 -0.23298
 C661 C 0.47847 0.37215 -0.24176
 C662 C 0.49811 0.37478 -0.28762
 C663 C 0.49758 0.35440 -0.25189
 C664 C 0.47795 0.35147 -0.20653
 C665 C 0.49627 0.38810 -0.19050
 C666 C 0.49574 0.36772 -0.15471
 C667 C 0.51589 0.39101 -0.23585
 C668 C 0.51538 0.37035 -0.20062
 C669 C 0.49825 0.33571 -0.28675
 C670 C 0.49866 0.32035 -0.31607
 C671 C 0.49570 0.40706 -0.15705
 C672 C 0.49551 0.42291 -0.13025
 H673 H 0.46328 0.37309 -0.25828
 H674 H 0.49910 0.37749 -0.34264
 H675 H 0.46236 0.33499 -0.19487
 H676 H 0.49474 0.36504 -0.09967
 H677 H 0.53149 0.40749 -0.24752
 H678 H 0.53057 0.36940 -0.18411
 C679 C 0.63101 0.12112 -0.17062
 C680 C 0.64218 0.12044 -0.23765
 C681 C 0.64130 0.14163 -0.26110
 C682 C 0.63042 0.14260 -0.19459
 C683 C 0.60736 0.10606 -0.20214
 C684 C 0.60647 0.12724 -0.22559
 C685 C 0.61823 0.10508 -0.26865
 C686 C 0.61764 0.12657 -0.29263
 C687 C 0.66024 0.16138 -0.29402
 C688 C 0.67586 0.17752 -0.32141
 C689 C 0.58850 0.08635 -0.16883
 C690 C 0.57301 0.07032 -0.14071
 H691 H 0.63630 0.11864 -0.12009
 H692 H 0.65709 0.11788 -0.24295
 H693 H 0.63564 0.15825 -0.16450
 H694 H 0.59156 0.12980 -0.22028
 H695 H 0.61301 0.08943 -0.29872
 H696 H 0.61235 0.12905 -0.34316
 C697 C 1.11533 0.50625 -0.26529
 C698 C 1.14031 0.51875 -0.23965
 C699 C 1.14208 0.49758 -0.25715
 C700 C 1.11739 0.48509 -0.28332
 C701 C 1.10724 0.49635 -0.19481
 C702 C 1.10901 0.47518 -0.21232
 C703 C 1.13193 0.50885 -0.16861
 C704 C 1.13400 0.48768 -0.18667
 C705 C 1.16136 0.49821 -0.29240
 C706 C 1.17708 0.49860 -0.32192
 C707 C 1.08783 0.49580 -0.16066
 C708 C 1.07189 0.49559 -0.13311
 H709 H 1.10743 0.51387 -0.29723
 H710 H 1.15339 0.53667 -0.25128
 H711 H 1.11164 0.47534 -0.33090
 H712 H 1.09593 0.45726 -0.20069
 H713 H 1.13767 0.51859 -0.12103
 H714 H 1.14192 0.48006 -0.15475
 C715 C 0.52174 0.62367 -0.25899
 C716 C 0.50191 0.62255 -0.30090
 C717 C 0.50501 0.64387 -0.26418
 C718 C 0.52484 0.64530 -0.22279
 C719 C 0.50443 0.60883 -0.20511
 C720 C 0.50753 0.63015 -0.16839
 C721 C 0.48459 0.60740 -0.24649
 C722 C 0.48770 0.62903 -0.21030
 C723 C 0.50529 0.66335 -0.29722
 C724 C 0.50542 0.67927 -0.32477
 C725 C 0.50417 0.58940 -0.17185
 C726 C 0.50401 0.57353 -0.14391
 H727 H 0.53573 0.62124 -0.27866
 H728 H 0.49960 0.61966 -0.35578
 H729 H 0.54139 0.66109 -0.21340
 H730 H 0.50983 0.63304 -0.11352
 H731 H 0.46805 0.59160 -0.25588
 H732 H 0.47371 0.63146 -0.19063
 C733 C 0.37579 -0.10534 -0.25060
 C734 C 0.37734 -0.12506 -0.28474
 C735 C 0.35458 -0.14223 -0.25190
 C736 C 0.35273 -0.12280 -0.21828
 C737 C 0.38832 -0.10754 -0.18935
 C738 C 0.36556 -0.12471 -0.15646
 C739 C 0.39017 -0.12698 -0.22297
 C740 C 0.36711 -0.14445 -0.19065
 C741 C 0.33581 -0.16139 -0.28729
 C742 C 0.32034 -0.17698 -0.31691
 C743 C 0.40726 -0.08817 -0.15520
 C744 C 0.42307 -0.07223 -0.12781
 H745 H 0.37956 -0.08904 -0.27485
 H746 H 0.38198 -0.12543 -0.33786
 H747 H 0.33712 -0.12131 -0.21677
 H748 H 0.36094 -0.12433 -0.10334
 H749 H 0.40578 -0.12847 -0.22449
 H750 H 0.36333 -0.16076 -0.16644
 C751 C 0.50999 -0.12419 0.15816
 C752 C 0.52688 -0.12174 0.21447
 C753 C 0.50676 -0.14017 0.25491
 C754 C 0.48988 -0.14293 0.19917
 C755 C 0.50638 -0.10602 0.19310
 C756 C 0.48627 -0.12446 0.23355
 C757 C 0.52325 -0.10327 0.24884
 C758 C 0.50314 -0.12199 0.28979
 C759 C 0.50680 -0.15917 0.28996
 C760 C 0.50661 -0.17482 0.31937
 C761 C 0.50603 -0.08697 0.15937
 C762 C 0.50561 -0.07127 0.13228
 H763 H 0.51280 -0.12487 0.10363
 H764 H 0.54357 -0.12084 0.20703
 H765 H 0.47616 -0.15946 0.17915
 H766 H 0.46956 -0.12537 0.24100
 H767 H 0.53697 -0.08674 0.26887
 H768 H 0.50033 -0.12130 0.34431
 C769 C 0.37698 0.48225 0.24993
 C770 C 0.37932 0.50262 0.29156
 C771 C 0.35833 0.50058 0.25523
 C772 C 0.35571 0.48022 0.21411
 C773 C 0.39219 0.49907 0.19558
 C774 C 0.37121 0.49703 0.15923
 C775 C 0.39483 0.51944 0.23668
 C776 C 0.37354 0.51741 0.20087
 C777 C 0.33938 0.50117 0.28867
 C778 C 0.32369 0.50137 0.31656
 C779 C 0.41099 0.49816 0.16222
 C780 C 0.42644 0.49748 0.13446
 H781 H 0.37860 0.46778 0.26972
 H782 H 0.38243 0.50494 0.34635
 H783 H 0.33941 0.46411 0.20518
 H784 H 0.36810 0.49472 0.10444
 H785 H 0.41114 0.53555 0.24557
 H786 H 0.37192 0.53188 0.18109
 C787 C 1.12622 0.63163 0.15840
 C788 C 1.12426 0.64745 0.21081
 C789 C 1.14131 0.64489 0.25576
 C790 C 1.14357 0.62938 0.20391
 C791 C 1.10667 0.61088 0.19382
 C792 C 1.12372 0.60833 0.23877
 C793 C 1.10441 0.62640 0.24567
 C794 C 1.12175 0.62414 0.29113
 C795 C 1.16047 0.66377 0.29083
 C796 C 1.17608 0.67928 0.32022
 C797 C 1.08736 0.59181 0.15987
 C798 C 1.07150 0.57594 0.13241
 H799 H 1.12781 0.63448 0.10343
 H800 H 1.12471 0.66375 0.19971
 H801 H 1.15989 0.63081 0.18715
 H802 H 1.12327 0.59203 0.24988
 H803 H 1.08809 0.62496 0.26244
 H804 H 1.12014 0.62126 0.34610
 C805 C 0.49578 0.12497 0.16730
 C806 C 0.47985 0.12347 0.22519
 C807 C 0.50073 0.14195 0.26306
 C808 C 0.51668 0.14375 0.20570
 C809 C 0.49928 0.10674 0.20250
 C810 C 0.52017 0.12521 0.24036
 C811 C 0.48334 0.10495 0.25987
 C812 C 0.50423 0.12372 0.29826
 C813 C 0.50128 0.16140 0.29696
 C814 C 0.50143 0.17722 0.32515
 C815 C 0.49839 0.08713 0.16863
 C816 C 0.49770 0.07106 0.14044
 H817 H 0.49229 0.12526 0.11307
 H818 H 0.46328 0.12298 0.21930
 H819 H 0.53039 0.15993 0.18381
 H820 H 0.53673 0.12569 0.24621
 H821 H 0.46963 0.08877 0.28175
 H822 H 0.50773 0.12343 0.35249
 C823 C 0.63432 0.51086 0.15952
 C824 C 0.64768 0.52665 0.21903
 C825 C 0.64629 0.50601 0.25566
 C826 C 0.63325 0.49022 0.19672
 C827 C 0.61183 0.50566 0.19337
 C828 C 0.61046 0.48503 0.23001
 C829 C 0.62488 0.52145 0.25232
 C830 C 0.62379 0.50081 0.28947
 C831 C 0.66532 0.50603 0.29087
 C832 C 0.68079 0.50585 0.32032
 C833 C 0.59250 0.50534 0.15919
 C834 C 0.57646 0.50495 0.13157
 H835 H 0.63842 0.51498 0.10569
 H836 H 0.66320 0.54376 0.21492
 H837 H 0.63691 0.47739 0.17425
 H838 H 0.59494 0.46791 0.23414
 H839 H 0.62122 0.53428 0.27479
 H840 H 0.61968 0.49668 0.34329
 C841 C 0.89442 0.38107 0.26611
 C842 C 0.87355 0.38239 0.29226
 C843 C 0.85765 0.35888 0.26112
 C844 C 0.87822 0.35727 0.23550
 C845 C 0.89323 0.39218 0.20024
 C846 C 0.87733 0.36868 0.16911
 C847 C 0.87266 0.39380 0.22585
 C848 C 0.85646 0.37000 0.19525
 C849 C 0.83797 0.34023 0.29516
 C850 C 0.82196 0.32477 0.32343
 C851 C 0.91299 0.41070 0.16613
 C852 C 0.92910 0.42599 0.13773
 H853 H 0.91024 0.38582 0.29486
 H854 H 0.87175 0.38783 0.34326
 H855 H 0.88028 0.34204 0.23983
 H856 H 0.87912 0.36324 0.11810
 H857 H 0.87062 0.40905 0.22151
 H858 H 0.84064 0.36525 0.16651
   
