data_POSCAR
  _audit_creation_date              2014-09-24
  _audit_creation_method            'ToBaCCo'
  _symmetry_space_group_name_H-M    'P1'
  _symmetry_Int_Tables_number       1
  _symmetry_cell_setting            triclinic
  loop_
  _symmetry_equiv_pos_as_xyz
 x,y,z
_cell_length_a 30.5804
_cell_length_b 30.7038
_cell_length_c 30.1806
_cell_angle_alpha 89.727800
_cell_angle_beta 89.960500
_cell_angle_gamma 93.083600
loop_
  _atom_site_label
  _atom_site_type_symbol
  _atom_site_fract_x
  _atom_site_fract_y
  _atom_site_fract_z
C1 C -0.11150 0.32670 -0.00581
 C2 C -0.09368 0.31630 0.03587
 C3 C -0.04843 0.30912 0.03765
 C4 C -0.02106 0.31468 0.00023
 C5 C -0.04078 0.32391 -0.04079
 C6 C -0.08628 0.32720 -0.04487
 C7 C 0.02757 0.30921 0.00374
 C8 C 0.05251 0.30035 -0.03425
 C9 C 0.09800 0.29722 -0.03195
 C10 C 0.11884 0.30014 0.00923
 C11 C 0.09491 0.30673 0.04799
 C12 C 0.04971 0.31253 0.04494
 H13 H -0.14571 0.33247 -0.00846
 H14 H -0.03470 0.29659 0.06763
 H15 H -0.02098 0.32970 -0.07002
 H16 H 0.03714 0.29579 -0.06617
 H17 H 0.15363 0.29529 0.01131
 H18 H 0.03250 0.31997 0.07501
 C19 C 0.38246 0.81612 0.50334
 C20 C 0.40660 0.82411 0.54209
 C21 C 0.45244 0.82877 0.53940
 C22 C 0.47478 0.82138 0.49921
 C23 C 0.44940 0.81084 0.46134
 C24 C 0.40341 0.80912 0.46282
 C25 C 0.52405 0.82169 0.49744
 C26 C 0.54732 0.82615 0.45689
 C27 C 0.59310 0.82325 0.45535
 C28 C 0.61616 0.81859 0.49504
 C29 C 0.59410 0.81479 0.53560
 C30 C 0.54835 0.81539 0.53642
 H31 H 0.34707 0.81358 0.50520
 H32 H 0.47006 0.83762 0.56929
 H33 H 0.46498 0.80195 0.43083
 H34 H 0.53039 0.83168 0.42614
 H35 H 0.65127 0.81537 0.49420
 H36 H 0.53217 0.81016 0.56791
 C37 C 1.11307 0.67871 -0.00409
 C38 C 1.09162 0.68466 0.03653
 C39 C 1.04579 0.68724 0.03620
 C40 C 1.02093 0.68174 -0.00290
 C41 C 1.04382 0.67535 -0.04289
 C42 C 1.08997 0.67589 -0.04444
 C43 C 0.97161 0.68424 -0.00196
 C44 C 0.94782 0.69156 -0.04123
 C45 C 0.90217 0.69443 -0.04059
 C46 C 0.87996 0.69268 -0.00004
 C47 C 0.90256 0.68720 0.03967
 C48 C 0.94772 0.68117 0.03836
 H49 H 1.14844 0.68157 -0.00471
 H50 H 1.02958 0.69266 0.06707
 H51 H 1.02610 0.66875 -0.07317
 H52 H 0.96413 0.69553 -0.07278
 H53 H 0.84519 0.69784 0.00074
 H54 H 0.96328 0.67420 0.06944
 C55 C 0.61820 0.18561 0.50256
 C56 C 0.59589 0.18019 0.54292
 C57 C 0.54988 0.17484 0.54269
 C58 C 0.52564 0.17794 0.50285
 C59 C 0.54939 0.18489 0.46311
 C60 C 0.59526 0.18779 0.46261
 C61 C 0.47618 0.17660 0.50263
 C62 C 0.45201 0.17039 0.46283
 C63 C 0.40640 0.17390 0.46176
 C64 C 0.38399 0.17998 0.50149
 C65 C 0.40665 0.18463 0.54160
 C66 C 0.45248 0.18405 0.54181
 H67 H 0.65354 0.19077 0.50237
 H68 H 0.53371 0.16861 0.57404
 H69 H 0.53285 0.18899 0.43198
 H70 H 0.46790 0.16314 0.43203
 H71 H 0.34892 0.18348 0.50097
 H72 H 0.46905 0.19007 0.57287
 C73 C 0.68492 -0.11235 -0.00484
 C74 C 0.69034 -0.09051 0.03585
 C75 C 0.69114 -0.04449 0.03553
 C76 C 0.68388 -0.02050 -0.00363
 C77 C 0.67752 -0.04396 -0.04347
 C78 C 0.67996 -0.08941 -0.04457
 C79 C 0.68466 0.02870 -0.00296
 C80 C 0.69389 0.05347 -0.04180
 C81 C 0.69465 0.09952 -0.04183
 C82 C 0.68895 0.12070 -0.00110
 C83 C 0.68191 0.09711 0.03828
 C84 C 0.67779 0.05149 0.03678
 H85 H 0.68841 -0.14720 -0.00645
 H86 H 0.69664 -0.02743 0.06622
 H87 H 0.67095 -0.02750 -0.07425
 H88 H 0.69963 0.03695 -0.07244
 H89 H 0.69361 0.15584 0.00091
 H90 H 0.66948 0.03441 0.06724
 C91 C 0.18492 0.37302 0.50839
 C92 C 0.17954 0.39634 0.54759
 C93 C 0.17569 0.44173 0.54528
 C94 C 0.18045 0.46471 0.50455
 C95 C 0.18744 0.44012 0.46596
 C96 C 0.18859 0.39452 0.46750
 C97 C 0.18039 0.51390 0.50246
 C98 C 0.17529 0.53620 0.46171
 C99 C 0.17917 0.58194 0.45914
 C100 C 0.18489 0.60605 0.49815
 C101 C 0.18870 0.58515 0.53917
 C102 C 0.18751 0.53940 0.54093
 H103 H 0.18883 0.33818 0.50991
 H104 H 0.16927 0.45842 0.57578
 H105 H 0.19271 0.45581 0.43424
 H106 H 0.16847 0.51873 0.43135
 H107 H 0.18874 0.64130 0.49638
 H108 H 0.19277 0.52433 0.57267
 C109 C 0.31594 1.11459 0.00053
 C110 C 0.30631 1.09216 0.04027
 C111 C 0.30370 1.04641 0.04024
 C112 C 0.31259 1.02269 0.00168
 C113 C 0.32142 1.04629 -0.03795
 C114 C 0.32091 1.09217 -0.03959
 C115 C 0.31118 0.97360 0.00263
 C116 C 0.30313 0.94917 -0.03634
 C117 C 0.30312 0.90320 -0.03635
 C118 C 0.30818 0.88170 0.00452
 C119 C 0.31388 0.90497 0.04410
 C120 C 0.31711 0.95067 0.04264
 H121 H 0.31642 1.14978 0.00071
 H122 H 0.29320 1.02960 0.07023
 H123 H 0.32991 1.02937 -0.06774
 H124 H 0.29795 0.96599 -0.06712
 H125 H 0.30417 0.84650 0.00635
 H126 H 0.32415 0.96789 0.07318
 C127 C 0.81514 0.62730 0.49921
 C128 C 0.81324 0.60360 0.53895
 C129 C 0.81513 0.55799 0.53764
 C130 C 0.82157 0.53581 0.49726
 C131 C 0.82503 0.56114 0.45808
 C132 C 0.81982 0.60622 0.45862
 C133 C 0.82247 0.48667 0.49570
 C134 C 0.81556 0.46352 0.45558
 C135 C 0.81505 0.41774 0.45437
 C136 C 0.81883 0.39448 0.49407
 C137 C 0.82421 0.41630 0.53446
 C138 C 0.82814 0.46202 0.53473
 H139 H 0.81046 0.66203 0.49972
 H140 H 0.81094 0.54048 0.56851
 H141 H 0.83126 0.54651 0.42644
 H142 H 0.80994 0.48032 0.42486
 H143 H 0.81505 0.35919 0.49374
 H144 H 0.83503 0.47765 0.56606
 O145 O 0.23496 0.28795 0.20671
 O146 O 0.31295 0.24113 0.28437
 O147 O 0.29010 0.22817 0.20121
 O148 O 0.25680 0.30140 0.28940
 O149 O 0.20521 0.25257 0.31017
 O150 O 0.24038 0.17788 0.22363
 O151 O 0.26166 0.19269 0.30665
 O152 O 0.18423 0.23808 0.22715
 Cu153 Cu 0.27896 0.26952 0.24346
 Cu154 Cu 0.21780 0.21034 0.26911
 C155 C 0.19663 0.27029 0.20271
 C156 C 0.30040 0.20962 0.30959
 C157 C 0.27024 0.19110 0.19682
 C158 C 0.22545 0.28946 0.31507
 O159 O 0.75660 0.82078 0.21536
 O160 O 0.79689 0.74769 0.30096
 O161 O 0.81313 0.76081 0.21678
 O162 O 0.73706 0.80458 0.29871
 O163 O 0.68654 0.75448 0.27899
 O164 O 0.76244 0.71041 0.19812
 O165 O 0.74642 0.69718 0.28206
 O166 O 0.70654 0.77019 0.19560
 Cu167 Cu 0.78089 0.78855 0.25990
 Cu168 Cu 0.72031 0.72809 0.23699
 C169 C 0.72551 0.80769 0.19007
 C170 C 0.77843 0.71005 0.30642
 C171 C 0.80045 0.72845 0.19295
 C172 C 0.69885 0.78656 0.30320
 O173 O 0.81000 0.25570 0.21552
 O174 O 0.73327 0.21183 0.30026
 O175 O 0.74834 0.19405 0.21700
 O176 O 0.79218 0.27498 0.29761
 O177 O 0.74410 0.32119 0.27479
 O178 O 0.69864 0.23939 0.19612
 O179 O 0.68475 0.25835 0.27917
 O180 O 0.76004 0.29976 0.19198
 Cu181 Cu 0.77587 0.22953 0.25971
 Cu182 Cu 0.71706 0.28439 0.23335
 C183 C 0.79751 0.28418 0.18843
 C184 C 0.69646 0.22844 0.30513
 C185 C 0.71637 0.20314 0.19228
 C186 C 0.77494 0.31160 0.30067
 O187 O 0.24712 0.67761 0.27885
 O188 O 0.29443 0.75933 0.19983
 O189 O 0.30997 0.73766 0.28208
 O190 O 0.23259 0.69884 0.19581
 O191 O 0.18553 0.74616 0.21807
 O192 O 0.26161 0.78335 0.30564
 O193 O 0.24771 0.80650 0.22314
 O194 O 0.19922 0.72430 0.30061
 Cu195 Cu 0.27575 0.71359 0.23689
 Cu196 Cu 0.21880 0.76986 0.26401
 C197 C 0.21571 0.68733 0.30396
 C198 C 0.27856 0.79668 0.19741
 C199 C 0.29828 0.76624 0.30922
 C200 C 0.19630 0.71666 0.19146
 O201 O 0.80513 0.27198 0.69243
 O202 O 0.76483 0.19486 0.77883
 O203 O 0.74418 0.20974 0.69588
 O204 O 0.82379 0.25890 0.77585
 O205 O 0.77501 0.30515 0.79650
 O206 O 0.69566 0.25594 0.71719
 O207 O 0.71661 0.24149 0.79996
 O208 O 0.75661 0.31836 0.71340
 Cu209 Cu 0.78928 0.22918 0.73362
 Cu210 Cu 0.73103 0.28482 0.75869
 C211 C 0.78751 0.30824 0.68790
 C212 C 0.73451 0.20538 0.80483
 C213 C 0.70642 0.22490 0.69247
 C214 C 0.81266 0.29001 0.80040
 O215 O 0.31309 0.75165 0.72115
 O216 O 0.23384 0.69966 0.79993
 O217 O 0.25613 0.68600 0.71746
 O218 O 0.29120 0.76398 0.80401
 O219 O 0.24144 0.80872 0.78187
 O220 O 0.20619 0.73041 0.69514
 O221 O 0.18378 0.74394 0.77750
 O222 O 0.26310 0.79602 0.69885
 Cu223 Cu 0.27860 0.72089 0.76273
 Cu224 Cu 0.21868 0.77424 0.73605
 C225 C 0.30143 0.78221 0.69591
 C226 C 0.19555 0.71360 0.80293
 C227 C 0.22556 0.69505 0.69108
 C228 C 0.27166 0.79915 0.80851
 O229 O 0.25261 0.30793 0.72492
 O230 O 0.30203 0.23334 0.80410
 O231 O 0.31455 0.25351 0.72053
 O232 O 0.23950 0.28630 0.80817
 O233 O 0.19173 0.23365 0.78823
 O234 O 0.26652 0.20100 0.70082
 O235 O 0.25454 0.18048 0.78397
 O236 O 0.20483 0.25535 0.70489
 Cu237 Cu 0.28195 0.27560 0.76633
 Cu238 Cu 0.22456 0.21241 0.74247
 C239 C 0.22079 0.29426 0.70077
 C240 C 0.28627 0.19439 0.80817
 C241 C 0.30310 0.22187 0.69534
 C242 C 0.20315 0.26495 0.81379
 O243 O 0.73395 0.79969 0.69548
 O244 O 0.80941 0.76273 0.78065
 O245 O 0.79250 0.74256 0.69784
 O246 O 0.74883 0.81882 0.77853
 O247 O 0.69951 0.76796 0.79988
 O248 O 0.74299 0.69179 0.71902
 O249 O 0.75998 0.71190 0.80181
 O250 O 0.68440 0.74894 0.71666
 Cu251 Cu 0.77621 0.78602 0.73615
 Cu252 Cu 0.71681 0.72506 0.76161
 C253 C 0.69668 0.78001 0.69079
 C254 C 0.79741 0.73142 0.80627
 C255 C 0.77441 0.70453 0.69374
 C256 C 0.71700 0.80626 0.80343
 C257 C 0.27416 0.15558 0.07845
 C258 C 0.29656 0.11678 0.08121
 C259 C 0.30954 0.10203 0.12327
 C260 C 0.30062 0.12579 0.16145
 C261 C 0.27949 0.16498 0.15789
 C262 C 0.26631 0.17969 0.11633
 H263 H 0.26222 0.16727 0.04706
 H264 H 0.32713 0.07253 0.12663
 H265 H 0.31087 0.11409 0.19352
 H266 H 0.24931 0.20964 0.11330
 C267 C 0.83005 0.66654 0.58985
 C268 C 0.80672 0.62676 0.58138
 C269 C 0.77548 0.61082 0.61243
 C270 C 0.76637 0.63514 0.65011
 C271 C 0.78835 0.67589 0.65753
 C272 C 0.82102 0.69080 0.62749
 H273 H 0.85474 0.67932 0.56679
 H274 H 0.75671 0.58047 0.60664
 H275 H 0.74094 0.62276 0.67253
 H276 H 0.83866 0.72196 0.63224
 C277 C 0.67815 0.84263 0.08069
 C278 C 0.69657 0.88558 0.07559
 C279 C 0.72202 0.90336 0.11087
 C280 C 0.73021 0.87855 0.14858
 C281 C 0.71284 0.83548 0.15258
 C282 C 0.68602 0.81811 0.11865
 H283 H 0.65677 0.82786 0.05576
 H284 H 0.73825 0.93546 0.10866
 H285 H 0.75124 0.89279 0.17414
 H286 H 0.67192 0.78505 0.12085
 C287 C 0.16338 0.33146 0.59721
 C288 C 0.18302 0.37349 0.59089
 C289 C 0.21088 0.39118 0.62398
 C290 C 0.22132 0.36624 0.66102
 C291 C 0.20396 0.32312 0.66587
 C292 C 0.17366 0.30657 0.63435
 H293 H 0.14141 0.31718 0.57248
 H294 H 0.22683 0.42331 0.61988
 H295 H 0.24461 0.38006 0.68478
 H296 H 0.15948 0.27360 0.63719
 C297 C 0.89704 0.31232 0.11774
 C298 C 0.87913 0.31103 0.07437
 C299 C 0.83312 0.30330 0.07078
 C300 C 0.80679 0.29710 0.10819
 C301 C 0.82537 0.29673 0.15041
 C302 C 0.87060 0.30432 0.15506
 H303 H 0.93138 0.32017 0.12367
 H304 H 0.81661 0.29929 0.03939
 H305 H 0.77193 0.29011 0.10393
 H306 H 0.88545 0.30433 0.18764
 C307 C 0.39976 0.79513 0.61963
 C308 C 0.38382 0.82151 0.58570
 C309 C 0.34295 0.83961 0.59146
 C310 C 0.31724 0.82901 0.62875
 C311 C 0.33178 0.79992 0.66103
 C312 C 0.37400 0.78439 0.65683
 H313 H 0.43092 0.78035 0.61601
 H314 H 0.33002 0.86043 0.56613
 H315 H 0.28503 0.84183 0.63110
 H316 H 0.38631 0.76210 0.68116
 C317 C 0.10134 0.71608 0.11136
 C318 C 0.11602 0.69006 0.07640
 C319 C 0.15638 0.67035 0.08196
 C320 C 0.18153 0.67749 0.12009
 C321 C 0.16733 0.70471 0.15377
 C322 C 0.12668 0.72333 0.14930
 H323 H 0.07163 0.73347 0.10875
 H324 H 0.16851 0.64859 0.05725
 H325 H 0.21265 0.66243 0.12268
 H326 H 0.11496 0.74477 0.17457
 C327 C 0.60626 0.21246 0.61860
 C328 C 0.62083 0.18508 0.58511
 C329 C 0.66189 0.16706 0.58991
 C330 C 0.68885 0.17822 0.62602
 C331 C 0.67542 0.20782 0.65805
 C332 C 0.63328 0.22378 0.65460
 H333 H 0.57501 0.22722 0.61567
 H334 H 0.67381 0.14551 0.56485
 H335 H 0.72098 0.16512 0.62778
 H336 H 0.62181 0.24649 0.67879
 C337 C 0.68535 0.16587 0.91371
 C338 C 0.70244 0.12428 0.91873
 C339 C 0.72796 0.10877 0.88368
 C340 C 0.73744 0.13459 0.84622
 C341 C 0.72123 0.17632 0.84229
 C342 C 0.69445 0.19132 0.87607
 H343 H 0.66394 0.17878 0.93840
 H344 H 0.74314 0.07784 0.88586
 H345 H 0.75839 0.12219 0.82078
 H346 H 0.68118 0.22326 0.87393
 C347 C 0.20933 0.59020 0.38210
 C348 C 0.18183 0.60484 0.41562
 C349 C 0.16132 0.64424 0.40925
 C350 C 0.17025 0.66979 0.37151
 C351 C 0.20013 0.65662 0.33941
 C352 C 0.21849 0.61587 0.34445
 H353 H 0.22590 0.56015 0.38626
 H354 H 0.13962 0.65610 0.43432
 H355 H 0.15537 0.70089 0.36861
 H356 H 0.24156 0.60472 0.32032
 C357 C 0.31561 0.83794 0.91929
 C358 C 0.29717 0.87888 0.92394
 C359 C 0.27246 0.89431 0.88811
 C360 C 0.26512 0.86901 0.85014
 C361 C 0.28277 0.82794 0.84648
 C362 C 0.30870 0.81307 0.88113
 H363 H 0.33647 0.82518 0.94466
 H364 H 0.25633 0.92473 0.88998
 H365 H 0.24472 0.88123 0.82405
 H366 H 0.32298 0.78160 0.87928
 C367 C 0.77594 0.40555 0.38176
 C368 C 0.80803 0.39361 0.41215
 C369 C 0.83190 0.35680 0.40319
 C370 C 0.82256 0.33133 0.36580
 C371 C 0.78912 0.34210 0.33644
 C372 C 0.76659 0.38007 0.34428
 H373 H 0.75670 0.43350 0.38794
 H374 H 0.85729 0.34719 0.42566
 H375 H 0.84066 0.30241 0.36068
 H376 H 0.74052 0.38919 0.32242
 C377 C 0.16372 0.31416 0.92033
 C378 C 0.12388 0.29022 0.92743
 C379 C 0.10925 0.25940 0.89576
 C380 C 0.13444 0.25203 0.85819
 C381 C 0.17472 0.27540 0.85148
 C382 C 0.18885 0.30690 0.88271
 H383 H 0.17545 0.33851 0.94397
 H384 H 0.07885 0.24020 0.90061
 H385 H 0.12273 0.22740 0.83484
 H386 H 0.21975 0.32540 0.87854
 C387 C 0.65863 0.84115 0.40689
 C388 C 0.61686 0.82037 0.41250
 C389 C 0.60043 0.79221 0.37917
 C390 C 0.62633 0.78280 0.34254
 C391 C 0.66914 0.80154 0.33828
 C392 C 0.68445 0.83193 0.37014
 H393 H 0.67198 0.86334 0.43183
 H394 H 0.56856 0.77540 0.38272
 H395 H 0.61342 0.75942 0.31848
 H396 H 0.71714 0.84715 0.36778
 C397 C 0.89255 0.73241 0.88654
 C398 C 0.87744 0.70126 0.91799
 C399 C 0.83734 0.67792 0.91069
 C400 C 0.81211 0.68657 0.87349
 C401 C 0.82639 0.71887 0.84283
 C402 C 0.86725 0.74116 0.84933
 H403 H 0.92316 0.75115 0.89155
 H404 H 0.82524 0.65334 0.93416
 H405 H 0.78086 0.66874 0.86939
 H406 H 0.87914 0.76628 0.82635
 C407 C 0.34031 0.15608 0.41433
 C408 C 0.38242 0.17621 0.41901
 C409 C 0.39923 0.20324 0.38461
 C410 C 0.37339 0.21229 0.34779
 C411 C 0.33025 0.19432 0.34445
 C412 C 0.31455 0.16491 0.37740
 H413 H 0.32667 0.13476 0.44010
 H414 H 0.43140 0.21954 0.38742
 H415 H 0.38656 0.23494 0.32294
 H416 H 0.28156 0.15033 0.37578
 C417 C 0.71105 0.90378 0.87916
 C418 C 0.68275 0.88716 0.91262
 C419 C 0.66186 0.84564 0.90711
 C420 C 0.67117 0.82021 0.87031
 C421 C 0.70176 0.83569 0.83835
 C422 C 0.72053 0.87829 0.84247
 H423 H 0.72797 0.93548 0.88267
 H424 H 0.63957 0.83219 0.93217
 H425 H 0.65591 0.78765 0.86800
 H426 H 0.74406 0.89128 0.81834
 C427 C 0.17193 0.32965 0.41920
 C428 C 0.19597 0.36920 0.42671
 C429 C 0.22811 0.38350 0.39588
 C430 C 0.23681 0.35819 0.35889
 C431 C 0.21355 0.31805 0.35199
 C432 C 0.18059 0.30435 0.38221
 H433 H 0.14663 0.31813 0.44220
 H434 H 0.24751 0.41359 0.40108
 H435 H 0.26250 0.36960 0.33629
 H436 H 0.16204 0.27363 0.37780
 C437 C 0.30057 0.09586 0.88158
 C438 C 0.32075 0.11511 0.91937
 C439 C 0.33576 0.15935 0.91629
 C440 C 0.32718 0.18428 0.87877
 C441 C 0.30305 0.16594 0.84334
 C442 C 0.29129 0.12114 0.84438
 H443 H 0.28798 0.06224 0.88190
 H444 H 0.35373 0.17524 0.94311
 H445 H 0.33744 0.21860 0.87864
 H446 H 0.27302 0.10598 0.81730
 C447 C 0.83364 0.67290 0.41117
 C448 C 0.81439 0.63067 0.41670
 C449 C 0.78607 0.61345 0.38376
 C450 C 0.77553 0.63871 0.34709
 C451 C 0.79330 0.68164 0.34249
 C452 C 0.82335 0.69808 0.37432
 H453 H 0.85581 0.68680 0.43593
 H454 H 0.77035 0.58117 0.38744
 H455 H 0.75242 0.62506 0.32306
 H456 H 0.83773 0.73099 0.37162
 C457 C 0.09575 0.69865 0.87710
 C458 C 0.11308 0.67776 0.91454
 C459 C 0.15590 0.66293 0.91107
 C460 C 0.18160 0.67207 0.87351
 C461 C 0.16550 0.69651 0.83829
 C462 C 0.12181 0.70833 0.83980
 H463 H 0.06339 0.71125 0.87769
 H464 H 0.17011 0.64452 0.93758
 H465 H 0.21493 0.66179 0.87311
 H466 H 0.10831 0.72693 0.81298
 C467 C 0.60536 0.22660 0.38981
 C468 C 0.61933 0.19574 0.42049
 C469 C 0.65719 0.17346 0.41132
 C470 C 0.68134 0.18278 0.37285
 C471 C 0.66810 0.21462 0.34281
 C472 C 0.62945 0.23588 0.35132
 H473 H 0.57661 0.24469 0.39627
 H474 H 0.66834 0.14912 0.43417
 H475 H 0.71098 0.16583 0.36721
 H476 H 0.61853 0.26077 0.32898
 C477 C 0.91012 0.30212 0.87770
 C478 C 0.89298 0.32631 0.91287
 C479 C 0.85199 0.34445 0.90621
 C480 C 0.82725 0.33495 0.86825
 C481 C 0.84256 0.30699 0.83573
 C482 C 0.88499 0.29218 0.83996
 H483 H 0.94118 0.28708 0.88075
 H484 H 0.83835 0.36566 0.93053
 H485 H 0.79509 0.34786 0.86552
 H486 H 0.89796 0.27097 0.81518
 C487 C 0.39085 0.81226 0.38029
 C488 C 0.37711 0.79764 0.42268
 C489 C 0.33769 0.77203 0.42652
 C490 C 0.31207 0.76248 0.38933
 C491 C 0.32586 0.77724 0.34745
 C492 C 0.36556 0.80170 0.34283
 H493 H 0.42075 0.83238 0.37615
 H494 H 0.32667 0.75892 0.45820
 H495 H 0.28168 0.74297 0.39313
 H496 H 0.37649 0.81322 0.31048
 C497 C 0.28486 0.89530 0.12141
 C498 C 0.31177 0.88116 0.08715
 C499 C 0.33213 0.84149 0.09238
 C500 C 0.32346 0.81519 0.12966
 C501 C 0.29409 0.82792 0.16244
 C502 C 0.27605 0.86893 0.15861
 H503 H 0.26843 0.92553 0.11819
 H504 H 0.35345 0.83003 0.06677
 H505 H 0.33812 0.78391 0.13168
 H506 H 0.25341 0.87979 0.18331
 C507 C 0.79343 0.40568 0.61070
 C508 C 0.82048 0.39138 0.57665
 C509 C 0.83984 0.35116 0.58148
 C510 C 0.83070 0.32489 0.61867
 C511 C 0.80179 0.33824 0.65157
 C512 C 0.78414 0.37939 0.64771
 H513 H 0.77759 0.43627 0.60766
 H514 H 0.86111 0.33953 0.55592
 H515 H 0.84498 0.29343 0.62079
 H516 H 0.76189 0.39069 0.67256
 C517 C 0.66363 0.15994 0.08672
 C518 C 0.68398 0.12036 0.08136
 C519 C 0.71094 0.10580 0.11548
 C520 C 0.71971 0.13167 0.15278
 C521 C 0.70146 0.17251 0.15688
 C522 C 0.67213 0.18566 0.12416
 H523 H 0.64241 0.17174 0.06111
 H524 H 0.72739 0.07562 0.11208
 H525 H 0.74232 0.12053 0.17744
 H526 H 0.65738 0.21686 0.12635
 C527 C 0.22788 0.60059 0.61097
 C528 C 0.19607 0.61151 0.57985
 C529 C 0.17233 0.64879 0.58699
 C530 C 0.18098 0.67523 0.62383
 C531 C 0.21361 0.66498 0.65433
 C532 C 0.23654 0.62703 0.64783
 H533 H 0.24707 0.57238 0.60609
 H534 H 0.14724 0.65767 0.56382
 H535 H 0.16267 0.70416 0.62792
 H536 H 0.26200 0.61830 0.67063
 C537 C 0.83725 0.67237 0.08893
 C538 C 0.87934 0.69196 0.08247
 C539 C 0.89706 0.72029 0.11507
 C540 C 0.87216 0.73082 0.15206
 C541 C 0.82917 0.71293 0.15737
 C542 C 0.81252 0.68257 0.12606
 H543 H 0.82295 0.65018 0.06447
 H544 H 0.92927 0.73617 0.11073
 H545 H 0.88600 0.75420 0.17563
 H546 H 0.77959 0.66804 0.12920
 C547 C 0.34329 0.16734 0.59214
 C548 C 0.38213 0.19220 0.58293
 C549 C 0.39626 0.22527 0.61245
 C550 C 0.37126 0.23416 0.64979
 C551 C 0.33171 0.21010 0.65828
 C552 C 0.31837 0.17614 0.62943
 H553 H 0.33199 0.14130 0.57018
 H554 H 0.42587 0.24521 0.60589
 H555 H 0.38235 0.26059 0.67135
 H556 H 0.28816 0.15689 0.63511
 C557 C 0.15883 0.32480 0.09783
 C558 C 0.11722 0.30410 0.09154
 C559 C 0.09969 0.27633 0.12497
 C560 C 0.12457 0.26702 0.16245
 C561 C 0.16734 0.28564 0.16739
 C562 C 0.18354 0.31582 0.13540
 H563 H 0.17296 0.34664 0.07274
 H564 H 0.06782 0.25971 0.12081
 H565 H 0.11106 0.24375 0.18654
 H566 H 0.21625 0.33089 0.13821
 C567 C 0.65798 0.83251 0.58534
 C568 C 0.61883 0.80794 0.57699
 C569 C 0.60405 0.77606 0.60786
 C570 C 0.62853 0.76812 0.64577
 C571 C 0.66834 0.79185 0.65352
 C572 C 0.68248 0.82458 0.62325
 H573 H 0.66979 0.85764 0.56233
 H574 H 0.57425 0.75626 0.60200
 H575 H 0.61688 0.74252 0.66832
 H576 H 0.71302 0.84342 0.62829
   
