data_POSCAR
  _audit_creation_date              2014-09-24
  _audit_creation_method            'ToBaCCo'
  _symmetry_space_group_name_H-M    'P1'
  _symmetry_Int_Tables_number       1
  _symmetry_cell_setting            triclinic
  loop_
  _symmetry_equiv_pos_as_xyz
 x,y,z
_cell_length_a 30.4346
_cell_length_b 33.9113
_cell_length_c 7.9824
_cell_angle_alpha 86.733400
_cell_angle_beta 91.029400
_cell_angle_gamma 89.893200
loop_
  _atom_site_label
  _atom_site_type_symbol
  _atom_site_fract_x
  _atom_site_fract_y
  _atom_site_fract_z
O1 O 0.28802 0.23830 0.05759
 O2 O 0.21368 0.30849 0.24430
 O3 O 0.29820 0.29543 0.26201
 O4 O 0.20385 0.25020 0.05276
 O5 O 0.19714 0.20722 0.26930
 O6 O 0.29008 0.25373 0.48232
 O7 O 0.20568 0.26673 0.46447
 O8 O 0.28188 0.19723 0.28111
 Cu9 Cu 0.25186 0.27738 0.13204
 Cu10 Cu 0.24269 0.22707 0.39667
 C11 C 0.29763 0.20593 0.13756
 C12 C 0.19686 0.29952 0.38556
 C13 C 0.31016 0.28222 0.40796
 C14 C 0.18476 0.22068 0.12440
 O15 O 0.77749 0.28249 0.43662
 O16 O 0.69888 0.21044 0.27657
 O17 O 0.77743 0.20671 0.40841
 O18 O 0.69841 0.28745 0.31129
 O19 O 0.72526 0.29669 0.05694
 O20 O 0.80440 0.21566 0.15412
 O21 O 0.72603 0.22074 0.02335
 O22 O 0.80475 0.29275 0.18336
 Cu23 Cu 0.73510 0.24591 0.38328
 Cu24 Cu 0.76792 0.25739 0.07939
 C25 C 0.80420 0.30007 0.33760
 C26 C 0.69962 0.20281 0.12260
 C27 C 0.80405 0.19718 0.29697
 C28 C 0.69870 0.30612 0.16897
 O29 O 0.69834 0.78864 0.62555
 O30 O 0.78321 0.71217 0.58997
 O31 O 0.70126 0.71167 0.67715
 O32 O 0.78027 0.78847 0.53796
 O33 O 0.79919 0.79495 0.80332
 O34 O 0.72077 0.71785 0.94221
 O35 O 0.80272 0.71801 0.85538
 O36 O 0.71732 0.79406 0.89178
 Cu37 Cu 0.73854 0.74951 0.58152
 Cu38 Cu 0.76225 0.75697 0.89918
 C39 C 0.69343 0.80437 0.76458
 C40 C 0.80728 0.70199 0.71687
 C41 C 0.69768 0.70151 0.83178
 C42 C 0.80313 0.80499 0.64871
 O43 O 0.31343 0.78376 0.70367
 O44 O 0.24960 0.72647 1.01908
 O45 O 0.30600 0.70875 0.79326
 O46 O 0.25698 0.80155 0.92014
 O47 O 0.20098 0.79442 0.74545
 O48 O 0.24987 0.70189 0.61871
 O49 O 0.19478 0.72020 0.83719
 O50 O 0.25877 0.77725 0.52128
 Cu51 Cu 0.28694 0.75553 0.87790
 Cu52 Cu 0.22088 0.74813 0.66061
 C53 C 0.29638 0.79084 0.55918
 C54 C 0.21189 0.71307 0.98159
 C55 C 0.28547 0.68905 0.68677
 C56 C 0.22088 0.81395 0.85410
 C57 C 0.97601 0.00302 -0.05868
 C58 C 1.01995 0.00924 -0.06997
 C59 C 1.03820 0.04904 -0.04266
 C60 C 1.05176 -0.02260 -0.10470
 C61 C 0.95376 -0.03034 -0.13740
 C62 C 0.94856 0.03051 0.03302
 C63 C 1.02312 0.08169 -0.14325
 C64 C 1.04283 0.11849 -0.13113
 C65 C 1.07846 0.12325 -0.01954
 C66 C 1.09240 0.09086 0.08595
 C67 C 1.07255 0.05395 0.07389
 C68 C 1.08987 -0.01331 -0.19590
 C69 C 1.12464 -0.04014 -0.19716
 C70 C 1.12142 -0.07714 -0.11123
 C71 C 1.08243 -0.08778 -0.03020
 C72 C 1.04801 -0.06055 -0.02502
 C73 C 0.92338 -0.05353 -0.04615
 C74 C 0.89993 -0.08311 -0.12294
 C75 C 0.90569 -0.08956 -0.29356
 C76 C 0.93662 -0.06663 -0.38453
 C77 C 0.96048 -0.03730 -0.30693
 C78 C 0.95722 0.03549 0.20378
 C79 C 0.93337 0.06290 0.28947
 C80 C 0.90057 0.08607 0.20544
 C81 C 0.89168 0.08071 0.03479
 C82 C 0.91516 0.05279 -0.05029
 H83 H 0.99691 0.07839 -0.23505
 H84 H 1.03057 0.14289 -0.21188
 H85 H 1.11970 0.09370 0.17338
 H86 H 1.08460 0.02903 0.15257
 H87 H 1.09374 0.01564 -0.25840
 H88 H 1.15467 -0.03155 -0.26022
 H89 H 1.01974 -0.06828 0.05025
 H90 H 0.91762 -0.04856 0.08451
 H91 H 0.87645 -0.10034 -0.04945
 H92 H 0.94229 -0.07107 -0.51551
 H93 H 0.98334 -0.01933 -0.38035
 H94 H 0.98283 0.01833 0.27008
 H95 H 0.94133 0.06637 0.42043
 H96 H 0.86642 0.09801 -0.03269
 H97 H 0.90811 0.04922 -0.18184
 H98 H 1.07976 -0.11617 0.03814
 C99 C 0.48409 0.49083 0.56946
 C100 C 0.52773 0.49765 0.55105
 C101 C 0.55025 0.53093 0.62944
 C102 C 0.55456 0.47060 0.45421
 C103 C 0.46609 0.45084 0.54542
 C104 C 0.45218 0.52199 0.61305
 C105 C 0.57956 0.55490 0.53636
 C106 C 0.60250 0.58499 0.61205
 C107 C 0.59715 0.59134 0.78309
 C108 C 0.56759 0.56736 0.87620
 C109 C 0.54436 0.53746 0.79994
 C110 C 0.54444 0.46579 0.28423
 C111 C 0.56809 0.43903 0.19385
 C112 C 0.60206 0.41629 0.27271
 C113 C 0.61231 0.42143 0.44251
 C114 C 0.58912 0.44874 0.53196
 C115 C 0.48078 0.41872 0.65030
 C116 C 0.45956 0.38232 0.64722
 C117 C 0.42315 0.37748 0.53926
 C118 C 0.40993 0.40921 0.42867
 C119 C 0.43108 0.44567 0.43237
 C120 C 0.41530 0.51138 0.70921
 C121 C 0.38029 0.53758 0.72078
 C122 C 0.38196 0.57542 0.64122
 C123 C 0.41987 0.58735 0.55532
 C124 C 0.45450 0.56065 0.53915
 H125 H 0.58464 0.55031 0.40502
 H126 H 0.62495 0.60299 0.53693
 H127 H 0.56237 0.57147 1.00769
 H128 H 0.52237 0.51887 0.87475
 H129 H 0.51797 0.48266 0.22209
 H130 H 0.55913 0.43568 0.06359
 H131 H 0.59741 0.45223 0.66267
 H132 H 0.50757 0.42233 0.73930
 H133 H 0.47109 0.35849 0.73269
 H134 H 0.38208 0.40632 0.34393
 H135 H 0.41936 0.47021 0.35061
 H136 H 0.41255 0.48200 0.76876
 H137 H 0.35131 0.52794 0.78825
 H138 H 0.42145 0.61635 0.49146
 H139 H 0.48183 0.56956 0.46099
 H140 H 0.63849 0.40445 0.50593
 C141 C 0.02531 0.51511 0.24957
 C142 C -0.01677 0.51189 0.19527
 C143 C -0.04347 0.47722 0.24845
 C144 C -0.03860 0.54327 0.08896
 C145 C 0.05004 0.55253 0.23542
 C146 C 0.05021 0.47967 0.31092
 C147 C -0.05490 0.44836 0.13661
 C148 C -0.08054 0.41596 0.19068
 C149 C -0.09509 0.41203 0.35703
 C150 C -0.08360 0.44131 0.46791
 C151 C -0.05815 0.47355 0.41377
 C152 C -0.03730 0.54177 -0.08566
 C153 C -0.06047 0.56940 -0.18887
 C154 C -0.08588 0.59887 -0.11903
 C155 C -0.08623 0.60072 0.05666
 C156 C -0.06279 0.57302 0.15995
 C157 C 0.06391 0.56997 0.38225
 C158 C 0.09254 0.60210 0.37405
 C159 C 0.10786 0.61731 0.21825
 C160 C 0.09213 0.60101 0.07075
 C161 C 0.06381 0.56856 0.07945
 C162 C 0.05086 0.46684 0.48068
 C163 C 0.07451 0.43291 0.53464
 C164 C 0.09820 0.41161 0.41937
 C165 C 0.09751 0.42495 0.24949
 C166 C 0.07369 0.45864 0.19587
 H167 H -0.04373 0.45081 0.00850
 H168 H -0.08892 0.39392 0.10266
 H169 H -0.09481 0.43997 0.59578
 H170 H -0.05006 0.49596 0.50068
 H171 H -0.01872 0.51884 -0.14201
 H172 H -0.05879 0.56694 -0.32291
 H173 H -0.06402 0.57427 0.29486
 H174 H 0.05355 0.55791 0.50374
 H175 H 0.10339 0.61430 0.49010
 H176 H 0.10351 0.61205 -0.05077
 H177 H 0.05416 0.55492 -0.03469
 H178 H 0.03300 0.48301 0.57081
 H179 H 0.07431 0.42372 0.66633
 H180 H 0.11530 0.40926 0.15748
 H181 H 0.07344 0.46838 0.06418
 H182 H -0.10535 0.62308 0.11430
 C183 C 0.51825 0.99631 0.29216
 C184 C 0.47479 0.99408 0.25499
 C185 C 0.45005 0.95692 0.28184
 C186 C 0.44939 1.02949 0.19568
 C187 C 0.54473 1.03089 0.23346
 C188 C 0.54082 0.96468 0.39584
 C189 C 0.44720 0.93039 0.15370
 C190 C 0.41980 0.89743 0.17069
 C191 C 0.39558 0.89023 0.31750
 C192 C 0.39994 0.91600 0.44841
 C193 C 0.42654 0.94947 0.42968
 C194 C 0.42852 1.03159 0.03749
 C195 C 0.40328 1.06470 -0.01422
 C196 C 0.39785 1.09569 0.09325
 C197 C 0.41849 1.09331 0.25210
 C198 C 0.44448 1.06064 0.30213
 C199 C 0.56991 1.05182 0.34738
 C200 C 0.59601 1.08356 0.29011
 C201 C 0.59783 1.09452 0.11784
 C202 C 0.57216 1.07365 0.00446
 C203 C 0.54598 1.04214 0.06183
 C204 C 0.53155 0.95926 0.56700
 C205 C 0.55471 0.93122 0.66858
 C206 C 0.58772 0.90815 0.60065
 C207 C 0.59649 0.91339 0.42843
 C208 C 0.57351 0.94173 0.32723
 H209 H 0.46510 0.93592 0.03854
 H210 H 0.41708 0.87783 0.06848
 H211 H 0.38124 0.91121 0.56204
 H212 H 0.42815 0.97004 0.52850
 H213 H 0.43193 1.00775 -0.04606
 H214 H 0.38716 1.06561 -0.13634
 H215 H 0.46023 1.05928 0.42504
 H216 H 0.56926 1.04364 0.48055
 H217 H 0.61545 1.09904 0.38027
 H218 H 0.57221 1.08143 -0.12882
 H219 H 0.52708 1.02610 -0.02814
 H220 H 0.50709 0.97741 0.62301
 H221 H 0.54684 0.92797 0.80022
 H222 H 0.62186 0.89623 0.37273
 H223 H 0.58144 0.94600 0.19586
 H224 H 0.41471 1.11681 0.33719
 C225 C 1.15040 0.20259 0.04138
 C226 C 1.13306 0.21618 -0.11191
 C227 C 1.10222 0.18924 -0.15201
 C228 C 1.10314 0.16080 -0.02087
 O229 O 1.13240 0.16896 0.09703
 H230 H 1.14252 0.24207 -0.18757
 H231 H 1.08303 0.18958 -0.26736
 C232 C 0.66682 0.66993 0.88137
 C233 C 0.65611 0.65866 1.04403
 C234 C 0.62757 0.62791 1.03112
 C235 C 0.62319 0.62261 0.86093
 O236 O 0.64704 0.64821 0.77060
 H237 H 0.66792 0.67117 1.15811
 H238 H 0.61276 0.61103 1.13428
 C239 C -0.16600 0.32992 0.40287
 C240 C -0.16121 0.33673 0.57046
 C241 C -0.13318 0.36779 0.57727
 C242 C -0.12306 0.37807 0.41233
 O243 O -0.14285 0.35485 0.30625
 H244 H -0.17679 0.32126 0.67520
 H245 H -0.12197 0.38117 0.69012
 C246 C 0.32001 0.81594 0.43580
 C247 C 0.30826 0.82013 0.26940
 C248 C 0.33705 0.84671 0.19965
 C249 C 0.36349 0.85772 0.33077
 O250 O 0.35316 0.83907 0.47490
 H251 H 0.28096 0.80601 0.20958
 H252 H 0.33730 0.85833 0.07084
 C253 C -0.15963 0.67080 -0.29601
 C254 C -0.14891 0.65427 -0.44348
 C255 C -0.11887 0.62561 -0.39883
 C256 C -0.11346 0.62662 -0.22656
 O257 O -0.13828 0.65420 -0.16438
 H258 H -0.16198 0.66181 -0.56828
 H259 H -0.10387 0.60587 -0.48266
 C260 C 0.32720 1.17785 0.06365
 C261 C 0.33533 1.17677 -0.10522
 C262 C 0.36295 1.14541 -0.11858
 C263 C 0.36982 1.13004 0.04371
 O264 O 0.34807 1.14968 0.15427
 H265 H 0.32187 1.19592 -0.20638
 H266 H 0.37659 1.13517 -0.23263
 C267 C 1.20320 -0.15036 -0.10110
 C268 C 1.22455 -0.12410 -0.00192
 C269 C 1.19673 -0.09281 0.00495
 C270 C 1.16039 -0.10251 -0.08910
 O271 O 1.16402 -0.13733 -0.15391
 H272 H 1.25687 -0.12688 0.05511
 H273 H 1.20206 -0.06622 0.07121
 C274 C 0.66866 0.33974 0.13627
 C275 C 0.65886 0.35718 -0.02010
 C276 C 0.63148 0.38791 0.00849
 C277 C 0.62703 0.38717 0.18062
 O278 O 0.64957 0.35787 0.25797
 H279 H 0.67064 0.34875 -0.14009
 H280 H 0.61758 0.40892 -0.08472
 C281 C 0.83270 -0.16523 -0.39733
 C282 C 0.84161 -0.15194 -0.55968
 C283 C 0.87139 -0.12219 -0.54460
 C284 C 0.87824 -0.11945 -0.37390
 O285 O 0.85478 -0.14562 -0.28503
 H286 H 0.82774 -0.16232 -0.67487
 H287 H 0.88525 -0.10405 -0.64610
 C288 C 0.34762 0.30029 0.49221
 C289 C 0.36728 0.28516 0.63886
 C290 C 0.39953 0.31132 0.67458
 C291 C 0.39700 0.34068 0.54716
 O292 O 0.36544 0.33389 0.43640
 H293 H 0.35889 0.25846 0.71154
 H294 H 0.42116 0.30950 0.78356
 C295 C 0.18819 0.68797 0.10486
 C296 C 0.20225 0.68024 0.26766
 C297 C 0.17236 0.65455 0.33638
 C298 C 0.14276 0.64765 0.20829
 O299 O 0.15244 0.66796 0.06719
 H300 H 0.23161 0.69132 0.32602
 H301 H 0.17319 0.64111 0.46232
 C302 C 0.67201 1.17387 0.06250
 C303 C 0.66993 1.16377 -0.10254
 C304 C 0.64089 1.13335 -0.10580
 C305 C 0.62746 1.12680 0.05813
 O306 O 0.64639 1.15143 0.16034
 H307 H 0.68820 1.17638 -0.20735
 H308 H 0.63209 1.11716 -0.21434
 C309 C 0.16660 0.32753 0.45675
 C310 C 0.15321 0.32596 0.62081
 C311 C 0.12544 0.35733 0.63125
 C312 C 0.12407 0.37581 0.47221
 O313 O 0.14919 0.35770 0.36678
 H314 H 0.16321 0.30500 0.72127
 H315 H 0.10857 0.36551 0.74218
 C316 C 0.65999 0.83523 0.77753
 C317 C 0.64664 0.84970 0.92615
 C318 C 0.61669 0.87847 0.88138
 C319 C 0.61414 0.87959 0.70794
 O320 O 0.64044 0.85324 0.64510
 H321 H 0.65778 0.84067 1.05198
 H322 H 0.59992 0.89702 0.96571
 C323 C 0.83409 0.16370 0.33221
 C324 C 0.84337 0.14690 0.49010
 C325 C 0.87055 0.11585 0.46525
 C326 C 0.87547 0.11581 0.29343
 O327 O 0.85336 0.14492 0.21277
 H328 H 0.83125 0.15592 0.60864
 H329 H 0.88396 0.09512 0.56075
 C330 C 0.30168 0.64993 0.64837
 C331 C 0.27459 0.61981 0.60171
 C332 C 0.30120 0.58777 0.59362
 C333 C 0.34265 0.60082 0.63530
 O334 O 0.34316 0.63858 0.66896
 H335 H 0.23940 0.62068 0.58299
 H336 H 0.29161 0.55842 0.56108
   
