data_POSCAR
  _audit_creation_date              2014-09-24
  _audit_creation_method            'ToBaCCo'
  _symmetry_space_group_name_H-M    'P1'
  _symmetry_Int_Tables_number       1
  _symmetry_cell_setting            triclinic
  loop_
  _symmetry_equiv_pos_as_xyz
 x,y,z
_cell_length_a 22.4747
_cell_length_b 16.5918
_cell_length_c 16.5199
_cell_angle_alpha 89.841200
_cell_angle_beta 90.148500
_cell_angle_gamma 89.854000
loop_
  _atom_site_label
  _atom_site_type_symbol
  _atom_site_fract_x
  _atom_site_fract_y
  _atom_site_fract_z
O1 O 0.08375 0.13749 0.15030
 O2 O 0.14936 0.06633 0.07165
 C3 C 0.13725 0.11729 0.12869
 O4 O -0.08205 -0.14952 0.14043
 O5 O -0.14779 -0.07143 0.06814
 C6 C -0.13561 -0.12813 0.11970
 O7 O 0.08462 -0.14174 0.14841
 O8 O 0.14964 -0.06898 0.07076
 C9 C 0.13824 -0.12135 0.12716
 O10 O -0.08246 0.14646 0.14196
 O11 O -0.14808 0.06965 0.06889
 C12 C -0.13601 0.12559 0.12109
 Zr13 Zr 0.00061 0.10042 0.10278
 O14 O -0.00397 0.10231 0.23068
 O15 O 0.00333 0.22753 0.09509
 Zr16 Zr 0.00114 -0.10260 0.10251
 O17 O -0.00146 -0.09476 0.23012
 O18 O 0.00731 -0.22988 0.10594
 O19 O 0.05416 -0.00127 0.11822
 O20 O -0.05118 -0.00126 0.11748
 O21 O -0.08293 0.14901 -0.13860
 O22 O -0.14828 0.07046 -0.06696
 C23 C -0.13636 0.12743 -0.11823
 O24 O 0.08365 -0.13967 -0.14853
 O25 O 0.14930 -0.06784 -0.07063
 C26 C 0.13715 -0.11912 -0.12731
 O27 O -0.08272 -0.14721 -0.14112
 O28 O -0.14821 -0.07056 -0.06779
 C29 C -0.13622 -0.12630 -0.12017
 O30 O 0.08335 0.14115 -0.14701
 O31 O 0.14917 0.06757 -0.07021
 C32 C 0.13695 0.12003 -0.12622
 Zr33 Zr 0.00032 0.10178 -0.10105
 O34 O -0.00674 0.10162 -0.22891
 O35 O 0.00569 0.22910 -0.10004
 Zr36 Zr 0.00052 -0.10161 -0.10191
 O37 O -0.00653 -0.10070 -0.22974
 O38 O 0.00753 -0.22891 -0.10131
 Zr39 Zr 0.08968 -0.00065 0.00035
 Zr40 Zr -0.08841 -0.00065 0.00057
 O41 O -0.05148 0.00026 -0.11635
 O42 O 0.05356 0.00015 -0.11758
 O43 O -0.05283 0.11667 0.00102
 O44 O 0.05265 -0.11698 0.00018
 O45 O 0.05253 0.11581 0.00102
 O46 O -0.05228 -0.11807 0.00029
 H47 H -0.07789 -0.00143 0.16510
 H48 H 0.07947 -0.16447 0.00008
 H49 H -0.07846 0.00074 -0.16389
 H50 H 0.07935 0.16313 0.00132
 H51 H -0.02261 -0.25106 0.06757
 H52 H -0.02643 -0.25026 -0.06999
 H53 H 0.02627 -0.06715 -0.25091
 H54 H 0.02721 0.07026 -0.25029
 H55 H -0.02171 0.24848 -0.05748
 H56 H 0.00365 0.24740 0.15161
 H57 H 0.02076 0.05698 0.25064
 H58 H -0.00133 -0.15101 0.25045
 O59 O 0.58291 0.64198 0.64639
 O60 O 0.64832 0.56878 0.56940
 C61 C 0.63640 0.62107 0.62534
 O62 O 0.41682 0.35278 0.63990
 O63 O 0.35107 0.43056 0.56711
 C64 C 0.36324 0.37405 0.61909
 O65 O 0.58291 0.36095 0.64867
 O66 O 0.64833 0.43303 0.57059
 C67 C 0.63636 0.38148 0.62735
 O68 O 0.41668 0.65023 0.63763
 O69 O 0.35100 0.57253 0.56561
 C70 C 0.36316 0.62917 0.61692
 Zr71 Zr 0.49983 0.60253 0.60072
 O72 O 0.49746 0.59137 0.72815
 O73 O 0.50536 0.72968 0.60602
 Zr74 Zr 0.49980 0.40024 0.60237
 O75 O 0.49743 0.41210 0.72967
 O76 O 0.50424 0.27302 0.60842
 O77 O 0.55330 0.50130 0.61703
 O78 O 0.44733 0.50163 0.61595
 O79 O 0.41620 0.64777 0.35638
 O80 O 0.35082 0.57120 0.42986
 C81 C 0.36271 0.62706 0.37736
 O82 O 0.58348 0.36004 0.35257
 O83 O 0.64909 0.43297 0.42969
 C84 C 0.63704 0.38077 0.37371
 O85 O 0.41671 0.35170 0.36014
 O86 O 0.35104 0.43005 0.43151
 C87 C 0.36320 0.37316 0.38047
 O88 O 0.58279 0.64003 0.34990
 O89 O 0.64827 0.56763 0.42828
 C90 C 0.63628 0.61923 0.37153
 Zr91 Zr 0.49951 0.60174 0.39598
 O92 O 0.49273 0.60010 0.26812
 O93 O 0.50613 0.72903 0.39525
 Zr94 Zr 0.49976 0.39825 0.39821
 O95 O 0.49363 0.39421 0.27039
 O96 O 0.50292 0.27121 0.40717
 Zr97 Zr 0.58861 0.50049 0.49906
 Zr98 Zr 0.41062 0.50110 0.49881
 O99 O 0.44778 0.49996 0.38206
 O100 O 0.55272 0.49978 0.38105
 O101 O 0.44664 0.61834 0.49808
 O102 O 0.55171 0.38422 0.50046
 O103 O 0.55133 0.61692 0.49828
 O104 O 0.44666 0.38379 0.50020
 H105 H 0.42014 0.50186 0.66310
 H106 H 0.57850 0.33669 0.50100
 H107 H 0.42098 0.49953 0.33435
 H108 H 0.57795 0.66444 0.49805
 H109 H 0.48278 0.25241 0.56041
 H110 H 0.50326 0.25079 0.35086
 H111 H 0.52446 0.43069 0.24865
 H112 H 0.52651 0.56801 0.24732
 H113 H 0.47239 0.75052 0.42696
 H114 H 0.47816 0.75128 0.56410
 H115 H 0.49660 0.64711 0.74951
 H116 H 0.49668 0.35648 0.75165
 C117 C 0.22063 0.25188 0.26686
 C118 C 0.27986 0.23290 0.24804
 N119 N 0.29160 0.17573 0.19167
 C120 C 0.24671 0.13683 0.15282
 C121 C 0.18721 0.15610 0.17104
 N122 N 0.17580 0.21323 0.22803
 N123 N 0.20888 0.30926 0.32300
 C124 C 0.25376 0.34893 0.36107
 C125 C 0.31326 0.33050 0.34199
 N126 N 0.32468 0.27253 0.28587
 H127 H 0.25749 0.09172 0.10793
 H128 H 0.24297 0.39454 0.40543
 C129 C 0.77993 0.73317 0.25295
 C130 C 0.72085 0.75263 0.23314
 N131 N 0.70962 0.80970 0.17612
 C132 C 0.75485 0.84858 0.13812
 C133 C 0.81422 0.82969 0.15817
 N134 N 0.82514 0.77203 0.21519
 N135 N 0.79114 0.67626 0.31016
 C136 C 0.74589 0.63807 0.34884
 C137 C 0.68652 0.65780 0.32959
 N138 N 0.67564 0.71470 0.27181
 H139 H 0.74442 0.89397 0.09305
 H140 H 0.75629 0.59311 0.39436
 C141 C 0.77955 0.26657 0.74769
 C142 C 0.72042 0.24756 0.76677
 N143 N 0.70898 0.19062 0.82371
 C144 C 0.75408 0.15141 0.86232
 C145 C 0.81349 0.16987 0.84297
 N146 N 0.82459 0.22740 0.78605
 N147 N 0.79099 0.32330 0.69054
 C148 C 0.74590 0.36180 0.65122
 C149 C 0.68649 0.34256 0.66976
 N150 N 0.67538 0.28582 0.72748
 H151 H 0.74354 0.10611 0.90729
 H152 H 0.75645 0.40663 0.60578
 C153 C 0.22055 0.74873 0.73220
 C154 C 0.27977 0.76722 0.75157
 N155 N 0.29150 0.82307 0.80925
 C156 C 0.24660 0.86117 0.84885
 C157 C 0.18710 0.84239 0.83006
 N158 N 0.17571 0.78656 0.77179
 N159 N 0.20883 0.69266 0.67473
 C160 C 0.25373 0.65379 0.63590
 C161 C 0.31323 0.67165 0.65559
 N162 N 0.32461 0.72835 0.71301
 H163 H 0.25737 0.90528 0.89472
 H164 H 0.24296 0.60913 0.59055
 C165 C 0.22045 0.25438 0.73457
 C166 C 0.27968 0.23524 0.75371
 N167 N 0.29138 0.17843 0.81088
 C168 C 0.24648 0.13996 0.85012
 C169 C 0.18693 0.15926 0.83153
 N170 N 0.17557 0.21615 0.77380
 N171 N 0.20877 0.31133 0.67753
 C172 C 0.25368 0.35036 0.63886
 C173 C 0.31322 0.33178 0.65820
 N174 N 0.32456 0.27427 0.71529
 H175 H 0.25729 0.09506 0.89553
 H176 H 0.24288 0.39562 0.59381
 C177 C 0.77969 0.73604 0.74479
 C178 C 0.72054 0.75498 0.76407
 N179 N 0.70909 0.81155 0.82118
 C180 C 0.75416 0.85036 0.85982
 C181 C 0.81362 0.83192 0.84041
 N182 N 0.82473 0.77482 0.78321
 N183 N 0.79113 0.67958 0.68757
 C184 C 0.74606 0.64123 0.64846
 C185 C 0.68659 0.66029 0.66726
 N186 N 0.67549 0.71686 0.72499
 H187 H 0.74354 0.89528 0.90496
 H188 H 0.75666 0.59660 0.60302
 C189 C 0.21896 0.74745 0.26248
 C190 C 0.27800 0.76562 0.24238
 N191 N 0.28921 0.82188 0.18473
 C192 C 0.24408 0.86079 0.14583
 C193 C 0.18433 0.84258 0.16524
 N194 N 0.17375 0.78610 0.22371
 N195 N 0.20776 0.69098 0.32003
 C196 C 0.25298 0.65158 0.35830
 C197 C 0.31238 0.66929 0.33807
 N198 N 0.32323 0.72630 0.28044
 H199 H 0.25509 0.90515 0.10009
 H200 H 0.24254 0.60679 0.40383
 C201 C 0.78011 0.26466 0.25494
 C202 C 0.72093 0.24568 0.23588
 N203 N 0.70939 0.18859 0.17934
 C204 C 0.75439 0.14929 0.14105
 C205 C 0.81389 0.16776 0.16025
 N206 N 0.82509 0.22539 0.21688
 N207 N 0.79165 0.32164 0.31160
 C208 C 0.74665 0.36044 0.35040
 C209 C 0.68715 0.34132 0.33185
 N210 N 0.67595 0.28425 0.27465
 H211 H 0.74370 0.10396 0.09635
 H212 H 0.75733 0.40545 0.39542
   
