data_POSCAR
  _audit_creation_date              2014-09-24
  _audit_creation_method            'ToBaCCo'
  _symmetry_space_group_name_H-M    'P1'
  _symmetry_Int_Tables_number       1
  _symmetry_cell_setting            triclinic
  loop_
  _symmetry_equiv_pos_as_xyz
 x,y,z
_cell_length_a 49.4072
_cell_length_b 49.4309
_cell_length_c 15.0978
_cell_angle_alpha 90.055200
_cell_angle_beta 90.021400
_cell_angle_gamma 120.032100
loop_
  _atom_site_label
  _atom_site_type_symbol
  _atom_site_fract_x
  _atom_site_fract_y
  _atom_site_fract_z
C1 C 0.24684 0.49391 0.53997
 C2 C 0.24634 0.49390 0.44995
 C3 C 0.22024 0.49319 0.39950
 C4 C 0.27198 0.49453 0.39787
 C5 C 0.27222 0.49315 0.59036
 C6 C 0.22192 0.49460 0.59229
 C7 C 0.18952 0.46856 0.41021
 C8 C 0.16495 0.46835 0.36385
 C9 C 0.17053 0.49268 0.30435
 C10 C 0.20174 0.51696 0.29246
 C11 C 0.22621 0.51711 0.33939
 C12 C 0.26716 0.46745 0.35413
 C13 C 0.29168 0.46731 0.30853
 C14 C 0.32111 0.49455 0.30378
 C15 C 0.32560 0.52193 0.34556
 C16 C 0.30127 0.52181 0.39317
 C17 C 0.29058 0.51736 0.64956
 C18 C 0.31473 0.51701 0.69684
 C19 C 0.32085 0.49229 0.68609
 C20 C 0.30199 0.46778 0.62769
 C21 C 0.27780 0.46814 0.58071
 C22 C 0.21989 0.52185 0.59696
 C23 C 0.19585 0.52205 0.64531
 C24 C 0.17316 0.49478 0.68788
 C25 C 0.17536 0.46757 0.68308
 C26 C 0.19986 0.46764 0.63675
 H27 H 0.18455 0.44942 0.45454
 H28 H 0.14158 0.44895 0.37509
 H29 H 0.20748 0.53614 0.24746
 H30 H 0.24985 0.53621 0.32971
 H31 H 0.24460 0.44625 0.35724
 H32 H 0.28758 0.44598 0.27644
 H33 H 0.30525 0.54290 0.42658
 H34 H 0.28646 0.53676 0.65830
 H35 H 0.32873 0.53623 0.74129
 H36 H 0.30585 0.44826 0.61826
 H37 H 0.26337 0.44884 0.53696
 H38 H 0.23687 0.54286 0.56308
 H39 H 0.19458 0.54328 0.64777
 H40 H 0.15828 0.44632 0.71576
 H41 H 0.20124 0.44646 0.63373
 H42 H 0.34812 0.54318 0.34316
 C43 C 0.50629 -0.24769 0.54591
 C44 C 0.50617 -0.24733 0.45591
 C45 C 0.50559 -0.27290 0.40355
 C46 C 0.50678 -0.22131 0.40565
 C47 C 0.50569 -0.22265 0.59797
 C48 C 0.50709 -0.27299 0.59637
 C49 C 0.53269 -0.26797 0.35981
 C50 C 0.53284 -0.29234 0.31333
 C51 C 0.50558 -0.32173 0.30761
 C52 C 0.47817 -0.32633 0.34946
 C53 C 0.47828 -0.30216 0.39799
 C54 C 0.53195 -0.19073 0.41433
 C55 C 0.53212 -0.16623 0.36787
 C56 C 0.50726 -0.17191 0.31091
 C57 C 0.48239 -0.20274 0.30098
 C58 C 0.48221 -0.22721 0.34781
 C59 C 0.47817 -0.22117 0.60484
 C60 C 0.47804 -0.19699 0.65266
 C61 C 0.50563 -0.17360 0.69249
 C62 C 0.53312 -0.17524 0.68547
 C63 C 0.53301 -0.19987 0.63968
 C64 C 0.48310 -0.29106 0.65627
 C65 C 0.48340 -0.31525 0.70330
 C66 C 0.50785 -0.32183 0.69158
 C67 C 0.53221 -0.30308 0.63243
 C68 C 0.53189 -0.27883 0.58592
 H69 H 0.55391 -0.24544 0.36350
 H70 H 0.55420 -0.28815 0.28123
 H71 H 0.45689 -0.34881 0.34631
 H72 H 0.45716 -0.30620 0.43128
 H73 H 0.55149 -0.18585 0.45702
 H74 H 0.55177 -0.14285 0.37656
 H75 H 0.46269 -0.25072 0.33988
 H76 H 0.45689 -0.23870 0.57304
 H77 H 0.45658 -0.19619 0.65683
 H78 H 0.55463 -0.15762 0.71599
 H79 H 0.55441 -0.20080 0.63490
 H80 H 0.46388 -0.28672 0.66571
 H81 H 0.46425 -0.32890 0.74821
 H82 H 0.55164 -0.30701 0.62177
 H83 H 0.55106 -0.26457 0.54174
 H84 H 0.46290 -0.20798 0.25764
 C85 C 1.24676 0.75355 0.54580
 C86 C 1.24722 0.75406 0.45579
 C87 C 1.27274 0.78002 0.40551
 C88 C 1.22229 0.72845 0.40335
 C89 C 1.22071 0.72808 0.59613
 C90 C 1.27230 0.77868 0.59793
 C91 C 1.27758 0.81041 0.41147
 C92 C 1.30187 0.83484 0.36461
 C93 C 1.32158 0.82930 0.30918
 C94 C 1.31598 0.79846 0.30178
 C95 C 1.29181 0.77413 0.34946
 C96 C 1.20019 0.73333 0.35895
 C97 C 1.17569 0.70890 0.31249
 C98 C 1.17351 0.67949 0.30754
 C99 C 1.19623 0.67493 0.35008
 C100 C 1.22028 0.69918 0.39851
 C101 C 1.22666 0.70996 0.65575
 C102 C 1.20219 0.68567 0.70266
 C103 C 1.17111 0.67899 0.69107
 C104 C 1.16544 0.69772 0.63205
 C105 C 1.18999 0.72208 0.58571
 C106 C 1.29982 0.77804 0.61492
 C107 C 1.32400 0.80208 0.66358
 C108 C 1.32145 0.82776 0.69371
 C109 C 1.29359 0.82808 0.67602
 C110 C 1.26906 0.80347 0.63018
 H111 H 1.26242 0.81521 0.45209
 H112 H 1.30499 0.85803 0.37175
 H113 H 1.33038 0.79301 0.25980
 H114 H 1.28817 0.75070 0.34331
 H115 H 1.20156 0.75588 0.36209
 H116 H 1.15858 0.71305 0.27983
 H117 H 1.23729 0.69517 0.43237
 H118 H 1.25024 0.71432 0.66512
 H119 H 1.20774 0.67202 0.74740
 H120 H 1.14203 0.69370 0.62143
 H121 H 1.18501 0.73632 0.54165
 H122 H 1.30254 0.75893 0.59048
 H123 H 1.34498 0.80085 0.67540
 H124 H 1.29044 0.84714 0.69851
 H125 H 1.24775 0.80406 0.61800
 H126 H 1.19497 0.65243 0.34755
 C127 C 0.75136 0.50240 0.54741
 C128 C 0.75151 0.50241 0.45743
 C129 C 0.77753 0.50325 0.40690
 C130 C 0.72572 0.50167 0.40577
 C131 C 0.72624 0.50340 0.59819
 C132 C 0.77681 0.50219 0.59847
 C133 C 0.80735 0.52990 0.40897
 C134 C 0.83218 0.53019 0.36405
 C135 C 0.82747 0.50401 0.31486
 C136 C 0.79728 0.47767 0.31084
 C137 C 0.77251 0.47732 0.35656
 C138 C 0.73026 0.52879 0.36305
 C139 C 0.70547 0.52896 0.31902
 C140 C 0.67602 0.50172 0.31473
 C141 C 0.67181 0.47428 0.35522
 C142 C 0.69642 0.47436 0.40136
 C143 C 0.70750 0.47918 0.65660
 C144 C 0.68297 0.47946 0.70186
 C145 C 0.67666 0.50406 0.68946
 C146 C 0.69615 0.52869 0.63210
 C147 C 0.72080 0.52845 0.58772
 C148 C 0.77578 0.47401 0.61799
 C149 C 0.80040 0.47408 0.66404
 C150 C 0.82702 0.50249 0.68893
 C151 C 0.82769 0.53069 0.66889
 C152 C 0.80256 0.53044 0.62571
 H153 H 0.81139 0.55043 0.44562
 H154 H 0.85502 0.55099 0.36767
 H155 H 0.79284 0.45715 0.27338
 H156 H 0.74952 0.45666 0.35380
 H157 H 0.75279 0.55003 0.36598
 H158 H 0.70937 0.55034 0.28780
 H159 H 0.69263 0.45325 0.43405
 H160 H 0.71145 0.45971 0.66590
 H161 H 0.66873 0.46011 0.74554
 H162 H 0.69249 0.54827 0.62117
 H163 H 0.73555 0.54778 0.54458
 H164 H 0.75598 0.45199 0.59719
 H165 H 0.79886 0.45185 0.67786
 H166 H 0.84745 0.55305 0.68744
 H167 H 0.80351 0.55238 0.61156
 H168 H 0.64930 0.45301 0.35302
 C169 C 0.49668 0.24793 0.54754
 C170 C 0.49680 0.24836 0.45756
 C171 C 0.49621 0.27378 0.40763
 C172 C 0.49755 0.22341 0.40534
 C173 C 0.49559 0.22168 0.59771
 C174 C 0.49717 0.27358 0.59931
 C175 C 0.47011 0.27782 0.41215
 C176 C 0.47013 0.30260 0.36788
 C177 C 0.49605 0.32347 0.31688
 C178 C 0.52181 0.31876 0.31044
 C179 C 0.52186 0.29409 0.35548
 C180 C 0.47048 0.20103 0.36170
 C181 C 0.47026 0.17608 0.31746
 C182 C 0.49741 0.17371 0.31388
 C183 C 0.52482 0.19678 0.35523
 C184 C 0.52477 0.22128 0.40158
 C185 C 0.51970 0.22712 0.65663
 C186 C 0.51940 0.20226 0.70151
 C187 C 0.49486 0.17133 0.68830
 C188 C 0.47034 0.16621 0.63040
 C189 C 0.47061 0.19115 0.58631
 C190 C 0.52540 0.30109 0.61629
 C191 C 0.52554 0.32566 0.66281
 C192 C 0.49727 0.32352 0.69066
 C193 C 0.46903 0.29563 0.67325
 C194 C 0.46910 0.27074 0.62962
 H195 H 0.44976 0.26181 0.45017
 H196 H 0.44975 0.30529 0.37341
 H197 H 0.54211 0.33434 0.27152
 H198 H 0.54209 0.29111 0.35081
 H199 H 0.44930 0.20242 0.36417
 H200 H 0.44892 0.15872 0.28557
 H201 H 0.54584 0.23845 0.43503
 H202 H 0.53911 0.25057 0.66665
 H203 H 0.53867 0.20738 0.74564
 H204 H 0.45081 0.14295 0.61884
 H205 H 0.45136 0.18660 0.54277
 H206 H 0.54726 0.30355 0.59314
 H207 H 0.54779 0.34663 0.67454
 H208 H 0.44677 0.29277 0.69414
 H209 H 0.44713 0.24950 0.61732
 H210 H 0.54601 0.19541 0.35361
 C211 C 0.75197 0.24924 0.54605
 C212 C 0.75154 0.24908 0.45601
 C213 C 0.72629 0.22294 0.40555
 C214 C 0.77652 0.27489 0.40423
 C215 C 0.77826 0.27435 0.59659
 C216 C 0.72615 0.22412 0.59752
 C217 C 0.72097 0.19245 0.41509
 C218 C 0.69622 0.16764 0.37058
 C219 C 0.67660 0.17296 0.31457
 C220 C 0.68262 0.20373 0.30316
 C221 C 0.70730 0.22851 0.34822
 C222 C 0.79874 0.27019 0.35980
 C223 C 0.82368 0.29496 0.31577
 C224 C 0.82619 0.32454 0.31312
 C225 C 0.80329 0.32891 0.35524
 C226 C 0.77881 0.30432 0.40144
 C227 C 0.77273 0.29271 0.65645
 C228 C 0.79759 0.31735 0.70138
 C229 C 0.82860 0.32413 0.68731
 C230 C 0.83379 0.30498 0.62864
 C231 C 0.80886 0.28022 0.58452
 C232 C 0.69677 0.22194 0.60104
 C233 C 0.67205 0.19720 0.64607
 C234 C 0.67623 0.17391 0.68634
 C235 C 0.70577 0.17631 0.68304
 C236 C 0.73067 0.20150 0.64011
 H237 H 0.73589 0.18784 0.45746
 H238 H 0.69250 0.14432 0.38011
 H239 H 0.66804 0.20866 0.26033
 H240 H 0.71123 0.25197 0.33973
 H241 H 0.79722 0.24757 0.36150
 H242 H 0.84090 0.29096 0.28328
 H243 H 0.76176 0.30822 0.43545
 H244 H 0.74919 0.28834 0.66705
 H245 H 0.79242 0.33129 0.74617
 H246 H 0.85712 0.30899 0.61645
 H247 H 0.81348 0.26574 0.54035
 H248 H 0.69298 0.23927 0.56833
 H249 H 0.64948 0.19582 0.64749
 H250 H 0.70964 0.15880 0.71414
 H251 H 0.75325 0.20290 0.63774
 H252 H 0.80478 0.35152 0.35432
 O253 O 0.95613 0.52563 -0.16102
 O254 O 0.92186 0.48299 -0.07894
 C255 C 0.92810 0.50399 -0.13911
 O256 O 1.04428 0.47259 -0.15458
 O257 O 1.07869 0.51642 -0.07686
 C258 C 1.07235 0.49426 -0.13332
 O259 O 0.95697 0.43169 -0.16427
 O260 O 0.92251 0.43866 -0.07888
 C261 C 0.92890 0.42456 -0.14084
 O262 O 1.04390 0.57182 -0.15524
 O263 O 1.07854 0.56314 -0.07608
 C264 C 1.07204 0.57867 -0.13316
 Zr265 Zr 1.00028 0.53460 -0.11259
 O266 O 1.00300 0.53669 -0.25261
 O267 O 0.99896 0.57661 -0.10433
 Zr268 Zr 1.00057 0.46615 -0.11221
 O269 O 1.00354 0.46567 -0.25191
 O270 O 0.99903 0.42279 -0.10094
 O271 O 0.97266 0.48644 -0.13006
 O272 O 1.02748 0.51394 -0.12901
 O273 O 1.04449 0.57250 0.15065
 O274 O 1.07886 0.56283 0.07369
 C275 C 1.07255 0.57883 0.12957
 O276 O 0.95633 0.43107 0.15925
 O277 O 0.92196 0.43919 0.07665
 C278 C 0.92826 0.42457 0.13719
 O279 O 1.04412 0.47258 0.15241
 O280 O 1.07868 0.51625 0.07437
 C281 C 1.07224 0.49405 0.13082
 O282 O 0.95704 0.52610 0.16088
 O283 O 0.92256 0.48424 0.07660
 C284 C 0.92896 0.50493 0.13802
 Zr285 Zr 1.00063 0.53478 0.11029
 O286 O 1.00430 0.53649 0.25014
 O287 O 0.99767 0.57604 0.10957
 Zr288 Zr 1.00039 0.46624 0.11069
 O289 O 1.00367 0.46840 0.25064
 O290 O 0.99757 0.42208 0.11081
 Zr291 Zr 0.95385 0.47710 -0.00108
 Zr292 Zr 1.04717 0.52379 -0.00128
 O293 O 1.02768 0.51409 0.12675
 O294 O 0.97265 0.48661 0.12806
 O295 O 1.02849 0.55388 -0.00141
 O296 O 0.97310 0.44759 -0.00098
 O297 O 0.97309 0.52588 -0.00107
 O298 O 1.02855 0.47503 -0.00079
 H299 H 1.04136 0.52087 -0.18150
 H300 H 0.95888 0.42465 -0.00109
 H301 H 1.04177 0.52121 0.17889
 H302 H 0.95894 0.53467 -0.00093
 H303 H 0.99899 0.41565 -0.16230
 H304 H 1.01240 0.42283 0.06552
 H305 H 0.98548 0.46951 0.27344
 H306 H 0.98700 0.51663 0.27331
 H307 H 1.01198 0.58976 0.06283
 H308 H 0.99877 0.58319 -0.16620
 H309 H 0.98544 0.51695 -0.27574
 H310 H 0.99004 0.47346 -0.27549
 O311 O 0.56942 0.52516 0.15978
 O312 O 0.56133 0.48261 0.07750
 C313 C 0.57591 0.50358 0.13807
 O314 O 0.42832 0.47222 0.15083
 O315 O 0.43788 0.51589 0.07238
 C316 C 0.42196 0.49384 0.12889
 O317 O 0.47481 0.43137 0.16262
 O318 O 0.51628 0.43821 0.07771
 C319 C 0.49580 0.42426 0.13972
 O320 O 0.52809 0.57169 0.15089
 O321 O 0.48431 0.56211 0.07252
 C322 C 0.50643 0.57803 0.12910
 Zr323 Zr 0.53446 0.53422 0.10996
 O324 O 0.53373 0.53680 0.24987
 O325 O 0.57792 0.57614 0.10166
 Zr326 Zr 0.46567 0.46568 0.10979
 O327 O 0.46231 0.46579 0.24947
 O328 O 0.42384 0.42223 0.09934
 O329 O 0.51391 0.48609 0.12795
 O330 O 0.48657 0.51349 0.12592
 O331 O 0.52808 0.57115 -0.15504
 O332 O 0.48447 0.56215 -0.07691
 C333 C 0.50667 0.57785 -0.13341
 O334 O 0.47464 0.42972 -0.16015
 O335 O 0.51744 0.43838 -0.07800
 C336 C 0.49631 0.42341 -0.13793
 O337 O 0.42864 0.47161 -0.15539
 O338 O 0.43763 0.51530 -0.07728
 C339 C 0.42196 0.49308 -0.13395
 O340 O 0.56942 0.52516 -0.16267
 O341 O 0.56198 0.48349 -0.07778
 C342 C 0.57636 0.50410 -0.13919
 Zr343 Zr 0.53438 0.53378 -0.11314
 O344 O 0.53252 0.53505 -0.25309
 O345 O 0.57856 0.57515 -0.11238
 Zr346 Zr 0.46599 0.46522 -0.11326
 O347 O 0.46515 0.46715 -0.25328
 O348 O 0.42452 0.42113 -0.11379
 Zr349 Zr 0.52343 0.47645 -0.00073
 Zr350 Zr 0.47683 0.52296 -0.00231
 O351 O 0.48660 0.51302 -0.13002
 O352 O 0.51416 0.48558 -0.13024
 O353 O 0.52560 0.55316 -0.00194
 O354 O 0.47462 0.44690 -0.00096
 O355 O 0.55298 0.52524 -0.00112
 O356 O 0.44662 0.47422 -0.00223
 H357 H 0.47956 0.52051 0.17812
 H358 H 0.46586 0.42395 -0.00039
 H359 H 0.47960 0.52004 -0.18223
 H360 H 0.57594 0.53404 -0.00090
 H361 H 0.41672 0.41538 0.16083
 H362 H 0.41063 0.42181 -0.06774
 H363 H 0.48424 0.46770 -0.27562
 H364 H 0.52985 0.51507 -0.27569
 H365 H 0.57788 0.58899 -0.06611
 H366 H 0.58463 0.58289 0.16352
 H367 H 0.53104 0.51694 0.27349
 H368 H 0.48342 0.47272 0.27329
 O369 O 0.47392 0.04359 0.15975
 O370 O 0.51624 0.07791 0.07707
 C371 C 0.49538 0.07161 0.13774
 O372 O 0.52723 -0.04355 0.15504
 O373 O 0.48427 -0.07825 0.07468
 C374 C 0.50612 -0.07168 0.13253
 O375 O 0.56791 0.04359 0.16303
 O376 O 0.56137 0.07803 0.07628
 C377 C 0.57522 0.07165 0.13899
 O378 O 0.42824 -0.04377 0.15323
 O379 O 0.43710 -0.07836 0.07461
 C380 C 0.42149 -0.07187 0.13148
 Zr381 Zr 0.46543 -0.00020 0.11030
 O382 O 0.46330 -0.00271 0.25036
 O383 O 0.42331 0.00094 0.10131
 Zr384 Zr 0.53403 -0.00005 0.11003
 O385 O 0.53719 -0.00114 0.24947
 O386 O 0.57721 0.00125 0.09572
 O387 O 0.51358 0.02766 0.12769
 O388 O 0.48619 -0.02721 0.12702
 O389 O 0.42738 -0.04442 -0.15192
 O390 O 0.43729 -0.07870 -0.07546
 C391 C 0.42118 -0.07244 -0.13101
 O392 O 0.56910 0.04329 -0.16244
 O393 O 0.56104 0.07773 -0.08031
 C394 C 0.57563 0.07135 -0.14075
 O395 O 0.52755 -0.04430 -0.15290
 O396 O 0.48373 -0.07868 -0.07508
 C397 C 0.50593 -0.07237 -0.13134
 O398 O 0.47380 0.04306 -0.16269
 O399 O 0.51580 0.07771 -0.07901
 C400 C 0.49495 0.07118 -0.14003
 Zr401 Zr 0.46533 -0.00054 -0.11256
 O402 O 0.46406 -0.00435 -0.25240
 O403 O 0.42401 0.00233 -0.11350
 Zr404 Zr 0.53381 -0.00038 -0.11252
 O405 O 0.53148 -0.00398 -0.25240
 O406 O 0.57807 0.00262 -0.11263
 Zr407 Zr 0.52301 0.04654 -0.00136
 Zr408 Zr 0.47634 -0.04697 -0.00058
 O409 O 0.48598 -0.02765 -0.12872
 O410 O 0.51349 0.02745 -0.13027
 O411 O 0.44618 -0.02838 -0.00077
 O412 O 0.55254 0.02728 -0.00123
 O413 O 0.47415 0.02701 -0.00127
 O414 O 0.52516 -0.02826 -0.00083
 H415 H 0.47918 -0.04111 0.17945
 H416 H 0.57548 0.04153 -0.00101
 H417 H 0.47887 -0.04184 -0.18063
 H418 H 0.46521 0.04103 -0.00137
 H419 H 0.58502 0.00190 0.15658
 H420 H 0.57724 -0.01257 -0.06850
 H421 H 0.52999 0.01396 -0.27543
 H422 H 0.48340 0.01368 -0.27558
 H423 H 0.41054 -0.01126 -0.06523
 H424 H 0.41651 0.00098 0.16304
 H425 H 0.48318 0.01470 0.27340
 H426 H 0.51802 -0.00241 0.27352
 N427 N 1.11654 0.46972 0.27370
 C428 C 1.14662 0.49278 0.26053
 N429 N 1.15190 0.51609 0.20284
 N430 N 1.12832 0.51638 0.16086
 C431 C 1.09841 0.49338 0.17481
 N432 N 1.09296 0.47003 0.23193
 N433 N 0.53241 0.65055 0.25584
 C434 C 0.50593 0.65245 0.25942
 N435 N 0.47975 0.62995 0.21877
 N436 N 0.48008 0.60652 0.17602
 C437 C 0.50649 0.60452 0.17314
 N438 N 0.53263 0.62692 0.21401
 N439 N 0.35255 -0.11607 0.27337
 C440 C 0.34633 -0.14598 0.26285
 N441 N 0.36488 -0.15128 0.20730
 N442 N 0.38857 -0.12779 0.16460
 C443 C 0.39476 -0.09798 0.17588
 N444 N 0.37630 -0.09257 0.23100
 N445 N 0.84900 0.48132 0.20973
 C446 C 0.85396 0.50420 0.26848
 N447 N 0.88382 0.52724 0.28413
 N448 N 0.90771 0.52742 0.24282
 C449 C 0.90267 0.50459 0.18401
 N450 N 0.87288 0.48154 0.16814
 N451 N 0.47358 0.35732 0.28761
 C452 C 0.49616 0.34996 0.27086
 N453 N 0.51878 0.36744 0.21107
 N454 N 0.51873 0.39116 0.16945
 C455 C 0.49612 0.39841 0.18631
 N456 N 0.47357 0.38109 0.24624
 N457 N 0.63298 0.15163 0.20723
 C458 C 0.64999 0.14652 0.26880
 N459 N 0.64199 0.11656 0.28777
 N460 N 0.61806 0.09272 0.24682
 C461 C 0.60119 0.09791 0.18518
 N462 N 0.60908 0.12780 0.16607
 N463 N 0.51799 0.15105 -0.21046
 C464 C 0.49489 0.14614 -0.26846
 N465 N 0.47189 0.11622 -0.28399
 N466 N 0.47198 0.09234 -0.24348
 C467 C 0.49504 0.09741 -0.18554
 N468 N 0.51803 0.12719 -0.16967
 N469 N 0.63317 0.48091 -0.20941
 C470 C 0.65144 0.50403 -0.26717
 N471 N 0.64458 0.52705 -0.28244
 N472 N 0.62061 0.52699 -0.24200
 C473 C 0.60254 0.50393 -0.18432
 N474 N 0.60926 0.48090 -0.16863
 N475 N 0.88376 0.35671 -0.28596
 C476 C 0.85381 0.34947 -0.26955
 N477 N 0.84889 0.36742 -0.21072
 N478 N 0.87278 0.39138 -0.16992
 C479 C 0.90260 0.39847 -0.18662
 N480 N 0.90767 0.38073 -0.24545
 N481 N 0.53219 -0.11880 -0.25740
 C482 C 0.50588 -0.14734 -0.26001
 N483 N 0.47973 -0.15114 -0.21908
 N484 N 0.47992 -0.12735 -0.17698
 C485 C 0.50616 -0.09878 -0.17504
 N486 N 0.53228 -0.09491 -0.21618
 N487 N 0.35412 0.46942 -0.28013
 C488 C 0.34687 0.49217 -0.26521
 N489 N 0.36427 0.51500 -0.20563
 N490 N 0.38797 0.51514 -0.16308
 C491 C 0.39522 0.49244 -0.17846
 N492 N 0.37784 0.46957 -0.23771
 N493 N 1.15166 0.63624 -0.20528
 C494 C 1.14629 0.65411 -0.26324
 N495 N 1.11625 0.64709 -0.27673
 N496 N 1.09269 0.62325 -0.23480
 C497 C 1.09817 0.60547 -0.17728
 N498 N 1.12810 0.61242 -0.16313
 N499 N 0.85019 0.47596 -0.23626
 C500 C 0.85242 0.50278 -0.26778
 N501 N 0.87994 0.52996 -0.25673
 N502 N 0.90413 0.53029 -0.21665
 C503 C 0.90165 0.50351 -0.18470
 N504 N 0.87421 0.47635 -0.19487
 N505 N 0.52414 0.37365 -0.23660
 C506 C 0.49712 0.34866 -0.26589
 N507 N 0.46988 0.34867 -0.25264
 N508 N 0.46967 0.37260 -0.21267
 C509 C 0.49665 0.39730 -0.18296
 N510 N 0.52389 0.39736 -0.19525
 N511 N 0.64782 0.11864 -0.26817
 C512 C 0.64987 0.14709 -0.26907
 N513 N 0.62720 0.15039 -0.22816
 N514 N 0.60359 0.12625 -0.18722
 C515 C 0.60152 0.09780 -0.18669
 N516 N 0.62400 0.09440 -0.22818
 N517 N 1.11865 0.46807 -0.26009
 C518 C 1.14704 0.49453 -0.26404
 N519 N 1.15080 0.52077 -0.22378
 N520 N 1.12711 0.52054 -0.18099
 C521 C 1.09868 0.49415 -0.17772
 N522 N 1.09485 0.46793 -0.21823
 N523 N 0.53093 0.64640 -0.27635
 C524 C 0.50786 0.65333 -0.26281
 N525 N 0.48460 0.63538 -0.20499
 N526 N 0.48436 0.61155 -0.16305
 C527 C 0.50736 0.60467 -0.17728
 N528 N 0.53067 0.62255 -0.23462
 N529 N 0.34605 -0.12034 -0.24477
 C530 C 0.34624 -0.14736 -0.26051
 N531 N 0.37119 -0.14952 -0.23188
 N532 N 0.39477 -0.12585 -0.18927
 C533 C 0.39460 -0.09885 -0.17472
 N534 N 0.36987 -0.09646 -0.20345
 N535 N 0.52979 -0.11576 0.27847
 C536 C 0.50721 -0.14580 0.26286
 N537 N 0.48442 -0.15129 0.20312
 N538 N 0.48418 -0.12774 0.16099
 C539 C 0.50672 -0.09776 0.17704
 N540 N 0.52953 -0.09221 0.23651
 N541 N 0.34908 0.46779 0.25361
 C542 C 0.34711 0.49422 0.25667
 N543 N 0.36972 0.52041 0.21657
 N544 N 0.39333 0.52013 0.17478
 C545 C 0.39539 0.49377 0.17239
 N546 N 0.37289 0.46762 0.21273
 N547 N 1.15109 0.63103 0.21954
 C548 C 1.14737 0.65359 0.25942
 N549 N 1.11898 0.65165 0.25523
 N550 N 1.09514 0.62790 0.21355
 C551 C 1.09893 0.60543 0.17350
 N552 N 1.12736 0.60748 0.17695
 N553 N 0.52290 0.15053 0.22671
 C554 C 0.49696 0.14708 0.26809
 N555 N 0.47053 0.11862 0.26669
 N556 N 0.47009 0.09450 0.22583
 C557 C 0.49596 0.09804 0.18390
 N558 N 0.52235 0.12651 0.18488
 N559 N 0.62731 0.47615 0.22740
 C560 C 0.64979 0.50210 0.26898
 N561 N 0.64771 0.52849 0.26767
 N562 N 0.62402 0.52889 0.22670
 C563 C 0.60172 0.50302 0.18457
 N564 N 0.60383 0.47666 0.18547
 N565 N 0.88124 0.35272 0.26578
 C566 C 0.85281 0.35074 0.26748
 N567 N 0.84938 0.37328 0.22641
 N568 N 0.87340 0.39674 0.18459
 C569 C 0.90183 0.39875 0.18331
 N570 N 0.90535 0.37638 0.22494
   
