data_POSCAR
  _audit_creation_date              2014-09-24
  _audit_creation_method            'ToBaCCo'
  _symmetry_space_group_name_H-M    'P1'
  _symmetry_Int_Tables_number       1
  _symmetry_cell_setting            triclinic
  loop_
  _symmetry_equiv_pos_as_xyz
 x,y,z
_cell_length_a 25.5151
_cell_length_b 25.4820
_cell_length_c 25.4930
_cell_angle_alpha 90.214900
_cell_angle_beta 89.980400
_cell_angle_gamma 89.929200
loop_
  _atom_site_label
  _atom_site_type_symbol
  _atom_site_fract_x
  _atom_site_fract_y
  _atom_site_fract_z
C1 C 0.50396 0.98360 -0.64027
 C2 C 0.45556 0.99207 -0.61523
 C3 C 0.45538 0.99749 -0.56014
 C4 C 0.50126 0.98950 -0.53008
 C5 C 0.54863 0.97916 -0.55697
 C6 C 0.55095 0.97758 -0.61215
 C7 C 0.49946 0.99020 -0.47092
 C8 C 0.54532 0.99895 -0.44086
 C9 C 0.54434 0.99596 -0.38585
 C10 C 0.49646 0.98831 -0.36027
 C11 C 0.45011 0.98128 -0.38866
 C12 C 0.45205 0.98078 -0.44368
 H13 H 0.50560 0.98645 -0.68252
 H14 H 0.41894 1.00593 -0.54054
 H15 H 0.58360 0.96971 -0.53517
 H16 H 0.58231 1.00730 -0.45963
 H17 H 0.49520 0.98889 -0.31778
 H18 H 0.41630 0.97174 -0.46445
 C19 C -0.64044 1.50355 -0.01946
 C20 C -0.61466 1.45610 -0.00807
 C21 C -0.56032 1.45783 0.00200
 C22 C -0.53127 1.50467 -0.00373
 C23 C -0.55864 1.55092 -0.01725
 C24 C -0.61350 1.55149 -0.02332
 C25 C -0.47262 1.50540 0.00386
 C26 C -0.44611 1.55270 0.01589
 C27 C -0.39137 1.55411 0.02126
 C28 C -0.36291 1.50725 0.01803
 C29 C -0.38799 1.45948 0.00793
 C30 C -0.44233 1.45903 -0.00095
 H31 H -0.68277 1.50376 -0.02026
 H32 H -0.54040 1.42217 0.01265
 H33 H -0.53720 1.58647 -0.02522
 H34 H -0.46744 1.58888 0.02181
 H35 H -0.32061 1.50809 0.02168
 H36 H -0.46032 1.42212 -0.01132
 C37 C 0.01927 0.36406 0.50242
 C38 C 0.02284 0.39017 0.45400
 C39 C 0.01710 0.44530 0.45397
 C40 C 0.00403 0.47360 0.50002
 C41 C -0.00162 0.44526 0.54719
 C42 C 0.00794 0.39114 0.54888
 C43 C -0.00328 0.53230 0.49865
 C44 C 0.00233 0.56328 0.54453
 C45 C -0.00655 0.61807 0.54412
 C46 C -0.01695 0.64198 0.49553
 C47 C -0.02099 0.61264 0.44925
 C48 C -0.01592 0.55797 0.45132
 H49 H 0.02190 0.32175 0.50434
 H50 H 0.02509 0.46625 0.41816
 H51 H -0.01303 0.46467 0.58314
 H52 H 0.01208 0.54453 0.58100
 H53 H -0.01868 0.68430 0.49263
 H54 H -0.02235 0.53603 0.41556
 O55 O -0.13626 1.00750 -0.06744
 O56 O 0.13319 0.99959 -0.07257
 O57 O -0.00369 1.07551 -0.13291
 O58 O -0.00150 0.93321 -0.13463
 O59 O -0.00116 0.86853 -0.07140
 O60 O -0.00171 1.13911 -0.06815
 O61 O 0.06803 1.00092 -0.13544
 O62 O -0.07344 1.00718 -0.13271
 Zr63 Zr -0.00192 1.00401 -0.09124
 O64 O 0.04583 0.95555 -0.04786
 O65 O -0.04800 1.05186 -0.04501
 C66 C -0.12143 1.00867 -0.11610
 C67 C 0.11657 0.99868 -0.12063
 C68 C -0.00378 1.12379 -0.11664
 C69 C -0.00067 0.88467 -0.11954
 H70 H 0.06920 1.07260 -0.06932
 O71 O 0.04692 1.05043 -0.04671
 H72 H -0.07212 0.93481 -0.06809
 O73 O -0.04904 0.95680 -0.04596
 O74 O 0.13586 1.00300 0.06980
 O75 O -0.13343 1.00187 0.07491
 O76 O 0.07260 1.13717 0.00318
 O77 O 0.06943 0.86748 -0.00440
 O78 O -0.07276 0.86926 0.00332
 O79 O -0.06960 1.13919 0.00199
 O80 O 0.00574 1.07330 0.13663
 O81 O -0.00109 0.93095 0.13502
 O82 O 0.00526 1.13790 0.07332
 O83 O -0.00283 0.86741 0.07020
 O84 O 0.13585 1.07227 0.00119
 O85 O -0.13441 1.07599 0.00262
 O86 O -0.13600 0.93420 0.00531
 O87 O 0.13410 0.93082 -0.00462
 O88 O 0.07302 1.00303 0.13501
 O89 O -0.06816 1.00069 0.13765
 Zr90 Zr 0.09210 1.00205 -0.00062
 Zr91 Zr -0.09243 1.00453 0.00287
 Zr92 Zr 0.00095 1.09564 0.00212
 Zr93 Zr -0.00120 0.91085 -0.00006
 Zr94 Zr 0.00163 1.00249 0.09337
 O95 O -0.04717 0.95606 0.04879
 O96 O 0.04878 1.04980 0.04822
 C97 C 0.12101 1.00380 0.11847
 C98 C -0.11672 0.99974 0.12292
 C99 C 0.12075 1.12081 0.00309
 C100 C 0.11790 0.88270 -0.00651
 C101 C -0.12085 0.88563 0.00596
 C102 C -0.11814 1.12415 0.00168
 C103 C 0.00749 1.12178 0.12141
 C104 C -0.00347 0.88273 0.11871
 H105 H -0.06773 1.07346 0.07322
 O106 O -0.04610 1.05100 0.05004
 H107 H 0.07010 0.93170 0.06877
 O108 O 0.04763 0.95466 0.04709
 C109 C 0.31946 1.02689 0.33964
 C110 C 0.31757 1.00040 0.29152
 C111 C 0.36033 0.97046 0.27517
 C112 C 0.40520 0.96747 0.30609
 C113 C 0.40875 0.99471 0.35448
 C114 C 0.36447 1.02392 0.37106
 C115 C 0.27247 1.00383 0.25785
 C116 C 0.23631 1.00521 0.22750
 C117 C 0.19546 1.00546 0.19024
 C118 C 0.16131 1.00493 0.15761
 H119 H 0.28647 1.05040 0.35259
 H120 H 0.35903 0.94919 0.23829
 H121 H 0.43638 0.94208 0.29236
 H122 H 0.36493 1.04669 0.40692
 C123 C -0.35356 0.95058 0.27975
 C124 C -0.30808 0.97339 0.29978
 C125 C -0.30764 0.99294 0.35113
 C126 C -0.35339 0.99182 0.38154
 C127 C -0.40077 0.97203 0.36053
 C128 C -0.39926 0.94966 0.30967
 C129 C -0.26346 0.97946 0.26583
 C130 C -0.22806 0.98480 0.23501
 C131 C -0.18842 0.99087 0.19694
 C132 C -0.15548 0.99547 0.16340
 H133 H -0.35412 0.93454 0.24032
 H134 H -0.27250 1.01073 0.36703
 H135 H -0.35213 1.01005 0.41992
 H136 H -0.43335 0.93103 0.29259
 C137 C -0.35470 0.96699 -0.28118
 C138 C -0.31723 1.00584 -0.29036
 C139 C -0.32393 1.04084 -0.33213
 C140 C -0.36849 1.03734 -0.36413
 C141 C -0.40684 0.99898 -0.35432
 C142 C -0.39909 0.96351 -0.31288
 C143 C -0.27287 1.00981 -0.25570
 C144 C -0.23697 1.01141 -0.22500
 C145 C -0.19610 1.01161 -0.18769
 C146 C -0.16184 1.01070 -0.15516
 H147 H -0.34985 0.93957 -0.24915
 H148 H -0.29513 1.07111 -0.33954
 H149 H -0.37362 1.06531 -0.39559
 H150 H -0.42751 0.93302 -0.30494
 C151 C 0.35133 0.94560 -0.28385
 C152 C 0.30854 0.97682 -0.29808
 C153 C 0.31040 1.00608 -0.34444
 C154 C 0.35568 1.00557 -0.37546
 C155 C 0.39969 0.97606 -0.36016
 C156 C 0.39658 0.94514 -0.31467
 C157 C 0.26451 0.98141 -0.26305
 C158 C 0.22906 0.98565 -0.23205
 C159 C 0.18893 0.99069 -0.19424
 C160 C 0.15555 0.99469 -0.16100
 H161 H 0.35030 0.92276 -0.24810
 H162 H 0.27755 1.03053 -0.35572
 H163 H 0.35718 1.03009 -0.41003
 H164 H 0.42966 0.92157 -0.30230
 C165 C 0.28039 1.35695 -0.03439
 C166 C 0.29504 1.31607 -0.00127
 C167 C 0.34087 1.32032 0.02853
 C168 C 0.37151 1.36587 0.02586
 C169 C 0.35637 1.40841 -0.00635
 C170 C 0.31054 1.40238 -0.03708
 C171 C 0.26161 1.27080 0.00246
 C172 C 0.23136 1.23457 0.00413
 C173 C 0.19396 1.19384 0.00468
 C174 C 0.16091 1.16011 0.00428
 H175 H 0.24532 1.35382 -0.05818
 H176 H 0.35245 1.28884 0.05454
 H177 H 0.40533 1.36829 0.05128
 H178 H 0.29826 1.43213 -0.06467
 C179 C 0.34485 0.69193 -0.00911
 C180 C 0.29488 0.69027 -0.03158
 C181 C 0.27762 0.64436 -0.05600
 C182 C 0.30886 0.59940 -0.05567
 C183 C 0.35822 0.59910 -0.03036
 C184 C 0.37651 0.64699 -0.00888
 C185 C 0.25957 0.73412 -0.02673
 C186 C 0.22826 0.76929 -0.02203
 C187 C 0.19025 0.80919 -0.01625
 C188 C 0.15725 0.84276 -0.01149
 H189 H 0.35860 0.72739 0.00997
 H190 H 0.23930 0.64285 -0.07427
 H191 H 0.29396 0.56494 -0.07558
 H192 H 0.41351 0.64925 0.01170
 C193 C -0.34386 0.69233 -0.00517
 C194 C -0.29969 0.69497 0.02731
 C195 C -0.28840 0.65348 0.06130
 C196 C -0.31983 0.60863 0.06132
 C197 C -0.36297 0.60461 0.02718
 C198 C -0.37545 0.64748 -0.00514
 C199 C -0.26374 0.73827 0.02317
 C200 C -0.23224 0.77326 0.01912
 C201 C -0.19414 0.81307 0.01414
 C202 C -0.16091 0.84640 0.01008
 H203 H -0.35286 0.72414 -0.03178
 H204 H -0.25436 0.65512 0.08665
 H205 H -0.30963 0.57646 0.08704
 H206 H -0.40807 0.64526 -0.03223
 C207 C -0.28666 1.35718 0.04413
 C208 C -0.29269 1.32033 0.00382
 C209 C -0.33136 1.32785 -0.03446
 C210 C -0.36334 1.37258 -0.03280
 C211 C -0.35667 1.41034 0.00704
 C212 C -0.31838 1.40179 0.04579
 C213 C -0.25776 1.27597 0.00135
 C214 C -0.22707 1.23996 0.00044
 C215 C -0.18986 1.19891 0.00038
 C216 C -0.15736 1.16453 0.00084
 H217 H -0.25698 1.35172 0.07401
 H218 H -0.33627 1.29961 -0.06594
 H219 H -0.39222 1.37836 -0.06336
 H220 H -0.31287 1.42981 0.07735
 C221 C 0.00925 1.34780 0.31369
 C222 C 0.03114 1.29753 0.31549
 C223 C 0.05457 1.27993 0.36165
 C224 C 0.05404 1.31131 0.40662
 C225 C 0.02958 1.36119 0.40665
 C226 C 0.00880 1.37957 0.35861
 C227 C 0.02681 1.26243 0.27135
 C228 C 0.02246 1.23148 0.23576
 C229 C 0.01696 1.19393 0.19532
 C230 C 0.01237 1.16117 0.16142
 H231 H -0.00912 1.36179 0.27807
 H232 H 0.07234 1.24131 0.36327
 H233 H 0.07338 1.29616 0.44115
 H234 H -0.01134 1.41686 0.35609
 C235 C -0.03845 1.33741 -0.32022
 C236 C 0.00044 1.29990 -0.31010
 C237 C 0.04266 1.29423 -0.34462
 C238 C 0.04552 1.32493 -0.38969
 C239 C 0.00609 1.36179 -0.40101
 C240 C -0.03556 1.36840 -0.36543
 C241 C -0.00346 1.26529 -0.26582
 C242 C -0.00520 1.23450 -0.23009
 C243 C -0.00575 1.19688 -0.18964
 C244 C -0.00525 1.16382 -0.15597
 H245 H -0.07140 1.34198 -0.29378
 H246 H 0.07299 1.26542 -0.33715
 H247 H 0.07837 1.31952 -0.41610
 H248 H -0.06662 1.39624 -0.37341
 C249 C 0.02703 0.66572 -0.32011
 C250 C -0.00186 0.71233 -0.31781
 C251 C -0.03278 0.72705 -0.36038
 C252 C -0.03451 0.69588 -0.40538
 C253 C -0.00505 0.64889 -0.40919
 C254 C 0.02536 0.63412 -0.36518
 C255 C 0.00035 0.74606 -0.27248
 C256 C 0.00107 0.77611 -0.23588
 C257 C 0.00092 0.81292 -0.19441
 C258 C 0.00030 0.84533 -0.15988
 H259 H 0.05141 0.65411 -0.28735
 H260 H -0.05581 0.76280 -0.35880
 H261 H -0.06069 0.70821 -0.43635
 H262 H 0.05002 0.59960 -0.36587
 C263 C -0.06087 0.71462 0.34930
 C264 C -0.02641 0.70321 0.30810
 C265 C 0.00607 0.65897 0.31094
 C266 C 0.00567 0.62753 0.35582
 C267 C -0.02699 0.64028 0.39847
 C268 C -0.06125 0.68335 0.39417
 C269 C -0.02165 0.73928 0.26506
 C270 C -0.01714 0.77098 0.23039
 C271 C -0.01175 0.80932 0.19097
 C272 C -0.00752 0.84270 0.15787
 H273 H -0.08621 0.74872 0.34750
 H274 H 0.03302 0.64989 0.27933
 H275 H 0.03283 0.59494 0.35830
 H276 H -0.08714 0.69375 0.42625
   
