data_POSCAR
  _audit_creation_date              2014-09-24
  _audit_creation_method            'ToBaCCo'
  _symmetry_space_group_name_H-M    'P1'
  _symmetry_Int_Tables_number       1
  _symmetry_cell_setting            triclinic
  loop_
  _symmetry_equiv_pos_as_xyz
 x,y,z
_cell_length_a 40.4231
_cell_length_b 40.1466
_cell_length_c 13.7681
_cell_angle_alpha 89.297900
_cell_angle_beta 90.323600
_cell_angle_gamma 120.249600
loop_
  _atom_site_label
  _atom_site_type_symbol
  _atom_site_fract_x
  _atom_site_fract_y
  _atom_site_fract_z
C1 C 0.21262 0.48009 0.46780
 C2 C 0.21511 0.48077 0.57143
 C3 C 0.24329 0.47543 0.61633
 C4 C 0.27258 0.47482 0.56388
 C5 C 0.27206 0.47706 0.46073
 C6 C 0.24238 0.47988 0.41442
 H7 H 0.24130 0.47854 0.33606
 H8 H 0.24402 0.47449 0.69522
 C9 C 0.53608 -0.26037 0.44909
 C10 C 0.53510 -0.25992 0.55204
 C11 C 0.53444 -0.22980 0.59936
 C12 C 0.53151 -0.20087 0.54857
 C13 C 0.53250 -0.20060 0.44479
 C14 C 0.53515 -0.23025 0.39728
 H15 H 0.53791 -0.22877 0.31942
 H16 H 0.53426 -0.23020 0.67828
 C17 C 1.25221 0.80386 0.44626
 C18 C 1.25240 0.79861 0.54905
 C19 C 1.22453 0.76303 0.58987
 C20 C 1.19451 0.73460 0.53412
 C21 C 1.19234 0.74211 0.43435
 C22 C 1.22047 0.77678 0.39269
 H23 H 1.21885 0.78134 0.31530
 H24 H 1.22645 0.75679 0.66540
 C25 C 0.78951 0.50597 0.46736
 C26 C 0.79003 0.50419 0.57077
 C27 C 0.75808 0.49940 0.62251
 C28 C 0.72715 0.49964 0.57663
 C29 C 0.72913 0.50672 0.47468
 C30 C 0.75947 0.50820 0.42128
 H31 H 0.75999 0.51156 0.34315
 H32 H 0.75760 0.49618 0.70105
 C33 C 0.48847 0.27845 0.44755
 C34 C 0.48100 0.27720 0.54886
 C35 C 0.47747 0.24560 0.60414
 C36 C 0.48119 0.21567 0.56205
 C37 C 0.48999 0.21847 0.46138
 C38 C 0.49274 0.24927 0.40587
 H39 H 0.49923 0.25111 0.32898
 H40 H 0.46975 0.24326 0.67918
 C41 C 0.71681 0.21380 0.46917
 C42 C 0.71876 0.21471 0.57172
 C43 C 0.75131 0.24364 0.61803
 C44 C 0.78273 0.27177 0.56521
 C45 C 0.78309 0.26786 0.46248
 C46 C 0.74955 0.23981 0.41562
 H47 H 0.74912 0.23753 0.33745
 H48 H 0.75142 0.24494 0.69675
 N49 N 0.95418 0.51696 0.12637
 N50 N 0.92654 0.52366 0.15123
 N51 N 1.03495 0.53294 0.19282
 N52 N 1.06306 0.54833 0.25659
 N53 N 1.03463 0.55977 0.13793
 N54 N 1.06253 0.59427 0.16330
 N55 N 0.95441 0.49077 0.18416
 N56 N 0.92676 0.47883 0.24938
 C57 C 0.90941 0.49934 0.22753
 C58 C 1.07992 0.58654 0.23751
 N59 N 1.03877 0.44468 0.08566
 N60 N 1.06993 0.44187 0.08695
 N61 N 0.95702 0.42138 0.15331
 N62 N 0.92614 0.39955 0.20535
 N63 N 0.95774 0.40312 0.07564
 N64 N 0.92692 0.36836 0.07213
 N65 N 1.03747 0.46318 0.16216
 N66 N 1.06754 0.47297 0.21842
 Mn67 Mn 0.99605 0.47702 0.17423
 C68 C 1.08737 0.45923 0.17057
 C69 C 0.90778 0.36652 0.15433
 N70 N 1.03918 0.57345 -0.06866
 N71 N 1.06443 0.61069 -0.07350
 N72 N 0.96261 0.51334 -0.15898
 N73 N 0.93856 0.50987 -0.22809
 N74 N 0.95874 0.53053 -0.08289
 N75 N 0.93148 0.53907 -0.09859
 N76 N 1.04226 0.55563 -0.14447
 N77 N 1.06945 0.58038 -0.20339
 Mn78 Mn 0.99649 0.54549 0.02841
 C79 C 1.08327 0.61453 -0.15747
 C80 C 0.91920 0.52578 -0.18961
 N81 N 0.96273 0.41673 -0.13079
 N82 N 0.93446 0.38247 -0.15565
 N83 N 1.04477 0.48571 -0.17426
 N84 N 1.07452 0.49935 -0.23325
 N85 N 1.04288 0.45791 -0.11913
 N86 N 1.07124 0.45180 -0.13896
 N87 N 0.96413 0.44368 -0.18847
 N88 N 0.93651 0.42845 -0.25394
 Mn89 Mn 1.00039 0.43015 -0.02215
 Mn90 Mn 1.00362 0.49970 -0.16746
 Cl91 Cl 0.99910 0.48816 0.00328
 C92 C 0.91834 0.39021 -0.23238
 C93 C 1.09084 0.47801 -0.20965
 N94 N 0.46502 0.50903 0.18111
 N95 N 0.45117 0.52429 0.24153
 N96 N 0.47050 0.43662 0.13284
 N97 N 0.46236 0.40105 0.15288
 N98 N 0.49789 0.46126 0.18982
 N99 N 0.50925 0.44307 0.24986
 N100 N 0.43781 0.48398 0.12429
 N101 N 0.40456 0.48092 0.14608
 C102 C 0.41346 0.50643 0.21910
 C103 C 0.48669 0.40551 0.22596
 N104 N 0.48381 0.44457 -0.14965
 N105 N 0.48840 0.42055 -0.20460
 N106 N 0.42956 0.47372 -0.08565
 N107 N 0.39402 0.46533 -0.10391
 N108 N 0.45176 0.49200 -0.16027
 N109 N 0.43217 0.49660 -0.23051
 N110 N 0.46237 0.42641 -0.07391
 N111 N 0.45218 0.38957 -0.07463
 Mn112 Mn 0.44957 0.45487 0.02465
 C113 C 0.46849 0.38637 -0.15685
 C114 C 0.39635 0.48026 -0.19423
 N115 N 0.57302 0.52811 0.16229
 N116 N 0.59121 0.51622 0.22039
 N117 N 0.56132 0.59355 0.07716
 N118 N 0.56950 0.62983 0.07479
 N119 N 0.54014 0.57539 0.15319
 N120 N 0.53352 0.59884 0.20495
 N121 N 0.59404 0.54585 0.08569
 N122 N 0.62672 0.54595 0.08855
 Mn123 Mn 0.51907 0.51849 0.17292
 C124 C 0.62471 0.52776 0.17335
 C125 C 0.55216 0.63273 0.15534
 N126 N 0.52616 0.55867 -0.18672
 N127 N 0.51459 0.57676 -0.24645
 N128 N 0.58574 0.53605 -0.11996
 N129 N 0.61896 0.53882 -0.13919
 N130 N 0.55891 0.51096 -0.17714
 N131 N 0.57310 0.49584 -0.23692
 N132 N 0.55308 0.58331 -0.12886
 N133 N 0.56078 0.61877 -0.14781
 Mn134 Mn 0.50518 0.50151 -0.16943
 Mn135 Mn 0.57392 0.56505 -0.02152
 Cl136 Cl 0.51182 0.50995 0.00173
 C137 C 0.53666 0.61426 -0.22133
 C138 C 0.61058 0.51343 -0.21180
 N139 N 0.41296 -0.03772 0.10185
 N140 N 0.37741 -0.06400 0.12417
 N141 N 0.47854 0.04528 0.15120
 N142 N 0.48818 0.07529 0.20738
 N143 N 0.45433 0.04296 0.08384
 N144 N 0.44704 0.07133 0.09192
 N145 N 0.43669 -0.03567 0.17039
 N146 N 0.41783 -0.06065 0.24101
 C147 C 0.38090 -0.07824 0.21076
 C148 C 0.46842 0.09134 0.16880
 N149 N 0.57086 0.04000 0.08675
 N150 N 0.60721 0.06655 0.09719
 N151 N 0.50754 -0.03722 0.17256
 N152 N 0.50050 -0.06197 0.24446
 N153 N 0.52821 -0.04096 0.10480
 N154 N 0.53549 -0.06863 0.12870
 N155 N 0.54971 0.04357 0.15329
 N156 N 0.57134 0.07264 0.21135
 Mn157 Mn 0.49317 0.00413 0.16304
 C158 C 0.60714 0.08685 0.17462
 C159 C 0.51780 -0.08158 0.21584
 N160 N 0.45166 0.03729 -0.12380
 N161 N 0.44834 0.06800 -0.14023
 N162 N 0.43225 -0.04566 -0.17407
 N163 N 0.41265 -0.07351 -0.23600
 N164 N 0.40966 -0.04408 -0.10851
 N165 N 0.37364 -0.07106 -0.12477
 N166 N 0.47383 0.03496 -0.18930
 N167 N 0.48603 0.06373 -0.25232
 Mn168 Mn 0.43167 -0.00054 -0.01156
 C169 C 0.46987 0.08401 -0.22109
 C170 C 0.37631 -0.08931 -0.20428
 N171 N 0.52548 -0.04676 -0.10628
 N172 N 0.53649 -0.07178 -0.12724
 N173 N 0.54354 0.03286 -0.18797
 N174 N 0.56131 0.06007 -0.25410
 N175 N 0.56753 0.03431 -0.12128
 N176 N 0.60250 0.06304 -0.13986
 N177 N 0.50177 -0.04748 -0.17297
 N178 N 0.49586 -0.07297 -0.24017
 Mn179 Mn 0.54832 -0.00352 -0.00884
 Mn180 Mn 0.48782 -0.00630 -0.18151
 Cl181 Cl 0.49021 -0.00168 -0.00938
 C182 C 0.51722 -0.08831 -0.21017
 C183 C 0.59793 0.07866 -0.22320
 C184 C 1.17869 0.47442 0.42174
 C185 C 1.17315 0.47692 0.32643
 C186 C 1.13629 0.47243 0.29357
 C187 C 1.12437 0.46402 0.20200
 H188 H 1.19508 0.48330 0.27296
 H189 H 1.11800 0.47516 0.34640
 H190 H 1.15391 0.46620 0.46692
 H191 H 1.14145 0.45925 0.14966
 C192 C 0.53880 0.70984 0.40213
 C193 C 0.54136 0.70573 0.30638
 C194 C 0.54100 0.67084 0.27266
 C195 C 0.55282 0.66819 0.18442
 H196 H 0.54351 0.72670 0.25314
 H197 H 0.53141 0.64670 0.32300
 H198 H 0.53924 0.68782 0.44700
 H199 H 0.56391 0.69245 0.13423
 C200 C 0.28217 -0.16598 0.39212
 C201 C 0.31963 -0.15144 0.41161
 C202 C 0.35170 -0.12160 0.35218
 C203 C 0.34786 -0.10805 0.26582
 H204 H 0.32804 -0.16273 0.47273
 H205 H 0.38018 -0.11073 0.38164
 H206 H 0.27427 -0.15805 0.32432
 H207 H 0.32012 -0.11862 0.23278
 C208 C 0.81715 0.50093 0.40699
 C209 C 0.83251 0.52101 0.32449
 C210 C 0.86264 0.51966 0.26606
 C211 C 0.87766 0.49711 0.28529
 H212 H 0.82410 0.54136 0.29965
 H213 H 0.87351 0.53932 0.20446
 H214 H 0.82626 0.48165 0.43541
 H215 H 0.86754 0.47701 0.34571
 C216 C 0.49022 0.30856 0.38057
 C217 C 0.51538 0.34623 0.39236
 C218 C 0.51503 0.37787 0.33645
 C219 C 0.48764 0.37291 0.27308
 H220 H 0.53630 0.35474 0.45023
 H221 H 0.53763 0.40689 0.35271
 H222 H 0.47075 0.29861 0.31967
 H223 H 0.46460 0.34446 0.25513
 C224 C 0.68087 0.18533 0.41924
 C225 C 0.68009 0.16759 0.33691
 C226 C 0.64332 0.13764 0.29541
 C227 C 0.64263 0.11875 0.21557
 H228 H 0.70659 0.17382 0.30209
 H229 H 0.61674 0.13029 0.33182
 H230 H 0.65382 0.17745 0.45346
 H231 H 0.66932 0.12616 0.17972
 C232 C 0.47451 0.18241 -0.38395
 C233 C 0.46823 0.17654 -0.28747
 C234 C 0.46166 0.14075 -0.23775
 C235 C 0.47629 0.11950 -0.26987
 H236 H 0.46678 0.19725 -0.24135
 H237 H 0.44563 0.13275 -0.17038
 H238 H 0.47328 0.15889 -0.42393
 H239 H 0.49457 0.12853 -0.33334
 C240 C 0.69692 0.49503 -0.36294
 C241 C 0.66052 0.48111 -0.39194
 C242 C 0.63110 0.48277 -0.33232
 C243 C 0.63973 0.50823 -0.26094
 H244 H 0.65127 0.46778 -0.46223
 H245 H 0.60153 0.46483 -0.35439
 H246 H 0.70316 0.50111 -0.28643
 H247 H 0.66918 0.52758 -0.24051
 C248 C 0.81247 0.30179 -0.38072
 C249 C 0.83626 0.33759 -0.41517
 C250 C 0.86839 0.36785 -0.35861
 C251 C 0.88525 0.36003 -0.28490
 H252 H 0.83142 0.34621 -0.48613
 H253 H 0.87983 0.39744 -0.38267
 H254 H 0.81387 0.29654 -0.30384
 H255 H 0.87536 0.33054 -0.26276
 C256 C 0.52785 -0.17420 -0.39289
 C257 C 0.50958 -0.15529 -0.41816
 C258 C 0.50474 -0.12893 -0.35301
 C259 C 0.52258 -0.11594 -0.26732
 H260 H 0.49473 -0.16099 -0.48683
 H261 H 0.48578 -0.11909 -0.37941
 H262 H 0.53700 -0.17224 -0.31821
 H263 H 0.54251 -0.12409 -0.23918
 C264 C 0.30094 0.47288 -0.37984
 C265 C 0.33765 0.48770 -0.40620
 C266 C 0.36800 0.48922 -0.34256
 C267 C 0.36353 0.47649 -0.25004
 H268 H 0.34770 0.50254 -0.47485
 H269 H 0.39622 0.50253 -0.37513
 H270 H 0.29314 0.46231 -0.30617
 H271 H 0.33609 0.46292 -0.21400
 C272 C 1.16577 0.69735 -0.41989
 C273 C 1.15483 0.69373 -0.32696
 C274 C 1.12646 0.65573 -0.28689
 C275 C 1.11298 0.65196 -0.19670
 H276 H 1.16594 0.71875 -0.28076
 H277 H 1.11590 0.63056 -0.33254
 H278 H 1.15235 0.67175 -0.46377
 H279 H 1.12293 0.67716 -0.15152
 C280 C 0.82070 0.50717 -0.37287
 C281 C 0.85752 0.52592 -0.40040
 C282 C 0.88796 0.52644 -0.34035
 C283 C 0.88939 0.52895 -0.24318
 H284 H 0.86635 0.54045 -0.46993
 H285 H 0.91073 0.52555 -0.37924
 H286 H 0.81437 0.49575 -0.29924
 H287 H 0.86891 0.53336 -0.20334
 C288 C 0.47616 0.30651 -0.40858
 C289 C 0.47371 0.31165 -0.31325
 C290 C 0.47367 0.34640 -0.28062
 C291 C 0.46567 0.35031 -0.18909
 H292 H 0.47387 0.29241 -0.25809
 H293 H 0.48093 0.36963 -0.33257
 H294 H 0.47506 0.32757 -0.45584
 H295 H 0.45674 0.32676 -0.13735
 C296 C 0.68743 0.18492 -0.36811
 C297 C 0.69425 0.16591 -0.29717
 C298 C 0.66373 0.13312 -0.24202
 C299 C 0.62816 0.11168 -0.27620
 H300 H 0.72352 0.17422 -0.27913
 H301 H 0.67150 0.12539 -0.17346
 H302 H 0.65852 0.17784 -0.38499
 H303 H 0.62028 0.11783 -0.34647
 C304 C 1.19050 0.48580 -0.36545
 C305 C 1.17411 0.50699 -0.38661
 C306 C 1.14425 0.50739 -0.32598
 C307 C 1.12386 0.48018 -0.25925
 H308 H 1.18222 0.52462 -0.45198
 H309 H 1.13674 0.52917 -0.34316
 H310 H 1.18739 0.47452 -0.29214
 H311 H 1.12985 0.45735 -0.24281
 C312 C 0.53635 0.71046 -0.38561
 C313 C 0.50783 0.67360 -0.38573
 C314 C 0.50903 0.64171 -0.33394
 C315 C 0.53509 0.64673 -0.26654
 H316 H 0.48330 0.66570 -0.43225
 H317 H 0.48742 0.61270 -0.35373
 H318 H 0.56128 0.71996 -0.34007
 H319 H 0.55604 0.67518 -0.24220
 C320 C 0.27939 -0.16920 -0.38642
 C321 C 0.27764 -0.16927 -0.28869
 C322 C 0.30782 -0.13777 -0.23035
 C323 C 0.34452 -0.12058 -0.25741
 H324 H 0.25382 -0.19195 -0.24907
 H325 H 0.30003 -0.13051 -0.16198
 H326 H 0.30078 -0.14265 -0.42006
 H327 H 0.35228 -0.13001 -0.32243
 C328 C 0.53593 -0.16749 0.38575
 C329 C 0.52266 -0.17100 0.29448
 C330 C 0.52559 -0.13823 0.23727
 C331 C 0.51808 -0.11223 0.27522
 H332 H 0.50955 -0.19853 0.25847
 H333 H 0.53040 -0.13781 0.15983
 H334 H 0.55000 -0.13921 0.41827
 H335 H 0.50975 -0.11468 0.35080
 C336 C 0.29684 0.46859 0.39914
 C337 C 0.32345 0.49520 0.34012
 C338 C 0.34963 0.48686 0.28497
 C339 C 0.38595 0.51431 0.26876
 H340 H 0.32765 0.52409 0.33779
 H341 H 0.33979 0.45750 0.26276
 H342 H 0.29482 0.44076 0.40795
 H343 H 0.39662 0.54276 0.29882
 C344 C 1.16102 0.71488 0.37059
 C345 C 1.15624 0.68035 0.34980
 C346 C 1.12415 0.65292 0.28918
 C347 C 1.11322 0.61553 0.29167
 H348 H 1.17545 0.67165 0.38117
 H349 H 1.10826 0.66297 0.24623
 H350 H 1.14289 0.72437 0.33652
 H351 H 1.12805 0.60545 0.33866
 C352 C 0.49773 0.19014 0.41328
 C353 C 0.48187 0.17416 0.32843
 C354 C 0.48654 0.14299 0.28783
 C355 C 0.46773 0.12492 0.20758
 H356 H 0.46348 0.18263 0.29128
 H357 H 0.50417 0.13375 0.32582
 H358 H 0.51507 0.18058 0.45135
 H359 H 0.44990 0.13410 0.17049
 C360 C 0.70298 0.51785 0.42703
 C361 C 0.69006 0.50887 0.33615
 C362 C 0.66009 0.51666 0.30153
 C363 C 0.65481 0.52015 0.20725
 H364 H 0.70008 0.49445 0.28878
 H365 H 0.64251 0.52044 0.35452
 H366 H 0.69257 0.53298 0.47061
 H367 H 0.67394 0.51910 0.15415
 C368 C 0.81975 0.28916 0.40810
 C369 C 0.82331 0.29929 0.31424
 C370 C 0.86148 0.32802 0.27799
 C371 C 0.87067 0.33361 0.18398
 H372 H 0.79867 0.28978 0.26734
 H373 H 0.88276 0.34617 0.33106
 H374 H 0.84585 0.29882 0.44954
 H375 H 0.85101 0.31455 0.12956
   
