data_POSCAR
  _audit_creation_date              2014-09-24
  _audit_creation_method            'ToBaCCo'
  _symmetry_space_group_name_H-M    'P1'
  _symmetry_Int_Tables_number       1
  _symmetry_cell_setting            triclinic
  loop_
  _symmetry_equiv_pos_as_xyz
 x,y,z
_cell_length_a 49.2795
_cell_length_b 49.1657
_cell_length_c 71.8754
_cell_angle_alpha 89.981500
_cell_angle_beta 90.023900
_cell_angle_gamma 120.255500
loop_
  _atom_site_label
  _atom_site_type_symbol
  _atom_site_fract_x
  _atom_site_fract_y
  _atom_site_fract_z
C1 C -0.01554 0.49275 1.24937
 C2 C 0.01649 0.50893 1.24939
 C3 C 0.03494 0.51702 1.26692
 C4 C 0.03475 0.51933 1.23179
 C5 C -0.03379 0.48216 1.23177
 C6 C -0.03399 0.48496 1.26688
 C7 C 0.05812 0.54820 1.27037
 C8 C 0.07583 0.55632 1.28671
 C9 C 0.07114 0.53334 1.30029
 C10 C 0.04764 0.50176 1.29637
 C11 C 0.03008 0.49382 1.27994
 C12 C 0.03017 0.53820 1.21896
 C13 C 0.04706 0.54726 1.20229
 C14 C 0.06902 0.53781 1.19822
 C15 C 0.07398 0.51948 1.21130
 C16 C 0.05709 0.51044 1.22794
 C17 C -0.02921 0.46318 1.21904
 C18 C -0.04613 0.45392 1.20238
 C19 C -0.06812 0.46329 1.19821
 C20 C -0.07308 0.48176 1.21118
 C21 C -0.05616 0.49099 1.22782
 C22 C -0.05722 0.45370 1.27048
 C23 C -0.07493 0.44596 1.28680
 C24 C -0.06990 0.46939 1.29982
 C25 C -0.04680 0.50077 1.29610
 C26 C -0.02914 0.50851 1.27972
 H27 H 0.06213 0.56653 1.26051
 H28 H 0.09193 0.58114 1.28879
 H29 H 0.04347 0.48238 1.30531
 H30 H 0.01288 0.46938 1.27727
 H31 H 0.01339 0.54573 1.22182
 H32 H 0.04260 0.56124 1.19246
 H33 H 0.06116 0.49614 1.23775
 H34 H -0.01241 0.45569 1.22199
 H35 H -0.04168 0.43984 1.19263
 H36 H -0.09025 0.48886 1.20852
 H37 H -0.06024 0.50539 1.23754
 H38 H -0.06139 0.43520 1.26071
 H39 H -0.09228 0.42153 1.28936
 H40 H -0.04274 0.51940 1.30571
 H41 H -0.01180 0.53289 1.27701
 H42 H 0.09114 0.51233 1.20871
 C43 C 0.50762 0.49163 1.25092
 C44 C 0.49186 0.50781 1.25092
 C45 C 0.48422 0.51846 1.26848
 C46 C 0.48135 0.51564 1.23337
 C47 C 0.51817 0.48382 1.23338
 C48 C 0.51521 0.48094 1.26849
 C49 C 0.45309 0.51036 1.27215
 C50 C 0.44549 0.52011 1.28860
 C51 C 0.46893 0.53837 1.30166
 C52 C 0.50020 0.54678 1.29785
 C53 C 0.50780 0.53708 1.28136
 C54 C 0.46258 0.49210 1.22050
 C55 C 0.45281 0.49985 1.20408
 C56 C 0.46132 0.53124 1.20034
 C57 C 0.47980 0.55467 1.21337
 C58 C 0.48961 0.54691 1.22974
 C59 C 0.53695 0.50738 1.22052
 C60 C 0.54676 0.49964 1.20412
 C61 C 0.53829 0.46826 1.20038
 C62 C 0.51980 0.44482 1.21341
 C63 C 0.50994 0.45256 1.22976
 C64 C 0.54633 0.48907 1.27223
 C65 C 0.55389 0.47932 1.28870
 C66 C 0.53040 0.46105 1.30173
 C67 C 0.49914 0.45259 1.29786
 C68 C 0.49158 0.46229 1.28134
 H69 H 0.43458 0.49608 1.26237
 H70 H 0.42115 0.51295 1.29123
 H71 H 0.51884 0.56126 1.30750
 H72 H 0.53208 0.54417 1.27859
 H73 H 0.45537 0.46771 1.22323
 H74 H 0.43818 0.48123 1.19445
 H75 H 0.50400 0.56540 1.23952
 H76 H 0.54414 0.53176 1.22324
 H77 H 0.56141 0.51828 1.19449
 H78 H 0.51258 0.42040 1.21084
 H79 H 0.49555 0.43406 1.23954
 H80 H 0.56487 0.50336 1.26247
 H81 H 0.57822 0.48650 1.29137
 H82 H 0.48047 0.43810 1.30748
 H83 H 0.46731 0.45518 1.27853
 H84 H 0.48703 0.57910 1.21080
 C85 C 0.50768 1.01624 1.25003
 C86 C 0.49155 0.98414 1.25002
 C87 C 0.48343 0.96565 1.26756
 C88 C 0.48120 0.96581 1.23244
 C89 C 0.51799 1.03463 1.23245
 C90 C 0.51582 1.03467 1.26758
 C91 C 0.50663 0.97031 1.28053
 C92 C 0.49858 0.95288 1.29702
 C93 C 0.46702 0.92987 1.30093
 C94 C 0.44403 0.92520 1.28752
 C95 C 0.45218 0.94275 1.27111
 C96 C 0.49008 0.94339 1.22865
 C97 C 0.48098 0.92632 1.21205
 C98 C 0.46260 0.93115 1.19897
 C99 C 0.45322 0.95321 1.20297
 C100 C 0.46234 0.97030 1.21959
 C101 C 0.50918 1.05704 1.22872
 C102 C 0.51825 1.07425 1.21217
 C103 C 0.53674 1.06974 1.19883
 C104 C 0.54598 1.04742 1.20301
 C105 C 0.53680 1.03025 1.21960
 C106 C 0.49263 1.03000 1.28054
 C107 C 0.50068 1.04741 1.29704
 C108 C 0.53223 1.07039 1.30096
 C109 C 0.55523 1.07508 1.28756
 C110 C 0.54707 1.05755 1.27114
 H111 H 0.53106 0.98732 1.27781
 H112 H 0.51757 0.95678 1.30622
 H113 H 0.41933 0.90896 1.28985
 H114 H 0.43390 0.93887 1.26128
 H115 H 0.50438 0.93939 1.23847
 H116 H 0.48809 0.90909 1.20953
 H117 H 0.45482 0.98713 1.22241
 H118 H 0.49505 1.06112 1.23863
 H119 H 0.51154 1.09190 1.21036
 H120 H 0.55927 1.04199 1.19326
 H121 H 0.54418 1.01327 1.22234
 H122 H 0.46819 1.01300 1.27781
 H123 H 0.48169 1.04349 1.30623
 H124 H 0.57994 1.09131 1.28990
 H125 H 0.56535 1.06144 1.26131
 H126 H 0.43920 0.95758 1.19313
 C127 C 1.01631 0.50807 0.74954
 C128 C 0.98428 0.49179 0.74956
 C129 C 0.96592 0.48095 0.73201
 C130 C 0.96590 0.48401 0.76711
 C131 C 1.03476 0.51619 0.76708
 C132 C 1.03461 0.51854 0.73195
 C133 C 0.94298 0.48908 0.72822
 C134 C 0.92564 0.47925 0.71175
 C135 C 0.93075 0.46090 0.69878
 C136 C 0.95349 0.45244 0.70271
 C137 C 0.97077 0.46221 0.71924
 C138 C 0.97068 0.50760 0.77991
 C139 C 0.95303 0.49989 0.79629
 C140 C 0.93003 0.46850 0.80007
 C141 C 0.92510 0.44502 0.78712
 C142 C 0.94279 0.45273 0.77078
 C143 C 1.03004 0.49291 0.78004
 C144 C 1.04768 0.50088 0.79644
 C145 C 1.07093 0.53243 0.80026
 C146 C 1.07558 0.55553 0.78689
 C147 C 1.05783 0.54745 0.77057
 C148 C 1.05754 0.51044 0.72833
 C149 C 1.07488 0.51993 0.71186
 C150 C 1.06995 0.53810 0.69846
 C151 C 1.04693 0.54641 0.70244
 C152 C 1.02971 0.53694 0.71899
 H153 H 0.93883 0.50344 0.73793
 H154 H 0.90855 0.48645 0.70903
 H155 H 0.95758 0.43789 0.69313
 H156 H 0.98790 0.45512 0.72209
 H157 H 0.98792 0.53199 0.77714
 H158 H 0.95701 0.51856 0.80586
 H159 H 0.93868 0.43420 0.76106
 H160 H 1.01290 0.46845 0.77736
 H161 H 1.04374 0.48181 0.80562
 H162 H 1.09200 0.58025 0.78917
 H163 H 1.06175 0.56580 0.76074
 H164 H 1.06161 0.49615 0.73816
 H165 H 1.09116 0.51165 0.70948
 H166 H 1.04283 0.56137 0.69324
 H167 H 1.01268 0.54419 0.72176
 H168 H 0.90783 0.42059 0.78972
 C169 C 0.49221 0.50827 0.75039
 C170 C 0.50776 0.49188 0.75042
 C171 C 0.51817 0.48390 0.73289
 C172 C 0.51529 0.48118 0.76801
 C173 C 0.48476 0.51911 0.76794
 C174 C 0.48174 0.51615 0.73283
 C175 C 0.50976 0.45257 0.72933
 C176 C 0.51957 0.44469 0.71301
 C177 C 0.53819 0.46804 0.69997
 C178 C 0.54682 0.49948 0.70364
 C179 C 0.53706 0.50736 0.72001
 C180 C 0.49166 0.46271 0.78089
 C181 C 0.49916 0.45301 0.79743
 C182 C 0.53038 0.46127 0.80128
 C183 C 0.55387 0.47936 0.78820
 C184 C 0.54636 0.48911 0.77172
 C185 C 0.50845 0.53768 0.78077
 C186 C 0.50102 0.54746 0.79729
 C187 C 0.46982 0.53918 0.80117
 C188 C 0.44626 0.52101 0.78815
 C189 C 0.45369 0.51117 0.77167
 C190 C 0.49011 0.54745 0.72919
 C191 C 0.48025 0.55524 0.71285
 C192 C 0.46161 0.53182 0.69985
 C193 C 0.45302 0.50040 0.70359
 C194 C 0.46284 0.49261 0.71998
 H195 H 0.49529 0.43415 0.73912
 H196 H 0.51224 0.42022 0.71048
 H197 H 0.56157 0.51804 0.69401
 H198 H 0.54439 0.53179 0.72270
 H199 H 0.46741 0.45576 0.77811
 H200 H 0.48049 0.43867 0.80709
 H201 H 0.56491 0.50326 0.76193
 H202 H 0.53269 0.54463 0.77796
 H203 H 0.51974 0.56186 0.80692
 H204 H 0.42197 0.51397 0.79083
 H205 H 0.43510 0.49695 0.76192
 H206 H 0.50460 0.56593 0.73895
 H207 H 0.48756 0.57968 0.71027
 H208 H 0.43826 0.48178 0.69399
 H209 H 0.45553 0.46821 0.72272
 H210 H 0.57817 0.48639 0.79086
 C211 C 0.49202 -0.01647 0.75012
 C212 C 0.50802 0.01563 0.75013
 C213 C 0.51857 0.03406 0.73258
 C214 C 0.51585 0.03403 0.76769
 C215 C 0.48393 -0.03489 0.76768
 C216 C 0.48175 -0.03488 0.73255
 C217 C 0.53740 0.02949 0.71975
 C218 C 0.54698 0.04692 0.70326
 C219 C 0.53822 0.06951 0.69941
 C220 C 0.51975 0.07430 0.71243
 C221 C 0.51013 0.05683 0.72887
 C222 C 0.54710 0.05706 0.77138
 C223 C 0.55490 0.07455 0.78781
 C224 C 0.53154 0.06952 0.80084
 C225 C 0.50016 0.04666 0.79701
 C226 C 0.49236 0.02921 0.78053
 C227 C 0.45271 -0.05786 0.77124
 C228 C 0.44461 -0.07535 0.78767
 C229 C 0.46763 -0.07053 0.80109
 C230 C 0.49916 -0.04746 0.79717
 C231 C 0.50715 -0.03009 0.78066
 C232 C 0.46323 -0.03029 0.71956
 C233 C 0.45390 -0.04767 0.70305
 C234 C 0.46250 -0.07054 0.69914
 C235 C 0.48082 -0.07514 0.71256
 C236 C 0.49016 -0.05764 0.72900
 H237 H 0.54473 0.01250 0.72255
 H238 H 0.56163 0.04307 0.69365
 H239 H 0.51234 0.09127 0.70977
 H240 H 0.49569 0.06075 0.73862
 H241 H 0.56554 0.06118 0.76162
 H242 H 0.57931 0.09172 0.79045
 H243 H 0.46800 0.01202 0.77775
 H244 H 0.43441 -0.06185 0.76139
 H245 H 0.41992 -0.09166 0.79000
 H246 H 0.51817 -0.04344 0.80639
 H247 H 0.53157 -0.01302 0.77794
 H248 H 0.45575 -0.01339 0.72228
 H249 H 0.43881 -0.04382 0.69383
 H250 H 0.48932 -0.09128 0.71024
 H251 H 0.50456 -0.06147 0.73885
 H252 H 0.48159 0.04262 0.80663
 O253 O 0.38156 0.65852 0.98562
 O254 O 0.38066 0.71018 0.97922
 C255 C 0.36611 0.72449 0.97509
 O256 O 0.34205 0.72046 0.98401
 O257 O 0.29081 0.66728 0.97745
 C258 C 0.27639 0.63804 0.97396
 O259 O 0.27972 0.61840 0.98380
 O260 O 0.33300 0.62021 0.97885
 C261 C 0.36232 0.63516 0.97579
 O262 O 0.37821 0.66733 1.02253
 O263 O 0.38015 0.72043 1.01614
 C264 C 0.36000 0.72423 1.02507
 O265 O 0.33108 0.70981 1.02090
 O266 O 0.27844 0.65805 1.01432
 C267 C 0.27430 0.63465 1.02409
 O268 O 0.28873 0.61986 1.02096
 O269 O 0.34037 0.61843 1.01600
 C270 C 0.36333 0.63806 1.02592
 Cr271 Cr 0.37848 0.68827 1.00085
 Cr272 Cr 0.31142 0.68807 0.99920
 Cr273 Cr 0.31129 0.62089 0.99991
 O274 O 0.33374 0.66577 0.99998
 O275 O 0.61862 0.34153 0.98570
 O276 O 0.61947 0.28986 0.97928
 C277 C 0.63402 0.27555 0.97515
 O278 O 0.65808 0.27955 0.98407
 O279 O 0.70938 0.33273 0.97760
 C280 C 0.72379 0.36198 0.97413
 O281 O 0.72044 0.38160 0.98397
 O282 O 0.66721 0.37986 0.97901
 C283 C 0.63790 0.36494 0.97590
 O284 O 0.62188 0.33262 1.02261
 O285 O 0.61991 0.27952 1.01621
 C286 C 0.64002 0.27565 1.02514
 O287 O 0.66895 0.29003 1.02099
 O288 O 0.72163 0.34179 1.01450
 C289 C 0.72581 0.36520 1.02427
 O290 O 0.71141 0.38002 1.02114
 O291 O 0.65980 0.38152 1.01617
 C292 C 0.63679 0.36187 1.02604
 Cr293 Cr 0.62164 0.31172 1.00092
 Cr294 Cr 0.68868 0.31186 0.99932
 Cr295 Cr 0.68888 0.37908 1.00007
 O296 O 0.66639 0.33420 1.00010
 O297 O 0.66043 0.38099 0.51624
 O298 O 0.71209 0.37953 0.52111
 C299 C 0.72655 0.36474 0.52415
 O300 O 0.72241 0.34142 0.51431
 O301 O 0.66979 0.28959 0.52079
 C302 C 0.64087 0.27514 0.52497
 O303 O 0.62070 0.27901 0.51609
 O304 O 0.62261 0.33204 0.52265
 C305 C 0.63745 0.36128 0.52611
 O306 O 0.66779 0.37952 0.47907
 O307 O 0.72108 0.38131 0.48395
 C308 C 0.72441 0.36177 0.47402
 O309 O 0.71001 0.33250 0.47742
 O310 O 0.65879 0.27924 0.48388
 C311 C 0.63470 0.27526 0.47500
 O312 O 0.62014 0.28953 0.47920
 O313 O 0.61924 0.34113 0.48578
 C314 C 0.63847 0.36458 0.47600
 Cr315 Cr 0.68952 0.37867 0.50009
 Cr316 Cr 0.68942 0.31152 0.49913
 Cr317 Cr 0.62234 0.31127 0.50090
 O318 O 0.66708 0.33380 0.50004
 O319 O 0.33917 0.61884 0.51601
 O320 O 0.28757 0.62035 0.52097
 C321 C 0.27320 0.63520 0.52413
 O322 O 0.27739 0.65863 0.51437
 O323 O 0.33011 0.71037 0.52085
 C324 C 0.35904 0.72474 0.52499
 O325 O 0.37912 0.72085 0.51604
 O326 O 0.37712 0.66773 0.52244
 C327 C 0.36221 0.63847 0.52588
 O328 O 0.33173 0.62051 0.47885
 O329 O 0.27852 0.61882 0.48381
 C330 C 0.27517 0.63847 0.47398
 O331 O 0.28958 0.66770 0.47747
 O332 O 0.34091 0.72086 0.48392
 C333 C 0.36494 0.72483 0.47499
 O334 O 0.37948 0.71051 0.47912
 O335 O 0.38033 0.65883 0.48554
 C336 C 0.36104 0.63542 0.47575
 Cr337 Cr 0.31008 0.62130 0.49991
 Cr338 Cr 0.31033 0.68855 0.49918
 Cr339 Cr 0.37734 0.68864 0.50076
 O340 O 0.33259 0.66619 0.49995
 C341 C 0.43044 0.56784 0.33552
 C342 C 0.44404 0.56678 0.35240
 C343 C 0.46613 0.55684 0.35269
 C344 C 0.47446 0.54783 0.33618
 C345 C 0.46071 0.54859 0.31916
 C346 C 0.43870 0.55882 0.31902
 C347 C 0.43492 0.57553 0.36937
 C348 C 0.42677 0.58278 0.38342
 C349 C 0.41665 0.59120 0.39967
 C350 C 0.40756 0.59838 0.41335
 C351 C 0.39618 0.60697 0.42946
 C352 C 0.41689 0.63251 0.44051
 C353 C 0.40557 0.64153 0.45574
 C354 C 0.37332 0.62509 0.46011
 C355 C 0.35277 0.59921 0.44900
 C356 C 0.36415 0.59026 0.43380
 H357 H 0.41338 0.57557 0.33512
 H358 H 0.47673 0.55585 0.36569
 H359 H 0.49120 0.53972 0.33677
 H360 H 0.42804 0.56008 0.30611
 H361 H 0.44172 0.64566 0.43725
 H362 H 0.42203 0.66158 0.46395
 H363 H 0.32782 0.58606 0.45193
 H364 H 0.34791 0.57048 0.42531
 C365 C 0.42283 0.86467 0.33533
 C366 C 0.44166 0.87667 0.35114
 C367 C 0.46898 0.90616 0.35040
 C368 C 0.47747 0.92366 0.33391
 C369 C 0.45866 0.91204 0.31771
 C370 C 0.43114 0.88204 0.31883
 C371 C 0.43285 0.85857 0.36808
 C372 C 0.42512 0.84301 0.38211
 C373 C 0.41571 0.82434 0.39836
 C374 C 0.40746 0.80800 0.41207
 C375 C 0.39740 0.78802 0.42825
 C376 C 0.41341 0.77253 0.43363
 C377 C 0.40309 0.75227 0.44895
 C378 C 0.37652 0.74719 0.45914
 C379 C 0.36075 0.76312 0.45371
 C380 C 0.37113 0.78337 0.43837
 H381 H 0.40176 0.84167 0.33570
 H382 H 0.48365 0.91579 0.36263
 H383 H 0.49816 0.94684 0.33431
 H384 H 0.41636 0.87105 0.30685
 H385 H 0.43373 0.77590 0.42587
 H386 H 0.41578 0.74039 0.45271
 H387 H 0.34020 0.75972 0.46120
 H388 H 0.35851 0.79519 0.43429
 C389 C 0.13520 0.57819 0.33442
 C390 C 0.12445 0.55820 0.34979
 C391 C 0.09604 0.52981 0.34869
 C392 C 0.07833 0.52139 0.33230
 C393 C 0.08855 0.54133 0.31641
 C394 C 0.11767 0.57001 0.31799
 C395 C 0.14266 0.56703 0.36667
 C396 C 0.15830 0.57494 0.38065
 C397 C 0.17702 0.58477 0.39686
 C398 C 0.19335 0.59361 0.41056
 C399 C 0.21324 0.60464 0.42675
 C400 C 0.21737 0.58355 0.43779
 C401 C 0.23730 0.59447 0.45326
 C402 C 0.25339 0.62669 0.45788
 C403 C 0.24890 0.64765 0.44674
 C404 C 0.22897 0.63667 0.43129
 H405 H 0.15743 0.60013 0.33504
 H406 H 0.08732 0.51424 0.36062
 H407 H 0.05589 0.49986 0.33280
 H408 H 0.12832 0.58592 0.30643
 H409 H 0.20536 0.55871 0.43438
 H410 H 0.24025 0.57769 0.46150
 H411 H 0.26092 0.67259 0.44986
 H412 H 0.22598 0.65321 0.42282
 C413 C 0.56882 0.43170 0.33574
 C414 C 0.55518 0.43280 0.35258
 C415 C 0.53307 0.44271 0.35280
 C416 C 0.52477 0.45166 0.33625
 C417 C 0.53857 0.45087 0.31927
 C418 C 0.56060 0.44066 0.31920
 C419 C 0.56427 0.42413 0.36960
 C420 C 0.57242 0.41695 0.38368
 C421 C 0.58255 0.40860 0.39995
 C422 C 0.59168 0.40149 0.41365
 C423 C 0.60311 0.39297 0.42977
 C424 C 0.58246 0.36739 0.44082
 C425 C 0.59385 0.35840 0.45604
 C426 C 0.62611 0.37491 0.46039
 C427 C 0.64659 0.40083 0.44930
 C428 C 0.63514 0.40976 0.43411
 H429 H 0.58590 0.42399 0.33540
 H430 H 0.52243 0.44374 0.36577
 H431 H 0.50802 0.45976 0.33677
 H432 H 0.57129 0.43938 0.30632
 H433 H 0.55762 0.35418 0.43755
 H434 H 0.57744 0.33831 0.46424
 H435 H 0.67154 0.41404 0.45222
 H436 H 0.65134 0.42956 0.42562
 C437 C 0.53029 0.09404 0.35043
 C438 C 0.55760 0.12353 0.35117
 C439 C 0.57642 0.13556 0.33537
 C440 C 0.56811 0.11820 0.31887
 C441 C 0.54060 0.08820 0.31775
 C442 C 0.52180 0.07655 0.33394
 C443 C 0.56641 0.14161 0.36811
 C444 C 0.57416 0.15716 0.38214
 C445 C 0.58360 0.17582 0.39838
 C446 C 0.59190 0.19215 0.41209
 C447 C 0.60203 0.21213 0.42827
 C448 C 0.62836 0.21678 0.43833
 C449 C 0.63882 0.23703 0.45367
 C450 C 0.62306 0.25294 0.45915
 C451 C 0.59643 0.24785 0.44901
 C452 C 0.58603 0.22760 0.43369
 H453 H 0.51562 0.08439 0.36265
 H454 H 0.59749 0.15856 0.33574
 H455 H 0.58289 0.12921 0.30688
 H456 H 0.50111 0.05337 0.33433
 H457 H 0.64096 0.20497 0.43422
 H458 H 0.65941 0.24043 0.46112
 H459 H 0.58376 0.25972 0.45281
 H460 H 0.56567 0.22422 0.42597
 C461 C 0.86112 0.43049 0.33311
 C462 C 0.87544 0.44410 0.35008
 C463 C 0.90757 0.46633 0.35062
 C464 C 0.92536 0.47480 0.33426
 C465 C 0.91120 0.46103 0.31715
 C466 C 0.87884 0.43888 0.31676
 C467 C 0.85714 0.43483 0.36691
 C468 C 0.84144 0.42660 0.38086
 C469 C 0.82265 0.41644 0.39703
 C470 C 0.80628 0.40737 0.41069
 C471 C 0.78635 0.39613 0.42685
 C472 C 0.78222 0.41709 0.43800
 C473 C 0.76229 0.40599 0.45345
 C474 C 0.74617 0.37371 0.45793
 C475 C 0.75065 0.35287 0.44667
 C476 C 0.77060 0.36404 0.43125
 H477 H 0.83625 0.41331 0.33252
 H478 H 0.91892 0.47695 0.36369
 H479 H 0.95028 0.49165 0.33504
 H480 H 0.86717 0.42821 0.30377
 H481 H 0.79427 0.44197 0.43470
 H482 H 0.75935 0.42267 0.46178
 H483 H 0.73861 0.32790 0.44969
 H484 H 0.77358 0.34760 0.42268
 C485 C 0.55772 0.46534 1.14955
 C486 C 0.56751 0.44312 1.15005
 C487 C 0.56813 0.42943 1.16700
 C488 C 0.55882 0.43775 1.18337
 C489 C 0.54874 0.45992 1.18302
 C490 C 0.54842 0.47374 1.16593
 C491 C 0.57659 0.43397 1.13321
 C492 C 0.58409 0.42585 1.11924
 C493 C 0.59279 0.41583 1.10306
 C494 C 0.60016 0.40690 1.08938
 C495 C 0.60891 0.39580 1.07321
 C496 C 0.59252 0.36374 1.06875
 C497 C 0.60139 0.35272 1.05333
 C498 C 0.62686 0.37368 1.04212
 C499 C 0.64307 0.40593 1.04667
 C500 C 0.63414 0.41688 1.06211
 H501 H 0.55707 0.47602 1.13649
 H502 H 0.57574 0.41226 1.16756
 H503 H 0.55975 0.42704 1.19634
 H504 H 0.54045 0.49060 1.16518
 H505 H 0.57298 0.34721 1.07727
 H506 H 0.58841 0.32776 1.05026
 H507 H 0.66281 0.42270 1.03838
 H508 H 0.64703 0.44175 1.06546
 C509 C 0.89157 0.46649 1.15395
 C510 C 0.87948 0.43592 1.14706
 C511 C 0.88488 0.41437 1.15672
 C512 C 0.90215 0.42329 1.17328
 C513 C 0.91415 0.45390 1.18042
 C514 C 0.90880 0.47545 1.17051
 C515 C 0.86095 0.42656 1.13030
 C516 C 0.84513 0.41891 1.11639
 C517 C 0.82623 0.41012 1.10027
 C518 C 0.80974 0.40271 1.08664
 C519 C 0.78959 0.39393 1.07059
 C520 C 0.78469 0.36838 1.05956
 C521 C 0.76428 0.35927 1.04433
 C522 C 0.74847 0.37561 1.03993
 C523 C 0.75385 0.40147 1.05101
 C524 C 0.77426 0.41053 1.06622
 H525 H 0.88757 0.48338 1.14657
 H526 H 0.87552 0.39060 1.15155
 H527 H 0.90557 0.40608 1.18070
 H528 H 0.91812 0.49931 1.17549
 H529 H 0.79640 0.35533 1.06284
 H530 H 0.76065 0.33922 1.03614
 H531 H 0.74206 0.41456 1.04805
 H532 H 0.77785 0.43032 1.07468
 C533 C 0.58190 0.11006 1.15554
 C534 C 0.56402 0.12246 1.14844
 C535 C 0.53699 0.11718 1.15781
 C536 C 0.52791 0.09976 1.17430
 C537 C 0.54576 0.08713 1.18189
 C538 C 0.57292 0.09255 1.17203
 C539 C 0.57361 0.14106 1.13169
 C540 C 0.58163 0.15693 1.11779
 C541 C 0.59107 0.17587 1.10165
 C542 C 0.59924 0.19237 1.08800
 C543 C 0.60923 0.21247 1.07188
 C544 C 0.58755 0.21701 1.06176
 C545 C 0.59745 0.23728 1.04642
 C546 C 0.62924 0.25334 1.04101
 C547 C 0.65078 0.24838 1.05120
 C548 C 0.64082 0.22810 1.06652
 H549 H 0.60307 0.11424 1.14846
 H550 H 0.52279 0.12647 1.15234
 H551 H 0.50616 0.09543 1.18059
 H552 H 0.58831 0.08463 1.17729
 H553 H 0.56304 0.20507 1.06581
 H554 H 0.58025 0.24058 1.03893
 H555 H 0.67542 0.26037 1.04746
 H556 H 0.65781 0.22481 1.07428
 C557 C 0.43159 0.57012 1.16690
 C558 C 0.43226 0.55647 1.14996
 C559 C 0.44205 0.53424 1.14948
 C560 C 0.45129 0.52582 1.16588
 C561 C 0.45092 0.53961 1.18296
 C562 C 0.44084 0.56177 1.18329
 C563 C 0.42325 0.56565 1.13310
 C564 C 0.41580 0.57381 1.11912
 C565 C 0.40716 0.58386 1.10293
 C566 C 0.39984 0.59284 1.08924
 C567 C 0.39113 0.60398 1.07308
 C568 C 0.36596 0.58293 1.06193
 C569 C 0.35705 0.59393 1.04648
 C570 C 0.37324 0.62621 1.04199
 C571 C 0.39866 0.64714 1.05324
 C572 C 0.40751 0.63607 1.06866
 H573 H 0.42397 0.58729 1.16744
 H574 H 0.44275 0.52359 1.13643
 H575 H 0.45928 0.50896 1.16515
 H576 H 0.43986 0.57246 1.19625
 H577 H 0.35308 0.55805 1.06524
 H578 H 0.33735 0.57718 1.03816
 H579 H 0.41162 0.67211 1.05021
 H580 H 0.42700 0.65258 1.07722
 C581 C 0.10911 0.53404 1.15404
 C582 C 0.12118 0.56453 1.14702
 C583 C 0.11587 0.58622 1.15657
 C584 C 0.09870 0.57751 1.17316
 C585 C 0.08670 0.54698 1.18042
 C586 C 0.09198 0.52530 1.17062
 C587 C 0.13959 0.57368 1.13023
 C588 C 0.15531 0.58118 1.11629
 C589 C 0.17411 0.58983 1.10013
 C590 C 0.19052 0.59716 1.08648
 C591 C 0.21058 0.60589 1.07040
 C592 C 0.21543 0.63140 1.05936
 C593 C 0.23579 0.64052 1.04412
 C594 C 0.25164 0.62420 1.03973
 C595 C 0.24631 0.59836 1.05082
 C596 C 0.22593 0.58930 1.06604
 H597 H 0.11305 0.51706 1.14675
 H598 H 0.12522 0.60993 1.15129
 H599 H 0.09533 0.59483 1.18049
 H600 H 0.08266 0.50150 1.17571
 H601 H 0.20370 0.64444 1.06264
 H602 H 0.23939 0.66055 1.03592
 H603 H 0.25812 0.58530 1.04788
 H604 H 0.22239 0.56955 1.07452
 C605 C 0.46574 0.89011 1.15501
 C606 C 0.43524 0.87794 1.14809
 C607 C 0.41377 0.88352 1.15764
 C608 C 0.42269 0.90104 1.17412
 C609 C 0.45323 0.91314 1.18127
 C610 C 0.47470 0.90760 1.17147
 C611 C 0.42584 0.85921 1.13140
 C612 C 0.41796 0.84324 1.11754
 C613 C 0.40866 0.82420 1.10145
 C614 C 0.40057 0.80764 1.08784
 C615 C 0.39064 0.78746 1.07176
 C616 C 0.35905 0.77175 1.06639
 C617 C 0.34914 0.75144 1.05109
 C618 C 0.37073 0.74653 1.04093
 C619 C 0.40252 0.76265 1.04637
 C620 C 0.41236 0.78296 1.06168
 H621 H 0.48257 0.88598 1.14771
 H622 H 0.39006 0.87409 1.15245
 H623 H 0.40554 0.90459 1.18145
 H624 H 0.49850 0.91699 1.17648
 H625 H 0.34203 0.77502 1.07411
 H626 H 0.32450 0.73941 1.04733
 H627 H 0.41975 0.75939 1.03890
 H628 H 0.43687 0.79496 1.06575
 C629 C 0.55783 0.46484 0.64922
 C630 C 0.56749 0.44253 0.64982
 C631 C 0.56794 0.42885 0.66681
 C632 C 0.55859 0.43728 0.68312
 C633 C 0.54865 0.45955 0.68267
 C634 C 0.54849 0.47335 0.66554
 C635 C 0.57665 0.43330 0.63304
 C636 C 0.58422 0.42512 0.61913
 C637 C 0.59302 0.41508 0.60300
 C638 C 0.60048 0.40613 0.58937
 C639 C 0.60936 0.39506 0.57324
 C640 C 0.59308 0.36298 0.56881
 C641 C 0.60204 0.35201 0.55340
 C642 C 0.62748 0.37302 0.54220
 C643 C 0.64359 0.40528 0.54673
 C644 C 0.63456 0.41619 0.56215
 H645 H 0.55731 0.47551 0.63613
 H646 H 0.57546 0.41162 0.66744
 H647 H 0.55940 0.42659 0.69612
 H648 H 0.54062 0.49028 0.66471
 H649 H 0.57356 0.34642 0.57732
 H650 H 0.58915 0.32704 0.55035
 H651 H 0.66329 0.42209 0.53844
 H652 H 0.64736 0.44107 0.56548
 C653 C 0.56724 0.13781 0.66558
 C654 C 0.56659 0.12326 0.64873
 C655 C 0.55698 0.09118 0.64843
 C656 C 0.54793 0.07368 0.66493
 C657 C 0.54833 0.08809 0.68192
 C658 C 0.55818 0.12038 0.68206
 C659 C 0.57569 0.14132 0.63179
 C660 C 0.58338 0.15686 0.61776
 C661 C 0.59252 0.17553 0.60151
 C662 C 0.60051 0.19187 0.58780
 C663 C 0.61035 0.21187 0.57164
 C664 C 0.64191 0.22750 0.56621
 C665 C 0.65178 0.24779 0.55091
 C666 C 0.63017 0.25276 0.54079
 C667 C 0.59841 0.23668 0.54627
 C668 C 0.58861 0.21639 0.56159
 H669 H 0.57474 0.16265 0.66598
 H670 H 0.55634 0.07966 0.63546
 H671 H 0.54011 0.04880 0.66434
 H672 H 0.55916 0.13223 0.69496
 H673 H 0.65895 0.22422 0.57392
 H674 H 0.67639 0.25979 0.54711
 H675 H 0.58117 0.23999 0.53883
 H676 H 0.56412 0.20445 0.56571
 C677 C 0.86295 0.43160 0.66468
 C678 C 0.87776 0.43265 0.64787
 C679 C 0.90981 0.44249 0.64770
 C680 C 0.92704 0.45143 0.66427
 C681 C 0.91240 0.45070 0.68122
 C682 C 0.88012 0.44055 0.68124
 C683 C 0.86001 0.42402 0.63082
 C684 C 0.84471 0.41688 0.61671
 C685 C 0.82628 0.40859 0.60040
 C686 C 0.81009 0.40152 0.58667
 C687 C 0.79020 0.39305 0.57051
 C688 C 0.78536 0.36763 0.55939
 C689 C 0.76503 0.35868 0.54412
 C690 C 0.74922 0.37506 0.53980
 C691 C 0.75456 0.40082 0.55097
 C692 C 0.77490 0.40972 0.56620
 H693 H 0.83813 0.42395 0.66497
 H694 H 0.92152 0.44347 0.63475
 H695 H 0.95193 0.45948 0.66378
 H696 H 0.86810 0.43931 0.69410
 H697 H 0.79703 0.35452 0.56263
 H698 H 0.76141 0.33871 0.53586
 H699 H 0.74278 0.41393 0.54807
 H700 H 0.77843 0.42939 0.57475
 C701 C 0.43175 0.57082 0.66658
 C702 C 0.43214 0.55706 0.64963
 C703 C 0.44180 0.53473 0.64908
 C704 C 0.45119 0.52631 0.66542
 C705 C 0.45109 0.54021 0.68252
 C706 C 0.44115 0.56247 0.68292
 C707 C 0.42296 0.56622 0.63281
 C708 C 0.41537 0.57436 0.61888
 C709 C 0.40657 0.58439 0.60274
 C710 C 0.39911 0.59335 0.58910
 C711 C 0.39026 0.60447 0.57297
 C712 C 0.36498 0.58341 0.56189
 C713 C 0.35598 0.59439 0.54647
 C714 C 0.37218 0.62665 0.54194
 C715 C 0.39770 0.64759 0.55312
 C716 C 0.40664 0.63654 0.56852
 H717 H 0.42424 0.58806 0.66718
 H718 H 0.44228 0.52400 0.63601
 H719 H 0.45906 0.50937 0.66464
 H720 H 0.44038 0.57324 0.69590
 H721 H 0.35211 0.55854 0.56523
 H722 H 0.33621 0.57763 0.53820
 H723 H 0.41067 0.67255 0.55007
 H724 H 0.42621 0.65306 0.57702
 C725 C 0.44148 0.86439 0.66470
 C726 C 0.43466 0.87636 0.64890
 C727 C 0.43686 0.90579 0.64965
 C728 C 0.44590 0.92327 0.66614
 C729 C 0.45306 0.91168 0.68234
 C730 C 0.45057 0.88174 0.68121
 C731 C 0.42530 0.85827 0.63196
 C732 C 0.41742 0.84272 0.61793
 C733 C 0.40808 0.82407 0.60168
 C734 C 0.39993 0.80775 0.58795
 C735 C 0.38995 0.78780 0.57177
 C736 C 0.35836 0.77224 0.56640
 C737 C 0.34836 0.75202 0.55106
 C738 C 0.36987 0.74704 0.54086
 C739 C 0.40167 0.76305 0.54627
 C740 C 0.41159 0.78327 0.56163
 H741 H 0.43953 0.84144 0.66433
 H742 H 0.43183 0.91539 0.63742
 H743 H 0.44841 0.94641 0.66575
 H744 H 0.45434 0.87077 0.69319
 H745 H 0.34139 0.77553 0.57417
 H746 H 0.32372 0.74007 0.54731
 H747 H 0.41883 0.75973 0.53877
 H748 H 0.43610 0.79514 0.56570
 C749 C 0.13458 0.55941 0.66379
 C750 C 0.12229 0.56584 0.64799
 C751 C 0.09284 0.56342 0.64885
 C752 C 0.07563 0.55448 0.66543
 C753 C 0.08752 0.54761 0.68160
 C754 C 0.11750 0.55041 0.68038
 C755 C 0.14000 0.57479 0.63093
 C756 C 0.15527 0.58217 0.61681
 C757 C 0.17367 0.59071 0.60049
 C758 C 0.18984 0.59795 0.58674
 C759 C 0.20970 0.60657 0.57056
 C760 C 0.21462 0.63216 0.55957
 C761 C 0.23490 0.64123 0.54428
 C762 C 0.25059 0.62479 0.53980
 C763 C 0.24516 0.59886 0.55084
 C764 C 0.22488 0.58986 0.56610
 H765 H 0.15754 0.56151 0.66333
 H766 H 0.08298 0.56814 0.63663
 H767 H 0.05246 0.55175 0.66512
 H768 H 0.12869 0.54690 0.69234
 H769 H 0.20305 0.64532 0.56293
 H770 H 0.23858 0.66133 0.53612
 H771 H 0.25685 0.58570 0.54783
 H772 H 0.22129 0.57005 0.57454
 C773 C 0.43173 0.56876 0.83525
 C774 C 0.44534 0.56750 0.85208
 C775 C 0.46732 0.55744 0.85227
 C776 C 0.47553 0.54847 0.83570
 C777 C 0.46176 0.54940 0.81873
 C778 C 0.43987 0.55978 0.81868
 C779 C 0.43631 0.57616 0.86912
 C780 C 0.42821 0.58331 0.88322
 C781 C 0.41813 0.59160 0.89952
 C782 C 0.40903 0.59866 0.91326
 C783 C 0.39763 0.60709 0.92941
 C784 C 0.41828 0.63259 0.94050
 C785 C 0.40692 0.64147 0.95577
 C786 C 0.37466 0.62494 0.96013
 C787 C 0.35416 0.59910 0.94899
 C788 C 0.36560 0.59028 0.93374
 H789 H 0.41475 0.57659 0.83493
 H790 H 0.47793 0.55629 0.86523
 H791 H 0.49218 0.54024 0.83620
 H792 H 0.42920 0.56117 0.80582
 H793 H 0.44312 0.64581 0.93724
 H794 H 0.42334 0.66151 0.96401
 H795 H 0.32922 0.58588 0.95190
 H796 H 0.34939 0.57053 0.92522
 C797 C 0.09549 0.53036 0.84949
 C798 C 0.12507 0.55755 0.85005
 C799 C 0.13688 0.57630 0.83418
 C800 C 0.11920 0.56806 0.81782
 C801 C 0.08908 0.54069 0.81690
 C802 C 0.07768 0.52194 0.83314
 C803 C 0.14340 0.56645 0.86688
 C804 C 0.15913 0.57441 0.88083
 C805 C 0.17795 0.58428 0.89699
 C806 C 0.19436 0.59314 0.91065
 C807 C 0.21434 0.60420 0.92680
 C808 C 0.23012 0.63624 0.93131
 C809 C 0.25011 0.64723 0.94673
 C810 C 0.25461 0.62627 0.95787
 C811 C 0.23847 0.59403 0.95327
 C812 C 0.21849 0.58311 0.93783
 H813 H 0.08601 0.51577 0.86177
 H814 H 0.15993 0.59729 0.83441
 H815 H 0.13002 0.58277 0.80577
 H816 H 0.05445 0.50136 0.83369
 H817 H 0.22712 0.65277 0.92284
 H818 H 0.26217 0.67217 0.94984
 H819 H 0.24142 0.57726 0.96151
 H820 H 0.20642 0.55826 0.93444
 C821 C 0.42369 0.86429 0.83553
 C822 C 0.44250 0.87641 0.85134
 C823 C 0.46972 0.90598 0.85059
 C824 C 0.47812 0.92344 0.83409
 C825 C 0.45934 0.91170 0.81789
 C826 C 0.43191 0.88162 0.81902
 C827 C 0.43380 0.85834 0.86828
 C828 C 0.42614 0.84280 0.88231
 C829 C 0.41682 0.82414 0.89856
 C830 C 0.40861 0.80780 0.91227
 C831 C 0.39858 0.78780 0.92844
 C832 C 0.41461 0.77232 0.93379
 C833 C 0.40429 0.75202 0.94909
 C834 C 0.37770 0.74689 0.95927
 C835 C 0.36192 0.76283 0.95388
 C836 C 0.37231 0.78312 0.93855
 H837 H 0.40270 0.84123 0.83591
 H838 H 0.48437 0.91569 0.86281
 H839 H 0.49873 0.94668 0.83447
 H840 H 0.41716 0.87054 0.80704
 H841 H 0.43494 0.77572 0.92603
 H842 H 0.41698 0.74014 0.95283
 H843 H 0.34136 0.75939 0.96137
 H844 H 0.35968 0.79494 0.93450
 C845 C 0.53307 0.44311 0.85239
 C846 C 0.55503 0.43302 0.85218
 C847 C 0.56857 0.43173 0.83534
 C848 C 0.56039 0.44069 0.81878
 C849 C 0.53851 0.45109 0.81884
 C850 C 0.52481 0.45207 0.83582
 C851 C 0.56409 0.42435 0.86922
 C852 C 0.57221 0.41717 0.88332
 C853 C 0.58229 0.40882 0.89962
 C854 C 0.59136 0.40172 0.91335
 C855 C 0.60273 0.39322 0.92951
 C856 C 0.63475 0.40999 0.93388
 C857 C 0.64614 0.40110 0.94913
 C858 C 0.62560 0.37522 0.96023
 C859 C 0.59336 0.35873 0.95584
 C860 C 0.58203 0.36768 0.94057
 H861 H 0.52251 0.44429 0.86536
 H862 H 0.58554 0.42388 0.83502
 H863 H 0.57100 0.43926 0.80591
 H864 H 0.50818 0.46031 0.83634
 H865 H 0.65098 0.42976 0.92538
 H866 H 0.67108 0.41430 0.95208
 H867 H 0.57691 0.33867 0.96405
 H868 H 0.55721 0.35448 0.93727
 C869 C 0.90734 0.46574 0.85083
 C870 C 0.87524 0.44340 0.85030
 C871 C 0.86099 0.42960 0.83335
 C872 C 0.87875 0.43791 0.81701
 C873 C 0.91109 0.46018 0.81740
 C874 C 0.92517 0.47413 0.83449
 C875 C 0.85687 0.43425 0.86711
 C876 C 0.84112 0.42611 0.88105
 C877 C 0.82228 0.41607 0.89720
 C878 C 0.80585 0.40711 0.91085
 C879 C 0.78587 0.39599 0.92699
 C880 C 0.77009 0.36393 0.93147
 C881 C 0.75010 0.35288 0.94689
 C882 C 0.74560 0.37380 0.95806
 C883 C 0.76174 0.40605 0.95349
 C884 C 0.78172 0.41703 0.93805
 H885 H 0.91863 0.47651 0.86389
 H886 H 0.83614 0.41234 0.83276
 H887 H 0.86714 0.42710 0.80404
 H888 H 0.95007 0.49108 0.83527
 H889 H 0.77309 0.34742 0.92298
 H890 H 0.73804 0.32793 0.94997
 H891 H 0.75879 0.42280 0.96175
 H892 H 0.79378 0.44189 0.93469
 C893 C 0.53437 0.09127 0.85179
 C894 C 0.55677 0.12343 0.85146
 C895 C 0.57066 0.13800 0.83459
 C896 C 0.56233 0.12052 0.81813
 C897 C 0.53996 0.08815 0.81831
 C898 C 0.52598 0.07373 0.83532
 C899 C 0.56570 0.14156 0.86838
 C900 C 0.57352 0.15715 0.88239
 C901 C 0.58301 0.17586 0.89862
 C902 C 0.59132 0.19224 0.91232
 C903 C 0.60144 0.21227 0.92847
 C904 C 0.62773 0.21694 0.93857
 C905 C 0.63817 0.23723 0.95389
 C906 C 0.62241 0.25317 0.95931
 C907 C 0.59580 0.24806 0.94914
 C908 C 0.58543 0.22776 0.93384
 H909 H 0.52352 0.07974 0.86478
 H910 H 0.58794 0.16290 0.83416
 H911 H 0.57318 0.13239 0.80522
 H912 H 0.50897 0.04879 0.83594
 H913 H 0.64034 0.20511 0.93450
 H914 H 0.65874 0.24065 0.96137
 H915 H 0.58313 0.25995 0.95289
 H916 H 0.56509 0.22437 0.92609
   
