data_POSCAR
  _audit_creation_date              2014-09-24
  _audit_creation_method            'ToBaCCo'
  _symmetry_space_group_name_H-M    'P1'
  _symmetry_Int_Tables_number       1
  _symmetry_cell_setting            triclinic
  loop_
  _symmetry_equiv_pos_as_xyz
 x,y,z
_cell_length_a 36.5860
_cell_length_b 36.7876
_cell_length_c 35.1280
_cell_angle_alpha 90.464200
_cell_angle_beta 90.048600
_cell_angle_gamma 89.148100
loop_
  _atom_site_label
  _atom_site_type_symbol
  _atom_site_fract_x
  _atom_site_fract_y
  _atom_site_fract_z
C1 C -0.07446 0.31508 -0.02910
 C2 C -0.09337 0.31299 0.00562
 C3 C -0.07502 0.31045 0.04069
 C4 C -0.03657 0.31590 0.04149
 C5 C -0.01694 0.31961 0.00688
 C6 C -0.03589 0.31980 -0.02838
 C7 C -0.01618 0.32822 -0.06150
 C8 C 0.02158 0.33172 -0.06089
 C9 C 0.04154 0.32798 -0.02690
 C10 C 0.02173 0.32413 0.00763
 C11 C -0.01769 0.32110 0.07599
 C12 C 0.01994 0.32517 0.07679
 C13 C 0.04036 0.32545 0.04301
 C14 C 0.07875 0.32875 0.04381
 C15 C 0.09788 0.33202 0.00961
 C16 C 0.08033 0.33106 -0.02603
 H17 H -0.02986 0.33339 -0.08824
 H18 H 0.03465 0.33903 -0.08727
 H19 H -0.03193 0.32322 0.10289
 H20 H 0.03272 0.32915 0.10426
 H21 H -0.12264 0.30864 0.00493
 H22 H 0.12746 0.33204 0.01099
 C23 C 0.43515 0.80985 0.52512
 C24 C 0.41601 0.80764 0.49073
 C25 C 0.43394 0.80926 0.45557
 C26 C 0.47228 0.81452 0.45468
 C27 C 0.49202 0.81711 0.48939
 C28 C 0.47329 0.81568 0.52466
 C29 C 0.49308 0.82080 0.55855
 C30 C 0.53085 0.82406 0.55809
 C31 C 0.55038 0.82263 0.52369
 C32 C 0.53067 0.82069 0.48891
 C33 C 0.49136 0.81807 0.42020
 C34 C 0.52924 0.82138 0.41971
 C35 C 0.54956 0.82165 0.45370
 C36 C 0.58819 0.82350 0.45352
 C37 C 0.60718 0.82471 0.48815
 C38 C 0.58903 0.82371 0.52316
 H39 H 0.47955 0.82256 0.58588
 H40 H 0.54453 0.82813 0.58507
 H41 H 0.47720 0.81859 0.39318
 H42 H 0.54240 0.82407 0.39233
 H43 H 0.38690 0.80249 0.49136
 H44 H 0.63682 0.82404 0.48780
 C45 C 1.08645 0.67413 0.02478
 C46 C 1.10487 0.67935 -0.00961
 C47 C 1.08612 0.68413 -0.04411
 C48 C 1.04762 0.67898 -0.04482
 C49 C 1.02848 0.67296 -0.01035
 C50 C 1.04792 0.67086 0.02460
 C51 C 1.02839 0.66482 0.05833
 C52 C 0.99044 0.66300 0.05817
 C53 C 0.97050 0.66640 0.02414
 C54 C 0.98968 0.66965 -0.01075
 C55 C 1.02793 0.67806 -0.07915
 C56 C 0.99014 0.67586 -0.07955
 C57 C 0.97013 0.67096 -0.04584
 C58 C 0.93116 0.66993 -0.04562
 C59 C 0.91306 0.66886 -0.01047
 C60 C 0.93188 0.66658 0.02408
 H61 H 1.04225 0.66133 0.08530
 H62 H 0.97689 0.65856 0.08506
 H63 H 1.04144 0.67906 -0.10645
 H64 H 0.97721 0.67910 -0.10688
 H65 H 1.13414 0.68363 -0.00867
 H66 H 0.88340 0.66952 -0.00987
 C67 C 0.56964 0.19160 0.47072
 C68 C 0.58792 0.19752 0.50521
 C69 C 0.56959 0.19635 0.54013
 C70 C 0.53210 0.18741 0.54100
 C71 C 0.51318 0.18113 0.50639
 C72 C 0.53207 0.18263 0.47117
 C73 C 0.51302 0.17450 0.43745
 C74 C 0.47569 0.16781 0.43797
 C75 C 0.45597 0.16856 0.47228
 C76 C 0.47511 0.17390 0.50697
 C77 C 0.51318 0.18396 0.57560
 C78 C 0.47592 0.17698 0.57616
 C79 C 0.45609 0.17304 0.54216
 C80 C 0.41782 0.16787 0.54238
 C81 C 0.39944 0.16288 0.50784
 C82 C 0.41766 0.16380 0.47287
 H83 H 0.52680 0.17304 0.41024
 H84 H 0.46249 0.16166 0.41115
 H85 H 0.52702 0.18641 0.60270
 H86 H 0.46288 0.17445 0.60362
 H87 H 0.61645 0.20517 0.50475
 H88 H 0.36987 0.16123 0.50805
 C89 C 0.68974 -0.08154 -0.03889
 C90 C 0.68974 -0.09958 -0.00377
 C91 C 0.69093 -0.08052 0.03114
 C92 C 0.68620 -0.04197 0.03079
 C93 C 0.68498 -0.02327 -0.00441
 C94 C 0.68581 -0.04305 -0.03919
 C95 C 0.67924 -0.02397 -0.07318
 C96 C 0.67800 0.01374 -0.07369
 C97 C 0.68210 0.03416 -0.04008
 C98 C 0.68214 0.01542 -0.00489
 C99 C 0.67937 -0.02184 0.06437
 C100 C 0.67603 0.01587 0.06391
 C101 C 0.67876 0.03519 0.02972
 C102 C 0.67636 0.07363 0.02904
 C103 C 0.67774 0.09166 -0.00590
 C104 C 0.68266 0.07280 -0.04050
 H105 H 0.67429 -0.03799 -0.09981
 H106 H 0.67252 0.02672 -0.10067
 H107 H 0.67532 -0.03511 0.09136
 H108 H 0.67045 0.02961 0.09066
 H109 H 0.69360 -0.12888 -0.00380
 H110 H 0.67824 0.12114 -0.00558
 C111 C 0.19074 0.43921 0.46713
 C112 C 0.19421 0.42114 0.50188
 C113 C 0.19256 0.43982 0.53666
 C114 C 0.18594 0.47782 0.53712
 C115 C 0.18206 0.49663 0.50223
 C116 C 0.18377 0.47724 0.46711
 C117 C 0.17750 0.49628 0.43314
 C118 C 0.17205 0.53382 0.43340
 C119 C 0.17266 0.55388 0.46764
 C120 C 0.17668 0.53500 0.50249
 C121 C 0.18228 0.49737 0.57151
 C122 C 0.17771 0.53494 0.57175
 C123 C 0.17590 0.55444 0.53759
 C124 C 0.17263 0.59280 0.53761
 C125 C 0.16858 0.61091 0.50298
 C126 C 0.16878 0.59224 0.46810
 H127 H 0.17630 0.48228 0.40599
 H128 H 0.16698 0.54690 0.40640
 H129 H 0.18269 0.48384 0.59872
 H130 H 0.17505 0.54850 0.59907
 H131 H 0.20017 0.39215 0.50184
 H132 H 0.16771 0.64040 0.50304
 C133 C 0.32995 0.92671 -0.02875
 C134 C 0.33070 0.91044 0.00731
 C135 C 0.32268 0.93002 0.04070
 C136 C 0.31494 0.96777 0.03868
 C137 C 0.31590 0.98539 0.00300
 C138 C 0.32415 0.96502 -0.03066
 C139 C 0.32816 0.98389 -0.06503
 C140 C 0.32018 1.02078 -0.06731
 C141 C 0.30849 1.04062 -0.03517
 C142 C 0.30799 1.02340 0.00079
 C143 C 0.30627 0.98838 0.07137
 C144 C 0.29734 1.02519 0.06908
 C145 C 0.29872 1.04384 0.03426
 C146 C 0.28913 1.08158 0.03117
 C147 C 0.28936 1.09725 -0.00522
 C148 C 0.29818 1.07751 -0.03800
 H149 H 0.33827 0.97057 -0.09054
 H150 H 0.32364 1.03370 -0.09460
 H151 H 0.30597 0.97627 0.09930
 H152 H 0.28861 1.03821 0.09517
 H153 H 0.33350 0.88118 0.00947
 H154 H 0.28320 1.12597 -0.00848
 C155 C 0.81167 0.56338 0.52903
 C156 C 0.80948 0.58119 0.49403
 C157 C 0.81312 0.56215 0.45948
 C158 C 0.82048 0.52413 0.46001
 C159 C 0.82305 0.50582 0.49537
 C160 C 0.81965 0.52566 0.52993
 C161 C 0.82482 0.50736 0.56455
 C162 C 0.83011 0.46988 0.56538
 C163 C 0.83027 0.44913 0.53163
 C164 C 0.82827 0.46744 0.49622
 C165 C 0.82597 0.50397 0.42627
 C166 C 0.83062 0.46635 0.42705
 C167 C 0.83051 0.44740 0.46166
 C168 C 0.83299 0.40900 0.46265
 C169 C 0.83455 0.39135 0.49782
 C170 C 0.83278 0.41064 0.53232
 H171 H 0.82500 0.52189 0.59145
 H172 H 0.83429 0.45744 0.59285
 H173 H 0.82682 0.51705 0.39883
 H174 H 0.83462 0.45229 0.40018
 H175 H 0.80258 0.60997 0.49363
 H176 H 0.83444 0.36189 0.49831
 O177 O 0.22340 0.28037 0.21819
 O178 O 0.29843 0.25179 0.28096
 O179 O 0.27545 0.23213 0.21340
 O180 O 0.24435 0.29820 0.28665
 O181 O 0.20833 0.25650 0.31047
 O182 O 0.24146 0.18980 0.23944
 O183 O 0.26320 0.21033 0.30648
 O184 O 0.18853 0.23745 0.24152
 Cu185 Cu 0.26401 0.26980 0.24739
 Cu186 Cu 0.22180 0.21943 0.27713
 C187 C 0.19348 0.26341 0.21849
 C188 C 0.29361 0.22646 0.30464
 C189 C 0.26357 0.19985 0.21398
 C190 C 0.22083 0.28854 0.31102
 O191 O 0.70539 0.73035 0.26084
 O192 O 0.78250 0.70271 0.19896
 O193 O 0.76126 0.68691 0.26817
 O194 O 0.72544 0.74500 0.19133
 O195 O 0.75754 0.79100 0.21324
 O196 O 0.79384 0.73258 0.29007
 O197 O 0.81453 0.74874 0.22095
 O198 O 0.73777 0.77622 0.28266
 Cu199 Cu 0.74051 0.71161 0.22758
 Cu200 Cu 0.77919 0.76668 0.25394
 C201 C 0.70867 0.75786 0.28263
 C202 C 0.81145 0.72139 0.19898
 C203 C 0.78324 0.69991 0.29254
 C204 C 0.73545 0.77783 0.18902
 O205 O 0.73969 0.20643 0.29879
 O206 O 0.79702 0.24197 0.22139
 O207 O 0.78329 0.26097 0.29159
 O208 O 0.75524 0.18618 0.22888
 O209 O 0.70868 0.21941 0.20821
 O210 O 0.73667 0.29449 0.27153
 O211 O 0.75034 0.27536 0.20126
 O212 O 0.69323 0.23991 0.27831
 Cu213 Cu 0.77340 0.22047 0.26221
 Cu214 Cu 0.71747 0.26054 0.23781
 C215 C 0.70679 0.21767 0.30209
 C216 C 0.78334 0.26459 0.19799
 C217 C 0.76467 0.29034 0.29258
 C218 C 0.72771 0.19023 0.20725
 O219 O 0.24784 0.70635 0.27072
 O220 O 0.27292 0.78082 0.20735
 O221 O 0.29303 0.75966 0.27500
 O222 O 0.22628 0.72780 0.20361
 O223 O 0.18366 0.76280 0.23002
 O224 O 0.25045 0.79552 0.30021
 O225 O 0.22941 0.81572 0.23236
 O226 O 0.20527 0.74151 0.29702
 Cu227 Cu 0.26428 0.74016 0.23645
 Cu228 Cu 0.21295 0.78241 0.26758
 C229 C 0.22261 0.71137 0.29505
 C230 C 0.25525 0.81076 0.20867
 C231 C 0.28297 0.78293 0.29993
 C232 C 0.19360 0.74001 0.20461
 O233 O 0.78164 0.27664 0.71600
 O234 O 0.74674 0.21048 0.78569
 O235 O 0.73606 0.22328 0.71344
 O236 O 0.79528 0.26139 0.78752
 O237 O 0.75134 0.29976 0.80501
 O238 O 0.69228 0.26252 0.72915
 O239 O 0.70282 0.24952 0.80150
 O240 O 0.73809 0.31540 0.73353
 Cu241 Cu 0.76936 0.23911 0.74905
 Cu242 Cu 0.71679 0.28571 0.76891
 C243 C 0.76526 0.30719 0.71258
 C244 C 0.71893 0.21905 0.80577
 C245 C 0.70432 0.23666 0.70818
 C246 C 0.78331 0.28641 0.80944
 O247 O 0.25995 0.72533 0.79695
 O248 O 0.31601 0.76260 0.72037
 O249 O 0.30158 0.78146 0.79136
 O250 O 0.27337 0.70754 0.72652
 O251 O 0.22629 0.74112 0.70776
 O252 O 0.25519 0.81529 0.77133
 O253 O 0.26925 0.79621 0.70082
 O254 O 0.21319 0.75938 0.77823
 Cu255 Cu 0.29257 0.74103 0.76074
 Cu256 Cu 0.23634 0.78148 0.73765
 C257 C 0.22702 0.73605 0.80073
 C258 C 0.30208 0.78504 0.69703
 C259 C 0.28281 0.81079 0.79278
 C260 C 0.24503 0.71183 0.70599
 O261 O 0.18927 0.25146 0.77232
 O262 O 0.26409 0.22293 0.70793
 O263 O 0.24468 0.20676 0.77675
 O264 O 0.20845 0.26762 0.70279
 O265 O 0.24274 0.31186 0.72512
 O266 O 0.27927 0.25095 0.79870
 O267 O 0.29803 0.26762 0.72989
 O268 O 0.22374 0.29544 0.79488
 Cu269 Cu 0.22310 0.23281 0.73766
 Cu270 Cu 0.26422 0.28604 0.76441
 C271 C 0.19407 0.27795 0.79512
 C272 C 0.29373 0.24050 0.70782
 C273 C 0.26813 0.21848 0.80034
 C274 C 0.21987 0.29998 0.70102
 O275 O 0.72917 0.77460 0.70415
 O276 O 0.79777 0.74526 0.77490
 O277 O 0.78535 0.73042 0.70275
 O278 O 0.74339 0.78993 0.77533
 O279 O 0.70792 0.74537 0.79390
 O280 O 0.74881 0.68615 0.71968
 O281 O 0.76209 0.70020 0.79200
 O282 O 0.69307 0.73052 0.72253
 Cu283 Cu 0.76757 0.76441 0.73730
 Cu284 Cu 0.72440 0.71095 0.75857
 C285 C 0.69942 0.75741 0.70121
 C286 C 0.79090 0.71855 0.79628
 C287 C 0.77371 0.69836 0.69828
 C288 C 0.71946 0.77761 0.79775
 C289 C 0.28935 0.12536 0.12587
 C290 C 0.26369 0.15358 0.12054
 N291 N 0.24592 0.15647 0.08692
 C292 C 0.25294 0.13280 0.05796
 C293 C 0.27937 0.10461 0.06240
 N294 N 0.29679 0.10181 0.09671
 N295 N 0.30643 0.12212 0.16010
 C296 C 0.29893 0.14588 0.18914
 C297 C 0.27362 0.17439 0.18345
 N298 N 0.25654 0.17744 0.14926
 H299 H 0.23726 0.13564 0.03200
 H300 H 0.31258 0.14267 0.21628
 C301 C 0.80975 0.63525 0.60416
 C302 C 0.78076 0.62381 0.62712
 N303 N 0.76264 0.59311 0.61782
 C304 C 0.77227 0.57317 0.58661
 C305 C 0.80156 0.58423 0.56375
 N306 N 0.81942 0.61534 0.57291
 N307 N 0.82737 0.66637 0.61318
 C308 C 0.81711 0.68676 0.64396
 C309 C 0.78783 0.67556 0.66680
 N310 N 0.77049 0.64416 0.65776
 H311 H 0.75710 0.54900 0.57950
 H312 H 0.83136 0.71170 0.65017
 C313 C 0.69923 0.84299 0.09714
 C314 C 0.72194 0.85727 0.12551
 N315 N 0.73362 0.89194 0.12263
 C316 C 0.72336 0.91320 0.09285
 C317 C 0.69998 0.89934 0.06429
 N318 N 0.68919 0.86407 0.06722
 N319 N 0.68805 0.80807 0.09961
 C320 C 0.69873 0.78669 0.12915
 C321 C 0.72190 0.80075 0.15752
 N322 N 0.73287 0.83589 0.15490
 H323 H 0.73505 0.93993 0.09066
 H324 H 0.68953 0.75889 0.13019
 C325 C 0.18915 0.36678 0.60887
 C326 C 0.21751 0.37671 0.63361
 N327 N 0.23682 0.40714 0.62666
 C328 C 0.22899 0.42823 0.59606
 C329 C 0.20024 0.41871 0.57149
 N330 N 0.18125 0.38788 0.57835
 N331 N 0.17056 0.33576 0.61527
 C332 C 0.17923 0.31403 0.64520
 C333 C 0.20778 0.32380 0.66992
 N334 N 0.22610 0.35509 0.66348
 H335 H 0.24529 0.45195 0.59065
 H336 H 0.16421 0.28926 0.64941
 C337 C 0.84777 0.30074 0.10611
 C338 C 0.86236 0.27696 0.13334
 N339 N 0.89724 0.26454 0.12955
 C340 C 0.91847 0.27523 0.10006
 C341 C 0.90442 0.29994 0.07291
 N342 N 0.86886 0.31129 0.07651
 N343 N 0.81266 0.31274 0.10957
 C344 C 0.79143 0.30197 0.13907
 C345 C 0.80590 0.27791 0.16638
 N346 N 0.84117 0.26601 0.16270
 H347 H 0.94552 0.26325 0.09711
 H348 H 0.76349 0.31189 0.14096
 C349 C 0.36376 0.81396 0.60054
 C350 C 0.37581 0.78636 0.62511
 N351 N 0.40673 0.76715 0.61679
 C352 C 0.42637 0.77441 0.58504
 C353 C 0.41487 0.80249 0.56065
 N354 N 0.38345 0.82135 0.56882
 N355 N 0.33223 0.83245 0.60849
 C356 C 0.31208 0.82442 0.63981
 C357 C 0.32406 0.79666 0.66438
 N358 N 0.35580 0.77844 0.65632
 H359 H 0.45060 0.75825 0.57868
 H360 H 0.28686 0.83930 0.64523
 C361 C 0.11987 0.71049 0.11725
 C362 C 0.15384 0.69260 0.12080
 N363 N 0.16386 0.66697 0.09466
 C364 C 0.14173 0.65890 0.06470
 C365 C 0.10815 0.67760 0.06035
 N366 N 0.09808 0.70292 0.08701
 N367 N 0.10991 0.73629 0.14319
 C368 C 0.13259 0.74542 0.17229
 C369 C 0.16718 0.72840 0.17534
 N370 N 0.17680 0.70211 0.14952
 H371 H 0.15068 0.63887 0.04385
 H372 H 0.12402 0.76643 0.19224
 C373 C 0.64150 0.19982 0.61483
 C374 C 0.62954 0.22950 0.63720
 N375 N 0.59825 0.24753 0.62774
 C376 C 0.57829 0.23717 0.59696
 C377 C 0.58999 0.20725 0.57469
 N378 N 0.62162 0.18950 0.58404
 N379 N 0.67306 0.18214 0.62396
 C380 C 0.69339 0.19289 0.65433
 C381 C 0.68171 0.22283 0.67665
 N382 N 0.64987 0.24033 0.66748
 H383 H 0.55367 0.25226 0.58968
 H384 H 0.71861 0.17842 0.66069
 C385 C 0.68482 0.14944 0.89372
 C386 C 0.71066 0.13745 0.86680
 N387 N 0.72599 0.10384 0.87022
 C388 C 0.71662 0.08158 0.89927
 C389 C 0.69067 0.09344 0.92669
 N390 N 0.67592 0.12754 0.92307
 N391 N 0.66958 0.18310 0.89059
 C392 C 0.67926 0.20554 0.86189
 C393 C 0.70587 0.19405 0.83528
 N394 N 0.72088 0.16006 0.83841
 H395 H 0.73092 0.05579 0.90198
 H396 H 0.66688 0.23239 0.86044
 C397 C 0.20229 0.63208 0.37820
 C398 C 0.17883 0.66234 0.37418
 N399 N 0.15077 0.66745 0.39897
 C400 C 0.14554 0.64403 0.42814
 C401 C 0.16979 0.61440 0.43311
 N402 N 0.19752 0.60912 0.40773
 N403 N 0.23051 0.62710 0.35360
 C404 C 0.23678 0.65139 0.32549
 C405 C 0.21416 0.68250 0.32224
 N406 N 0.18546 0.68697 0.34658
 H407 H 0.12338 0.64908 0.44797
 H408 H 0.25987 0.64701 0.30669
 C409 C 0.30365 0.88909 0.87846
 C410 C 0.32220 0.85549 0.87822
 N411 N 0.34488 0.84695 0.90747
 C412 C 0.34928 0.87014 0.93743
 C413 C 0.33001 0.90377 0.93850
 N414 N 0.30788 0.91217 0.90842
 N415 N 0.28034 0.89740 0.84965
 C416 C 0.27423 0.87331 0.82086
 C417 C 0.29209 0.83915 0.82094
 N418 N 0.31601 0.83129 0.84959
 H419 H 0.36792 0.86239 0.95997
 H420 H 0.25500 0.88047 0.79862
 C421 C 0.79195 0.36914 0.37544
 C422 C 0.81427 0.33830 0.36944
 N423 N 0.84366 0.33239 0.39229
 C424 C 0.85142 0.35566 0.42136
 C425 C 0.82857 0.38610 0.42811
 N426 N 0.79939 0.39209 0.40475
 N427 N 0.76228 0.37478 0.35290
 C428 C 0.75355 0.35063 0.32494
 C429 C 0.77522 0.31910 0.31960
 N430 N 0.80531 0.31396 0.34191
 H431 H 0.87466 0.35005 0.43958
 H432 H 0.72940 0.35553 0.30782
 C433 C 0.11634 0.30145 0.88121
 C434 C 0.14995 0.31922 0.88030
 N435 N 0.15887 0.34233 0.90894
 C436 C 0.13609 0.34792 0.93901
 C437 C 0.10250 0.32947 0.94084
 N438 N 0.09355 0.30691 0.91131
 N439 N 0.10783 0.27768 0.85289
 C440 C 0.13169 0.27047 0.82399
 C441 C 0.16580 0.28768 0.82346
 N442 N 0.17382 0.31195 0.85161
 H443 H 0.14415 0.36683 0.96111
 H444 H 0.12441 0.25096 0.80215
 C445 C 0.62842 0.78384 0.36520
 C446 C 0.65821 0.80670 0.35925
 N447 N 0.66287 0.83610 0.38221
 C448 C 0.63947 0.84332 0.41142
 C449 C 0.61025 0.81984 0.41831
 N450 N 0.60537 0.79070 0.39475
 N451 N 0.62410 0.75416 0.34251
 C452 C 0.64861 0.74591 0.31453
 C453 C 0.67921 0.76805 0.30937
 N454 N 0.68297 0.79817 0.33176
 H455 H 0.64419 0.86652 0.42982
 H456 H 0.64481 0.72172 0.29733
 C457 C 0.85727 0.70082 0.89232
 C458 C 0.86451 0.68164 0.85839
 N459 N 0.89307 0.65765 0.85711
 C460 C 0.91525 0.65267 0.88788
 C461 C 0.90903 0.67310 0.92152
 N462 N 0.87933 0.69587 0.92285
 N463 N 0.82871 0.72467 0.89409
 C464 C 0.80708 0.73043 0.86328
 C465 C 0.81432 0.71157 0.82920
 N466 N 0.84283 0.68735 0.82742
 H467 H 0.93699 0.63243 0.88632
 H468 H 0.78446 0.74969 0.86526
 C469 C 0.37553 0.20081 0.38511
 C470 C 0.34496 0.17856 0.38068
 N471 N 0.34056 0.14987 0.40420
 C472 C 0.36493 0.14292 0.43257
 C473 C 0.39481 0.16604 0.43809
 N474 N 0.39940 0.19433 0.41388
 N475 N 0.37984 0.22967 0.36184
 C476 C 0.35460 0.23771 0.33467
 C477 C 0.32320 0.21632 0.33106
 N478 N 0.31938 0.18697 0.35404
 H479 H 0.36038 0.12034 0.45147
 H480 H 0.35851 0.26123 0.31690
 C481 C 0.69000 0.84264 0.89281
 C482 C 0.71324 0.85563 0.86445
 N483 N 0.72850 0.88873 0.86856
 C484 C 0.72114 0.90987 0.89952
 C485 C 0.69702 0.89759 0.92789
 N486 N 0.68280 0.86363 0.92400
 N487 N 0.67531 0.80912 0.88882
 C488 C 0.68310 0.78790 0.85783
 C489 C 0.70688 0.80072 0.82965
 N490 N 0.72127 0.83441 0.83381
 H491 H 0.73512 0.93545 0.90251
 H492 H 0.67149 0.76107 0.85568
 C493 C 0.18833 0.36176 0.39862
 C494 C 0.21528 0.37131 0.37227
 N495 N 0.23245 0.40359 0.37624
 C496 C 0.22405 0.42669 0.40552
 C497 C 0.19710 0.41721 0.43207
 N498 N 0.18008 0.38471 0.42793
 N499 N 0.17177 0.32913 0.39527
 C500 C 0.18113 0.30539 0.36693
 C501 C 0.20852 0.31456 0.34072
 N502 N 0.22478 0.34755 0.34402
 H503 H 0.23904 0.45167 0.40873
 H504 H 0.16762 0.27946 0.36521
 C505 C 0.30192 0.15073 0.89045
 C506 C 0.27716 0.13835 0.86288
 N507 N 0.26183 0.10522 0.86676
 C508 C 0.26974 0.08407 0.89732
 C509 C 0.29401 0.09668 0.92537
 N510 N 0.30950 0.12982 0.92113
 N511 N 0.31654 0.18423 0.88712
 C512 C 0.30712 0.20622 0.85769
 C513 C 0.28157 0.19431 0.83055
 N514 N 0.26747 0.16042 0.83371
 H515 H 0.25615 0.05834 0.90050
 H516 H 0.31885 0.23299 0.85604
 C517 C 0.81457 0.63529 0.38670
 C518 C 0.78786 0.62352 0.36090
 N519 N 0.77043 0.59184 0.36724
 C520 C 0.77855 0.57127 0.39819
 C521 C 0.80568 0.58261 0.42392
 N522 N 0.82275 0.61473 0.41765
 N523 N 0.83128 0.66749 0.38083
 C524 C 0.82234 0.68858 0.35043
 C525 C 0.79541 0.67698 0.32460
 N526 N 0.77895 0.64453 0.33056
 H527 H 0.76355 0.54660 0.40306
 H528 H 0.83590 0.71425 0.34669
 C529 C 0.16273 0.69610 0.89059
 C530 C 0.14868 0.72234 0.86560
 N531 N 0.11436 0.73576 0.87094
 C532 C 0.09311 0.72369 0.89978
 C533 C 0.10653 0.69639 0.92441
 N534 N 0.14159 0.68408 0.91944
 N535 N 0.19735 0.68316 0.88574
 C536 C 0.21861 0.69531 0.85693
 C537 C 0.20463 0.72168 0.83179
 N538 N 0.16987 0.73455 0.83687
 H539 H 0.06660 0.73644 0.90423
 H540 H 0.24615 0.68454 0.85381
 C541 C 0.64333 0.18868 0.39757
 C542 C 0.63032 0.21422 0.37117
 N543 N 0.59774 0.23135 0.37729
 C544 C 0.57745 0.22405 0.40864
 C545 C 0.59011 0.19820 0.43503
 N546 N 0.62309 0.18139 0.42896
 N547 N 0.67634 0.17218 0.39175
 C548 C 0.69706 0.18024 0.36086
 C549 C 0.68426 0.20609 0.33450
 N550 N 0.65101 0.22232 0.34041
 H551 H 0.55191 0.23866 0.41325
 H552 H 0.72342 0.16694 0.35719
 C553 C 0.84920 0.31570 0.90335
 C554 C 0.86309 0.29368 0.87386
 N555 N 0.89748 0.27971 0.87649
 C556 C 0.91885 0.28696 0.90720
 C557 C 0.90531 0.30933 0.93705
 N558 N 0.87031 0.32254 0.93434
 N559 N 0.81457 0.32930 0.90086
 C560 C 0.79305 0.32153 0.87030
 C561 C 0.80663 0.29870 0.84109
 N562 N 0.84150 0.28546 0.84369
 H563 H 0.94544 0.27380 0.90902
 H564 H 0.76538 0.33230 0.86934
 C565 C 0.35633 0.81351 0.38728
 C566 C 0.36552 0.78553 0.36147
 N567 N 0.39740 0.76670 0.36595
 C568 C 0.42052 0.77452 0.39515
 C569 C 0.41154 0.80268 0.42101
 N570 N 0.37935 0.82127 0.41647
 N571 N 0.32400 0.83167 0.38347
 C572 C 0.30022 0.82296 0.35516
 C573 C 0.30909 0.79466 0.32943
 N574 N 0.34177 0.77676 0.33321
 H575 H 0.44521 0.75833 0.39875
 H576 H 0.27451 0.83773 0.35307
 C577 C 0.27929 0.88892 0.12545
 C578 C 0.30485 0.86162 0.13486
 N579 N 0.33685 0.85904 0.11548
 C580 C 0.34419 0.88213 0.08655
 C581 C 0.31809 0.90869 0.07603
 N582 N 0.28622 0.91139 0.09596
 N583 N 0.24733 0.89155 0.14495
 C584 C 0.23950 0.86772 0.17309
 C585 C 0.26442 0.83943 0.18153
 N586 N 0.29668 0.83731 0.16228
 H587 H 0.36968 0.87912 0.07112
 H588 H 0.21355 0.87008 0.18774
 C589 C 0.79313 0.37768 0.62301
 C590 C 0.81400 0.34607 0.62977
 N591 N 0.84194 0.33715 0.60586
 C592 C 0.84964 0.35816 0.57524
 C593 C 0.82822 0.38945 0.56787
 N594 N 0.80042 0.39828 0.59216
 N595 N 0.76513 0.38668 0.64669
 C596 C 0.75662 0.36522 0.67659
 C597 C 0.77668 0.33285 0.68291
 N598 N 0.80517 0.32422 0.65933
 H599 H 0.87186 0.35023 0.55646
 H600 H 0.73376 0.37292 0.69460
 C601 C 0.70800 0.11237 0.12108
 C602 C 0.68519 0.14317 0.12506
 N603 N 0.65841 0.14943 0.09906
 C604 C 0.65379 0.12657 0.06886
 C605 C 0.67726 0.09622 0.06419
 N606 N 0.70378 0.08990 0.09065
 N607 N 0.73506 0.10628 0.14676
 C608 C 0.74085 0.12999 0.17592
 C609 C 0.71892 0.16161 0.17929
 N610 N 0.69130 0.16719 0.15385
 H611 H 0.63257 0.13244 0.04822
 H612 H 0.76311 0.12473 0.19553
 C613 C 0.21642 0.63304 0.62335
 C614 C 0.19356 0.66325 0.63066
 N615 N 0.16300 0.66845 0.60935
 C616 C 0.15457 0.64512 0.58053
 C617 C 0.17794 0.61537 0.57234
 N618 N 0.20831 0.61005 0.59422
 N619 N 0.24718 0.62807 0.64442
 C620 C 0.25644 0.65226 0.67217
 C621 C 0.23419 0.68318 0.67883
 N622 N 0.20306 0.68768 0.65797
 H623 H 0.13037 0.65022 0.56354
 H624 H 0.28141 0.64784 0.68814
 C625 C 0.89193 0.69975 0.11534
 C626 C 0.86167 0.67703 0.11916
 N627 N 0.85664 0.64961 0.09372
 C628 C 0.88008 0.64433 0.06411
 C629 C 0.90973 0.66779 0.05940
 N630 N 0.91501 0.69486 0.08544
 N631 N 0.89664 0.72751 0.14045
 C632 C 0.87208 0.73407 0.16880
 C633 C 0.84098 0.71220 0.17190
 N634 N 0.83683 0.68390 0.14709
 H635 H 0.87505 0.62273 0.04375
 H636 H 0.87623 0.75684 0.18794
 C637 C 0.37486 0.21188 0.62701
 C638 C 0.34555 0.18871 0.63409
 N639 N 0.34217 0.15770 0.61327
 C640 C 0.36638 0.14917 0.58512
 C641 C 0.39508 0.17295 0.57702
 N642 N 0.39862 0.20373 0.59845
 N643 N 0.37814 0.24299 0.64767
 C644 C 0.35312 0.25228 0.67478
 C645 C 0.32301 0.22974 0.68110
 N646 N 0.32019 0.19827 0.66067
 H647 H 0.36267 0.12463 0.56843
 H648 H 0.35621 0.27749 0.69046
 C649 C 0.11668 0.28882 0.13264
 C650 C 0.14640 0.31150 0.13992
 N651 N 0.15206 0.34068 0.11742
 C652 C 0.12965 0.34790 0.08745
 C653 C 0.10047 0.32461 0.07926
 N654 N 0.09468 0.29563 0.10232
 N655 N 0.11122 0.25949 0.15506
 C656 C 0.13454 0.25146 0.18410
 C657 C 0.16511 0.27342 0.19061
 N658 N 0.17002 0.30313 0.16842
 H659 H 0.13502 0.37108 0.06964
 H660 H 0.12991 0.22754 0.20106
 C661 C 0.62571 0.78401 0.61265
 C662 C 0.65697 0.80485 0.61901
 N663 N 0.66457 0.83260 0.59516
 C664 C 0.64251 0.84020 0.56495
 C665 C 0.61150 0.81894 0.55805
 N666 N 0.60398 0.79129 0.58227
 N667 N 0.61818 0.75611 0.63626
 C668 C 0.64076 0.74774 0.66576
 C669 C 0.67266 0.76794 0.67174
 N670 N 0.67981 0.79625 0.64820
 H671 H 0.64936 0.86226 0.54616
 H672 H 0.63424 0.72502 0.68379
   
