data_POSCAR
  _audit_creation_date              2014-09-24
  _audit_creation_method            'ToBaCCo'
  _symmetry_space_group_name_H-M    'P1'
  _symmetry_Int_Tables_number       1
  _symmetry_cell_setting            triclinic
  loop_
  _symmetry_equiv_pos_as_xyz
 x,y,z
_cell_length_a 23.9853
_cell_length_b 21.7809
_cell_length_c 23.0072
_cell_angle_alpha 89.133400
_cell_angle_beta 89.951900
_cell_angle_gamma 89.375200
loop_
  _atom_site_label
  _atom_site_type_symbol
  _atom_site_fract_x
  _atom_site_fract_y
  _atom_site_fract_z
N1 N 0.11634 1.20879 0.08868
 N2 N 0.10460 1.22993 0.14053
 C3 C 0.06515 1.27432 0.13532
 C4 C 0.05059 1.27947 0.07716
 C5 C 0.08343 1.23664 0.04905
 H6 H 0.04863 1.30084 0.17093
 H7 H 0.08674 1.22994 0.00269
 Cu8 Cu 0.14203 1.19648 0.20952
 Cu9 Cu 0.18084 1.15716 0.07506
 Cu10 Cu 0.24305 1.08407 0.18620
 N11 N 0.16924 1.13935 0.27129
 N12 N 0.20825 1.09716 0.26257
 C13 C 0.21313 1.06131 0.31049
 C14 C 0.17409 1.08082 0.35071
 C15 C 0.14732 1.13057 0.32466
 H16 H 0.23977 1.02105 0.31386
 H17 H 0.11209 1.15597 0.34178
 N18 N 0.28140 1.09753 0.11217
 N19 N 0.25714 1.12793 0.06918
 C20 C 0.29222 1.13126 0.02364
 C21 C 0.34083 1.10052 0.03868
 C22 C 0.33258 1.07929 0.09501
 H23 H 0.28244 1.15295 -0.01777
 H24 H 0.36154 1.05263 0.12144
 H25 H 0.15999 1.11412 0.17023
 H26 H 0.21793 1.17099 0.17240
 N27 N 0.82837 0.73132 0.17931
 N28 N 0.85599 0.72616 0.22858
 C29 C 0.88129 0.67066 0.23133
 C30 C 0.86929 0.63992 0.18075
 C31 C 0.83595 0.67981 0.14862
 H32 H 0.90885 0.65520 0.26587
 H33 H 0.81968 0.67259 0.10544
 Cu34 Cu 0.86161 0.79516 0.28097
 Cu35 Cu 0.78754 0.80592 0.15693
 Cu36 Cu 0.76634 0.90738 0.26923
 N37 N 0.87006 0.87188 0.32263
 N38 N 0.83171 0.91526 0.31810
 C39 C 0.84592 0.96284 0.35117
 C40 C 0.89627 0.94891 0.37772
 C41 C 0.91048 0.89064 0.35886
 H42 H 0.82137 1.00453 0.35506
 H43 H 0.94728 0.86407 0.37053
 N44 N 0.72150 0.90901 0.19827
 N45 N 0.73061 0.87223 0.15413
 C46 C 0.69477 0.88747 0.11094
 C47 C 0.66209 0.93632 0.12909
 C48 C 0.68012 0.94863 0.18461
 H49 H 0.69258 0.86481 0.06951
 H50 H 0.66504 0.98450 0.21274
 H51 H 0.82113 0.87006 0.21281
 H52 H 0.76827 0.81518 0.24163
 N53 N 0.79850 1.33935 -0.15763
 N54 N 0.83183 1.35773 -0.19968
 C55 C 0.85154 1.41357 -0.18705
 C56 C 0.83029 1.43057 -0.13369
 C57 C 0.79701 1.38226 -0.11618
 H58 H 0.88477 1.43609 -0.21065
 H59 H 0.77761 1.37621 -0.07405
 Cu60 Cu 0.85873 1.30101 -0.25801
 Cu61 Cu 0.76724 1.25708 -0.15510
 Cu62 Cu 0.79216 1.16891 -0.27641
 N63 N 0.89404 1.23300 -0.29856
 N64 N 0.86725 1.18140 -0.30616
 C65 C 0.89985 1.14236 -0.33590
 C66 C 0.94998 1.17082 -0.34728
 C67 C 0.94501 1.22851 -0.32306
 H68 H 0.88785 1.09666 -0.34841
 H69 H 0.97570 1.26454 -0.32352
 N70 N 0.73326 1.15008 -0.22005
 N71 N 0.72478 1.18218 -0.17258
 C72 C 0.68391 1.15548 -0.14121
 C73 C 0.66627 1.10420 -0.17044
 C74 C 0.69834 1.10223 -0.22028
 H75 H 0.66846 1.17169 -0.09995
 H76 H 0.69753 1.06764 -0.25348
 H77 H 0.82388 1.21053 -0.20661
 H78 H 0.76685 1.25529 -0.24332
 N79 N 0.18492 0.66499 -0.09765
 N80 N 0.13931 0.67315 -0.12853
 C81 C 0.09751 0.64162 -0.10345
 C82 C 0.11826 0.61239 -0.05421
 C83 C 0.17392 0.62789 -0.05190
 H84 H 0.05509 0.64066 -0.11935
 H85 H 0.20401 0.61410 -0.01911
 Cu86 Cu 0.13907 0.72457 -0.19822
 Cu87 Cu 0.25418 0.70507 -0.11875
 Cu88 Cu 0.23189 0.83910 -0.19928
 N89 N 0.13562 0.79026 -0.25579
 N90 N 0.17123 0.83578 -0.25614
 C91 C 0.15650 0.87649 -0.29836
 C92 C 0.10928 0.85487 -0.32574
 C93 C 0.09741 0.79995 -0.29768
 H94 H 0.17797 0.91892 -0.30779
 H95 H 0.06274 0.77002 -0.30594
 N96 N 0.30030 0.82292 -0.15277
 N97 N 0.30933 0.77047 -0.12459
 C98 C 0.35796 0.77317 -0.09582
 C99 C 0.38069 0.83023 -0.10592
 C100 C 0.34331 0.86063 -0.14240
 H101 H 0.37387 0.73751 -0.06691
 H102 H 0.34636 0.90740 -0.15844
 H103 H 0.20368 0.77821 -0.13572
 H104 H 0.23903 0.74663 -0.20119
 Si105 Si 0.52088 0.99433 -0.03695
 Si106 Si -0.04578 0.48725 1.03551
 Si107 Si 1.04848 0.01802 0.52110
 C108 C 0.01518 0.32247 1.05049
 C109 C -0.00074 0.31961 0.99301
 C110 C -0.02882 0.37280 0.98203
 C111 C -0.02844 0.40440 1.03347
 O112 O -0.00152 0.37401 1.07533
 H113 H 0.00894 0.28425 0.96193
 H114 H -0.04385 0.38848 0.94001
 C115 C -0.10670 0.58154 1.16089
 C116 C -0.07907 0.53907 1.19572
 C117 C -0.05817 0.49637 1.15842
 C118 C -0.07494 0.51597 1.10394
 O119 O -0.10399 0.56774 1.10529
 H120 H -0.07279 0.54056 1.24224
 H121 H -0.03105 0.45784 1.16918
 C122 C -0.14410 0.47507 0.90498
 C123 C -0.12005 0.52921 0.88674
 C124 C -0.08789 0.54714 0.93227
 C125 C -0.09437 0.50220 0.97449
 O126 O -0.12889 0.45900 0.95816
 H127 H -0.12211 0.55024 0.84387
 H128 H -0.05959 0.58542 0.93244
 C129 C 0.08704 0.57426 0.98734
 C130 C 0.10838 0.55046 1.03865
 C131 C 0.06575 0.51834 1.06318
 C132 C 0.02188 0.52504 1.02501
 O133 O 0.03459 0.55884 0.97891
 H134 H 0.14994 0.55570 1.05599
 H135 H 0.06663 0.49244 1.10369
 C136 C 1.15895 0.05148 0.40259
 C137 C 1.18558 0.00045 0.42634
 C138 C 1.15369 -0.01671 0.47280
 C139 C 1.11019 0.02499 0.47386
 O140 O 1.11337 0.06661 0.43165
 H141 H 1.22262 -0.02277 0.41065
 H142 H 1.16003 -0.05644 0.50093
 C143 C 1.07873 -0.11690 0.62942
 C144 C 1.03138 -0.14118 0.60497
 C145 C 1.01427 -0.09911 0.56428
 C146 C 1.05232 -0.05240 0.56673
 O147 O 1.09155 -0.06288 0.60621
 H148 H 1.01133 -0.18416 0.61561
 H149 H 0.97806 -0.10204 0.53653
 C150 C 0.92577 -0.01399 0.41557
 C151 C 0.90832 0.04380 0.43208
 C152 C 0.94779 0.06331 0.46964
 C153 C 0.98639 0.01617 0.47349
 O154 O 0.97345 -0.03079 0.44041
 H155 H 0.87119 0.06886 0.41871
 H156 H 0.94818 0.10687 0.49158
 C157 C 0.99422 0.14582 0.62133
 C158 C 1.04329 0.17507 0.60700
 C159 C 1.07170 0.13481 0.57237
 C160 C 1.03793 0.08430 0.56880
 O161 O 0.99132 0.09072 0.59859
 H162 H 1.05597 0.22081 0.61859
 H163 H 1.11113 0.14225 0.55065
 C164 C 0.38974 1.08966 0.00170
 C165 C 0.40136 1.12121 -0.04928
 C166 C 0.44932 1.09509 -0.06985
 C167 C 0.46279 1.04953 -0.03006
 O168 O 0.42686 1.04610 0.01332
 H169 H 0.37757 1.15841 -0.06917
 H170 H 0.47110 1.10680 -0.10964
 C171 C 0.62450 1.05936 -0.15108
 C172 C 0.61002 1.00794 -0.18168
 C173 C 0.57208 0.97827 -0.14763
 C174 C 0.56623 1.01385 -0.09905
 O175 O 0.59790 1.06312 -0.10087
 H176 H 0.62567 0.99340 -0.22344
 H177 H 0.55146 0.93558 -0.15690
 C178 C 0.43015 0.85577 -0.07771
 C179 C 0.46385 0.82409 -0.03868
 C180 C 0.50121 0.86600 -0.01959
 C181 C 0.48762 0.91976 -0.04863
 O182 O 0.44460 0.91382 -0.08388
 H183 H 0.46070 0.77663 -0.02465
 H184 H 0.53367 0.85854 0.01243
 C185 C 0.61787 0.96920 0.09666
 C186 C 0.58818 1.01847 0.11817
 C187 C 0.55136 1.03461 0.07560
 C188 C 0.56121 0.99408 0.03134
 O189 O 0.60172 0.95431 0.04377
 H190 H 0.59261 1.03998 0.15996
 H191 H 0.52084 1.07150 0.07687
   
