data_POSCAR
  _audit_creation_date              2014-09-24
  _audit_creation_method            'ToBaCCo'
  _symmetry_space_group_name_H-M    'P1'
  _symmetry_Int_Tables_number       1
  _symmetry_cell_setting            triclinic
  loop_
  _symmetry_equiv_pos_as_xyz
 x,y,z
_cell_length_a 48.3043
_cell_length_b 34.7843
_cell_length_c 21.0739
_cell_angle_alpha 90.053800
_cell_angle_beta 89.888600
_cell_angle_gamma 90.043700
loop_
  _atom_site_label
  _atom_site_type_symbol
  _atom_site_fract_x
  _atom_site_fract_y
  _atom_site_fract_z
O1 O 0.74085 0.29708 0.55984
 O2 O 0.78560 0.25482 0.43652
 O3 O 0.74080 0.29691 0.43667
 O4 O 0.78563 0.25499 0.55970
 O5 O 0.75995 0.20232 0.55997
 O6 O 0.71512 0.24424 0.43694
 O7 O 0.75993 0.20216 0.43679
 O8 O 0.71516 0.24442 0.56011
 Cu9 Cu 0.76581 0.28126 0.49815
 Cu10 Cu 0.73495 0.21797 0.49847
 C11 C 0.72030 0.27802 0.58037
 C12 C 0.78048 0.22121 0.41628
 C13 C 0.72023 0.27780 0.41649
 C14 C 0.78050 0.22144 0.58019
 O15 O 0.24013 0.79783 0.56344
 O16 O 0.28504 0.75550 0.44040
 O17 O 0.24036 0.79780 0.44026
 O18 O 0.28483 0.75553 0.56357
 O19 O 0.25903 0.70298 0.56341
 O20 O 0.21455 0.74526 0.44010
 O21 O 0.25923 0.70296 0.44024
 O22 O 0.21433 0.74529 0.56328
 Cu23 Cu 0.26519 0.78197 0.50195
 Cu24 Cu 0.23418 0.71882 0.50175
 C25 C 0.21949 0.77885 0.58369
 C26 C 0.27986 0.72194 0.41998
 C27 C 0.21980 0.77881 0.41979
 C28 C 0.27960 0.72197 0.58385
 O29 O 0.25938 0.29769 -0.56478
 O30 O 0.21474 0.25547 -0.44124
 O31 O 0.25952 0.29762 -0.44160
 O32 O 0.21457 0.25549 -0.56442
 O33 O 0.24024 0.20288 -0.56484
 O34 O 0.28520 0.24500 -0.44202
 O35 O 0.24041 0.20285 -0.44167
 O36 O 0.28505 0.24508 -0.56520
 Cu37 Cu 0.23447 0.28187 -0.50299
 Cu38 Cu 0.26531 0.21865 -0.50350
 C39 C 0.27992 0.27867 -0.58538
 C40 C 0.21990 0.22190 -0.42100
 C41 C 0.28009 0.27855 -0.42148
 C42 C 0.21965 0.22192 -0.58491
 O43 O -0.25969 0.70222 -0.55992
 O44 O -0.21518 0.74444 -0.43642
 O45 O -0.25992 0.70216 -0.43674
 O46 O -0.21497 0.74454 -0.55959
 O47 O -0.24072 0.79708 -0.55954
 O48 O -0.28567 0.75470 -0.43670
 O49 O -0.24093 0.79699 -0.43637
 O50 O -0.28544 0.75475 -0.55987
 Cu51 Cu -0.23484 0.71804 -0.49817
 Cu52 Cu -0.26579 0.78118 -0.49811
 C53 C -0.28023 0.72121 -0.58031
 C54 C -0.22038 0.77799 -0.41600
 C55 C -0.28054 0.72113 -0.41641
 C56 C -0.22010 0.77811 -0.57987
 N57 N -0.02893 0.93188 -0.06760
 N58 N -0.04920 0.90711 -0.07749
 N59 N 0.02930 0.95875 -0.11167
 N60 N 0.04947 0.95294 -0.15283
 N61 N 0.02933 0.93197 -0.06783
 N62 N 0.04954 0.90715 -0.07807
 N63 N -0.02890 0.95866 -0.11144
 N64 N -0.04914 0.95289 -0.15227
 C65 C -0.06172 0.92071 -0.13041
 C66 C 0.06202 0.92074 -0.13119
 N67 N 0.02929 1.06843 -0.06835
 N68 N 0.04950 1.09324 -0.07875
 N69 N -0.02892 1.04138 -0.11179
 N70 N -0.04904 1.04707 -0.15294
 N71 N -0.02897 1.06835 -0.06817
 N72 N -0.04913 1.09317 -0.07855
 N73 N 0.02927 1.04147 -0.11198
 N74 N 0.04946 1.04715 -0.15315
 Mn75 Mn 0.00019 1.00006 -0.11239
 C76 C 0.06199 1.07947 -0.13174
 C77 C -0.06157 1.07939 -0.13151
 N78 N 0.02930 0.93225 0.06901
 N79 N 0.04952 0.90749 0.07924
 N80 N -0.02894 0.95909 0.11287
 N81 N -0.04911 0.95336 0.15408
 N82 N -0.02895 0.93214 0.06922
 N83 N -0.04913 0.90729 0.07964
 N84 N 0.02926 0.95919 0.11265
 N85 N 0.04943 0.95356 0.15368
 Mn86 Mn 0.00019 0.93158 0.00070
 C87 C 0.06199 0.92128 0.13215
 C88 C -0.06163 0.92102 0.13266
 N89 N -0.02899 1.06860 0.06868
 N90 N -0.04926 1.09334 0.07877
 N91 N 0.02924 1.04192 0.11235
 N92 N 0.04941 1.04777 0.15334
 N93 N 0.02927 1.06870 0.06851
 N94 N 0.04948 1.09356 0.07857
 N95 N -0.02897 1.04182 0.11253
 N96 N -0.04920 1.04755 0.15354
 Mn97 Mn 0.00015 1.06900 0.00017
 Mn98 Mn 0.00015 1.00051 0.11327
 Cl99 Cl 0.00017 1.00029 0.00044
 C100 C -0.06178 1.07971 0.13180
 C101 C 0.06195 1.08001 0.13158
 N102 N 0.52903 0.45848 -0.11267
 N103 N 0.54927 0.45280 -0.15370
 N104 N 0.47072 0.43164 -0.06913
 N105 N 0.45052 0.40683 -0.07963
 N106 N 0.47083 0.45858 -0.11270
 N107 N 0.45073 0.45290 -0.15392
 N108 N 0.52898 0.43155 -0.06908
 N109 N 0.54919 0.40676 -0.07936
 C110 C 0.56177 0.42051 -0.13224
 C111 C 0.43813 0.42059 -0.13260
 N112 N 0.47063 0.45823 0.11162
 N113 N 0.45036 0.45250 0.15257
 N114 N 0.52886 0.43132 0.06775
 N115 N 0.54906 0.40650 0.07778
 N116 N 0.52883 0.45812 0.11164
 N117 N 0.54900 0.45232 0.15263
 N118 N 0.47060 0.43143 0.06771
 N119 N 0.45030 0.40670 0.07768
 Mn120 Mn 0.49979 0.43101 -0.00069
 C121 C 0.43777 0.42033 0.13071
 C122 C 0.56153 0.42009 0.13083
 N123 N 0.47095 0.54131 -0.11219
 N124 N 0.45073 0.54706 -0.15306
 N125 N 0.52918 0.56800 -0.06832
 N126 N 0.54942 0.59282 -0.07846
 N127 N 0.52915 0.54120 -0.11221
 N128 N 0.54935 0.54700 -0.15331
 N129 N 0.47093 0.56810 -0.06828
 N130 N 0.45068 0.59286 -0.07816
 Mn131 Mn 0.49999 0.49989 -0.11311
 C132 C 0.43818 0.57925 -0.13115
 C133 C 0.56191 0.57922 -0.13157
 N134 N 0.52896 0.54085 0.11212
 N135 N 0.54912 0.54649 0.15321
 N136 N 0.47081 0.56789 0.06855
 N137 N 0.45065 0.59276 0.07897
 N138 N 0.47075 0.54096 0.11213
 N139 N 0.45058 0.54671 0.15330
 N140 N 0.52906 0.56778 0.06852
 N141 N 0.54931 0.59252 0.07885
 Mn142 Mn 0.49979 0.49954 0.11255
 Mn143 Mn 0.50000 0.56842 0.00012
 Cl144 Cl 0.49989 0.49971 -0.00028
 C145 C 0.56173 0.57875 0.13176
 C146 C 0.43812 0.57905 0.13193
 C147 C 0.38116 0.39954 0.25005
 C148 C 0.37082 0.36446 0.22776
 C149 C 0.38180 0.34817 0.17238
 C150 C 0.40332 0.36667 0.13992
 C151 C 0.29731 0.29510 0.37185
 C152 C 0.40266 0.41802 0.21778
 C153 C 0.34981 0.34466 0.26358
 C154 C 0.33271 0.32853 0.29569
 C155 C 0.31331 0.31022 0.33569
 C156 C 0.41413 0.40158 0.16275
 H157 H 0.37287 0.41236 0.29294
 H158 H 0.37400 0.32097 0.15481
 H159 H 0.41176 0.35339 0.09762
 H160 H 0.41052 0.44492 0.23639
 C161 C -0.11790 0.90014 0.25284
 C162 C -0.12819 0.86496 0.23086
 C163 C -0.11728 0.84862 0.17545
 C164 C -0.09588 0.86716 0.14265
 C165 C -0.20168 0.79550 0.37505
 C166 C -0.09652 0.91866 0.22022
 C167 C -0.14914 0.84516 0.26691
 C168 C -0.16621 0.82902 0.29910
 C169 C -0.18562 0.81067 0.33905
 C170 C -0.08512 0.90218 0.16514
 H171 H -0.12614 0.91301 0.29574
 H172 H -0.12506 0.82135 0.15811
 H173 H -0.08750 0.85384 0.10031
 H174 H -0.08870 0.94565 0.23857
 C175 C 0.61749 0.65094 0.17443
 C176 C 0.62833 0.63455 0.22973
 C177 C 0.61798 0.59940 0.25163
 C178 C 0.59660 0.58094 0.21906
 C179 C 0.70149 0.70388 0.37436
 C180 C 0.59608 0.63247 0.14168
 C181 C 0.64923 0.65432 0.26581
 C182 C 0.66624 0.67044 0.29808
 C183 C 0.68555 0.68875 0.33818
 C184 C 0.58526 0.59748 0.16412
 H185 H 0.62531 0.67820 0.15716
 H186 H 0.62617 0.58650 0.29444
 H187 H 0.58871 0.55398 0.23737
 H188 H 0.58774 0.64582 0.09945
 C189 C 0.11829 1.10108 0.25106
 C190 C 0.12861 1.13619 0.22886
 C191 C 0.11769 1.15243 0.17352
 C192 C 0.09626 1.13385 0.14100
 C193 C 0.20217 1.20553 0.37255
 C194 C 0.09689 1.08253 0.21873
 C195 C 0.14959 1.15602 0.26464
 C196 C 0.16668 1.17215 0.29669
 C197 C 0.18612 1.19044 0.33655
 C198 C 0.08548 1.09890 0.16373
 H199 H 0.12654 1.08830 0.29390
 H200 H 0.12548 1.17965 0.15600
 H201 H 0.08787 1.14708 0.09872
 H202 H 0.08904 1.05560 0.23727
 C203 C 0.61751 0.34827 -0.17473
 C204 C 0.62851 0.36466 -0.22996
 C205 C 0.61827 0.39983 -0.25189
 C206 C 0.59684 0.41830 -0.21940
 C207 C 0.70194 0.29536 -0.37436
 C208 C 0.59605 0.36675 -0.14206
 C209 C 0.64947 0.34489 -0.26596
 C210 C 0.66654 0.32878 -0.29818
 C211 C 0.68593 0.31048 -0.33823
 C212 C 0.58533 0.40176 -0.16452
 H213 H 0.62524 0.32100 -0.15744
 H214 H 0.62659 0.41273 -0.29465
 H215 H 0.58905 0.44527 -0.23772
 H216 H 0.58758 0.35339 -0.09987
 C217 C 0.11772 0.84840 -0.17369
 C218 C 0.12864 0.86466 -0.22914
 C219 C 0.11833 0.89976 -0.25121
 C220 C 0.09695 0.91829 -0.21866
 C221 C 0.20205 0.79529 -0.37362
 C222 C 0.09631 0.86695 -0.14095
 C223 C 0.14958 0.84484 -0.26516
 C224 C 0.16664 0.82871 -0.29740
 C225 C 0.18603 0.81041 -0.33747
 C226 C 0.08554 0.90190 -0.16355
 H227 H 0.12550 0.82118 -0.15628
 H228 H 0.12658 0.91256 -0.29414
 H229 H 0.08912 0.94521 -0.23711
 H230 H 0.08792 0.85370 -0.09860
 C231 C 0.38167 0.60010 -0.25016
 C232 C 0.37135 0.63515 -0.22774
 C233 C 0.38230 0.65140 -0.17239
 C234 C 0.40379 0.63290 -0.14009
 C235 C 0.29790 0.70460 -0.37101
 C236 C 0.40314 0.58161 -0.21806
 C237 C 0.35036 0.65495 -0.26336
 C238 C 0.33328 0.67110 -0.29529
 C239 C 0.31389 0.68944 -0.33506
 C240 C 0.41459 0.59802 -0.16305
 H241 H 0.37340 0.58730 -0.29303
 H242 H 0.37450 0.67858 -0.15471
 H243 H 0.41221 0.64615 -0.09780
 H244 H 0.41099 0.55473 -0.23676
 C245 C -0.11708 1.15174 -0.17456
 C246 C -0.12795 1.13528 -0.22984
 C247 C -0.11768 1.10005 -0.25162
 C248 C -0.09637 1.08158 -0.21894
 C249 C -0.20114 1.20425 -0.37458
 C250 C -0.09575 1.13326 -0.14168
 C251 C -0.14881 1.15501 -0.26600
 C252 C -0.16581 1.17105 -0.29832
 C253 C -0.18515 1.18924 -0.33844
 C254 C -0.08502 1.09818 -0.16399
 H255 H -0.12483 1.17906 -0.15737
 H256 H -0.12589 1.08708 -0.29442
 H257 H -0.08857 1.05455 -0.23716
 H258 H -0.08739 1.14666 -0.09945
 C259 C 0.61766 0.65160 -0.17392
 C260 C 0.62858 0.63531 -0.22936
 C261 C 0.61828 0.60017 -0.25147
 C262 C 0.59687 0.58163 -0.21896
 C263 C 0.70202 0.70468 -0.37376
 C264 C 0.59622 0.63305 -0.14123
 C265 C 0.64953 0.65513 -0.26536
 C266 C 0.66660 0.67126 -0.29758
 C267 C 0.68599 0.68956 -0.33763
 C268 C 0.58545 0.59806 -0.16386
 H269 H 0.62543 0.67885 -0.15648
 H270 H 0.62653 0.58734 -0.29439
 H271 H 0.58904 0.55468 -0.23744
 H272 H 0.58782 0.64632 -0.09888
 C273 C 0.11828 1.10013 -0.25190
 C274 C 0.12852 1.13539 -0.23016
 C275 C 0.11760 1.15185 -0.17486
 C276 C 0.09622 1.13334 -0.14194
 C277 C 0.20162 1.20461 -0.37553
 C278 C 0.09692 1.08165 -0.21918
 C279 C 0.14939 1.15517 -0.26643
 C280 C 0.16638 1.17126 -0.29888
 C281 C 0.18568 1.18953 -0.33920
 C282 C 0.08550 1.09825 -0.16423
 H283 H 0.12653 1.08718 -0.29472
 H284 H 0.12533 1.17919 -0.15771
 H285 H 0.08781 1.14675 -0.09971
 H286 H 0.08912 1.05461 -0.23737
 C287 C 0.38253 0.34829 -0.17598
 C288 C 0.37173 0.36475 -0.23126
 C289 C 0.38206 0.39997 -0.25293
 C290 C 0.40338 0.41842 -0.22014
 C291 C 0.29847 0.29579 -0.37625
 C292 C 0.40388 0.36676 -0.14300
 C293 C 0.35085 0.34504 -0.26751
 C294 C 0.33383 0.32901 -0.29991
 C295 C 0.31448 0.31082 -0.34009
 C296 C 0.41468 0.40183 -0.16519
 H297 H 0.37473 0.32099 -0.15888
 H298 H 0.37390 0.41293 -0.29571
 H299 H 0.41124 0.44544 -0.23827
 H300 H 0.41219 0.35336 -0.10078
 C301 C -0.11828 0.89985 -0.24937
 C302 C -0.12861 0.86476 -0.22709
 C303 C -0.11764 0.84849 -0.17184
 C304 C -0.09613 0.86701 -0.13950
 C305 C -0.20208 0.79534 -0.37075
 C306 C -0.09680 0.91834 -0.21722
 C307 C -0.14961 0.84495 -0.26279
 C308 C -0.16669 0.82880 -0.29482
 C309 C -0.18608 0.81048 -0.33470
 C310 C -0.08533 0.90192 -0.16232
 H311 H -0.12657 0.91265 -0.29216
 H312 H -0.12543 0.82129 -0.15429
 H313 H -0.08769 0.85374 -0.09729
 H314 H -0.08894 0.94524 -0.23582
 C315 C 0.38258 0.65152 0.17491
 C316 C 0.37162 0.63516 0.23023
 C317 C 0.38183 0.59995 0.25206
 C318 C 0.40318 0.58141 0.21939
 C319 C 0.29826 0.70458 0.37478
 C320 C 0.40396 0.63296 0.14206
 C321 C 0.35070 0.65498 0.26635
 C322 C 0.33366 0.67111 0.29863
 C323 C 0.31428 0.68944 0.33869
 C324 C 0.41464 0.59791 0.16442
 H325 H 0.37487 0.67881 0.15768
 H326 H 0.37355 0.58707 0.29488
 H327 H 0.41095 0.55441 0.23764
 H328 H 0.41238 0.64629 0.09981
 C329 C -0.11767 1.15184 0.17382
 C330 C -0.12864 1.13554 0.22918
 C331 C -0.11831 1.10047 0.25134
 C332 C -0.09685 1.08202 0.21896
 C333 C -0.20212 1.20479 0.37351
 C334 C -0.09618 1.13336 0.14126
 C335 C -0.14963 1.15532 0.26508
 C336 C -0.16672 1.17142 0.29727
 C337 C -0.18611 1.18969 0.33733
 C338 C -0.08538 1.09846 0.16396
 H339 H -0.12546 1.17904 0.15635
 H340 H -0.12660 1.08765 0.29420
 H341 H -0.08900 1.05512 0.23747
 H342 H -0.08774 1.14665 0.09897
 C343 C 0.61729 0.34783 0.17259
 C344 C 0.62822 0.36413 0.22795
 C345 C 0.61789 0.39921 0.25022
 C346 C 0.59647 0.41770 0.21795
 C347 C 0.70182 0.29503 0.37141
 C348 C 0.59585 0.36634 0.14013
 C349 C 0.64921 0.34437 0.26367
 C350 C 0.66631 0.32830 0.29567
 C351 C 0.68575 0.31007 0.33548
 C352 C 0.58506 0.40127 0.16292
 H353 H 0.62509 0.32063 0.15501
 H354 H 0.62614 0.41204 0.29308
 H355 H 0.58863 0.44462 0.23654
 H356 H 0.58745 0.35307 0.09782
 C357 C 0.11824 0.90065 0.25189
 C358 C 0.12851 0.86546 0.22995
 C359 C 0.11762 0.84904 0.17466
 C360 C 0.09624 0.86752 0.14195
 C361 C 0.20155 0.79614 0.37449
 C362 C 0.09688 0.91911 0.21937
 C363 C 0.14938 0.84569 0.26600
 C364 C 0.16636 0.82957 0.29825
 C365 C 0.18563 0.81127 0.33834
 C366 C 0.08549 0.90255 0.16443
 H367 H 0.12646 0.91358 0.29470
 H368 H 0.12538 0.82175 0.15736
 H369 H 0.08786 0.85414 0.09973
 H370 H 0.08906 0.94610 0.23770
   
