data_POSCAR
  _audit_creation_date              2014-09-24
  _audit_creation_method            'ToBaCCo'
  _symmetry_space_group_name_H-M    'P1'
  _symmetry_Int_Tables_number       1
  _symmetry_cell_setting            triclinic
  loop_
  _symmetry_equiv_pos_as_xyz
 x,y,z
_cell_length_a 27.6329
_cell_length_b 27.4137
_cell_length_c 27.3221
_cell_angle_alpha 90.330100
_cell_angle_beta 90.075400
_cell_angle_gamma 90.077100
loop_
  _atom_site_label
  _atom_site_type_symbol
  _atom_site_fract_x
  _atom_site_fract_y
  _atom_site_fract_z
C1 C 0.49283 0.98394 -0.63307
 C2 C 0.44947 0.97471 -0.60743
 C3 C 0.45250 0.96806 -0.55636
 C4 C 0.49631 0.97446 -0.53047
 C5 C 0.53827 0.98605 -0.55746
 C6 C 0.53788 0.98827 -0.60903
 C7 C 0.49845 0.96772 -0.47567
 C8 C 0.54276 0.95746 -0.45169
 C9 C 0.54499 0.95203 -0.40074
 C10 C 0.50233 0.95368 -0.37347
 C11 C 0.45776 0.96241 -0.39596
 C12 C 0.45617 0.97121 -0.44654
 H13 H 0.49124 0.99177 -0.67172
 H14 H 0.42086 0.95549 -0.53712
 H15 H 0.57192 0.99125 -0.53839
 H16 H 0.57602 0.95287 -0.47183
 H17 H 0.50399 0.94987 -0.33403
 H18 H 0.42165 0.98042 -0.46256
 C19 C -0.63326 1.50273 0.02293
 C20 C -0.60715 1.45905 0.02990
 C21 C -0.55624 1.46157 0.02932
 C22 C -0.53164 1.50498 0.01782
 C23 C -0.55910 1.54721 0.00864
 C24 C -0.60989 1.54748 0.01328
 C25 C -0.47734 1.50640 0.01583
 C26 C -0.45194 1.55029 0.02437
 C27 C -0.40142 1.55263 0.02019
 C28 C -0.37547 1.50958 0.01103
 C29 C -0.39954 1.46484 0.00467
 C30 C -0.45036 1.46393 0.00537
 H31 H -0.67226 1.50132 0.02069
 H32 H -0.53564 1.42989 0.03985
 H33 H -0.54049 1.58050 -0.00027
 H34 H -0.47099 1.58305 0.03507
 H35 H -0.33643 1.51098 0.00775
 H36 H -0.46855 1.42970 -0.00168
 C37 C 0.03858 0.37685 0.50689
 C38 C 0.02787 0.39621 0.46041
 C39 C 0.01722 0.44656 0.45736
 C40 C 0.02073 0.47737 0.49879
 C41 C 0.03461 0.45681 0.54376
 C42 C 0.04126 0.40660 0.54856
 C43 C 0.00971 0.53078 0.49599
 C44 C -0.00624 0.55602 0.53797
 C45 C -0.01176 0.60709 0.53877
 C46 C -0.00708 0.63202 0.49392
 C47 C 0.00569 0.60720 0.45065
 C48 C 0.01562 0.55707 0.45238
 H49 H 0.04160 0.33782 0.51164
 H50 H 0.00743 0.46215 0.42260
 H51 H 0.04001 0.47958 0.57577
 H52 H -0.01575 0.53537 0.57008
 H53 H -0.01178 0.67107 0.49224
 H54 H 0.02885 0.53918 0.41968
 O55 O -0.12631 1.00794 -0.07576
 O56 O 0.12261 1.00195 -0.06880
 O57 O 0.00016 1.07065 -0.13139
 O58 O 0.00049 0.93963 -0.13018
 O59 O -0.00344 0.88025 -0.07094
 O60 O 0.00067 1.13106 -0.07253
 O61 O 0.06456 1.00236 -0.12945
 O62 O -0.06529 1.00705 -0.13318
 Zr63 Zr -0.00136 1.00554 -0.09102
 O64 O 0.04076 0.96096 -0.04820
 O65 O -0.04583 1.05113 -0.05166
 C66 C -0.11055 1.00745 -0.12056
 C67 C 0.10907 1.00107 -0.11440
 C68 C 0.00149 1.11598 -0.11765
 C69 C -0.00074 0.89460 -0.11617
 H70 H 0.06415 1.06923 -0.06886
 O71 O 0.04240 1.04908 -0.04859
 H72 H -0.06739 0.94175 -0.07147
 O73 O -0.04698 0.96272 -0.05032
 O74 O 0.11924 1.00722 0.06380
 O75 O -0.12987 1.00891 0.05658
 O76 O 0.06359 1.13038 -0.00252
 O77 O 0.05894 0.88029 -0.00508
 O78 O -0.07067 0.88261 -0.00407
 O79 O -0.06599 1.13263 -0.01095
 O80 O -0.00415 1.07468 0.11962
 O81 O -0.01001 0.94299 0.12086
 O82 O -0.00157 1.13295 0.05927
 O83 O -0.00841 0.88219 0.06224
 O84 O 0.12248 1.07094 -0.00008
 O85 O -0.12704 1.07529 -0.01188
 O86 O -0.12956 0.94207 -0.00572
 O87 O 0.12005 0.93756 -0.00348
 O88 O 0.05928 1.00855 0.12257
 O89 O -0.07324 1.00827 0.11869
 Zr90 Zr 0.08200 1.00495 -0.00321
 Zr91 Zr -0.08904 1.00806 -0.00813
 Zr92 Zr -0.00194 1.09185 -0.00624
 Zr93 Zr -0.00512 0.92110 -0.00461
 Zr94 Zr -0.00588 1.00800 0.08081
 O95 O -0.04955 0.96399 0.03806
 O96 O 0.04010 1.05045 0.03973
 C97 C 0.10441 1.00881 0.10879
 C98 C -0.11759 1.00872 0.10240
 C99 C 0.10822 1.11619 0.00001
 C100 C 0.10415 0.89284 -0.00500
 C101 C -0.11534 0.89684 -0.00416
 C102 C -0.11117 1.12001 -0.01298
 C103 C -0.00230 1.11953 0.10473
 C104 C -0.01048 0.89760 0.10731
 H105 H -0.06848 1.07362 0.05687
 O106 O -0.04773 1.05188 0.03698
 H107 H 0.05805 0.94163 0.06186
 O108 O 0.03829 0.96261 0.04038
 C109 C 0.36022 0.98468 0.39200
 C110 C 0.31621 0.98672 0.36653
 C111 C 0.31442 0.97763 0.31607
 C112 C 0.35714 0.96357 0.29203
 C113 C 0.40109 0.96145 0.31727
 C114 C 0.40400 0.97312 0.36766
 C115 C 0.26786 0.98303 0.28924
 C116 C 0.26653 0.99769 0.24246
 C117 C 0.22218 1.00373 0.21218
 C118 C 0.22774 1.02515 0.16604
 C119 C 0.18893 1.02828 0.13367
 C120 C 0.14311 1.01014 0.14642
 C121 C 0.13657 0.99044 0.19336
 C122 C 0.17585 0.98696 0.22595
 H123 H 0.35974 0.99500 0.43026
 H124 H 0.28370 0.99714 0.38607
 H125 H 0.35675 0.95373 0.25361
 H126 H 0.43243 0.94924 0.29697
 H127 H 0.23466 0.97735 0.30932
 H128 H 0.30044 1.00687 0.22490
 H129 H 0.26273 1.03863 0.15435
 H130 H 0.19515 1.04416 0.09802
 H131 H 0.10171 0.97592 0.20405
 H132 H 0.16991 0.96982 0.26095
 C133 C -0.37661 1.01600 0.38372
 C134 C -0.33352 1.01912 0.35691
 C135 C -0.33067 1.00036 0.30919
 C136 C -0.37173 0.97744 0.28912
 C137 C -0.41479 0.97440 0.31563
 C138 C -0.41840 0.99356 0.36365
 C139 C -0.28441 1.00412 0.28162
 C140 C -0.28322 1.00558 0.23255
 C141 C -0.23874 1.00869 0.20218
 C142 C -0.24459 1.02020 0.15264
 C143 C -0.20514 1.02092 0.12104
 C144 C -0.15830 1.00992 0.13790
 C145 C -0.15190 0.99920 0.18779
 C146 C -0.19180 0.99838 0.21970
 H147 H -0.37703 1.03300 0.41950
 H148 H -0.30242 1.03695 0.37332
 H149 H -0.37052 0.96043 0.25332
 H150 H -0.44437 0.95450 0.29888
 H151 H -0.25127 1.00790 0.30242
 H152 H -0.31722 1.00607 0.21281
 H153 H -0.28013 1.02829 0.13800
 H154 H -0.21166 1.02986 0.08304
 H155 H -0.11635 0.99035 0.20189
 H156 H -0.18578 0.98850 0.25746
 C157 C -0.40261 0.91452 -0.33645
 C158 C -0.36211 0.91666 -0.30594
 C159 C -0.32625 0.95230 -0.31285
 C160 C -0.33055 0.98416 -0.35297
 C161 C -0.37103 0.98175 -0.38372
 C162 C -0.40813 0.94795 -0.37475
 C163 C -0.28791 0.95718 -0.27497
 C164 C -0.24951 0.98701 -0.27798
 C165 C -0.21478 0.99335 -0.23707
 C166 C -0.16646 1.00493 -0.24746
 C167 C -0.13273 1.01038 -0.20964
 C168 C -0.14686 1.00510 -0.16047
 C169 C -0.19570 0.99528 -0.15005
 C170 C -0.22929 0.98951 -0.18789
 H171 H -0.43059 0.88788 -0.32900
 H172 H -0.35976 0.89149 -0.27561
 H173 H -0.30429 1.01253 -0.35970
 H174 H -0.37474 1.00828 -0.41270
 H175 H -0.29210 0.93521 -0.24241
 H176 H -0.24195 1.00640 -0.31143
 H177 H -0.15458 1.00885 -0.28501
 H178 H -0.09549 1.01834 -0.21900
 H179 H -0.20793 0.99126 -0.11265
 H180 H -0.26667 0.98248 -0.17844
 C181 C 0.40675 0.92578 -0.33046
 C182 C 0.36803 0.92781 -0.29790
 C183 C 0.33475 0.96630 -0.29972
 C184 C 0.34047 1.00244 -0.33579
 C185 C 0.37940 1.00034 -0.36855
 C186 C 0.41340 0.96246 -0.36551
 C187 C 0.29684 0.96859 -0.26144
 C188 C 0.25610 0.99476 -0.26511
 C189 C 0.21927 0.99611 -0.22576
 C190 C 0.17075 1.00406 -0.23829
 C191 C 0.13502 1.00534 -0.20220
 C192 C 0.14716 0.99936 -0.15254
 C193 C 0.19595 0.99230 -0.13988
 C194 C 0.23165 0.99076 -0.17606
 H195 H 0.43215 0.89585 -0.32770
 H196 H 0.36451 0.89951 -0.27061
 H197 H 0.31628 1.03333 -0.33775
 H198 H 0.38407 1.02938 -0.39484
 H199 H 0.30227 0.94616 -0.22940
 H200 H 0.24789 1.01367 -0.29875
 H201 H 0.16037 1.00878 -0.27622
 H202 H 0.09787 1.01128 -0.21333
 H203 H 0.20664 0.98797 -0.10201
 H204 H 0.26893 0.98619 -0.16485
 C205 C 0.39026 1.36921 0.02052
 C206 C 0.36445 1.32527 0.02133
 C207 C 0.31623 1.32416 0.03688
 C208 C 0.29530 1.36733 0.05497
 C209 C 0.32086 1.41129 0.05411
 C210 C 0.36847 1.41358 0.03548
 C211 C 0.28814 1.27813 0.03250
 C212 C 0.24053 1.27848 0.02293
 C213 C 0.20984 1.23466 0.01503
 C214 C 0.16352 1.24203 -0.00446
 C215 C 0.13153 1.20325 -0.01049
 C216 C 0.14480 1.15569 0.00295
 C217 C 0.19167 1.14767 0.02130
 C218 C 0.22394 1.18688 0.02755
 H219 H 0.42623 1.36831 0.00499
 H220 H 0.38159 1.29238 0.00767
 H221 H 0.25899 1.36736 0.06978
 H222 H 0.30316 1.44320 0.06909
 H223 H 0.30780 1.24406 0.03317
 H224 H 0.22282 1.31338 0.01826
 H225 H 0.15165 1.27825 -0.01463
 H226 H 0.09594 1.21082 -0.02528
 H227 H 0.20283 1.11148 0.03218
 H228 H 0.25908 1.17964 0.04331
 C229 C 0.38024 0.63160 -0.01863
 C230 C 0.35385 0.67505 -0.02142
 C231 C 0.30941 0.67985 0.00266
 C232 C 0.29239 0.64067 0.03078
 C233 C 0.31854 0.59725 0.03360
 C234 C 0.36311 0.59154 0.00891
 C235 C 0.28178 0.72605 -0.00163
 C236 C 0.23335 0.72693 0.00083
 C237 C 0.20309 0.77132 -0.00353
 C238 C 0.15385 0.76471 -0.01373
 C239 C 0.12250 0.80432 -0.01521
 C240 C 0.13935 0.85198 -0.00614
 C241 C 0.18896 0.85906 0.00313
 C242 C 0.22063 0.81903 0.00458
 H243 H 0.41310 0.62937 -0.03992
 H244 H 0.36778 0.70472 -0.04334
 H245 H 0.25931 0.64371 0.05172
 H246 H 0.30449 0.56917 0.05735
 H247 H 0.30163 0.75909 -0.00966
 H248 H 0.21409 0.69269 0.00429
 H249 H 0.13930 0.72850 -0.02014
 H250 H 0.08468 0.79724 -0.02298
 H251 H 0.20306 0.89526 0.01042
 H252 H 0.25824 0.82553 0.01346
 C253 C -0.39550 0.64207 0.00149
 C254 C -0.37003 0.68619 0.00179
 C255 C -0.32432 0.68941 0.02389
 C256 C -0.30577 0.64833 0.04826
 C257 C -0.33125 0.60426 0.04804
 C258 C -0.37598 0.60035 0.02385
 C259 C -0.29617 0.73531 0.01968
 C260 C -0.24781 0.73489 0.01627
 C261 C -0.21706 0.77848 0.00834
 C262 C -0.16986 0.77063 -0.00851
 C263 C -0.13785 0.80939 -0.01400
 C264 C -0.15196 0.85735 -0.00244
 C265 C -0.19969 0.86577 0.01321
 C266 C -0.23204 0.82660 0.01875
 H267 H -0.42978 0.64021 -0.01769
 H268 H -0.38526 0.71739 -0.01686
 H269 H -0.27148 0.65004 0.06737
 H270 H -0.31586 0.57316 0.06668
 H271 H -0.31586 0.76905 0.01498
 H272 H -0.22936 0.70004 0.01648
 H273 H -0.15736 0.73410 -0.01699
 H274 H -0.10157 0.80147 -0.02671
 H275 H -0.21148 0.90227 0.02272
 H276 H -0.26794 0.83404 0.03258
 C277 C -0.38614 1.38206 -0.03396
 C278 C -0.35974 1.33864 -0.03811
 C279 C -0.31786 1.33145 -0.00998
 C280 C -0.30372 1.36793 0.02356
 C281 C -0.33008 1.41112 0.02780
 C282 C -0.37141 1.41892 -0.00109
 C283 C -0.28974 1.28569 -0.01568
 C284 C -0.24161 1.28487 -0.00960
 C285 C -0.21086 1.24086 -0.01439
 C286 C -0.16126 1.24791 -0.02205
 C287 C -0.12958 1.20851 -0.02296
 C288 C -0.14651 1.16066 -0.01573
 C289 C -0.19646 1.15318 -0.00918
 C290 C -0.22844 1.19297 -0.00843
 H291 H -0.41771 1.38699 -0.05689
 H292 H -0.37158 1.31094 -0.06392
 H293 H -0.27272 1.36291 0.04725
 H294 H -0.31857 1.43814 0.05447
 H295 H -0.30868 1.25312 -0.02757
 H296 H -0.22292 1.31894 -0.00241
 H297 H -0.14672 1.28432 -0.02673
 H298 H -0.09148 1.21589 -0.02856
 H299 H -0.21065 1.11684 -0.00329
 H300 H -0.26638 1.18620 -0.00150
 C301 C 0.05578 1.32255 0.41712
 C302 C 0.05384 1.29056 0.37741
 C303 C 0.02365 1.29997 0.33746
 C304 C -0.00439 1.34273 0.33770
 C305 C -0.00244 1.37506 0.37752
 C306 C 0.02709 1.36516 0.41856
 C307 C 0.02086 1.26274 0.29809
 C308 C 0.00343 1.27086 0.25308
 C309 C 0.00107 1.23179 0.21551
 C310 C 0.00450 1.24405 0.16589
 C311 C 0.00341 1.20771 0.12977
 C312 C -0.00160 1.15833 0.14266
 C313 C -0.00625 1.14629 0.19236
 C314 C -0.00520 1.18255 0.22833
 H315 H 0.08108 1.31405 0.44609
 H316 H 0.07617 1.25809 0.37802
 H317 H -0.02920 1.35067 0.30818
 H318 H -0.02643 1.40617 0.37684
 H319 H 0.03555 1.22714 0.30647
 H320 H -0.00708 1.30727 0.24238
 H321 H 0.00878 1.28177 0.15509
 H322 H 0.00679 1.21834 0.09182
 H323 H -0.01094 1.10877 0.20363
 H324 H -0.00993 1.17186 0.26608
 C325 C 0.01726 1.40034 -0.36331
 C326 C 0.01643 1.37474 -0.31927
 C327 C 0.04427 1.33245 -0.31372
 C328 C 0.07616 1.31851 -0.35135
 C329 C 0.07718 1.34422 -0.39528
 C330 C 0.04650 1.38438 -0.40234
 C331 C 0.03711 1.30200 -0.26985
 C332 C 0.03850 1.25322 -0.27264
 C333 C 0.02641 1.22029 -0.23173
 C334 C 0.01407 1.17190 -0.24305
 C335 C 0.00427 1.13860 -0.20604
 C336 C 0.00690 1.15282 -0.15661
 C337 C 0.01842 1.20156 -0.14513
 C338 C 0.02825 1.23499 -0.18232
 H339 H -0.00697 1.43102 -0.36769
 H340 H -0.00801 1.38641 -0.29054
 H341 H 0.09950 1.28710 -0.34734
 H342 H 0.10098 1.33188 -0.42426
 H343 H 0.02532 1.31989 -0.23655
 H344 H 0.04571 1.23612 -0.30774
 H345 H 0.01239 1.15963 -0.28079
 H346 H -0.00450 1.10139 -0.21629
 H347 H 0.02131 1.21356 -0.10741
 H348 H 0.03867 1.27168 -0.17204
 C349 C -0.00415 0.61219 -0.37116
 C350 C -0.00756 0.63852 -0.32742
 C351 C -0.02575 0.68604 -0.32707
 C352 C -0.04355 0.70574 -0.37090
 C353 C -0.04046 0.67943 -0.41476
 C354 C -0.01953 0.63243 -0.41620
 C355 C -0.02408 0.71467 -0.28095
 C356 C -0.01606 0.76286 -0.28095
 C357 C -0.00952 0.79326 -0.23640
 C358 C 0.01181 0.83925 -0.24208
 C359 C 0.01639 0.87100 -0.20244
 C360 C -0.00052 0.85774 -0.15589
 C361 C -0.02053 0.81107 -0.14948
 C362 C -0.02524 0.77908 -0.18948
 H363 H 0.01363 0.57714 -0.36935
 H364 H 0.00622 0.62248 -0.29404
 H365 H -0.05988 0.74160 -0.37145
 H366 H -0.05551 0.69610 -0.44712
 H367 H -0.02471 0.69489 -0.24680
 H368 H -0.01110 0.78099 -0.31572
 H369 H 0.02444 0.85107 -0.27763
 H370 H 0.03243 0.90653 -0.20859
 H371 H -0.03431 0.80010 -0.11411
 H372 H -0.04263 0.74424 -0.18370
 C373 C -0.01105 0.61342 0.36055
 C374 C -0.01147 0.63991 0.31694
 C375 C 0.00735 0.68742 0.31553
 C376 C 0.02913 0.70693 0.35796
 C377 C 0.02961 0.68047 0.40148
 C378 C 0.00867 0.63382 0.40353
 C379 C 0.00338 0.71597 0.26977
 C380 C -0.00170 0.76461 0.27048
 C381 C -0.00704 0.79568 0.22654
 C382 C -0.02298 0.84373 0.23359
 C383 C -0.02556 0.87603 0.19453
 C384 C -0.01206 0.86122 0.14715
 C385 C 0.00261 0.81268 0.13951
 C386 C 0.00534 0.78019 0.17888
 H387 H -0.02753 0.57756 0.36104
 H388 H -0.02792 0.62387 0.28462
 H389 H 0.04588 0.74263 0.35768
 H390 H 0.04634 0.69657 0.43359
 H391 H 0.00126 0.69608 0.23553
 H392 H -0.00391 0.78304 0.30558
 H393 H -0.03284 0.85668 0.26977
 H394 H -0.03745 0.91301 0.20174
 H395 H 0.01359 0.80031 0.10349
 H396 H 0.01862 0.74374 0.17193
   
