data_POSCAR
  _audit_creation_date              2014-09-24
  _audit_creation_method            'ToBaCCo'
  _symmetry_space_group_name_H-M    'P1'
  _symmetry_Int_Tables_number       1
  _symmetry_cell_setting            triclinic
  loop_
  _symmetry_equiv_pos_as_xyz
 x,y,z
_cell_length_a 32.8709
_cell_length_b 9.3553
_cell_length_c 12.5163
_cell_angle_alpha 90.051400
_cell_angle_beta 89.933500
_cell_angle_gamma 84.799800
loop_
  _atom_site_label
  _atom_site_type_symbol
  _atom_site_fract_x
  _atom_site_fract_y
  _atom_site_fract_z
C1 C 0.64147 0.02521 0.59799
 C2 C 0.62145 0.01217 0.50030
 C3 C 0.64197 0.02387 0.40322
 C4 C 0.68416 0.04181 0.40280
 C5 C 0.70502 0.05309 0.50116
 C6 C 0.68378 0.04287 0.59924
 C7 C 0.70497 0.05704 0.69583
 C8 C 0.74598 0.08365 0.69614
 C9 C 0.76718 0.09902 0.59988
 C10 C 0.74655 0.08364 0.50137
 C11 C 0.70554 0.05542 0.30646
 C12 C 0.74650 0.08246 0.30656
 C13 C 0.76742 0.09860 0.40304
 C14 C 0.80872 0.12908 0.40451
 C15 C 0.82830 0.14648 0.50173
 C16 C 0.80851 0.12916 0.59877
 H17 H 0.68985 0.04801 0.77214
 H18 H 0.76083 0.09455 0.77253
 H19 H 0.69064 0.04560 0.23003
 H20 H 0.76154 0.09294 0.23031
 H21 H 0.58850 0.00862 0.49951
 H22 H 0.86040 0.16673 0.50186
 C23 C 0.19294 0.83656 0.59882
 C24 C 0.17354 0.81592 0.50166
 C25 C 0.19272 0.83908 0.40452
 C26 C 0.23277 0.88141 0.40345
 C27 C 0.25293 0.90206 0.50177
 C28 C 0.23304 0.87848 0.60001
 C29 C 0.25358 0.89859 0.69643
 C30 C 0.29330 0.93904 0.69637
 C31 C 0.31366 0.96281 0.59985
 C32 C 0.29295 0.94697 0.50183
 C33 C 0.25301 0.90475 0.30705
 C34 C 0.29268 0.94547 0.30717
 C35 C 0.31323 0.96611 0.40370
 C36 C 0.35434 0.99773 0.40446
 C37 C 0.37413 1.01732 0.50119
 C38 C 0.35488 0.99480 0.59845
 H39 H 0.23927 0.88104 0.77270
 H40 H 0.30808 0.95155 0.77267
 H41 H 0.23851 0.88966 0.23073
 H42 H 0.30724 0.96068 0.23087
 H43 H 0.14217 0.78807 0.50170
 H44 H 0.40663 1.03089 0.50031
 C45 C 0.13660 0.42665 -0.40639
 C46 C 0.11596 0.41972 -0.50349
 C47 C 0.13630 0.42601 -0.60140
 C48 C 0.17853 0.44526 -0.60302
 C49 C 0.19977 0.45513 -0.50477
 C50 C 0.17870 0.44616 -0.40604
 C51 C 0.20044 0.45325 -0.30984
 C52 C 0.24232 0.46639 -0.31017
 C53 C 0.26393 0.47199 -0.40671
 C54 C 0.24251 0.46748 -0.50513
 C55 C 0.20030 0.45130 -0.69961
 C56 C 0.24225 0.46403 -0.69996
 C57 C 0.26402 0.47062 -0.60376
 C58 C 0.30684 0.47805 -0.60243
 C59 C 0.32718 0.48387 -0.50505
 C60 C 0.30658 0.47954 -0.40804
 H61 H 0.18516 0.44842 -0.23341
 H62 H 0.25778 0.47085 -0.23406
 H63 H 0.18495 0.44570 -0.77581
 H64 H 0.25767 0.46745 -0.77630
 H65 H 0.08396 0.39885 -0.50259
 H66 H 0.36014 0.48812 -0.50448
 C67 C -0.30966 0.55558 -0.40560
 C68 C -0.33038 0.56065 -0.50307
 C69 C -0.30949 0.55675 -0.60044
 C70 C -0.26634 0.54696 -0.60142
 C71 C -0.24482 0.54165 -0.50279
 C72 C -0.26654 0.54548 -0.40433
 C73 C -0.24460 0.54173 -0.30783
 C74 C -0.20220 0.53944 -0.30772
 C75 C -0.18023 0.53957 -0.40402
 C76 C -0.20157 0.53760 -0.50254
 C77 C -0.24419 0.54492 -0.69767
 C78 C -0.20177 0.54286 -0.69730
 C79 C -0.17994 0.54145 -0.60068
 C80 C -0.13719 0.54921 -0.59900
 C81 C -0.11659 0.54767 -0.50148
 C82 C -0.13759 0.54727 -0.40465
 H83 H -0.26018 0.54299 -0.23151
 H84 H -0.18669 0.53868 -0.23140
 H85 H -0.25962 0.54742 -0.77413
 H86 H -0.18611 0.54351 -0.77345
 H87 H -0.36361 0.56888 -0.50314
 H88 H -0.08408 0.56111 -0.50060
 O89 O -0.03077 0.70416 0.20236
 O90 O -0.08556 0.78528 0.09832
 C91 C -0.06905 0.71008 0.17638
 O92 O 0.02989 1.28276 0.19269
 O93 O 0.08530 1.19272 0.09379
 C94 C 0.06843 1.27404 0.16837
 O95 O -0.07592 1.16975 0.20280
 O96 O -0.10771 1.01257 0.09739
 C97 C -0.10714 1.10243 0.17605
 O98 O 0.07759 0.79112 0.19437
 O99 O 0.10813 0.95821 0.09490
 C100 C 0.10839 0.86152 0.16917
 Zr101 Zr 0.01713 0.81115 0.13509
 O102 O 0.02166 0.79779 0.30343
 O103 O 0.03575 0.58969 0.12242
 Zr104 Zr -0.01737 1.16516 0.13243
 O105 O -0.01777 1.19847 0.29941
 O106 O -0.04376 1.37794 0.11372
 O107 O -0.03391 0.95750 0.15579
 O108 O 0.03272 1.01831 0.15417
 O109 O 0.07785 0.78751 -0.19062
 O110 O 0.10835 0.95550 -0.09209
 C111 C 0.10867 0.85785 -0.16570
 O112 O -0.07634 1.17022 -0.20006
 O113 O -0.10765 1.01081 -0.09553
 C114 C -0.10732 1.10147 -0.17360
 O115 O 0.02983 1.28042 -0.19326
 O116 O 0.08538 1.19045 -0.09503
 C117 C 0.06839 1.27158 -0.16953
 O118 O -0.03064 0.70421 -0.20026
 O119 O -0.08540 0.78366 -0.09513
 C120 C -0.06886 0.70901 -0.17368
 Zr121 Zr 0.01744 0.80713 -0.13046
 O122 O 0.02240 0.77643 -0.29738
 O123 O 0.03563 0.58646 -0.10901
 Zr124 Zr -0.01707 1.16105 -0.13368
 O125 O -0.01496 1.17548 -0.30227
 O126 O -0.04329 1.37530 -0.12505
 Zr127 Zr -0.05792 0.93330 0.00113
 Zr128 Zr 0.05799 1.03920 0.00056
 O129 O 0.03309 1.01386 -0.15278
 O130 O -0.03359 0.95301 -0.15371
 O131 O 0.05515 0.81485 0.00227
 O132 O -0.05401 1.15655 -0.00049
 O133 O -0.01478 0.75302 0.00250
 O134 O 0.01543 1.22256 -0.00091
 H135 H 0.04862 1.03309 0.21978
 H136 H -0.08003 1.21905 -0.00067
 H137 H 0.04916 1.02792 -0.21829
 H138 H -0.02537 0.65735 0.00269
 H139 H -0.02133 1.43631 0.09471
 H140 H -0.02264 1.43189 -0.09247
 H141 H -0.02358 1.08446 -0.33102
 H142 H 0.01355 0.86986 -0.33054
 H143 H 0.06519 0.57643 -0.09254
 H144 H 0.06430 0.57937 0.09635
 H145 H -0.00089 0.86306 0.33317
 H146 H -0.01193 1.10293 0.33235
 O147 O 0.42323 0.37604 0.19677
 O148 O 0.39196 0.55709 0.09403
 C149 C 0.39217 0.46489 0.17117
 O150 O 0.57713 0.66506 0.19101
 O151 O 0.60803 0.47901 0.09173
 C152 C 0.60809 0.57527 0.16634
 O153 O 0.46803 0.81241 0.20201
 O154 O 0.41392 0.76912 0.09454
 C155 C 0.42992 0.83121 0.17454
 O156 O 0.53007 0.20221 0.19052
 O157 O 0.58541 0.25876 0.09183
 C158 C 0.56862 0.18816 0.16649
 Zr159 Zr 0.48293 0.34988 0.13093
 O160 O 0.48365 0.33017 0.29934
 O161 O 0.46074 0.14678 0.11373
 Zr162 Zr 0.51673 0.68339 0.13052
 O163 O 0.52183 0.70874 0.29758
 O164 O 0.53341 0.89491 0.11130
 O165 O 0.46601 0.56775 0.15260
 O166 O 0.53273 0.46654 0.15118
 O167 O 0.53008 0.20072 -0.19412
 O168 O 0.58545 0.25856 -0.09632
 C169 C 0.56868 0.18733 -0.17061
 O170 O 0.46823 0.81432 -0.20488
 O171 O 0.41401 0.76960 -0.09793
 C172 C 0.43005 0.83244 -0.17755
 O173 O 0.57706 0.66381 -0.19636
 O174 O 0.60802 0.47875 -0.09668
 C175 C 0.60803 0.57432 -0.17166
 O176 O 0.42350 0.37746 -0.20170
 O177 O 0.39207 0.55787 -0.09824
 C178 C 0.39245 0.46623 -0.17586
 Zr179 Zr 0.48293 0.34988 -0.13547
 O180 O 0.48497 0.33219 -0.30399
 O181 O 0.45760 0.15065 -0.12661
 Zr182 Zr 0.51681 0.68327 -0.13473
 O183 O 0.52141 0.70911 -0.30185
 O184 O 0.53469 0.89311 -0.11531
 Zr185 Zr 0.44184 0.60416 -0.00201
 Zr186 Zr 0.55792 0.42781 -0.00226
 O187 O 0.53278 0.46632 -0.15567
 O188 O 0.46607 0.56784 -0.15684
 O189 O 0.51567 0.27082 -0.00225
 O190 O 0.48444 0.75909 -0.00198
 O191 O 0.44614 0.37845 -0.00209
 O192 O 0.55478 0.65431 -0.00214
 H193 H 0.54862 0.44214 0.21685
 H194 H 0.47342 0.86117 -0.00160
 H195 H 0.54869 0.44130 -0.22133
 H196 H 0.42041 0.33080 -0.00216
 H197 H 0.56299 0.88808 0.09497
 H198 H 0.56418 0.88479 -0.09805
 H199 H 0.51288 0.62038 -0.33442
 H200 H 0.47619 0.42825 -0.33320
 H201 H 0.47658 0.08661 -0.08344
 H202 H 0.45786 0.11151 0.18761
 H203 H 0.47641 0.42725 0.32887
 H204 H 0.51215 0.62187 0.33022
 C205 C 0.33109 0.47304 0.30840
 C206 C 0.35700 0.46831 0.23973
 C207 C -0.11587 0.58943 0.31392
 C208 C -0.09525 0.63802 0.24563
 C209 C 0.66705 0.56465 0.30906
 C210 C 0.64239 0.57102 0.23746
 C211 C 0.11522 1.38917 0.30974
 C212 C 0.09468 1.34412 0.23943
 C213 C 0.61745 0.05853 -0.31450
 C214 C 0.59539 0.10631 -0.24353
 C215 C 0.16803 0.83375 -0.30650
 C216 C 0.14310 0.83989 -0.23584
 C217 C 0.37981 0.96138 -0.31656
 C218 C 0.40278 0.91282 -0.24841
 C219 C -0.16748 1.12638 -0.31219
 C220 C -0.14205 1.11829 -0.24280
 C221 C 0.66681 0.56310 -0.31513
 C222 C 0.64223 0.56952 -0.24324
 C223 C 0.11467 1.38790 -0.31169
 C224 C 0.09442 1.34205 -0.24104
 C225 C 0.33190 0.47503 -0.31369
 C226 C 0.35760 0.47033 -0.24490
 C227 C -0.11541 0.58848 -0.31176
 C228 C -0.09497 0.63717 -0.24325
 C229 C 0.38023 0.96272 0.31381
 C230 C 0.40281 0.91233 0.24542
 C231 C -0.16715 1.12667 0.31556
 C232 C -0.14174 1.11894 0.24594
 C233 C 0.61701 0.05810 0.31009
 C234 C 0.59521 0.10672 0.23915
 C235 C 0.16770 0.83758 0.30999
 C236 C 0.14278 0.84409 0.23937
   
