data_POSCAR
  _audit_creation_date              2014-09-24
  _audit_creation_method            'ToBaCCo'
  _symmetry_space_group_name_H-M    'P1'
  _symmetry_Int_Tables_number       1
  _symmetry_cell_setting            triclinic
  loop_
  _symmetry_equiv_pos_as_xyz
 x,y,z
_cell_length_a 27.8988
_cell_length_b 27.9680
_cell_length_c 27.4872
_cell_angle_alpha 89.850400
_cell_angle_beta 89.787800
_cell_angle_gamma 89.649300
loop_
  _atom_site_label
  _atom_site_type_symbol
  _atom_site_fract_x
  _atom_site_fract_y
  _atom_site_fract_z
C1 C 0.16743 0.16504 0.22246
 C2 C 0.14834 0.20793 0.20391
 C3 C 0.16877 0.23006 0.16308
 C4 C 0.20894 0.20905 0.14101
 C5 C 0.22616 0.16362 0.15552
 C6 C 0.20463 0.14195 0.19667
 H7 H 0.11678 0.22361 0.22078
 H8 H 0.22680 0.22888 0.11241
 H9 H 0.21694 0.10726 0.20923
 C10 C -0.16262 0.83870 0.22875
 C11 C -0.14528 0.79495 0.21015
 C12 C -0.16883 0.77150 0.17222
 C13 C -0.21063 0.79219 0.15275
 C14 C -0.23071 0.83382 0.17326
 C15 C -0.20666 0.85663 0.21144
 H16 H -0.11320 0.77887 0.22537
 H17 H -0.22770 0.77574 0.12169
 H18 H -0.22116 0.88974 0.22586
 C19 C -0.15601 0.15916 -0.22321
 C20 C -0.19795 0.13753 -0.20548
 C21 C -0.22111 0.15503 -0.16368
 C22 C -0.20523 0.19752 -0.14225
 C23 C -0.16550 0.22162 -0.16150
 C24 C -0.14053 0.20164 -0.20108
 H25 H -0.21087 0.10492 -0.22201
 H26 H -0.22361 0.21164 -0.11054
 H27 H -0.10944 0.22009 -0.21539
 C28 C 0.16392 0.82912 -0.22337
 C29 C 0.14242 0.79040 -0.19923
 C30 C 0.16096 0.77281 -0.15541
 C31 C 0.20153 0.79398 -0.13506
 C32 C 0.22477 0.83153 -0.15958
 C33 C 0.20795 0.84581 -0.20572
 H34 H 0.11035 0.77432 -0.21400
 H35 H 0.21392 0.78221 -0.09966
 H36 H 0.22666 0.87379 -0.22519
 C37 C 0.16958 1.16506 0.77335
 C38 C 0.21216 1.14894 0.79532
 C39 C 0.23167 1.17301 0.83507
 C40 C 0.20817 1.21332 0.85406
 C41 C 0.16605 1.23067 0.83224
 C42 C 0.14874 1.20802 0.79011
 H43 H 0.23046 1.11747 0.78143
 H44 H 0.22201 1.23029 0.88647
 H45 H 0.11647 1.22171 0.77305
 C46 C 0.83761 0.83655 0.77143
 C47 C 0.79404 0.85421 0.79079
 C48 C 0.77306 0.83292 0.83151
 C49 C 0.79421 0.79214 0.85190
 C50 C 0.83755 0.77325 0.83373
 C51 C 0.85771 0.79434 0.79165
 H52 H 0.77695 0.88549 0.77502
 H53 H 0.77676 0.77547 0.88285
 H54 H 0.89159 0.78089 0.77773
 C55 C 0.16404 0.83540 1.21997
 C56 C 0.13983 0.79660 1.19847
 C57 C 0.15911 0.77228 1.15807
 C58 C 0.20024 0.79032 1.13499
 C59 C 0.22400 0.82956 1.15482
 C60 C 0.20833 0.84864 1.19919
 H61 H 0.10534 0.78520 1.21227
 H62 H 0.21341 0.77423 1.10167
 H63 H 0.23094 0.87478 1.21659
 C64 C 0.83961 1.15815 1.22559
 C65 C 0.79848 1.13632 1.20580
 C66 C 0.77419 1.15727 1.16627
 C67 C 0.78959 1.20148 1.14777
 C68 C 0.83012 1.22346 1.16680
 C69 C 0.85352 1.20295 1.20675
 H70 H 0.78730 1.10140 1.21850
 H71 H 0.77202 1.21708 1.11635
 H72 H 0.88375 1.22172 1.22209
 O73 O 0.43082 0.90936 0.91649
 O74 O 0.37966 0.96118 0.95582
 C75 C 0.38835 0.92573 0.92656
 O76 O 0.56156 0.91428 1.09183
 O77 O 0.61725 0.95362 1.04529
 C78 C 0.60553 0.92364 1.07931
 O79 O 0.42662 0.91702 1.08411
 O80 O 0.37758 0.96293 1.03604
 C81 C 0.38445 0.93076 1.06940
 O82 O 0.56495 0.90387 0.91642
 O83 O 0.61813 0.94721 0.96155
 C84 C 0.60819 0.91424 0.93010
 Zr85 Zr 0.49871 0.93365 0.94010
 O86 O 0.49778 0.85803 0.94446
 O87 O 0.50376 0.93088 0.86316
 Zr88 Zr 0.49577 0.94105 1.06340
 O89 O 0.49249 0.86649 1.07510
 O90 O 0.48929 0.95130 1.13950
 O91 O 0.45441 0.93038 1.00125
 O92 O 0.53805 0.92601 1.00327
 O93 O 0.57296 1.07104 0.90445
 O94 O 0.62229 1.02745 0.95443
 C95 C 0.61506 1.05691 0.91853
 O96 O 0.43607 1.09166 1.07877
 O97 O 0.38250 1.04801 1.03409
 C98 C 0.39287 1.08115 1.06519
 O99 O 0.57064 1.08204 1.08273
 O100 O 0.62156 1.03306 1.03964
 C101 C 0.61329 1.06707 1.07064
 O102 O 0.43971 1.08598 0.90898
 O103 O 0.38425 1.04625 0.95491
 C104 C 0.39587 1.07847 0.92294
 Zr105 Zr 0.50471 1.05385 0.93292
 O106 O 0.51536 1.12831 0.92622
 O107 O 0.50033 1.04742 0.85634
 Zr108 Zr 0.50240 1.06093 1.05618
 O109 O 0.51076 1.13599 1.05096
 O110 O 0.49667 1.06479 1.13289
 Zr111 Zr 0.42919 1.00149 0.99637
 Zr112 Zr 0.57156 0.99315 0.99963
 O113 O 0.54549 1.06373 0.99473
 O114 O 0.46167 1.06932 0.99322
 O115 O 0.54471 0.99077 0.92819
 O116 O 0.45690 1.00367 1.06741
 O117 O 0.45993 0.99587 0.92672
 O118 O 0.54191 0.99894 1.07009
 H119 H 0.55787 0.89657 1.00547
 H120 H 0.43418 1.00574 1.09513
 H121 H 0.56864 1.09041 0.99307
 H122 H 0.43813 0.99677 0.89842
 H123 H 0.52082 0.96163 1.15190
 H124 H 0.52257 1.04474 1.14679
 H125 H 0.48220 1.14916 1.03427
 H126 H 0.49792 1.14347 0.95351
 H127 H 0.52390 1.02272 0.84633
 H128 H 0.47447 0.94525 0.84903
 H129 H 0.47004 0.84882 0.96491
 H130 H 0.49569 0.85129 1.04288
 O131 O -0.08750 0.42658 0.08944
 O132 O -0.04418 0.37700 0.03966
 C133 C -0.07452 0.38419 0.07466
 O134 O -0.09587 0.56457 -0.08608
 O135 O -0.05414 0.61661 -0.03814
 C136 C -0.08497 0.60731 -0.07190
 O137 O -0.09630 0.43073 -0.08179
 O138 O -0.04774 0.37851 -0.03997
 C139 C -0.08174 0.38789 -0.07072
 O140 O -0.09035 0.56174 0.09403
 O141 O -0.05004 0.61604 0.04683
 C142 C -0.08032 0.60529 0.08097
 Zr143 Zr -0.06585 0.49552 0.06482
 O144 O -0.14171 0.49597 0.06669
 O145 O -0.06336 0.49018 0.14163
 Zr146 Zr -0.07164 0.49820 -0.05772
 O147 O -0.14709 0.50167 -0.04899
 O148 O -0.08042 0.49676 -0.13396
 O149 O -0.07656 0.45380 0.00310
 O150 O -0.07881 0.53834 0.00475
 O151 O 0.07571 0.56657 0.08674
 O152 O 0.02878 0.61869 0.04306
 C153 C 0.06110 0.60944 0.07552
 O154 O 0.07742 0.43526 -0.09106
 O155 O 0.03544 0.38111 -0.04507
 C156 C 0.06612 0.39173 -0.07895
 O157 O 0.06941 0.57040 -0.09035
 O158 O 0.02653 0.62018 -0.04019
 C159 C 0.05652 0.61276 -0.07546
 O160 O 0.08331 0.43279 0.08229
 O161 O 0.03930 0.37986 0.03758
 C162 C 0.07138 0.38973 0.07009
 Zr163 Zr 0.05560 0.49923 0.05809
 O164 O 0.13068 0.50559 0.04826
 O165 O 0.06623 0.49734 0.13402
 Zr166 Zr 0.04975 0.50141 -0.06432
 O167 O 0.12524 0.50813 -0.06760
 O168 O 0.04618 0.49831 -0.14120
 Zr169 Zr -0.00571 0.42751 -0.00112
 Zr170 Zr -0.01043 0.56954 0.00179
 O171 O 0.05990 0.54221 -0.00261
 O172 O 0.06338 0.45753 -0.00429
 O173 O -0.00618 0.53948 0.07208
 O174 O -0.01008 0.45866 -0.07084
 O175 O -0.00336 0.45604 0.06969
 O176 O -0.01266 0.54247 -0.06971
 H177 H -0.10749 0.55937 0.00618
 H178 H -0.01076 0.43788 -0.09995
 H179 H 0.08713 0.56480 -0.00317
 H180 H -0.00171 0.43447 0.09827
 H181 H -0.05052 0.50933 -0.14828
 H182 H 0.02843 0.52695 -0.15253
 H183 H 0.13920 0.48125 -0.04884
 H184 H 0.14302 0.47464 0.03594
 H185 H 0.03403 0.49794 0.14902
 H186 H -0.04464 0.51760 0.15373
 H187 H -0.15299 0.46753 0.04886
 H188 H -0.15781 0.47073 -0.03537
 O189 O 1.09010 -0.09053 0.56912
 O190 O 1.04511 -0.04508 0.62204
 C191 C 1.07616 -0.07870 0.61259
 O192 O 1.09430 0.08495 0.43274
 O193 O 1.05063 0.04109 0.37854
 C194 C 1.08131 0.07422 0.38869
 O195 O 1.09906 0.07839 0.56907
 O196 O 1.05202 0.03539 0.62178
 C197 C 1.08632 0.06536 0.61251
 O198 O 1.09250 -0.09132 0.43374
 O199 O 1.05341 -0.04177 0.37990
 C200 C 1.08328 -0.07627 0.39017
 Zr201 Zr 1.06686 -0.06424 0.50068
 O202 O 1.14271 -0.06664 0.49803
 O203 O 1.06254 -0.13973 0.50439
 Zr204 Zr 1.07212 0.05629 0.50093
 O205 O 1.14761 0.04911 0.49565
 O206 O 1.08020 0.13109 0.50669
 O207 O 1.07799 -0.00475 0.54458
 O208 O 1.07889 -0.00378 0.45872
 O209 O 0.92339 -0.08350 0.42912
 O210 O 0.97017 -0.03966 0.37682
 C211 C 0.93767 -0.07158 0.38567
 O212 O 0.92551 0.08792 0.56794
 O213 O 0.96895 0.04191 0.62160
 C214 C 0.93818 0.07559 0.61169
 O215 O 0.92744 0.08898 0.43127
 O216 O 0.97198 0.04340 0.37800
 C217 C 0.94042 0.07646 0.38769
 O218 O 0.91559 -0.08087 0.56547
 O219 O 0.96092 -0.03862 0.61986
 C220 C 0.92683 -0.06835 0.60942
 Zr221 Zr 0.94587 -0.05840 0.49829
 O222 O 0.87036 -0.05500 0.49166
 O223 O 0.94370 -0.13395 0.50310
 Zr224 Zr 0.95075 0.06240 0.49966
 O225 O 0.87500 0.06480 0.49522
 O226 O 0.95399 0.13793 0.50348
 Zr227 Zr 1.00755 -0.00142 0.57242
 Zr228 Zr 1.01026 -0.00019 0.42749
 O229 O 0.94044 0.00269 0.45667
 O230 O 0.93818 0.00211 0.54240
 O231 O 1.00695 -0.07024 0.45571
 O232 O 1.01129 0.06778 0.54238
 O233 O 1.00495 -0.07022 0.54174
 O234 O 1.01242 0.06929 0.45719
 H235 H 1.10752 -0.00383 0.43744
 H236 H 1.01281 0.09591 0.56412
 H237 H 0.91258 0.00363 0.43443
 H238 H 1.00266 -0.09849 0.56339
 H239 H 1.04879 0.14543 0.49869
 H240 H 0.97114 0.14938 0.47414
 H241 H 0.86200 0.04839 0.52430
 H242 H 0.85833 -0.03321 0.51727
 H243 H 0.96226 -0.14693 0.47534
 H244 H 1.04428 -0.15060 0.47574
 H245 H 1.15482 -0.04985 0.52709
 H246 H 1.15889 0.03248 0.52531
 C247 C 1.10777 0.07670 0.30249
 C248 C 1.13092 0.09746 0.26286
 C249 C 1.14788 0.14445 0.26505
 C250 C 1.14168 0.17054 0.30909
 C251 C 1.11733 0.14948 0.34927
 C252 C 1.10270 0.10090 0.34686
 C253 C 1.10709 0.17870 0.38967
 N254 N 1.12471 0.22368 0.39190
 N255 N 1.15161 0.24166 0.35631
 C256 C 1.16097 0.21655 0.31526
 H257 H 1.09394 0.04088 0.29831
 H258 H 1.13380 0.07711 0.22945
 H259 H 1.08414 0.16712 0.41886
 H260 H 1.18403 0.23247 0.28822
 C261 C 0.86392 -0.09850 0.34444
 C262 C 0.83912 -0.11854 0.30565
 C263 C 0.86352 -0.13632 0.26455
 C264 C 0.91415 -0.13034 0.26173
 C265 C 0.93940 -0.11155 0.30206
 C266 C 0.91397 -0.09490 0.34363
 C267 C 0.98961 -0.11063 0.29947
 N268 N 1.01269 -0.12282 0.25782
 N269 N 0.98879 -0.13628 0.21846
 C270 C 0.94041 -0.14007 0.21881
 H271 H 0.84367 -0.08561 0.37552
 H272 H 0.80061 -0.12217 0.30904
 H273 H 1.01067 -0.10107 0.33032
 H274 H 0.92304 -0.14975 0.18523
 C275 C 0.86616 0.10537 0.65515
 C276 C 0.84318 0.12350 0.69629
 C277 C 0.86932 0.13895 0.73705
 C278 C 0.92030 0.13469 0.73586
 C279 C 0.94348 0.11817 0.69299
 C280 C 0.91612 0.10150 0.65321
 C281 C 0.99373 0.11908 0.69124
 N282 N 1.01920 0.13059 0.73136
 N283 N 0.99761 0.14142 0.77315
 C284 C 0.94919 0.14336 0.77696
 H285 H 0.84460 0.09286 0.62509
 H286 H 0.80445 0.12647 0.69560
 H287 H 1.01277 0.11160 0.65803
 H288 H 0.93400 0.15077 0.81234
 C289 C 1.14633 -0.11307 0.65563
 C290 C 1.16797 -0.13403 0.69614
 C291 C 1.14078 -0.14773 0.73711
 C292 C 1.09046 -0.13797 0.73693
 C293 C 1.06832 -0.12026 0.69423
 C294 C 1.09671 -0.10554 0.65420
 C295 C 1.01805 -0.11783 0.69311
 N296 N 0.99213 -0.12588 0.73404
 N297 N 1.01334 -0.13645 0.77597
 C298 C 1.06152 -0.14211 0.77892
 H299 H 1.16868 -0.10207 0.62533
 H300 H 1.20624 -0.14065 0.69465
 H301 H 0.99931 -0.11047 0.65986
 H302 H 1.07673 -0.14848 0.81421
 C303 C 0.34219 1.09854 1.13694
 C304 C 0.30027 1.11623 1.15834
 C305 C 0.26573 1.14176 1.13097
 C306 C 0.27438 1.14751 1.07995
 C307 C 0.31910 1.13342 1.05974
 C308 C 0.35212 1.10686 1.08782
 C309 C 0.32948 1.14650 1.01160
 N310 N 0.29520 1.16732 0.98376
 N311 N 0.25104 1.17476 1.00065
 C312 C 0.23916 1.16445 1.04735
 H313 H 0.36702 1.07790 1.15892
 H314 H 0.29614 1.11116 1.19716
 H315 H 0.36470 1.14066 0.99621
 H316 H 0.20225 1.16931 1.05832
 C317 C 0.34185 0.85333 0.90594
 C318 C 0.30199 0.83079 0.88602
 C319 C 0.26522 0.85744 0.86372
 C320 C 0.26930 0.90810 0.86177
 C321 C 0.31210 0.93010 0.87741
 C322 C 0.34718 0.90297 0.90238
 C323 C 0.31892 0.97855 0.86612
 N324 N 0.28305 1.00422 0.84534
 N325 N 0.24057 0.98497 0.83625
 C326 C 0.23210 0.93806 0.84480
 H327 H 0.36874 0.83185 0.92428
 H328 H 0.30000 0.79217 0.88792
 H329 H 0.35255 0.99608 0.87309
 H330 H 0.19646 0.92485 0.83803
 C331 C 0.68705 0.92462 1.11448
 C332 C 0.72627 0.90335 1.13730
 C333 C 0.72488 0.85550 1.15253
 C334 C 0.68239 0.82895 1.14504
 C335 C 0.64358 0.84959 1.11886
 C336 C 0.64534 0.89855 1.10485
 C337 C 0.60513 0.81968 1.10647
 N338 N 0.60352 0.77417 1.12347
 N339 N 0.63798 0.75630 1.15161
 C340 C 0.67720 0.78219 1.16311
 H341 H 0.68958 0.96184 1.10374
 H342 H 0.75835 0.92435 1.14243
 H343 H 0.57691 0.83132 1.08258
 H344 H 0.70364 0.76623 1.18673
 C345 C 0.65459 1.12728 0.88182
 C346 C 0.69431 1.15151 0.86371
 C347 C 0.73846 1.12814 0.85798
 C348 C 0.74257 1.07917 0.87089
 C349 C 0.70147 1.05387 0.88683
 C350 C 0.65738 1.07859 0.89411
 C351 C 0.70593 1.00436 0.89394
 N352 N 0.74924 0.98257 0.88961
 N353 N 0.78853 1.00695 0.87831
 C354 C 0.78675 1.05451 0.86901
 H355 H 0.62156 1.14716 0.88721
 H356 H 0.69053 1.18893 0.85404
 H357 H 0.67527 0.98264 0.90148
 H358 H 0.81993 1.07246 0.86052
 C359 C 0.10974 0.30950 0.06911
 C360 C 0.13430 0.27181 0.09130
 C361 C 0.14610 0.27326 0.14093
 C362 C 0.13264 0.31395 0.16852
 C363 C 0.10461 0.35065 0.14681
 C364 C 0.09502 0.34945 0.09603
 C365 C 0.08602 0.38665 0.17733
 N366 N 0.09913 0.38854 0.22472
 N367 N 0.12914 0.35654 0.24385
 C368 C 0.14648 0.31946 0.21732
 H369 H 0.10231 0.30748 0.03049
 H370 H 0.14379 0.24093 0.06952
 H371 H 0.06020 0.41245 0.16450
 H372 H 0.17123 0.29499 0.23444
 C373 C -0.11646 0.30661 -0.06790
 C374 C -0.13758 0.26693 -0.08946
 C375 C -0.14838 0.26674 -0.13926
 C376 C -0.13849 0.30801 -0.16757
 C377 C -0.11425 0.34714 -0.14635
 C378 C -0.10459 0.34702 -0.09561
 C379 C -0.09895 0.38421 -0.17737
 N380 N -0.11151 0.38429 -0.22496
 N381 N -0.13780 0.34948 -0.24387
 C382 C -0.15182 0.31145 -0.21683
 H383 H -0.10886 0.30553 -0.02927
 H384 H -0.14458 0.23566 -0.06725
 H385 H -0.07610 0.41243 -0.16481
 H386 H -0.17330 0.28437 -0.23411
 C387 C 0.12755 0.64911 -0.11500
 C388 C 0.15413 0.68790 -0.13163
 C389 C 0.13508 0.73416 -0.12997
 C390 C 0.08858 0.74163 -0.11081
 C391 C 0.06002 0.70200 -0.09729
 C392 C 0.08043 0.65511 -0.09756
 C393 C 0.01168 0.71112 -0.08539
 N394 N -0.00499 0.75667 -0.08247
 N395 N 0.02323 0.79392 -0.09115
 C396 C 0.06949 0.78792 -0.10510
 H397 H 0.14429 0.61407 -0.11550
 H398 H 0.18963 0.68170 -0.14656
 H399 H -0.01350 0.68284 -0.08001
 H400 H 0.09118 0.81928 -0.11111
 C401 C -0.07860 0.68725 0.11485
 C402 C -0.09967 0.72711 0.13669
 C403 C -0.14789 0.72677 0.15135
 C404 C -0.17504 0.68465 0.14414
 C405 C -0.15451 0.64513 0.11897
 C406 C -0.10517 0.64582 0.10567
 C407 C -0.18487 0.60701 0.10682
 N408 N -0.23077 0.60636 0.12316
 N409 N -0.24859 0.64148 0.15045
 C410 C -0.22225 0.68043 0.16166
 H411 H -0.04110 0.68901 0.10462
 H412 H -0.07813 0.75880 0.14173
 H413 H -0.17324 0.57829 0.08363
 H414 H -0.23823 0.70737 0.18463
 C415 C 1.11475 0.13835 0.65353
 C416 C 1.13275 0.16297 0.69343
 C417 C 1.14816 0.13857 0.73542
 C418 C 1.14282 0.08782 0.73729
 C419 C 1.12607 0.06284 0.69583
 C420 C 1.11075 0.08845 0.65411
 C421 C 1.12541 0.01267 0.69747
 N422 N 1.13578 -0.01075 0.73935
 N423 N 1.14707 0.01278 0.77966
 C424 C 1.15062 0.06109 0.78022
 H425 H 1.10282 0.15867 0.62217
 H426 H 1.13609 0.20145 0.69060
 H427 H 1.11744 -0.00800 0.66566
 H428 H 1.15850 0.07798 0.81453
 C429 C 0.89820 -0.14089 0.65262
 C430 C 0.87910 -0.16427 0.69321
 C431 C 0.86112 -0.13845 0.73331
 C432 C 0.86538 -0.08760 0.73278
 C433 C 0.88281 -0.06405 0.69052
 C434 C 0.90058 -0.09089 0.65065
 C435 C 0.88171 -0.01394 0.68947
 N436 N 0.86924 0.01106 0.72977
 N437 N 0.85753 -0.01089 0.77107
 C438 C 0.85565 -0.05921 0.77414
 H439 H 0.91217 -0.16214 0.62282
 H440 H 0.87686 -0.20292 0.69234
 H441 H 0.88992 0.00533 0.65665
 H442 H 0.84745 -0.07480 0.80916
 C443 C 1.10010 -0.14678 0.33858
 C444 C 1.11826 -0.16754 0.29624
 C445 C 1.14495 -0.14081 0.26186
 C446 C 1.15355 -0.09144 0.27270
 C447 C 1.13955 -0.07251 0.31843
 C448 C 1.10930 -0.09902 0.34940
 C449 C 1.15669 -0.02735 0.33188
 N450 N 1.18157 -0.00068 0.29939
 N451 N 1.18816 -0.01527 0.25385
 C452 C 1.17325 -0.05885 0.23899
 H453 H 1.07791 -0.16800 0.36270
 H454 H 1.11187 -0.20533 0.29136
 H455 H 1.15064 -0.01308 0.36781
 H456 H 1.17670 -0.06724 0.20103
 C457 C 0.86631 0.09504 0.34210
 C458 C 0.84195 0.11280 0.30156
 C459 C 0.86654 0.13574 0.26325
 C460 C 0.91771 0.13787 0.26577
 C461 C 0.94167 0.12277 0.30856
 C462 C 0.91601 0.09984 0.34621
 C463 C 0.99097 0.13125 0.31241
 N464 N 1.01586 0.14820 0.27371
 N465 N 0.99448 0.15707 0.23144
 C466 C 0.94653 0.15178 0.22597
 H467 H 0.84612 0.07722 0.37053
 H468 H 0.80323 0.11019 0.30140
 H469 H 1.00952 0.12502 0.34612
 H470 H 0.93163 0.15756 0.19040
 C471 C 0.13894 0.35278 -0.11421
 C472 C 0.16310 0.31357 -0.13439
 C473 C 0.13883 0.27104 -0.14518
 C474 C 0.08889 0.26841 -0.13542
 C475 C 0.06389 0.30952 -0.11868
 C476 C 0.08945 0.35127 -0.10537
 C477 C 0.01366 0.30772 -0.11693
 N478 N -0.00949 0.26616 -0.12554
 N479 N 0.01437 0.22623 -0.13632
 C480 C 0.06273 0.22582 -0.14128
 H481 H 0.15925 0.38427 -0.10471
 H482 H 0.20121 0.31640 -0.14144
 H483 H -0.00724 0.33937 -0.11041
 H484 H 0.08006 0.19214 -0.14942
 C485 C -0.14101 0.34776 0.12245
 C486 C -0.16509 0.30928 0.14352
 C487 C -0.14643 0.26297 0.14008
 C488 C -0.10304 0.25511 0.11448
 C489 C -0.07624 0.29447 0.09680
 C490 C -0.09652 0.34154 0.09879
 C491 C -0.02962 0.28470 0.07924
 N492 N -0.01394 0.23899 0.07438
 N493 N -0.04125 0.20206 0.08664
 C494 C -0.08528 0.20856 0.10644
 H495 H -0.15754 0.38283 0.12477
 H496 H -0.19842 0.31569 0.16283
 H497 H -0.00453 0.31233 0.07102
 H498 H -0.10599 0.17729 0.11581
 C499 C -0.10626 0.65356 -0.14607
 C500 C -0.12195 0.69550 -0.16905
 C501 C -0.14002 0.73428 -0.14187
 C502 C -0.13875 0.73092 -0.09003
 C503 C -0.12654 0.68720 -0.06722
 C504 C -0.10854 0.64881 -0.09533
 C505 C -0.13215 0.68358 -0.01642
 N506 N -0.14308 0.72292 0.01014
 N507 N -0.14872 0.76549 -0.01082
 C508 C -0.14618 0.77083 -0.05979
 H509 H -0.09169 0.62480 -0.16804
 H510 H -0.12165 0.69670 -0.20844
 H511 H -0.12821 0.64983 0.00223
 H512 H -0.14849 0.80626 -0.07472
 C513 C 0.09581 0.69040 0.07074
 C514 C 0.12043 0.72907 0.09009
 C515 C 0.13467 0.72920 0.13891
 C516 C 0.12357 0.68924 0.16885
 C517 C 0.09659 0.65078 0.14966
 C518 C 0.08406 0.65070 0.09965
 C519 C 0.08224 0.61419 0.18172
 N520 N 0.09718 0.61432 0.22858
 N521 N 0.12518 0.64871 0.24570
 C522 C 0.13901 0.68601 0.21748
 H523 H 0.08648 0.69123 0.03250
 H524 H 0.12830 0.75930 0.06672
 H525 H 0.05853 0.58602 0.17048
 H526 H 0.16218 0.71249 0.23338
 C527 C 0.30921 1.08870 0.90629
 C528 C 0.26980 1.11070 0.88498
 C529 C 0.27483 1.15311 0.85884
 C530 C 0.32033 1.17482 0.85546
 C531 C 0.36092 1.15275 0.87774
 C532 C 0.35571 1.10739 0.90137
 C533 C 0.40432 1.17826 0.87682
 N534 N 0.40735 1.22055 0.85279
 N535 N 0.36988 1.23970 0.82997
 C536 C 0.32649 1.21832 0.83052
 H537 H 0.30286 1.05617 0.92665
 H538 H 0.23490 1.09424 0.88875
 H539 H 0.43560 1.16654 0.89604
 H540 H 0.29713 1.23578 0.81185
 C541 C 0.34681 0.85884 1.10608
 C542 C 0.30807 0.83336 1.12492
 C543 C 0.26267 0.85446 1.12791
 C544 C 0.25596 0.90182 1.11068
 C545 C 0.29586 0.92906 1.09494
 C546 C 0.34178 0.90676 1.09101
 C547 C 0.28813 0.97807 1.08538
 N548 N 0.24316 0.99669 1.08656
 N549 N 0.20531 0.96992 1.09731
 C550 C 0.21016 0.92313 1.10927
 H551 H 0.38120 0.84081 1.10347
 H552 H 0.31373 0.79721 1.13802
 H553 H 0.31710 1.00231 1.07851
 H554 H 0.17820 0.90304 1.11784
 C555 C 0.65440 1.09915 1.14362
 C556 C 0.69363 1.11954 1.16704
 C557 C 0.73528 1.13125 1.14106
 C558 C 0.73772 1.12118 1.09057
 C559 C 0.69688 1.10327 1.06630
 C560 C 0.65529 1.09059 1.09334
 C561 C 0.69868 1.10033 1.01532
 N562 N 0.73991 1.10986 0.99102
 N563 N 0.77947 1.12277 1.01429
 C564 C 0.77985 1.12865 1.06320
 H565 H 0.62306 1.08993 1.16498
 H566 H 0.69121 1.12689 1.20566
 H567 H 0.66740 1.09212 0.99452
 H568 H 0.81310 1.13898 1.08013
 C569 C 0.64659 0.87497 0.85840
 C570 C 0.68701 0.85782 0.83355
 C571 C 0.73167 0.85558 0.85662
 C572 C 0.73543 0.87065 0.90550
 C573 C 0.69373 0.88255 0.93217
 C574 C 0.64931 0.88815 0.90764
 C575 C 0.69828 0.88842 0.98270
 N576 N 0.74228 0.88920 1.00347
 N577 N 0.78200 0.88404 0.97700
 C578 C 0.78001 0.87516 0.92860
 H579 H 0.61323 0.87881 0.83870
 H580 H 0.68352 0.84652 0.79608
 H581 H 0.66730 0.89098 1.00583
 H582 H 0.81307 0.87288 0.90820
   
