data_POSCAR
  _audit_creation_date              2014-09-24
  _audit_creation_method            'ToBaCCo'
  _symmetry_space_group_name_H-M    'P1'
  _symmetry_Int_Tables_number       1
  _symmetry_cell_setting            triclinic
  loop_
  _symmetry_equiv_pos_as_xyz
 x,y,z
_cell_length_a 22.3416
_cell_length_b 30.3391
_cell_length_c 7.9580
_cell_angle_alpha 89.958400
_cell_angle_beta 90.501400
_cell_angle_gamma 89.862300
loop_
  _atom_site_label
  _atom_site_type_symbol
  _atom_site_fract_x
  _atom_site_fract_y
  _atom_site_fract_z
O1 O 0.30014 0.30233 0.42304
 O2 O 0.20150 0.20939 0.30645
 O3 O 0.30758 0.21588 0.43900
 O4 O 0.19010 0.29571 0.32184
 O5 O 0.22674 0.30095 0.06605
 O6 O 0.33530 0.21488 0.17602
 O7 O 0.22977 0.21595 0.04467
 O8 O 0.33689 0.30094 0.16697
 Cu9 Cu 0.24633 0.25562 0.39868
 Cu10 Cu 0.28587 0.25838 0.08808
 C11 C 0.33483 0.31798 0.31195
 C12 C 0.19915 0.19636 0.15427
 C13 C 0.34079 0.20026 0.32472
 C14 C 0.18920 0.31277 0.17610
 O15 O 0.83723 0.29762 0.36485
 O16 O 0.72906 0.21041 0.45805
 O17 O 0.84002 0.21155 0.35794
 O18 O 0.72941 0.29627 0.47625
 O19 O 0.69383 0.29632 0.21711
 O20 O 0.80955 0.21558 0.09427
 O21 O 0.69948 0.20959 0.19384
 O22 O 0.80173 0.30221 0.10621
 Cu23 Cu 0.78738 0.25344 0.43991
 Cu24 Cu 0.74807 0.25593 0.12721
 C25 C 0.83571 0.31653 0.22266
 C26 C 0.69552 0.19487 0.34283
 C27 C 0.84403 0.19928 0.20592
 C28 C 0.69278 0.31103 0.36689
 O29 O 0.83473 0.71656 0.70558
 O30 O 0.72504 0.80133 0.59135
 O31 O 0.83057 0.80268 0.72599
 O32 O 0.72569 0.71514 0.59188
 O33 O 0.68819 0.71375 0.84730
 O34 O 0.79600 0.79750 0.98108
 O35 O 0.68922 0.79931 0.84855
 O36 O 0.79629 0.71079 0.95873
 Cu37 Cu 0.78295 0.75922 0.62819
 Cu38 Cu 0.73937 0.75536 0.93424
 C39 C 0.83229 0.69743 0.84696
 C40 C 0.68842 0.81506 0.70029
 C41 C 0.83041 0.81599 0.87784
 C42 C 0.68903 0.69941 0.69772
 O43 O 0.33198 0.79810 0.86394
 O44 O 0.22429 0.70838 0.93315
 O45 O 0.33155 0.71057 0.82700
 O46 O 0.21927 0.79349 0.95832
 O47 O 0.19135 0.80125 0.69403
 O48 O 0.30240 0.71903 0.56557
 O49 O 0.19299 0.71532 0.67079
 O50 O 0.30082 0.80510 0.60204
 Cu51 Cu 0.28068 0.75253 0.92157
 Cu52 Cu 0.24416 0.76072 0.60765
 C53 C 0.33344 0.81802 0.72372
 C54 C 0.19132 0.69570 0.81186
 C55 C 0.33408 0.69890 0.67358
 C56 C 0.18590 0.81169 0.84762
 C57 C 1.04804 0.04366 0.03680
 C58 C 0.98497 0.04479 0.04758
 C59 C 0.95259 0.00549 0.03293
 C60 C 0.98177 -0.03506 0.01003
 C61 C 1.04484 -0.03620 0.00024
 C62 C 1.07722 0.00308 0.01465
 H63 H 1.12567 0.00210 0.00780
 H64 H 0.90413 0.00643 0.03941
 C65 C 0.54705 0.54429 0.55999
 C66 C 0.48382 0.54482 0.55098
 C67 C 0.45331 0.50510 0.52340
 C68 C 0.48451 0.46567 0.49607
 C69 C 0.54750 0.46524 0.50577
 C70 C 0.57816 0.50447 0.53975
 H71 H 0.62666 0.50422 0.54604
 H72 H 0.40482 0.50521 0.51550
 C73 C -0.01713 0.46866 0.07581
 C74 C 0.04522 0.46721 0.05112
 C75 C 0.07576 0.50528 0.00229
 C76 C 0.04485 0.54473 -0.02859
 C77 C -0.01767 0.54631 -0.00616
 C78 C -0.04801 0.50836 0.04746
 H79 H -0.09617 0.50942 0.06282
 H80 H 0.12385 0.50401 -0.01470
 C81 C 0.48124 0.96975 0.57476
 C82 C 0.54389 0.96843 0.55642
 C83 C 0.57492 1.00635 0.50857
 C84 C 0.54457 1.04585 0.47576
 C85 C 0.48106 1.04694 0.48844
 C86 C 0.45042 1.00895 0.53957
 H87 H 0.40204 1.00962 0.54893
 H88 H 0.62331 1.00525 0.49915
 C89 C 1.16284 0.13475 -0.04997
 C90 C 1.16070 0.15784 0.10769
 C91 C 1.12048 0.14318 0.23067
 C92 C 1.08415 0.10683 0.20439
 C93 C 1.08487 0.08416 0.05205
 C94 C 1.12296 0.09861 -0.07832
 C95 C 1.20365 0.14528 -0.17995
 C96 C 1.20206 0.12351 -0.33416
 C97 C 1.16093 0.09018 -0.36323
 C98 C 1.12205 0.07753 -0.23681
 H99 H 1.23844 0.16936 -0.16797
 H100 H 1.23318 0.13254 -0.43193
 H101 H 1.15970 0.07362 -0.48369
 H102 H 1.09107 0.05118 -0.26521
 H103 H 1.11754 0.15952 0.35131
 H104 H 1.05571 0.09583 0.30567
 C105 C 0.62137 0.65647 0.49336
 C106 C 0.64965 0.66180 0.65291
 C107 C 0.64235 0.62906 0.77569
 C108 C 0.60909 0.59139 0.74286
 C109 C 0.58202 0.58505 0.58599
 C110 C 0.58852 0.61724 0.45866
 C111 C 0.62356 0.68941 0.36867
 C112 C 0.59642 0.68326 0.21183
 C113 C 0.56689 0.64406 0.17563
 C114 C 0.56320 0.61115 0.29721
 H115 H 0.64521 0.72036 0.39198
 H116 H 0.59843 0.70898 0.11774
 H117 H 0.54646 0.63922 0.05318
 H118 H 0.54043 0.58099 0.26377
 H119 H 0.66357 0.63223 0.89807
 H120 H 0.60441 0.56685 0.84087
 C121 C -0.11487 0.38781 0.32080
 C122 C -0.12669 0.35597 0.19349
 C123 C -0.10179 0.36178 0.03417
 C124 C -0.06563 0.39791 -0.00005
 C125 C -0.05141 0.42874 0.12456
 C126 C -0.07412 0.42287 0.28840
 C127 C -0.14410 0.38684 0.47767
 C128 C -0.12895 0.41657 0.60389
 C129 C -0.08435 0.44757 0.57775
 C130 C -0.05750 0.45128 0.42081
 H131 H -0.17984 0.36413 0.50443
 H132 H -0.15154 0.41519 0.72350
 H133 H -0.07126 0.46895 0.67983
 H134 H -0.02354 0.47623 0.40389
 H135 H -0.11067 0.33829 -0.06545
 H136 H -0.04911 0.40199 -0.12587
 C137 C 0.38387 0.88937 0.82501
 C138 C 0.37302 0.85679 0.69925
 C139 C 0.39826 0.86231 0.53996
 C140 C 0.43359 0.89862 0.50362
 C141 C 0.44659 0.93028 0.62581
 C142 C 0.42247 0.92562 0.78884
 C143 C 0.35540 0.88824 0.98302
 C144 C 0.36737 0.92018 1.10446
 C145 C 0.40770 0.95390 1.07212
 C146 C 0.43488 0.95690 0.91563
 H147 H 0.32253 0.86369 1.01446
 H148 H 0.34511 0.91877 1.22463
 H149 H 0.41716 0.97816 1.16819
 H150 H 0.46532 0.98400 0.89447
 H151 H 0.38981 0.83854 0.44095
 H152 H 0.44983 0.90245 0.37720
 C153 C -0.11869 0.62632 -0.24839
 C154 C -0.12961 0.65827 -0.12144
 C155 C -0.10354 0.65272 0.03817
 C156 C -0.06636 0.61679 0.07255
 C157 C -0.05318 0.58593 -0.05232
 C158 C -0.07780 0.59128 -0.21558
 C159 C -0.14896 0.62723 -0.40550
 C160 C -0.13503 0.59712 -0.53115
 C161 C -0.09121 0.56538 -0.50343
 C162 C -0.06328 0.56202 -0.34662
 H163 H -0.18463 0.65021 -0.43298
 H164 H -0.15826 0.59856 -0.65095
 H165 H -0.07966 0.54296 -0.60351
 H166 H -0.03016 0.53654 -0.32853
 H167 H -0.11196 0.67641 0.13707
 H168 H -0.04751 0.61304 0.19753
 C169 C 0.41717 1.14397 0.23754
 C170 C 0.38065 1.16494 0.36132
 C171 C 0.37752 1.14511 0.52139
 C172 C 0.40858 1.10641 0.55844
 C173 C 0.44521 1.08635 0.44007
 C174 C 0.44395 1.10231 0.27436
 C175 C 0.42697 1.16176 0.07588
 C176 C 0.44764 1.13517 -0.05304
 C177 C 0.46185 1.09122 -0.02194
 C178 C 0.46456 1.07586 0.14174
 H179 H 0.41977 1.19596 0.04535
 H180 H 0.45321 1.14910 -0.17680
 H181 H 0.47333 1.06932 -0.12318
 H182 H 0.48050 1.04259 0.16262
 H183 H 0.34917 1.15859 0.61857
 H184 H 0.40233 1.09114 0.67928
 C185 C 1.11842 -0.15014 0.05229
 C186 C 1.14533 -0.15446 -0.10900
 C187 C 1.13385 -0.12163 -0.23031
 C188 C 1.10153 -0.08391 -0.19158
 C189 C 1.07817 -0.07769 -0.03129
 C190 C 1.08603 -0.11087 0.09219
 C191 C 1.11926 -0.18478 0.17117
 C192 C 1.09290 -0.17968 0.32837
 C193 C 1.06494 -0.14026 0.37041
 C194 C 1.06171 -0.10601 0.25412
 H195 H 1.13790 -0.21672 0.14215
 H196 H 1.09390 -0.20658 0.41782
 H197 H 1.04478 -0.13643 0.49277
 H198 H 1.03940 -0.07596 0.29133
 H199 H 1.15290 -0.12374 -0.35483
 H200 H 1.09512 -0.05895 -0.28765
 C201 C 0.62474 0.35361 0.57048
 C202 C 0.65128 0.34789 0.40962
 C203 C 0.64131 0.38017 0.28595
 C204 C 0.60713 0.41758 0.31872
 C205 C 0.58241 0.42441 0.47725
 C206 C 0.59145 0.39270 0.60528
 C207 C 0.62907 0.32115 0.69680
 C208 C 0.60309 0.32736 0.85384
 C209 C 0.57283 0.36630 0.88933
 C210 C 0.56769 0.39903 0.76741
 H211 H 0.65128 0.29041 0.67472
 H212 H 0.60647 0.30182 0.94851
 H213 H 0.55278 0.37103 1.01133
 H214 H 0.54385 0.42888 0.80016
 H215 H 0.66148 0.37700 0.16326
 H216 H 0.60053 0.44178 0.21996
 C217 C 0.86672 -0.12669 0.08918
 C218 C 0.86800 -0.14845 -0.07233
 C219 C 0.90859 -0.13277 -0.19336
 C220 C 0.94537 -0.09695 -0.16289
 C221 C 0.94495 -0.07549 -0.00839
 C222 C 0.90686 -0.09073 0.12047
 C223 C 0.82640 -0.13791 0.22010
 C224 C 0.82807 -0.11665 0.37532
 C225 C 0.86900 -0.08334 0.40576
 C226 C 0.90791 -0.07035 0.28023
 H227 H 0.79185 -0.16215 0.20928
 H228 H 0.79707 -0.12605 0.47286
 H229 H 0.87012 -0.06707 0.52675
 H230 H 0.93885 -0.04410 0.31015
 H231 H 0.91174 -0.14782 -0.31639
 H232 H 0.97373 -0.08525 -0.26319
 C233 C 0.38606 0.38992 0.23071
 C234 C 0.37298 0.35657 0.35123
 C235 C 0.39720 0.35990 0.51379
 C236 C 0.43438 0.39480 0.55776
 C237 C 0.45002 0.42676 0.43959
 C238 C 0.42706 0.42405 0.27370
 C239 C 0.35767 0.39155 0.07106
 C240 C 0.37269 0.42380 -0.04613
 C241 C 0.41614 0.45503 -0.00787
 C242 C 0.44299 0.45542 0.15067
 H243 H 0.32234 0.36914 0.03572
 H244 H 0.35048 0.42451 -0.16752
 H245 H 0.42830 0.47955 -0.10032
 H246 H 0.47609 0.48056 0.17627
 H247 H 0.38705 0.33534 0.60823
 H248 H 0.45026 0.39718 0.68598
 C249 C 0.14392 0.62296 -0.28270
 C250 C 0.15128 0.65743 -0.16266
 C251 C 0.12247 0.65425 -0.00727
 C252 C 0.08706 0.61813 0.03146
 C253 C 0.07914 0.58384 -0.08367
 C254 C 0.10709 0.58607 -0.24278
 C255 C 0.17389 0.62313 -0.43866
 C256 C 0.16542 0.58925 -0.55476
 C257 C 0.12816 0.55402 -0.51730
 C258 C 0.09977 0.55204 -0.36234
 H259 H 0.20474 0.64875 -0.47312
 H260 H 0.18828 0.59020 -0.67415
 H261 H 0.12185 0.52779 -0.60790
 H262 H 0.07237 0.52351 -0.33718
 H263 H 0.12795 0.67989 0.08634
 H264 H 0.06673 0.61639 0.15438
 C265 C 0.62930 1.15458 0.54080
 C266 C 0.65506 1.16051 0.37941
 C267 C 0.64260 1.12905 0.25435
 C268 C 0.60586 1.09275 0.28559
 C269 C 0.58147 1.08592 0.44462
 C270 C 0.59620 1.11560 0.57535
 C271 C 0.63334 1.18702 0.66776
 C272 C 0.61110 1.17939 0.82764
 C273 C 0.58580 1.13898 0.86526
 C274 C 0.57929 1.10699 0.74143
 H275 H 0.65185 1.21896 0.64446
 H276 H 0.61417 1.20468 0.92317
 H277 H 0.56964 1.13289 0.99003
 H278 H 0.56162 1.07530 0.77593
 H279 H 0.66371 1.13147 0.13279
 H280 H 0.59763 1.06918 0.18585
 C281 C 0.12019 0.35562 -0.02211
 C282 C 0.14695 0.34908 0.13865
 C283 C 0.13766 0.38034 0.26550
 C284 C 0.10391 0.41805 0.23521
 C285 C 0.07964 0.42618 0.07598
 C286 C 0.08816 0.39537 -0.05518
 C287 C 0.12317 0.32333 -0.14960
 C288 C 0.09747 0.33093 -0.30748
 C289 C 0.06877 0.37074 -0.34184
 C290 C 0.06480 0.40301 -0.21800
 H291 H 0.14367 0.29153 -0.12755
 H292 H 0.09972 0.30577 -0.40358
 H293 H 0.04876 0.37643 -0.46427
 H294 H 0.04194 0.43346 -0.24943
 H295 H 0.15821 0.37618 0.38831
 H296 H 0.09756 0.44155 0.33606
 C297 C 0.62061 0.85724 0.49517
 C298 C 0.64682 0.85156 0.65754
 C299 C 0.63653 0.88343 0.78159
 C300 C 0.60223 0.92069 0.74731
 C301 C 0.57830 0.92771 0.58687
 C302 C 0.58780 0.89639 0.45848
 C303 C 0.62478 0.82466 0.36936
 C304 C 0.59901 0.83101 0.21088
 C305 C 0.56928 0.87015 0.17349
 C306 C 0.56456 0.90298 0.29473
 H307 H 0.64638 0.79361 0.39300
 H308 H 0.60204 0.80540 0.11667
 H309 H 0.54915 0.87494 0.05066
 H310 H 0.54106 0.93296 0.26049
 H311 H 0.65655 0.88005 0.90542
 H312 H 0.59517 0.94472 0.84594
 C313 C 0.91519 0.16018 0.00357
 C314 C 0.88624 0.16330 0.16173
 C315 C 0.89318 0.12887 0.27805
 C316 C 0.92539 0.09111 0.23822
 C317 C 0.95168 0.08627 0.08048
 C318 C 0.94644 0.12071 -0.03916
 C319 C 0.91487 0.19549 -0.11223
 C320 C 0.94132 0.19102 -0.26961
 C321 C 0.96860 0.15152 -0.31465
 C322 C 0.97109 0.11658 -0.20102
 H323 H 0.89555 0.22711 -0.08144
 H324 H 0.94053 0.21832 -0.35733
 H325 H 0.98840 0.14806 -0.43767
 H326 H 0.99237 0.08637 -0.24091
 H327 H 0.87177 0.13048 0.39956
 H328 H 0.92939 0.06508 0.33098
 C329 C 0.36973 0.63774 0.46680
 C330 C 0.37338 0.66087 0.62423
 C331 C 0.41494 0.64595 0.74574
 C332 C 0.45081 0.60919 0.71858
 C333 C 0.44835 0.58632 0.56660
 C334 C 0.40925 0.60136 0.43714
 C335 C 0.32749 0.64839 0.33847
 C336 C 0.32729 0.62657 0.18434
 C337 C 0.36827 0.59325 0.15341
 C338 C 0.40860 0.58052 0.27824
 H339 H 0.29297 0.67265 0.35191
 H340 H 0.29493 0.63561 0.08813
 H341 H 0.36827 0.57672 0.03287
 H342 H 0.43939 0.55426 0.24838
 H343 H 0.41898 0.66223 0.86640
 H344 H 0.47998 0.59788 0.81924
   
