data_POSCAR
  _audit_creation_date              2014-09-24
  _audit_creation_method            'ToBaCCo'
  _symmetry_space_group_name_H-M    'P1'
  _symmetry_Int_Tables_number       1
  _symmetry_cell_setting            triclinic
  loop_
  _symmetry_equiv_pos_as_xyz
 x,y,z
_cell_length_a 44.7821
_cell_length_b 44.9369
_cell_length_c 16.7746
_cell_angle_alpha 89.892400
_cell_angle_beta 90.127800
_cell_angle_gamma 120.014600
loop_
  _atom_site_label
  _atom_site_type_symbol
  _atom_site_fract_x
  _atom_site_fract_y
  _atom_site_fract_z
C1 C 0.49019 0.96934 0.54345
 C2 C 0.48540 0.96941 0.46040
 C3 C 0.49869 1.00068 0.41950
 C4 C 0.51662 1.03196 0.46045
 C5 C 0.52142 1.03192 0.54369
 C6 C 0.50812 1.00058 0.58455
 H7 H 0.51161 1.00052 0.64865
 H8 H 0.49510 1.00060 0.35545
 C9 C 0.03179 0.51494 0.53673
 C10 C 0.03054 0.51838 0.45353
 C11 C -0.00141 0.50424 0.41469
 C12 C -0.03216 0.48702 0.45826
 C13 C -0.03086 0.48410 0.54172
 C14 C 0.00109 0.49795 0.58036
 H15 H 0.00206 0.49563 0.64458
 H16 H -0.00228 0.50672 0.35046
 C17 C 0.48426 0.51479 0.54677
 C18 C 0.48051 0.51202 0.46322
 C19 C 0.49385 0.49457 0.42037
 C20 C 0.51115 0.48009 0.45982
 C21 C 0.51551 0.48344 0.54323
 C22 C 0.50186 0.50062 0.58623
 H23 H 0.50491 0.50293 0.65058
 H24 H 0.49077 0.49228 0.35610
 O25 O 0.38729 0.66880 -0.08379
 O26 O 0.38893 0.72736 -0.06272
 C27 C 0.36892 0.73286 -0.10608
 O28 O 0.33640 0.71641 -0.09931
 O29 O 0.27676 0.66017 -0.07779
 C30 C 0.27152 0.63304 -0.11316
 O31 O 0.28763 0.61736 -0.09681
 O32 O 0.34367 0.61553 -0.06182
 C33 C 0.37134 0.63677 -0.09708
 O34 O 0.38467 0.65878 0.07447
 O35 O 0.38312 0.71588 0.09528
 C36 C 0.36773 0.73293 0.10207
 O37 O 0.34244 0.72809 0.05864
 O38 O 0.28441 0.67042 0.08022
 C39 C 0.26743 0.63842 0.09366
 O40 O 0.27322 0.61667 0.05914
 O41 O 0.33039 0.61702 0.09425
 C42 C 0.36222 0.63210 0.11059
 Cr43 Cr 0.38408 0.69176 0.00556
 Cr44 Cr 0.31095 0.69280 -0.00933
 Cr45 Cr 0.30973 0.61858 -0.00130
 O46 O 0.33489 0.66767 -0.00169
 O47 O 0.61493 0.33942 -0.07375
 O48 O 0.61872 0.28355 -0.09589
 C49 C 0.63496 0.26735 -0.10307
 O50 O 0.66062 0.27302 -0.06005
 O51 O 0.71739 0.33187 -0.08200
 C52 C 0.73328 0.36390 -0.09542
 O53 O 0.72678 0.38497 -0.05989
 O54 O 0.66854 0.38260 -0.09344
 C55 C 0.63665 0.36668 -0.10927
 O56 O 0.61284 0.32913 0.08419
 O57 O 0.61356 0.27180 0.06208
 C58 C 0.63426 0.26720 0.10514
 O59 O 0.66674 0.28452 0.09790
 O60 O 0.72531 0.34195 0.07599
 C61 C 0.72962 0.36861 0.11202
 O62 O 0.71252 0.38335 0.09650
 O63 O 0.65526 0.38306 0.06286
 C64 C 0.62778 0.36111 0.09769
 Cr65 Cr 0.61694 0.30696 -0.00564
 Cr66 Cr 0.69152 0.30877 0.00776
 Cr67 Cr 0.68985 0.38156 0.00152
 O68 O 0.66612 0.33248 0.00123
 C69 C 0.41591 0.81829 -0.24681
 C70 C 0.42737 0.81877 -0.32563
 C71 C 0.44504 0.85038 -0.36795
 C72 C 0.45007 0.88107 -0.33218
 C73 C 0.43932 0.88072 -0.25272
 C74 C 0.42237 0.84928 -0.20973
 C75 C 0.41226 0.84967 -0.12992
 C76 C 0.41870 0.88021 -0.09376
 C77 C 0.43513 0.91092 -0.13598
 C78 C 0.44532 0.91132 -0.21459
 C79 C 0.45735 0.85046 -0.44561
 C80 C 0.45153 0.82003 -0.48134
 C81 C 0.43358 0.78902 -0.44062
 C82 C 0.42169 0.78826 -0.36349
 C83 C 0.46523 0.91280 -0.37763
 C84 C 0.47717 0.93929 -0.41477
 C85 C 0.39837 0.78633 -0.20233
 C86 C 0.38437 0.76101 -0.16105
 H87 H 0.39939 0.82647 -0.09448
 H88 H 0.41090 0.88003 -0.03263
 H89 H 0.44008 0.93459 -0.10763
 H90 H 0.45819 0.93590 -0.24479
 H91 H 0.47131 0.87394 -0.47972
 H92 H 0.46075 0.82050 -0.54119
 H93 H 0.42895 0.76543 -0.46882
 H94 H 0.40807 0.76358 -0.33388
 C95 C 0.18647 0.58816 -0.25622
 C96 C 0.15570 0.58231 -0.21849
 C97 C 0.12405 0.56626 -0.26123
 C98 C 0.12327 0.55586 -0.34119
 C99 C 0.15381 0.56070 -0.37806
 C100 C 0.18562 0.57740 -0.33585
 C101 C 0.21597 0.58288 -0.37468
 C102 C 0.21488 0.57184 -0.45280
 C103 C 0.18366 0.55490 -0.49352
 C104 C 0.15337 0.54918 -0.45671
 C105 C 0.09367 0.56082 -0.22238
 C106 C 0.09451 0.57081 -0.14344
 C107 C 0.12543 0.58644 -0.10155
 C108 C 0.15574 0.59220 -0.13829
 C109 C 0.09116 0.54096 -0.38565
 C110 C 0.06422 0.52899 -0.42140
 C111 C 0.21859 0.60458 -0.21164
 C112 C 0.24382 0.61791 -0.16965
 H113 H 0.24080 0.59574 -0.34513
 H114 H 0.23835 0.57633 -0.48177
 H115 H 0.18292 0.54631 -0.55413
 H116 H 0.12971 0.53597 -0.49080
 H117 H 0.06894 0.54864 -0.25233
 H118 H 0.07102 0.56635 -0.11461
 H119 H 0.12596 0.59414 -0.04020
 H120 H 0.17911 0.60444 -0.10301
 C121 C 0.41518 0.59620 -0.24169
 C122 C 0.40001 0.57971 -0.31462
 C123 C 0.41409 0.56235 -0.35750
 C124 C 0.44387 0.56248 -0.32838
 C125 C 0.45951 0.57965 -0.25640
 C126 C 0.44506 0.59646 -0.21276
 C127 C 0.46096 0.61317 -0.14048
 C128 C 0.49031 0.61329 -0.11225
 C129 C 0.50447 0.59690 -0.15502
 C130 C 0.48936 0.58023 -0.22631
 C131 C 0.39782 0.54509 -0.42895
 C132 C 0.36915 0.54592 -0.45859
 C133 C 0.35576 0.56342 -0.41737
 C134 C 0.37078 0.58000 -0.34589
 C135 C 0.45857 0.54521 -0.37267
 C136 C 0.47077 0.53095 -0.40989
 C137 C 0.39924 0.61140 -0.19411
 C138 C 0.38627 0.62337 -0.15155
 H139 H 0.45099 0.62638 -0.10516
 H140 H 0.50214 0.62621 -0.05689
 H141 H 0.52727 0.59707 -0.13285
 H142 H 0.50130 0.56779 -0.25737
 H143 H 0.40729 0.53114 -0.46312
 H144 H 0.35735 0.53300 -0.51396
 H145 H 0.33352 0.56405 -0.44069
 H146 H 0.35938 0.59315 -0.31571
 C147 C 0.59709 0.18228 -0.24446
 C148 C 0.57272 0.15105 -0.20767
 C149 C 0.55852 0.11975 -0.25102
 C150 C 0.56907 0.11979 -0.33051
 C151 C 0.59466 0.15072 -0.36593
 C152 C 0.60828 0.18218 -0.32328
 C153 C 0.63300 0.21294 -0.36081
 C154 C 0.64435 0.21256 -0.43793
 C155 C 0.63160 0.18170 -0.47897
 C156 C 0.60710 0.15104 -0.44355
 C157 C 0.53405 0.08890 -0.21319
 C158 C 0.52413 0.08892 -0.13452
 C159 C 0.53814 0.11949 -0.09195
 C160 C 0.56209 0.15027 -0.12782
 C161 C 0.55270 0.08820 -0.37640
 C162 C 0.53830 0.06184 -0.41396
 C163 C 0.61121 0.21410 -0.19966
 C164 C 0.62235 0.23931 -0.15819
 H165 H 0.64383 0.23751 -0.33095
 H166 H 0.66322 0.23633 -0.46588
 H167 H 0.64052 0.18152 -0.53880
 H168 H 0.59783 0.12767 -0.47788
 H169 H 0.52256 0.06442 -0.24367
 H170 H 0.50552 0.06507 -0.10640
 H171 H 0.53043 0.11938 -0.03077
 H172 H 0.57220 0.17335 -0.09212
 C173 C 0.81656 0.40546 -0.24417
 C174 C 0.83280 0.44098 -0.26208
 C175 C 0.86419 0.45694 -0.30562
 C176 C 0.87919 0.43729 -0.33074
 C177 C 0.86252 0.40162 -0.31454
 C178 C 0.83103 0.38562 -0.27132
 C179 C 0.81472 0.34989 -0.25615
 C180 C 0.82909 0.33049 -0.28309
 C181 C 0.85991 0.34614 -0.32531
 C182 C 0.87658 0.38130 -0.34092
 C183 C 0.87999 0.49249 -0.32277
 C184 C 0.86520 0.51173 -0.29753
 C185 C 0.83452 0.49614 -0.25481
 C186 C 0.81839 0.46118 -0.23709
 C187 C 0.91149 0.45372 -0.37416
 C188 C 0.93799 0.46747 -0.41147
 C189 C 0.78597 0.38982 -0.19447
 C190 C 0.76137 0.37753 -0.15072
 H191 H 0.79065 0.33656 -0.22377
 H192 H 0.81622 0.30316 -0.27117
 H193 H 0.87095 0.33095 -0.34614
 H194 H 0.90044 0.39230 -0.37420
 H195 H 0.90388 0.50578 -0.35583
 H196 H 0.87762 0.53889 -0.31119
 H197 H 0.82312 0.51119 -0.23535
 H198 H 0.79450 0.45020 -0.20395
 C199 C 0.59589 0.41115 -0.25152
 C200 C 0.57077 0.41665 -0.21379
 C201 C 0.55509 0.43261 -0.25641
 C202 C 0.56484 0.44329 -0.33622
 C203 C 0.59077 0.43884 -0.37304
 C204 C 0.60594 0.42220 -0.33099
 C205 C 0.63103 0.41709 -0.36981
 C206 C 0.64116 0.42847 -0.44773
 C207 C 0.62686 0.44538 -0.48826
 C208 C 0.60205 0.45071 -0.45148
 C209 C 0.52995 0.43771 -0.21757
 C210 C 0.52069 0.42749 -0.13872
 C211 C 0.53607 0.41195 -0.09693
 C212 C 0.56080 0.40651 -0.13370
 C213 C 0.54759 0.45812 -0.38063
 C214 C 0.53268 0.47007 -0.41658
 C215 C 0.61170 0.39485 -0.20707
 C216 C 0.62378 0.38165 -0.16534
 H217 H 0.64303 0.40428 -0.34039
 H218 H 0.66031 0.42426 -0.47669
 H219 H 0.63485 0.45423 -0.54870
 H220 H 0.59158 0.46390 -0.48544
 H221 H 0.51733 0.44980 -0.24744
 H222 H 0.50152 0.43169 -0.10988
 H223 H 0.52883 0.40409 -0.03566
 H224 H 0.57198 0.39433 -0.09852
 C225 C 0.81364 0.41546 0.25813
 C226 C 0.84354 0.44325 0.22403
 C227 C 0.87525 0.45858 0.26658
 C228 C 0.87690 0.44602 0.34296
 C229 C 0.84682 0.41874 0.37784
 C230 C 0.81506 0.40351 0.33536
 C231 C 0.78534 0.37629 0.37126
 C232 C 0.78694 0.36439 0.44702
 C233 C 0.81800 0.37913 0.48840
 C234 C 0.84770 0.40598 0.45448
 C235 C 0.90483 0.48615 0.23101
 C236 C 0.90314 0.49825 0.15555
 C237 C 0.87214 0.48327 0.11391
 C238 C 0.84261 0.45609 0.14743
 C239 C 0.90966 0.46088 0.38481
 C240 C 0.93701 0.47324 0.41896
 C241 C 0.78211 0.39819 0.21153
 C242 C 0.75720 0.38427 0.16869
 H243 H 0.76061 0.36403 0.34129
 H244 H 0.76397 0.34356 0.47368
 H245 H 0.81906 0.36961 0.54699
 H246 H 0.87128 0.41653 0.48876
 H247 H 0.92955 0.49867 0.26103
 H248 H 0.92602 0.51936 0.12927
 H249 H 0.87095 0.49276 0.05531
 H250 H 0.81910 0.44538 0.11272
 C251 C 0.58937 0.18225 0.24772
 C252 C 0.57794 0.18193 0.32650
 C253 C 0.56066 0.15048 0.36952
 C254 C 0.55604 0.11981 0.33451
 C255 C 0.56680 0.11999 0.25514
 C256 C 0.58332 0.15126 0.21143
 C257 C 0.59342 0.15069 0.13169
 C258 C 0.58736 0.12014 0.09628
 C259 C 0.57135 0.08960 0.13921
 C260 C 0.56120 0.08938 0.21778
 C261 C 0.54833 0.15054 0.44707
 C262 C 0.55379 0.18097 0.48207
 C263 C 0.57136 0.21184 0.44068
 C264 C 0.58324 0.21245 0.36360
 C265 C 0.54119 0.08825 0.38059
 C266 C 0.52947 0.06190 0.41820
 C267 C 0.60629 0.21401 0.20238
 C268 C 0.61967 0.23919 0.16054
 H269 H 0.60597 0.17376 0.09573
 H270 H 0.59512 0.12018 0.03518
 H271 H 0.56670 0.06592 0.11145
 H272 H 0.54867 0.06492 0.24854
 H273 H 0.53465 0.12716 0.48167
 H274 H 0.54457 0.18061 0.54186
 H275 H 0.57570 0.23544 0.46830
 H276 H 0.59656 0.23703 0.33346
 C277 C 0.58123 0.39997 0.23868
 C278 C 0.57531 0.42517 0.20299
 C279 C 0.55960 0.44044 0.24779
 C280 C 0.54957 0.43017 0.32768
 C281 C 0.55416 0.40396 0.36225
 C282 C 0.57058 0.38922 0.31806
 C283 C 0.57594 0.36388 0.35473
 C284 C 0.56500 0.35311 0.43260
 C285 C 0.54830 0.36702 0.47523
 C286 C 0.54274 0.39206 0.44061
 C287 C 0.55418 0.46576 0.21108
 C288 C 0.56383 0.47556 0.13219
 C289 C 0.57908 0.46055 0.08825
 C290 C 0.58485 0.43566 0.12291
 C291 C 0.53550 0.44732 0.37478
 C292 C 0.52429 0.46211 0.41351
 C293 C 0.59798 0.38509 0.19287
 C294 C 0.61177 0.37362 0.15146
 H295 H 0.58858 0.35215 0.32366
 H296 H 0.56938 0.33378 0.45987
 H297 H 0.53979 0.35853 0.53563
 H298 H 0.52973 0.40219 0.47616
 H299 H 0.54226 0.47809 0.24269
 H300 H 0.55938 0.49487 0.10498
 H301 H 0.58648 0.46820 0.02693
 H302 H 0.59676 0.42474 0.08614
 C303 C 0.18145 0.59881 0.23358
 C304 C 0.18130 0.60955 0.31278
 C305 C 0.14997 0.59462 0.35661
 C306 C 0.11923 0.56827 0.32184
 C307 C 0.11925 0.55797 0.24216
 C308 C 0.15041 0.57341 0.19773
 C309 C 0.14971 0.56287 0.11786
 C310 C 0.11914 0.53778 0.08304
 C311 C 0.08870 0.52262 0.12661
 C312 C 0.08860 0.53246 0.20529
 C313 C 0.15022 0.60648 0.43482
 C314 C 0.18074 0.63169 0.46962
 C315 C 0.21151 0.64579 0.42733
 C316 C 0.21192 0.63505 0.34964
 C317 C 0.08781 0.55105 0.36854
 C318 C 0.06170 0.53627 0.40713
 C319 C 0.21324 0.61394 0.18808
 C320 C 0.23868 0.62564 0.14700
 H321 H 0.17269 0.57391 0.08137
 H322 H 0.11909 0.53009 0.02189
 H323 H 0.06501 0.50315 0.09928
 H324 H 0.06423 0.52001 0.23662
 H325 H 0.12693 0.59618 0.47014
 H326 H 0.18053 0.64015 0.52990
 H327 H 0.23518 0.66526 0.45475
 H328 H 0.23642 0.64692 0.31884
 C329 C 0.40724 0.81772 0.24474
 C330 C 0.43204 0.84887 0.20842
 C331 C 0.44670 0.88006 0.25228
 C332 C 0.43618 0.88000 0.33183
 C333 C 0.41029 0.84915 0.36690
 C334 C 0.39619 0.81779 0.32371
 C335 C 0.37114 0.78710 0.36087
 C336 C 0.35996 0.78745 0.43819
 C337 C 0.37319 0.81823 0.47977
 C338 C 0.39799 0.84883 0.44470
 C339 C 0.47159 0.91084 0.21490
 C340 C 0.48149 0.91084 0.13620
 C341 C 0.46704 0.88037 0.09314
 C342 C 0.44266 0.84967 0.12855
 C343 C 0.45282 0.91150 0.37802
 C344 C 0.46737 0.93781 0.41570
 C345 C 0.39253 0.78603 0.19930
 C346 C 0.38090 0.76091 0.15744
 H347 H 0.35994 0.76258 0.33059
 H348 H 0.34084 0.76372 0.46585
 H349 H 0.36439 0.81839 0.53974
 H350 H 0.40762 0.87213 0.47945
 H351 H 0.48344 0.93524 0.24577
 H352 H 0.50042 0.93464 0.10844
 H353 H 0.47474 0.88051 0.03195
 H354 H 0.43221 0.82667 0.09247
 C355 C 0.39875 0.58578 0.25987
 C356 C 0.41596 0.60027 0.33258
 C357 C 0.43280 0.58520 0.37416
 C358 C 0.43151 0.55517 0.34383
 C359 C 0.41331 0.54002 0.27250
 C360 C 0.39697 0.55541 0.23027
 C361 C 0.37926 0.53999 0.15854
 C362 C 0.37771 0.51022 0.12950
 C363 C 0.39367 0.49516 0.17089
 C364 C 0.41130 0.50977 0.24159
 C365 C 0.45077 0.60077 0.44544
 C366 C 0.45115 0.62975 0.47616
 C367 C 0.43422 0.64416 0.43614
 C368 C 0.41696 0.62982 0.36484
 C369 C 0.44888 0.53985 0.38575
 C370 C 0.46326 0.52707 0.42053
 C371 C 0.38481 0.60306 0.21238
 C372 C 0.37402 0.61680 0.16848
 H373 H 0.36630 0.55063 0.12430
 H374 H 0.36404 0.49877 0.07460
 H375 H 0.39240 0.47203 0.14809
 H376 H 0.42332 0.49710 0.27158
 H377 H 0.46433 0.59050 0.47867
 H378 H 0.46460 0.64101 0.53141
 H379 H 0.43456 0.66665 0.46028
 H380 H 0.40425 0.64197 0.33561
   
