data_POSCAR
  _audit_creation_date              2014-09-24
  _audit_creation_method            'ToBaCCo'
  _symmetry_space_group_name_H-M    'P1'
  _symmetry_Int_Tables_number       1
  _symmetry_cell_setting            triclinic
  loop_
  _symmetry_equiv_pos_as_xyz
 x,y,z
_cell_length_a 28.6227
_cell_length_b 28.5685
_cell_length_c 32.0113
_cell_angle_alpha 90.021000
_cell_angle_beta 90.006000
_cell_angle_gamma 120.076300
loop_
  _atom_site_label
  _atom_site_type_symbol
  _atom_site_fract_x
  _atom_site_fract_y
  _atom_site_fract_z
C1 C -0.00060 0.50106 1.36142
 C2 C 0.04872 0.52039 1.34027
 C3 C 0.04800 0.52124 1.29627
 C4 C 0.00024 0.50774 1.27378
 C5 C -0.04789 0.49088 1.29670
 C6 C -0.04953 0.48455 1.34039
 C7 C 0.00042 0.51088 1.22660
 C8 C -0.04803 0.48198 1.20343
 C9 C -0.04842 0.48530 1.15964
 C10 C 0.00117 0.51226 1.13869
 C11 C 0.05027 0.54065 1.16024
 C12 C 0.04912 0.54181 1.20414
 H13 H -0.00094 0.49907 1.39528
 H14 H 0.08459 0.53266 1.27954
 H15 H -0.08377 0.48328 1.28047
 H16 H -0.08531 0.45518 1.21904
 H17 H 0.00159 0.51089 1.10486
 H18 H 0.08619 0.56610 1.22067
 C19 C 0.49784 0.49802 1.36128
 C20 C 0.47238 0.52222 1.34018
 C21 C 0.46660 0.51571 1.29650
 C22 C 0.49283 0.49312 1.27341
 C23 C 0.52177 0.47325 1.29614
 C24 C 0.52090 0.47152 1.34009
 C25 C 0.49035 0.49058 1.22604
 C26 C 0.50773 0.45939 1.20331
 C27 C 0.51030 0.46088 1.15942
 C28 C 0.49040 0.48999 1.13802
 C29 C 0.46814 0.51719 1.15905
 C30 C 0.47144 0.52006 1.20286
 H31 H 0.49952 0.49958 1.39514
 H32 H 0.44052 0.52707 1.28098
 H33 H 0.54618 0.46032 1.28002
 H34 H 0.52007 0.43455 1.21941
 H35 H 0.49233 0.49158 1.10419
 H36 H 0.46092 0.54683 1.21832
 C37 C 0.50213 1.00113 1.36410
 C38 C 0.47131 0.95217 1.34264
 C39 C 0.47311 0.95273 1.29879
 C40 C 0.50793 1.00038 1.27646
 C41 C 0.54002 1.04833 1.29941
 C42 C 0.53589 1.04999 1.34316
 C43 C 0.51053 1.00034 1.22938
 C44 C 0.52993 1.04903 1.20645
 C45 C 0.53316 1.04946 1.16271
 C46 C 0.51081 1.00003 1.14168
 C47 C 0.49027 0.95088 1.16294
 C48 C 0.49255 0.95160 1.20678
 H49 H 0.49998 1.00115 1.39791
 H50 H 0.44774 0.91588 1.28221
 H51 H 0.56809 1.08423 1.28304
 H52 H 0.54072 1.08635 1.22219
 H53 H 0.50910 0.99982 1.10783
 H54 H 0.47970 0.91427 1.22308
 C55 C 1.00042 0.49976 0.63962
 C56 C 0.95119 0.47340 0.66090
 C57 C 0.95181 0.47383 0.70471
 C58 C 1.00067 0.49361 0.72738
 C59 C 1.04952 0.51671 0.70426
 C60 C 1.05011 0.52356 0.66063
 C61 C 1.00062 0.49039 0.77466
 C62 C 1.04899 0.51958 0.79790
 C63 C 1.04936 0.51627 0.84166
 C64 C 0.99990 0.48901 0.86264
 C65 C 0.95092 0.46015 0.84116
 C66 C 0.95203 0.45902 0.79728
 H67 H 0.99993 0.50132 0.60578
 H68 H 0.91412 0.45962 0.72060
 H69 H 1.08702 0.52801 0.71967
 H70 H 1.08631 0.54656 0.78256
 H71 H 0.99952 0.49046 0.89647
 H72 H 0.91482 0.43443 0.78114
 C73 C 0.50035 0.50004 0.63937
 C74 C 0.53310 0.48414 0.66026
 C75 C 0.53798 0.49011 0.70386
 C76 C 0.50686 0.50702 0.72696
 C77 C 0.47237 0.52038 0.70462
 C78 C 0.47063 0.51921 0.66075
 C79 C 0.51023 0.51046 0.77404
 C80 C 0.49251 0.54140 0.79648
 C81 C 0.49053 0.54051 0.84036
 C82 C 0.51148 0.51236 0.86188
 C83 C 0.53412 0.48546 0.84087
 C84 C 0.53013 0.48188 0.79713
 H85 H 0.49835 0.49786 0.60555
 H86 H 0.56616 0.48187 0.71964
 H87 H 0.44713 0.53199 0.72109
 H88 H 0.47943 0.56542 0.77994
 H89 H 0.50981 0.51109 0.89571
 H90 H 0.54063 0.45510 0.78150
 C91 C 0.49828 -0.00130 0.63602
 C92 C 0.51418 0.04745 0.65716
 C93 C 0.50862 0.04607 0.70081
 C94 C 0.49198 -0.00202 0.72381
 C95 C 0.47831 -0.04994 0.70130
 C96 C 0.47955 -0.05069 0.65725
 C97 C 0.48945 -0.00190 0.77107
 C98 C 0.45885 -0.05059 0.79386
 C99 C 0.46038 -0.05137 0.83788
 C100 C 0.48919 -0.00174 0.85890
 C101 C 0.51602 0.04762 0.83773
 C102 C 0.51860 0.04691 0.79396
 H103 H 0.50020 -0.00066 0.60219
 H104 H 0.51712 0.08246 0.71681
 H105 H 0.46620 -0.08675 0.71803
 H106 H 0.43442 -0.08772 0.77739
 H107 H 0.49104 -0.00145 0.89276
 H108 H 0.54488 0.08422 0.77815
 O109 O 0.41227 0.67302 0.95014
 O110 O 0.41508 0.76448 0.96579
 C111 C 0.38126 0.77209 0.94543
 O112 O 0.33086 0.74470 0.95187
 O113 O 0.23996 0.65601 0.96795
 C114 C 0.23146 0.61457 0.94710
 O115 O 0.25896 0.59132 0.95213
 O116 O 0.34836 0.58893 0.96594
 C117 C 0.38955 0.62229 0.94500
 O118 O 0.41662 0.65611 1.03220
 O119 O 0.41433 0.74472 1.04811
 C120 C 0.39125 0.77203 1.05454
 O121 O 0.34983 0.76447 1.03420
 O122 O 0.26103 0.67324 1.05001
 C123 C 0.23312 0.62254 1.05542
 O124 O 0.24107 0.58909 1.03473
 O125 O 0.33304 0.59178 1.04857
 C126 C 0.38383 0.61494 1.05337
 Cr127 Cr 0.41175 0.70822 0.99909
 Cr128 Cr 0.29688 0.70824 1.00098
 Cr129 Cr 0.29674 0.59305 1.00033
 O130 O 0.33508 0.66979 1.00013
 O131 O 0.58496 0.34438 0.96544
 O132 O 0.58835 0.25583 0.95034
 C133 C 0.61146 0.22821 0.94538
 O134 O 0.65194 0.23593 0.96706
 O135 O 0.74119 0.32727 0.95221
 C136 C 0.76853 0.37795 0.94625
 O137 O 0.76003 0.41154 0.96624
 O138 O 0.66879 0.40977 0.95131
 C139 C 0.61818 0.38643 0.94545
 O140 O 0.58616 0.32739 1.04759
 O141 O 0.58430 0.23616 1.03284
 C142 C 0.61720 0.22872 1.05454
 O143 O 0.66792 0.25622 1.04949
 O144 O 0.75986 0.34453 1.03432
 C145 C 0.76861 0.38643 1.05453
 O146 O 0.74123 0.40965 1.04881
 O147 O 0.65185 0.41161 1.03386
 C148 C 0.60964 0.37805 1.05373
 Cr149 Cr 0.58883 0.29234 0.99906
 Cr150 Cr 0.70374 0.29239 1.00076
 Cr151 Cr 0.70405 0.40780 1.00005
 O152 O 0.66560 0.33099 0.99994
 O153 O 0.67052 0.41470 0.54716
 O154 O 0.76200 0.41743 0.53305
 C155 C 0.77020 0.38468 0.55423
 O156 O 0.74316 0.33388 0.54889
 O157 O 0.65445 0.24176 0.53399
 C158 C 0.61162 0.23213 0.55315
 O159 O 0.58796 0.25898 0.54671
 O160 O 0.58683 0.34897 0.53228
 C161 C 0.61988 0.39068 0.55290
 O162 O 0.65516 0.41712 0.46484
 O163 O 0.74408 0.41449 0.45071
 C164 C 0.77125 0.39096 0.44544
 O165 O 0.76269 0.34946 0.46630
 O166 O 0.67161 0.25922 0.45178
 C167 C 0.62109 0.23232 0.44529
 O168 O 0.58769 0.24174 0.46436
 O169 O 0.59012 0.33346 0.44964
 C170 C 0.61376 0.38424 0.44412
 Cr171 Cr 0.70644 0.41294 0.49893
 Cr172 Cr 0.70656 0.29761 0.50021
 Cr173 Cr 0.59110 0.29731 0.49825
 O174 O 0.66794 0.33583 0.49909
 O175 O 0.32845 0.58421 0.54787
 O176 O 0.23706 0.58197 0.53402
 C177 C 0.22853 0.61461 0.55499
 O178 O 0.25531 0.66542 0.54947
 O179 O 0.34448 0.75730 0.53501
 C180 C 0.38740 0.76715 0.55409
 O181 O 0.41141 0.74064 0.54739
 O182 O 0.41198 0.65021 0.53311
 C183 C 0.37913 0.60841 0.55364
 O184 O 0.34297 0.58170 0.46545
 O185 O 0.25403 0.58457 0.45160
 C186 C 0.22755 0.60881 0.44606
 O187 O 0.23673 0.65062 0.46673
 O188 O 0.32810 0.74087 0.45262
 C189 C 0.37866 0.76715 0.44603
 O190 O 0.41158 0.75703 0.46501
 O191 O 0.40873 0.66503 0.45042
 C192 C 0.38453 0.61420 0.44480
 Cr193 Cr 0.29217 0.58618 0.49973
 Cr194 Cr 0.29260 0.70197 0.50092
 Cr195 Cr 0.40791 0.70167 0.49899
 O196 O 0.33097 0.66340 0.49985
 C197 C 0.44937 0.54833 0.36477
 C198 C 0.48864 0.58685 0.39838
 C199 C 0.46669 0.60805 0.42457
 C200 C 0.40771 0.59039 0.41472
 C201 C 0.40809 0.60539 0.36859
 C202 C 0.43002 0.58372 0.34233
 C203 C 0.39976 0.50644 0.38918
 C204 C 0.37815 0.52807 0.41509
 H205 H 0.53074 0.59769 0.40075
 H206 H 0.48982 0.63619 0.44934
 H207 H 0.39442 0.63252 0.35774
 H208 H 0.43590 0.59428 0.30949
 H209 H 0.38260 0.46301 0.38601
 H210 H 0.34272 0.50261 0.43383
 C211 C 0.44267 0.89999 0.36809
 C212 C 0.40988 0.90290 0.40517
 C213 C 0.38896 0.85884 0.43063
 C214 C 0.40170 0.81497 0.41672
 C215 C 0.38145 0.80210 0.37145
 C216 C 0.40261 0.84641 0.34590
 C217 C 0.48468 0.88841 0.38792
 C218 C 0.46365 0.84448 0.41313
 H219 H 0.40270 0.93631 0.41046
 H220 H 0.36453 0.85505 0.45776
 H221 H 0.35163 0.76199 0.36075
 H222 H 0.38907 0.84301 0.31389
 H223 H 0.52779 0.91266 0.38213
 H224 H 0.48924 0.83180 0.42859
 C225 C 0.09777 0.54281 0.36502
 C226 C 0.10693 0.59429 0.38765
 C227 C 0.14972 0.61620 0.41399
 C228 C 0.18082 0.58526 0.41576
 C229 C 0.13805 0.52692 0.42673
 C230 C 0.09518 0.50459 0.40018
 C231 C 0.15268 0.56020 0.34346
 C232 C 0.19583 0.58243 0.37014
 H233 H 0.08200 0.61260 0.38286
 H234 H 0.16065 0.65290 0.43139
 H235 H 0.14178 0.50454 0.45269
 H236 H 0.06278 0.46297 0.40344
 H237 H 0.15820 0.55369 0.31097
 H238 H 0.23667 0.59529 0.35989
 C239 C 0.54543 0.44681 0.36456
 C240 C 0.59678 0.48984 0.38667
 C241 C 0.61973 0.46940 0.41247
 C242 C 0.58963 0.40714 0.41422
 C243 C 0.53148 0.39069 0.42602
 C244 C 0.50821 0.41066 0.40001
 C245 C 0.56286 0.40965 0.34243
 C246 C 0.58617 0.38929 0.36853
 H247 H 0.61413 0.53307 0.38200
 H248 H 0.65651 0.49558 0.42958
 H249 H 0.50983 0.36427 0.45205
 H250 H 0.46647 0.40056 0.40383
 H251 H 0.55479 0.39696 0.31008
 H252 H 0.59880 0.36123 0.35794
 C253 C 0.56116 0.09972 0.36724
 C254 C 0.60194 0.15378 0.34572
 C255 C 0.62142 0.19786 0.37137
 C256 C 0.59917 0.18460 0.41604
 C257 C 0.53747 0.15475 0.41076
 C258 C 0.51791 0.11094 0.38540
 C259 C 0.59254 0.09720 0.40553
 C260 C 0.61183 0.14110 0.43102
 H261 H 0.61712 0.15822 0.31417
 H262 H 0.65120 0.23820 0.36110
 H263 H 0.51112 0.16732 0.42503
 H264 H 0.47513 0.08668 0.37831
 H265 H 0.59987 0.06404 0.41170
 H266 H 0.63500 0.14500 0.45899
 C267 C 0.90119 0.46014 0.36489
 C268 C 0.89297 0.40853 0.38683
 C269 C 0.85013 0.38547 0.41313
 C270 C 0.81807 0.41539 0.41537
 C271 C 0.85998 0.47382 0.42694
 C272 C 0.90290 0.49727 0.40056
 C273 C 0.84608 0.44176 0.34328
 C274 C 0.80293 0.41849 0.36986
 H275 H 0.91844 0.39092 0.38152
 H276 H 0.83966 0.34856 0.43003
 H277 H 0.85581 0.49531 0.45335
 H278 H 0.93500 0.53892 0.40445
 H279 H 0.83998 0.44606 0.31048
 H280 H 0.76177 0.40358 0.35939
 C281 C 0.53715 0.43583 1.13363
 C282 C 0.50118 0.40056 1.09749
 C283 C 0.52577 0.38212 1.07131
 C284 C 0.58410 0.39952 1.08360
 C285 C 0.61289 0.46157 1.08633
 C286 C 0.58851 0.48028 1.11236
 C287 C 0.55573 0.39948 1.15534
 C288 C 0.58027 0.38066 1.12904
 H289 H 0.45949 0.39035 1.09317
 H290 H 0.50519 0.35666 1.04456
 H291 H 0.64973 0.48880 1.06971
 H292 H 0.60479 0.52322 1.11779
 H293 H 0.54921 0.38757 1.18786
 H294 H 0.59478 0.35407 1.13950
 C295 C 0.89993 0.45793 1.13362
 C296 C 0.84523 0.43784 1.15604
 C297 C 0.80148 0.41354 1.13007
 C298 C 0.81600 0.41167 1.08415
 C299 C 0.85612 0.47072 1.07287
 C300 C 0.89945 0.49498 1.09879
 C301 C 0.89375 0.40792 1.11071
 C302 C 0.85021 0.38379 1.08499
 H303 H 0.84065 0.44434 1.18877
 H304 H 0.76052 0.39867 1.14099
 H305 H 0.85038 0.49208 1.04713
 H306 H 0.93023 0.53720 1.09524
 H307 H 0.92126 0.39248 1.11469
 H308 H 0.84104 0.34786 1.06715
 C309 C 0.55729 0.10063 1.13637
 C310 C 0.59680 0.10127 1.10331
 C311 C 0.61578 0.14352 1.07640
 C312 C 0.59489 0.18258 1.08510
 C313 C 0.53295 0.14692 1.08458
 C314 C 0.51354 0.10440 1.11130
 C315 C 0.58970 0.15629 1.15806
 C316 C 0.60923 0.19909 1.13108
 H317 H 0.60947 0.07129 1.10162
 H318 H 0.64409 0.14919 1.05164
 H319 H 0.50628 0.15447 1.06523
 H320 H 0.47061 0.07611 1.11466
 H321 H 0.59889 0.16228 1.19112
 H322 H 0.63372 0.24071 1.14139
 C323 C 0.44403 0.54459 1.13297
 C324 C 0.41044 0.56595 1.15529
 C325 C 0.39098 0.58994 1.12908
 C326 C 0.40633 0.59027 1.08306
 C327 C 0.46836 0.61754 1.08319
 C328 C 0.48781 0.59371 1.10916
 C329 C 0.40553 0.50684 1.09884
 C330 C 0.38645 0.53079 1.07268
 H331 H 0.40005 0.56060 1.18815
 H332 H 0.36557 0.60567 1.13992
 H333 H 0.49502 0.65283 1.06471
 H334 H 0.53076 0.60879 1.11275
 H335 H 0.39354 0.46441 1.09590
 H336 H 0.35877 0.50895 1.04733
 C337 C 0.10231 0.56527 1.13466
 C338 C 0.15722 0.60071 1.15675
 C339 C 0.20076 0.61928 1.13068
 C340 C 0.18593 0.60113 1.08508
 C341 C 0.15188 0.53910 1.08724
 C342 C 0.10859 0.52061 1.11304
 C343 C 0.10251 0.60129 1.09882
 C344 C 0.14573 0.61952 1.07287
 H345 H 0.16251 0.61219 1.18936
 H346 H 0.24188 0.64523 1.14142
 H347 H 0.16115 0.51175 1.07043
 H348 H 0.08135 0.47769 1.11809
 H349 H 0.07149 0.61212 1.09451
 H350 H 0.15121 0.64543 1.04631
 C351 C 0.46322 0.89953 1.13673
 C352 C 0.50003 0.90039 1.10128
 C353 C 0.47553 0.85825 1.07429
 C354 C 0.41651 0.81793 1.08524
 C355 C 0.41820 0.80123 1.13063
 C356 C 0.44263 0.84384 1.15775
 C357 C 0.41313 0.89438 1.11459
 C358 C 0.38890 0.85215 1.08775
 H359 H 0.54218 0.93133 1.09803
 H360 H 0.49665 0.85355 1.04788
 H361 H 0.40209 0.75958 1.14049
 H362 H 0.44736 0.83748 1.19045
 H363 H 0.39750 0.92152 1.12012
 H364 H 0.35285 0.84371 1.07049
 C365 C 0.55941 0.45898 0.63416
 C366 C 0.59724 0.44195 0.65534
 C367 C 0.61712 0.41887 0.62856
 C368 C 0.59763 0.41478 0.58328
 C369 C 0.53567 0.38399 0.58639
 C370 C 0.51597 0.40690 0.61290
 C371 C 0.59342 0.49595 0.59803
 C372 C 0.61292 0.47279 0.57142
 H373 H 0.60846 0.44747 0.68801
 H374 H 0.64433 0.40497 0.63867
 H375 H 0.50922 0.34674 0.56984
 H376 H 0.47300 0.38899 0.61880
 H377 H 0.60197 0.53724 0.59403
 H378 H 0.63770 0.49417 0.54460
 C379 C 0.53992 0.09979 0.63163
 C380 C 0.59311 0.10974 0.61189
 C381 C 0.61706 0.15345 0.58638
 C382 C 0.58607 0.18439 0.58255
 C383 C 0.52897 0.14150 0.56877
 C384 C 0.50482 0.09769 0.59441
 C385 C 0.55523 0.15405 0.65352
 C386 C 0.57933 0.19804 0.62773
 H387 H 0.61092 0.08462 0.61797
 H388 H 0.65509 0.16509 0.57091
 H389 H 0.50889 0.14559 0.54139
 H390 H 0.46401 0.06473 0.58899
 H391 H 0.54709 0.15859 0.68582
 H392 H 0.59173 0.23870 0.63840
 C393 C 0.89961 0.44749 0.63493
 C394 C 0.84473 0.41155 0.65682
 C395 C 0.80147 0.39096 0.63028
 C396 C 0.81672 0.40773 0.58449
 C397 C 0.84948 0.47002 0.58551
 C398 C 0.89243 0.49050 0.61176
 C399 C 0.90093 0.41059 0.60033
 C400 C 0.85811 0.39042 0.57390
 H401 H 0.83961 0.40066 0.68958
 H402 H 0.76043 0.36402 0.64075
 H403 H 0.83963 0.49616 0.56757
 H404 H 0.91877 0.53373 0.61607
 H405 H 0.93260 0.40043 0.59730
 H406 H 0.85358 0.36359 0.54823
 C407 C 0.44256 0.54264 0.63473
 C408 C 0.40558 0.56043 0.65638
 C409 C 0.38456 0.58253 0.62969
 C410 C 0.40211 0.58488 0.58401
 C411 C 0.46420 0.61562 0.58558
 C412 C 0.48499 0.59371 0.61194
 C413 C 0.40684 0.50422 0.59980
 C414 C 0.38623 0.52640 0.57322
 H415 H 0.39472 0.55480 0.68913
 H416 H 0.35714 0.59605 0.64002
 H417 H 0.49007 0.65210 0.56799
 H418 H 0.52821 0.61169 0.61664
 H419 H 0.39779 0.46265 0.59666
 H420 H 0.36007 0.50392 0.54729
 C421 C 0.45681 0.89976 0.63285
 C422 C 0.49240 0.90257 0.59558
 C423 C 0.46900 0.85870 0.56989
 C424 C 0.41236 0.81486 0.58370
 C425 C 0.41983 0.80169 0.62885
 C426 C 0.44323 0.84582 0.65464
 C427 C 0.40309 0.88824 0.61311
 C428 C 0.38009 0.84448 0.58766
 H429 H 0.53322 0.93565 0.59040
 H430 H 0.48963 0.85491 0.54275
 H431 H 0.40988 0.76156 0.63920
 H432 H 0.45409 0.84198 0.68633
 H433 H 0.38415 0.91236 0.61914
 H434 H 0.34177 0.83191 0.57231
 C435 C 0.09899 0.54945 0.63588
 C436 C 0.09830 0.58846 0.60274
 C437 C 0.14107 0.60940 0.57622
 C438 C 0.18200 0.59104 0.58536
 C439 C 0.19734 0.60565 0.63146
 C440 C 0.15407 0.58419 0.65804
 C441 C 0.10582 0.50736 0.61092
 C442 C 0.14869 0.52876 0.58469
 H443 H 0.06734 0.59976 0.60090
 H444 H 0.14610 0.63782 0.55170
 H445 H 0.23837 0.63233 0.64209
 H446 H 0.15925 0.59443 0.69096
 H447 H 0.07924 0.46396 0.61396
 H448 H 0.15804 0.50316 0.56554
 C449 C 0.46308 0.56505 0.86591
 C450 C 0.49892 0.60118 0.90173
 C451 C 0.47389 0.61937 0.92765
 C452 C 0.41526 0.60082 0.91543
 C453 C 0.41850 0.61888 0.86983
 C454 C 0.44352 0.60037 0.84379
 C455 C 0.41219 0.52034 0.88754
 C456 C 0.38734 0.53881 0.91332
 H457 H 0.54081 0.61212 0.90603
 H458 H 0.49431 0.64535 0.95420
 H459 H 0.40331 0.64480 0.85908
 H460 H 0.44979 0.61191 0.81120
 H461 H 0.39657 0.47743 0.88250
 H462 H 0.35073 0.51145 0.93013
 C463 C 0.10083 0.54370 0.86771
 C464 C 0.10150 0.50623 0.90208
 C465 C 0.14458 0.53037 0.92819
 C466 C 0.18428 0.58971 0.91748
 C467 C 0.19923 0.58885 0.87152
 C468 C 0.15571 0.56466 0.84537
 C469 C 0.10634 0.59311 0.89117
 C470 C 0.14968 0.61713 0.91708
 H471 H 0.07101 0.46384 0.90520
 H472 H 0.15042 0.50875 0.95369
 H473 H 0.24033 0.60430 0.86069
 H474 H 0.16063 0.55881 0.81257
 H475 H 0.07855 0.60824 0.88740
 H476 H 0.15844 0.65264 0.93533
 C477 C 0.43717 0.89979 0.86290
 C478 C 0.40105 0.90056 0.89837
 C479 C 0.38340 0.85849 0.92544
 C480 C 0.40201 0.81807 0.91463
 C481 C 0.38361 0.80130 0.86926
 C482 C 0.40180 0.84379 0.84204
 C483 C 0.48199 0.89439 0.88517
 C484 C 0.46384 0.85223 0.91210
 H485 H 0.38957 0.93133 0.90156
 H486 H 0.35745 0.85379 0.95175
 H487 H 0.35778 0.75963 0.85950
 H488 H 0.39005 0.83689 0.80949
 H489 H 0.52483 0.92127 0.87966
 H490 H 0.49138 0.84372 0.92936
 C491 C 0.55845 0.45815 0.86676
 C492 C 0.59570 0.49498 0.90183
 C493 C 0.61476 0.47063 0.92763
 C494 C 0.59609 0.41174 0.91597
 C495 C 0.53398 0.38362 0.91490
 C496 C 0.51459 0.40785 0.88932
 C497 C 0.59339 0.43851 0.84425
 C498 C 0.61282 0.41411 0.87009
 H499 H 0.60701 0.53714 0.90562
 H500 H 0.64169 0.49182 0.95351
 H501 H 0.50720 0.34748 0.93248
 H502 H 0.47163 0.39229 0.88519
 H503 H 0.60472 0.44545 0.81158
 H504 H 0.63914 0.39955 0.85912
 C505 C 0.89899 0.43526 0.86680
 C506 C 0.89215 0.47986 0.88789
 C507 C 0.84897 0.46133 0.91378
 C508 C 0.81559 0.39930 0.91655
 C509 C 0.80067 0.38030 0.87112
 C510 C 0.84411 0.39892 0.84495
 C511 C 0.89947 0.40005 0.90303
 C512 C 0.85636 0.38180 0.92908
 H513 H 0.91894 0.52278 0.88243
 H514 H 0.83936 0.48865 0.93026
 H515 H 0.75959 0.35366 0.86059
 H516 H 0.83882 0.38672 0.81249
 H517 H 0.93083 0.38973 0.90750
 H518 H 0.85130 0.35639 0.95589
 C519 C 0.54307 0.09911 0.86397
 C520 C 0.56602 0.15460 0.84208
 C521 C 0.58931 0.19768 0.86888
 C522 C 0.58748 0.18167 0.91495
 C523 C 0.52759 0.14244 0.92381
 C524 C 0.50432 0.09988 0.89709
 C525 C 0.59083 0.10339 0.88903
 C526 C 0.61396 0.14619 0.91556
 H527 H 0.56265 0.16030 0.80900
 H528 H 0.60623 0.23918 0.85837
 H529 H 0.50500 0.14819 0.94857
 H530 H 0.46172 0.06975 0.89896
 H531 H 0.60561 0.07521 0.88580
 H532 H 0.64831 0.15405 0.93487
   
