data_POSCAR
  _audit_creation_date              2014-09-24
  _audit_creation_method            'ToBaCCo'
  _symmetry_space_group_name_H-M    'P1'
  _symmetry_Int_Tables_number       1
  _symmetry_cell_setting            triclinic
  loop_
  _symmetry_equiv_pos_as_xyz
 x,y,z
_cell_length_a 19.4506
_cell_length_b 19.6453
_cell_length_c 19.5803
_cell_angle_alpha 104.344300
_cell_angle_beta 73.427000
_cell_angle_gamma 72.426300
loop_
  _atom_site_label
  _atom_site_type_symbol
  _atom_site_fract_x
  _atom_site_fract_y
  _atom_site_fract_z
C1 C 0.54881 0.51684 0.02143
 C2 C 0.48948 0.57876 0.01834
 C3 C 0.41974 0.57064 0.01790
 C4 C 0.40779 0.50349 0.01739
 C5 C 0.46579 0.44316 0.02261
 C6 C 0.53389 0.45170 0.02595
 H7 H 0.57289 0.40866 0.03827
 H8 H 0.37588 0.61434 0.01076
 C9 C -0.00353 0.42436 0.52546
 C10 C 0.00408 0.48145 0.57926
 C11 C 0.01089 0.54519 0.56259
 C12 C 0.00252 0.55892 0.49735
 C13 C -0.00408 0.50083 0.44271
 C14 C -0.00388 0.43368 0.45658
 H15 H -0.00237 0.38729 0.41201
 H16 H 0.02486 0.58312 0.60132
 C17 C 0.45178 0.02232 0.44311
 C18 C 0.40062 0.00269 0.49424
 C19 C 0.41367 -0.00387 0.55993
 C20 C 0.47804 0.00504 0.57527
 C21 C 0.53068 0.02284 0.52181
 C22 C 0.51365 0.03486 0.45948
 H23 H 0.55130 0.05193 0.42095
 H24 H 0.36876 -0.00972 0.60231
 O25 O 0.46524 -0.00325 -0.09006
 O26 O 0.48147 0.01649 0.09609
 O27 O 0.48384 0.09781 0.00883
 O28 O 0.46526 -0.08504 -0.00205
 O29 O 0.59338 -0.14777 -0.06320
 O30 O 0.61233 0.03559 -0.04950
 O31 O 0.60982 -0.04651 0.03682
 O32 O 0.59378 -0.06353 -0.14926
 Cu33 Cu 0.46101 0.01269 0.00878
 Cu34 Cu 0.61519 -0.06192 -0.06242
 C35 C 0.52675 -0.03525 -0.15120
 C36 C 0.54838 -0.01306 0.09797
 C37 C 0.55145 0.09767 -0.01895
 C38 C 0.52618 -0.14728 -0.03255
 O39 O -0.14439 0.58096 1.06026
 O40 O 0.05615 0.56940 1.02018
 O41 O -0.03001 0.56080 0.94041
 O42 O -0.05600 0.58319 1.13968
 O43 O -0.01650 0.45761 1.10671
 O44 O 0.01983 0.43469 0.90588
 O45 O 0.10038 0.44400 0.99115
 O46 O -0.09847 0.45457 1.02122
 Cu47 Cu -0.04797 0.58630 1.04367
 Cu48 Cu 0.00572 0.43507 1.00339
 C49 C -0.15497 0.51929 1.04429
 C50 C 0.11204 0.50528 1.00028
 C51 C -0.00135 0.49408 0.88941
 C52 C -0.04054 0.52375 1.15700
 O53 O 0.02422 -0.13849 0.40581
 O54 O -0.01679 0.05744 0.40604
 O55 O 0.10426 -0.05162 0.39930
 O56 O -0.09658 -0.02768 0.41638
 O57 O -0.13757 0.01885 0.54242
 O58 O 0.06359 -0.01036 0.52528
 O59 O -0.05341 0.10246 0.53164
 O60 O -0.01956 -0.09211 0.53198
 Cu61 Cu 0.00809 -0.04453 0.39422
 Cu62 Cu -0.04088 0.00973 0.54548
 C63 C 0.00690 -0.14825 0.46925
 C64 C -0.04042 0.11289 0.46844
 C65 C 0.11804 -0.03518 0.45962
 C66 C -0.15078 -0.00197 0.48236
 C67 C -0.38098 0.52132 1.02612
 C68 C -0.31609 0.45924 1.00903
 C69 C -0.24215 0.46084 1.01366
 C70 C -0.23304 0.52314 1.04926
 H71 H -0.31285 0.40213 0.98436
 H72 H -0.19200 0.40624 0.98506
 H73 H -0.37840 0.57673 1.04263
 H74 H -0.28172 0.57853 1.07855
 C75 C 0.33694 0.50235 1.01289
 C76 C 0.32650 0.43945 0.98037
 C77 C 0.25001 0.44079 0.98036
 C78 C 0.19024 0.50377 0.99057
 H79 H 0.37471 0.38379 0.95296
 H80 H 0.24297 0.38711 0.97251
 H81 H 0.28896 0.55764 1.03375
 H82 H 0.19676 0.55721 0.99502
 C83 C 0.00041 -0.37116 0.48754
 C84 C -0.00981 -0.30859 0.54382
 C85 C -0.01327 -0.23495 0.53612
 C86 C 0.01536 -0.22515 0.47010
 H87 H -0.02286 -0.30659 0.60181
 H88 H -0.03964 -0.18617 0.58947
 H89 H 0.00286 -0.36550 0.43364
 H90 H 0.04353 -0.27304 0.41603
 C91 C -0.00895 0.35441 0.53949
 C92 C -0.04245 0.31332 0.50624
 C93 C -0.04059 0.24105 0.51645
 C94 C -0.05104 0.18944 0.46601
 H95 H -0.06986 0.33137 0.46916
 H96 H -0.02536 0.22768 0.56210
 H97 H 0.01618 0.33490 0.57733
 H98 H -0.06056 0.20098 0.41735
 C99 C 0.48335 0.00553 -0.35369
 C100 C 0.44676 -0.02462 -0.30776
 C101 C 0.45300 -0.02134 -0.23382
 C102 C 0.52131 -0.03802 -0.22531
 H103 H 0.40996 -0.05229 -0.32231
 H104 H 0.40046 -0.01045 -0.18672
 H105 H 0.51786 0.03321 -0.33348
 H106 H 0.57486 -0.05494 -0.27414
 C107 C 0.44232 0.02950 0.37199
 C108 C 0.50382 0.00696 0.30650
 C109 C 0.49351 0.01298 0.23627
 C110 C 0.55572 -0.01125 0.17108
 H111 H 0.56283 -0.01862 0.30364
 H112 H 0.43479 0.03523 0.23739
 H113 H 0.38415 0.05223 0.37233
 H114 H 0.61419 -0.03432 0.17037
 C115 C 0.50123 -0.35524 0.00977
 C116 C 0.44269 -0.28813 0.02569
 C117 C 0.45344 -0.21940 0.01566
 C118 C 0.51968 -0.21949 -0.02989
 H119 H 0.38233 -0.27895 0.05356
 H120 H 0.40247 -0.16570 0.04740
 H121 H 0.56008 -0.35799 -0.00954
 H122 H 0.57107 -0.27238 -0.06333
 C123 C 0.45369 0.37502 0.03428
 C124 C 0.51225 0.30533 0.00226
 C125 C 0.49978 0.23717 0.01064
 C126 C 0.56055 0.16930 -0.01866
 H127 H 0.57026 0.29775 -0.03303
 H128 H 0.44082 0.24210 0.03892
 H129 H 0.39542 0.38181 0.06785
 H130 H 0.61923 0.16545 -0.04625
 C131 C -0.39918 0.02881 0.52446
 C132 C -0.35235 -0.01064 0.55258
 C133 C -0.27728 -0.00497 0.54868
 C134 C -0.22900 0.00133 0.48837
 H135 H -0.36668 -0.05032 0.57755
 H136 H -0.25814 -0.01346 0.59389
 H137 H -0.37759 0.06259 0.49472
 H138 H -0.24371 0.00140 0.43905
 C139 C 0.33026 -0.00569 0.48300
 C140 C 0.29739 -0.04967 0.51016
 C141 C 0.22082 -0.04789 0.51070
 C142 C 0.19760 -0.04282 0.45332
 H143 H 0.32309 -0.08320 0.53959
 H144 H 0.18300 -0.05296 0.56013
 H145 H 0.30180 0.02841 0.45559
 H146 H 0.23747 -0.04431 0.40088
 C147 C -0.00935 0.50725 1.36991
 C148 C -0.05220 0.47855 1.33819
 C149 C -0.05030 0.47521 1.26171
 C150 C -0.04808 0.53175 1.23580
 H151 H -0.08535 0.45073 1.36601
 H152 H -0.05337 0.42494 1.22663
 H153 H 0.02548 0.53241 1.33979
 H154 H -0.05146 0.58481 1.27289
 C155 C 0.00516 0.47691 0.65366
 C156 C -0.03232 0.53991 0.71787
 C157 C -0.03202 0.54388 0.79404
 C158 C 0.00546 0.48480 0.81057
 H159 H -0.06642 0.59354 0.71539
 H160 H -0.06614 0.59975 0.83936
 H161 H 0.03728 0.42223 0.65496
 H162 H 0.03851 0.42788 0.76731
   
