data_POSCAR
  _audit_creation_date              2014-09-24
  _audit_creation_method            'ToBaCCo'
  _symmetry_space_group_name_H-M    'P1'
  _symmetry_Int_Tables_number       1
  _symmetry_cell_setting            triclinic
  loop_
  _symmetry_equiv_pos_as_xyz
 x,y,z
_cell_length_a 17.3845
_cell_length_b 18.0598
_cell_length_c 46.5820
_cell_angle_alpha 89.338700
_cell_angle_beta 89.551500
_cell_angle_gamma 120.833100
loop_
  _atom_site_label
  _atom_site_type_symbol
  _atom_site_fract_x
  _atom_site_fract_y
  _atom_site_fract_z
C1 C -0.09625 0.03290 0.52956
 C2 C -0.17432 -0.02806 0.51025
 C3 C -0.15222 -0.07040 0.49067
 C4 C -0.05394 -0.04799 0.49226
 C5 C -0.06536 -0.02502 0.54297
 C6 C -0.04271 -0.06657 0.52368
 C7 C -0.02127 0.09202 0.50844
 C8 C 0.00086 0.05072 0.48881
 H9 H -0.24154 -0.03967 0.51231
 H10 H -0.03502 -0.08184 0.47653
 H11 H -0.06652 -0.03625 0.56592
 H12 H 0.01054 0.16162 0.50884
 C13 C 0.96149 -0.11683 0.18762
 C14 C 1.03919 -0.12220 0.17357
 C15 C 1.09591 -0.05062 0.15725
 C16 C 1.06929 0.01912 0.15652
 C17 C 1.00452 -0.03693 0.20322
 C18 C 1.06388 0.03868 0.18663
 C19 C 0.91672 -0.10075 0.16219
 C20 C 0.97196 -0.02987 0.14595
 H21 H 1.04733 -0.17754 0.17522
 H22 H 1.11282 0.07538 0.14239
 H23 H 1.00159 -0.03766 0.22646
 H24 H 0.84641 -0.14265 0.15745
 C25 C 0.14753 1.07881 0.84885
 C26 C 0.16692 1.15822 0.83042
 C27 C 0.09859 1.14317 0.81246
 C28 C 0.01774 1.04998 0.81425
 C29 C 0.05829 1.05170 0.86394
 C30 C -0.00919 1.03648 0.84609
 C31 C 0.12589 1.00878 0.82686
 C32 C 0.05838 0.99318 0.80883
 H33 H 0.22641 1.22121 0.83200
 H34 H -0.03777 1.03699 0.79961
 H35 H 0.05092 1.05078 0.88711
 H36 H 0.16216 0.97479 0.82561
 O37 O 0.49214 0.03085 0.03349
 O38 O 0.64716 0.08000 -0.02772
 O39 O 0.49311 0.06741 -0.02116
 O40 O 0.65141 0.04847 0.02667
 O41 O 0.58519 -0.08988 0.01693
 O42 O 0.42640 -0.07207 -0.02942
 O43 O 0.58025 -0.05862 -0.03727
 O44 O 0.42658 -0.10796 0.02446
 Cu45 Cu 0.57745 0.07058 0.00397
 Cu46 Cu 0.49806 -0.09610 -0.00705
 C47 C 0.43187 -0.04684 0.03921
 C48 C 0.63987 0.01911 -0.04309
 C49 C 0.43306 0.00058 -0.03358
 C50 C 0.64627 -0.02403 0.02944
 O51 O 0.08061 0.64270 0.68556
 O52 O 0.04734 0.46473 0.64102
 O53 O 0.04646 0.60688 0.63153
 O54 O 0.07455 0.49655 0.69459
 O55 O -0.07078 0.43146 0.70347
 O56 O -0.09892 0.53867 0.64059
 O57 O -0.09859 0.39597 0.64943
 O58 O -0.06436 0.57869 0.69476
 Cu59 Cu 0.07671 0.55988 0.66229
 Cu60 Cu -0.09774 0.47996 0.67299
 C61 C 0.01496 0.64218 0.69780
 C62 C -0.03011 0.39920 0.63803
 C63 C -0.03162 0.59104 0.62528
 C64 C 0.00587 0.44330 0.70937
 O65 O 0.56024 0.51452 0.36506
 O66 O 0.41075 0.37899 0.30761
 O67 O 0.57091 0.51612 0.30886
 O68 O 0.40284 0.37215 0.36349
 O69 O 0.34258 0.45389 0.36244
 O70 O 0.50501 0.59279 0.30724
 O71 O 0.34518 0.45645 0.30741
 O72 O 0.49832 0.59472 0.36301
 Cu73 Cu 0.49285 0.43766 0.33640
 Cu74 Cu 0.41707 0.53287 0.33488
 C75 C 0.55485 0.57823 0.37380
 C76 C 0.35122 0.39371 0.29833
 C77 C 0.56588 0.57891 0.29857
 C78 C 0.34335 0.38822 0.37207
 C79 C -0.18688 0.09382 0.55344
 C80 C -0.11011 0.08638 0.55179
 C81 C -0.03788 0.13757 0.56976
 C82 C -0.03973 0.19742 0.58798
 C83 C -0.11596 0.20609 0.58913
 C84 C -0.18993 0.15270 0.57214
 C85 C -0.11508 0.27004 0.60643
 C86 C -0.03764 0.32630 0.62172
 C87 C 0.03664 0.31520 0.62073
 C88 C 0.03540 0.25106 0.60422
 H89 H 0.02218 0.13349 0.56851
 H90 H -0.24904 0.15835 0.57264
 H91 H -0.17257 0.27832 0.60706
 H92 H 0.09419 0.24485 0.60359
 H93 H -0.24368 0.05681 0.53988
 H94 H 0.09649 0.35687 0.63266
 C95 C 0.89981 0.73960 0.21649
 C96 C 0.89226 0.80975 0.20683
 C97 C 0.81944 0.81638 0.21687
 C98 C 0.75614 0.75586 0.23614
 C99 C 0.76438 0.68621 0.24608
 C100 C 0.83618 0.67824 0.23592
 C101 C 0.70152 0.62712 0.26630
 C102 C 0.63118 0.63772 0.27653
 C103 C 0.62377 0.70694 0.26591
 C104 C 0.68554 0.76534 0.24595
 H105 H 0.81332 0.87074 0.21003
 H106 H 0.84385 0.62532 0.24331
 H107 H 0.70798 0.57397 0.27427
 H108 H 0.67852 0.81854 0.23840
 H109 H 0.95523 0.73256 0.20972
 H110 H 0.57043 0.71676 0.27323
 C111 C 0.29766 0.16083 -0.12423
 C112 C 0.21581 0.08480 -0.12963
 C113 C 0.19400 0.00938 -0.11387
 C114 C 0.25197 0.00878 -0.09348
 C115 C 0.33394 0.08509 -0.08814
 C116 C 0.35609 0.16088 -0.10360
 C117 C 0.39241 0.08349 -0.06775
 C118 C 0.37005 0.00592 -0.05329
 C119 C 0.28786 -0.06912 -0.05879
 C120 C 0.22913 -0.06760 -0.07856
 H121 H 0.13100 -0.04962 -0.11767
 H122 H 0.41874 0.22009 -0.09984
 H123 H 0.45602 0.14154 -0.06379
 H124 H 0.16629 -0.12654 -0.08244
 H125 H 0.31723 0.22041 -0.13562
 H126 H 0.26900 -0.12943 -0.04782
 C127 C 0.06604 0.89195 0.53986
 C128 C -0.02229 0.86794 0.53343
 C129 C -0.09310 0.78703 0.54244
 C130 C -0.07667 0.73296 0.55984
 C131 C 0.01211 0.75918 0.56764
 C132 C 0.08334 0.83740 0.55662
 C133 C 0.02744 0.70964 0.58776
 C134 C -0.04516 0.63568 0.60070
 C135 C -0.13259 0.60821 0.59158
 C136 C -0.14816 0.65606 0.57122
 H137 H -0.16143 0.76950 0.53784
 H138 H 0.15181 0.85860 0.56230
 H139 H 0.09516 0.73148 0.59457
 H140 H -0.21650 0.63485 0.56533
 H141 H 0.12102 0.95501 0.53338
 H142 H -0.18962 0.55088 0.60087
 C143 C 0.20091 0.18386 0.18765
 C144 C 0.11865 0.11931 0.19991
 C145 C 0.09480 0.13436 0.22736
 C146 C 0.15583 0.20409 0.24369
 C147 C 0.24235 0.26197 0.23246
 C148 C 0.26287 0.25334 0.20399
 C149 C 0.30678 0.32603 0.25013
 C150 C 0.28399 0.33339 0.27850
 C151 C 0.19632 0.27915 0.28882
 C152 C 0.13267 0.21455 0.27160
 H153 H 0.02897 0.09106 0.23656
 H154 H 0.32777 0.29897 0.19460
 H155 H 0.37444 0.36892 0.24211
 H156 H 0.06619 0.17124 0.28041
 H157 H 0.22095 0.17941 0.16612
 H158 H 0.17816 0.28474 0.31066
 C159 C 0.83033 -0.05952 -0.14038
 C160 C 0.90609 0.02348 -0.14228
 C161 C 0.90712 0.09141 -0.12771
 C162 C 0.83598 0.07544 -0.10934
 C163 C 0.76182 -0.00936 -0.10603
 C164 C 0.75807 -0.07584 -0.12248
 C165 C 0.69547 -0.02695 -0.08520
 C166 C 0.70315 0.03899 -0.06742
 C167 C 0.77491 0.12378 -0.07203
 C168 C 0.84062 0.14187 -0.09284
 H169 H 0.96641 0.15536 -0.12906
 H170 H 0.70159 -0.14114 -0.12033
 H171 H 0.64006 -0.09247 -0.08207
 H172 H 0.89683 0.20726 -0.09527
 H173 H 0.82957 -0.11252 -0.15131
 H174 H 0.78203 0.17592 -0.05887
 C175 C 0.25351 0.03655 0.13905
 C176 C 0.17193 -0.04225 0.13994
 C177 C 0.16174 -0.10992 0.12263
 C178 C 0.23080 -0.09702 0.10350
 C179 C 0.31111 -0.01589 0.10194
 C180 C 0.32247 0.04978 0.12026
 C181 C 0.37779 -0.00087 0.08160
 C182 C 0.36553 -0.06579 0.06258
 C183 C 0.28682 -0.14730 0.06498
 C184 C 0.22004 -0.16273 0.08522
 H185 H 0.09886 -0.17100 0.12310
 H186 H 0.38403 0.11198 0.11967
 H187 H 0.43832 0.06209 0.08015
 H188 H 0.15918 -0.22546 0.08613
 H189 H 0.26400 0.08833 0.15284
 H190 H 0.27560 -0.19852 0.05062
 C191 C 0.71952 0.88480 0.45724
 C192 C 0.78390 0.86939 0.46940
 C193 C 0.78856 0.79757 0.46050
 C194 C 0.73050 0.74257 0.43948
 C195 C 0.66661 0.75926 0.42729
 C196 C 0.66139 0.83024 0.43642
 C197 C 0.60934 0.70512 0.40603
 C198 C 0.61487 0.63419 0.39661
 C199 C 0.67831 0.61783 0.40902
 C200 C 0.73552 0.67145 0.43028
 H201 H 0.83680 0.78401 0.47003
 H202 H 0.61292 0.84410 0.42725
 H203 H 0.56077 0.71865 0.39674
 H204 H 0.78401 0.65756 0.43940
 H205 H 0.71529 0.94028 0.46335
 H206 H 0.68399 0.56366 0.40223
 C207 C 0.17742 0.27101 0.77882
 C208 C 0.09949 0.21089 0.79401
 C209 C 0.02101 0.21422 0.79105
 C210 C 0.01936 0.27513 0.77252
 C211 C 0.09724 0.33379 0.75664
 C212 C 0.17627 0.33184 0.76022
 C213 C 0.09400 0.39169 0.73693
 C214 C 0.01353 0.39106 0.73273
 C215 C -0.06248 0.33429 0.74945
 C216 C -0.05955 0.27706 0.76917
 H217 H -0.03896 0.16923 0.80313
 H218 H 0.23673 0.37636 0.74830
 H219 H 0.15311 0.43493 0.72420
 H220 H -0.11968 0.23292 0.78132
 H221 H 0.23860 0.26941 0.78075
 H222 H -0.12525 0.33247 0.74678
 C223 C 0.95025 0.07651 0.11747
 C224 C 0.93739 -0.00643 0.12073
 C225 C 0.87871 -0.07196 0.10240
 C226 C 0.82695 -0.05756 0.08287
 C227 C 0.83579 0.02458 0.08074
 C228 C 0.89990 0.09207 0.09749
 C229 C 0.77810 0.03649 0.06275
 C230 C 0.71129 -0.03321 0.04726
 C231 C 0.70579 -0.11360 0.04902
 C232 C 0.76315 -0.12556 0.06654
 H233 H 0.86941 -0.13592 0.10463
 H234 H 0.90821 0.15569 0.09605
 H235 H 0.78362 0.09900 0.06144
 H236 H 0.75595 -0.18877 0.06790
 H237 H 0.99501 0.12767 0.13153
 H238 H 0.65598 -0.16814 0.03712
 C239 C 0.12812 0.07534 0.45607
 C240 C 0.06645 0.09863 0.46532
 C241 C 0.06988 0.17153 0.45291
 C242 C 0.13639 0.22318 0.43270
 C243 C 0.20013 0.20125 0.42399
 C244 C 0.19460 0.12633 0.43553
 C245 C 0.26826 0.25508 0.40414
 C246 C 0.27303 0.33042 0.39312
 C247 C 0.20832 0.35042 0.40197
 C248 C 0.14072 0.29736 0.42148
 H249 H 0.02108 0.18886 0.45926
 H250 H 0.24254 0.10808 0.42907
 H251 H 0.31735 0.23857 0.39740
 H252 H 0.09215 0.31482 0.42797
 H253 H 0.12670 0.01940 0.46537
 H254 H 0.20976 0.40752 0.39381
 C255 C -0.05865 0.86749 0.78120
 C256 C 0.03166 0.92931 0.78577
 C257 C 0.09843 0.92545 0.76995
 C258 C 0.07629 0.85796 0.75110
 C259 C -0.01435 0.79327 0.74744
 C260 C -0.08158 0.79973 0.76217
 C261 C -0.03541 0.72279 0.72967
 C262 C 0.03348 0.71685 0.71571
 C263 C 0.12297 0.78341 0.71913
 C264 C 0.14409 0.85305 0.73658
 H265 H 0.16827 0.97392 0.77300
 H266 H -0.15154 0.75125 0.75958
 H267 H -0.10468 0.67237 0.72710
 H268 H 0.21381 0.90242 0.73911
 H269 H -0.11106 0.86945 0.79327
 H270 H 0.17754 0.78133 0.70858
   
