data_POSCAR
  _audit_creation_date              2014-09-24
  _audit_creation_method            'ToBaCCo'
  _symmetry_space_group_name_H-M    'P1'
  _symmetry_Int_Tables_number       1
  _symmetry_cell_setting            triclinic
  loop_
  _symmetry_equiv_pos_as_xyz
 x,y,z
_cell_length_a 30.8323
_cell_length_b 30.3965
_cell_length_c 30.9296
_cell_angle_alpha 94.833500
_cell_angle_beta 87.668100
_cell_angle_gamma 103.566000
loop_
  _atom_site_label
  _atom_site_type_symbol
  _atom_site_fract_x
  _atom_site_fract_y
  _atom_site_fract_z
O1 O 0.50162 0.51505 0.07704
 O2 O 0.38460 0.49052 0.04418
 O3 O 0.43800 0.44218 0.06686
 O4 O 0.44770 0.56365 0.05545
 O5 O 0.46915 0.55470 -0.01310
 O6 O 0.45909 0.43317 -0.00180
 O7 O 0.40541 0.48137 -0.02449
 O8 O 0.52218 0.50558 0.00829
 Cu9 Cu 0.44079 0.50382 0.06779
 Cu10 Cu 0.46597 0.49288 -0.01475
 C11 C 0.53181 0.51391 0.04811
 C12 C 0.37501 0.48178 0.00432
 C13 C 0.44731 0.41710 0.03460
 C14 C 0.46023 0.57987 0.01933
 O15 O -0.02822 0.55718 0.52520
 O16 O -0.02520 0.43642 0.51950
 O17 O -0.02081 0.50034 0.58191
 O18 O -0.03197 0.49326 0.46256
 O19 O 0.04141 0.51288 0.45487
 O20 O 0.05250 0.51937 0.57347
 O21 O 0.04808 0.45521 0.51067
 O22 O 0.04509 0.57621 0.51697
 Cu23 Cu -0.03389 0.49490 0.52310
 Cu24 Cu 0.05410 0.51771 0.51332
 C25 C 0.00786 0.58732 0.52177
 C26 C 0.01190 0.42523 0.51402
 C27 C 0.01794 0.51104 0.59792
 C28 C 0.00294 0.50223 0.43848
 O29 O 0.53823 0.02589 0.54234
 O30 O 0.55034 0.06203 0.43118
 O31 O 0.48367 0.04019 0.48604
 O32 O 0.60488 0.04825 0.48833
 O33 O 0.59423 -0.02340 0.46264
 O34 O 0.47285 -0.03140 0.46011
 O35 O 0.53933 -0.00976 0.40584
 O36 O 0.52701 -0.04583 0.51684
 Cu37 Cu 0.54541 0.05131 0.48950
 Cu38 Cu 0.53238 -0.03478 0.45874
 C39 C 0.53050 -0.01605 0.54859
 C40 C 0.54650 0.03209 0.39954
 C41 C 0.45760 0.00301 0.47271
 C42 C 0.62019 0.01381 0.47613
 C43 C 0.52645 -0.03420 -0.12122
 C44 C 0.53066 -0.07729 -0.11179
 C45 C 0.52920 -0.08942 -0.06910
 C46 C 0.52699 -0.05647 -0.03436
 C47 C 0.52127 -0.01319 -0.04327
 C48 C 0.52007 -0.00237 -0.08681
 C49 C 0.51177 0.03976 -0.09480
 C50 C 0.50669 0.07129 -0.06090
 C51 C 0.51012 0.06233 -0.01746
 C52 C 0.51689 0.01941 -0.00855
 C53 C 0.53188 -0.06501 0.00888
 C54 C 0.52812 -0.03304 0.04280
 C55 C 0.51938 0.00897 0.03496
 C56 C 0.51442 0.04128 0.06940
 C57 C 0.50797 0.08355 0.06005
 C58 C 0.50589 0.09467 0.01725
 H59 H 0.50816 0.04868 -0.12734
 H60 H 0.49951 0.10256 -0.06942
 H61 H 0.53964 -0.09617 0.01700
 H62 H 0.53287 -0.04164 0.07520
 H63 H 0.53516 -0.10195 -0.13797
 H64 H 0.50457 0.10821 0.08657
 C65 C -0.00913 0.48358 0.93156
 C66 C 0.03303 0.47922 0.94340
 C67 C 0.04239 0.47408 0.98644
 C68 C 0.00817 0.47154 1.01869
 C69 C -0.03414 0.47751 1.00784
 C70 C -0.04272 0.48395 0.96428
 C71 C -0.08435 0.49174 0.95487
 C72 C -0.11726 0.49162 0.98698
 C73 C -0.11022 0.48331 1.02995
 C74 C -0.06795 0.47709 1.04072
 C75 C 0.01484 0.46208 1.06139
 C76 C -0.01837 0.46104 1.09331
 C77 C -0.05950 0.47010 1.08420
 C78 C -0.09315 0.47057 1.11683
 C79 C -0.13506 0.47529 1.10521
 C80 C -0.14413 0.48171 1.06247
 H81 H -0.09185 0.49894 0.92273
 H82 H -0.14811 0.49879 0.97753
 H83 H 0.04549 0.45427 1.07059
 H84 H -0.01150 0.45226 1.12505
 H85 H 0.05905 0.48006 0.91877
 H86 H -0.16119 0.47345 1.12998
 C87 C -0.01174 -0.09097 0.48940
 C88 C -0.05333 -0.08476 0.47786
 C89 C -0.05949 -0.04215 0.46953
 C90 C -0.02227 -0.00445 0.47034
 C91 C 0.02012 -0.00987 0.48221
 C92 C 0.02531 -0.05309 0.49219
 C93 C 0.06730 -0.05702 0.50541
 C94 C 0.10387 -0.02006 0.50671
 C95 C 0.10016 0.02246 0.49481
 C96 C 0.05753 0.02800 0.48386
 C97 C -0.02571 0.03798 0.45787
 C98 C 0.01069 0.07510 0.46005
 C99 C 0.05219 0.07135 0.47458
 C100 C 0.08896 0.10940 0.47884
 C101 C 0.13102 0.10291 0.48781
 C102 C 0.13750 0.06005 0.49478
 H103 H 0.07244 -0.08856 0.51550
 H104 H 0.13496 -0.02513 0.51795
 H105 H -0.05642 0.04290 0.44560
 H106 H 0.00606 0.10660 0.44932
 H107 H -0.08162 -0.11367 0.47492
 H108 H 0.15933 0.13193 0.48960
 C109 C -0.42167 0.52111 1.06115
 C110 C -0.38876 0.51343 1.03126
 C111 C -0.34350 0.51344 1.04397
 N112 N -0.31575 0.49789 1.01460
 N113 N -0.27510 0.49586 1.02573
 C114 C -0.26063 0.50943 1.06665
 N115 N -0.28820 0.52549 1.09598
 N116 N -0.32903 0.52731 1.08489
 C117 C -0.21596 0.50673 1.07918
 C118 C -0.18986 0.48410 1.05182
 H119 H -0.39718 0.50393 0.99755
 H120 H -0.20341 0.52309 1.11011
 H121 H -0.41388 0.52942 1.09513
 H122 H -0.20334 0.46779 1.02121
 C123 C 0.33084 0.47290 0.99163
 C124 C 0.29601 0.47481 1.02138
 C125 C 0.24978 0.46870 1.00798
 N126 N 0.21883 0.47831 1.03731
 N127 N 0.17698 0.47435 1.02561
 C128 C 0.16445 0.46043 0.98416
 N129 N 0.19528 0.45026 0.95488
 N130 N 0.23727 0.45445 0.96655
 C131 C 0.11851 0.45709 0.97089
 C132 C 0.08878 0.47505 0.99813
 H133 H 0.30292 0.48318 1.05555
 H134 H 0.10830 0.44062 0.93934
 H135 H 0.32375 0.46548 0.95740
 H136 H 0.10027 0.49145 1.02936
 C137 C 0.00711 -0.36691 0.52259
 C138 C -0.03230 -0.35177 0.52847
 C139 C -0.03347 -0.30390 0.52599
 N140 N -0.07180 -0.29038 0.53618
 N141 N -0.07387 -0.24748 0.53301
 C142 C -0.03778 -0.21655 0.51925
 N143 N 0.00063 -0.23004 0.50907
 N144 N 0.00277 -0.27291 0.51243
 C145 C -0.04116 -0.16958 0.51507
 C146 C -0.00727 -0.13763 0.49607
 H147 H -0.06354 -0.37570 0.53475
 H148 H -0.07152 -0.16018 0.52692
 H149 H 0.03840 -0.34243 0.51797
 H150 H 0.02315 -0.14740 0.48512
 C151 C 0.01234 0.37681 0.51204
 C152 C 0.05029 0.36098 0.49968
 C153 C 0.05063 0.31253 0.49863
 N154 N 0.08586 0.29763 0.48036
 N155 N 0.08678 0.25395 0.47958
 C156 C 0.05257 0.22357 0.49727
 N157 N 0.01744 0.23850 0.51570
 N158 N 0.01641 0.28212 0.51627
 C159 C 0.05336 0.17535 0.49755
 C160 C 0.08566 0.15678 0.47478
 H161 H 0.08044 0.38461 0.48984
 H162 H 0.02803 0.15396 0.51672
 H163 H -0.01841 0.35291 0.51991
 H164 H 0.11258 0.17891 0.45797
 C165 C 0.52580 -0.02997 -0.40944
 C166 C 0.53109 0.00099 -0.37306
 C167 C 0.52665 -0.01347 -0.32875
 N168 N 0.53790 0.01793 -0.29485
 N169 N 0.53426 0.00551 -0.25439
 C170 C 0.51906 -0.03876 -0.24632
 N171 N 0.50751 -0.07018 -0.28020
 N172 N 0.51134 -0.05777 -0.32074
 C173 C 0.51473 -0.05265 -0.20173
 C174 C 0.53108 -0.02203 -0.16682
 H175 H 0.53981 0.03714 -0.37693
 H176 H 0.49781 -0.08728 -0.19640
 H177 H 0.51840 -0.06603 -0.40522
 H178 H 0.54775 0.01240 -0.17311
 C179 C 0.54973 0.04622 0.35510
 C180 C 0.53917 0.01444 0.31975
 C181 C 0.53862 0.02743 0.27525
 N182 N 0.52233 -0.00479 0.24327
 N183 N 0.52090 0.00625 0.20273
 C184 C 0.53582 0.04993 0.19264
 N185 N 0.55239 0.08217 0.22458
 N186 N 0.55366 0.07115 0.26523
 C187 C 0.53466 0.06225 0.14789
 C188 C 0.51407 0.03071 0.11529
 H189 H 0.52909 -0.02137 0.32496
 H190 H 0.55119 0.09637 0.14036
 H191 H 0.55848 0.08215 0.35033
 H192 H 0.49789 -0.00324 0.12352
 C193 C 0.46404 -0.37157 0.01543
 C194 C 0.48488 -0.34967 -0.02027
 C195 C 0.48836 -0.30110 -0.02413
 N196 N 0.51529 -0.27928 -0.05526
 N197 N 0.51863 -0.23528 -0.05915
 C198 C 0.49490 -0.21159 -0.03218
 N199 N 0.46777 -0.23348 -0.00124
 N200 N 0.46465 -0.27739 0.00281
 C201 C 0.49766 -0.16322 -0.03622
 C202 C 0.52932 -0.13716 -0.06291
 H203 H 0.49995 -0.36834 -0.04565
 H204 H 0.47396 -0.14761 -0.01759
 H205 H 0.45101 -0.35239 0.04189
 H206 H 0.55107 -0.15343 -0.08366
 C207 C 0.44504 0.36908 0.04008
 C208 C 0.46192 0.34174 0.00849
 C209 C 0.46393 0.29501 0.01530
 N210 N 0.48654 0.27227 -0.01370
 N211 N 0.48973 0.23033 -0.00747
 C212 C 0.47029 0.20953 0.02794
 N213 N 0.44735 0.23213 0.05677
 N214 N 0.44431 0.27415 0.05064
 C215 C 0.47398 0.16346 0.03552
 C216 C 0.50120 0.14086 0.00951
 H217 H 0.47620 0.35567 -0.02141
 H218 H 0.45475 0.14705 0.06221
 H219 H 0.43208 0.35575 0.07061
 H220 H 0.51974 0.15761 -0.01732
 C221 C -0.33139 0.01757 0.47845
 C222 C -0.31118 -0.01717 0.46228
 C223 C -0.26304 -0.01412 0.46655
 N224 N -0.24433 -0.04691 0.44663
 N225 N -0.20109 -0.04516 0.45086
 C226 C -0.17488 -0.01062 0.47536
 N227 N -0.19359 0.02214 0.49532
 N228 N -0.23681 0.02050 0.49094
 C229 C -0.12726 -0.00888 0.48143
 C230 C -0.10552 -0.03980 0.45932
 H231 H -0.33122 -0.04766 0.44595
 H232 H -0.10911 0.01670 0.50478
 H233 H -0.31112 0.04869 0.49348
 H234 H -0.12463 -0.06706 0.43815
 C235 C 0.40911 -0.00069 0.47136
 C236 C 0.38932 0.03377 0.48919
 C237 C 0.34099 0.03086 0.48712
 N238 N 0.32320 0.06350 0.50863
 N239 N 0.27975 0.06192 0.50657
 C240 C 0.25240 0.02767 0.48278
 N241 N 0.27019 -0.00497 0.46123
 N242 N 0.31363 -0.00348 0.46342
 C243 C 0.20447 0.02616 0.47917
 C244 C 0.18395 0.05729 0.50265
 H245 H 0.40987 0.06393 0.50555
 H246 H 0.18512 0.00070 0.45648
 H247 H 0.38846 -0.03157 0.45629
 H248 H 0.20420 0.08444 0.52311
 C249 C -0.00032 0.50126 1.39100
 C250 C -0.04037 0.48513 1.36924
 C251 C -0.04302 0.48632 1.32182
 N252 N -0.08075 0.46421 1.30096
 N253 N -0.08374 0.46547 1.25821
 C254 C -0.04917 0.48916 1.23471
 N255 N -0.01153 0.51143 1.25560
 N256 N -0.00845 0.50995 1.29830
 C257 C -0.05219 0.49171 1.18754
 C258 C -0.08740 0.46497 1.16336
 H259 H -0.07050 0.47085 1.38731
 H260 H -0.02618 0.51564 1.17149
 H261 H 0.03010 0.51363 1.37256
 H262 H -0.11463 0.44318 1.18011
 C263 C 0.02371 0.51402 0.64524
 C264 C -0.01170 0.50088 0.67456
 C265 C -0.00497 0.50303 0.72177
 N266 N -0.03939 0.48527 0.74867
 N267 N -0.03356 0.48652 0.79130
 C268 C 0.00691 0.50578 0.80867
 N269 N 0.04122 0.52376 0.78180
 N270 N 0.03543 0.52237 0.73919
 C271 C 0.01446 0.50696 0.85561
 C272 C -0.01797 0.48557 0.88474
 H273 H -0.04513 0.48763 0.66257
 H274 H 0.04690 0.52501 0.86735
 H275 H 0.05728 0.52604 0.65723
 H276 H -0.05061 0.46882 0.87263
   
