data_POSCAR
  _audit_creation_date              2014-09-24
  _audit_creation_method            'ToBaCCo'
  _symmetry_space_group_name_H-M    'P1'
  _symmetry_Int_Tables_number       1
  _symmetry_cell_setting            triclinic
  loop_
  _symmetry_equiv_pos_as_xyz
 x,y,z
_cell_length_a 43.2552
_cell_length_b 23.5125
_cell_length_c 18.2342
_cell_angle_alpha 89.852100
_cell_angle_beta 89.991300
_cell_angle_gamma 89.912200
loop_
  _atom_site_label
  _atom_site_type_symbol
  _atom_site_fract_x
  _atom_site_fract_y
  _atom_site_fract_z
C1 C 0.69196 0.30896 0.56588
 C2 C 0.67810 0.31941 0.49753
 C3 C 0.69246 0.30508 0.43175
 C4 C 0.72208 0.28005 0.43261
 C5 C 0.73706 0.26953 0.50058
 C6 C 0.72210 0.28434 0.56752
 C7 C 0.73896 0.27946 0.63316
 C8 C 0.76884 0.25769 0.63394
 C9 C 0.78350 0.23977 0.56911
 C10 C 0.76773 0.24712 0.50129
 C11 C 0.73771 0.26828 0.36702
 C12 C 0.76767 0.24709 0.36765
 C13 C 0.78306 0.23504 0.43392
 C14 C 0.81432 0.21630 0.43471
 C15 C 0.82951 0.21107 0.50229
 C16 C 0.81461 0.22022 0.56955
 H17 H 0.72992 0.29491 0.68462
 H18 H 0.78083 0.25773 0.68594
 H19 H 0.72729 0.27723 0.31426
 H20 H 0.77896 0.24257 0.31514
 H21 H 0.65500 0.33744 0.49503
 H22 H 0.85285 0.19403 0.50272
 C23 C 0.18968 0.79759 0.56719
 C24 C 0.17472 0.80788 0.50054
 C25 C 0.18865 0.79481 0.43358
 C26 C 0.21853 0.77045 0.43259
 C27 C 0.23422 0.76013 0.49979
 C28 C 0.21977 0.77396 0.56734
 C29 C 0.23629 0.76628 0.63286
 C30 C 0.26633 0.74497 0.63235
 C31 C 0.28090 0.72893 0.56644
 C32 C 0.26480 0.73784 0.49924
 C33 C 0.23350 0.75800 0.36619
 C34 C 0.26343 0.73641 0.36555
 C35 C 0.27952 0.72636 0.43128
 C36 C 0.31039 0.70706 0.43069
 C37 C 0.32615 0.69953 0.49673
 C38 C 0.31196 0.70860 0.56501
 H39 H 0.22643 0.77813 0.68520
 H40 H 0.27827 0.74312 0.68433
 H41 H 0.22239 0.76576 0.31393
 H42 H 0.27408 0.72874 0.31278
 H43 H 0.15180 0.82672 0.50075
 H44 H 0.34956 0.68291 0.49448
 C45 C 0.30072 0.31877 -0.56747
 C46 C 0.31282 0.33748 -0.50075
 C47 C 0.30083 0.31881 -0.43377
 C48 C 0.27497 0.28205 -0.43299
 C49 C 0.26164 0.26413 -0.50020
 C50 C 0.27489 0.28191 -0.56769
 C51 C 0.26220 0.26195 -0.63352
 C52 C 0.23722 0.22488 -0.63330
 C53 C 0.22273 0.20831 -0.56741
 C54 C 0.23549 0.22733 -0.49991
 C55 C 0.26232 0.26234 -0.36685
 C56 C 0.23729 0.22538 -0.36648
 C57 C 0.22275 0.20862 -0.43210
 C58 C 0.19728 0.17044 -0.43188
 C59 C 0.18620 0.15001 -0.49927
 C60 C 0.19729 0.17004 -0.56699
 H61 H 0.27171 0.27424 -0.68609
 H62 H 0.22993 0.20838 -0.68576
 H63 H 0.27187 0.27477 -0.31447
 H64 H 0.23001 0.20909 -0.31378
 H65 H 0.33308 0.36466 -0.50095
 H66 H 0.16593 0.12288 -0.49905
 C67 C -0.30223 0.67054 -0.43472
 C68 C -0.31326 0.65089 -0.50251
 C69 C -0.30275 0.67293 -0.56971
 C70 C -0.27787 0.71246 -0.56933
 C71 C -0.26476 0.72999 -0.50158
 C72 C -0.27699 0.70923 -0.43423
 C73 C -0.26230 0.72481 -0.36837
 C74 C -0.23788 0.76303 -0.36785
 C75 C -0.22589 0.78513 -0.43344
 C76 C -0.23900 0.76783 -0.50113
 C77 C -0.26449 0.73241 -0.63488
 C78 C -0.24015 0.77084 -0.63429
 C79 C -0.22624 0.78791 -0.56828
 C80 C -0.20082 0.82640 -0.56728
 C81 C -0.18978 0.84551 -0.49924
 C82 C -0.20111 0.82417 -0.43302
 H83 H -0.26915 0.70689 -0.31621
 H84 H -0.22837 0.77481 -0.31517
 H85 H -0.27232 0.71806 -0.68793
 H86 H -0.23254 0.78713 -0.68671
 H87 H -0.33322 0.62300 -0.50290
 H88 H -0.16991 0.87359 -0.49732
 O89 O -0.04702 0.90487 0.13641
 O90 O -0.07972 0.95914 0.06574
 C91 C -0.07423 0.92324 0.11816
 O92 O 0.04554 1.09354 0.13207
 O93 O 0.07801 1.03713 0.06396
 C94 C 0.07272 1.07504 0.11387
 O95 O -0.04075 1.09830 0.13789
 O96 O -0.07674 1.05287 0.06644
 C97 C -0.06895 1.08671 0.11921
 O98 O 0.03887 0.88930 0.12887
 O99 O 0.07479 0.93965 0.06237
 C100 C 0.06707 0.90213 0.11120
 Zr101 Zr -0.00327 0.92481 0.09115
 O102 O -0.00086 0.91618 0.20649
 O103 O -0.00760 0.83595 0.07786
 Zr104 Zr 0.00143 1.06889 0.09311
 O105 O 0.00463 1.07236 0.20881
 O106 O 0.00098 1.15889 0.08743
 O107 O -0.02819 0.99982 0.10686
 O108 O 0.02560 0.99370 0.10603
 O109 O 0.03907 0.89181 -0.13047
 O110 O 0.07490 0.94089 -0.06249
 C111 C 0.06725 0.90427 -0.11222
 O112 O -0.04071 1.10113 -0.13438
 O113 O -0.07672 1.05428 -0.06419
 C114 C -0.06892 1.08932 -0.11589
 O115 O 0.04557 1.09582 -0.12905
 O116 O 0.07801 1.03824 -0.06213
 C117 C 0.07274 1.07694 -0.11130
 O118 O -0.04702 0.90692 -0.13735
 O119 O -0.07973 0.96016 -0.06573
 C120 C -0.07425 0.92489 -0.11863
 Zr121 Zr -0.00325 0.92648 -0.09218
 O122 O -0.00028 0.92202 -0.20782
 O123 O -0.00926 0.83720 -0.08635
 Zr124 Zr 0.00144 1.07056 -0.09060
 O125 O 0.00461 1.07604 -0.20620
 O126 O 0.00108 1.16044 -0.08283
 Zr127 Zr -0.04728 1.00297 0.00041
 Zr128 Zr 0.04529 0.99263 0.00043
 O129 O 0.02562 0.99564 -0.10522
 O130 O -0.02821 1.00176 -0.10613
 O131 O 0.02436 0.91170 -0.00058
 O132 O -0.02550 1.08297 0.00142
 O133 O -0.03101 0.91858 -0.00052
 O134 O 0.02974 1.07768 0.00137
 H135 H 0.03888 0.99166 0.15020
 H136 H -0.03871 1.11745 0.00190
 H137 H 0.03895 0.99440 -0.14937
 H138 H -0.04643 0.88744 -0.00080
 H139 H 0.02105 1.17126 0.06689
 H140 H 0.02116 1.17238 -0.06197
 H141 H -0.01050 1.04889 -0.22670
 H142 H -0.01268 0.95382 -0.22776
 H143 H 0.00888 0.82117 -0.06038
 H144 H -0.00844 0.81980 0.12805
 H145 H -0.01104 0.95004 0.22758
 H146 H -0.01052 1.04497 0.22878
 O147 O 0.45422 0.40465 0.13613
 O148 O 0.42124 0.45757 0.06454
 C149 C 0.42691 0.42218 0.11742
 O150 O 0.54562 0.59543 0.12876
 O151 O 0.57848 0.53936 0.06121
 C152 C 0.57293 0.57746 0.11073
 O153 O 0.45927 0.59849 0.13445
 O154 O 0.42367 0.55148 0.06360
 C155 C 0.43117 0.58607 0.11579
 O156 O 0.54032 0.39104 0.12919
 O157 O 0.57589 0.44177 0.06213
 C158 C 0.56843 0.40441 0.11132
 Zr159 Zr 0.49791 0.42529 0.09096
 O160 O 0.50037 0.41839 0.20650
 O161 O 0.49415 0.33617 0.07964
 Zr162 Zr 0.50166 0.56952 0.09016
 O163 O 0.50476 0.57461 0.20575
 O164 O 0.50067 0.65942 0.08254
 O165 O 0.47248 0.49993 0.10518
 O166 O 0.52631 0.49498 0.10457
 O167 O 0.54051 0.39076 -0.13013
 O168 O 0.57599 0.44151 -0.06321
 C169 C 0.56860 0.40421 -0.11231
 O170 O 0.45944 0.59767 -0.13861
 O171 O 0.42371 0.55120 -0.06722
 C172 C 0.43130 0.58547 -0.11993
 O173 O 0.54575 0.59460 -0.13267
 O174 O 0.57848 0.53860 -0.06437
 C175 C 0.57302 0.57646 -0.11448
 O176 O 0.45436 0.40394 -0.13735
 O177 O 0.42131 0.45729 -0.06679
 C178 C 0.42703 0.42163 -0.11909
 Zr179 Zr 0.49798 0.42492 -0.09247
 O180 O 0.50105 0.41927 -0.20803
 O181 O 0.49253 0.33558 -0.08504
 Zr182 Zr 0.50177 0.56917 -0.09342
 O183 O 0.50492 0.57464 -0.20898
 O184 O 0.50081 0.65907 -0.08617
 Zr185 Zr 0.45344 0.50147 -0.00137
 Zr186 Zr 0.54604 0.49306 -0.00096
 O187 O 0.52638 0.49456 -0.10669
 O188 O 0.47259 0.49952 -0.10781
 O189 O 0.52563 0.41169 -0.00052
 O190 O 0.47465 0.58199 -0.00181
 O191 O 0.47027 0.41744 -0.00071
 O192 O 0.52999 0.57782 -0.00161
 H193 H 0.53961 0.49373 0.14876
 H194 H 0.46117 0.61611 -0.00211
 H195 H 0.53968 0.49312 -0.15088
 H196 H 0.45506 0.38595 -0.00051
 H197 H 0.52072 0.67194 0.06202
 H198 H 0.52113 0.67165 -0.06733
 H199 H 0.49123 0.54499 -0.22928
 H200 H 0.48815 0.45015 -0.22862
 H201 H 0.51072 0.32024 -0.05861
 H202 H 0.49350 0.32065 0.13017
 H203 H 0.48924 0.45152 0.22685
 H204 H 0.49012 0.54650 0.22621
 C205 C 0.35725 0.36912 0.25116
 C206 C 0.34039 0.41004 0.29007
 C207 C 0.32066 0.39338 0.34691
 C208 C 0.31752 0.33561 0.36510
 C209 C 0.33379 0.29464 0.32450
 C210 C 0.35352 0.31134 0.26767
 C211 C 0.38069 0.38683 0.20002
 C212 C 0.40134 0.40243 0.16046
 H213 H 0.34337 0.45490 0.27833
 H214 H 0.30866 0.42557 0.37839
 H215 H 0.33215 0.25001 0.33882
 H216 H 0.36675 0.27941 0.23856
 C217 C -0.14389 0.87476 0.25455
 C218 C -0.15457 0.91565 0.30400
 C219 C -0.17436 0.90006 0.36103
 C220 C -0.18423 0.84323 0.36927
 C221 C -0.17380 0.80265 0.31794
 C222 C -0.15384 0.81839 0.26101
 C223 C -0.12047 0.89007 0.20211
 C224 C -0.09983 0.90435 0.16172
 H225 H -0.14682 0.95936 0.29985
 H226 H -0.18184 0.93254 0.39920
 H227 H -0.17949 0.75807 0.32432
 H228 H -0.14522 0.78617 0.22384
 C229 C 0.64155 0.62766 0.24852
 C230 C 0.65023 0.68439 0.25859
 C231 C 0.66957 0.69931 0.31698
 C232 C 0.68072 0.65754 0.36616
 C233 C 0.67193 0.60049 0.35467
 C234 C 0.65273 0.58577 0.29622
 C235 C 0.61872 0.61262 0.19451
 C236 C 0.59842 0.59787 0.15348
 H237 H 0.64113 0.71737 0.22300
 H238 H 0.67438 0.74395 0.32596
 H239 H 0.67990 0.56713 0.39120
 H240 H 0.64585 0.54180 0.28953
 C241 C 0.14170 1.12380 0.25150
 C242 C 0.15167 1.18004 0.25908
 C243 C 0.17105 1.19511 0.31734
 C244 C 0.18087 1.15401 0.36897
 C245 C 0.17089 1.09736 0.35978
 C246 C 0.15167 1.08246 0.30143
 C247 C 0.11877 1.10903 0.19761
 C248 C 0.09835 1.09471 0.15667
 H249 H 0.14356 1.21264 0.22162
 H250 H 0.17687 1.23957 0.32428
 H251 H 0.17791 1.06445 0.39803
 H252 H 0.14384 1.03888 0.29655
 C253 C 0.63531 0.35118 -0.25289
 C254 C 0.63978 0.39001 -0.31000
 C255 C 0.65917 0.37656 -0.36841
 C256 C 0.67493 0.32403 -0.37069
 C257 C 0.67075 0.28554 -0.31196
 C258 C 0.65102 0.29908 -0.25346
 C259 C 0.61293 0.36478 -0.19721
 C260 C 0.59308 0.38042 -0.15546
 H261 H 0.62767 0.43041 -0.31024
 H262 H 0.66194 0.40756 -0.41199
 H263 H 0.68145 0.24387 -0.31304
 H264 H 0.64739 0.26838 -0.20992
 C265 C 0.13446 0.84560 -0.24839
 C266 C 0.14732 0.88724 -0.29412
 C267 C 0.16647 0.87158 -0.35229
 C268 C 0.17312 0.81405 -0.36510
 C269 C 0.16108 0.77242 -0.31772
 C270 C 0.14174 0.78817 -0.25954
 C271 C 0.11161 0.86227 -0.19522
 C272 C 0.09164 0.87951 -0.15482
 H273 H 0.14163 0.93171 -0.28642
 H274 H 0.17534 0.90413 -0.38877
 H275 H 0.16569 0.72780 -0.32756
 H276 H 0.13168 0.75557 -0.22494
 C277 C 0.36733 0.65612 -0.25599
 C278 C 0.37937 0.69224 -0.30974
 C279 C 0.36070 0.71129 -0.36705
 C280 C 0.32936 0.69513 -0.37147
 C281 C 0.31722 0.65988 -0.31572
 C282 C 0.33613 0.64046 -0.25846
 C283 C 0.38808 0.63152 -0.20300
 C284 C 0.40709 0.61065 -0.16277
 H285 H 0.40353 0.70436 -0.30864
 H286 H 0.37088 0.73859 -0.40847
 H287 H 0.29367 0.64446 -0.31873
 H288 H 0.32672 0.61166 -0.21775
 C289 C -0.13195 1.16522 -0.24957
 C290 C -0.16328 1.15069 -0.25344
 C291 C -0.18161 1.17137 -0.31102
 C292 C -0.16872 1.20663 -0.36582
 C293 C -0.13734 1.22215 -0.35953
 C294 C -0.11926 1.20187 -0.30187
 C295 C -0.11167 1.13866 -0.19713
 C296 C -0.09294 1.11617 -0.15763
 H297 H -0.17321 1.12160 -0.21378
 H298 H -0.20526 1.15666 -0.31526
 H299 H -0.12663 1.24958 -0.40003
 H300 H -0.09500 1.21321 -0.29960
 C301 C 0.64191 0.62460 -0.25312
 C302 C 0.65164 0.58321 -0.30303
 C303 C 0.67095 0.59793 -0.36144
 C304 C 0.68127 0.65441 -0.37067
 C305 C 0.67169 0.69550 -0.31901
 C306 C 0.65223 0.68063 -0.26074
 C307 C 0.61896 0.61016 -0.19901
 C308 C 0.59856 0.59612 -0.15774
 H309 H 0.64358 0.53976 -0.29804
 H310 H 0.67779 0.56500 -0.39963
 H311 H 0.67774 0.73987 -0.32594
 H312 H 0.64432 0.71326 -0.22329
 C313 C 0.14167 1.12557 -0.24943
 C314 C 0.15156 1.08390 -0.29874
 C315 C 0.17076 1.09836 -0.35741
 C316 C 0.18082 1.15489 -0.36756
 C317 C 0.17109 1.19635 -0.31657
 C318 C 0.15172 1.18172 -0.25798
 C319 C 0.11877 1.11114 -0.19522
 C320 C 0.09836 1.09687 -0.15410
 H321 H 0.14367 1.04040 -0.29312
 H322 H 0.17772 1.06518 -0.39512
 H323 H 0.17697 1.24072 -0.32425
 H324 H 0.14367 1.21457 -0.22102
 C325 C 0.35750 0.36869 -0.25282
 C326 C 0.35371 0.31095 -0.26907
 C327 C 0.33398 0.29442 -0.32584
 C328 C 0.31777 0.33552 -0.36663
 C329 C 0.32100 0.39325 -0.34873
 C330 C 0.34073 0.40974 -0.29196
 C331 C 0.38090 0.38624 -0.20165
 C332 C 0.40151 0.40180 -0.16207
 H333 H 0.36688 0.27891 -0.23978
 H334 H 0.33225 0.24981 -0.33993
 H335 H 0.30903 0.42554 -0.38035
 H336 H 0.34377 0.45457 -0.28040
 C337 C -0.14418 0.87275 -0.25186
 C338 C -0.16205 0.91372 -0.28831
 C339 C -0.18192 0.89752 -0.34498
 C340 C -0.18418 0.84015 -0.36548
 C341 C -0.16687 0.79906 -0.32731
 C342 C -0.14701 0.81529 -0.27064
 C343 C -0.12065 0.89030 -0.20096
 C344 C -0.09993 0.90564 -0.16156
 H345 H -0.15976 0.95837 -0.27481
 H346 H -0.19472 0.92986 -0.37461
 H347 H -0.16780 0.75479 -0.34347
 H348 H -0.13300 0.78335 -0.24348
 C349 C 0.36533 0.65499 0.24798
 C350 C 0.37264 0.70487 0.28592
 C351 C 0.35375 0.72352 0.34313
 C352 C 0.32726 0.69259 0.36265
 C353 C 0.31938 0.64370 0.32280
 C354 C 0.33838 0.62493 0.26565
 C355 C 0.38728 0.63160 0.19703
 C356 C 0.40681 0.61124 0.15795
 H357 H 0.39362 0.72805 0.27327
 H358 H 0.36034 0.76087 0.37403
 H359 H 0.29931 0.61885 0.33810
 H360 H 0.33274 0.58587 0.23729
 C361 C -0.13208 1.15890 0.25550
 C362 C -0.11997 1.19833 0.30489
 C363 C -0.13809 1.21871 0.36232
 C364 C -0.16894 1.20060 0.37111
 C365 C -0.18115 1.16172 0.31990
 C366 C -0.16279 1.14102 0.26253
 C367 C -0.11173 1.13350 0.20247
 C368 C -0.09297 1.11219 0.16212
 H369 H -0.09615 1.21212 0.30031
 H370 H -0.12788 1.24863 0.40036
 H371 H -0.20427 1.14485 0.32657
 H372 H -0.17221 1.10965 0.22532
 C373 C 0.63642 0.34708 0.24632
 C374 C 0.64157 0.28987 0.26433
 C375 C 0.66120 0.27574 0.32269
 C376 C 0.67564 0.31881 0.36336
 C377 C 0.67114 0.37589 0.34358
 C378 C 0.65171 0.38991 0.28520
 C379 C 0.61316 0.36296 0.19373
 C380 C 0.59296 0.37983 0.15369
 H381 H 0.62959 0.25644 0.23511
 H382 H 0.66418 0.23154 0.33803
 H383 H 0.68188 0.40956 0.37498
 H384 H 0.64766 0.43428 0.27217
 C385 C 0.13355 0.84155 0.24813
 C386 C 0.13805 0.78391 0.26487
 C387 C 0.15709 0.76824 0.32370
 C388 C 0.17161 0.81019 0.36611
 C389 C 0.16763 0.86772 0.34793
 C390 C 0.14876 0.88329 0.28912
 C391 C 0.11103 0.85889 0.19447
 C392 C 0.09131 0.87674 0.15374
 H393 H 0.12610 0.75132 0.23407
 H394 H 0.15972 0.72370 0.33769
 H395 H 0.17848 0.90054 0.38058
 H396 H 0.14519 0.92798 0.27717
   
