data_POSCAR
  _audit_creation_date              2014-09-24
  _audit_creation_method            'ToBaCCo'
  _symmetry_space_group_name_H-M    'P1'
  _symmetry_Int_Tables_number       1
  _symmetry_cell_setting            triclinic
  loop_
  _symmetry_equiv_pos_as_xyz
 x,y,z
_cell_length_a 16.6982
_cell_length_b 17.3466
_cell_length_c 16.5185
_cell_angle_alpha 75.371100
_cell_angle_beta 105.772800
_cell_angle_gamma 60.067700
loop_
  _atom_site_label
  _atom_site_type_symbol
  _atom_site_fract_x
  _atom_site_fract_y
  _atom_site_fract_z
C1 C 0.73158 0.44473 0.07602
 C2 C 0.69790 0.52938 0.09034
 C3 C 0.59393 0.59630 0.06917
 C4 C 0.52085 0.57947 0.03280
 C5 C 0.55384 0.49343 0.01883
 C6 C 0.65983 0.42544 0.04041
 C7 C 0.69044 0.34100 0.02530
 C8 C 0.61865 0.32256 -0.00845
 C9 C 0.51376 0.38761 -0.02771
 C10 C 0.48070 0.47534 -0.01612
 C11 C 0.41555 0.64659 0.01093
 C12 C 0.34378 0.62928 -0.02363
 C13 C 0.37478 0.54426 -0.03745
 C14 C 0.30245 0.52602 -0.07126
 C15 C 0.33469 0.44144 -0.08451
 C16 C 0.43910 0.37023 -0.06013
 H17 H 0.77036 0.28857 0.03958
 H18 H 0.64618 0.25806 -0.02115
 H19 H 0.38775 0.71326 0.02039
 H20 H 0.26349 0.68320 -0.03962
 H21 H 0.75337 0.54338 0.11825
 H22 H 0.27895 0.42637 -0.10727
 C23 C -0.01627 0.68401 0.40239
 C24 C 0.01873 0.65311 0.34041
 C25 C 0.03742 0.56616 0.33703
 C26 C 0.01755 0.50983 0.39406
 C27 C -0.01503 0.53778 0.45900
 C28 C -0.03264 0.62540 0.46322
 C29 C -0.06599 0.65118 0.52806
 C30 C -0.06853 0.58628 0.59502
 C31 C -0.04621 0.49662 0.59516
 C32 C -0.02561 0.47539 0.52263
 C33 C 0.03434 0.42319 0.39043
 C34 C 0.02123 0.36378 0.45077
 C35 C -0.00912 0.38849 0.51736
 C36 C -0.01682 0.32550 0.58318
 C37 C -0.02518 0.34147 0.66004
 C38 C -0.03873 0.42494 0.66781
 H39 H -0.08924 0.72082 0.52952
 H40 H -0.08996 0.60915 0.64524
 H41 H 0.05943 0.39968 0.34156
 H42 H 0.04082 0.29563 0.44738
 H43 H 0.03555 0.69525 0.29709
 H44 H -0.02013 0.28727 0.71553
 C45 C 0.58271 0.00604 0.67279
 C46 C 0.63725 0.03969 0.64748
 C47 C 0.61971 0.07585 0.55401
 C48 C 0.54804 0.07699 0.48418
 C49 C 0.49101 0.04474 0.50832
 C50 C 0.50600 0.01207 0.60241
 C51 C 0.44465 -0.01433 0.62355
 C52 C 0.37020 -0.00920 0.55338
 C53 C 0.35899 0.01611 0.46057
 C54 C 0.42094 0.04297 0.43869
 C55 C 0.53192 0.11010 0.39047
 C56 C 0.46583 0.10565 0.32323
 C57 C 0.41366 0.06778 0.34722
 C58 C 0.35414 0.05459 0.28133
 C59 C 0.28698 0.03629 0.29987
 C60 C 0.28693 0.01839 0.38754
 H61 H 0.45245 -0.03719 0.69437
 H62 H 0.32435 -0.02751 0.57529
 H63 H 0.57171 0.13819 0.36870
 H64 H 0.45509 0.13345 0.25172
 H65 H 0.69627 0.03474 0.70167
 H66 H 0.23643 0.03243 0.24657
 O67 O 0.52124 -0.01455 -0.11811
 O68 O 0.42584 0.03232 0.05622
 O69 O 0.47336 0.11774 -0.04668
 O70 O 0.46737 -0.09635 0.00103
 O71 O 0.63349 -0.19734 0.11211
 O72 O 0.64083 0.01816 0.06026
 O73 O 0.59153 -0.06513 0.16793
 O74 O 0.68414 -0.11758 -0.00160
 Cu75 Cu 0.45738 0.01911 -0.04229
 Cu76 Cu 0.65445 -0.10020 0.09418
 C77 C 0.61939 -0.07526 -0.08841
 C78 C 0.49419 -0.01044 0.14253
 C79 C 0.55608 0.10551 0.00187
 C80 C 0.54707 -0.18160 0.06948
 O81 O -0.09850 0.48624 1.03757
 O82 O -0.00620 0.62483 0.94603
 O83 O -0.10394 0.56082 0.87646
 O84 O -0.00241 0.55554 1.10816
 O85 O 0.15152 0.41462 1.15494
 O86 O 0.04703 0.41389 0.92934
 O87 O 0.14413 0.47981 0.99301
 O88 O 0.05484 0.34118 1.09237
 Cu89 Cu -0.06778 0.57031 0.98832
 Cu90 Cu 0.11458 0.39714 1.04855
 C91 C -0.03895 0.39078 1.07874
 C92 C 0.08451 0.57538 0.95240
 C93 C -0.04469 0.48877 0.86327
 C94 C 0.09340 0.48615 1.16922
 O95 O -0.06452 -0.05455 0.40623
 O96 O -0.08905 0.16701 0.41520
 O97 O 0.03826 0.02771 0.39798
 O98 O -0.20180 0.11629 0.41660
 O99 O -0.11028 0.02095 0.57242
 O100 O 0.13309 -0.06777 0.55376
 O101 O 0.00332 0.07984 0.57208
 O102 O 0.02725 -0.14022 0.56245
 Cu103 Cu -0.08837 0.06657 0.39335
 Cu104 Cu 0.02263 -0.03774 0.58079
 C105 C -0.01272 -0.13561 0.48272
 C106 C -0.04633 0.16049 0.49566
 C107 C 0.12591 -0.02923 0.47325
 C108 C -0.19739 0.09016 0.49759
 N109 N -0.17077 0.38756 1.09319
 N110 N -0.07892 0.33897 1.10847
 N111 N 0.20790 0.58052 0.91945
 N112 N 0.11985 0.62789 0.91323
 N113 N -0.03026 -0.22728 0.40340
 N114 N 0.00209 -0.22360 0.48055
 N115 N -0.01077 0.24152 0.57802
 N116 N -0.05445 0.24521 0.49942
 N117 N 0.61744 -0.04574 -0.23657
 N118 N 0.66054 -0.10041 -0.15068
 N119 N 0.37104 0.04721 0.20191
 N120 N 0.46456 0.00113 0.21417
 N121 N 0.56591 -0.32784 0.08752
 N122 N 0.53551 -0.25686 0.10566
 N123 N 0.46338 0.27815 -0.05911
 N124 N 0.55033 0.19156 -0.00279
 N125 N -0.33114 0.11010 0.53122
 N126 N -0.29050 0.14683 0.50470
 N127 N 0.20478 0.01478 0.39413
 N128 N 0.21550 -0.04165 0.46906
 N129 N 0.08700 0.52962 1.29127
 N130 N 0.13876 0.48856 1.25439
 N131 N -0.01961 0.42155 0.75900
 N132 N -0.07863 0.49462 0.77138
   
