data_POSCAR
  _audit_creation_date              2014-09-24
  _audit_creation_method            'ToBaCCo'
  _symmetry_space_group_name_H-M    'P1'
  _symmetry_Int_Tables_number       1
  _symmetry_cell_setting            triclinic
  loop_
  _symmetry_equiv_pos_as_xyz
 x,y,z
_cell_length_a 22.0515
_cell_length_b 21.9980
_cell_length_c 60.6381
_cell_angle_alpha 89.991900
_cell_angle_beta 90.082700
_cell_angle_gamma 119.892200
loop_
  _atom_site_label
  _atom_site_type_symbol
  _atom_site_fract_x
  _atom_site_fract_y
  _atom_site_fract_z
C1 C -0.07045 -0.07746 0.48290
 C2 C -0.02254 -0.04062 0.49979
 C3 C -0.01132 -0.07725 0.51674
 C4 C -0.04786 -0.15100 0.51708
 C5 C -0.09578 -0.18721 0.49994
 C6 C -0.10760 -0.15122 0.48271
 C7 C 0.01601 0.03665 0.49974
 C8 C 0.00809 0.07369 0.51728
 C9 C 0.04468 0.14726 0.51740
 C10 C 0.08941 0.18336 0.49972
 C11 C 0.09786 0.14691 0.48206
 C12 C 0.06081 0.07333 0.48219
 H13 H -0.07825 -0.04811 0.46994
 H14 H 0.02589 -0.04773 0.52965
 H15 H -0.02643 0.04503 0.53083
 H16 H 0.06659 0.04440 0.46867
 H17 H -0.12415 -0.24400 0.50000
 H18 H 0.11786 0.24017 0.49972
 C19 C 1.07741 0.00599 0.14922
 C20 C 1.04051 0.01598 0.16634
 C21 C 1.07704 0.06303 0.18346
 C22 C 1.15035 0.10053 0.18357
 C23 C 1.18680 0.09046 0.16628
 C24 C 1.15106 0.04307 0.14896
 C25 C 0.96342 -0.02272 0.16630
 C26 C 0.92664 -0.06764 0.18384
 C27 C 0.85324 -0.10431 0.18397
 C28 C 0.81706 -0.09541 0.16631
 C29 C 0.85325 -0.05051 0.14865
 C30 C 0.92664 -0.01432 0.14877
 H31 H 1.04822 -0.03069 0.13615
 H32 H 1.04814 0.07017 0.19669
 H33 H 0.95536 -0.07366 0.19738
 H34 H 0.95536 0.02042 0.13526
 H35 H 1.24345 0.11977 0.16644
 H36 H 0.76040 -0.12349 0.16632
 C37 C 0.06630 0.99216 0.85152
 C38 C 0.02031 0.98344 0.83422
 C39 C 0.01072 0.93749 0.81683
 C40 C 0.04661 0.89986 0.81663
 C41 C 0.09214 0.90857 0.83412
 C42 C 0.10287 0.95487 0.85170
 C43 C -0.01770 1.02272 0.83428
 C44 C -0.00746 1.06973 0.81717
 C45 C -0.04339 1.10733 0.81709
 C46 C -0.08965 1.09748 0.83443
 C47 C -0.10108 1.05006 0.85172
 C48 C -0.06441 1.01287 0.85142
 H49 H 0.07315 1.02808 0.86478
 H50 H -0.02449 0.93145 0.80344
 H51 H 0.02828 1.07660 0.80390
 H52 H -0.07178 0.97611 0.86446
 H53 H 0.11955 0.87917 0.83388
 H54 H -0.11712 1.12683 0.83429
 O55 O 0.41291 -0.06227 -0.02221
 O56 O 0.52628 -0.06366 0.02145
 O57 O 0.41072 -0.05903 0.02089
 O58 O 0.53298 -0.05753 -0.02151
 O59 O 0.58521 0.05813 -0.02218
 O60 O 0.47323 0.05657 0.02233
 O61 O 0.58851 0.05203 0.02086
 O62 O 0.46514 0.05332 -0.02071
 Cu63 Cu 0.46491 -0.07221 -0.00038
 Cu64 Cu 0.53376 0.06660 0.00011
 C65 C 0.41898 -0.00491 -0.02887
 C66 C 0.57693 -0.00670 0.02851
 C67 C 0.42278 -0.00083 0.02915
 C68 C 0.57903 0.00122 -0.02934
 O69 O 0.06310 0.47590 0.64505
 O70 O 0.06275 0.59122 0.68826
 O71 O 0.05853 0.47106 0.68810
 O72 O 0.05841 0.59173 0.64523
 O73 O -0.05701 0.52949 0.64436
 O74 O -0.05692 0.41728 0.68868
 O75 O -0.05269 0.53739 0.68746
 O76 O -0.05233 0.41399 0.64570
 Cu77 Cu 0.07224 0.53827 0.66666
 Cu78 Cu -0.06629 0.46880 0.66655
 C79 C 0.00608 0.42526 0.63804
 C80 C 0.00562 0.58456 0.69523
 C81 C 0.00016 0.42432 0.69591
 C82 C 0.00003 0.57967 0.63724
 O83 O 0.52553 0.58846 0.31164
 O84 O 0.40964 0.47395 0.35478
 O85 O 0.52974 0.58957 0.35468
 O86 O 0.41016 0.46831 0.31176
 O87 O 0.47201 0.41438 0.31151
 O88 O 0.58292 0.52704 0.35591
 O89 O 0.46323 0.41175 0.35446
 O90 O 0.58726 0.53447 0.31281
 Cu91 Cu 0.46301 0.53589 0.33317
 Cu92 Cu 0.53218 0.46616 0.33371
 C93 C 0.57614 0.58163 0.30488
 C94 C 0.41598 0.42328 0.36194
 C95 C 0.57587 0.57746 0.36286
 C96 C 0.42206 0.42135 0.30412
 C97 C 0.02397 0.26091 0.56956
 N98 N 0.08178 0.28986 0.55661
 N99 N 0.08809 0.25367 0.54008
 C100 C 0.03711 0.18680 0.53591
 N101 N -0.02069 0.15761 0.54896
 N102 N -0.02729 0.19408 0.56544
 C103 C 0.01809 0.30196 0.58767
 N104 N -0.04353 0.28075 0.59828
 N105 N -0.04796 0.31969 0.61441
 C106 C 0.00925 0.38083 0.62054
 N107 N 0.07069 0.40157 0.60999
 N108 N 0.07498 0.36306 0.59382
 C109 C 0.74021 0.76212 0.23623
 N110 N 0.80688 0.77737 0.23216
 N111 N 0.84317 0.82017 0.21565
 C112 C 0.81393 0.84879 0.20251
 N113 N 0.74722 0.83321 0.20662
 N114 N 0.71123 0.79099 0.22319
 C115 C 0.69932 0.71560 0.25440
 N116 N 0.63837 0.71183 0.26042
 N117 N 0.59994 0.66946 0.27662
 C118 C 0.62060 0.62874 0.28736
 N119 N 0.68161 0.63221 0.28136
 N120 N 0.72048 0.67518 0.26519
 C121 C 0.23851 -0.02174 -0.09771
 N122 N 0.21025 0.02067 -0.09887
 N123 N 0.16620 0.01307 -0.11514
 C124 C 0.14922 -0.03671 -0.13100
 N125 N 0.17822 -0.07853 -0.12978
 N126 N 0.22152 -0.07150 -0.11343
 C127 C 0.28540 -0.01592 -0.07961
 N128 N 0.29621 -0.07027 -0.07535
 N129 N 0.33850 -0.06630 -0.05908
 C130 C 0.37235 -0.00752 -0.04658
 N131 N 0.36202 0.04728 -0.05087
 N132 N 0.31889 0.04298 -0.06705
 C133 C -0.01982 0.73898 0.56749
 N134 N 0.02211 0.80955 0.56601
 N135 N 0.01318 0.84525 0.54975
 C136 C -0.03753 0.81177 0.53423
 N137 N -0.07876 0.74103 0.53575
 N138 N -0.07040 0.70549 0.55208
 C139 C -0.01299 0.69884 0.58570
 N140 N -0.06696 0.63408 0.59038
 N141 N -0.06230 0.59679 0.60687
 C142 C -0.00320 0.62238 0.61919
 N143 N 0.05125 0.68709 0.61448
 N144 N 0.04626 0.72489 0.59807
 C145 C 0.26220 0.23909 0.23507
 N146 N 0.29201 0.21022 0.22244
 N147 N 0.25644 0.16655 0.20608
 C148 C 0.18937 0.14948 0.20177
 N149 N 0.15934 0.17819 0.21450
 N150 N 0.19518 0.22241 0.23080
 C151 C 0.30239 0.28667 0.25316
 N152 N 0.28000 0.32650 0.26367
 N153 N 0.31790 0.36991 0.27992
 C154 C 0.37913 0.37444 0.28629
 N155 N 0.40108 0.33439 0.27582
 N156 N 0.36363 0.29159 0.25953
 C157 C 0.76089 0.02286 -0.09819
 N158 N 0.77836 0.07361 -0.11358
 N159 N 0.82244 0.08187 -0.12978
 C160 C 0.85175 0.04036 -0.13116
 N161 N 0.83426 -0.01041 -0.11563
 N162 N 0.78945 -0.01924 -0.09951
 C163 C 0.71327 0.01568 -0.08021
 N164 N 0.67990 -0.04389 -0.06798
 N165 N 0.63643 -0.04933 -0.05181
 C166 C 0.62558 0.00496 -0.04720
 N167 N 0.65925 0.06439 -0.05937
 N168 N 0.70191 0.06951 -0.07564
 C169 C 0.26203 0.01702 0.09860
 N170 N 0.19161 -0.02512 0.09988
 N171 N 0.15558 -0.01676 0.11610
 C172 C 0.18858 0.03359 0.13178
 N173 N 0.25917 0.07509 0.13045
 N174 N 0.29503 0.06728 0.11415
 C175 C 0.30255 0.01068 0.08046
 N176 N 0.36740 0.06478 0.07607
 N177 N 0.40504 0.06056 0.05966
 C178 C 0.37972 0.00179 0.04714
 N179 N 0.31491 -0.05280 0.05156
 N180 N 0.27677 -0.04825 0.06789
 C181 C 0.75421 0.73794 0.43251
 N182 N 0.78288 0.80860 0.43381
 N183 N 0.82754 0.84457 0.45000
 C184 C 0.84477 0.81129 0.46564
 N185 N 0.81522 0.74045 0.46430
 N186 N 0.77130 0.70465 0.44803
 C187 C 0.70731 0.69746 0.41435
 N188 N 0.69644 0.63240 0.40988
 N189 N 0.65467 0.59482 0.39342
 C190 C 0.62142 0.62042 0.38092
 N191 N 0.63174 0.68543 0.38542
 N192 N 0.67436 0.72352 0.40180
 C193 C -0.01895 0.24429 0.76530
 N194 N 0.03165 0.22780 0.76952
 N195 N 0.02403 0.18415 0.78594
 C196 C -0.03416 0.15585 0.79882
 N197 N -0.08441 0.17275 0.79456
 N198 N -0.07707 0.21584 0.77809
 C199 C -0.01245 0.29118 0.74709
 N200 N -0.06904 0.29577 0.74081
 N201 N -0.06448 0.33802 0.72443
 C202 C -0.00303 0.37781 0.71378
 N203 N 0.05394 0.37359 0.72006
 N204 N 0.04922 0.33074 0.73640
 C205 C 0.74029 -0.02732 0.09678
 N206 N 0.71104 -0.08551 0.10963
 N207 N 0.74703 -0.09263 0.12606
 C208 C 0.81399 -0.04212 0.13022
 N209 N 0.84349 0.01606 0.11726
 N210 N 0.80722 0.02348 0.10088
 C211 C 0.69944 -0.02061 0.07876
 N212 N 0.72109 0.04139 0.06821
 N213 N 0.68237 0.04649 0.05214
 C214 C 0.62102 -0.01042 0.04601
 N215 N 0.59984 -0.07223 0.05650
 N216 N 0.63812 -0.07718 0.07261
 C217 C 0.23268 0.25974 0.43008
 N218 N 0.21703 0.19281 0.43425
 N219 N 0.17375 0.15657 0.45065
 C220 C 0.14502 0.18611 0.46358
 N221 N 0.16096 0.25306 0.45936
 N222 N 0.20367 0.28901 0.44289
 C223 C 0.27990 0.30058 0.41206
 N224 N 0.28425 0.36181 0.40582
 N225 N 0.32731 0.40014 0.38974
 C226 C 0.36817 0.37909 0.37936
 N227 N 0.36411 0.31782 0.38558
 N228 N 0.32047 0.27906 0.40162
 C229 C 0.02386 0.76536 0.76425
 N230 N -0.02726 0.78097 0.76859
 N231 N -0.02013 0.82397 0.78516
 C232 C 0.03807 0.85240 0.79810
 N233 N 0.08887 0.83644 0.79371
 N234 N 0.08202 0.79403 0.77709
 C235 C 0.01770 0.71879 0.74598
 N236 N 0.07463 0.71492 0.73968
 N237 N 0.07027 0.67250 0.72338
 C238 C 0.00871 0.63183 0.71283
 N239 N -0.04857 0.63542 0.71911
 N240 N -0.04406 0.67843 0.73537
   
