data_POSCAR
  _audit_creation_date              2014-09-24
  _audit_creation_method            'ToBaCCo'
  _symmetry_space_group_name_H-M    'P1'
  _symmetry_Int_Tables_number       1
  _symmetry_cell_setting            triclinic
  loop_
  _symmetry_equiv_pos_as_xyz
 x,y,z
_cell_length_a 58.0636
_cell_length_b 57.3441
_cell_length_c 58.0670
_cell_angle_alpha 89.936800
_cell_angle_beta 89.996700
_cell_angle_gamma 90.019400
loop_
  _atom_site_label
  _atom_site_type_symbol
  _atom_site_fract_x
  _atom_site_fract_y
  _atom_site_fract_z
N1 N 0.59867 0.66189 0.61463
 N2 N 0.58967 0.65237 0.63318
 C3 C 0.57095 0.66469 0.63949
 C4 C 0.56815 0.68283 0.62406
 C5 C 0.58601 0.68056 0.60852
 H6 H 0.56013 0.66083 0.65416
 H7 H 0.58951 0.69167 0.59387
 Cu8 Cu 0.60334 0.62482 0.64718
 Cu9 Cu 0.62609 0.64941 0.59979
 Cu10 Cu 0.65074 0.60029 0.62450
 N11 N 0.61732 0.59727 0.66089
 N12 N 0.63587 0.58777 0.65192
 C13 C 0.64196 0.56908 0.66457
 C14 C 0.62637 0.56676 0.68244
 C15 C 0.61096 0.58493 0.67961
 H16 H 0.65661 0.55800 0.66106
 H17 H 0.59625 0.58880 0.69038
 N18 N 0.66325 0.61552 0.59673
 N19 N 0.65386 0.63421 0.58732
 C20 C 0.66628 0.64040 0.56869
 C21 C 0.68428 0.62487 0.56631
 C22 C 0.68188 0.60933 0.58433
 H23 H 0.66257 0.65510 0.55762
 H24 H 0.69292 0.59463 0.58805
 H25 H 0.62157 0.61534 0.61054
 H26 H 0.64001 0.63435 0.62899
 N27 N 0.90193 0.33787 0.11430
 N28 N 0.91092 0.34734 0.13286
 C29 C 0.92960 0.33497 0.13923
 C30 C 0.93239 0.31682 0.12381
 C31 C 0.91454 0.31917 0.10822
 H32 H 0.94037 0.33882 0.15393
 H33 H 0.91101 0.30810 0.09356
 Cu34 Cu 0.89728 0.37491 0.14681
 Cu35 Cu 0.87456 0.35043 0.09940
 Cu36 Cu 0.84997 0.39958 0.12402
 N37 N 0.88334 0.40247 0.16046
 N38 N 0.86483 0.41202 0.15144
 C39 C 0.85876 0.43070 0.16409
 C40 C 0.87430 0.43295 0.18196
 C41 C 0.88967 0.41478 0.17918
 H42 H 0.84414 0.44184 0.16057
 H43 H 0.90433 0.41090 0.19001
 N44 N 0.83748 0.38441 0.09625
 N45 N 0.84684 0.36570 0.08688
 C46 C 0.83443 0.35955 0.06824
 C47 C 0.81646 0.37511 0.06582
 C48 C 0.81888 0.39063 0.08381
 H49 H 0.83812 0.34484 0.05721
 H50 H 0.80785 0.40535 0.08751
 H51 H 0.87914 0.38448 0.11012
 H52 H 0.86062 0.36549 0.12857
 N53 N 0.40169 0.16188 -0.11419
 N54 N 0.41099 0.15206 -0.13241
 C55 C 0.42972 0.16438 -0.13874
 C56 C 0.43222 0.18283 -0.12366
 C57 C 0.41417 0.18074 -0.10830
 H58 H 0.44073 0.16033 -0.15320
 H59 H 0.41042 0.19211 -0.09394
 Cu60 Cu 0.39770 0.12417 -0.14610
 Cu61 Cu 0.37413 0.14953 -0.09949
 Cu62 Cu 0.34949 0.10043 -0.12408
 N63 N 0.38334 0.09695 -0.16000
 N64 N 0.36449 0.08776 -0.15130
 C65 C 0.35823 0.06925 -0.16410
 C66 C 0.37399 0.06675 -0.18175
 C67 C 0.38969 0.08459 -0.17867
 H68 H 0.34333 0.05841 -0.16085
 H69 H 0.40457 0.08822 -0.18927
 N70 N 0.33685 0.11577 -0.09649
 N71 N 0.34623 0.13447 -0.08712
 C72 C 0.33374 0.14074 -0.06859
 C73 C 0.31568 0.12525 -0.06622
 C74 C 0.31814 0.10966 -0.08415
 H75 H 0.33745 0.15545 -0.05756
 H76 H 0.30709 0.09496 -0.08785
 H77 H 0.37855 0.11531 -0.10972
 H78 H 0.36075 0.13431 -0.12886
 N79 N 0.09799 0.83756 0.38558
 N80 N 0.08899 0.84708 0.36703
 C81 C 0.07030 0.83473 0.36068
 C82 C 0.06750 0.81654 0.37609
 C83 C 0.08537 0.81884 0.39167
 H84 H 0.05951 0.83862 0.34598
 H85 H 0.08890 0.80774 0.40632
 Cu86 Cu 0.10264 0.87468 0.35308
 Cu87 Cu 0.12538 0.85008 0.40046
 Cu88 Cu 0.14999 0.89929 0.37583
 N89 N 0.11658 0.90227 0.33942
 N90 N 0.13511 0.91181 0.34842
 C91 C 0.14118 0.93052 0.33578
 C92 C 0.12562 0.93281 0.31793
 C93 C 0.11024 0.91463 0.32072
 H94 H 0.15580 0.94165 0.33929
 H95 H 0.09557 0.91078 0.30990
 N96 N 0.16249 0.88405 0.40359
 N97 N 0.15312 0.86532 0.41296
 C98 C 0.16554 0.85913 0.43159
 C99 C 0.18352 0.87469 0.43400
 C100 C 0.18110 0.89025 0.41601
 H101 H 0.16184 0.84440 0.44263
 H102 H 0.19214 0.90498 0.41231
 H103 H 0.12082 0.88416 0.38975
 H104 H 0.13931 0.86522 0.37129
 C105 C 0.11419 0.14503 0.11522
 C106 C 0.13394 0.13510 0.10539
 C107 C 0.14377 0.11548 0.11521
 C108 C 0.13397 0.10554 0.13499
 C109 C 0.11448 0.11533 0.14469
 C110 C 0.10452 0.13521 0.13473
 C111 C 0.10098 0.16406 0.10937
 N112 N 0.08357 0.16599 0.12487
 C113 C 0.08559 0.14843 0.14044
 C114 C 0.10880 0.10211 0.16365
 N115 N 0.12437 0.08456 0.16566
 C116 C 0.13983 0.08651 0.14821
 C117 C 0.16267 0.10969 0.10211
 N118 N 0.16452 0.12531 0.08461
 C119 C 0.14703 0.14092 0.08647
 H120 H 0.10382 0.17565 0.09491
 H121 H 0.07412 0.14549 0.15486
 H122 H 0.09441 0.10503 0.17514
 H123 H 0.15428 0.07494 0.14536
 H124 H 0.17423 0.09519 0.10508
 H125 H 0.14405 0.15543 0.07491
 C126 C 0.38498 0.85506 0.61547
 C127 C 0.36518 0.86497 0.60568
 C128 C 0.35534 0.88454 0.61551
 C129 C 0.36516 0.89448 0.63526
 C130 C 0.38469 0.88471 0.64492
 C131 C 0.39467 0.86487 0.63495
 C132 C 0.39823 0.83607 0.60960
 N133 N 0.41568 0.83416 0.62506
 C134 C 0.41365 0.85169 0.64063
 C135 C 0.39039 0.89793 0.66385
 N136 N 0.37479 0.91544 0.66588
 C137 C 0.35929 0.91349 0.64848
 C138 C 0.33640 0.89032 0.60243
 N139 N 0.33456 0.87473 0.58495
 C140 C 0.35208 0.85915 0.58678
 H141 H 0.39538 0.82450 0.59515
 H142 H 0.42514 0.85464 0.65502
 H143 H 0.40482 0.89502 0.67531
 H144 H 0.34482 0.92504 0.64565
 H145 H 0.32482 0.90480 0.60542
 H146 H 0.35506 0.84467 0.57522
 C147 C 0.88557 0.64475 0.38465
 C148 C 0.86580 0.63479 0.39447
 C149 C 0.85598 0.61519 0.38465
 C150 C 0.86578 0.60528 0.36488
 C151 C 0.88528 0.61510 0.35519
 C152 C 0.89524 0.63497 0.36514
 C153 C 0.89878 0.66377 0.39050
 N154 N 0.91621 0.66573 0.37501
 C155 C 0.91418 0.64820 0.35944
 C156 C 0.89097 0.60191 0.33624
 N157 N 0.87540 0.58436 0.33423
 C158 C 0.85993 0.58627 0.35167
 C159 C 0.83707 0.60936 0.39776
 N160 N 0.83522 0.62495 0.41525
 C161 C 0.85271 0.64057 0.41339
 H162 H 0.89594 0.67532 0.40496
 H163 H 0.92566 0.64529 0.34503
 H164 H 0.90537 0.60486 0.32476
 H165 H 0.84548 0.57468 0.35452
 H166 H 0.82551 0.59486 0.39479
 H167 H 0.85569 0.65506 0.42494
 C168 C 0.61496 0.35562 -0.11557
 C169 C 0.63475 0.36554 -0.10579
 C170 C 0.64459 0.38514 -0.11564
 C171 C 0.63477 0.39508 -0.13541
 C172 C 0.61525 0.38530 -0.14507
 C173 C 0.60528 0.36543 -0.13508
 C174 C 0.60173 0.33661 -0.10969
 N175 N 0.58429 0.33468 -0.12515
 C176 C 0.58631 0.35223 -0.14075
 C177 C 0.60956 0.39852 -0.16403
 N178 N 0.62516 0.41605 -0.16608
 C179 C 0.64064 0.41409 -0.14866
 C180 C 0.66352 0.39092 -0.10258
 N181 N 0.66537 0.37531 -0.08507
 C182 C 0.64786 0.35972 -0.08689
 H183 H 0.60458 0.32503 -0.09523
 H184 H 0.57483 0.35516 -0.15515
 H185 H 0.59514 0.39560 -0.17549
 H186 H 0.65512 0.42565 -0.14584
 H187 H 0.67510 0.40541 -0.10558
 H188 H 0.64487 0.34522 -0.07531
 N189 N -0.01760 0.28345 0.14067
 C190 C -0.01719 0.26667 0.12425
 N191 N -0.03364 0.26666 0.10768
 N192 N -0.05001 0.28294 0.10754
 C193 C -0.05049 0.29980 0.12396
 N194 N -0.03396 0.29973 0.14053
 C195 C 0.00043 0.24913 0.12439
 C196 C 0.01522 0.23438 0.12450
 C197 C 0.03281 0.21682 0.12461
 N198 N 0.03305 0.20011 0.14115
 N199 N 0.04936 0.18378 0.14124
 C200 C 0.06600 0.18359 0.12478
 N201 N 0.06570 0.20037 0.10825
 N202 N 0.04938 0.21670 0.10816
 N203 N 0.51710 0.71693 0.64082
 C204 C 0.51668 0.73374 0.62439
 N205 N 0.53316 0.73382 0.60784
 N206 N 0.54957 0.71758 0.60774
 C207 C 0.55005 0.70072 0.62418
 N208 N 0.53351 0.70069 0.64072
 C209 C 0.49902 0.75123 0.62451
 C210 C 0.48419 0.76595 0.62461
 C211 C 0.46656 0.78347 0.62473
 N212 N 0.46632 0.80016 0.64125
 N213 N 0.44996 0.81645 0.64136
 C214 C 0.43328 0.81661 0.62495
 N215 N 0.43359 0.79985 0.60843
 N216 N 0.44996 0.78356 0.60832
 N217 N 1.03350 0.76635 0.39223
 C218 C 1.01704 0.76640 0.37567
 N219 N 1.01745 0.78323 0.35925
 N220 N 1.03383 0.79951 0.35939
 C221 C 1.05037 0.79952 0.37594
 N222 N 1.04988 0.78262 0.39236
 C223 C 0.99940 0.74887 0.37552
 C224 C 0.98460 0.73412 0.37541
 C225 C 0.96700 0.71655 0.37529
 N226 N 0.95042 0.71640 0.39173
 N227 N 0.93409 0.70008 0.39164
 C228 C 0.93378 0.68333 0.37510
 N229 N 0.95043 0.68355 0.35866
 N230 N 0.96676 0.69989 0.35876
 N231 N 0.48335 0.21690 -0.14039
 C232 C 0.48347 0.23399 -0.12428
 N233 N 0.46676 0.23429 -0.10798
 N234 N 0.45042 0.21798 -0.10778
 C235 C 0.45024 0.20083 -0.12389
 N236 N 0.46700 0.20058 -0.14020
 C237 C 0.50108 0.25155 -0.12448
 C238 C 0.51588 0.26631 -0.12462
 C239 C 0.53348 0.28388 -0.12477
 N240 N 0.55008 0.28400 -0.10835
 N241 N 0.56641 0.30032 -0.10847
 C242 C 0.56671 0.31709 -0.12503
 N243 N 0.55004 0.31690 -0.14145
 N244 N 0.53371 0.30057 -0.14132
 N245 N 0.10876 -0.03297 0.26694
 C246 C 0.12515 -0.01613 0.26654
 N247 N 0.14170 -0.01607 0.28301
 N248 N 0.14185 -0.03235 0.29940
 C249 C 0.12546 -0.04924 0.29986
 N250 N 0.10891 -0.04926 0.28333
 C251 C 0.12499 0.00142 0.24891
 C252 C 0.12486 0.01617 0.23410
 C253 C 0.12472 0.03374 0.21649
 N254 N 0.10820 0.05043 0.21627
 N255 N 0.10808 0.06676 0.19993
 C256 C 0.12449 0.06696 0.18325
 N257 N 0.14102 0.05020 0.18354
 N258 N 0.14113 0.03387 0.19988
 N259 N 0.60951 0.53346 -0.26747
 C260 C 0.62593 0.51666 -0.26704
 N261 N 0.64249 0.51662 -0.28349
 N262 N 0.64264 0.53289 -0.29989
 C263 C 0.62622 0.54976 -0.30041
 N264 N 0.60965 0.54973 -0.28388
 C265 C 0.62577 0.49913 -0.24939
 C266 C 0.62564 0.48439 -0.23457
 C267 C 0.62550 0.46683 -0.21694
 N268 N 0.64194 0.46670 -0.20036
 N269 N 0.64183 0.45038 -0.18401
 C270 C 0.62527 0.43363 -0.18368
 N271 N 0.60883 0.43384 -0.20033
 N272 N 0.60895 0.45016 -0.21668
 N273 N 0.35741 1.01615 0.78295
 C274 C 0.37421 1.01595 0.76673
 N275 N 0.39092 1.03245 0.76742
 N276 N 0.39085 1.04866 0.78384
 C277 C 0.37405 1.04891 0.80012
 N278 N 0.35733 1.03236 0.79937
 C279 C 0.37431 0.99845 0.74908
 C280 C 0.37440 0.98374 0.73427
 C281 C 0.37452 0.96620 0.71666
 N282 N 0.39107 0.94954 0.71640
 N283 N 0.39117 0.93323 0.70008
 C284 C 0.37470 0.93302 0.68345
 N285 N 0.35814 0.94975 0.68378
 N286 N 0.35805 0.96606 0.70011
 N287 N 0.85818 0.48396 0.21689
 C288 C 0.87471 0.48386 0.23338
 N289 N 0.89111 0.46704 0.23298
 N290 N 0.89098 0.45079 0.21658
 C291 C 0.87444 0.45084 0.20004
 N292 N 0.85805 0.46772 0.20049
 C293 C 0.87486 0.50136 0.25102
 C294 C 0.87497 0.51608 0.26583
 C295 C 0.87510 0.53362 0.28344
 N296 N 0.89163 0.55032 0.28366
 N297 N 0.89173 0.56663 0.29999
 C298 C 0.87530 0.56679 0.31666
 N299 N 0.85877 0.55001 0.31636
 N300 N 0.85867 0.53371 0.30003
 N301 N 0.28135 0.14191 -0.01551
 C302 C 0.26466 0.12537 -0.01547
 N303 N 0.26473 0.10879 -0.03210
 N304 N 0.28099 0.10876 -0.04830
 C305 C 0.29773 0.12531 -0.04839
 N306 N 0.29762 0.14188 -0.03170
 C307 C 0.24717 0.12538 0.00198
 C308 C 0.23248 0.12538 0.01665
 C309 C 0.21500 0.12536 0.03412
 N310 N 0.21493 0.10877 0.05077
 N311 N 0.19871 0.10875 0.06700
 C312 C 0.18199 0.12533 0.06713
 N313 N 0.18212 0.14192 0.05040
 N314 N 0.19835 0.14193 0.03418
 N315 N 0.71849 0.64142 0.51544
 C316 C 0.73515 0.62486 0.51540
 N317 N 0.73510 0.60830 0.53209
 N318 N 0.71888 0.60831 0.54833
 C319 C 0.70217 0.62487 0.54841
 N320 N 0.70227 0.64143 0.53167
 C321 C 0.75262 0.62485 0.49792
 C322 C 0.76729 0.62486 0.48324
 C323 C 0.78476 0.62488 0.46575
 N324 N 0.78481 0.60833 0.44910
 N325 N 0.80103 0.60835 0.43287
 C326 C 0.81776 0.62493 0.43273
 N327 N 0.81763 0.64148 0.44945
 N328 N 0.80141 0.64146 0.46569
 N329 N 0.78223 0.35860 0.01500
 C330 C 0.76558 0.37518 0.01493
 N331 N 0.76565 0.39174 0.03158
 N332 N 0.78188 0.39172 0.04781
 C333 C 0.79858 0.37514 0.04793
 N334 N 0.79846 0.35858 0.03122
 C335 C 0.74810 0.37519 -0.00253
 C336 C 0.73341 0.37521 -0.01720
 C337 C 0.71591 0.37524 -0.03465
 N338 N 0.69924 0.35869 -0.03467
 N339 N 0.68299 0.35871 -0.05088
 C340 C 0.68287 0.37529 -0.06762
 N341 N 0.69962 0.39184 -0.06752
 N342 N 0.71586 0.39182 -0.05132
 N343 N 0.23433 0.89126 0.46823
 C344 C 0.23440 0.87467 0.48489
 N345 N 0.21775 0.85809 0.48483
 N346 N 0.20152 0.85809 0.46860
 C347 C 0.20141 0.87468 0.45190
 N348 N 0.21811 0.89127 0.45200
 C349 C 0.25187 0.87466 0.50236
 C350 C 0.26655 0.87467 0.51704
 C351 C 0.28404 0.87468 0.53450
 N352 N 0.30072 0.85815 0.53455
 N353 N 0.31696 0.85816 0.55076
 C354 C 0.31707 0.87471 0.56749
 N355 N 0.30031 0.89125 0.56737
 N356 N 0.28408 0.89123 0.55115
   
