data_POSCAR
  _audit_creation_date              2014-09-24
  _audit_creation_method            'ToBaCCo'
  _symmetry_space_group_name_H-M    'P1'
  _symmetry_Int_Tables_number       1
  _symmetry_cell_setting            triclinic
  loop_
  _symmetry_equiv_pos_as_xyz
 x,y,z
_cell_length_a 30.2367
_cell_length_b 30.5747
_cell_length_c 9.1424
_cell_angle_alpha 89.817400
_cell_angle_beta 90.347700
_cell_angle_gamma 90.175100
loop_
  _atom_site_label
  _atom_site_type_symbol
  _atom_site_fract_x
  _atom_site_fract_y
  _atom_site_fract_z
C1 C 0.14300 0.25280 0.07486
 C2 C 0.16003 0.21206 0.12019
 C3 C 0.20280 0.21128 0.18421
 C4 C 0.22876 0.24974 0.19826
 C5 C 0.21042 0.28939 0.14681
 C6 C 0.16734 0.29128 0.09181
 C7 C 0.27359 0.24931 0.27235
 C8 C 0.29267 0.28855 0.32461
 C9 C 0.33451 0.28922 0.39000
 C10 C 0.35622 0.24985 0.41810
 C11 C 0.33823 0.20963 0.37181
 C12 C 0.29778 0.21012 0.29308
 H13 H 0.11064 0.25528 0.02464
 H14 H 0.21441 0.18107 0.23149
 H15 H 0.22883 0.31964 0.14866
 H16 H 0.27568 0.31941 0.31659
 H17 H 0.38899 0.25112 0.46651
 H18 H 0.28461 0.17962 0.25296
 C19 C 0.85574 0.24769 0.08054
 C20 C 0.83798 0.28728 0.12856
 C21 C 0.79692 0.28732 0.19931
 C22 C 0.77170 0.24850 0.21450
 C23 C 0.79045 0.20912 0.16299
 C24 C 0.83281 0.20838 0.10136
 C25 C 0.72674 0.24905 0.28548
 C26 C 0.70689 0.21016 0.33834
 C27 C 0.66493 0.21021 0.40486
 C28 C 0.64423 0.25069 0.42856
 C29 C 0.66283 0.28966 0.37657
 C30 C 0.70306 0.28849 0.30146
 H31 H 0.88850 0.24728 0.03305
 H32 H 0.78528 0.31807 0.24175
 H33 H 0.77275 0.17848 0.16882
 H34 H 0.72447 0.17958 0.33415
 H35 H 0.61167 0.25209 0.47695
 H36 H 0.71535 0.31885 0.25671
 C37 C 0.64495 0.74945 0.57566
 C38 C 0.66704 0.70970 0.59480
 C39 C 0.70937 0.70951 0.65854
 C40 C 0.72874 0.74828 0.71389
 C41 C 0.70440 0.78753 0.70049
 C42 C 0.66348 0.78849 0.62746
 C43 C 0.77351 0.74769 0.78701
 C44 C 0.79927 0.78623 0.79891
 C45 C 0.83983 0.78676 0.87608
 C46 C 0.85624 0.74688 0.93103
 C47 C 0.83298 0.70772 0.91136
 C48 C 0.79111 0.70858 0.84524
 H49 H 0.61223 0.74982 0.52657
 H50 H 0.72663 0.67868 0.66355
 H51 H 0.71669 0.81778 0.74608
 H52 H 0.78716 0.81635 0.75244
 H53 H 0.88902 0.74544 0.97922
 H54 H 0.77283 0.67823 0.84050
 C55 C 0.35450 0.74919 0.56755
 C56 C 0.33640 0.78865 0.61499
 C57 C 0.29559 0.78834 0.68713
 C58 C 0.27089 0.74928 0.70514
 C59 C 0.29015 0.70996 0.65495
 C60 C 0.33226 0.70965 0.59117
 C61 C 0.22613 0.74969 0.77837
 C62 C 0.20566 0.71065 0.82761
 C63 C 0.16423 0.71089 0.89792
 C64 C 0.14458 0.75149 0.92790
 C65 C 0.16356 0.79055 0.87862
 C66 C 0.20322 0.78934 0.80052
 H67 H 0.38712 0.74903 0.51901
 H68 H 0.28396 0.81913 0.72880
 H69 H 0.27323 0.67899 0.66370
 H70 H 0.22227 0.67970 0.81779
 H71 H 0.11239 0.75300 0.97887
 H72 H 0.21555 0.81994 0.75827
 O73 O 1.04285 -0.04612 0.08984
 O74 O 0.95392 0.03536 0.12523
 O75 O 0.95798 -0.04929 0.08672
 O76 O 1.03958 0.03809 0.14251
 O77 O 1.04166 0.04968 -0.09622
 O78 O 0.95823 -0.03733 -0.15153
 O79 O 0.95635 0.04756 -0.11259
 O80 O 1.04396 -0.03463 -0.14845
 Cu81 Cu 0.99846 -0.00657 0.13485
 Cu82 Cu 1.00027 0.00750 -0.15100
 C83 C 1.05773 -0.05514 -0.03624
 C84 C 0.94056 0.05603 0.01242
 C85 C 0.94477 -0.05892 -0.04118
 C86 C 1.05395 0.05916 0.03300
 O87 O 0.45499 0.46335 0.34848
 O88 O 0.54134 0.54849 0.37689
 O89 O 0.54082 0.46355 0.33742
 O90 O 0.45571 0.54842 0.37754
 O91 O 0.45685 0.53893 0.61684
 O92 O 0.54220 0.45417 0.57672
 O93 O 0.54323 0.53874 0.61605
 O94 O 0.45722 0.45403 0.58783
 Cu95 Cu 0.49806 0.50687 0.33629
 Cu96 Cu 0.50010 0.49577 0.62319
 C97 C 0.44194 0.44361 0.46315
 C98 C 0.55674 0.55840 0.50215
 C99 C 0.55548 0.44373 0.44996
 C100 C 0.44195 0.55846 0.50391
 O101 O -0.04146 0.45276 -0.07743
 O102 O 0.04204 0.53991 -0.12131
 O103 O 0.04339 0.45511 -0.09551
 O104 O -0.04441 0.53754 -0.11562
 O105 O -0.04168 0.54615 0.12376
 O106 O 0.04711 0.46368 0.14381
 O107 O 0.04368 0.54889 0.11819
 O108 O -0.03871 0.46118 0.16199
 Cu109 Cu -0.00053 0.49572 -0.12628
 Cu110 Cu 0.00290 0.50575 0.16074
 C111 C -0.05370 0.44148 0.05002
 C112 C 0.05672 0.55959 -0.00863
 C113 C 0.05984 0.44477 0.02769
 C114 C -0.05780 0.55629 -0.00043
 O115 O 0.45764 1.04852 0.60503
 O116 O 0.54269 0.96365 0.65816
 O117 O 0.54271 1.04882 0.62141
 O118 O 0.45701 0.96388 0.65331
 O119 O 0.45923 0.95311 0.41501
 O120 O 0.54540 1.03814 0.38289
 O121 O 0.54424 0.95343 0.41949
 O122 O 0.45909 1.03762 0.36659
 Cu123 Cu 0.49977 1.00726 0.65822
 Cu124 Cu 0.50216 0.99469 0.37216
 C125 C 0.44436 1.05802 0.47665
 C126 C 0.55732 0.94336 0.54736
 C127 C 0.55825 1.05843 0.49675
 C128 C 0.44415 0.94326 0.54038
 C129 C 1.15407 0.13177 0.08745
 C130 C 1.13419 0.17334 0.10408
 C131 C 1.08742 0.17533 0.10095
 C132 C 1.06192 0.13798 0.07748
 C133 C 1.08207 0.09749 0.05740
 C134 C 1.12818 0.09429 0.06378
 H135 H 1.18963 0.12811 0.08559
 H136 H 1.06983 0.20538 0.12162
 H137 H 1.02617 0.14066 0.07582
 H138 H 1.14412 0.06295 0.04887
 C139 C 0.64163 0.63504 0.66738
 C140 C 0.64391 0.66814 0.56082
 C141 C 0.62028 0.66301 0.42921
 C142 C 0.59356 0.62616 0.40689
 C143 C 0.58942 0.59421 0.51692
 C144 C 0.61441 0.59860 0.64612
 H145 H 0.65919 0.63844 0.77038
 H146 H 0.62163 0.68806 0.34531
 H147 H 0.57463 0.62367 0.30629
 H148 H 0.61203 0.57440 0.73253
 C149 C -0.12952 0.35732 0.22396
 C150 C -0.13681 0.32841 0.10716
 C151 C -0.11860 0.33820 -0.03004
 C152 C -0.09287 0.37574 -0.04962
 C153 C -0.08433 0.40403 0.06816
 C154 C -0.10328 0.39465 0.20490
 H155 H -0.14300 0.35031 0.33102
 H156 H -0.12409 0.31656 -0.12203
 H157 H -0.07867 0.38196 -0.15618
 H158 H -0.09729 0.41582 0.29773
 C159 C 0.38006 0.83972 0.45715
 C160 C 0.36118 0.83004 0.59345
 C161 C 0.36735 0.85936 0.70975
 C162 C 0.39319 0.89695 0.69137
 C163 C 0.41303 0.90612 0.55593
 C164 C 0.40554 0.87748 0.43833
 H165 H 0.37539 0.81781 0.36544
 H166 H 0.35342 0.85247 0.81625
 H167 H 0.39841 0.91833 0.78415
 H168 H 0.42046 0.88353 0.33275
 C169 C -0.12168 0.65977 0.07744
 C170 C -0.14512 0.66559 -0.05431
 C171 C -0.14315 0.63290 -0.16160
 C172 C -0.11613 0.59639 -0.14142
 C173 C -0.09100 0.59154 -0.01266
 C174 C -0.09513 0.62287 0.09861
 H175 H -0.12280 0.68449 0.16193
 H176 H -0.16056 0.63682 -0.26471
 H177 H -0.11379 0.57266 -0.22873
 H178 H -0.07612 0.62000 0.19896
 C179 C 0.38718 1.16610 0.53019
 C180 C 0.36132 1.17023 0.40167
 C181 C 0.36049 1.13467 0.30344
 C182 C 0.38682 1.09773 0.32868
 C183 C 0.41330 1.09470 0.45498
 C184 C 0.41233 1.12876 0.55697
 H185 H 0.38755 1.19148 0.61253
 H186 H 0.34196 1.13626 0.20197
 H187 H 0.38705 1.07182 0.24815
 H188 H 0.43231 1.12726 0.65562
 C189 C 1.12327 -0.15780 0.04218
 C190 C 1.14043 -0.16749 -0.09635
 C191 C 1.13339 -0.13796 -0.21205
 C192 C 1.10800 -0.10040 -0.19110
 C193 C 1.08943 -0.09150 -0.05374
 C194 C 1.09819 -0.12010 0.06349
 H195 H 1.12866 -0.17987 0.13344
 H196 H 1.14601 -0.14484 -0.32016
 H197 H 1.10181 -0.07903 -0.28363
 H198 H 1.08432 -0.11423 0.17056
 C199 C 0.63099 0.35964 0.27848
 C200 C 0.63889 0.33138 0.39711
 C201 C 0.62181 0.34200 0.53488
 C202 C 0.59620 0.37948 0.55305
 C203 C 0.58672 0.40693 0.43335
 C204 C 0.60493 0.39698 0.29624
 H205 H 0.64359 0.35198 0.17095
 H206 H 0.62780 0.32087 0.62823
 H207 H 0.58267 0.38616 0.66005
 H208 H 0.59823 0.41749 0.20195
 C209 C 0.89023 -0.16822 0.02414
 C210 C 0.86410 -0.17394 -0.10284
 C211 C 0.86336 -0.13966 -0.20702
 C212 C 0.88920 -0.10201 -0.18716
 C213 C 0.91528 -0.09705 -0.06087
 C214 C 0.91498 -0.13024 0.04528
 H215 H 0.89075 -0.19253 0.11047
 H216 H 0.84488 -0.14263 -0.30822
 H217 H 0.88906 -0.07694 -0.27112
 H218 H 0.93480 -0.12734 0.14391
 C219 C 0.36010 0.36261 0.30414
 C220 C 0.35746 0.33134 0.41676
 C221 C 0.38001 0.33900 0.54884
 C222 C 0.40586 0.37662 0.56628
 C223 C 0.41022 0.40690 0.45100
 C224 C 0.38647 0.39989 0.32068
 H225 H 0.34334 0.35721 0.20067
 H226 H 0.37835 0.31541 0.63729
 H227 H 0.42387 0.38109 0.66794
 H228 H 0.38911 0.42267 0.23017
 C229 C 0.14470 0.63479 -0.16263
 C230 C 0.14152 0.67143 -0.06944
 C231 C 0.11253 0.66863 0.05072
 C232 C 0.08656 0.63144 0.07346
 C233 C 0.08790 0.59645 -0.02506
 C234 C 0.11754 0.59815 -0.14223
 H235 H 0.16575 0.63541 -0.25798
 H236 H 0.11010 0.69498 0.12903
 H237 H 0.06415 0.63075 0.16544
 H238 H 0.11924 0.57140 -0.21936
 C239 C 0.64772 1.13318 0.35024
 C240 C 0.64275 1.17056 0.43919
 C241 C 0.61247 1.16822 0.55590
 C242 C 0.58682 1.13080 0.57862
 C243 C 0.58981 1.09510 0.48342
 C244 C 0.62091 1.09629 0.37044
 H245 H 0.66983 1.13337 0.25757
 H246 H 0.60864 1.19517 0.63120
 H247 H 0.56320 1.13057 0.66727
 H248 H 0.62386 1.06903 0.29579
 C249 C 0.12240 0.34181 -0.06515
 C250 C 0.14572 0.33392 0.06529
 C251 C 0.14401 0.36489 0.17824
 C252 C 0.11733 0.40193 0.16434
 C253 C 0.09244 0.40893 0.03625
 C254 C 0.09630 0.37920 -0.08007
 H255 H 0.12332 0.31835 -0.15360
 H256 H 0.16146 0.35921 0.28036
 H257 H 0.11514 0.42437 0.25541
 H258 H 0.07748 0.38370 -0.18015
 C259 C 0.63192 0.85849 0.72417
 C260 C 0.63935 0.83010 0.60640
 C261 C 0.62219 0.84079 0.46799
 C262 C 0.59708 0.87855 0.44812
 C263 C 0.58811 0.90623 0.56674
 C264 C 0.60625 0.89612 0.70473
 H265 H 0.64469 0.85077 0.83210
 H266 H 0.62789 0.81959 0.37530
 H267 H 0.58357 0.88530 0.34046
 H268 H 0.59988 0.91679 0.79818
 C269 C 0.85762 0.13382 0.17794
 C270 C 0.85497 0.16638 0.06951
 C271 C 0.87743 0.16038 -0.06276
 C272 C 0.90345 0.12328 -0.08408
 C273 C 0.90809 0.09181 0.02751
 C274 C 0.88420 0.09701 0.15761
 H275 H 0.84090 0.13794 0.28143
 H276 H 0.87576 0.18501 -0.14803
 H277 H 0.92150 0.12024 -0.18546
 H278 H 0.88706 0.07328 0.24532
 C279 C 0.35944 0.63630 0.67152
 C280 C 0.35512 0.66794 0.56068
 C281 C 0.37672 0.66151 0.42704
 C282 C 0.40338 0.62481 0.40635
 C283 C 0.40958 0.59427 0.51995
 C284 C 0.38670 0.59997 0.65181
 H285 H 0.34345 0.64082 0.77608
 H286 H 0.37382 0.68549 0.34006
 H287 H 0.42060 0.62133 0.30353
 H288 H 0.39070 0.57689 0.74099
   
