data_POSCAR
  _audit_creation_date              2014-09-24
  _audit_creation_method            'ToBaCCo'
  _symmetry_space_group_name_H-M    'P1'
  _symmetry_Int_Tables_number       1
  _symmetry_cell_setting            triclinic
  loop_
  _symmetry_equiv_pos_as_xyz
 x,y,z
_cell_length_a 21.7933
_cell_length_b 21.7428
_cell_length_c 21.8658
_cell_angle_alpha 90.068200
_cell_angle_beta 90.065100
_cell_angle_gamma 90.054400
loop_
  _atom_site_label
  _atom_site_type_symbol
  _atom_site_fract_x
  _atom_site_fract_y
  _atom_site_fract_z
C1 C 0.44931 1.00284 -0.62696
 C2 C 0.50594 0.99843 -0.65728
 C3 C 0.56227 0.99815 -0.62608
 C4 C 0.56199 1.00013 -0.56098
 C5 C 0.50540 1.00437 -0.52898
 C6 C 0.44909 1.00716 -0.56194
 C7 C 0.39478 1.01874 -0.52907
 C8 C 0.39448 1.02087 -0.46565
 C9 C 0.44877 1.01349 -0.43197
 C10 C 0.50512 1.00678 -0.46366
 C11 C 0.61647 0.99559 -0.52674
 C12 C 0.61630 1.00030 -0.46347
 C13 C 0.56118 1.00397 -0.43030
 C14 C 0.56048 1.00874 -0.36515
 C15 C 0.50375 1.01544 -0.33536
 C16 C 0.44824 1.01564 -0.36739
 H17 H 0.35176 1.02800 -0.55179
 H18 H 0.35118 1.03010 -0.44329
 H19 H 0.66048 0.98825 -0.54811
 H20 H 0.66059 1.00183 -0.44149
 H21 H 0.50622 0.99574 -0.70683
 H22 H 0.50230 1.01674 -0.28576
 C23 C -0.62551 1.44394 -0.01446
 C24 C -0.65678 1.49976 -0.01898
 C25 C -0.62567 1.55641 -0.02065
 C26 C -0.56028 1.55615 -0.02132
 C27 C -0.52801 1.49968 -0.01587
 C28 C -0.56078 1.44341 -0.01286
 C29 C -0.52801 1.38783 -0.01083
 C30 C -0.46433 1.38740 -0.01093
 C31 C -0.43074 1.44254 -0.01278
 C32 C -0.46267 1.49924 -0.01554
 C33 C -0.52626 1.60987 -0.03308
 C34 C -0.46255 1.60949 -0.03233
 C35 C -0.42953 1.55532 -0.02011
 C36 C -0.36418 1.55480 -0.01815
 C37 C -0.33389 1.49775 -0.01740
 C38 C -0.36601 1.44225 -0.01442
 H39 H -0.55123 1.34384 -0.01043
 H40 H -0.44178 1.34310 -0.01056
 H41 H -0.54838 1.65264 -0.04514
 H42 H -0.43953 1.65201 -0.04377
 H43 H -0.70653 1.49877 -0.01761
 H44 H -0.28418 1.49604 -0.01554
 C45 C -0.01906 0.55470 0.63520
 C46 C -0.02432 0.49818 0.66585
 C47 C -0.02345 0.44145 0.63501
 C48 C -0.02159 0.44145 0.56994
 C49 C -0.01686 0.49792 0.53764
 C50 C -0.01666 0.55465 0.57013
 C51 C -0.01993 0.60969 0.53638
 C52 C -0.01806 0.60955 0.47296
 C53 C -0.01463 0.55428 0.44002
 C54 C -0.01537 0.49779 0.47235
 C55 C -0.03071 0.38713 0.53606
 C56 C -0.02850 0.38701 0.47262
 C57 C -0.01749 0.44129 0.43953
 C58 C -0.01496 0.44141 0.37433
 C59 C -0.01466 0.49830 0.34384
 C60 C -0.01416 0.55414 0.37543
 H61 H -0.02633 0.65375 0.55831
 H62 H -0.02123 0.65348 0.45001
 H63 H -0.04214 0.34413 0.55804
 H64 H -0.03827 0.34393 0.44990
 H65 H -0.02315 0.49819 0.71544
 H66 H -0.01175 0.49966 0.29434
 O67 O -0.15402 0.99937 -0.07727
 O68 O 0.16205 0.99841 -0.07928
 O69 O 0.00012 1.08232 -0.15332
 O70 O 0.00572 0.91479 -0.15381
 O71 O 0.00656 0.84045 -0.07842
 O72 O 0.00059 1.15654 -0.07763
 O73 O 0.08712 0.99818 -0.15419
 O74 O -0.08023 0.99982 -0.15311
 Zr75 Zr 0.00383 0.99853 -0.10418
 O76 O 0.06020 0.94319 -0.05205
 O77 O -0.05166 1.05367 -0.05096
 C78 C -0.13661 1.00033 -0.13389
 C79 C 0.14379 0.99821 -0.13571
 C80 C -0.00132 1.13883 -0.13419
 C81 C 0.00667 0.85820 -0.13493
 H82 H 0.08480 1.08091 -0.07746
 O83 O 0.05919 1.05413 -0.05138
 H84 H -0.07705 0.91644 -0.07691
 O85 O -0.05082 0.94290 -0.05100
 O86 O 0.16315 1.00073 0.08586
 O87 O -0.15281 0.99570 0.08761
 O88 O 0.08639 1.15686 0.00585
 O89 O 0.08788 0.84102 0.00093
 O90 O -0.07709 0.83998 0.00590
 O91 O -0.07869 1.15584 0.00270
 O92 O 0.00707 1.08188 0.16233
 O93 O 0.00338 0.91463 0.16184
 O94 O 0.00616 1.15632 0.08706
 O95 O 0.00341 0.84033 0.08625
 O96 O 0.16215 1.08273 0.00533
 O97 O -0.15372 1.08082 0.00268
 O98 O -0.15291 0.91404 0.00652
 O99 O 0.16294 0.91599 0.00028
 O100 O 0.08927 1.00015 0.16161
 O101 O -0.07793 0.99623 0.16254
 Zr102 Zr 0.11260 0.99906 0.00357
 Zr103 Zr -0.10337 0.99774 0.00486
 Zr104 Zr 0.00409 1.10606 0.00456
 Zr105 Zr 0.00516 0.89079 0.00398
 Zr106 Zr 0.00535 0.99831 0.11257
 O107 O -0.05044 0.94239 0.06017
 O108 O 0.06049 1.05435 0.05985
 C109 C 0.14565 1.00115 0.14248
 C110 C -0.13456 0.99518 0.14401
 C111 C 0.14309 1.13921 0.00611
 C112 C 0.14437 0.85932 -0.00093
 C113 C -0.13380 0.85758 0.00674
 C114 C -0.13520 1.13750 0.00150
 C115 C 0.00726 1.13848 0.14355
 C116 C 0.00224 0.85809 0.14281
 H117 H -0.07690 1.07962 0.08612
 O118 O -0.05069 1.05334 0.06010
 H119 H 0.08707 0.91685 0.08487
 O120 O 0.06066 0.94331 0.05922
 C121 C 0.28926 1.00262 0.26221
 C122 C 0.29199 0.96515 0.31413
 C123 C 0.34459 0.96508 0.35099
 C124 C 0.39517 1.00310 0.33685
 C125 C 0.39204 1.03952 0.28355
 C126 C 0.33948 1.03956 0.24698
 C127 C 0.23625 1.00185 0.22277
 C128 C 0.19367 1.00160 0.18746
 H129 H 0.25382 0.93543 0.32571
 H130 H 0.34630 0.93412 0.38973
 H131 H 0.42971 1.06946 0.27094
 H132 H 0.33811 1.06838 0.20660
 C133 C -0.27721 0.99460 0.26442
 C134 C -0.32512 0.95325 0.25328
 C135 C -0.37785 0.95441 0.28952
 C136 C -0.38330 0.99641 0.33845
 C137 C -0.33514 1.03873 0.34834
 C138 C -0.28242 1.03752 0.31185
 C139 C -0.22443 0.99471 0.22484
 C140 C -0.18208 0.99472 0.18938
 H141 H -0.32193 0.92029 0.21621
 H142 H -0.41387 0.92133 0.28013
 H143 H -0.33895 1.07387 0.38330
 H144 H -0.24618 1.07068 0.32003
 C145 C -0.28061 1.00353 -0.25309
 C146 C -0.28943 0.95845 -0.29800
 C147 C -0.34189 0.95970 -0.33499
 C148 C -0.38598 1.00673 -0.32831
 C149 C -0.37737 1.05049 -0.28140
 C150 C -0.32493 1.04919 -0.24462
 C151 C -0.22758 1.00189 -0.21373
 C152 C -0.18480 1.00111 -0.17867
 H153 H -0.25613 0.92198 -0.30398
 H154 H -0.34861 0.92311 -0.36801
 H155 H -0.41045 1.08698 -0.27427
 H156 H -0.31903 1.08384 -0.20944
 C157 C 0.28501 1.00827 -0.25758
 C158 C 0.29712 0.96172 -0.30017
 C159 C 0.34966 0.96477 -0.33676
 C160 C 0.39049 1.01460 -0.33134
 C161 C 0.37794 1.06129 -0.28875
 C162 C 0.32539 1.05819 -0.25220
 C163 C 0.23307 1.00357 -0.21711
 C164 C 0.19118 1.00040 -0.18122
 H165 H 0.26656 0.92261 -0.30436
 H166 H 0.35910 0.92780 -0.36864
 H167 H 0.40912 1.09976 -0.28351
 H168 H 0.31674 1.09425 -0.21908
 C169 C 0.26407 1.28144 -0.00226
 C170 C 0.26454 1.31619 -0.05614
 C171 C 0.30097 1.36887 -0.06021
 C172 C 0.33747 1.38705 -0.01051
 C173 C 0.33690 1.35213 0.04349
 C174 C 0.30038 1.29939 0.04753
 C175 C 0.22393 1.22922 0.00244
 C176 C 0.18824 1.18702 0.00499
 H177 H 0.23620 1.30294 -0.09472
 H178 H 0.30063 1.39563 -0.10197
 H179 H 0.36435 1.36606 0.08245
 H180 H 0.29988 1.27311 0.08960
 C181 C 0.26487 0.71713 -0.01253
 C182 C 0.31789 0.71286 0.02323
 C183 C 0.35451 0.66018 0.02021
 C184 C 0.33894 0.61105 -0.01918
 C185 C 0.28479 0.61591 -0.05428
 C186 C 0.24844 0.66862 -0.05123
 C187 C 0.22533 0.76975 -0.00782
 C188 C 0.18979 0.81196 -0.00439
 H189 H 0.33035 0.74973 0.05423
 H190 H 0.39389 0.65706 0.05030
 H191 H 0.27116 0.57947 -0.08529
 H192 H 0.20718 0.67133 -0.07880
 C193 C -0.25335 0.71434 -0.00353
 C194 C -0.23626 0.66642 -0.04258
 C195 C -0.27298 0.61407 -0.04774
 C196 C -0.32817 0.60901 -0.01444
 C197 C -0.34436 0.65750 0.02543
 C198 C -0.30736 0.70983 0.03056
 C199 C -0.21410 0.76715 0.00217
 C200 C -0.17883 0.80967 0.00531
 H201 H -0.19434 0.66943 -0.06903
 H202 H -0.25887 0.57822 -0.07914
 H203 H -0.38466 0.65419 0.05419
 H204 H -0.32047 0.74633 0.06167
 C205 C -0.25710 1.27868 -0.00718
 C206 C -0.25831 1.31439 -0.06041
 C207 C -0.29442 1.36734 -0.06291
 C208 C -0.32980 1.38483 -0.01226
 C209 C -0.32859 1.34888 0.04102
 C210 C -0.29242 1.29587 0.04349
 C211 C -0.21672 1.22665 -0.00360
 C212 C -0.18076 1.18475 -0.00103
 H213 H -0.23065 1.30178 -0.09962
 H214 H -0.29455 1.39494 -0.10412
 H215 H -0.35514 1.36228 0.08070
 H216 H -0.29125 1.26889 0.08509
 C217 C -0.00128 1.28159 0.26359
 C218 C -0.04057 1.32952 0.24699
 C219 C -0.04530 1.38186 0.28368
 C220 C -0.01132 1.38707 0.33845
 C221 C 0.02881 1.33860 0.35419
 C222 C 0.03351 1.28622 0.31719
 C223 C 0.00382 1.22873 0.22422
 C224 C 0.00638 1.18629 0.18878
 H225 H -0.06758 1.32653 0.20544
 H226 H -0.07694 1.41766 0.26987
 H227 H 0.05805 1.34197 0.39415
 H228 H 0.06483 1.24976 0.32998
 C229 C -0.01387 1.28146 -0.25434
 C230 C 0.02366 1.28677 -0.30590
 C231 C 0.02015 1.33911 -0.34291
 C232 C -0.02151 1.38693 -0.32931
 C233 C -0.05841 1.38107 -0.27661
 C234 C -0.05487 1.32869 -0.23985
 C235 C -0.00885 1.22901 -0.21451
 C236 C -0.00513 1.18671 -0.17910
 H237 H 0.05639 1.25097 -0.31692
 H238 H 0.05161 1.34304 -0.38103
 H239 H -0.09114 1.41648 -0.26444
 H240 H -0.08388 1.32525 -0.19978
 C241 C -0.00305 0.71447 -0.25422
 C242 C 0.03641 0.70619 -0.30394
 C243 C 0.03118 0.65371 -0.34074
 C244 C -0.01423 0.60891 -0.32883
 C245 C -0.05265 0.61742 -0.27762
 C246 C -0.04736 0.66987 -0.24108
 C247 C 0.00250 0.76750 -0.21510
 C248 C 0.00541 0.81019 -0.17996
 H249 H 0.07167 0.73989 -0.31385
 H250 H 0.06378 0.64741 -0.37757
 H251 H -0.08805 0.58420 -0.26666
 H252 H -0.07788 0.67557 -0.20239
 C253 C -0.00691 0.71659 0.26452
 C254 C -0.05815 0.67775 0.26198
 C255 C -0.06081 0.62534 0.29880
 C256 C -0.01234 0.61142 0.33876
 C257 C 0.03891 0.65057 0.34133
 C258 C 0.04154 0.70303 0.30443
 C259 C -0.00305 0.76844 0.22385
 C260 C -0.00034 0.81037 0.18793
 H261 H -0.09566 0.68753 0.23092
 H262 H -0.10043 0.59535 0.29591
 H263 H 0.07705 0.64001 0.37134
 H264 H 0.08164 0.73246 0.30635
   
