data_POSCAR
  _audit_creation_date              2014-09-24
  _audit_creation_method            'ToBaCCo'
  _symmetry_space_group_name_H-M    'P1'
  _symmetry_Int_Tables_number       1
  _symmetry_cell_setting            triclinic
  loop_
  _symmetry_equiv_pos_as_xyz
 x,y,z
_cell_length_a 33.8573
_cell_length_b 34.9624
_cell_length_c 32.7254
_cell_angle_alpha 91.314700
_cell_angle_beta 89.197500
_cell_angle_gamma 91.827000
loop_
  _atom_site_label
  _atom_site_type_symbol
  _atom_site_fract_x
  _atom_site_fract_y
  _atom_site_fract_z
N1 N 0.21045 0.20510 0.18922
 N2 N -0.22373 0.78895 0.20120
 N3 N -0.23595 0.23490 -0.23342
 N4 N 0.21608 0.78003 -0.22463
 N5 N 0.21272 1.21549 0.80605
 N6 N 0.80581 0.78327 0.79948
 N7 N 0.22460 0.77776 1.22505
 N8 N 0.78823 1.21519 1.23100
 O9 O 0.54091 0.96059 0.91721
 O10 O 0.46455 0.98390 1.08397
 O11 O 0.57957 0.97457 1.02627
 O12 O 0.44897 0.93575 0.96640
 O13 O 0.52610 0.95378 1.05510
 O14 O 0.46701 0.96216 0.91063
 O15 O 0.45420 0.94519 1.03589
 O16 O 0.58555 0.99109 0.95428
 C17 C 0.57564 0.96449 0.92937
 C18 C 0.44787 0.95384 1.07213
 C19 C 0.56143 0.94946 1.04638
 C20 C 0.45068 0.93505 0.92880
 O21 O 0.46937 1.03567 0.91730
 O22 O 0.53366 1.01569 1.09692
 O23 O 0.55717 1.06139 0.97396
 O24 O 0.42969 1.02021 1.02988
 O25 O 0.48371 1.04785 1.05331
 O26 O 0.54401 1.03544 0.91548
 O27 O 0.42337 1.00819 0.95599
 O28 O 0.55533 1.04684 1.04448
 Co29 Co 0.50534 0.99832 0.92232
 Co30 Co 0.50614 1.00103 1.05184
 Co31 Co 0.56382 1.01652 0.99900
 Co32 Co 0.44401 0.97904 0.99681
 O33 O 0.50321 0.99737 0.98976
 C34 C 0.43427 1.03285 0.92999
 C35 C 0.55976 1.03931 1.08174
 C36 C 0.55631 1.06352 0.93633
 C37 C 0.44734 1.04862 1.04698
 O38 O 0.03640 0.46371 0.08150
 O39 O 0.01877 0.52648 -0.09683
 O40 O 0.01962 0.42551 -0.03128
 O41 O 0.06410 0.54888 0.02799
 O42 O 0.04992 0.47719 -0.05318
 O43 O 0.03633 0.53617 0.08545
 O44 O 0.05057 0.54684 -0.04321
 O45 O 0.00686 0.41984 0.04214
 C46 C 0.03275 0.42986 0.06823
 C47 C 0.04349 0.55117 -0.08068
 C48 C 0.04968 0.44187 -0.04739
 C49 C 0.06503 0.54967 0.06570
 O50 O -0.04044 0.53346 0.08211
 O51 O -0.01612 0.46045 -0.08542
 O52 O -0.06738 0.44649 0.03121
 O53 O -0.02351 0.57199 -0.02739
 O54 O -0.04612 0.52087 -0.05707
 O55 O -0.03928 0.46158 0.08741
 O56 O -0.00887 0.57676 0.04542
 O57 O -0.05708 0.45116 -0.03843
 Co58 Co -0.00188 0.49875 0.07687
 Co59 Co 0.00217 0.50018 -0.05260
 Co60 Co -0.02270 0.44048 0.00125
 Co61 Co 0.01848 0.55572 0.00135
 O62 O -0.00250 0.49731 0.00930
 C63 C -0.03590 0.56722 0.07064
 C64 C -0.04775 0.44514 -0.07459
 C65 C -0.06746 0.44619 0.06881
 C66 C -0.04936 0.55541 -0.04877
 O67 O 1.07208 0.04394 0.46464
 O68 O 0.91209 0.01284 0.54400
 O69 O 0.96676 0.02630 0.42496
 O70 O 1.02418 0.06536 0.56038
 O71 O 0.93858 0.04503 0.48057
 O72 O 1.07887 0.04162 0.54102
 O73 O 0.95718 0.05337 0.55518
 O74 O 1.03693 0.01278 0.41841
 C75 C 1.06115 0.03941 0.42856
 C76 C 0.92231 0.04330 0.56107
 C77 C 0.94647 0.05026 0.44399
 C78 C 1.06055 0.06724 0.55916
 O79 O 1.07503 -0.03181 0.53788
 O80 O 0.90026 -0.01827 0.47271
 O81 O 1.02073 -0.05862 0.44704
 O82 O 0.96563 -0.02176 0.57981
 O83 O 0.94387 -0.04957 0.52383
 O84 O 1.07640 -0.03059 0.46088
 O85 O 1.03686 -0.00697 0.58601
 O86 O 0.95186 -0.04693 0.44960
 Co87 Co 1.06859 0.00566 0.50113
 Co88 Co 0.94355 -0.00238 0.50091
 Co89 Co 0.99474 -0.01474 0.44082
 Co90 Co 0.99620 0.02084 0.56516
 O91 O 1.00340 0.00378 0.50368
 C92 C 1.06332 -0.02980 0.57433
 C93 C 0.91558 -0.04064 0.44526
 C94 C 1.05725 -0.05890 0.44695
 C95 C 0.94991 -0.05057 0.56150
 C96 C 1.19204 0.15079 0.28564
 C97 C 1.15101 0.14449 0.28438
 C98 C 1.12955 0.15858 0.25207
 C99 C 1.14903 0.17873 0.22100
 C100 C 1.19025 0.18506 0.22189
 C101 C 1.21158 0.17098 0.25455
 C102 C 1.13096 0.12287 0.31570
 C103 C 1.11417 0.10439 0.34166
 C104 C 1.09486 0.08229 0.37188
 C105 C 1.07898 0.06296 0.39770
 H106 H 1.20891 0.13993 0.31050
 H107 H 1.09783 0.15371 0.25071
 H108 H 1.13205 0.18892 0.19590
 H109 H 1.24330 0.17565 0.25584
 C110 C 0.80304 -0.12704 0.26996
 C111 C 0.81818 -0.14537 0.30365
 C112 C 0.81789 -0.18540 0.30433
 C113 C 0.80319 -0.20702 0.27110
 C114 C 0.78870 -0.18882 0.23676
 C115 C 0.78837 -0.14860 0.23672
 C116 C 0.83625 -0.12304 0.33624
 C117 C 0.85257 -0.10416 0.36265
 C118 C 0.87306 -0.08195 0.39253
 C119 C 0.89178 -0.06302 0.41714
 H120 H 0.80340 -0.09607 0.26898
 H121 H 0.82972 -0.19988 0.33018
 H122 H 0.80364 -0.23795 0.27179
 H123 H 0.77784 -0.13390 0.21043
 C124 C 0.81232 0.19838 0.67000
 C125 C 0.81197 0.15897 0.67686
 C126 C 0.79404 0.14447 0.71227
 C127 C 0.77731 0.16929 0.74118
 C128 C 0.77826 0.20901 0.73503
 C129 C 0.79549 0.22328 0.69892
 C130 C 0.83257 0.13363 0.64933
 C131 C 0.85108 0.11230 0.62753
 C132 C 0.87426 0.08753 0.60333
 C133 C 0.89543 0.06688 0.58359
 H134 H 0.82638 0.20991 0.64281
 H135 H 0.79395 0.11408 0.71807
 H136 H 0.76478 0.15761 0.76902
 H137 H 0.79657 0.25376 0.69364
 C138 C 1.15701 -0.18400 0.68896
 C139 C 1.15688 -0.14475 0.69841
 C140 C 1.17751 -0.13009 0.73235
 C141 C 1.19775 -0.15466 0.75714
 C142 C 1.19761 -0.19419 0.74818
 C143 C 1.17726 -0.20861 0.71372
 C144 C 1.13543 -0.11956 0.67336
 C145 C 1.11766 -0.09858 0.65206
 C146 C 1.09750 -0.07422 0.62634
 C147 C 1.08120 -0.05371 0.60331
 H148 H 1.14120 -0.19560 0.66267
 H149 H 1.17757 -0.09975 0.73991
 H150 H 1.21275 -0.14299 0.78387
 H151 H 1.17678 -0.23897 0.70637
 C152 C 0.28137 1.13441 1.14531
 C153 C 0.31247 1.15860 1.13211
 C154 C 0.31017 1.19826 1.13798
 C155 C 0.27672 1.21361 1.15699
 C156 C 0.24534 1.18941 1.17030
 C157 C 0.24805 1.14966 1.16421
 C158 C 0.34622 1.14194 1.11234
 C159 C 0.37293 1.12513 1.09614
 C160 C 0.40191 1.10201 1.07786
 C161 C 0.42426 1.07923 1.06311
 H162 H 0.28280 1.10368 1.14077
 H163 H 0.33408 1.21722 1.12785
 H164 H 0.27528 1.24431 1.16145
 H165 H 0.22409 1.13044 1.17363
 C166 C 0.29406 0.80157 0.85363
 C167 C 0.32341 0.81974 0.82983
 C168 C 0.31859 0.82226 0.78758
 C169 C 0.28394 0.80777 0.76939
 C170 C 0.25365 0.79081 0.79333
 C171 C 0.25940 0.78714 0.83552
 C172 C 0.35592 0.83977 0.84951
 C173 C 0.38127 0.85860 0.86679
 C174 C 0.40844 0.88298 0.88781
 C175 C 0.42923 0.90575 0.90632
 H176 H 0.29727 0.79992 0.88643
 H177 H 0.34094 0.83662 0.76894
 H178 H 0.28016 0.81080 0.73684
 H179 H 0.23635 0.77466 0.85472
 C180 C 0.67673 0.82602 1.17697
 C181 C 0.67983 0.82942 1.13449
 C182 C 0.71374 0.81719 1.11374
 C183 C 0.74494 0.80267 1.13549
 C184 C 0.74261 0.80035 1.17832
 C185 C 0.70790 0.81149 1.19877
 C186 C 0.65046 0.84951 1.11295
 C187 C 0.62728 0.86871 1.09564
 C188 C 0.60204 0.89398 1.07662
 C189 C 0.58234 0.91801 1.06182
 H190 H 0.65078 0.83578 1.19337
 H191 H 0.71667 0.82017 1.08095
 H192 H 0.77152 0.79468 1.11910
 H193 H 0.70546 0.80981 1.23170
 C194 C 0.66409 1.19281 0.79320
 C195 C 0.66622 1.19179 0.83585
 C196 C 0.69902 1.20838 0.85581
 C197 C 0.73038 1.22441 0.83315
 C198 C 0.72932 1.22394 0.79018
 C199 C 0.69542 1.20891 0.77048
 C200 C 0.63770 1.16924 0.85860
 C201 C 0.61578 1.14807 0.87740
 C202 C 0.59252 1.12084 0.89886
 C203 C 0.57478 1.09564 0.91648
 H204 H 0.63904 1.17967 0.77742
 H205 H 0.70122 1.20728 0.88876
 H206 H 0.75637 1.23530 0.84904
 H207 H 0.69406 1.20824 0.73743
 C208 C 0.15569 0.29608 0.18241
 C209 C 0.15074 0.29820 0.14016
 C210 C 0.16764 0.27094 0.11387
 C211 C 0.18855 0.24103 0.12987
 C212 C 0.19266 0.23807 0.17235
 C213 C 0.17658 0.26620 0.19843
 C214 C 0.12648 0.32709 0.12406
 C215 C 0.10537 0.35085 0.11094
 C216 C 0.08010 0.37833 0.09592
 C217 C 0.05838 0.40179 0.08326
 H218 H 0.14266 0.31701 0.20301
 H219 H 0.16380 0.27227 0.08112
 H220 H 0.20029 0.21942 0.10925
 H221 H 0.17950 0.26442 0.23124
 C222 C -0.20372 0.33091 -0.18962
 C223 C -0.16295 0.32640 -0.18633
 C224 C -0.14604 0.29254 -0.20054
 C225 C -0.16983 0.26292 -0.21708
 C226 C -0.21095 0.26678 -0.21968
 C227 C -0.22761 0.30128 -0.20628
 C228 C -0.13872 0.35501 -0.16556
 C229 C -0.11797 0.37765 -0.14679
 C230 C -0.09342 0.40262 -0.12324
 C231 C -0.07245 0.42271 -0.10177
 H232 H -0.21715 0.35692 -0.17845
 H233 H -0.11458 0.28860 -0.19776
 H234 H -0.15627 0.23647 -0.22655
 H235 H -0.25918 0.30485 -0.20799
 C236 C 0.13206 0.71798 -0.18561
 C237 C 0.15092 0.68360 -0.17954
 C238 C 0.19113 0.68062 -0.18925
 C239 C 0.21251 0.71215 -0.20465
 C240 C 0.19383 0.74693 -0.21037
 C241 C 0.15334 0.74945 -0.20088
 C242 C 0.12912 0.65232 -0.16132
 C243 C 0.11005 0.62732 -0.14483
 C244 C 0.08707 0.59946 -0.12405
 C245 C 0.06718 0.57680 -0.10498
 H246 H 0.10104 0.72066 -0.17786
 H247 H 0.20602 0.65416 -0.18443
 H248 H 0.24364 0.70962 -0.21184
 H249 H 0.13840 0.77606 -0.20448
 C250 C -0.19293 0.69588 0.15306
 C251 C -0.15176 0.70110 0.15214
 C252 C -0.13431 0.73497 0.16801
 C253 C -0.15790 0.76366 0.18450
 C254 C -0.19929 0.75877 0.18539
 C255 C -0.21660 0.72457 0.16959
 C256 C -0.12731 0.67200 0.13452
 C257 C -0.10649 0.64791 0.11973
 C258 C -0.08189 0.61989 0.10247
 C259 C -0.06083 0.59592 0.08784
 H260 H -0.20672 0.66975 0.14084
 H261 H -0.10248 0.73934 0.16732
 H262 H -0.14391 0.78995 0.19599
 H263 H -0.24840 0.72023 0.17004
 C264 C 1.16284 0.21007 0.70551
 C265 C 1.15869 0.17042 0.69948
 C266 C 1.17343 0.14595 0.72838
 C267 C 1.19180 0.16086 0.76343
 C268 C 1.19589 0.20082 0.77049
 C269 C 1.18131 0.22518 0.74061
 C270 C 1.13799 0.15415 0.66474
 C271 C 1.12033 0.13814 0.63718
 C272 C 1.09943 0.11651 0.60709
 C273 C 1.08157 0.09546 0.58367
 H274 H 1.15154 0.22929 0.68328
 H275 H 1.17008 0.11519 0.72420
 H276 H 1.20153 0.14101 0.78583
 H277 H 1.18448 0.25598 0.74435
 C278 C 0.85943 -0.20546 0.69864
 C279 C 0.86754 -0.16589 0.69900
 C280 C 0.85578 -0.14340 0.73268
 C281 C 0.83581 -0.16015 0.76566
 C282 C 0.82717 -0.19974 0.76549
 C283 C 0.83938 -0.22233 0.73178
 C284 C 0.88725 -0.14752 0.66500
 C285 C 0.90311 -0.12952 0.63797
 C286 C 0.92077 -0.10531 0.60839
 C287 C 0.93481 -0.08187 0.58540
 H288 H 0.86832 -0.22316 0.67273
 H289 H 0.86193 -0.11279 0.73339
 H290 H 0.82713 -0.14222 0.79145
 H291 H 0.83294 -0.25286 0.73099
 C292 C 1.18085 -0.14784 0.29262
 C293 C 1.16195 -0.17026 0.32230
 C294 C 1.16511 -0.21005 0.32049
 C295 C 1.18663 -0.22739 0.28867
 C296 C 1.20530 -0.20518 0.25790
 C297 C 1.20226 -0.16497 0.26082
 C298 C 1.13828 -0.15187 0.35343
 C299 C 1.11861 -0.13423 0.37789
 C300 C 1.09610 -0.11086 0.40446
 C301 C 1.07770 -0.08848 0.42513
 H302 H 1.17836 -0.11701 0.29357
 H303 H 1.15065 -0.22769 0.34340
 H304 H 1.18878 -0.25824 0.28806
 H305 H 1.21509 -0.14676 0.23749
 C306 C 0.87341 0.19087 0.29464
 C307 C 0.85425 0.17062 0.32593
 C308 C 0.81298 0.16751 0.32700
 C309 C 0.79095 0.18343 0.29623
 C310 C 0.80979 0.20270 0.26345
 C311 C 0.85149 0.20693 0.26380
 C312 C 0.87675 0.14985 0.35465
 C313 C 0.89472 0.13039 0.37753
 C314 C 0.91450 0.10511 0.40275
 C315 C 0.93002 0.08132 0.42266
 H316 H 0.90539 0.19310 0.29324
 H317 H 0.79780 0.15184 0.35104
 H318 H 0.75904 0.18028 0.29774
 H319 H 0.86735 0.22077 0.23897
 C320 C 0.13943 0.28437 -0.15472
 C321 C 0.16364 0.31094 -0.13356
 C322 C 0.20442 0.30577 -0.13249
 C323 C 0.22088 0.27410 -0.15257
 C324 C 0.19678 0.24698 -0.17424
 C325 C 0.15565 0.25280 -0.17475
 C326 C 0.14579 0.34296 -0.11280
 C327 C 0.12812 0.36854 -0.09619
 C328 C 0.10418 0.39667 -0.07781
 C329 C 0.08088 0.41869 -0.06320
 H330 H 0.10776 0.28788 -0.15546
 H331 H 0.22348 0.32620 -0.11621
 H332 H 0.25260 0.27119 -0.15183
 H333 H 0.13573 0.23230 -0.18977
 C334 C -0.19004 0.28425 0.14851
 C335 C -0.17316 0.31509 0.17069
 C336 C -0.17046 0.31320 0.21320
 C337 C -0.18395 0.28035 0.23341
 C338 C -0.20033 0.24849 0.21141
 C339 C -0.20353 0.25136 0.16852
 C340 C -0.15558 0.34714 0.14937
 C341 C -0.13904 0.37269 0.13101
 C342 C -0.11719 0.40083 0.10918
 C343 C -0.09601 0.42290 0.09055
 H344 H -0.19177 0.28515 0.11551
 H345 H -0.15727 0.33686 0.23070
 H346 H -0.18163 0.27984 0.26636
 H347 H -0.21487 0.22746 0.15010
 C348 C -0.19294 0.68963 -0.14599
 C349 C -0.15225 0.68470 -0.14243
 C350 C -0.12553 0.71176 -0.15894
 C351 C -0.13926 0.74377 -0.17847
 C352 C -0.18003 0.74925 -0.18188
 C353 C -0.20675 0.72169 -0.16563
 C354 C -0.13726 0.65268 -0.12109
 C355 C -0.12209 0.62716 -0.10336
 C356 C -0.10086 0.59921 -0.08310
 C357 C -0.07936 0.57758 -0.06666
 H358 H -0.21392 0.66892 -0.13333
 H359 H -0.09398 0.70836 -0.15624
 H360 H -0.11800 0.76470 -0.19020
 H361 H -0.23829 0.72516 -0.16801
 C362 C 0.15131 0.70572 0.18510
 C363 C 0.17595 0.67868 0.16698
 C364 C 0.21699 0.68406 0.16919
 C365 C 0.23330 0.71666 0.18906
 C366 C 0.20877 0.74463 0.20705
 C367 C 0.16738 0.73826 0.20486
 C368 C 0.15837 0.64652 0.14484
 C369 C 0.14107 0.62111 0.12625
 C370 C 0.11775 0.59346 0.10462
 C371 C 0.09516 0.57202 0.08651
 H372 H 0.11948 0.70204 0.18326
 H373 H 0.23637 0.66328 0.15525
 H374 H 0.26515 0.71996 0.19060
 H375 H 0.14726 0.75925 0.21704
 C376 C 0.30214 1.15784 0.81463
 C377 C 0.30320 1.15268 0.85682
 C378 C 0.27561 1.17061 0.88239
 C379 C 0.24631 1.19268 0.86577
 C380 C 0.24385 1.19700 0.82301
 C381 C 0.27293 1.17980 0.79787
 C382 C 0.33154 1.12760 0.87349
 C383 C 0.35498 1.10599 0.88686
 C384 C 0.38235 1.08032 0.90203
 C385 C 0.40587 1.05845 0.91479
 H386 H 0.32351 1.14429 0.79454
 H387 H 0.27608 1.16671 0.91513
 H388 H 0.22432 1.20466 0.88625
 H389 H 0.27279 1.18311 0.76505
 C390 C 0.29496 0.81794 1.14819
 C391 C 0.32122 0.83892 1.17330
 C392 C 0.31675 0.83750 1.21577
 C393 C 0.28545 0.81608 1.23307
 C394 C 0.25772 0.79578 1.20815
 C395 C 0.26362 0.79652 1.16531
 C396 C 0.35122 0.86354 1.15515
 C397 C 0.37519 0.88454 1.13871
 C398 C 0.40193 0.90921 1.11773
 C399 C 0.42360 0.92996 1.09803
 H400 H 0.29801 0.81902 1.11523
 H401 H 0.33699 0.85354 1.23553
 H402 H 0.28260 0.81567 1.26606
 H403 H 0.24276 0.78224 1.14485
 C404 C 0.69154 1.18726 1.18507
 C405 C 0.69362 1.14735 1.18393
 C406 C 0.72668 1.13009 1.19957
 C407 C 0.75782 1.15252 1.21576
 C408 C 0.75665 1.19295 1.21658
 C409 C 0.72264 1.20987 1.20127
 C410 C 0.66287 1.12409 1.16486
 C411 C 0.63794 1.10439 1.14784
 C412 C 0.60969 1.08132 1.12652
 C413 C 0.58641 1.06188 1.10694
 H414 H 0.66605 1.20096 1.17303
 H415 H 0.72879 1.09922 1.19849
 H416 H 0.78359 1.13820 1.22620
 H417 H 0.72006 1.24067 1.20205
 C418 C 0.74016 0.83152 0.87715
 C419 C 0.71245 0.84772 0.85188
 C420 C 0.71445 0.84105 0.80957
 C421 C 0.74444 0.81894 0.79250
 C422 C 0.77288 0.80322 0.81754
 C423 C 0.77020 0.80939 0.86010
 C424 C 0.68282 0.87228 0.86912
 C425 C 0.65826 0.89329 0.88321
 C426 C 0.62961 0.91818 0.89942
 C427 C 0.60508 0.93943 0.91312
 H428 H 0.73900 0.83658 0.90992
 H429 H 0.69319 0.85343 0.78970
 H430 H 0.74594 0.81453 0.75967
 H431 H 0.79205 0.79801 0.87996
   
