data_POSCAR
  _audit_creation_date              2014-09-24
  _audit_creation_method            'ToBaCCo'
  _symmetry_space_group_name_H-M    'P1'
  _symmetry_Int_Tables_number       1
  _symmetry_cell_setting            triclinic
  loop_
  _symmetry_equiv_pos_as_xyz
 x,y,z
_cell_length_a 24.9745
_cell_length_b 24.9282
_cell_length_c 25.0118
_cell_angle_alpha 90.021300
_cell_angle_beta 90.058200
_cell_angle_gamma 89.813100
loop_
  _atom_site_label
  _atom_site_type_symbol
  _atom_site_fract_x
  _atom_site_fract_y
  _atom_site_fract_z
C1 C 0.33452 0.33238 1.40339
 C2 C 0.28809 0.35268 1.42775
 C3 C 0.26233 0.39797 1.40660
 C4 C 0.28320 0.42367 1.36134
 C5 C 0.32955 0.40390 1.33649
 C6 C 0.35536 0.35798 1.35754
 C7 C 0.35966 0.28609 1.42322
 C8 C 0.40502 0.26506 1.39762
 C9 C 0.42600 0.29060 1.35237
 C10 C 0.40135 0.33698 1.33204
 C11 C 0.42099 0.36192 1.28583
 C12 C 0.39511 0.40719 1.26477
 C13 C 0.34973 0.42832 1.29016
 H14 H 0.27149 0.33271 1.46251
 H15 H 0.26281 0.45847 1.34489
 H16 H 0.34335 0.26588 1.45798
 H17 H 0.46087 0.27389 1.33248
 H18 H 0.45582 0.34558 1.26560
 H19 H 0.32970 0.46309 1.27329
 C20 C 1.16694 0.66813 0.90257
 C21 C 1.21327 0.64784 0.92721
 C22 C 1.23923 0.60263 0.90612
 C23 C 1.21865 0.57704 0.86056
 C24 C 1.17238 0.59682 0.83543
 C25 C 1.14638 0.64263 0.85647
 C26 C 1.14160 0.71432 0.92240
 C27 C 1.09628 0.73532 0.89659
 C28 C 1.07559 0.70985 0.85111
 C29 C 1.10045 0.66360 0.83076
 C30 C 1.08103 0.63874 0.78436
 C31 C 1.10704 0.59356 0.76330
 C32 C 1.15240 0.57247 0.78887
 H33 H 1.22962 0.66772 0.96218
 H34 H 1.23918 0.54231 0.84415
 H35 H 1.15767 0.73446 0.95736
 H36 H 1.04076 0.72653 0.83106
 H37 H 1.04621 0.65503 0.76403
 H38 H 1.17253 0.53776 0.77203
 C39 C 0.66345 -0.17264 0.09829
 C40 C 0.70969 -0.15258 0.07359
 C41 C 0.73530 -0.10720 0.09433
 C42 C 0.71459 -0.08117 0.13947
 C43 C 0.66848 -0.10068 0.16466
 C44 C 0.64274 -0.14670 0.14409
 C45 C 0.63836 -0.21895 0.07884
 C46 C 0.59315 -0.23969 0.10476
 C47 C 0.57233 -0.21383 0.15001
 C48 C 0.59695 -0.16739 0.16997
 C49 C 0.57746 -0.14201 0.21611
 C50 C 0.60330 -0.09660 0.23660
 C51 C 0.64844 -0.07583 0.21084
 H52 H 0.72629 -0.17270 0.03887
 H53 H 0.73497 -0.04630 0.15547
 H54 H 0.65455 -0.23940 0.04409
 H55 H 0.53762 -0.23031 0.17015
 H56 H 0.54277 -0.15802 0.23664
 H57 H 0.66838 -0.04092 0.22728
 C58 C -0.16515 1.17143 -0.40281
 C59 C -0.21183 1.15172 -0.42711
 C60 C -0.23757 1.10647 -0.40615
 C61 C -0.21650 1.08033 -0.36116
 C62 C -0.16998 1.09953 -0.33640
 C63 C -0.14413 1.14532 -0.35722
 C64 C -0.13986 1.21757 -0.42242
 C65 C -0.09423 1.23787 -0.39688
 C66 C -0.07313 1.21187 -0.35189
 C67 C -0.09789 1.16566 -0.33175
 C68 C -0.07810 1.14021 -0.28577
 C69 C -0.10408 1.09507 -0.26502
 C70 C -0.14964 1.07459 -0.29038
 H71 H -0.22854 1.17203 -0.46171
 H72 H -0.23683 1.04556 -0.34489
 H73 H -0.15616 1.23828 -0.45695
 H74 H -0.03809 1.22817 -0.33213
 H75 H -0.04309 1.15601 -0.26554
 H76 H -0.16969 1.03989 -0.27371
 C77 C 0.66422 0.67311 0.59897
 C78 C 0.71052 0.65282 0.57435
 C79 C 0.73609 0.60726 0.59503
 C80 C 0.71528 0.58126 0.64005
 C81 C 0.66907 0.60100 0.66516
 C82 C 0.64338 0.64722 0.64464
 C83 C 0.63918 0.71959 0.57954
 C84 C 0.59389 0.74057 0.60533
 C85 C 0.57293 0.71479 0.65048
 C86 C 0.59750 0.66815 0.67043
 C87 C 0.57787 0.64278 0.71645
 C88 C 0.60365 0.59714 0.73689
 C89 C 0.64889 0.57616 0.71120
 H90 H 0.72720 0.67290 0.53972
 H91 H 0.73564 0.54623 0.65600
 H92 H 0.65546 0.73997 0.54485
 H93 H 0.53813 0.73144 0.67053
 H94 H 0.54311 0.65896 0.73691
 H95 H 0.66880 0.54110 0.72760
 C96 C 0.83519 0.32746 0.09749
 C97 C 0.78864 0.34778 0.07319
 C98 C 0.76328 0.39348 0.09404
 C99 C 0.78463 0.41948 0.13892
 C100 C 0.83105 0.39967 0.16369
 C101 C 0.85649 0.35340 0.14299
 C102 C 0.86006 0.28091 0.07791
 C103 C 0.90562 0.25994 0.10338
 C104 C 0.92697 0.28580 0.14836
 C105 C 0.90260 0.33247 0.16846
 C106 C 0.92267 0.35786 0.21434
 C107 C 0.89712 0.40353 0.23497
 C108 C 0.85168 0.42453 0.20958
 H109 H 0.77171 0.32759 0.03868
 H110 H 0.76461 0.45460 0.15513
 H111 H 0.84345 0.26048 0.04336
 H112 H 0.96196 0.26918 0.16817
 H113 H 0.95759 0.34166 0.23457
 H114 H 0.83195 0.45962 0.22612
 C115 C 0.33288 0.16703 0.90374
 C116 C 0.28648 0.14689 0.92803
 C117 C 0.26066 0.10191 0.90659
 C118 C 0.28141 0.07641 0.86104
 C119 C 0.32773 0.09603 0.83625
 C120 C 0.35362 0.14158 0.85765
 C121 C 0.35813 0.21302 0.92383
 C122 C 0.40347 0.23377 0.89828
 C123 C 0.42434 0.20838 0.85291
 C124 C 0.39961 0.16239 0.83228
 C125 C 0.41919 0.13771 0.78588
 C126 C 0.39326 0.09285 0.76445
 C127 C 0.34785 0.07184 0.78966
 H128 H 0.26998 0.16673 0.96299
 H129 H 0.26097 0.04187 0.84436
 H130 H 0.34203 0.23328 0.95870
 H131 H 0.45918 0.22505 0.83317
 H132 H 0.45405 0.15393 0.76581
 H133 H 0.32780 0.03735 0.77250
 C134 C 0.16494 0.83180 0.40279
 C135 C 0.21117 0.85210 0.42736
 C136 C 0.23674 0.89727 0.40624
 C137 C 0.21599 0.92289 0.36083
 C138 C 0.16985 0.90314 0.33575
 C139 C 0.14416 0.85733 0.35675
 C140 C 0.13996 0.78559 0.42256
 C141 C 0.09480 0.76459 0.39672
 C142 C 0.07388 0.79006 0.35129
 C143 C 0.09839 0.83634 0.33101
 C144 C 0.07885 0.86118 0.28461
 C145 C 0.10462 0.90634 0.26362
 C146 C 0.14977 0.92747 0.28923
 H147 H 0.22785 0.83229 0.46224
 H148 H 0.23638 0.95757 0.34452
 H149 H 0.15622 0.76543 0.45747
 H150 H 0.03919 0.77335 0.33121
 H151 H 0.04419 0.84485 0.26420
 H152 H 0.16972 0.96215 0.27240
 Zn153 Zn -0.01193 0.93303 0.03161
 Zn154 Zn -0.06553 1.03020 -0.01288
 Zn155 Zn 0.04142 1.04057 0.04098
 Zn156 Zn 0.03197 0.98578 -0.06557
 O157 O -0.00091 0.99751 -0.00134
 O158 O -0.08112 0.91985 0.04457
 O159 O -0.07035 1.09366 0.01974
 O160 O 0.06033 1.00834 0.10267
 O161 O -0.12111 0.99201 0.01137
 O162 O 0.02046 0.92932 0.09501
 O163 O 0.00849 1.10232 0.05961
 O164 O 0.09518 1.01833 -0.06982
 O165 O -0.07818 1.04363 -0.08201
 O166 O 0.10302 1.05934 0.00848
 O167 O -0.00579 1.01048 -0.12129
 O168 O 0.04556 0.91640 -0.07826
 O169 O 0.01326 0.87703 -0.00581
 C170 C -0.12296 0.94710 0.03501
 C171 C -0.03796 1.11993 0.04854
 C172 C 0.04922 0.96215 0.12078
 C173 C 0.12099 1.04763 -0.03754
 C174 C -0.05058 1.03436 -0.12349
 C175 C 0.03678 0.87477 -0.05062
 Zn176 Zn 0.46810 0.01432 0.43562
 Zn177 Zn 0.45836 -0.04040 0.54206
 Zn178 Zn 0.56542 -0.03011 0.48865
 Zn179 Zn 0.51172 0.06703 0.53319
 O180 O 0.50081 0.00262 0.49999
 O181 O 0.40474 -0.01795 0.43120
 O182 O 0.49118 -0.10201 0.56094
 O183 O 0.57800 -0.04406 0.41958
 O184 O 0.39696 -0.05920 0.50933
 O185 O 0.50574 -0.01080 0.38004
 O186 O 0.57022 -0.09337 0.52161
 O187 O 0.58094 0.08022 0.54635
 O188 O 0.43907 -0.00828 0.60355
 O189 O 0.62099 0.00828 0.51277
 O190 O 0.47898 0.07074 0.59647
 O191 O 0.48679 0.12300 0.49562
 O192 O 0.45490 0.08375 0.42281
 C193 C 0.37896 -0.04734 0.46336
 C194 C 0.53770 -0.11956 0.55025
 C195 C 0.55040 -0.03495 0.37800
 C196 C 0.62282 0.05314 0.53654
 C197 C 0.45000 0.03786 0.62188
 C198 C 0.46364 0.12533 0.45057
 Zn199 Zn 0.93569 0.46989 0.48684
 Zn200 Zn 1.04273 0.45921 0.54082
 Zn201 Zn 1.03283 0.51399 0.43423
 Zn202 Zn 0.98895 0.56672 0.53181
 O203 O 1.00017 0.50235 0.49855
 O204 O 0.93120 0.40652 0.51933
 O205 O 1.10434 0.44040 0.50823
 O206 O 0.99538 0.48897 0.37841
 O207 O 1.01005 0.39753 0.55926
 O208 O 0.92307 0.45625 0.41769
 O209 O 1.09636 0.48165 0.43006
 O210 O 1.01347 0.62268 0.49426
 O211 O 1.06179 0.49131 0.60257
 O212 O 1.04571 0.58341 0.42155
 O213 O 1.02176 0.57049 0.59510
 O214 O 0.91973 0.57985 0.54513
 O215 O 0.87997 0.50811 0.51127
 C216 C 0.96366 0.38011 0.54804
 C217 C 1.12230 0.45227 0.46229
 C218 C 0.95071 0.46513 0.37620
 C219 C 1.03668 0.62499 0.44931
 C220 C 1.05075 0.53759 0.62075
 C221 C 0.87798 0.55279 0.53536
 Zn222 Zn 0.51256 0.43399 1.03347
 Zn223 Zn 0.45824 0.54134 1.04222
 Zn224 Zn 0.56557 0.53090 0.98882
 Zn225 Zn 0.46854 0.48650 0.93580
 O226 O 0.50112 0.49830 1.00020
 O227 O 0.48019 0.43044 1.09685
 O228 O 0.49073 0.60304 1.06093
 O229 O 0.62147 0.49258 1.01302
 O230 O 0.43930 0.50922 1.10392
 O231 O 0.58186 0.42062 1.04642
 O232 O 0.56986 0.59420 1.02165
 O233 O 0.50617 0.51127 0.88013
 O234 O 0.39661 0.56008 1.00930
 O235 O 0.57810 0.54473 0.91973
 O236 O 0.40509 0.51894 0.93113
 O237 O 0.45536 0.41710 0.92338
 O238 O 0.48750 0.37804 0.99628
 C239 C 0.45091 0.46318 1.12232
 C240 C 0.53717 0.62051 1.05018
 C241 C 0.62359 0.44768 1.03670
 C242 C 0.55066 0.53548 0.87811
 C243 C 0.37892 0.54829 0.96317
 C244 C 0.46409 0.37564 0.95139
 C245 C 1.21547 0.41572 0.42823
 C246 C 1.17328 0.43188 0.44532
 C247 C 0.28595 0.58484 0.92819
 C248 C 0.32803 0.56868 0.94572
 C249 C -0.21551 0.91148 0.07105
 C250 C -0.17358 0.92747 0.05345
 C251 C 0.71558 0.08894 0.57216
 C252 C 0.67351 0.07294 0.55477
 C253 C 0.42702 0.21828 0.41542
 C254 C 0.44485 0.17619 0.43129
 C255 C 0.92913 0.28714 0.58448
 C256 C 0.94645 0.32922 0.56836
 C257 C 0.07403 0.78199 -0.08559
 C258 C 0.05592 0.82398 -0.06978
 C259 C 0.57128 0.71352 1.08710
 C260 C 0.55414 0.67140 1.07081
 C261 C 0.41389 0.42999 1.21537
 C262 C 0.43027 0.44669 1.17322
 C263 C 0.58481 -0.07286 0.28570
 C264 C 0.56933 -0.05449 0.32751
 C265 C -0.08538 1.07150 -0.21595
 C266 C -0.06970 1.05343 -0.17408
 C267 C 1.08823 0.57075 0.71380
 C268 C 1.07166 0.55410 0.67164
 C269 C 0.78535 0.58840 0.57176
 C270 C 0.82732 0.57239 0.55404
 C271 C 0.71646 0.41151 1.07237
 C272 C 0.67439 0.42778 1.05495
 C273 C 0.21390 1.08422 -0.07171
 C274 C 0.17183 1.06806 -0.05456
 C275 C 0.28605 -0.08398 0.42927
 C276 C 0.32814 -0.06774 0.44632
 C277 C 0.57203 -0.21255 0.58755
 C278 C 0.55487 -0.17041 0.57107
 C279 C 1.07298 0.71786 0.41442
 C280 C 1.05528 0.67581 0.43016
 C281 C -0.07255 1.21303 0.08552
 C282 C -0.05528 1.17086 0.06914
 C283 C 0.42687 0.28293 0.91708
 C284 C 0.44494 0.32489 0.93262
 C285 C 0.58504 0.57338 0.78587
 C286 C 0.56954 0.55499 0.82763
 C287 C 0.41221 0.07042 0.71490
 C288 C 0.42896 0.05413 0.67271
 C289 C 0.08598 0.92902 0.21405
 C290 C 0.06972 0.94566 0.17179
 C291 C 0.91609 0.42726 0.28391
 C292 C 0.93178 0.44563 0.32566
   
