data_POSCAR
  _audit_creation_date              2014-09-24
  _audit_creation_method            'ToBaCCo'
  _symmetry_space_group_name_H-M    'P1'
  _symmetry_Int_Tables_number       1
  _symmetry_cell_setting            triclinic
  loop_
  _symmetry_equiv_pos_as_xyz
 x,y,z
_cell_length_a 27.3564
_cell_length_b 22.1992
_cell_length_c 15.0625
_cell_angle_alpha 89.929200
_cell_angle_beta 90.013100
_cell_angle_gamma 89.930800
loop_
  _atom_site_label
  _atom_site_type_symbol
  _atom_site_fract_x
  _atom_site_fract_y
  _atom_site_fract_z
C1 C 0.61123 0.31618 0.48057
 C2 C 0.62297 0.32549 0.56799
 C3 C 0.67357 0.32205 0.57367
 N4 N 0.69287 0.30960 0.49336
 C5 C 0.65492 0.30617 0.43663
 C6 C 0.70218 0.33047 0.65059
 C7 C 0.74988 0.30544 0.65477
 C8 C 0.78670 0.32332 0.71250
 C9 C 0.82415 0.28249 0.70353
 C10 C 0.80985 0.24207 0.63860
 N11 N 0.76503 0.25675 0.60792
 C12 C 0.83528 0.18864 0.61756
 C13 C 0.83943 0.17117 0.52705
 C14 C 0.86428 0.12202 0.49226
 C15 C 0.85932 0.12525 0.40098
 C16 C 0.82967 0.17447 0.38324
 N17 N 0.81838 0.20266 0.46000
 C18 C 0.81459 0.19470 0.29813
 C19 C 0.77384 0.23326 0.28535
 C20 C 0.76041 0.25849 0.20441
 C21 C 0.71649 0.28715 0.21721
 C22 C 0.70411 0.27881 0.30551
 N23 N 0.73914 0.24596 0.34669
 C24 C 0.66002 0.29839 0.34478
 H25 H 0.57475 0.31602 0.45270
 H26 H 0.59695 0.33211 0.62114
 H27 H 0.73655 0.22803 0.41036
 H28 H 0.78632 0.36107 0.75786
 H29 H 0.85780 0.28172 0.74134
 H30 H 0.88372 0.08706 0.52735
 H31 H 0.87454 0.09375 0.35374
 H32 H 0.69590 0.31105 0.16688
 H33 H 0.74373 0.22994 0.56631
 H34 H 0.77935 0.25525 0.14157
 C35 C 0.36433 0.67219 0.37944
 C36 C 0.37550 0.66664 0.46744
 C37 C 0.33219 0.67426 0.51369
 N38 N 0.29521 0.68620 0.45721
 C39 C 0.31467 0.68475 0.37476
 C40 C 0.32596 0.66221 0.60491
 C41 C 0.28965 0.69341 0.65479
 C42 C 0.27524 0.68096 0.74137
 C43 C 0.23973 0.72265 0.76345
 C44 C 0.23221 0.75817 0.68903
 N45 N 0.26298 0.74058 0.62376
 C46 C 0.19821 0.80611 0.68245
 C47 C 0.17933 0.82552 0.59959
 C48 C 0.15317 0.87827 0.58510
 C49 C 0.13647 0.87618 0.49931
 C50 C 0.15390 0.82299 0.46349
 N51 N 0.18020 0.79206 0.52461
 C52 C 0.14399 0.80247 0.37672
 C53 C 0.17384 0.75994 0.33376
 C54 C 0.16247 0.73072 0.25513
 C55 C 0.20321 0.69834 0.23121
 C56 C 0.23792 0.70796 0.29687
 N57 N 0.21988 0.74606 0.35845
 C58 C 0.28595 0.68509 0.29702
 H59 H 0.39032 0.66608 0.32653
 H60 H 0.41115 0.65585 0.49441
 H61 H 0.23975 0.76658 0.40904
 H62 H 0.28768 0.64496 0.78409
 H63 H 0.22041 0.72512 0.82603
 H64 H 0.14675 0.91480 0.63110
 H65 H 0.11478 0.91044 0.46656
 H66 H 0.20680 0.67168 0.17152
 H67 H 0.26760 0.76269 0.56329
 H68 H 0.12871 0.73327 0.21786
 C69 C 0.39084 0.34353 -0.46040
 C70 C 0.38043 0.34877 -0.54946
 C71 C 0.35186 0.29936 -0.57213
 N72 N 0.34306 0.26577 -0.49854
 C73 C 0.36649 0.29285 -0.43053
 C74 C 0.33313 0.28457 -0.65761
 C75 C 0.29961 0.23647 -0.66578
 C76 C 0.29362 0.20100 -0.74054
 C77 C 0.25214 0.16739 -0.72711
 C78 C 0.23419 0.18259 -0.64366
 N79 N 0.26421 0.22383 -0.60626
 C80 C 0.18681 0.16962 -0.61103
 C81 C 0.17454 0.17959 -0.52086
 C82 C 0.12770 0.18028 -0.48538
 C83 C 0.13279 0.18736 -0.39566
 C84 C 0.18254 0.18758 -0.37805
 N85 N 0.20790 0.18338 -0.45480
 C86 C 0.20428 0.18809 -0.29256
 C87 C 0.25474 0.20137 -0.28230
 C88 C 0.28360 0.18435 -0.21066
 C89 C 0.32953 0.20735 -0.22563
 C90 C 0.32778 0.23707 -0.30651
 N91 N 0.28224 0.23290 -0.34100
 C92 C 0.36615 0.27211 -0.34196
 H93 H 0.41179 0.37512 -0.42112
 H94 H 0.39120 0.38644 -0.59024
 H95 H 0.26940 0.25578 -0.39676
 H96 H 0.31554 0.20155 -0.80035
 H97 H 0.23613 0.13806 -0.77618
 H98 H 0.09309 0.17555 -0.51913
 H99 H 0.10289 0.19159 -0.34913
 H100 H 0.36065 0.20298 -0.18168
 H101 H 0.25642 0.24988 -0.55052
 H102 H 0.27307 0.15745 -0.15389
 C103 C -0.39274 0.66056 -0.52678
 C104 C -0.39092 0.66058 -0.43557
 C105 C -0.35336 0.69931 -0.41084
 N106 N -0.33370 0.72410 -0.48484
 C107 C -0.35720 0.70040 -0.55576
 C108 C -0.34139 0.71731 -0.32241
 C109 C -0.29843 0.75122 -0.30206
 C110 C -0.28487 0.77072 -0.21758
 C111 C -0.23846 0.79380 -0.22375
 C112 C -0.22420 0.78750 -0.31125
 N113 N -0.26064 0.76161 -0.35840
 C114 C -0.17724 0.80145 -0.34439
 C115 C -0.16809 0.81124 -0.43505
 C116 C -0.12207 0.81639 -0.47261
 C117 C -0.12918 0.82863 -0.56061
 C118 C -0.17938 0.83065 -0.57376
 N119 N -0.20313 0.81994 -0.49683
 C120 C -0.20279 0.83962 -0.65609
 C121 C -0.25184 0.82146 -0.67092
 C122 C -0.27995 0.83902 -0.74309
 C123 C -0.32165 0.80480 -0.74145
 C124 C -0.31897 0.76847 -0.66641
 N125 N -0.27627 0.77919 -0.62367
 C126 C -0.35235 0.72199 -0.64411
 H127 H -0.41950 0.63697 -0.56654
 H128 H -0.41622 0.63650 -0.39362
 H129 H -0.26153 0.75278 -0.57320
 H130 H -0.30458 0.76619 -0.15587
 H131 H -0.21727 0.81189 -0.16929
 H132 H -0.08697 0.81069 -0.44052
 H133 H -0.10044 0.83281 -0.60951
 H134 H -0.34978 0.80603 -0.79171
 H135 H -0.25670 0.74511 -0.42243
 H136 H -0.27050 0.87148 -0.79392
 O137 O -0.06811 0.99091 0.16830
 O138 O 0.05733 0.93153 -0.14554
 O139 O -0.06178 0.90134 -0.07050
 O140 O 0.06597 0.92785 0.09333
 O141 O -0.03225 0.93974 -0.18854
 O142 O 0.01837 0.96721 0.18904
 O143 O 0.10770 0.96444 -0.04294
 O144 O -0.06306 0.92249 0.07632
 C145 C -0.07991 0.93898 0.14655
 C146 C 0.09844 0.93051 -0.10795
 C147 C -0.05475 0.89820 -0.15074
 C148 C 0.04600 0.92533 0.16695
 O149 O 0.04357 1.07676 0.12730
 O150 O -0.02865 1.05560 -0.18357
 O151 O -0.10105 1.03863 0.04249
 O152 O 0.08056 1.07446 -0.01541
 O153 O 0.06427 1.04928 -0.15152
 O154 O -0.04118 1.09399 0.08773
 O155 O 0.11232 1.02576 0.12009
 O156 O -0.09167 1.01534 -0.11431
 Co157 Co -0.01066 1.02897 0.12976
 Co158 Co 0.01388 0.99456 -0.15199
 Co159 Co -0.07390 0.97158 -0.01510
 Co160 Co 0.06788 1.00132 0.03855
 O161 O -0.00189 0.99677 -0.00807
 C162 C 0.08557 1.06671 0.16071
 C163 C -0.07391 1.05287 -0.16915
 C164 C -0.08528 1.08848 0.07148
 C165 C 0.08657 1.08183 -0.09681
 O166 O 0.45017 0.43660 0.16002
 O167 O 0.56331 0.48011 -0.20392
 O168 O 0.42558 0.43223 -0.10439
 O169 O 0.56903 0.43026 0.07529
 O170 O 0.50298 0.41380 -0.12406
 O171 O 0.53663 0.47034 0.18862
 O172 O 0.58279 0.44679 -0.07369
 O173 O 0.39664 0.45051 0.05155
 C174 C 0.41047 0.42369 0.12232
 C175 C 0.59565 0.45430 -0.15348
 C176 C 0.45933 0.39741 -0.13069
 C177 C 0.55750 0.42647 0.15391
 O178 O 0.50820 0.58268 0.15781
 O179 O 0.46883 0.50177 -0.21138
 O180 O 0.40240 0.57057 0.01735
 O181 O 0.58616 0.56861 -0.04791
 O182 O 0.52491 0.57447 -0.13620
 O183 O 0.42208 0.54607 0.14979
 O184 O 0.57926 0.55137 0.11310
 O185 O 0.43029 0.55679 -0.12436
 Co186 Co 0.48121 0.50878 0.14933
 Co187 Co 0.51511 0.49480 -0.12373
 Co188 Co 0.42028 0.50210 -0.03713
 Co189 Co 0.57219 0.50022 0.01602
 O190 O 0.49376 0.50358 0.00541
 C191 C 0.55301 0.59037 0.15142
 C192 C 0.43609 0.53953 -0.20125
 C193 C 0.39511 0.57378 0.09746
 C194 C 0.56343 0.59621 -0.10760
 N195 N 0.33424 0.36348 0.13366
 N196 N 0.31296 0.32532 0.19613
 C197 C 0.34473 0.31772 0.26425
 C198 C 0.38720 0.34983 0.24482
 C199 C 0.37883 0.37817 0.16375
 H200 H 0.42049 0.35223 0.28331
 H201 H 0.31685 0.38006 0.07692
 H202 H 0.27674 0.31067 0.19292
 N203 N -0.14171 0.85935 0.13801
 N204 N -0.17755 0.83363 0.19085
 C205 C -0.17537 0.86029 0.27094
 C206 C -0.13903 0.90476 0.27013
 C207 C -0.11914 0.90254 0.18553
 H208 H -0.12812 0.93398 0.32407
 H209 H -0.13384 0.84579 0.07320
 H210 H -0.19833 0.79615 0.17279
 N211 N 0.55492 0.69836 0.19231
 N212 N 0.58101 0.73515 0.25034
 C213 C 0.61538 0.70087 0.28995
 C214 C 0.61232 0.64209 0.25793
 C215 C 0.57451 0.64279 0.19623
 H216 H 0.63384 0.60361 0.27863
 H217 H 0.52454 0.71183 0.15522
 H218 H 0.57244 0.78001 0.26435
 N219 N 0.08054 1.15781 0.25344
 N220 N 0.10868 1.18646 0.31753
 C221 C 0.14975 1.15382 0.32885
 C222 C 0.14903 1.10428 0.27210
 C223 C 0.10509 1.10850 0.22676
 H224 H 0.17594 1.06868 0.26682
 H225 H 0.04654 1.17287 0.23090
 H226 H 0.09997 1.22772 0.34685
 N227 N 0.66619 0.38607 -0.13602
 N228 N 0.69530 0.35041 -0.19052
 C229 C 0.68317 0.36243 -0.27564
 C230 C 0.64681 0.40681 -0.27654
 C231 C 0.63688 0.41936 -0.18838
 H232 H 0.62856 0.42627 -0.33351
 H233 H 0.66504 0.38297 -0.06685
 H234 H 0.71750 0.31553 -0.16713
 N235 N 0.18347 0.88915 -0.11419
 N236 N 0.20968 0.85591 -0.16943
 C237 C 0.18035 0.83564 -0.23482
 C238 C 0.13306 0.85559 -0.21867
 C239 C 0.13684 0.89049 -0.14301
 H240 H 0.10112 0.84967 -0.26018
 H241 H 0.19792 0.91294 -0.06049
 H242 H 0.24753 0.85039 -0.16523
 N243 N 0.40353 0.53471 -0.35376
 N244 N 0.37167 0.56815 -0.40625
 C245 C 0.35557 0.61585 -0.35840
 C246 C 0.37611 0.61275 -0.27381
 C247 C 0.40615 0.56202 -0.27461
 H248 H 0.37263 0.64503 -0.22042
 H249 H 0.42142 0.49533 -0.37345
 H250 H 0.36155 0.55613 -0.47071
 N251 N -0.14845 1.11465 -0.17298
 N252 N -0.17268 1.15276 -0.23146
 C253 C -0.14778 1.15409 -0.30901
 C254 C -0.10614 1.11757 -0.30016
 C255 C -0.10818 1.09418 -0.21388
 H256 H -0.07709 1.11057 -0.34765
 H257 H -0.15982 1.10503 -0.10830
 H258 H -0.20599 1.17371 -0.21728
 N259 N 0.58306 0.70517 -0.12781
 N260 N 0.60947 0.73887 -0.18981
 C261 C 0.62732 0.70061 -0.25168
 C262 C 0.61277 0.64247 -0.23055
 C263 C 0.58558 0.64735 -0.15340
 H264 H 0.62257 0.60119 -0.26441
 H265 H 0.56501 0.72246 -0.07232
 H266 H 0.61294 0.78572 -0.18875
 N267 N 0.14830 1.16396 -0.07903
 N268 N 0.18236 1.19237 -0.13409
 C269 C 0.17597 1.17134 -0.21749
 C270 C 0.13821 1.12942 -0.21658
 C271 C 0.12192 1.12627 -0.12986
 H272 H 0.12619 1.10118 -0.27090
 H273 H 0.14576 1.16965 -0.01037
 H274 H 0.20670 1.22568 -0.11323
 N275 N 0.47861 0.31558 -0.23743
 N276 N 0.45375 0.28425 -0.29683
 C277 C 0.40567 0.29185 -0.28141
 C278 C 0.39959 0.32924 -0.20891
 C279 C 0.44675 0.34408 -0.18351
 H280 H 0.36573 0.34882 -0.18539
 H281 H 0.51649 0.32145 -0.23901
 H282 H 0.46947 0.26094 -0.34984
 N283 N -0.09229 0.79739 -0.16323
 N284 N -0.12644 0.77236 -0.21289
 C285 C -0.13634 0.80957 -0.28120
 C286 C -0.10651 0.85980 -0.27591
 C287 C -0.07941 0.85049 -0.19984
 H288 H -0.10856 0.90042 -0.31560
 H289 H -0.08050 0.78024 -0.10225
 H290 H -0.14421 0.73204 -0.19763
 N291 N 0.30971 0.56728 0.14310
 N292 N 0.28077 0.59648 0.19813
 C293 C 0.30229 0.64882 0.22052
 C294 C 0.34654 0.65365 0.17634
 C295 C 0.35010 0.60048 0.12963
 H296 H 0.37443 0.68774 0.18415
 H297 H 0.30395 0.52302 0.12205
 H298 H 0.24905 0.57829 0.22589
 N299 N -0.10622 1.19346 0.10788
 N300 N -0.12948 1.22066 0.17334
 C301 C -0.15575 1.17956 0.21850
 C302 C -0.14986 1.12376 0.17842
 C303 C -0.11780 1.13451 0.10840
 H304 H -0.16299 1.08067 0.20212
 H305 H -0.07994 1.21418 0.06788
 H306 H -0.12571 1.26623 0.18907
 N307 N 0.57516 0.31807 0.16742
 N308 N 0.60303 0.28358 0.21775
 C309 C 0.61916 0.31658 0.28661
 C310 C 0.59990 0.37424 0.28114
 C311 C 0.57276 0.37338 0.20386
 H312 H 0.60992 0.41312 0.32042
 H313 H 0.56106 0.30513 0.10587
 H314 H 0.61353 0.23967 0.20165
 N315 N 0.03063 0.86757 0.30469
 N316 N 0.05713 0.83665 0.36218
 C317 C 0.10196 0.82815 0.32751
 C318 C 0.10384 0.85384 0.24368
 C319 C 0.05799 0.87878 0.23213
 H320 H 0.13564 0.85944 0.20172
 H321 H -0.00455 0.88378 0.31740
 H322 H 0.04529 0.82406 0.42545
   
