data_POSCAR
  _audit_creation_date              2014-09-24
  _audit_creation_method            'ToBaCCo'
  _symmetry_space_group_name_H-M    'P1'
  _symmetry_Int_Tables_number       1
  _symmetry_cell_setting            triclinic
  loop_
  _symmetry_equiv_pos_as_xyz
 x,y,z
_cell_length_a 22.7929
_cell_length_b 22.9451
_cell_length_c 22.3329
_cell_angle_alpha 91.227500
_cell_angle_beta 88.877900
_cell_angle_gamma 90.075300
loop_
  _atom_site_label
  _atom_site_type_symbol
  _atom_site_fract_x
  _atom_site_fract_y
  _atom_site_fract_z
N1 N 0.13770 0.15372 0.15306
 N2 N -0.18372 0.82030 0.20328
 N3 N -0.18761 0.19201 -0.20033
 N4 N 0.18142 0.80621 -0.17768
 N5 N 0.20394 1.20132 0.82934
 N6 N 0.82408 0.79950 0.79170
 N7 N 0.20805 0.79473 1.18407
 N8 N 0.77637 1.20633 1.21449
 O9 O 0.56328 0.96389 0.87538
 O10 O 0.44795 0.92350 1.10316
 O11 O 0.59677 0.92009 1.05245
 O12 O 0.38446 0.96792 0.93547
 O13 O 0.55001 0.95920 1.12556
 O14 O 0.46064 0.93655 0.89007
 O15 O 0.42257 0.90592 1.01330
 O16 O 0.61275 0.92791 0.94699
 C17 C 0.60310 0.93158 0.89275
 C18 C 0.42477 0.88955 1.06554
 C19 C 0.58746 0.92418 1.10678
 C20 C 0.40673 0.93386 0.89742
 O21 O 0.43432 1.05363 0.90415
 O22 O 0.52087 1.06471 1.10370
 O23 O 0.61885 1.04331 0.95365
 O24 O 0.35171 0.98822 1.04610
 O25 O 0.41760 1.03630 1.09745
 O26 O 0.54243 1.07222 0.90179
 O27 O 0.41374 1.06316 0.99698
 O28 O 0.60697 1.03839 1.06693
 Co29 Co 0.49965 1.00490 0.90259
 Co30 Co 0.48614 0.99445 1.09598
 Co31 Co 0.59979 0.98339 1.00520
 Co32 Co 0.42082 0.98421 1.00585
 O33 O 0.50643 0.99021 0.99789
 C34 C 0.40970 1.08216 0.94609
 C35 C 0.57528 1.07205 1.09970
 C36 C 0.59516 1.07766 0.91715
 C37 C 0.36478 1.01946 1.09357
 O38 O 0.04378 0.43775 0.10433
 O39 O 0.01228 0.55859 -0.12476
 O40 O 0.02949 0.38677 -0.05522
 O41 O 0.07255 0.58149 0.05242
 O42 O 0.05995 0.46735 -0.09077
 O43 O 0.03010 0.54465 0.12872
 O44 O 0.06616 0.57745 -0.05215
 O45 O -0.00048 0.37430 0.04760
 C46 C 0.04169 0.38815 0.08068
 C47 C 0.05518 0.58508 -0.10555
 C48 C 0.06826 0.41457 -0.08287
 C49 C 0.06785 0.57807 0.10735
 O50 O -0.08098 0.53550 0.11703
 O51 O -0.03029 0.45983 -0.15420
 O52 O -0.10827 0.41923 0.02209
 O53 O -0.05099 0.60796 -0.04417
 O54 O -0.08755 0.52938 -0.08536
 O55 O -0.07199 0.42483 0.10897
 O56 O -0.04236 0.60978 0.06740
 O57 O -0.08100 0.42408 -0.08088
 Co58 Co -0.01902 0.48604 0.10438
 Co59 Co -0.01410 0.49597 -0.08417
 Co60 Co -0.03775 0.40885 -0.01472
 Co61 Co 0.00910 0.58637 0.00539
 O62 O -0.01301 0.49688 0.00676
 C63 C -0.07951 0.58902 0.10492
 C64 C -0.06572 0.41982 -0.13570
 C65 C -0.11262 0.40817 0.07579
 C66 C -0.09090 0.58320 -0.07419
 O67 O 1.14613 0.04835 0.43352
 O68 O 0.94536 0.10034 0.52526
 O69 O 0.96928 0.08706 0.42105
 O70 O 1.08165 0.04684 0.62149
 O71 O 0.88432 0.05197 0.44443
 O72 O 1.14088 0.07098 0.54578
 O73 O 0.97457 0.06668 0.61002
 O74 O 1.06901 0.09534 0.42018
 C75 C 1.12204 0.09155 0.41291
 C76 C 0.95095 0.10671 0.58075
 C77 C 0.91560 0.08453 0.40887
 C78 C 1.12451 0.07669 0.59993
 O79 O 1.13918 -0.03753 0.56462
 O80 O 0.93060 -0.04907 0.46923
 O81 O 1.08168 -0.02222 0.38162
 O82 O 0.95688 -0.04969 0.58516
 O83 O 0.89308 0.00914 0.55770
 O84 O 1.12688 -0.06029 0.45652
 O85 O 1.05697 -0.06871 0.59793
 O86 O 0.97538 -0.02783 0.38797
 Co87 Co 1.12757 0.00620 0.49993
 Co88 Co 0.94227 0.02556 0.49401
 Co89 Co 1.02461 0.03119 0.41047
 Co90 Co 1.01821 0.00012 0.59569
 O91 O 1.03106 0.01271 0.50317
 C92 C 1.11089 -0.07274 0.59474
 C93 C 0.94162 -0.06086 0.41596
 C94 C 1.11457 -0.06146 0.40246
 C95 C 0.90555 -0.03183 0.59043
 C96 C 1.12191 0.12711 0.20815
 C97 C 1.14898 0.14273 0.25836
 C98 C 1.14317 0.10565 0.31031
 C99 C 1.14953 0.12579 0.36606
 H100 H 1.17722 0.18076 0.25967
 H101 H 1.12762 0.06139 0.30292
 H102 H 1.09321 0.08939 0.20692
 H103 H 1.16152 0.17078 0.37503
 C104 C 0.83219 -0.13508 0.24621
 C105 C 0.86333 -0.14730 0.29461
 C106 C 0.88962 -0.10019 0.33073
 C107 C 0.91235 -0.10917 0.38451
 H108 H 0.87234 -0.19221 0.30537
 H109 H 0.89156 -0.05688 0.31213
 H110 H 0.82087 -0.09018 0.23751
 H111 H 0.90729 -0.15080 0.40601
 C112 C 0.86093 0.16894 0.76492
 C113 C 0.87101 0.18374 0.70810
 C114 C 0.91752 0.15349 0.67343
 C115 C 0.92128 0.15486 0.61363
 H116 H 0.84265 0.21463 0.68678
 H117 H 0.94452 0.12308 0.69721
 H118 H 0.88736 0.13524 0.78447
 H119 H 0.89407 0.18448 0.58921
 C120 C 1.14088 -0.18037 0.77636
 C121 C 1.16062 -0.16056 0.72426
 C122 C 1.12079 -0.13719 0.67996
 C123 C 1.14350 -0.11363 0.63073
 H124 H 1.20765 -0.15765 0.71638
 H125 H 1.07441 -0.13278 0.69087
 H126 H 1.09420 -0.18591 0.78470
 H127 H 1.19034 -0.11703 0.62167
 C128 C 0.18509 1.13015 1.11687
 C129 C 0.22738 1.09868 1.14100
 C130 C 0.27234 1.06967 1.10420
 C131 C 0.31911 1.04735 1.12995
 H132 H 0.22886 1.09316 1.18890
 H133 H 0.26768 1.06707 1.05595
 H134 H 0.18582 1.13735 1.06901
 H135 H 0.32609 1.05365 1.17753
 C136 C 0.21851 0.85201 0.84362
 C137 C 0.27610 0.84421 0.84747
 C138 C 0.31277 0.89135 0.87129
 C139 C 0.37114 0.88973 0.86658
 H140 H 0.29566 0.80296 0.83344
 H141 H 0.29130 0.92775 0.89445
 H142 H 0.19928 0.89430 0.85417
 H143 H 0.39294 0.85453 0.84188
 C144 C 0.77031 0.83096 1.16163
 C145 C 0.71921 0.85491 1.17863
 C146 C 0.67571 0.87009 1.13357
 C147 C 0.62480 0.89491 1.14991
 H148 H 0.71066 0.86546 1.22553
 H149 H 0.68757 0.86539 1.08644
 H150 H 0.77742 0.81849 1.11490
 H151 H 0.61374 0.90045 1.19713
 C152 C 0.77556 1.14961 0.82828
 C153 C 0.72231 1.16285 0.85050
 C154 C 0.68756 1.11850 0.88162
 C155 C 0.63004 1.12497 0.89143
 H156 H 0.70422 1.20602 0.84504
 H157 H 0.70897 1.07850 0.89426
 H158 H 0.79114 1.10506 0.83091
 H159 H 0.60764 1.16301 0.87524
 C160 C 0.09748 0.19351 0.12814
 C161 C 0.11638 0.24450 0.10819
 C162 C 0.07439 0.28782 0.08869
 C163 C 0.08521 0.34453 0.09625
 H164 H 0.16255 0.25561 0.11055
 H165 H 0.03250 0.27306 0.07176
 H166 H 0.05081 0.18443 0.13122
 H167 H 0.12550 0.35902 0.11689
 C168 C -0.18410 0.24962 -0.17364
 C169 C -0.15011 0.29139 -0.19633
 C170 C -0.13473 0.34228 -0.15936
 C171 C -0.09230 0.37814 -0.17735
 H172 H -0.12829 0.28560 -0.23939
 H173 H -0.15364 0.34690 -0.11455
 H174 H -0.20557 0.25766 -0.13046
 H175 H -0.07332 0.37374 -0.22210
 C176 C 0.17194 0.75666 -0.14075
 C177 C 0.14761 0.70828 -0.16285
 C178 C 0.12662 0.66235 -0.12333
 C179 C 0.08959 0.62260 -0.14469
 H180 H 0.13806 0.70510 -0.21019
 H181 H 0.13573 0.66493 -0.07585
 H182 H 0.18298 0.75958 -0.09374
 H183 H 0.07890 0.62204 -0.19182
 C184 C -0.14046 0.77745 0.18620
 C185 C -0.15588 0.72464 0.16624
 C186 C -0.11130 0.68449 0.14167
 C187 C -0.12282 0.62801 0.13365
 H188 H -0.20170 0.71190 0.16646
 H189 H -0.06844 0.70161 0.12933
 H190 H -0.09434 0.78879 0.18900
 H191 H -0.16425 0.61001 0.14920
 C192 C 1.16530 0.18936 0.78412
 C193 C 1.18134 0.16216 0.72957
 C194 C 1.14038 0.13361 0.69350
 C195 C 1.15669 0.11516 0.63570
 H196 H 1.22694 0.16277 0.71489
 H197 H 1.09646 0.12510 0.71071
 H198 H 1.11929 0.20053 0.79083
 H199 H 1.19755 0.13167 0.61683
 C200 C 0.84548 -0.17978 0.73452
 C201 C 0.83741 -0.12577 0.71427
 C202 C 0.87363 -0.10560 0.66275
 C203 C 0.86325 -0.05570 0.63479
 H204 H 0.80845 -0.09531 0.73772
 H205 H 0.91167 -0.13131 0.64905
 H206 H 0.87521 -0.20818 0.70899
 H207 H 0.82437 -0.03050 0.64650
 C208 C 1.16486 -0.18092 0.22079
 C209 C 1.17648 -0.15108 0.27472
 C210 C 1.13449 -0.11721 0.30647
 C211 C 1.14424 -0.10315 0.36660
 H212 H 1.21934 -0.15645 0.29408
 H213 H 1.09482 -0.10306 0.28514
 H214 H 1.11912 -0.18703 0.20947
 H215 H 1.17909 -0.12663 0.38817
 C216 C 0.77987 0.17289 0.26511
 C217 C 0.82981 0.17096 0.30079
 C218 C 0.83844 0.12902 0.34487
 C219 C 0.89487 0.12377 0.36731
 H220 H 0.86667 0.19869 0.29007
 H221 H 0.80372 0.09951 0.35836
 H222 H 0.74774 0.13884 0.27290
 H223 H 0.92847 0.15218 0.34877
 C224 C 0.18579 0.23967 -0.12619
 C225 C 0.16177 0.29394 -0.13968
 C226 C 0.13065 0.32805 -0.09740
 C227 C 0.11686 0.38617 -0.10888
 H228 H 0.16696 0.30958 -0.18497
 H229 H 0.11450 0.30828 -0.05659
 H230 H 0.19288 0.23004 -0.07960
 H231 H 0.14209 0.40896 -0.14279
 C232 C -0.18940 0.25555 0.20652
 C233 C -0.19385 0.29258 0.15721
 C234 C -0.15544 0.33953 0.14819
 C235 C -0.15720 0.37061 0.09494
 H236 H -0.22683 0.28443 0.12387
 H237 H -0.12114 0.34851 0.18007
 H238 H -0.15993 0.27031 0.24098
 H239 H -0.19064 0.35917 0.06279
 C240 C -0.13997 0.75591 -0.18187
 C241 C -0.16226 0.71245 -0.14932
 C242 C -0.12187 0.67327 -0.11886
 C243 C -0.13616 0.61939 -0.10155
 H244 H -0.20929 0.70663 -0.14473
 H245 H -0.07739 0.68880 -0.11227
 H246 H -0.09278 0.75846 -0.18895
 H247 H -0.17864 0.60091 -0.11179
 C248 C 0.19346 0.74854 0.14688
 C249 C 0.15317 0.70533 0.16430
 C250 C 0.13601 0.65999 0.12536
 C251 C 0.09929 0.61515 0.14564
 H252 H 0.13549 0.70646 0.20973
 H253 H 0.14917 0.66116 0.07848
 H254 H 0.21591 0.74174 0.10424
 H255 H 0.08970 0.61271 0.19330
 C256 C 0.25426 1.16852 0.83399
 C257 C 0.29430 1.17369 0.88081
 C258 C 0.34219 1.13564 0.88348
 C259 C 0.37183 1.12878 0.93697
 H260 H 0.28685 1.20468 0.91734
 H261 H 0.35184 1.10617 0.84597
 H262 H 0.26381 1.13451 0.80083
 H263 H 0.35693 1.15383 0.97613
 C264 C 0.26224 0.82176 1.18029
 C265 C 0.30848 0.80586 1.14029
 C266 C 0.35833 0.84148 1.13467
 C267 C 0.39317 0.84009 1.08222
 H268 H 0.30459 0.76914 1.10959
 H269 H 0.36398 0.87730 1.16656
 H270 H 0.26977 0.86079 1.20734
 H271 H 0.38161 0.80903 1.04708
 C272 C 0.74259 1.18569 1.16851
 C273 C 0.68719 1.16092 1.17726
 C274 C 0.65989 1.13010 1.13109
 C275 C 0.60074 1.11515 1.13563
 H276 H 0.66478 1.16648 1.22026
 H277 H 0.68534 1.11672 1.09161
 H278 H 0.75833 1.18984 1.12265
 H279 H 0.57361 1.13613 1.17023
 C280 C 0.78457 0.83130 0.83159
 C281 C 0.73161 0.84975 0.81563
 C282 C 0.69214 0.87757 0.86125
 C283 C 0.63967 0.89928 0.84780
 H284 H 0.71743 0.84355 0.76991
 H285 H 0.70726 0.88184 0.90689
 H286 H 0.79652 0.83576 0.87827
 H287 H 0.62511 0.89699 0.80189
   
