data_POSCAR
  _audit_creation_date              2014-09-24
  _audit_creation_method            'ToBaCCo'
  _symmetry_space_group_name_H-M    'P1'
  _symmetry_Int_Tables_number       1
  _symmetry_cell_setting            triclinic
  loop_
  _symmetry_equiv_pos_as_xyz
 x,y,z
_cell_length_a 38.6741
_cell_length_b 38.9972
_cell_length_c 37.9493
_cell_angle_alpha 90.824800
_cell_angle_beta 89.730700
_cell_angle_gamma 90.385600
loop_
  _atom_site_label
  _atom_site_type_symbol
  _atom_site_fract_x
  _atom_site_fract_y
  _atom_site_fract_z
C1 C 0.20569 0.16557 0.18073
 C2 C 0.19515 0.15590 0.21454
 C3 C 0.16630 0.17119 0.23139
 C4 C 0.14921 0.19775 0.21341
 C5 C 0.15938 0.20731 0.17929
 C6 C 0.18718 0.19051 0.16249
 C7 C 0.23452 0.15028 0.16488
 C8 C 0.24465 0.15837 0.13025
 C9 C 0.22460 0.18181 0.11124
 C10 C 0.19663 0.19878 0.12757
 C11 C 0.17860 0.22460 0.11007
 C12 C 0.15201 0.24267 0.12739
 C13 C 0.14232 0.23365 0.16179
 H14 H 0.20865 0.13487 0.22645
 H15 H 0.12834 0.21175 0.22593
 H16 H 0.24854 0.13107 0.17934
 H17 H 0.23211 0.18864 0.08467
 H18 H 0.18608 0.23161 0.08354
 H19 H 0.12137 0.24722 0.17485
 C20 C -0.24390 0.80507 0.25934
 C21 C -0.22492 0.82455 0.28400
 C22 C -0.19189 0.81408 0.29533
 C23 C -0.17887 0.78269 0.28168
 C24 C -0.19749 0.76307 0.25687
 C25 C -0.23024 0.77419 0.24588
 C26 C -0.27526 0.81742 0.24618
 C27 C -0.29335 0.79957 0.21919
 C28 C -0.28039 0.76732 0.20803
 C29 C -0.24878 0.75503 0.22049
 C30 C -0.23449 0.72489 0.20621
 C31 C -0.20092 0.71454 0.21537
 C32 C -0.18301 0.73340 0.24154
 H33 H -0.23527 0.84909 0.29230
 H34 H -0.15436 0.77284 0.29054
 H35 H -0.28365 0.84247 0.25518
 H36 H -0.29444 0.75165 0.18910
 H37 H -0.24905 0.71027 0.18677
 H38 H -0.15699 0.72616 0.24864
 C39 C -0.22441 0.19255 -0.22457
 C40 C -0.20610 0.17556 -0.25148
 C41 C -0.18092 0.19293 -0.27137
 C42 C -0.17380 0.22765 -0.26332
 C43 C -0.19173 0.24485 -0.23616
 C44 C -0.21782 0.22748 -0.21740
 C45 C -0.24844 0.17468 -0.20401
 C46 C -0.26676 0.19116 -0.17638
 C47 C -0.26171 0.22683 -0.17124
 C48 C -0.23673 0.24480 -0.19095
 C49 C -0.22912 0.27936 -0.18324
 C50 C -0.20075 0.29632 -0.19928
 C51 C -0.18287 0.27866 -0.22653
 H52 H -0.21085 0.14848 -0.25629
 H53 H -0.15434 0.24139 -0.27825
 H54 H -0.25319 0.14784 -0.21014
 H55 H -0.27491 0.24022 -0.14996
 H56 H -0.24496 0.29233 -0.16377
 H57 H -0.16088 0.29012 -0.23955
 C58 C 0.23422 0.82626 -0.21385
 C59 C 0.21595 0.84601 -0.23803
 C60 C 0.18262 0.83608 -0.24948
 C61 C 0.16742 0.80645 -0.23491
 C62 C 0.18489 0.78733 -0.20962
 C63 C 0.21881 0.79663 -0.19983
 C64 C 0.26747 0.83619 -0.20305
 C65 C 0.28651 0.81621 -0.17936
 C66 C 0.27101 0.78594 -0.16634
 C67 C 0.23699 0.77675 -0.17539
 C68 C 0.22031 0.74883 -0.15932
 C69 C 0.18556 0.74115 -0.16700
 C70 C 0.16846 0.75977 -0.19302
 H71 H 0.22866 0.86822 -0.24920
 H72 H 0.14121 0.79909 -0.24179
 H73 H 0.27784 0.86017 -0.21256
 H74 H 0.28501 0.76957 -0.14869
 H75 H 0.23363 0.73436 -0.13939
 H76 H 0.14191 0.75334 -0.19959
 C77 C 0.18102 1.22270 0.80926
 C78 C 0.16930 1.21134 0.77630
 C79 C 0.18395 1.18257 0.75900
 C80 C 0.21247 1.16669 0.77530
 C81 C 0.22506 1.17860 0.80805
 C82 C 0.20929 1.20681 0.82509
 C83 C 0.16385 1.24918 0.82700
 C84 C 0.17429 1.26047 0.86075
 C85 C 0.20422 1.24606 0.87553
 C86 C 0.22127 1.21872 0.85825
 C87 C 0.24901 1.20198 0.87425
 C88 C 0.26417 1.17315 0.85793
 C89 C 0.25232 1.16188 0.82471
 H90 H 0.14883 1.22570 0.76416
 H91 H 0.22397 1.14389 0.76385
 H92 H 0.14216 1.26120 0.81418
 H93 H 0.21277 1.25420 0.90150
 H94 H 0.25788 1.21044 0.90002
 H95 H 0.26421 1.13981 0.81201
 C96 C 0.81985 0.77045 0.74779
 C97 C 0.84179 0.79001 0.72637
 C98 C 0.83136 0.82210 0.71354
 C99 C 0.79867 0.83488 0.72399
 C100 C 0.77701 0.81617 0.74664
 C101 C 0.78722 0.78333 0.75750
 C102 C 0.83075 0.73873 0.76069
 C103 C 0.80939 0.71913 0.78330
 C104 C 0.77578 0.73155 0.79056
 C105 C 0.76517 0.76374 0.77890
 C106 C 0.73360 0.77741 0.79030
 C107 C 0.72489 0.81166 0.78330
 C108 C 0.74618 0.83042 0.76009
 H109 H 0.86645 0.77929 0.71845
 H110 H 0.79069 0.86018 0.71598
 H111 H 0.85695 0.73097 0.75479
 H112 H 0.75759 0.71664 0.80585
 H113 H 0.71675 0.76187 0.80653
 H114 H 0.73999 0.85670 0.75399
 C115 C 0.19147 0.76528 1.22428
 C116 C 0.17653 0.78104 1.25398
 C117 C 0.19352 0.80818 1.27170
 C118 C 0.22630 0.81885 1.25961
 C119 C 0.24198 0.80260 1.23045
 C120 C 0.22463 0.77543 1.21296
 C121 C 0.17303 0.74045 1.20495
 C122 C 0.18719 0.72514 1.17424
 C123 C 0.22158 0.73356 1.16486
 C124 C 0.23998 0.75910 1.18353
 C125 C 0.27266 0.76996 1.17187
 C126 C 0.28941 0.79845 1.18773
 C127 C 0.27394 0.81421 1.21747
 H128 H 0.15139 0.77235 1.26303
 H129 H 0.23925 0.84041 1.27229
 H130 H 0.14749 0.73306 1.21407
 H131 H 0.23313 0.72265 1.14123
 H132 H 0.28447 0.75676 1.14964
 H133 H 0.28589 0.83650 1.22976
 C134 C 0.82480 1.23465 1.23666
 C135 C 0.84372 1.21980 1.26381
 C136 C 0.83202 1.18956 1.28006
 C137 C 0.80115 1.17392 1.26804
 C138 C 0.78332 1.18718 1.23918
 C139 C 0.79476 1.21809 1.22398
 C140 C 0.83607 1.26530 1.22129
 C141 C 0.81730 1.28021 1.19378
 C142 C 0.78725 1.26336 1.18144
 C143 C 0.77669 1.23194 1.19541
 C144 C 0.74918 1.21349 1.18030
 C145 C 0.73920 1.18160 1.19374
 C146 C 0.75532 1.16921 1.22409
 H147 H 0.86704 1.23252 1.27313
 H148 H 0.79238 1.14999 1.27933
 H149 H 0.85994 1.27703 1.23035
 H150 H 0.77200 1.27437 1.16066
 H151 H 0.73619 1.22332 1.15732
 H152 H 0.74734 1.14470 1.23464
 O153 O 0.54965 0.97569 0.92874
 O154 O 0.47381 0.96804 1.07070
 O155 O 0.57234 0.94381 1.03675
 O156 O 0.48181 0.93484 0.96673
 O157 O 0.53766 0.96665 1.07661
 O158 O 0.48718 0.97144 0.92642
 O159 O 0.47270 0.93269 1.02815
 O160 O 0.56632 0.94161 0.96974
 C161 C 0.56263 0.94754 0.93784
 C162 C 0.46751 0.93846 1.05963
 C163 C 0.56013 0.94484 1.06739
 C164 C 0.48051 0.94119 0.93510
 O165 O 0.48279 1.03482 0.95967
 O166 O 0.54119 1.03228 1.06325
 O167 O 0.58621 1.00685 0.96867
 O168 O 0.44037 0.99563 1.02683
 O169 O 0.47728 1.03214 1.04870
 O170 O 0.54424 1.04004 0.95836
 O171 O 0.44588 0.99477 0.96402
 O172 O 0.58479 1.00968 1.03410
 Co173 Co 0.51581 1.00388 0.94823
 Co174 Co 0.50800 0.99869 1.05850
 Co175 Co 0.57129 0.97649 1.00193
 Co176 Co 0.46466 0.96633 0.99687
 O177 O 0.51539 0.98689 1.00199
 C178 C 0.45221 1.02561 0.95849
 C179 C 0.57277 1.03110 1.05615
 C180 C 0.57578 1.03569 0.95989
 C181 C 0.44700 1.02472 1.04039
 O182 O 0.02536 0.47263 0.04483
 O183 O 0.03320 0.54001 -0.04879
 O184 O -0.01136 0.44332 -0.04961
 O185 O -0.00074 0.58075 0.02540
 O186 O 0.02920 0.47926 -0.05445
 O187 O 0.03177 0.53883 0.04232
 O188 O -0.00103 0.58134 -0.03862
 O189 O -0.00791 0.43727 0.01443
 C190 C 0.01820 0.44300 0.03363
 C191 C 0.02865 0.57131 -0.04653
 C192 C 0.01999 0.44896 -0.05391
 C193 C 0.02736 0.57009 0.03785
 O194 O -0.03295 0.54377 0.06621
 O195 O -0.03620 0.48525 -0.08417
 O196 O -0.07163 0.45968 0.02130
 O197 O -0.06650 0.55547 -0.03820
 O198 O -0.03018 0.54670 -0.07965
 O199 O -0.03925 0.47973 0.06398
 O200 O -0.06710 0.56004 0.02535
 O201 O -0.07263 0.47390 -0.04284
 Co202 Co -0.00507 0.50927 0.04813
 Co203 Co -0.00260 0.51264 -0.06203
 Co204 Co -0.03905 0.45899 -0.01400
 Co205 Co -0.03255 0.56448 -0.00694
 O206 O -0.01979 0.51119 -0.00819
 C207 C -0.06090 0.55731 0.05718
 C208 C -0.06643 0.47670 -0.07478
 C209 C -0.06563 0.46330 0.05341
 C210 C -0.05979 0.55584 -0.07010
 O211 O 1.08652 0.04544 0.47117
 O212 O 0.94382 0.02560 0.53609
 O213 O 0.99131 0.03425 0.43335
 O214 O 1.04329 0.06740 0.54766
 O215 O 0.96651 0.05169 0.48046
 O216 O 1.09029 0.04152 0.53750
 O217 O 0.98480 0.05938 0.54318
 O218 O 1.05346 0.02234 0.42987
 C219 C 1.07631 0.04390 0.43982
 C220 C 0.95435 0.05248 0.55020
 C221 C 0.97232 0.05556 0.44869
 C222 C 1.07494 0.06654 0.55060
 O223 O 1.08303 -0.02431 0.53332
 O224 O 0.93343 -0.00483 0.47380
 O225 O 1.03922 -0.04262 0.45219
 O226 O 0.99001 -0.00747 0.56769
 O227 O 0.97023 -0.03205 0.51991
 O228 O 1.08788 -0.02069 0.46681
 O229 O 1.05211 0.00273 0.57349
 O230 O 0.97947 -0.03110 0.45558
 Co231 Co 1.08072 0.01077 0.50213
 Co232 Co 0.97070 0.00955 0.49907
 Co233 Co 1.01645 -0.00265 0.44772
 Co234 Co 1.01775 0.02913 0.55391
 O235 O 1.02354 0.01281 0.50199
 C236 C 1.07281 -0.02091 0.56456
 C237 C 0.94737 -0.02621 0.45147
 C238 C 1.07108 -0.04423 0.45224
 C239 C 0.97490 -0.03257 0.55252
 C240 C 1.12781 0.12821 0.32704
 C241 C 1.16306 0.12505 0.31782
 C242 C 1.17602 0.14105 0.28754
 C243 C 1.15413 0.15905 0.26456
 C244 C 1.11916 0.16270 0.27473
 C245 C 1.10630 0.14770 0.30536
 C246 C 1.11461 0.10919 0.35849
 C247 C 1.08013 0.11142 0.37041
 C248 C 1.06845 0.09099 0.39791
 C249 C 1.09052 0.06784 0.41396
 C250 C 1.12542 0.06694 0.40418
 C251 C 1.13765 0.08752 0.37656
 C252 C 1.18502 0.10484 0.33811
 C253 C 1.17249 0.08611 0.36653
 H254 H 1.21212 0.10251 0.33116
 H255 H 1.19028 0.06997 0.38063
 H256 H 1.20347 0.13925 0.28228
 H257 H 1.10064 0.17526 0.25813
 H258 H 1.04211 0.09330 0.40700
 H259 H 1.14269 0.04944 0.41723
 H260 H 1.07907 0.15059 0.31074
 H261 H 1.06174 0.12855 0.35883
 C262 C 0.86937 -0.12026 0.36172
 C263 C 0.83294 -0.11843 0.36292
 C264 C 0.81281 -0.14058 0.34166
 C265 C 0.82829 -0.16470 0.31836
 C266 C 0.86473 -0.16623 0.31780
 C267 C 0.88481 -0.14457 0.33900
 C268 C 0.88997 -0.09603 0.38453
 C269 C 0.92633 -0.09624 0.38533
 C270 C 0.94443 -0.07336 0.40694
 C271 C 0.92699 -0.04944 0.42836
 C272 C 0.89072 -0.04881 0.42782
 C273 C 0.87212 -0.07204 0.40620
 C274 C 0.81676 -0.09436 0.38521
 C275 C 0.83591 -0.07160 0.40626
 H276 H 0.78879 -0.09290 0.38623
 H277 H 0.82213 -0.05339 0.42287
 H278 H 0.78497 -0.13935 0.34428
 H279 H 0.87843 -0.18293 0.29963
 H280 H 0.97239 -0.07465 0.40695
 H281 H 0.87699 -0.03054 0.44441
 H282 H 0.91246 -0.14700 0.33656
 H283 H 0.94146 -0.11393 0.36969
 C284 C 0.87765 0.13753 0.64922
 C285 C 0.84224 0.12992 0.65455
 C286 C 0.82303 0.14873 0.67964
 C287 C 0.83889 0.17434 0.70063
 C288 C 0.87421 0.18123 0.69565
 C289 C 0.89329 0.16328 0.67027
 C290 C 0.89727 0.11698 0.62225
 C291 C 0.93191 0.12420 0.61352
 C292 C 0.94967 0.10353 0.58951
 C293 C 0.93358 0.07503 0.57348
 C294 C 0.89865 0.06821 0.58088
 C295 C 0.88030 0.08925 0.60488
 C296 C 0.82647 0.10306 0.63548
 C297 C 0.84523 0.08281 0.61162
 H298 H 0.79936 0.09709 0.63965
 H299 H 0.83202 0.06187 0.59813
 H300 H 0.79572 0.14319 0.68294
 H301 H 0.88750 0.20001 0.71202
 H302 H 0.97649 0.10967 0.58392
 H303 H 0.88589 0.04651 0.56822
 H304 H 0.92042 0.16948 0.66824
 H305 H 0.94585 0.14565 0.62487
 C306 C 1.13165 -0.10628 0.67193
 C307 C 1.15212 -0.08954 0.69779
 C308 C 1.16922 -0.10872 0.72333
 C309 C 1.16493 -0.14459 0.72499
 C310 C 1.14260 -0.16068 0.70049
 C311 C 1.12656 -0.14194 0.67417
 C312 C 1.11573 -0.08511 0.64373
 C313 C 1.09929 -0.09964 0.61389
 C314 C 1.08548 -0.07870 0.58798
 C315 C 1.08702 -0.04300 0.59175
 C316 C 1.10329 -0.02821 0.62116
 C317 C 1.11858 -0.04895 0.64656
 C318 C 1.15482 -0.05369 0.69850
 C319 C 1.13766 -0.03379 0.67398
 H320 H 1.17003 -0.04076 0.71867
 H321 H 1.14017 -0.00612 0.67593
 H322 H 1.18461 -0.09525 0.74298
 H323 H 1.13870 -0.18819 0.70034
 H324 H 1.07326 -0.09036 0.56509
 H325 H 1.10520 -0.00050 0.62349
 H326 H 1.11012 -0.15581 0.65593
 H327 H 1.09756 -0.12702 0.60972
 C328 C 0.33460 1.10999 1.08957
 C329 C 0.30528 1.11360 1.06785
 C330 C 0.27632 1.13193 1.08041
 C331 C 0.27485 1.14357 1.11575
 C332 C 0.30382 1.13861 1.13733
 C333 C 0.33335 1.12262 1.12438
 C334 C 0.36491 1.09049 1.07562
 C335 C 0.39686 1.09009 1.09313
 C336 C 0.42360 1.06949 1.08071
 C337 C 0.41903 1.04831 1.05092
 C338 C 0.38778 1.04963 1.03231
 C339 C 0.36119 1.07169 1.04373
 C340 C 0.30434 1.09698 1.03479
 C341 C 0.33118 1.07544 1.02356
 H342 H 0.28182 1.09930 1.01813
 H343 H 0.32858 1.06189 0.99856
 H344 H 0.25388 1.13441 1.06365
 H345 H 0.30409 1.14785 1.16439
 H346 H 0.44766 1.06932 1.09522
 H347 H 0.38424 1.03371 1.00900
 H348 H 0.35442 1.11925 1.14250
 H349 H 0.40175 1.10565 1.11635
 C350 C 0.38360 0.85612 0.86154
 C351 C 0.37169 0.86643 0.82827
 C352 C 0.34183 0.85116 0.81375
 C353 C 0.32129 0.82823 0.83351
 C354 C 0.33305 0.81903 0.86710
 C355 C 0.36394 0.83218 0.88060
 C356 C 0.41453 0.87387 0.87688
 C357 C 0.43044 0.86283 0.90786
 C358 C 0.45492 0.88348 0.92469
 C359 C 0.46398 0.91571 0.91121
 C360 C 0.45171 0.92479 0.87785
 C361 C 0.42729 0.90371 0.86036
 C362 C 0.38818 0.89365 0.81096
 C363 C 0.41456 0.91271 0.82726
 H364 H 0.37905 0.90178 0.78547
 H365 H 0.42487 0.93497 0.81394
 H366 H 0.33409 0.85844 0.78756
 H367 H 0.31783 0.80272 0.88404
 H368 H 0.46494 0.87519 0.94977
 H369 H 0.45929 0.94914 0.86664
 H370 H 0.37091 0.82485 0.90693
 H371 H 0.42344 0.83891 0.92005
 C372 C 0.62949 0.85349 1.16249
 C373 C 0.64759 0.82596 1.14647
 C374 C 0.67130 0.80695 1.16593
 C375 C 0.67843 0.81514 1.20155
 C376 C 0.65857 0.84127 1.21777
 C377 C 0.63455 0.86005 1.19866
 C378 C 0.60736 0.87552 1.13965
 C379 C 0.58946 0.90465 1.15242
 C380 C 0.57246 0.92641 1.12921
 C381 C 0.57300 0.91963 1.09284
 C382 C 0.58878 0.88956 1.08024
 C383 C 0.60600 0.86771 1.10315
 C384 C 0.64340 0.81853 1.11053
 C385 C 0.62308 0.83897 1.08933
 H386 H 0.65696 0.79719 1.09830
 H387 H 0.62161 0.83279 1.06144
 H388 H 0.68627 0.78781 1.15184
 H389 H 0.66123 0.84743 1.24550
 H390 H 0.56022 0.94936 1.13955
 H391 H 0.58881 0.88376 1.05220
 H392 H 0.62080 0.88010 1.21255
 H393 H 0.58917 0.91164 1.18002
 C394 C 0.66727 1.13166 0.88976
 C395 C 0.69799 1.11766 0.87547
 C396 C 0.71933 1.13744 0.85369
 C397 C 0.71144 1.17184 0.84621
 C398 C 0.68186 1.18620 0.86228
 C399 C 0.65994 1.16637 0.88339
 C400 C 0.64393 1.10865 0.91076
 C401 C 0.61094 1.11869 0.92289
 C402 C 0.58920 1.09536 0.93999
 C403 C 0.60003 1.06169 0.94595
 C404 C 0.63334 1.05192 0.93533
 C405 C 0.65491 1.07473 0.91714
 C406 C 0.70746 1.08397 0.88306
 C407 C 0.68664 1.06315 0.90388
 H408 H 0.73131 1.07344 0.87257
 H409 H 0.69502 1.03718 0.90873
 H410 H 0.74300 1.12611 0.84370
 H411 H 0.67444 1.21238 0.85727
 H412 H 0.56354 1.10346 0.94791
 H413 H 0.64182 1.02583 0.93942
 H414 H 0.63733 1.17866 0.89435
 H415 H 0.60100 1.14402 0.91839
 C416 C 0.09950 0.32740 0.08006
 C417 C 0.11641 0.33151 0.11289
 C418 C 0.13357 0.30376 0.12789
 C419 C 0.13500 0.27194 0.11035
 C420 C 0.11978 0.26823 0.07708
 C421 C 0.10206 0.29556 0.06210
 C422 C 0.07945 0.35713 0.06619
 C423 C 0.05880 0.35482 0.03571
 C424 C 0.03920 0.38277 0.02501
 C425 C 0.04023 0.41395 0.04392
 C426 C 0.06127 0.41672 0.07383
 C427 C 0.08019 0.38850 0.08547
 C428 C 0.11609 0.36323 0.13062
 C429 C 0.09882 0.39125 0.11694
 H430 H 0.12942 0.36646 0.15553
 H431 H 0.09931 0.41523 0.13174
 H432 H 0.14599 0.30688 0.15332
 H433 H 0.12092 0.24389 0.06303
 H434 H 0.02298 0.37988 0.00197
 H435 H 0.06185 0.44052 0.08897
 H436 H 0.09054 0.29122 0.03659
 H437 H 0.05674 0.33146 0.02028
 C438 C -0.15726 0.39042 -0.15438
 C439 C -0.14710 0.37920 -0.18834
 C440 C -0.16380 0.35080 -0.20432
 C441 C -0.18793 0.33063 -0.18538
 C442 C -0.19696 0.34193 -0.15109
 C443 C -0.18256 0.37157 -0.13623
 C444 C -0.13779 0.41939 -0.13732
 C445 C -0.14835 0.43451 -0.10528
 C446 C -0.12614 0.45639 -0.08685
 C447 C -0.09284 0.46366 -0.09982
 C448 C -0.08406 0.45264 -0.13413
 C449 C -0.10667 0.43076 -0.15315
 C450 C -0.11852 0.39466 -0.20487
 C451 C -0.09796 0.41897 -0.18711
 H452 H -0.11048 0.38610 -0.23092
 H453 H -0.07471 0.42830 -0.19993
 H454 H -0.15642 0.34388 -0.23095
 H455 H -0.21397 0.32731 -0.13434
 H456 H -0.13419 0.46570 -0.06107
 H457 H -0.05885 0.45893 -0.14493
 H458 H -0.18990 0.37799 -0.10947
 H459 H -0.17312 0.42872 -0.09346
 C460 C 0.12637 0.66730 -0.10781
 C461 C 0.11425 0.70115 -0.11225
 C462 C 0.13395 0.72485 -0.13133
 C463 C 0.16594 0.71571 -0.14606
 C464 C 0.17868 0.68266 -0.14061
 C465 C 0.15910 0.65862 -0.12185
 C466 C 0.10331 0.64220 -0.08907
 C467 C 0.11170 0.60732 -0.08507
 C468 C 0.08804 0.58449 -0.06990
 C469 C 0.05561 0.59589 -0.05808
 C470 C 0.04779 0.63086 -0.06030
 C471 C 0.07100 0.65385 -0.07607
 C472 C 0.08239 0.71115 -0.09797
 C473 C 0.06133 0.68808 -0.08008
 H474 H 0.07335 0.73719 -0.10106
 H475 H 0.03666 0.69700 -0.06999
 H476 H 0.12435 0.75066 -0.13478
 H477 H 0.20347 0.67520 -0.15155
 H478 H 0.09478 0.55764 -0.06837
 H479 H 0.02284 0.64002 -0.05119
 H480 H 0.16991 0.63341 -0.11887
 H481 H 0.13592 0.59696 -0.09436
 C482 C -0.14563 0.63758 0.15423
 C483 C -0.17121 0.65809 0.13851
 C484 C -0.18944 0.68234 0.15878
 C485 C -0.18335 0.68644 0.19508
 C486 C -0.15902 0.66501 0.21095
 C487 C -0.14035 0.64098 0.19087
 C488 C -0.12483 0.61395 0.13081
 C489 C -0.09682 0.59436 0.14294
 C490 C -0.07670 0.57485 0.11935
 C491 C -0.08424 0.57412 0.08321
 C492 C -0.11299 0.59233 0.07126
 C493 C -0.13280 0.61252 0.09444
 C494 C -0.17812 0.65487 0.10245
 C495 C -0.15959 0.63233 0.08098
 H496 H -0.19798 0.67031 0.09052
 H497 H -0.16569 0.63112 0.05314
 H498 H -0.20753 0.69896 0.14574
 H499 H -0.15417 0.66695 0.23898
 H500 H -0.05467 0.56105 0.12928
 H501 H -0.11918 0.59207 0.04341
 H502 H -0.12176 0.62551 0.20443
 H503 H -0.08943 0.59456 0.17031
 C504 C 1.13875 0.14330 0.66384
 C505 C 1.17353 0.13588 0.67189
 C506 C 1.18870 0.14941 0.70280
 C507 C 1.16939 0.16961 0.72696
 C508 C 1.13442 0.17590 0.71871
 C509 C 1.11954 0.16329 0.68781
 C510 C 1.12315 0.12773 0.63126
 C511 C 1.08914 0.13473 0.62038
 C512 C 1.07429 0.11643 0.59243
 C513 C 1.09303 0.09098 0.57437
 C514 C 1.12794 0.08605 0.58293
 C515 C 1.14308 0.10420 0.61120
 C516 C 1.19266 0.11413 0.64957
 C517 C 1.17758 0.09817 0.62021
 H518 H 1.21935 0.10839 0.65556
 H519 H 1.19307 0.08053 0.60458
 H520 H 1.21578 0.14443 0.70735
 H521 H 1.11732 0.18914 0.73684
 H522 H 1.04749 0.12115 0.58602
 H523 H 1.14284 0.06675 0.56883
 H524 H 1.09251 0.16856 0.68389
 H525 H 1.07324 0.15355 0.63362
 C526 C 0.89721 -0.12169 0.64454
 C527 C 0.86095 -0.12193 0.63975
 C528 C 0.83934 -0.13943 0.66341
 C529 C 0.85326 -0.15903 0.69075
 C530 C 0.88954 -0.16014 0.69407
 C531 C 0.91113 -0.14142 0.67170
 C532 C 0.91916 -0.10086 0.62002
 C533 C 0.95466 -0.09424 0.62579
 C534 C 0.97339 -0.07289 0.60318
 C535 C 0.95747 -0.05885 0.57370
 C536 C 0.92249 -0.06596 0.56724
 C537 C 0.90300 -0.08569 0.59077
 C538 C 0.84650 -0.10553 0.61077
 C539 C 0.86718 -0.08863 0.58628
 H540 H 0.81879 -0.10621 0.60665
 H541 H 0.85476 -0.07665 0.56411
 H542 H 0.81165 -0.13936 0.65908
 H543 H 0.90152 -0.17435 0.71499
 H544 H 1.00020 -0.06693 0.60895
 H545 H 0.90982 -0.05399 0.54517
 H546 H 0.93866 -0.14306 0.67580
 H547 H 0.96796 -0.10413 0.64838
 C548 C 1.14347 -0.13647 0.35708
 C549 C 1.12389 -0.15027 0.32878
 C550 C 1.14035 -0.16826 0.30128
 C551 C 1.17624 -0.17361 0.30164
 C552 C 1.19540 -0.16102 0.33042
 C553 C 1.17933 -0.14265 0.35774
 C554 C 1.12515 -0.11521 0.38455
 C555 C 1.14262 -0.09769 0.41200
 C556 C 1.12475 -0.07579 0.43502
 C557 C 1.08899 -0.07126 0.43167
 C558 C 1.07109 -0.08994 0.40560
 C559 C 1.08891 -0.11118 0.38167
 C560 C 1.08802 -0.14575 0.32780
 C561 C 1.07085 -0.12698 0.35391
 H562 H 1.07298 -0.15670 0.30634
 H563 H 1.04311 -0.12390 0.35172
 H564 H 1.12514 -0.17733 0.27908
 H565 H 1.22296 -0.16545 0.33193
 H566 H 1.13913 -0.06163 0.45494
 H567 H 1.04348 -0.08636 0.40254
 H568 H 1.19546 -0.13352 0.37904
 H569 H 1.17020 -0.09955 0.41541
 C570 C 0.89163 0.14162 0.35875
 C571 C 0.90764 0.15480 0.32822
 C572 C 0.88804 0.17273 0.30363
 C573 C 0.85177 0.17435 0.30672
 C574 C 0.83575 0.15897 0.33594
 C575 C 0.85545 0.14366 0.36209
 C576 C 0.91355 0.12322 0.38463
 C577 C 0.90185 0.11450 0.41854
 C578 C 0.92238 0.09469 0.44049
 C579 C 0.95444 0.08227 0.42862
 C580 C 0.96676 0.09213 0.39543
 C581 C 0.94739 0.11397 0.37428
 C582 C 0.94254 0.14787 0.32118
 C583 C 0.96154 0.12651 0.34292
 H584 H 0.95477 0.15745 0.29749
 H585 H 0.98784 0.12024 0.33540
 H586 H 0.90077 0.18276 0.28039
 H587 H 0.80793 0.15975 0.33924
 H588 H 0.91223 0.08740 0.46599
 H589 H 0.99088 0.08203 0.38546
 H590 H 0.84191 0.13237 0.38407
 H591 H 0.87690 0.12265 0.42831
 C592 C 0.11237 0.33758 -0.09097
 C593 C 0.09708 0.30979 -0.10957
 C594 C 0.11779 0.28425 -0.12459
 C595 C 0.15399 0.28491 -0.12084
 C596 C 0.16880 0.31064 -0.09923
 C597 C 0.14833 0.33697 -0.08491
 C598 C 0.08943 0.36645 -0.07913
 C599 C 0.10227 0.39770 -0.06513
 C600 C 0.07978 0.42465 -0.05685
 C601 C 0.04406 0.42074 -0.06176
 C602 C 0.03102 0.38954 -0.07483
 C603 C 0.05332 0.36285 -0.08431
 C604 C 0.06116 0.30764 -0.11346
 C605 C 0.03968 0.33330 -0.10042
 H606 H 0.04947 0.28589 -0.12706
 H607 H 0.01204 0.33059 -0.10432
 H608 H 0.10539 0.26329 -0.13889
 H609 H 0.19648 0.31186 -0.09521
 H610 H 0.09030 0.44857 -0.04660
 H611 H 0.00344 0.38649 -0.07899
 H612 H 0.16109 0.35680 -0.06958
 H613 H 0.12959 0.40210 -0.06134
 C614 C -0.14153 0.37003 0.14206
 C615 C -0.16290 0.34635 0.12363
 C616 C -0.17606 0.31743 0.14061
 C617 C -0.16988 0.31210 0.17656
 C618 C -0.15064 0.33697 0.19541
 C619 C -0.13638 0.36538 0.17838
 C620 C -0.12465 0.39830 0.12165
 C621 C -0.09889 0.42023 0.13588
 C622 C -0.08089 0.44322 0.11432
 C623 C -0.08869 0.44525 0.07836
 C624 C -0.11614 0.42544 0.06481
 C625 C -0.13317 0.40135 0.08563
 C626 C -0.17074 0.35130 0.08813
 C627 C -0.15679 0.37869 0.06974
 H628 H -0.18771 0.33354 0.07423
 H629 H -0.16328 0.38113 0.04214
 H630 H -0.19026 0.29856 0.12518
 H631 H -0.14638 0.33452 0.22341
 H632 H -0.05981 0.45819 0.12543
 H633 H -0.12258 0.42673 0.03707
 H634 H -0.12146 0.38337 0.19404
 H635 H -0.09106 0.41874 0.16306
 C636 C -0.14665 0.63649 -0.15973
 C637 C -0.13310 0.64546 -0.19301
 C638 C -0.14900 0.67110 -0.21283
 C639 C -0.17772 0.68953 -0.19949
 C640 C -0.19167 0.67913 -0.16683
 C641 C -0.17662 0.65309 -0.14751
 C642 C -0.12716 0.61144 -0.13790
 C643 C -0.13816 0.60159 -0.10405
 C644 C -0.11694 0.58191 -0.08287
 C645 C -0.08437 0.57121 -0.09493
 C646 C -0.07441 0.57838 -0.12968
 C647 C -0.09543 0.59858 -0.15112
 C648 C -0.10283 0.62988 -0.20566
 C649 C -0.08424 0.60717 -0.18504
 H650 H -0.09256 0.63640 -0.23134
 H651 H -0.06024 0.59691 -0.19545
 H652 H -0.13847 0.67660 -0.23861
 H653 H -0.21288 0.69247 -0.15426
 H654 H -0.12556 0.57615 -0.05639
 H655 H -0.04947 0.56982 -0.13943
 H656 H -0.18810 0.64753 -0.12228
 H657 H -0.16253 0.60963 -0.09292
 C658 C 0.12451 0.66057 0.10881
 C659 C 0.11002 0.68866 0.12744
 C660 C 0.13077 0.70925 0.14942
 C661 C 0.16658 0.70344 0.15247
 C662 C 0.18111 0.67648 0.13235
 C663 C 0.16041 0.65517 0.11117
 C664 C 0.10085 0.63786 0.08750
 C665 C 0.11173 0.60688 0.07151
 C666 C 0.08802 0.58539 0.05423
 C667 C 0.05317 0.59462 0.05179
 C668 C 0.04235 0.62600 0.06629
 C669 C 0.06560 0.64713 0.08490
 C670 C 0.07493 0.69643 0.12373
 C671 C 0.05334 0.67647 0.10241
 H672 H 0.06394 0.71834 0.13754
 H673 H 0.02635 0.68350 0.10054
 H674 H 0.11899 0.73098 0.16281
 H675 H 0.20839 0.67071 0.13397
 H676 H 0.09682 0.56114 0.04329
 H677 H 0.01527 0.63294 0.06507
 H678 H 0.17303 0.63469 0.09680
 H679 H 0.13808 0.59819 0.07315
 C680 C 0.34417 1.11499 0.90797
 C681 C 0.31417 1.09854 0.89446
 C682 C 0.28822 1.11782 0.87857
 C683 C 0.29128 1.15353 0.87612
 C684 C 0.32026 1.17005 0.89071
 C685 C 0.34650 1.15107 0.90635
 C686 C 0.37224 1.09307 0.92278
 C687 C 0.40411 1.10644 0.93488
 C688 C 0.43001 1.08463 0.94679
 C689 C 0.42464 1.04906 0.94725
 C690 C 0.39280 1.03559 0.93594
 C691 C 0.36685 1.05713 0.92350
 C692 C 0.31030 1.06292 0.89654
 C693 C 0.33595 1.04270 0.91099
 H694 H 0.28715 1.05042 0.88655
 H695 H 0.33182 1.01519 0.91171
 H696 H 0.26546 1.10500 0.86802
 H697 H 0.32298 1.19766 0.88926
 H698 H 0.45435 1.09560 0.95553
 H699 H 0.38846 1.00808 0.93607
 H700 H 0.36842 1.16507 0.91675
 H701 H 0.40977 1.13355 0.93481
 C702 C 0.37679 0.84935 1.13898
 C703 C 0.35386 0.82895 1.11855
 C704 C 0.32606 0.81198 1.13466
 C705 C 0.32117 0.81364 1.17140
 C706 C 0.34572 0.83168 1.19184
 C707 C 0.37298 0.84951 1.17591
 C708 C 0.40348 0.87046 1.12014
 C709 C 0.42398 0.89569 1.13722
 C710 C 0.44593 0.91706 1.11780
 C711 C 0.44853 0.91319 1.08111
 C712 C 0.42957 0.88702 1.06418
 C713 C 0.40638 0.86654 1.08310
 C714 C 0.35836 0.82600 1.08202
 C715 C 0.38458 0.84379 1.06478
 H716 H 0.34119 0.80983 1.06644
 H717 H 0.38680 0.84086 1.03641
 H718 H 0.30750 0.79863 1.11809
 H719 H 0.34372 0.83246 1.22029
 H720 H 0.46025 0.93718 1.13137
 H721 H 0.43101 0.88412 1.03574
 H722 H 0.39069 0.86335 1.19287
 H723 H 0.42229 0.90029 1.16527
 C724 C 0.66553 1.11901 1.13701
 C725 C 0.69628 1.13029 1.12038
 C726 C 0.71974 1.15134 1.13894
 C727 C 0.71372 1.16022 1.17440
 C728 C 0.68402 1.14793 1.19130
 C729 C 0.66002 1.12776 1.17283
 C730 C 0.64069 1.09741 1.11599
 C731 C 0.60795 1.08790 1.12898
 C732 C 0.58599 1.06712 1.10890
 C733 C 0.59605 1.05492 1.07545
 C734 C 0.62829 1.06486 1.06176
 C735 C 0.65033 1.08659 1.08152
 C736 C 0.70379 1.11985 1.08569
 C737 C 0.68166 1.09791 1.06694
 H738 H 0.72751 1.12824 1.07305
 H739 H 0.68896 1.09005 1.04043
 H740 H 0.74321 1.16018 1.12610
 H741 H 0.67925 1.15424 1.21878
 H742 H 0.56120 1.05992 1.12007
 H743 H 0.63598 1.05605 1.03566
 H744 H 0.63766 1.11889 1.18722
 H745 H 0.59868 1.09637 1.15447
 C746 C 0.64520 0.86182 0.84573
 C747 C 0.65245 0.87329 0.81127
 C748 C 0.67713 0.85602 0.79013
 C749 C 0.69612 0.82842 0.80360
 C750 C 0.68930 0.81817 0.83835
 C751 C 0.66411 0.83420 0.85887
 C752 C 0.61963 0.88121 0.86792
 C753 C 0.60921 0.87023 0.90151
 C754 C 0.58892 0.89112 0.92311
 C755 C 0.57810 0.92340 0.91181
 C756 C 0.58553 0.93321 0.87705
 C757 C 0.60616 0.91221 0.85499
 C758 C 0.63619 0.90280 0.79888
 C759 C 0.61415 0.92225 0.82053
 H760 H 0.64167 0.91180 0.77254
 H761 H 0.60343 0.94565 0.81022
 H762 H 0.68201 0.86465 0.76356
 H763 H 0.70434 0.79835 0.85059
 H764 H 0.58271 0.88241 0.94939
 H765 H 0.57675 0.95781 0.86776
 H766 H 0.66095 0.82540 0.88550
 H767 H 0.61697 0.84589 0.91192
   
