data_POSCAR
  _audit_creation_date              2014-09-24
  _audit_creation_method            'ToBaCCo'
  _symmetry_space_group_name_H-M    'P1'
  _symmetry_Int_Tables_number       1
  _symmetry_cell_setting            triclinic
  loop_
  _symmetry_equiv_pos_as_xyz
 x,y,z
_cell_length_a 52.6898
_cell_length_b 52.3692
_cell_length_c 51.4426
_cell_angle_alpha 90.158700
_cell_angle_beta 88.409300
_cell_angle_gamma 89.425400
loop_
  _atom_site_label
  _atom_site_type_symbol
  _atom_site_fract_x
  _atom_site_fract_y
  _atom_site_fract_z
N1 N 0.58708 0.66561 0.61866
 N2 N 0.57695 0.65533 0.63973
 C3 C 0.55660 0.66941 0.64759
 C4 C 0.55378 0.68960 0.63049
 C5 C 0.57352 0.68648 0.61236
 H6 H 0.54473 0.66525 0.66448
 H7 H 0.57806 0.69876 0.59607
 Cu8 Cu 0.59152 0.62475 0.65506
 Cu9 Cu 0.61762 0.65183 0.60149
 Cu10 Cu 0.64586 0.59932 0.63007
 N11 N 0.60767 0.59515 0.67073
 N12 N 0.62909 0.58563 0.66111
 C13 C 0.63605 0.56542 0.67543
 C14 C 0.61795 0.56183 0.69522
 C15 C 0.60022 0.58125 0.69152
 H16 H 0.65288 0.55403 0.67129
 H17 H 0.58312 0.58507 0.70298
 N18 N 0.65986 0.61574 0.59847
 N19 N 0.64868 0.63524 0.58713
 C20 C 0.66219 0.64142 0.56548
 C21 C 0.68297 0.62514 0.56316
 C22 C 0.68089 0.60914 0.58445
 H23 H 0.65746 0.65683 0.55249
 H24 H 0.69352 0.59350 0.58906
 H25 H 0.61359 0.61453 0.61395
 H26 H 0.63220 0.63628 0.63488
 N27 N 0.90430 0.33112 0.11861
 N28 N 0.91529 0.34285 0.13779
 C29 C 0.93745 0.33104 0.14259
 C30 C 0.94047 0.31040 0.12567
 C31 C 0.91883 0.31111 0.11080
 H32 H 0.95001 0.33684 0.15773
 H33 H 0.91399 0.29842 0.09513
 Cu34 Cu 0.89894 0.37157 0.15565
 Cu35 Cu 0.87207 0.34294 0.10524
 Cu36 Cu 0.85530 0.40503 0.12310
 N37 N 0.88807 0.40539 0.16681
 N38 N 0.87176 0.41883 0.15350
 C39 C 0.86779 0.44152 0.16537
 C40 C 0.88230 0.44226 0.18742
 C41 C 0.89493 0.41895 0.18768
 H42 H 0.85469 0.45604 0.15892
 H43 H 0.90824 0.41237 0.20187
 N44 N 0.84060 0.38712 0.09335
 N45 N 0.84642 0.36327 0.08714
 C46 C 0.83275 0.35621 0.06666
 C47 C 0.81741 0.37656 0.05960
 C48 C 0.82296 0.39581 0.07704
 H49 H 0.83414 0.33765 0.05748
 H50 H 0.81452 0.41468 0.07808
 H51 H 0.88402 0.37935 0.11216
 H52 H 0.85793 0.36786 0.13423
 N53 N 0.40529 0.17501 -0.12066
 N54 N 0.41779 0.16253 -0.13924
 C55 C 0.43875 0.17570 -0.14609
 C56 C 0.43935 0.19768 -0.13109
 C57 C 0.41776 0.19659 -0.11518
 H58 H 0.45241 0.16992 -0.16109
 H59 H 0.41178 0.21025 -0.10041
 Cu60 Cu 0.40507 0.13059 -0.15300
 Cu61 Cu 0.37418 0.16210 -0.10439
 Cu62 Cu 0.35154 0.10490 -0.12811
 N63 N 0.39191 0.09868 -0.16639
 N64 N 0.37090 0.08886 -0.15661
 C65 C 0.36561 0.06736 -0.16966
 C66 C 0.38430 0.06337 -0.18876
 C67 C 0.40072 0.08368 -0.18604
 H68 H 0.34927 0.05558 -0.16553
 H69 H 0.41751 0.08756 -0.19785
 N70 N 0.33460 0.12399 -0.09938
 N71 N 0.34309 0.14584 -0.09045
 C72 C 0.32756 0.15396 -0.07081
 C73 C 0.30835 0.13635 -0.06714
 C74 C 0.31348 0.11762 -0.08567
 H75 H 0.33031 0.17120 -0.05971
 H76 H 0.30261 0.10061 -0.08900
 H77 H 0.38159 0.12399 -0.11211
 H78 H 0.36261 0.14183 -0.13637
 N79 N 0.09247 0.83086 0.38535
 N80 N 0.08060 0.84322 0.36705
 C81 C 0.05921 0.83069 0.36153
 C82 C 0.05760 0.80906 0.37708
 C83 C 0.07925 0.80988 0.39188
 H84 H 0.04598 0.83684 0.34711
 H85 H 0.08474 0.79670 0.40688
 Cu86 Cu 0.09429 0.87444 0.35213
 Cu87 Cu 0.12328 0.84377 0.40055
 Cu88 Cu 0.14639 0.90108 0.37648
 N89 N 0.10784 0.90622 0.33839
 N90 N 0.12781 0.91689 0.34845
 C91 C 0.13303 0.93863 0.33556
 C92 C 0.11552 0.94166 0.31622
 C93 C 0.09982 0.92071 0.31859
 H94 H 0.14883 0.95095 0.33949
 H95 H 0.08372 0.91645 0.30682
 N96 N 0.16260 0.88206 0.40467
 N97 N 0.15407 0.86004 0.41351
 C98 C 0.16926 0.85178 0.43243
 C99 C 0.18830 0.86945 0.43574
 C100 C 0.18342 0.88838 0.41775
 H101 H 0.16640 0.83439 0.44332
 H102 H 0.19434 0.90545 0.41428
 H103 H 0.11580 0.88177 0.39277
 H104 H 0.13616 0.86399 0.36841
 C105 C 0.09909 0.13673 0.12036
 N106 N 0.09827 0.11755 0.13807
 C107 C 0.11654 0.09906 0.13791
 N108 N 0.13568 0.09982 0.11970
 C109 C 0.13684 0.11893 0.10189
 N110 N 0.11848 0.13737 0.10239
 C111 C 0.39035 0.86111 0.61940
 N112 N 0.39016 0.87913 0.63849
 C113 C 0.37221 0.89796 0.63931
 N114 N 0.35434 0.89861 0.62078
 C115 C 0.35425 0.88079 0.60156
 N116 N 0.37233 0.86210 0.60102
 C117 C 0.90075 0.63679 0.38441
 N118 N 0.90041 0.61800 0.36617
 C119 C 0.88150 0.60055 0.36635
 N120 N 0.86285 0.60199 0.38510
 C121 C 0.86297 0.62065 0.40351
 N122 N 0.88197 0.63800 0.40302
 C123 C 0.61646 0.35091 -0.12699
 N124 N 0.61607 0.37087 -0.14381
 C125 C 0.63431 0.38903 -0.14337
 N126 N 0.65297 0.38713 -0.12574
 C127 C 0.65356 0.36738 -0.10869
 N128 N 0.63527 0.34931 -0.10951
 C129 C -0.01719 0.29615 0.13867
 C130 C 0.00281 0.27842 0.13728
 C131 C 0.00108 0.25639 0.12197
 C132 C -0.02067 0.25277 0.10729
 C133 C -0.04050 0.27070 0.10824
 C134 C -0.03925 0.29259 0.12419
 C135 C 0.02237 0.23778 0.12128
 C136 C 0.01867 0.21256 0.11962
 C137 C 0.03973 0.19372 0.11999
 C138 C 0.03553 0.16991 0.13165
 C139 C 0.05495 0.15157 0.13213
 C140 C 0.07879 0.15645 0.12036
 C141 C 0.08287 0.18017 0.10830
 C142 C 0.06358 0.19870 0.10824
 H143 H -0.01501 0.31274 0.15091
 H144 H 0.01954 0.28172 0.14855
 H145 H -0.02225 0.23623 0.09479
 H146 H -0.05689 0.26698 0.09670
 H147 H 0.04134 0.24492 0.12403
 H148 H -0.00053 0.20533 0.11970
 H149 H 0.01724 0.16559 0.14062
 H150 H 0.05114 0.13340 0.14137
 H151 H 0.10102 0.18445 0.09901
 H152 H 0.06718 0.21669 0.09857
 C153 C 0.51928 0.71447 0.65425
 C154 C 0.50113 0.73413 0.65531
 C155 C 0.49735 0.74987 0.63371
 C156 C 0.51251 0.74586 0.61109
 C157 C 0.53071 0.72626 0.61005
 C158 C 0.53430 0.71028 0.63159
 C159 C 0.47810 0.77068 0.63576
 C160 C 0.46656 0.78057 0.61509
 C161 C 0.44710 0.80119 0.61702
 C162 C 0.42961 0.80360 0.59709
 C163 C 0.41115 0.82294 0.59791
 C164 C 0.40994 0.84056 0.61860
 C165 C 0.42769 0.83836 0.63841
 C166 C 0.44610 0.81893 0.63763
 H167 H 0.52168 0.70280 0.67134
 H168 H 0.48990 0.73699 0.67307
 H169 H 0.51077 0.75807 0.59430
 H170 H 0.54189 0.72366 0.59227
 H171 H 0.47241 0.77705 0.65511
 H172 H 0.47044 0.77243 0.59601
 H173 H 0.43012 0.79034 0.58087
 H174 H 0.39789 0.82411 0.58224
 H175 H 0.42745 0.85171 0.65454
 H176 H 0.45976 0.81822 0.65293
 C177 C 1.01562 0.79442 0.36422
 C178 C 0.99619 0.77647 0.36552
 C179 C 0.99897 0.75405 0.37997
 C180 C 1.02134 0.75011 0.39367
 C181 C 1.04061 0.76825 0.39282
 C182 C 1.03816 0.79071 0.37797
 C183 C 0.97793 0.73558 0.38112
 C184 C 0.98185 0.71032 0.38253
 C185 C 0.96078 0.69188 0.38308
 C186 C 0.96428 0.66807 0.37090
 C187 C 0.94469 0.65027 0.37108
 C188 C 0.92142 0.65572 0.38404
 C189 C 0.91812 0.67938 0.39671
 C190 C 0.93755 0.69736 0.39611
 H191 H 1.01253 0.81138 0.35276
 H192 H 0.97899 0.78000 0.35499
 H193 H 1.02377 0.73323 0.40549
 H194 H 1.05747 0.76433 0.40369
 H195 H 0.95879 0.74296 0.37918
 H196 H 1.00107 0.70276 0.38165
 H197 H 0.98212 0.66338 0.36095
 H198 H 0.94789 0.63211 0.36134
 H199 H 0.90043 0.68409 0.40691
 H200 H 0.93453 0.71533 0.40622
 C201 C 0.45310 0.24248 -0.12225
 C202 C 0.47152 0.26151 -0.12279
 C203 C 0.49621 0.25620 -0.13234
 C204 C 0.50196 0.23163 -0.14209
 C205 C 0.48345 0.21268 -0.14183
 C206 C 0.45887 0.21785 -0.13174
 C207 C 0.51525 0.27681 -0.13248
 C208 C 0.54015 0.27229 -0.13001
 C209 C 0.55918 0.29288 -0.12932
 C210 C 0.58138 0.28892 -0.11541
 C211 C 0.59985 0.30783 -0.11445
 C212 C 0.59671 0.33099 -0.12780
 C213 C 0.57463 0.33480 -0.14209
 C214 C 0.55602 0.31597 -0.14281
 H215 H 0.43426 0.24720 -0.11468
 H216 H 0.46656 0.28036 -0.11544
 H217 H 0.52061 0.22709 -0.15027
 H218 H 0.48851 0.19392 -0.14928
 H219 H 0.50828 0.29632 -0.13299
 H220 H 0.54679 0.25294 -0.12678
 H221 H 0.58435 0.27119 -0.10507
 H222 H 0.61672 0.30418 -0.10342
 H223 H 0.57167 0.35236 -0.15270
 H224 H 0.53946 0.31937 -0.15433
 C225 C 0.12461 -0.01359 0.30193
 C226 C 0.12362 0.00588 0.28344
 C227 C 0.11291 0.00149 0.25920
 C228 C 0.10247 -0.02254 0.25403
 C229 C 0.10310 -0.04188 0.27266
 C230 C 0.11436 -0.03767 0.29672
 C231 C 0.11234 0.02243 0.23999
 C232 C 0.11438 0.01826 0.21429
 C233 C 0.11467 0.03922 0.19508
 C234 C 0.12903 0.03624 0.17190
 C235 C 0.12979 0.05572 0.15339
 C236 C 0.11568 0.07838 0.15746
 C237 C 0.10083 0.08112 0.18044
 C238 C 0.10040 0.06179 0.19913
 H239 H 0.13313 -0.00969 0.32041
 H240 H 0.13154 0.02433 0.28795
 H241 H 0.09350 -0.02631 0.23576
 H242 H 0.09508 -0.06024 0.26806
 H243 H 0.11187 0.04185 0.24732
 H244 H 0.11759 -0.00099 0.20709
 H245 H 0.13998 0.01891 0.16826
 H246 H 0.14125 0.05294 0.13579
 H247 H 0.08969 0.09830 0.18412
 H248 H 0.08860 0.06437 0.21652
 C249 C 0.59695 0.54059 -0.26756
 C250 C 0.59638 0.52122 -0.24890
 C251 C 0.61642 0.50355 -0.24742
 C252 C 0.63692 0.50529 -0.26537
 C253 C 0.63747 0.52452 -0.28414
 C254 C 0.61749 0.54256 -0.28561
 C255 C 0.61490 0.48299 -0.22770
 C256 C 0.63549 0.47172 -0.21789
 C257 C 0.63418 0.45094 -0.19842
 C258 C 0.65476 0.44720 -0.18209
 C259 C 0.65467 0.42733 -0.16401
 C260 C 0.63408 0.41049 -0.16211
 C261 C 0.61352 0.41414 -0.17860
 C262 C 0.61355 0.43413 -0.19657
 H263 H 0.58102 0.55374 -0.26779
 H264 H 0.58024 0.52013 -0.23545
 H265 H 0.65236 0.49152 -0.26538
 H266 H 0.65367 0.52495 -0.29747
 H267 H 0.59620 0.47790 -0.22028
 H268 H 0.65416 0.47865 -0.22341
 H269 H 0.67099 0.45973 -0.18330
 H270 H 0.67089 0.42503 -0.15174
 H271 H 0.59741 0.40145 -0.17776
 H272 H 0.59768 0.43593 -0.20936
 C273 C 0.40819 1.03812 0.77669
 C274 C 0.40939 1.01870 0.75796
 C275 C 0.38821 1.00342 0.75354
 C276 C 0.36599 1.00742 0.76885
 C277 C 0.36481 1.02676 0.78762
 C278 C 0.38582 1.04249 0.79165
 C279 C 0.39008 0.98325 0.73326
 C280 C 0.36986 0.97478 0.72063
 C281 C 0.37137 0.95510 0.69986
 C282 C 0.35197 0.95429 0.68176
 C283 C 0.35232 0.93587 0.66207
 C284 C 0.37200 0.91757 0.66018
 C285 C 0.39132 0.91817 0.67851
 C286 C 0.39101 0.93670 0.69816
 H287 H 0.42487 1.04957 0.77946
 H288 H 0.42684 1.01580 0.74665
 H289 H 0.34954 0.99548 0.76667
 H290 H 0.34727 1.02943 0.79875
 H291 H 0.40888 0.97638 0.72762
 H292 H 0.35145 0.98355 0.72456
 H293 H 0.33650 0.96809 0.68277
 H294 H 0.33706 0.93595 0.64841
 H295 H 0.40667 0.90426 0.67775
 H296 H 0.40589 0.93619 0.71222
 C297 C 0.87653 0.48816 0.20045
 C298 C 0.87739 0.50769 0.21898
 C299 C 0.88455 0.50241 0.24448
 C300 C 0.89159 0.47730 0.25095
 C301 C 0.89103 0.45783 0.23236
 C302 C 0.88333 0.46301 0.20696
 C303 C 0.88521 0.52352 0.26363
 C304 C 0.88056 0.52005 0.28912
 C305 C 0.88084 0.54113 0.30833
 C306 C 0.86531 0.53954 0.33084
 C307 C 0.86532 0.55894 0.34956
 C308 C 0.88127 0.58013 0.34637
 C309 C 0.89712 0.58151 0.32399
 C310 C 0.89688 0.56226 0.30513
 H311 H 0.87081 0.49283 0.18097
 H312 H 0.87216 0.52695 0.21346
 H313 H 0.89790 0.47270 0.27024
 H314 H 0.89636 0.43866 0.23801
 H315 H 0.88818 0.54264 0.25624
 H316 H 0.87497 0.50139 0.29611
 H317 H 0.85298 0.52333 0.33385
 H318 H 0.85301 0.55718 0.36665
 H319 H 0.90971 0.59752 0.32098
 H320 H 0.90962 0.56373 0.28835
 C321 C 0.28167 0.15945 -0.03310
 C322 C 0.26190 0.15998 -0.01440
 C323 C 0.24742 0.13813 -0.00932
 C324 C 0.25269 0.11584 -0.02390
 C325 C 0.27240 0.11531 -0.04262
 C326 C 0.28724 0.13706 -0.04739
 C327 C 0.22662 0.13948 0.01067
 C328 C 0.21802 0.11893 0.02357
 C329 C 0.19736 0.11995 0.04373
 C330 C 0.19564 0.10005 0.06188
 C331 C 0.17616 0.09983 0.08085
 C332 C 0.15775 0.11945 0.08199
 C333 C 0.15935 0.13932 0.06370
 C334 C 0.17888 0.13956 0.04473
 H335 H 0.29241 0.17668 -0.03642
 H336 H 0.25804 0.17750 -0.00368
 H337 H 0.24143 0.09884 -0.02123
 H338 H 0.27601 0.09772 -0.05321
 H339 H 0.21920 0.15824 0.01575
 H340 H 0.22721 0.10060 0.02021
 H341 H 0.20948 0.08461 0.06141
 H342 H 0.17550 0.08416 0.09453
 H343 H 0.14538 0.15463 0.06387
 H344 H 0.17904 0.15482 0.03062
 C345 C 0.69802 0.63463 0.51760
 C346 C 0.71675 0.63383 0.49782
 C347 C 0.74090 0.62362 0.50250
 C348 C 0.74583 0.61365 0.52723
 C349 C 0.72699 0.61412 0.54690
 C350 C 0.70292 0.62470 0.54233
 C351 C 0.76018 0.62276 0.48104
 C352 C 0.78513 0.62456 0.48501
 C353 C 0.80445 0.62378 0.46359
 C354 C 0.82713 0.63718 0.46635
 C355 C 0.84598 0.63648 0.44669
 C356 C 0.84274 0.62187 0.42407
 C357 C 0.82014 0.60817 0.42147
 C358 C 0.80114 0.60917 0.44098
 H359 H 0.67957 0.64262 0.51337
 H360 H 0.71243 0.64138 0.47884
 H361 H 0.76404 0.60502 0.53128
 H362 H 0.73137 0.60635 0.56575
 H363 H 0.75346 0.62197 0.46134
 H364 H 0.79165 0.62805 0.50448
 H365 H 0.83020 0.64837 0.48370
 H366 H 0.86324 0.64709 0.44940
 H367 H 0.81709 0.59666 0.40434
 H368 H 0.78416 0.59805 0.43856
 C369 C 0.78686 0.40054 0.03171
 C370 C 0.76931 0.40134 0.01185
 C371 C 0.76322 0.37912 -0.00183
 C372 C 0.77560 0.35608 0.00437
 C373 C 0.79316 0.35527 0.02424
 C374 C 0.79894 0.37746 0.03828
 C375 C 0.74443 0.38097 -0.02272
 C376 C 0.73115 0.36101 -0.03122
 C377 C 0.71172 0.36310 -0.05146
 C378 C 0.69284 0.34445 -0.05243
 C379 C 0.67403 0.34575 -0.07102
 C380 C 0.67379 0.36570 -0.08926
 C381 C 0.69302 0.38411 -0.08864
 C382 C 0.71183 0.38279 -0.07004
 H383 H 0.79093 0.41811 0.04177
 H384 H 0.76029 0.41940 0.00729
 H385 H 0.77213 0.33868 -0.00626
 H386 H 0.80209 0.33716 0.02854
 H387 H 0.74046 0.39984 -0.03019
 H388 H 0.73337 0.34260 -0.02203
 H389 H 0.69245 0.32894 -0.03854
 H390 H 0.65962 0.33116 -0.07099
 H391 H 0.69361 0.39957 -0.10256
 H392 H 0.72655 0.39703 -0.07059
 C393 C 0.21474 0.84571 0.46780
 C394 C 0.23418 0.84486 0.48573
 C395 C 0.24826 0.86674 0.49112
 C396 C 0.24293 0.88943 0.47765
 C397 C 0.22353 0.89027 0.45967
 C398 C 0.20910 0.86847 0.45462
 C399 C 0.26868 0.86496 0.51033
 C400 C 0.27696 0.88513 0.52368
 C401 C 0.29691 0.88334 0.54340
 C402 C 0.29773 0.90223 0.56273
 C403 C 0.31626 0.90139 0.58162
 C404 C 0.33461 0.88170 0.58147
 C405 C 0.33403 0.86296 0.56186
 C406 C 0.31544 0.86379 0.54299
 H407 H 0.20432 0.82843 0.46419
 H408 H 0.23810 0.82706 0.49559
 H409 H 0.25389 0.90650 0.48060
 H410 H 0.21982 0.90813 0.44990
 H411 H 0.27599 0.84609 0.51456
 H412 H 0.26789 0.90357 0.52127
 H413 H 0.28384 0.91763 0.56334
 H414 H 0.31618 0.91622 0.59633
 H415 H 0.34799 0.84765 0.56099
 H416 H 0.31600 0.84934 0.52792
   
