data_POSCAR
  _audit_creation_date              2014-09-24
  _audit_creation_method            'ToBaCCo'
  _symmetry_space_group_name_H-M    'P1'
  _symmetry_Int_Tables_number       1
  _symmetry_cell_setting            triclinic
  loop_
  _symmetry_equiv_pos_as_xyz
 x,y,z
_cell_length_a 19.1456
_cell_length_b 19.2652
_cell_length_c 32.1012
_cell_angle_alpha 89.222200
_cell_angle_beta 94.149000
_cell_angle_gamma 81.205500
loop_
  _atom_site_label
  _atom_site_type_symbol
  _atom_site_fract_x
  _atom_site_fract_y
  _atom_site_fract_z
O1 O -0.04921 0.57950 0.95090
 O2 O -0.07126 0.44370 1.02844
 O3 O -0.06598 0.57987 1.03063
 O4 O -0.04948 0.44548 0.94920
 O5 O 0.06651 0.42801 0.96301
 O6 O 0.04917 0.55499 1.04699
 O7 O 0.04456 0.42069 1.04175
 O8 O 0.06610 0.56272 0.96794
 Cu9 Cu -0.07074 0.51410 0.98860
 Cu10 Cu 0.06808 0.48943 1.00651
 C11 C 0.01205 0.59478 0.94653
 C12 C -0.01714 0.40758 1.04770
 C13 C -0.01072 0.59061 1.05253
 C14 C 0.01180 0.41452 0.94186
 O15 O 0.58597 -0.06088 0.53969
 O16 O 0.43683 -0.06197 0.46122
 O17 O 0.57227 -0.05546 0.45883
 O18 O 0.45100 -0.06456 0.54238
 O19 O 0.42728 0.05122 0.54138
 O20 O 0.55171 0.06023 0.46031
 O21 O 0.41555 0.05383 0.46064
 O22 O 0.56179 0.05451 0.54214
 Cu23 Cu 0.51369 -0.07228 0.50033
 Cu24 Cu 0.48714 0.06659 0.50090
 C25 C 0.59916 -0.00328 0.55482
 C26 C 0.40008 -0.00448 0.44780
 C27 C 0.58367 0.00410 0.44581
 C28 C 0.41796 -0.00801 0.55590
 C29 C -0.03179 0.00300 0.24552
 C30 C 0.02781 0.00477 0.75126
 C31 C -0.01533 -0.24107 0.13823
 C32 C 0.04111 -0.29737 0.14174
 C33 C 0.04150 -0.35290 0.11438
 C34 C -0.01468 -0.35373 0.08395
 C35 C -0.07176 -0.29834 0.08265
 N36 N -0.07042 -0.24398 0.10924
 C37 C -0.01665 -0.17881 0.16516
 N38 N -0.07887 -0.13490 0.16802
 C39 C -0.08421 -0.07747 0.19249
 C40 C -0.02507 -0.06231 0.21759
 C41 C 0.04066 -0.10415 0.21222
 C42 C 0.04493 -0.16221 0.18664
 H43 H 0.08613 -0.39509 0.11691
 H44 H -0.11625 -0.29706 0.05969
 H45 H -0.13509 -0.04426 0.19309
 H46 H 0.08956 -0.09177 0.22709
 H47 H 0.08471 -0.29930 0.16526
 H48 H 0.09656 -0.19230 0.18324
 C49 C -0.03934 0.23908 0.12829
 C50 C -0.10004 0.27926 0.10803
 C51 C -0.09286 0.33568 0.08170
 C52 C -0.02537 0.35234 0.07514
 C53 C 0.03388 0.31064 0.09605
 N54 N 0.02542 0.25605 0.12146
 C55 C -0.04251 0.17811 0.15648
 N56 N 0.01758 0.13110 0.16508
 C57 C 0.02082 0.07550 0.19195
 C58 C -0.03818 0.06555 0.21395
 C59 C -0.10213 0.11119 0.20333
 C60 C -0.10417 0.16787 0.17540
 H61 H -0.14029 0.36565 0.06614
 H62 H 0.08709 0.32082 0.09208
 H63 H 0.07037 0.04002 0.19718
 H64 H -0.15097 0.10366 0.21638
 H65 H -0.15253 0.26693 0.11155
 H66 H -0.15338 0.20353 0.16957
 C67 C 0.26642 -0.01269 0.64696
 C68 C 0.30963 -0.07541 0.63760
 C69 C 0.35985 -0.07411 0.60818
 C70 C 0.36725 -0.01057 0.58830
 C71 C 0.32366 0.05093 0.59904
 N72 N 0.27475 0.04820 0.62732
 C73 C 0.20882 -0.01077 0.67537
 N74 N 0.15309 0.04221 0.66999
 C75 C 0.09703 0.04749 0.69386
 C76 C 0.09360 -0.00325 0.72541
 C77 C 0.15300 -0.05622 0.73299
 C78 C 0.20998 -0.06061 0.70779
 H79 H 0.39222 -0.12282 0.60068
 H80 H 0.32732 0.10108 0.58443
 H81 H 0.05412 0.09078 0.68775
 H82 H 0.15665 -0.09394 0.75855
 H83 H 0.30342 -0.12522 0.65168
 H84 H 0.25486 -0.10171 0.71428
 C85 C -0.22910 -0.00300 0.64381
 C86 C -0.23802 -0.06511 0.62348
 C87 C -0.29614 -0.06573 0.59484
 C88 C -0.34430 -0.00378 0.58529
 C89 C -0.33326 0.05744 0.60671
 N90 N -0.27688 0.05621 0.63522
 C91 C -0.16555 -0.00040 0.67182
 N92 N -0.10095 -0.02269 0.65780
 C93 C -0.03983 -0.02052 0.68153
 C94 C -0.04097 0.00568 0.72248
 C95 C -0.10815 0.02359 0.73828
 C96 C -0.17028 0.02319 0.71264
 H97 H -0.30200 -0.11434 0.57934
 H98 H -0.36920 0.10626 0.60085
 H99 H 0.00918 -0.04117 0.66835
 H100 H -0.11238 0.03901 0.77043
 H101 H -0.20020 -0.11263 0.62971
 H102 H -0.22139 0.03928 0.72483
 C103 C 0.02765 -0.23601 0.86293
 C104 C 0.07389 -0.24735 0.89912
 C105 C 0.07053 -0.30427 0.92580
 C106 C 0.02003 -0.34854 0.91689
 C107 C -0.02471 -0.33587 0.88009
 N108 N -0.01957 -0.28080 0.85414
 C109 C 0.02751 -0.17446 0.83541
 N110 N 0.03031 -0.18232 0.79354
 C111 C 0.03076 -0.12673 0.76703
 C112 C 0.02835 -0.05791 0.78218
 C113 C 0.02021 -0.04938 0.82532
 C114 C 0.02183 -0.10733 0.85190
 H115 H 0.10571 -0.31239 0.95400
 H116 H -0.06385 -0.36949 0.87211
 H117 H 0.03374 -0.13621 0.73402
 H118 H 0.01143 0.00172 0.83909
 H119 H 0.11195 -0.21234 0.90664
 H120 H 0.01662 -0.09965 0.88497
 C121 C 0.03398 0.25479 0.85057
 C122 C 0.09470 0.27382 0.87175
 C123 C 0.08742 0.32680 0.90096
 C124 C 0.01993 0.36139 0.90901
 C125 C -0.03925 0.34289 0.88588
 N126 N -0.03086 0.29057 0.85781
 C127 C 0.03804 0.19462 0.82225
 N128 N -0.01497 0.19275 0.79189
 C129 C -0.01854 0.13601 0.76752
 C130 C 0.03138 0.07425 0.77462
 C131 C 0.08965 0.07810 0.80356
 C132 C 0.09259 0.13711 0.82774
 H133 H 0.13467 0.34002 0.91761
 H134 H -0.09221 0.36879 0.89071
 H135 H -0.06069 0.13994 0.74305
 H136 H 0.13133 0.03343 0.80895
 H137 H 0.14733 0.24814 0.86607
 H138 H 0.13553 0.13587 0.85168
 C139 C -0.26025 0.01463 0.35781
 C140 C -0.30023 0.07696 0.37068
 C141 C -0.35177 0.07349 0.39894
 C142 C -0.36428 0.00824 0.41423
 C143 C -0.32455 -0.05282 0.39974
 N144 N -0.27434 -0.04810 0.37241
 C145 C -0.20343 0.01452 0.32870
 N146 N -0.18067 -0.04590 0.30900
 C147 C -0.12826 -0.05117 0.28231
 C148 C -0.09531 0.00745 0.27315
 C149 C -0.11550 0.06902 0.29539
 C150 C -0.16970 0.07317 0.32247
 H151 H -0.38161 0.12195 0.40894
 H152 H -0.33259 -0.10428 0.41051
 H153 H -0.11146 -0.10196 0.26946
 H154 H -0.08881 0.11417 0.29182
 H155 H -0.29268 0.12795 0.35900
 H156 H -0.18305 0.12124 0.33908
 C157 C 0.21575 -0.00793 0.36448
 C158 C 0.25888 -0.07133 0.37741
 C159 C 0.31947 -0.07005 0.40409
 C160 C 0.33778 -0.00590 0.41782
 C161 C 0.29413 0.05637 0.40352
 N162 N 0.23522 0.05380 0.37757
 C163 C 0.15097 -0.00602 0.33597
 N164 N 0.12556 0.05398 0.31346
 C165 C 0.06804 0.05926 0.28552
 C166 C 0.03295 0.00083 0.27772
 C167 C 0.05507 -0.05945 0.30353
 C168 C 0.11415 -0.06351 0.33203
 H169 H 0.35182 -0.11940 0.41405
 H170 H 0.30632 0.10704 0.41319
 H171 H 0.05007 0.10939 0.26979
 H172 H 0.02723 -0.10426 0.30089
 H173 H 0.24698 -0.12150 0.36672
 H174 H 0.12986 -0.11095 0.35094
   
