data_POSCAR
  _audit_creation_date              2014-09-24
  _audit_creation_method            'ToBaCCo'
  _symmetry_space_group_name_H-M    'P1'
  _symmetry_Int_Tables_number       1
  _symmetry_cell_setting            triclinic
  loop_
  _symmetry_equiv_pos_as_xyz
 x,y,z
_cell_length_a 55.8945
_cell_length_b 59.2529
_cell_length_c 8.9996
_cell_angle_alpha 89.900600
_cell_angle_beta 89.910200
_cell_angle_gamma 90.030100
loop_
  _atom_site_label
  _atom_site_type_symbol
  _atom_site_fract_x
  _atom_site_fract_y
  _atom_site_fract_z
C1 C 0.20116 0.22903 0.14401
 C2 C 0.18898 0.24979 0.14416
 C3 C 0.20066 0.27015 0.17336
 C4 C 0.22540 0.27015 0.20528
 C5 C 0.23839 0.24962 0.20010
 C6 C 0.22644 0.22912 0.16558
 C7 C 0.24042 0.20972 0.14147
 C8 C 0.26492 0.20976 0.16777
 C9 C 0.27671 0.22921 0.21936
 C10 C 0.26351 0.24967 0.22681
 C11 C 0.23743 0.29014 0.24342
 C12 C 0.26193 0.29020 0.26906
 C13 C 0.27541 0.27026 0.25784
 C14 C 0.30047 0.27039 0.27788
 C15 C 0.31311 0.25006 0.27570
 C16 C 0.30170 0.22922 0.25144
 H17 H 0.23272 0.19439 0.09748
 H18 H 0.27462 0.19446 0.14244
 H19 H 0.22801 0.30600 0.25419
 H20 H 0.27018 0.30610 0.29840
 H21 H 0.16978 0.25022 0.12744
 H22 H 0.33213 0.25058 0.29903
 C23 C 0.69821 0.22914 0.25589
 C24 C 0.68667 0.25009 0.27129
 C25 C 0.69913 0.27050 0.26337
 C26 C 0.72413 0.27039 0.24010
 C27 C 0.73619 0.24959 0.21923
 C28 C 0.72322 0.22893 0.22384
 C29 C 0.73532 0.20892 0.18518
 C30 C 0.75980 0.20883 0.15741
 C31 C 0.77324 0.22882 0.16343
 C32 C 0.76125 0.24949 0.19079
 C33 C 0.73736 0.29057 0.23716
 C34 C 0.76185 0.29044 0.21033
 C35 C 0.77420 0.27010 0.18736
 C36 C 0.79908 0.26984 0.15769
 C37 C 0.81065 0.24929 0.13236
 C38 C 0.79822 0.22881 0.13671
 H39 H 0.72595 0.19312 0.17156
 H40 H 0.76799 0.19291 0.12790
 H41 H 0.72890 0.30675 0.25550
 H42 H 0.77094 0.30655 0.20636
 H43 H 0.66767 0.25069 0.29565
 H44 H 0.82979 0.24920 0.11214
 C45 C 0.79843 0.77087 0.86892
 C46 C 0.80972 0.75000 0.89360
 C47 C 0.79817 0.72951 0.86651
 C48 C 0.77410 0.72944 0.81882
 C49 C 0.76181 0.75018 0.80051
 C50 C 0.77383 0.77095 0.82678
 C51 C 0.76046 0.79108 0.81936
 C52 C 0.73665 0.79105 0.77500
 C53 C 0.72471 0.77078 0.74313
 C54 C 0.73730 0.75012 0.75752
 C55 C 0.76187 0.70911 0.79189
 C56 C 0.73813 0.70910 0.74608
 C57 C 0.72539 0.72939 0.72985
 C58 C 0.70110 0.72951 0.68539
 C59 C 0.68920 0.75008 0.66725
 C60 C 0.70049 0.77061 0.69750
 H61 H 0.76806 0.80715 0.85056
 H62 H 0.72768 0.80717 0.76698
 H63 H 0.77049 0.69292 0.80644
 H64 H 0.72987 0.69295 0.72377
 H65 H 0.82850 0.74952 0.92379
 H66 H 0.67054 0.75007 0.63408
 C67 C 0.20235 0.72905 0.89609
 C68 C 0.19126 0.74983 0.92568
 C69 C 0.20235 0.77059 0.89428
 C70 C 0.22654 0.77059 0.84457
 C71 C 0.23856 0.74979 0.82024
 C72 C 0.22653 0.72900 0.84600
 C73 C 0.23959 0.70878 0.83118
 C74 C 0.26309 0.70878 0.78081
 C75 C 0.27515 0.72906 0.75127
 C76 C 0.26294 0.74977 0.77329
 C77 C 0.23962 0.79080 0.82871
 C78 C 0.26313 0.79077 0.77877
 C79 C 0.27518 0.77047 0.75046
 C80 C 0.29924 0.77031 0.70094
 C81 C 0.31068 0.74975 0.67426
 C82 C 0.29919 0.72920 0.70135
 H83 H 0.23203 0.69262 0.86125
 H84 H 0.27178 0.69261 0.76712
 H85 H 0.23205 0.80698 0.85770
 H86 H 0.27184 0.80694 0.76425
 H87 H 0.17254 0.74985 0.95762
 H88 H 0.32918 0.74974 0.63755
 O89 O 1.02323 -0.02416 0.10576
 O90 O 0.97673 0.01968 0.13048
 O91 O 0.97675 -0.02405 0.10008
 O92 O 1.02328 0.01958 0.13696
 O93 O 1.02412 0.02337 -0.10671
 O94 O 0.97758 -0.02029 -0.14362
 O95 O 0.97757 0.02347 -0.11320
 O96 O 1.02409 -0.02038 -0.13792
 Cu97 Cu 0.99991 -0.00264 0.14215
 Cu98 Cu 1.00093 0.00197 -0.14920
 C99 C 1.03154 -0.02987 -0.02011
 C100 C 0.96922 0.02914 0.01265
 C101 C 0.96927 -0.02974 -0.02765
 C102 C 1.03163 0.02902 0.02109
 O103 O 0.47716 0.51964 0.61909
 O104 O 0.52361 0.47624 0.57010
 O105 O 0.52368 0.51971 0.61373
 O106 O 0.47710 0.47615 0.57582
 O107 O 0.47643 0.48161 0.33345
 O108 O 0.52303 0.52519 0.37137
 O109 O 0.52295 0.48170 0.32772
 O110 O 0.47650 0.52510 0.37672
 Cu111 Cu 0.50046 0.49736 0.61861
 Cu112 Cu 0.49966 0.50398 0.32837
 C113 C 0.46893 0.52988 0.50604
 C114 C 0.53118 0.47145 0.44077
 C115 C 0.53128 0.52998 0.49893
 C116 C 0.46885 0.47134 0.44832
 O117 O 0.02331 0.48103 0.17981
 O118 O -0.02342 0.52447 0.14277
 O119 O -0.02322 0.48080 0.17956
 O120 O 0.02310 0.52470 0.14334
 O121 O 0.02325 0.52031 -0.09987
 O122 O -0.02307 0.47642 -0.06365
 O123 O -0.02328 0.52007 -0.10043
 O124 O 0.02344 0.47664 -0.06341
 Cu125 Cu -0.00007 0.50323 0.18524
 Cu126 Cu 0.00010 0.49789 -0.10572
 C127 C 0.03131 0.47131 0.06422
 C128 C -0.03129 0.52979 0.01510
 C129 C -0.03101 0.47101 0.06385
 C130 C 0.03105 0.53010 0.01583
 O131 O 0.52347 1.01878 0.35419
 O132 O 0.47682 0.97531 0.39443
 O133 O 0.47695 1.01876 0.34862
 O134 O 0.52330 0.97534 0.39952
 O135 O 0.52258 0.98094 0.64165
 O136 O 0.47620 1.02441 0.59068
 O137 O 0.47606 0.98094 0.63652
 O138 O 0.52274 1.02442 0.59626
 Cu139 Cu 0.50022 0.99647 0.35028
 Cu140 Cu 0.49932 1.00327 0.64022
 C141 C 0.53105 1.02911 0.46842
 C142 C 0.46852 0.97059 0.52224
 C143 C 0.46869 1.02910 0.46109
 C144 C 0.53081 0.97061 0.52902
 C145 C 1.17713 0.17090 0.21164
 C146 C 1.15839 0.17010 0.10903
 C147 C 1.15405 0.18863 0.01663
 C148 C 1.16832 0.20793 0.02683
 C149 C 1.18748 0.20897 0.12868
 C150 C 1.19148 0.19017 0.22202
 C151 C 1.14317 0.15054 0.10062
 C152 C 1.13008 0.13441 0.09283
 C153 C 1.11439 0.11581 0.08273
 C154 C 1.10069 0.10016 0.07313
 C155 C 1.08399 0.08177 0.06033
 C156 C 1.07617 0.07484 -0.08000
 C157 C 1.05932 0.05752 -0.09286
 C158 C 1.05003 0.04689 0.03476
 C159 C 1.05818 0.05382 0.17539
 C160 C 1.07504 0.07117 0.18793
 H161 H 1.18042 0.15676 0.28529
 H162 H 1.13955 0.18822 -0.06307
 H163 H 1.16466 0.22186 -0.04780
 H164 H 1.20517 0.19064 0.30703
 H165 H 1.08295 0.08296 -0.17950
 H166 H 1.05344 0.05259 -0.20273
 H167 H 1.05138 0.04600 0.27576
 H168 H 1.08093 0.07643 0.29715
 C169 C 0.66811 0.67492 0.76244
 C170 C 0.65840 0.67017 0.62259
 C171 C 0.66312 0.68457 0.50248
 C172 C 0.67737 0.70373 0.52236
 C173 C 0.68714 0.70856 0.66235
 C174 C 0.68235 0.69407 0.78241
 C175 C 0.64298 0.65093 0.60363
 C176 C 0.62979 0.63500 0.58874
 C177 C 0.61402 0.61656 0.57226
 C178 C 0.60029 0.60101 0.55880
 C179 C 0.58358 0.58268 0.54327
 C180 C 0.57496 0.57679 0.40267
 C181 C 0.55813 0.55948 0.38793
 C182 C 0.54967 0.54783 0.51395
 C183 C 0.55862 0.55373 0.65470
 C184 C 0.57545 0.57106 0.66911
 H185 H 0.66444 0.66398 0.85634
 H186 H 0.65558 0.68112 0.39402
 H187 H 0.68069 0.71488 0.42903
 H188 H 0.68944 0.69776 0.89167
 H189 H 0.58110 0.58571 0.30453
 H190 H 0.55161 0.55536 0.27802
 H191 H 0.55248 0.54511 0.75387
 H192 H 0.58197 0.57551 0.77854
 C193 C -0.16778 0.32253 0.27726
 C194 C -0.15697 0.32912 0.14348
 C195 C -0.16079 0.31646 0.01442
 C196 C -0.17530 0.29726 0.01903
 C197 C -0.18624 0.29063 0.15261
 C198 C -0.18230 0.30331 0.28196
 C199 C -0.14159 0.34859 0.13870
 C200 C -0.12848 0.36473 0.13305
 C201 C -0.11285 0.38340 0.12453
 C202 C -0.09927 0.39915 0.11561
 C203 C -0.08275 0.41770 0.10292
 C204 C -0.07457 0.42447 -0.03724
 C205 C -0.05794 0.44199 -0.05007
 C206 C -0.04923 0.45297 0.07742
 C207 C -0.05775 0.44620 0.21785
 C208 C -0.07440 0.42865 0.23037
 H209 H -0.16483 0.33213 0.37792
 H210 H -0.15244 0.32135 -0.08950
 H211 H -0.17800 0.28753 -0.08137
 H212 H -0.19037 0.29822 0.38628
 H213 H -0.08090 0.41609 -0.13662
 H214 H -0.05176 0.44678 -0.15978
 H215 H -0.05140 0.45429 0.31811
 H216 H -0.08059 0.42351 0.33945
 C217 C 0.33401 0.82350 0.78701
 C218 C 0.34225 0.82965 0.64558
 C219 C 0.33607 0.81658 0.52188
 C220 C 0.32177 0.79738 0.53962
 C221 C 0.31343 0.79120 0.68113
 C222 C 0.31973 0.80432 0.80484
 C223 C 0.35757 0.84900 0.62810
 C224 C 0.37066 0.86504 0.61409
 C225 C 0.38628 0.88360 0.59818
 C226 C 0.39989 0.89926 0.58478
 C227 C 0.41646 0.91771 0.56873
 C228 C 0.42504 0.92364 0.42787
 C229 C 0.44178 0.94103 0.41247
 C230 C 0.45017 0.95272 0.53808
 C231 C 0.44123 0.94678 0.67912
 C232 C 0.42449 0.92938 0.69419
 H233 H 0.33881 0.83341 0.88355
 H234 H 0.34246 0.82111 0.41210
 H235 H 0.31728 0.78729 0.44337
 H236 H 0.31373 0.79956 0.91504
 H237 H 0.41897 0.91469 0.33003
 H238 H 0.44829 0.94517 0.30236
 H239 H 0.44733 0.95543 0.77798
 H240 H 0.41799 0.92489 0.80382
 C241 C -0.16430 0.68305 0.03648
 C242 C -0.15856 0.67017 -0.08899
 C243 C -0.16737 0.67647 -0.22860
 C244 C -0.18176 0.69564 -0.24289
 C245 C -0.18760 0.70858 -0.11739
 C246 C -0.17870 0.70222 0.02230
 C247 C -0.14308 0.65088 -0.07518
 C248 C -0.12985 0.63491 -0.06394
 C249 C -0.11407 0.61643 -0.05091
 C250 C -0.10033 0.60085 -0.03968
 C251 C -0.08362 0.58249 -0.02585
 C252 C -0.07507 0.57152 -0.15284
 C253 C -0.05823 0.55418 -0.13965
 C254 C -0.04971 0.54762 0.00102
 C255 C -0.05860 0.55862 0.12810
 C256 C -0.07544 0.57594 0.11458
 H257 H -0.15747 0.67839 0.14487
 H258 H -0.16291 0.66672 -0.32651
 H259 H -0.18818 0.70053 -0.35177
 H260 H -0.18283 0.71217 0.11986
 H261 H -0.08126 0.57648 -0.26214
 H262 H -0.05174 0.54607 -0.23961
 H263 H -0.05242 0.55399 0.23797
 H264 H -0.08191 0.58435 0.21361
 C265 C 0.32083 1.17110 0.36406
 C266 C 0.34400 1.17034 0.30539
 C267 C 0.35304 1.18894 0.22781
 C268 C 0.33904 1.20824 0.20876
 C269 C 0.31549 1.20922 0.26545
 C270 C 0.30673 1.19038 0.34504
 C271 C 0.35876 1.15072 0.32695
 C272 C 0.37151 1.13454 0.34460
 C273 C 0.38687 1.11588 0.36489
 C274 C 0.40032 1.10020 0.38198
 C275 C 0.41677 1.08177 0.40222
 C276 C 0.42557 1.07003 0.27891
 C277 C 0.44226 1.05270 0.29802
 C278 C 0.45040 1.04691 0.44101
 C279 C 0.44124 1.05866 0.56442
 C280 C 0.42455 1.07598 0.54498
 H281 H 0.31377 1.15691 0.42626
 H282 H 0.37099 1.18855 0.18218
 H283 H 0.34649 1.22220 0.14606
 H284 H 0.28925 1.19081 0.39711
 H285 H 0.41971 1.07442 0.16785
 H286 H 0.44895 1.04400 0.20076
 H287 H 0.44712 1.05462 0.67593
 H288 H 0.41789 1.08499 0.64119
 C289 C 1.17310 -0.17461 -0.20435
 C290 C 1.15808 -0.17142 -0.08177
 C291 C 1.15785 -0.18732 0.03321
 C292 C 1.17261 -0.20632 0.02603
 C293 C 1.18821 -0.20959 -0.09553
 C294 C 1.18791 -0.19357 -0.21183
 C295 C 1.14251 -0.15211 -0.07534
 C296 C 1.12928 -0.13608 -0.06969
 C297 C 1.11356 -0.11748 -0.06259
 C298 C 1.09992 -0.10176 -0.05590
 C299 C 1.08336 -0.08322 -0.04696
 C300 C 1.07473 -0.07620 0.09143
 C301 C 1.05807 -0.05866 0.10035
 C302 C 1.04980 -0.04792 -0.02936
 C303 C 1.05877 -0.05495 -0.16796
 C304 C 1.07543 -0.07251 -0.17655
 H305 H 1.17312 -0.16259 -0.29523
 H306 H 1.14619 -0.18508 0.12833
 H307 H 1.17220 -0.21823 0.11747
 H308 H 1.19857 -0.19606 -0.31105
 H309 H 1.08072 -0.08439 0.19243
 H310 H 1.05153 -0.05367 0.20873
 H311 H 1.05276 -0.04705 -0.26984
 H312 H 1.08198 -0.07784 -0.28430
 C313 C 0.66860 0.32599 0.17607
 C314 C 0.65694 0.33047 0.31070
 C315 C 0.65949 0.31556 0.43054
 C316 C 0.67352 0.29617 0.41564
 C317 C 0.68523 0.29160 0.28093
 C318 C 0.68264 0.30660 0.16106
 C319 C 0.64181 0.34999 0.32494
 C320 C 0.62882 0.36611 0.33760
 C321 C 0.61328 0.38471 0.35334
 C322 C 0.59971 0.40036 0.36767
 C323 C 0.58317 0.41876 0.38596
 C324 C 0.57537 0.42479 0.52825
 C325 C 0.55866 0.44211 0.54626
 C326 C 0.54949 0.45363 0.42188
 C327 C 0.55763 0.44760 0.27931
 C328 C 0.57436 0.43026 0.26162
 H329 H 0.66663 0.33734 0.08241
 H330 H 0.65046 0.31881 0.53494
 H331 H 0.67518 0.28467 0.50871
 H332 H 0.69132 0.30314 0.05584
 H333 H 0.58205 0.41597 0.62524
 H334 H 0.55277 0.44633 0.65750
 H335 H 0.55093 0.45613 0.18135
 H336 H 0.58024 0.42569 0.15092
 C337 C 0.82649 -0.17353 -0.22495
 C338 C 0.84254 -0.17099 -0.10710
 C339 C 0.84384 -0.18759 0.00323
 C340 C 0.82914 -0.20663 -0.00387
 C341 C 0.81253 -0.20929 -0.12061
 C342 C 0.81173 -0.19255 -0.23232
 C343 C 0.85806 -0.15163 -0.10071
 C344 C 0.87127 -0.13558 -0.09453
 C345 C 0.88701 -0.11699 -0.08608
 C346 C 0.90067 -0.10131 -0.07756
 C347 C 0.91728 -0.08283 -0.06552
 C348 C 0.92500 -0.07572 0.07459
 C349 C 0.94171 -0.05827 0.08693
 C350 C 0.95096 -0.04770 -0.04100
 C351 C 0.94291 -0.05481 -0.18145
 C352 C 0.92618 -0.07228 -0.19347
 H353 H 0.82562 -0.16095 -0.31234
 H354 H 0.85629 -0.18584 0.09467
 H355 H 0.83039 -0.21906 0.08420
 H356 H 0.80025 -0.19450 -0.32828
 H357 H 0.91825 -0.08378 0.17436
 H358 H 0.94752 -0.05322 0.19667
 H359 H 0.94968 -0.04703 -0.28204
 H360 H 0.92035 -0.07768 -0.30252
 C361 C 0.32954 0.32706 0.20401
 C362 C 0.34262 0.33026 0.33492
 C363 C 0.34144 0.31412 0.44859
 C364 C 0.32740 0.29478 0.43103
 C365 C 0.31431 0.29147 0.29986
 C366 C 0.31549 0.30772 0.18633
 C367 C 0.35782 0.34972 0.35074
 C368 C 0.37086 0.36580 0.36347
 C369 C 0.38647 0.38439 0.37799
 C370 C 0.40009 0.40006 0.39031
 C371 C 0.41670 0.41849 0.40518
 C372 C 0.42528 0.42450 0.54562
 C373 C 0.44205 0.44187 0.55991
 C374 C 0.45049 0.45346 0.43360
 C375 C 0.44155 0.44745 0.29299
 C376 C 0.42478 0.43006 0.27902
 H377 H 0.33043 0.33937 0.11502
 H378 H 0.35158 0.31637 0.55001
 H379 H 0.32683 0.28231 0.51916
 H380 H 0.30576 0.30527 0.08362
 H381 H 0.41918 0.41562 0.64399
 H382 H 0.44855 0.44607 0.66972
 H383 H 0.44768 0.45603 0.19362
 H384 H 0.41828 0.42552 0.16972
 C385 C 0.15795 0.68718 0.04028
 C386 C 0.15806 0.67110 -0.07323
 C387 C 0.17299 0.67407 -0.19654
 C388 C 0.18782 0.69302 -0.20624
 C389 C 0.18823 0.70923 -0.09147
 C390 C 0.17273 0.70615 0.03087
 C391 C 0.14244 0.65182 -0.06444
 C392 C 0.12915 0.63584 -0.05645
 C393 C 0.11335 0.61732 -0.04617
 C394 C 0.09963 0.60168 -0.03644
 C395 C 0.08299 0.58324 -0.02349
 C396 C 0.07464 0.57225 -0.15084
 C397 C 0.05791 0.55478 -0.13823
 C398 C 0.04931 0.54810 0.00221
 C399 C 0.05799 0.55913 0.12960
 C400 C 0.07471 0.57658 0.11667
 H401 H 0.14636 0.68510 0.13595
 H402 H 0.17291 0.66191 -0.28628
 H403 H 0.19841 0.69535 -0.30601
 H404 H 0.17239 0.71822 0.12118
 H405 H 0.08091 0.57730 -0.25992
 H406 H 0.05158 0.54665 -0.23842
 H407 H 0.05174 0.55441 0.23929
 H408 H 0.08103 0.58499 0.21596
 C409 C 0.67870 1.17214 0.39001
 C410 C 0.65593 1.17062 0.32656
 C411 C 0.64721 1.18843 0.24025
 C412 C 0.66119 1.20764 0.21651
 C413 C 0.68441 1.20929 0.27701
 C414 C 0.69278 1.19135 0.36633
 C415 C 0.64130 1.15096 0.35054
 C416 C 0.62860 1.13474 0.36881
 C417 C 0.61327 1.11603 0.38834
 C418 C 0.59980 1.10030 0.40371
 C419 C 0.58330 1.08183 0.42075
 C420 C 0.57527 1.07006 0.29568
 C421 C 0.55848 1.05271 0.31122
 C422 C 0.54947 1.04693 0.45235
 C423 C 0.55786 1.05870 0.57763
 C424 C 0.57466 1.07604 0.56177
 H425 H 0.68550 1.15858 0.45893
 H426 H 0.62956 1.18746 0.19096
 H427 H 0.65403 1.22095 0.14696
 H428 H 0.70995 1.19242 0.42146
 H429 H 0.58180 1.07445 0.18594
 H430 H 0.55239 1.04400 0.21259
 H431 H 0.55129 1.05467 0.68780
 H432 H 0.58071 1.08508 0.65930
 C433 C 0.17620 0.32699 0.05470
 C434 C 0.15744 0.32988 0.15626
 C435 C 0.15310 0.31342 0.26485
 C436 C 0.16738 0.29408 0.27149
 C437 C 0.18621 0.29110 0.17001
 C438 C 0.19050 0.30765 0.06126
 C439 C 0.14222 0.34941 0.14677
 C440 C 0.12919 0.36557 0.13827
 C441 C 0.11360 0.38423 0.12753
 C442 C 0.10001 0.39994 0.11749
 C443 C 0.08345 0.41842 0.10425
 C444 C 0.07493 0.42936 0.23149
 C445 C 0.05817 0.44677 0.21864
 C446 C 0.04969 0.45344 0.07809
 C447 C 0.05857 0.44249 -0.04922
 C448 C 0.07532 0.42510 -0.03606
 H449 H 0.17962 0.33956 -0.03029
 H450 H 0.13857 0.31544 0.34349
 H451 H 0.16373 0.28139 0.35530
 H452 H 0.20476 0.30545 -0.01901
 H453 H 0.08106 0.42428 0.34069
 H454 H 0.05168 0.45484 0.31876
 H455 H 0.05243 0.44721 -0.15902
 H456 H 0.08177 0.41673 -0.13527
 C457 C 0.66539 0.82309 0.79708
 C458 C 0.65698 0.82985 0.65741
 C459 C 0.66313 0.81742 0.53075
 C460 C 0.67756 0.79825 0.54369
 C461 C 0.68608 0.79145 0.68336
 C462 C 0.67982 0.80392 0.81013
 C463 C 0.64158 0.84920 0.64427
 C464 C 0.62845 0.86523 0.63248
 C465 C 0.61280 0.88377 0.61753
 C466 C 0.59919 0.89940 0.60354
 C467 C 0.58265 0.91780 0.58511
 C468 C 0.57494 0.92387 0.44272
 C469 C 0.55828 0.94122 0.42436
 C470 C 0.54907 0.95275 0.54848
 C471 C 0.55711 0.94669 0.69119
 C472 C 0.57379 0.92930 0.70925
 H473 H 0.66063 0.83250 0.89586
 H474 H 0.65662 0.82243 0.42228
 H475 H 0.68203 0.78866 0.44511
 H476 H 0.68598 0.79868 0.91891
 H477 H 0.58166 0.91505 0.34588
 H478 H 0.55247 0.94546 0.31301
 H479 H 0.55036 0.95522 0.78897
 H480 H 0.57961 0.92471 0.82004
 C481 C 0.83979 0.18492 -0.02690
 C482 C 0.84110 0.16924 0.08938
 C483 C 0.82787 0.17274 0.21957
 C484 C 0.81354 0.19195 0.23400
 C485 C 0.81222 0.20777 0.11788
 C486 C 0.82547 0.20414 -0.01259
 C487 C 0.85665 0.14997 0.07718
 C488 C 0.86997 0.13405 0.06783
 C489 C 0.88591 0.11564 0.05768
 C490 C 0.89978 0.10012 0.04945
 C491 C 0.91665 0.08184 0.03993
 C492 C 0.92470 0.07116 0.16934
 C493 C 0.94165 0.05385 0.16058
 C494 C 0.95079 0.04703 0.02196
 C495 C 0.94241 0.05775 -0.10761
 C496 C 0.92547 0.07504 -0.09852
 H497 H 0.85005 0.18244 -0.12777
 H498 H 0.82888 0.16079 0.31059
 H499 H 0.80375 0.19467 0.33635
 H500 H 0.82482 0.21627 -0.10267
 H501 H 0.91802 0.07632 0.27713
 H502 H 0.94771 0.04596 0.26237
 H503 H 0.94908 0.05290 -0.21600
 H504 H 0.91939 0.08322 -0.19939
 C505 C 0.33581 0.68303 0.52117
 C506 C 0.34219 0.66996 0.64472
 C507 C 0.33409 0.67603 0.78645
 C508 C 0.31978 0.69516 0.80473
 C509 C 0.31331 0.70830 0.68117
 C510 C 0.32149 0.70217 0.53935
 C511 C 0.35760 0.65070 0.62667
 C512 C 0.37077 0.63476 0.61182
 C513 C 0.38649 0.61633 0.59450
 C514 C 0.40018 0.60078 0.57948
 C515 C 0.41682 0.58248 0.56099
 C516 C 0.42563 0.57095 0.68526
 C517 C 0.44240 0.55365 0.66750
 C518 C 0.45061 0.54769 0.52495
 C519 C 0.44146 0.55925 0.40064
 C520 C 0.42469 0.57652 0.41871
 H521 H 0.34209 0.67856 0.41115
 H522 H 0.33905 0.66612 0.88288
 H523 H 0.31390 0.69988 0.91514
 H524 H 0.31687 0.71228 0.44320
 H525 H 0.41968 0.57545 0.79595
 H526 H 0.44909 0.54510 0.76541
 H527 H 0.44739 0.55508 0.28941
 H528 H 0.41802 0.58536 0.32178
   
