data_POSCAR
  _audit_creation_date              2014-09-24
  _audit_creation_method            'ToBaCCo'
  _symmetry_space_group_name_H-M    'P1'
  _symmetry_Int_Tables_number       1
  _symmetry_cell_setting            triclinic
  loop_
  _symmetry_equiv_pos_as_xyz
 x,y,z
_cell_length_a 37.0467
_cell_length_b 37.1846
_cell_length_c 22.9407
_cell_angle_alpha 90.005400
_cell_angle_beta 89.565400
_cell_angle_gamma 93.717300
loop_
  _atom_site_label
  _atom_site_type_symbol
  _atom_site_fract_x
  _atom_site_fract_y
  _atom_site_fract_z
O1 O -0.02706 0.29259 0.07680
 O2 O 0.02891 0.28762 -0.05627
 O3 O -0.04065 0.29535 -0.03329
 O4 O 0.04214 0.28376 0.05360
 O5 O 0.03124 0.22485 0.04720
 O6 O -0.05308 0.23644 -0.02929
 O7 O 0.01400 0.22943 -0.06233
 O8 O -0.03528 0.23324 0.07752
 Cu9 Cu 0.00201 0.29583 0.01029
 Cu10 Cu -0.01165 0.22512 0.00771
 C11 C -0.04112 0.26372 0.09935
 C12 C 0.03151 0.25753 -0.08167
 C13 C -0.06179 0.26769 -0.04299
 C14 C 0.05112 0.25192 0.06380
 O15 O 0.46743 0.78632 0.57134
 O16 O 0.53494 0.78698 0.45321
 O17 O 0.46435 0.78710 0.45852
 O18 O 0.53862 0.78140 0.56551
 O19 O 0.53071 0.72209 0.56150
 O20 O 0.45954 0.72759 0.45430
 O21 O 0.52855 0.72760 0.44861
 O22 O 0.46121 0.72693 0.56710
 Cu23 Cu 0.50193 0.79149 0.51296
 Cu24 Cu 0.49446 0.72015 0.50786
 C25 C 0.45220 0.75660 0.58839
 C26 C 0.54323 0.75744 0.43071
 C27 C 0.44973 0.75794 0.43788
 C28 C 0.54744 0.75030 0.58099
 O29 O 1.03550 0.72042 0.05504
 O30 O 0.96485 0.71545 -0.05799
 O31 O 1.03322 0.72181 -0.05321
 O32 O 0.96134 0.71796 0.06037
 O33 O 0.96269 0.77734 0.06138
 O34 O 1.03057 0.78098 -0.05461
 O35 O 0.96228 0.77455 -0.05279
 O36 O 1.03263 0.77940 0.05862
 Cu37 Cu 0.99730 0.71294 0.00336
 Cu38 Cu 0.99675 0.78392 0.00380
 C39 C 1.04720 0.75100 0.07442
 C40 C 0.95267 0.74454 -0.07628
 C41 C 1.04361 0.75253 -0.07397
 C42 C 0.95014 0.74713 0.08051
 O43 O 0.52001 0.20479 0.56585
 O44 O 0.45847 0.21364 0.44137
 O45 O 0.52765 0.20793 0.45408
 O46 O 0.44912 0.21319 0.55499
 O47 O 0.45978 0.27219 0.55919
 O48 O 0.53565 0.26735 0.45709
 O49 O 0.46761 0.27280 0.44615
 O50 O 0.52899 0.26401 0.56959
 Cu51 Cu 0.48758 0.20386 0.50435
 Cu52 Cu 0.49878 0.27492 0.50892
 C53 C 0.53589 0.23292 0.58753
 C54 C 0.45306 0.24481 0.42191
 C55 C 0.54458 0.23715 0.43800
 C56 C 0.44097 0.24388 0.57382
 O57 O 0.73293 -0.03449 0.07352
 O58 O 0.73339 0.02934 -0.05007
 O59 O 0.73204 -0.04169 -0.03858
 O60 O 0.73184 0.03663 0.06226
 O61 O 0.79156 0.03977 0.06158
 O62 O 0.79170 -0.03810 -0.03404
 O63 O 0.79300 0.03163 -0.05070
 O64 O 0.79257 -0.02875 0.07572
 Cu65 Cu 0.72645 -0.00282 0.01174
 Cu66 Cu 0.79812 0.00174 0.01267
 C67 C 0.76282 -0.04307 0.09482
 C68 C 0.76353 0.04193 -0.07087
 C69 C 0.76235 -0.05405 -0.05102
 C70 C 0.76194 0.05167 0.07838
 O71 O 0.21865 0.53010 0.42119
 O72 O 0.21407 0.46543 0.54386
 O73 O 0.21113 0.53662 0.53342
 O74 O 0.21991 0.45928 0.43227
 O75 O 0.27905 0.46517 0.44509
 O76 O 0.27063 0.54170 0.54124
 O77 O 0.27323 0.47323 0.55432
 O78 O 0.27812 0.53470 0.42910
 Cu79 Cu 0.20984 0.49745 0.48185
 Cu80 Cu 0.28116 0.50464 0.49285
 C81 C 0.24940 0.54360 0.40462
 C82 C 0.24309 0.45755 0.56884
 C83 C 0.23976 0.55234 0.55406
 C84 C 0.25132 0.44822 0.42410
 O85 O 0.28132 1.03848 0.03733
 O86 O 0.27656 0.97402 -0.08554
 O87 O 0.27000 1.04317 -0.07312
 O88 O 0.28976 0.96818 0.02581
 O89 O 0.23109 0.95646 0.03922
 O90 O 0.21261 1.03546 -0.04688
 O91 O 0.21751 0.96701 -0.07147
 O92 O 0.22440 1.02329 0.05965
 Cu93 Cu 0.28550 1.00675 -0.02532
 Cu94 Cu 0.21555 0.99399 -0.00385
 C95 C 0.25338 1.04243 0.06883
 C96 C 0.24571 0.96019 -0.10015
 C97 C 0.23784 1.05323 -0.07418
 C98 C 0.26350 0.94945 0.04885
 O99 O 0.76886 0.53016 0.57415
 O100 O 0.76773 0.46838 0.44816
 O101 O 0.76704 0.53868 0.46248
 O102 O 0.77160 0.45965 0.56020
 O103 O 0.71195 0.45469 0.56430
 O104 O 0.70752 0.53364 0.47158
 O105 O 0.70806 0.46417 0.45216
 O106 O 0.70938 0.52274 0.58091
 Cu107 Cu 0.77491 0.49962 0.51074
 Cu108 Cu 0.70326 0.49297 0.51716
 C109 C 0.73918 0.53753 0.59824
 C110 C 0.73750 0.45549 0.42907
 C111 C 0.73618 0.55037 0.45272
 C112 C 0.74231 0.44374 0.57862
 C113 C 0.20005 0.18551 0.15448
 C114 C 0.23055 0.17280 0.18084
 C115 C 0.25194 0.19604 0.21616
 C116 C 0.24397 0.23243 0.22362
 C117 C 0.21183 0.24402 0.19880
 C118 C 0.18891 0.22017 0.16609
 C119 C 0.26966 0.25797 0.25603
 C120 C 0.25785 0.28924 0.28371
 C121 C 0.28244 0.31307 0.31332
 C122 C 0.31877 0.30467 0.31665
 C123 C 0.33097 0.27355 0.29124
 C124 C 0.30666 0.25101 0.25957
 H125 H 0.18530 0.16865 0.12326
 H126 H 0.27490 0.18531 0.23735
 H127 H 0.20475 0.27144 0.20441
 H128 H 0.22956 0.29470 0.28382
 H129 H 0.33782 0.32223 0.34045
 H130 H 0.31716 0.22814 0.23762
 C131 C 0.81633 0.81003 0.19405
 C132 C 0.78424 0.82444 0.21251
 C133 C 0.75884 0.80237 0.24391
 C134 C 0.76389 0.76547 0.25357
 C135 C 0.79648 0.75173 0.23399
 C136 C 0.82321 0.77424 0.20644
 C137 C 0.73513 0.74169 0.28341
 C138 C 0.74355 0.70995 0.31321
 C139 C 0.71646 0.68832 0.34227
 C140 C 0.68119 0.69996 0.34399
 C141 C 0.67213 0.73080 0.31450
 C142 C 0.69879 0.75102 0.28324
 H143 H 0.83548 0.82582 0.16748
 H144 H 0.73510 0.81451 0.26047
 H145 H 0.80144 0.72362 0.23969
 H146 H 0.77119 0.70254 0.31573
 H147 H 0.66063 0.68553 0.36986
 H148 H 0.69069 0.77430 0.25968
 C149 C 0.81820 0.20276 0.19333
 C150 C 0.82918 0.23532 0.21997
 C151 C 0.80360 0.25439 0.25038
 C152 C 0.76674 0.24159 0.25292
 C153 C 0.75681 0.20787 0.22694
 C154 C 0.78268 0.18784 0.19894
 C155 C 0.73873 0.26381 0.28056
 C156 C 0.70530 0.24778 0.30101
 C157 C 0.67823 0.26903 0.32248
 C158 C 0.68546 0.30626 0.32807
 C159 C 0.71875 0.32281 0.31043
 C160 C 0.74473 0.30165 0.28521
 H161 H 0.83706 0.18944 0.16586
 H162 H 0.81285 0.27933 0.27125
 H163 H 0.72909 0.19716 0.22757
 H164 H 0.69968 0.21891 0.29984
 H165 H 0.66528 0.32217 0.34816
 H166 H 0.76934 0.31527 0.26868
 C167 C 0.20427 0.80708 0.15007
 C168 C 0.18627 0.77648 0.17496
 C169 C 0.20566 0.75428 0.21145
 C170 C 0.24289 0.76221 0.22223
 C171 C 0.25990 0.79355 0.19679
 C172 C 0.24042 0.81643 0.16276
 C173 C 0.26434 0.73798 0.25880
 C174 C 0.29622 0.75172 0.28661
 C175 C 0.31936 0.72868 0.31355
 C176 C 0.30920 0.69191 0.31764
 C177 C 0.27659 0.67773 0.29390
 C178 C 0.25452 0.70071 0.26376
 H179 H 0.19063 0.82362 0.11980
 H180 H 0.19137 0.73124 0.23178
 H181 H 0.28842 0.80057 0.20262
 H182 H 0.30404 0.78023 0.28615
 H183 H 0.32654 0.67441 0.34068
 H184 H 0.23044 0.68901 0.24294
 C185 C 0.68116 0.29064 0.67574
 C186 C 0.66918 0.25740 0.70006
 C187 C 0.69303 0.23827 0.73362
 C188 C 0.72904 0.25203 0.74255
 C189 C 0.74034 0.28553 0.71730
 C190 C 0.71627 0.30540 0.68580
 C191 C 0.75459 0.23226 0.77913
 C192 C 0.78252 0.25139 0.81012
 C193 C 0.80639 0.23326 0.84476
 C194 C 0.80238 0.19572 0.84921
 C195 C 0.77488 0.17598 0.81924
 C196 C 0.75116 0.19431 0.78411
 H197 H 0.66341 0.30454 0.64758
 H198 H 0.68308 0.21304 0.75322
 H199 H 0.76784 0.29671 0.72230
 H200 H 0.78525 0.28053 0.80941
 H201 H 0.82050 0.18190 0.87709
 H202 H 0.73050 0.17871 0.76025
 C203 C 0.29944 0.69946 0.66402
 C204 C 0.31331 0.73172 0.68853
 C205 C 0.28965 0.75432 0.71600
 C206 C 0.25193 0.74567 0.71715
 C207 C 0.23874 0.71239 0.69284
 C208 C 0.26262 0.68872 0.66837
 C209 C 0.22685 0.77128 0.74380
 C210 C 0.19267 0.75881 0.76616
 C211 C 0.16930 0.78274 0.79133
 C212 C 0.18112 0.81907 0.79743
 C213 C 0.21471 0.83233 0.77563
 C214 C 0.23705 0.80854 0.74770
 H215 H 0.31696 0.68295 0.63936
 H216 H 0.30115 0.77867 0.73617
 H217 H 0.21017 0.70457 0.69261
 H218 H 0.18398 0.73054 0.76465
 H219 H 0.16453 0.83702 0.82132
 H220 H 0.26229 0.81955 0.72912
 C221 C 0.29618 0.31037 0.66358
 C222 C 0.26354 0.32368 0.68205
 C223 C 0.23880 0.30109 0.71383
 C224 C 0.24546 0.26476 0.72527
 C225 C 0.27875 0.25213 0.70576
 C226 C 0.30474 0.27522 0.67725
 C227 C 0.21812 0.24060 0.75815
 C228 C 0.22877 0.20990 0.78837
 C229 C 0.20347 0.18689 0.81880
 C230 C 0.16767 0.19696 0.82292
 C231 C 0.15616 0.22728 0.79445
 C232 C 0.18122 0.24838 0.76080
 H233 H 0.31467 0.32680 0.63669
 H234 H 0.21456 0.31252 0.72989
 H235 H 0.28506 0.22451 0.71279
 H236 H 0.25694 0.20444 0.78994
 H237 H 0.14874 0.18189 0.85035
 H238 H 0.17148 0.27101 0.73746
 C239 C 0.68524 0.68173 0.69342
 C240 C 0.71605 0.66799 0.71723
 C241 C 0.73950 0.69080 0.75004
 C242 C 0.73375 0.72779 0.75625
 C243 C 0.70177 0.74075 0.73327
 C244 C 0.67684 0.71748 0.70342
 C245 C 0.76216 0.75266 0.78371
 C246 C 0.75342 0.78500 0.81159
 C247 C 0.78070 0.80837 0.83595
 C248 C 0.81664 0.79860 0.83312
 C249 C 0.82582 0.76641 0.80738
 C250 C 0.79876 0.74407 0.78159
 H251 H 0.66847 0.66519 0.66440
 H252 H 0.76271 0.67941 0.76944
 H253 H 0.69646 0.76882 0.73757
 H254 H 0.72553 0.79161 0.81574
 H255 H 0.83792 0.81592 0.85228
 H256 H 0.80685 0.72021 0.75935
 C257 C 0.22372 0.07327 0.14860
 C258 C 0.25347 0.06956 0.11133
 C259 C 0.28120 0.09761 0.11328
 C260 C 0.27503 0.13068 0.14104
 C261 C 0.24136 0.13600 0.16795
 C262 C 0.21784 0.10536 0.17607
 C263 C 0.17770 0.09764 0.17700
 C264 C 0.18422 0.06247 0.14570
 H265 H 0.30576 0.09589 0.08781
 H266 H 0.29498 0.15309 0.13605
 H267 H 0.16228 0.11575 0.14978
 H268 H 0.16698 0.09342 0.22203
 H269 H 0.17371 0.06176 0.10040
 H270 H 0.17674 0.03817 0.17246
 C271 C 0.70911 0.56852 0.68123
 C272 C 0.73884 0.56547 0.64386
 C273 C 0.76597 0.59393 0.64506
 C274 C 0.75972 0.62656 0.67385
 C275 C 0.72626 0.63131 0.70185
 C276 C 0.70291 0.60041 0.70925
 C277 C 0.66281 0.59234 0.70951
 C278 C 0.66976 0.55739 0.67780
 H279 H 0.79018 0.59266 0.61858
 H280 H 0.77947 0.64916 0.66892
 H281 H 0.64743 0.61046 0.68222
 H282 H 0.65184 0.58781 0.75433
 H283 H 0.65939 0.55680 0.63243
 H284 H 0.66239 0.53290 0.70420
 C285 C 0.79360 0.92409 0.17429
 C286 C 0.76342 0.92817 0.13911
 C287 C 0.73591 0.90008 0.14104
 C288 C 0.74186 0.86705 0.16879
 C289 C 0.77549 0.86134 0.19497
 C290 C 0.79965 0.89176 0.20087
 C291 C 0.83984 0.89929 0.19873
 C292 C 0.83296 0.93487 0.16903
 H293 H 0.71139 0.90207 0.11617
 H294 H 0.72146 0.84500 0.16488
 H295 H 0.85448 0.88161 0.16919
 H296 H 0.85164 0.90292 0.24290
 H297 H 0.84277 0.93610 0.12310
 H298 H 0.84092 0.95883 0.19610
 C299 C 0.27128 0.42398 0.65013
 C300 C 0.24250 0.42801 0.61195
 C301 C 0.21574 0.39921 0.60956
 C302 C 0.22150 0.36579 0.63623
 C303 C 0.25415 0.36048 0.66556
 C304 C 0.27706 0.39131 0.67586
 C305 C 0.31709 0.39962 0.67804
 C306 C 0.31061 0.43551 0.64906
 H307 H 0.19225 0.40110 0.58218
 H308 H 0.20199 0.34327 0.62915
 H309 H 0.33321 0.38262 0.64955
 H310 H 0.32703 0.40270 0.72347
 H311 H 0.32212 0.43769 0.60421
 H312 H 0.31708 0.45911 0.67773
 C313 C 0.92929 0.23957 0.19175
 C314 C 0.93261 0.26558 0.14763
 C315 C 0.90464 0.28951 0.14375
 C316 C 0.87164 0.28220 0.17415
 C317 C 0.86635 0.25108 0.20920
 C318 C 0.89723 0.23266 0.22217
 C319 C 0.90485 0.19406 0.23185
 C320 C 0.93981 0.20168 0.19723
 H321 H 0.90620 0.31081 0.11145
 H322 H 0.84900 0.29813 0.16424
 H323 H 0.88602 0.17407 0.21011
 H324 H 0.90968 0.18829 0.27859
 H325 H 0.93986 0.18712 0.15493
 H326 H 0.96449 0.19968 0.22395
 C327 C 0.41425 0.72842 0.66952
 C328 C 0.42196 0.75665 0.63022
 C329 C 0.39605 0.78268 0.62550
 C330 C 0.36118 0.77615 0.65006
 C331 C 0.35182 0.74358 0.67982
 C332 C 0.38027 0.72201 0.69371
 C333 C 0.38510 0.68249 0.69964
 C334 C 0.42246 0.68974 0.67198
 H335 H 0.40108 0.80581 0.59721
 H336 H 0.34059 0.79456 0.64009
 H337 H 0.36722 0.66472 0.67208
 H338 H 0.38632 0.67405 0.74603
 H339 H 0.42474 0.67731 0.62815
 H340 H 0.44493 0.68506 0.70232
 C341 C 0.08786 0.78648 0.13896
 C342 C 0.07722 0.75399 0.11142
 C343 C 0.10050 0.72555 0.11884
 C344 C 0.13537 0.73225 0.14342
 C345 C 0.14760 0.76736 0.16149
 C346 C 0.12156 0.79306 0.16245
 C347 C 0.11964 0.83304 0.15726
 C348 C 0.08217 0.82546 0.13078
 H349 H 0.09345 0.69911 0.10086
 H350 H 0.15370 0.71072 0.14358
 H351 H 0.13860 0.84625 0.12509
 H352 H 0.11884 0.84647 0.20049
 H353 H 0.08106 0.83326 0.08406
 H354 H 0.05990 0.83458 0.15874
 C355 C 0.56861 0.25304 0.67860
 C356 C 0.56456 0.22965 0.63101
 C357 C 0.59299 0.20701 0.61995
 C358 C 0.62677 0.21347 0.64768
 C359 C 0.63220 0.24218 0.68755
 C360 C 0.60137 0.25884 0.70669
 C361 C 0.59389 0.29675 0.72171
 C362 C 0.55805 0.29044 0.68998
 H363 H 0.59077 0.18752 0.58487
 H364 H 0.64951 0.19883 0.63307
 H365 H 0.61235 0.31722 0.70008
 H366 H 0.59049 0.30056 0.76945
 H367 H 0.55670 0.30690 0.64972
 H368 H 0.53414 0.29095 0.71946
 C369 C 0.73357 0.08641 0.87069
 C370 C 0.76454 0.06866 0.88582
 C371 C 0.79776 0.08205 0.86086
 C372 C 0.80050 0.11557 0.83214
 C373 C 0.77018 0.13644 0.82788
 C374 C 0.73639 0.11959 0.84234
 C375 C 0.70592 0.13352 0.87670
 C376 C 0.70280 0.09741 0.90786
 H377 H 0.82237 0.06856 0.86827
 H378 H 0.82700 0.12674 0.81877
 H379 H 0.68221 0.13818 0.84894
 H380 H 0.71475 0.15639 0.90561
 H381 H 0.67720 0.08132 0.89823
 H382 H 0.70979 0.09943 0.95488
 C383 C 0.22424 0.59483 0.35059
 C384 C 0.25197 0.57144 0.35868
 C385 C 0.28480 0.57937 0.32848
 C386 C 0.29147 0.61279 0.30030
 C387 C 0.26559 0.63902 0.30247
 C388 C 0.23093 0.62797 0.32305
 C389 C 0.20676 0.64639 0.36422
 C390 C 0.19951 0.61025 0.39439
 H391 H 0.30659 0.56142 0.33153
 H392 H 0.31818 0.61949 0.28232
 H393 H 0.18259 0.65595 0.34203
 H394 H 0.22171 0.66684 0.39184
 H395 H 0.17113 0.59905 0.38977
 H396 H 0.21035 0.60975 0.43944
 C397 C 0.26966 0.91159 0.83754
 C398 C 0.24241 0.93482 0.85051
 C399 C 0.20942 0.92927 0.82069
 C400 C 0.20195 0.89758 0.78826
 C401 C 0.22702 0.87054 0.78644
 C402 C 0.26207 0.87996 0.80627
 C403 C 0.28640 0.85924 0.84329
 C404 C 0.29464 0.89374 0.87747
 H405 H 0.18811 0.94751 0.82713
 H406 H 0.17510 0.89250 0.77051
 H407 H 0.31009 0.85041 0.81832
 H408 H 0.27149 0.83772 0.86921
 H409 H 0.32311 0.90475 0.87242
 H410 H 0.28430 0.89224 0.92301
 C411 C 0.76568 0.40717 0.37177
 C412 C 0.73648 0.42855 0.38180
 C413 C 0.70417 0.41944 0.35158
 C414 C 0.69958 0.38647 0.32147
 C415 C 0.72702 0.36180 0.32190
 C416 C 0.76103 0.37449 0.34251
 C417 C 0.78651 0.35680 0.38181
 C418 C 0.79157 0.39249 0.41386
 H419 H 0.68129 0.43599 0.35584
 H420 H 0.67338 0.37889 0.30297
 H421 H 0.81129 0.34931 0.35834
 H422 H 0.77288 0.33494 0.40866
 H423 H 0.81928 0.40552 0.40895
 H424 H 0.78083 0.39131 0.45927
 C425 C 0.05753 0.22341 0.83819
 C426 C 0.05580 0.25484 0.87143
 C427 C 0.08362 0.28209 0.86065
 C428 C 0.11519 0.27420 0.82914
 C429 C 0.11930 0.23924 0.80669
 C430 C 0.08794 0.21582 0.80681
 C431 C 0.07783 0.17609 0.80808
 C432 C 0.04459 0.18479 0.84395
 H433 H 0.08339 0.30791 0.88245
 H434 H 0.13785 0.29413 0.82843
 H435 H 0.09584 0.15935 0.83315
 H436 H 0.07079 0.16542 0.76406
 H437 H 0.04552 0.17484 0.88959
 H438 H 0.01868 0.17856 0.82086
 C439 C 0.57244 0.73059 0.34310
 C440 C 0.57148 0.75767 0.38533
 C441 C 0.60141 0.78310 0.38734
 C442 C 0.63366 0.77656 0.35717
 C443 C 0.63621 0.74469 0.32440
 C444 C 0.60382 0.72432 0.31305
 C445 C 0.59286 0.68508 0.30610
 C446 C 0.55857 0.69209 0.34032
 H447 H 0.60156 0.80551 0.41750
 H448 H 0.65765 0.79396 0.36550
 H449 H 0.61002 0.66645 0.32913
 H450 H 0.58741 0.67787 0.25983
 H451 H 0.55736 0.67871 0.38369
 H452 H 0.53358 0.68833 0.31390
 C453 C 0.90229 0.71549 0.86297
 C454 C 0.92734 0.74445 0.87446
 C455 C 0.92429 0.77626 0.84190
 C456 C 0.89271 0.78149 0.81039
 C457 C 0.86340 0.75534 0.81240
 C458 C 0.87059 0.72101 0.83300
 C459 C 0.84869 0.69523 0.87110
 C460 C 0.88345 0.68878 0.90317
 H461 H 0.94435 0.79862 0.84605
 H462 H 0.88939 0.80776 0.79151
 H463 H 0.83767 0.67124 0.84658
 H464 H 0.82862 0.70870 0.89839
 H465 H 0.89263 0.66120 0.89656
 H466 H 0.88346 0.69802 0.94903
 C467 C 0.40523 0.22094 0.35172
 C468 C 0.42913 0.24903 0.37145
 C469 C 0.42682 0.28304 0.34496
 C470 C 0.39686 0.29006 0.31041
 C471 C 0.36838 0.26338 0.30282
 C472 C 0.37530 0.22804 0.31845
 C473 C 0.35193 0.19935 0.34834
 C474 C 0.38479 0.19129 0.38418
 H475 H 0.44607 0.30519 0.35555
 H476 H 0.39409 0.31737 0.29556
 H477 H 0.34316 0.17711 0.31822
 H478 H 0.32988 0.21042 0.37466
 H479 H 0.39509 0.16452 0.37433
 H480 H 0.38171 0.19728 0.43119
 C481 C 0.79403 0.89118 0.93069
 C482 C 0.76484 0.91157 0.91797
 C483 C 0.74019 0.89829 0.87530
 C484 C 0.74453 0.86445 0.84841
 C485 C 0.77312 0.84309 0.86485
 C486 C 0.79778 0.85799 0.90553
 C487 C 0.81089 0.84237 0.96093
 C488 C 0.80687 0.87900 0.98857
 H489 H 0.71778 0.91388 0.86289
 H490 H 0.72564 0.85519 0.81505
 H491 H 0.83951 0.83523 0.95764
 H492 H 0.79176 0.82084 0.97899
 H493 H 0.83314 0.89298 1.00087
 H494 H 0.78549 0.87878 1.02292
 C495 C 0.28564 0.39459 0.41178
 C496 C 0.25692 0.41418 0.39377
 C497 C 0.23605 0.40074 0.34642
 C498 C 0.24354 0.36749 0.32002
 C499 C 0.27147 0.34690 0.34151
 C500 C 0.29241 0.36196 0.38696
 C501 C 0.30174 0.34603 0.44430
 C502 C 0.29439 0.38204 0.47161
 H503 H 0.21426 0.41580 0.32992
 H504 H 0.22762 0.35814 0.28301
 H505 H 0.33065 0.33985 0.44655
 H506 H 0.28209 0.32371 0.45810
 H507 H 0.31907 0.39664 0.48927
 H508 H 0.27055 0.38067 0.50148
 C509 C 0.19697 0.09997 0.90737
 C510 C 0.22963 0.08440 0.89588
 C511 C 0.25342 0.10188 0.85502
 C512 C 0.24506 0.13480 0.82925
 C513 C 0.21346 0.15206 0.84558
 C514 C 0.18938 0.13291 0.88374
 C515 C 0.17270 0.14477 0.93966
 C516 C 0.18081 0.10864 0.96516
 H517 H 0.27852 0.09030 0.84309
 H518 H 0.26377 0.14653 0.79713
 H519 H 0.14318 0.14795 0.93594
 H520 H 0.18840 0.16790 0.96011
 H521 H 0.15608 0.09110 0.97509
 H522 H 0.20111 0.11072 1.00072
 C523 C 0.70390 0.60527 0.43771
 C524 C 0.73256 0.58465 0.42218
 C525 C 0.75612 0.59767 0.37735
 C526 C 0.75151 0.63156 0.35124
 C527 C 0.72384 0.65341 0.37065
 C528 C 0.69989 0.63867 0.41321
 C529 C 0.68856 0.65421 0.47012
 C530 C 0.69281 0.61741 0.49688
 H531 H 0.77799 0.58185 0.36273
 H532 H 0.76959 0.64043 0.31612
 H533 H 0.66001 0.66172 0.46987
 H534 H 0.70843 0.67543 0.48662
 H535 H 0.66674 0.60371 0.51146
 H536 H 0.71507 0.61723 0.52915
 C537 C 0.09402 0.72891 0.87157
 C538 C 0.06963 0.75559 0.88171
 C539 C 0.07371 0.78718 0.84764
 C540 C 0.10442 0.79403 0.81240
 C541 C 0.13265 0.77034 0.81262
 C542 C 0.12523 0.73641 0.83836
 C543 C 0.14773 0.71546 0.87801
 C544 C 0.11374 0.70721 0.91435
 H545 H 0.05425 0.80765 0.85060
 H546 H 0.10735 0.81940 0.78914
 H547 H 0.16874 0.73275 0.90093
 H548 H 0.15771 0.69125 0.85631
 H549 H 0.11506 0.71962 0.95848
 H550 H 0.10419 0.67825 0.91358
 C551 C 0.60423 0.21559 0.40521
 C552 C 0.57485 0.23678 0.39634
 C553 C 0.57762 0.26237 0.35108
 C554 C 0.61077 0.27022 0.32228
 C555 C 0.64194 0.25304 0.33888
 C556 C 0.63722 0.22359 0.37695
 C557 C 0.65829 0.21489 0.42972
 C558 C 0.62233 0.20631 0.46065
 H559 H 0.55509 0.27854 0.34159
 H560 H 0.61282 0.29213 0.29106
 H561 H 0.67388 0.23885 0.44786
 H562 H 0.67410 0.19081 0.42298
 H563 H 0.61705 0.22542 0.49655
 H564 H 0.61751 0.17733 0.47197
 C565 C 0.89572 0.28311 0.87724
 C566 C 0.90181 0.27115 0.93393
 C567 C 0.87206 0.25558 0.96563
 C568 C 0.83904 0.24671 0.93784
 C569 C 0.83528 0.25319 0.87781
 C570 C 0.86293 0.27430 0.84966
 C571 C 0.88115 0.26848 0.79249
 C572 C 0.91692 0.27803 0.82262
 H573 H 0.87548 0.24687 1.01023
 H574 H 0.81783 0.23148 0.96172
 H575 H 0.87422 0.28870 0.75941
 H576 H 0.87809 0.23996 0.77775
 H577 H 0.93058 0.30372 0.80680
 H578 H 0.93460 0.25504 0.82541
 C579 C 0.39197 0.78055 0.40035
 C580 C 0.42090 0.75837 0.39444
 C581 C 0.41866 0.73167 0.35083
 C582 C 0.38617 0.72386 0.32102
 C583 C 0.35525 0.74245 0.33457
 C584 C 0.35971 0.77275 0.37080
 C585 C 0.33742 0.78332 0.42170
 C586 C 0.37263 0.79174 0.45406
 H587 H 0.44095 0.71471 0.34345
 H588 H 0.38442 0.70142 0.29085
 H589 H 0.32068 0.76019 0.44053
 H590 H 0.32252 0.80765 0.41243
 H591 H 0.37634 0.77346 0.49163
 H592 H 0.37794 0.82090 0.46355
 C593 C 0.25403 0.91612 0.14231
 C594 C 0.26986 0.91881 0.08680
 C595 C 0.28546 0.88801 0.06445
 C596 C 0.27876 0.85421 0.09212
 C597 C 0.25704 0.85132 0.14283
 C598 C 0.24816 0.88325 0.16998
 C599 C 0.21412 0.89403 0.19844
 C600 C 0.22044 0.93017 0.16765
 H601 H 0.29907 0.88913 0.02256
 H602 H 0.28738 0.83017 0.07091
 H603 H 0.21673 0.89607 0.24658
 H604 H 0.18955 0.87826 0.18312
 H605 H 0.22648 0.95296 0.19815
 H606 H 0.19947 0.93481 0.13459
 C607 C 0.71713 0.40577 0.66071
 C608 C 0.74274 0.41171 0.61609
 C609 C 0.76538 0.38354 0.60357
 C610 C 0.75791 0.34894 0.62832
 C611 C 0.72760 0.34215 0.66542
 C612 C 0.70970 0.37204 0.68448
 C613 C 0.67085 0.37881 0.69472
 C614 C 0.67919 0.41617 0.66903
 H615 H 0.78653 0.38722 0.57088
 H616 H 0.77399 0.32703 0.61497
 H617 H 0.66367 0.37924 0.74183
 H618 H 0.65201 0.36232 0.66674
 H619 H 0.67729 0.43814 0.70156
 H620 H 0.66480 0.42019 0.62744
 C621 C 0.73970 0.11141 0.10725
 C622 C 0.76370 0.08424 0.11492
 C623 C 0.79406 0.09185 0.15034
 C624 C 0.79889 0.12477 0.17975
 C625 C 0.77381 0.15150 0.17408
 C626 C 0.74452 0.14436 0.13639
 C627 C 0.70482 0.14514 0.14815
 C628 C 0.69974 0.10957 0.11587
 H629 H 0.81420 0.07224 0.15541
 H630 H 0.82253 0.12942 0.20689
 H631 H 0.69277 0.16775 0.12521
 H632 H 0.69786 0.14266 0.19528
 H633 H 0.68517 0.11176 0.07397
 H634 H 0.68982 0.08670 0.14421
 C635 C 0.21943 0.61378 0.57492
 C636 C 0.23862 0.58425 0.59165
 C637 C 0.26479 0.58952 0.63543
 C638 C 0.27052 0.62294 0.66297
 C639 C 0.25054 0.65235 0.64722
 C640 C 0.22522 0.64729 0.60233
 C641 C 0.18565 0.65277 0.60409
 C642 C 0.17946 0.61655 0.57426
 H643 H 0.28159 0.56793 0.64732
 H644 H 0.29144 0.62616 0.69566
 H645 H 0.17863 0.67575 0.57631
 H646 H 0.17447 0.65300 0.64920
 H647 H 0.16894 0.61866 0.52923
 H648 H 0.16475 0.59582 0.60202
 C649 C 0.89174 0.72224 0.12535
 C650 C 0.92208 0.74674 0.12628
 C651 C 0.92220 0.77512 0.16698
 C652 C 0.89064 0.78197 0.19819
 C653 C 0.85833 0.76066 0.18902
 C654 C 0.86044 0.72897 0.15649
 C655 C 0.83643 0.71465 0.10883
 C656 C 0.87050 0.70789 0.07445
 H657 H 0.94559 0.79403 0.17058
 H658 H 0.89058 0.80591 0.22509
 H659 H 0.82026 0.73565 0.08914
 H660 H 0.82065 0.68945 0.12187
 H661 H 0.87424 0.72569 0.03570
 H662 H 0.87410 0.67885 0.06659
 C663 C 0.37980 0.22168 0.61413
 C664 C 0.40913 0.24750 0.61239
 C665 C 0.40565 0.27945 0.64457
 C666 C 0.37223 0.28727 0.66943
 C667 C 0.34134 0.26341 0.66265
 C668 C 0.34670 0.22939 0.63902
 C669 C 0.32572 0.20890 0.59327
 C670 C 0.36175 0.20083 0.56572
 H671 H 0.42799 0.29967 0.64690
 H672 H 0.37000 0.31313 0.69046
 H673 H 0.30951 0.22645 0.56590
 H674 H 0.31056 0.18457 0.61129
 H675 H 0.36647 0.21427 0.52291
 H676 H 0.36718 0.17180 0.56706
 C677 C 0.11478 0.27127 0.09369
 C678 C 0.08559 0.24536 0.09270
 C679 C 0.09142 0.21081 0.11423
 C680 C 0.12446 0.20343 0.13941
 C681 C 0.15331 0.23010 0.14312
 C682 C 0.14785 0.26396 0.11858
 C683 C 0.15186 0.30079 0.14502
 C684 C 0.11620 0.30866 0.11714
 H685 H 0.07013 0.18945 0.11281
 H686 H 0.12707 0.17672 0.15704
 H687 H 0.17534 0.31719 0.12645
 H688 H 0.15029 0.30034 0.19345
 H689 H 0.11920 0.32919 0.08193
 H690 H 0.09427 0.31282 0.14935
 C691 C 0.60989 0.76857 0.61585
 C692 C 0.57837 0.74573 0.61966
 C693 C 0.57971 0.71381 0.65225
 C694 C 0.61107 0.70601 0.68213
 C695 C 0.64243 0.72960 0.67982
 C696 C 0.64131 0.76076 0.64546
 C697 C 0.64857 0.79934 0.66252
 C698 C 0.61466 0.80769 0.62989
 H699 H 0.55646 0.69459 0.65433
 H700 H 0.61093 0.68109 0.70662
 H701 H 0.67377 0.81151 0.64203
 H702 H 0.64623 0.80372 0.71032
 H703 H 0.62032 0.82438 0.59026
 H704 H 0.59282 0.81692 0.65869
   
