data_POSCAR
  _audit_creation_date              2014-09-24
  _audit_creation_method            'ToBaCCo'
  _symmetry_space_group_name_H-M    'P1'
  _symmetry_Int_Tables_number       1
  _symmetry_cell_setting            triclinic
  loop_
  _symmetry_equiv_pos_as_xyz
 x,y,z
_cell_length_a 42.1341
_cell_length_b 42.1002
_cell_length_c 42.6330
_cell_angle_alpha 89.973100
_cell_angle_beta 89.968000
_cell_angle_gamma 89.924100
loop_
  _atom_site_label
  _atom_site_type_symbol
  _atom_site_fract_x
  _atom_site_fract_y
  _atom_site_fract_z
N1 N 0.39265 0.30444 0.32783
 N2 N 0.39249 0.32681 0.30627
 C3 C 0.41663 0.32164 0.28616
 C4 C 0.43257 0.29459 0.29562
 C5 C 0.41681 0.28429 0.32215
 H6 H 0.42159 0.33571 0.26551
 H7 H 0.42175 0.26299 0.33549
 Cu8 Cu 0.35941 0.35922 0.30523
 Cu9 Cu 0.35937 0.30123 0.35935
 Cu10 Cu 0.30147 0.35921 0.35936
 N11 N 0.32704 0.39234 0.30627
 N12 N 0.30468 0.39250 0.32784
 C13 C 0.28455 0.41669 0.32216
 C14 C 0.29484 0.43245 0.29562
 C15 C 0.32187 0.41649 0.28616
 H16 H 0.26327 0.42163 0.33548
 H17 H 0.33592 0.42143 0.26550
 N18 N 0.30472 0.32671 0.39254
 N19 N 0.32690 0.30450 0.39253
 C20 C 0.32184 0.28474 0.41688
 C21 C 0.29518 0.29496 0.43281
 C22 C 0.28497 0.32165 0.41689
 H23 H 0.33567 0.26372 0.42198
 H24 H 0.26397 0.33550 0.42199
 H25 H 0.32412 0.32392 0.33440
 H26 H 0.34940 0.34921 0.36030
 N27 N 0.39274 0.80454 -0.17310
 N28 N 0.39258 0.82689 -0.19469
 C29 C 0.41667 0.82166 -0.21485
 C30 C 0.43253 0.79449 -0.20545
 C31 C 0.41685 0.78433 -0.17878
 H32 H 0.42165 0.83580 -0.23546
 H33 H 0.42181 0.76311 -0.16532
 Cu34 Cu 0.35950 0.85936 -0.19564
 Cu35 Cu 0.35955 0.80143 -0.14145
 Cu36 Cu 0.30172 0.85946 -0.14137
 N37 N 0.32709 0.89250 -0.19463
 N38 N 0.30480 0.89268 -0.17300
 C39 C 0.28460 0.91682 -0.17864
 C40 C 0.29471 0.93249 -0.20534
 C41 C 0.32184 0.91660 -0.21479
 H42 H 0.26343 0.92180 -0.16515
 H43 H 0.33593 0.92156 -0.23543
 N44 N 0.30503 0.82702 -0.10814
 N45 N 0.32718 0.80477 -0.10818
 C46 C 0.32213 0.78503 -0.08380
 C47 C 0.29551 0.79531 -0.06782
 C48 C 0.28532 0.82200 -0.08374
 H49 H 0.33593 0.76398 -0.07873
 H50 H 0.26435 0.83588 -0.07861
 H51 H 0.32428 0.82412 -0.16634
 H52 H 0.34964 0.84940 -0.14053
 N53 N 0.89236 0.30527 -0.17249
 N54 N 0.89208 0.32749 -0.19420
 C55 C 0.91624 0.32229 -0.21429
 C56 C 0.93232 0.29537 -0.20464
 C57 C 0.91662 0.28520 -0.17804
 H58 H 0.92110 0.33622 -0.23505
 H59 H 0.92166 0.26401 -0.16457
 Cu60 Cu 0.85876 0.35969 -0.19541
 Cu61 Cu 0.85913 0.30204 -0.14095
 Cu62 Cu 0.80082 0.35959 -0.14125
 N63 N 0.82614 0.39262 -0.19456
 N64 N 0.80378 0.39274 -0.17299
 C65 C 0.78351 0.41679 -0.17873
 C66 C 0.79364 0.43248 -0.20541
 C67 C 0.82086 0.41669 -0.21475
 H68 H 0.76229 0.42172 -0.16528
 H69 H 0.83502 0.42170 -0.23534
 N70 N 0.80430 0.32728 -0.10789
 N71 N 0.82665 0.30524 -0.10780
 C72 C 0.82173 0.28553 -0.08338
 C73 C 0.79498 0.29559 -0.06750
 C74 C 0.78458 0.32215 -0.08353
 H75 H 0.83571 0.26462 -0.07821
 H76 H 0.76345 0.33584 -0.07850
 H77 H 0.82370 0.32435 -0.16603
 H78 H 0.84880 0.34997 -0.14028
 N79 N 0.89228 0.80504 0.32789
 N80 N 0.89211 0.82740 0.30632
 C81 C 0.91624 0.82224 0.28621
 C82 C 0.93220 0.79520 0.29567
 C83 C 0.91646 0.78490 0.32221
 H84 H 0.92117 0.83629 0.26554
 H85 H 0.92141 0.76360 0.33554
 Cu86 Cu 0.85896 0.85975 0.30528
 Cu87 Cu 0.85900 0.80182 0.35943
 Cu88 Cu 0.80094 0.85966 0.35927
 N89 N 0.82645 0.89273 0.30610
 N90 N 0.80403 0.89287 0.32760
 C91 C 0.78380 0.91694 0.32180
 C92 C 0.79403 0.93260 0.29514
 C93 C 0.82125 0.91679 0.28588
 H94 H 0.76253 0.92188 0.33517
 H95 H 0.83545 0.92176 0.26531
 N96 N 0.80427 0.82724 0.39255
 N97 N 0.82651 0.80509 0.39260
 C98 C 0.82150 0.78537 0.41699
 C99 C 0.79482 0.79556 0.43291
 C100 C 0.78454 0.82218 0.41693
 H101 H 0.83540 0.76440 0.42214
 H102 H 0.76351 0.83600 0.42200
 H103 H 0.82372 0.82440 0.33441
 H104 H 0.84888 0.84976 0.36033
 N105 N 0.60665 0.69470 0.32909
 N106 N 0.60614 0.67165 0.30826
 C107 C 0.58230 0.67699 0.28787
 C108 C 0.56718 0.70481 0.29644
 C109 C 0.58315 0.71541 0.32270
 H110 H 0.57697 0.66239 0.26769
 H111 H 0.57879 0.73723 0.33538
 Cu112 Cu 0.63778 0.63783 0.30846
 Cu113 Cu 0.63988 0.69779 0.36060
 Cu114 Cu 0.69769 0.64003 0.36061
 N115 N 0.67163 0.60621 0.30827
 N116 N 0.69465 0.60675 0.32910
 C117 C 0.71537 0.58326 0.32272
 C118 C 0.70480 0.56725 0.29647
 C119 C 0.67699 0.58235 0.28789
 H120 H 0.73718 0.57892 0.33541
 H121 H 0.66241 0.57698 0.26772
 N122 N 0.69462 0.67261 0.39366
 N123 N 0.67241 0.69479 0.39365
 C124 C 0.67757 0.71469 0.41785
 C125 C 0.70433 0.70459 0.43367
 C126 C 0.71449 0.67783 0.41786
 H127 H 0.66373 0.73573 0.42288
 H128 H 0.73554 0.66403 0.42290
 H129 H 0.67396 0.67408 0.33465
 H130 H 0.64977 0.64984 0.36273
 N131 N 0.60772 0.19495 -0.17224
 N132 N 0.60795 0.17264 -0.19386
 C133 C 0.58385 0.17786 -0.21397
 C134 C 0.56786 0.20486 -0.20447
 C135 C 0.58355 0.21509 -0.17790
 H136 H 0.57896 0.16386 -0.23467
 H137 H 0.57855 0.23633 -0.16451
 Cu138 Cu 0.64111 0.14031 -0.19494
 Cu139 Cu 0.64091 0.19808 -0.14067
 Cu140 Cu 0.69898 0.14026 -0.14081
 N141 N 0.67360 0.10729 -0.19404
 N142 N 0.69594 0.10710 -0.17248
 C143 C 0.71616 0.08300 -0.17823
 C144 C 0.70600 0.06738 -0.20492
 C145 C 0.67883 0.08324 -0.21425
 H146 H 0.73737 0.07802 -0.16481
 H147 H 0.66470 0.07830 -0.23484
 N148 N 0.69557 0.17263 -0.10753
 N149 N 0.67332 0.19477 -0.10748
 C150 C 0.67830 0.21450 -0.08311
 C151 C 0.70499 0.20434 -0.06722
 C152 C 0.71530 0.17772 -0.08318
 H153 H 0.66441 0.23548 -0.07801
 H154 H 0.73637 0.16396 -0.07814
 H155 H 0.67627 0.17557 -0.16567
 H156 H 0.65103 0.15013 -0.13984
 N157 N 0.10667 0.69465 -0.17143
 N158 N 0.10616 0.67164 -0.19229
 C159 C 0.08225 0.67697 -0.21261
 C160 C 0.06708 0.70473 -0.20393
 C161 C 0.08311 0.71531 -0.17770
 H162 H 0.07688 0.66239 -0.23280
 H163 H 0.07873 0.73710 -0.16496
 Cu164 Cu 0.13787 0.63785 -0.19214
 Cu165 Cu 0.13998 0.69781 -0.14000
 Cu166 Cu 0.19777 0.64003 -0.14002
 N167 N 0.17170 0.60620 -0.19235
 N168 N 0.19470 0.60673 -0.17149
 C169 C 0.21540 0.58321 -0.17780
 C170 C 0.20486 0.56719 -0.20406
 C171 C 0.17708 0.58231 -0.21270
 H172 H 0.23718 0.57886 -0.16508
 H173 H 0.16252 0.57693 -0.23289
 N174 N 0.19477 0.67263 -0.10701
 N175 N 0.17259 0.69484 -0.10701
 C176 C 0.17783 0.71477 -0.08286
 C177 C 0.20461 0.70465 -0.06707
 C178 C 0.21469 0.67785 -0.08286
 H179 H 0.16403 0.73583 -0.07782
 H180 H 0.23573 0.66403 -0.07784
 H181 H 0.17403 0.67412 -0.16594
 H182 H 0.14984 0.64988 -0.13787
 N183 N 0.10721 0.19525 0.32801
 N184 N 0.10744 0.17293 0.30641
 C185 C 0.08338 0.17815 0.28626
 C186 C 0.06740 0.20517 0.29573
 C187 C 0.08306 0.21541 0.32231
 H188 H 0.07850 0.16414 0.26557
 H189 H 0.07808 0.23667 0.33566
 Cu190 Cu 0.14055 0.14056 0.30536
 Cu191 Cu 0.14039 0.19836 0.35962
 Cu192 Cu 0.19833 0.14042 0.35957
 N193 N 0.17295 0.10749 0.30634
 N194 N 0.19525 0.10726 0.32793
 C195 C 0.21542 0.08313 0.32221
 C196 C 0.20521 0.06747 0.29561
 C197 C 0.17819 0.08343 0.28616
 H198 H 0.23667 0.07815 0.33556
 H199 H 0.16419 0.07854 0.26548
 N200 N 0.19496 0.17278 0.39282
 N201 N 0.17278 0.19498 0.39285
 C202 C 0.17782 0.21469 0.41722
 C203 C 0.20447 0.20443 0.43313
 C204 C 0.21468 0.17778 0.41718
 H205 H 0.16400 0.23573 0.42232
 H206 H 0.23571 0.16395 0.42223
 H207 H 0.17571 0.17580 0.33466
 H208 H 0.15038 0.15041 0.36046
 N209 N 0.60661 0.30532 0.67122
 N210 N 0.60602 0.32830 0.69211
 C211 C 0.58214 0.32290 0.71246
 C212 C 0.56709 0.29512 0.70378
 C213 C 0.58314 0.28460 0.67750
 H214 H 0.57673 0.33743 0.73268
 H215 H 0.57885 0.26283 0.66474
 Cu216 Cu 0.63760 0.36214 0.69195
 Cu217 Cu 0.63989 0.30226 0.63972
 Cu218 Cu 0.69747 0.36008 0.63971
 N219 N 0.67133 0.39383 0.69214
 N220 N 0.69431 0.39334 0.67123
 C221 C 0.71497 0.41683 0.67756
 C222 C 0.70442 0.43280 0.70387
 C223 C 0.67668 0.41767 0.71254
 H224 H 0.73673 0.42118 0.66481
 H225 H 0.66216 0.42299 0.73279
 N226 N 0.69457 0.32751 0.60666
 N227 N 0.67245 0.30530 0.60667
 C228 C 0.67772 0.28539 0.58250
 C229 C 0.70446 0.29552 0.56667
 C230 C 0.71449 0.32231 0.58247
 H231 H 0.66397 0.26434 0.57746
 H232 H 0.73549 0.33613 0.57743
 H233 H 0.67389 0.32596 0.66564
 H234 H 0.64959 0.35022 0.63764
 N235 N 0.60730 0.80493 1.17188
 N236 N 0.60713 0.82755 1.19317
 C237 C 0.58314 0.82227 1.21340
 C238 C 0.56761 0.79490 1.20428
 C239 C 0.58347 0.78453 1.17784
 H240 H 0.57799 0.83651 1.23389
 H241 H 0.57881 0.76305 1.16473
 Cu242 Cu 0.63960 0.86052 1.19361
 Cu243 Cu 0.64052 0.80179 1.14030
 Cu244 Cu 0.69826 0.85968 1.14022
 N245 N 0.67252 0.89303 1.19312
 N246 N 0.69512 0.89291 1.17180
 C247 C 0.71552 0.91672 1.17777
 C248 C 0.70518 0.93253 1.20426
 C249 C 0.67783 0.91698 1.21340
 H250 H 0.73701 0.92137 1.16467
 H251 H 0.66364 0.92205 1.23393
 N252 N 0.69508 0.82720 1.10707
 N253 N 0.67294 0.80501 1.10711
 C254 C 0.67803 0.78522 1.08280
 C255 C 0.70467 0.79541 1.06686
 C256 C 0.71484 0.82210 1.08273
 H257 H 0.66423 0.76421 1.07775
 H258 H 0.73582 0.83592 1.07761
 H259 H 0.67531 0.82485 1.16559
 H260 H 0.65037 0.84974 1.13885
 N261 N 0.10721 0.30496 1.17177
 N262 N 0.10735 0.32730 1.19334
 C263 C 0.08324 0.32212 1.21347
 C264 C 0.06734 0.29509 1.20400
 C265 C 0.08309 0.28482 1.17745
 H266 H 0.07829 0.33614 1.23414
 H267 H 0.07819 0.26354 1.16412
 Cu268 Cu 0.14042 0.35964 1.19438
 Cu269 Cu 0.14048 0.30173 1.14023
 Cu270 Cu 0.19832 0.35960 1.14022
 N271 N 0.17276 0.39270 1.19334
 N272 N 0.19510 0.39286 1.17176
 C273 C 0.21523 0.41697 1.17745
 C274 C 0.20497 0.43270 1.20401
 C275 C 0.17794 0.41680 1.21348
 H276 H 0.23652 0.42188 1.16412
 H277 H 0.16392 0.42173 1.23416
 N278 N 0.19509 0.32715 1.10704
 N279 N 0.17294 0.30497 1.10705
 C280 C 0.17805 0.28520 1.08273
 C281 C 0.20471 0.29538 1.06682
 C282 C 0.21487 0.32205 1.08272
 H283 H 0.16426 0.26418 1.07766
 H284 H 0.23588 0.33586 1.07763
 H285 H 0.17572 0.32432 1.16519
 H286 H 0.15040 0.34968 1.13931
 N287 N 0.10737 0.80494 0.67222
 N288 N 0.10756 0.82722 0.69386
 C289 C 0.08344 0.82202 0.71397
 C290 C 0.06749 0.79505 0.70444
 C291 C 0.08322 0.78484 0.67785
 H292 H 0.07852 0.83601 0.73469
 H293 H 0.07827 0.76361 0.66445
 Cu294 Cu 0.14069 0.85953 0.69493
 Cu295 Cu 0.14058 0.80174 0.64063
 Cu296 Cu 0.19841 0.85961 0.64056
 N297 N 0.17306 0.89260 0.69385
 N298 N 0.19531 0.89280 0.67218
 C299 C 0.21549 0.91688 0.67785
 C300 C 0.20536 0.93254 0.70450
 C301 C 0.17835 0.91664 0.71403
 H302 H 0.23673 0.92179 0.66445
 H303 H 0.16443 0.92150 0.73480
 N304 N 0.19510 0.82722 0.60735
 N305 N 0.17296 0.80504 0.60739
 C306 C 0.17801 0.78529 0.58304
 C307 C 0.20463 0.79550 0.56707
 C308 C 0.21482 0.82216 0.58297
 H309 H 0.16421 0.76427 0.57797
 H310 H 0.23581 0.83597 0.57785
 H311 H 0.17589 0.82428 0.66554
 H312 H 0.15048 0.84970 0.63980
 N313 N 0.39295 0.69537 0.67180
 N314 N 0.39276 0.67306 0.69343
 C315 C 0.41679 0.67830 0.71360
 C316 C 0.43269 0.70533 0.70412
 C317 C 0.41703 0.71554 0.67750
 H318 H 0.42165 0.66433 0.73435
 H319 H 0.42193 0.73683 0.66416
 Cu320 Cu 0.35968 0.64072 0.69452
 Cu321 Cu 0.35973 0.69857 0.64024
 Cu322 Cu 0.30186 0.64073 0.64035
 N323 N 0.32733 0.60766 0.69352
 N324 N 0.30503 0.60751 0.67193
 C325 C 0.28488 0.58339 0.67762
 C326 C 0.29511 0.56765 0.70419
 C327 C 0.32212 0.58355 0.71366
 H328 H 0.26364 0.57847 0.66426
 H329 H 0.33612 0.57860 0.73434
 N330 N 0.30514 0.67313 0.60711
 N331 N 0.32730 0.69530 0.60706
 C332 C 0.32219 0.71505 0.58271
 C333 C 0.29552 0.70485 0.56685
 C334 C 0.28537 0.67820 0.58280
 H335 H 0.33597 0.73608 0.57759
 H336 H 0.26435 0.66439 0.57777
 H337 H 0.32447 0.67604 0.66524
 H338 H 0.34979 0.65063 0.63942
 N339 N 0.39335 0.19470 1.17155
 N340 N 0.39350 0.17204 1.19282
 C341 C 0.41751 0.17726 1.21303
 C342 C 0.43307 0.20462 1.20391
 C343 C 0.41720 0.21506 1.17749
 H344 H 0.42263 0.16298 1.23351
 H345 H 0.42185 0.23659 1.16443
 Cu346 Cu 0.36100 0.13911 1.19330
 Cu347 Cu 0.36004 0.19800 1.14009
 Cu348 Cu 0.30223 0.14018 1.14011
 N349 N 0.32803 0.10665 1.19286
 N350 N 0.30541 0.10685 1.17158
 C351 C 0.28502 0.08302 1.17753
 C352 C 0.29537 0.06712 1.20395
 C353 C 0.32273 0.08263 1.21308
 H354 H 0.26352 0.07841 1.16445
 H355 H 0.33695 0.07747 1.23357
 N356 N 0.30535 0.17275 1.10703
 N357 N 0.32750 0.19493 1.10702
 C358 C 0.32233 0.21478 1.08276
 C359 C 0.29564 0.20464 1.06691
 C360 C 0.28552 0.17791 1.08278
 H361 H 0.33613 0.23580 1.07767
 H362 H 0.26453 0.16409 1.07771
 H363 H 0.32530 0.17494 1.16545
 H364 H 0.35015 0.15008 1.13859
 N365 N 0.89276 0.69538 1.17179
 N366 N 0.89256 0.67309 1.19344
 C367 C 0.91664 0.67830 1.21356
 C368 C 0.93258 0.70529 1.20403
 C369 C 0.91688 0.71551 1.17743
 H370 H 0.92153 0.66432 1.23429
 H371 H 0.92182 0.73676 1.16404
 Cu372 Cu 0.85945 0.64079 1.19460
 Cu373 Cu 0.85955 0.69855 1.14022
 Cu374 Cu 0.80164 0.64075 1.14041
 N375 N 0.82706 0.60776 1.19366
 N376 N 0.80475 0.60760 1.17208
 C377 C 0.78459 0.58351 1.17781
 C378 C 0.79481 0.56780 1.20440
 C379 C 0.82184 0.58369 1.21384
 H380 H 0.76335 0.57857 1.16445
 H381 H 0.83585 0.57875 1.23452
 N382 N 0.80497 0.67307 1.10711
 N383 N 0.82715 0.69522 1.10703
 C384 C 0.82208 0.71492 1.08262
 C385 C 0.79543 0.70470 1.06675
 C386 C 0.78523 0.67810 1.08276
 H387 H 0.83589 0.73592 1.07747
 H388 H 0.76421 0.66430 1.07774
 H389 H 0.82426 0.67608 1.16525
 H390 H 0.84958 0.65061 1.13948
 N391 N 0.89294 0.19513 0.67201
 N392 N 0.89277 0.17281 0.69362
 C393 C 0.91686 0.17799 0.71374
 C394 C 0.93278 0.20500 0.70423
 C395 C 0.91707 0.21525 0.67765
 H396 H 0.92176 0.16399 0.73445
 H397 H 0.92198 0.23653 0.66430
 Cu398 Cu 0.85967 0.14049 0.69473
 Cu399 Cu 0.85968 0.19838 0.64050
 Cu400 Cu 0.80183 0.14053 0.64058
 N401 N 0.82731 0.10743 0.69374
 N402 N 0.80501 0.10729 0.67214
 C403 C 0.78483 0.08321 0.67787
 C404 C 0.79502 0.06750 0.70447
 C405 C 0.82206 0.08337 0.71392
 H406 H 0.76355 0.07833 0.66455
 H407 H 0.83602 0.07846 0.73464
 N408 N 0.80508 0.17297 0.60738
 N409 N 0.82723 0.19515 0.60735
 C410 C 0.82213 0.21491 0.58300
 C411 C 0.79548 0.20472 0.56712
 C412 C 0.78532 0.17805 0.58306
 H413 H 0.83593 0.23593 0.57789
 H414 H 0.76433 0.16423 0.57799
 H415 H 0.82443 0.17582 0.66550
 H416 H 0.84977 0.15044 0.63964
 N417 N 0.30521 0.39300 0.67145
 N418 N 0.32780 0.39308 0.69275
 C419 C 0.32254 0.41712 0.71295
 C420 C 0.29524 0.43279 0.70379
 C421 C 0.28487 0.41694 0.67735
 H422 H 0.33674 0.42220 0.73346
 H423 H 0.26339 0.42166 0.66426
 Cu424 Cu 0.36066 0.36043 0.69331
 Cu425 Cu 0.30201 0.35966 0.63999
 Cu426 Cu 0.35969 0.30156 0.64016
 N427 N 0.39307 0.32733 0.69295
 N428 N 0.39292 0.30466 0.67172
 C429 C 0.41675 0.28421 0.67770
 C430 C 0.43260 0.29461 0.70411
 C431 C 0.41706 0.32203 0.71318
 H432 H 0.42143 0.26270 0.66464
 H433 H 0.42221 0.33633 0.73362
 N434 N 0.32725 0.30479 0.60700
 N435 N 0.30513 0.32706 0.60694
 C436 C 0.28534 0.32195 0.58266
 C437 C 0.29545 0.29518 0.56685
 C438 C 0.32210 0.28494 0.58276
 H439 H 0.26436 0.33584 0.57755
 H440 H 0.33587 0.26385 0.57775
 H441 H 0.32493 0.32480 0.66541
 H442 H 0.34989 0.34953 0.63858
 N443 N 0.30505 0.89265 0.17161
 N444 N 0.32735 0.89242 0.19321
 C445 C 0.32208 0.91645 0.21341
 C446 C 0.29504 0.93239 0.20398
 C447 C 0.28485 0.91675 0.17736
 H448 H 0.33607 0.92134 0.23410
 H449 H 0.26360 0.92173 0.16401
 Cu450 Cu 0.35978 0.85937 0.19415
 Cu451 Cu 0.30201 0.85951 0.13995
 Cu452 Cu 0.35996 0.80156 0.13990
 N453 N 0.39289 0.82702 0.19310
 N454 N 0.39313 0.80469 0.17152
 C455 C 0.41727 0.78452 0.17725
 C456 C 0.43291 0.79477 0.20384
 C457 C 0.41694 0.82181 0.21327
 H458 H 0.42225 0.76324 0.16393
 H459 H 0.42179 0.83582 0.23397
 N460 N 0.32758 0.80496 0.10666
 N461 N 0.30540 0.82717 0.10668
 C462 C 0.28569 0.82217 0.08232
 C463 C 0.29589 0.79552 0.06637
 C464 C 0.32253 0.78525 0.08229
 H465 H 0.26466 0.83601 0.07726
 H466 H 0.33633 0.76420 0.07720
 H467 H 0.32463 0.82413 0.16485
 H468 H 0.34996 0.84951 0.13905
 N469 N 0.80469 0.39302 0.17164
 N470 N 0.82705 0.39284 0.19317
 C471 C 0.82186 0.41694 0.21331
 C472 C 0.79481 0.43288 0.20392
 C473 C 0.78452 0.41716 0.17738
 H474 H 0.83590 0.42185 0.23397
 H475 H 0.76322 0.42209 0.16409
 Cu476 Cu 0.85943 0.35974 0.19418
 Cu477 Cu 0.80151 0.35974 0.14010
 Cu478 Cu 0.85949 0.30183 0.14007
 N479 N 0.89250 0.32732 0.19320
 N480 N 0.89270 0.30497 0.17164
 C481 C 0.91682 0.28479 0.17736
 C482 C 0.93250 0.29504 0.20393
 C483 C 0.91657 0.32211 0.21335
 H484 H 0.92176 0.26349 0.16405
 H485 H 0.92147 0.33614 0.23402
 N486 N 0.82706 0.30512 0.10689
 N487 N 0.80483 0.32728 0.10691
 C488 C 0.78508 0.32218 0.08259
 C489 C 0.79535 0.29553 0.06666
 C490 C 0.82203 0.28536 0.08255
 H491 H 0.76403 0.33598 0.07753
 H492 H 0.83590 0.26435 0.07746
 H493 H 0.82418 0.32446 0.16504
 H494 H 0.84943 0.34980 0.13912
 N495 N 0.80430 0.89283 0.67257
 N496 N 0.82662 0.89261 0.69414
 C497 C 0.82138 0.91667 0.71433
 C498 C 0.79434 0.93263 0.70490
 C499 C 0.78412 0.91696 0.67831
 H500 H 0.83543 0.92159 0.73498
 H501 H 0.76288 0.92196 0.66495
 Cu502 Cu 0.85912 0.85959 0.69502
 Cu503 Cu 0.80126 0.85973 0.64085
 Cu504 Cu 0.85941 0.80201 0.64052
 N505 N 0.89236 0.82733 0.69377
 N506 N 0.89263 0.80512 0.67207
 C507 C 0.91685 0.78500 0.67764
 C508 C 0.93252 0.79515 0.70425
 C509 C 0.91647 0.82208 0.71386
 H510 H 0.92186 0.76380 0.66420
 H511 H 0.92132 0.83599 0.73463
 N512 N 0.82696 0.80536 0.60737
 N513 N 0.80468 0.82747 0.60749
 C514 C 0.78493 0.82242 0.58317
 C515 C 0.79523 0.79585 0.56713
 C516 C 0.82195 0.78568 0.58297
 H517 H 0.76383 0.83617 0.57819
 H518 H 0.83584 0.76470 0.57781
 H519 H 0.82403 0.82437 0.66561
 H520 H 0.84923 0.84996 0.63988
 N521 N 0.69547 0.60775 0.67291
 N522 N 0.67320 0.60799 0.69456
 C523 C 0.67833 0.58376 0.71460
 C524 C 0.70524 0.56767 0.70499
 C525 C 0.71550 0.58345 0.67845
 H526 H 0.66431 0.57881 0.73528
 H527 H 0.73668 0.57840 0.66500
 Cu528 Cu 0.64090 0.64122 0.69573
 Cu529 Cu 0.69866 0.64103 0.64135
 Cu530 Cu 0.64081 0.69904 0.64139
 N531 N 0.60780 0.67366 0.69464
 N532 N 0.60761 0.69595 0.67299
 C533 C 0.58340 0.71607 0.67857
 C534 C 0.56762 0.70585 0.70512
 C535 C 0.58362 0.67886 0.71470
 H536 H 0.57839 0.73728 0.66511
 H537 H 0.57865 0.66483 0.73538
 N538 N 0.67319 0.69569 0.60814
 N539 N 0.69537 0.67348 0.60813
 C540 C 0.71505 0.67849 0.58372
 C541 C 0.70481 0.70514 0.56776
 C542 C 0.67819 0.71540 0.58374
 H543 H 0.73604 0.66461 0.57859
 H544 H 0.66434 0.73641 0.57863
 H545 H 0.67612 0.67638 0.66631
 H546 H 0.65073 0.65103 0.64058
 N547 N 0.69611 0.10722 0.17235
 N548 N 0.67373 0.10738 0.19388
 C549 C 0.67890 0.08326 0.21403
 C550 C 0.70596 0.06733 0.20463
 C551 C 0.71627 0.08307 0.17808
 H552 H 0.66480 0.07829 0.23465
 H553 H 0.73755 0.07811 0.16476
 Cu554 Cu 0.64124 0.14039 0.19481
 Cu555 Cu 0.69922 0.14044 0.14069
 Cu556 Cu 0.64105 0.19814 0.14047
 N557 N 0.60804 0.17267 0.19367
 N558 N 0.60780 0.19496 0.17203
 C559 C 0.58358 0.21506 0.17764
 C560 C 0.56787 0.20482 0.20422
 C561 C 0.58390 0.17785 0.21377
 H562 H 0.57857 0.23630 0.16424
 H563 H 0.57901 0.16385 0.23448
 N564 N 0.67352 0.19489 0.10730
 N565 N 0.69582 0.17280 0.10738
 C566 C 0.71554 0.17789 0.08301
 C567 C 0.70518 0.20446 0.06699
 C568 C 0.67847 0.21459 0.08288
 H569 H 0.73663 0.16414 0.07797
 H570 H 0.66452 0.23552 0.07772
 H571 H 0.67641 0.17569 0.16552
 H572 H 0.65127 0.15019 0.13971
 N573 N 0.19532 0.60763 0.17181
 N574 N 0.17295 0.60780 0.19336
 C575 C 0.17809 0.58364 0.21347
 C576 C 0.20512 0.56767 0.20402
 C577 C 0.21543 0.58344 0.17749
 H578 H 0.16403 0.57870 0.23412
 H579 H 0.23673 0.57849 0.16418
 Cu580 Cu 0.14060 0.64094 0.19438
 Cu581 Cu 0.19857 0.64094 0.14030
 Cu582 Cu 0.14076 0.69901 0.14033
 N583 N 0.10755 0.67338 0.19336
 N584 N 0.10744 0.69579 0.17184
 C585 C 0.08329 0.71595 0.17753
 C586 C 0.06749 0.70561 0.20403
 C587 C 0.08340 0.67853 0.21345
 H588 H 0.07838 0.73728 0.16424
 H589 H 0.07841 0.66442 0.23407
 N590 N 0.17325 0.69572 0.10716
 N591 N 0.19539 0.67347 0.10715
 C592 C 0.21514 0.67849 0.08280
 C593 C 0.20500 0.70520 0.06688
 C594 C 0.17836 0.71548 0.08282
 H595 H 0.23611 0.66458 0.07768
 H596 H 0.16456 0.73652 0.07771
 H597 H 0.17594 0.67624 0.16529
 H598 H 0.15065 0.65104 0.13933
 N599 N 0.19602 0.10737 0.67285
 N600 N 0.17375 0.10758 0.69450
 C601 C 0.17901 0.08347 0.71464
 C602 C 0.20602 0.06750 0.70511
 C603 C 0.21619 0.08321 0.67851
 H604 H 0.16500 0.07852 0.73533
 H605 H 0.23739 0.07821 0.66506
 Cu606 Cu 0.14126 0.14062 0.69550
 Cu607 Cu 0.19903 0.14051 0.64114
 Cu608 Cu 0.14090 0.19823 0.64095
 N609 N 0.10799 0.17287 0.69426
 N610 N 0.10770 0.19507 0.67253
 C611 C 0.08344 0.21514 0.67806
 C612 C 0.06774 0.20498 0.70467
 C613 C 0.08383 0.17808 0.71434
 H614 H 0.07839 0.23630 0.66456
 H615 H 0.07896 0.16415 0.73511
 N616 N 0.17331 0.19492 0.60773
 N617 N 0.19558 0.17280 0.60779
 C618 C 0.21526 0.17783 0.58338
 C619 C 0.20493 0.20441 0.56736
 C620 C 0.17826 0.21460 0.58329
 H621 H 0.23632 0.16405 0.57832
 H622 H 0.16434 0.23556 0.57813
 H623 H 0.17632 0.17585 0.66596
 H624 H 0.15105 0.15027 0.64032
 N625 N 0.30479 0.60730 0.32786
 N626 N 0.32713 0.60744 0.30629
 C627 C 0.32197 0.58333 0.28617
 C628 C 0.29495 0.56742 0.29564
 C629 C 0.28467 0.58317 0.32219
 H630 H 0.33600 0.57840 0.26549
 H631 H 0.26339 0.57826 0.33552
 Cu632 Cu 0.35947 0.64052 0.30523
 Cu633 Cu 0.30155 0.64057 0.35939
 Cu634 Cu 0.35937 0.69846 0.35936
 N635 N 0.39254 0.67286 0.30630
 N636 N 0.39266 0.69521 0.32786
 C637 C 0.41680 0.71532 0.32220
 C638 C 0.43259 0.70503 0.29569
 C639 C 0.41669 0.67801 0.28621
 H640 H 0.42171 0.73660 0.33554
 H641 H 0.42167 0.66396 0.26556
 N642 N 0.32691 0.69522 0.39253
 N643 N 0.30477 0.67303 0.39255
 C644 C 0.28501 0.67812 0.41689
 C645 C 0.29518 0.70480 0.43278
 C646 C 0.32182 0.71499 0.41685
 H647 H 0.26402 0.66430 0.42200
 H648 H 0.33562 0.73600 0.42192
 H649 H 0.32415 0.67583 0.33441
 H650 H 0.34947 0.65050 0.36030
 N651 N 0.30630 0.10594 0.82909
 N652 N 0.32928 0.10541 0.80818
 C653 C 0.32400 0.08146 0.78790
 C654 C 0.29630 0.06629 0.79664
 C655 C 0.28571 0.08236 0.82287
 H656 H 0.33854 0.07610 0.76766
 H657 H 0.26394 0.07803 0.83562
 Cu658 Cu 0.36291 0.13722 0.80822
 Cu659 Cu 0.30300 0.13937 0.86042
 Cu660 Cu 0.36043 0.19734 0.86015
 N661 N 0.39440 0.17114 0.80789
 N662 N 0.39374 0.19421 0.82869
 C663 C 0.41716 0.21495 0.82233
 C664 C 0.43325 0.20436 0.79611
 C665 C 0.41827 0.17651 0.78753
 H666 H 0.42140 0.23679 0.83501
 H667 H 0.42373 0.16189 0.76738
 N668 N 0.32785 0.19439 0.89319
 N669 N 0.30579 0.17214 0.89329
 C670 C 0.28584 0.17740 0.91745
 C671 C 0.29581 0.20428 0.93314
 C672 C 0.32253 0.21440 0.91728
 H673 H 0.26488 0.16354 0.92256
 H674 H 0.33624 0.23550 0.92224
 H675 H 0.32650 0.17342 0.83435
 H676 H 0.35085 0.14937 0.86247
 N677 N 0.80511 0.60652 0.82823
 N678 N 0.82740 0.60669 0.80659
 C679 C 0.82225 0.58250 0.78655
 C680 C 0.79531 0.56652 0.79614
 C681 C 0.78506 0.58230 0.82267
 H682 H 0.83620 0.57759 0.76581
 H683 H 0.76379 0.57741 0.83604
 Cu684 Cu 0.85957 0.63995 0.80530
 Cu685 Cu 0.80175 0.63994 0.85959
 Cu686 Cu 0.85934 0.69804 0.85927
 N687 N 0.89251 0.67246 0.80620
 N688 N 0.89259 0.69483 0.82774
 C689 C 0.91666 0.71503 0.82204
 C690 C 0.93244 0.70478 0.79550
 C691 C 0.91661 0.67769 0.78607
 H692 H 0.92152 0.73633 0.83536
 H693 H 0.92162 0.66363 0.76543
 N694 N 0.82693 0.69483 0.89247
 N695 N 0.80485 0.67258 0.89259
 C696 C 0.78507 0.67773 0.91691
 C697 C 0.79517 0.70450 0.93269
 C698 C 0.82178 0.71469 0.91671
 H699 H 0.76413 0.66386 0.92209
 H700 H 0.83553 0.73576 0.92170
 H701 H 0.82416 0.67520 0.83445
 H702 H 0.84962 0.65003 0.86037
 N703 N 0.80550 0.10653 0.32847
 N704 N 0.82779 0.10671 0.30685
 C705 C 0.82266 0.08255 0.28678
 C706 C 0.79570 0.06658 0.29633
 C707 C 0.78543 0.08234 0.32288
 H708 H 0.83663 0.07766 0.26605
 H709 H 0.76416 0.07742 0.33623
 Cu710 Cu 0.85995 0.13997 0.30562
 Cu711 Cu 0.80216 0.13989 0.35990
 Cu712 Cu 0.85972 0.19804 0.35958
 N713 N 0.89283 0.17251 0.30645
 N714 N 0.89291 0.19491 0.32797
 C715 C 0.91691 0.21515 0.32218
 C716 C 0.93265 0.20490 0.29562
 C717 C 0.91687 0.17777 0.28625
 H718 H 0.92175 0.23648 0.33547
 H719 H 0.92185 0.16371 0.26561
 N720 N 0.82736 0.19475 0.39284
 N721 N 0.80529 0.17248 0.39296
 C722 C 0.78553 0.17759 0.41730
 C723 C 0.79561 0.20436 0.43309
 C724 C 0.82221 0.21459 0.41710
 H725 H 0.76459 0.16372 0.42246
 H726 H 0.83592 0.23568 0.42208
 H727 H 0.82453 0.17519 0.33477
 H728 H 0.85002 0.15004 0.36068
 N729 N 0.69517 0.39261 0.32782
 N730 N 0.67285 0.39248 0.30625
 C731 C 0.67800 0.41664 0.28615
 C732 C 0.70500 0.43256 0.29563
 C733 C 0.71527 0.41677 0.32216
 H734 H 0.66397 0.42161 0.26549
 H735 H 0.73652 0.42169 0.33551
 Cu736 Cu 0.64053 0.35938 0.30519
 Cu737 Cu 0.69841 0.35932 0.35933
 Cu738 Cu 0.64058 0.30144 0.35939
 N739 N 0.60747 0.32703 0.30630
 N740 N 0.60732 0.30468 0.32789
 C741 C 0.58320 0.28455 0.32224
 C742 C 0.56746 0.29482 0.29569
 C743 C 0.58336 0.32185 0.28620
 H744 H 0.57831 0.26325 0.33558
 H745 H 0.57843 0.33587 0.26551
 N746 N 0.67303 0.30467 0.39253
 N747 N 0.69518 0.32686 0.39250
 C748 C 0.71494 0.32178 0.41683
 C749 C 0.70478 0.29511 0.43276
 C750 C 0.67813 0.28491 0.41687
 H751 H 0.73592 0.33561 0.42190
 H752 H 0.66433 0.26390 0.42199
 H753 H 0.67581 0.32405 0.33439
 H754 H 0.65048 0.34940 0.36027
 N755 N 0.69403 0.89380 0.82881
 N756 N 0.67136 0.89408 0.80760
 C757 C 0.67665 0.91814 0.78741
 C758 C 0.70406 0.93359 0.79650
 C759 C 0.71445 0.91761 0.82287
 H760 H 0.66240 0.92335 0.76695
 H761 H 0.73601 0.92213 0.83587
 Cu762 Cu 0.63837 0.86163 0.80715
 Cu763 Cu 0.69732 0.86034 0.86014
 Cu764 Cu 0.63946 0.80257 0.86017
 N765 N 0.60584 0.82871 0.80763
 N766 N 0.60604 0.80599 0.82884
 C767 C 0.58219 0.78563 0.82289
 C768 C 0.56629 0.79611 0.79651
 C769 C 0.58182 0.82351 0.78743
 H770 H 0.57761 0.76404 0.83588
 H771 H 0.57669 0.83780 0.76697
 N772 N 0.67217 0.80546 0.89311
 N773 N 0.69433 0.82762 0.89309
 C774 C 0.71428 0.82233 0.91722
 C775 C 0.70423 0.79553 0.93301
 C776 C 0.67744 0.78548 0.91725
 H777 H 0.73530 0.83611 0.92225
 H778 H 0.66365 0.76445 0.92231
 H779 H 0.67413 0.82568 0.83476
 H780 H 0.64941 0.85046 0.86180
 N781 N 0.19532 0.39264 0.82772
 N782 N 0.17298 0.39253 0.80617
 C783 C 0.17818 0.41665 0.78604
 C784 C 0.20522 0.43251 0.79548
 C785 C 0.21548 0.41674 0.82202
 H786 H 0.16414 0.42164 0.76539
 H787 H 0.23675 0.42163 0.83535
 Cu788 Cu 0.14056 0.35954 0.80520
 Cu789 Cu 0.19850 0.35938 0.85927
 Cu790 Cu 0.14051 0.30166 0.85945
 N791 N 0.10740 0.32730 0.80638
 N792 N 0.10721 0.30498 0.82800
 C793 C 0.08302 0.28492 0.82239
 C794 C 0.06730 0.29520 0.79583
 C795 C 0.08327 0.32217 0.78630
 H796 H 0.07808 0.26364 0.83575
 H797 H 0.07837 0.33617 0.76558
 N798 N 0.17302 0.30482 0.89255
 N799 N 0.19523 0.32695 0.89248
 C800 C 0.21501 0.32183 0.91678
 C801 C 0.20481 0.29519 0.93274
 C802 C 0.17812 0.28505 0.91689
 H803 H 0.23603 0.33562 0.92181
 H804 H 0.16428 0.26407 0.92203
 H805 H 0.17577 0.32414 0.83440
 H806 H 0.15054 0.34958 0.86028
 N807 N 0.19470 0.89312 0.32816
 N808 N 0.17211 0.89329 0.30686
 C809 C 0.17746 0.91725 0.28658
 C810 C 0.20483 0.93276 0.29571
 C811 C 0.21513 0.91691 0.32218
 H812 H 0.16326 0.92239 0.26608
 H813 H 0.23661 0.92154 0.33528
 Cu814 Cu 0.13910 0.86087 0.30645
 Cu815 Cu 0.19778 0.85987 0.35973
 Cu816 Cu 0.13994 0.80209 0.35978
 N817 N 0.10656 0.82799 0.30697
 N818 N 0.10667 0.80535 0.32827
 C819 C 0.08281 0.78500 0.32233
 C820 C 0.06698 0.79542 0.29589
 C821 C 0.08257 0.82276 0.28675
 H822 H 0.07812 0.76350 0.33541
 H823 H 0.07748 0.83701 0.26625
 N824 N 0.17244 0.80521 0.39290
 N825 N 0.19460 0.82738 0.39288
 C826 C 0.21440 0.82224 0.41715
 C827 C 0.20428 0.79554 0.43304
 C828 C 0.17759 0.78538 0.41719
 H829 H 0.23541 0.83605 0.42219
 H830 H 0.16380 0.76435 0.42228
 H831 H 0.17472 0.82507 0.33443
 H832 H 0.14986 0.84999 0.36120
 O833 O 0.29031 0.96877 0.24602
 O834 O 0.24751 1.03091 0.28970
 O835 O 0.24734 0.96893 0.28969
 O836 O 0.29051 1.03075 0.24603
 O837 O 0.25289 1.03091 0.20994
 O838 O 0.20972 0.96908 0.25359
 O839 O 0.20992 1.03106 0.25359
 O840 O 0.25272 0.96893 0.20991
 Cu841 Cu 0.27270 0.99982 0.27150
 Cu842 Cu 0.22753 1.00001 0.22812
 C843 C 0.27867 0.95812 0.22067
 C844 C 0.22157 1.04172 0.27893
 C845 C 0.22132 0.95833 0.27895
 C846 C 0.27890 1.04152 0.22069
 O847 O 0.25278 0.53122 0.71004
 O848 O 0.20992 0.46904 0.75352
 O849 O 0.20972 0.53101 0.75370
 O850 O 0.25283 0.46921 0.70982
 O851 O 0.29045 0.46909 0.74591
 O852 O 0.24740 0.53098 0.78973
 O853 O 0.24752 0.46898 0.78963
 O854 O 0.29042 0.53109 0.74611
 Cu855 Cu 0.22754 0.50014 0.72813
 Cu856 Cu 0.27273 0.50002 0.77148
 C857 C 0.27875 0.54190 0.72081
 C858 C 0.22157 0.45827 0.77885
 C859 C 0.22136 0.54167 0.77906
 C860 C 0.27881 0.45845 0.72054
 O861 O 0.74775 -0.03140 0.21041
 O862 O 0.79095 0.03016 0.25431
 O863 O 0.79053 -0.03190 0.25419
 O864 O 0.74813 0.03058 0.21054
 O865 O 0.71044 0.03075 0.24659
 O866 O 0.75283 -0.03176 0.29020
 O867 O 0.75327 0.03029 0.29037
 O868 O 0.71002 -0.03124 0.24643
 Cu869 Cu 0.77314 -0.00066 0.22876
 Cu870 Cu 0.72786 -0.00047 0.27203
 C871 C 0.72168 -0.04196 0.22108
 C872 C 0.77930 0.04090 0.27965
 C873 C 0.77875 -0.04273 0.27945
 C874 C 0.72220 0.04146 0.22128
 O875 O 0.75241 0.46810 0.78988
 O876 O 0.70981 0.53085 0.74676
 O877 O 0.70939 0.46884 0.74623
 O878 O 0.75288 0.53018 0.79027
 O879 O 0.79042 0.53019 0.75406
 O880 O 0.74705 0.46877 0.71014
 O881 O 0.74734 0.53078 0.71055
 O882 O 0.78999 0.46812 0.75376
 Cu883 Cu 0.72736 0.49949 0.77193
 Cu884 Cu 0.77248 0.49946 0.72850
 C885 C 0.77830 0.45719 0.77902
 C886 C 0.72147 0.54167 0.72145
 C887 C 0.72098 0.45820 0.72081
 C888 C 0.77886 0.54085 0.77948
 O889 O 0.25255 0.46902 0.28972
 O890 O 0.20974 0.53116 0.24601
 O891 O 0.20967 0.46914 0.24602
 O892 O 0.25261 0.53103 0.28973
 O893 O 0.29026 0.53098 0.25364
 O894 O 0.24732 0.46909 0.20992
 O895 O 0.24740 0.53109 0.20992
 O896 O 0.29021 0.46896 0.25363
 Cu897 Cu 0.22735 0.50009 0.27150
 Cu898 Cu 0.27259 0.50002 0.22815
 C899 C 0.27852 0.45824 0.27896
 C900 C 0.22143 0.54188 0.22068
 C901 C 0.22133 0.45841 0.22068
 C902 C 0.27859 0.54171 0.27897
 O903 O 0.75251 1.03132 0.71045
 O904 O 0.70904 0.96987 0.75435
 O905 O 0.70962 1.03190 0.75415
 O906 O 0.75213 0.96933 0.71073
 O907 O 0.78973 0.96919 0.74683
 O908 O 0.74716 1.03169 0.79028
 O909 O 0.74666 0.96965 0.79043
 O910 O 0.79007 1.03119 0.74659
 Cu911 Cu 0.72704 1.00061 0.72880
 Cu912 Cu 0.77217 1.00039 0.77217
 C913 C 0.77852 1.04191 0.72120
 C914 C 0.72060 0.95912 0.77972
 C915 C 0.72131 1.04270 0.77945
 C916 C 0.77805 0.95847 0.72152
 O917 O 0.74732 0.53104 0.29008
 O918 O 0.79013 0.46918 0.24604
 O919 O 0.79016 0.53119 0.24629
 O920 O 0.74728 0.46905 0.28981
 O921 O 0.70963 0.46919 0.25375
 O922 O 0.75245 0.53142 0.21031
 O923 O 0.75248 0.46941 0.20999
 O924 O 0.70955 0.53116 0.25415
 Cu925 Cu 0.77252 0.50010 0.27168
 Cu926 Cu 0.72724 0.50034 0.22842
 C927 C 0.72126 0.54176 0.27950
 C928 C 0.77845 0.45859 0.22067
 C929 C 0.77845 0.54205 0.22103
 C930 C 0.72132 0.45836 0.27904
 O931 O 0.29136 0.03016 0.75436
 O932 O 0.24785 -0.03121 0.71038
 O933 O 0.24826 0.03081 0.71075
 O934 O 0.29097 -0.03189 0.75382
 O935 O 0.25351 -0.03182 0.79008
 O936 O 0.21070 0.03076 0.74693
 O937 O 0.21037 -0.03125 0.74666
 O938 O 0.25374 0.03022 0.79049
 Cu939 Cu 0.27338 -0.00051 0.72869
 Cu940 Cu 0.22833 -0.00051 0.77219
 C941 C 0.27978 0.04082 0.77977
 C942 C 0.22188 -0.04188 0.72121
 C943 C 0.22234 0.04160 0.72163
 C944 C 0.27935 -0.04278 0.77913
 O945 O 0.24692 0.29020 0.96913
 O946 O 0.29050 0.24680 1.03052
 O947 O 0.29053 0.24663 0.96926
 O948 O 0.24686 0.29030 1.03043
 O949 O 0.20984 0.25318 1.03049
 O950 O 0.25351 0.20950 0.96934
 O951 O 0.25348 0.20967 1.03059
 O952 O 0.20990 0.25307 0.96919
 Cu953 Cu 0.27242 0.27223 0.99982
 Cu954 Cu 0.22795 0.22763 0.99991
 C955 C 0.22120 0.27883 0.95848
 C956 C 0.27922 0.22103 1.04122
 C957 C 0.27928 0.22080 0.95869
 C958 C 0.22112 0.27897 1.04112
 O959 O 0.25312 0.70982 0.46928
 O960 O 0.20966 0.75335 0.53068
 O961 O 0.20950 0.75335 0.46940
 O962 O 0.25331 0.70986 0.53057
 O963 O 0.29032 0.74700 0.53044
 O964 O 0.24650 0.79049 0.46928
 O965 O 0.24667 0.79049 0.53056
 O966 O 0.29012 0.74696 0.46916
 Cu967 Cu 0.22768 0.72786 0.50000
 Cu968 Cu 0.27212 0.77247 0.49984
 C969 C 0.27882 0.72118 0.45854
 C970 C 0.22097 0.77913 0.54130
 C971 C 0.22074 0.77914 0.45870
 C972 C 0.27907 0.72122 0.54115
 O973 O 0.29050 0.75324 -0.03128
 O974 O 0.24705 0.71001 0.03034
 O975 O 0.24691 0.70977 -0.03094
 O976 O 0.29074 0.75335 0.03004
 O977 O 0.25372 0.79057 0.03005
 O978 O 0.20989 0.74699 -0.03094
 O979 O 0.21004 0.74724 0.03034
 O980 O 0.25349 0.79046 -0.03126
 Cu981 Cu 0.27253 0.72785 -0.00047
 Cu982 Cu 0.22808 0.77257 -0.00046
 C983 C 0.27919 0.77902 -0.04199
 C984 C 0.22135 0.72147 0.04106
 C985 C 0.22113 0.72113 -0.04153
 C986 C 0.27948 0.77917 0.04068
 O987 O 0.25323 0.29011 0.53061
 O988 O 0.20954 0.24655 0.46953
 O989 O 0.20980 0.24650 0.53084
 O990 O 0.25312 0.28999 0.46933
 O991 O 0.29022 0.25285 0.46927
 O992 O 0.24690 0.20937 0.53077
 O993 O 0.24664 0.20940 0.46945
 O994 O 0.29033 0.25296 0.53056
 Cu995 Cu 0.22769 0.27202 0.50009
 Cu996 Cu 0.27225 0.22741 0.50000
 C997 C 0.27902 0.27876 0.54121
 C998 C 0.22086 0.22077 0.45884
 C999 C 0.22118 0.22074 0.54152
 C1000 C 0.27886 0.27862 0.45860
 O1001 O 0.74654 0.79034 0.96913
 O1002 O 0.79031 0.74680 1.03028
 O1003 O 0.79011 0.74673 0.96899
 O1004 O 0.74673 0.79034 1.03038
 O1005 O 0.70968 0.75324 1.03050
 O1006 O 0.75308 0.70962 0.96914
 O1007 O 0.75326 0.70970 1.03043
 O1008 O 0.70950 0.75323 0.96924
 Cu1009 Cu 0.77216 0.77228 0.99966
 Cu1010 Cu 0.72766 0.72771 0.99983
 C1011 C 0.72075 0.77903 0.95857
 C1012 C 0.77902 0.72105 1.04102
 C1013 C 0.77880 0.72094 0.95839
 C1014 C 0.72101 0.77901 1.04112
 O1015 O 0.74686 0.29016 0.46918
 O1016 O 0.79039 0.24681 0.53064
 O1017 O 0.79044 0.24661 0.46935
 O1018 O 0.74674 0.29033 0.53045
 O1019 O 0.70973 0.25320 0.53051
 O1020 O 0.75344 0.20947 0.46944
 O1021 O 0.75337 0.20968 0.53072
 O1022 O 0.70985 0.25302 0.46925
 Cu1023 Cu 0.77233 0.27221 0.49990
 Cu1024 Cu 0.72788 0.22761 0.49999
 C1025 C 0.72114 0.27878 0.45853
 C1026 C 0.77910 0.22105 0.54137
 C1027 C 0.77918 0.22080 0.45875
 C1028 C 0.72097 0.27903 0.54110
 O1029 O 0.75319 0.29032 0.03034
 O1030 O 0.70982 0.24650 -0.03082
 O1031 O 0.70990 0.24657 0.03049
 O1032 O 0.75297 0.29037 -0.03097
 O1033 O 0.79029 0.25344 -0.03103
 O1034 O 0.74720 0.20963 0.03044
 O1035 O 0.74712 0.20956 -0.03088
 O1036 O 0.79048 0.25338 0.03027
 Cu1037 Cu 0.72772 0.27215 -0.00023
 Cu1038 Cu 0.77252 0.22779 -0.00031
 C1039 C 0.77902 0.27910 0.04096
 C1040 C 0.72129 0.22078 -0.04151
 C1041 C 0.72140 0.22087 0.04117
 C1042 C 0.77877 0.27916 -0.04170
 O1043 O 0.70943 0.74692 0.46985
 O1044 O 0.75305 0.79074 0.53083
 O1045 O 0.75283 0.79058 0.46950
 O1046 O 0.70963 0.74715 0.53115
 O1047 O 0.74679 0.71008 0.53115
 O1048 O 0.78999 0.75351 0.46949
 O1049 O 0.79022 0.75366 0.53080
 O1050 O 0.74659 0.70984 0.46985
 Cu1051 Cu 0.72750 0.77257 0.50032
 Cu1052 Cu 0.77214 0.72805 0.50031
 C1053 C 0.72077 0.72111 0.45924
 C1054 C 0.77886 0.77944 0.54145
 C1055 C 0.77857 0.77924 0.45877
 C1056 C 0.72105 0.72143 0.54188
 O1057 O 1.03085 0.29038 0.24598
 O1058 O 0.96893 0.24735 0.28966
 O1059 O 1.03087 0.24750 0.28977
 O1060 O 0.96888 0.29035 0.24596
 O1061 O 0.96901 0.25268 0.20989
 O1062 O 1.03102 0.20984 0.25369
 O1063 O 0.96907 0.20968 0.25359
 O1064 O 1.03096 0.25272 0.20990
 Cu1065 Cu 0.99986 0.27269 0.27147
 Cu1066 Cu 1.00002 0.22744 0.22814
 C1067 C 1.04162 0.27872 0.22066
 C1068 C 0.95830 0.22134 0.27892
 C1069 C 1.04167 0.22152 0.27903
 C1070 C 0.95822 0.27867 0.22062
 O1071 O 0.53092 0.29021 0.74602
 O1072 O 0.46926 0.24698 0.78985
 O1073 O 0.53124 0.24715 0.78970
 O1074 O 0.46902 0.28995 0.74613
 O1075 O 0.46906 0.25223 0.71011
 O1076 O 0.53135 0.20950 0.75361
 O1077 O 0.46943 0.20923 0.75386
 O1078 O 0.53103 0.25251 0.70997
 Cu1079 Cu 0.50010 0.27235 0.77156
 Cu1080 Cu 0.50022 0.22708 0.72826
 C1081 C 0.54162 0.27857 0.72065
 C1082 C 0.45870 0.22089 0.77921
 C1083 C 0.54206 0.22119 0.77892
 C1084 C 0.45830 0.27823 0.72083
 O1085 O 0.03083 0.25290 0.79003
 O1086 O -0.03091 0.20982 0.74630
 O1087 O 0.03107 0.20980 0.74651
 O1088 O -0.03113 0.25301 0.78976
 O1089 O -0.03103 0.29053 0.75350
 O1090 O 0.03116 0.24732 0.71025
 O1091 O -0.03080 0.24735 0.71005
 O1092 O 0.03096 0.29043 0.75378
 Cu1093 Cu -0.00005 0.22761 0.77180
 Cu1094 Cu 0.00008 0.27268 0.72825
 C1095 C 0.04159 0.27884 0.77919
 C1096 C -0.04155 0.22140 0.72088
 C1097 C 0.04189 0.22138 0.72117
 C1098 C -0.04185 0.27896 0.77885
 O1099 O 0.53126 0.24711 0.21003
 O1100 O 0.46911 0.28997 0.25367
 O1101 O 0.53108 0.29008 0.25368
 O1102 O 0.46931 0.24707 0.20995
 O1103 O 0.46937 0.20936 0.24601
 O1104 O 0.53109 0.25243 0.28981
 O1105 O 0.46913 0.25227 0.28975
 O1106 O 0.53133 0.20946 0.24616
 Cu1107 Cu 0.50018 0.27235 0.22821
 Cu1108 Cu 0.50023 0.22709 0.27157
 C1109 C 0.54206 0.22114 0.22083
 C1110 C 0.45837 0.27826 0.27899
 C1111 C 0.54178 0.27843 0.27904
 C1112 C 0.45866 0.22103 0.22066
 O1113 O 1.03089 0.79029 0.74633
 O1114 O 0.96887 0.74714 0.78976
 O1115 O 1.03082 0.74724 0.78993
 O1116 O 0.96891 0.79031 0.74626
 O1117 O 0.96907 0.75279 0.71004
 O1118 O 1.03089 0.70959 0.75384
 O1119 O 0.96895 0.70961 0.75355
 O1120 O 1.03106 0.75269 0.71019
 Cu1121 Cu 0.99986 0.77252 0.77170
 Cu1122 Cu 1.00002 0.72740 0.72825
 C1123 C 1.04172 0.77866 0.72101
 C1124 C 0.95818 0.72119 0.77891
 C1125 C 1.04154 0.72121 0.77922
 C1126 C 0.95827 0.77873 0.72087
 O1127 O 0.46942 0.75242 0.20994
 O1128 O 0.53111 0.70950 0.25414
 O1129 O 0.46918 0.70963 0.25379
 O1130 O 0.53137 0.75243 0.21031
 O1131 O 0.53109 0.79025 0.24623
 O1132 O 0.46906 0.74733 0.28984
 O1133 O 0.53101 0.74735 0.29002
 O1134 O 0.46916 0.79012 0.24598
 Cu1135 Cu 0.50031 0.72720 0.22842
 Cu1136 Cu 0.50006 0.77256 0.27164
 C1137 C 0.45859 0.77842 0.22062
 C1138 C 0.54171 0.72126 0.27947
 C1139 C 0.45837 0.72135 0.27908
 C1140 C 0.54195 0.77850 0.22099
 O1141 O 0.03075 0.75297 0.28980
 O1142 O -0.03103 0.71000 0.24603
 O1143 O 0.03095 0.71016 0.24599
 O1144 O -0.03120 0.75290 0.28975
 O1145 O -0.03130 0.79060 0.25368
 O1146 O 0.03090 0.74790 0.20996
 O1147 O -0.03107 0.74769 0.20995
 O1148 O 0.03066 0.79073 0.25379
 Cu1149 Cu -0.00012 0.72771 0.27151
 Cu1150 Cu -0.00021 0.77303 0.22822
 C1151 C 0.04138 0.77902 0.27912
 C1152 C -0.04174 0.72168 0.22069
 C1153 C 0.04168 0.72191 0.22069
 C1154 C -0.04200 0.77888 0.27901
 O1155 O 0.46818 0.79081 0.75374
 O1156 O 0.53089 0.74809 0.71069
 O1157 O 0.46892 0.74782 0.71013
 O1158 O 0.53018 0.79122 0.75426
 O1159 O 0.53016 0.75357 0.79038
 O1160 O 0.46882 0.71024 0.74633
 O1161 O 0.53079 0.71047 0.74685
 O1162 O 0.46817 0.75326 0.78993
 Cu1163 Cu 0.49957 0.77326 0.72857
 Cu1164 Cu 0.49949 0.72812 0.77201
 C1165 C 0.45725 0.77914 0.77901
 C1166 C 0.54167 0.72215 0.72157
 C1167 C 0.45824 0.72181 0.72089
 C1168 C 0.54079 0.77962 0.77968
   
