data_POSCAR
  _audit_creation_date              2014-09-24
  _audit_creation_method            'ToBaCCo'
  _symmetry_space_group_name_H-M    'P1'
  _symmetry_Int_Tables_number       1
  _symmetry_cell_setting            triclinic
  loop_
  _symmetry_equiv_pos_as_xyz
 x,y,z
_cell_length_a 39.6910
_cell_length_b 39.6656
_cell_length_c 40.0171
_cell_angle_alpha 90.035900
_cell_angle_beta 90.119000
_cell_angle_gamma 90.002400
loop_
  _atom_site_label
  _atom_site_type_symbol
  _atom_site_fract_x
  _atom_site_fract_y
  _atom_site_fract_z
C1 C 0.34438 0.34040 1.38292
 C2 C 0.31459 0.35271 1.39737
 C3 C 0.29688 0.38016 1.38316
 C4 C 0.30999 0.39472 1.35363
 C5 C 0.33974 0.38267 1.33900
 C6 C 0.35710 0.35555 1.35380
 C7 C 0.36126 0.31274 1.39701
 C8 C 0.39089 0.29947 1.38238
 C9 C 0.40369 0.31572 1.35362
 C10 C 0.38698 0.34335 1.33927
 C11 C 0.39956 0.35866 1.31024
 C12 C 0.38196 0.38519 1.29459
 C13 C 0.35198 0.39698 1.30932
 H14 H 0.30619 0.34143 1.42051
 H15 H 0.29650 0.41463 1.34087
 H16 H 0.34983 0.30056 1.41835
 H17 H 0.42711 0.30753 1.34247
 H18 H 0.42306 0.34967 1.29981
 H19 H 0.33766 0.41686 1.29739
 C20 C 1.15313 0.65633 0.88644
 C21 C 1.18173 0.64295 0.90231
 C22 C 1.19976 0.61565 0.88831
 C23 C 1.18754 0.60157 0.85813
 C24 C 1.15876 0.61450 0.84224
 C25 C 1.14156 0.64204 0.85641
 C26 C 1.13637 0.68424 0.90006
 C27 C 1.10875 0.69954 0.88348
 C28 C 1.09695 0.68405 0.85376
 C29 C 1.11303 0.65555 0.84033
 C30 C 1.10153 0.64100 0.81041
 C31 C 1.11878 0.61375 0.79564
 C32 C 1.14753 0.60082 0.81185
 H33 H 1.18931 0.65368 0.92603
 H34 H 1.20116 0.58154 0.84571
 H35 H 1.14505 0.69350 0.92398
 H36 H 1.07652 0.69495 0.83952
 H37 H 1.07902 0.65100 0.79872
 H38 H 1.16172 0.58049 0.80053
 C39 C 0.65387 -0.15966 0.11776
 C40 C 0.68442 -0.14832 0.10419
 C41 C 0.70104 -0.11994 0.11752
 C42 C 0.68661 -0.10325 0.14510
 C43 C 0.65658 -0.11490 0.15949
 C44 C 0.63995 -0.14298 0.14553
 C45 C 0.63758 -0.18803 0.10441
 C46 C 0.60725 -0.20042 0.11832
 C47 C 0.59349 -0.18299 0.14597
 C48 C 0.60968 -0.15468 0.15967
 C49 C 0.59631 -0.13830 0.18777
 C50 C 0.61344 -0.11112 0.20288
 C51 C 0.64342 -0.09935 0.18813
 H52 H 0.69552 -0.16210 0.08360
 H53 H 0.69859 -0.08104 0.15545
 H54 H 0.64985 -0.20128 0.08416
 H55 H 0.56971 -0.19074 0.15667
 H56 H 0.57272 -0.14714 0.19810
 H57 H 0.65732 -0.07887 0.19957
 C58 C -0.15377 1.16100 -0.38428
 C59 C -0.18352 1.14916 -0.39925
 C60 C -0.20142 1.12152 -0.38571
 C61 C -0.18867 1.10647 -0.35621
 C62 C -0.15897 1.11807 -0.34104
 C63 C -0.14125 1.14518 -0.35530
 C64 C -0.13655 1.18876 -0.39768
 C65 C -0.10685 1.20090 -0.38261
 C66 C -0.09409 1.18433 -0.35420
 C67 C -0.11123 1.15679 -0.34031
 C68 C -0.09915 1.14113 -0.31124
 C69 C -0.11729 1.11476 -0.29603
 C70 C -0.14719 1.10336 -0.31134
 H71 H -0.19174 1.16093 -0.42225
 H72 H -0.20244 1.08650 -0.34388
 H73 H -0.14690 1.20156 -0.41931
 H74 H -0.07096 1.19311 -0.34267
 H75 H -0.07567 1.14978 -0.30038
 H76 H -0.16186 1.08354 -0.29977
 C77 C 0.66503 0.66565 0.62201
 C78 C 0.69422 0.65200 0.60762
 C79 C 0.70972 0.62344 0.62157
 C80 C 0.69553 0.60822 0.64995
 C81 C 0.66612 0.62130 0.66434
 C82 C 0.65078 0.65015 0.65032
 C83 C 0.65018 0.69479 0.60871
 C84 C 0.62077 0.70881 0.62295
 C85 C 0.60644 0.69249 0.65092
 C86 C 0.62145 0.66371 0.66486
 C87 C 0.60797 0.64871 0.69363
 C88 C 0.62327 0.62017 0.70788
 C89 C 0.65212 0.60636 0.69288
 H90 H 0.70540 0.66406 0.58601
 H91 H 0.70737 0.58609 0.66070
 H92 H 0.66116 0.70579 0.58649
 H93 H 0.58460 0.70308 0.66324
 H94 H 0.58556 0.65924 0.70504
 H95 H 0.66417 0.58454 0.70399
 C96 C 0.83468 0.33293 0.12317
 C97 C 0.80647 0.34678 0.10705
 C98 C 0.79069 0.37633 0.11916
 C99 C 0.80469 0.39205 0.14775
 C100 C 0.83282 0.37838 0.16413
 C101 C 0.84770 0.34855 0.15196
 C102 C 0.84975 0.30339 0.11099
 C103 C 0.87775 0.28862 0.12731
 C104 C 0.89022 0.30459 0.15643
 C105 C 0.87544 0.33421 0.16874
 C106 C 0.88802 0.34968 0.19771
 C107 C 0.87329 0.37936 0.21007
 C108 C 0.84585 0.39371 0.19302
 H109 H 0.79769 0.33481 0.08434
 H110 H 0.79287 0.41401 0.15868
 H111 H 0.83834 0.29124 0.08955
 H112 H 0.91232 0.29499 0.16911
 H113 H 0.90939 0.33872 0.21066
 H114 H 0.83419 0.41641 0.20273
 C115 C 0.33436 0.16578 0.87764
 C116 C 0.30499 0.15335 0.89271
 C117 C 0.28878 0.12402 0.88053
 C118 C 0.30315 0.10746 0.85266
 C119 C 0.33240 0.11973 0.83731
 C120 C 0.34810 0.14896 0.84983
 C121 C 0.35012 0.19496 0.88993
 C122 C 0.37941 0.20764 0.87470
 C123 C 0.39292 0.19066 0.84693
 C124 C 0.37741 0.16154 0.83435
 C125 C 0.39055 0.14505 0.80626
 C126 C 0.37484 0.11604 0.79335
 C127 C 0.34589 0.10342 0.80924
 H128 H 0.29572 0.16611 0.91476
 H129 H 0.29089 0.08582 0.84152
 H130 H 0.33917 0.20819 0.91097
 H131 H 0.41570 0.19997 0.83523
 H132 H 0.41256 0.15534 0.79394
 H133 H 0.33388 0.08078 0.79979
 C134 C 0.16383 0.83534 0.37798
 C135 C 0.19217 0.84887 0.39414
 C136 C 0.20898 0.87710 0.38094
 C137 C 0.19665 0.89214 0.35153
 C138 C 0.16830 0.87895 0.33515
 C139 C 0.15199 0.85025 0.34828
 C140 C 0.14760 0.80673 0.39081
 C141 C 0.11954 0.79222 0.37431
 C142 C 0.10804 0.80770 0.34456
 C143 C 0.12405 0.83631 0.33152
 C144 C 0.11255 0.85109 0.30179
 C145 C 0.12861 0.87968 0.28860
 C146 C 0.15636 0.89362 0.30551
 H147 H 0.20115 0.83744 0.41708
 H148 H 0.20965 0.91361 0.34087
 H149 H 0.15823 0.79501 0.41284
 H150 H 0.08583 0.79844 0.33180
 H151 H 0.09096 0.84046 0.28890
 H152 H 0.16903 0.91547 0.29519
 Zn153 Zn 0.00260 1.03980 -0.01847
 Zn154 Zn -0.02955 0.97174 -0.02599
 Zn155 Zn 0.03928 0.97863 0.00404
 Zn156 Zn -0.02028 1.00277 0.04192
 O157 O -0.00209 0.99817 0.00031
 O158 O -0.02013 1.04354 -0.05669
 O159 O -0.00922 0.93339 -0.03945
 O160 O 0.07248 1.00442 -0.01175
 O161 O -0.04292 0.99301 -0.06356
 O162 O 0.04545 1.05014 -0.02832
 O163 O 0.04195 0.93994 -0.01830
 O164 O 0.00656 0.98740 0.07449
 O165 O -0.06733 0.95895 -0.00453
 O166 O 0.05053 0.96873 0.04623
 O167 O -0.05885 0.98016 0.04606
 O168 O -0.02999 1.04564 0.05241
 O169 O -0.01274 1.07302 0.00755
 C170 C -0.03779 1.02298 -0.07355
 C171 C 0.02077 0.92300 -0.03512
 C172 C 0.07259 1.03358 -0.02472
 C173 C 0.03529 0.97341 0.07368
 C174 C -0.07656 0.96332 0.02556
 C175 C -0.02606 1.07293 0.03634
 Zn176 Zn 0.46072 0.02137 0.50742
 Zn177 Zn 0.52836 0.02899 0.47522
 Zn178 Zn 0.52174 -0.00405 0.54232
 Zn179 Zn 0.49639 -0.03937 0.48202
 O180 O 0.50188 0.00181 0.50164
 O181 O 0.45763 0.06131 0.48723
 O182 O 0.56685 0.04170 0.49595
 O183 O 0.49648 0.01069 0.57635
 O184 O 0.50739 0.06746 0.46324
 O185 O 0.45104 0.02934 0.55030
 O186 O 0.56074 0.01768 0.54543
 O187 O 0.51166 -0.07369 0.50695
 O188 O 0.54069 0.00848 0.43688
 O189 O 0.53153 -0.04708 0.55132
 O190 O 0.51835 -0.04232 0.44337
 O191 O 0.45333 -0.04869 0.47241
 O192 O 0.42680 -0.00355 0.49122
 C193 C 0.47804 0.07843 0.46974
 C194 C 0.57764 0.03560 0.52528
 C195 C 0.46753 0.02424 0.57702
 C196 C 0.52635 -0.07409 0.53513
 C197 C 0.53549 -0.02139 0.42652
 C198 C 0.42635 -0.03216 0.47700
 Zn199 Zn 1.01996 0.50614 0.45740
 Zn200 Zn 1.02891 0.47319 0.52445
 Zn201 Zn 0.99649 0.54120 0.51865
 Zn202 Zn 0.96026 0.48043 0.49396
 O203 O 1.00149 0.50016 0.49869
 O204 O 1.05935 0.48508 0.45341
 O205 O 1.04242 0.49368 0.56249
 O206 O 1.01069 0.57552 0.49331
 O207 O 1.06679 0.46088 0.50269
 O208 O 1.02841 0.54936 0.44791
 O209 O 1.01979 0.54439 0.55656
 O210 O 0.92667 0.50525 0.51093
 O211 O 1.00857 0.43458 0.53689
 O212 O 0.95371 0.55024 0.52960
 O213 O 0.95806 0.44050 0.51418
 O214 O 0.94943 0.47199 0.45142
 O215 O 0.99397 0.49063 0.42408
 C216 C 1.07687 0.46722 0.47319
 C217 C 1.03755 0.52355 0.57293
 C218 C 1.02385 0.57626 0.46446
 C219 C 0.92663 0.53371 0.52546
 C220 C 0.97912 0.42344 0.53102
 C221 C 0.96517 0.47674 0.42427
 Zn222 Zn 0.50496 0.45979 1.01798
 Zn223 Zn 0.47215 0.52758 1.02526
 Zn224 Zn 0.54012 0.52118 0.99346
 Zn225 Zn 0.47982 0.49535 0.95772
 O226 O 0.49918 0.50105 0.99870
 O227 O 0.48275 0.45611 1.05644
 O228 O 0.49244 0.56630 1.03779
 O229 O 0.57426 0.49639 1.00941
 O230 O 0.45977 0.50654 1.06329
 O231 O 0.54809 0.45079 1.02760
 O232 O 0.54257 0.56068 1.01443
 O233 O 0.50488 0.51141 0.92411
 O234 O 0.43355 0.53958 1.00444
 O235 O 0.54984 0.53037 0.95078
 O236 O 0.44017 0.51599 0.95476
 O237 O 0.47133 0.45222 0.94787
 O238 O 0.49019 0.42565 0.99261
 C239 C 0.46516 0.47663 1.07335
 C240 C 0.52183 0.57751 1.03182
 C241 C 0.57493 0.46762 1.02328
 C242 C 0.53351 0.52565 0.92389
 C243 C 0.42284 0.53330 0.97511
 C244 C 0.47632 0.42517 0.96403
 C245 C 1.20520 0.41709 0.42524
 C246 C 1.22605 0.43826 0.40631
 C247 C 1.25620 0.42630 0.39286
 C248 C 1.26664 0.39259 0.39784
 C249 C 1.24577 0.37172 0.41766
 C250 C 1.21557 0.38381 0.43109
 C251 C 1.17230 0.42955 0.43788
 C252 C 1.16092 0.42128 0.47012
 C253 C 1.12992 0.43340 0.48175
 C254 C 1.10963 0.45389 0.46129
 C255 C 1.12099 0.46186 0.42898
 C256 C 1.15188 0.44986 0.41745
 H257 H 1.27168 0.44419 0.37950
 H258 H 1.25151 0.34538 0.42158
 H259 H 1.12191 0.42682 0.50676
 H260 H 1.10600 0.47746 0.41246
 H261 H 1.19976 0.36672 0.44517
 H262 H 1.17623 0.40586 0.48652
 H263 H 1.21918 0.46434 0.40212
 H264 H 1.15964 0.45619 0.39230
 C265 C 0.29181 0.57982 0.93062
 C266 C 0.27123 0.55837 0.91159
 C267 C 0.24079 0.56985 0.89828
 C268 C 0.22980 0.60333 0.90354
 C269 C 0.25024 0.62436 0.92375
 C270 C 0.28074 0.61275 0.93701
 C271 C 0.32534 0.56820 0.94247
 C272 C 0.33727 0.57644 0.97458
 C273 C 0.36900 0.56531 0.98533
 C274 C 0.38945 0.54588 0.96409
 C275 C 0.37751 0.53795 0.93192
 C276 C 0.34591 0.54895 0.92127
 H277 H 0.22562 0.55185 0.88462
 H278 H 0.24405 0.65056 0.92794
 H279 H 0.37744 0.57180 1.01027
 H280 H 0.39259 0.52313 0.91482
 H281 H 0.29630 0.63004 0.95121
 H282 H 0.32188 0.59108 0.99153
 H283 H 0.27867 0.53251 0.90702
 H284 H 0.33773 0.54272 0.89618
 C285 C -0.20370 0.91333 0.07622
 C286 C -0.22834 0.89838 0.05566
 C287 C -0.25931 0.88814 0.06885
 C288 C -0.26628 0.89178 0.10315
 C289 C -0.24153 0.90650 0.12371
 C290 C -0.21099 0.91754 0.11039
 C291 C -0.17065 0.92460 0.06232
 C292 C -0.14147 0.92436 0.08241
 C293 C -0.11096 0.93676 0.07026
 C294 C -0.10851 0.94870 0.03740
 C295 C -0.13705 0.94780 0.01671
 C296 C -0.16792 0.93630 0.02916
 H297 H -0.27782 0.87752 0.05198
 H298 H -0.24546 0.90925 0.15031
 H299 H -0.08912 0.93683 0.08655
 H300 H -0.13576 0.95716 -0.00868
 H301 H -0.19321 0.92962 0.12706
 H302 H -0.14202 0.91458 0.10763
 H303 H -0.22370 0.89421 0.02935
 H304 H -0.18976 0.93748 0.01298
 C305 C 0.70691 0.08542 0.57130
 C306 C 0.71736 0.11873 0.56583
 C307 C 0.74767 0.13055 0.57943
 C308 C 0.76848 0.10935 0.59905
 C309 C 0.75808 0.07555 0.60337
 C310 C 0.72788 0.06388 0.58975
 C311 C 0.67368 0.07332 0.55911
 C312 C 0.65357 0.05316 0.57987
 C313 C 0.62246 0.04125 0.56881
 C314 C 0.61054 0.04915 0.53664
 C315 C 0.63046 0.06960 0.51586
 C316 C 0.66172 0.08166 0.52705
 H317 H 0.75348 0.15693 0.57589
 H318 H 0.77360 0.05742 0.61644
 H319 H 0.60777 0.02571 0.58559
 H320 H 0.62199 0.07613 0.49096
 H321 H 0.72096 0.03775 0.59358
 H322 H 0.66177 0.04683 0.60492
 H323 H 0.70149 0.13605 0.55204
 H324 H 0.67678 0.09703 0.51044
 C325 C 0.43387 0.20874 0.42085
 C326 C 0.43907 0.21809 0.38747
 C327 C 0.42572 0.24821 0.37501
 C328 C 0.40658 0.27000 0.39558
 C329 C 0.40265 0.26081 0.42949
 C330 C 0.41603 0.23071 0.44182
 C331 C 0.44572 0.17555 0.43347
 C332 C 0.42484 0.15617 0.45425
 C333 C 0.43539 0.12472 0.46584
 C334 C 0.46714 0.11181 0.45702
 C335 C 0.48811 0.13117 0.43623
 C336 C 0.47746 0.16269 0.42450
 H337 H 0.42888 0.25299 0.34861
 H338 H 0.38996 0.27709 0.44710
 H339 H 0.41854 0.11051 0.48176
 H340 H 0.51274 0.12198 0.42902
 H341 H 0.41242 0.22462 0.46795
 H342 H 0.40003 0.16511 0.46115
 H343 H 0.45234 0.20144 0.37056
 H344 H 0.49419 0.17717 0.40870
 C345 C 0.93706 0.29274 0.57978
 C346 C 0.92471 0.26814 0.55765
 C347 C 0.91139 0.23794 0.56976
 C348 C 0.90987 0.23175 0.60432
 C349 C 0.92309 0.25605 0.62640
 C350 C 0.93667 0.28615 0.61424
 C351 C 0.94858 0.32587 0.56703
 C352 C 0.97817 0.34099 0.57927
 C353 C 0.98838 0.37262 0.56747
 C354 C 0.96891 0.38986 0.54359
 C355 C 0.93929 0.37466 0.53149
 C356 C 0.92934 0.34299 0.54297
 H357 H 0.90207 0.21950 0.55205
 H358 H 0.92186 0.25236 0.65317
 H359 H 1.01132 0.38368 0.57725
 H360 H 0.92376 0.38719 0.51301
 H361 H 0.94569 0.30484 0.63185
 H362 H 0.99352 0.32822 0.59774
 H363 H 0.92517 0.27240 0.53092
 H364 H 0.90620 0.33213 0.53344
 C365 C 0.06762 0.79345 -0.08291
 C366 C 0.04864 0.77198 -0.10354
 C367 C 0.06160 0.74085 -0.11392
 C368 C 0.09433 0.73023 -0.10439
 C369 C 0.11281 0.75195 -0.08310
 C370 C 0.09956 0.78263 -0.07236
 C371 C 0.05471 0.82720 -0.07264
 C372 C 0.07716 0.85436 -0.06869
 C373 C 0.06588 0.88547 -0.05697
 C374 C 0.03172 0.89056 -0.04962
 C375 C 0.00885 0.86406 -0.05488
 C376 C 0.02027 0.83256 -0.06601
 H377 H 0.04525 0.72513 -0.12887
 H378 H 0.13840 0.74658 -0.07561
 H379 H 0.08399 0.90563 -0.05363
 H380 H -0.01763 0.86734 -0.04925
 H381 H 0.11474 0.79807 -0.05585
 H382 H 0.10363 0.85166 -0.07457
 H383 H 0.02386 0.77938 -0.11217
 H384 H 0.00226 0.81222 -0.06848
 C385 C 0.56479 0.70822 1.08077
 C386 C 0.58348 0.72953 1.05988
 C387 C 0.59670 0.75980 1.07192
 C388 C 0.59173 0.76989 1.10543
 C389 C 0.57165 0.74886 1.12587
 C390 C 0.55848 0.71851 1.11370
 C391 C 0.55332 0.67476 1.06853
 C392 C 0.52121 0.66215 1.07653
 C393 C 0.51083 0.63052 1.06477
 C394 C 0.53244 0.61084 1.04493
 C395 C 0.56461 0.62344 1.03723
 C396 C 0.57489 0.65495 1.04887
 H397 H 0.61013 0.77553 1.05436
 H398 H 0.56760 0.75444 1.15200
 H399 H 0.48588 0.62155 1.07111
 H400 H 0.58199 0.60896 1.02212
 H401 H 0.54448 0.70241 1.13054
 H402 H 0.50397 0.67695 1.09149
 H403 H 0.58792 0.72276 1.03403
 H404 H 0.60000 0.66366 1.04278
 C405 C 0.41614 0.42668 1.20034
 C406 C 0.42234 0.39278 1.20875
 C407 C 0.41118 0.37945 1.23904
 C408 C 0.39429 0.39979 1.26243
 C409 C 0.38879 0.43392 1.25444
 C410 C 0.39923 0.44708 1.22370
 C411 C 0.42719 0.44037 1.16734
 C412 C 0.43692 0.47437 1.16371
 C413 C 0.44820 0.48661 1.13286
 C414 C 0.45079 0.46494 1.10527
 C415 C 0.44074 0.43123 1.10864
 C416 C 0.42861 0.41923 1.13909
 H417 H 0.41544 0.35294 1.24377
 H418 H 0.37645 0.45066 1.27192
 H419 H 0.45605 0.51269 1.13086
 H420 H 0.44208 0.41414 1.08756
 H421 H 0.39357 0.47317 1.21818
 H422 H 0.43671 0.49140 1.18483
 H423 H 0.43599 0.37632 1.19200
 H424 H 0.42032 0.39328 1.14033
 C425 C 0.58078 -0.06965 0.29763
 C426 C 0.59677 -0.04906 0.27382
 C427 C 0.60646 -0.06212 0.24279
 C428 C 0.60108 -0.09632 0.23494
 C429 C 0.58483 -0.11675 0.25867
 C430 C 0.57442 -0.10353 0.28926
 C431 C 0.57098 -0.05626 0.33112
 C432 C 0.57097 -0.07760 0.35924
 C433 C 0.55981 -0.06599 0.39020
 C434 C 0.54936 -0.03248 0.39418
 C435 C 0.55068 -0.01055 0.36673
 C436 C 0.56101 -0.02241 0.33539
 H437 H 0.61830 -0.04533 0.22504
 H438 H 0.58068 -0.14331 0.25406
 H439 H 0.55942 -0.08326 0.41115
 H440 H 0.54248 0.01538 0.36922
 H441 H 0.56138 -0.12009 0.30637
 H442 H 0.57955 -0.10343 0.35746
 H443 H 0.60241 -0.02294 0.27928
 H444 H 0.56022 -0.00525 0.31441
 C445 C -0.08548 1.07299 -0.20104
 C446 C -0.07885 1.10684 -0.20925
 C447 C -0.08921 1.12025 -0.23982
 C448 C -0.10571 1.10002 -0.26364
 C449 C -0.11164 1.06593 -0.25582
 C450 C -0.10198 1.05270 -0.22484
 C451 C -0.07518 1.05921 -0.16783
 C452 C -0.06545 1.02522 -0.16410
 C453 C -0.05452 1.01295 -0.13310
 C454 C -0.05232 1.03459 -0.10546
 C455 C -0.06252 1.06825 -0.10888
 C456 C -0.07429 1.08028 -0.13950
 H457 H -0.08466 1.14673 -0.24443
 H458 H -0.12371 1.04930 -0.27364
 H459 H -0.04653 0.98693 -0.13106
 H460 H -0.06143 1.08531 -0.08775
 H461 H -0.10793 1.02664 -0.21947
 H462 H -0.06528 1.00825 -0.18528
 H463 H -0.06547 1.12320 -0.19212
 H464 H -0.08261 1.10622 -0.14086
 C465 C 1.08681 0.57277 0.70023
 C466 C 1.10206 0.55199 0.72440
 C467 C 1.11183 0.56504 0.75544
 C468 C 1.10735 0.59943 0.76297
 C469 C 1.09224 0.62020 0.73873
 C470 C 1.08171 0.60699 0.70810
 C471 C 1.07614 0.55908 0.66704
 C472 C 1.07617 0.57990 0.63855
 C473 C 1.06402 0.56806 0.60798
 C474 C 1.05255 0.53479 0.60476
 C475 C 1.05385 0.51332 0.63256
 C476 C 1.06511 0.52545 0.66351
 H477 H 1.12277 0.54799 0.77356
 H478 H 1.08884 0.64690 0.74311
 H479 H 1.06363 0.58496 0.58672
 H480 H 1.04484 0.48761 0.63066
 H481 H 1.06933 0.62380 0.69069
 H482 H 1.08549 0.60550 0.63972
 H483 H 1.10686 0.52563 0.71933
 H484 H 1.06417 0.50869 0.68480
 C485 C 0.80171 0.58547 0.57914
 C486 C 0.77391 0.59260 0.55855
 C487 C 0.74402 0.60499 0.57231
 C488 C 0.74123 0.60999 0.60695
 C489 C 0.76891 0.60250 0.62756
 C490 C 0.79893 0.59056 0.61377
 C491 C 0.83359 0.57279 0.56463
 C492 C 0.86458 0.58679 0.57441
 C493 C 0.89474 0.57450 0.56121
 C494 C 0.89456 0.54765 0.53827
 C495 C 0.86351 0.53374 0.52838
 C496 C 0.83331 0.54636 0.54126
 H497 H 0.72295 0.61042 0.55593
 H498 H 0.76746 0.60640 0.65431
 H499 H 0.91824 0.58571 0.56937
 H500 H 0.86255 0.51307 0.51072
 H501 H 0.81992 0.58499 0.63020
 H502 H 0.86543 0.60740 0.59216
 H503 H 0.77551 0.58905 0.53176
 H504 H 0.80974 0.53501 0.53350
 C505 C 0.70111 0.41499 1.07413
 C506 C 0.72315 0.43647 1.09143
 C507 C 0.75268 0.42396 1.10591
 C508 C 0.76122 0.38943 1.10349
 C509 C 0.73905 0.36820 1.08544
 C510 C 0.70952 0.38080 1.07110
 C511 C 0.66904 0.42805 1.06001
 C512 C 0.63915 0.40931 1.06304
 C513 C 0.60872 0.42196 1.05074
 C514 C 0.60746 0.45366 1.03509
 C515 C 0.63744 0.47222 1.03166
 C516 C 0.66788 0.45956 1.04401
 H517 H 0.76911 0.44190 1.11811
 H518 H 0.74329 0.34135 1.08353
 H519 H 0.58609 0.40705 1.05387
 H520 H 0.63737 0.49668 1.01966
 H521 H 0.69312 0.36364 1.05770
 H522 H 0.63914 0.38515 1.07562
 H523 H 0.71732 0.46299 1.09427
 H524 H 0.69057 0.47439 1.04093
 C525 C 0.19813 1.08709 -0.07553
 C526 C 0.20668 1.12131 -0.07308
 C527 C 0.23652 1.13343 -0.08716
 C528 C 0.25876 1.11167 -0.10439
 C529 C 0.24991 1.07720 -0.10641
 C530 C 0.22015 1.06519 -0.09222
 C531 C 0.16618 1.07422 -0.06114
 C532 C 0.16538 1.04297 -0.04466
 C533 C 0.13510 1.03007 -0.03240
 C534 C 0.10487 1.04814 -0.03633
 C535 C 0.10575 1.07971 -0.05226
 C536 C 0.13609 1.09261 -0.06452
 H537 H 0.24105 1.16026 -0.08561
 H538 H 0.26635 1.05886 -0.11794
 H539 H 0.13535 1.00576 -0.02011
 H540 H 0.08291 1.09423 -0.05573
 H541 H 0.21419 1.03865 -0.09466
 H542 H 0.18823 1.02846 -0.04120
 H543 H 0.19025 1.13880 -0.06022
 H544 H 0.13585 1.11660 -0.07741
 C545 C 0.30009 -0.08493 0.42628
 C546 C 0.27567 -0.06261 0.41366
 C547 C 0.24592 -0.07487 0.39939
 C548 C 0.23994 -0.10973 0.39731
 C549 C 0.26418 -0.13203 0.41030
 C550 C 0.29385 -0.11977 0.42468
 C551 C 0.33229 -0.07195 0.44030
 C552 C 0.36280 -0.08869 0.43377
 C553 C 0.39323 -0.07605 0.44611
 C554 C 0.39391 -0.04627 0.46514
 C555 C 0.36338 -0.02969 0.47197
 C556 C 0.33292 -0.04242 0.45974
 H557 H 0.22758 -0.05702 0.38997
 H558 H 0.26055 -0.15904 0.40876
 H559 H 0.41630 -0.08935 0.44024
 H560 H 0.36302 -0.00677 0.48669
 H561 H 0.31194 -0.13763 0.43455
 H562 H 0.36328 -0.11119 0.41846
 H563 H 0.27983 -0.03564 0.41418
 H564 H 0.30981 -0.02921 0.46565
 C565 C 0.57835 -0.20014 0.58556
 C566 C 0.61302 -0.20615 0.58309
 C567 C 0.62687 -0.23630 0.59475
 C568 C 0.60645 -0.26109 0.60997
 C569 C 0.57149 -0.25466 0.61233
 C570 C 0.55763 -0.22476 0.59991
 C571 C 0.56402 -0.16798 0.57351
 C572 C 0.53721 -0.16776 0.55059
 C573 C 0.52477 -0.13723 0.53815
 C574 C 0.53847 -0.10642 0.54902
 C575 C 0.56475 -0.10674 0.57260
 C576 C 0.57763 -0.13724 0.58447
 H577 H 0.65392 -0.23917 0.59319
 H578 H 0.55439 -0.27314 0.62267
 H579 H 0.50445 -0.13770 0.52004
 H580 H 0.57591 -0.08341 0.58131
 H581 H 0.53074 -0.22062 0.60193
 H582 H 0.52645 -0.19123 0.54175
 H583 H 0.62946 -0.18741 0.57208
 H584 H 0.59821 -0.13688 0.60229
 C585 C 1.07377 0.70260 0.41185
 C586 C 1.07170 0.71068 0.37781
 C587 C 1.08636 0.74018 0.36553
 C588 C 1.10372 0.76265 0.38695
 C589 C 1.10518 0.75442 0.42130
 C590 C 1.09045 0.72491 0.43348
 C591 C 1.05943 0.67054 0.42464
 C592 C 1.04275 0.66951 0.45557
 C593 C 1.03060 0.63902 0.46822
 C594 C 1.03487 0.60888 0.45021
 C595 C 1.05098 0.61004 0.41898
 C596 C 1.06313 0.64051 0.40636
 H597 H 1.08522 0.74417 0.33883
 H598 H 1.11679 0.77108 0.43935
 H599 H 1.01821 0.63902 0.49230
 H600 H 1.05477 0.58728 0.40451
 H601 H 1.09259 0.71931 0.45988
 H602 H 1.03909 0.69231 0.47001
 H603 H 1.05883 0.69406 0.36052
 H604 H 1.07623 0.64040 0.38265
 C605 C -0.07798 1.19803 0.09014
 C606 C -0.09491 1.22018 0.06857
 C607 C -0.10932 1.24987 0.08068
 C608 C -0.10725 1.25851 0.11491
 C609 C -0.08989 1.23607 0.13635
 C610 C -0.07560 1.20632 0.12413
 C611 C -0.06327 1.16621 0.07717
 C612 C -0.06653 1.13597 0.09518
 C613 C -0.05394 1.10576 0.08223
 C614 C -0.03778 1.10514 0.05100
 C615 C -0.03395 1.13552 0.03333
 C616 C -0.04655 1.16569 0.04626
 H617 H -0.12099 1.26645 0.06261
 H618 H -0.08835 1.24041 0.16298
 H619 H -0.05736 1.08280 0.09645
 H620 H -0.02151 1.13598 0.00927
 H621 H -0.06259 1.18977 0.14137
 H622 H -0.07960 1.13551 0.11890
 H623 H -0.09733 1.21441 0.04222
 H624 H -0.04318 1.18866 0.03206
 C625 C 0.42527 0.29901 0.91157
 C626 C 0.41260 0.27477 0.93388
 C627 C 0.39799 0.24504 0.92196
 C628 C 0.39561 0.23889 0.88744
 C629 C 0.40851 0.26300 0.86514
 C630 C 0.42324 0.29266 0.87706
 C631 C 0.43977 0.33112 0.92423
 C632 C 0.43322 0.36166 0.90762
 C633 C 0.44572 0.39206 0.92015
 C634 C 0.46493 0.39269 0.94968
 C635 C 0.47195 0.36212 0.96603
 C636 C 0.45957 0.33168 0.95340
 H637 H 0.38866 0.22680 0.93980
 H638 H 0.40674 0.25922 0.83840
 H639 H 0.43970 0.41517 0.90704
 H640 H 0.48680 0.36173 0.98875
 H641 H 0.43311 0.31061 0.85922
 H642 H 0.41765 0.36220 0.88538
 H643 H 0.41339 0.27905 0.96060
 H644 H 0.46553 0.30854 0.96648
 C645 C 0.58553 0.57763 0.79929
 C646 C 0.59036 0.61258 0.79626
 C647 C 0.60217 0.62637 0.76640
 C648 C 0.60979 0.60546 0.73911
 C649 C 0.60502 0.57049 0.74212
 C650 C 0.59274 0.55672 0.77188
 C651 C 0.57304 0.56318 0.83106
 C652 C 0.54659 0.53967 0.83107
 C653 C 0.53390 0.52719 0.86121
 C654 C 0.54777 0.53764 0.89188
 C655 C 0.57476 0.56058 0.89175
 C656 C 0.58711 0.57338 0.86166
 H657 H 0.60590 0.65337 0.76478
 H658 H 0.61059 0.55388 0.72137
 H659 H 0.51313 0.50950 0.86051
 H660 H 0.58594 0.56917 0.91495
 H661 H 0.58936 0.52969 0.77367
 H662 H 0.53521 0.53157 0.80779
 H663 H 0.58471 0.62925 0.81695
 H664 H 0.60774 0.59125 0.86227
 C665 C 0.41332 0.07107 0.70301
 C666 C 0.37843 0.07317 0.70863
 C667 C 0.36599 0.08733 0.73809
 C668 C 0.38813 0.09955 0.76274
 C669 C 0.42302 0.09677 0.75745
 C670 C 0.43547 0.08278 0.72790
 C671 C 0.42653 0.05776 0.67088
 C672 C 0.45594 0.03802 0.67006
 C673 C 0.46907 0.02678 0.63964
 C674 C 0.45298 0.03489 0.60937
 C675 C 0.42326 0.05411 0.61023
 C676 C 0.41026 0.06550 0.64060
 H677 H 0.33898 0.08940 0.74120
 H678 H 0.44075 0.10554 0.77613
 H679 H 0.49192 0.01186 0.63983
 H680 H 0.41033 0.06095 0.58736
 H681 H 0.46247 0.08187 0.72424
 H682 H 0.46880 0.03118 0.69296
 H683 H 0.36068 0.06396 0.69018
 H684 H 0.38788 0.08111 0.64027
 C685 C 0.09251 0.92260 0.19663
 C686 C 0.09918 0.94337 0.22432
 C687 C 0.11136 0.92952 0.25411
 C688 C 0.11659 0.89461 0.25686
 C689 C 0.10997 0.87388 0.22916
 C690 C 0.09822 0.88776 0.19927
 C691 C 0.07897 0.93698 0.16523
 C692 C 0.09238 0.92726 0.13425
 C693 C 0.07867 0.93969 0.10453
 C694 C 0.05099 0.96178 0.10520
 C695 C 0.03786 0.97183 0.13625
 C696 C 0.05185 0.95970 0.16598
 H697 H 0.11614 0.94598 0.27520
 H698 H 0.11407 0.84692 0.23060
 H699 H 0.08935 0.93146 0.08101
 H700 H 0.01659 0.98888 0.13758
 H701 H 0.09300 0.87118 0.17838
 H702 H 0.11348 0.90999 0.13304
 H703 H 0.09514 0.97033 0.22282
 H704 H 0.04091 0.96738 0.18956
 C705 C 0.91039 0.42410 0.30090
 C706 C 0.90455 0.44417 0.27256
 C707 C 0.89226 0.42972 0.24306
 C708 C 0.88611 0.39488 0.24126
 C709 C 0.89217 0.37482 0.26954
 C710 C 0.90402 0.38931 0.29911
 C711 C 0.92333 0.43917 0.33227
 C712 C 0.90891 0.43044 0.36307
 C713 C 0.92198 0.44336 0.39286
 C714 C 0.95002 0.46501 0.39250
 C715 C 0.96412 0.47418 0.36161
 C716 C 0.95076 0.46153 0.33176
 H717 H 0.88794 0.44567 0.22151
 H718 H 0.88737 0.34795 0.26886
 H719 H 0.91054 0.43579 0.41623
 H720 H 0.98570 0.49085 0.36051
 H721 H 0.90862 0.37324 0.32051
 H722 H 0.88752 0.41352 0.36410
 H723 H 0.90912 0.47108 0.27338
 H724 H 0.96244 0.46848 0.30832
   
