data_POSCAR
  _audit_creation_date              2014-09-24
  _audit_creation_method            'ToBaCCo'
  _symmetry_space_group_name_H-M    'P1'
  _symmetry_Int_Tables_number       1
  _symmetry_cell_setting            triclinic
  loop_
  _symmetry_equiv_pos_as_xyz
 x,y,z
_cell_length_a 45.4714
_cell_length_b 33.6986
_cell_length_c 35.5028
_cell_angle_alpha 91.400500
_cell_angle_beta 89.408200
_cell_angle_gamma 89.205700
loop_
  _atom_site_label
  _atom_site_type_symbol
  _atom_site_fract_x
  _atom_site_fract_y
  _atom_site_fract_z
Si1 Si 1.25596 0.25832 0.24689
 Si2 Si 0.75275 -0.25484 0.24356
 Si3 Si 0.75465 0.23690 -0.25623
 Si4 Si 1.25246 -0.25768 -0.25399
 Si5 Si 0.24522 0.25727 0.75102
 Si6 Si 0.74793 0.76393 0.75895
 Si7 Si 0.74396 0.25247 0.25526
 Si8 Si 0.24760 0.74442 0.25237
 O9 O 1.04612 0.07393 0.07096
 O10 O 1.07812 0.03472 0.03565
 C11 C 1.07243 0.06185 0.06132
 O12 O 0.96361 -0.06620 0.07361
 O13 O 0.93068 -0.02872 0.04070
 C14 C 0.93699 -0.05574 0.06490
 O15 O 1.04581 -0.06352 0.07505
 O16 O 1.07811 -0.03129 0.03679
 C17 C 1.07229 -0.05486 0.06417
 O18 O 0.96426 0.08046 0.06902
 O19 O 0.93078 0.04142 0.03828
 C20 C 0.93751 0.07064 0.06102
 Zr21 Zr 1.00481 0.05510 0.05100
 O22 O 1.00243 0.05857 0.11058
 O23 O 1.00856 0.11755 0.04868
 Zr24 Zr 1.00444 -0.04445 0.05484
 O25 O 1.00408 -0.03449 0.11383
 O26 O 1.00401 -0.10669 0.06177
 O27 O 1.03106 0.00500 0.05930
 O28 O 0.97882 0.00645 0.06071
 O29 O 0.96189 0.07012 -0.06195
 O30 O 0.92959 0.03631 -0.02477
 C31 C 0.93542 0.06138 -0.05093
 O32 O 1.04388 -0.07132 -0.06341
 O33 O 1.07705 -0.03496 -0.02941
 C34 C 1.07054 -0.06123 -0.05518
 O35 O 0.96211 -0.07468 -0.05437
 O36 O 0.92976 -0.03290 -0.02237
 C37 C 0.93570 -0.06309 -0.04474
 O38 O 1.04460 0.06504 -0.06717
 O39 O 1.07758 0.03142 -0.03081
 C40 C 1.07126 0.05530 -0.05776
 Zr41 Zr 1.00352 0.04904 -0.04380
 O42 O 0.99975 0.04652 -0.10318
 O43 O 1.00685 0.11163 -0.04478
 Zr44 Zr 1.00329 -0.05084 -0.04005
 O45 O 0.99856 -0.05511 -0.09927
 O46 O 1.00649 -0.11342 -0.03731
 Zr47 Zr 1.04812 0.00089 0.00389
 Zr48 Zr 0.95992 0.00346 0.00692
 O49 O 0.97768 -0.00081 -0.04804
 O50 O 1.02957 -0.00205 -0.05033
 O51 O 0.97786 0.06070 0.00420
 O52 O 1.02959 -0.05574 0.00668
 O53 O 1.02994 0.05861 0.00249
 O54 O 0.97766 -0.05463 0.00854
 H55 H 0.96564 0.00822 0.08312
 H56 H 1.04311 -0.07904 0.00660
 H57 H 0.96414 -0.00231 -0.06971
 H58 H 1.04339 0.08145 0.00144
 H59 H 1.01597 -0.11920 0.04123
 H60 H 0.99242 -0.12170 -0.01764
 H61 H 1.01400 -0.03870 -0.11064
 H62 H 1.01542 0.02839 -0.11314
 H63 H 0.98906 0.12316 -0.03225
 H64 H 0.99278 0.12732 0.03218
 H65 H 1.01723 0.03966 0.12021
 H66 H 1.00351 -0.06108 0.12509
 O67 O 1.03650 0.56517 0.57526
 O68 O 1.06990 0.53277 0.53613
 C69 C 1.06318 0.55548 0.56511
 O70 O 0.95508 0.42795 0.55983
 O71 O 0.92250 0.46780 0.52876
 C72 C 0.92854 0.43910 0.55137
 O73 O 1.03738 0.43007 0.56398
 O74 O 1.07015 0.46643 0.53001
 C75 C 1.06394 0.44001 0.55465
 O76 O 0.95483 0.57291 0.56976
 O77 O 0.92248 0.53756 0.53346
 C78 C 0.92839 0.56403 0.55938
 Zr79 Zr 0.99604 0.55026 0.55066
 O80 O 0.99203 0.54797 0.60999
 O81 O 0.99998 0.61280 0.55427
 Zr82 Zr 0.99630 0.45059 0.54375
 O83 O 0.99486 0.45169 0.60328
 O84 O 0.99513 0.38771 0.54140
 O85 O 1.02238 0.49954 0.55459
 O86 O 0.97028 0.50050 0.55396
 O87 O 0.95658 0.58114 0.44145
 O88 O 0.92327 0.54106 0.47050
 C89 C 0.92992 0.57081 0.44960
 O90 O 1.03836 0.43837 0.42548
 O91 O 1.07083 0.47043 0.46434
 C92 C 1.06479 0.44741 0.43568
 O93 O 0.95676 0.43253 0.43117
 O94 O 0.92334 0.47041 0.46564
 C95 C 0.93007 0.44255 0.44097
 O96 O 1.03888 0.57453 0.43633
 O97 O 1.07099 0.53679 0.47027
 C98 C 1.06529 0.56362 0.44574
 Zr99 Zr 0.99729 0.55531 0.45594
 O100 O 0.99397 0.55662 0.39650
 O101 O 1.00102 0.61783 0.45842
 Zr102 Zr 0.99726 0.45560 0.44909
 O103 O 0.99370 0.45875 0.38982
 O104 O 1.00087 0.39297 0.44484
 Zr105 Zr 1.04081 0.50221 0.49999
 Zr106 Zr 0.95253 0.50373 0.49962
 O107 O 0.97147 0.50626 0.44542
 O108 O 1.02365 0.50539 0.44516
 O109 O 0.97041 0.56112 0.50374
 O110 O 1.02259 0.44531 0.49589
 O111 O 1.02235 0.55976 0.50408
 O112 O 0.97058 0.44582 0.49582
 H113 H 0.95679 0.49974 0.57602
 H114 H 1.03624 0.42220 0.49383
 H115 H 0.95814 0.50750 0.42356
 H116 H 1.03571 0.58267 0.50610
 H117 H 1.01228 0.37769 0.52651
 H118 H 0.98834 0.38228 0.46506
 H119 H 1.00941 0.47632 0.38093
 H120 H 1.01199 0.54401 0.38557
 H121 H 0.98708 0.62793 0.47806
 H122 H 0.98282 0.62460 0.54153
 H123 H 1.00434 0.52535 0.61808
 H124 H 0.99476 0.42358 0.61086
 O125 O 0.53755 0.06149 0.57250
 O126 O 0.57092 0.02808 0.53406
 C127 C 0.56428 0.05171 0.56243
 O128 O 0.45618 -0.07709 0.55941
 O129 O 0.42382 -0.03754 0.52773
 C130 C 0.42973 -0.06606 0.55052
 O131 O 0.53851 -0.07291 0.56505
 O132 O 0.57150 -0.03797 0.52994
 C133 C 0.56515 -0.06310 0.55580
 O134 O 0.45564 0.06820 0.56709
 O135 O 0.42380 0.03180 0.53105
 C136 C 0.42932 0.05855 0.55676
 Zr137 Zr 0.49697 0.04571 0.54812
 O138 O 0.49361 0.04663 0.60761
 O139 O 0.49865 0.10828 0.54653
 Zr140 Zr 0.49740 -0.05429 0.54345
 O141 O 0.49473 -0.05298 0.60294
 O142 O 0.50085 -0.11701 0.54158
 O143 O 0.52326 -0.00491 0.55336
 O144 O 0.47138 -0.00417 0.55247
 O145 O 0.45764 0.07199 0.43623
 O146 O 0.42453 0.03361 0.46750
 C147 C 0.43096 0.06167 0.44448
 O148 O 0.53991 -0.06980 0.42580
 O149 O 0.57189 -0.03654 0.46439
 C150 C 0.56626 -0.06050 0.43631
 O151 O 0.45726 -0.07292 0.42956
 O152 O 0.42434 -0.03547 0.46516
 C153 C 0.43059 -0.06252 0.43965
 O154 O 0.53973 0.06786 0.43372
 O155 O 0.57171 0.02969 0.46733
 C156 C 0.56605 0.05634 0.44262
 Zr157 Zr 0.49846 0.04839 0.45352
 O158 O 0.49611 0.04986 0.39402
 O159 O 0.50086 0.11103 0.45730
 Zr160 Zr 0.49853 -0.05184 0.44859
 O161 O 0.49585 -0.05064 0.38916
 O162 O 0.50235 -0.11455 0.44601
 Zr163 Zr 0.54185 -0.00379 0.49882
 Zr164 Zr 0.45384 -0.00243 0.49796
 O165 O 0.47301 -0.00113 0.44382
 O166 O 0.52482 -0.00194 0.44385
 O167 O 0.47129 0.05512 0.50093
 O168 O 0.52367 -0.06084 0.49590
 O169 O 0.52356 0.05386 0.50156
 O170 O 0.47172 -0.06055 0.49542
 H171 H 0.45788 -0.00461 0.57454
 H172 H 0.53711 -0.08426 0.49499
 H173 H 0.46004 -0.00040 0.42158
 H174 H 0.53697 0.07678 0.50307
 H175 H 0.48631 -0.12676 0.52316
 H176 H 0.48497 -0.12533 0.45903
 H177 H 0.51081 -0.03189 0.38035
 H178 H 0.51361 0.03559 0.38349
 H179 H 0.48600 0.12031 0.47621
 H180 H 0.49836 0.11785 0.57314
 H181 H 0.50360 0.02224 0.61618
 H182 H 0.49506 -0.08106 0.61062
 O183 O 0.54081 0.56074 0.07216
 O184 O 0.57441 0.52934 0.03253
 C185 C 0.56754 0.55147 0.06187
 O186 O 0.45998 0.42169 0.05093
 O187 O 0.42760 0.46449 0.02306
 C188 C 0.43359 0.43377 0.04309
 O189 O 0.54172 0.42559 0.05783
 O190 O 0.57467 0.46311 0.02558
 C191 C 0.56832 0.43603 0.04954
 O192 O 0.45858 0.56750 0.06654
 O193 O 0.42704 0.53348 0.02780
 C194 C 0.43235 0.55884 0.05483
 Zr195 Zr 0.50037 0.54613 0.04719
 O196 O 0.49679 0.54316 0.10652
 O197 O 0.50196 0.60878 0.04943
 Zr198 Zr 0.50105 0.44649 0.03752
 O199 O 0.49808 0.44597 0.09694
 O200 O 0.50474 0.38382 0.03417
 O201 O 0.52687 0.49532 0.04986
 O202 O 0.47488 0.49600 0.04897
 O203 O 0.46161 0.57987 -0.06171
 O204 O 0.42844 0.53863 -0.03401
 C205 C 0.43498 0.56902 -0.05413
 O206 O 0.54389 0.43601 -0.07946
 O207 O 0.57582 0.46835 -0.04006
 C208 C 0.57026 0.44470 -0.06845
 O209 O 0.46088 0.43344 -0.07673
 O210 O 0.42820 0.46886 -0.03892
 C211 C 0.43433 0.44281 -0.06529
 O212 O 0.54370 0.57316 -0.06642
 O213 O 0.57589 0.53475 -0.03323
 C214 C 0.57010 0.56194 -0.05742
 Zr215 Zr 0.50221 0.55384 -0.04721
 O216 O 0.49937 0.55818 -0.10646
 O217 O 0.50531 0.61628 -0.04152
 Zr218 Zr 0.50225 0.45412 -0.05727
 O219 O 0.49959 0.46026 -0.11637
 O220 O 0.50570 0.39167 -0.06428
 Zr221 Zr 0.54552 0.49948 -0.00446
 Zr222 Zr 0.45767 0.50075 -0.00543
 O223 O 0.47661 0.50503 -0.05946
 O224 O 0.52865 0.50413 -0.05935
 O225 O 0.47507 0.55809 0.00040
 O226 O 0.52727 0.44262 -0.01028
 O227 O 0.52707 0.55691 0.00115
 O228 O 0.47559 0.44280 -0.01086
 H229 H 0.46115 0.49440 0.07072
 H230 H 0.54053 0.41906 -0.01219
 H231 H 0.46336 0.50709 -0.08132
 H232 H 0.54043 0.57979 0.00369
 H233 H 0.49172 0.37466 0.01371
 H234 H 0.48959 0.38004 -0.04945
 H235 H 0.51716 0.47484 -0.12464
 H236 H 0.51606 0.54279 -0.11775
 H237 H 0.49238 0.62473 -0.02014
 H238 H 0.50059 0.61663 0.07647
 H239 H 0.50787 0.51915 0.11390
 H240 H 0.49873 0.41766 0.10386
 C241 C 1.21469 0.24894 0.18880
 C242 C 1.19454 0.22867 0.16649
 C243 C 1.19100 0.18785 0.16997
 C244 C 1.20825 0.16714 0.19585
 C245 C 1.22815 0.18768 0.21882
 C246 C 1.23097 0.22895 0.21601
 N247 N 1.16885 0.16889 0.14794
 N248 N 1.16740 0.13146 0.14297
 C249 C 1.14379 0.11444 0.12190
 C250 C 1.14649 0.07549 0.10747
 C251 C 1.12358 0.05854 0.08681
 C252 C 1.09735 0.08010 0.08120
 C253 C 1.09463 0.11900 0.09598
 C254 C 1.11772 0.13615 0.11584
 H255 H 1.21756 0.28029 0.18449
 H256 H 1.18162 0.24483 0.14633
 H257 H 1.20585 0.13546 0.19888
 H258 H 1.24097 0.17133 0.23881
 H259 H 1.16641 0.05838 0.11206
 H260 H 1.12607 0.02833 0.07601
 H261 H 1.07467 0.13625 0.09203
 H262 H 1.11499 0.16618 0.12698
 C263 C 1.23779 0.70174 0.67762
 C264 C 1.22002 0.67782 0.65484
 C265 C 1.19473 0.66072 0.66982
 C266 C 1.18778 0.66697 0.70824
 C267 C 1.20558 0.69066 0.73098
 C268 C 1.23049 0.70850 0.71575
 N269 N 1.17564 0.63886 0.64538
 N270 N 1.15101 0.62662 0.65734
 C271 C 1.13048 0.60615 0.63400
 C272 C 1.10259 0.59910 0.64894
 C273 C 1.08096 0.58207 0.62655
 C274 C 1.08701 0.57127 0.58875
 C275 C 1.11544 0.57686 0.57406
 C276 C 1.13704 0.59457 0.59648
 H277 H 1.25695 0.71518 0.66524
 H278 H 1.22559 0.67331 0.62530
 H279 H 1.16838 0.65406 0.72058
 H280 H 1.19961 0.69562 0.76036
 H281 H 1.09738 0.60779 0.67784
 H282 H 1.05939 0.57757 0.63883
 H283 H 1.12066 0.56864 0.54506
 H284 H 1.15860 0.59965 0.58446
 C285 C 0.73871 0.20232 0.67229
 C286 C 0.72095 0.17894 0.64885
 C287 C 0.69879 0.15564 0.66428
 C288 C 0.69576 0.15415 0.70368
 C289 C 0.71375 0.17702 0.72705
 C290 C 0.73455 0.20239 0.71151
 N291 N 0.67861 0.13562 0.63972
 N292 N 0.65450 0.12224 0.65240
 C293 C 0.63302 0.10311 0.62925
 C294 C 0.60516 0.09682 0.64479
 C295 C 0.58296 0.08009 0.62299
 C296 C 0.58838 0.06853 0.58523
 C297 C 0.61665 0.07384 0.56980
 C298 C 0.63879 0.09141 0.59156
 H299 H 0.75515 0.22079 0.65964
 H300 H 0.72374 0.18011 0.61857
 H301 H 0.67910 0.13598 0.71640
 H302 H 0.71053 0.17620 0.75729
 H303 H 0.60048 0.10566 0.67379
 H304 H 0.56151 0.07609 0.63579
 H305 H 0.62141 0.06526 0.54075
 H306 H 0.66024 0.09592 0.57901
 C307 C 0.73902 0.70471 0.17468
 C308 C 0.72172 0.68037 0.15163
 C309 C 0.69648 0.66275 0.16624
 C310 C 0.68900 0.66918 0.20448
 C311 C 0.70626 0.69335 0.22743
 C312 C 0.73125 0.71142 0.21266
 N313 N 0.67806 0.63991 0.14171
 N314 N 0.65389 0.62619 0.15373
 C315 C 0.63393 0.60452 0.13052
 C316 C 0.60651 0.59546 0.14581
 C317 C 0.58528 0.57732 0.12358
 C318 C 0.59126 0.56747 0.08556
 C319 C 0.61931 0.57492 0.07053
 C320 C 0.64051 0.59372 0.09282
 H321 H 0.75823 0.71841 0.16269
 H322 H 0.72769 0.67577 0.12223
 H323 H 0.66962 0.65594 0.21656
 H324 H 0.69991 0.69832 0.25668
 H325 H 0.60130 0.60355 0.17486
 H326 H 0.56400 0.57138 0.13608
 H327 H 0.62445 0.56750 0.04132
 H328 H 0.66170 0.60037 0.08052
 C329 C 0.80807 -0.24605 0.20816
 C330 C 0.82948 -0.22600 0.18793
 C331 C 0.82348 -0.18831 0.17399
 C332 C 0.79555 -0.17080 0.18030
 C333 C 0.77418 -0.19074 0.20093
 C334 C 0.78045 -0.22833 0.21520
 N335 N 0.84639 -0.16834 0.15443
 N336 N 0.84243 -0.13535 0.13839
 C337 C 0.86619 -0.11584 0.11993
 C338 C 0.86035 -0.08208 0.09888
 C339 C 0.88325 -0.06247 0.08075
 C340 C 0.91249 -0.07620 0.08379
 C341 C 0.91822 -0.11000 0.10515
 C342 C 0.89534 -0.12969 0.12291
 H343 H 0.81323 -0.27523 0.21860
 H344 H 0.85090 -0.23980 0.18322
 H345 H 0.79041 -0.14168 0.16974
 H346 H 0.75288 -0.17672 0.20577
 H347 H 0.83799 -0.07104 0.09642
 H348 H 0.87809 -0.03646 0.06462
 H349 H 0.94043 -0.12147 0.10805
 H350 H 0.90050 -0.15560 0.13916
 C351 C 0.80990 0.27106 0.72720
 C352 C 0.82938 0.29397 0.70674
 C353 C 0.81946 0.31669 0.67691
 C354 C 0.78935 0.31714 0.66823
 C355 C 0.76971 0.29406 0.68886
 C356 C 0.78003 0.27003 0.71784
 N357 N 0.84086 0.33788 0.65579
 N358 N 0.83494 0.36032 0.62845
 C359 C 0.85824 0.37952 0.60853
 C360 C 0.85167 0.40748 0.58112
 C361 C 0.87437 0.42680 0.56203
 C362 C 0.90402 0.41812 0.56994
 C363 C 0.91037 0.38960 0.59709
 C364 C 0.88784 0.37065 0.61615
 H365 H 0.81845 0.25413 0.75021
 H366 H 0.85247 0.29374 0.71393
 H367 H 0.78117 0.33474 0.64540
 H368 H 0.74661 0.29428 0.68170
 H369 H 0.82899 0.41459 0.57483
 H370 H 0.86870 0.44862 0.54132
 H371 H 0.93285 0.38208 0.60408
 H372 H 0.89367 0.34905 0.63697
 C373 C 0.30699 -0.24825 0.70896
 C374 C 0.32713 -0.22917 0.68599
 C375 C 0.31963 -0.19326 0.66942
 C376 C 0.29153 -0.17643 0.67602
 C377 C 0.27136 -0.19546 0.69927
 C378 C 0.27912 -0.23132 0.71605
 N379 N 0.34130 -0.17448 0.64677
 N380 N 0.33645 -0.14279 0.62891
 C381 C 0.35947 -0.12493 0.60756
 C382 C 0.35351 -0.09066 0.58724
 C383 C 0.37611 -0.07186 0.56767
 C384 C 0.40508 -0.08704 0.56846
 C385 C 0.41075 -0.12191 0.58824
 C386 C 0.38824 -0.14065 0.60751
 H387 H 0.31323 -0.27627 0.72107
 H388 H 0.34870 -0.24242 0.68102
 H389 H 0.28527 -0.14866 0.66343
 H390 H 0.24977 -0.18224 0.70402
 H391 H 0.33143 -0.07822 0.58701
 H392 H 0.37104 -0.04501 0.55273
 H393 H 0.43274 -0.13459 0.58927
 H394 H 0.39351 -0.16712 0.62289
 C395 C 0.27729 0.33159 0.21940
 C396 C 0.29357 0.35465 0.19469
 C397 C 0.30970 0.33661 0.16498
 C398 C 0.30876 0.29516 0.15962
 C399 C 0.29227 0.27222 0.18401
 C400 C 0.27678 0.29019 0.21432
 N401 N 0.32803 0.36049 0.14187
 N402 N 0.34666 0.34466 0.11893
 C403 C 0.36627 0.36737 0.09660
 C404 C 0.39075 0.34805 0.08013
 C405 C 0.41225 0.36967 0.06174
 C406 C 0.40917 0.41095 0.05868
 C407 C 0.38377 0.43017 0.07326
 C408 C 0.36254 0.40855 0.09257
 H409 H 0.26554 0.34612 0.24264
 H410 H 0.29421 0.38652 0.19923
 H411 H 0.32098 0.28047 0.13684
 H412 H 0.29197 0.24031 0.17958
 H413 H 0.39375 0.31632 0.08296
 H414 H 0.43158 0.35421 0.05047
 H415 H 0.38104 0.46204 0.07128
 H416 H 0.34363 0.42401 0.10492
 C417 C 0.79806 0.17875 -0.24361
 C418 C 0.81786 0.15689 -0.22235
 C419 C 0.81676 0.15917 -0.18299
 C420 C 0.79484 0.18287 -0.16494
 C421 C 0.77512 0.20526 -0.18636
 C422 C 0.77717 0.20404 -0.22586
 N423 N 0.83937 0.13916 -0.16259
 N424 N 0.83878 0.13492 -0.12704
 C425 C 0.86298 0.11636 -0.10822
 C426 C 0.85923 0.10299 -0.07143
 C427 C 0.88266 0.08484 -0.05270
 C428 C 0.91045 0.08061 -0.07026
 C429 C 0.91423 0.09463 -0.10693
 C430 C 0.89071 0.11198 -0.12583
 H431 H 0.79988 0.17717 -0.27406
 H432 H 0.83459 0.13876 -0.23660
 H433 H 0.79357 0.18505 -0.13450
 H434 H 0.75887 0.22403 -0.17203
 H435 H 0.83806 0.10633 -0.05739
 H436 H 0.87915 0.07456 -0.02435
 H437 H 0.93531 0.09170 -0.12128
 H438 H 0.89431 0.12236 -0.15411
 C439 C 0.76687 0.67557 0.28434
 C440 C 0.78293 0.65380 0.31032
 C441 C 0.80498 0.67198 0.33151
 C442 C 0.81044 0.71258 0.32694
 C443 C 0.79431 0.73433 0.30113
 C444 C 0.77248 0.71600 0.27957
 N445 N 0.82267 0.64835 0.35575
 N446 N 0.84457 0.66304 0.37285
 C447 C 0.86381 0.64014 0.39564
 C448 C 0.88987 0.65750 0.40775
 C449 C 0.91095 0.63509 0.42629
 C450 C 0.90606 0.59493 0.43363
 C451 C 0.87917 0.57795 0.42333
 C452 C 0.85822 0.60035 0.40406
 H453 H 0.75045 0.66047 0.26779
 H454 H 0.77868 0.62249 0.31333
 H455 H 0.82749 0.72734 0.34281
 H456 H 0.79930 0.76534 0.29747
 H457 H 0.89433 0.68816 0.40150
 H458 H 0.93136 0.64902 0.43432
 H459 H 0.87493 0.54705 0.42871
 H460 H 0.83809 0.58641 0.39504
 C461 C 0.31279 0.23260 0.26901
 C462 C 0.33279 0.21124 0.29037
 C463 C 0.32298 0.18415 0.31671
 C464 C 0.29263 0.17812 0.32123
 C465 C 0.27249 0.19953 0.29967
 C466 C 0.28246 0.22701 0.27345
 N467 N 0.34454 0.16415 0.33873
 N468 N 0.33846 0.13912 0.36384
 C469 C 0.36149 0.12068 0.38490
 C470 C 0.35470 0.09134 0.41079
 C471 C 0.37710 0.07243 0.43083
 C472 C 0.40671 0.08274 0.42528
 C473 C 0.41326 0.11275 0.39976
 C474 C 0.39099 0.13142 0.37982
 H475 H 0.32125 0.25401 0.24966
 H476 H 0.35612 0.21626 0.28679
 H477 H 0.28454 0.15742 0.34160
 H478 H 0.24915 0.19531 0.30404
 H479 H 0.33206 0.08281 0.41512
 H480 H 0.37127 0.04947 0.45026
 H481 H 0.43574 0.12162 0.39474
 H482 H 0.39694 0.15413 0.36020
 C483 C 0.26773 0.67302 -0.21347
 C484 C 0.28457 0.65141 -0.18815
 C485 C 0.30723 0.66971 -0.16816
 C486 C 0.31248 0.71029 -0.17315
 C487 C 0.29558 0.73189 -0.19827
 C488 C 0.27319 0.71341 -0.21873
 N489 N 0.32565 0.64622 -0.14469
 N490 N 0.34819 0.66088 -0.12900
 C491 C 0.36803 0.63806 -0.10695
 C492 C 0.39447 0.65533 -0.09617
 C493 C 0.41588 0.63303 -0.07810
 C494 C 0.41098 0.59306 -0.06994
 C495 C 0.38380 0.57617 -0.07907
 C496 C 0.36249 0.59845 -0.09782
 H497 H 0.25082 0.65788 -0.22913
 H498 H 0.28043 0.62013 -0.18476
 H499 H 0.32994 0.72516 -0.15815
 H500 H 0.30040 0.76289 -0.20231
 H501 H 0.39890 0.68584 -0.10300
 H502 H 0.43650 0.64693 -0.07101
 H503 H 0.37953 0.54539 -0.07311
 H504 H 0.34208 0.58458 -0.10582
 C505 C 1.20072 -0.21026 -0.24783
 C506 C 1.17967 -0.18669 -0.22863
 C507 C 1.18441 -0.17388 -0.19142
 C508 C 1.21086 -0.18420 -0.17379
 C509 C 1.23177 -0.20817 -0.19286
 C510 C 1.22666 -0.22181 -0.22982
 N511 N 1.16145 -0.15237 -0.17164
 N512 N 1.16485 -0.13746 -0.13871
 C513 C 1.14116 -0.11780 -0.11858
 C514 C 1.14698 -0.09700 -0.08494
 C515 C 1.12411 -0.07834 -0.06429
 C516 C 1.09492 -0.08077 -0.07680
 C517 C 1.08917 -0.10185 -0.11054
 C518 C 1.11207 -0.12003 -0.13133
 H519 H 1.19635 -0.22031 -0.27641
 H520 H 1.15936 -0.17899 -0.24251
 H521 H 1.21502 -0.17468 -0.14502
 H522 H 1.25154 -0.21649 -0.17827
 H523 H 1.16929 -0.09523 -0.07473
 H524 H 1.12924 -0.06239 -0.03839
 H525 H 1.06698 -0.10411 -0.12108
 H526 H 1.10697 -0.13618 -0.15712
 C527 C 1.23836 0.28987 0.31934
 C528 C 1.22046 0.31281 0.34402
 C529 C 1.19737 0.33588 0.33006
 C530 C 1.19296 0.33670 0.29097
 C531 C 1.21086 0.31406 0.26644
 C532 C 1.23335 0.28985 0.28036
 N533 N 1.17790 0.35699 0.35573
 N534 N 1.15440 0.37300 0.34379
 C535 C 1.13337 0.39357 0.36749
 C536 C 1.10622 0.40337 0.35200
 C537 C 1.08418 0.42128 0.37426
 C538 C 1.08911 0.43039 0.41247
 C539 C 1.11680 0.42189 0.42785
 C540 C 1.13879 0.40315 0.40555
 H541 H 1.25595 0.27221 0.33090
 H542 H 1.22423 0.31204 0.37405
 H543 H 1.17551 0.35465 0.27930
 H544 H 1.20694 0.31569 0.23664
 H545 H 1.10190 0.39623 0.32269
 H546 H 1.06319 0.42792 0.36154
 H547 H 1.12110 0.42868 0.45722
 H548 H 1.15978 0.39594 0.41796
 C549 C 0.70125 -0.20679 0.24745
 C550 C 0.67993 -0.18275 0.26561
 C551 C 0.68367 -0.17011 0.30306
 C552 C 0.70935 -0.18118 0.32207
 C553 C 0.73051 -0.20561 0.30405
 C554 C 0.72645 -0.21894 0.26675
 N555 N 0.66037 -0.14818 0.32174
 N556 N 0.66293 -0.13342 0.35486
 C557 C 0.63881 -0.11369 0.37402
 C558 C 0.64361 -0.09424 0.40864
 C559 C 0.62014 -0.07648 0.42883
 C560 C 0.59135 -0.07839 0.41480
 C561 C 0.58668 -0.09772 0.37987
 C562 C 0.61018 -0.11504 0.35959
 H563 H 0.69767 -0.21668 0.21863
 H564 H 0.66019 -0.17456 0.25071
 H565 H 0.71268 -0.17188 0.35110
 H566 H 0.74965 -0.21449 0.31966
 H567 H 0.66557 -0.09310 0.42012
 H568 H 0.62447 -0.06183 0.45566
 H569 H 0.56484 -0.09953 0.36814
 H570 H 0.60587 -0.13007 0.33296
 C571 C 0.69763 0.26928 -0.24139
 C572 C 0.67675 0.29312 -0.22236
 C573 C 0.68484 0.31761 -0.19202
 C574 C 0.71449 0.31854 -0.18112
 C575 C 0.73556 0.29459 -0.20037
 C576 C 0.72712 0.26917 -0.23017
 N577 N 0.66220 0.34058 -0.17301
 N578 N 0.66661 0.36370 -0.14479
 C579 C 0.64258 0.38517 -0.12683
 C580 C 0.64784 0.40988 -0.09539
 C581 C 0.62450 0.42992 -0.07670
 C582 C 0.59540 0.42546 -0.08918
 C583 C 0.59034 0.40113 -0.12115
 C584 C 0.61361 0.38124 -0.13975
 H585 H 0.69050 0.25133 -0.26511
 H586 H 0.65405 0.29249 -0.23128
 H587 H 0.72130 0.33756 -0.15790
 H588 H 0.75834 0.29572 -0.19187
 H589 H 0.67002 0.41324 -0.08509
 H590 H 0.62921 0.44839 -0.05217
 H591 H 0.56830 0.39705 -0.13170
 H592 H 0.60883 0.36244 -0.16401
 C593 C 1.19052 0.22227 -0.23319
 C594 C 1.17108 0.19844 -0.21379
 C595 C 1.18064 0.17652 -0.18330
 C596 C 1.21031 0.17810 -0.17260
 C597 C 1.22996 0.20211 -0.19222
 C598 C 1.21997 0.22503 -0.22213
 N599 N 1.15928 0.15376 -0.16379
 N600 N 1.16485 0.13247 -0.13557
 C601 C 1.14164 0.11160 -0.11726
 C602 C 1.14783 0.08852 -0.08596
 C603 C 1.12511 0.06947 -0.06684
 C604 C 1.09578 0.07341 -0.07876
 C605 C 1.08983 0.09606 -0.11057
 C606 C 1.11244 0.11486 -0.12961
 H607 H 1.18231 0.23816 -0.25706
 H608 H 1.14835 0.19710 -0.22249
 H609 H 1.21819 0.16105 -0.14921
 H610 H 1.25280 0.20293 -0.18396
 H611 H 1.17020 0.08572 -0.07610
 H612 H 1.13045 0.05230 -0.04238
 H613 H 1.06758 0.09963 -0.12066
 H614 H 1.10695 0.13240 -0.15375
 C615 C 1.20443 0.69014 0.26088
 C616 C 1.18424 0.66795 0.28089
 C617 C 1.18504 0.66731 0.32016
 C618 C 1.20704 0.68838 0.33939
 C619 C 1.22721 0.71116 0.31928
 C620 C 1.22544 0.71311 0.27986
 N621 N 1.16219 0.64683 0.33937
 N622 N 1.16256 0.63953 0.37436
 C623 C 1.13816 0.62046 0.39196
 C624 C 1.14167 0.60345 0.42724
 C625 C 1.11809 0.58454 0.44467
 C626 C 1.09040 0.58320 0.42738
 C627 C 1.08686 0.60081 0.39224
 C628 C 1.11054 0.61896 0.37455
 H629 H 1.20279 0.69055 0.23044
 H630 H 1.16748 0.65175 0.26577
 H631 H 1.20810 0.68810 0.36983
 H632 H 1.24372 0.72741 0.33469
 H633 H 1.16277 0.60449 0.44106
 H634 H 1.12142 0.57143 0.47186
 H635 H 1.06583 0.60017 0.37817
 H636 H 1.10716 0.63216 0.34741
 C637 C 0.70329 0.24598 0.31454
 C638 C 0.68425 0.22621 0.33844
 C639 C 0.68459 0.18477 0.33913
 C640 C 0.70510 0.16312 0.31660
 C641 C 0.72407 0.18299 0.29231
 C642 C 0.72260 0.22449 0.29044
 N643 N 0.66239 0.16575 0.36076
 N644 N 0.66223 0.12858 0.36625
 C645 C 0.63830 0.11098 0.38606
 C646 C 0.64155 0.07265 0.39993
 C647 C 0.61822 0.05492 0.41895
 C648 C 0.59107 0.07508 0.42353
 C649 C 0.58779 0.11330 0.40915
 C650 C 0.61124 0.13123 0.39087
 H651 H 0.70207 0.27808 0.31373
 H652 H 0.66860 0.24318 0.35573
 H653 H 0.70576 0.13101 0.31683
 H654 H 0.73922 0.16589 0.27449
 H655 H 0.66220 0.05659 0.39611
 H656 H 0.62121 0.02522 0.42942
 H657 H 0.56713 0.12949 0.41227
 H658 H 0.60805 0.16069 0.37998
 C659 C 0.70105 0.71016 -0.23754
 C660 C 0.68130 0.68529 -0.21967
 C661 C 0.68448 0.67691 -0.18153
 C662 C 0.70795 0.69343 -0.16134
 C663 C 0.72754 0.71877 -0.17915
 C664 C 0.72417 0.72735 -0.21736
 N665 N 0.66249 0.65371 -0.16366
 N666 N 0.66481 0.64134 -0.13022
 C667 C 0.64136 0.62024 -0.11281
 C668 C 0.64610 0.60157 -0.07852
 C669 C 0.62311 0.58197 -0.06053
 C670 C 0.59488 0.58149 -0.07636
 C671 C 0.59028 0.60025 -0.11076
 C672 C 0.61328 0.61919 -0.12892
 H673 H 0.69775 0.71684 -0.26691
 H674 H 0.66312 0.67305 -0.23540
 H675 H 0.71064 0.68767 -0.13169
 H676 H 0.74490 0.73203 -0.16278
 H677 H 0.66760 0.60230 -0.06572
 H678 H 0.62725 0.56789 -0.03397
 H679 H 0.56884 0.60018 -0.12379
 H680 H 0.60897 0.63355 -0.15528
 C681 C 0.76386 -0.16568 -0.20014
 C682 C 0.78142 -0.14357 -0.17544
 C683 C 0.80474 -0.16182 -0.15669
 C684 C 0.80982 -0.20285 -0.16224
 C685 C 0.79218 -0.22493 -0.18669
 C686 C 0.76924 -0.20648 -0.20602
 N687 N 0.82383 -0.13801 -0.13382
 N688 N 0.84697 -0.15282 -0.11960
 C689 C 0.86745 -0.13012 -0.09795
 C690 C 0.89411 -0.14824 -0.08858
 C691 C 0.91591 -0.12653 -0.07044
 C692 C 0.91127 -0.08623 -0.06078
 C693 C 0.88396 -0.06835 -0.06861
 C694 C 0.86222 -0.09008 -0.08744
 H695 H 0.74647 -0.15066 -0.21496
 H696 H 0.77732 -0.11199 -0.17159
 H697 H 0.82770 -0.21775 -0.14818
 H698 H 0.79682 -0.25632 -0.19112
 H699 H 0.89834 -0.17907 -0.09641
 H700 H 0.93661 -0.14120 -0.06437
 H701 H 0.87987 -0.03731 -0.06149
 H702 H 0.84167 -0.07552 -0.09433
 C703 C 0.76190 0.32882 0.28322
 C704 C 0.77933 0.35401 0.30537
 C705 C 0.80114 0.33820 0.32850
 C706 C 0.80472 0.29674 0.33002
 C707 C 0.78720 0.27171 0.30825
 C708 C 0.76613 0.28753 0.28414
 N709 N 0.82008 0.36433 0.34923
 N710 N 0.84287 0.35067 0.36521
 C711 C 0.86331 0.37456 0.38568
 C712 C 0.89023 0.35720 0.39500
 C713 C 0.91167 0.37946 0.41316
 C714 C 0.90633 0.41952 0.42318
 C715 C 0.87885 0.43678 0.41507
 C716 C 0.85750 0.41451 0.39598
 H717 H 0.74524 0.34166 0.26554
 H718 H 0.77619 0.38585 0.30404
 H719 H 0.82119 0.28362 0.34786
 H720 H 0.79042 0.23988 0.30979
 H721 H 0.89485 0.32640 0.38739
 H722 H 0.93251 0.36526 0.41943
 H723 H 0.87426 0.46761 0.42253
 H724 H 0.83667 0.42840 0.38921
 C725 C 0.30257 -0.22459 0.26418
 C726 C 0.32343 -0.20265 0.28370
 C727 C 0.31563 -0.18105 0.31635
 C728 C 0.28620 -0.18078 0.32901
 C729 C 0.26508 -0.20293 0.30932
 C730 C 0.27334 -0.22614 0.27737
 N731 N 0.33841 -0.16036 0.33582
 N732 N 0.33422 -0.13887 0.36539
 C733 C 0.35846 -0.11977 0.38361
 C734 C 0.35319 -0.09466 0.41500
 C735 C 0.37658 -0.07605 0.43333
 C736 C 0.40575 -0.08242 0.42057
 C737 C 0.41093 -0.10780 0.38914
 C738 C 0.38756 -0.12615 0.37078
 H739 H 0.30971 -0.24011 0.23861
 H740 H 0.34593 -0.20258 0.27338
 H741 H 0.27963 -0.16382 0.35406
 H742 H 0.24250 -0.20227 0.31934
 H743 H 0.33092 -0.08948 0.42523
 H744 H 0.37179 -0.05683 0.45758
 H745 H 0.43306 -0.11335 0.37853
 H746 H 0.39233 -0.14542 0.34658
 C747 C 0.28608 0.31778 -0.24124
 C748 C 0.30694 0.34058 -0.22260
 C749 C 0.30947 0.33919 -0.18351
 C750 C 0.28987 0.31589 -0.16282
 C751 C 0.26899 0.29267 -0.18163
 C752 C 0.26768 0.29268 -0.22105
 N753 N 0.33324 0.35985 -0.16622
 N754 N 0.33599 0.36375 -0.13074
 C755 C 0.36090 0.38330 -0.11488
 C756 C 0.35955 0.39688 -0.07739
 C757 C 0.38338 0.41662 -0.06147
 C758 C 0.40929 0.42217 -0.08261
 C759 C 0.41087 0.40780 -0.12000
 C760 C 0.38676 0.38883 -0.13616
 H761 H 0.28531 0.31828 -0.27171
 H762 H 0.32182 0.35853 -0.23877
 H763 H 0.29141 0.31456 -0.13248
 H764 H 0.25470 0.27394 -0.16552
 H765 H 0.33987 0.39257 -0.06065
 H766 H 0.38170 0.42711 -0.03242
 H767 H 0.43056 0.41179 -0.13685
 H768 H 0.38840 0.37817 -0.16512
 C769 C 1.19461 -0.21724 0.24115
 C770 C 1.17510 -0.19311 0.22187
 C771 C 1.18422 -0.17334 0.18983
 C772 C 1.21375 -0.17678 0.17784
 C773 C 1.23353 -0.20098 0.19740
 C774 C 1.22378 -0.22277 0.22835
 N775 N 1.16252 -0.15104 0.17010
 N776 N 1.16749 -0.13178 0.14036
 C777 C 1.14383 -0.11140 0.12207
 C778 C 1.14950 -0.08933 0.08992
 C779 C 1.12640 -0.07040 0.07117
 C780 C 1.09718 -0.07354 0.08423
 C781 C 1.09173 -0.09532 0.11677
 C782 C 1.11472 -0.11396 0.13546
 H783 H 1.18648 -0.23145 0.26609
 H784 H 1.15253 -0.19011 0.23174
 H785 H 1.22137 -0.16121 0.15338
 H786 H 1.25622 -0.20316 0.18792
 H787 H 1.17178 -0.08703 0.07923
 H788 H 1.13139 -0.05376 0.04623
 H789 H 1.06961 -0.09815 0.12787
 H790 H 1.10960 -0.13074 0.16024
 C791 C 1.20151 0.31505 0.74109
 C792 C 1.18148 0.33755 0.72093
 C793 C 1.18224 0.33655 0.68160
 C794 C 1.20396 0.31356 0.66239
 C795 C 1.22388 0.29049 0.68267
 C796 C 1.22216 0.29040 0.72212
 N797 N 1.15955 0.35723 0.66225
 N798 N 1.16013 0.36274 0.62695
 C799 C 1.13593 0.38195 0.60904
 C800 C 1.13995 0.39803 0.57344
 C801 C 1.11661 0.41734 0.55580
 C802 C 1.08868 0.41986 0.57320
 C803 C 1.08462 0.40311 0.60865
 C804 C 1.10808 0.38461 0.62656
 H805 H 1.20009 0.31566 0.77158
 H806 H 1.16489 0.35523 0.73598
 H807 H 1.20494 0.31252 0.63190
 H808 H 1.24011 0.27243 0.66752
 H809 H 1.16126 0.39603 0.55959
 H810 H 1.12031 0.42992 0.52842
 H811 H 1.06339 0.40479 0.62279
 H812 H 1.10438 0.37206 0.65396
 C813 C 0.69762 -0.18745 0.75045
 C814 C 0.67671 -0.16646 0.73008
 C815 C 0.68065 -0.16110 0.69143
 C816 C 0.70616 -0.17639 0.67330
 C817 C 0.72699 -0.19777 0.69364
 C818 C 0.72265 -0.20370 0.73226
 N819 N 0.65771 -0.14190 0.67111
 N820 N 0.66041 -0.13266 0.63672
 C821 C 0.63646 -0.11509 0.61687
 C822 C 0.64165 -0.09866 0.58163
 C823 C 0.61852 -0.08157 0.56168
 C824 C 0.58970 -0.08136 0.57648
 C825 C 0.58455 -0.09820 0.61173
 C826 C 0.60772 -0.11470 0.63183
 H827 H 0.69383 -0.19198 0.78020
 H828 H 0.65709 -0.15493 0.74429
 H829 H 0.70958 -0.17276 0.64337
 H830 H 0.74609 -0.21021 0.67900
 H831 H 0.66368 -0.09889 0.56975
 H832 H 0.62315 -0.06884 0.53457
 H833 H 0.56266 -0.09818 0.62403
 H834 H 0.60310 -0.12744 0.65892
 C835 C 0.68775 0.26778 0.22481
 C836 C 0.66782 0.28637 0.20126
 C837 C 0.67729 0.31496 0.17622
 C838 C 0.70725 0.32454 0.17446
 C839 C 0.72734 0.30571 0.19806
 C840 C 0.71757 0.27777 0.22387
 N841 N 0.65570 0.33370 0.15344
 N842 N 0.66142 0.36072 0.13017
 C843 C 0.63829 0.37847 0.10889
 C844 C 0.64463 0.40930 0.08449
 C845 C 0.62203 0.42787 0.06463
 C846 C 0.59270 0.41576 0.06900
 C847 C 0.58659 0.38442 0.09315
 C848 C 0.60908 0.36598 0.11282
 H849 H 0.67966 0.24537 0.24339
 H850 H 0.64482 0.27852 0.20254
 H851 H 0.71505 0.34643 0.15506
 H852 H 0.75040 0.31315 0.19639
 H853 H 0.66704 0.41924 0.08121
 H854 H 0.62747 0.45201 0.04633
 H855 H 0.56432 0.37422 0.09717
 H856 H 0.60351 0.34217 0.13140
 C857 C 0.75660 0.18954 0.20241
 C858 C 0.77487 0.16652 0.17819
 C859 C 0.80488 0.17487 0.17500
 C860 C 0.81640 0.20653 0.19653
 C861 C 0.79825 0.22925 0.22079
 C862 C 0.76829 0.22073 0.22421
 N863 N 0.82341 0.15118 0.15006
 N864 N 0.85013 0.16051 0.14470
 C865 C 0.87048 0.13823 0.12126
 C866 C 0.89909 0.15232 0.11815
 C867 C 0.92047 0.13077 0.09775
 C868 C 0.91368 0.09438 0.07986
 C869 C 0.88460 0.08070 0.08193
 C870 C 0.86309 0.10245 0.10266
 H871 H 0.73337 0.18305 0.20410
 H872 H 0.76561 0.14239 0.16170
 H873 H 0.83946 0.21384 0.19460
 H874 H 0.80773 0.25381 0.23633
 H875 H 0.90498 0.17990 0.13225
 H876 H 0.94251 0.14249 0.09645
 H877 H 0.87870 0.05279 0.06847
 H878 H 0.84101 0.09105 0.10472
 C879 C 0.80152 0.75573 0.71817
 C880 C 0.82217 0.73611 0.69475
 C881 C 0.81599 0.69893 0.67853
 C882 C 0.78860 0.68165 0.68563
 C883 C 0.76800 0.70116 0.70937
 C884 C 0.77448 0.73813 0.72610
 N885 N 0.83835 0.67900 0.65622
 N886 N 0.83428 0.64619 0.63861
 C887 C 0.85771 0.62656 0.61782
 C888 C 0.85188 0.59241 0.59599
 C889 C 0.87467 0.57218 0.57637
 C890 C 0.90376 0.58565 0.57875
 C891 C 0.90941 0.62008 0.60052
 C892 C 0.88667 0.64037 0.61973
 H893 H 0.80686 0.78445 0.73039
 H894 H 0.84319 0.74974 0.68947
 H895 H 0.78332 0.65293 0.67337
 H896 H 0.74722 0.68710 0.71478
 H897 H 0.82967 0.58137 0.59433
 H898 H 0.86961 0.54570 0.55992
 H899 H 0.93149 0.63145 0.60282
 H900 H 0.89185 0.66658 0.63647
 C901 C 0.30118 0.22326 0.73552
 C902 C 0.32188 0.20056 0.71517
 C903 C 0.31363 0.17851 0.68335
 C904 C 0.28397 0.17841 0.67247
 C905 C 0.26304 0.20124 0.69308
 C906 C 0.27177 0.22472 0.72409
 N907 N 0.33628 0.15747 0.66270
 N908 N 0.33199 0.13626 0.63321
 C909 C 0.35638 0.11703 0.61403
 C910 C 0.35138 0.09154 0.58312
 C911 C 0.37504 0.07249 0.56427
 C912 C 0.40412 0.07891 0.57603
 C913 C 0.40898 0.10480 0.60688
 C914 C 0.38542 0.12357 0.62570
 H915 H 0.30847 0.23961 0.76019
 H916 H 0.34460 0.20041 0.72404
 H917 H 0.27711 0.16115 0.64807
 H918 H 0.24026 0.20108 0.68450
 H919 H 0.32916 0.08631 0.57374
 H920 H 0.37054 0.05280 0.54052
 H921 H 0.43102 0.11044 0.61674
 H922 H 0.38999 0.14326 0.64940
 C923 C 0.28749 0.68424 0.24200
 C924 C 0.30752 0.66063 0.22135
 C925 C 0.30821 0.66161 0.18209
 C926 C 0.28752 0.68527 0.16336
 C927 C 0.26743 0.70933 0.18414
 C928 C 0.26810 0.71007 0.22373
 N929 N 0.33152 0.64050 0.16260
 N930 N 0.33297 0.63602 0.12695
 C931 C 0.35791 0.61649 0.10927
 C932 C 0.35609 0.60294 0.07181
 C933 C 0.38026 0.58392 0.05412
 C934 C 0.40685 0.57895 0.07348
 C935 C 0.40878 0.59318 0.11085
 C936 C 0.38446 0.61144 0.12871
 H937 H 0.28829 0.68379 0.27250
 H938 H 0.32325 0.64240 0.23606
 H939 H 0.28755 0.68618 0.13290
 H940 H 0.25214 0.72780 0.16914
 H941 H 0.33586 0.60684 0.05641
 H942 H 0.37827 0.57356 0.02514
 H943 H 0.42896 0.58970 0.12643
 H944 H 0.38652 0.62200 0.15759
   
