data_POSCAR
  _audit_creation_date              2014-09-24
  _audit_creation_method            'ToBaCCo'
  _symmetry_space_group_name_H-M    'P1'
  _symmetry_Int_Tables_number       1
  _symmetry_cell_setting            triclinic
  loop_
  _symmetry_equiv_pos_as_xyz
 x,y,z
_cell_length_a 47.3745
_cell_length_b 46.2540
_cell_length_c 41.0833
_cell_angle_alpha 89.974800
_cell_angle_beta 88.702600
_cell_angle_gamma 90.591000
loop_
  _atom_site_label
  _atom_site_type_symbol
  _atom_site_fract_x
  _atom_site_fract_y
  _atom_site_fract_z
C1 C 0.27044 0.29149 0.23087
 C2 C 0.25047 0.27440 0.24787
 C3 C 0.22933 0.28752 0.26685
 C4 C 0.22830 0.31770 0.26960
 C5 C 0.24854 0.33473 0.25274
 C6 C 0.26943 0.32185 0.23275
 C7 C 0.25094 0.24272 0.24509
 C8 C 0.27008 0.22664 0.26302
 C9 C 0.26889 0.19631 0.26256
 C10 C 0.24895 0.18224 0.24316
 C11 C 0.23008 0.19818 0.22446
 C12 C 0.23106 0.22851 0.22592
 H13 H 0.28604 0.28107 0.21531
 H14 H 0.21385 0.27415 0.27979
 H15 H 0.28509 0.23771 0.27830
 H16 H 0.21608 0.24118 0.21253
 H17 H 0.24764 0.35805 0.25476
 H18 H 0.24853 0.15883 0.24225
 C19 C 0.77177 0.77060 0.23302
 C20 C 0.75048 0.75749 0.25220
 C21 C 0.73036 0.77444 0.26856
 C22 C 0.73165 0.80489 0.26660
 C23 C 0.75256 0.81754 0.24586
 C24 C 0.77278 0.80079 0.22886
 C25 C 0.74969 0.72578 0.25528
 C26 C 0.77067 0.71171 0.27262
 C27 C 0.77140 0.68142 0.27381
 C28 C 0.75074 0.66539 0.25751
 C29 C 0.73005 0.67914 0.23918
 C30 C 0.72944 0.70953 0.23865
 H31 H 0.78650 0.75681 0.21999
 H32 H 0.71500 0.76363 0.28437
 H33 H 0.78684 0.72442 0.28443
 H34 H 0.71418 0.72066 0.22408
 H35 H 0.75335 0.84077 0.24319
 H36 H 0.75091 0.64201 0.25898
 C37 C 0.76801 0.26377 0.73323
 C38 C 0.74749 0.24858 0.75145
 C39 C 0.72765 0.26355 0.77052
 C40 C 0.72805 0.29404 0.77194
 C41 C 0.74916 0.30896 0.75352
 C42 C 0.76914 0.29412 0.73407
 C43 C 0.74732 0.21677 0.75164
 C44 C 0.76610 0.20205 0.77138
 C45 C 0.76526 0.17163 0.77379
 C46 C 0.74529 0.15643 0.75512
 C47 C 0.72704 0.17097 0.73421
 C48 C 0.72797 0.20131 0.73303
 H49 H 0.78291 0.25179 0.71825
 H50 H 0.71153 0.25106 0.78346
 H51 H 0.78023 0.21474 0.78618
 H52 H 0.71410 0.21299 0.71718
 H53 H 0.75127 0.33216 0.75576
 H54 H 0.74450 0.13306 0.75575
 C55 C 0.27489 0.78134 0.73377
 C56 C 0.25306 0.76782 0.75188
 C57 C 0.23246 0.78446 0.76765
 C58 C 0.23366 0.81470 0.76606
 C59 C 0.25544 0.82810 0.74764
 C60 C 0.27612 0.81179 0.73063
 C61 C 0.25106 0.73607 0.75354
 C62 C 0.27068 0.72037 0.77123
 C63 C 0.26778 0.69025 0.77446
 C64 C 0.24567 0.67589 0.75870
 C65 C 0.22619 0.69139 0.74044
 C66 C 0.22880 0.72159 0.73841
 H67 H 0.28965 0.76770 0.72065
 H68 H 0.21543 0.77373 0.78113
 H69 H 0.28748 0.73174 0.78351
 H70 H 0.21386 0.73385 0.72449
 H71 H 0.25682 0.85145 0.74802
 H72 H 0.24350 0.65262 0.76082
 C73 C 0.02262 0.05166 0.03309
 H74 H 0.00736 0.06310 0.01895
 C75 C 0.04031 0.06705 0.05377
 H76 H 0.03823 0.09028 0.05569
 C77 C 0.04397 0.00755 0.04779
 H78 H 0.04546 -0.01564 0.04492
 C79 C 0.06198 0.02205 0.06883
 H80 H 0.07742 0.00986 0.08201
 N81 N 0.02464 0.02242 0.03067
 C82 C 0.02118 -0.05097 -0.02563
 H83 H 0.00353 -0.06075 -0.01250
 C84 C 0.03967 -0.06843 -0.04354
 H85 H 0.03581 -0.09153 -0.04443
 C86 C 0.04792 -0.00913 -0.04015
 H87 H 0.05122 0.01397 -0.03813
 C88 C 0.06686 -0.02577 -0.05849
 H89 H 0.08478 -0.01532 -0.07056
 Zn90 Zn 0.00165 0.00136 0.00190
 N91 N 0.02554 -0.02189 -0.02435
 C92 C -0.01323 0.03081 -0.05616
 N93 N -0.01944 0.02683 -0.02395
 C94 C -0.04224 0.03953 -0.00948
 C95 C -0.06024 0.05654 -0.02768
 C96 C -0.03035 0.04817 -0.07512
 C97 C -0.02197 -0.02694 0.05795
 C98 C -0.04202 -0.04378 0.07491
 C99 C -0.06723 -0.05018 0.02488
 C100 C -0.04642 -0.03368 0.00875
 N101 N -0.02445 -0.02233 0.02543
 H102 H 0.00469 0.02020 -0.06737
 H103 H -0.04682 0.03582 0.01611
 H104 H -0.07863 0.06609 -0.01601
 H105 H -0.02544 0.05087 -0.10083
 H106 H -0.00462 -0.01743 0.07090
 H107 H -0.03996 -0.04712 0.10084
 H108 H -0.08476 -0.05887 0.01138
 H109 H -0.04794 -0.02955 -0.01706
 C110 C 0.06292 -0.05585 -0.06019
 C111 C 0.06029 0.05221 0.07200
 C112 C -0.06510 -0.05536 0.05835
 C113 C -0.05438 0.06088 -0.06093
 C114 C 0.04592 0.53545 0.52113
 H115 H 0.04950 0.53218 0.49530
 C116 C 0.06604 0.55011 0.53928
 H117 H 0.08502 0.55838 0.52721
 C118 C 0.01696 0.52816 0.56832
 H119 H -0.00209 0.51925 0.57949
 C120 C 0.03643 0.54301 0.58737
 H121 H 0.03234 0.54530 0.61328
 N122 N 0.02219 0.52447 0.53590
 C123 C 0.02050 0.47548 0.45208
 H124 H 0.00504 0.48776 0.43930
 C125 C 0.04012 0.45930 0.43415
 H126 H 0.03928 0.45917 0.40783
 C127 C 0.04193 0.46228 0.50137
 H128 H 0.04320 0.46435 0.52748
 C129 C 0.06220 0.44618 0.48436
 H130 H 0.07848 0.43530 0.49765
 Zn131 Zn -0.00193 0.50201 0.50984
 N132 N 0.02167 0.47670 0.48514
 C133 C -0.04073 0.51469 0.46079
 N134 N -0.02217 0.52669 0.48181
 C135 C -0.01915 0.55589 0.48426
 C136 C -0.03547 0.57422 0.46546
 C137 C -0.05743 0.53217 0.44157
 C138 C -0.01869 0.46092 0.55849
 C139 C -0.03782 0.44554 0.57856
 C140 C -0.07591 0.47116 0.55382
 C141 C -0.05611 0.48630 0.53469
 N142 N -0.02807 0.48076 0.53688
 H143 H -0.04317 0.49143 0.45971
 H144 H -0.00448 0.56506 0.50127
 H145 H -0.03286 0.59740 0.46784
 H146 H -0.07266 0.52212 0.42578
 H147 H 0.00365 0.45725 0.56056
 H148 H -0.02979 0.43031 0.59598
 H149 H -0.09809 0.47554 0.55076
 H150 H -0.06337 0.50266 0.51826
 C151 C 0.06157 0.44478 0.45028
 C152 C 0.06155 0.55374 0.57289
 C153 C -0.06696 0.45048 0.57629
 C154 C -0.05511 0.56238 0.44396
 C155 C 0.54946 0.02536 0.50822
 H156 H 0.55928 0.01287 0.48904
 C157 C 0.56656 0.04077 0.52948
 H158 H 0.58923 0.04041 0.52563
 C159 C 0.50833 0.04094 0.53658
 H160 H 0.48566 0.04028 0.53985
 C161 C 0.52466 0.05649 0.55860
 H162 H 0.51424 0.06779 0.57848
 N163 N 0.52085 0.02591 0.51180
 C164 C 0.51668 -0.05037 0.46105
 H165 H 0.50117 -0.05892 0.47828
 C166 C 0.53360 -0.06939 0.44304
 H167 H 0.53114 -0.09243 0.44698
 C168 C 0.53929 -0.01008 0.43574
 H169 H 0.54144 0.01312 0.43306
 C170 C 0.55652 -0.02829 0.41713
 H171 H 0.57159 -0.01884 0.39990
 Zn172 Zn 0.49752 0.00415 0.48335
 N173 N 0.51996 -0.02127 0.45738
 C174 C 0.47915 0.02817 0.42339
 N175 N 0.47678 0.02958 0.45646
 C176 C 0.45852 0.04826 0.47121
 C177 C 0.44172 0.06629 0.45267
 C178 C 0.46316 0.04626 0.40394
 C179 C 0.48073 -0.03058 0.53684
 C180 C 0.46171 -0.04572 0.55718
 C181 C 0.42457 -0.03479 0.51986
 C182 C 0.44428 -0.01994 0.50024
 N183 N 0.47167 -0.01781 0.50920
 H184 H 0.49296 0.01267 0.41187
 H185 H 0.45635 0.04862 0.49740
 H186 H 0.42705 0.08077 0.46478
 H187 H 0.46509 0.04469 0.37768
 H188 H 0.50266 -0.02858 0.54334
 H189 H 0.46911 -0.05514 0.57952
 H190 H 0.40284 -0.03623 0.51234
 H191 H 0.43764 -0.01002 0.47789
 C192 C 0.55403 -0.05840 0.42089
 C193 C 0.55424 0.05655 0.55521
 C194 C 0.43313 -0.04765 0.54895
 C195 C 0.44401 0.06541 0.41862
 C196 C 0.55519 0.52675 0.01772
 H197 H 0.56573 0.51443 -0.00107
 C198 C 0.57147 0.54264 0.03934
 H199 H 0.59420 0.54294 0.03597
 C200 C 0.51319 0.54099 0.04524
 H201 H 0.49052 0.53955 0.04812
 C202 C 0.52870 0.55698 0.06767
 H203 H 0.51767 0.56788 0.08740
 N204 N 0.52652 0.52649 0.02061
 C205 C 0.52590 0.45236 -0.03641
 H206 H 0.51039 0.44176 -0.02069
 C207 C 0.54328 0.43575 -0.05683
 H208 H 0.54070 0.41247 -0.05676
 C209 C 0.54733 0.49550 -0.05642
 H210 H 0.54868 0.51886 -0.05626
 C211 C 0.56529 0.47976 -0.07696
 H212 H 0.58072 0.49128 -0.09200
 Zn213 Zn 0.50440 0.50405 -0.00850
 N214 N 0.52828 0.48169 -0.03642
 C215 C 0.48409 0.52826 -0.06710
 N216 N 0.48149 0.52861 -0.03402
 C217 C 0.46199 0.54561 -0.01876
 C218 C 0.44436 0.56321 -0.03680
 C219 C 0.46718 0.54584 -0.08603
 C220 C 0.49220 0.46581 0.04301
 C221 C 0.47524 0.44863 0.06365
 C222 C 0.43549 0.45864 0.02973
 C223 C 0.45319 0.47568 0.00980
 N224 N 0.48090 0.47917 0.01693
 H225 H 0.49893 0.51406 -0.07907
 H226 H 0.45961 0.54508 0.00740
 H227 H 0.42889 0.57651 -0.02426
 H228 H 0.46940 0.54508 -0.11231
 H229 H 0.51431 0.46901 0.04812
 H230 H 0.48447 0.43884 0.08480
 H231 H 0.41351 0.45604 0.02358
 H232 H 0.44474 0.48620 -0.01131
 C233 C 0.56345 0.44943 -0.07740
 C234 C 0.55830 0.55796 0.06488
 C235 C 0.44639 0.44509 0.05732
 C236 C 0.44695 0.56351 -0.07087
 C237 C 0.18152 -0.12591 -0.21376
 C238 C 0.17217 -0.13313 -0.18174
 C239 C 0.18315 -0.15853 -0.16764
 C240 C 0.20306 -0.17533 -0.18470
 C241 C 0.21232 -0.16762 -0.21617
 C242 C 0.20122 -0.14288 -0.23053
 C243 C 0.17436 -0.16706 -0.13648
 C244 C 0.15469 -0.15109 -0.11884
 C245 C 0.14312 -0.12555 -0.13156
 C246 C 0.15234 -0.11616 -0.16333
 C247 C 0.14172 -0.08994 -0.17545
 C248 C 0.12263 -0.07356 -0.15743
 C249 C 0.11306 -0.08264 -0.12675
 C250 C 0.12289 -0.10888 -0.11340
 C251 C 0.11189 -0.11731 -0.08242
 C252 C 0.09246 -0.10018 -0.06547
 C253 C 0.08326 -0.07410 -0.07862
 C254 C 0.09364 -0.06551 -0.10934
 H255 H 0.17390 -0.10749 -0.22680
 H256 H 0.21169 -0.19430 -0.17320
 H257 H 0.20758 -0.13673 -0.25509
 H258 H 0.18274 -0.18642 -0.12557
 H259 H 0.14932 -0.15928 -0.09495
 H260 H 0.14803 -0.08110 -0.19876
 H261 H 0.11522 -0.05350 -0.16772
 H262 H 0.11766 -0.13706 -0.07055
 H263 H 0.08489 -0.10723 -0.04166
 H264 H 0.08627 -0.04555 -0.11993
 C265 C 0.15605 0.33564 0.30464
 C266 C 0.16216 0.35723 0.32798
 C267 C 0.19091 0.36503 0.33211
 C268 C 0.21227 0.35248 0.31267
 C269 C 0.20572 0.33136 0.28957
 C270 C 0.17752 0.32294 0.28593
 C271 C 0.19826 0.38519 0.35572
 C272 C 0.17780 0.39759 0.37582
 C273 C 0.14886 0.39079 0.37263
 C274 C 0.14084 0.37105 0.34755
 C275 C 0.11178 0.36624 0.34245
 C276 C 0.09125 0.37986 0.36139
 C277 C 0.09872 0.39830 0.38666
 C278 C 0.12759 0.40361 0.39316
 C279 C 0.13391 0.42143 0.42013
 C280 C 0.11247 0.43418 0.43886
 C281 C 0.08407 0.42974 0.43144
 C282 C 0.07734 0.41158 0.40542
 H283 H 0.13500 0.32763 0.30062
 H284 H 0.23416 0.35869 0.31596
 H285 H 0.17202 0.30655 0.26828
 H286 H 0.22018 0.39131 0.35890
 H287 H 0.18538 0.41311 0.39318
 H288 H 0.10408 0.35260 0.32329
 H289 H 0.06922 0.37578 0.35625
 H290 H 0.15516 0.42575 0.42768
 H291 H 0.11819 0.44812 0.45890
 H292 H 0.05536 0.40765 0.39991
 C293 C 0.70404 -0.13233 0.31458
 C294 C 0.67646 -0.14149 0.32376
 C295 C 0.66739 -0.16909 0.31303
 C296 C 0.68566 -0.18689 0.29463
 C297 C 0.71311 -0.17749 0.28551
 C298 C 0.72182 -0.14988 0.29597
 C299 C 0.63999 -0.17874 0.32040
 C300 C 0.62117 -0.16146 0.33781
 C301 C 0.62916 -0.13380 0.34914
 C302 C 0.65755 -0.12404 0.34283
 C303 C 0.66619 -0.09728 0.35606
 C304 C 0.64768 -0.08024 0.37400
 C305 C 0.61971 -0.08886 0.37926
 C306 C 0.60987 -0.11565 0.36687
 C307 C 0.58103 -0.12289 0.37253
 C308 C 0.56306 -0.10441 0.38994
 C309 C 0.57308 -0.07812 0.40234
 C310 C 0.60153 -0.07063 0.39695
 H311 H 0.71266 -0.11156 0.32108
 H312 H 0.67775 -0.20756 0.28620
 H313 H 0.74302 -0.14186 0.29108
 H314 H 0.63289 -0.19987 0.31236
 H315 H 0.60051 -0.17069 0.34241
 H316 H 0.68740 -0.08892 0.35350
 H317 H 0.65535 -0.05989 0.38367
 H318 H 0.57150 -0.14241 0.36340
 H319 H 0.54106 -0.11056 0.39324
 H320 H 0.60970 -0.05057 0.40683
 C321 C 0.67705 0.31198 -0.16015
 C322 C 0.66887 0.34042 -0.16798
 C323 C 0.68014 0.35266 -0.19715
 C324 C 0.69968 0.33743 -0.21662
 C325 C 0.70813 0.30929 -0.20835
 C326 C 0.69610 0.29680 -0.17994
 C327 C 0.67180 0.38008 -0.20694
 C328 C 0.65231 0.39568 -0.18856
 C329 C 0.64069 0.38468 -0.15906
 C330 C 0.64978 0.35698 -0.14809
 C331 C 0.63998 0.34706 -0.11729
 C332 C 0.62170 0.36337 -0.09806
 C333 C 0.61188 0.38991 -0.10889
 C334 C 0.62077 0.40077 -0.13978
 C335 C 0.60916 0.42723 -0.15010
 C336 C 0.59044 0.44259 -0.13009
 C337 C 0.58257 0.43231 -0.09906
 C338 C 0.59329 0.40575 -0.08879
 H339 H 0.66894 0.30060 -0.13900
 H340 H 0.70729 0.34730 -0.23912
 H341 H 0.70221 0.27557 -0.17181
 H342 H 0.68037 0.38961 -0.22922
 H343 H 0.64737 0.41677 -0.19781
 H344 H 0.64665 0.32698 -0.10683
 H345 H 0.61505 0.35499 -0.07442
 H346 H 0.61367 0.43649 -0.17372
 H347 H 0.58185 0.46256 -0.13919
 H348 H 0.58755 0.39752 -0.06481
 C349 C -0.20602 0.11614 -0.16984
 C350 C -0.17883 0.12729 -0.16332
 C351 C -0.17027 0.15315 -0.17934
 C352 C -0.18890 0.16788 -0.19949
 C353 C -0.21610 0.15681 -0.20555
 C354 C -0.22409 0.13047 -0.19065
 C355 C -0.14301 0.16410 -0.17548
 C356 C -0.12375 0.14963 -0.15657
 C357 C -0.13130 0.12393 -0.13984
 C358 C -0.15971 0.11338 -0.14202
 C359 C -0.16821 0.08968 -0.12234
 C360 C -0.14943 0.07614 -0.10201
 C361 C -0.12127 0.08505 -0.10114
 C362 C -0.11158 0.10872 -0.12047
 C363 C -0.08239 0.11573 -0.12007
 C364 C -0.06393 0.10019 -0.10081
 C365 C -0.07394 0.07754 -0.08103
 C366 C -0.10264 0.07014 -0.08121
 H367 H -0.21383 0.09601 -0.15975
 H368 H -0.18142 0.18733 -0.21177
 H369 H -0.24492 0.12122 -0.19380
 H370 H -0.13633 0.18394 -0.18756
 H371 H -0.10322 0.15967 -0.15475
 H372 H -0.18960 0.08156 -0.12134
 H373 H -0.15699 0.05818 -0.08712
 H374 H -0.07301 0.13256 -0.13501
 H375 H -0.04170 0.10598 -0.10122
 H376 H -0.11031 0.05216 -0.06641
 C377 C -0.17119 0.62777 0.29180
 C378 C -0.16206 0.63646 0.32294
 C379 C -0.17530 0.66078 0.33746
 C380 C -0.19667 0.67555 0.32130
 C381 C -0.20560 0.66635 0.29069
 C382 C -0.19253 0.64248 0.27612
 C383 C -0.16738 0.67012 0.36820
 C384 C -0.14698 0.65556 0.38535
 C385 C -0.13344 0.63094 0.37231
 C386 C -0.14065 0.62162 0.34027
 C387 C -0.12631 0.59771 0.32668
 C388 C -0.10640 0.58275 0.34406
 C389 C -0.09991 0.59083 0.37568
 C390 C -0.11306 0.61516 0.39029
 C391 C -0.10556 0.62225 0.42255
 C392 C -0.08639 0.60553 0.43951
 C393 C -0.07393 0.58125 0.42506
 C394 C -0.08053 0.57434 0.39291
 H395 H -0.16259 0.60953 0.27887
 H396 H -0.20684 0.69388 0.33289
 H397 H -0.19871 0.63519 0.25223
 H398 H -0.17729 0.68881 0.37934
 H399 H -0.14232 0.66430 0.40892
 H400 H -0.12992 0.58984 0.30248
 H401 H -0.09618 0.56435 0.33267
 H402 H -0.11448 0.64019 0.43574
 H403 H -0.08194 0.61120 0.46446
 H404 H -0.07067 0.55585 0.38129
 C405 C 0.29370 0.14223 0.32436
 C406 C 0.32329 0.14699 0.32414
 C407 C 0.33472 0.16778 0.30199
 C408 C 0.31692 0.18409 0.28233
 C409 C 0.28769 0.17929 0.28330
 C410 C 0.27632 0.15806 0.30415
 C411 C 0.36386 0.17208 0.29941
 C412 C 0.38208 0.15575 0.31782
 C413 C 0.37179 0.13496 0.34041
 C414 C 0.34188 0.13149 0.34468
 C415 C 0.33152 0.11314 0.36981
 C416 C 0.34968 0.09798 0.38943
 C417 C 0.37882 0.09981 0.38433
 C418 C 0.39037 0.11789 0.35939
 C419 C 0.42005 0.11765 0.35415
 C420 C 0.43733 0.10060 0.37330
 C421 C 0.42574 0.08360 0.39849
 C422 C 0.39648 0.08336 0.40394
 H423 H 0.28335 0.12598 0.33930
 H424 H 0.32582 0.20019 0.26575
 H425 H 0.25377 0.15391 0.30507
 H426 H 0.37273 0.18803 0.28264
 H427 H 0.40425 0.16057 0.31443
 H428 H 0.30935 0.11065 0.37561
 H429 H 0.34075 0.08434 0.40859
 H430 H 0.43051 0.12979 0.33493
 H431 H 0.45991 0.10083 0.36854
 H432 H 0.38739 0.06972 0.42302
 C433 C 0.29407 0.63875 -0.16171
 C434 C 0.32372 0.64295 -0.16362
 C435 C 0.33463 0.66261 -0.18738
 C436 C 0.31637 0.67815 -0.20725
 C437 C 0.28710 0.67389 -0.20467
 C438 C 0.27620 0.65394 -0.18195
 C439 C 0.36371 0.66659 -0.19132
 C440 C 0.38239 0.65106 -0.17269
 C441 C 0.37267 0.63126 -0.14866
 C442 C 0.34285 0.62801 -0.14319
 C443 C 0.33315 0.61032 -0.11715
 C444 C 0.35180 0.59556 -0.09777
 C445 C 0.38081 0.59730 -0.10384
 C446 C 0.39176 0.61487 -0.12958
 C447 C 0.42135 0.61482 -0.13545
 C448 C 0.43910 0.59829 -0.11634
 C449 C 0.42811 0.58149 -0.09062
 C450 C 0.39894 0.58122 -0.08441
 H451 H 0.28396 0.62352 -0.14528
 H452 H 0.32495 0.69324 -0.22519
 H453 H 0.25362 0.65031 -0.17954
 H454 H 0.37218 0.68170 -0.20931
 H455 H 0.40446 0.65561 -0.17725
 H456 H 0.31113 0.60787 -0.11055
 H457 H 0.34333 0.58233 -0.07799
 H458 H 0.43145 0.62677 -0.15505
 H459 H 0.46161 0.59873 -0.12163
 H460 H 0.39026 0.56780 -0.06490
 C461 C -0.15838 -0.18370 0.18547
 C462 C -0.16382 -0.15739 0.16930
 C463 C -0.19158 -0.14644 0.17171
 C464 C -0.21225 -0.16026 0.19132
 C465 C -0.20640 -0.18587 0.20833
 C466 C -0.17929 -0.19769 0.20433
 C467 C -0.19871 -0.12166 0.15455
 C468 C -0.17889 -0.10742 0.13484
 C469 C -0.15074 -0.11699 0.13220
 C470 C -0.14282 -0.14176 0.15066
 C471 C -0.11407 -0.14950 0.15070
 C472 C -0.09376 -0.13379 0.13313
 C473 C -0.10132 -0.11032 0.11403
 C474 C -0.13001 -0.10204 0.11251
 C475 C -0.13673 -0.07919 0.09115
 C476 C -0.11568 -0.06453 0.07327
 C477 C -0.08732 -0.07194 0.07620
 C478 C -0.08026 -0.09497 0.09645
 H479 H -0.13824 -0.19427 0.18377
 H480 H -0.23337 -0.15146 0.19212
 H481 H -0.17349 -0.21717 0.21703
 H482 H -0.21994 -0.11316 0.15629
 H483 H -0.18613 -0.08825 0.12285
 H484 H -0.10635 -0.16709 0.16509
 H485 H -0.07187 -0.14021 0.13439
 H486 H -0.15807 -0.07239 0.08725
 H487 H -0.12156 -0.04692 0.05748
 H488 H -0.05832 -0.10113 0.09822
 C489 C -0.16037 0.31419 0.69344
 C490 C -0.16586 0.34143 0.67934
 C491 C -0.19312 0.35316 0.68452
 C492 C -0.21420 0.33745 0.70161
 C493 C -0.20853 0.31035 0.71522
 C494 C -0.18129 0.29911 0.71116
 C495 C -0.19928 0.38057 0.67269
 C496 C -0.17878 0.39703 0.65640
 C497 C -0.15135 0.38632 0.65039
 C498 C -0.14518 0.35757 0.66073
 C499 C -0.11889 0.34568 0.65138
 C500 C -0.09914 0.36143 0.63298
 C501 C -0.10432 0.38996 0.62409
 C502 C -0.13016 0.40309 0.63344
 C503 C -0.13357 0.43263 0.62571
 C504 C -0.11285 0.44789 0.60799
 C505 C -0.08804 0.43437 0.59704
 C506 C -0.08381 0.40539 0.60565
 H507 H -0.13988 0.30430 0.69207
 H508 H -0.23518 0.34643 0.70417
 H509 H -0.17584 0.27872 0.72221
 H510 H -0.22014 0.38958 0.67638
 H511 H -0.18543 0.41783 0.64779
 H512 H -0.11328 0.32374 0.65696
 H513 H -0.07946 0.35121 0.62586
 H514 H -0.15174 0.44480 0.63363
 H515 H -0.11631 0.47056 0.60307
 H516 H -0.06476 0.39453 0.59752
 C517 C 0.34379 -0.17344 0.68394
 C518 C 0.33871 -0.14628 0.66942
 C519 C 0.31214 -0.13351 0.67588
 C520 C 0.29188 -0.14731 0.69607
 C521 C 0.29706 -0.17432 0.71054
 C522 C 0.32342 -0.18711 0.70390
 C523 C 0.30562 -0.10700 0.66196
 C524 C 0.32484 -0.09273 0.64157
 C525 C 0.35166 -0.10439 0.63420
 C526 C 0.35885 -0.13148 0.64862
 C527 C 0.38593 -0.14280 0.64177
 C528 C 0.40521 -0.12840 0.62144
 C529 C 0.39840 -0.10223 0.60691
 C530 C 0.37153 -0.08982 0.61294
 C531 C 0.36569 -0.06334 0.59722
 C532 C 0.38565 -0.04994 0.57665
 C533 C 0.41215 -0.06227 0.57090
 C534 C 0.41840 -0.08843 0.58623
 H535 H 0.36332 -0.18485 0.68048
 H536 H 0.27144 -0.13727 0.69907
 H537 H 0.32909 -0.20737 0.71502
 H538 H 0.28531 -0.09711 0.66685
 H539 H 0.31789 -0.07239 0.63210
 H540 H 0.39306 -0.16283 0.65189
 H541 H 0.42573 -0.13797 0.61696
 H542 H 0.34592 -0.05229 0.60009
 H543 H 0.38039 -0.02954 0.56547
 H544 H 0.43876 -0.09833 0.58164
 C545 C 0.29735 0.38153 0.17707
 C546 C 0.32592 0.37382 0.17156
 C547 C 0.33561 0.34854 0.18717
 C548 C 0.31741 0.33212 0.20759
 C549 C 0.28915 0.34003 0.21258
 C550 C 0.27942 0.36489 0.19712
 C551 C 0.36336 0.33958 0.18215
 C552 C 0.38174 0.35475 0.16144
 C553 C 0.37317 0.37991 0.14502
 C554 C 0.34500 0.39000 0.15081
 C555 C 0.33689 0.41602 0.13581
 C556 C 0.35530 0.43133 0.11534
 C557 C 0.38245 0.42136 0.10864
 C558 C 0.39186 0.39548 0.12320
 C559 C 0.41956 0.38624 0.11500
 C560 C 0.43703 0.40223 0.09369
 C561 C 0.42765 0.42792 0.07970
 C562 C 0.40026 0.43730 0.08737
 H563 H 0.28788 0.39992 0.16575
 H564 H 0.32531 0.31307 0.21961
 H565 H 0.25754 0.37121 0.19984
 H566 H 0.37095 0.32037 0.19416
 H567 H 0.40274 0.34625 0.15910
 H568 H 0.31643 0.42549 0.13965
 H569 H 0.34807 0.45121 0.10444
 H570 H 0.42834 0.36658 0.12423
 H571 H 0.45792 0.39418 0.08778
 H572 H 0.39284 0.45734 0.07707
 C573 C 0.18464 0.17983 0.15242
 C574 C 0.16991 0.15458 0.16300
 C575 C 0.17564 0.14396 0.19455
 C576 C 0.19504 0.15829 0.21444
 C577 C 0.20935 0.18324 0.20353
 C578 C 0.20394 0.19379 0.17237
 C579 C 0.16205 0.11906 0.20617
 C580 C 0.14306 0.10405 0.18710
 C581 C 0.13665 0.11349 0.15544
 C582 C 0.14996 0.13945 0.14338
 C583 C 0.14279 0.14946 0.11218
 C584 C 0.12374 0.13450 0.09315
 C585 C 0.11110 0.10890 0.10419
 C586 C 0.11733 0.09790 0.13543
 C587 C 0.10408 0.07155 0.14510
 C588 C 0.08560 0.05699 0.12462
 C589 C 0.07956 0.06807 0.09388
 C590 C 0.09234 0.09413 0.08390
 H591 H 0.18209 0.18926 0.12873
 H592 H 0.19880 0.15010 0.23868
 H593 H 0.21505 0.21276 0.16309
 H594 H 0.16626 0.11092 0.23032
 H595 H 0.13359 0.08511 0.19817
 H596 H 0.15139 0.16903 0.10164
 H597 H 0.11897 0.14306 0.06934
 H598 H 0.10761 0.06136 0.16819
 H599 H 0.07580 0.03700 0.13304
 H600 H 0.08813 0.10267 0.05993
 C601 C 0.15425 0.67184 0.70795
 C602 C 0.16001 0.64701 0.68880
 C603 C 0.18832 0.63733 0.68702
 C604 C 0.20954 0.65154 0.70437
 C605 C 0.20340 0.67601 0.72316
 C606 C 0.17565 0.68607 0.72468
 C607 C 0.19547 0.61366 0.66771
 C608 C 0.17531 0.59964 0.64933
 C609 C 0.14686 0.60848 0.64993
 C610 C 0.13886 0.63183 0.67096
 C611 C 0.10999 0.63898 0.67370
 C612 C 0.08972 0.62444 0.65590
 C613 C 0.09735 0.60262 0.63414
 C614 C 0.12605 0.59451 0.63049
 C615 C 0.13276 0.57306 0.60705
 C616 C 0.11182 0.56006 0.58857
 C617 C 0.08349 0.56777 0.59279
 C618 C 0.07637 0.58899 0.61575
 H619 H 0.13358 0.68122 0.71004
 H620 H 0.23111 0.64397 0.70261
 H621 H 0.17043 0.70498 0.73906
 H622 H 0.21703 0.60603 0.66648
 H623 H 0.18270 0.58146 0.63531
 H624 H 0.10219 0.65545 0.68998
 H625 H 0.06780 0.63062 0.65894
 H626 H 0.15402 0.56618 0.60183
 H627 H 0.11781 0.54365 0.57099
 H628 H 0.05450 0.59537 0.61877
 C629 C 0.69928 0.11314 0.67749
 C630 C 0.67140 0.12225 0.67168
 C631 C 0.66237 0.14835 0.68650
 C632 C 0.68032 0.16390 0.70712
 C633 C 0.70775 0.15432 0.71291
 C634 C 0.71702 0.12895 0.69764
 C635 C 0.63551 0.15892 0.68059
 C636 C 0.61749 0.14452 0.65972
 C637 C 0.62541 0.11844 0.64431
 C638 C 0.65243 0.10662 0.65130
 C639 C 0.65944 0.07938 0.63809
 C640 C 0.64121 0.06461 0.61789
 C641 C 0.61543 0.07643 0.60959
 C642 C 0.60711 0.10357 0.62244
 C643 C 0.58096 0.11478 0.61241
 C644 C 0.56393 0.09953 0.59086
 C645 C 0.57219 0.07259 0.57854
 C646 C 0.59796 0.06116 0.58829
 H647 H 0.70838 0.09429 0.66624
 H648 H 0.67282 0.18346 0.71882
 H649 H 0.73837 0.12147 0.70074
 H650 H 0.62841 0.17878 0.69197
 H651 H 0.59715 0.15420 0.65665
 H652 H 0.67878 0.06848 0.64337
 H653 H 0.64754 0.04373 0.60838
 H654 H 0.57328 0.13556 0.62014
 H655 H 0.54442 0.10921 0.58331
 H656 H 0.60448 0.04014 0.57940
 C657 C 0.70255 0.62002 0.18408
 C658 C 0.67409 0.62779 0.17971
 C659 C 0.66448 0.65358 0.19474
 C660 C 0.68247 0.66997 0.21453
 C661 C 0.71052 0.66163 0.21902
 C662 C 0.72032 0.63670 0.20323
 C663 C 0.63704 0.66300 0.18973
 C664 C 0.61909 0.64784 0.16941
 C665 C 0.62764 0.62202 0.15389
 C666 C 0.65516 0.61120 0.16032
 C667 C 0.66273 0.58395 0.14758
 C668 C 0.64466 0.56839 0.12794
 C669 C 0.61854 0.57945 0.11973
 C670 C 0.60956 0.60644 0.13240
 C671 C 0.58308 0.61685 0.12244
 C672 C 0.56646 0.60107 0.10090
 C673 C 0.57549 0.57437 0.08863
 C674 C 0.60145 0.56361 0.09860
 H675 H 0.71210 0.60167 0.17224
 H676 H 0.67456 0.68924 0.22648
 H677 H 0.74214 0.63025 0.20507
 H678 H 0.62947 0.68261 0.20127
 H679 H 0.59830 0.65666 0.16688
 H680 H 0.68236 0.57363 0.15291
 H681 H 0.65145 0.54758 0.11869
 H682 H 0.57492 0.63746 0.13009
 H683 H 0.54673 0.61020 0.09324
 H684 H 0.60851 0.54274 0.08983
   
