data_POSCAR
  _audit_creation_date              2014-09-24
  _audit_creation_method            'ToBaCCo'
  _symmetry_space_group_name_H-M    'P1'
  _symmetry_Int_Tables_number       1
  _symmetry_cell_setting            triclinic
  loop_
  _symmetry_equiv_pos_as_xyz
 x,y,z
_cell_length_a 22.2375
_cell_length_b 22.1962
_cell_length_c 44.4278
_cell_angle_alpha 94.275000
_cell_angle_beta 83.894200
_cell_angle_gamma 119.248300
loop_
  _atom_site_label
  _atom_site_type_symbol
  _atom_site_fract_x
  _atom_site_fract_y
  _atom_site_fract_z
C1 C -0.06157 0.05881 0.53859
 H2 H -0.01072 0.06394 0.53379
 C3 C -0.07019 0.10696 0.55813
 H4 H -0.02589 0.14833 0.56844
 C5 C -0.18081 0.00001 0.53074
 H6 H -0.22370 -0.04036 0.51944
 C7 C -0.19189 0.04623 0.55043
 H8 H -0.24343 0.04015 0.55409
 N9 N -0.11670 0.00603 0.52557
 C10 C -0.08977 -0.16565 0.52511
 H11 H -0.14340 -0.19904 0.52138
 C12 C -0.05319 -0.19350 0.53690
 H13 H -0.07981 -0.24758 0.54254
 C14 C 0.01086 -0.05634 0.52110
 H15 H 0.03623 -0.00348 0.51394
 C16 C 0.04955 -0.08222 0.53262
 H17 H 0.10391 -0.04787 0.53504
 Zn18 Zn -0.10535 -0.06042 0.49920
 N19 N -0.05774 -0.09783 0.51779
 C20 C -0.03062 -0.05625 0.44416
 N21 N -0.05008 -0.01758 0.46366
 C22 C -0.02490 0.05093 0.45938
 C23 C 0.02367 0.08359 0.43514
 C24 C 0.01706 -0.02594 0.41947
 C25 C -0.23933 -0.16857 0.51320
 C26 C -0.30252 -0.22665 0.50802
 C27 C -0.27314 -0.20994 0.45426
 C28 C -0.21030 -0.15200 0.46058
 N29 N -0.19383 -0.13357 0.48968
 H30 H -0.05053 -0.11035 0.44843
 H31 H -0.04077 0.08082 0.47524
 H32 H 0.04468 0.13855 0.43249
 H33 H 0.03324 -0.05752 0.40489
 H34 H -0.22549 -0.15234 0.53619
 H35 H -0.33597 -0.25324 0.52757
 H36 H -0.28385 -0.22428 0.43079
 H37 H -0.17414 -0.12283 0.44214
 C38 C 0.01746 -0.15184 0.54065
 C39 C -0.13625 0.10023 0.56463
 C40 C -0.31990 -0.24970 0.47810
 C41 C 0.04579 0.04522 0.41502
 C42 C 1.04814 -0.04666 0.10117
 H43 H 1.05715 0.00578 0.10464
 C44 C 1.08590 -0.06208 0.07781
 H45 H 1.12347 -0.02148 0.06310
 C46 C 0.99279 -0.16191 0.11793
 H47 H 0.95893 -0.19967 0.13448
 C48 C 1.02835 -0.18002 0.09436
 H49 H 1.02119 -0.23199 0.09292
 N50 N 1.00453 -0.09572 0.12122
 C51 C 0.87659 -0.02008 0.17308
 H52 H 0.89416 -0.01460 0.19542
 C53 C 0.81983 -0.01138 0.16925
 H54 H 0.79530 0.00217 0.18886
 C55 C 0.88620 -0.04757 0.12084
 H56 H 0.91109 -0.06353 0.10221
 C57 C 0.82962 -0.03935 0.11598
 H58 H 0.81216 -0.04813 0.09342
 Zn59 Zn 0.97504 -0.06277 0.15698
 N60 N 0.90803 -0.03847 0.14911
 C61 C 1.06170 0.07570 0.17988
 N62 N 1.05599 0.01332 0.17074
 C63 C 1.11123 0.00226 0.16914
 C64 C 1.17587 0.05540 0.17595
 C65 C 1.12552 0.13014 0.18781
 C66 C 0.87055 -0.18510 0.18310
 C67 C 0.83506 -0.23231 0.20616
 C68 C 0.93232 -0.16778 0.23639
 C69 C 0.96566 -0.12144 0.21287
 N70 N 0.93438 -0.13069 0.18693
 H71 H 1.01724 0.08352 0.18076
 H72 H 1.10520 -0.04788 0.16189
 H73 H 1.21933 0.04564 0.17419
 H74 H 1.12999 0.17978 0.19499
 H75 H 0.84643 -0.19059 0.16242
 H76 H 0.78374 -0.27464 0.20293
 H77 H 0.95769 -0.15835 0.25703
 H78 H 1.01580 -0.07714 0.21575
 C79 C 0.79483 -0.02224 0.14044
 C80 C 1.07739 -0.12897 0.07469
 C81 C 0.86573 -0.22366 0.23332
 C82 C 1.18363 0.12035 0.18521
 C83 C 0.22431 1.09955 0.86310
 H84 H 0.17988 1.04833 0.86375
 C85 C 0.28592 1.11103 0.87367
 H86 H 0.28856 1.06819 0.88241
 C87 C 0.27387 1.21755 0.85117
 H88 H 0.26870 1.25875 0.84236
 C89 C 0.33682 1.23136 0.86141
 H90 H 0.37929 1.28366 0.86061
 N91 N 0.21902 1.15265 0.85268
 C92 C -0.00005 1.08279 0.87027
 H93 H -0.01492 1.07784 0.84743
 C94 C -0.04749 1.07548 0.89486
 H95 H -0.09923 1.06351 0.89048
 C96 C 0.08710 1.10919 0.90323
 H97 H 0.14039 1.12526 0.90640
 C98 C 0.04140 1.10248 0.92851
 H99 H 0.06061 1.11186 0.95068
 Zn100 Zn 0.13135 1.12991 0.84087
 N101 N 0.06610 1.10067 0.87483
 C102 C 0.05886 0.99392 0.81543
 N103 N 0.10939 1.06007 0.81042
 C104 C 0.14851 1.07821 0.78358
 C105 C 0.13470 1.02994 0.75974
 C106 C 0.04502 0.94326 0.79248
 C107 C 0.14020 1.25965 0.84710
 C108 C 0.12704 1.31241 0.84047
 C109 C 0.09303 1.25741 0.79157
 C110 C 0.10609 1.20527 0.79927
 N111 N 0.12879 1.20700 0.82675
 H112 H 0.02977 0.98033 0.83724
 H113 H 0.18971 1.13075 0.78056
 H114 H 0.16515 1.04541 0.73824
 H115 H 0.00461 0.89071 0.79654
 H116 H 0.15667 1.25897 0.86907
 H117 H 0.13523 1.35299 0.85727
 H118 H 0.07307 1.25409 0.76996
 H119 H 0.09449 1.16184 0.78381
 C120 C -0.02653 1.08765 0.92452
 C121 C 0.34305 1.17769 0.87318
 C122 C 0.10165 1.31078 0.81262
 C123 C 0.08237 0.96172 0.76415
 C124 C 0.51726 -0.00057 0.01343
 C125 C 0.55966 0.04118 -0.00932
 C126 C 0.53610 0.07289 -0.03036
 C127 C 0.63325 0.05838 -0.01423
 C128 C 0.54532 -0.01429 0.03940
 C129 C 0.44130 -0.03048 0.01518
 C130 C 0.48014 0.03356 -0.04805
 C131 C 0.45961 0.06630 -0.06724
 C132 C 0.49573 0.13860 -0.06961
 C133 C 0.55257 0.17748 -0.05236
 C134 C 0.57239 0.14494 -0.03298
 C135 C 0.65471 0.03331 -0.04068
 C136 C 0.72207 0.04369 -0.04514
 C137 C 0.76920 0.07905 -0.02314
 C138 C 0.74842 0.10645 0.00294
 C139 C 0.68107 0.09689 0.00718
 C140 C 0.53613 0.01238 0.06806
 C141 C 0.56914 0.00895 0.09233
 C142 C 0.61229 -0.02123 0.08843
 C143 C 0.61907 -0.05075 0.06001
 C144 C 0.58503 -0.04820 0.03575
 C145 C 0.40916 0.00984 0.02334
 C146 C 0.33695 -0.02152 0.02763
 C147 C 0.29596 -0.09349 0.02368
 C148 C 0.32870 -0.13314 0.01464
 C149 C 0.40065 -0.10189 0.01066
 H150 H 0.45251 -0.02222 -0.04709
 H151 H 0.41579 0.03508 -0.08040
 H152 H 0.58102 0.23323 -0.05323
 H153 H 0.61584 0.17630 -0.01961
 H154 H 0.61861 0.00408 -0.05755
 H155 H 0.73682 0.02258 -0.06555
 H156 H 0.66569 0.11787 0.02745
 H157 H 0.50571 0.03872 0.07135
 H158 H 0.56300 0.03271 0.11374
 H159 H 0.65162 -0.07475 0.05644
 H160 H 0.59199 -0.06994 0.01387
 H161 H 0.43998 0.06504 0.02717
 H162 H 0.31321 0.01032 0.03469
 H163 H 0.29930 -0.18863 0.01174
 H164 H 0.42489 -0.13369 0.00457
 H165 H 0.78398 0.13533 0.02000
 C166 C 0.01122 0.54718 0.68273
 C167 C 0.00659 0.52568 0.65306
 C168 C -0.02444 0.45122 0.64398
 C169 C 0.02783 0.57678 0.62891
 C170 C 0.01837 0.61632 0.69200
 C171 C 0.01247 0.50474 0.70688
 C172 C 0.00468 0.42927 0.61889
 C173 C -0.02774 0.35995 0.60903
 C174 C -0.09046 0.31154 0.62377
 C175 C -0.11882 0.33348 0.64921
 C176 C -0.08635 0.40250 0.65909
 C177 C 0.09435 0.63434 0.62748
 C178 C 0.11106 0.68888 0.60866
 C179 C 0.06141 0.68687 0.59088
 C180 C -0.00388 0.62736 0.59103
 C181 C -0.02031 0.57236 0.60965
 C182 C -0.02588 0.63741 0.68164
 C183 C -0.01735 0.70315 0.68907
 C184 C 0.03347 0.74783 0.70816
 C185 C 0.07532 0.72572 0.71992
 C186 C 0.06843 0.66076 0.71160
 C187 C -0.02122 0.50327 0.73564
 C188 C -0.01137 0.47306 0.75979
 C189 C 0.03200 0.44317 0.75561
 C190 C 0.06279 0.44133 0.72653
 C191 C 0.05374 0.47248 0.70246
 H192 H 0.05219 0.46595 0.60677
 H193 H -0.00466 0.34458 0.58939
 H194 H -0.16648 0.29769 0.66145
 H195 H -0.11064 0.41822 0.67814
 H196 H 0.13227 0.63842 0.64209
 H197 H 0.16171 0.73381 0.60930
 H198 H -0.07191 0.52837 0.61046
 H199 H -0.06676 0.60311 0.66755
 H200 H -0.05102 0.71880 0.68021
 H201 H 0.11472 0.75956 0.73477
 H202 H 0.10268 0.64548 0.72016
 H203 H -0.05357 0.52745 0.73963
 H204 H -0.03709 0.47396 0.78177
 H205 H 0.09636 0.41850 0.72271
 H206 H 0.08141 0.47394 0.68070
 H207 H -0.04297 0.62426 0.57742
 C208 C 0.42967 0.42608 0.34411
 C209 C 0.46117 0.44252 0.31551
 C210 C 0.53282 0.50029 0.30971
 C211 C 0.42828 0.39888 0.28861
 C212 C 0.36772 0.35733 0.35014
 C213 C 0.45850 0.47312 0.37085
 C214 C 0.54782 0.54659 0.28663
 C215 C 0.61592 0.59681 0.27894
 C216 C 0.67047 0.60182 0.29416
 C217 C 0.65534 0.55582 0.31750
 C218 C 0.58723 0.50521 0.32502
 C219 C 0.35971 0.37910 0.28344
 C220 C 0.32845 0.33433 0.25917
 C221 C 0.36566 0.30984 0.23928
 C222 C 0.43503 0.33180 0.24391
 C223 C 0.46589 0.37575 0.26829
 C224 C 0.36900 0.29645 0.34001
 C225 C 0.31114 0.23201 0.34540
 C226 C 0.25124 0.22688 0.36178
 C227 C 0.25070 0.28759 0.37284
 C228 C 0.30837 0.35233 0.36695
 C229 C 0.46032 0.44576 0.39806
 C230 C 0.48855 0.48905 0.42304
 C231 C 0.51669 0.56081 0.42120
 C232 C 0.51452 0.58844 0.39423
 C233 C 0.48425 0.54488 0.36950
 H234 H 0.50675 0.54314 0.27428
 H235 H 0.62595 0.63145 0.26085
 H236 H 0.69601 0.55733 0.32942
 H237 H 0.57715 0.46873 0.34229
 H238 H 0.33006 0.39728 0.29852
 H239 H 0.27500 0.31840 0.25610
 H240 H 0.51875 0.39012 0.27181
 H241 H 0.41504 0.29883 0.32795
 H242 H 0.31409 0.18626 0.33731
 H243 H 0.20542 0.28498 0.38579
 H244 H 0.30666 0.39857 0.37538
 H245 H 0.44093 0.39083 0.39987
 H246 H 0.49020 0.46651 0.44352
 H247 H 0.53543 0.64363 0.39245
 H248 H 0.48160 0.56735 0.34921
 H249 H 0.46521 0.31342 0.22941
 C250 C -0.14686 0.14925 0.58603
 C251 C -0.20891 0.13500 0.60197
 C252 C -0.19608 0.19330 0.61871
 C253 C -0.12698 0.23931 0.61185
 O254 O -0.09706 0.21249 0.59203
 H255 H -0.25779 0.08768 0.60163
 H256 H -0.23346 0.20128 0.63360
 C257 C 0.82656 0.72861 0.25843
 C258 C 0.85409 0.72221 0.28368
 C259 C 0.79950 0.67354 0.30074
 C260 C 0.74248 0.65376 0.28471
 O261 O 0.75900 0.68714 0.25909
 H262 H 0.90743 0.74928 0.28913
 H263 H 0.80146 0.65552 0.32237
 C264 C 0.40699 0.19003 -0.11393
 C265 C 0.46927 0.25071 -0.11548
 C266 C 0.51181 0.23964 -0.09947
 C267 C 0.47252 0.17299 -0.08928
 O268 O 0.40920 0.14287 -0.09821
 H269 H 0.48256 0.29766 -0.12673
 H270 H 0.56508 0.27609 -0.09579
 C271 C 0.05615 0.81803 0.55288
 C272 C 0.12710 0.84956 0.55361
 C273 C 0.13938 0.80413 0.56731
 C274 C 0.07509 0.74797 0.57397
 O275 O 0.02477 0.75633 0.56508
 H276 H 0.16568 0.89954 0.54523
 H277 H 0.18941 0.81161 0.57189
 C278 C 0.25235 0.17705 0.19196
 C279 C 0.31330 0.18709 0.17626
 C280 C 0.36431 0.24025 0.19107
 C281 C 0.33082 0.25859 0.21498
 O282 O 0.26266 0.22063 0.21531
 H283 H 0.31974 0.15836 0.15657
 H284 H 0.41926 0.26187 0.18525
 C285 C 0.92792 0.08857 -0.05111
 C286 C 0.94230 0.10395 -0.02102
 C287 C 0.88483 0.10291 -0.00618
 C288 C 0.83942 0.08682 -0.02812
 O289 O 0.86533 0.07786 -0.05518
 H290 H 0.98893 0.11553 -0.01083
 H291 H 0.87713 0.11228 0.01780
 C292 C 0.12577 -0.14223 0.05361
 C293 C 0.11199 -0.20540 0.04042
 C294 C 0.17328 -0.19542 0.02593
 C295 C 0.22025 -0.12685 0.03156
 O296 O 0.19108 -0.09462 0.04813
 H297 H 0.06359 -0.25333 0.04178
 H298 H 0.18245 -0.23434 0.01352
 C299 C 0.62200 0.69080 0.47200
 C300 C 0.57429 0.64479 0.49325
 C301 C 0.52799 0.59036 0.47701
 C302 C 0.54967 0.60679 0.44711
 O303 O 0.60614 0.66754 0.44396
 H304 H 0.57329 0.64836 0.51767
 H305 H 0.48389 0.54395 0.48594
 C306 C 0.08028 0.36153 0.80584
 C307 C 0.06444 0.40122 0.82720
 C308 C 0.04316 0.43667 0.81136
 C309 C 0.04761 0.41622 0.78146
 O310 O 0.07016 0.37072 0.77810
 H311 H 0.06661 0.40326 0.85148
 H312 H 0.02721 0.47363 0.82060
 C313 C 0.73211 -0.01783 0.13561
 C314 C 0.69099 -0.00542 0.15796
 C315 C 0.63970 -0.00609 0.14348
 C316 C 0.65289 -0.01891 0.11329
 O317 O 0.70871 -0.02633 0.10854
 H318 H 0.69689 0.00297 0.18199
 H319 H 0.59770 0.00162 0.15393
 C320 C 0.10173 0.08047 0.39094
 C321 C 0.11804 0.04788 0.36628
 C322 C 0.17559 0.09853 0.35158
 C323 C 0.19041 0.15852 0.36826
 O324 O 0.14530 0.14771 0.39198
 H325 H 0.09173 -0.00632 0.35977
 H326 H 0.20339 0.09216 0.33119
 C327 C 0.06649 0.91019 0.73922
 C328 C 0.05876 0.92121 0.71007
 C329 C 0.04332 0.86073 0.69458
 C330 C 0.04391 0.81789 0.71537
 O331 O 0.05779 0.84767 0.74252
 H332 H 0.06325 0.96758 0.70133
 H333 H 0.03429 0.84961 0.67084
   
