data_POSCAR
  _audit_creation_date              2014-09-24
  _audit_creation_method            'ToBaCCo'
  _symmetry_space_group_name_H-M    'P1'
  _symmetry_Int_Tables_number       1
  _symmetry_cell_setting            triclinic
  loop_
  _symmetry_equiv_pos_as_xyz
 x,y,z
_cell_length_a 53.2198
_cell_length_b 53.1765
_cell_length_c 33.0261
_cell_angle_alpha 90.448900
_cell_angle_beta 89.737800
_cell_angle_gamma 119.851300
loop_
  _atom_site_label
  _atom_site_type_symbol
  _atom_site_fract_x
  _atom_site_fract_y
  _atom_site_fract_z
C1 C -0.08862 0.46464 -0.02434
 C2 C -0.09223 0.43738 -0.02049
 C3 C -0.06524 0.44005 -0.02675
 N4 N -0.04510 0.46807 -0.03325
 C5 C -0.05952 0.48301 -0.03262
 C6 C -0.05944 0.41686 -0.02915
 C7 C -0.03250 0.42078 -0.01541
 C8 C -0.02210 0.40168 -0.02147
 C9 C 0.00396 0.41314 -0.00144
 C10 C 0.00900 0.43906 0.01582
 N11 N -0.01332 0.44349 0.00740
 C12 C 0.03323 0.45735 0.03987
 C13 C 0.04123 0.48645 0.04875
 C14 C 0.06158 0.50370 0.07748
 C15 C 0.06512 0.53093 0.07388
 C16 C 0.04664 0.52939 0.04329
 N17 N 0.03200 0.50216 0.02797
 C18 C 0.04539 0.55342 0.02783
 C19 C 0.02331 0.55055 0.00141
 C20 C 0.02469 0.57242 -0.02269
 C21 C -0.00134 0.56097 -0.04290
 C22 C -0.01799 0.53241 -0.03031
 N23 N -0.00275 0.52634 -0.00326
 C24 C -0.04677 0.51271 -0.04248
 H25 H -0.10544 0.47036 -0.02159
 H26 H -0.11240 0.41779 -0.01401
 H27 H -0.01062 0.50744 0.01364
 H28 H -0.03190 0.38165 -0.03865
 H29 H 0.01778 0.40360 -0.00012
 H30 H 0.07293 0.49743 0.09861
 H31 H 0.07977 0.54976 0.09162
 H32 H -0.00699 0.57245 -0.06460
 H33 H -0.01656 0.45979 0.01957
 H34 H 0.04268 0.59427 -0.02580
 C35 C 0.47584 0.55186 0.05882
 C36 C 0.50329 0.57393 0.06700
 C37 C 0.52208 0.56405 0.05607
 N38 N 0.50681 0.53642 0.04211
 C39 C 0.47853 0.52898 0.04335
 C40 C 0.55251 0.57962 0.06212
 C41 C 0.57106 0.56901 0.05011
 C42 C 0.59974 0.58065 0.06204
 C43 C 0.61079 0.56581 0.04110
 C44 C 0.58859 0.54565 0.01690
 N45 N 0.56456 0.54779 0.02246
 C46 C 0.59136 0.52754 -0.01196
 C47 C 0.56723 0.50488 -0.03188
 C48 C 0.56843 0.49273 -0.06856
 C49 C 0.54104 0.47043 -0.07605
 C50 C 0.52408 0.46934 -0.04332
 N51 N 0.54006 0.49073 -0.01653
 C52 C 0.49460 0.44806 -0.03769
 C53 C 0.47547 0.45437 -0.01545
 C54 C 0.44711 0.43440 -0.00516
 C55 C 0.43590 0.44947 0.01464
 C56 C 0.45783 0.47820 0.01696
 N57 N 0.48169 0.48103 -0.00202
 C58 C 0.45491 0.50111 0.03432
 H59 H 0.45611 0.55242 0.06478
 H60 H 0.50853 0.59454 0.08056
 H61 H 0.50023 0.50048 -0.00877
 H62 H 0.61169 0.59835 0.08308
 H63 H 0.63279 0.56982 0.04287
 H64 H 0.58704 0.49947 -0.08812
 H65 H 0.53432 0.45666 -0.10270
 H66 H 0.41396 0.44005 0.02586
 H67 H 0.54608 0.53785 0.00457
 H68 H 0.43542 0.41133 -0.01122
 C69 C 0.43959 0.94030 0.09813
 C70 C 0.46300 0.93632 0.09397
 C71 C 0.47996 0.95458 0.06325
 N72 N 0.46762 0.96954 0.04839
 C73 C 0.44281 0.96068 0.06958
 C74 C 0.50516 0.95554 0.04746
 C75 C 0.52462 0.97784 0.02154
 C76 C 0.54531 0.97678 -0.00303
 C77 C 0.56028 1.00330 -0.02193
 C78 C 0.54822 1.01968 -0.00833
 N79 N 0.52671 1.00410 0.01830
 C80 C 0.55741 1.04857 -0.01912
 C81 C 0.54063 1.06151 -0.00933
 C82 C 0.55112 1.09104 -0.00588
 C83 C 0.52735 1.09455 -0.00268
 C84 C 0.50321 1.06704 -0.00527
 N85 N 0.51139 1.04682 -0.00859
 C86 C 0.47421 1.06076 -0.00953
 C87 C 0.45115 1.03450 0.00586
 C88 C 0.42177 1.02408 -0.00036
 C89 C 0.40708 0.99818 0.01997
 C90 C 0.42781 0.99323 0.03751
 N91 N 0.45451 1.01558 0.02931
 C92 C 0.42180 0.96885 0.06109
 H93 H 0.42205 0.92921 0.11953
 H94 H 0.46702 0.92158 0.11152
 H95 H 0.47384 1.01866 0.04158
 H96 H 0.54913 0.95875 -0.00717
 H97 H 0.57790 1.00971 -0.04325
 H98 H 0.57353 1.10818 -0.00658
 H99 H 0.52768 1.11502 -0.00022
 H100 H 0.38380 0.98429 0.02099
 H101 H 0.51575 1.01186 0.03600
 H102 H 0.41168 1.03369 -0.01799
 C103 C 1.04347 0.52494 0.39996
 C104 C 1.04383 0.49939 0.40000
 C105 C 1.03665 0.48854 0.43897
 N106 N 1.03123 0.50617 0.46256
 C107 C 1.03586 0.52864 0.43881
 C108 C 1.03730 0.46394 0.45343
 C109 C 1.01807 0.44675 0.48444
 C110 C 1.01921 0.42472 0.50510
 C111 C 0.99614 0.41319 0.53152
 C112 C 0.98173 0.42870 0.52673
 N113 N 0.99508 0.44890 0.49773
 C114 C 0.95597 0.42279 0.54718
 C115 C 0.94519 0.44240 0.54914
 C116 C 0.92011 0.43707 0.56929
 C117 C 0.91856 0.46196 0.56728
 C118 C 0.94274 0.48197 0.54597
 N119 N 0.95917 0.47002 0.53535
 C120 C 0.95069 0.51148 0.54045
 C121 C 0.97654 0.53193 0.52099
 C122 C 0.98916 0.56183 0.52467
 C123 C 1.01337 0.57388 0.50034
 C124 C 1.01462 0.55105 0.48173
 N125 N 0.99200 0.52560 0.49441
 C126 C 1.03556 0.55360 0.45294
 H127 H 1.04843 0.53933 0.37445
 H128 H 1.04906 0.48997 0.37443
 H129 H 0.98599 0.50514 0.48277
 H130 H 1.03494 0.41762 0.50180
 H131 H 0.99071 0.39541 0.55199
 H132 H 0.90492 0.41769 0.58527
 H133 H 0.90203 0.46510 0.58164
 H134 H 1.02816 0.59686 0.49694
 H135 H 0.98740 0.46158 0.48493
 H136 H 0.98194 0.57388 0.54322
 C137 C 0.53206 0.46555 0.56353
 C138 C 0.55666 0.49217 0.56194
 C139 C 0.54819 0.51185 0.55037
 N140 N 0.51925 0.49793 0.54401
 C141 C 0.50932 0.46955 0.55176
 C142 C 0.56662 0.54235 0.54918
 C143 C 0.55831 0.56125 0.53156
 C144 C 0.57268 0.59108 0.53704
 C145 C 0.55810 0.60144 0.51451
 C146 C 0.53538 0.57769 0.49557
 N147 N 0.53577 0.55331 0.50595
 C148 C 0.51563 0.57893 0.46824
 C149 C 0.48972 0.55423 0.45578
 C150 C 0.47304 0.55345 0.42317
 C151 C 0.44885 0.52650 0.42297
 C152 C 0.45132 0.51181 0.45583
 N153 N 0.47642 0.52877 0.47576
 C154 C 0.42979 0.48396 0.46860
 C155 C 0.43517 0.46783 0.49747
 C156 C 0.41396 0.44332 0.51676
 C157 C 0.42810 0.43324 0.54067
 C158 C 0.45758 0.45190 0.53531
 N159 N 0.46167 0.47281 0.50874
 C160 C 0.47971 0.44784 0.55188
 H161 H 0.53127 0.44574 0.57286
 H162 H 0.57826 0.49649 0.56920
 H163 H 0.48124 0.48750 0.49542
 H164 H 0.59156 0.60402 0.55565
 H165 H 0.56362 0.62392 0.51246
 H166 H 0.47785 0.57054 0.40167
 H167 H 0.43142 0.51873 0.40115
 H168 H 0.41776 0.41402 0.55925
 H169 H 0.52305 0.53282 0.49331
 H170 H 0.39071 0.43355 0.51367
 C171 C 0.43185 -0.09587 0.49203
 C172 C 0.45822 -0.09450 0.48925
 C173 C 0.47820 -0.06622 0.47890
 N174 N 0.46511 -0.05005 0.47633
 C175 C 0.43666 -0.06835 0.48348
 C176 C 0.50771 -0.05571 0.46925
 C177 C 0.52861 -0.02664 0.47870
 C178 C 0.55700 -0.01176 0.46470
 C179 C 0.56991 0.01529 0.48257
 C180 C 0.54907 0.01627 0.50676
 N181 N 0.52406 -0.00933 0.50436
 C182 C 0.55359 0.03993 0.53148
 C183 C 0.53068 0.04288 0.54788
 C184 C 0.53382 0.06249 0.57805
 C185 C 0.50728 0.06045 0.58276
 C186 C 0.48890 0.03995 0.55491
 N187 N 0.50320 0.02906 0.53377
 C188 C 0.46023 0.03349 0.54672
 C189 C 0.44086 0.00928 0.52333
 C190 C 0.41559 0.00561 0.50603
 C191 C 0.40286 -0.02079 0.48635
 C192 C 0.42052 -0.03278 0.49276
 N193 N 0.44361 -0.01422 0.51540
 C194 C 0.41498 -0.06054 0.47958
 H195 H 0.41141 -0.11490 0.49938
 H196 H 0.46228 -0.11228 0.49411
 H197 H 0.45909 -0.01847 0.52768
 H198 H 0.56744 -0.01927 0.44353
 H199 H 0.59205 0.03236 0.47798
 H200 H 0.55326 0.07689 0.59477
 H201 H 0.50225 0.07297 0.60392
 H202 H 0.38294 -0.02975 0.46924
 H203 H 0.50562 -0.01557 0.52196
 H204 H 0.40738 0.02058 0.50698
 O205 O 0.20063 0.43995 0.19769
 O206 O 0.24823 0.44804 0.28422
 O207 O 0.19942 0.44779 0.27542
 O208 O 0.24903 0.43816 0.20712
 O209 O 0.27420 0.48550 0.19777
 O210 O 0.22389 0.49496 0.26425
 O211 O 0.27216 0.49540 0.27452
 O212 O 0.22672 0.48709 0.18696
 Cu213 Cu 0.22180 0.43865 0.24191
 Cu214 Cu 0.25170 0.49542 0.22974
 C215 C 0.20564 0.46239 0.17784
 C216 C 0.26819 0.47333 0.29413
 C217 C 0.20328 0.47309 0.28142
 C218 C 0.27032 0.46022 0.19139
 O219 O 0.59670 0.78296 0.20366
 O220 O 0.58783 0.82646 0.28523
 O221 O 0.59436 0.78069 0.28214
 O222 O 0.59381 0.83104 0.20684
 O223 O 0.54617 0.80462 0.20247
 O224 O 0.54690 0.75328 0.27615
 O225 O 0.54042 0.79856 0.28002
 O226 O 0.54908 0.75753 0.19733
 Cu227 Cu 0.59797 0.80801 0.24493
 Cu228 Cu 0.54093 0.77573 0.23851
 C229 C 0.57412 0.76286 0.18666
 C230 C 0.56232 0.81980 0.29625
 C231 C 0.57079 0.75830 0.29173
 C232 C 0.56994 0.82672 0.19234
 O233 O 0.18228 0.75108 0.28811
 O234 O 0.23187 0.80121 0.21041
 O235 O 0.17920 0.75582 0.21010
 O236 O 0.23507 0.79579 0.28837
 O237 O 0.25318 0.76695 0.27696
 O238 O 0.19770 0.72719 0.20017
 O239 O 0.24927 0.77171 0.19962
 O240 O 0.20105 0.72272 0.27784
 Cu241 Cu 0.20528 0.77894 0.25027
 Cu242 Cu 0.22706 0.74424 0.23767
 C243 C 0.18330 0.72828 0.29609
 C244 C 0.24906 0.79493 0.19196
 C245 C 0.17897 0.73453 0.19199
 C246 C 0.25379 0.78817 0.29559
 O247 O 0.75965 0.55386 0.78786
 O248 O 0.79423 0.54695 0.69495
 O249 O 0.74880 0.55336 0.71092
 O250 O 0.80304 0.54554 0.77211
 O251 O 0.77435 0.49798 0.77027
 O252 O 0.71993 0.50591 0.71383
 O253 O 0.76432 0.49963 0.69428
 O254 O 0.73195 0.50621 0.78970
 Cu255 Cu 0.77932 0.55476 0.74106
 Cu256 Cu 0.74469 0.49773 0.74183
 C257 C 0.74014 0.53115 0.80486
 C258 C 0.78560 0.52209 0.67930
 C259 C 0.72467 0.53073 0.70322
 C260 C 0.79773 0.52013 0.78121
 O261 O 0.46577 0.21460 0.78432
 O262 O 0.46228 0.26177 0.70542
 O263 O 0.46001 0.21125 0.70567
 O264 O 0.46745 0.26476 0.78393
 O265 O 0.51503 0.28637 0.77736
 O266 O 0.50760 0.23423 0.69843
 O267 O 0.50989 0.28374 0.69888
 O268 O 0.51327 0.23669 0.77638
 Cu269 Cu 0.45903 0.23583 0.74551
 Cu270 Cu 0.51620 0.26252 0.73722
 C271 C 0.49031 0.21760 0.79338
 C272 C 0.48561 0.28081 0.68886
 C273 C 0.48267 0.21379 0.68874
 C274 C 0.49267 0.28470 0.79386
 O275 O 0.79291 0.23548 0.78686
 O276 O 0.75455 0.17820 0.70978
 O277 O 0.79892 0.23150 0.70909
 O278 O 0.74830 0.18266 0.78736
 O279 O 0.71933 0.20024 0.77469
 O280 O 0.76891 0.24796 0.69681
 O281 O 0.72562 0.19595 0.69779
 O282 O 0.76371 0.25283 0.77419
 Cu283 Cu 0.77668 0.20524 0.74950
 Cu284 Cu 0.74147 0.22599 0.73488
 C285 C 0.78495 0.25408 0.79324
 C286 C 0.73344 0.17734 0.69078
 C287 C 0.79235 0.24801 0.68970
 C288 C 0.72490 0.18297 0.79382
 C289 C 0.05130 0.44553 0.05573
 C290 C 0.08112 0.45983 0.04923
 C291 C 0.10061 0.45214 0.07029
 N292 N 0.12963 0.46911 0.06555
 N293 N 0.14789 0.46432 0.08708
 C294 C 0.13786 0.44232 0.11418
 N295 N 0.10878 0.42496 0.11839
 N296 N 0.09047 0.42980 0.09688
 C297 C 0.15796 0.43892 0.14114
 C298 C 0.18683 0.46071 0.14434
 H299 H 0.09084 0.47898 0.03037
 H300 H 0.14926 0.42088 0.16198
 H301 H 0.04083 0.42526 0.07208
 H302 H 0.19495 0.47943 0.12478
 C303 C 0.56569 0.60799 0.08351
 C304 C 0.56493 0.63159 0.06685
 C305 C 0.57488 0.65903 0.08901
 N306 N 0.56724 0.67832 0.07559
 N307 N 0.57414 0.70232 0.09672
 C308 C 0.58919 0.70810 0.13191
 N309 N 0.59745 0.68914 0.14487
 N310 N 0.59035 0.66498 0.12387
 C311 C 0.59418 0.73297 0.15753
 C312 C 0.57616 0.74488 0.15442
 H313 H 0.55454 0.62900 0.03776
 H314 H 0.60906 0.73904 0.18277
 H315 H 0.57657 0.61031 0.11208
 H316 H 0.55923 0.73645 0.13172
 C317 C 0.39183 0.95058 0.07653
 C318 C 0.37679 0.92069 0.07003
 C319 C 0.34939 0.90106 0.09049
 N320 N 0.33808 0.87203 0.08639
 N321 N 0.31461 0.85369 0.10715
 C322 C 0.30148 0.86368 0.13278
 N323 N 0.31249 0.89275 0.13640
 N324 N 0.33607 0.91114 0.11569
 C325 C 0.27696 0.84353 0.15826
 C326 C 0.26962 0.81455 0.16169
 H327 H 0.38671 0.91104 0.05161
 H328 H 0.26626 0.85211 0.17718
 H329 H 0.38153 0.96094 0.09244
 H330 H 0.28133 0.80647 0.14399
 C331 C 0.93239 0.52234 0.55896
 C332 C 0.90343 0.51101 0.54812
 C333 C 0.88442 0.51967 0.56897
 N334 N 0.85522 0.50298 0.56552
 N335 N 0.83769 0.50954 0.58625
 C336 C 0.84874 0.53322 0.61090
 N337 N 0.87792 0.55022 0.61372
 N338 N 0.89545 0.54353 0.59325
 C339 C 0.82989 0.53955 0.63658
 C340 C 0.80123 0.51874 0.64476
 H341 H 0.89396 0.49377 0.52573
 H342 H 0.83990 0.55975 0.65354
 H343 H 0.94209 0.53980 0.58096
 H344 H 0.79163 0.49788 0.62955
 C345 C 0.47091 0.42012 0.57274
 C346 C 0.47917 0.40060 0.55858
 C347 C 0.47308 0.37464 0.58157
 N348 N 0.48854 0.36116 0.57390
 N349 N 0.48479 0.33888 0.59639
 C350 C 0.46525 0.32908 0.62716
 N351 N 0.44929 0.34213 0.63425
 N352 N 0.45322 0.36459 0.61196
 C353 C 0.46261 0.30601 0.65410
 C354 C 0.48521 0.30013 0.65778
 H355 H 0.49253 0.40579 0.53167
 H356 H 0.44413 0.29573 0.67426
 H357 H 0.45716 0.41494 0.59922
 H358 H 0.50464 0.31222 0.63979
 C359 C 0.58333 0.06424 0.53842
 C360 C 0.60477 0.06051 0.55677
 C361 C 0.63098 0.08552 0.57357
 N362 N 0.64930 0.08145 0.59755
 N363 N 0.67143 0.10391 0.61602
 C364 C 0.67600 0.13123 0.61107
 N365 N 0.65800 0.13530 0.58657
 N366 N 0.63595 0.11291 0.56815
 C367 C 0.69796 0.15595 0.63450
 C368 C 0.71714 0.15403 0.66116
 H369 H 0.60086 0.03883 0.56263
 H370 H 0.69754 0.17608 0.63275
 H371 H 0.58677 0.08597 0.53483
 H372 H 0.71913 0.13474 0.66172
 C373 C 0.46804 0.08008 0.96898
 C374 C 0.48641 0.09834 0.93867
 C375 C 0.48132 0.11876 0.91539
 N376 N 0.50242 0.13726 0.89005
 N377 N 0.49873 0.15592 0.86790
 C378 C 0.47371 0.15678 0.87005
 N379 N 0.45242 0.13817 0.89533
 N380 N 0.45619 0.11951 0.91777
 C381 C 0.46965 0.17709 0.84453
 C382 C 0.49294 0.19865 0.82302
 H383 H 0.50545 0.09721 0.92998
 H384 H 0.44832 0.17479 0.84207
 H385 H 0.44745 0.07921 0.97313
 H386 H 0.51435 0.20139 0.82710
 C387 C 0.62070 0.53315 0.97678
 C388 C 0.62663 0.51043 0.97463
 C389 C 0.65038 0.51191 0.95008
 N390 N 0.66902 0.53641 0.92993
 N391 N 0.68804 0.53623 0.90373
 C392 C 0.68903 0.51154 0.89662
 N393 N 0.67073 0.48723 0.91725
 N394 N 0.65176 0.48742 0.94350
 C395 C 0.70748 0.51000 0.86461
 C396 C 0.72635 0.53405 0.84185
 H397 H 0.61083 0.48944 0.98647
 H398 H 0.70472 0.48891 0.85705
 H399 H 0.63685 0.55479 0.96765
 H400 H 0.73019 0.55540 0.85032
 C401 C 0.91987 0.38964 0.95428
 C402 C 0.89804 0.38596 0.92731
 C403 C 0.87825 0.35810 0.90770
 N404 N 0.85647 0.35602 0.88418
 N405 N 0.83898 0.33146 0.86462
 C406 C 0.84265 0.30805 0.86770
 N407 N 0.86441 0.31008 0.89132
 N408 N 0.88186 0.33464 0.91107
 C409 C 0.82442 0.28143 0.84426
 C410 C 0.80078 0.27811 0.82193
 H411 H 0.89623 0.40438 0.91766
 H412 H 0.83037 0.26469 0.84332
 H413 H 0.92208 0.37084 0.95989
 H414 H 0.79436 0.29448 0.82401
 C415 C 0.51671 0.92622 0.44969
 C416 C 0.49813 0.90183 0.42652
 C417 C 0.50732 0.88339 0.40518
 N418 N 0.53562 0.89055 0.40212
 N419 N 0.54311 0.87370 0.38119
 C420 C 0.52252 0.84906 0.36283
 N421 N 0.49436 0.84192 0.36626
 N422 N 0.48691 0.85877 0.38692
 C423 C 0.52969 0.83043 0.33805
 C424 C 0.55778 0.83733 0.32717
 H425 H 0.47588 0.89635 0.42180
 H426 H 0.51152 0.81105 0.32551
 H427 H 0.53938 0.93239 0.44996
 H428 H 0.57629 0.85657 0.33934
 C429 C 0.40023 0.47095 0.45113
 C430 C 0.38532 0.48628 0.45007
 C431 C 0.35904 0.47681 0.42576
 N432 N 0.34915 0.49553 0.41950
 N433 N 0.32701 0.48856 0.39462
 C434 C 0.31382 0.46255 0.37514
 N435 N 0.32329 0.44352 0.38205
 N436 N 0.34559 0.45056 0.40681
 C437 C 0.29099 0.45583 0.34500
 C438 C 0.28742 0.47786 0.32845
 H439 H 0.39489 0.50747 0.46434
 H440 H 0.27878 0.43396 0.33306
 H441 H 0.39026 0.44905 0.43916
 H442 H 0.30107 0.49999 0.33880
 C443 C 0.05637 0.58120 0.43805
 C444 C 0.08381 0.58689 0.42513
 C445 C 0.10542 0.61376 0.40555
 N446 N 0.09974 0.63509 0.39501
 N447 N 0.11938 0.65823 0.37467
 C448 C 0.14529 0.66074 0.36422
 N449 N 0.15091 0.63953 0.37511
 N450 N 0.13137 0.61651 0.39537
 C451 C 0.16661 0.68466 0.33924
 C452 C 0.16326 0.70767 0.32616
 H453 H 0.09014 0.57064 0.42951
 H454 H 0.18535 0.68334 0.32931
 H455 H 0.05224 0.59916 0.43936
 H456 H 0.14534 0.71007 0.33707
 C457 C 0.93740 0.52290 0.93519
 C458 C 0.91477 0.50499 0.90903
 C459 C 0.89726 0.51435 0.88621
 N460 N 0.87522 0.49454 0.86310
 N461 N 0.85841 0.50184 0.84259
 C462 C 0.86295 0.52931 0.84425
 N463 N 0.88520 0.54932 0.86714
 N464 N 0.90205 0.54196 0.88787
 C465 C 0.84371 0.53692 0.82196
 C466 C 0.81840 0.51517 0.80412
 H467 H 0.90976 0.48286 0.90378
 H468 H 0.84903 0.55937 0.82031
 H469 H 0.94415 0.54574 0.93566
 H470 H 0.81292 0.49275 0.80750
 C471 C 0.48384 0.42010 0.94476
 C472 C 0.50128 0.40749 0.93924
 C473 C 0.49282 0.38105 0.91532
 N474 N 0.51260 0.37242 0.90919
 N475 N 0.50657 0.34983 0.88537
 C476 C 0.48047 0.33491 0.86672
 N477 N 0.46044 0.34325 0.87327
 N478 N 0.46653 0.36600 0.89706
 C479 C 0.47446 0.31092 0.83854
 C480 C 0.49677 0.30648 0.82468
 H481 H 0.52290 0.41801 0.95199
 H482 H 0.45272 0.29777 0.82676
 H483 H 0.46108 0.40706 0.93749
 H484 H 0.51870 0.32071 0.83509
 C485 C 0.58370 0.06506 0.95538
 C486 C 0.58249 0.08035 0.92198
 C487 C 0.60739 0.09997 0.89695
 N488 N 0.63429 0.10345 0.90202
 N489 N 0.65639 0.12220 0.87911
 C490 C 0.65229 0.13815 0.85062
 N491 N 0.62544 0.13458 0.84576
 N492 N 0.60344 0.11584 0.86842
 C493 C 0.67587 0.15933 0.82500
 C494 C 0.70354 0.16264 0.82304
 H495 H 0.56197 0.07887 0.91458
 H496 H 0.67061 0.17229 0.80538
 H497 H 0.60324 0.06431 0.96189
 H498 H 0.70898 0.14921 0.84133
 C499 C 0.05740 0.45651 0.43693
 C500 C 0.08413 0.47745 0.42115
 C501 C 0.10409 0.47084 0.39889
 N502 N 0.12899 0.49310 0.38414
 N503 N 0.14689 0.48807 0.36180
 C504 C 0.14057 0.46053 0.35326
 N505 N 0.11574 0.43817 0.36831
 N506 N 0.09774 0.44321 0.39067
 C507 C 0.15992 0.45500 0.32738
 C508 C 0.18392 0.47767 0.30843
 H509 H 0.09094 0.50022 0.42474
 H510 H 0.15483 0.43280 0.32236
 H511 H 0.05319 0.43444 0.43886
 H512 H 0.18862 0.49978 0.31304
 C513 C 0.52040 0.60726 0.45357
 C514 C 0.54543 0.62707 0.43328
 C515 C 0.54624 0.65101 0.41007
 N516 N 0.57107 0.67085 0.39170
 N517 N 0.57145 0.69162 0.36888
 C518 C 0.54695 0.69317 0.36340
 N519 N 0.52218 0.67337 0.38180
 N520 N 0.52185 0.65274 0.40473
 C521 C 0.54648 0.71498 0.33679
 C522 C 0.57162 0.73788 0.32069
 H523 H 0.56394 0.62378 0.43204
 H524 H 0.52565 0.71279 0.32951
 H525 H 0.50181 0.61045 0.45354
 H526 H 0.59256 0.74092 0.32938
 C527 C 0.38774 0.91991 0.46209
 C528 C 0.38328 0.89714 0.43607
 C529 C 0.35582 0.87871 0.41479
 N530 N 0.35309 0.85619 0.39198
 N531 N 0.32903 0.83986 0.37090
 C532 C 0.30678 0.84546 0.37165
 N533 N 0.30944 0.86798 0.39456
 N534 N 0.33352 0.88430 0.41584
 C535 C 0.28074 0.82819 0.34673
 C536 C 0.27718 0.80407 0.32495
 H537 H 0.40100 0.89354 0.42829
 H538 H 0.26474 0.83504 0.34446
 H539 H 0.36978 0.92380 0.46601
 H540 H 0.29296 0.79701 0.32825
 C541 C 0.50991 0.93104 0.05729
 C542 C 0.53630 0.93515 0.07163
 C543 C 0.53894 0.91109 0.08881
 N544 N 0.56458 0.91605 0.10438
 N545 N 0.56671 0.89478 0.12222
 C546 C 0.54324 0.86777 0.12515
 N547 N 0.51770 0.86278 0.10928
 N548 N 0.51559 0.88401 0.09141
 C549 C 0.54453 0.84453 0.14724
 C550 C 0.56999 0.84822 0.16455
 H551 H 0.55493 0.95680 0.07285
 H552 H 0.52444 0.82438 0.15172
 H553 H 0.49113 0.90947 0.05790
 H554 H 0.59026 0.86803 0.15933
 C555 C 0.42557 0.49595 0.04449
 C556 C 0.40937 0.47773 0.07600
 C557 C 0.38308 0.47702 0.09156
 N558 N 0.36575 0.45632 0.11834
 N559 N 0.34270 0.45636 0.13423
 C560 C 0.33628 0.47724 0.12411
 N561 N 0.35362 0.49793 0.09735
 N562 N 0.37652 0.49775 0.08124
 C563 C 0.31228 0.47894 0.14360
 C564 C 0.29121 0.45638 0.16662
 H565 H 0.41680 0.46448 0.09069
 H566 H 0.31168 0.49891 0.14064
 H567 H 0.41852 0.50976 0.03054
 H568 H 0.29058 0.43572 0.16758
 C569 C 0.06988 0.58261 0.03767
 C570 C 0.06593 0.60440 0.05498
 C571 C 0.09041 0.63036 0.07325
 N572 N 0.08576 0.64927 0.09546
 N573 N 0.10759 0.67142 0.11486
 C574 C 0.13486 0.67543 0.11265
 N575 N 0.13952 0.65679 0.08997
 N576 N 0.11776 0.63472 0.07063
 C577 C 0.15882 0.69766 0.13685
 C578 C 0.15632 0.71750 0.16197
 H579 H 0.04424 0.60111 0.05844
 H580 H 0.17888 0.69706 0.13682
 H581 H 0.09148 0.58544 0.03640
 H582 H 0.13709 0.71956 0.16093
 C583 C 0.45030 0.05339 0.56224
 C584 C 0.46656 0.08315 0.55557
 C585 C 0.46184 0.10444 0.57793
 N586 N 0.48173 0.13299 0.57483
 N587 N 0.47960 0.15261 0.59757
 C588 C 0.45745 0.14447 0.62428
 N589 N 0.43718 0.11595 0.62684
 N590 N 0.43938 0.09625 0.60418
 C591 C 0.45644 0.16588 0.65184
 C592 C 0.48083 0.19310 0.65759
 H593 H 0.48550 0.09136 0.53624
 H594 H 0.43730 0.15937 0.67025
 H595 H 0.43024 0.04442 0.57920
 H596 H 0.50042 0.19873 0.64071
 C597 C 0.59579 0.55522 0.56824
 C598 C 0.59900 0.54791 0.60757
 C599 C 0.62670 0.55268 0.62393
 N600 N 0.62622 0.53678 0.65608
 N601 N 0.65054 0.53859 0.66975
 C602 C 0.67640 0.55654 0.65199
 N603 N 0.67707 0.57303 0.62033
 N604 N 0.65259 0.57097 0.60632
 C605 C 0.70290 0.55709 0.66623
 C606 C 0.70076 0.53232 0.68369
 H607 H 0.57967 0.53448 0.62513
 H608 H 0.72382 0.57635 0.66215
 H609 H 0.61466 0.56979 0.55067
 H610 H 0.67983 0.51265 0.68397
 C611 C 0.94035 0.39509 0.56960
 C612 C 0.91238 0.37406 0.55863
 C613 C 0.89471 0.34801 0.58296
 N614 N 0.86598 0.33159 0.57518
 N615 N 0.84912 0.30900 0.59840
 C616 C 0.86036 0.30183 0.63020
 N617 N 0.88923 0.31792 0.63755
 N618 N 0.90610 0.34067 0.61443
 C619 C 0.84140 0.27819 0.65773
 C620 C 0.81167 0.26784 0.65857
 H621 H 0.90228 0.37802 0.53290
 H622 H 0.85113 0.27087 0.68008
 H623 H 0.95116 0.39131 0.59456
 H624 H 0.80247 0.27691 0.63805
   
