data_POSCAR
  _audit_creation_date              2014-09-24
  _audit_creation_method            'ToBaCCo'
  _symmetry_space_group_name_H-M    'P1'
  _symmetry_Int_Tables_number       1
  _symmetry_cell_setting            triclinic
  loop_
  _symmetry_equiv_pos_as_xyz
 x,y,z
_cell_length_a 33.5098
_cell_length_b 33.0151
_cell_length_c 35.9901
_cell_angle_alpha 89.778500
_cell_angle_beta 86.816400
_cell_angle_gamma 77.228000
loop_
  _atom_site_label
  _atom_site_type_symbol
  _atom_site_fract_x
  _atom_site_fract_y
  _atom_site_fract_z
C1 C 1.22928 0.19808 0.20671
 C2 C 1.24625 0.23096 0.18504
 C3 C 1.26436 0.25629 0.20778
 C4 C 1.26120 0.24610 0.24926
 C5 C 1.26491 0.17433 0.22818
 C6 C 1.28210 0.20006 0.25129
 C7 C 1.19890 0.22178 0.23625
 C8 C 1.21549 0.24790 0.25907
 H9 H 1.24907 0.23079 0.15494
 H10 H 1.27532 0.26597 0.26686
 H11 H 1.27446 0.14087 0.22679
 H12 H 1.16743 0.21852 0.23980
 C13 C 0.73329 -0.29561 0.16260
 C14 C 0.75579 -0.26772 0.14032
 C15 C 0.77616 -0.24398 0.16230
 C16 C 0.77107 -0.25188 0.20458
 C17 C 0.76595 -0.32236 0.18545
 C18 C 0.78554 -0.29935 0.20894
 C19 C 0.70468 -0.26688 0.19029
 C20 C 0.72451 -0.24408 0.21354
 H21 H 0.75683 -0.26665 0.11019
 H22 H 0.78721 -0.23352 0.22149
 H23 H 0.77139 -0.35595 0.18594
 H24 H 0.67232 -0.26674 0.19414
 C25 C 0.72537 0.21877 -0.33213
 C26 C 0.74617 0.24654 -0.35276
 C27 C 0.76706 0.27003 -0.33072
 C28 C 0.76261 0.26058 -0.28866
 C29 C 0.75690 0.19194 -0.31147
 C30 C 0.77723 0.21293 -0.28662
 C31 C 0.69745 0.24461 -0.30496
 C32 C 0.71605 0.26705 -0.28002
 H33 H 0.74723 0.24832 -0.38291
 H34 H 0.77851 0.27843 -0.27090
 H35 H 0.76299 0.15830 -0.31307
 H36 H 0.66516 0.24409 -0.30162
 C37 C 1.24404 -0.29875 -0.30190
 C38 C 1.26153 -0.26556 -0.32254
 C39 C 1.27826 -0.24011 -0.29873
 C40 C 1.27308 -0.25030 -0.25741
 C41 C 1.27879 -0.32223 -0.27919
 C42 C 1.29437 -0.29616 -0.25503
 C43 C 1.21219 -0.27543 -0.27334
 C44 C 1.22723 -0.24925 -0.24942
 H45 H 1.26631 -0.26608 -0.35253
 H46 H 1.28592 -0.23013 -0.23900
 H47 H 1.28889 -0.35564 -0.28057
 H48 H 1.18091 -0.27947 -0.27086
 C49 C 0.21946 0.24366 0.79861
 C50 C 0.24361 0.26363 0.82143
 C51 C 0.27052 0.28496 0.80188
 C52 C 0.26790 0.28270 0.75926
 C53 C 0.19611 0.27806 0.77448
 C54 C 0.22205 0.29910 0.75267
 C55 C 0.24988 0.21535 0.77178
 C56 C 0.27578 0.23612 0.74998
 H57 H 0.24089 0.26310 0.85162
 H58 H 0.28826 0.29929 0.74287
 H59 H 0.16323 0.28385 0.77321
 H60 H 0.25151 0.18231 0.77059
 C61 C 0.71782 0.73720 0.84418
 C62 C 0.73969 0.76426 0.86211
 C63 C 0.75979 0.78809 0.83738
 C64 C 0.75360 0.77966 0.79601
 C65 C 0.68878 0.76432 0.82133
 C66 C 0.70662 0.78728 0.79405
 C67 C 0.74776 0.71087 0.81882
 C68 C 0.76718 0.73215 0.79145
 H69 H 0.73990 0.76723 0.89211
 H70 H 0.76883 0.79782 0.77623
 H71 H 0.65611 0.76551 0.82342
 H72 H 0.75240 0.67726 0.81847
 C73 C 0.72732 0.24426 0.33834
 C74 C 0.75044 0.27152 0.35805
 C75 C 0.77478 0.29129 0.33388
 C76 C 0.77283 0.28027 0.29239
 C77 C 0.70262 0.27274 0.31025
 C78 C 0.72702 0.29186 0.28505
 C79 C 0.75995 0.21370 0.31554
 C80 C 0.78342 0.23243 0.28973
 H81 H 0.74688 0.27714 0.38784
 H82 H 0.79173 0.29572 0.27330
 H83 H 0.66984 0.27648 0.30952
 H84 H 0.76129 0.18057 0.31556
 C85 C 0.21568 0.75397 0.30261
 C86 C 0.24100 0.77583 0.32585
 C87 C 0.26824 0.79542 0.30512
 C88 C 0.26567 0.79109 0.26267
 C89 C 0.19329 0.78755 0.27736
 C90 C 0.21993 0.80752 0.25522
 C91 C 0.24648 0.72452 0.27711
 C92 C 0.27296 0.74417 0.25486
 H93 H 0.23835 0.77648 0.35602
 H94 H 0.28656 0.80674 0.24584
 H95 H 0.16056 0.79284 0.27504
 H96 H 0.24760 0.69155 0.27669
 O97 O 1.05231 0.04231 0.03305
 O98 O 0.92015 0.00500 0.04340
 O99 O 0.96413 0.09752 0.03942
 O100 O 1.01089 -0.04925 0.04052
 O101 O 0.90843 0.07663 0.03132
 O102 O 1.06531 -0.02923 0.02186
 O103 O 0.94494 -0.05199 0.01661
 O104 O 1.02875 0.09798 0.00611
 C105 C 1.04790 0.08021 0.03203
 C106 C 0.92535 -0.03304 0.04388
 C107 C 0.92893 0.09586 0.05056
 C108 C 1.04587 -0.04541 0.04652
 O109 O 1.05614 -0.01187 -0.05427
 O110 O 0.91235 0.05728 -0.04611
 O111 O 0.99521 0.08971 -0.05777
 O112 O 0.97533 -0.04720 -0.05225
 O113 O 0.91537 -0.01225 -0.03263
 O114 O 1.05537 0.05634 -0.04448
 O115 O 1.04485 -0.06502 -0.02800
 O116 O 0.92769 0.10909 -0.02310
 Co117 Co 1.05104 0.01509 -0.01046
 Co118 Co 0.92040 0.03103 -0.00146
 Co119 Co 0.97975 0.09067 -0.00881
 Co120 Co 0.99335 -0.04529 -0.00592
 O121 O 0.98614 0.02282 -0.00659
 C122 C 1.06146 -0.04960 -0.05440
 C123 C 0.91213 0.09439 -0.04852
 C124 C 1.03229 0.07852 -0.06671
 C125 C 0.93782 -0.03631 -0.05646
 O126 O 1.05030 0.55094 0.54061
 O127 O 0.91910 0.51200 0.54863
 O128 O 0.96036 0.60550 0.54480
 O129 O 1.00973 0.45917 0.54850
 O130 O 0.90595 0.58317 0.53488
 O131 O 1.06438 0.47915 0.53035
 O132 O 0.94487 0.45451 0.52320
 O133 O 1.02593 0.60646 0.51345
 C134 C 1.04571 0.58883 0.53914
 C135 C 0.92430 0.47399 0.54977
 C136 C 0.92498 0.60327 0.55475
 C137 C 1.04464 0.46300 0.55481
 O138 O 1.05754 0.49502 0.45383
 O139 O 0.91326 0.56161 0.45805
 O140 O 0.99532 0.59649 0.44845
 O141 O 0.97763 0.45881 0.45485
 O142 O 0.91680 0.49255 0.47261
 O143 O 1.05525 0.56421 0.46345
 O144 O 1.04566 0.44235 0.48071
 O145 O 0.92654 0.61478 0.48053
 Co146 Co 1.05055 0.52292 0.49740
 Co147 Co 0.92007 0.53677 0.50328
 Co148 Co 0.97796 0.59789 0.49697
 Co149 Co 0.99363 0.46180 0.50160
 O150 O 0.98556 0.52985 0.49990
 C151 C 1.06241 0.45727 0.45408
 C152 C 0.91253 0.59875 0.45485
 C153 C 1.03265 0.58585 0.44056
 C154 C 0.94057 0.46935 0.44913
 O155 O 0.57604 -0.00851 0.54824
 O156 O 0.44672 -0.04346 0.54582
 O157 O 0.47395 0.04351 0.54200
 O158 O 0.55228 -0.09854 0.54705
 O159 O 0.42602 0.02407 0.51743
 O160 O 0.60230 -0.07841 0.52215
 O161 O 0.48576 -0.10352 0.53254
 O162 O 0.54078 0.04893 0.52869
 C163 C 0.56268 0.02920 0.55285
 C164 C 0.45839 -0.08064 0.55343
 C165 C 0.43749 0.04275 0.54318
 C166 C 0.58755 -0.09407 0.54931
 O167 O 0.59314 -0.04852 0.45473
 O168 O 0.44866 -0.01193 0.45049
 O169 O 0.53001 0.03802 0.45303
 O170 O 0.50990 -0.10229 0.45619
 O171 O 0.45089 -0.07876 0.47957
 O172 O 0.58534 0.02099 0.47947
 O173 O 0.57801 -0.10673 0.47074
 O174 O 0.45989 0.04668 0.46612
 Co175 Co 0.58164 -0.02847 0.50118
 Co176 Co 0.45043 -0.02743 0.49838
 Co177 Co 0.50248 0.03769 0.49762
 Co178 Co 0.53013 -0.09614 0.50155
 O179 O 0.51613 -0.02863 0.49975
 C180 C 0.59539 -0.08578 0.44817
 C181 C 0.44931 0.02419 0.44227
 C182 C 0.56640 0.03858 0.45316
 C183 C 0.47275 -0.09673 0.45308
 O184 O 0.55754 0.48878 0.05949
 O185 O 0.42693 0.45948 0.04557
 O186 O 0.46120 0.54489 0.04672
 O187 O 0.52629 0.39921 0.05338
 O188 O 0.41303 0.52816 0.01972
 O189 O 0.58098 0.41745 0.03710
 O190 O 0.46230 0.39835 0.03149
 O191 O 0.52982 0.54692 0.03618
 C192 C 0.54818 0.52695 0.06216
 C193 C 0.43517 0.42183 0.05194
 C194 C 0.42444 0.54582 0.04632
 C195 C 0.56062 0.40247 0.06117
 O196 O 0.58241 0.44526 -0.03226
 O197 O 0.43943 0.49344 -0.04813
 O198 O 0.52259 0.53639 -0.03923
 O199 O 0.49559 0.40017 -0.04164
 O200 O 0.43508 0.42723 -0.02303
 O201 O 0.57593 0.51441 -0.01008
 O202 O 0.56225 0.38937 -0.01853
 O203 O 0.45098 0.55029 -0.02914
 Co204 Co 0.56682 0.46704 0.01300
 Co205 Co 0.43588 0.47673 -0.00084
 Co206 Co 0.49203 0.53776 0.00376
 Co207 Co 0.51070 0.40366 0.00603
 O208 O 0.50138 0.47122 0.00559
 C209 C 0.58346 0.40846 -0.03907
 C210 C 0.44224 0.52919 -0.05494
 C211 C 0.55965 0.53286 -0.03748
 C212 C 0.45892 0.40786 -0.04780
 C213 C 1.21095 0.17039 0.18300
 C214 C 1.17738 0.18651 0.16226
 C215 C 1.15643 0.15984 0.14175
 N216 N 1.12402 0.17741 0.12187
 N217 N 1.10446 0.15380 0.10319
 C218 C 1.11646 0.11172 0.10378
 N219 N 1.14878 0.09408 0.12385
 N220 N 1.16841 0.11774 0.14255
 C221 C 1.09574 0.08575 0.08201
 C222 C 1.06605 0.10396 0.05791
 H223 H 1.16548 0.21981 0.16186
 H224 H 1.10542 0.05224 0.08336
 H225 H 1.22299 0.13713 0.18345
 H226 H 1.05743 0.13748 0.05593
 C227 C 1.22666 0.67367 0.67346
 C228 C 1.19437 0.69041 0.65142
 C229 C 1.17040 0.66467 0.63354
 N230 N 1.13720 0.68323 0.61506
 N231 N 1.11413 0.66059 0.59970
 C232 C 1.12327 0.61855 0.60239
 N233 N 1.15653 0.59991 0.62088
 N234 N 1.17963 0.62259 0.63630
 C235 C 1.09855 0.59349 0.58439
 C236 C 1.06602 0.61232 0.56341
 H237 H 1.18445 0.72387 0.64948
 H238 H 1.10763 0.55993 0.58561
 H239 H 1.23627 0.64028 0.67613
 H240 H 1.05761 0.64587 0.56165
 C241 C 0.70393 0.19634 0.64484
 C242 C 0.68512 0.16543 0.65949
 C243 C 0.65755 0.14679 0.63829
 N244 N 0.64613 0.11210 0.65107
 N245 N 0.62090 0.09492 0.63225
 C246 C 0.60576 0.11223 0.60023
 N247 N 0.61676 0.14723 0.58772
 N248 N 0.64224 0.16420 0.60638
 C249 C 0.57976 0.09264 0.57800
 C250 C 0.57824 0.05105 0.58225
 H251 H 0.69016 0.15510 0.68781
 H252 H 0.56578 0.10982 0.55458
 H253 H 0.69816 0.20647 0.61655
 H254 H 0.59434 0.03291 0.60418
 C255 C 0.71024 0.68037 0.13958
 C256 C 0.69099 0.65085 0.15599
 C257 C 0.66003 0.63444 0.13732
 N258 N 0.64626 0.60185 0.15211
 N259 N 0.61752 0.58722 0.13583
 C260 C 0.60112 0.60512 0.10449
 N261 N 0.61457 0.63799 0.08997
 N262 N 0.64350 0.65241 0.10608
 C263 C 0.57126 0.58816 0.08476
 C264 C 0.56560 0.54807 0.09089
 H265 H 0.69736 0.64098 0.18420
 H266 H 0.55789 0.60546 0.06115
 H267 H 0.70358 0.69052 0.11149
 H268 H 0.58044 0.52977 0.11334
 C269 C 0.79923 -0.21810 0.14463
 C270 C 0.81740 -0.18947 0.16194
 C271 C 0.84191 -0.16539 0.13907
 N272 N 0.84646 -0.12749 0.15038
 N273 N 0.86722 -0.10537 0.12866
 C274 C 0.88445 -0.12059 0.09501
 N275 N 0.88044 -0.15868 0.08414
 N276 N 0.85950 -0.18053 0.10561
 C277 C 0.90696 -0.09714 0.06971
 C278 C 0.90572 -0.05476 0.07319
 H279 H 0.81203 -0.18290 0.19143
 H280 H 0.92327 -0.11383 0.04558
 H281 H 0.80223 -0.21974 0.11448
 H282 H 0.88853 -0.03707 0.09640
 C283 C 0.79046 0.29565 0.65166
 C284 C 0.81054 0.32267 0.66896
 C285 C 0.83597 0.34569 0.64585
 N286 N 0.84221 0.38300 0.65707
 N287 N 0.86381 0.40413 0.63514
 C288 C 0.88027 0.38848 0.60137
 N289 N 0.87458 0.35097 0.59060
 N290 N 0.85277 0.33012 0.61226
 C291 C 0.90382 0.41085 0.57590
 C292 C 0.90369 0.45304 0.57901
 H293 H 0.80635 0.32845 0.69864
 H294 H 0.91990 0.39362 0.55194
 H295 H 0.79257 0.29476 0.62148
 H296 H 0.88648 0.47130 0.60191
 C297 C 0.30479 -0.21502 0.68876
 C298 C 0.30908 -0.20354 0.65173
 C299 C 0.34318 -0.18541 0.63799
 N300 N 0.33725 -0.15639 0.61096
 N301 N 0.36844 -0.14132 0.59675
 C302 C 0.40686 -0.15533 0.60846
 N303 N 0.41301 -0.18487 0.63512
 N304 N 0.38160 -0.19944 0.64985
 C305 C 0.44103 -0.13932 0.59136
 C306 C 0.43448 -0.09751 0.58250
 H307 H 0.28659 -0.20702 0.63223
 H308 H 0.46966 -0.16060 0.58321
 H309 H 0.32355 -0.20477 0.70877
 H310 H 0.40686 -0.07672 0.59397
 C311 C 0.28939 0.28233 0.19400
 C312 C 0.29100 0.29465 0.15697
 C313 C 0.32332 0.31457 0.14177
 N314 N 0.31517 0.34287 0.11428
 N315 N 0.34479 0.35944 0.09878
 C316 C 0.38382 0.34770 0.10965
 N317 N 0.39214 0.31895 0.13682
 N318 N 0.36232 0.30289 0.15281
 C319 C 0.41659 0.36472 0.09106
 C320 C 0.40815 0.40542 0.07857
 H321 H 0.26770 0.29049 0.13860
 H322 H 0.44692 0.34505 0.08636
 H323 H 0.30888 0.29301 0.21305
 H324 H 0.37894 0.42570 0.08692
 C325 C 0.80222 0.19021 -0.26042
 C326 C 0.81592 0.20728 -0.22944
 C327 C 0.83453 0.18048 -0.19918
 N328 N 0.84509 0.19762 -0.16801
 N329 N 0.86009 0.17370 -0.13985
 C330 C 0.86494 0.13175 -0.14172
 N331 N 0.85454 0.11462 -0.17292
 N332 N 0.83959 0.13852 -0.20106
 C333 C 0.88108 0.10486 -0.11071
 C334 C 0.89368 0.12085 -0.07876
 H335 H 0.81037 0.24054 -0.22555
 H336 H 0.88385 0.07166 -0.11341
 H337 H 0.80836 0.15666 -0.26281
 H338 H 0.89182 0.15393 -0.07642
 C339 C 0.80999 0.67994 0.23652
 C340 C 0.82276 0.69921 0.26676
 C341 C 0.84061 0.67467 0.29858
 N342 N 0.84972 0.69405 0.32914
 N343 N 0.86390 0.67220 0.35873
 C344 C 0.86934 0.63015 0.35891
 N345 N 0.86041 0.61078 0.32831
 N346 N 0.84628 0.63261 0.29876
 C347 C 0.88445 0.60546 0.39148
 C348 C 0.89528 0.62354 0.42320
 H349 H 0.81687 0.73265 0.26903
 H350 H 0.88780 0.57208 0.39017
 H351 H 0.81637 0.64629 0.23593
 H352 H 0.89284 0.65678 0.42432
 C353 C 0.31367 0.18590 0.27511
 C354 C 0.33438 0.14445 0.27703
 C355 C 0.36184 0.12928 0.30676
 N356 N 0.37664 0.08788 0.31014
 N357 N 0.39869 0.07303 0.33875
 C358 C 0.40684 0.09905 0.36499
 N359 N 0.39277 0.14056 0.36123
 N360 N 0.37055 0.15543 0.33263
 C361 C 0.42795 0.08262 0.39826
 C362 C 0.43377 0.04071 0.40690
 H363 H 0.32890 0.12146 0.25785
 H364 H 0.43599 0.10415 0.41763
 H365 H 0.32162 0.20836 0.29356
 H366 H 0.42467 0.01941 0.38795
 C367 C 0.32469 0.69025 -0.22991
 C368 C 0.34607 0.64914 -0.22751
 C369 C 0.37116 0.63448 -0.19607
 N370 N 0.38680 0.59327 -0.19255
 N371 N 0.40599 0.57870 -0.16230
 C372 C 0.41030 0.60481 -0.13448
 N373 N 0.39558 0.64619 -0.13839
 N374 N 0.37623 0.66077 -0.16865
 C375 C 0.42732 0.58834 -0.09943
 C376 C 0.43145 0.54649 -0.09132
 H377 H 0.34252 0.62605 -0.24751
 H378 H 0.43300 0.60968 -0.07860
 H379 H 0.33099 0.71294 -0.21071
 H380 H 0.42435 0.52559 -0.11184
 C381 C 1.20165 -0.22795 -0.22047
 C382 C 1.21241 -0.19970 -0.19640
 C383 C 1.18312 -0.17910 -0.16668
 N384 N 1.18662 -0.14212 -0.15257
 N385 N 1.15925 -0.12243 -0.12675
 C386 C 1.12761 -0.13916 -0.11380
 N387 N 1.12462 -0.17658 -0.12731
 N388 N 1.15176 -0.19609 -0.15342
 C389 C 1.09663 -0.11680 -0.08618
 C390 C 1.09045 -0.07398 -0.08220
 H391 H 1.24118 -0.19019 -0.20050
 H392 H 1.07751 -0.13370 -0.07005
 H393 H 1.17089 -0.23333 -0.21700
 H394 H 1.10780 -0.05715 -0.10042
 C395 C 1.19123 0.27060 0.28811
 C396 C 1.20338 0.29979 0.31022
 C397 C 1.17552 0.32237 0.34003
 N398 N 1.18110 0.35921 0.35275
 N399 N 1.15529 0.38054 0.37889
 C400 C 1.12316 0.36565 0.39353
 N401 N 1.11802 0.32844 0.38132
 N402 N 1.14361 0.30728 0.35492
 C403 C 1.09403 0.38952 0.42180
 C404 C 1.09051 0.43202 0.42611
 H405 H 1.23229 0.30855 0.30445
 H406 H 1.07395 0.37394 0.43823
 H407 H 1.16038 0.26585 0.29305
 H408 H 1.10869 0.44786 0.40775
 C409 C 0.70268 -0.22323 0.24462
 C410 C 0.71941 -0.20385 0.27226
 C411 C 0.69468 -0.18890 0.30659
 N412 N 0.70456 -0.15928 0.32801
 N413 N 0.68163 -0.14517 0.35866
 C414 C 0.64830 -0.16050 0.36925
 N415 N 0.63894 -0.19072 0.34826
 N416 N 0.66162 -0.20454 0.31744
 C417 C 0.62196 -0.14401 0.40227
 C418 C 0.62181 -0.10482 0.41623
 H419 H 0.75035 -0.19921 0.26912
 H420 H 0.60073 -0.16158 0.41420
 H421 H 0.67048 -0.22387 0.24827
 H422 H 0.64100 -0.08631 0.40228
 C423 C 0.69344 0.28546 -0.24827
 C424 C 0.70956 0.30173 -0.21831
 C425 C 0.68400 0.31401 -0.18374
 N426 N 0.69571 0.33832 -0.15805
 N427 N 0.67227 0.35005 -0.12714
 C428 C 0.63648 0.33755 -0.12052
 N429 N 0.62520 0.31257 -0.14585
 N430 N 0.64848 0.30110 -0.17688
 C431 C 0.60921 0.35244 -0.08750
 C432 C 0.61272 0.38804 -0.06869
 H433 H 0.74093 0.30520 -0.21960
 H434 H 0.58398 0.33780 -0.08013
 H435 H 0.66121 0.28473 -0.24596
 H436 H 0.63613 0.40420 -0.07836
 C437 C 1.19357 0.21982 -0.17839
 C438 C 1.16242 0.20366 -0.19265
 C439 C 1.14407 0.17392 -0.17084
 N440 N 1.10597 0.16865 -0.17728
 N441 N 1.08914 0.14246 -0.15663
 C442 C 1.11014 0.12021 -0.12925
 N443 N 1.14846 0.12492 -0.12342
 N444 N 1.16505 0.15132 -0.14373
 C445 C 1.09181 0.09312 -0.10438
 C446 C 1.04967 0.09636 -0.09967
 H447 H 1.15156 0.21278 -0.21988
 H448 H 1.11190 0.07385 -0.08556
 H449 H 1.20328 0.21022 -0.15086
 H450 H 1.02908 0.11659 -0.11745
 C451 C 1.18928 0.73168 0.32657
 C452 C 1.15995 0.71265 0.31259
 C453 C 1.14226 0.68345 0.33576
 N454 N 1.10573 0.67477 0.32831
 N455 N 1.08964 0.64881 0.34991
 C456 C 1.10989 0.63017 0.37932
 N457 N 1.14668 0.63830 0.38625
 N458 N 1.16250 0.66448 0.36496
 C459 C 1.09224 0.60320 0.40491
 C460 C 1.05053 0.60368 0.40787
 H461 H 1.15054 0.71867 0.28443
 H462 H 1.11202 0.58639 0.42531
 H463 H 1.19738 0.72553 0.35511
 H464 H 1.03012 0.62192 0.38869
 C465 C 0.70247 0.22242 0.36414
 C466 C 0.67657 0.19921 0.35015
 C467 C 0.66080 0.16863 0.37279
 N468 N 0.63298 0.14930 0.35904
 N469 N 0.61967 0.12020 0.37872
 C470 C 0.63411 0.10913 0.41266
 N471 N 0.66210 0.12830 0.42630
 N472 N 0.67522 0.15755 0.40672
 C473 C 0.61939 0.07772 0.43501
 C474 C 0.58451 0.06403 0.42670
 H475 H 0.66979 0.20161 0.32103
 H476 H 0.63449 0.06766 0.46038
 H477 H 0.70967 0.21953 0.39315
 H478 H 0.56781 0.07577 0.40256
 C479 C 0.69869 0.71284 -0.13029
 C480 C 0.67445 0.68690 -0.14304
 C481 C 0.65961 0.65643 -0.11950
 N482 N 0.63359 0.63494 -0.13336
 N483 N 0.62004 0.60669 -0.11279
 C484 C 0.63231 0.59860 -0.07770
 N485 N 0.65867 0.61980 -0.06391
 N486 N 0.67212 0.64825 -0.08446
 C487 C 0.61594 0.56889 -0.05427
 C488 C 0.58169 0.55483 -0.06400
 H489 H 0.66709 0.68805 -0.17204
 H490 H 0.62844 0.56117 -0.02736
 H491 H 0.70642 0.71098 -0.10137
 H492 H 0.56749 0.56482 -0.08978
 C493 C 0.77996 -0.18306 -0.14815
 C494 C 0.80468 -0.16088 -0.16839
 C495 C 0.82308 -0.13089 -0.14867
 N496 N 0.86064 -0.12449 -0.15972
 N497 N 0.87810 -0.09946 -0.14012
 C498 C 0.85837 -0.07956 -0.10903
 N499 N 0.82053 -0.08531 -0.09859
 N500 N 0.80334 -0.11058 -0.11787
 C501 C 0.87735 -0.05339 -0.08549
 C502 C 0.91948 -0.05561 -0.08624
 H503 H 0.81294 -0.16743 -0.19758
 H504 H 0.85776 -0.03503 -0.06389
 H505 H 0.77704 -0.17855 -0.11820
 H506 H 0.93967 -0.07540 -0.10657
 C507 C 0.79405 0.32066 0.34857
 C508 C 0.82019 0.34172 0.32900
 C509 C 0.83577 0.37362 0.34873
 N510 N 0.87433 0.37916 0.34105
 N511 N 0.88931 0.40548 0.36143
 C512 C 0.86604 0.42752 0.38988
 N513 N 0.82719 0.42277 0.39677
 N514 N 0.81242 0.39623 0.37672
 C515 C 0.88262 0.45408 0.41491
 C516 C 0.92452 0.45055 0.41777
 H517 H 0.83130 0.33330 0.30068
 H518 H 0.86129 0.47335 0.43481
 H519 H 0.78827 0.32740 0.37812
 H520 H 0.94613 0.43021 0.39883
 C521 C 0.29288 -0.18361 0.32437
 C522 C 0.32667 -0.16926 0.30984
 C523 C 0.34965 -0.14937 0.33567
 N524 N 0.39107 -0.15446 0.33151
 N525 N 0.41164 -0.13962 0.35715
 C526 C 0.39142 -0.11901 0.38775
 N527 N 0.35007 -0.11320 0.39131
 N528 N 0.32967 -0.12819 0.36595
 C529 C 0.41260 -0.10346 0.41766
 C530 C 0.45501 -0.11232 0.42076
 H531 H 0.33827 -0.17592 0.28134
 H532 H 0.39321 -0.08517 0.43942
 H533 H 0.28640 -0.18042 0.35423
 H534 H 0.47518 -0.13056 0.39947
 C535 C 0.29357 0.30511 -0.17891
 C536 C 0.32411 0.32429 -0.19359
 C537 C 0.34465 0.34658 -0.16774
 N538 N 0.38557 0.34493 -0.17171
 N539 N 0.40417 0.36224 -0.14611
 C540 C 0.38233 0.38206 -0.11589
 N541 N 0.34141 0.38445 -0.11254
 N542 N 0.32300 0.36690 -0.13780
 C543 C 0.40145 0.40020 -0.08615
 C544 C 0.44348 0.39184 -0.08112
 H545 H 0.33489 0.32063 -0.22253
 H546 H 0.38075 0.41905 -0.06554
 H547 H 0.28877 0.30569 -0.14881
 H548 H 0.46486 0.37258 -0.10096
 C549 C 1.20700 -0.16433 0.22645
 C550 C 1.16567 -0.14918 0.21936
 C551 C 1.15114 -0.12578 0.18587
 N552 N 1.11027 -0.11539 0.18118
 N553 N 1.09581 -0.09626 0.15052
 C554 C 1.12160 -0.08663 0.12316
 N555 N 1.16260 -0.09659 0.12794
 N556 N 1.17715 -0.11593 0.15869
 C557 C 1.10536 -0.06679 0.08849
 C558 C 1.06420 -0.06284 0.08099
 H559 H 1.14189 -0.15568 0.23842
 H560 H 1.12610 -0.05669 0.06818
 H561 H 1.23022 -0.15495 0.20840
 H562 H 1.04416 -0.07436 0.10105
 C563 C 1.20835 0.32925 0.72574
 C564 C 1.16684 0.34517 0.72007
 C565 C 1.15172 0.37171 0.68854
 N566 N 1.11071 0.38375 0.68514
 N567 N 1.09574 0.40571 0.65598
 C568 C 1.12116 0.41659 0.62894
 N569 N 1.16230 0.40497 0.63248
 N570 N 1.17735 0.38285 0.66172
 C571 C 1.10441 0.43904 0.59562
 C572 C 1.06282 0.44509 0.58911
 H573 H 1.14347 0.33721 0.73875
 H574 H 1.12519 0.44879 0.57512
 H575 H 1.23113 0.33996 0.70815
 H576 H 1.04259 0.43400 0.60928
 C577 C 0.68260 -0.19125 0.76657
 C578 C 0.69795 -0.17487 0.73444
 C579 C 0.67126 -0.15975 0.70369
 N580 N 0.68733 -0.14640 0.67172
 N581 N 0.66386 -0.13441 0.64321
 C582 C 0.62345 -0.13542 0.64550
 N583 N 0.60735 -0.14860 0.67751
 N584 N 0.63081 -0.16057 0.70602
 C585 C 0.59730 -0.12277 0.61394
 C586 C 0.61269 -0.10829 0.58100
 H587 H 0.73026 -0.17549 0.73022
 H588 H 0.56536 -0.12450 0.61682
 H589 H 0.64999 -0.19005 0.76929
 H590 H 0.64445 -0.10592 0.57851
 C591 C 0.71247 0.31556 0.25421
 C592 C 0.67136 0.32469 0.24543
 C593 C 0.65741 0.34309 0.20991
 N594 N 0.61773 0.34656 0.20200
 N595 N 0.60451 0.36120 0.16936
 C596 C 0.63045 0.37297 0.14331
 N597 N 0.67013 0.36992 0.15130
 N598 N 0.68344 0.35510 0.18399
 C599 C 0.61598 0.38834 0.10690
 C600 C 0.57692 0.38655 0.09662
 H601 H 0.64815 0.31629 0.26401
 H602 H 0.63636 0.40071 0.08783
 H603 H 0.73467 0.32568 0.23546
 H604 H 0.55695 0.37341 0.11552
 C605 C 0.80544 0.20813 0.26044
 C606 C 0.82210 0.22351 0.22852
 C607 C 0.83565 0.19638 0.19571
 N608 N 0.86120 0.20703 0.16876
 N609 N 0.87339 0.18262 0.13902
 C610 C 0.86009 0.14693 0.13482
 N611 N 0.83391 0.13667 0.16142
 N612 N 0.82203 0.16089 0.19135
 C613 C 0.87463 0.11935 0.10245
 C614 C 0.91158 0.12076 0.08362
 H615 H 0.82432 0.25562 0.22670
 H616 H 0.85749 0.09680 0.09460
 H617 H 0.80673 0.17502 0.26133
 H618 H 0.92964 0.14135 0.09396
 C619 C 0.78903 0.70998 0.76098
 C620 C 0.80433 0.72752 0.72956
 C621 C 0.82033 0.70143 0.69654
 N622 N 0.84694 0.71332 0.67128
 N623 N 0.86191 0.68937 0.64177
 C624 C 0.85044 0.65293 0.63615
 N625 N 0.82318 0.64148 0.66099
 N626 N 0.80854 0.66521 0.69070
 C627 C 0.86784 0.62580 0.60414
 C628 C 0.90544 0.62830 0.58713
 H629 H 0.80479 0.76014 0.72876
 H630 H 0.85216 0.60247 0.59517
 H631 H 0.79240 0.67654 0.76105
 H632 H 0.92209 0.64967 0.59841
 C633 C 0.30445 0.21708 0.72188
 C634 C 0.30639 0.17681 0.70871
 C635 C 0.33544 0.15668 0.67870
 N636 N 0.32918 0.12185 0.66231
 N637 N 0.35521 0.10240 0.63546
 C638 C 0.38874 0.11687 0.62416
 N639 N 0.39522 0.15160 0.64071
 N640 N 0.36895 0.17128 0.66744
 C641 C 0.41798 0.09507 0.59493
 C642 C 0.40830 0.06498 0.57209
 H643 H 0.28433 0.15945 0.71894
 H644 H 0.44736 0.10351 0.59073
 H645 H 0.32444 0.23517 0.70862
 H646 H 0.37800 0.05839 0.57461
 C647 C 0.30061 0.72406 0.22644
 C648 C 0.30033 0.68424 0.21328
 C649 C 0.32765 0.66332 0.18245
 N650 N 0.31888 0.62970 0.16591
 N651 N 0.34345 0.60945 0.13846
 C652 C 0.37796 0.62191 0.12669
 N653 N 0.38690 0.65544 0.14334
 N654 N 0.36211 0.67593 0.17065
 C655 C 0.40611 0.59889 0.09732
 C656 C 0.39509 0.56957 0.07443
 H657 H 0.27749 0.66807 0.22401
 H658 H 0.43627 0.60561 0.09330
 H659 H 0.32108 0.74120 0.21253
 H660 H 0.36415 0.56464 0.07651
   
