data_POSCAR
  _audit_creation_date              2014-09-24
  _audit_creation_method            'ToBaCCo'
  _symmetry_space_group_name_H-M    'P1'
  _symmetry_Int_Tables_number       1
  _symmetry_cell_setting            triclinic
  loop_
  _symmetry_equiv_pos_as_xyz
 x,y,z
_cell_length_a 21.6287
_cell_length_b 21.6272
_cell_length_c 21.6345
_cell_angle_alpha 96.563900
_cell_angle_beta 83.435500
_cell_angle_gamma 96.991600
loop_
  _atom_site_label
  _atom_site_type_symbol
  _atom_site_fract_x
  _atom_site_fract_y
  _atom_site_fract_z
O1 O 0.56164 0.50959 0.06056
 O2 O 0.39422 0.49602 0.03548
 O3 O 0.46954 0.42124 0.06481
 O4 O 0.48435 0.58730 0.03874
 O5 O 0.50861 0.56240 -0.06229
 O6 O 0.49383 0.39545 -0.03609
 O7 O 0.41937 0.47119 -0.06539
 O8 O 0.58594 0.48472 -0.04046
 Cu9 Cu 0.47511 0.50620 0.05999
 Cu10 Cu 0.50452 0.47601 -0.06116
 C11 C 0.60213 0.49853 0.01439
 C12 C 0.37844 0.48170 -0.01966
 C13 C 0.47953 0.38017 0.01918
 C14 C 0.49800 0.60311 -0.01625
 O15 O -0.05712 0.57588 0.51139
 O16 O -0.03171 0.40906 0.49857
 O17 O -0.03458 0.49967 0.58925
 O18 O -0.06029 0.48528 0.42334
 O19 O 0.04061 0.51135 0.39773
 O20 O 0.06661 0.52484 0.56461
 O21 O 0.06925 0.43505 0.47356
 O22 O 0.04403 0.60153 0.48706
 Cu23 Cu -0.05598 0.48972 0.50827
 Cu24 Cu 0.06534 0.52048 0.47830
 C25 C -0.01107 0.61701 0.50038
 C26 C 0.02344 0.39379 0.48421
 C27 C 0.02030 0.51449 0.60527
 C28 C -0.01479 0.49731 0.38250
 O29 O 0.51159 0.04044 0.60306
 O30 O 0.52435 0.06536 0.43565
 O31 O 0.43523 0.06902 0.52731
 O32 O 0.60114 0.04263 0.51306
 O33 O 0.57494 -0.05855 0.48909
 O34 O 0.40865 -0.03197 0.50296
 O35 O 0.49849 -0.03580 0.41155
 O36 O 0.48515 -0.06044 0.57797
 Cu37 Cu 0.52046 0.06457 0.52212
 Cu38 Cu 0.48896 -0.05675 0.49284
 C39 C 0.49751 -0.01486 0.61874
 C40 C 0.51352 0.01894 0.39518
 C41 C 0.39377 0.02332 0.51713
 C42 C 0.61615 -0.01259 0.49977
 C43 C 0.50038 -0.12819 -0.12120
 C44 C 0.50346 -0.06590 -0.13426
 C45 C 0.50639 -0.01803 -0.08473
 C46 C 0.50029 -0.03155 -0.02164
 C47 C 0.49524 -0.09515 -0.01016
 C48 C 0.49772 -0.14334 -0.05962
 C49 C 0.49871 0.02038 0.03138
 C50 C 0.51037 0.01088 0.09256
 C51 C 0.50785 0.05939 0.14179
 C52 C 0.49717 0.11905 0.12903
 C53 C 0.48676 0.13029 0.06885
 C54 C 0.48528 0.08055 0.02126
 H55 H 0.50009 -0.16523 -0.15937
 H56 H 0.51323 0.02965 -0.09635
 H57 H 0.48915 -0.10806 0.03703
 H58 H 0.52231 -0.03366 0.10267
 H59 H 0.49683 0.15704 0.16626
 H60 H 0.47274 0.08964 -0.02342
 C61 C -0.12919 0.50074 1.11942
 C62 C -0.14396 0.49809 1.05769
 C63 C -0.09536 0.49571 1.00852
 C64 C -0.03179 0.50089 1.02058
 C65 C -0.01886 0.50709 1.08372
 C66 C -0.06702 0.50401 1.13286
 C67 C 0.02087 0.49967 0.96828
 C68 C 0.08118 0.48682 0.97906
 C69 C 0.13132 0.48859 0.93181
 C70 C 0.12042 0.49891 0.87150
 C71 C 0.06081 0.50924 0.85832
 C72 C 0.01192 0.51138 0.90709
 H73 H -0.16640 0.50028 1.15742
 H74 H -0.10791 0.48967 0.96120
 H75 H 0.02869 0.51423 1.09569
 H76 H 0.09010 0.47440 1.02384
 H77 H 0.15866 0.49884 0.83453
 H78 H -0.03259 0.52303 0.89661
 C79 C -0.11812 -0.12037 0.50041
 C80 C -0.05620 -0.13404 0.49768
 C81 C -0.00743 -0.08480 0.49497
 C82 C -0.01991 -0.02147 0.50034
 C83 C -0.08328 -0.00954 0.50575
 C84 C -0.13214 -0.05859 0.50311
 C85 C 0.03249 0.03164 0.50048
 C86 C 0.02247 0.09253 0.48870
 C87 C 0.07051 0.14251 0.49097
 C88 C 0.13074 0.13073 0.50091
 C89 C 0.14287 0.07057 0.51067
 C90 C 0.09333 0.02218 0.51258
 H91 H -0.15580 -0.15823 0.50038
 H92 H 0.03997 -0.09681 0.48867
 H93 H -0.09561 0.03775 0.51213
 H94 H -0.02230 0.10199 0.47683
 H95 H 0.16841 0.16861 0.50105
 H96 H 0.10306 -0.02254 0.52435
 N97 N -0.28727 0.48958 0.97641
 C98 C -0.33172 0.50014 1.02494
 N99 N -0.31442 0.50979 1.08386
 N100 N -0.25497 0.50892 1.09390
 C101 C -0.21027 0.49825 1.04558
 N102 N -0.22766 0.48888 0.98650
 N103 N 0.27079 0.49069 1.01672
 C104 C 0.31600 0.47913 0.96922
 N105 N 0.29970 0.46791 0.90988
 N106 N 0.24081 0.46939 0.89828
 C107 C 0.19563 0.48177 0.94554
 N108 N 0.21175 0.49189 1.00509
 N109 N 0.02652 -0.27566 0.48906
 C110 C -0.02155 -0.32064 0.50144
 N111 N -0.08060 -0.30407 0.51256
 N112 N -0.09125 -0.24496 0.51113
 C113 C -0.04343 -0.19987 0.49846
 N114 N 0.01581 -0.21640 0.48782
 N115 N -0.01306 0.28214 0.49057
 C116 C 0.03500 0.32790 0.48173
 N117 N 0.09448 0.31226 0.47376
 N118 N 0.10559 0.25325 0.47536
 C119 C 0.05769 0.20736 0.48473
 N120 N -0.00192 0.22302 0.49192
 N121 N 0.48559 -0.08607 -0.30346
 C122 C 0.49725 -0.02651 -0.31925
 N123 N 0.51124 0.02050 -0.27404
 N124 N 0.51339 0.00822 -0.21532
 C125 C 0.50218 -0.05154 -0.19961
 N126 N 0.48796 -0.09828 -0.24494
 N127 N 0.50760 -0.02024 0.28449
 C128 C 0.51665 0.02892 0.32878
 N129 N 0.52543 0.08776 0.31104
 N130 N 0.52422 0.09713 0.25144
 C131 C 0.51447 0.04814 0.20705
 N132 N 0.50663 -0.01083 0.22477
 N133 N 0.50921 -0.31374 -0.08596
 C134 C 0.49983 -0.33090 -0.02699
 N135 N 0.48951 -0.28643 0.02153
 N136 N 0.48879 -0.22688 0.01139
 C137 C 0.49789 -0.20959 -0.04770
 N138 N 0.50834 -0.25430 -0.09606
 N139 N 0.46811 0.29908 0.09091
 C140 C 0.47653 0.31454 0.03127
 N141 N 0.48579 0.26892 -0.01628
 N142 N 0.48725 0.21001 -0.00444
 C143 C 0.47973 0.19455 0.05534
 N144 N 0.46980 0.24028 0.10271
 N145 N -0.30234 -0.08318 0.48966
 C146 C -0.31831 -0.02389 0.49863
 N147 N -0.27314 0.02428 0.50945
 N148 N -0.21401 0.01346 0.51101
 C149 C -0.19791 -0.04596 0.50232
 N150 N -0.24333 -0.09394 0.49137
 N151 N 0.31259 0.09464 0.52748
 C152 C 0.32805 0.03510 0.51986
 N153 N 0.28224 -0.01293 0.51139
 N154 N 0.22319 -0.00171 0.51008
 C155 C 0.20767 0.05793 0.51693
 N156 N 0.25361 0.10583 0.52592
 N157 N 0.01968 0.50963 1.27188
 C158 C -0.02738 0.49707 1.31734
 N159 N -0.08720 0.48749 1.30227
 N160 N -0.09960 0.49015 1.24386
 C161 C -0.05276 0.50276 1.19815
 N162 N 0.00722 0.51212 1.21333
 N163 N 0.08936 0.52622 0.68907
 C164 C 0.03047 0.51786 0.67150
 N165 N -0.01868 0.50926 0.71583
 N166 N -0.00922 0.50833 0.77550
 C167 C 0.04977 0.51576 0.79310
 N168 N 0.09878 0.52507 0.74865
   
