data_POSCAR
  _audit_creation_date              2014-09-24
  _audit_creation_method            'ToBaCCo'
  _symmetry_space_group_name_H-M    'P1'
  _symmetry_Int_Tables_number       1
  _symmetry_cell_setting            triclinic
  loop_
  _symmetry_equiv_pos_as_xyz
 x,y,z
_cell_length_a 22.3016
_cell_length_b 23.7722
_cell_length_c 16.5087
_cell_angle_alpha 89.059900
_cell_angle_beta 91.134700
_cell_angle_gamma 89.953300
loop_
  _atom_site_label
  _atom_site_type_symbol
  _atom_site_fract_x
  _atom_site_fract_y
  _atom_site_fract_z
O1 O 0.28902 0.29436 0.36045
 O2 O 0.16723 0.19202 0.32363
 O3 O 0.27802 0.18562 0.37511
 O4 O 0.17590 0.30015 0.31199
 O5 O 0.20294 0.29144 0.18483
 O6 O 0.30835 0.17860 0.24919
 O7 O 0.19760 0.18257 0.19803
 O8 O 0.31608 0.28692 0.23312
 Cu9 Cu 0.22482 0.24414 0.35552
 Cu10 Cu 0.25917 0.23429 0.20359
 C11 C 0.32384 0.30739 0.30299
 C12 C 0.16173 0.17004 0.25428
 C13 C 0.31122 0.16301 0.32328
 C14 C 0.17051 0.31416 0.23773
 O15 O 0.81899 0.30904 0.29841
 O16 O 0.70382 0.20057 0.32684
 O17 O 0.81601 0.20090 0.28810
 O18 O 0.70303 0.30946 0.32786
 O19 O 0.67846 0.31287 0.19762
 O20 O 0.79333 0.20627 0.15730
 O21 O 0.68105 0.20439 0.19606
 O22 O 0.79480 0.31494 0.16818
 Cu23 Cu 0.76278 0.25492 0.32341
 Cu24 Cu 0.73460 0.26058 0.16665
 C25 C 0.82781 0.32922 0.22815
 C26 C 0.67263 0.18406 0.26658
 C27 C 0.82424 0.18548 0.21586
 C28 C 0.66993 0.32805 0.26974
 O29 O 0.70656 0.80386 0.65682
 O30 O 0.82338 0.69810 0.69793
 O31 O 0.70730 0.69492 0.66708
 O32 O 0.81943 0.80626 0.70561
 O33 O 0.79494 0.80547 0.83451
 O34 O 0.68437 0.69451 0.79665
 O35 O 0.80041 0.69655 0.82748
 O36 O 0.68219 0.80278 0.78583
 Cu37 Cu 0.76638 0.75090 0.66902
 Cu38 Cu 0.73830 0.74971 0.82397
 C39 C 0.67361 0.82050 0.71342
 C40 C 0.83290 0.68025 0.76969
 C41 C 0.67570 0.67686 0.72546
 C42 C 0.82710 0.82397 0.77740
 O43 O 0.32527 0.80965 0.79014
 O44 O 0.21275 0.70087 0.83458
 O45 O 0.32508 0.70123 0.78817
 O46 O 0.21199 0.81013 0.82711
 O47 O 0.18262 0.80848 0.69860
 O48 O 0.29743 0.70158 0.65898
 O49 O 0.18517 0.70029 0.70537
 O50 O 0.29640 0.81092 0.66135
 Cu51 Cu 0.27148 0.75534 0.82291
 Cu52 Cu 0.23777 0.75522 0.66811
 C53 C 0.33063 0.82825 0.71824
 C54 C 0.17888 0.68295 0.77792
 C55 C 0.33154 0.68396 0.71645
 C56 C 0.17692 0.82676 0.76978
 C57 C 0.99402 0.10949 0.15287
 C58 C 1.04788 0.08198 0.13715
 C59 C 1.04789 0.03802 0.08173
 C60 C 0.99547 0.02348 0.03703
 C61 C 0.94221 0.05368 0.05223
 C62 C 0.94080 0.09485 0.11210
 C63 C 0.99679 -0.02187 -0.02586
 C64 C 0.94360 -0.04923 -0.05102
 C65 C 0.94263 -0.09017 -0.11108
 C66 C 0.99620 -0.10905 -0.14361
 C67 C 1.05608 -0.08729 -0.11585
 C68 C 1.05156 -0.03914 -0.05879
 H69 H 0.99409 0.14517 0.19276
 H70 H 1.08972 0.01609 0.07398
 H71 H 0.90150 0.04625 0.01748
 H72 H 0.90148 -0.03944 -0.02320
 H73 H 0.99565 -0.14389 -0.18507
 H74 H 1.09335 -0.01921 -0.04223
 C75 C 0.50283 0.61380 0.63968
 C76 C 0.55669 0.58849 0.61751
 C77 C 0.55510 0.54238 0.56600
 C78 C 0.50051 0.52290 0.53157
 C79 C 0.44710 0.55111 0.55200
 C80 C 0.44777 0.59497 0.60791
 C81 C 0.49960 0.47446 0.47369
 C82 C 0.44643 0.44373 0.45793
 C83 C 0.44526 0.39951 0.40258
 C84 C 0.49883 0.38299 0.36649
 C85 C 0.55268 0.41106 0.38376
 C86 C 0.55238 0.45741 0.43481
 H87 H 0.50401 0.65067 0.67736
 H88 H 0.59734 0.52240 0.55373
 H89 H 0.40454 0.53999 0.52433
 H90 H 0.40549 0.45317 0.48889
 H91 H 0.49945 0.34594 0.32921
 H92 H 0.59425 0.47942 0.44339
 C93 C 0.00246 0.38776 0.14735
 C94 C -0.05071 0.41512 0.12333
 C95 C -0.04826 0.46075 0.06910
 C96 C 0.00609 0.47744 0.03293
 C97 C 0.05878 0.44727 0.05570
 C98 C 0.05753 0.40410 0.11480
 C99 C 0.00705 0.52497 -0.02899
 C100 C 0.06118 0.55195 -0.05065
 C101 C 0.06167 0.59548 -0.10928
 C102 C 0.00714 0.61532 -0.14261
 C103 C -0.04728 0.59109 -0.11970
 C104 C -0.04679 0.54509 -0.06595
 H105 H 0.00063 0.35129 0.18742
 H106 H -0.08993 0.48232 0.05600
 H107 H 0.10116 0.45637 0.02786
 H108 H 0.10340 0.54023 -0.02199
 H109 H 0.00687 0.65210 -0.18220
 H110 H -0.08954 0.52595 -0.05386
 C111 C 0.50023 0.89102 0.63034
 C112 C 0.44596 0.91523 0.60307
 C113 C 0.44679 0.95820 0.54389
 C114 C 0.50101 0.97551 0.50813
 C115 C 0.55453 0.94824 0.53418
 C116 C 0.55472 0.90767 0.59673
 C117 C 0.50198 1.02050 0.44281
 C118 C 0.55541 1.05022 0.42604
 C119 C 0.55763 1.09042 0.36305
 C120 C 0.50503 1.10396 0.31933
 C121 C 0.45084 1.07832 0.33834
 C122 C 0.44959 1.03543 0.39768
 H123 H 0.49972 0.85614 0.67331
 H124 H 0.40449 0.97738 0.52636
 H125 H 0.59659 0.95731 0.50537
 H126 H 0.59566 1.04335 0.46240
 H127 H 0.50490 1.13802 0.27488
 H128 H 0.40730 1.01471 0.40790
 C129 C 1.11059 0.13276 0.23756
 C130 C 1.10561 0.10439 0.16829
 H131 H 1.07408 0.13272 0.27987
 H132 H 1.14390 0.10167 0.12909
 C133 C 0.62507 0.63852 0.71069
 C134 C 0.61506 0.61426 0.63927
 H135 H 0.59246 0.63384 0.75814
 H136 H 0.64918 0.61595 0.59345
 C137 C -0.11990 0.36589 0.21585
 C138 C -0.10988 0.39173 0.14488
 H139 H -0.08630 0.36750 0.26407
 H140 H -0.14502 0.39284 0.09855
 C141 C 0.38030 0.86700 0.70086
 C142 C 0.38797 0.89060 0.62764
 H143 H 0.41429 0.87223 0.74794
 H144 H 0.35240 0.88827 0.58212
 C145 C -0.11502 0.64343 -0.21427
 C146 C -0.10532 0.61767 -0.14270
 H147 H -0.08197 0.64029 -0.26123
 H148 H -0.14012 0.61789 -0.09777
 C149 C 0.35314 1.12297 0.35012
 C150 C 0.39559 1.10274 0.30224
 H151 H 0.35525 1.11299 0.41449
 H152 H 0.39637 1.11523 0.23879
 C153 C 1.12920 -0.13754 -0.21457
 C154 C 1.12125 -0.11718 -0.14089
 H155 H 1.09549 -0.13007 -0.26187
 H156 H 1.08856 -0.10215 -0.12829
 C157 C 0.61796 0.36400 0.28631
 C158 C 0.61073 0.38779 0.35828
 H159 H 0.58263 0.36716 0.24045
 H160 H 0.64755 0.38766 0.40215
 C161 C 0.87370 -0.13844 -0.20648
 C162 C 0.88559 -0.11882 -0.13197
 H163 H 0.90336 -0.12761 -0.25558
 H164 H 0.85420 -0.12607 -0.08358
 C165 C 0.37573 0.34457 0.31657
 C166 C 0.38876 0.36801 0.38805
 H167 H 0.40547 0.35108 0.26618
 H168 H 0.35738 0.36421 0.43713
 C169 C 0.12892 0.64454 -0.20404
 C170 C 0.11866 0.62403 -0.12943
 H171 H 0.09719 0.63610 -0.25289
 H172 H 0.15182 0.62960 -0.08136
 C173 C 0.62674 1.14512 0.27721
 C174 C 0.61334 1.12273 0.34981
 H175 H 0.59945 1.13478 0.22449
 H176 H 0.64259 1.12980 0.40189
 C177 C 0.12310 0.35465 0.21408
 C178 C 0.11296 0.37274 0.13773
 H179 H 0.09275 0.36715 0.26103
 H180 H 0.14471 0.36332 0.09099
 C181 C 0.62252 0.85810 0.69481
 C182 C 0.61136 0.87854 0.61982
 H183 H 0.59155 0.86635 0.74294
 H184 H 0.64414 0.87282 0.57304
 C185 C 0.87257 0.14524 0.20096
 C186 C 0.88493 0.12629 0.12709
 H187 H 0.90110 0.13331 0.25232
 H188 H 0.85464 0.13522 0.07636
 C189 C 0.38174 0.64577 0.70019
 C190 C 0.39138 0.62454 0.62683
 H191 H 0.41374 0.63760 0.74924
 H192 H 0.35783 0.62981 0.57891
   
