data_POSCAR
  _audit_creation_date              2014-09-24
  _audit_creation_method            'ToBaCCo'
  _symmetry_space_group_name_H-M    'P1'
  _symmetry_Int_Tables_number       1
  _symmetry_cell_setting            triclinic
  loop_
  _symmetry_equiv_pos_as_xyz
 x,y,z
_cell_length_a 16.3114
_cell_length_b 13.0085
_cell_length_c 13.0085
_cell_angle_alpha 90.000000
_cell_angle_beta 90.000000
_cell_angle_gamma 90.000000
loop_
  _atom_site_label
  _atom_site_type_symbol
  _atom_site_fract_x
  _atom_site_fract_y
  _atom_site_fract_z
Si1 Si 1.25018 0.24943 0.24930
 Si2 Si 0.75008 -0.25057 0.24930
 Si3 Si 0.75008 0.24943 -0.25070
 Si4 Si 1.24999 -0.25057 -0.25070
 Si5 Si 0.25008 0.24943 0.74930
 Si6 Si 0.75002 0.74943 0.74930
 Si7 Si 0.75015 0.24943 0.24930
 Si8 Si 0.25008 0.74943 0.24930
 O9 O 1.10760 0.20372 0.16467
 O10 O 1.20679 0.09757 0.09687
 C11 C 1.18241 0.17359 0.15716
 O12 O 0.89354 -0.16554 0.20479
 O13 O 0.79465 -0.09739 0.09852
 C14 C 0.81869 -0.15802 0.17435
 O15 O 1.10929 -0.16189 0.21152
 O16 O 1.20798 -0.09714 0.10330
 C17 C 1.18437 -0.15691 0.18101
 O18 O 0.89275 0.20973 0.15880
 O19 O 0.79424 0.10156 0.09262
 C20 C 0.81801 0.17895 0.15179
 Zr21 Zr 1.00020 0.14095 0.10564
 O22 O 1.00748 0.15230 0.26509
 O23 O 0.99068 0.29350 0.04944
 Zr24 Zr 1.00174 -0.10707 0.14256
 O25 O 1.01149 -0.05048 0.29492
 O26 O 0.99345 -0.26644 0.15241
 O27 O 1.07669 0.01941 0.14438
 O28 O 0.92597 0.01777 0.14263
 O29 O 0.89394 0.16478 -0.20447
 O30 O 0.79483 0.09582 -0.09916
 C31 C 0.81893 0.15695 -0.17471
 O32 O 1.10742 -0.20575 -0.16540
 O33 O 1.20677 -0.10041 -0.09677
 C34 C 1.18226 -0.17567 -0.15786
 O35 O 0.89251 -0.21176 -0.15951
 O36 O 0.79419 -0.10331 -0.09330
 C37 C 0.81787 -0.18060 -0.15271
 O38 O 1.10857 0.15794 -0.21119
 O39 O 1.20715 0.09171 -0.10286
 C40 C 1.18316 0.15111 -0.18020
 Zr41 Zr 1.00163 0.10455 -0.14226
 O42 O 1.01087 0.04973 -0.29531
 O43 O 0.99437 0.26419 -0.15332
 Zr44 Zr 0.99996 -0.14351 -0.10573
 O45 O 1.00767 -0.15341 -0.26532
 O46 O 0.99029 -0.29658 -0.05105
 Zr47 Zr 1.13096 -0.00184 0.00038
 Zr48 Zr 0.87105 -0.00103 -0.00012
 O49 O 0.92586 -0.02007 -0.14281
 O50 O 1.07652 -0.02216 -0.14384
 O51 O 0.92527 0.14308 -0.02088
 O52 O 1.07576 -0.14424 0.01913
 O53 O 1.07603 0.14103 -0.01893
 O54 O 0.92520 -0.14520 0.02096
 H55 H 0.88889 0.02102 0.20261
 H56 H 1.11272 -0.20433 0.02194
 H57 H 0.88882 -0.02272 -0.20285
 H58 H 1.11290 0.20122 -0.02198
 H59 H 1.04347 -0.29635 0.12227
 H60 H 1.04476 -0.33008 -0.05436
 H61 H 0.95729 -0.12408 -0.29515
 H62 H 0.95639 0.05339 -0.32873
 H63 H 1.04472 0.29411 -0.12393
 H64 H 1.04506 0.32724 0.05280
 H65 H 0.95716 0.12283 0.29499
 H66 H 0.95707 -0.05366 0.32859
 O67 O 1.10742 0.70460 0.66400
 O68 O 1.20677 0.59926 0.59537
 C69 C 1.18226 0.67452 0.65645
 O70 O 0.89394 0.33407 0.70306
 O71 O 0.79483 0.40303 0.59775
 C72 C 0.81893 0.34190 0.67330
 O73 O 1.10857 0.34091 0.70978
 O74 O 1.20715 0.40714 0.60145
 C75 C 1.18316 0.34774 0.67880
 O76 O 0.89251 0.71061 0.65811
 O77 O 0.79419 0.60216 0.59190
 C78 C 0.81787 0.67945 0.65131
 Zr79 Zr 0.99996 0.64236 0.60432
 O80 O 1.00767 0.65226 0.76392
 O81 O 0.99029 0.79543 0.54965
 Zr82 Zr 1.00163 0.39430 0.64085
 O83 O 1.01087 0.44912 0.79390
 O84 O 0.99437 0.23466 0.65191
 O85 O 1.07652 0.52101 0.64244
 O86 O 0.92586 0.51892 0.64140
 O87 O 0.89354 0.66439 0.29381
 O88 O 0.79465 0.59624 0.40008
 C89 C 0.81869 0.65687 0.32425
 O90 O 1.10760 0.29513 0.33393
 O91 O 1.20679 0.40128 0.40173
 C92 C 1.18241 0.32526 0.34143
 O93 O 0.89275 0.28912 0.33980
 O94 O 0.79424 0.39729 0.40597
 C95 C 0.81801 0.31991 0.34680
 O96 O 1.10929 0.66074 0.28707
 O97 O 1.20798 0.59599 0.39530
 C98 C 1.18437 0.65576 0.31759
 Zr99 Zr 1.00174 0.60592 0.35604
 O100 O 1.01149 0.54933 0.20367
 O101 O 0.99345 0.76529 0.34619
 Zr102 Zr 1.00020 0.35790 0.39296
 O103 O 1.00748 0.34655 0.23350
 O104 O 0.99068 0.20535 0.44915
 Zr105 Zr 1.13096 0.50069 0.49821
 Zr106 Zr 0.87105 0.49988 0.49872
 O107 O 0.92597 0.48108 0.35596
 O108 O 1.07669 0.47944 0.35421
 O109 O 0.92520 0.64405 0.47764
 O110 O 1.07603 0.35782 0.51752
 O111 O 1.07576 0.64309 0.47946
 O112 O 0.92527 0.35577 0.51948
 H113 H 0.88882 0.52157 0.70144
 H114 H 1.11290 0.29763 0.52058
 H115 H 0.88889 0.47783 0.29599
 H116 H 1.11272 0.70318 0.47666
 H117 H 1.04472 0.20474 0.62253
 H118 H 1.04506 0.17161 0.44579
 H119 H 0.95716 0.37602 0.20361
 H120 H 0.95707 0.55251 0.17001
 H121 H 1.04347 0.79520 0.37633
 H122 H 1.04476 0.82893 0.55296
 H123 H 0.95729 0.62293 0.79375
 H124 H 0.95639 0.44546 0.82732
 O125 O 0.60623 0.20319 0.66466
 O126 O 0.70534 0.09788 0.59569
 C127 C 0.68123 0.17343 0.65682
 O128 O 0.39257 -0.16594 0.70359
 O129 O 0.29338 -0.09815 0.59744
 C130 C 0.31776 -0.15844 0.67346
 O131 O 0.60742 -0.16008 0.70961
 O132 O 0.70593 -0.09390 0.60143
 C133 C 0.68215 -0.15307 0.67882
 O134 O 0.39160 0.20991 0.65781
 O135 O 0.29302 0.10158 0.59158
 C136 C 0.31701 0.17893 0.65099
 Zr137 Zr 0.49854 0.14098 0.60442
 O138 O 0.50580 0.15204 0.76406
 O139 O 0.48929 0.29403 0.54960
 Zr140 Zr 0.49997 -0.10691 0.64082
 O141 O 0.50949 -0.05072 0.79338
 O142 O 0.49269 -0.26637 0.65217
 O143 O 0.57489 0.01961 0.64295
 O144 O 0.42414 0.01765 0.64090
 O145 O 0.39275 0.16413 0.29412
 O146 O 0.29340 0.09549 0.39947
 C147 C 0.31791 0.15658 0.32420
 O148 O 0.60663 -0.20607 0.33434
 O149 O 0.70552 -0.09979 0.40248
 C150 C 0.68148 -0.17563 0.34185
 O151 O 0.39088 -0.21280 0.33798
 O152 O 0.29219 -0.10458 0.40273
 C153 C 0.31580 -0.18229 0.34296
 O154 O 0.60766 0.15824 0.28811
 O155 O 0.70598 0.09203 0.39656
 C156 C 0.68230 0.15144 0.31927
 Zr157 Zr 0.50020 0.10445 0.35636
 O158 O 0.50988 0.04978 0.20330
 O159 O 0.49250 0.26405 0.34646
 Zr160 Zr 0.49842 -0.14383 0.39281
 O161 O 0.50672 -0.15368 0.23344
 O162 O 0.48868 -0.29620 0.44939
 Zr163 Zr 0.62911 -0.00115 0.49884
 Zr164 Zr 0.36921 -0.00166 0.49803
 O165 O 0.42441 -0.02041 0.35563
 O166 O 0.57497 -0.02224 0.35467
 O167 O 0.42365 0.14257 0.47772
 O168 O 0.57420 -0.14391 0.51764
 O169 O 0.57430 0.14153 0.47980
 O170 O 0.42348 -0.14566 0.51929
 H171 H 0.38727 0.02071 0.70109
 H172 H 0.61128 -0.20388 0.52089
 H173 H 0.38744 -0.02322 0.29554
 H174 H 0.61134 0.20157 0.47715
 H175 H 0.54301 -0.29627 0.62270
 H176 H 0.54310 -0.32987 0.44621
 H177 H 0.45669 -0.12355 0.20353
 H178 H 0.45541 0.05308 0.16979
 H179 H 0.54288 0.29387 0.37579
 H180 H 0.54378 0.32745 0.55326
 H181 H 0.45545 0.12265 0.79399
 H182 H 0.45511 -0.05408 0.82711
 O183 O 0.60663 0.70492 0.16426
 O184 O 0.70552 0.59864 0.09611
 C185 C 0.68148 0.67448 0.15674
 O186 O 0.39275 0.33472 0.20447
 O187 O 0.29340 0.40336 0.09913
 C188 C 0.31791 0.34227 0.17439
 O189 O 0.60766 0.34061 0.21049
 O190 O 0.70598 0.40682 0.10203
 C191 C 0.68230 0.34741 0.17932
 O192 O 0.39088 0.71165 0.16061
 O193 O 0.29219 0.60343 0.09587
 C194 C 0.31580 0.68114 0.15563
 Zr195 Zr 0.49842 0.64268 0.10579
 O196 O 0.50672 0.65253 0.26516
 O197 O 0.48868 0.79505 0.04920
 Zr198 Zr 0.50020 0.39440 0.14223
 O199 O 0.50988 0.44907 0.29530
 O200 O 0.49250 0.23480 0.15214
 O201 O 0.57497 0.52109 0.14393
 O202 O 0.42441 0.51926 0.14296
 O203 O 0.39257 0.66479 -0.20499
 O204 O 0.29338 0.59700 -0.09884
 C205 C 0.31776 0.65729 -0.17487
 O206 O 0.60623 0.29566 -0.16606
 O207 O 0.70534 0.40097 -0.09710
 C208 C 0.68123 0.32542 -0.15823
 O209 O 0.39160 0.28894 -0.15922
 O210 O 0.29302 0.39727 -0.09299
 C211 C 0.31701 0.31992 -0.15239
 O212 O 0.60742 0.65893 -0.21101
 O213 O 0.70593 0.59275 -0.10284
 C214 C 0.68215 0.65192 -0.18022
 Zr215 Zr 0.49997 0.60576 -0.14223
 O216 O 0.50949 0.54957 -0.29478
 O217 O 0.49269 0.76522 -0.15358
 Zr218 Zr 0.49854 0.35787 -0.10583
 O219 O 0.50580 0.34681 -0.26546
 O220 O 0.48929 0.20482 -0.05100
 Zr221 Zr 0.62911 0.50000 -0.00025
 Zr222 Zr 0.36921 0.50051 0.00056
 O223 O 0.42414 0.48120 -0.14231
 O224 O 0.57489 0.47924 -0.14436
 O225 O 0.42348 0.64451 -0.02069
 O226 O 0.57430 0.35732 0.01879
 O227 O 0.57420 0.64276 -0.01904
 O228 O 0.42365 0.35628 0.02088
 H229 H 0.38744 0.52207 0.20306
 H230 H 0.61134 0.29728 0.02145
 H231 H 0.38727 0.47814 -0.20249
 H232 H 0.61128 0.70273 -0.02230
 H233 H 0.54288 0.20498 0.12281
 H234 H 0.54378 0.17140 -0.05467
 H235 H 0.45545 0.37620 -0.29539
 H236 H 0.45511 0.55293 -0.32852
 H237 H 0.54301 0.79512 -0.12411
 H238 H 0.54310 0.82872 0.05239
 H239 H 0.45669 0.62240 0.29507
 H240 H 0.45541 0.44577 0.32881
   
