data_POSCAR
  _audit_creation_date              2014-09-24
  _audit_creation_method            'ToBaCCo'
  _symmetry_space_group_name_H-M    'P1'
  _symmetry_Int_Tables_number       1
  _symmetry_cell_setting            triclinic
  loop_
  _symmetry_equiv_pos_as_xyz
 x,y,z
_cell_length_a 40.7036
_cell_length_b 22.9009
_cell_length_c 35.4281
_cell_angle_alpha 89.922200
_cell_angle_beta 90.044000
_cell_angle_gamma 90.208300
loop_
  _atom_site_label
  _atom_site_type_symbol
  _atom_site_fract_x
  _atom_site_fract_y
  _atom_site_fract_z
C1 C 0.22748 0.21532 0.22755
 C2 C 0.22752 0.27697 0.22755
 C3 C 0.25005 0.30754 0.25001
 C4 C 0.27254 0.27715 0.27252
 C5 C 0.27251 0.21551 0.27259
 C6 C 0.24998 0.18487 0.25009
 H7 H 0.24995 0.13746 0.25012
 H8 H 0.25008 0.35490 0.24998
 C9 C 0.77297 0.28296 0.22723
 C10 C 0.77294 0.22130 0.22749
 C11 C 0.75040 0.19088 0.25007
 C12 C 0.72792 0.22147 0.27237
 C13 C 0.72794 0.28301 0.27214
 C14 C 0.75045 0.31353 0.24958
 H15 H 0.75040 0.36091 0.24947
 H16 H 0.75036 0.14352 0.25027
 C17 C 0.72782 0.72241 0.72796
 C18 C 0.72786 0.78395 0.72807
 C19 C 0.75035 0.81447 0.75063
 C20 C 0.77286 0.78389 0.77310
 C21 C 0.77283 0.72223 0.77293
 C22 C 0.75030 0.69182 0.75037
 H23 H 0.75026 0.64446 0.75024
 H24 H 0.75030 0.86185 0.75066
 C25 C 0.27209 0.77848 0.72794
 C26 C 0.27190 0.71694 0.72781
 C27 C 0.24936 0.68630 0.75025
 C28 C 0.22697 0.71674 0.77284
 C29 C 0.22718 0.77840 0.77295
 C30 C 0.24974 0.80895 0.75049
 H31 H 0.24990 0.85631 0.75056
 H32 H 0.24930 0.63891 0.75009
 O33 O 1.03168 -0.07078 -0.01617
 O34 O 0.96794 -0.01413 0.04764
 O35 O 0.96770 -0.06987 -0.01638
 O36 O 1.03192 -0.01511 0.04788
 O37 O 1.03254 0.06907 0.01720
 O38 O 0.96831 0.01430 -0.04706
 O39 O 0.96856 0.07004 0.01696
 O40 O 1.03229 0.01340 -0.04685
 Cu41 Cu 0.99975 -0.05097 0.01884
 Cu42 Cu 1.00049 0.05020 -0.01803
 C43 C 1.04274 -0.03825 -0.04228
 C44 C 0.95750 0.03752 0.04307
 C45 C 0.95717 -0.03704 -0.04256
 C46 C 1.04307 0.03623 0.04338
 O47 O 0.53226 0.43106 0.48347
 O48 O 0.46822 0.48636 0.54737
 O49 O 0.46829 0.43015 0.48352
 O50 O 0.53220 0.48729 0.54732
 O51 O 0.53195 0.57123 0.51638
 O52 O 0.46804 0.51409 0.45257
 O53 O 0.46797 0.57030 0.51643
 O54 O 0.53202 0.51499 0.45252
 Cu55 Cu 0.50027 0.45025 0.51854
 Cu56 Cu 0.49997 0.55113 0.48136
 C57 C 0.54294 0.46368 0.45721
 C58 C 0.45728 0.53766 0.54268
 C59 C 0.45738 0.46247 0.45728
 C60 C 0.54286 0.53891 0.54262
 O61 O 0.03195 0.48494 -0.04740
 O62 O -0.03217 0.42960 0.01680
 O63 O -0.03203 0.48573 -0.04718
 O64 O 0.03181 0.42886 0.01660
 O65 O 0.03240 0.51284 0.04735
 O66 O -0.03145 0.56970 -0.01643
 O67 O -0.03159 0.51358 0.04755
 O68 O 0.03252 0.56892 -0.01665
 Cu69 Cu -0.00017 0.44880 -0.01839
 Cu70 Cu 0.00053 0.54974 0.01856
 C71 C 0.04305 0.53629 -0.04286
 C72 C -0.04270 0.46225 0.04300
 C73 C -0.04252 0.53732 -0.04257
 C74 C 0.04288 0.46124 0.04274
 O75 O 0.46734 1.06985 0.48293
 O76 O 0.53142 1.01493 0.54712
 O77 O 0.53132 1.07090 0.48309
 O78 O 0.46745 1.01387 0.54697
 O79 O 0.46775 0.92981 0.51630
 O80 O 0.53162 0.98685 0.45242
 O81 O 0.53172 0.93088 0.51645
 O82 O 0.46763 0.98580 0.45226
 Cu83 Cu 0.49935 1.05087 0.51811
 Cu84 Cu 0.49971 0.94985 0.48126
 C85 C 0.45667 1.03710 0.45676
 C86 C 0.54239 0.96363 0.54262
 C87 C 0.54226 1.03850 0.45698
 C88 C 0.45683 0.96221 0.54243
 C89 C 1.14837 0.06952 0.12056
 C90 C 1.16456 0.13072 0.11764
 C91 C 1.16032 0.13809 0.16045
 C92 C 1.14452 0.07733 0.16379
 C93 C 1.11457 0.09787 0.11484
 C94 C 1.11031 0.10534 0.15765
 C95 C 1.13038 0.15868 0.11154
 C96 C 1.12652 0.16648 0.15470
 C97 C 1.18545 0.16231 0.18555
 C98 C 1.20556 0.18531 0.20564
 C99 C 1.08907 0.07567 0.08938
 C100 C 1.06807 0.05759 0.06839
 H101 H 1.15707 0.02941 0.10619
 H102 H 1.18717 0.14139 0.10150
 H103 H 1.15064 0.04417 0.18554
 H104 H 1.08770 0.09476 0.17380
 H105 H 1.12428 0.19200 0.08987
 H106 H 1.11788 0.20668 0.16903
 C107 C 0.65042 0.60938 0.60338
 C108 C 0.65037 0.67108 0.62124
 C109 C 0.65945 0.64372 0.65947
 C110 C 0.65989 0.58240 0.64201
 C111 C 0.61397 0.60272 0.61379
 C112 C 0.62302 0.57541 0.65204
 C113 C 0.61355 0.66410 0.63125
 C114 C 0.62299 0.63717 0.66987
 C115 C 0.68451 0.66807 0.68460
 C116 C 0.70464 0.69087 0.70475
 C117 C 0.58861 0.57990 0.58837
 C118 C 0.56773 0.56117 0.56747
 H119 H 0.66141 0.59780 0.57572
 H120 H 0.66192 0.71077 0.60894
 H121 H 0.67921 0.54910 0.64675
 H122 H 0.61144 0.53583 0.66442
 H123 H 0.59429 0.69754 0.62653
 H124 H 0.61201 0.64885 0.69751
 C125 C -0.14798 0.42840 0.11990
 C126 C -0.16408 0.36712 0.11715
 C127 C -0.15987 0.35994 0.15999
 C128 C -0.14415 0.42078 0.16317
 C129 C -0.11413 0.40019 0.11438
 C130 C -0.10990 0.39290 0.15723
 C131 C -0.12985 0.33929 0.11124
 C132 C -0.12602 0.33168 0.15444
 C133 C -0.18500 0.33577 0.18511
 C134 C -0.20511 0.31285 0.20524
 C135 C -0.08864 0.42247 0.08894
 C136 C -0.06767 0.44068 0.06798
 H137 H -0.15672 0.46842 0.10537
 H138 H -0.18665 0.35629 0.10097
 H139 H -0.15034 0.45400 0.18479
 H140 H -0.08732 0.40364 0.17341
 H141 H -0.12368 0.30592 0.08970
 H142 H -0.11734 0.29157 0.16893
 C143 C 0.34937 0.89184 0.60339
 C144 C 0.34943 0.83011 0.62130
 C145 C 0.34044 0.85741 0.65952
 C146 C 0.33999 0.91875 0.64201
 C147 C 0.38585 0.89843 0.61377
 C148 C 0.37689 0.92568 0.65199
 C149 C 0.38627 0.83703 0.63128
 C150 C 0.37692 0.86389 0.66988
 C151 C 0.31540 0.83301 0.68467
 C152 C 0.29528 0.81015 0.70480
 C153 C 0.41116 0.92125 0.58829
 C154 C 0.43200 0.93997 0.56734
 H155 H 0.33834 0.90350 0.57573
 H156 H 0.33785 0.79046 0.60905
 H157 H 0.32069 0.95207 0.64672
 H158 H 0.38850 0.96522 0.66434
 H159 H 0.40551 0.80357 0.62657
 H160 H 0.38794 0.85214 0.69753
 C161 C -0.15006 0.60674 -0.10329
 C162 C -0.15012 0.66895 -0.12050
 C163 C -0.15898 0.64253 -0.15906
 C164 C -0.15931 0.58070 -0.14225
 C165 C -0.11355 0.60118 -0.11360
 C166 C -0.12238 0.57480 -0.15216
 C167 C -0.11324 0.66306 -0.13040
 C168 C -0.12246 0.63707 -0.16934
 C169 C -0.18400 0.66717 -0.18405
 C170 C -0.20406 0.69026 -0.20405
 C171 C -0.08822 0.57825 -0.08826
 C172 C -0.06736 0.55951 -0.06741
 H173 H -0.16111 0.59410 -0.07582
 H174 H -0.16182 0.70802 -0.10783
 H175 H -0.17853 0.54713 -0.14743
 H176 H -0.11066 0.53584 -0.16491
 H177 H -0.09410 0.69678 -0.12524
 H178 H -0.11142 0.64980 -0.19680
 C179 C 0.36961 1.15945 0.38864
 C180 C 0.37345 1.16738 0.34547
 C181 C 0.33959 1.13878 0.33976
 C182 C 0.33537 1.13127 0.38258
 C183 C 0.38529 1.09875 0.38536
 C184 C 0.35143 1.07019 0.37969
 C185 C 0.38954 1.10637 0.34255
 C186 C 0.35528 1.07814 0.33645
 C187 C 0.31448 1.16284 0.31465
 C188 C 0.29440 1.18568 0.29454
 C189 C 0.41076 1.07660 0.41081
 C190 C 0.43172 1.05852 0.43178
 H191 H 0.37578 1.19274 0.41028
 H192 H 0.38216 1.20769 0.33111
 H193 H 0.31279 1.14175 0.39873
 H194 H 0.34266 1.02998 0.39410
 H195 H 0.41212 1.09599 0.32638
 H196 H 0.34908 1.04499 0.31473
 C197 C 1.10985 -0.10728 -0.15629
 C198 C 1.14468 -0.08083 -0.16139
 C199 C 1.15919 -0.14248 -0.15874
 C200 C 1.12477 -0.16931 -0.15403
 C201 C 1.11372 -0.10161 -0.11331
 C202 C 1.12824 -0.16331 -0.11069
 C203 C 1.14815 -0.07483 -0.11799
 C204 C 1.16305 -0.13692 -0.11576
 C205 C 1.18419 -0.16686 -0.18378
 C206 C 1.20419 -0.18978 -0.20388
 C207 C 1.08839 -0.07891 -0.08798
 C208 C 1.06755 -0.06032 -0.06712
 H209 H 1.08767 -0.09494 -0.17266
 H210 H 1.15173 -0.04721 -0.18251
 H211 H 1.11551 -0.20851 -0.16914
 H212 H 1.12121 -0.19709 -0.08966
 H213 H 1.15748 -0.03574 -0.10284
 H214 H 1.18522 -0.14936 -0.09940
 C215 C 0.62332 0.42935 0.34788
 C216 C 0.66015 0.42242 0.35805
 C217 C 0.65960 0.36131 0.34029
 C218 C 0.62318 0.36780 0.32974
 C219 C 0.61410 0.40154 0.38594
 C220 C 0.61358 0.34037 0.36818
 C221 C 0.65052 0.39494 0.39651
 C222 C 0.65036 0.33345 0.37834
 C223 C 0.68467 0.33727 0.31521
 C224 C 0.70479 0.31458 0.29516
 C225 C 0.58873 0.42385 0.41137
 C226 C 0.56783 0.44208 0.43230
 H227 H 0.61187 0.46902 0.33563
 H228 H 0.67957 0.45587 0.35359
 H229 H 0.61225 0.35640 0.30198
 H230 H 0.59423 0.30677 0.37263
 H231 H 0.66146 0.40624 0.42428
 H232 H 0.66177 0.29368 0.39051
 C233 C 0.86994 -0.15964 -0.11076
 C234 C 0.83574 -0.13176 -0.11685
 C235 C 0.83999 -0.13907 -0.15966
 C236 C 0.87381 -0.16738 -0.15392
 C237 C 0.88570 -0.09878 -0.11403
 C238 C 0.88997 -0.10620 -0.15684
 C239 C 0.85188 -0.07051 -0.11973
 C240 C 0.85574 -0.07827 -0.16297
 C241 C 0.81486 -0.16327 -0.18478
 C242 C 0.79477 -0.18622 -0.20492
 C243 C 0.91119 -0.07654 -0.08857
 C244 C 0.93218 -0.05843 -0.06758
 H245 H 0.87607 -0.19296 -0.08910
 H246 H 0.81314 -0.14251 -0.10071
 H247 H 0.88247 -0.20755 -0.16827
 H248 H 0.91257 -0.09554 -0.17299
 H249 H 0.84315 -0.03044 -0.10534
 H250 H 0.84959 -0.04510 -0.18471
 C251 C 0.37756 0.42487 0.34760
 C252 C 0.37736 0.36266 0.33043
 C253 C 0.34082 0.35695 0.34066
 C254 C 0.34060 0.41871 0.35745
 C255 C 0.38629 0.39839 0.38619
 C256 C 0.34974 0.39258 0.39644
 C257 C 0.38647 0.33657 0.36940
 C258 C 0.34957 0.33043 0.37924
 C259 C 0.31578 0.33229 0.31563
 C260 C 0.29569 0.30917 0.29558
 C261 C 0.41163 0.42138 0.41156
 C262 C 0.43251 0.44019 0.43243
 H263 H 0.38939 0.46394 0.33487
 H264 H 0.38841 0.35009 0.30300
 H265 H 0.32147 0.45220 0.35224
 H266 H 0.33869 0.40505 0.42389
 H267 H 0.40553 0.30295 0.37459
 H268 H 0.33776 0.29125 0.39188
 C269 C 0.12384 0.57037 -0.15208
 C270 C 0.12350 0.63155 -0.17083
 C271 C 0.15982 0.63929 -0.16011
 C272 C 0.16059 0.57855 -0.14174
 C273 C 0.11430 0.59867 -0.11436
 C274 C 0.15063 0.60651 -0.10362
 C275 C 0.11357 0.65946 -0.13274
 C276 C 0.15026 0.66762 -0.12240
 C277 C 0.18490 0.66365 -0.18523
 C278 C 0.20501 0.68672 -0.20530
 C279 C 0.08890 0.57621 -0.08886
 C280 C 0.06798 0.55791 -0.06786
 H281 H 0.11265 0.53014 -0.16400
 H282 H 0.11265 0.64209 -0.19877
 H283 H 0.18019 0.54558 -0.14575
 H284 H 0.16149 0.59607 -0.07568
 H285 H 0.09404 0.69258 -0.12873
 H286 H 0.16142 0.70794 -0.11056
 C287 C 0.62868 1.16350 0.38890
 C288 C 0.66323 1.13661 0.38362
 C289 C 0.65935 1.14291 0.34068
 C290 C 0.62519 1.17022 0.34559
 C291 C 0.61358 1.10207 0.38602
 C292 C 0.60969 1.10847 0.34308
 C293 C 0.64775 1.07481 0.38113
 C294 C 0.64426 1.08154 0.33777
 C295 C 0.68453 1.16718 0.31566
 C296 C 0.70471 1.18994 0.29556
 C297 C 0.58811 1.07934 0.41131
 C298 C 0.56716 1.06068 0.43215
 H299 H 0.62199 1.19705 0.41011
 H300 H 0.68554 1.14844 0.39998
 H301 H 0.61626 1.20980 0.33070
 H302 H 0.58737 1.09675 0.32670
 H303 H 0.65675 1.03534 0.39607
 H304 H 0.65097 1.04814 0.31648
 C305 C 0.11375 0.33549 0.13043
 C306 C 0.15068 0.33006 0.12068
 C307 C 0.15932 0.35630 0.15936
 C308 C 0.12275 0.36131 0.16949
 C309 C 0.11390 0.39750 0.11381
 C310 C 0.12252 0.42369 0.15250
 C311 C 0.15047 0.39240 0.10366
 C312 C 0.15950 0.41825 0.14274
 C313 C 0.18434 0.33178 0.18440
 C314 C 0.20440 0.30880 0.20445
 C315 C 0.08858 0.42036 0.08845
 C316 C 0.06772 0.43907 0.06758
 H317 H 0.09474 0.30161 0.12509
 H318 H 0.16255 0.29120 0.10796
 H319 H 0.11166 0.34826 0.19686
 H320 H 0.11062 0.46243 0.16531
 H321 H 0.16158 0.40534 0.07627
 H322 H 0.17858 0.45200 0.14810
 C323 C 0.62913 0.84103 0.61112
 C324 C 0.66353 0.86879 0.61677
 C325 C 0.65946 0.86209 0.65966
 C326 C 0.62544 0.83391 0.65437
 C327 C 0.61375 0.90203 0.61404
 C328 C 0.60966 0.89522 0.65694
 C329 C 0.64777 0.93017 0.61931
 C330 C 0.64409 0.92303 0.66262
 C331 C 0.68460 0.83816 0.68479
 C332 C 0.70472 0.81552 0.70493
 C333 C 0.58828 0.92415 0.58859
 C334 C 0.56733 0.94221 0.56761
 H335 H 0.62269 0.80746 0.58976
 H336 H 0.68597 0.85768 0.60056
 H337 H 0.61661 0.79399 0.66907
 H338 H 0.58721 0.90624 0.67316
 H339 H 0.65667 0.96998 0.60456
 H340 H 0.65054 0.95646 0.68407
 C341 C 0.88670 0.16288 0.13075
 C342 C 0.84977 0.16836 0.12093
 C343 C 0.84113 0.14193 0.15959
 C344 C 0.87769 0.13688 0.16979
 C345 C 0.88654 0.10095 0.11411
 C346 C 0.87792 0.07457 0.15277
 C347 C 0.84997 0.10611 0.10389
 C348 C 0.84094 0.08006 0.14295
 C349 C 0.81611 0.16637 0.18457
 C350 C 0.79604 0.18936 0.20455
 C351 C 0.91185 0.07821 0.08877
 C352 C 0.93269 0.05960 0.06791
 H353 H 0.90571 0.19678 0.12544
 H354 H 0.83790 0.20728 0.10820
 H355 H 0.88878 0.14979 0.19718
 H356 H 0.88982 0.03577 0.16559
 H357 H 0.83887 0.09330 0.07648
 H358 H 0.82185 0.04630 0.14827
 C359 C 0.37061 0.66048 0.61091
 C360 C 0.33616 0.63283 0.61640
 C361 C 0.34017 0.63917 0.65931
 C362 C 0.37424 0.66723 0.65419
 C363 C 0.38589 0.59938 0.61379
 C364 C 0.38992 0.60582 0.65671
 C365 C 0.35182 0.57136 0.61889
 C366 C 0.35545 0.57813 0.66223
 C367 C 0.31505 0.66298 0.68442
 C368 C 0.29496 0.68551 0.70459
 C369 C 0.41137 0.57729 0.58842
 C370 C 0.43233 0.55918 0.56754
 H371 H 0.37712 0.69419 0.58963
 H372 H 0.31375 0.64418 0.60013
 H373 H 0.38311 0.70699 0.66899
 H374 H 0.41234 0.59458 0.67300
 H375 H 0.34288 0.53171 0.60405
 H376 H 0.34892 0.54456 0.68360
   
