data_POSCAR
  _audit_creation_date              2014-09-24
  _audit_creation_method            'ToBaCCo'
  _symmetry_space_group_name_H-M    'P1'
  _symmetry_Int_Tables_number       1
  _symmetry_cell_setting            triclinic
  loop_
  _symmetry_equiv_pos_as_xyz
 x,y,z
_cell_length_a 57.4063
_cell_length_b 57.9988
_cell_length_c 23.2896
_cell_angle_alpha 89.996400
_cell_angle_beta 89.958200
_cell_angle_gamma 119.513800
loop_
  _atom_site_label
  _atom_site_type_symbol
  _atom_site_fract_x
  _atom_site_fract_y
  _atom_site_fract_z
C1 C 0.17618 0.45216 0.55486
 C2 C 0.16571 0.45546 0.50299
 C3 C 0.17887 0.45915 0.45015
 C4 C 0.20422 0.46034 0.44935
 C5 C 0.21492 0.45626 0.50102
 C6 C 0.20065 0.45159 0.55351
 C7 C 0.21031 0.44462 0.60222
 C8 C 0.23475 0.44509 0.60128
 C9 C 0.25077 0.45262 0.55164
 C10 C 0.24007 0.45691 0.50023
 C11 C 0.21999 0.46716 0.39925
 C12 C 0.24432 0.46745 0.39834
 C13 C 0.25439 0.46173 0.44793
 C14 C 0.27878 0.46136 0.44682
 C15 C 0.28924 0.45750 0.49771
 C16 C 0.27627 0.45404 0.55083
 H17 H 0.19876 0.43804 0.64143
 H18 H 0.24060 0.43880 0.63974
 H19 H 0.21403 0.47288 0.36019
 H20 H 0.25537 0.47259 0.35835
 H21 H 0.14677 0.45535 0.50378
 H22 H 0.30866 0.45864 0.49584
 C23 C 0.53653 -0.28088 0.44881
 C24 C 0.53979 -0.29113 0.50050
 C25 C 0.54049 -0.27935 0.55370
 C26 C 0.53978 -0.25513 0.55412
 C27 C 0.53630 -0.24456 0.50180
 C28 C 0.53445 -0.25763 0.44906
 C29 C 0.53133 -0.24672 0.39774
 C30 C 0.53009 -0.22341 0.39797
 C31 C 0.53246 -0.20977 0.44940
 C32 C 0.53533 -0.22048 0.50199
 C33 C 0.54477 -0.23999 0.60445
 C34 C 0.54388 -0.21646 0.60461
 C35 C 0.53787 -0.20689 0.55449
 C36 C 0.53660 -0.18294 0.55432
 C37 C 0.53422 -0.17267 0.50134
 C38 C 0.53211 -0.18563 0.44953
 H39 H 0.53009 -0.25596 0.35665
 H40 H 0.52749 -0.21605 0.35715
 H41 H 0.55039 -0.24568 0.64406
 H42 H 0.54890 -0.20543 0.64435
 H43 H 0.53995 -0.30975 0.49904
 H44 H 0.53288 -0.15466 0.50013
 C45 C 1.28395 0.80735 0.44787
 C46 C 1.29628 0.81867 0.50033
 C47 C 1.28768 0.80519 0.55288
 C48 C 1.26557 0.77895 0.55297
 C49 C 1.25189 0.76747 0.50082
 C50 C 1.26096 0.78169 0.44826
 C51 C 1.24601 0.77034 0.39807
 C52 C 1.22441 0.74475 0.39807
 C53 C 1.21594 0.72983 0.44883
 C54 C 1.22933 0.74140 0.50100
 C55 C 1.25809 0.76303 0.60260
 C56 C 1.23615 0.73761 0.60265
 C57 C 1.22058 0.72676 0.55308
 C58 C 1.19788 0.70079 0.55302
 C59 C 1.18618 0.68936 0.50002
 C60 C 1.19467 0.70345 0.44859
 H61 H 1.25068 0.78113 0.35804
 H62 H 1.21439 0.73682 0.35761
 H63 H 1.26960 0.76965 0.64177
 H64 H 1.23210 0.72621 0.64177
 H65 H 1.31347 0.83848 0.50019
 H66 H 1.16884 0.66965 0.49862
 C67 C 0.72611 0.54947 0.44811
 C68 C 0.71494 0.55103 0.50018
 C69 C 0.72683 0.55156 0.55327
 C70 C 0.75189 0.55200 0.55336
 C71 C 0.76347 0.55037 0.50056
 C72 C 0.75053 0.54915 0.44783
 C73 C 0.76280 0.54864 0.39601
 C74 C 0.78718 0.54905 0.39574
 C75 C 0.80029 0.54994 0.44728
 C76 C 0.78848 0.55074 0.50028
 C77 C 0.76686 0.55641 0.60399
 C78 C 0.79125 0.55674 0.60371
 C79 C 0.80195 0.55268 0.55280
 C80 C 0.82689 0.55288 0.55220
 C81 C 0.83836 0.55284 0.49887
 C82 C 0.82540 0.55102 0.44701
 H83 H 0.75393 0.54848 0.35493
 H84 H 0.79589 0.54919 0.35445
 H85 H 0.76039 0.56064 0.64429
 H86 H 0.80209 0.56122 0.64382
 H87 H 0.69558 0.55007 0.49903
 H88 H 0.85703 0.55239 0.49731
 C89 C 0.47744 0.18941 0.55413
 C90 C 0.47568 0.17654 0.50222
 C91 C 0.47392 0.18720 0.44968
 C92 C 0.47374 0.21149 0.44853
 C93 C 0.47597 0.22508 0.50075
 C94 C 0.47811 0.21413 0.55366
 C95 C 0.48207 0.22871 0.60430
 C96 C 0.48315 0.25320 0.60340
 C97 C 0.47948 0.26388 0.55207
 C98 C 0.47676 0.24999 0.49987
 C99 C 0.47210 0.22285 0.39650
 C100 C 0.47275 0.24712 0.39559
 C101 C 0.47551 0.26120 0.44658
 C102 C 0.47711 0.28626 0.44562
 C103 C 0.47972 0.29969 0.49701
 C104 C 0.48052 0.28896 0.55060
 H105 H 0.48511 0.22165 0.64508
 H106 H 0.48771 0.26394 0.64346
 H107 H 0.47051 0.21318 0.35581
 H108 H 0.47128 0.25485 0.35428
 H109 H 0.47549 0.15774 0.50270
 H110 H 0.48017 0.31859 0.49496
 C111 C 0.70383 0.19114 0.44960
 C112 C 0.69211 0.17971 0.50219
 C113 C 0.70335 0.19221 0.55427
 C114 C 0.72698 0.21718 0.55409
 C115 C 0.73933 0.22897 0.50111
 C116 C 0.72765 0.21593 0.44861
 C117 C 0.73952 0.22844 0.39656
 C118 C 0.76245 0.25319 0.39591
 C119 C 0.77451 0.26639 0.44729
 C120 C 0.76293 0.25423 0.50054
 C121 C 0.73784 0.23119 0.60522
 C122 C 0.76076 0.25598 0.60465
 C123 C 0.77435 0.26758 0.55307
 C124 C 0.79775 0.29306 0.55200
 C125 C 0.80819 0.30488 0.49848
 C126 C 0.79728 0.29189 0.44673
 H127 H 0.73093 0.21943 0.35566
 H128 H 0.77034 0.26209 0.35451
 H129 H 0.72830 0.22344 0.64623
 H130 H 0.76712 0.26624 0.64522
 H131 H 0.67391 0.16063 0.50258
 H132 H 0.82627 0.32404 0.49665
 N133 N 0.97375 0.52764 0.05965
 N134 N 0.95703 0.53659 0.07077
 N135 N 1.02805 0.53404 0.10040
 N136 N 1.04649 0.54611 0.14013
 N137 N 1.02984 0.55089 0.06057
 N138 N 1.04958 0.57494 0.07224
 N139 N 0.97203 0.51080 0.09939
 N140 N 0.95412 0.50778 0.13851
 C141 C 0.94473 0.52366 0.11961
 C142 C 1.05992 0.57144 0.12153
 N143 N 1.02184 0.46527 0.06244
 N144 N 1.03922 0.45717 0.07376
 N145 N 0.96717 0.45899 0.10047
 N146 N 0.94809 0.44720 0.13914
 N147 N 0.96569 0.44197 0.06143
 N148 N 0.94553 0.41807 0.07259
 N149 N 1.02321 0.48226 0.10144
 N150 N 1.04151 0.48622 0.14025
 Mn151 Mn 0.99761 0.49651 0.10090
 C152 C 1.05145 0.47068 0.12208
 C153 C 0.93465 0.42185 0.12077
 N154 N 1.03036 0.55064 -0.06346
 N155 N 1.05069 0.57448 -0.07436
 N156 N 0.97278 0.51042 -0.10351
 N157 N 0.95491 0.50706 -0.14300
 N158 N 0.97422 0.52738 -0.06435
 N159 N 0.95735 0.53604 -0.07620
 N160 N 1.02884 0.53362 -0.10254
 N161 N 1.04805 0.54534 -0.14097
 Mn162 Mn 1.00207 0.53941 -0.00192
 C163 C 1.06162 0.57066 -0.12244
 C164 C 0.94526 0.52288 -0.12490
 N165 N 0.96617 0.44171 -0.06262
 N166 N 0.94614 0.41775 -0.07386
 N167 N 1.02398 0.48182 -0.10135
 N168 N 1.04246 0.48542 -0.13951
 N169 N 1.02230 0.46503 -0.06151
 N170 N 1.03960 0.45671 -0.07156
 N171 N 0.96794 0.45858 -0.10237
 N172 N 0.94921 0.44663 -0.14161
 Mn173 Mn 0.99397 0.45321 -0.00006
 Mn174 Mn 0.99838 0.49610 -0.10295
 Cl175 Cl 0.99800 0.49631 -0.00101
 C176 C 0.93566 0.42133 -0.12286
 C177 C 1.05218 0.46990 -0.11994
 N178 N 0.47468 0.44500 0.06043
 N179 N 0.46916 0.42044 0.07121
 N180 N 0.46069 0.48772 0.10082
 N181 N 0.44685 0.49251 0.13956
 N182 N 0.44478 0.47154 0.06113
 N183 N 0.41962 0.46485 0.07187
 N184 N 0.49053 0.46121 0.10014
 N185 N 0.49626 0.44818 0.13892
 C186 C 0.48309 0.42293 0.11985
 C187 C 0.42140 0.47837 0.12053
 N188 N 0.52542 0.55433 0.06230
 N189 N 0.53130 0.57888 0.07442
 N190 N 0.53935 0.51136 0.10091
 N191 N 0.55329 0.50721 0.14054
 N192 N 0.55528 0.52780 0.06156
 N193 N 0.58054 0.53533 0.07344
 N194 N 0.50950 0.53786 0.10164
 N195 N 0.50410 0.55071 0.14152
 Mn196 Mn 0.50000 0.49952 0.10137
 C197 C 0.51751 0.57613 0.12343
 C198 C 0.57882 0.52195 0.12227
 N199 N 0.44487 0.47194 -0.06282
 N200 N 0.41960 0.46431 -0.07480
 N201 N 0.49069 0.46197 -0.10288
 N202 N 0.49647 0.44923 -0.14227
 N203 N 0.47478 0.44546 -0.06357
 N204 N 0.46928 0.42098 -0.07524
 N205 N 0.46079 0.48844 -0.10215
 N206 N 0.44680 0.49248 -0.14185
 Mn207 Mn 0.45953 0.45822 -0.00119
 C208 C 0.42126 0.47765 -0.12365
 C209 C 0.48326 0.42383 -0.12402
 N210 N 0.55541 0.52827 -0.06235
 N211 N 0.58068 0.53568 -0.07389
 N212 N 0.50973 0.53869 -0.10143
 N213 N 0.50476 0.55197 -0.14104
 N214 N 0.52557 0.55482 -0.06158
 N215 N 0.53182 0.57951 -0.07306
 N216 N 0.53958 0.51216 -0.10222
 N217 N 0.55363 0.50815 -0.14190
 Mn218 Mn 0.54065 0.54154 -0.00002
 Mn219 Mn 0.50019 0.50032 -0.10268
 Cl220 Cl 0.50009 0.49990 -0.00065
 C221 C 0.57910 0.52262 -0.12312
 C222 C 0.51830 0.57726 -0.12217
 N223 N 0.44023 -0.03155 0.06277
 N224 N 0.41546 -0.05035 0.07368
 N225 N 0.48369 0.02435 0.10207
 N226 N 0.48848 0.04265 0.14102
 N227 N 0.46732 0.02420 0.06250
 N228 N 0.46046 0.04242 0.07361
 N229 N 0.45671 -0.03130 0.10220
 N230 N 0.44366 -0.04986 0.14094
 C231 C 0.41810 -0.06171 0.12216
 C232 C 0.47412 0.05388 0.12233
 N233 N 0.55083 0.02564 0.06314
 N234 N 0.57554 0.04449 0.07432
 N235 N 0.50731 -0.03041 0.10262
 N236 N 0.50243 -0.04873 0.14160
 N237 N 0.52393 -0.03010 0.06343
 N238 N 0.53083 -0.04826 0.07474
 N239 N 0.53421 0.02523 0.10245
 N240 N 0.54707 0.04376 0.14130
 Mn241 Mn 0.49547 -0.00305 0.10281
 C242 C 0.57268 0.05573 0.12282
 C243 C 0.51696 -0.05984 0.12320
 N244 N 0.46752 0.02407 -0.06171
 N245 N 0.46147 0.04291 -0.07229
 N246 N 0.45688 -0.03161 -0.10024
 N247 N 0.44393 -0.05044 -0.13846
 N248 N 0.44035 -0.03172 -0.06109
 N249 N 0.41562 -0.05069 -0.07165
 N250 N 0.48392 0.02404 -0.10104
 N251 N 0.48954 0.04282 -0.13931
 Mn252 Mn 0.45358 -0.00373 0.00060
 C253 C 0.47560 0.05449 -0.12055
 C254 C 0.41836 -0.06227 -0.11967
 N255 N 0.52404 -0.03032 -0.06046
 N256 N 0.53118 -0.04833 -0.07146
 N257 N 0.53437 0.02488 -0.10066
 N258 N 0.54719 0.04365 -0.13910
 N259 N 0.55092 0.02546 -0.06103
 N260 N 0.57556 0.04467 -0.07156
 N261 N 0.50747 -0.03079 -0.09992
 N262 N 0.50288 -0.04909 -0.13878
 Mn263 Mn 0.53772 -0.00230 0.00126
 Mn264 Mn 0.49564 -0.00340 -0.10097
 Cl265 Cl 0.49561 -0.00312 0.00094
 C266 C 0.51748 -0.06005 -0.11997
 C267 C 0.57271 0.05590 -0.12009
 C268 C 1.14825 0.44703 0.30349
 C269 C 1.13615 0.46289 0.30538
 C270 C 1.13905 0.47809 0.35416
 C271 C 1.15361 0.47725 0.40122
 C272 C 1.16592 0.46136 0.40031
 C273 C 1.16299 0.44621 0.35062
 C274 C 1.11958 0.46293 0.25905
 C275 C 1.10490 0.46364 0.22298
 C276 C 1.08691 0.46528 0.18412
 C277 C 1.07098 0.46737 0.15401
 H278 H 1.14580 0.43488 0.26619
 H279 H 1.12971 0.49039 0.35619
 H280 H 1.15553 0.48937 0.43824
 H281 H 1.17112 0.43288 0.34910
 C282 C 0.50780 0.67402 0.31992
 C283 C 0.52966 0.67116 0.30304
 C284 C 0.55415 0.68525 0.33175
 C285 C 0.55662 0.70164 0.37799
 C286 C 0.53464 0.70421 0.39578
 C287 C 0.51026 0.69046 0.36619
 C288 C 0.52654 0.65222 0.25953
 C289 C 0.52414 0.63568 0.22506
 C290 C 0.52159 0.61561 0.18707
 C291 C 0.51961 0.59789 0.15678
 H292 H 0.48868 0.66300 0.29840
 H293 H 0.57112 0.68298 0.31942
 H294 H 0.57546 0.71186 0.40082
 H295 H 0.49300 0.69190 0.38001
 C296 C 0.31659 -0.17488 0.30330
 C297 C 0.32576 -0.14762 0.30200
 C298 C 0.31971 -0.13569 0.34736
 C299 C 0.30513 -0.15073 0.39451
 C300 C 0.29602 -0.17818 0.39704
 C301 C 0.30186 -0.19007 0.35043
 C302 C 0.34334 -0.13127 0.25699
 C303 C 0.35907 -0.11657 0.22184
 C304 C 0.37860 -0.09833 0.18378
 C305 C 0.39617 -0.08198 0.15405
 H306 H 0.32158 -0.18424 0.26884
 H307 H 0.32685 -0.11456 0.34699
 H308 H 0.30095 -0.14084 0.42917
 H309 H 0.29633 -0.21082 0.35176
 C310 C 0.84057 0.52300 0.31439
 C311 C 0.86600 0.54369 0.29960
 C312 C 0.87743 0.56729 0.33118
 C313 C 0.86377 0.57000 0.37809
 C314 C 0.83849 0.54916 0.39371
 C315 C 0.82689 0.52569 0.36132
 C316 C 0.88134 0.53993 0.25538
 C317 C 0.89487 0.53657 0.22042
 C318 C 0.91150 0.53237 0.18216
 C319 C 0.92633 0.52854 0.15204
 H320 H 0.83168 0.50453 0.29069
 H321 H 0.89720 0.58331 0.32051
 H322 H 0.87313 0.58811 0.40303
 H323 H 0.80760 0.50926 0.37340
 C324 C 0.49786 0.32490 0.30635
 C325 C 0.47649 0.32974 0.29762
 C326 C 0.45461 0.31883 0.33522
 C327 C 0.45439 0.30377 0.38223
 C328 C 0.47601 0.29937 0.39195
 C329 C 0.49763 0.30977 0.35339
 C330 C 0.47794 0.34778 0.25352
 C331 C 0.47911 0.36379 0.21894
 C332 C 0.48047 0.38349 0.18131
 C333 C 0.48164 0.40109 0.15176
 H334 H 0.51502 0.33348 0.27788
 H335 H 0.43811 0.32265 0.32922
 H336 H 0.43770 0.29611 0.41195
 H337 H 0.51463 0.30686 0.36082
 C338 C 0.65005 0.15753 0.33734
 C339 C 0.66096 0.14548 0.30277
 C340 C 0.68661 0.14943 0.31461
 C341 C 0.70105 0.16500 0.36154
 C342 C 0.68992 0.17671 0.39683
 C343 C 0.66441 0.17301 0.38420
 C344 C 0.64484 0.12758 0.25809
 C345 C 0.63010 0.11197 0.22291
 C346 C 0.61144 0.09301 0.18462
 C347 C 0.59436 0.07627 0.15470
 H348 H 0.63014 0.15443 0.32889
 H349 H 0.69514 0.13999 0.28849
 H350 H 0.72059 0.16742 0.37120
 H351 H 0.65547 0.18173 0.41131
 C352 C 0.45702 0.15168 -0.30526
 C353 C 0.47760 0.14558 -0.29788
 C354 C 0.49891 0.15528 -0.33695
 C355 C 0.49932 0.17041 -0.38400
 C356 C 0.47848 0.17611 -0.39237
 C357 C 0.45745 0.16690 -0.35235
 C358 C 0.47601 0.12763 -0.25335
 C359 C 0.47506 0.11181 -0.21850
 C360 C 0.47451 0.09249 -0.18079
 C361 C 0.47463 0.07540 -0.15151
 H362 H 0.44031 0.14407 -0.27562
 H363 H 0.51482 0.15050 -0.33195
 H364 H 0.51557 0.17716 -0.41471
 H365 H 0.44101 0.17079 -0.35864
 C366 C 0.69180 0.52891 -0.30522
 C367 C 0.67821 0.54337 -0.30267
 C368 C 0.68208 0.56162 -0.34591
 C369 C 0.69885 0.56496 -0.39228
 C370 C 0.71240 0.55027 -0.39622
 C371 C 0.70875 0.53230 -0.35159
 C372 C 0.65875 0.53834 -0.25841
 C373 C 0.64154 0.53435 -0.22377
 C374 C 0.62050 0.52996 -0.18598
 C375 C 0.60190 0.52646 -0.15603
 H376 H 0.68863 0.51442 -0.27238
 H377 H 0.67160 0.57286 -0.34450
 H378 H 0.70125 0.57916 -0.42523
 H379 H 0.71777 0.51974 -0.35406
 C380 C 0.83415 0.30875 -0.30755
 C381 C 0.84392 0.33608 -0.30419
 C382 C 0.83751 0.34883 -0.34715
 C383 C 0.82177 0.33450 -0.39374
 C384 C 0.81177 0.30694 -0.39806
 C385 C 0.81826 0.29427 -0.35415
 C386 C 0.86194 0.35165 -0.25904
 C387 C 0.87780 0.36592 -0.22361
 C388 C 0.89719 0.38398 -0.18512
 C389 C 0.91441 0.40047 -0.15503
 H390 H 0.83939 0.29875 -0.27500
 H391 H 0.84508 0.37002 -0.34518
 H392 H 0.81719 0.34502 -0.42629
 H393 H 0.81213 0.27341 -0.35713
 C394 C 0.54955 -0.12730 -0.34669
 C395 C 0.53275 -0.14083 -0.30059
 C396 C 0.51822 -0.16855 -0.30096
 C397 C 0.52012 -0.18266 -0.34788
 C398 C 0.53667 -0.16920 -0.39521
 C399 C 0.55141 -0.14126 -0.39359
 C400 C 0.52922 -0.12587 -0.25543
 C401 C 0.52641 -0.11219 -0.22022
 C402 C 0.52325 -0.09499 -0.18209
 C403 C 0.52061 -0.07946 -0.15222
 H404 H 0.56081 -0.10584 -0.34700
 H405 H 0.50480 -0.17922 -0.26587
 H406 H 0.50754 -0.20400 -0.34841
 H407 H 0.56455 -0.13012 -0.42868
 C408 C 0.30850 0.47155 -0.30420
 C409 C 0.32337 0.45836 -0.30522
 C410 C 0.32123 0.44242 -0.35214
 C411 C 0.30492 0.44022 -0.39861
 C412 C 0.29015 0.45377 -0.39898
 C413 C 0.29203 0.46931 -0.35065
 C414 C 0.34241 0.46254 -0.26059
 C415 C 0.35932 0.46610 -0.22558
 C416 C 0.38010 0.47025 -0.18731
 C417 C 0.39855 0.47371 -0.15696
 H418 H 0.31032 0.48428 -0.26843
 H419 H 0.33269 0.43216 -0.35348
 H420 H 0.30386 0.42781 -0.43441
 H421 H 0.28204 0.48101 -0.35007
 C422 C 1.16010 0.64392 -0.34700
 C423 C 1.15472 0.65630 -0.30150
 C424 C 1.16511 0.68376 -0.30239
 C425 C 1.18032 0.69871 -0.34931
 C426 C 1.18541 0.68639 -0.39625
 C427 C 1.17516 0.65872 -0.39397
 C428 C 1.13673 0.64030 -0.25663
 C429 C 1.12071 0.62585 -0.22158
 C430 C 1.10096 0.60776 -0.18363
 C431 C 1.08336 0.59134 -0.15405
 H432 H 1.15208 0.62264 -0.34689
 H433 H 1.16071 0.69351 -0.26778
 H434 H 1.18673 0.71967 -0.35026
 H435 H 1.17882 0.64845 -0.42861
 C436 C 0.88194 0.56349 -0.34733
 C437 C 0.86780 0.54505 -0.30427
 C438 C 0.83985 0.53023 -0.30688
 C439 C 0.82613 0.53346 -0.35311
 C440 C 0.84019 0.55165 -0.39753
 C441 C 0.86835 0.56669 -0.39359
 C442 C 0.88237 0.54014 -0.26014
 C443 C 0.89555 0.53609 -0.22552
 C444 C 0.91199 0.53142 -0.18770
 C445 C 0.92680 0.52749 -0.15774
 H446 H 0.90359 0.57500 -0.34589
 H447 H 0.82873 0.51557 -0.27421
 H448 H 0.80466 0.52062 -0.35562
 H449 H 0.87995 0.58106 -0.42637
 C450 C 0.49946 0.34651 -0.35198
 C451 C 0.48198 0.33456 -0.30591
 C452 C 0.46455 0.30716 -0.30616
 C453 C 0.46444 0.29182 -0.35275
 C454 C 0.48189 0.30369 -0.39972
 C455 C 0.49933 0.33133 -0.39852
 C456 C 0.48117 0.35100 -0.26056
 C457 C 0.48102 0.36606 -0.22510
 C458 C 0.48139 0.38505 -0.18666
 C459 C 0.48208 0.40226 -0.15653
 H460 H 0.51294 0.36772 -0.35240
 H461 H 0.45061 0.29777 -0.27110
 H462 H 0.44985 0.27090 -0.35316
 H463 H 0.51315 0.34124 -0.43352
 C464 C 0.64873 0.15768 -0.33527
 C465 C 0.66050 0.14752 -0.29777
 C466 C 0.68697 0.15331 -0.30679
 C467 C 0.70139 0.16873 -0.35395
 C468 C 0.68941 0.17844 -0.39235
 C469 C 0.66307 0.17301 -0.38239
 C470 C 0.64448 0.12946 -0.25316
 C471 C 0.62984 0.11356 -0.21825
 C472 C 0.61131 0.09415 -0.18048
 C473 C 0.59431 0.07697 -0.15114
 H474 H 0.62819 0.15314 -0.32900
 H475 H 0.69618 0.14533 -0.27837
 H476 H 0.72158 0.17245 -0.36150
 H477 H 0.65347 0.18016 -0.41186
 C478 C 1.16128 0.46759 -0.29819
 C479 C 1.13330 0.45286 -0.29780
 C480 C 1.11978 0.43655 -0.34436
 C481 C 1.13401 0.43555 -0.39195
 C482 C 1.16220 0.45072 -0.39382
 C483 C 1.17566 0.46654 -0.34577
 C484 C 1.11805 0.45612 -0.25263
 C485 C 1.10422 0.45901 -0.21766
 C486 C 1.08694 0.46258 -0.18013
 C487 C 1.07143 0.46581 -0.15102
 H488 H 1.17193 0.48063 -0.26271
 H489 H 1.09811 0.42514 -0.34463
 H490 H 1.12288 0.42287 -0.42754
 H491 H 1.19717 0.47932 -0.34630
 C492 C 0.52007 0.68664 -0.30375
 C493 C 0.53523 0.67376 -0.30220
 C494 C 0.55331 0.67781 -0.34644
 C495 C 0.55574 0.69405 -0.39287
 C496 C 0.54027 0.70684 -0.39584
 C497 C 0.52253 0.70304 -0.35015
 C498 C 0.53104 0.65480 -0.25788
 C499 C 0.52769 0.63803 -0.22316
 C500 C 0.52403 0.61752 -0.18527
 C501 C 0.52121 0.59940 -0.15522
 H502 H 0.50571 0.68331 -0.27009
 H503 H 0.56511 0.66789 -0.34576
 H504 H 0.56984 0.69663 -0.42660
 H505 H 0.50940 0.71147 -0.35179
 C506 C 0.34436 -0.15206 -0.35022
 C507 C 0.33086 -0.15091 -0.30135
 C508 C 0.30285 -0.16514 -0.29964
 C509 C 0.28841 -0.18027 -0.34713
 C510 C 0.30185 -0.18139 -0.39696
 C511 C 0.33008 -0.16698 -0.39759
 C512 C 0.34622 -0.13389 -0.25483
 C513 C 0.36072 -0.11863 -0.21888
 C514 C 0.37938 -0.09978 -0.18048
 C515 C 0.39657 -0.08298 -0.15091
 H516 H 0.36603 -0.14107 -0.35207
 H517 H 0.29219 -0.16409 -0.26224
 H518 H 0.26675 -0.19017 -0.34576
 H519 H 0.34122 -0.16749 -0.43468
 C520 C 0.54824 -0.14740 0.30986
 C521 C 0.52528 -0.14504 0.30255
 C522 C 0.50404 -0.15725 0.34155
 C523 C 0.50597 -0.17123 0.38842
 C524 C 0.52912 -0.17322 0.39659
 C525 C 0.55016 -0.16145 0.35678
 C526 C 0.52419 -0.12837 0.25812
 C527 C 0.52299 -0.11366 0.22320
 C528 C 0.52123 -0.09564 0.18519
 C529 C 0.51944 -0.07962 0.15535
 H530 H 0.56489 -0.13780 0.28027
 H531 H 0.48630 -0.15534 0.33661
 H532 H 0.48968 -0.18000 0.41909
 H533 H 0.56829 -0.16254 0.36297
 C534 C 0.33644 0.48968 0.34188
 C535 C 0.32691 0.47024 0.29902
 C536 C 0.30087 0.44869 0.30267
 C537 C 0.28468 0.44626 0.34983
 C538 C 0.29447 0.46538 0.39361
 C539 C 0.32033 0.48725 0.38900
 C540 C 0.34480 0.47145 0.25437
 C541 C 0.36087 0.47265 0.21946
 C542 C 0.38086 0.47433 0.18166
 C543 C 0.39888 0.47602 0.15215
 H544 H 0.35663 0.50631 0.33975
 H545 H 0.29340 0.43340 0.27003
 H546 H 0.26489 0.42910 0.35316
 H547 H 0.32824 0.50205 0.42263
 C548 C 1.16734 0.65357 0.32801
 C549 C 1.14936 0.66008 0.30195
 C550 C 1.14721 0.68172 0.32209
 C551 C 1.16262 0.69647 0.36887
 C552 C 1.18033 0.68971 0.39566
 C553 C 1.18271 0.66828 0.37475
 C554 C 1.13164 0.64318 0.25784
 C555 C 1.11618 0.62807 0.22292
 C556 C 1.09734 0.60934 0.18461
 C557 C 1.08061 0.59248 0.15434
 H558 H 1.16896 0.63671 0.31317
 H559 H 1.13315 0.68673 0.30265
 H560 H 1.16030 0.71273 0.38510
 H561 H 1.19607 0.66266 0.39542
 C562 C 0.44898 0.14361 0.31753
 C563 C 0.47166 0.14172 0.30279
 C564 C 0.49526 0.15566 0.33459
 C565 C 0.49610 0.17101 0.38154
 C566 C 0.47336 0.17269 0.39701
 C567 C 0.44982 0.15906 0.36454
 C568 C 0.47045 0.12406 0.25803
 C569 C 0.47019 0.10873 0.22273
 C570 C 0.47074 0.09020 0.18428
 C571 C 0.47191 0.07388 0.15426
 H572 H 0.43054 0.13270 0.29356
 H573 H 0.51284 0.15416 0.32392
 H574 H 0.51432 0.18125 0.40649
 H575 H 0.43203 0.15994 0.37643
 C576 C 0.68887 0.56439 0.33343
 C577 C 0.67705 0.54070 0.30216
 C578 C 0.68254 0.52042 0.31665
 C579 C 0.69933 0.52361 0.36304
 C580 C 0.71082 0.54715 0.39516
 C581 C 0.70562 0.56759 0.37980
 C582 C 0.65765 0.53651 0.25846
 C583 C 0.64063 0.53304 0.22385
 C584 C 0.61987 0.52904 0.18577
 C585 C 0.60147 0.52573 0.15548
 H586 H 0.68455 0.58010 0.32294
 H587 H 0.67327 0.50190 0.29314
 H588 H 0.70278 0.50749 0.37495
 H589 H 0.71408 0.58574 0.40455
 C590 C 0.83993 0.31044 0.31241
 C591 C 0.84203 0.33494 0.29893
 C592 C 0.82814 0.34449 0.33177
 C593 C 0.81276 0.32995 0.37873
 C594 C 0.81101 0.30565 0.39313
 C595 C 0.82450 0.29586 0.35939
 C596 C 0.86019 0.35142 0.25486
 C597 C 0.87619 0.36617 0.22018
 C598 C 0.89577 0.38452 0.18237
 C599 C 0.91317 0.40109 0.15269
 H600 H 0.85083 0.30302 0.28770
 H601 H 0.82984 0.36353 0.32210
 H602 H 0.80272 0.33791 0.40471
 H603 H 0.82370 0.27734 0.37051
   
