data_POSCAR
  _audit_creation_date              2014-09-24
  _audit_creation_method            'ToBaCCo'
  _symmetry_space_group_name_H-M    'P1'
  _symmetry_Int_Tables_number       1
  _symmetry_cell_setting            triclinic
  loop_
  _symmetry_equiv_pos_as_xyz
 x,y,z
_cell_length_a 54.1514
_cell_length_b 54.3821
_cell_length_c 18.2597
_cell_angle_alpha 89.921700
_cell_angle_beta 89.976900
_cell_angle_gamma 119.760600
loop_
  _atom_site_label
  _atom_site_type_symbol
  _atom_site_fract_x
  _atom_site_fract_y
  _atom_site_fract_z
C1 C 0.20863 0.46188 0.47673
 C2 C 0.20497 0.45164 0.55041
 C3 C 0.22404 0.44367 0.57899
 C4 C 0.24904 0.44942 0.54204
 C5 C 0.25293 0.45952 0.46900
 C6 C 0.23287 0.46565 0.43768
 H7 H 0.23568 0.47155 0.38059
 H8 H 0.22101 0.43578 0.63488
 C9 C 0.51393 -0.25362 0.45088
 C10 C 0.51928 -0.25400 0.52683
 C11 C 0.52153 -0.23196 0.57133
 C12 C 0.51699 -0.21037 0.54373
 C13 C 0.51179 -0.20985 0.46737
 C14 C 0.50969 -0.23194 0.42290
 H15 H 0.50688 -0.23127 0.36438
 H16 H 0.52452 -0.23288 0.62978
 C17 C 1.27310 0.77329 0.46385
 C18 C 1.26645 0.77482 0.53850
 C19 C 1.24326 0.75135 0.57159
 C20 C 1.22613 0.72641 0.53198
 C21 C 1.23232 0.72517 0.45732
 C22 C 1.25567 0.74832 0.42444
 H23 H 1.26071 0.74601 0.36846
 H24 H 1.23751 0.75327 0.62714
 C25 C 0.76032 0.47641 0.47661
 C26 C 0.75648 0.47026 0.55270
 C27 C 0.73129 0.46558 0.58659
 C28 C 0.71112 0.47007 0.54937
 C29 C 0.71559 0.47749 0.47387
 C30 C 0.73975 0.47990 0.43824
 H31 H 0.74276 0.48489 0.38042
 H32 H 0.72793 0.45910 0.64349
 C33 C 0.52627 0.29684 0.46062
 C34 C 0.52118 0.29506 0.53731
 C35 C 0.51850 0.27121 0.57546
 C36 C 0.52000 0.24902 0.53937
 C37 C 0.52564 0.25165 0.46288
 C38 C 0.52834 0.27521 0.42479
 H39 H 0.53275 0.27708 0.36647
 H40 H 0.51626 0.27041 0.63395
 C41 C 0.73476 0.21307 0.46512
 C42 C 0.73654 0.21650 0.54215
 C43 C 0.76092 0.23915 0.57329
 C44 C 0.78447 0.25821 0.53040
 C45 C 0.78282 0.25372 0.45341
 C46 C 0.75830 0.23141 0.42222
 H47 H 0.75718 0.22940 0.36311
 H48 H 0.76078 0.24167 0.63185
 N49 N 0.97025 0.52980 0.08665
 N50 N 0.94830 0.53359 0.09754
 N51 N 1.03191 0.54434 0.12761
 N52 N 1.05516 0.55896 0.16688
 N53 N 1.02994 0.56033 0.07667
 N54 N 1.05182 0.58632 0.07992
 N55 N 0.97197 0.51399 0.13859
 N56 N 0.95100 0.50647 0.18624
 C57 C 0.93650 0.51897 0.15979
 C58 C 1.06730 0.58511 0.13650
 N59 N 1.03227 0.47433 0.08004
 N60 N 1.05348 0.46918 0.08797
 N61 N 0.97362 0.46203 0.14123
 N62 N 0.95277 0.44979 0.18897
 N63 N 0.97236 0.44373 0.09237
 N64 N 0.95048 0.41827 0.10622
 N65 N 1.03312 0.49180 0.13093
 N66 N 1.05477 0.49863 0.17566
 Mn67 Mn 1.00272 0.50309 0.13545
 C68 C 1.06733 0.48446 0.14768
 C69 C 0.93864 0.42258 0.16696
 N70 N 1.02578 0.55739 -0.07980
 N71 N 1.04785 0.58288 -0.08948
 N72 N 0.96516 0.50864 -0.11932
 N73 N 0.94311 0.50044 -0.16296
 N74 N 0.96620 0.52695 -0.07090
 N75 N 0.94501 0.53209 -0.08117
 N76 N 1.02499 0.53985 -0.13025
 N77 N 1.04660 0.55310 -0.17612
 Mn78 Mn 0.99799 0.54387 0.00318
 C79 C 1.06050 0.57997 -0.14993
 C80 C 0.93069 0.51511 -0.13830
 N81 N 0.96824 0.44067 -0.06573
 N82 N 0.94860 0.41389 -0.07442
 N83 N 1.02613 0.48762 -0.12797
 N84 N 1.04606 0.49493 -0.17797
 N85 N 1.02802 0.47128 -0.07789
 N86 N 1.04939 0.46682 -0.09317
 N87 N 0.96663 0.45643 -0.11801
 N88 N 0.94593 0.44068 -0.16413
 Mn89 Mn 1.00022 0.45717 0.00730
 Mn90 Mn 0.99568 0.49814 -0.12464
 Cl91 Cl 0.99913 0.50050 0.00533
 C92 C 0.93477 0.41423 -0.13571
 C93 C 1.06037 0.48186 -0.15583
 N94 N 0.46713 0.50650 0.12941
 N95 N 0.45415 0.51428 0.17759
 N96 N 0.47426 0.45547 0.08110
 N97 N 0.46896 0.42909 0.08803
 N98 N 0.49197 0.47159 0.13214
 N99 N 0.49926 0.45667 0.17492
 N100 N 0.44915 0.49001 0.07922
 N101 N 0.42332 0.48572 0.09280
 C102 C 0.42691 0.50125 0.15398
 C103 C 0.48461 0.43019 0.14701
 N104 N 0.49361 0.47176 -0.12694
 N105 N 0.50056 0.45667 -0.16992
 N106 N 0.45030 0.49009 -0.08039
 N107 N 0.42439 0.48379 -0.10096
 N108 N 0.46914 0.50677 -0.12901
 N109 N 0.45667 0.51252 -0.18300
 N110 N 0.47537 0.45561 -0.07670
 N111 N 0.46944 0.42908 -0.08412
 Mn112 Mn 0.46192 0.47253 0.00086
 C113 C 0.48525 0.43010 -0.14267
 C114 C 0.42890 0.49839 -0.16449
 N115 N 0.54778 0.52087 0.13386
 N116 N 0.55916 0.50969 0.17720
 N117 N 0.54192 0.57186 0.08177
 N118 N 0.55064 0.59888 0.09384
 N119 N 0.52295 0.55586 0.13082
 N120 N 0.51790 0.57150 0.17697
 N121 N 0.56600 0.53652 0.08303
 N122 N 0.59014 0.53630 0.08998
 Mn123 Mn 0.50742 0.51373 0.13243
 C124 C 0.58562 0.51967 0.14916
 C125 C 0.53525 0.59824 0.15289
 N126 N 0.52497 0.55623 -0.12711
 N127 N 0.52031 0.57204 -0.17386
 N128 N 0.56706 0.53666 -0.07390
 N129 N 0.59106 0.53601 -0.07832
 N130 N 0.54928 0.52088 -0.12514
 N131 N 0.56067 0.50907 -0.16584
 N132 N 0.54279 0.57201 -0.07587
 N133 N 0.55074 0.59896 -0.08625
 Mn134 Mn 0.50924 0.51396 -0.12778
 Mn135 Mn 0.55473 0.55453 0.00374
 Cl136 Cl 0.50824 0.51371 0.00233
 C137 C 0.53653 0.59863 -0.14746
 C138 C 0.58678 0.51885 -0.13620
 N139 N 0.43079 -0.01976 0.09030
 N140 N 0.40535 -0.04193 0.10091
 N141 N 0.48182 0.03943 0.13065
 N142 N 0.49301 0.06216 0.17288
 N143 N 0.46287 0.03967 0.08625
 N144 N 0.46060 0.06243 0.09693
 N145 N 0.44943 -0.02035 0.13525
 N146 N 0.43708 -0.04299 0.17778
 C147 C 0.40955 -0.05605 0.15599
 C148 C 0.47943 0.07620 0.15109
 N149 N 0.54718 0.03407 0.05632
 N150 N 0.57452 0.05279 0.06236
 N151 N 0.50071 -0.02351 0.11730
 N152 N 0.49534 -0.04389 0.16481
 N153 N 0.51427 -0.02552 0.05997
 N154 N 0.51820 -0.04753 0.06656
 N155 N 0.53297 0.03582 0.11254
 N156 N 0.55026 0.05571 0.15834
 Mn157 Mn 0.49126 0.00791 0.12489
 C158 C 0.57606 0.06624 0.12595
 C159 C 0.50631 -0.05873 0.13225
 N160 N 0.45619 0.03885 -0.06979
 N161 N 0.45404 0.06198 -0.07356
 N162 N 0.43816 -0.02180 -0.12265
 N163 N 0.42201 -0.04363 -0.16470
 N164 N 0.42378 -0.02097 -0.06580
 N165 N 0.39741 -0.04246 -0.06725
 N166 N 0.47074 0.03756 -0.12571
 N167 N 0.47880 0.05963 -0.16913
 Mn168 Mn 0.44310 0.00944 0.01043
 C169 C 0.46814 0.07462 -0.13606
 C170 C 0.39665 -0.05626 -0.12965
 N171 N 0.50751 -0.02646 -0.09756
 N172 N 0.51132 -0.04788 -0.11583
 N173 N 0.52151 0.03376 -0.14520
 N174 N 0.53431 0.05154 -0.19973
 N175 N 0.54027 0.03314 -0.10075
 N176 N 0.56640 0.05084 -0.12348
 N177 N 0.48878 -0.02536 -0.14110
 N178 N 0.47922 -0.04594 -0.18962
 Mn179 Mn 0.52759 0.00376 -0.02054
 Mn180 Mn 0.47976 0.00609 -0.13424
 Cl181 Cl 0.48551 0.00683 -0.00482
 C182 C 0.49329 -0.05988 -0.17308
 C183 C 0.56223 0.06236 -0.18480
 C184 C 1.18705 0.46508 0.44122
 C185 C 1.18932 0.47758 0.37248
 C186 C 1.16593 0.48080 0.34159
 N187 N 1.16526 0.48532 0.26869
 N188 N 1.14431 0.48836 0.23997
 C189 C 1.12342 0.48739 0.28325
 N190 N 1.12431 0.48328 0.35632
 N191 N 1.14510 0.47994 0.38493
 C192 C 1.09991 0.49027 0.25195
 C193 C 1.09247 0.48459 0.17841
 H194 H 1.20835 0.48563 0.33966
 H195 H 1.08688 0.49479 0.28841
 H196 H 1.16663 0.45674 0.46791
 H197 H 1.10393 0.47758 0.14347
 C198 C 0.51294 0.72618 0.40097
 C199 C 0.52994 0.71363 0.40708
 C200 C 0.52665 0.69099 0.35762
 N201 N 0.54919 0.68733 0.34319
 N202 N 0.54612 0.66603 0.30105
 C203 C 0.52030 0.64736 0.27285
 N204 N 0.49769 0.65085 0.28789
 N205 N 0.50085 0.67242 0.32913
 C206 C 0.51640 0.62288 0.23012
 C207 C 0.53844 0.62365 0.18923
 H208 H 0.54706 0.72150 0.44665
 H209 H 0.49563 0.60398 0.22982
 H210 H 0.50100 0.72256 0.35061
 H211 H 0.55825 0.64338 0.18267
 C212 C 0.29721 -0.20394 0.43057
 C213 C 0.30083 -0.19909 0.35505
 C214 C 0.32504 -0.17317 0.32528
 N215 N 0.32346 -0.16424 0.25696
 N216 N 0.34454 -0.14001 0.23074
 C217 C 0.36807 -0.12388 0.27173
 N218 N 0.36989 -0.13305 0.33954
 N219 N 0.34871 -0.15719 0.36597
 C220 C 0.39106 -0.09667 0.24418
 C221 C 0.38703 -0.08327 0.18415
 H222 H 0.28422 -0.21242 0.31712
 H223 H 0.41111 -0.08647 0.27338
 H224 H 0.31347 -0.18803 0.46522
 H225 H 0.36654 -0.09280 0.15712
 C226 C 0.78383 0.47583 0.43602
 C227 C 0.79827 0.49383 0.37756
 C228 C 0.82362 0.49486 0.34440
 N229 N 0.83709 0.51269 0.28766
 N230 N 0.86039 0.51431 0.25829
 C231 C 0.87118 0.49821 0.28468
 N232 N 0.85772 0.48037 0.34143
 N233 N 0.83439 0.47872 0.37072
 C234 C 0.89710 0.49997 0.25313
 C235 C 0.91081 0.51702 0.19273
 H236 H 0.79176 0.50852 0.35775
 H237 H 0.90542 0.48741 0.27758
 H238 H 0.79124 0.46190 0.45632
 H239 H 0.90221 0.52918 0.16742
 C240 C 0.52963 0.32118 0.41646
 C241 C 0.51230 0.31744 0.35626
 C242 C 0.51157 0.34144 0.32102
 N243 N 0.49269 0.33672 0.26650
 N244 N 0.49081 0.35815 0.23683
 C245 C 0.50772 0.38509 0.26076
 N246 N 0.52671 0.38981 0.31491
 N247 N 0.52858 0.36841 0.34454
 C248 C 0.50548 0.40898 0.23050
 C249 C 0.48643 0.40579 0.17506
 H250 H 0.49735 0.29619 0.33807
 H251 H 0.51926 0.42982 0.25315
 H252 H 0.54426 0.34240 0.43538
 H253 H 0.47288 0.38519 0.15101
 C254 C 0.70772 0.19270 0.42856
 C255 C 0.70680 0.17909 0.36296
 C256 C 0.67987 0.15900 0.32711
 N257 N 0.68035 0.14697 0.26245
 N258 N 0.65621 0.12864 0.22937
 C259 C 0.63064 0.12164 0.25977
 N260 N 0.63015 0.13367 0.32445
 N261 N 0.65430 0.15203 0.35748
 C262 C 0.60375 0.10098 0.22477
 C263 C 0.60292 0.08831 0.15777
 H264 H 0.72640 0.18279 0.33740
 H265 H 0.58406 0.09524 0.25326
 H266 H 0.68790 0.18793 0.45486
 H267 H 0.62247 0.09415 0.12851
 C268 C 0.51546 0.22433 -0.42265
 C269 C 0.50588 0.21705 -0.35025
 C270 C 0.50124 0.19024 -0.31770
 N271 N 0.48817 0.18149 -0.25167
 N272 N 0.48354 0.15704 -0.22261
 C273 C 0.49189 0.14052 -0.25855
 N274 N 0.50511 0.14938 -0.32419
 N275 N 0.50967 0.17373 -0.35323
 C276 C 0.48703 0.11343 -0.22831
 C277 C 0.47217 0.10179 -0.16351
 H278 H 0.50020 0.22992 -0.31715
 H279 H 0.49535 0.10208 -0.25899
 H280 H 0.51821 0.20869 -0.45216
 H281 H 0.46344 0.11266 -0.13247
 C282 C 0.68703 0.46747 -0.41341
 C283 C 0.68601 0.47144 -0.33795
 C284 C 0.66307 0.47490 -0.30533
 N285 N 0.66697 0.48744 -0.23890
 N286 N 0.64744 0.49290 -0.21126
 C287 C 0.62323 0.48593 -0.24899
 N288 N 0.61907 0.47288 -0.31475
 N289 N 0.63867 0.46757 -0.34256
 C290 C 0.60211 0.49304 -0.22107
 C291 C 0.60759 0.51090 -0.16129
 H292 H 0.70410 0.47645 -0.30339
 H293 H 0.58218 0.48497 -0.25037
 H294 H 0.66904 0.46489 -0.44512
 H295 H 0.62769 0.51956 -0.13261
 C296 C 0.80877 0.28137 -0.43740
 C297 C 0.81366 0.28601 -0.36192
 C298 C 0.83727 0.31231 -0.33151
 N299 N 0.84310 0.31379 -0.25887
 N300 N 0.86365 0.33760 -0.22951
 C301 C 0.87904 0.36097 -0.27155
 N302 N 0.87314 0.35956 -0.34422
 N303 N 0.85266 0.33567 -0.37370
 C304 C 0.90171 0.38748 -0.23934
 C305 C 0.91130 0.38844 -0.16797
 H306 H 0.80047 0.27012 -0.32239
 H307 H 0.91167 0.40635 -0.27316
 H308 H 0.82515 0.29684 -0.47264
 H309 H 0.90231 0.36926 -0.13540
 C310 C 0.51724 -0.19091 -0.40476
 C311 C 0.50116 -0.17737 -0.41097
 C312 C 0.50243 -0.15695 -0.35630
 N313 N 0.48486 -0.14602 -0.36295
 N314 N 0.48610 -0.12697 -0.31521
 C315 C 0.50498 -0.11809 -0.25895
 N316 N 0.52254 -0.12907 -0.25212
 N317 N 0.52129 -0.14818 -0.29992
 C318 C 0.50710 -0.09620 -0.20777
 C319 C 0.48998 -0.08399 -0.21638
 H320 H 0.48600 -0.18274 -0.45506
 H321 H 0.52302 -0.08881 -0.16497
 H322 H 0.52794 -0.18874 -0.35298
 H323 H 0.47424 -0.09135 -0.25960
 C324 C 0.26966 0.44674 -0.41681
 C325 C 0.29901 0.46384 -0.42663
 C326 C 0.31955 0.46583 -0.37082
 N327 N 0.34726 0.48607 -0.37732
 N328 N 0.36593 0.48936 -0.32548
 C329 C 0.35761 0.47259 -0.26493
 N330 N 0.32992 0.45217 -0.25859
 N331 N 0.31121 0.44891 -0.31047
 C332 C 0.37825 0.47607 -0.20764
 C333 C 0.40676 0.49679 -0.21366
 H334 H 0.30738 0.47926 -0.47033
 H335 H 0.37121 0.46144 -0.16188
 H336 H 0.26273 0.43438 -0.36673
 H337 H 0.41377 0.51106 -0.26016
 C338 C 1.20036 0.70254 -0.43414
 C339 C 1.19717 0.69648 -0.35937
 C340 C 1.17151 0.67168 -0.33040
 N341 N 1.16565 0.66964 -0.25772
 N342 N 1.14227 0.64746 -0.23118
 C343 C 1.12402 0.62635 -0.27622
 N344 N 1.13009 0.62818 -0.34873
 N345 N 1.15335 0.65047 -0.37536
 C346 C 1.09783 0.60207 -0.24765
 C347 C 1.08702 0.60324 -0.17950
 H348 H 1.21361 0.70990 -0.32111
 H349 H 1.08616 0.58365 -0.28214
 H350 H 1.18308 0.68866 -0.46986
 H351 H 1.09783 0.62239 -0.14714
 C352 C 0.77718 0.46957 -0.40226
 C353 C 0.80621 0.48859 -0.41004
 C354 C 0.82683 0.48905 -0.35746
 N355 N 0.85052 0.51385 -0.34098
 N356 N 0.86944 0.51446 -0.29335
 C357 C 0.86542 0.49022 -0.26120
 N358 N 0.84190 0.46538 -0.27836
 N359 N 0.82277 0.46483 -0.32514
 C360 C 0.88711 0.49031 -0.21326
 C361 C 0.90590 0.51407 -0.17335
 H362 H 0.81364 0.50555 -0.44993
 H363 H 0.88865 0.47122 -0.21022
 H364 H 0.77037 0.45743 -0.35178
 H365 H 0.90279 0.53222 -0.16936
 C366 C 0.51864 0.31672 -0.42627
 C367 C 0.50942 0.31569 -0.35401
 C368 C 0.50785 0.33974 -0.32197
 N369 N 0.49409 0.33661 -0.25751
 N370 N 0.49231 0.35819 -0.22867
 C371 C 0.50435 0.38371 -0.26316
 N372 N 0.51831 0.38689 -0.32719
 N373 N 0.51999 0.36532 -0.35611
 C374 C 0.50264 0.40781 -0.23276
 C375 C 0.48633 0.40545 -0.17141
 H376 H 0.50174 0.29688 -0.32071
 H377 H 0.51436 0.42804 -0.26047
 H378 H 0.52302 0.33549 -0.45666
 H379 H 0.47409 0.38526 -0.14396
 C380 C 0.71363 0.19751 -0.40660
 C381 C 0.69750 0.16825 -0.41562
 C382 C 0.67572 0.15018 -0.36217
 N383 N 0.65312 0.12541 -0.38412
 N384 N 0.63302 0.10895 -0.33645
 C385 C 0.63501 0.11647 -0.26487
 N386 N 0.65788 0.14100 -0.24260
 N387 N 0.67778 0.15768 -0.29052
 C388 C 0.61284 0.09837 -0.21226
 C389 C 0.58480 0.08161 -0.23469
 H390 H 0.70032 0.15822 -0.46352
 H391 H 0.61831 0.09921 -0.15490
 H392 H 0.71098 0.20670 -0.35663
 H393 H 0.57895 0.08314 -0.29055
 C394 C 1.18417 0.45014 -0.40022
 C395 C 1.17504 0.47004 -0.39747
 C396 C 1.15485 0.46895 -0.34187
 N397 N 1.14740 0.48933 -0.34133
 N398 N 1.12883 0.48857 -0.29238
 C399 C 1.11700 0.46745 -0.24186
 N400 N 1.12459 0.44712 -0.24200
 N401 N 1.14318 0.44786 -0.29114
 C402 C 1.09541 0.46596 -0.19000
 C403 C 1.08461 0.48430 -0.19747
 H404 H 1.18400 0.48798 -0.43450
 H405 H 1.08668 0.44931 -0.14911
 H406 H 1.17831 0.43559 -0.35435
 H407 H 1.09274 0.50012 -0.24049
 C408 C 0.51761 0.72059 -0.43777
 C409 C 0.53365 0.72191 -0.37661
 C410 C 0.53114 0.69621 -0.34245
 N411 N 0.54672 0.69838 -0.28213
 N412 N 0.54455 0.67528 -0.25050
 C413 C 0.52672 0.64914 -0.27807
 N414 N 0.51118 0.64698 -0.33844
 N415 N 0.51333 0.67006 -0.37002
 C416 C 0.52406 0.62339 -0.24393
 C417 C 0.53900 0.62434 -0.18093
 H418 H 0.54872 0.74225 -0.35357
 H419 H 0.50993 0.60315 -0.26910
 H420 H 0.50337 0.70010 -0.46149
 H421 H 0.55302 0.64448 -0.15520
 C422 C 0.28166 -0.19800 -0.42091
 C423 C 0.28793 -0.19579 -0.34631
 C424 C 0.30813 -0.16811 -0.31433
 N425 N 0.31097 -0.16454 -0.24059
 N426 N 0.33032 -0.13977 -0.21220
 C427 C 0.34764 -0.11783 -0.25667
 N428 N 0.34483 -0.12147 -0.33016
 N429 N 0.32539 -0.14607 -0.35842
 C430 C 0.37049 -0.09099 -0.22765
 C431 C 0.37173 -0.08237 -0.15538
 H432 H 0.27957 -0.21452 -0.31214
 H433 H 0.38707 -0.07724 -0.26551
 H434 H 0.28949 -0.17860 -0.45211
 H435 H 0.35437 -0.09463 -0.11791
 C436 C 0.51272 -0.18468 0.43183
 C437 C 0.49879 -0.18588 0.36639
 C438 C 0.50008 -0.16055 0.33343
 N439 N 0.49413 -0.16045 0.26127
 N440 N 0.49495 -0.13778 0.23075
 C441 C 0.50142 -0.11448 0.27154
 N442 N 0.50705 -0.11470 0.34389
 N443 N 0.50655 -0.13725 0.37423
 C444 C 0.50188 -0.08950 0.23893
 C445 C 0.50560 -0.08391 0.16403
 H446 H 0.48658 -0.20576 0.33785
 H447 H 0.50057 -0.07444 0.27521
 H448 H 0.52517 -0.16425 0.45783
 H449 H 0.50944 -0.09754 0.12829
 C450 C 0.27476 0.45918 0.42055
 C451 C 0.29162 0.48162 0.37371
 C452 C 0.31347 0.48124 0.32643
 N453 N 0.33596 0.50595 0.30313
 N454 N 0.35596 0.50588 0.26066
 C455 C 0.35399 0.48107 0.23901
 N456 N 0.33128 0.45636 0.26142
 N457 N 0.31147 0.45644 0.30466
 C458 C 0.37608 0.48066 0.19276
 C459 C 0.40407 0.50291 0.19318
 H460 H 0.28980 0.50057 0.37481
 H461 H 0.37085 0.46149 0.16287
 H462 H 0.27878 0.44162 0.42538
 H463 H 0.40996 0.52081 0.22912
 C464 C 1.21458 0.69957 0.41309
 C465 C 1.20421 0.70137 0.34466
 C466 C 1.18099 0.67640 0.30886
 N467 N 1.16833 0.67968 0.24845
 N468 N 1.14588 0.65752 0.21864
 C469 C 1.13527 0.63125 0.24822
 N470 N 1.14816 0.62791 0.30803
 N471 N 1.17057 0.65007 0.33790
 C472 C 1.10963 0.60681 0.21861
 C473 C 1.09405 0.60938 0.16142
 H474 H 1.21116 0.72197 0.32034
 H475 H 1.10222 0.58639 0.24450
 H476 H 1.20670 0.67902 0.43856
 H477 H 1.10128 0.62966 0.13498
 C478 C 0.52896 0.23007 0.42133
 C479 C 0.51313 0.21759 0.35848
 C480 C 0.51208 0.19256 0.32458
 N481 N 0.49431 0.17970 0.26747
 N482 N 0.49190 0.15613 0.23861
 C483 C 0.50713 0.14449 0.26581
 N484 N 0.52511 0.15749 0.32257
 N485 N 0.52751 0.18107 0.35151
 C486 C 0.50380 0.11788 0.23584
 C487 C 0.48421 0.10327 0.18069
 H488 H 0.49938 0.22502 0.33677
 H489 H 0.51647 0.10936 0.25856
 H490 H 0.54232 0.22232 0.44377
 H491 H 0.47152 0.11180 0.15816
 C492 C 0.69660 0.48549 0.43451
 C493 C 0.68908 0.47972 0.36099
 C494 C 0.66690 0.48483 0.33012
 N495 N 0.66530 0.48796 0.25684
 N496 N 0.64529 0.49279 0.22925
 C497 C 0.62597 0.49428 0.27389
 N498 N 0.62730 0.49066 0.34691
 N499 N 0.64745 0.48614 0.37452
 C500 C 0.60398 0.49994 0.24475
 C501 C 0.60679 0.51260 0.17677
 H502 H 0.69884 0.47081 0.32629
 H503 H 0.58607 0.49569 0.27953
 H504 H 0.68737 0.49588 0.46558
 H505 H 0.62561 0.51863 0.14394
 C506 C 0.80602 0.27174 0.40243
 C507 C 0.81303 0.29964 0.38919
 C508 C 0.83520 0.31787 0.33668
 N509 N 0.84264 0.34553 0.33122
 N510 N 0.86327 0.36269 0.28579
 C511 C 0.87722 0.35287 0.24378
 N512 N 0.86953 0.32506 0.24846
 N513 N 0.84890 0.30786 0.29419
 C514 C 0.90114 0.37234 0.19669
 C515 C 0.91301 0.40145 0.20496
 H516 H 0.80224 0.30862 0.41974
 H517 H 0.91060 0.36391 0.15926
 H518 H 0.81533 0.26191 0.36936
 H519 H 0.90426 0.40955 0.24546
   
