data_POSCAR
  _audit_creation_date              2014-09-24
  _audit_creation_method            'ToBaCCo'
  _symmetry_space_group_name_H-M    'P1'
  _symmetry_Int_Tables_number       1
  _symmetry_cell_setting            triclinic
  loop_
  _symmetry_equiv_pos_as_xyz
 x,y,z
_cell_length_a 39.6438
_cell_length_b 39.5433
_cell_length_c 39.6252
_cell_angle_alpha 89.961600
_cell_angle_beta 89.958800
_cell_angle_gamma 90.053700
loop_
  _atom_site_label
  _atom_site_type_symbol
  _atom_site_fract_x
  _atom_site_fract_y
  _atom_site_fract_z
N1 N 0.62493 0.62533 0.62548
 N2 N 0.87496 0.37494 0.12546
 N3 N 0.37541 0.12470 -0.12500
 N4 N 0.12465 0.87532 0.37482
 N5 N 0.08498 0.17971 0.11128
 N6 N 0.07151 0.16559 0.13819
 C7 C 0.04413 0.18348 0.14754
 C8 C 0.04050 0.21000 0.12525
 C9 C 0.06668 0.20702 0.10258
 H10 H 0.02804 0.17776 0.16885
 H11 H 0.07191 0.22337 0.08133
 Cu12 Cu 0.09139 0.12534 0.15813
 Cu13 Cu 0.12505 0.16156 0.08933
 Cu14 Cu 0.16024 0.08934 0.12461
 N15 N 0.11129 0.08509 0.17808
 N16 N 0.13827 0.07109 0.16470
 C17 C 0.14706 0.04390 0.18316
 C18 C 0.12438 0.04086 0.20935
 C19 C 0.10201 0.06725 0.20557
 H20 H 0.16833 0.02760 0.17796
 H21 H 0.08073 0.07296 0.22168
 N22 N 0.17875 0.11167 0.08412
 N23 N 0.16549 0.13929 0.07083
 C24 C 0.18381 0.14842 0.04364
 C25 C 0.20962 0.12547 0.03983
 C26 C 0.20584 0.10252 0.06571
 H27 H 0.17880 0.17005 0.02772
 H28 H 0.22169 0.08086 0.07069
 H29 H 0.11795 0.11209 0.10428
 H30 H 0.14528 0.13888 0.13175
 N31 N 0.41483 0.82086 0.61110
 N32 N 0.42817 0.83483 0.63810
 C33 C 0.45556 0.81691 0.64742
 C34 C 0.45932 0.79053 0.62502
 C35 C 0.43321 0.79363 0.60230
 H36 H 0.47154 0.82253 0.66879
 H37 H 0.42802 0.77732 0.58103
 Cu38 Cu 0.40831 0.87499 0.65834
 Cu39 Cu 0.37472 0.83903 0.58928
 Cu40 Cu 0.33901 0.91067 0.62501
 N41 N 0.38808 0.91515 0.67821
 N42 N 0.36093 0.92894 0.66503
 C43 C 0.35211 0.95616 0.68342
 C44 C 0.37497 0.95943 0.70939
 C45 C 0.39748 0.93317 0.70552
 H46 H 0.33071 0.97232 0.67836
 H47 H 0.41897 0.92770 0.72138
 N48 N 0.32056 0.88846 0.58449
 N49 N 0.33414 0.86116 0.57090
 C50 C 0.31593 0.85217 0.54362
 C51 C 0.28985 0.87487 0.54008
 C52 C 0.29337 0.89753 0.56621
 H53 H 0.32119 0.83079 0.52746
 H54 H 0.27729 0.91898 0.57142
 H55 H 0.38156 0.88852 0.60457
 H56 H 0.35446 0.86127 0.63189
 N57 N 0.91487 0.67921 0.38865
 N58 N 0.92832 0.66516 0.36176
 C59 C 0.95573 0.68310 0.35243
 C60 C 0.95938 0.70958 0.37472
 C61 C 0.93319 0.70652 0.39738
 H62 H 0.97184 0.67739 0.33116
 H63 H 0.92794 0.72286 0.41861
 Cu64 Cu 0.90867 0.62481 0.34170
 Cu65 Cu 0.87481 0.66093 0.41059
 Cu66 Cu 0.83974 0.58863 0.37550
 N67 N 0.88861 0.58446 0.32206
 N68 N 0.86170 0.57038 0.33550
 C69 C 0.85297 0.54308 0.31718
 C70 C 0.87564 0.54008 0.29099
 C71 C 0.89793 0.56657 0.29464
 H72 H 0.83171 0.52674 0.32239
 H73 H 0.91919 0.57232 0.27851
 N74 N 0.82114 0.61092 0.41588
 N75 N 0.83437 0.63858 0.42912
 C76 C 0.81595 0.64773 0.45621
 C77 C 0.79013 0.62473 0.46002
 C78 C 0.79398 0.60175 0.43422
 H79 H 0.82089 0.66942 0.47205
 H80 H 0.77812 0.58008 0.42924
 H81 H 0.88210 0.61143 0.39565
 H82 H 0.85470 0.63813 0.36816
 N83 N 0.58548 0.32045 -0.11133
 N84 N 0.57210 0.33452 -0.13828
 C85 C 0.54453 0.31679 -0.14744
 C86 C 0.54072 0.29037 -0.12505
 C87 C 0.56696 0.29329 -0.10247
 H88 H 0.52840 0.32259 -0.16866
 H89 H 0.57213 0.27695 -0.08120
 Cu90 Cu 0.59211 0.37477 -0.15825
 Cu91 Cu 0.62563 0.33856 -0.08947
 Cu92 Cu 0.66091 0.41089 -0.12471
 N93 N 0.61207 0.41505 -0.17821
 N94 N 0.63897 0.42916 -0.16475
 C95 C 0.64766 0.45650 -0.18307
 C96 C 0.62500 0.45955 -0.20924
 C97 C 0.60273 0.43301 -0.20557
 H98 H 0.66890 0.47286 -0.17785
 H99 H 0.58142 0.42732 -0.22163
 N100 N 0.67942 0.38848 -0.08432
 N101 N 0.66616 0.36080 -0.07107
 C102 C 0.68458 0.35157 -0.04402
 C103 C 0.71042 0.37453 -0.04026
 C104 C 0.70659 0.39756 -0.06602
 H105 H 0.67960 0.32988 -0.02816
 H106 H 0.72248 0.41923 -0.07100
 H107 H 0.61852 0.38812 -0.10434
 H108 H 0.64594 0.36141 -0.13174
 C109 C -0.10026 0.35025 0.12539
 C110 C -0.07875 0.32873 0.12539
 C111 C -0.05361 0.30352 0.12546
 C112 C -0.03211 0.28201 0.12552
 C113 C -0.00689 0.25687 0.12553
 C114 C 0.01470 0.23545 0.12546
 C115 C 0.60011 0.65002 0.62541
 C116 C 0.57857 0.67154 0.62541
 C117 C 0.55340 0.69679 0.62544
 C118 C 0.53189 0.71832 0.62546
 C119 C 0.50668 0.74353 0.62541
 C120 C 0.48510 0.76500 0.62527
 C121 C 1.10013 0.85029 0.37462
 C122 C 1.07874 0.82859 0.37448
 C123 C 1.05362 0.80327 0.37437
 C124 C 1.03210 0.78171 0.37433
 C125 C 1.00684 0.75653 0.37436
 C126 C 0.98521 0.73508 0.37448
 C127 C 0.39987 0.14977 -0.12529
 C128 C 0.42123 0.17150 -0.12541
 C129 C 0.44635 0.19682 -0.12543
 C130 C 0.46787 0.21838 -0.12538
 C131 C 0.49314 0.24354 -0.12531
 C132 C 0.51480 0.26496 -0.12522
 C133 C 0.12456 -0.09982 0.35014
 C134 C 0.12443 -0.07818 0.32869
 C135 C 0.12427 -0.05286 0.30356
 C136 C 0.12418 -0.03127 0.28207
 C137 C 0.12414 -0.00605 0.25684
 C138 C 0.12418 0.01540 0.23522
 C139 C 0.62470 0.60028 -0.35002
 C140 C 0.62459 0.57857 -0.32863
 C141 C 0.62457 0.55325 -0.30350
 C142 C 0.62459 0.53170 -0.28197
 C143 C 0.62465 0.50652 -0.25669
 C144 C 0.62476 0.48507 -0.23506
 C145 C 0.37527 1.10005 0.85013
 C146 C 0.37525 1.07853 0.82857
 C147 C 0.37530 1.05328 0.80339
 C148 C 0.37534 1.03171 0.78191
 C149 C 0.37533 1.00648 0.75671
 C150 C 0.37523 0.98499 0.73515
 C151 C 0.87524 0.39994 0.14995
 C152 C 0.87547 0.42158 0.17136
 C153 C 0.87568 0.44678 0.19655
 C154 C 0.87579 0.46824 0.21813
 C155 C 0.87585 0.49330 0.24345
 C156 C 0.87581 0.51467 0.26512
 C157 C 0.35036 0.12502 -0.10057
 C158 C 0.32869 0.12522 -0.07919
 C159 C 0.30344 0.12538 -0.05406
 C160 C 0.28192 0.12545 -0.03255
 C161 C 0.25674 0.12548 -0.00735
 C162 C 0.23523 0.12548 0.01417
 C163 C 0.64946 0.62512 0.60051
 C164 C 0.67088 0.62498 0.57890
 C165 C 0.69607 0.62487 0.55368
 C166 C 0.71762 0.62481 0.53221
 C167 C 0.74288 0.62476 0.50707
 C168 C 0.76444 0.62473 0.48560
 C169 C 0.85040 0.37508 0.10058
 C170 C 0.82901 0.37509 0.07898
 C171 C 0.80394 0.37496 0.05372
 C172 C 0.78252 0.37481 0.03216
 C173 C 0.75743 0.37465 0.00692
 C174 C 0.73599 0.37457 -0.01462
 C175 C 0.14948 0.87525 0.39945
 C176 C 0.17104 0.87521 0.42090
 C177 C 0.19624 0.87517 0.44607
 C178 C 0.21773 0.87513 0.46759
 C179 C 0.24287 0.87505 0.49281
 C180 C 0.26431 0.87497 0.51437
   
