data_POSCAR
  _audit_creation_date              2014-09-24
  _audit_creation_method            'ToBaCCo'
  _symmetry_space_group_name_H-M    'P1'
  _symmetry_Int_Tables_number       1
  _symmetry_cell_setting            triclinic
  loop_
  _symmetry_equiv_pos_as_xyz
 x,y,z
_cell_length_a 70.3405
_cell_length_b 69.7778
_cell_length_c 70.2892
_cell_angle_alpha 89.917400
_cell_angle_beta 89.843400
_cell_angle_gamma 90.034700
loop_
  _atom_site_label
  _atom_site_type_symbol
  _atom_site_fract_x
  _atom_site_fract_y
  _atom_site_fract_z
N1 N 0.60224 0.65540 0.61769
 N2 N 0.59446 0.64721 0.63264
 C3 C 0.57908 0.65738 0.63796
 C4 C 0.57705 0.67280 0.62565
 C5 C 0.59207 0.67102 0.61297
 H6 H 0.56996 0.65373 0.64981
 H7 H 0.59548 0.68041 0.60121
 Cu8 Cu 0.60516 0.62403 0.64371
 Cu9 Cu 0.62489 0.64521 0.60539
 Cu10 Cu 0.64482 0.60445 0.62525
 N11 N 0.61690 0.60147 0.65499
 N12 N 0.63236 0.59390 0.64771
 C13 C 0.63747 0.57860 0.65817
 C14 C 0.62449 0.57633 0.67296
 C15 C 0.61162 0.59124 0.67038
 H16 H 0.64977 0.56987 0.65513
 H17 H 0.59934 0.59450 0.67902
 N18 N 0.65535 0.61721 0.60252
 N19 N 0.64780 0.63275 0.59499
 C20 C 0.65815 0.63797 0.57970
 C21 C 0.67299 0.62511 0.57743
 C22 C 0.67071 0.61215 0.59222
 H23 H 0.65508 0.65028 0.57090
 H24 H 0.67951 0.59985 0.59525
 H25 H 0.62095 0.61703 0.61356
 H26 H 0.63575 0.63230 0.62953
 N27 N 0.89804 0.34421 0.11678
 N28 N 0.90581 0.35236 0.13168
 C29 C 0.92119 0.34218 0.13693
 C30 C 0.92326 0.32672 0.12463
 C31 C 0.90818 0.32859 0.11202
 H32 H 0.93013 0.34583 0.14884
 H33 H 0.90471 0.31936 0.10020
 Cu34 Cu 0.89506 0.37549 0.14282
 Cu35 Cu 0.87536 0.35442 0.10462
 Cu36 Cu 0.85531 0.39504 0.12463
 N37 N 0.88328 0.39798 0.15418
 N38 N 0.86777 0.40553 0.14702
 C39 C 0.86266 0.42079 0.15753
 C40 C 0.87566 0.42300 0.17215
 C41 C 0.88856 0.40820 0.16953
 H42 H 0.85030 0.42952 0.15473
 H43 H 0.90091 0.40511 0.17809
 N44 N 0.84481 0.38233 0.10196
 N45 N 0.85243 0.36686 0.09435
 C46 C 0.84209 0.36167 0.07911
 C47 C 0.82719 0.37448 0.07694
 C48 C 0.82943 0.38738 0.09176
 H49 H 0.84524 0.34945 0.07024
 H50 H 0.82056 0.39961 0.09489
 H51 H 0.87921 0.38259 0.11280
 H52 H 0.86446 0.36720 0.12885
 N53 N 0.39521 0.15678 -0.12027
 N54 N 0.40530 0.14694 -0.13260
 C55 C 0.42147 0.15652 -0.13645
 C56 C 0.42155 0.17336 -0.12597
 C57 C 0.40455 0.17301 -0.11590
 H58 H 0.43236 0.15153 -0.14611
 H59 H 0.39922 0.18375 -0.10621
 Cu60 Cu 0.39603 0.12282 -0.14279
 Cu61 Cu 0.37047 0.14800 -0.11128
 Cu62 Cu 0.36095 0.09998 -0.11992
 N63 N 0.38391 0.10033 -0.15367
 N64 N 0.37028 0.09127 -0.14455
 C65 C 0.36495 0.07588 -0.15474
 C66 C 0.37575 0.07528 -0.17127
 C67 C 0.38765 0.09110 -0.17005
 H68 H 0.35412 0.06583 -0.15025
 H69 H 0.39827 0.09561 -0.18026
 N70 N 0.34724 0.11514 -0.10070
 N71 N 0.35044 0.13353 -0.09784
 C72 C 0.33859 0.13987 -0.08417
 C73 C 0.32728 0.12474 -0.07813
 C74 C 0.33321 0.10928 -0.08901
 H75 H 0.33832 0.15444 -0.07899
 H76 H 0.32781 0.09479 -0.08849
 H77 H 0.38083 0.12090 -0.11152
 H78 H 0.36363 0.12652 -0.13091
 N79 N 0.10219 0.84442 0.38327
 N80 N 0.09450 0.85253 0.36829
 C81 C 0.07921 0.84227 0.36294
 C82 C 0.07711 0.82680 0.37526
 C83 C 0.09207 0.82874 0.38799
 H84 H 0.07035 0.84588 0.35094
 H85 H 0.09548 0.81953 0.39986
 Cu86 Cu 0.10524 0.87572 0.35718
 Cu87 Cu 0.12473 0.85475 0.39559
 Cu88 Cu 0.14474 0.89550 0.37562
 N89 N 0.11697 0.89831 0.34587
 N90 N 0.13239 0.90595 0.35314
 C91 C 0.13751 0.92125 0.34263
 C92 C 0.12461 0.92339 0.32789
 C93 C 0.11177 0.90850 0.33046
 H94 H 0.14979 0.93006 0.34553
 H95 H 0.09951 0.90531 0.32179
 N96 N 0.15515 0.88283 0.39839
 N97 N 0.14753 0.86732 0.40600
 C98 C 0.15778 0.86218 0.42133
 C99 C 0.17261 0.87506 0.42355
 C100 C 0.17044 0.88795 0.40870
 H101 H 0.15470 0.84987 0.43016
 H102 H 0.17925 0.90027 0.40567
 H103 H 0.12082 0.88290 0.38731
 H104 H 0.13576 0.86761 0.37142
 N105 N 0.10268 0.15591 0.11678
 N106 N 0.09523 0.14804 0.13206
 C107 C 0.07986 0.15821 0.13740
 C108 C 0.07750 0.17332 0.12477
 C109 C 0.09232 0.17134 0.11187
 H110 H 0.07111 0.15489 0.14962
 H111 H 0.09534 0.18034 0.09972
 Cu112 Cu 0.10641 0.12526 0.14346
 Cu113 Cu 0.12523 0.14560 0.10433
 Cu114 Cu 0.14537 0.10500 0.12439
 N115 N 0.11785 0.10249 0.15458
 N116 N 0.13309 0.09466 0.14705
 C117 C 0.13806 0.07924 0.15741
 C118 C 0.12526 0.07721 0.17232
 C119 C 0.11262 0.09228 0.17001
 H120 H 0.15007 0.07014 0.15420
 H121 H 0.10058 0.09567 0.17896
 N122 N 0.15570 0.11759 0.10146
 N123 N 0.14805 0.13304 0.09384
 C124 C 0.15830 0.13817 0.07844
 C125 C 0.17318 0.12534 0.07619
 C126 C 0.17102 0.11249 0.09110
 H127 H 0.15514 0.15039 0.06956
 H128 H 0.17990 0.10028 0.09422
 H129 H 0.12132 0.11759 0.11306
 H130 H 0.13668 0.13302 0.12832
 N131 N 0.39682 0.84407 0.61752
 N132 N 0.40456 0.85232 0.63239
 C133 C 0.41992 0.84216 0.63774
 C134 C 0.42197 0.82667 0.62555
 C135 C 0.40697 0.82842 0.61290
 H136 H 0.42894 0.84584 0.64960
 H137 H 0.40368 0.81913 0.60107
 Cu138 Cu 0.39358 0.87533 0.64346
 Cu139 Cu 0.37450 0.85452 0.60485
 Cu140 Cu 0.35836 0.89856 0.62104
 N141 N 0.38221 0.89836 0.65412
 N142 N 0.36836 0.90731 0.64531
 C143 C 0.36322 0.92277 0.65552
 C144 C 0.37443 0.92360 0.67169
 C145 C 0.38632 0.90781 0.67028
 H146 H 0.35224 0.93273 0.65130
 H147 H 0.39711 0.90345 0.68030
 N148 N 0.34644 0.88467 0.59980
 N149 N 0.35234 0.86775 0.59387
 C150 C 0.34116 0.86195 0.57947
 C151 C 0.32749 0.87584 0.57616
 C152 C 0.33130 0.89002 0.58940
 H153 H 0.34283 0.84853 0.57200
 H154 H 0.32369 0.90332 0.59131
 H155 H 0.38134 0.88204 0.61165
 H156 H 0.36345 0.87022 0.62750
 N157 N 0.89783 0.65556 0.38270
 N158 N 0.90534 0.64767 0.36749
 C159 C 0.92077 0.65783 0.36220
 C160 C 0.92308 0.67296 0.37478
 C161 C 0.90818 0.67099 0.38760
 H162 H 0.92964 0.65442 0.35011
 H163 H 0.90502 0.68006 0.39964
 Cu164 Cu 0.89421 0.62485 0.35615
 Cu165 Cu 0.87520 0.64527 0.39507
 Cu166 Cu 0.85513 0.60461 0.37513
 N167 N 0.88279 0.60204 0.34508
 N168 N 0.86753 0.59421 0.35259
 C169 C 0.86260 0.57877 0.34229
 C170 C 0.87545 0.57672 0.32743
 C171 C 0.88808 0.59182 0.32972
 H172 H 0.85050 0.56975 0.34544
 H173 H 0.90022 0.59517 0.32088
 N174 N 0.84468 0.61726 0.39793
 N175 N 0.85231 0.63274 0.40551
 C176 C 0.84199 0.63790 0.42083
 C177 C 0.82710 0.62506 0.42308
 C178 C 0.82932 0.61218 0.40824
 H179 H 0.84512 0.65015 0.42965
 H180 H 0.82045 0.59994 0.40516
 H181 H 0.87912 0.61722 0.38649
 H182 H 0.86385 0.63261 0.37107
 N183 N 0.60208 0.34458 -0.11628
 N184 N 0.59459 0.35251 -0.13147
 C185 C 0.57908 0.34245 -0.13660
 C186 C 0.57668 0.32736 -0.12395
 C187 C 0.59162 0.32923 -0.11124
 H188 H 0.57022 0.34591 -0.14864
 H189 H 0.59475 0.32014 -0.09921
 Cu190 Cu 0.60588 0.37519 -0.14303
 Cu191 Cu 0.62482 0.35472 -0.10415
 Cu192 Cu 0.64518 0.39514 -0.12452
 N193 N 0.61743 0.39787 -0.15433
 N194 N 0.63280 0.40558 -0.14702
 C195 C 0.63781 0.42096 -0.15746
 C196 C 0.62489 0.42310 -0.17218
 C197 C 0.61214 0.40811 -0.16968
 H198 H 0.65001 0.42987 -0.15449
 H199 H 0.59990 0.40488 -0.17835
 N200 N 0.65559 0.38247 -0.10173
 N201 N 0.64784 0.36710 -0.09398
 C202 C 0.65814 0.36193 -0.07869
 C203 C 0.67314 0.37465 -0.07664
 C204 C 0.67100 0.38748 -0.09156
 H205 H 0.65489 0.34978 -0.06972
 H206 H 0.67998 0.39961 -0.09481
 H207 H 0.62112 0.38277 -0.11285
 H208 H 0.63620 0.36720 -0.12830
 C209 C -0.04833 0.28345 0.11144
 C210 C -0.03409 0.28383 0.12525
 C211 C -0.03398 0.29838 0.13889
 C212 C -0.04804 0.31253 0.13873
 C213 C -0.06254 0.31241 0.12486
 C214 C -0.06242 0.29757 0.11121
 C215 C -0.01954 0.26933 0.12538
 C216 C -0.00734 0.25720 0.12545
 C217 C 0.00696 0.24303 0.12546
 C218 C 0.01920 0.23094 0.12543
 C219 C 0.03383 0.21653 0.12532
 C220 C 0.03283 0.20101 0.13790
 C221 C 0.04701 0.18697 0.13775
 C222 C 0.06243 0.18825 0.12499
 C223 C 0.06328 0.20397 0.11242
 C224 C 0.04908 0.21798 0.11260
 H225 H -0.04854 0.27223 0.10079
 H226 H -0.02300 0.29881 0.14966
 H227 H -0.04736 0.32350 0.14955
 H228 H -0.07312 0.29668 0.10025
 H229 H 0.02106 0.19973 0.14780
 H230 H 0.04573 0.17511 0.14759
 H231 H 0.07492 0.20559 0.10247
 H232 H 0.05001 0.22995 0.10280
 C233 C 0.54598 0.71474 0.61083
 C234 C 0.53356 0.71615 0.62633
 C235 C 0.53534 0.70345 0.64164
 C236 C 0.54948 0.68938 0.64145
 C237 C 0.56207 0.68780 0.62592
 C238 C 0.56014 0.70068 0.61061
 C239 C 0.51895 0.73058 0.62648
 C240 C 0.50671 0.74266 0.62655
 C241 C 0.49238 0.75681 0.62655
 C242 C 0.48014 0.76889 0.62649
 C243 C 0.46551 0.78331 0.62634
 C244 C 0.46538 0.79774 0.64012
 C245 C 0.45123 0.81181 0.63991
 C246 C 0.43698 0.81166 0.62587
 C247 C 0.43726 0.79701 0.61210
 C248 C 0.45143 0.78297 0.61235
 H249 H 0.54471 0.72448 0.59888
 H250 H 0.52581 0.70443 0.65373
 H251 H 0.55056 0.67987 0.65356
 H252 H 0.56941 0.69989 0.59834
 H253 H 0.47623 0.79813 0.65103
 H254 H 0.45157 0.82274 0.65079
 H255 H 0.42663 0.79632 0.60105
 H256 H 0.45140 0.77186 0.60159
 C257 C 1.03455 0.79826 0.36075
 C258 C 1.03460 0.78371 0.37443
 C259 C 1.04875 0.78338 0.38834
 C260 C 1.06280 0.79756 0.38863
 C261 C 1.06297 0.81241 0.37495
 C262 C 1.04857 0.81247 0.36097
 C263 C 1.02008 0.76917 0.37427
 C264 C 1.00790 0.75701 0.37419
 C265 C 0.99362 0.74279 0.37417
 C266 C 0.98140 0.73067 0.37420
 C267 C 0.96679 0.71622 0.37432
 C268 C 0.95290 0.71621 0.38859
 C269 C 0.93870 0.70218 0.38875
 C270 C 0.93817 0.68791 0.37460
 C271 C 0.95224 0.68810 0.36030
 C272 C 0.96643 0.70215 0.36018
 H273 H 1.02365 0.79865 0.34991
 H274 H 1.04892 0.77216 0.39901
 H275 H 1.07343 0.79671 0.39967
 H276 H 1.04793 0.82344 0.35012
 H277 H 0.95305 0.72704 0.39962
 H278 H 0.92822 0.70261 0.40001
 H279 H 0.95240 0.67746 0.34914
 H280 H 0.97712 0.70203 0.34905
 C281 C 0.45006 0.21729 -0.11168
 C282 C 0.46483 0.21696 -0.12504
 C283 C 0.46546 0.20244 -0.13872
 C284 C 0.45141 0.18827 -0.13904
 C285 C 0.43647 0.18843 -0.12566
 C286 C 0.43597 0.20314 -0.11198
 C287 C 0.47935 0.23150 -0.12472
 C288 C 0.49154 0.24364 -0.12451
 C289 C 0.50585 0.25783 -0.12432
 C290 C 0.51810 0.26991 -0.12420
 C291 C 0.53274 0.28433 -0.12410
 C292 C 0.54657 0.28431 -0.10984
 C293 C 0.56084 0.29827 -0.10977
 C294 C 0.56150 0.31250 -0.12399
 C295 C 0.54748 0.31236 -0.13827
 C296 C 0.53323 0.29838 -0.13830
 H297 H 0.44944 0.22846 -0.10101
 H298 H 0.47683 0.20206 -0.14915
 H299 H 0.45225 0.17732 -0.14988
 H300 H 0.42483 0.20372 -0.10137
 H301 H 0.54633 0.27349 -0.09877
 H302 H 0.57127 0.29782 -0.09852
 H303 H 0.54743 0.32297 -0.14949
 H304 H 0.52260 0.29852 -0.14943
 C305 C 0.11113 -0.04827 0.28370
 C306 C 0.12458 -0.03351 0.28398
 C307 C 0.13804 -0.03280 0.29857
 C308 C 0.13806 -0.04677 0.31284
 C309 C 0.12459 -0.06172 0.31273
 C310 C 0.11111 -0.06227 0.29795
 C311 C 0.12458 -0.01909 0.26932
 C312 C 0.12461 -0.00699 0.25706
 C313 C 0.12467 0.00720 0.24274
 C314 C 0.12475 0.01933 0.23052
 C315 C 0.12486 0.03383 0.21593
 C316 C 0.14023 0.03523 0.20334
 C317 C 0.14038 0.04931 0.18918
 C318 C 0.12512 0.06224 0.18738
 C319 C 0.10972 0.06068 0.20015
 C320 C 0.10962 0.04658 0.21430
 H321 H 0.10065 -0.04897 0.27245
 H322 H 0.14852 -0.02142 0.29893
 H323 H 0.14862 -0.04573 0.32393
 H324 H 0.10055 -0.07350 0.29725
 H325 H 0.15213 0.02544 0.20449
 H326 H 0.15254 0.05006 0.17976
 H327 H 0.09766 0.07022 0.19922
 H328 H 0.09763 0.04561 0.22397
 C329 C 0.61009 0.54776 -0.28433
 C330 C 0.62430 0.53378 -0.28394
 C331 C 0.63856 0.53388 -0.29782
 C332 C 0.63865 0.54789 -0.31205
 C333 C 0.62442 0.56215 -0.31268
 C334 C 0.61011 0.56181 -0.29853
 C335 C 0.62427 0.51934 -0.26930
 C336 C 0.62428 0.50723 -0.25705
 C337 C 0.62433 0.49304 -0.24271
 C338 C 0.62440 0.48092 -0.23048
 C339 C 0.62450 0.46645 -0.21587
 C340 C 0.61065 0.45207 -0.21574
 C341 C 0.61075 0.43799 -0.20157
 C342 C 0.62475 0.43808 -0.18726
 C343 C 0.63861 0.45266 -0.18756
 C344 C 0.63847 0.46671 -0.20175
 H345 H 0.59896 0.54781 -0.27364
 H346 H 0.64964 0.52310 -0.29764
 H347 H 0.64997 0.54738 -0.32246
 H348 H 0.59884 0.57231 -0.29825
 H349 H 0.59977 0.45172 -0.22661
 H350 H 0.59984 0.42708 -0.20193
 H351 H 0.64961 0.45332 -0.17687
 H352 H 0.64927 0.47779 -0.20171
 C353 C 0.35969 1.03334 0.79830
 C354 C 0.37383 1.03298 0.78428
 C355 C 0.38852 1.04649 0.78468
 C356 C 0.38912 1.06028 0.79907
 C357 C 0.37501 1.06075 0.81332
 C358 C 0.36026 1.04712 0.81272
 C359 C 0.37339 1.01867 0.76956
 C360 C 0.37315 1.00668 0.75724
 C361 C 0.37305 0.99261 0.74283
 C362 C 0.37309 0.98059 0.73054
 C363 C 0.37331 0.96622 0.71587
 C364 C 0.35879 0.96560 0.70232
 C365 C 0.35911 0.95173 0.68798
 C366 C 0.37398 0.93825 0.68700
 C367 C 0.38848 0.93901 0.70075
 C368 C 0.38813 0.95289 0.71506
 H369 H 0.34824 1.02296 0.79811
 H370 H 0.39957 1.04632 0.77391
 H371 H 0.40077 1.07040 0.79906
 H372 H 0.34907 1.04707 0.82330
 H373 H 0.34723 0.97584 0.70283
 H374 H 0.34763 0.95156 0.67779
 H375 H 0.40023 0.92903 0.70044
 H376 H 0.39946 0.95327 0.72546
 C377 C 0.86288 0.46727 0.20092
 C378 C 0.87590 0.46616 0.21588
 C379 C 0.88885 0.45097 0.21659
 C380 C 0.88879 0.43694 0.20240
 C381 C 0.87575 0.43790 0.18726
 C382 C 0.86278 0.45327 0.18671
 C383 C 0.87596 0.48059 0.23049
 C384 C 0.87599 0.49268 0.24272
 C385 C 0.87598 0.50685 0.25703
 C386 C 0.87594 0.51895 0.26925
 C387 C 0.87585 0.53340 0.28384
 C388 C 0.88999 0.54749 0.28415
 C389 C 0.88989 0.56155 0.29830
 C390 C 0.87562 0.56174 0.31239
 C391 C 0.86147 0.54744 0.31192
 C392 C 0.86161 0.53340 0.29776
 H393 H 0.85279 0.47898 0.20022
 H394 H 0.89899 0.44996 0.22812
 H395 H 0.89893 0.42535 0.20344
 H396 H 0.85259 0.45463 0.17531
 H397 H 0.90110 0.54762 0.27344
 H398 H 0.90104 0.57222 0.29809
 H399 H 0.85023 0.54701 0.32243
 H400 H 0.85059 0.52255 0.29765
 C401 C 0.29592 0.14112 -0.03716
 C402 C 0.28383 0.12535 -0.03490
 C403 C 0.28587 0.10942 -0.04677
 C404 C 0.29996 0.10921 -0.06084
 C405 C 0.31224 0.12498 -0.06324
 C406 C 0.31002 0.14096 -0.05122
 C407 C 0.26936 0.12549 -0.02037
 C408 C 0.25725 0.12555 -0.00820
 C409 C 0.24307 0.12557 0.00604
 C410 C 0.23095 0.12554 0.01821
 C411 C 0.21648 0.12549 0.03273
 C412 C 0.21677 0.11163 0.04712
 C413 C 0.20272 0.11156 0.06123
 C414 C 0.18813 0.12538 0.06117
 C415 C 0.18801 0.13926 0.04658
 C416 C 0.20208 0.13929 0.03250
 H417 H 0.29448 0.15353 -0.02802
 H418 H 0.27656 0.09714 -0.04517
 H419 H 0.30107 0.09672 -0.06986
 H420 H 0.31922 0.15331 -0.05250
 H421 H 0.22787 0.10087 0.04744
 H422 H 0.20342 0.10065 0.07214
 H423 H 0.17708 0.15012 0.04593
 H424 H 0.20171 0.15009 0.02141
 C425 C 0.70166 0.63873 0.53349
 C426 C 0.71635 0.62525 0.53403
 C427 C 0.71692 0.61173 0.54873
 C428 C 0.70286 0.61168 0.56283
 C429 C 0.68798 0.62517 0.56245
 C430 C 0.68758 0.63871 0.54756
 C431 C 0.73081 0.62526 0.51951
 C432 C 0.74292 0.62526 0.50734
 C433 C 0.75710 0.62525 0.49310
 C434 C 0.76922 0.62522 0.48094
 C435 C 0.78370 0.62519 0.46644
 C436 C 0.78334 0.61144 0.45200
 C437 C 0.79742 0.61137 0.43791
 C438 C 0.81211 0.62511 0.43805
 C439 C 0.81229 0.63889 0.45268
 C440 C 0.79820 0.63891 0.46675
 H441 H 0.70107 0.64926 0.52216
 H442 H 0.72824 0.60123 0.54930
 H443 H 0.70379 0.60106 0.57400
 H444 H 0.67641 0.64930 0.54665
 H445 H 0.77218 0.60074 0.45162
 H446 H 0.79666 0.60055 0.42695
 H447 H 0.82330 0.64968 0.45340
 H448 H 0.79862 0.64964 0.47787
 C449 C 0.79820 0.36052 0.03352
 C450 C 0.78389 0.37442 0.03372
 C451 C 0.78368 0.38832 0.04803
 C452 C 0.79771 0.38836 0.06207
 C453 C 0.81222 0.37444 0.06203
 C454 C 0.81226 0.36051 0.04754
 C455 C 0.76943 0.37440 0.01927
 C456 C 0.75732 0.37439 0.00718
 C457 C 0.74313 0.37440 -0.00698
 C458 C 0.73101 0.37442 -0.01907
 C459 C 0.71652 0.37447 -0.03350
 C460 C 0.70229 0.36047 -0.03335
 C461 C 0.68820 0.36050 -0.04735
 C462 C 0.68813 0.37457 -0.06174
 C463 C 0.70256 0.38859 -0.06172
 C464 C 0.71663 0.38851 -0.04770
 H465 H 0.79850 0.34967 0.02250
 H466 H 0.77265 0.39915 0.04833
 H467 H 0.79708 0.39930 0.07292
 H468 H 0.82311 0.34956 0.04691
 H469 H 0.70208 0.34951 -0.02242
 H470 H 0.67743 0.34947 -0.04678
 H471 H 0.70310 0.39966 -0.07247
 H472 H 0.72760 0.39942 -0.04796
 C473 C 0.20013 0.86270 0.46838
 C474 C 0.21570 0.87510 0.46693
 C475 C 0.21721 0.88749 0.45134
 C476 C 0.20323 0.88749 0.43724
 C477 C 0.18748 0.87507 0.43853
 C478 C 0.18612 0.86267 0.45431
 C479 C 0.23014 0.87511 0.48140
 C480 C 0.24227 0.87515 0.49348
 C481 C 0.25653 0.87521 0.50757
 C482 C 0.26875 0.87528 0.51956
 C483 C 0.28340 0.87536 0.53381
 C484 C 0.28316 0.88908 0.54830
 C485 C 0.29745 0.88923 0.56209
 C486 C 0.31223 0.87563 0.56158
 C487 C 0.31229 0.86187 0.54695
 C488 C 0.29799 0.86176 0.53318
 H489 H 0.19880 0.85306 0.48041
 H490 H 0.22922 0.89713 0.45005
 H491 H 0.20491 0.89715 0.42532
 H492 H 0.17421 0.85300 0.45593
 H493 H 0.27192 0.89967 0.54894
 H494 H 0.29678 0.89995 0.57316
 H495 H 0.32345 0.85127 0.54594
 H496 H 0.29834 0.85109 0.52200
   
