data_POSCAR
  _audit_creation_date              2014-09-24
  _audit_creation_method            'ToBaCCo'
  _symmetry_space_group_name_H-M    'P1'
  _symmetry_Int_Tables_number       1
  _symmetry_cell_setting            triclinic
  loop_
  _symmetry_equiv_pos_as_xyz
 x,y,z
_cell_length_a 33.4318
_cell_length_b 31.4129
_cell_length_c 34.5198
_cell_angle_alpha 89.852100
_cell_angle_beta 90.109400
_cell_angle_gamma 89.873800
loop_
  _atom_site_label
  _atom_site_type_symbol
  _atom_site_fract_x
  _atom_site_fract_y
  _atom_site_fract_z
C1 C 0.26768 0.32203 0.02134
 C2 C 0.27161 0.32723 -0.01958
 C3 C 0.29993 0.30175 -0.03905
 C4 C 0.32523 0.27293 -0.01960
 C5 C 0.32019 0.26756 0.02095
 C6 C 0.29070 0.29083 0.04037
 H7 H 0.28899 0.28805 0.07166
 H8 H 0.30152 0.30322 -0.07036
 C9 C 0.72185 0.66958 0.02582
 C10 C 0.72731 0.67293 -0.01473
 C11 C 0.70182 0.69942 -0.03640
 C12 C 0.66857 0.71989 -0.01935
 C13 C 0.66438 0.71772 0.02172
 C14 C 0.69143 0.69320 0.04345
 H15 H 0.68832 0.69178 0.07469
 H16 H 0.70538 0.69985 -0.06761
 C17 C 0.71749 0.33094 0.97781
 C18 C 0.71708 0.33188 1.01919
 C19 C 0.68874 0.30599 1.03840
 C20 C 0.66112 0.28036 1.01835
 C21 C 0.66269 0.27900 0.97750
 C22 C 0.69078 0.30414 0.95818
 H23 H 0.69231 0.30227 0.92684
 H24 H 0.68592 0.30797 1.06959
 C25 C 0.28139 0.66490 0.98273
 C26 C 0.28232 0.66340 1.02400
 C27 C 0.30939 0.69075 1.04345
 C28 C 0.33606 0.71834 1.02370
 C29 C 0.33483 0.71834 0.98239
 C30 C 0.30709 0.69260 0.96325
 H31 H 0.30651 0.69310 0.93182
 H32 H 0.31009 0.68999 1.07474
 C33 C 0.02449 0.27588 0.33567
 C34 C -0.01732 0.27149 0.33895
 C35 C -0.04219 0.29299 0.31277
 C36 C -0.02652 0.31918 0.28342
 C37 C 0.01564 0.32467 0.28074
 C38 C 0.04041 0.30255 0.30697
 H39 H 0.07257 0.30662 0.30557
 H40 H -0.07433 0.28943 0.31555
 C41 C 0.01918 0.72856 0.67022
 C42 C -0.02336 0.72621 0.66792
 C43 C -0.04349 0.70184 0.69628
 C44 C -0.02300 0.67771 0.72455
 C45 C 0.01925 0.68136 0.72671
 C46 C 0.03939 0.70730 0.70028
 H47 H 0.07180 0.70859 0.70151
 H48 H -0.07579 0.69938 0.69501
 C49 C 0.97737 0.72229 0.33511
 C50 C 1.01936 0.72349 0.33224
 C51 C 1.03854 0.69814 0.30473
 C52 C 1.01735 0.67046 0.27997
 C53 C 0.97487 0.66842 0.28376
 C54 C 0.95570 0.69517 0.31072
 H55 H 0.92356 0.69307 0.31448
 H56 H 1.07081 0.70055 0.30265
 C57 C 0.97811 0.27649 0.66738
 C58 C 1.02016 0.28232 0.66651
 C59 C 1.03710 0.31208 0.69227
 C60 C 1.01399 0.33366 0.72013
 C61 C 0.97203 0.32661 0.72105
 C62 C 0.95491 0.29840 0.69445
 H63 H 0.92273 0.29389 0.69434
 H64 H 1.06910 0.31739 0.69180
 C65 C 0.34053 0.02531 0.29412
 C66 C 0.34079 -0.01995 0.29115
 C67 C 0.31523 -0.04329 0.31574
 C68 C 0.29214 -0.02382 0.34490
 C69 C 0.29137 0.02149 0.34659
 C70 C 0.31478 0.04499 0.32064
 H71 H 0.31446 0.07946 0.32249
 H72 H 0.31487 -0.07767 0.31342
 C73 C 0.65723 0.01922 0.71475
 C74 C 0.66262 -0.02538 0.71427
 C75 C 0.68836 -0.04364 0.68698
 C76 C 0.70844 -0.01863 0.65943
 C77 C 0.70283 0.02621 0.65968
 C78 C 0.67785 0.04444 0.68787
 H79 H 0.67284 0.07856 0.68774
 H80 H 0.69194 -0.07796 0.68656
 C81 C 0.33133 0.96922 0.71966
 C82 C 0.33348 1.01459 0.71941
 C83 C 0.30909 1.03702 0.69273
 C84 C 0.28440 1.01627 0.66538
 C85 C 0.28373 0.97088 0.66557
 C86 C 0.30617 0.94869 0.69326
 H87 H 0.30529 0.91417 0.69329
 H88 H 0.31001 1.07143 0.69262
 C89 C 0.66449 0.98282 0.28299
 C90 C 0.66549 1.02777 0.28252
 C91 C 0.68976 1.04899 0.30949
 C92 C 0.71189 1.02709 0.33817
 C93 C 0.71245 0.98169 0.33676
 C94 C 0.68868 0.96055 0.30930
 H95 H 0.68842 0.92602 0.30877
 H96 H 0.68913 1.08347 0.30952
 O97 O 0.83937 0.90448 0.53722
 O98 O 0.89729 0.84828 0.46258
 O99 O 0.83966 0.90291 0.46139
 O100 O 0.89767 0.84744 0.53752
 O101 O 0.85133 0.79742 0.54020
 O102 O 0.79630 0.84998 0.46123
 O103 O 0.85481 0.79456 0.46523
 O104 O 0.79406 0.85351 0.53602
 Cu105 Cu 0.87289 0.88116 0.49995
 Cu106 Cu 0.81969 0.81865 0.50072
 C107 C 0.80627 0.88914 0.54863
 C108 C 0.88627 0.81159 0.45167
 C109 C 0.80821 0.88555 0.44811
 C110 C 0.88435 0.81284 0.55153
 O111 O 0.10577 0.15684 0.46576
 O112 O 0.16050 0.10069 0.54294
 O113 O 0.10339 0.15731 0.54193
 O114 O 0.16194 0.10065 0.46805
 O115 O 0.20695 0.15199 0.46934
 O116 O 0.14839 0.20856 0.54343
 O117 O 0.20556 0.15192 0.54419
 O118 O 0.14994 0.20898 0.46776
 Cu119 Cu 0.12810 0.12396 0.50472
 Cu120 Cu 0.18203 0.18573 0.50629
 C121 C 0.11889 0.19213 0.45318
 C122 C 0.19281 0.11619 0.55619
 C123 C 0.11604 0.19228 0.55564
 C124 C 0.19471 0.11647 0.45639
 O125 O 0.16764 0.89783 0.46289
 O126 O 0.10423 0.84651 0.53666
 O127 O 0.16570 0.89706 0.53660
 O128 O 0.10566 0.84653 0.45963
 O129 O 0.14524 0.79022 0.46182
 O130 O 0.20607 0.84113 0.53701
 O131 O 0.14489 0.79105 0.53697
 O132 O 0.20684 0.84102 0.46201
 Cu133 Cu 0.13115 0.87731 0.49865
 Cu134 Cu 0.17962 0.81015 0.49938
 C135 C 0.19850 0.87848 0.45071
 C136 C 0.11437 0.81032 0.55001
 C137 C 0.19648 0.87778 0.54927
 C138 C 0.11536 0.80972 0.44758
 O139 O 0.89055 0.14975 0.54299
 O140 O 0.83069 0.09924 0.46630
 O141 O 0.89408 0.14892 0.46713
 O142 O 0.82649 0.10176 0.54007
 O143 O 0.78880 0.15964 0.53747
 O144 O 0.85620 0.20659 0.46499
 O145 O 0.79331 0.15722 0.46206
 O146 O 0.85304 0.20764 0.53883
 Cu147 Cu 0.86456 0.11928 0.50441
 Cu148 Cu 0.81881 0.18839 0.50055
 C149 C 0.88238 0.18751 0.55340
 C150 C 0.80130 0.11934 0.45183
 C151 C 0.88704 0.18621 0.45430
 C152 C 0.79572 0.12251 0.55048
 O153 O 0.46193 0.89659 0.84120
 O154 O 0.53968 0.84055 0.89789
 O155 O 0.54169 0.89620 0.84060
 O156 O 0.46259 0.84526 0.89877
 O157 O 0.46297 0.79110 0.85806
 O158 O 0.53759 0.84462 0.79741
 O159 O 0.54054 0.78934 0.85406
 O160 O 0.46025 0.84268 0.80028
 Cu161 Cu 0.50221 0.87546 0.87350
 Cu162 Cu 0.50049 0.81164 0.82327
 C163 C 0.44674 0.87816 0.81190
 C164 C 0.55290 0.80515 0.88561
 C165 C 0.55273 0.87934 0.80895
 C166 C 0.44929 0.80933 0.88810
 O167 O 0.52891 0.15532 0.10064
 O168 O 0.46142 0.10062 0.16918
 O169 O 0.45130 0.14920 0.10825
 O170 O 0.53786 0.10243 0.15819
 O171 O 0.53714 0.15569 0.19984
 O172 O 0.45645 0.20730 0.14391
 O173 O 0.45972 0.15868 0.20526
 O174 O 0.53395 0.20852 0.14220
 Cu175 Cu 0.49444 0.12134 0.13001
 Cu176 Cu 0.49690 0.18816 0.17674
 C177 C 0.54363 0.19095 0.11058
 C178 C 0.44903 0.12072 0.19873
 C179 C 0.43995 0.18654 0.11673
 C180 C 0.55169 0.12055 0.18813
 O181 O 0.53374 0.09313 0.84433
 O182 O 0.45663 0.14830 0.90147
 O183 O 0.45683 0.09225 0.84515
 O184 O 0.53472 0.14766 0.90042
 O185 O 0.53461 0.19850 0.85616
 O186 O 0.45209 0.14624 0.80414
 O187 O 0.45701 0.20155 0.85964
 O188 O 0.52909 0.14318 0.79942
 Cu189 Cu 0.49538 0.11519 0.87734
 Cu190 Cu 0.49323 0.17780 0.82563
 C191 C 0.54356 0.10816 0.81153
 C192 C 0.44415 0.18469 0.89064
 C193 C 0.44149 0.10947 0.81530
 C194 C 0.54842 0.18243 0.88729
 O195 O 0.54055 0.90293 0.16048
 O196 O 0.46146 0.85023 0.10388
 O197 O 0.46243 0.90482 0.16154
 O198 O 0.53855 0.84874 0.10360
 O199 O 0.53633 0.79508 0.14497
 O200 O 0.46199 0.85169 0.20352
 O201 O 0.45871 0.79797 0.14682
 O202 O 0.53899 0.84982 0.20259
 Cu203 Cu 0.50071 0.88216 0.12823
 Cu204 Cu 0.49914 0.81824 0.17865
 C205 C 0.55293 0.88534 0.19139
 C206 C 0.44694 0.81514 0.11550
 C207 C 0.44968 0.88807 0.19274
 C208 C 0.54972 0.81180 0.11407
 O209 O 0.90454 0.54005 0.84582
 O210 O 0.84903 0.45866 0.90105
 O211 O 0.90065 0.45674 0.84613
 O212 O 0.85323 0.54137 0.90327
 O213 O 0.80448 0.54646 0.86013
 O214 O 0.85138 0.46047 0.80354
 O215 O 0.79969 0.46388 0.85867
 O216 O 0.85573 0.54294 0.80273
 Cu217 Cu 0.88195 0.49929 0.87832
 Cu218 Cu 0.82290 0.50417 0.82698
 C219 C 0.88986 0.55477 0.81450
 C220 C 0.81491 0.44704 0.88877
 C221 C 0.88362 0.44344 0.81559
 C222 C 0.82061 0.55779 0.89177
 O223 O 0.09094 0.54163 0.15120
 O224 O 0.14548 0.45725 0.09892
 O225 O 0.08855 0.45894 0.15146
 O226 O 0.14855 0.53947 0.10001
 O227 O 0.19395 0.53656 0.14646
 O228 O 0.13445 0.45535 0.19754
 O229 O 0.19053 0.45453 0.14588
 O230 O 0.13637 0.53857 0.19756
 Cu231 Cu 0.11371 0.49950 0.12079
 Cu232 Cu 0.16817 0.49615 0.17673
 C233 C 0.10451 0.55447 0.18348
 C234 C 0.17754 0.44218 0.11328
 C235 C 0.10140 0.44343 0.18314
 C236 C 0.18192 0.55116 0.11410
 O237 O 0.84708 0.53982 0.11113
 O238 O 0.89466 0.44852 0.16043
 O239 O 0.84359 0.45834 0.10414
 O240 O 0.89900 0.53101 0.16816
 O241 O 0.84711 0.53291 0.20770
 O242 O 0.79619 0.45196 0.14837
 O243 O 0.84715 0.44988 0.20476
 O244 O 0.79541 0.53410 0.15053
 Cu245 Cu 0.87629 0.49485 0.13191
 Cu246 Cu 0.81658 0.49230 0.18228
 C247 C 0.81208 0.55095 0.12128
 C248 C 0.87913 0.43393 0.19128
 C249 C 0.81082 0.44234 0.11562
 C250 C 0.88215 0.54472 0.19857
 O251 O 0.09037 0.46662 0.84765
 O252 O 0.15385 0.54100 0.90191
 O253 O 0.09936 0.54933 0.84835
 O254 O 0.14718 0.45999 0.90029
 O255 O 0.19476 0.45877 0.85600
 O256 O 0.14158 0.54072 0.79981
 O257 O 0.19741 0.54032 0.85373
 O258 O 0.13836 0.45786 0.80443
 Cu259 Cu 0.11772 0.50459 0.87892
 Cu260 Cu 0.17246 0.49920 0.82361
 C261 C 0.10392 0.44886 0.81741
 C262 C 0.18659 0.55297 0.88703
 C263 C 0.11176 0.55942 0.81481
 C264 C 0.18035 0.44565 0.88786
 C265 C 0.22443 0.34006 0.07885
 C266 C 0.24650 0.35322 0.04646
 C267 C 0.25149 0.39757 0.04138
 C268 C 0.22853 0.42662 0.06301
 C269 C 0.20150 0.41189 0.09116
 C270 C 0.20252 0.36871 0.10071
 C271 C 0.16967 0.33745 0.10729
 C272 C 0.19419 0.30567 0.08387
 H273 H 0.27159 0.40973 0.01944
 H274 H 0.23117 0.46039 0.05713
 H275 H 0.14126 0.34704 0.09286
 H276 H 0.16685 0.32847 0.13832
 H277 H 0.17978 0.29593 0.05629
 H278 H 0.20598 0.27891 0.10169
 C279 C 0.78679 0.63535 0.04682
 C280 C 0.74522 0.63939 0.05017
 C281 C 0.72548 0.61120 0.07555
 C282 C 0.74730 0.58283 0.09902
 C283 C 0.78943 0.58169 0.09751
 C284 C 0.80835 0.60687 0.06955
 C285 C 0.84224 0.63738 0.07393
 C286 C 0.81856 0.66842 0.04888
 H287 H 0.69316 0.61142 0.07755
 H288 H 0.73114 0.56199 0.11849
 H289 H 0.86994 0.62566 0.05969
 H290 H 0.84618 0.64834 0.10430
 H291 H 0.83250 0.67435 0.02016
 H292 H 0.80872 0.69740 0.06467
 C293 C 0.73018 0.37650 0.91991
 C294 C 0.74516 0.35574 0.95278
 C295 C 0.78690 0.35787 0.95900
 C296 C 0.81038 0.38718 0.93779
 C297 C 0.79271 0.41310 0.90888
 C298 C 0.75323 0.40415 0.89848
 C299 C 0.71839 0.43264 0.89028
 C300 C 0.69297 0.40189 0.91378
 H301 H 0.80070 0.33941 0.98195
 H302 H 0.84170 0.39071 0.94508
 H303 H 0.71044 0.43322 0.85900
 H304 H 0.72142 0.46434 0.90401
 H305 H 0.67068 0.38456 0.89591
 H306 H 0.68112 0.41580 0.94103
 C307 C 0.23977 0.64984 0.92373
 C308 C 0.25859 0.63506 0.95759
 C309 C 0.25983 0.59051 0.96321
 C310 C 0.23649 0.56343 0.93983
 C311 C 0.21321 0.58030 0.90937
 C312 C 0.21775 0.62318 0.90017
 C313 C 0.18759 0.65695 0.89140
 C314 C 0.21230 0.68659 0.91681
 H315 H 0.27720 0.57690 0.98669
 H316 H 0.23573 0.52965 0.94618
 H317 H 0.15762 0.64960 0.90360
 H318 H 0.18771 0.66623 0.86030
 H319 H 0.19653 0.69725 0.94336
 H320 H 0.22710 0.71244 0.90015
 C321 C 0.07664 0.27751 0.38768
 C322 C 0.05227 0.25422 0.36255
 C323 C 0.05581 0.20959 0.36307
 C324 C 0.07822 0.18914 0.39223
 C325 C 0.09846 0.21315 0.42057
 C326 C 0.09943 0.25740 0.41601
 C327 C 0.09099 0.29155 0.44490
 C328 C 0.06605 0.31351 0.41382
 H329 H 0.03979 0.19057 0.34211
 H330 H 0.07869 0.15468 0.39331
 H331 H 0.11838 0.30955 0.45283
 H332 H 0.07301 0.27996 0.46986
 H333 H 0.07911 0.34412 0.40381
 H334 H 0.03356 0.31464 0.42067
 C335 C 0.04060 0.79319 0.63142
 C336 C 0.04450 0.75029 0.64117
 C337 C 0.07382 0.72709 0.62046
 C338 C 0.09669 0.74663 0.59089
 C339 C 0.09084 0.78999 0.58098
 C340 C 0.06225 0.81181 0.60261
 C341 C 0.04255 0.85397 0.60760
 C342 C 0.01797 0.83291 0.64015
 H343 H 0.07845 0.69359 0.62653
 H344 H 0.11845 0.72753 0.57551
 H345 H 0.02432 0.86314 0.58193
 H346 H 0.06371 0.87861 0.61815
 H347 H -0.01439 0.83034 0.63319
 H348 H 0.02494 0.84543 0.66947
 C349 C 0.95481 0.78943 0.36756
 C350 C 0.95600 0.74497 0.36629
 C351 C 0.93670 0.72221 0.39605
 C352 C 0.91414 0.74375 0.42432
 C353 C 0.91092 0.78847 0.42348
 C354 C 0.93321 0.81074 0.39586
 C355 C 0.91913 0.84383 0.36784
 C356 C 0.94241 0.82029 0.33680
 H357 H 0.93808 0.68776 0.39671
 H358 H 0.89863 0.72549 0.44626
 H359 H 0.93162 0.87575 0.37453
 H360 H 0.88619 0.84314 0.36327
 H361 H 0.96786 0.83908 0.32527
 H362 H 0.92298 0.80553 0.31438
 C363 C 0.93650 0.21509 0.64531
 C364 C 0.95635 0.25286 0.63719
 C365 C 0.95235 0.26888 0.59904
 C366 C 0.92813 0.24746 0.57145
 C367 C 0.90828 0.20915 0.58127
 C368 C 0.91447 0.19383 0.61859
 C369 C 0.90110 0.16123 0.64710
 C370 C 0.92661 0.18510 0.67721
 H371 H 0.96692 0.29834 0.59097
 H372 H 0.92483 0.26084 0.54267
 H373 H 0.91242 0.12886 0.64014
 H374 H 0.86865 0.16372 0.65309
 H375 H 0.95319 0.16685 0.68732
 H376 H 0.90865 0.20052 0.70035
 C377 C 0.35774 0.09075 0.25562
 C378 C 0.36991 0.05327 0.27435
 C379 C 0.41138 0.04445 0.27513
 C380 C 0.43758 0.06674 0.25049
 C381 C 0.42294 0.09960 0.22658
 C382 C 0.38373 0.11348 0.23232
 C383 C 0.35149 0.12435 0.20396
 C384 C 0.32276 0.09994 0.23003
 H385 H 0.42294 0.01821 0.29224
 H386 H 0.46873 0.05729 0.24903
 H387 H 0.35616 0.10909 0.17528
 H388 H 0.34526 0.15910 0.20297
 H389 H 0.31003 0.07097 0.21642
 H390 H 0.30049 0.12085 0.24447
 C391 C 0.62887 0.03754 0.78007
 C392 C 0.62677 0.03968 0.73962
 C393 C 0.59427 0.06171 0.72289
 C394 C 0.56680 0.08380 0.74626
 C395 C 0.57109 0.08387 0.78685
 C396 C 0.60126 0.05868 0.80321
 C397 C 0.63258 0.07152 0.83171
 C398 C 0.66282 0.04888 0.80627
 H399 H 0.59086 0.06288 0.69169
 H400 H 0.54275 0.10149 0.73260
 H401 H 0.62830 0.05585 0.86031
 H402 H 0.63696 0.10659 0.83288
 H403 H 0.67638 0.02074 0.82074
 H404 H 0.68456 0.07082 0.79233
 C405 C 0.37454 0.90545 0.73201
 C406 C 0.35429 0.94106 0.74646
 C407 C 0.35732 0.94855 0.78672
 C408 C 0.38713 0.92761 0.80880
 C409 C 0.41250 0.89725 0.79132
 C410 C 0.40275 0.88403 0.75387
 C411 C 0.42845 0.87564 0.71936
 C412 C 0.39705 0.89886 0.69522
 H413 H 0.33964 0.97338 0.80011
 H414 H 0.39150 0.93659 0.83877
 H415 H 0.43055 0.84113 0.71261
 H416 H 0.45750 0.89265 0.72079
 H417 H 0.38080 0.87755 0.67496
 H418 H 0.40792 0.92906 0.68216
 C419 C 0.59838 0.94782 0.27299
 C420 C 0.63653 0.95765 0.25905
 C421 C 0.64944 0.93709 0.22501
 C422 C 0.62242 0.91275 0.20278
 C423 C 0.58277 0.90698 0.21539
 C424 C 0.57220 0.92276 0.25175
 C425 C 0.53678 0.94884 0.26308
 C426 C 0.56544 0.97661 0.28601
 H427 H 0.67975 0.94149 0.21477
 H428 H 0.63214 0.89936 0.17548
 H429 H 0.51567 0.93073 0.28167
 H430 H 0.52277 0.96558 0.23804
 H431 H 0.56059 0.97488 0.31781
 H432 H 0.56796 1.00929 0.27391
 C433 C 0.36828 0.21016 0.96848
 C434 C 0.35571 0.25170 0.95923
 C435 C 0.37610 0.27231 0.92852
 C436 C 0.40547 0.25096 0.90682
 C437 C 0.41516 0.20816 0.91474
 C438 C 0.39728 0.18908 0.94693
 C439 C 0.37575 0.14764 0.94936
 C440 C 0.34389 0.17056 0.97265
 H441 H 0.36974 0.30519 0.92126
 H442 H 0.41984 0.26776 0.88323
 H443 H 0.39268 0.12367 0.96659
 H444 H 0.36495 0.13637 0.92068
 H445 H 0.34231 0.15906 1.00303
 H446 H 0.31459 0.17280 0.95747
 C447 C 0.64965 0.75683 0.92028
 C448 C 0.63916 0.73820 0.95593
 C449 C 0.59762 0.73563 0.96400
 C450 C 0.56944 0.75752 0.94104
 C451 C 0.58189 0.78116 0.90870
 C452 C 0.62171 0.77768 0.89720
 C453 C 0.65058 0.81168 0.88607
 C454 C 0.68126 0.78890 0.91130
 H455 H 0.58662 0.71708 0.98814
 H456 H 0.53811 0.75661 0.94896
 H457 H 0.64187 0.84353 0.89730
 H458 H 0.65794 0.81075 0.85470
 H459 H 0.69044 0.80751 0.93718
 H460 H 0.70630 0.77491 0.89441
 C461 C 0.40081 0.75610 0.03222
 C462 C 0.36261 0.74444 0.04568
 C463 C 0.35148 0.76097 0.08246
 C464 C 0.37847 0.78478 0.10512
 C465 C 0.41711 0.79353 0.09148
 C466 C 0.42694 0.78056 0.05416
 C467 C 0.46273 0.75616 0.04115
 C468 C 0.43438 0.72914 0.01729
 H469 H 0.32180 0.75592 0.09400
 H470 H 0.36937 0.79574 0.13350
 H471 H 0.47748 0.73831 0.06512
 H472 H 0.48314 0.77592 0.02321
 H473 H 0.43253 0.69554 0.02730
 H474 H 0.43946 0.73340 -0.01422
 C475 C 0.64001 0.23874 0.07674
 C476 C 0.62999 0.25788 0.04135
 C477 C 0.58908 0.25833 0.03083
 C478 C 0.56075 0.23531 0.05267
 C479 C 0.57271 0.21251 0.08588
 C480 C 0.61202 0.21708 0.09872
 C481 C 0.64164 0.18370 0.11023
 C482 C 0.67233 0.20759 0.08611
 H483 H 0.57910 0.27566 0.00545
 H484 H 0.52972 0.23516 0.04358
 H485 H 0.63410 0.15178 0.09844
 H486 H 0.64819 0.18436 0.14180
 H487 H 0.68263 0.18961 0.06026
 H488 H 0.69652 0.22211 0.10380
 C489 C 0.22465 0.02801 0.62427
 C490 C 0.26209 0.04113 0.63839
 C491 C 0.27744 0.07956 0.62268
 C492 C 0.25510 0.10412 0.59607
 C493 C 0.21649 0.09141 0.58454
 C494 C 0.20275 0.05216 0.59805
 C495 C 0.16399 0.04119 0.61683
 C496 C 0.18789 0.01449 0.64543
 H497 H 0.30716 0.09049 0.63008
 H498 H 0.26799 0.13323 0.58485
 H499 H 0.14454 0.02186 0.59756
 H500 H 0.14919 0.06923 0.63028
 H501 H 0.18188 -0.02002 0.64212
 H502 H 0.18683 0.02668 0.67562
 C503 C 0.74382 0.09312 0.36113
 C504 C 0.73028 0.05134 0.36805
 C505 C 0.73399 0.03639 0.40669
 C506 C 0.75702 0.05869 0.43408
 C507 C 0.77496 0.09768 0.42430
 C508 C 0.76532 0.11583 0.38861
 C509 C 0.79225 0.13482 0.35888
 C510 C 0.76874 0.11012 0.32871
 H511 H 0.71983 0.00723 0.41596
 H512 H 0.76141 0.04509 0.46263
 H513 H 0.82372 0.12382 0.36194
 H514 H 0.78829 0.16986 0.35642
 H515 H 0.78661 0.08491 0.31417
 H516 H 0.75128 0.13102 0.30887
 C517 C 0.77172 0.97252 0.62029
 C518 C 0.73294 0.95930 0.62970
 C519 C 0.71693 0.92494 0.60856
 C520 C 0.74060 0.90233 0.58190
 C521 C 0.78089 0.91363 0.57558
 C522 C 0.79497 0.95048 0.59375
 C523 C 0.83220 0.95747 0.61680
 C524 C 0.80667 0.98184 0.64572
 H525 H 0.68636 0.91488 0.61334
 H526 H 0.72758 0.87542 0.56698
 H527 H 0.85394 0.97802 0.60123
 H528 H 0.84482 0.92736 0.62871
 H529 H 0.81374 1.01636 0.64644
 H530 H 0.80452 0.96604 0.67450
 C531 C 0.25694 0.90989 0.36205
 C532 C 0.27299 0.94963 0.37254
 C533 C 0.27103 0.96020 0.41236
 C534 C 0.24694 0.93669 0.43792
 C535 C 0.22618 0.90064 0.42490
 C536 C 0.23423 0.88585 0.38767
 C537 C 0.20594 0.87218 0.35668
 C538 C 0.23074 0.89843 0.32857
 H539 H 0.28702 0.98733 0.42375
 H540 H 0.24367 0.94737 0.46752
 H541 H 0.17518 0.88485 0.36098
 H542 H 0.20774 0.83738 0.35115
 H543 H 0.21440 0.92636 0.31650
 H544 H 0.24674 0.87871 0.30683
 C545 C 0.02005 0.40156 0.75943
 C546 C 0.03512 0.36172 0.74833
 C547 C 0.07151 0.34856 0.76564
 C548 C 0.09368 0.37652 0.78916
 C549 C 0.07924 0.41766 0.79703
 C550 C 0.04098 0.42834 0.78399
 C551 C 0.02689 0.46717 0.76301
 C552 C 0.00403 0.43774 0.73602
 H553 H 0.08368 0.31728 0.75975
 H554 H 0.12258 0.36651 0.80018
 H555 H 0.05166 0.48439 0.74855
 H556 H 0.00708 0.48728 0.78125
 H557 H 0.01546 0.43787 0.70580
 H558 H -0.02883 0.44130 0.73902
 C559 C 0.07851 0.63203 0.26265
 C560 C 0.03971 0.64585 0.25317
 C561 C 0.02555 0.63491 0.21577
 C562 C 0.04712 0.60632 0.19208
 C563 C 0.08350 0.58832 0.20505
 C564 C 0.09954 0.60395 0.23955
 C565 C 0.11661 0.58078 0.27360
 C566 C 0.09362 0.61163 0.29904
 H567 H -0.00249 0.64756 0.20501
 H568 H 0.03443 0.59698 0.16451
 H569 H 0.14958 0.58463 0.27575
 H570 H 0.10570 0.54744 0.27582
 H571 H 0.11339 0.63320 0.31587
 H572 H 0.06941 0.59622 0.31608
 C573 C 0.91091 0.36138 0.27255
 C574 C 0.94459 0.34095 0.25730
 C575 C 0.94998 0.34312 0.21678
 C576 C 0.92751 0.37228 0.19438
 C577 C 0.89829 0.39827 0.21201
 C578 C 0.88837 0.38934 0.25051
 C579 C 0.88155 0.41833 0.28411
 C580 C 0.90597 0.38723 0.30844
 H581 H 0.97372 0.32521 0.20305
 H582 H 0.93458 0.37616 0.16398
 H583 H 0.84953 0.41966 0.29264
 H584 H 0.89623 0.44981 0.28034
 H585 H 0.88786 0.37035 0.33063
 H586 H 0.93461 0.40062 0.31926
 C587 C 0.96498 0.63912 0.78600
 C588 C 0.95547 0.64760 0.74700
 C589 C 0.92505 0.62250 0.72996
 C590 C 0.90435 0.59171 0.75160
 C591 C 0.91300 0.58527 0.79108
 C592 C 0.94434 0.60850 0.80739
 C593 C 0.94264 0.63571 0.84261
 C594 C 0.96427 0.66948 0.81944
 H595 H 0.91765 0.62588 0.69956
 H596 H 0.88115 0.57336 0.73748
 H597 H 0.96092 0.62234 0.86670
 H598 H 0.91160 0.64492 0.85063
 H599 H 0.99429 0.67637 0.83152
 H600 H 0.94564 0.69816 0.81354
 C601 C 0.75411 0.60060 0.96963
 C602 C 0.75540 0.64472 0.96411
 C603 C 0.78275 0.66068 0.93656
 C604 C 0.80519 0.63255 0.91317
 C605 C 0.80016 0.58824 0.91688
 C606 C 0.77609 0.57311 0.94676
 C607 C 0.74293 0.54147 0.94535
 C608 C 0.71910 0.57135 0.97107
 H609 H 0.78552 0.69468 0.93209
 H610 H 0.82502 0.64531 0.89127
 H611 H 0.75122 0.51112 0.95976
 H612 H 0.73006 0.53826 0.91579
 H613 H 0.71408 0.55839 1.00066
 H614 H 0.69214 0.58491 0.95666
 C615 C 0.21035 0.37022 0.96859
 C616 C 0.24939 0.35767 0.95859
 C617 C 0.26637 0.37821 0.92587
 C618 C 0.24393 0.40651 0.90289
 C619 C 0.20368 0.41541 0.91165
 C620 C 0.18830 0.39843 0.94595
 C621 C 0.15029 0.37485 0.95265
 C622 C 0.17427 0.34415 0.97766
 H623 H 0.29730 0.37300 0.91795
 H624 H 0.25813 0.42106 0.87801
 H625 H 0.13831 0.36011 0.92578
 H626 H 0.12835 0.39398 0.96942
 H627 H 0.17603 0.31140 0.96563
 H628 H 0.16586 0.34619 1.00868
 C629 C 0.21941 0.62313 0.03394
 C630 C 0.25787 0.63528 0.04611
 C631 C 0.27181 0.61645 0.08108
 C632 C 0.24728 0.58932 0.10329
 C633 C 0.20779 0.58029 0.09163
 C634 C 0.19532 0.59635 0.05582
 C635 C 0.15827 0.62040 0.04561
 C636 C 0.18450 0.64960 0.02146
 H637 H 0.30204 0.62176 0.09120
 H638 H 0.25922 0.57577 0.12978
 H639 H 0.14460 0.63646 0.07104
 H640 H 0.13733 0.60106 0.02789
 H641 H 0.18593 0.68275 0.03258
 H642 H 0.17828 0.64657 -0.00999
 C643 C 0.75628 0.39802 0.02934
 C644 C 0.74283 0.35792 0.04195
 C645 C 0.75624 0.34462 0.07918
 C646 C 0.77889 0.37173 0.10310
 C647 C 0.78954 0.41260 0.09032
 C648 C 0.77966 0.42421 0.05250
 C649 C 0.75915 0.46360 0.03859
 C650 C 0.73335 0.43507 0.01343
 H651 H 0.74928 0.31321 0.09019
 H652 H 0.78753 0.36101 0.13177
 H653 H 0.77961 0.48438 0.02170
 H654 H 0.74214 0.48005 0.06184
 H655 H 0.73882 0.44000 -0.01793
 H656 H 0.70133 0.43473 0.02207
 C657 C 0.91431 0.75946 0.64482
 C658 C 0.95345 0.74488 0.63767
 C659 C 0.96651 0.74733 0.59863
 C660 C 0.94435 0.77013 0.57062
 C661 C 0.90772 0.78928 0.58042
 C662 C 0.89192 0.78069 0.61691
 C663 C 0.87450 0.81063 0.64582
 C664 C 0.89900 0.78744 0.67646
 H665 H 0.99366 0.73180 0.58931
 H666 H 0.95589 0.77293 0.54142
 H667 H 0.84173 0.80610 0.64924
 H668 H 0.88410 0.84412 0.64107
 H669 H 0.88028 0.76964 0.69755
 H670 H 0.92287 0.80743 0.68951
 C671 C 0.96187 0.20446 0.37378
 C672 C 0.96395 0.24894 0.37192
 C673 C 0.94480 0.27233 0.40126
 C674 C 0.92080 0.25167 0.42894
 C675 C 0.91567 0.20712 0.42800
 C676 C 0.93870 0.18393 0.40158
 C677 C 0.92565 0.15065 0.37350
 C678 C 0.95084 0.17318 0.34314
 H679 H 0.94653 0.30676 0.40139
 H680 H 0.90492 0.27072 0.45005
 H681 H 0.89303 0.15202 0.36731
 H682 H 0.93731 0.11860 0.38134
 H683 H 0.93282 0.18774 0.31943
 H684 H 0.97681 0.15385 0.33344
 C685 C 0.08103 0.27583 0.62687
 C686 C 0.04563 0.25840 0.64190
 C687 C 0.03822 0.21510 0.63307
 C688 C 0.06151 0.19322 0.60565
 C689 C 0.09344 0.21367 0.58674
 C690 C 0.10410 0.25419 0.59986
 C691 C 0.11276 0.29378 0.57748
 C692 C 0.08756 0.31755 0.60701
 H693 H 0.01462 0.19775 0.64737
 H694 H 0.05381 0.16067 0.59863
 H695 H 0.09935 0.29345 0.54797
 H696 H 0.14497 0.30241 0.57863
 H697 H 0.05951 0.33107 0.59466
 H698 H 0.10527 0.33989 0.62509
 C699 C 0.07011 0.72425 0.38495
 C700 C 0.04485 0.74687 0.36004
 C701 C 0.04781 0.79162 0.36000
 C702 C 0.07076 0.81264 0.38849
 C703 C 0.09232 0.78905 0.41645
 C704 C 0.09336 0.74477 0.41237
 C705 C 0.08634 0.71067 0.44180
 C706 C 0.06087 0.68819 0.41160
 H707 H 0.03164 0.81024 0.33875
 H708 H 0.07118 0.84710 0.38898
 H709 H 0.06891 0.72215 0.46714
 H710 H 0.11425 0.69308 0.44910
 H711 H 0.02862 0.68665 0.41933
 H712 H 0.07416 0.65775 0.40143
 C713 C 0.60660 0.92314 0.72196
 C714 C 0.63818 0.94587 0.73842
 C715 C 0.64574 0.94005 0.77824
 C716 C 0.61810 0.91796 0.80165
 C717 C 0.58354 0.89984 0.78509
 C718 C 0.58006 0.90030 0.74473
 C719 C 0.54526 0.91280 0.71998
 C720 C 0.57443 0.93779 0.69504
 H721 H 0.67174 0.95440 0.79145
 H722 H 0.62316 0.91599 0.83260
 H723 H 0.52343 0.93333 0.73554
 H724 H 0.53207 0.88504 0.70473
 H725 H 0.56953 0.97278 0.69613
 H726 H 0.57807 0.92436 0.66549
 C727 C 0.37921 0.97295 0.23006
 C728 C 0.36738 0.95745 0.26653
 C729 C 0.38586 0.91918 0.27916
 C730 C 0.41259 0.89681 0.25528
 C731 C 0.42166 0.91161 0.21778
 C732 C 0.40577 0.95091 0.20656
 C733 C 0.38364 0.96277 0.17058
 C734 C 0.35467 0.98710 0.19622
 H735 H 0.38055 0.90668 0.30794
 H736 H 0.42583 0.86765 0.26620
 H737 H 0.36988 0.93484 0.15602
 H738 H 0.40160 0.98381 0.15141
 H739 H 0.32396 0.97359 0.19647
 H740 H 0.35641 1.02199 0.19148
 C741 C 0.62081 0.09046 0.27002
 C742 C 0.64026 0.05403 0.25613
 C743 C 0.63609 0.04502 0.21630
 C744 C 0.60821 0.06765 0.19341
 C745 C 0.58480 0.10047 0.20971
 C746 C 0.59385 0.11305 0.24748
 C747 C 0.56709 0.12155 0.28119
 C748 C 0.59700 0.09710 0.30603
 H749 H 0.65324 0.01976 0.20311
 H750 H 0.60394 0.05836 0.16350
 H751 H 0.53765 0.10536 0.27852
 H752 H 0.56556 0.15598 0.28837
 H753 H 0.58489 0.06700 0.31821
 H754 H 0.61296 0.11760 0.32721
 C755 C 0.39717 0.02241 0.75523
 C756 C 0.35936 0.03798 0.74421
 C757 C 0.34802 0.07801 0.75989
 C758 C 0.37437 0.10148 0.78352
 C759 C 0.41246 0.08532 0.79260
 C760 C 0.42253 0.04487 0.77944
 C761 C 0.45891 0.03129 0.75773
 C762 C 0.43121 0.00679 0.73106
 H763 H 0.31864 0.09126 0.75440
 H764 H 0.36517 0.13229 0.79437
 H765 H 0.47867 0.01036 0.77544
 H766 H 0.47429 0.05828 0.74318
 H767 H 0.43576 -0.02807 0.73355
 H768 H 0.43037 0.01946 0.70096
 C769 C 0.62455 0.78402 0.03610
 C770 C 0.63295 0.74109 0.04341
 C771 C 0.60968 0.72021 0.07169
 C772 C 0.58220 0.74307 0.09443
 C773 C 0.57724 0.78732 0.08930
 C774 C 0.59714 0.80649 0.05819
 C775 C 0.62197 0.84594 0.05681
 C776 C 0.65188 0.82117 0.03242
 H777 H 0.61359 0.68646 0.07698
 H778 H 0.56570 0.72627 0.11666
 H779 H 0.63378 0.85507 0.08576
 H780 H 0.60691 0.87201 0.04050
 H781 H 0.68108 0.81588 0.04714
 H782 H 0.65380 0.83282 0.00204
 C783 C 0.39013 0.25861 0.04467
 C784 C 0.35029 0.24517 0.04499
 C785 C 0.34045 0.20944 0.06781
 C786 C 0.36979 0.18963 0.09117
 C787 C 0.40874 0.20655 0.09323
 C788 C 0.41866 0.23978 0.06819
 C789 C 0.43856 0.28134 0.07619
 C790 C 0.40723 0.30197 0.05016
 H791 H 0.31021 0.19717 0.06770
 H792 H 0.36176 0.16227 0.10863
 H793 H 0.46924 0.28273 0.06392
 H794 H 0.43611 0.29104 0.10706
 H795 H 0.41984 0.31499 0.02283
 H796 H 0.38658 0.32368 0.06586
 C797 C 0.61860 0.26892 0.91981
 C798 C 0.63616 0.25202 0.95333
 C799 C 0.62958 0.20852 0.96128
 C800 C 0.60179 0.18504 0.93915
 C801 C 0.58074 0.20449 0.90825
 C802 C 0.59168 0.24585 0.89787
 C803 C 0.56628 0.28413 0.89018
 C804 C 0.59601 0.30947 0.91418
 H805 H 0.64452 0.19324 0.98547
 H806 H 0.59575 0.15233 0.94713
 H807 H 0.53620 0.28178 0.90373
 H808 H 0.56623 0.29321 0.85904
 H809 H 0.58323 0.32195 0.94162
 H810 H 0.61313 0.33297 0.89678
 C811 C 0.37980 0.72482 0.92521
 C812 C 0.36080 0.74424 0.95666
 C813 C 0.36507 0.78877 0.96024
 C814 C 0.39368 0.81067 0.93764
 C815 C 0.41703 0.78860 0.91008
 C816 C 0.40706 0.74629 0.90261
 C817 C 0.43259 0.70759 0.89774
 C818 C 0.40206 0.68375 0.92221
 H819 H 0.34835 0.80596 0.98203
 H820 H 0.39840 0.84430 0.94266
 H821 H 0.46227 0.71076 0.91206
 H822 H 0.43348 0.69665 0.86716
 H823 H 0.41402 0.67241 0.95047
 H824 H 0.38503 0.65959 0.90552
 C825 C 0.77847 0.96125 0.36793
 C826 C 0.73753 0.95475 0.36262
 C827 C 0.72039 0.92140 0.38475
 C828 C 0.74360 0.89792 0.41188
 C829 C 0.78458 0.90726 0.41784
 C830 C 0.80052 0.93909 0.39439
 C831 C 0.83774 0.96340 0.38639
 C832 C 0.81294 0.98851 0.35635
 H833 H 0.68880 0.91443 0.38208
 H834 H 0.72908 0.87351 0.42899
 H835 H 0.86144 0.94315 0.37335
 H836 H 0.84724 0.98289 0.41160
 H837 H 0.82230 0.98275 0.32594
 H838 H 0.80900 1.02248 0.36427
 C839 C 0.24412 0.90712 0.64395
 C840 C 0.26484 0.94459 0.63477
 C841 C 0.27009 0.95383 0.59502
 C842 C 0.24799 0.93164 0.56680
 C843 C 0.22209 0.89852 0.57777
 C844 C 0.22329 0.88462 0.61612
 C845 C 0.19061 0.87342 0.64369
 C846 C 0.21400 0.89751 0.67458
 H847 H 0.28911 0.97987 0.58600
 H848 H 0.25005 0.94132 0.53678
 H849 H 0.18906 0.83860 0.64927
 H850 H 0.16164 0.88877 0.63596
 H851 H 0.22646 0.87632 0.69747
 H852 H 0.19842 0.92626 0.68558
 C853 C 0.22653 0.03570 0.38151
 C854 C 0.26667 0.04576 0.37475
 C855 C 0.28395 0.07784 0.39788
 C856 C 0.26059 0.10106 0.42438
 C857 C 0.21944 0.09248 0.42864
 C858 C 0.20366 0.05800 0.40809
 C859 C 0.16731 0.05545 0.38297
 C860 C 0.19255 0.03083 0.35396
 H861 H 0.31542 0.08531 0.39513
 H862 H 0.27466 0.12596 0.44118
 H863 H 0.15744 0.08716 0.37213
 H864 H 0.14338 0.03585 0.39638
 H865 H 0.19742 0.04820 0.32627
 H866 H 0.18332 -0.00298 0.35091
 C867 C 0.73953 0.09272 0.64094
 C868 C 0.72052 0.05490 0.63003
 C869 C 0.71895 0.04562 0.59005
 C870 C 0.74265 0.06869 0.56363
 C871 C 0.76679 0.10247 0.57657
 C872 C 0.76221 0.11598 0.61479
 C873 C 0.79303 0.12588 0.64469
 C874 C 0.76774 0.10111 0.67350
 H875 H 0.70185 0.01875 0.57963
 H876 H 0.74361 0.05886 0.53361
 H877 H 0.79447 0.16049 0.65113
 H878 H 0.82214 0.11021 0.63839
 H879 H 0.75405 0.12158 0.69611
 H880 H 0.78247 0.07176 0.68458
 C881 C 0.91240 0.64563 0.24903
 C882 C 0.94977 0.63523 0.26493
 C883 C 0.96091 0.59179 0.26490
 C884 C 0.93842 0.56177 0.24380
 C885 C 0.90357 0.57437 0.22384
 C886 C 0.88970 0.61588 0.22915
 C887 C 0.87631 0.64794 0.19986
 C888 C 0.90115 0.68056 0.22173
 H889 H 0.98802 0.58147 0.27940
 H890 H 0.94884 0.52917 0.24209
 H891 H 0.84361 0.65413 0.20149
 H892 H 0.88785 0.64106 0.17033
 H893 H 0.88274 0.70546 0.23602
 H894 H 0.92710 0.69265 0.20490
 C895 C 0.91065 0.37008 0.73355
 C896 C 0.94451 0.34893 0.74789
 C897 C 0.95140 0.35091 0.78817
 C898 C 0.93043 0.38068 0.81102
 C899 C 0.90121 0.40751 0.79412
 C900 C 0.88950 0.39863 0.75610
 C901 C 0.88178 0.42754 0.72247
 C902 C 0.90477 0.39588 0.69764
 H903 H 0.97537 0.33254 0.80120
 H904 H 0.93873 0.38436 0.84115
 H905 H 0.89700 0.45881 0.72543
 H906 H 0.84946 0.42934 0.71501
 H907 H 0.93322 0.40871 0.68584
 H908 H 0.88557 0.37926 0.67617
 C909 C 0.05098 0.61042 0.73545
 C910 C 0.04376 0.65132 0.74966
 C911 C 0.05867 0.66186 0.78655
 C912 C 0.08046 0.63172 0.80838
 C913 C 0.08993 0.59172 0.79245
 C914 C 0.07412 0.58144 0.75616
 C915 C 0.09540 0.56697 0.72050
 C916 C 0.06965 0.59814 0.69785
 H917 H 0.05340 0.69326 0.79836
 H918 H 0.09116 0.64016 0.83698
 H919 H 0.08908 0.53326 0.71320
 H920 H 0.12766 0.57555 0.72065
 H921 H 0.04791 0.58232 0.67822
 H922 H 0.08702 0.62447 0.68443
 C923 C 0.02037 0.39444 0.24383
 C924 C 0.03497 0.35340 0.25179
 C925 C 0.06968 0.34046 0.23156
 C926 C 0.09094 0.36939 0.20807
 C927 C 0.07742 0.41155 0.20359
 C928 C 0.04065 0.42249 0.21984
 C929 C 0.02948 0.45999 0.24399
 C930 C 0.00706 0.42923 0.27020
 H931 H 0.08140 0.30854 0.23526
 H932 H 0.11863 0.35933 0.19463
 H933 H 0.00946 0.48235 0.22815
 H934 H 0.05575 0.47503 0.25822
 H935 H -0.02581 0.43418 0.26911
 H936 H 0.02014 0.42640 0.29974
   
