data_POSCAR
  _audit_creation_date              2014-09-24
  _audit_creation_method            'ToBaCCo'
  _symmetry_space_group_name_H-M    'P1'
  _symmetry_Int_Tables_number       1
  _symmetry_cell_setting            triclinic
  loop_
  _symmetry_equiv_pos_as_xyz
 x,y,z
_cell_length_a 38.5868
_cell_length_b 36.7971
_cell_length_c 37.6282
_cell_angle_alpha 85.909200
_cell_angle_beta 94.631300
_cell_angle_gamma 90.621400
loop_
  _atom_site_label
  _atom_site_type_symbol
  _atom_site_fract_x
  _atom_site_fract_y
  _atom_site_fract_z
C1 C 0.30027 0.33409 0.22216
 H2 H 0.30616 0.33535 0.25064
 C3 C 0.32032 0.35404 0.19820
 H4 H 0.34179 0.37032 0.20864
 C5 C 0.26639 0.30932 0.17424
 H6 H 0.24549 0.29171 0.16497
 C7 C 0.28589 0.32851 0.14945
 H8 H 0.27993 0.32532 0.12121
 N9 N 0.27422 0.31191 0.20986
 C10 C 0.19888 0.29280 0.29000
 H11 H 0.19781 0.26335 0.29264
 C12 C 0.17694 0.31297 0.30874
 H13 H 0.15921 0.29836 0.32546
 C14 C 0.22209 0.34687 0.26310
 H15 H 0.23943 0.36005 0.24502
 C16 C 0.20071 0.36810 0.28142
 H17 H 0.20202 0.39751 0.27737
 Zn18 Zn 0.25044 0.28150 0.24280
 N19 N 0.22112 0.30989 0.26794
 C20 C 0.27835 0.24542 0.30896
 N21 N 0.28423 0.25598 0.27457
 C22 C 0.31402 0.24659 0.26062
 C23 C 0.33866 0.22478 0.28090
 C24 C 0.30239 0.22354 0.33034
 C25 C 0.18857 0.24729 0.21295
 C26 C 0.17024 0.22137 0.19322
 C27 C 0.22509 0.19495 0.18235
 C28 C 0.24221 0.22120 0.20221
 N29 N 0.22394 0.24666 0.21715
 H30 H 0.25470 0.25320 0.31978
 H31 H 0.31832 0.25531 0.23328
 H32 H 0.36177 0.21711 0.26872
 H33 H 0.29622 0.21514 0.35718
 H34 H 0.17449 0.26820 0.22442
 H35 H 0.14222 0.22293 0.19036
 H36 H 0.24048 0.17511 0.17070
 H37 H 0.27026 0.22146 0.20536
 C38 C 0.17798 0.35128 0.30487
 C39 C 0.31343 0.35091 0.16129
 C40 C 0.18862 0.19460 0.17749
 C41 C 0.33292 0.21228 0.31611
 C42 C 0.77596 0.82802 0.22465
 H43 H 0.75967 0.84514 0.23838
 C44 C 0.80300 0.84375 0.20606
 H45 H 0.80631 0.87291 0.20605
 C46 C 0.79122 0.76926 0.20964
 H47 H 0.78655 0.74017 0.21138
 C48 C 0.81854 0.78365 0.19093
 H49 H 0.83454 0.76510 0.17830
 N50 N 0.77029 0.79145 0.22565
 C51 C 0.70884 0.79437 0.31238
 H52 H 0.72186 0.77117 0.32651
 C53 C 0.68955 0.81737 0.33112
 H54 H 0.68891 0.81203 0.35971
 C55 C 0.69365 0.82917 0.25805
 H56 H 0.69491 0.83316 0.22942
 C57 C 0.67434 0.85307 0.27581
 H58 H 0.66097 0.87566 0.26074
 Zn59 Zn 0.73464 0.76785 0.25064
 N60 N 0.71066 0.80067 0.27651
 C61 C 0.78140 0.74032 0.30709
 N62 N 0.75665 0.73069 0.28165
 C63 C 0.75020 0.69512 0.27584
 C64 C 0.76922 0.66762 0.29583
 C65 C 0.80072 0.71367 0.32813
 C66 C 0.70656 0.74618 0.18299
 C67 C 0.68349 0.72742 0.16023
 C68 C 0.64913 0.71182 0.21007
 C69 C 0.67314 0.73048 0.23193
 N70 N 0.70159 0.74646 0.21832
 H71 H 0.78666 0.76886 0.31049
 H72 H 0.73116 0.68797 0.25483
 H73 H 0.76403 0.63952 0.29015
 H74 H 0.82067 0.72264 0.34740
 H75 H 0.72873 0.75998 0.17240
 H76 H 0.68856 0.72788 0.13240
 H77 H 0.62710 0.69858 0.22177
 H78 H 0.66959 0.73150 0.26007
 C79 C 0.67171 0.84700 0.31270
 C80 C 0.82487 0.82146 0.18853
 C81 C 0.65462 0.70898 0.17389
 C82 C 0.79504 0.67654 0.32233
 C83 C 0.78699 0.30027 0.73250
 H84 H 0.76862 0.31501 0.74609
 C85 C 0.81189 0.31957 0.71368
 H86 H 0.81208 0.34895 0.71328
 C87 C 0.80988 0.24412 0.71827
 H88 H 0.80894 0.21466 0.72034
 C89 C 0.83516 0.26226 0.69920
 H90 H 0.85358 0.24652 0.68647
 N91 N 0.78590 0.26324 0.73369
 C92 C 0.72262 0.26378 0.81691
 H93 H 0.73745 0.24295 0.83290
 C94 C 0.70289 0.28805 0.83369
 H95 H 0.70365 0.28597 0.86255
 C96 C 0.70436 0.29207 0.76004
 H97 H 0.70521 0.29342 0.73131
 C98 C 0.68447 0.31706 0.77571
 H99 H 0.66996 0.33769 0.75890
 Zn100 Zn 0.75205 0.23572 0.75776
 N101 N 0.72359 0.26669 0.78077
 C102 C 0.79947 0.21683 0.81621
 N103 N 0.77676 0.20278 0.79121
 C104 C 0.77411 0.16626 0.78819
 C105 C 0.79524 0.14226 0.81054
 C106 C 0.82070 0.19384 0.83950
 C107 C 0.72978 0.21128 0.68973
 C108 C 0.70944 0.19120 0.66577
 C109 C 0.67457 0.17026 0.71375
 C110 C 0.69599 0.19042 0.73694
 N111 N 0.72322 0.21001 0.72475
 H112 H 0.80151 0.24605 0.81761
 H113 H 0.75628 0.15566 0.76779
 H114 H 0.79211 0.11348 0.80722
 H115 H 0.83884 0.20578 0.85895
 H116 H 0.75094 0.22765 0.68022
 H117 H 0.71564 0.19224 0.63812
 H118 H 0.65377 0.15439 0.72476
 H119 H 0.69120 0.19009 0.76491
 C120 C 0.68366 0.31532 0.81296
 C121 C 0.83603 0.30046 0.69613
 C122 C 0.68141 0.17017 0.67749
 C123 C 0.81954 0.15601 0.83637
 C124 C 0.28021 0.80493 0.73290
 H125 H 0.28594 0.80661 0.76136
 C126 C 0.29863 0.82674 0.70879
 H127 H 0.31844 0.84505 0.71916
 C128 C 0.24951 0.77653 0.68522
 H129 H 0.23124 0.75620 0.67599
 C130 C 0.26734 0.79761 0.66030
 H131 H 0.26220 0.79347 0.63214
 N132 N 0.25640 0.78020 0.72081
 C133 C 0.18714 0.74606 0.80361
 H134 H 0.18828 0.71688 0.80184
 C135 C 0.16473 0.76055 0.82621
 H136 H 0.14866 0.74241 0.84192
 C137 C 0.20646 0.80520 0.78494
 H138 H 0.22237 0.82251 0.76841
 C139 C 0.18474 0.82084 0.80757
 H140 H 0.18400 0.85020 0.80790
 Zn141 Zn 0.23694 0.74601 0.75393
 N142 N 0.20760 0.76839 0.78377
 C143 C 0.27541 0.71836 0.81791
 N144 N 0.27438 0.72256 0.78166
 C145 C 0.30047 0.71015 0.76369
 C146 C 0.32847 0.69144 0.78201
 C147 C 0.30295 0.69976 0.83740
 C148 C 0.17966 0.72199 0.71067
 C149 C 0.16010 0.69791 0.68992
 C150 C 0.20334 0.65168 0.70746
 C151 C 0.22182 0.67654 0.72807
 N152 N 0.21019 0.71119 0.72869
 H153 H 0.25471 0.72899 0.83178
 H154 H 0.29920 0.71435 0.73486
 H155 H 0.34819 0.68187 0.76626
 H156 H 0.30290 0.69620 0.86624
 H157 H 0.17091 0.74969 0.71180
 H158 H 0.13655 0.70803 0.67527
 H159 H 0.21361 0.62445 0.70683
 H160 H 0.24578 0.66816 0.74303
 C161 C 0.16377 0.79830 0.82882
 C162 C 0.29257 0.82273 0.67191
 C163 C 0.17217 0.66216 0.68765
 C164 C 0.32985 0.68544 0.81957
 C165 C 0.04488 -0.04072 -0.00115
 C166 C 0.06359 -0.01091 0.01916
 C167 C 0.04112 0.01246 0.03494
 C168 C 0.00265 0.00237 0.02793
 C169 C 0.02283 -0.06094 0.02590
 C170 C -0.00020 -0.03781 0.04151
 C171 C 0.01904 -0.02071 -0.02826
 C172 C -0.00405 0.00226 -0.01278
 H173 H 0.09160 -0.00888 0.02156
 H174 H -0.01518 0.02057 0.04012
 H175 H 0.02457 -0.09007 0.03176
 H176 H 0.01924 -0.02356 -0.05664
 C177 C 0.01505 0.46336 0.47534
 C178 C 0.03778 0.48911 0.49735
 C179 C 0.01867 0.51122 0.51824
 C180 C -0.02060 0.50431 0.51391
 C181 C -0.00574 0.44156 0.50238
 C182 C -0.02493 0.46341 0.52336
 C183 C -0.01164 0.48754 0.45301
 C184 C -0.03076 0.50984 0.47370
 H185 H 0.06568 0.49039 0.49632
 H186 H -0.03567 0.52154 0.53022
 H187 H -0.00639 0.41213 0.50407
 H188 H -0.01430 0.48839 0.42414
 C189 C 0.51099 -0.03297 0.48019
 C190 C 0.53484 -0.01208 0.50596
 C191 C 0.51690 0.01135 0.52658
 C192 C 0.47735 0.01022 0.51847
 C193 C 0.48524 -0.05305 0.50341
 C194 C 0.46699 -0.02996 0.52410
 C195 C 0.48946 -0.00397 0.45757
 C196 C 0.47140 0.01956 0.47805
 H197 H 0.56267 -0.01598 0.50856
 H198 H 0.46318 0.02846 0.53460
 H199 H 0.48239 -0.08235 0.50455
 H200 H 0.48758 -0.00275 0.42870
 C201 C 0.54358 0.46878 -0.02725
 C202 C 0.56726 0.49384 -0.00568
 C203 C 0.54938 0.52079 0.01063
 C204 C 0.50961 0.51876 0.00287
 C205 C 0.51802 0.45297 -0.00143
 C206 C 0.49933 0.47962 0.01466
 C207 C 0.52186 0.49392 -0.05405
 C208 C 0.50372 0.52115 -0.03809
 H209 H 0.59535 0.49175 -0.00365
 H210 H 0.49475 0.53955 0.01511
 H211 H 0.51557 0.42394 0.00459
 H212 H 0.51944 0.48966 -0.08226
 C213 C 0.14029 -0.18667 -0.14678
 C214 C 0.14780 -0.15459 -0.13003
 C215 C 0.12467 -0.13966 -0.10554
 N216 N 0.13555 -0.11101 -0.08674
 N217 N 0.11480 -0.09648 -0.06503
 C218 C 0.08229 -0.10999 -0.06132
 N219 N 0.07135 -0.13868 -0.08013
 N220 N 0.09219 -0.15334 -0.10177
 C221 C 0.05861 -0.09274 -0.03878
 C222 C 0.06972 -0.06411 -0.01825
 H223 H 0.17200 -0.14031 -0.13408
 H224 H 0.03159 -0.10121 -0.03982
 H225 H 0.11754 -0.20246 -0.14013
 H226 H 0.09685 -0.05602 -0.01738
 C227 C 0.15567 0.37461 0.32403
 C228 C 0.13708 0.36191 0.35278
 C229 C 0.11570 0.38602 0.37152
 N230 N 0.09759 0.37182 0.39870
 N231 N 0.07823 0.39313 0.41620
 C232 C 0.07627 0.42951 0.40722
 N233 N 0.09440 0.44376 0.38004
 N234 N 0.11374 0.42241 0.36247
 C235 C 0.05522 0.45330 0.42669
 C236 C 0.03541 0.43932 0.45393
 H237 H 0.13840 0.33363 0.36266
 H238 H 0.05540 0.48238 0.41972
 H239 H 0.15465 0.40341 0.31570
 H240 H 0.03554 0.41024 0.46090
 C241 C 0.65058 -0.12798 0.33116
 C242 C 0.63425 -0.13900 0.36195
 C243 C 0.61283 -0.11428 0.38000
 N244 N 0.59419 -0.12778 0.40708
 N245 N 0.57483 -0.10588 0.42396
 C246 C 0.57346 -0.06958 0.41450
 N247 N 0.59221 -0.05602 0.38750
 N248 N 0.61149 -0.07796 0.37050
 C249 C 0.55255 -0.04501 0.43333
 C250 C 0.53041 -0.05809 0.45892
 H251 H 0.63609 -0.16705 0.37268
 H252 H 0.55463 -0.01592 0.42704
 H253 H 0.64609 -0.10070 0.31895
 H254 H 0.52869 -0.08719 0.46539
 C255 C 0.66397 0.34316 -0.17070
 C256 C 0.65183 0.33782 -0.13679
 C257 C 0.63386 0.36659 -0.12042
 N258 N 0.61879 0.35869 -0.08944
 N259 N 0.60260 0.38448 -0.07409
 C260 C 0.60109 0.41919 -0.08904
 N261 N 0.61635 0.42716 -0.11991
 N262 N 0.63242 0.40132 -0.13535
 C263 C 0.58296 0.44780 -0.07256
 C264 C 0.56288 0.43981 -0.04382
 H265 H 0.65476 0.31162 -0.12193
 H266 H 0.58449 0.47560 -0.08396
 H267 H 0.65811 0.36852 -0.18638
 H268 H 0.56187 0.41206 -0.03220
 C269 C -0.15684 0.13383 -0.14158
 C270 C -0.15050 0.09720 -0.14635
 C271 C -0.12289 0.07650 -0.12481
 N272 N -0.11108 0.04533 -0.13665
 N273 N -0.08541 0.02667 -0.11816
 C274 C -0.07081 0.03827 -0.08693
 N275 N -0.08278 0.06932 -0.07484
 N276 N -0.10830 0.08816 -0.09351
 C277 C -0.04199 0.01757 -0.06753
 C278 C -0.03115 0.02220 -0.03178
 H279 H -0.16354 0.08375 -0.16829
 H280 H -0.03055 -0.00320 -0.08170
 H281 H -0.14073 0.14656 -0.12095
 H282 H -0.04545 0.04079 -0.01742
 C283 C -0.18493 0.64821 0.34050
 C284 C -0.16058 0.65233 0.36958
 C285 C -0.13763 0.62228 0.38424
 N286 N -0.11983 0.62419 0.41666
 N287 N -0.09815 0.59767 0.42970
 C288 C -0.09325 0.56841 0.41064
 N289 N -0.11087 0.56662 0.37812
 N290 N -0.13275 0.59299 0.36521
 C291 C -0.06852 0.53952 0.42409
 C292 C -0.05571 0.53558 0.45994
 H293 H -0.15830 0.67756 0.38262
 H294 H -0.06128 0.52061 0.40530
 H295 H -0.18862 0.62105 0.33134
 H296 H -0.06605 0.55301 0.47850
 C297 C 0.35727 0.18813 0.33469
 C298 C 0.35545 0.17292 0.36969
 C299 C 0.37986 0.14436 0.38514
 N300 N 0.37937 0.13204 0.41998
 N301 N 0.40062 0.10542 0.43385
 C302 C 0.42302 0.09005 0.41329
 N303 N 0.42345 0.10233 0.37848
 N304 N 0.40232 0.12899 0.36468
 C305 C 0.44614 0.06001 0.42758
 C306 C 0.44996 0.04848 0.46389
 H307 H 0.33583 0.18120 0.38630
 H308 H 0.46094 0.04750 0.40860
 H309 H 0.37887 0.17994 0.32039
 H310 H 0.43622 0.06308 0.48238
 C311 C 0.35636 0.66526 -0.16014
 C312 C 0.38379 0.64824 -0.17450
 C313 C 0.40891 0.62454 -0.15265
 N314 N 0.43276 0.60632 -0.16900
 N315 N 0.45508 0.58373 -0.15011
 C316 C 0.45450 0.57856 -0.11412
 N317 N 0.43078 0.59693 -0.09761
 N318 N 0.40834 0.61951 -0.11656
 C319 C 0.47870 0.55241 -0.09429
 C320 C 0.48190 0.54736 -0.05699
 H321 H 0.38688 0.65065 -0.20280
 H322 H 0.49467 0.53720 -0.11020
 H323 H 0.35489 0.66174 -0.13145
 H324 H 0.46735 0.56492 -0.04178
 C325 C -0.14859 -0.16569 0.16966
 C326 C -0.13922 -0.12895 0.16365
 C327 C -0.11033 -0.11779 0.14179
 N328 N -0.10394 -0.08190 0.13390
 N329 N -0.07834 -0.07146 0.11362
 C330 C -0.05809 -0.09655 0.10056
 N331 N -0.06433 -0.13241 0.10866
 N332 N -0.08995 -0.14284 0.12886
 C333 C -0.03024 -0.08565 0.07734
 C334 C -0.02463 -0.04931 0.06563
 H335 H -0.15333 -0.10738 0.17396
 H336 H -0.01491 -0.10720 0.06857
 H337 H -0.13332 -0.18538 0.15761
 H338 H -0.04077 -0.02861 0.07489
 C339 C -0.13776 0.31879 0.67429
 C340 C -0.13860 0.35562 0.66231
 C341 C -0.11411 0.37097 0.63714
 N342 N -0.11552 0.40683 0.62581
 N343 N -0.09424 0.42065 0.60203
 C344 C -0.07085 0.39901 0.58869
 N345 N -0.06941 0.36323 0.60010
 N346 N -0.09060 0.34948 0.62388
 C347 C -0.04785 0.41306 0.56159
 C348 C -0.04593 0.44994 0.55009
 H349 H -0.15836 0.37345 0.66991
 H350 H -0.03178 0.39322 0.55106
 H351 H -0.11787 0.30178 0.66540
 H352 H -0.06088 0.46932 0.56281
 C353 C 0.31393 -0.15870 0.64503
 C354 C 0.33462 -0.12797 0.65072
 C355 C 0.35846 -0.11404 0.62416
 N356 N 0.37445 -0.08122 0.62717
 N357 N 0.39675 -0.06904 0.60368
 C358 C 0.40402 -0.08940 0.57648
 N359 N 0.38815 -0.12223 0.57362
 N360 N 0.36576 -0.13427 0.59692
 C361 C 0.42931 -0.07730 0.55082
 C362 C 0.44224 -0.04168 0.54782
 H363 H 0.33351 -0.11384 0.67484
 H364 H 0.43678 -0.09722 0.53316
 H365 H 0.31355 -0.17024 0.61929
 H366 H 0.43205 -0.02172 0.56399
 C367 C 0.33605 0.36758 0.13465
 C368 C 0.35824 0.39717 0.14041
 C369 C 0.38367 0.40854 0.11460
 N370 N 0.40099 0.44075 0.11677
 N371 N 0.42485 0.45039 0.09404
 C372 C 0.43237 0.42795 0.06857
 N373 N 0.41517 0.39577 0.06659
 N374 N 0.39123 0.38629 0.08906
 C375 C 0.45945 0.43680 0.04403
 C376 C 0.47348 0.47170 0.03827
 H377 H 0.35726 0.41202 0.16411
 H378 H 0.46694 0.41483 0.02873
 H379 H 0.33541 0.35553 0.10914
 H380 H 0.46287 0.49396 0.05124
 C381 C 0.17263 0.16774 0.15684
 C382 C 0.13678 0.16285 0.14933
 C383 C 0.12341 0.13389 0.12662
 N384 N 0.08866 0.12788 0.12083
 N385 N 0.07666 0.10159 0.10035
 C386 C 0.09904 0.08046 0.08492
 N387 N 0.13366 0.08658 0.09066
 N388 N 0.14560 0.11273 0.11108
 C389 C 0.08708 0.05103 0.06242
 C390 C 0.05213 0.04144 0.05556
 H391 H 0.11805 0.17982 0.16000
 H392 H 0.10733 0.03649 0.05136
 H393 H 0.18970 0.14910 0.14571
 H394 H 0.03249 0.05689 0.06683
 C395 C 0.15528 0.63688 0.66572
 C396 C 0.12305 0.64218 0.64627
 C397 C 0.10885 0.61555 0.62149
 N398 N 0.07510 0.61755 0.60829
 N399 N 0.06210 0.59382 0.58551
 C400 C 0.08249 0.56741 0.57488
 N401 N 0.11630 0.56563 0.58783
 N402 N 0.12923 0.58919 0.61077
 C403 C 0.06870 0.54104 0.54967
 C404 C 0.03305 0.53661 0.54131
 H405 H 0.10723 0.66560 0.64935
 H406 H 0.08730 0.52382 0.53909
 H407 H 0.16824 0.61119 0.66370
 H408 H 0.01524 0.55280 0.55436
 C409 C 0.66226 0.14936 0.65271
 C410 C 0.63166 0.13005 0.65899
 C411 C 0.61502 0.10680 0.63218
 N412 N 0.58162 0.09546 0.63440
 N413 N 0.56653 0.07415 0.61036
 C414 C 0.58444 0.06317 0.58341
 N415 N 0.61791 0.07422 0.58143
 N416 N 0.63288 0.09572 0.60527
 C417 C 0.56861 0.03925 0.55686
 C418 C 0.53271 0.03372 0.55190
 H419 H 0.61876 0.13252 0.68314
 H420 H 0.58597 0.02739 0.53979
 H421 H 0.67171 0.14856 0.62641
 H422 H 0.51597 0.04848 0.56753
 C423 C 0.63162 0.68734 0.15326
 C424 C 0.63774 0.67639 0.11947
 C425 C 0.61492 0.65033 0.10085
 N426 N 0.62693 0.63269 0.07393
 N427 N 0.60722 0.60813 0.05739
 C428 C 0.57461 0.60042 0.06696
 N429 N 0.56233 0.61848 0.09353
 N430 N 0.58219 0.64287 0.11031
 C431 C 0.55291 0.57295 0.04897
 C432 C 0.56791 0.54689 0.02986
 H433 H 0.66141 0.68398 0.10731
 H434 H 0.52538 0.57264 0.05235
 H435 H 0.60885 0.67622 0.16535
 H436 H 0.59603 0.54641 0.03025
   
