data_POSCAR
  _audit_creation_date              2014-09-24
  _audit_creation_method            'ToBaCCo'
  _symmetry_space_group_name_H-M    'P1'
  _symmetry_Int_Tables_number       1
  _symmetry_cell_setting            triclinic
  loop_
  _symmetry_equiv_pos_as_xyz
 x,y,z
_cell_length_a 25.8944
_cell_length_b 25.8956
_cell_length_c 26.0021
_cell_angle_alpha 89.205400
_cell_angle_beta 90.782000
_cell_angle_gamma 92.537400
loop_
  _atom_site_label
  _atom_site_type_symbol
  _atom_site_fract_x
  _atom_site_fract_y
  _atom_site_fract_z
Si1 Si -0.00255 0.50020 0.24934
 Si2 Si 0.00434 0.50546 0.74957
 Si3 Si 0.24631 -0.01253 0.50296
 Si4 Si 0.75254 0.00800 0.49670
 Si5 Si 0.51095 0.25418 1.00408
 Si6 Si 0.48890 0.74682 0.99680
 B7 B 1.00073 1.05565 0.03104
 B8 B 0.99912 1.05484 -0.03395
 B9 B 1.05299 1.03743 -0.00155
 B10 B 1.03410 1.00440 0.05217
 B11 B 0.96877 1.00128 0.05302
 B12 B 0.94689 1.03231 -0.00032
 B13 B 0.99943 0.94888 -0.03133
 B14 B 1.00099 0.94974 0.03361
 B15 B 0.94711 0.96712 0.00117
 B16 B 0.96611 1.00014 -0.05253
 B17 B 1.03145 1.00321 -0.05333
 B18 B 1.05333 0.97217 0.00005
 B19 B 0.55234 0.49804 0.46767
 B20 B 0.55372 0.49740 0.53267
 B21 B 0.53486 0.55069 0.50003
 B22 B 0.50023 0.53068 0.44760
 B23 B 0.49740 0.46517 0.44815
 B24 B 0.53049 0.44454 0.50065
 B25 B 0.44780 0.49727 0.53357
 B26 B 0.44625 0.49735 0.46861
 B27 B 0.46531 0.44430 0.50134
 B28 B 0.49990 0.46456 0.55359
 B29 B 0.50251 0.52985 0.55325
 B30 B 0.46948 0.55056 0.50040
 N31 N 1.03768 1.36251 0.19638
 C32 C 0.99700 1.34681 0.16633
 N33 N 0.95707 1.37853 0.15927
 N34 N 0.95763 1.42437 0.18214
 C35 C 0.99823 1.43986 0.21259
 N36 N 1.03821 1.40822 0.21919
 C37 C 0.99610 1.29664 0.14351
 C38 C 0.99668 1.25425 0.12501
 C39 C 0.99859 1.20402 0.10272
 N40 N 0.97259 1.16260 0.12401
 N41 N 0.97404 1.11621 0.10261
 C42 C 1.00161 1.10961 0.05932
 N43 N 1.02804 1.15116 0.03864
 N44 N 1.02663 1.19750 0.05993
 N45 N 0.95613 0.61698 0.15462
 C46 C 0.99737 0.65106 0.15778
 N47 N 1.03981 0.63771 0.18488
 N48 N 1.04062 0.59221 0.20911
 C49 C 0.99924 0.55838 0.20704
 N50 N 0.95707 0.57128 0.17888
 C51 C 0.99535 0.70220 0.13646
 C52 C 0.99557 0.74604 0.12042
 C53 C 0.99760 0.79844 0.10204
 N54 N 1.04217 0.81973 0.08298
 N55 N 1.04386 0.86782 0.06417
 C56 C 1.00125 0.89651 0.06421
 N57 N 0.95685 0.87519 0.08402
 N58 N 0.95507 0.82706 0.10286
 N59 N 0.96328 1.38333 -0.15934
 C60 C 1.00376 1.35214 -0.16358
 N61 N 1.04545 1.36895 -0.19098
 N62 N 1.04637 1.41513 -0.21413
 C63 C 1.00580 1.44618 -0.21047
 N64 N 0.96424 1.42964 -0.18252
 C65 C 1.00153 1.30070 -0.14222
 C66 C 1.00031 1.25703 -0.12546
 C67 C 0.99922 1.20498 -0.10573
 N68 N 1.04248 1.17733 -0.10564
 N69 N 1.04195 1.12977 -0.08534
 C70 C 0.99808 1.10806 -0.06478
 N71 N 0.95481 1.13585 -0.06539
 N72 N 0.95526 1.18336 -0.08565
 N73 N 1.00562 0.61346 -0.13902
 C74 C 1.00604 0.65837 -0.16670
 N75 N 1.00648 0.65663 -0.21866
 N76 N 1.00641 0.61147 -0.24235
 C77 C 1.00591 0.56654 -0.21495
 N78 N 1.00557 0.56810 -0.16282
 C79 C 1.00499 0.70743 -0.14203
 C80 C 1.00364 0.74953 -0.12314
 C81 C 1.00156 0.79991 -0.10142
 N82 N 1.02862 0.84082 -0.12242
 N83 N 1.02713 0.88747 -0.10161
 C84 C 0.99843 0.89481 -0.05925
 N85 N 0.97093 0.85376 -0.03890
 N86 N 0.97237 0.80717 -0.05959
 N87 N 1.15916 1.03499 0.38267
 C88 C 1.16358 0.99666 0.34810
 N89 N 1.19018 0.95460 0.36165
 N90 N 1.21231 0.95121 0.40799
 C91 C 1.20834 0.98957 0.44250
 N92 N 1.18132 1.03156 0.42915
 C93 C 1.14262 1.00114 0.29693
 C94 C 1.12607 1.00355 0.25343
 C95 C 1.10651 1.00502 0.20154
 N96 N 1.10600 0.96206 0.17231
 N97 N 1.08558 0.96255 0.12502
 C98 C 1.06528 1.00606 0.10510
 N99 N 1.06632 1.04911 0.13444
 N100 N 1.08671 1.04870 0.18174
 N101 N 1.15435 1.02774 -0.38143
 C102 C 1.16096 0.98984 -0.34568
 N103 N 1.19022 0.94958 -0.35725
 N104 N 1.21291 0.94771 -0.40280
 C105 C 1.20689 0.98584 -0.43839
 N106 N 1.17707 1.02584 -0.42705
 C107 C 1.13978 0.99358 -0.29521
 C108 C 1.12270 0.99671 -0.25250
 C109 C 1.10197 1.00039 -0.20184
 N110 N 1.12285 0.97447 -0.16149
 N111 N 1.10206 0.97638 -0.11495
 C112 C 1.05972 1.00426 -0.10717
 N113 N 1.03955 1.03070 -0.14763
 N114 N 1.06024 1.02885 -0.19409
 N115 N 0.78407 1.01054 0.34641
 C116 C 0.83618 1.00959 0.34425
 N117 N 0.86426 1.00897 0.38880
 N118 N 0.84070 1.00916 0.43418
 C119 C 0.78839 1.00998 0.43610
 N120 N 0.76064 1.01070 0.39156
 C121 C 0.86043 1.00803 0.29507
 C122 C 0.87872 1.00622 0.25279
 C123 C 0.89971 1.00361 0.20218
 N124 N 0.94167 0.97563 0.19406
 N125 N 0.96187 0.97394 0.14737
 C126 C 0.94091 0.99998 0.10705
 N127 N 0.89833 1.02736 0.11522
 N128 N 0.87802 1.02909 0.16198
 N129 N 0.78300 1.00564 -0.35195
 C130 C 0.83514 1.00561 -0.34804
 N131 N 0.86358 1.00695 -0.39165
 N132 N 0.84032 1.00814 -0.43782
 C133 C 0.78797 1.00808 -0.44149
 N134 N 0.75987 1.00682 -0.39787
 C135 C 0.85905 1.00385 -0.29796
 C136 C 0.87668 1.00234 -0.25484
 C137 C 0.89632 1.00076 -0.20299
 N138 N 0.91658 0.95715 -0.18354
 N139 N 0.93598 0.95623 -0.13584
 C140 C 0.93537 0.99862 -0.10570
 N141 N 0.91447 1.04200 -0.12524
 N142 N 0.89504 1.04300 -0.17293
 N143 N 1.39490 1.14362 0.00246
 C144 C 1.35210 1.17220 0.00068
 N145 N 1.35781 1.22437 -0.00044
 N146 N 1.40471 1.24739 0.00030
 C147 C 1.44755 1.21914 0.00213
 N148 N 1.44204 1.16677 0.00320
 C149 C 1.30104 1.14835 0.00010
 C150 C 1.25725 1.13053 -0.00052
 C151 C 1.20479 1.11031 -0.00151
 N152 N 1.17568 1.11045 0.04143
 N153 N 1.12749 1.09013 0.04081
 C154 C 1.10657 1.06943 -0.00285
 N155 N 1.13576 1.07002 -0.04586
 N156 N 1.18391 1.09031 -0.04532
 N157 N 0.61284 1.13949 0.00384
 C158 C 0.65911 1.16633 0.00631
 N159 N 0.65996 1.21851 0.00862
 N160 N 0.61606 1.24322 0.00838
 C161 C 0.56980 1.21671 0.00585
 N162 N 0.56872 1.16434 0.00363
 C163 C 0.70705 1.14075 0.00545
 C164 C 0.74858 1.12161 0.00435
 C165 C 0.79858 1.10012 0.00259
 N166 N 0.83929 1.12229 0.02872
 N167 N 0.88569 1.10209 0.02714
 C168 C 0.89300 1.05916 -0.00076
 N169 N 0.85215 1.03757 -0.02728
 N170 N 0.80580 1.05766 -0.02574
 N171 N 1.37847 0.84527 0.03517
 C172 C 1.34310 0.83959 -0.00363
 N173 N 1.35353 0.80900 -0.04364
 N174 N 1.39741 0.78416 -0.04446
 C175 C 1.43263 0.78911 -0.00556
 N176 N 1.42252 0.82037 0.03425
 C177 C 1.29380 0.86296 -0.00137
 C178 C 1.25174 0.88127 -0.00027
 C179 C 1.20153 0.90286 0.00068
 N180 N 1.16098 0.88053 -0.02565
 N181 N 1.11475 0.90131 -0.02544
 C182 C 1.10742 0.94514 0.00110
 N183 N 1.14814 0.96701 0.02763
 N184 N 1.19430 0.94634 0.02747
 N185 N 0.64277 0.77601 0.00051
 C186 C 0.64863 0.82820 -0.00156
 N187 N 0.60583 0.85676 -0.00404
 N188 N 0.55865 0.83366 -0.00447
 C189 C 0.55296 0.78130 -0.00241
 N190 N 0.59579 0.75302 0.00008
 C191 C 0.69979 0.85229 -0.00102
 C192 C 0.74342 0.87085 -0.00036
 C193 C 0.79564 0.89228 0.00069
 N194 N 0.81607 0.91288 0.04447
 N195 N 0.86391 0.93405 0.04510
 C196 C 0.89332 0.93502 0.00220
 N197 N 0.87277 0.91397 -0.04149
 N198 N 0.82490 0.89276 -0.04219
 N199 N 0.85870 0.53856 0.30131
 C200 C 0.84294 0.49735 0.33063
 N201 N 0.87501 0.45769 0.33767
 N202 N 0.92120 0.45901 0.31542
 C203 C 0.93674 0.50013 0.28567
 N204 N 0.90476 0.53983 0.27912
 C205 C 0.79249 0.49576 0.35295
 C206 C 0.74996 0.49590 0.37125
 C207 C 0.69973 0.49751 0.39368
 N208 N 0.65892 0.46900 0.37436
 N209 N 0.61270 0.47000 0.39626
 C210 C 0.60567 0.49959 0.43808
 N211 N 0.64657 0.52856 0.45669
 N212 N 0.69271 0.52761 0.43492
 N213 N 0.13563 0.54237 0.31276
 C214 C 0.14858 0.50026 0.34059
 N215 N 0.11402 0.45947 0.34461
 N216 N 0.06827 0.46047 0.32046
 C217 C 0.05574 0.50228 0.29159
 N218 N 0.09005 0.54325 0.28865
 C219 C 0.19966 0.49787 0.36210
 C220 C 0.24318 0.49663 0.37885
 C221 C 0.29491 0.49535 0.39892
 N222 N 0.30607 0.46200 0.43753
 N223 N 0.35350 0.46204 0.45777
 C224 C 0.39155 0.49526 0.44030
 N225 N 0.38038 0.52814 0.40101
 N226 N 0.33284 0.52820 0.38064
 N227 N 0.86476 0.54064 0.69344
 C228 C 0.85003 0.49950 0.66433
 N229 N 0.88296 0.46062 0.65891
 N230 N 0.92914 0.46274 0.68237
 C231 C 0.94370 0.50389 0.71179
 N232 N 0.91078 0.54272 0.71684
 C233 C 0.79930 0.49669 0.64158
 C234 C 0.75612 0.49576 0.62374
 C235 C 0.70455 0.49576 0.60308
 N236 N 0.68090 0.45141 0.58614
 N237 N 0.63343 0.45180 0.56586
 C238 C 0.60775 0.49633 0.56210
 N239 N 0.63163 0.54060 0.57933
 N240 N 0.67912 0.54033 0.59964
 N241 N 0.14398 0.54552 0.69243
 C242 C 0.15473 0.50521 0.66234
 N243 N 0.11847 0.46635 0.65564
 N244 N 0.07306 0.46747 0.67905
 C245 C 0.06257 0.50756 0.70971
 N246 N 0.09867 0.54660 0.71582
 C247 C 0.20510 0.50241 0.64084
 C248 C 0.24808 0.50071 0.62408
 C249 C 0.29939 0.49944 0.60452
 N250 N 0.31958 0.45393 0.59221
 N251 N 0.36655 0.45313 0.57212
 C252 C 0.39510 0.49765 0.56389
 N253 N 0.37485 0.54303 0.57695
 N254 N 0.32790 0.54396 0.59704
 N255 N 0.44901 0.69618 0.13892
 C256 C 0.48769 0.66509 0.15296
 N257 N 0.52489 0.65574 0.11843
 N258 N 0.52389 0.67753 0.07165
 C259 C 0.48553 0.70916 0.05780
 N260 N 0.44805 0.71794 0.09219
 C261 C 0.49053 0.64434 0.20451
 C262 C 0.49334 0.62720 0.24786
 C263 C 0.49714 0.60589 0.29912
 N264 N 0.53105 0.56874 0.30970
 N265 N 0.53295 0.54689 0.35630
 C266 C 0.50105 0.56122 0.39409
 N267 N 0.46789 0.59933 0.38367
 N268 N 0.46592 0.62126 0.33698
 N269 N 0.45325 0.68786 0.85704
 C270 C 0.49321 0.65771 0.84701
 N271 N 0.53028 0.65141 0.88373
 N272 N 0.52776 0.67526 0.92875
 C273 C 0.48803 0.70605 0.93854
 N274 N 0.45083 0.71167 0.90192
 C275 C 0.49740 0.63557 0.79692
 C276 C 0.50003 0.61841 0.75415
 C277 C 0.50235 0.59847 0.70294
 N278 N 0.53770 0.56362 0.69125
 N279 N 0.53864 0.54384 0.64429
 C280 C 0.50455 0.55827 0.60716
 N281 N 0.46943 0.59348 0.61902
 N282 N 0.46841 0.61335 0.66600
 N283 N 0.54516 0.30495 0.14625
 C284 C 0.50589 0.33582 0.15681
 N285 N 0.46990 0.34506 0.11981
 N286 N 0.47268 0.32330 0.07383
 C287 C 0.51169 0.29190 0.06346
 N288 N 0.54790 0.28322 0.10036
 C289 C 0.50129 0.35615 0.20737
 C290 C 0.49794 0.37249 0.25023
 C291 C 0.49478 0.39239 0.30110
 N292 N 0.46247 0.43065 0.31084
 N293 N 0.46211 0.45174 0.35718
 C294 C 0.49408 0.43551 0.39536
 N295 N 0.52544 0.39623 0.38578
 N296 N 0.52586 0.37506 0.33939
 N297 N 0.47525 0.34831 0.88534
 C298 C 0.51322 0.34050 0.85123
 N299 N 0.55214 0.30964 0.86487
 N300 N 0.55267 0.28660 0.91093
 C301 C 0.51448 0.29384 0.94491
 N302 N 0.47582 0.32526 0.93150
 C303 C 0.51044 0.36130 0.80001
 C304 C 0.50799 0.37750 0.75648
 C305 C 0.50486 0.39647 0.70460
 N306 N 0.54436 0.39072 0.67178
 N307 N 0.54202 0.41000 0.62409
 C308 C 0.50000 0.43529 0.60745
 N309 N 0.46048 0.44059 0.64048
 N310 N 0.46272 0.42137 0.68813
 N311 N 0.64120 0.89272 0.49524
 C312 C 0.66957 0.84977 0.49533
 N313 N 0.72176 0.85523 0.49573
 N314 N 0.74500 0.90202 0.49603
 C315 C 0.71696 0.94498 0.49596
 N316 N 0.66457 0.93976 0.49554
 C317 C 0.64554 0.79880 0.49553
 C318 C 0.62772 0.75501 0.49603
 C319 C 0.60767 0.70249 0.49707
 N320 N 0.59694 0.67841 0.54250
 N321 N 0.57674 0.63023 0.54348
 C322 C 0.56704 0.60419 0.49915
 N323 N 0.57860 0.62829 0.45375
 N324 N 0.59878 0.67651 0.45271
 N325 N 0.71963 0.15773 0.49590
 C326 C 0.66737 0.15770 0.49527
 N327 N 0.63976 0.11182 0.49507
 N328 N 0.66389 0.06728 0.49542
 C329 C 0.71632 0.06753 0.49606
 N330 N 0.74364 0.11339 0.49626
 C331 C 0.64231 0.20601 0.49555
 C332 C 0.62306 0.24753 0.49626
 C333 C 0.60080 0.29723 0.49782
 N334 N 0.55796 0.30372 0.52579
 N335 N 0.53704 0.34967 0.52716
 C336 C 0.55806 0.39089 0.50080
 N337 N 0.60139 0.38433 0.47323
 N338 N 0.62245 0.33831 0.47180
 N339 N 0.35642 0.88089 0.50103
 C340 C 0.32800 0.83551 0.49984
 N341 N 0.27578 0.83645 0.49999
 N342 N 0.25262 0.88125 0.50115
 C343 C 0.28081 0.92664 0.50228
 N344 N 0.33317 0.92585 0.50219
 C345 C 0.35243 0.78683 0.49885
 C346 C 0.37206 0.74546 0.49844
 C347 C 0.39578 0.69639 0.49875
 N348 N 0.37003 0.65343 0.48072
 N349 N 0.39246 0.60802 0.48139
 C350 C 0.44134 0.60398 0.50019
 N351 N 0.46665 0.64718 0.51824
 N352 N 0.44440 0.69250 0.51761
 N353 N 0.33835 0.11111 0.46286
 C354 C 0.33517 0.14269 0.50384
 N355 N 0.30864 0.12557 0.54573
 N356 N 0.28522 0.07875 0.54632
 C357 C 0.28778 0.04730 0.50524
 N358 N 0.31491 0.06416 0.46350
 C359 C 0.35651 0.19485 0.50197
 C360 C 0.37319 0.23912 0.50129
 C361 C 0.39281 0.29190 0.50131
 N362 N 0.40489 0.31565 0.54628
 N363 N 0.42518 0.36383 0.54634
 C364 C 0.43374 0.39021 0.50152
 N365 N 0.42099 0.36636 0.45660
 N366 N 0.40072 0.31816 0.45646
   
