data_POSCAR
  _audit_creation_date              2014-09-24
  _audit_creation_method            'ToBaCCo'
  _symmetry_space_group_name_H-M    'P1'
  _symmetry_Int_Tables_number       1
  _symmetry_cell_setting            triclinic
  loop_
  _symmetry_equiv_pos_as_xyz
 x,y,z
_cell_length_a 25.8041
_cell_length_b 25.6649
_cell_length_c 25.7250
_cell_angle_alpha 71.863900
_cell_angle_beta 104.149600
_cell_angle_gamma 67.605200
loop_
  _atom_site_label
  _atom_site_type_symbol
  _atom_site_fract_x
  _atom_site_fract_y
  _atom_site_fract_z
O1 O 0.59310 0.48157 0.03601
 O2 O 0.44829 0.49801 0.04683
 O3 O 0.54006 0.41099 0.04319
 O4 O 0.50378 0.56414 0.04319
 O5 O 0.45539 0.61255 -0.05564
 O6 O 0.49240 0.45873 -0.05569
 O7 O 0.40093 0.54467 -0.05157
 O8 O 0.54504 0.52876 -0.06276
 Cu9 Cu 0.52620 0.48334 0.05220
 Cu10 Cu 0.46870 0.54064 -0.06628
 C11 C 0.59292 0.50517 -0.01547
 C12 C 0.39934 0.52482 -0.00044
 C13 C 0.52210 0.40867 -0.00618
 C14 C 0.47393 0.61444 -0.00603
 O15 O -0.05743 0.59018 0.46832
 O16 O -0.05310 0.43936 0.49502
 O17 O -0.04720 0.49966 0.55852
 O18 O -0.05995 0.52723 0.40580
 O19 O 0.04130 0.47753 0.44031
 O20 O 0.05408 0.45276 0.59237
 O21 O 0.04822 0.39080 0.52990
 O22 O 0.04307 0.54293 0.50059
 Cu23 Cu -0.06459 0.51924 0.47847
 Cu24 Cu 0.05689 0.46147 0.51920
 C25 C -0.00825 0.59308 0.47960
 C26 C -0.00178 0.38928 0.51687
 C27 C 0.00554 0.47129 0.60149
 C28 C -0.01129 0.50476 0.39748
 O29 O 0.47843 0.04458 0.55293
 O30 O 0.44724 0.05497 0.40158
 O31 O 0.39663 0.03841 0.47838
 O32 O 0.53232 0.05582 0.47988
 O33 O 0.58917 -0.04722 0.51756
 O34 O 0.45502 -0.06507 0.51878
 O35 O 0.50360 -0.04874 0.44152
 O36 O 0.53620 -0.05798 0.59304
 Cu37 Cu 0.45790 0.05882 0.47393
 Cu38 Cu 0.52698 -0.06502 0.52169
 C39 C 0.51135 -0.00855 0.59945
 C40 C 0.47022 0.00487 0.39571
 C41 C 0.40344 -0.01671 0.50067
 C42 C 0.58375 0.00733 0.49747
 C43 C 0.49062 -0.00631 0.01378
 C44 C 0.50087 0.03242 -0.02725
 C45 C 0.50433 0.02422 -0.08125
 C46 C 0.50921 0.08465 -0.02086
 C47 C 0.48509 0.00128 0.06748
 C48 C 0.48460 -0.05954 0.00741
 C49 C 0.55818 0.01205 -0.09078
 C50 C 0.56250 0.00304 -0.14076
 C51 C 0.51283 0.00663 -0.18208
 C52 C 0.45859 0.01984 -0.17327
 C53 C 0.45430 0.02866 -0.12320
 C54 C 0.55428 0.07375 0.03110
 C55 C 0.56250 0.12346 0.03513
 C56 C 0.52653 0.18446 -0.01309
 C57 C 0.48138 0.19531 -0.06479
 C58 C 0.47312 0.14579 -0.06880
 C59 C 0.44033 0.05768 0.06224
 C60 C 0.43273 0.06153 0.11330
 C61 C 0.46921 0.00880 0.17000
 C62 C 0.51490 -0.04685 0.17526
 C63 C 0.52243 -0.05073 0.12447
 C64 C 0.43020 -0.06155 0.00320
 C65 C 0.42460 -0.11244 -0.00049
 C66 C 0.47390 -0.16282 0.00140
 C67 C 0.52793 -0.16031 0.00450
 C68 C 0.53339 -0.10915 0.00779
 H69 H 0.59709 0.00876 -0.05905
 H70 H 0.60447 -0.00669 -0.14732
 H71 H 0.41971 0.02324 -0.20516
 H72 H 0.41207 0.03894 -0.11707
 H73 H 0.58341 0.02675 0.06818
 H74 H 0.59735 0.11428 0.07552
 H75 H 0.43822 0.15523 -0.10931
 H76 H 0.41044 0.09806 0.01860
 H77 H 0.39753 0.10504 0.10847
 H78 H 0.54418 -0.08766 0.21875
 H79 H 0.55717 -0.09465 0.12951
 H80 H 0.39209 -0.02359 0.00274
 H81 H 0.38220 -0.11310 -0.00389
 H82 H 0.56623 -0.19853 0.00549
 H83 H 0.57589 -0.10862 0.01151
 H84 H 0.45254 0.24224 -0.10207
 C85 C -0.01286 0.49355 0.97857
 C86 C 0.02697 0.49849 1.01979
 C87 C 0.08049 0.50316 1.01270
 C88 C 0.01825 0.50127 1.07375
 C89 C -0.06923 0.49360 0.98346
 C90 C -0.00311 0.48876 0.92542
 C91 C 0.14011 0.45614 1.05550
 C92 C 0.19084 0.46248 1.05258
 C93 C 0.18257 0.51699 1.00799
 C94 C 0.12294 0.56329 0.96413
 C95 C 0.07219 0.55641 0.96646
 C96 C 0.01871 0.45104 1.11637
 C97 C 0.00927 0.45494 1.16651
 C98 C -0.00163 0.50946 1.17418
 C99 C -0.00076 0.55905 1.13211
 C100 C 0.00940 0.55484 1.08238
 C101 C -0.11242 0.54243 0.98941
 C102 C -0.16705 0.54397 0.98974
 C103 C -0.18048 0.49807 0.98189
 C104 C -0.13700 0.44875 0.97692
 C105 C -0.08194 0.44664 0.97754
 C106 C -0.05107 0.53053 0.86808
 C107 C -0.04561 0.52303 0.81799
 C108 C 0.00778 0.47347 0.82454
 C109 C 0.05659 0.43261 0.88144
 C110 C 0.05100 0.43990 0.93180
 H111 H 0.14720 0.41478 1.09144
 H112 H 0.23654 0.42557 1.08598
 H113 H 0.11563 0.60538 0.92900
 H114 H 0.02635 0.59335 0.93339
 H115 H 0.02650 0.40895 1.11077
 H116 H 0.01039 0.41550 1.19938
 H117 H 0.00930 0.59383 1.05000
 H118 H -0.10453 0.58009 0.99248
 H119 H -0.19971 0.58195 0.99447
 H120 H -0.14632 0.41266 0.97126
 H121 H -0.04951 0.40878 0.97249
 H122 H -0.09324 0.56828 0.86235
 H123 H -0.08347 0.55511 0.77417
 H124 H 0.09805 0.39412 0.88698
 H125 H 0.08798 0.40639 0.97581
 H126 H -0.00827 0.60109 1.13769
 C127 C 0.02268 -0.03859 0.50581
 C128 C -0.02139 0.00671 0.51152
 C129 C -0.07904 0.00630 0.50954
 C130 C -0.01686 0.06183 0.51401
 C131 C 0.08120 -0.03965 0.50789
 C132 C 0.01472 -0.09051 0.49917
 C133 C -0.12555 0.02623 0.45435
 C134 C -0.18099 0.02819 0.45177
 C135 C -0.19180 0.01282 0.50402
 C136 C -0.14446 -0.00866 0.55943
 C137 C -0.08827 -0.01255 0.56223
 C138 C -0.01182 0.10251 0.46681
 C139 C -0.00589 0.15346 0.46987
 C140 C -0.00514 0.16456 0.52006
 C141 C -0.01173 0.12491 0.56648
 C142 C -0.01721 0.07374 0.56365
 C143 C 0.11765 -0.03512 0.55491
 C144 C 0.17136 -0.03385 0.55534
 C145 C 0.19094 -0.03963 0.51006
 C146 C 0.15513 -0.04510 0.46359
 C147 C 0.10084 -0.04524 0.46256
 C148 C 0.03421 -0.14568 0.55030
 C149 C 0.02700 -0.19503 0.54424
 C150 C 0.00014 -0.18965 0.48697
 C151 C -0.01878 -0.13453 0.43583
 C152 C -0.01209 -0.08500 0.44192
 H153 H -0.11886 0.04036 0.41334
 H154 H -0.21588 0.04261 0.40883
 H155 H -0.15117 -0.02209 0.60050
 H156 H -0.05219 -0.03004 0.60548
 H157 H -0.01219 0.09454 0.42781
 H158 H -0.00175 0.18420 0.43322
 H159 H -0.02062 0.04306 0.60079
 H160 H 0.10426 -0.03206 0.59106
 H161 H 0.19786 -0.02859 0.59113
 H162 H 0.16923 -0.04914 0.42802
 H163 H 0.07379 -0.04870 0.42574
 H164 H 0.05495 -0.15039 0.59473
 H165 H 0.04229 -0.23744 0.58415
 H166 H -0.03869 -0.12997 0.39129
 H167 H -0.02753 -0.04249 0.40208
 H168 H -0.01245 0.13357 0.60498
 C169 C -0.23919 0.45118 1.02092
 C170 C -0.29370 0.45318 1.02165
 C171 C -0.35108 0.50594 0.98008
 C172 C -0.35317 0.55828 0.93682
 C173 C -0.29751 0.55519 0.93499
 C174 C -0.24012 0.50178 0.97847
 C175 C -0.30120 0.60584 0.88920
 N176 N -0.35657 0.65770 0.85051
 N177 N -0.40849 0.66226 0.85430
 C178 C -0.40873 0.61470 0.89609
 H179 H -0.19574 0.40999 1.05439
 H180 H -0.29096 0.41300 1.05520
 H181 H -0.26074 0.60473 0.88349
 H182 H -0.45241 0.62241 0.89713
 C183 C 0.24681 0.53475 0.95493
 C184 C 0.29884 0.53795 0.95268
 C185 C 0.34367 0.53024 1.00302
 C186 C 0.33114 0.52585 1.05503
 C187 C 0.27741 0.52306 1.05675
 C188 C 0.23639 0.52511 1.00701
 C189 C 0.26502 0.52073 1.10755
 N190 N 0.30358 0.52124 1.15348
 N191 N 0.35314 0.52502 1.15172
 C192 C 0.36786 0.52803 1.10418
 H193 H 0.21532 0.53768 0.91607
 H194 H 0.30543 0.54292 0.91174
 H195 H 0.22425 0.52018 1.11073
 H196 H 0.40666 0.53473 1.10505
 C197 C 0.04838 -0.30037 0.50437
 C198 C 0.04657 -0.35241 0.50036
 C199 C -0.00955 -0.34931 0.47241
 C200 C -0.06480 -0.28914 0.44322
 C201 C -0.06277 -0.23694 0.45019
 C202 C -0.00559 -0.24288 0.48073
 C203 C -0.11845 -0.18023 0.42662
 N204 N -0.17193 -0.17429 0.39372
 N205 N -0.17344 -0.22114 0.38277
 C206 C -0.12201 -0.27784 0.40569
 H207 H 0.09258 -0.30531 0.52699
 H208 H 0.08988 -0.39629 0.52191
 H209 H -0.12011 -0.14048 0.43392
 H210 H -0.12680 -0.31193 0.39196
 C211 C -0.04754 0.27968 0.47736
 C212 C -0.04762 0.33367 0.47778
 C213 C -0.00110 0.32968 0.52328
 C214 C 0.04579 0.26938 0.57049
 C215 C 0.04661 0.21415 0.56919
 C216 C -0.00095 0.21973 0.52240
 C217 C 0.09567 0.15498 0.61455
 N218 N 0.13894 0.15164 0.65977
 N219 N 0.13653 0.20337 0.66263
 C220 C 0.09143 0.26200 0.61982
 H221 H -0.08440 0.28474 0.44150
 H222 H -0.08388 0.37908 0.44130
 H223 H 0.10028 0.11136 0.61442
 H224 H 0.09135 0.30190 0.62562
 C225 C 0.49182 0.05212 -0.28911
 C226 C 0.49230 0.04783 -0.34143
 C227 C 0.51788 -0.01087 -0.34304
 C228 C 0.54534 -0.06743 -0.28741
 C229 C 0.54414 -0.06194 -0.23399
 C230 C 0.51691 -0.00183 -0.23550
 C231 C 0.56951 -0.11704 -0.18013
 N232 N 0.59478 -0.17436 -0.17911
 N233 N 0.59635 -0.18026 -0.22830
 C234 C 0.57278 -0.12948 -0.28193
 H235 H 0.47104 0.09839 -0.29063
 H236 H 0.47151 0.09205 -0.38144
 H237 H 0.56930 -0.11510 -0.13876
 H238 H 0.57664 -0.14002 -0.31839
 C239 C 0.47076 0.05419 0.24212
 C240 C 0.47076 0.05323 0.29661
 C241 C 0.46088 0.00922 0.33508
 C242 C 0.44644 -0.03175 0.31614
 C243 C 0.44619 -0.03059 0.26053
 C244 C 0.46060 0.01136 0.22431
 C245 C 0.43048 -0.07095 0.24250
 N246 N 0.41640 -0.10991 0.27806
 N247 N 0.41652 -0.11092 0.33015
 C248 C 0.43078 -0.07309 0.35029
 H249 H 0.48135 0.08688 0.21479
 H250 H 0.48149 0.08519 0.31014
 H251 H 0.42821 -0.07120 0.20006
 H252 H 0.42841 -0.07486 0.39213
 C253 C 0.47347 -0.23134 -0.04808
 C254 C 0.47114 -0.28372 -0.05099
 C255 C 0.46465 -0.32494 -0.00571
 C256 C 0.45656 -0.31045 0.04174
 C257 C 0.46048 -0.25791 0.04549
 C258 C 0.46915 -0.21820 0.00007
 C259 C 0.45682 -0.24774 0.09550
 N260 N 0.44622 -0.28535 0.13673
 N261 N 0.43934 -0.33257 0.13155
 C262 C 0.44395 -0.34628 0.08550
 H263 H 0.47961 -0.20118 -0.08337
 H264 H 0.47687 -0.29335 -0.08791
 H265 H 0.46247 -0.21050 0.10248
 H266 H 0.43645 -0.38419 0.08306
 C267 C 0.52279 0.25432 0.03565
 C268 C 0.52207 0.30831 0.03736
 C269 C 0.53253 0.34754 -0.00560
 C270 C 0.54840 0.32921 -0.04865
 C271 C 0.54899 0.27421 -0.05043
 C272 C 0.53410 0.23773 -0.00900
 C273 C 0.56566 0.25685 -0.09312
 N274 N 0.58064 0.29229 -0.13128
 N275 N 0.58054 0.34357 -0.12934
 C276 C 0.56525 0.36307 -0.08927
 H277 H 0.51185 0.22669 0.06798
 H278 H 0.51034 0.32111 0.07093
 H279 H 0.56798 0.21490 -0.09588
 H280 H 0.56790 0.40393 -0.08878
 C281 C -0.24948 -0.03758 0.53946
 C282 C -0.30332 -0.03877 0.53729
 C283 C -0.36137 0.01323 0.49584
 C284 C -0.36444 0.06806 0.45529
 C285 C -0.30931 0.07046 0.46028
 C286 C -0.25131 0.01625 0.50133
 C287 C -0.31419 0.12757 0.42415
 N288 N -0.36984 0.17683 0.38223
 N289 N -0.42092 0.17298 0.37416
 C290 C -0.42018 0.12040 0.40876
 H291 H -0.20577 -0.07956 0.57103
 H292 H -0.29927 -0.08129 0.56856
 H293 H -0.27448 0.13382 0.42898
 H294 H -0.46314 0.12029 0.39805
 C295 C 0.24227 0.00946 0.45965
 C296 C 0.29314 0.01569 0.45776
 C297 C 0.35093 -0.02469 0.50620
 C298 C 0.35720 -0.07186 0.55832
 C299 C 0.30576 -0.07957 0.55929
 C300 C 0.24755 -0.03756 0.50993
 C301 C 0.31457 -0.12969 0.60969
 N302 N 0.37003 -0.16662 0.65740
 N303 N 0.41731 -0.15703 0.65805
 C304 C 0.41280 -0.11090 0.61045
 H305 H 0.19811 0.04210 0.42164
 H306 H 0.28738 0.05216 0.41782
 H307 H 0.27812 -0.14020 0.61163
 H308 H 0.45253 -0.10489 0.61460
 C309 C 0.03080 0.52222 1.26575
 C310 C 0.02849 0.52071 1.31955
 C311 C -0.01487 0.50967 1.33770
 C312 C -0.05773 0.50084 1.29974
 C313 C -0.05646 0.50445 1.24385
 C314 C -0.01046 0.51317 1.22792
 C315 C -0.10151 0.49922 1.20555
 N316 N -0.14262 0.48736 1.22367
 N317 N -0.14180 0.48051 1.27736
 C318 C -0.10075 0.48646 1.31604
 H319 H 0.06623 0.52896 1.25424
 H320 H 0.06163 0.52743 1.34776
 H321 H -0.10471 0.50477 1.16127
 H322 H -0.10212 0.47900 1.35914
 C323 C 0.05076 0.47776 0.74850
 C324 C 0.05024 0.47695 0.69453
 C325 C 0.01024 0.46230 0.66228
 C326 C -0.02687 0.44371 0.68716
 C327 C -0.02666 0.44507 0.74186
 C328 C 0.01127 0.46400 0.77158
 C329 C -0.06412 0.42673 0.76545
 N330 N -0.09883 0.40770 0.73626
 N331 N -0.09838 0.40550 0.68533
 C332 C -0.06350 0.42256 0.65992
 H333 H 0.08031 0.49181 0.77116
 H334 H 0.07925 0.49079 0.67640
 H335 H -0.06549 0.42648 0.80721
 H336 H -0.06389 0.41810 0.61945
   
