data_POSCAR
  _audit_creation_date              2014-09-24
  _audit_creation_method            'ToBaCCo'
  _symmetry_space_group_name_H-M    'P1'
  _symmetry_Int_Tables_number       1
  _symmetry_cell_setting            triclinic
  loop_
  _symmetry_equiv_pos_as_xyz
 x,y,z
_cell_length_a 46.0704
_cell_length_b 52.9622
_cell_length_c 36.7192
_cell_angle_alpha 90.007300
_cell_angle_beta 90.182700
_cell_angle_gamma 90.053600
loop_
  _atom_site_label
  _atom_site_type_symbol
  _atom_site_fract_x
  _atom_site_fract_y
  _atom_site_fract_z
C1 C 0.32102 0.26416 0.31650
 C2 C 0.32243 0.23832 0.31544
 C3 C 0.29552 0.22984 0.30337
 N4 N 0.27801 0.24972 0.29623
 C5 C 0.29351 0.27066 0.30452
 C6 C 0.28656 0.20430 0.30062
 C7 C 0.26211 0.19776 0.27901
 C8 C 0.24445 0.17691 0.28448
 C9 C 0.22434 0.17679 0.25678
 C10 C 0.23036 0.19745 0.23475
 N11 N 0.25300 0.21051 0.24913
 C12 C 0.21612 0.20361 0.20150
 C13 C 0.21619 0.22898 0.18909
 C14 C 0.21140 0.23706 0.15359
 C15 C 0.21012 0.26292 0.15463
 C16 C 0.21459 0.26982 0.19056
 N17 N 0.21863 0.24911 0.21152
 C18 C 0.21292 0.29464 0.20437
 C19 C 0.22625 0.30108 0.23781
 C20 C 0.22093 0.32270 0.25808
 C21 C 0.24094 0.32298 0.28601
 C22 C 0.25763 0.30140 0.28221
 N23 N 0.24835 0.28803 0.25309
 C24 C 0.28240 0.29543 0.30306
 H25 H 0.33845 0.27671 0.32453
 H26 H 0.34142 0.22726 0.32213
 H27 H 0.25888 0.27252 0.24170
 H28 H 0.24540 0.16348 0.30666
 H29 H 0.20686 0.16328 0.25409
 H30 H 0.20945 0.22569 0.12924
 H31 H 0.20673 0.27521 0.13146
 H32 H 0.24311 0.33751 0.30657
 H33 H 0.26344 0.22593 0.23725
 H34 H 0.20457 0.33695 0.25327
 C35 C 0.82267 0.23734 0.18525
 C36 C 0.82219 0.26325 0.18455
 C37 C 0.79544 0.27049 0.19817
 N38 N 0.77962 0.24995 0.20728
 C39 C 0.79619 0.22968 0.19928
 C40 C 0.78503 0.29550 0.19996
 C41 C 0.76002 0.30188 0.22003
 C42 C 0.74394 0.32377 0.21560
 C43 C 0.72290 0.32356 0.24213
 C44 C 0.72697 0.30167 0.26227
 N45 N 0.74940 0.28842 0.24828
 C46 C 0.71209 0.29512 0.29452
 C47 C 0.71265 0.27017 0.30805
 C48 C 0.70688 0.26322 0.34362
 C49 C 0.70748 0.23736 0.34452
 C50 C 0.71315 0.22928 0.30925
 N51 N 0.71679 0.24946 0.28713
 C52 C 0.71330 0.20386 0.29691
 C53 C 0.72868 0.19746 0.26464
 C54 C 0.72432 0.17609 0.24325
 C55 C 0.74543 0.17620 0.21689
 C56 C 0.76167 0.19788 0.22218
 N57 N 0.75120 0.21090 0.25098
 C58 C 0.78654 0.20449 0.20199
 H59 H 0.84049 0.22557 0.17644
 H60 H 0.83959 0.27530 0.17514
 H61 H 0.76086 0.22668 0.26295
 H62 H 0.74706 0.33839 0.19539
 H63 H 0.70663 0.33800 0.24606
 H64 H 0.70317 0.27549 0.36671
 H65 H 0.70463 0.22597 0.36869
 H66 H 0.74824 0.16209 0.19586
 H67 H 0.75906 0.27261 0.26007
 H68 H 0.70749 0.16197 0.24561
 C69 C 0.70983 0.76316 0.65350
 C70 C 0.70914 0.73726 0.65377
 C71 C 0.71572 0.72985 0.68904
 N72 N 0.72067 0.75031 0.71019
 C73 C 0.71682 0.77068 0.68860
 C74 C 0.71475 0.70487 0.70241
 C75 C 0.72830 0.69833 0.73572
 C76 C 0.72319 0.67650 0.75562
 C77 C 0.74281 0.67641 0.78397
 C78 C 0.75908 0.69831 0.78081
 N79 N 0.74997 0.71166 0.75160
 C80 C 0.78334 0.70459 0.80244
 C81 C 0.79386 0.72956 0.80480
 C82 C 0.82104 0.73636 0.81761
 C83 C 0.82199 0.76222 0.81717
 C84 C 0.79513 0.77044 0.80461
 N85 N 0.77809 0.75035 0.79661
 C86 C 0.78602 0.79596 0.80171
 C87 C 0.76197 0.80247 0.77937
 C88 C 0.74487 0.82388 0.78326
 C89 C 0.72523 0.82377 0.75500
 C90 C 0.73074 0.80228 0.73461
 N91 N 0.75286 0.78919 0.74997
 C92 C 0.71672 0.79576 0.70159
 H93 H 0.70564 0.77505 0.63010
 H94 H 0.70437 0.72531 0.63060
 H95 H 0.76313 0.77343 0.73889
 H96 H 0.70713 0.66203 0.75039
 H97 H 0.74495 0.66183 0.80445
 H98 H 0.83861 0.72401 0.82573
 H99 H 0.84072 0.77348 0.82446
 H100 H 0.70857 0.83781 0.75043
 H101 H 0.76037 0.72742 0.74073
 H102 H 0.74600 0.83796 0.80456
 C103 C 0.20987 0.76284 0.84564
 C104 C 0.20987 0.73698 0.84560
 C105 C 0.21350 0.72947 0.80972
 N106 N 0.21629 0.74995 0.78793
 C107 C 0.21350 0.77040 0.80978
 C108 C 0.21287 0.70423 0.79677
 C109 C 0.22795 0.69799 0.76429
 C110 C 0.22332 0.67688 0.74246
 C111 C 0.24468 0.67688 0.71639
 C112 C 0.26134 0.69824 0.72235
 N113 N 0.25084 0.71118 0.75119
 C114 C 0.28659 0.70465 0.70281
 C115 C 0.29683 0.72969 0.70113
 C116 C 0.32360 0.73716 0.68775
 C117 C 0.32360 0.76308 0.68780
 C118 C 0.29684 0.77049 0.70120
 N119 N 0.28058 0.75007 0.70951
 C120 C 0.28661 0.79552 0.70298
 C121 C 0.26136 0.80186 0.72254
 C122 C 0.24470 0.82320 0.71665
 C123 C 0.22333 0.82311 0.74271
 C124 C 0.22796 0.80198 0.76445
 N125 N 0.25086 0.78885 0.75132
 C126 C 0.21286 0.79566 0.79691
 H127 H 0.20824 0.77463 0.86961
 H128 H 0.20824 0.72516 0.86953
 H129 H 0.26071 0.77335 0.76376
 H130 H 0.20623 0.66297 0.74444
 H131 H 0.24742 0.66289 0.69519
 H132 H 0.34125 0.72524 0.67878
 H133 H 0.34126 0.77503 0.67888
 H134 H 0.20623 0.83700 0.74471
 H135 H 0.26070 0.72668 0.76368
 H136 H 0.24745 0.83722 0.69550
 O137 O 0.97221 -0.00909 -0.04313
 O138 O 1.02897 0.03191 -0.00433
 O139 O 1.02881 -0.00914 -0.04385
 O140 O 0.97274 0.03176 -0.00358
 O141 O 0.97368 0.00878 0.04663
 O142 O 1.02868 -0.03276 0.00576
 O143 O 1.03025 0.00827 0.04523
 O144 O 0.97254 -0.03214 0.00702
 Cu145 Cu 1.00066 0.01367 -0.02877
 Cu146 Cu 1.00136 -0.01425 0.03122
 C147 C 0.96277 -0.02763 -0.02470
 C148 C 1.03916 0.02716 0.02710
 C149 C 1.03798 -0.02811 -0.02605
 C150 C 0.96388 0.02735 0.02851
 O151 O 0.52725 0.46742 0.50441
 O152 O 0.47259 0.50913 0.54553
 O153 O 0.47113 0.46826 0.50603
 O154 O 0.52917 0.50851 0.54391
 O155 O 0.52744 0.53240 0.49462
 O156 O 0.47119 0.49104 0.45562
 O157 O 0.47132 0.53192 0.49514
 O158 O 0.52781 0.49131 0.45509
 Cu159 Cu 0.50015 0.48603 0.53003
 Cu160 Cu 0.49943 0.51396 0.47005
 C161 C 0.53674 0.47219 0.47273
 C162 C 0.46261 0.52759 0.52732
 C163 C 0.46154 0.47265 0.47420
 C164 C 0.53777 0.52759 0.52594
 O165 O 0.02850 0.50866 -0.04491
 O166 O -0.02841 0.46817 -0.00543
 O167 O -0.02807 0.50909 -0.04479
 O168 O 0.02774 0.46748 -0.00551
 O169 O 0.02926 0.49121 0.04396
 O170 O -0.02811 0.53187 0.00563
 O171 O -0.02730 0.49092 0.04500
 O172 O 0.02810 0.53234 0.00462
 Cu173 Cu -0.00005 0.48606 -0.03023
 Cu174 Cu 0.00059 0.51389 0.02986
 C175 C 0.03763 0.52764 -0.02706
 C176 C -0.03730 0.47251 0.02667
 C177 C -0.03763 0.52753 -0.02626
 C178 C 0.03787 0.47217 0.02596
 O179 O 0.47227 1.03191 0.50592
 O180 O 0.52967 0.99130 0.54424
 O181 O 0.52839 1.03224 0.50470
 O182 O 0.47306 0.99104 0.54566
 O183 O 0.47182 0.96805 0.49546
 O184 O 0.52846 1.00850 0.45523
 O185 O 0.52798 0.96746 0.49489
 O186 O 0.47183 1.00885 0.45578
 Cu187 Cu 0.50093 1.01392 0.53018
 Cu188 Cu 0.49999 0.98591 0.47028
 C189 C 0.46253 1.02744 0.47418
 C190 C 0.53827 0.97225 0.52625
 C191 C 0.53774 1.02747 0.47296
 C192 C 0.46304 0.97252 0.52756
 C193 C 1.16992 0.14901 0.14457
 N194 N 1.19047 0.14223 0.16921
 N195 N 1.20560 0.15975 0.18716
 C196 C 1.20068 0.18480 0.18159
 N197 N 1.18004 0.19134 0.15675
 N198 N 1.16509 0.17390 0.13855
 C199 C 1.15256 0.12991 0.12536
 N200 N 1.13558 0.13665 0.09670
 N201 N 1.11897 0.11963 0.07994
 C202 C 1.11853 0.09527 0.09139
 N203 N 1.13555 0.08848 0.12002
 N204 N 1.15237 0.10548 0.13662
 C205 C 1.09909 0.07691 0.07384
 N206 N 1.09370 0.05417 0.08952
 N207 N 1.07488 0.03812 0.07441
 C208 C 1.06096 0.04417 0.04295
 N209 N 1.06659 0.06679 0.02710
 N210 N 1.08523 0.08290 0.04233
 C211 C 0.66655 0.65020 0.64511
 N212 N 0.69136 0.64368 0.66276
 N213 N 0.70685 0.66102 0.68059
 C214 C 0.69794 0.68547 0.68185
 N215 N 0.67302 0.69186 0.66425
 N216 N 0.65773 0.67461 0.64607
 C217 C 0.64917 0.63123 0.62569
 N218 N 0.62892 0.63855 0.60094
 N219 N 0.61256 0.62151 0.58384
 C220 C 0.61560 0.59654 0.59115
 N221 N 0.63583 0.58918 0.61594
 N222 N 0.65245 0.60623 0.63277
 C223 C 0.59661 0.57802 0.57326
 N224 N 0.59325 0.55445 0.58719
 N225 N 0.57477 0.53818 0.57190
 C226 C 0.55925 0.54483 0.54189
 N227 N 0.56290 0.56829 0.52774
 N228 N 0.58112 0.58462 0.54324
 C229 C -0.16912 0.35201 0.14430
 N230 N -0.17785 0.35565 0.17918
 N231 N -0.19274 0.33783 0.19667
 C232 C -0.19938 0.31568 0.17995
 N233 N -0.19088 0.31216 0.14494
 N234 N -0.17601 0.32998 0.12745
 C235 C -0.15155 0.37114 0.12558
 N236 N -0.14247 0.36732 0.09088
 N237 N -0.12554 0.38419 0.07441
 C238 C -0.11704 0.40550 0.09205
 N239 N -0.12626 0.40940 0.12667
 N240 N -0.14322 0.39253 0.14314
 C241 C -0.09731 0.42353 0.07447
 N242 N -0.08749 0.44410 0.09284
 N243 N -0.06867 0.45991 0.07742
 C244 C -0.05899 0.45572 0.04306
 N245 N -0.06895 0.43524 0.02460
 N246 N -0.08775 0.41943 0.04004
 C247 C 0.33224 0.85195 0.64684
 N248 N 0.32307 0.85587 0.68148
 N249 N 0.30827 0.83806 0.69913
 C250 C 0.30220 0.81564 0.68283
 N251 N 0.31112 0.81185 0.64804
 N252 N 0.32588 0.82966 0.63039
 C253 C 0.34965 0.87110 0.62793
 N254 N 0.35890 0.86707 0.59334
 N255 N 0.37568 0.88396 0.57666
 C256 C 0.38386 0.90549 0.59396
 N257 N 0.37448 0.90959 0.62848
 N258 N 0.35767 0.89271 0.64515
 C259 C 0.40343 0.92354 0.57614
 N260 N 0.41312 0.94428 0.59422
 N261 N 0.43181 0.96009 0.57856
 C262 C 0.44147 0.95575 0.54423
 N263 N 0.43163 0.93511 0.52606
 N264 N 0.41297 0.91928 0.54173
 C265 C -0.17111 0.64784 -0.14179
 N266 N -0.18017 0.64418 -0.17660
 N267 N -0.19504 0.66204 -0.19408
 C268 C -0.20136 0.68425 -0.17742
 N269 N -0.19252 0.68780 -0.14246
 N270 N -0.17767 0.66993 -0.12498
 C271 C -0.15341 0.62870 -0.12321
 N272 N -0.14376 0.63260 -0.08868
 N273 N -0.12661 0.61575 -0.07243
 C274 C -0.11847 0.59440 -0.09011
 N275 N -0.12828 0.59042 -0.12454
 N276 N -0.14544 0.60726 -0.14079
 C277 C -0.09845 0.57642 -0.07287
 N278 N -0.08903 0.55581 -0.09137
 N279 N -0.06994 0.54005 -0.07632
 C280 C -0.05958 0.54431 -0.04221
 N281 N -0.06913 0.56482 -0.02361
 N282 N -0.08821 0.58060 -0.03868
 C283 C 0.33129 1.14888 0.35713
 N284 N 0.33119 1.17308 0.36916
 N285 N 0.31663 1.19084 0.35112
 C286 C 0.30148 1.18523 0.32031
 N287 N 0.30130 1.16081 0.30872
 N288 N 0.31600 1.14303 0.32663
 C289 C 0.34855 1.12964 0.37616
 N290 N 0.35237 1.10636 0.36145
 N291 N 0.36919 1.08938 0.37798
 C292 C 0.38269 1.09503 0.40990
 N293 N 0.37865 1.11822 0.42475
 N294 N 0.36195 1.13523 0.40814
 C295 C 0.40231 1.07681 0.42735
 N296 N 0.41433 1.08197 0.46034
 N297 N 0.43312 1.06600 0.47554
 C298 C 0.44069 1.04435 0.45824
 N299 N 0.42858 1.03912 0.42533
 N300 N 0.40968 1.05504 0.41019
 C301 C 1.16571 -0.15031 -0.14680
 N302 N 1.18624 -0.14328 -0.17117
 N303 N 1.20159 -0.16062 -0.18900
 C304 C 1.19694 -0.18572 -0.18360
 N305 N 1.17629 -0.19253 -0.15906
 N306 N 1.16109 -0.17525 -0.14097
 C307 C 1.14834 -0.13135 -0.12751
 N308 N 1.13154 -0.13820 -0.09886
 N309 N 1.11520 -0.12121 -0.08180
 C310 C 1.11486 -0.09677 -0.09293
 N311 N 1.13167 -0.08989 -0.12159
 N312 N 1.14822 -0.10686 -0.13848
 C313 C 1.09593 -0.07837 -0.07486
 N314 N 1.09059 -0.05550 -0.09020
 N315 N 1.07237 -0.03931 -0.07448
 C316 C 1.05905 -0.04533 -0.04270
 N317 N 1.06463 -0.06809 -0.02721
 N318 N 1.08265 -0.08434 -0.04306
 C319 C 0.66340 0.34976 0.35078
 N320 N 0.68813 0.35640 0.33319
 N321 N 0.70371 0.33910 0.31557
 C322 C 0.69499 0.31458 0.31446
 N323 N 0.67015 0.30808 0.33200
 N324 N 0.65476 0.32528 0.34996
 C325 C 0.64605 0.36865 0.37022
 N326 N 0.62606 0.36124 0.39510
 N327 N 0.60987 0.37821 0.41241
 C328 C 0.61283 0.40321 0.40521
 N329 N 0.63279 0.41066 0.38026
 N330 N 0.64923 0.39368 0.36321
 C331 C 0.59417 0.42168 0.42354
 N332 N 0.59067 0.44530 0.40985
 N333 N 0.57261 0.46157 0.42570
 C334 C 0.55767 0.45487 0.45603
 N335 N 0.56144 0.43135 0.46992
 N336 N 0.57924 0.41502 0.45387
 C337 C 0.83052 -0.14856 -0.14147
 N338 N 0.82971 -0.17262 -0.12892
 N339 N 0.81516 -0.19039 -0.14703
 C340 C 0.80076 -0.18492 -0.17844
 N341 N 0.80130 -0.16064 -0.19056
 N342 N 0.81596 -0.14285 -0.17256
 C343 C 0.84786 -0.12935 -0.12242
 N344 N 0.85221 -0.10624 -0.13745
 N345 N 0.86915 -0.08930 -0.12094
 C346 C 0.88224 -0.09484 -0.08873
 N347 N 0.87766 -0.11786 -0.07356
 N348 N 0.86084 -0.13482 -0.09014
 C349 C 0.90204 -0.07671 -0.07132
 N350 N 0.91388 -0.08181 -0.03824
 N351 N 0.93285 -0.06593 -0.02310
 C352 C 0.94075 -0.04442 -0.04056
 N353 N 0.92880 -0.03925 -0.07357
 N354 N 0.90974 -0.05508 -0.08865
 C355 C 0.32761 0.35235 0.35904
 N356 N 0.31796 0.35623 0.32453
 N357 N 0.30317 0.33831 0.30700
 C358 C 0.29753 0.31583 0.32330
 N359 N 0.30695 0.31207 0.35797
 N360 N 0.32171 0.32999 0.37551
 C361 C 0.34525 0.37155 0.37764
 N362 N 0.35527 0.36751 0.41196
 N363 N 0.37242 0.38439 0.42820
 C364 C 0.38022 0.40591 0.41070
 N365 N 0.37005 0.41004 0.37647
 N366 N 0.35287 0.39318 0.36025
 C367 C 0.40031 0.42390 0.42788
 N368 N 0.40963 0.44458 0.40943
 N369 N 0.42884 0.46031 0.42440
 C370 C 0.43941 0.45595 0.45837
 N371 N 0.42994 0.43538 0.47693
 N372 N 0.41075 0.41963 0.46194
 C373 C 0.16578 0.65002 -0.14708
 N374 N 0.18630 0.64307 -0.17149
 N375 N 0.20162 0.66047 -0.18927
 C376 C 0.19697 0.68555 -0.18378
 N377 N 0.17633 0.69228 -0.15920
 N378 N 0.16115 0.67495 -0.14116
 C379 C 0.14842 0.63100 -0.12784
 N380 N 0.13160 0.63778 -0.09918
 N381 N 0.11525 0.62074 -0.08219
 C382 C 0.11492 0.59632 -0.09339
 N383 N 0.13175 0.58950 -0.12205
 N384 N 0.14830 0.60652 -0.13887
 C385 C 0.09594 0.57788 -0.07542
 N386 N 0.09061 0.55502 -0.09082
 N387 N 0.07230 0.53881 -0.07522
 C388 C 0.05887 0.54482 -0.04351
 N389 N 0.06445 0.56757 -0.02795
 N390 N 0.08257 0.58383 -0.04368
 C391 C 0.66616 1.14955 0.35282
 N392 N 0.68755 1.14265 0.32958
 N393 N 0.70291 1.16009 0.31190
 C394 C 0.69741 1.18515 0.31633
 N395 N 0.67588 1.19180 0.33970
 N396 N 0.66068 1.17445 0.35766
 C397 C 0.64879 1.13052 0.37201
 N398 N 0.63145 1.13744 0.40010
 N399 N 0.61505 1.12043 0.41707
 C400 C 0.61517 1.09590 0.40638
 N401 N 0.63251 1.08894 0.37828
 N402 N 0.64913 1.10594 0.36150
 C403 C 0.59615 1.07751 0.42437
 N404 N 0.59090 1.05456 0.40916
 N405 N 0.57254 1.03843 0.42481
 C406 C 0.55898 1.04459 0.45637
 N407 N 0.56447 1.06741 0.47172
 N408 N 0.58263 1.08361 0.45594
 C409 C 0.16533 0.34926 0.14629
 N410 N 0.18933 0.35598 0.16551
 N411 N 0.20461 0.33867 0.18362
 C412 C 0.19630 0.31404 0.18359
 N413 N 0.17223 0.30742 0.16435
 N414 N 0.15713 0.32465 0.14592
 C415 C 0.14813 0.36823 0.12668
 N416 N 0.12854 0.36099 0.10105
 N417 N 0.11235 0.37805 0.08380
 C418 C 0.11493 0.40297 0.09181
 N419 N 0.13451 0.41025 0.11747
 N420 N 0.15094 0.39318 0.13447
 C421 C 0.09611 0.42153 0.07377
 N422 N 0.09255 0.44500 0.08794
 N423 N 0.07427 0.46133 0.07248
 C424 C 0.05915 0.45484 0.04208
 N425 N 0.06298 0.43147 0.02769
 N426 N 0.08102 0.41508 0.04334
 C427 C 0.66802 0.85042 0.64502
 N428 N 0.69287 0.85702 0.66259
 N429 N 0.70851 0.83970 0.68022
 C430 C 0.69973 0.81519 0.68132
 N431 N 0.67475 0.80875 0.66388
 N432 N 0.65931 0.82596 0.64591
 C433 C 0.65049 0.86930 0.62569
 N434 N 0.63025 0.86185 0.60100
 N435 N 0.61373 0.87877 0.58397
 C436 C 0.61660 0.90376 0.59130
 N437 N 0.63683 0.91126 0.61604
 N438 N 0.65360 0.89433 0.63279
 C439 C 0.59742 0.92214 0.57347
 N440 N 0.59395 0.94570 0.58740
 N441 N 0.57535 0.96184 0.57215
 C442 C 0.55980 0.95508 0.54220
 N443 N 0.56354 0.93164 0.52806
 N444 N 0.58190 0.91543 0.54352
 C445 C 0.83282 0.14811 0.14670
 N446 N 0.82589 0.17008 0.12976
 N447 N 0.81093 0.18787 0.14714
 C448 C 0.80240 0.18439 0.18216
 N449 N 0.80906 0.16228 0.19895
 N450 N 0.82404 0.14449 0.18157
 C451 C 0.85041 0.12898 0.12803
 N452 N 0.85872 0.10760 0.14559
 N453 N 0.87563 0.09073 0.12911
 C454 C 0.88482 0.09461 0.09446
 N455 N 0.87635 0.11591 0.07682
 N456 N 0.85947 0.13279 0.09331
 C457 C 0.90443 0.07655 0.07680
 N458 N 0.91393 0.08066 0.04234
 N459 N 0.93257 0.06479 0.02678
 C460 C 0.94241 0.04423 0.04511
 N461 N 0.93279 0.04004 0.07950
 N462 N 0.91413 0.05591 0.09505
 C463 C 0.33221 0.64832 0.64659
 N464 N 0.32589 0.67062 0.63019
 N465 N 0.31114 0.68840 0.64786
 C466 C 0.30219 0.68457 0.68264
 N467 N 0.30823 0.66214 0.69889
 N468 N 0.32301 0.64436 0.68122
 C469 C 0.34960 0.62919 0.62766
 N470 N 0.35756 0.60757 0.64486
 N471 N 0.37434 0.59070 0.62818
 C472 C 0.38374 0.59481 0.59368
 N473 N 0.37562 0.61634 0.57639
 N474 N 0.35888 0.63323 0.59309
 C475 C 0.40326 0.57674 0.57586
 N476 N 0.41279 0.58095 0.54144
 N477 N 0.43138 0.56508 0.52577
 C478 C 0.44115 0.54445 0.54398
 N479 N 0.43150 0.54016 0.57832
 N480 N 0.41288 0.55601 0.59397
   
