data_POSCAR
  _audit_creation_date              2014-09-24
  _audit_creation_method            'ToBaCCo'
  _symmetry_space_group_name_H-M    'P1'
  _symmetry_Int_Tables_number       1
  _symmetry_cell_setting            triclinic
  loop_
  _symmetry_equiv_pos_as_xyz
 x,y,z
_cell_length_a 20.3784
_cell_length_b 19.6436
_cell_length_c 20.2632
_cell_angle_alpha 64.815700
_cell_angle_beta 121.739000
_cell_angle_gamma 78.922900
loop_
  _atom_site_label
  _atom_site_type_symbol
  _atom_site_fract_x
  _atom_site_fract_y
  _atom_site_fract_z
O1 O 0.58228 0.49412 0.00926
 O2 O 0.44356 0.47794 0.07142
 O3 O 0.51067 0.39719 0.02991
 O4 O 0.49372 0.58825 0.02515
 O5 O 0.36337 0.67892 -0.13365
 O6 O 0.39057 0.49090 -0.13346
 O7 O 0.31920 0.56143 -0.08919
 O8 O 0.45706 0.58986 -0.15218
 Cu9 Cu 0.52062 0.48010 0.05020
 Cu10 Cu 0.36995 0.59020 -0.14340
 C11 C 0.54382 0.54589 -0.08121
 C12 C 0.35835 0.51379 0.00209
 C13 C 0.45193 0.41224 -0.05155
 C14 C 0.42490 0.66596 -0.05532
 O15 O -0.13469 0.66481 0.37126
 O16 O -0.04881 0.43329 0.45145
 O17 O -0.11465 0.52122 0.49367
 O18 O -0.10307 0.58565 0.30504
 O19 O 0.03796 0.55292 0.40933
 O20 O 0.02408 0.49229 0.59931
 O21 O 0.09047 0.40173 0.55935
 O22 O 0.00697 0.62961 0.47755
 Cu23 Cu -0.11375 0.55462 0.39534
 Cu24 Cu 0.05402 0.51445 0.52224
 C25 C -0.07859 0.68578 0.41251
 C26 C 0.03789 0.37804 0.51988
 C27 C -0.04976 0.50002 0.57652
 C28 C -0.03110 0.57882 0.32461
 O29 O 0.56122 0.03823 0.62505
 O30 O 0.50838 0.01628 0.43379
 O31 O 0.43404 0.01283 0.51563
 O32 O 0.62111 0.03604 0.54572
 O33 O 0.71517 -0.11098 0.66180
 O34 O 0.52641 -0.13416 0.62712
 O35 O 0.59462 -0.13083 0.54914
 O36 O 0.64064 -0.10872 0.73792
 Cu37 Cu 0.51793 0.03986 0.51754
 Cu38 Cu 0.62919 -0.13574 0.65624
 C39 C 0.60857 -0.03161 0.71381
 C40 C 0.54621 -0.06108 0.46011
 C41 C 0.44826 -0.06390 0.56671
 C42 C 0.69973 -0.03433 0.60791
 C43 C 0.56663 -0.13264 -0.04500
 C44 C 0.60902 -0.08468 -0.03538
 C45 C 0.61536 -0.05583 0.01929
 C46 C 0.57405 -0.06949 0.05789
 C47 C 0.52858 -0.11388 0.04335
 C48 C 0.52413 -0.14429 -0.00857
 C49 C 0.56112 -0.02236 0.09455
 C50 C 0.56323 -0.06125 0.17258
 C51 C 0.53952 -0.01148 0.19850
 C52 C 0.51319 0.07855 0.14424
 C53 C 0.50816 0.11785 0.06405
 C54 C 0.53380 0.06683 0.04133
 H55 H 0.55800 -0.15264 -0.08991
 H56 H 0.64721 -0.01797 0.02634
 H57 H 0.49107 -0.11958 0.06630
 H58 H 0.58372 -0.13042 0.21251
 H59 H 0.49294 0.11889 0.16125
 H60 H 0.52831 0.09830 -0.02165
 C61 C -0.16995 0.57749 1.02303
 C62 C -0.20228 0.55690 0.95828
 C63 C -0.15344 0.53703 0.93286
 C64 C -0.07709 0.54519 0.96416
 C65 C -0.05083 0.57319 1.02260
 C66 C -0.09329 0.58471 1.05675
 C67 C -0.02463 0.52465 0.93676
 C68 C 0.06577 0.50574 0.99200
 C69 C 0.11158 0.49552 0.96107
 C70 C 0.07142 0.49502 0.88054
 C71 C -0.01482 0.50616 0.82918
 C72 C -0.06415 0.52478 0.85470
 H73 H -0.20553 0.58929 1.04589
 H74 H -0.17550 0.51444 0.88946
 H75 H 0.00331 0.58556 1.04269
 H76 H 0.10097 0.50073 1.05798
 H77 H 0.10857 0.48439 0.85890
 H78 H -0.13374 0.54128 0.80883
 C79 C -0.12498 -0.08067 0.49705
 C80 C -0.08965 -0.09018 0.45569
 C81 C -0.03351 -0.05709 0.45791
 C82 C -0.01166 -0.01563 0.50249
 C83 C -0.04539 -0.01064 0.54664
 C84 C -0.10365 -0.04066 0.54221
 C85 C 0.04833 0.02014 0.50682
 C86 C 0.03989 0.09141 0.51115
 C87 C 0.10410 0.11623 0.52886
 C88 C 0.17328 0.07390 0.53494
 C89 C 0.18186 0.00497 0.52847
 C90 C 0.11967 -0.02188 0.51520
 H91 H -0.17002 -0.10401 0.49317
 H92 H -0.00949 -0.06159 0.42246
 H93 H -0.02501 0.01553 0.58632
 H94 H -0.01368 0.12509 0.50555
 H95 H 0.22345 0.09217 0.54938
 H96 H 0.12865 -0.07744 0.51434
 C97 C -0.39894 0.55624 0.89704
 C98 C -0.42392 0.58550 0.80773
 C99 C -0.35160 0.58629 0.81992
 C100 C -0.28846 0.55855 0.91541
 O101 O -0.31725 0.54038 0.96221
 H102 H -0.48731 0.60434 0.74175
 H103 H -0.34688 0.60762 0.76458
 C104 C 0.30738 0.49793 1.02571
 C105 C 0.33919 0.45217 1.12039
 C106 C 0.26859 0.44702 1.10931
 C107 C 0.20000 0.48878 1.00910
 O108 O 0.22326 0.52003 0.95846
 H109 H 0.40611 0.42465 1.18926
 H110 H 0.26847 0.41405 1.16769
 C111 C -0.11113 -0.23073 0.39025
 C112 C -0.20262 -0.16488 0.32054
 C113 C -0.20606 -0.10084 0.33162
 C114 C -0.11604 -0.13151 0.40698
 O115 O -0.05800 -0.21056 0.44282
 H116 H -0.25964 -0.16624 0.27119
 H117 H -0.26703 -0.04090 0.29288
 C118 C 0.08111 0.28572 0.55437
 C119 C 0.17303 0.22222 0.63850
 C120 C 0.19154 0.15112 0.64012
 C121 C 0.10986 0.17515 0.55703
 O122 O 0.04182 0.25724 0.50437
 H123 H 0.22176 0.22834 0.69084
 H124 H 0.25758 0.08942 0.69434
 C125 C 0.62092 -0.02369 -0.21600
 C126 C 0.60214 0.05387 -0.22747
 C127 C 0.60747 0.03667 -0.15155
 C128 C 0.62715 -0.04955 -0.10049
 O129 O 0.63670 -0.08653 -0.13883
 H130 H 0.58175 0.11697 -0.28731
 H131 H 0.58913 0.08464 -0.14168
 C132 C 0.53939 -0.07160 0.38961
 C133 C 0.55711 -0.14982 0.40304
 C134 C 0.55713 -0.13743 0.33177
 C135 C 0.54047 -0.05245 0.28018
 O136 O 0.52917 -0.01224 0.31524
 H137 H 0.57107 -0.20981 0.46008
 H138 H 0.56978 -0.18615 0.32116
 C139 C 0.42042 -0.25815 -0.05879
 C140 C 0.34097 -0.17769 -0.11948
 C141 C 0.36997 -0.12453 -0.10418
 C142 C 0.46430 -0.17692 -0.03712
 O143 O 0.49512 -0.25771 -0.00959
 H144 H 0.27092 -0.15972 -0.16994
 H145 H 0.32781 -0.05507 -0.14054
 C146 C 0.45124 0.33836 -0.05114
 C147 C 0.39926 0.34732 -0.13672
 C148 C 0.41247 0.26556 -0.10454
 C149 C 0.47102 0.21340 -0.00180
 O150 O 0.49454 0.25743 0.03104
 H151 H 0.35655 0.40657 -0.21322
 H152 H 0.38300 0.24606 -0.15030
 C153 C -0.22881 -0.02612 0.61177
 C154 C -0.20849 0.03544 0.61638
 C155 C -0.15374 0.03458 0.59709
 C156 C -0.14607 -0.02653 0.58017
 O157 O -0.19192 -0.06328 0.58908
 H158 H -0.23447 0.07900 0.62729
 H159 H -0.12811 0.07805 0.58969
 C160 C 0.37470 -0.07169 0.55922
 C161 C 0.37453 -0.14913 0.59087
 C162 C 0.29981 -0.13010 0.57980
 C163 C 0.26025 -0.04247 0.54311
 O164 O 0.30590 -0.00709 0.53072
 H165 H 0.42438 -0.21254 0.62096
 H166 H 0.27959 -0.17621 0.60067
 C167 C -0.02744 0.59514 1.24950
 C168 C 0.04012 0.60054 1.25223
 C169 C 0.02223 0.60294 1.17588
 C170 C -0.05484 0.59805 1.13277
 O171 O -0.08486 0.59394 1.17747
 H172 H 0.09741 0.59918 1.30574
 H173 H 0.06359 0.60392 1.15787
 C174 C -0.06320 0.49169 0.64319
 C175 C -0.13798 0.49424 0.62883
 C176 C -0.13035 0.49883 0.69765
 C177 C -0.05176 0.49963 0.74822
 O178 O -0.01103 0.49485 0.71527
 H179 H -0.19294 0.49550 0.57280
 H180 H -0.17738 0.50234 0.70811
   
