data_POSCAR
  _audit_creation_date              2014-09-24
  _audit_creation_method            'ToBaCCo'
  _symmetry_space_group_name_H-M    'P1'
  _symmetry_Int_Tables_number       1
  _symmetry_cell_setting            triclinic
  loop_
  _symmetry_equiv_pos_as_xyz
 x,y,z
_cell_length_a 41.4626
_cell_length_b 41.4127
_cell_length_c 41.4757
_cell_angle_alpha 89.963300
_cell_angle_beta 89.998200
_cell_angle_gamma 89.891400
loop_
  _atom_site_label
  _atom_site_type_symbol
  _atom_site_fract_x
  _atom_site_fract_y
  _atom_site_fract_z
C1 C 0.27415 0.25005 0.22596
 C2 C 0.25021 0.27398 0.22594
 C3 C 0.22630 0.27402 0.24982
 C4 C 0.22636 0.25010 0.27374
 C5 C 0.25029 0.22616 0.27379
 C6 C 0.27418 0.22615 0.24989
 H7 H 0.25018 0.29248 0.20742
 H8 H 0.20786 0.25012 0.29223
 H9 H 0.29271 0.20763 0.24991
 C10 C 0.72546 -0.25036 0.22544
 C11 C 0.72544 -0.22648 0.24940
 C12 C 0.74939 -0.22645 0.27323
 C13 C 0.77340 -0.25031 0.27312
 C14 C 0.77349 -0.27422 0.24920
 C15 C 0.74950 -0.27422 0.22536
 H16 H 0.70687 -0.20797 0.24955
 H17 H 0.79191 -0.25022 0.29162
 H18 H 0.74955 -0.29273 0.20683
 C19 C 0.72722 0.25100 0.77339
 C20 C 0.75107 0.27493 0.77338
 C21 C 0.77502 0.27495 0.74951
 C22 C 0.77506 0.25098 0.72564
 C23 C 0.75121 0.22705 0.72565
 C24 C 0.72731 0.22708 0.74952
 H25 H 0.75094 0.29342 0.79190
 H26 H 0.79354 0.25090 0.70711
 H27 H 0.70885 0.20855 0.74953
 C28 C 0.27304 -0.25112 0.77480
 C29 C 0.27311 -0.22727 0.75082
 C30 C 0.24923 -0.22719 0.72692
 C31 C 0.22525 -0.25099 0.72700
 C32 C 0.22513 -0.27489 0.75097
 C33 C 0.24906 -0.27492 0.77487
 H34 H 0.29167 -0.20885 0.75077
 H35 H 0.20679 -0.25087 0.70845
 H36 H 0.24907 -0.29337 0.79347
 C37 C 0.72605 -0.25043 0.77446
 C38 C 0.75000 -0.27434 0.77450
 C39 C 0.77392 -0.27435 0.75061
 C40 C 0.77384 -0.25041 0.72670
 C41 C 0.74988 -0.22651 0.72668
 C42 C 0.72600 -0.22653 0.75055
 H43 H 0.74997 -0.29283 0.79305
 H44 H 0.79231 -0.25033 0.70816
 H45 H 0.70745 -0.20803 0.75053
 C46 C 0.27386 0.25002 0.77366
 C47 C 0.24991 0.27392 0.77368
 C48 C 0.22594 0.27388 0.74988
 C49 C 0.22592 0.24992 0.72606
 C50 C 0.24987 0.22601 0.72603
 C51 C 0.27383 0.22606 0.74984
 H52 H 0.24993 0.29248 0.79213
 H53 H 0.20737 0.24988 0.70763
 H54 H 0.29237 0.20755 0.74982
 C55 C 0.27477 -0.25026 0.22549
 C56 C 0.27480 -0.22642 0.24947
 C57 C 0.25083 -0.22635 0.27328
 C58 C 0.22684 -0.25010 0.27313
 C59 C 0.22678 -0.27393 0.24918
 C60 C 0.25074 -0.27402 0.22537
 H61 H 0.29336 -0.20798 0.24966
 H62 H 0.20828 -0.25004 0.29156
 H63 H 0.25062 -0.29252 0.20685
 C64 C 0.72640 0.25016 0.22593
 C65 C 0.75023 0.27408 0.22594
 C66 C 0.77409 0.27411 0.24985
 C67 C 0.77411 0.25020 0.27375
 C68 C 0.75028 0.22626 0.27375
 C69 C 0.72643 0.22625 0.24983
 H70 H 0.75021 0.29260 0.20743
 H71 H 0.79258 0.25021 0.29227
 H72 H 0.70797 0.20772 0.24982
 O73 O 0.27699 0.03076 0.46886
 O74 O 0.27682 -0.03222 0.53166
 O75 O 0.27704 -0.03213 0.46885
 O76 O 0.27683 0.03067 0.53164
 O77 O 0.22349 0.03076 0.53149
 O78 O 0.22370 -0.03204 0.46869
 O79 O 0.22349 -0.03213 0.53150
 O80 O 0.22366 0.03084 0.46870
 Cu81 Cu 0.28230 -0.00074 0.50027
 Cu82 Cu 0.21820 -0.00064 0.50008
 C83 C 0.25035 0.04143 0.45818
 C84 C 0.25012 -0.04280 0.54218
 C85 C 0.25040 -0.04267 0.45817
 C86 C 0.25012 0.04132 0.54215
 O87 O 0.72366 0.03137 0.53144
 O88 O 0.72324 -0.03159 0.46870
 O89 O 0.72335 -0.03153 0.53151
 O90 O 0.72351 0.03129 0.46866
 O91 O 0.77685 0.03095 0.46855
 O92 O 0.77670 -0.03187 0.53140
 O93 O 0.77658 -0.03193 0.46860
 O94 O 0.77700 0.03102 0.53133
 Cu95 Cu 0.71806 -0.00009 0.50010
 Cu96 Cu 0.78216 -0.00050 0.49996
 C97 C 0.75040 0.04183 0.54196
 C98 C 0.74984 -0.04237 0.45805
 C99 C 0.75000 -0.04230 0.54207
 C100 C 0.75021 0.04172 0.45801
 O101 O 0.46896 0.27694 0.03089
 O102 O 0.53181 0.27712 -0.03192
 O103 O 0.46899 0.27702 -0.03190
 O104 O 0.53177 0.27700 0.03087
 O105 O 0.53193 0.22360 0.03082
 O106 O 0.46916 0.22362 -0.03195
 O107 O 0.53198 0.22372 -0.03197
 O108 O 0.46913 0.22353 0.03084
 Cu109 Cu 0.50037 0.28241 -0.00051
 Cu110 Cu 0.50057 0.21823 -0.00057
 C111 C 0.45844 0.25021 0.04147
 C112 C 0.54251 0.25045 -0.04254
 C113 C 0.45848 0.25032 -0.04251
 C114 C 0.54244 0.25029 0.04144
 O115 O 0.53145 0.72271 0.03221
 O116 O 0.46853 0.72250 -0.03053
 O117 O 0.53135 0.72262 -0.03059
 O118 O 0.46864 0.72262 0.03226
 O119 O 0.46845 0.77602 0.03214
 O120 O 0.53116 0.77602 -0.03071
 O121 O 0.46834 0.77590 -0.03065
 O122 O 0.53127 0.77611 0.03209
 Cu123 Cu 0.50002 0.71722 0.00085
 Cu124 Cu 0.49979 0.78140 0.00070
 C125 C 0.54198 0.74944 0.04274
 C126 C 0.45781 0.74916 -0.04118
 C127 C 0.54184 0.74932 -0.04126
 C128 C 0.45796 0.74932 0.04280
 O129 O 0.03107 0.46948 0.27596
 O130 O -0.03184 0.53243 0.27584
 O131 O -0.03172 0.46955 0.27600
 O132 O 0.03099 0.53235 0.27580
 O133 O 0.03096 0.53226 0.22247
 O134 O -0.03176 0.46944 0.22268
 O135 O -0.03188 0.53234 0.22252
 O136 O 0.03104 0.46938 0.22264
 Cu137 Cu -0.00037 0.50097 0.28128
 Cu138 Cu -0.00042 0.50085 0.21719
 C139 C 0.04167 0.45880 0.24932
 C140 C -0.04249 0.54300 0.24916
 C141 C -0.04231 0.45889 0.24937
 C142 C 0.04158 0.54288 0.24910
 O143 O 0.03090 0.53217 0.72390
 O144 O -0.03186 0.46930 0.72358
 O145 O -0.03192 0.53219 0.72383
 O146 O 0.03094 0.46929 0.72364
 O147 O 0.03089 0.46904 0.77696
 O148 O -0.03198 0.53195 0.77715
 O149 O -0.03192 0.46905 0.77690
 O150 O 0.03085 0.53193 0.77722
 Cu151 Cu -0.00048 0.50077 0.71836
 Cu152 Cu -0.00055 0.50047 0.78244
 C153 C 0.04148 0.54265 0.75061
 C154 C -0.04247 0.45856 0.75018
 C155 C -0.04256 0.54268 0.75052
 C156 C 0.04152 0.45855 0.75027
 C157 C 0.34426 0.25004 0.15580
 C158 C 0.36868 0.27764 0.15928
 C159 C 0.39190 0.27766 0.13602
 C160 C 0.38843 0.25008 0.11155
 C161 C 0.35405 0.25344 0.09821
 C162 C 0.33083 0.25342 0.12147
 C163 C 0.36469 0.21910 0.15518
 C164 C 0.38791 0.21911 0.13192
 C165 C 0.31925 0.25003 0.18084
 C166 C 0.29870 0.25003 0.20141
 C167 C 0.41344 0.25011 0.08651
 C168 C 0.43399 0.25014 0.06594
 H169 H 0.36781 0.29558 0.17833
 H170 H 0.41092 0.29562 0.13516
 H171 H 0.34844 0.25564 0.07273
 H172 H 0.30533 0.25561 0.11591
 H173 H 0.36122 0.19894 0.17156
 H174 H 0.40433 0.19898 0.12838
 C175 C 0.65646 0.74961 0.15679
 C176 C 0.66952 0.75550 0.12266
 C177 C 0.64624 0.75549 0.09946
 C178 C 0.61216 0.74958 0.11266
 C179 C 0.60722 0.77561 0.13855
 C180 C 0.63051 0.77562 0.16174
 C181 C 0.63784 0.71768 0.15457
 C182 C 0.61455 0.71767 0.13137
 C183 C 0.68153 0.74961 0.18176
 C184 C 0.70215 0.74962 0.20227
 C185 C 0.58708 0.74956 0.08769
 C186 C 0.56648 0.74952 0.06716
 H187 H 0.69483 0.75935 0.11718
 H188 H 0.65160 0.75932 0.07413
 H189 H 0.58719 0.79253 0.13866
 H190 H 0.63043 0.79256 0.18171
 H191 H 0.64253 0.69691 0.16986
 H192 H 0.59930 0.69689 0.12681
 C193 C 0.65697 0.25086 -0.15659
 C194 C 0.64523 0.21691 -0.14754
 C195 C 0.62194 0.21682 -0.12435
 C196 C 0.61267 0.25069 -0.11247
 C197 C 0.60309 0.26936 -0.14300
 C198 C 0.62638 0.26945 -0.16620
 C199 C 0.66779 0.26610 -0.12465
 C200 C 0.64450 0.26601 -0.10146
 C201 C 0.68204 0.25094 -0.18157
 C202 C 0.70264 0.25098 -0.20209
 C203 C 0.58759 0.25059 -0.08750
 C204 C 0.56700 0.25052 -0.06697
 H205 H 0.65439 0.19487 -0.15839
 H206 H 0.61116 0.19471 -0.11534
 H207 H 0.58004 0.28145 -0.14613
 H208 H 0.62327 0.28161 -0.18919
 H209 H 0.69164 0.27608 -0.12061
 H210 H 0.64841 0.27592 -0.07755
 C211 C 0.34328 0.74887 -0.15517
 C212 C 0.37412 0.73085 -0.16505
 C213 C 0.39742 0.73089 -0.14186
 C214 C 0.38760 0.74896 -0.11107
 C215 C 0.35598 0.73303 -0.10026
 C216 C 0.33269 0.73299 -0.12345
 C217 C 0.35456 0.78283 -0.14564
 C218 C 0.37786 0.78288 -0.12246
 C219 C 0.31820 0.74883 -0.18014
 C220 C 0.29761 0.74883 -0.20067
 C221 C 0.41269 0.74901 -0.08610
 C222 C 0.43330 0.74907 -0.06559
 H223 H 0.37738 0.71908 -0.18821
 H224 H 0.42063 0.71917 -0.14517
 H225 H 0.35222 0.72270 -0.07650
 H226 H 0.30898 0.72261 -0.11954
 H227 H 0.34509 0.80490 -0.15618
 H228 H 0.38834 0.80499 -0.11314
 C229 C 0.15606 0.34427 0.24964
 C230 C 0.13231 0.34158 0.27791
 C231 C 0.10904 0.36487 0.27783
 C232 C 0.11179 0.38858 0.24950
 C233 C 0.11163 0.36731 0.21920
 C234 C 0.13490 0.34402 0.21927
 C235 C 0.16948 0.37873 0.25164
 C236 C 0.14621 0.40203 0.25157
 C237 C 0.18111 0.31919 0.24972
 C238 C 0.20171 0.29860 0.24977
 C239 C 0.08674 0.41366 0.24942
 C240 C 0.06616 0.43428 0.24936
 H241 H 0.13365 0.32301 0.29635
 H242 H 0.09045 0.36625 0.29622
 H243 H 0.09473 0.37028 0.19942
 H244 H 0.13792 0.32705 0.19956
 H245 H 0.19501 0.38435 0.25299
 H246 H 0.15182 0.42759 0.25285
 C247 C 0.15607 0.65655 0.75099
 C248 C 0.13244 0.65925 0.77936
 C249 C 0.10912 0.63611 0.77931
 C250 C 0.11170 0.61252 0.75088
 C251 C 0.14609 0.59885 0.75276
 C252 C 0.16941 0.62200 0.75282
 C253 C 0.13478 0.65707 0.72071
 C254 C 0.11146 0.63393 0.72065
 C255 C 0.18118 0.68147 0.75103
 C256 C 0.20182 0.70196 0.75102
 C257 C 0.08659 0.58758 0.75081
 C258 C 0.06598 0.56707 0.75073
 H259 H 0.13391 0.67772 0.79787
 H260 H 0.09060 0.63475 0.79777
 H261 H 0.15164 0.57324 0.75395
 H262 H 0.19493 0.61621 0.75405
 H263 H 0.13776 0.67413 0.70104
 H264 H 0.09446 0.63116 0.70094
 C265 C -0.15731 0.65709 0.24909
 C266 C -0.14279 0.65068 0.21565
 C267 C -0.11942 0.62749 0.21565
 C268 C -0.11285 0.61298 0.24909
 C269 C -0.14576 0.60085 0.26091
 C270 C -0.16913 0.62403 0.26091
 C271 C -0.12839 0.66519 0.27071
 C272 C -0.10502 0.64200 0.27071
 C273 C -0.18248 0.68206 0.24910
 C274 C -0.20316 0.70259 0.24914
 C275 C -0.08769 0.58801 0.24910
 C276 C -0.06703 0.56747 0.24912
 H277 H -0.15021 0.66324 0.19389
 H278 H -0.10682 0.62020 0.19388
 H279 H -0.15031 0.57621 0.26859
 H280 H -0.19369 0.61925 0.26859
 H281 H -0.12644 0.68720 0.28478
 H282 H -0.08305 0.64415 0.28478
 C283 C -0.15635 0.34395 0.74965
 C284 C -0.15721 0.36557 0.77969
 C285 C -0.13406 0.38889 0.77979
 C286 C -0.11231 0.38831 0.74984
 C287 C -0.13552 0.39064 0.72109
 C288 C -0.15867 0.36732 0.72099
 C289 C -0.12184 0.33052 0.74840
 C290 C -0.09869 0.35384 0.74850
 C291 C -0.18129 0.31885 0.74955
 C292 C -0.20179 0.29823 0.74951
 C293 C -0.08737 0.41342 0.74996
 C294 C -0.06687 0.43404 0.75006
 H295 H -0.17448 0.36281 0.79917
 H296 H -0.13150 0.40610 0.79936
 H297 H -0.13391 0.40899 0.70246
 H298 H -0.17689 0.36570 0.70227
 H299 H -0.11609 0.30495 0.74750
 H300 H -0.07311 0.34823 0.74770
 C301 C 0.25038 0.15593 0.34395
 C302 C 0.26531 0.12384 0.33289
 C303 C 0.26533 0.10056 0.35612
 C304 C 0.25042 0.11163 0.38815
 C305 C 0.21656 0.12382 0.37931
 C306 C 0.21655 0.14711 0.35608
 C307 C 0.26932 0.16531 0.37433
 C308 C 0.26934 0.14203 0.39756
 C309 C 0.25036 0.18100 0.31893
 C310 C 0.25032 0.20159 0.29836
 C311 C 0.25042 0.08655 0.41317
 C312 C 0.25040 0.06594 0.43373
 H313 H 0.27502 0.11977 0.30892
 H314 H 0.27505 0.07654 0.35205
 H315 H 0.19454 0.11495 0.39033
 H316 H 0.19451 0.15818 0.34720
 H317 H 0.28163 0.18823 0.37732
 H318 H 0.28167 0.14500 0.42046
 C319 C 0.75109 0.15665 0.65574
 C320 C 0.75997 0.16915 0.62204
 C321 C 0.75984 0.14579 0.59891
 C322 C 0.75084 0.11221 0.61173
 C323 C 0.71809 0.11682 0.62838
 C324 C 0.71822 0.14018 0.65151
 C325 C 0.77491 0.12900 0.66235
 C326 C 0.77478 0.10564 0.63921
 C327 C 0.75120 0.18179 0.68065
 C328 C 0.75124 0.20244 0.70115
 C329 C 0.75070 0.08705 0.58682
 C330 C 0.75056 0.06640 0.56634
 H331 H 0.76584 0.19415 0.61681
 H332 H 0.76560 0.15079 0.57386
 H333 H 0.69668 0.10296 0.62252
 H334 H 0.69692 0.14632 0.66547
 H335 H 0.79050 0.12787 0.68335
 H336 H 0.79026 0.08450 0.64040
 C337 C 0.24958 -0.15710 0.65662
 C338 C 0.28352 -0.14553 0.64744
 C339 C 0.28365 -0.12230 0.62415
 C340 C 0.24982 -0.11290 0.61231
 C341 C 0.23131 -0.10312 0.64285
 C342 C 0.23118 -0.12635 0.66614
 C343 C 0.23421 -0.16797 0.62475
 C344 C 0.23434 -0.14474 0.60147
 C345 C 0.24944 -0.18212 0.68169
 C346 C 0.24934 -0.20267 0.70231
 C347 C 0.24996 -0.08787 0.58724
 C348 C 0.25005 -0.06730 0.56666
 H349 H 0.30551 -0.15478 0.65828
 H350 H 0.30575 -0.11164 0.61505
 H351 H 0.21935 -0.07997 0.64591
 H352 H 0.21911 -0.12311 0.68914
 H353 H 0.22412 -0.19182 0.62083
 H354 H 0.22436 -0.14869 0.57760
 C355 C 0.74939 -0.15644 0.34352
 C356 C 0.77155 -0.16432 0.37213
 C357 C 0.77161 -0.14114 0.39544
 C358 C 0.74951 -0.11234 0.38786
 C359 C 0.71615 -0.12717 0.38183
 C360 C 0.71608 -0.15035 0.35852
 C361 C 0.76062 -0.12326 0.33146
 C362 C 0.76069 -0.10008 0.35477
 C363 C 0.74934 -0.18141 0.31842
 C364 C 0.74934 -0.20193 0.29781
 C365 C 0.74959 -0.08736 0.41296
 C366 C 0.74969 -0.06683 0.43356
 H367 H 0.78592 -0.18619 0.37392
 H368 H 0.78603 -0.14316 0.41719
 H369 H 0.69448 -0.12009 0.39473
 H370 H 0.69436 -0.16313 0.35146
 H371 H 0.76789 -0.11840 0.30678
 H372 H 0.76800 -0.07536 0.35005
 C373 C 0.65596 0.74949 -0.15548
 C374 C 0.64685 0.71555 -0.14375
 C375 C 0.62362 0.71550 -0.12051
 C376 C 0.61178 0.74940 -0.11129
 C377 C 0.60082 0.76483 -0.14313
 C378 C 0.62406 0.76487 -0.16637
 C379 C 0.66556 0.76798 -0.12490
 C380 C 0.64233 0.76794 -0.10166
 C381 C 0.68096 0.74953 -0.18049
 C382 C 0.70151 0.74956 -0.20103
 C383 C 0.58679 0.74936 -0.08628
 C384 C 0.56625 0.74933 -0.06572
 H385 H 0.65770 0.69349 -0.15288
 H386 H 0.61456 0.69341 -0.10973
 H387 H 0.57693 0.77484 -0.14707
 H388 H 0.62006 0.77492 -0.19022
 H389 H 0.68857 0.78005 -0.12177
 H390 H 0.64543 0.77997 -0.07862
 C391 C 0.34412 0.25018 -0.15648
 C392 C 0.33267 0.26389 -0.12406
 C393 C 0.35595 0.26394 -0.10087
 C394 C 0.38840 0.25026 -0.11239
 C395 C 0.39716 0.27032 -0.14226
 C396 C 0.37387 0.27027 -0.16545
 C397 C 0.35731 0.21643 -0.14858
 C398 C 0.38059 0.21647 -0.12539
 C399 C 0.31907 0.25012 -0.18141
 C400 C 0.29846 0.25007 -0.20190
 C401 C 0.41345 0.25030 -0.08744
 C402 C 0.43402 0.25032 -0.06693
 H403 H 0.30841 0.27279 -0.11970
 H404 H 0.35164 0.27287 -0.07665
 H405 H 0.41967 0.28340 -0.14497
 H406 H 0.37643 0.28331 -0.18802
 H407 H 0.34909 0.19443 -0.16017
 H408 H 0.39232 0.19452 -0.11712
 C409 C 0.34369 0.74954 0.15688
 C410 C 0.37749 0.74164 0.16979
 C411 C 0.40076 0.74158 0.14659
 C412 C 0.38793 0.74942 0.11275
 C413 C 0.37058 0.78200 0.11629
 C414 C 0.34731 0.78206 0.13949
 C415 C 0.33773 0.72483 0.12997
 C416 C 0.36100 0.72476 0.10677
 C417 C 0.31865 0.74961 0.18184
 C418 C 0.29805 0.74967 0.20234
 C419 C 0.41296 0.74936 0.08778
 C420 C 0.43352 0.74933 0.06724
 H421 H 0.38269 0.73655 0.19494
 H422 H 0.42590 0.73643 0.15186
 H423 H 0.37608 0.80316 0.10184
 H424 H 0.33288 0.80327 0.14493
 H425 H 0.31706 0.70879 0.12921
 H426 H 0.36026 0.70867 0.08612
 C427 C 0.65644 0.25019 0.15576
 C428 C 0.66965 0.25610 0.12170
 C429 C 0.64646 0.25612 0.09842
 C430 C 0.61234 0.25023 0.11150
 C431 C 0.60730 0.27624 0.13738
 C432 C 0.63050 0.27622 0.16066
 C433 C 0.63781 0.21828 0.15346
 C434 C 0.61462 0.21830 0.13019
 C435 C 0.68139 0.25016 0.18080
 C436 C 0.70191 0.25015 0.20138
 C437 C 0.58738 0.25026 0.08646
 C438 C 0.56686 0.25028 0.06589
 H439 H 0.69498 0.25993 0.11633
 H440 H 0.65192 0.25997 0.07311
 H441 H 0.58729 0.29319 0.13742
 H442 H 0.63035 0.29314 0.18064
 H443 H 0.64242 0.19749 0.16876
 H444 H 0.59936 0.19754 0.12554
 C445 C -0.15710 0.65687 0.75064
 C446 C -0.15089 0.64205 0.78401
 C447 C -0.12757 0.61882 0.78400
 C448 C -0.11276 0.61270 0.75064
 C449 C -0.10075 0.64584 0.73924
 C450 C -0.12407 0.66907 0.73925
 C451 C -0.16481 0.62809 0.72868
 C452 C -0.14149 0.60486 0.72867
 C453 C -0.18219 0.68186 0.75064
 C454 C -0.20281 0.70242 0.75063
 C455 C -0.08767 0.58770 0.75062
 C456 C -0.06706 0.56714 0.75059
 H457 H -0.16368 0.64916 0.80572
 H458 H -0.12038 0.60603 0.80571
 H459 H -0.07611 0.65064 0.73182
 H460 H -0.11941 0.69377 0.73183
 H461 H -0.18665 0.62612 0.71439
 H462 H -0.14336 0.58299 0.71438
 C463 C -0.15607 0.34436 0.24975
 C464 C -0.16018 0.36927 0.22263
 C465 C -0.13703 0.39259 0.22255
 C466 C -0.11206 0.38870 0.24961
 C467 C -0.09859 0.35440 0.24551
 C468 C -0.12174 0.33108 0.24559
 C469 C -0.15501 0.36427 0.28094
 C470 C -0.13186 0.38759 0.28086
 C471 C -0.18097 0.31928 0.24982
 C472 C -0.20145 0.29868 0.24985
 C473 C -0.08716 0.41379 0.24952
 C474 C -0.06668 0.43440 0.24946
 H475 H -0.17955 0.36865 0.20503
 H476 H -0.13658 0.41195 0.20489
 H477 H -0.07313 0.34890 0.24279
 H478 H -0.11610 0.30561 0.24293
 H479 H -0.17101 0.36039 0.30129
 H480 H -0.12804 0.40369 0.30115
 C481 C 0.15577 0.34407 0.74998
 C482 C 0.12156 0.33082 0.75479
 C483 C 0.09830 0.35412 0.75484
 C484 C 0.11155 0.38838 0.75008
 C485 C 0.13094 0.38687 0.71858
 C486 C 0.15420 0.36357 0.71854
 C487 C 0.16011 0.36934 0.77669
 C488 C 0.13686 0.39263 0.77674
 C489 C 0.18079 0.31902 0.74993
 C490 C 0.20137 0.29843 0.74990
 C491 C 0.08654 0.41345 0.75013
 C492 C 0.06598 0.43405 0.75019
 H493 H 0.11607 0.30538 0.75788
 H494 H 0.07290 0.34864 0.75797
 H495 H 0.12678 0.40271 0.69812
 H496 H 0.16995 0.35945 0.69803
 H497 H 0.17972 0.36896 0.79404
 H498 H 0.13655 0.41222 0.79413
 C499 C 0.15631 0.65644 0.24899
 C500 C 0.12761 0.66445 0.27097
 C501 C 0.10423 0.64137 0.27097
 C502 C 0.11185 0.61255 0.24898
 C503 C 0.14486 0.60014 0.26035
 C504 C 0.16823 0.62322 0.26036
 C505 C 0.14147 0.65043 0.21563
 C506 C 0.11809 0.62735 0.21562
 C507 C 0.18146 0.68127 0.24901
 C508 C 0.20213 0.70169 0.24907
 C509 C 0.08671 0.58770 0.24899
 C510 C 0.06607 0.56725 0.24903
 H511 H 0.12581 0.68633 0.28528
 H512 H 0.08240 0.64347 0.28527
 H513 H 0.14946 0.57540 0.26775
 H514 H 0.19287 0.61826 0.26775
 H515 H 0.14868 0.66318 0.19392
 H516 H 0.10527 0.62032 0.19391
 C517 C 0.74982 -0.15643 0.65649
 C518 C 0.72549 -0.16267 0.62931
 C519 C 0.72552 -0.13945 0.60602
 C520 C 0.74986 -0.11227 0.61220
 C521 C 0.78249 -0.12938 0.61620
 C522 C 0.78247 -0.15260 0.63949
 C523 C 0.74152 -0.12261 0.66919
 C524 C 0.74154 -0.09939 0.64590
 C525 C 0.74980 -0.18142 0.68155
 C526 C 0.74982 -0.20197 0.70213
 C527 C 0.74989 -0.08728 0.58714
 C528 C 0.74993 -0.06674 0.56655
 H529 H 0.70965 -0.18350 0.62843
 H530 H 0.70969 -0.14038 0.58519
 H531 H 0.80375 -0.12375 0.60199
 H532 H 0.80370 -0.16687 0.64523
 H533 H 0.73609 -0.11736 0.69425
 H534 H 0.73614 -0.07424 0.65101
 C535 C 0.25076 -0.15650 0.34360
 C536 C 0.22862 -0.12775 0.33598
 C537 C 0.22855 -0.10460 0.35931
 C538 C 0.25064 -0.11248 0.38797
 C539 C 0.28401 -0.11846 0.37307
 C540 C 0.28408 -0.14161 0.34974
 C541 C 0.23951 -0.16884 0.37664
 C542 C 0.23944 -0.14569 0.39997
 C543 C 0.25083 -0.18141 0.31850
 C544 C 0.25085 -0.20189 0.29788
 C545 C 0.25056 -0.08756 0.41307
 C546 C 0.25049 -0.06707 0.43368
 H547 H 0.21426 -0.12575 0.31418
 H548 H 0.21413 -0.08276 0.35750
 H549 H 0.30568 -0.10564 0.38021
 H550 H 0.30580 -0.14862 0.33689
 H551 H 0.23223 -0.19358 0.38129
 H552 H 0.23211 -0.15059 0.42462
 C553 C 0.75030 0.15610 0.34384
 C554 C 0.73538 0.16719 0.37585
 C555 C 0.73538 0.14391 0.39908
 C556 C 0.75029 0.11183 0.38801
 C557 C 0.78415 0.12062 0.37591
 C558 C 0.78415 0.14390 0.35268
 C559 C 0.73137 0.12572 0.33441
 C560 C 0.73137 0.10244 0.35764
 C561 C 0.75030 0.18115 0.31885
 C562 C 0.75029 0.20172 0.29829
 C563 C 0.75028 0.08678 0.41301
 C564 C 0.75026 0.06619 0.43356
 H565 H 0.72567 0.19121 0.37991
 H566 H 0.72566 0.14799 0.42305
 H567 H 0.80617 0.10953 0.38479
 H568 H 0.80618 0.15277 0.34166
 H569 H 0.71905 0.12276 0.31150
 H570 H 0.71904 0.07953 0.35463
 C571 C 0.24990 0.15574 0.65613
 C572 C 0.23947 0.12242 0.66853
 C573 C 0.23950 0.09913 0.64535
 C574 C 0.24996 0.11144 0.61204
 C575 C 0.28312 0.12692 0.61749
 C576 C 0.28309 0.15021 0.64068
 C577 C 0.22718 0.16307 0.62783
 C578 C 0.22721 0.13978 0.60464
 C579 C 0.24986 0.18080 0.68107
 C580 C 0.24986 0.20141 0.70157
 C581 C 0.25000 0.08638 0.58709
 C582 C 0.25005 0.06579 0.56657
 H583 H 0.23266 0.11756 0.69334
 H584 H 0.23272 0.07430 0.65029
 H585 H 0.30473 0.12018 0.60431
 H586 H 0.30467 0.16343 0.64736
 H587 H 0.21237 0.18466 0.62615
 H588 H 0.21243 0.14140 0.58309
   
