data_POSCAR
  _audit_creation_date              2014-09-24
  _audit_creation_method            'ToBaCCo'
  _symmetry_space_group_name_H-M    'P1'
  _symmetry_Int_Tables_number       1
  _symmetry_cell_setting            triclinic
  loop_
  _symmetry_equiv_pos_as_xyz
 x,y,z
_cell_length_a 23.1531
_cell_length_b 28.6229
_cell_length_c 19.6890
_cell_angle_alpha 90.045800
_cell_angle_beta 89.977400
_cell_angle_gamma 90.003100
loop_
  _atom_site_label
  _atom_site_type_symbol
  _atom_site_fract_x
  _atom_site_fract_y
  _atom_site_fract_z
O1 O 0.24901 0.29623 0.34633
 O2 O 0.17817 0.20813 0.23772
 O3 O 0.24757 0.20572 0.34268
 O4 O 0.17763 0.29874 0.24390
 O5 O 0.25242 0.30075 0.17424
 O6 O 0.32250 0.20738 0.27329
 O7 O 0.25287 0.20931 0.16794
 O8 O 0.32342 0.29713 0.27601
 Cu9 Cu 0.20552 0.25194 0.29954
 Cu10 Cu 0.29508 0.25358 0.21548
 C11 C 0.29871 0.31123 0.32978
 C12 C 0.20331 0.19401 0.18412
 C13 C 0.29751 0.19147 0.32591
 C14 C 0.20313 0.31569 0.19248
 O15 O 0.82258 0.29533 0.22826
 O16 O 0.74962 0.20890 0.33688
 O17 O 0.82315 0.20554 0.23783
 O18 O 0.75145 0.30067 0.33062
 O19 O 0.67811 0.29817 0.25899
 O20 O 0.74941 0.20190 0.16677
 O21 O 0.67566 0.20757 0.26615
 O22 O 0.74955 0.29282 0.15617
 Cu23 Cu 0.79381 0.25304 0.29096
 Cu24 Cu 0.70583 0.24996 0.20477
 C25 C 0.79884 0.30829 0.17328
 C26 C 0.70033 0.19325 0.31982
 C27 C 0.79858 0.18758 0.18651
 C28 C 0.70277 0.31569 0.31069
 O29 O 0.75065 0.79707 0.66981
 O30 O 0.82281 0.70871 0.77598
 O31 O 0.75180 0.70526 0.67348
 O32 O 0.82420 0.79860 0.76954
 O33 O 0.75009 0.80174 0.84004
 O34 O 0.67838 0.70706 0.74512
 O35 O 0.74976 0.71065 0.84815
 O36 O 0.67672 0.79775 0.74077
 Cu37 Cu 0.79450 0.75210 0.71464
 Cu38 Cu 0.70639 0.75435 0.80078
 C39 C 0.70149 0.81261 0.68752
 C40 C 0.79892 0.69515 0.83058
 C41 C 0.70298 0.69018 0.69291
 C42 C 0.79953 0.81608 0.82121
 O43 O 0.32087 0.79775 0.73241
 O44 O 0.25133 0.70297 0.82892
 O45 O 0.32240 0.70809 0.72731
 O46 O 0.25119 0.79432 0.83728
 O47 O 0.17651 0.79614 0.76767
 O48 O 0.24806 0.70946 0.65697
 O49 O 0.17657 0.70553 0.75932
 O50 O 0.24621 0.79991 0.66264
 Cu51 Cu 0.29369 0.75076 0.78888
 Cu52 Cu 0.20423 0.75308 0.70478
 C53 C 0.29595 0.81410 0.68013
 C54 C 0.20215 0.68805 0.81030
 C55 C 0.29786 0.69451 0.67319
 C56 C 0.20157 0.80977 0.82162
 C57 C 1.00227 0.10722 0.09925
 C58 C 1.05503 0.09010 0.07478
 C59 C 1.05541 0.04948 0.03446
 C60 C 1.00413 0.02390 0.02226
 C61 C 0.95227 0.04116 0.05070
 C62 C 0.95056 0.08358 0.08611
 C63 C 1.00408 -0.02026 -0.01980
 C64 C 0.95211 -0.03772 -0.04759
 C65 C 0.95034 -0.08020 -0.08283
 C66 C 1.00200 -0.10374 -0.09667
 C67 C 1.05479 -0.08659 -0.07228
 C68 C 1.05529 -0.04584 -0.03223
 H69 H 1.00128 0.13998 0.12664
 H70 H 1.09596 0.03810 0.01330
 H71 H 0.91255 0.02172 0.04661
 H72 H 0.91220 -0.01857 -0.04282
 H73 H 1.00087 -0.13660 -0.12385
 H74 H 1.09592 -0.03448 -0.01126
 C75 C 0.50223 0.61038 0.59487
 C76 C 0.55425 0.58646 0.58454
 C77 C 0.55356 0.54377 0.54942
 C78 C 0.50226 0.52630 0.52001
 C79 C 0.45099 0.55239 0.52874
 C80 C 0.45029 0.59335 0.56796
 C81 C 0.50226 0.48117 0.48070
 C82 C 0.45101 0.45503 0.47208
 C83 C 0.45038 0.41394 0.43315
 C84 C 0.50236 0.39685 0.40643
 C85 C 0.55436 0.42085 0.41656
 C86 C 0.55360 0.46365 0.45137
 H87 H 0.50237 0.64327 0.62196
 H88 H 0.59327 0.52414 0.54630
 H89 H 0.41114 0.54098 0.50576
 H90 H 0.41114 0.46648 0.49499
 H91 H 0.50256 0.36384 0.37966
 H92 H 0.59330 0.48331 0.45440
 C93 C 0.00222 0.39443 0.09497
 C94 C -0.04999 0.41127 0.06866
 C95 C -0.04980 0.45231 0.02956
 C96 C 0.00136 0.47850 0.02023
 C97 C 0.05289 0.46121 0.04929
 C98 C 0.05403 0.41856 0.08424
 C99 C 0.00125 0.52346 -0.01944
 C100 C 0.05269 0.54088 -0.04865
 C101 C 0.05369 0.58366 -0.08328
 C102 C 0.00183 0.60777 -0.09359
 C103 C -0.05031 0.59077 -0.06724
 C104 C -0.04998 0.54961 -0.02844
 H105 H 0.00275 0.36150 0.12187
 H106 H -0.08988 0.46365 0.00707
 H107 H 0.09252 0.48094 0.04607
 H108 H 0.09235 0.52118 -0.04569
 H109 H 0.00226 0.64082 -0.12017
 H110 H -0.08998 0.53816 -0.00585
 C111 C 0.50059 0.89586 0.59605
 C112 C 0.44842 0.91472 0.57298
 C113 C 0.44938 0.95561 0.53373
 C114 C 0.50138 0.98013 0.52087
 C115 C 0.55315 0.96039 0.54621
 C116 C 0.55321 0.91776 0.58150
 C117 C 0.50139 1.02567 0.48158
 C118 C 0.55322 1.04570 0.45689
 C119 C 0.55327 1.08835 0.42171
 C120 C 0.50068 1.11008 0.40651
 C121 C 0.44851 1.09114 0.42955
 C122 C 0.44940 1.05010 0.46850
 H123 H 0.50035 0.86304 0.62324
 H124 H 0.40883 0.96785 0.51410
 H125 H 0.59400 0.97787 0.54014
 H126 H 0.59423 1.02857 0.46363
 H127 H 0.50053 1.14300 0.37952
 H128 H 0.40878 1.03780 0.48792
 N129 N 1.15839 0.11375 0.05440
 N130 N 1.19734 0.14106 0.08340
 C131 C 1.17409 0.16015 0.13966
 C132 C 1.11798 0.14445 0.14678
 C133 C 1.10937 0.11514 0.09148
 H134 H 1.08769 0.15347 0.18655
 H135 H 1.16528 0.09555 0.00915
 H136 H 1.23884 0.14684 0.06433
 N137 N 0.66106 0.59971 0.57725
 N138 N 0.69999 0.62759 0.60496
 C139 C 0.67433 0.65308 0.65388
 C140 C 0.61659 0.64092 0.65767
 C141 C 0.60962 0.60710 0.60771
 H142 H 0.58399 0.65604 0.69038
 H143 H 0.66941 0.57768 0.53611
 H144 H 0.74304 0.62974 0.58939
 N145 N -0.15226 0.38679 0.04348
 N146 N -0.19206 0.35965 0.07120
 C147 C -0.17054 0.34116 0.12874
 C148 C -0.11473 0.35698 0.13799
 C149 C -0.10448 0.38580 0.08272
 H150 H -0.08578 0.34861 0.17937
 H151 H -0.15777 0.40476 -0.00219
 H152 H -0.23301 0.35379 0.05064
 N153 N 0.34375 0.89514 0.55352
 N154 N 0.30349 0.86909 0.58237
 C155 C 0.32602 0.84868 0.63794
 C156 C 0.38306 0.86214 0.64478
 C157 C 0.39293 0.89155 0.59000
 H158 H 0.41327 0.85127 0.68360
 H159 H 0.33761 0.91372 0.50851
 H160 H 0.26175 0.86470 0.56328
 N161 N -0.15256 0.61510 -0.04148
 N162 N -0.19226 0.64261 -0.06856
 C163 C -0.17072 0.66157 -0.12580
 C164 C -0.11502 0.64565 -0.13553
 C165 C -0.10482 0.61631 -0.08083
 H166 H -0.08607 0.65438 -0.17677
 H167 H -0.15807 0.59680 0.00391
 H168 H -0.23312 0.64848 -0.04771
 N169 N 0.34529 1.11224 0.45321
 N170 N 0.30300 1.14030 0.42360
 C171 C 0.32572 1.15904 0.36683
 C172 C 0.38214 1.14361 0.35881
 C173 C 0.39302 1.11470 0.41405
 H174 H 0.41181 1.15305 0.31860
 H175 H 0.34050 1.09480 0.49941
 H176 H 0.26198 1.14629 0.44392
 N177 N 1.15652 -0.11188 -0.04792
 N178 N 1.19737 -0.14125 -0.07787
 C179 C 1.17411 -0.15846 -0.13541
 C180 C 1.11872 -0.14083 -0.14346
 C181 C 1.10906 -0.11207 -0.08761
 H182 H 1.08906 -0.14838 -0.18451
 H183 H 1.16200 -0.09485 -0.00147
 H184 H 1.23811 -0.14857 -0.05776
 N185 N 0.66116 0.40763 0.42404
 N186 N 0.70002 0.37937 0.39699
 C187 C 0.67433 0.35345 0.34859
 C188 C 0.61667 0.36574 0.34442
 C189 C 0.60974 0.40006 0.39367
 H190 H 0.58407 0.35031 0.31206
 H191 H 0.66951 0.43000 0.46479
 H192 H 0.74301 0.37721 0.41276
 N193 N 0.84562 -0.09607 -0.06304
 N194 N 0.80375 -0.12625 -0.08887
 C195 C 0.82731 -0.14902 -0.14193
 C196 C 0.88382 -0.13411 -0.15133
 C197 C 0.89396 -0.10141 -0.10054
 H198 H 0.91437 -0.14700 -0.18852
 H199 H 0.84075 -0.07605 -0.01906
 H200 H 0.76244 -0.13075 -0.06857
 N201 N 0.34772 0.39049 0.45857
 N202 N 0.30761 0.36356 0.43101
 C203 C 0.32907 0.34459 0.37372
 C204 C 0.38509 0.35984 0.36448
 C205 C 0.39560 0.38883 0.41946
 H206 H 0.41406 0.35091 0.32331
 H207 H 0.34235 0.40872 0.50408
 H208 H 0.26660 0.35804 0.45161
 N209 N 0.16051 0.59689 -0.07521
 N210 N 0.19948 0.62499 -0.10240
 C211 C 0.17389 0.65059 -0.15116
 C212 C 0.11627 0.63828 -0.15541
 C213 C 0.10919 0.60429 -0.10591
 H214 H 0.08376 0.65346 -0.18814
 H215 H 0.16872 0.57473 -0.03423
 H216 H 0.24244 0.62725 -0.08653
 N217 N 0.65655 1.10922 0.44277
 N218 N 0.69712 1.13992 0.41535
 C219 C 0.67310 1.15997 0.36032
 C220 C 0.61747 1.14291 0.35143
 C221 C 0.60849 1.11157 0.40427
 H222 H 0.58690 1.15303 0.31254
 H223 H 0.66207 1.09050 0.48780
 H224 H 0.73822 1.14605 0.43530
 N225 N 0.16088 0.40545 0.07601
 N226 N 0.20003 0.37776 0.10369
 C227 C 0.17461 0.35254 0.15301
 C228 C 0.11690 0.36467 0.15710
 C229 C 0.10962 0.39816 0.10695
 H230 H 0.08450 0.34974 0.19024
 H231 H 0.16895 0.42730 0.03463
 H232 H 0.24300 0.37555 0.08785
 N233 N 0.65860 0.89982 0.56710
 N234 N 0.69733 0.87139 0.59405
 C235 C 0.67262 0.84822 0.64596
 C236 C 0.61581 0.86246 0.65246
 C237 C 0.60833 0.89512 0.60118
 H238 H 0.58418 0.84991 0.68857
 H239 H 0.66624 0.92067 0.52454
 H240 H 0.73964 0.86763 0.57646
 N241 N 0.84404 0.09675 0.07345
 N242 N 0.80411 0.12466 0.09913
 C243 C 0.82811 0.15029 0.14899
 C244 C 0.88567 0.13820 0.15557
 C245 C 0.89438 0.10427 0.10631
 H246 H 0.91709 0.15344 0.18970
 H247 H 0.83713 0.07461 0.03207
 H248 H 0.76165 0.12678 0.08151
 N249 N 0.34758 0.61673 0.54280
 N250 N 0.30726 0.64324 0.57085
 C251 C 0.32855 0.66180 0.62848
 C252 C 0.38469 0.64675 0.63743
 C253 C 0.39542 0.61828 0.58194
 H254 H 0.41355 0.65541 0.67879
 H255 H 0.34234 0.59882 0.49700
 H256 H 0.26620 0.64869 0.55039
   
