data_POSCAR
  _audit_creation_date              2014-09-24
  _audit_creation_method            'ToBaCCo'
  _symmetry_space_group_name_H-M    'P1'
  _symmetry_Int_Tables_number       1
  _symmetry_cell_setting            triclinic
  loop_
  _symmetry_equiv_pos_as_xyz
 x,y,z
_cell_length_a 28.9212
_cell_length_b 26.1990
_cell_length_c 24.4407
_cell_angle_alpha 86.155300
_cell_angle_beta 96.150300
_cell_angle_gamma 88.735400
loop_
  _atom_site_label
  _atom_site_type_symbol
  _atom_site_fract_x
  _atom_site_fract_y
  _atom_site_fract_z
N1 N 0.54919 0.67046 0.60594
 N2 N 0.54290 0.63937 0.64893
 C3 C 0.50712 0.65751 0.67375
 C4 C 0.48979 0.70131 0.64370
 C5 C 0.51697 0.70890 0.60100
 H6 H 0.49419 0.63996 0.71020
 H7 H 0.51452 0.74064 0.57007
 Cu8 Cu 0.57961 0.57612 0.66529
 Cu9 Cu 0.60113 0.66091 0.56272
 Cu10 Cu 0.66733 0.54826 0.59142
 N11 N 0.61668 0.51307 0.68099
 N12 N 0.64999 0.50143 0.65079
 C13 C 0.66616 0.45333 0.66599
 C14 C 0.64191 0.43484 0.70824
 C15 C 0.61043 0.47286 0.71647
 H16 H 0.69152 0.43263 0.64585
 H17 H 0.58305 0.46999 0.74329
 N18 N 0.67961 0.60087 0.53348
 N19 N 0.65528 0.64449 0.52388
 C20 C 0.67521 0.67489 0.48693
 C21 C 0.71303 0.64858 0.47209
 C22 C 0.71519 0.60189 0.50201
 H23 H 0.66405 0.71373 0.47322
 H24 H 0.74216 0.57247 0.50324
 H25 H 0.60208 0.58182 0.57176
 H26 H 0.64314 0.61475 0.62106
 N27 N 0.96152 0.34049 0.12521
 N28 N 0.98266 0.38078 0.14420
 C29 C 1.02905 0.37328 0.14565
 C30 C 1.03665 0.32542 0.12756
 C31 C 0.99358 0.30555 0.11447
 H32 H 1.05482 0.40122 0.15661
 H33 H 0.98597 0.27016 0.09538
 Cu34 Cu 0.94696 0.43985 0.16277
 Cu35 Cu 0.89402 0.33953 0.10891
 Cu36 Cu 0.84376 0.46098 0.08768
 N37 N 0.90665 0.49754 0.17488
 N38 N 0.86575 0.50512 0.14577
 C39 C 0.84248 0.54334 0.16605
 C40 C 0.87052 0.56065 0.20962
 C41 C 0.91102 0.53096 0.21462
 H42 H 0.80693 0.55551 0.15217
 H43 H 0.93962 0.53093 0.24700
 N44 N 0.81596 0.40133 0.05372
 N45 N 0.83296 0.35426 0.06637
 C46 C 0.80517 0.32112 0.03998
 C47 C 0.76976 0.34906 0.00872
 C48 C 0.77729 0.39977 0.01788
 H49 H 0.81166 0.28023 0.04110
 H50 H 0.75629 0.43274 0.00036
 H51 H 0.90122 0.41272 0.08080
 H52 H 0.86969 0.40490 0.14343
 N53 N 0.46862 0.14819 -0.07745
 N54 N 0.48105 0.11156 -0.10767
 C55 C 0.52041 0.12431 -0.12946
 C56 C 0.53368 0.17061 -0.11046
 C57 C 0.50032 0.18506 -0.07769
 H58 H 0.53693 0.10261 -0.15850
 H59 H 0.49740 0.22120 -0.05921
 Cu60 Cu 0.44291 0.05258 -0.11901
 Cu61 Cu 0.40861 0.14929 -0.04779
 Cu62 Cu 0.33315 0.05390 -0.08684
 N63 N 0.39841 0.00472 -0.14857
 N64 N 0.35486 0.00651 -0.13757
 C65 C 0.33022 -0.02655 -0.16815
 C66 C 0.36038 -0.05046 -0.19892
 C67 C 0.40334 -0.02993 -0.18591
 H68 H 0.29310 -0.03142 -0.16937
 H69 H 0.43488 -0.03721 -0.20460
 N70 N 0.31817 0.10572 -0.03599
 N71 N 0.34622 0.14322 -0.02267
 C72 C 0.32507 0.17429 0.00945
 C73 C 0.28242 0.15452 0.01721
 C74 C 0.27884 0.11115 -0.01174
 H75 H 0.33957 0.20841 0.02607
 H76 H 0.24945 0.08637 -0.01591
 H77 H 0.39630 0.07169 -0.04506
 H78 H 0.37730 0.10985 -0.11135
 N79 N 0.03773 0.82395 0.36403
 N80 N 0.01459 0.86323 0.33661
 C81 C -0.03113 0.85340 0.33086
 C82 C -0.03635 0.80511 0.35500
 C83 C 0.00757 0.78749 0.37627
 H84 H -0.05852 0.88064 0.31411
 H85 H 0.01650 0.75303 0.40255
 Cu86 Cu 0.04574 0.92579 0.31639
 Cu87 Cu 0.10404 0.82689 0.38964
 Cu88 Cu 0.13881 0.95113 0.40209
 N89 N 0.08051 0.98766 0.30402
 N90 N 0.11735 0.99692 0.33800
 C91 C 0.13813 1.03858 0.31827
 C92 C 0.11266 1.05657 0.26987
 C93 C 0.07631 1.02356 0.26135
 H94 H 0.17081 1.05277 0.33608
 H95 H 0.05118 1.02334 0.22527
 N96 N 0.17088 0.89236 0.44490
 N97 N 0.16033 0.84442 0.43681
 C98 C 0.19150 0.81291 0.46833
 C99 C 0.22231 0.84304 0.49774
 C100 C 0.20848 0.89305 0.48223
 H101 H 0.19109 0.77155 0.47055
 H102 H 0.22529 0.92722 0.49564
 H103 H 0.08606 0.89799 0.40659
 H104 H 0.12467 0.89508 0.35034
 C105 C 0.12700 0.23756 0.10987
 C106 C 0.16498 0.21979 0.08463
 C107 C 0.18001 0.16827 0.09301
 C108 C 0.15798 0.13513 0.12836
 C109 C 0.12080 0.15268 0.15512
 C110 C 0.10445 0.20351 0.14470
 H111 H 0.18191 0.24582 0.05734
 H112 H 0.17009 0.09556 0.13544
 H113 H 0.07563 0.21681 0.16538
 C114 C 0.39312 0.79623 0.63298
 C115 C 0.35263 0.80634 0.59663
 C116 C 0.31964 0.84330 0.60788
 C117 C 0.32777 0.87049 0.65516
 C118 C 0.36835 0.86075 0.69167
 C119 C 0.40075 0.82349 0.68053
 H120 H 0.34733 0.78612 0.55934
 H121 H 0.30291 0.90006 0.66266
 H122 H 0.43256 0.81690 0.70805
 C123 C 0.86919 0.72358 0.37285
 C124 C 0.88764 0.69291 0.33476
 C125 C 0.86696 0.64663 0.32214
 C126 C 0.82940 0.62972 0.34981
 C127 C 0.81139 0.65948 0.38832
 C128 C 0.83086 0.70688 0.39892
 H129 H 0.91696 0.70551 0.31383
 H130 H 0.81421 0.59322 0.34154
 H131 H 0.81720 0.73023 0.42878
 C132 C 0.61820 0.27234 -0.12290
 C133 C 0.64995 0.29593 -0.08615
 C134 C 0.67829 0.33452 -0.10548
 C135 C 0.67294 0.35119 -0.16153
 C136 C 0.64193 0.32675 -0.19890
 C137 C 0.61547 0.28669 -0.17955
 H138 H 0.65245 0.28430 -0.04253
 H139 H 0.69426 0.38153 -0.17629
 H140 H 0.59090 0.26874 -0.20835
 N141 N 0.07588 0.30730 0.11384
 N142 N 0.11252 0.29034 0.09975
 N143 N 0.45322 0.73408 0.65700
 N144 N 0.42760 0.76059 0.61951
 N145 N 0.92479 0.78738 0.37020
 N146 N 0.88826 0.77183 0.38605
 N147 N 0.56878 0.20205 -0.13028
 N148 N 0.58652 0.23692 -0.10168
 N149 N 0.12864 0.09302 0.23077
 N150 N 0.10136 0.11944 0.19489
 N151 N 0.64002 0.38703 -0.27356
 N152 N 0.63640 0.34213 -0.25656
 N153 N 0.34797 0.91670 0.75793
 N154 N 0.37905 0.89095 0.73779
 N155 N 0.85550 0.59360 0.24878
 N156 N 0.88391 0.61693 0.28104
 N157 N 0.24811 0.17596 0.04749
 N158 N 0.21646 0.14819 0.06476
 N159 N 0.74710 0.66906 0.43928
 N160 N 0.77491 0.63978 0.41815
 N161 N 0.73449 0.32876 -0.02830
 N162 N 0.71358 0.35589 -0.06900
 N163 N 0.26132 0.82611 0.53595
 N164 N 0.27919 0.85652 0.57022
   
