data_POSCAR
  _audit_creation_date              2014-09-24
  _audit_creation_method            'ToBaCCo'
  _symmetry_space_group_name_H-M    'P1'
  _symmetry_Int_Tables_number       1
  _symmetry_cell_setting            triclinic
  loop_
  _symmetry_equiv_pos_as_xyz
 x,y,z
_cell_length_a 34.3637
_cell_length_b 35.4863
_cell_length_c 35.1863
_cell_angle_alpha 90.390600
_cell_angle_beta 90.868000
_cell_angle_gamma 89.260100
loop_
  _atom_site_label
  _atom_site_type_symbol
  _atom_site_fract_x
  _atom_site_fract_y
  _atom_site_fract_z
C1 C 0.32834 0.39268 1.34960
 C2 C 0.35444 0.38676 1.31955
 C3 C 0.37899 0.35569 1.32024
 C4 C 0.37834 0.33041 1.35037
 C5 C 0.35312 0.33602 1.38003
 C6 C 0.32737 0.36721 1.37934
 C7 C 0.29955 0.41931 1.35600
 N8 N 0.28052 0.41033 1.38842
 C9 C 0.29750 0.37842 1.40269
 C10 C 0.35932 0.30646 1.40496
 N11 N 0.38742 0.28308 1.39054
 C12 C 0.39876 0.29768 1.35697
 C13 C 0.40021 0.35563 1.28768
 N14 N 0.38921 0.38582 1.26644
 C15 C 0.36132 0.40531 1.28583
 H16 H 0.29205 0.44230 1.33713
 H17 H 0.28849 0.36400 1.42805
 H18 H 0.34374 0.30216 1.43102
 H19 H 0.42071 0.28554 1.33862
 H20 H 0.42228 0.33495 1.28034
 H21 H 0.34666 0.43062 1.27583
 C22 C 1.16096 0.60852 0.88390
 C23 C 1.13301 0.61131 0.85451
 C24 C 1.10412 0.63895 0.85608
 C25 C 1.10352 0.66474 0.88652
 C26 C 1.13082 0.66144 0.91545
 C27 C 1.15928 0.63313 0.91432
 C28 C 1.19459 0.58734 0.88850
 N29 N 1.21312 0.59862 0.92109
 C30 C 1.19131 0.62662 0.93699
 C31 C 1.12719 0.69234 0.93860
 N32 N 1.09863 0.71527 0.92426
 C33 C 1.08355 0.69814 0.89261
 C34 C 1.08192 0.63577 0.82341
 N35 N 1.09670 0.60707 0.80214
 C36 C 1.12822 0.59226 0.82059
 H37 H 1.20544 0.56624 0.86882
 H38 H 1.19892 0.64306 0.96191
 H39 H 1.14634 0.69844 0.96241
 H40 H 1.06156 0.71027 0.87383
 H41 H 1.05718 0.65333 0.81538
 H42 H 1.14601 0.56909 0.81023
 C43 C 0.67189 -0.12630 0.12950
 C44 C 0.64031 -0.12798 0.15376
 C45 C 0.61333 -0.15633 0.14998
 C46 C 0.61835 -0.18400 0.12145
 C47 C 0.64990 -0.18226 0.09736
 C48 C 0.67679 -0.15283 0.10120
 C49 C 0.70266 -0.10229 0.12868
 N50 N 0.72671 -0.11308 0.10015
 C51 C 0.71086 -0.14400 0.08295
 C52 C 0.64889 -0.21379 0.07441
 N53 N 0.61758 -0.23492 0.08374
 C54 C 0.59868 -0.21654 0.11235
 C55 C 0.58711 -0.15122 0.17921
 N56 N 0.59829 -0.12071 0.20022
 C57 C 0.63074 -0.10656 0.18474
 H58 H 0.70640 -0.07841 0.14753
 H59 H 0.72359 -0.15951 0.05951
 H60 H 0.67013 -0.22065 0.05303
 H61 H 0.57310 -0.22667 0.12649
 H62 H 0.56285 -0.16915 0.18559
 H63 H 0.64677 -0.08269 0.19580
 C64 C -0.17004 1.12939 -0.36168
 C65 C -0.14502 1.12432 -0.33009
 C66 C -0.11823 1.15178 -0.32081
 C67 C -0.11573 1.18435 -0.34280
 C68 C -0.13985 1.18898 -0.37415
 C69 C -0.16769 1.16173 -0.38320
 C70 C -0.20039 1.10871 -0.37655
 N71 N -0.21725 1.12826 -0.40579
 C72 C -0.19704 1.16067 -0.41011
 C73 C -0.13041 1.22258 -0.39062
 N74 N -0.10153 1.23890 -0.36964
 C75 C -0.09262 1.21568 -0.34003
 C76 C -0.09883 1.14043 -0.28850
 N77 N -0.11306 1.10676 -0.27748
 C78 C -0.14146 1.09662 -0.30282
 H79 H -0.21059 1.08219 -0.36565
 H80 H -0.20298 1.18221 -0.43107
 H81 H -0.14390 1.23443 -0.41595
 H82 H -0.07012 1.22024 -0.31872
 H83 H -0.07628 1.15598 -0.27365
 H84 H -0.15883 1.07149 -0.30139
 C85 C 0.65585 0.62428 0.63692
 C86 C 0.62682 0.61989 0.66409
 C87 C 0.59473 0.64398 0.66429
 C88 C 0.59169 0.67337 0.63776
 C89 C 0.62041 0.67753 0.61111
 C90 C 0.65251 0.65277 0.61049
 C91 C 0.69047 0.60554 0.63029
 N92 N 0.70807 0.62181 0.60030
 C93 C 0.68503 0.65090 0.58817
 C94 C 0.61123 0.70905 0.59034
 N95 N 0.57775 0.72478 0.60373
 C96 C 0.56541 0.70280 0.63274
 C97 C 0.57170 0.63323 0.69394
 N98 N 0.58919 0.60350 0.71174
 C99 C 0.62301 0.59534 0.69388
 H100 H 0.70204 0.58178 0.64617
 H101 H 0.69159 0.66992 0.56531
 H102 H 0.62858 0.72038 0.56775
 H103 H 0.54003 0.70805 0.64986
 H104 H 0.54470 0.64662 0.70249
 H105 H 0.64333 0.57314 0.70201
 C106 C 0.83708 0.37967 0.15800
 C107 C 0.86344 0.37882 0.18885
 C108 C 0.88440 0.34623 0.19640
 C109 C 0.87966 0.31430 0.17358
 C110 C 0.85454 0.31521 0.14265
 C111 C 0.83232 0.34795 0.13531
 C112 C 0.81110 0.40665 0.14516
 N113 N 0.78973 0.39179 0.11590
 C114 C 0.80279 0.35592 0.10967
 C115 C 0.85859 0.28105 0.12409
 N116 N 0.88500 0.25941 0.14366
 C117 C 0.89755 0.27958 0.17432
 C118 C 0.90748 0.35279 0.22766
 N119 N 0.90120 0.38875 0.23965
 C120 C 0.87396 0.40488 0.21628
 H121 H 0.80652 0.43402 0.15816
 H122 H 0.79094 0.33658 0.08869
 H123 H 0.84395 0.27285 0.09790
 H124 H 0.92017 0.27100 0.19429
 H125 H 0.92669 0.33234 0.24114
 H126 H 0.86274 0.43340 0.21905
 C127 C 0.33601 0.09970 0.84843
 C128 C 0.36069 0.09905 0.81707
 C129 C 0.38398 0.12953 0.81001
 C130 C 0.38322 0.16100 0.83431
 C131 C 0.35892 0.16171 0.86539
 C132 C 0.33447 0.13098 0.87208
 C133 C 0.30881 0.07473 0.86065
 N134 N 0.28976 0.09020 0.89074
 C135 C 0.30531 0.12475 0.89782
 C136 C 0.36506 0.19550 0.88412
 N137 N 0.39198 0.21522 0.86482
 C138 C 0.40304 0.19443 0.83422
 C139 C 0.40331 0.12190 0.77683
 N140 N 0.39217 0.08762 0.76336
 C141 C 0.36606 0.07341 0.78798
 H142 H 0.30194 0.04831 0.84675
 H143 H 0.29571 0.14423 0.91967
 H144 H 0.35112 0.20502 0.90991
 H145 H 0.42475 0.20259 0.81398
 H146 H 0.42335 0.14047 0.76298
 H147 H 0.35106 0.04697 0.78469
 C148 C 0.15905 0.89584 0.37312
 C149 C 0.13127 0.89325 0.34339
 C150 C 0.10250 0.86612 0.34465
 C151 C 0.10172 0.84066 0.37513
 C152 C 0.12879 0.84392 0.40429
 C153 C 0.15705 0.87168 0.40351
 C154 C 0.19247 0.91663 0.37858
 N155 N 0.21036 0.90553 0.41166
 C156 C 0.18842 0.87806 0.42694
 C157 C 0.12478 0.81383 0.42787
 N158 N 0.09631 0.79148 0.41365
 C159 C 0.08139 0.80796 0.38167
 C160 C 0.08017 0.86977 0.31202
 N161 N 0.09457 0.89828 0.29103
 C162 C 0.12611 0.91244 0.30968
 H163 H 0.20355 0.93740 0.35925
 H164 H 0.19555 0.86182 0.45203
 H165 H 0.14272 0.80784 0.45269
 H166 H 0.05947 0.79569 0.36314
 H167 H 0.05548 0.85268 0.30395
 H168 H 0.14363 0.93539 0.29970
 Zn169 Zn 0.01442 1.05105 -0.01481
 Zn170 Zn -0.02398 0.97821 -0.03296
 Zn171 Zn 0.05247 0.98002 0.00951
 Zn172 Zn -0.01969 1.00653 0.04755
 O173 O 0.00571 1.00383 0.00235
 O174 O -0.00459 1.05796 -0.06140
 O175 O -0.00076 0.93575 -0.04841
 O176 O 0.09275 1.00684 -0.00705
 O177 O -0.03524 1.00511 -0.07520
 O178 O 0.06501 1.06251 -0.01774
 O179 O 0.05427 0.93563 -0.01470
 O180 O 0.00861 0.98803 0.08685
 O181 O -0.06908 0.96243 -0.01404
 O182 O 0.06299 0.97001 0.05863
 O183 O -0.06415 0.98094 0.04608
 O184 O -0.03385 1.05385 0.05998
 O185 O -0.00939 1.08642 0.01264
 C186 C -0.02489 1.03811 -0.08403
 C187 C 0.03090 0.91994 -0.03800
 C188 C 0.09498 1.04123 -0.01638
 C189 C 0.04279 0.97400 0.08836
 C190 C -0.08232 0.96408 0.01942
 C191 C -0.02923 1.08465 0.04262
 Zn192 Zn 0.48715 0.01388 0.43084
 Zn193 Zn 0.47653 -0.02134 0.50805
 Zn194 Zn 0.55482 -0.01909 0.47175
 Zn195 Zn 0.51918 0.05177 0.49963
 O196 O 0.50916 0.00619 0.47773
 O197 O 0.43952 -0.00438 0.42791
 O198 O 0.49698 -0.06734 0.52081
 O199 O 0.56603 -0.02897 0.42329
 O200 O 0.43027 -0.02986 0.48437
 O201 O 0.51344 -0.00807 0.39269
 O202 O 0.55430 -0.06376 0.49340
 O203 O 0.57000 0.05945 0.50934
 O204 O 0.46553 0.00291 0.55236
 O205 O 0.59562 0.00445 0.49234
 O206 O 0.49687 0.05634 0.54444
 O207 O 0.50086 0.09079 0.47252
 O208 O 0.48076 0.06279 0.41946
 C209 C 0.41812 -0.02134 0.45110
 C210 C 0.52990 -0.08181 0.51255
 C211 C 0.54633 -0.02470 0.39283
 C212 C 0.59894 0.03702 0.50693
 C213 C 0.47573 0.03533 0.56425
 C214 C 0.48565 0.09226 0.43951
 Zn215 Zn 1.00939 0.46617 0.48944
 Zn216 Zn 1.04787 0.53451 0.51880
 Zn217 Zn 0.96543 0.53924 0.48848
 Zn218 Zn 0.98261 0.49988 0.56170
 O219 O 1.00133 0.51017 0.51467
 O220 O 1.05954 0.45561 0.48079
 O221 O 1.04577 0.57970 0.49628
 O222 O 0.94970 0.51793 0.44451
 O223 O 1.08815 0.50868 0.49806
 O224 O 0.98581 0.46581 0.44438
 O225 O 0.98474 0.58365 0.47515
 O226 O 0.93610 0.52127 0.56966
 O227 O 1.06177 0.54312 0.56758
 O228 O 0.92228 0.54963 0.51526
 O229 O 1.01341 0.51728 0.59888
 O230 O 0.97480 0.45050 0.56957
 O231 O 0.99032 0.42675 0.51341
 C232 C 1.08977 0.47552 0.48429
 C233 C 1.01840 0.59753 0.47925
 C234 C 0.96119 0.48770 0.42853
 C235 C 0.91325 0.54085 0.54890
 C236 C 1.04518 0.53508 0.59848
 C237 C 0.97678 0.42299 0.54642
 Zn238 Zn 0.51279 0.44028 1.01598
 Zn239 Zn 0.47497 0.51632 1.01627
 Zn240 Zn 0.55437 0.50660 0.98447
 Zn241 Zn 0.48596 0.47371 0.94297
 O242 O 0.50705 0.48428 0.98992
 O243 O 0.48810 0.44113 1.06054
 O244 O 0.49731 0.56026 1.02858
 O245 O 0.59346 0.47914 1.00491
 O246 O 0.45944 0.49728 1.06043
 O247 O 0.56274 0.42908 1.02626
 O248 O 0.55675 0.55261 1.00631
 O249 O 0.51473 0.49095 0.90489
 O250 O 0.43126 0.52719 0.99020
 O251 O 0.56606 0.51404 0.93554
 O252 O 0.43945 0.49542 0.93646
 O253 O 0.47708 0.42425 0.93483
 O254 O 0.49354 0.40054 0.99083
 C255 C 0.46657 0.46588 1.07621
 C256 C 0.53144 0.57238 1.02359
 C257 C 0.59380 0.44719 1.02095
 C258 C 0.54722 0.50758 0.90489
 C259 C 0.41913 0.51667 0.95762
 C260 C 0.47953 0.39659 0.95750
 C261 C 1.19473 0.42681 0.44498
 C262 C 1.18269 0.46271 0.43275
 N263 N 1.20375 0.48067 0.40621
 C264 C 1.23613 0.46434 0.39106
 C265 C 1.24864 0.42826 0.40337
 N266 N 1.22744 0.41077 0.43046
 N267 N 1.17278 0.40799 0.47019
 C268 C 1.13917 0.42337 0.48358
 C269 C 1.12722 0.45951 0.47181
 N270 N 1.14945 0.47846 0.44668
 H271 H 1.25204 0.47983 0.37019
 H272 H 1.12191 0.40757 0.50327
 C273 C 0.30651 0.55090 0.92182
 C274 C 0.32221 0.56296 0.95678
 N275 N 0.30092 0.58575 0.97966
 C276 C 0.26468 0.59755 0.96905
 C277 C 0.24871 0.58603 0.93361
 N278 N 0.27025 0.56254 0.91115
 N279 N 0.32798 0.52817 0.89887
 C280 C 0.36453 0.51693 0.90939
 C281 C 0.38029 0.52896 0.94453
 N282 N 0.35855 0.55169 0.96736
 H283 H 0.24883 0.61542 0.98850
 H284 H 0.38096 0.49867 0.89061
 C285 C -0.18756 0.91107 0.04728
 C286 C -0.17088 0.93840 0.07120
 N287 N -0.18846 0.94802 0.10406
 C288 C -0.22218 0.93174 0.11425
 C289 C -0.23930 0.90389 0.09061
 N290 N -0.22109 0.89421 0.05763
 N291 N -0.17003 0.90205 0.01401
 C292 C -0.13649 0.91907 0.00375
 C293 C -0.11943 0.94603 0.02812
 N294 N -0.13724 0.95491 0.06130
 H295 H -0.23456 0.94014 0.14103
 H296 H -0.12299 0.91120 -0.02279
 C297 C 0.70486 0.06972 0.55863
 C298 C 0.68238 0.09573 0.53762
 N299 N 0.69467 0.13172 0.53455
 C300 C 0.72825 0.14307 0.55180
 C301 C 0.75024 0.11747 0.57434
 N302 N 0.73766 0.08129 0.57694
 N303 N 0.69340 0.03336 0.56060
 C304 C 0.66017 0.02190 0.54283
 C305 C 0.63673 0.04822 0.52307
 N306 N 0.64846 0.08464 0.52092
 H307 H 0.73647 0.17218 0.54905
 H308 H 0.65143 -0.00718 0.54522
 C309 C 0.44103 0.19508 0.39689
 C310 C 0.43446 0.18460 0.43453
 N311 N 0.41166 0.20686 0.45680
 C312 C 0.39512 0.23925 0.44317
 C313 C 0.40231 0.25041 0.40552
 N314 N 0.42533 0.22771 0.38358
 N315 N 0.46235 0.17212 0.37398
 C316 C 0.47740 0.13895 0.38705
 C317 C 0.47157 0.12868 0.42497
 N318 N 0.45021 0.15187 0.44788
 H319 H 0.37745 0.25627 0.46193
 H320 H 0.49391 0.12088 0.36814
 C321 C 0.92713 0.31954 0.57617
 C322 C 0.94947 0.33966 0.60293
 N323 N 0.95497 0.32540 0.63833
 C324 C 0.93914 0.29196 0.64823
 C325 C 0.91568 0.27214 0.62172
 N326 N 0.91037 0.28687 0.58633
 N327 N 0.92282 0.33276 0.54029
 C328 C 0.93966 0.36543 0.52994
 C329 C 0.96100 0.38636 0.55694
 N330 N 0.96536 0.37302 0.59299
 H331 H 0.94394 0.28182 0.67682
 H332 H 0.93550 0.37553 0.50118
 C333 C 0.05493 0.80839 -0.07331
 C334 C 0.07441 0.82448 -0.04202
 N335 N 0.10033 0.80354 -0.02166
 C336 C 0.10822 0.76722 -0.03137
 C337 C 0.08956 0.75088 -0.06348
 N338 N 0.06302 0.77218 -0.08338
 N339 N 0.02836 0.82932 -0.09318
 C340 C 0.02033 0.86562 -0.08299
 C341 C 0.04008 0.88180 -0.05172
 N342 N 0.06669 0.86067 -0.03206
 H343 H 0.12904 0.75189 -0.01402
 H344 H -0.00125 0.88159 -0.09905
 C345 C 0.56268 0.67999 1.06635
 C346 C 0.58625 0.66089 1.04017
 N347 N 0.61945 0.67713 1.02842
 C348 C 0.63037 0.71156 1.04172
 C349 C 0.60717 0.73087 1.06864
 N350 N 0.57373 0.71418 1.08008
 N351 N 0.52916 0.66399 1.07773
 C352 C 0.51819 0.62965 1.06417
 C353 C 0.54203 0.61009 1.03827
 N354 N 0.57561 0.62638 1.02693
 H355 H 0.65718 0.72301 1.03158
 H356 H 0.49136 0.61760 1.07387
 C357 C 0.41609 0.43996 1.18178
 C358 C 0.43663 0.41260 1.16086
 N359 N 0.44019 0.37707 1.17433
 C360 C 0.42457 0.36759 1.20807
 C361 C 0.40456 0.39499 1.22979
 N362 N 0.40056 0.43061 1.21575
 N363 N 0.41233 0.47545 1.16784
 C364 C 0.42821 0.48477 1.13399
 C365 C 0.44906 0.45739 1.11314
 N366 N 0.45262 0.42191 1.12727
 H367 H 0.42765 0.33879 1.21748
 H368 H 0.42471 0.51326 1.12358
 C369 C 0.59159 -0.07316 0.29276
 C370 C 0.55142 -0.07327 0.29919
 N371 N 0.52737 -0.09050 0.27357
 C372 C 0.54172 -0.10734 0.24166
 C373 C 0.58188 -0.10634 0.23477
 N374 N 0.60568 -0.08921 0.26071
 N375 N 0.61595 -0.05704 0.31863
 C376 C 0.60199 -0.04097 0.35088
 C377 C 0.56174 -0.04037 0.35726
 N378 N 0.53729 -0.05657 0.33114
 H379 H 0.52196 -0.12036 0.22143
 H380 H 0.62209 -0.02859 0.37124
 C381 C -0.06048 1.08758 -0.18797
 C382 C -0.07559 1.05281 -0.17716
 N383 N -0.10256 1.03586 -0.19993
 C384 C -0.11523 1.05225 -0.23289
 C385 C -0.10028 1.08738 -0.24359
 N386 N -0.07310 1.10385 -0.22062
 N387 N -0.03381 1.10493 -0.16544
 C388 C -0.02162 1.08922 -0.13226
 C389 C -0.03682 1.05448 -0.12088
 N390 N -0.06345 1.03694 -0.14384
 H391 H -0.13674 1.03799 -0.25023
 H392 H -0.00039 1.10393 -0.11486
 C393 C 1.09206 0.57235 0.70357
 C394 C 1.05176 0.56843 0.69808
 N395 N 1.02720 0.57780 0.72655
 C396 C 1.04110 0.59092 0.76041
 C397 C 1.08143 0.59420 0.76633
 N398 N 1.10604 0.58468 0.73770
 N399 N 1.11644 0.56426 0.67450
 C400 C 1.10231 0.55237 0.64016
 C401 C 1.06203 0.54769 0.63491
 N402 N 1.03779 0.55583 0.66416
 H403 H 1.02097 0.59806 0.78276
 H404 H 1.12230 0.54621 0.61740
 C405 C 0.80441 0.57598 0.59258
 C406 C 0.81617 0.58767 0.55656
 N407 N 0.79225 0.61034 0.53555
 C408 C 0.75712 0.62197 0.54895
 C409 C 0.74513 0.61033 0.58512
 N410 N 0.76929 0.58742 0.60591
 N411 N 0.82829 0.55341 0.61368
 C412 C 0.86347 0.54190 0.60041
 C413 C 0.87540 0.55336 0.56420
 N414 N 0.85126 0.57606 0.54314
 H415 H 0.73869 0.63966 0.53122
 H416 H 0.88180 0.52383 0.61794
 C417 C 0.69933 0.40057 1.06291
 C418 C 0.69159 0.43937 1.06597
 N419 N 0.71725 0.46176 1.08475
 C420 C 0.75013 0.44710 1.10114
 C421 C 0.75817 0.40806 1.09824
 N422 N 0.73250 0.38600 1.07856
 N423 N 0.67277 0.37784 1.04579
 C424 C 0.63862 0.39216 1.03178
 C425 C 0.63097 0.43107 1.03445
 N426 N 0.65786 0.45382 1.05130
 H427 H 0.76983 0.46598 1.11572
 H428 H 0.61772 0.37343 1.01856
 C429 C 0.20135 1.08436 -0.05506
 C430 C 0.19240 1.04611 -0.05949
 N431 N 0.21671 1.02312 -0.07916
 C432 C 0.24932 1.03665 -0.09530
 C433 C 0.25852 1.07520 -0.09140
 N434 N 0.23432 1.09790 -0.07063
 N435 N 0.17596 1.10768 -0.03689
 C436 C 0.14182 1.09452 -0.02332
 C437 C 0.13284 1.05616 -0.02771
 N438 N 0.15867 1.03286 -0.04548
 H439 H 0.26792 1.01718 -0.11052
 H440 H 0.12181 1.11380 -0.00949
 C441 C 0.30423 -0.04970 0.41485
 C442 C 0.31890 -0.06156 0.45031
 N443 N 0.29653 -0.08290 0.47281
 C444 C 0.26038 -0.09354 0.46130
 C445 C 0.24559 -0.08242 0.42525
 N446 N 0.26809 -0.06022 0.40326
 N447 N 0.32674 -0.02862 0.39216
 C448 C 0.36336 -0.01903 0.40323
 C449 C 0.37832 -0.03106 0.43871
 N450 N 0.35546 -0.05196 0.46150
 H451 H 0.24368 -0.11026 0.48051
 H452 H 0.38060 -0.00221 0.38442
 C453 C 0.56683 -0.19001 0.54907
 C454 C 0.53370 -0.17309 0.56497
 N455 N 0.51495 -0.19126 0.59309
 C456 C 0.52805 -0.22532 0.60625
 C457 C 0.56187 -0.24209 0.59069
 N458 N 0.57991 -0.22366 0.56221
 N459 N 0.58609 -0.17224 0.52131
 C460 C 0.57406 -0.13792 0.50884
 C461 C 0.54121 -0.12022 0.52492
 N462 N 0.52148 -0.13848 0.55259
 H463 H 0.51234 -0.23859 0.62877
 H464 H 0.59033 -0.12451 0.48669
 C465 C 1.04259 0.70514 0.43506
 C466 C 1.07084 0.68449 0.45566
 N467 N 1.10665 0.69903 0.46157
 C468 C 1.11555 0.73353 0.44812
 C469 C 1.08733 0.75471 0.42773
 N470 N 1.05144 0.73972 0.42142
 N471 N 1.00672 0.69031 0.42930
 C472 C 0.99789 0.65579 0.44323
 C473 C 1.02627 0.63508 0.46384
 N474 N 1.06210 0.65012 0.46942
 H475 H 1.14465 0.74391 0.45289
 H476 H 0.96909 0.64466 0.43817
 C477 C -0.08614 1.18293 0.08189
 C478 C -0.06617 1.15904 0.10743
 N479 N -0.06399 1.16855 0.14476
 C480 C -0.08029 1.20117 0.15771
 C481 C -0.10049 1.22533 0.13223
 N482 N -0.10330 1.21502 0.09492
 N483 N -0.08662 1.17448 0.04424
 C484 C -0.06793 1.14323 0.03094
 C485 C -0.04854 1.11893 0.05652
 N486 N -0.04836 1.12726 0.09431
 H487 H -0.07797 1.20767 0.18770
 H488 H -0.06872 1.13704 0.00077
 C489 C 0.43159 0.29173 0.92440
 C490 C 0.44025 0.31890 0.89705
 N491 N 0.43276 0.31146 0.85977
 C492 C 0.41707 0.27807 0.84858
 C493 C 0.40783 0.25100 0.87594
 N494 N 0.41529 0.25864 0.91332
 N495 N 0.43996 0.29872 0.96156
 C496 C 0.45637 0.33173 0.97273
 C497 C 0.46438 0.35945 0.94558
 N498 N 0.45600 0.35224 0.90824
 H499 H 0.41143 0.27282 0.81869
 H500 H 0.46231 0.33657 1.00265
 C501 C 0.58889 0.55411 0.80332
 C502 C 0.54890 0.54922 0.80871
 N503 N 0.52303 0.56207 0.78214
 C504 C 0.53531 0.57982 0.75044
 C505 C 0.57536 0.58463 0.74478
 N506 N 0.60122 0.57133 0.77139
 N507 N 0.61466 0.54260 0.83064
 C508 C 0.60221 0.52669 0.86330
 C509 C 0.56218 0.52161 0.86874
 N510 N 0.53651 0.53288 0.84107
 H511 H 0.51410 0.58974 0.72967
 H512 H 0.62331 0.51829 0.88488
 C513 C 0.43994 0.07800 0.67095
 C514 C 0.42831 0.04208 0.65876
 N515 N 0.40532 0.02139 0.68148
 C516 C 0.39329 0.03504 0.71571
 C517 C 0.40473 0.07127 0.72789
 N518 N 0.42795 0.09161 0.70494
 N519 N 0.46283 0.09892 0.64856
 C520 C 0.47466 0.08564 0.61434
 C521 C 0.46307 0.04967 0.60167
 N522 N 0.44008 0.02864 0.62439
 H523 H 0.37508 0.01768 0.73295
 H524 H 0.49292 0.10318 0.59720
 C525 C 0.08918 0.93655 0.19397
 C526 C 0.04881 0.93769 0.18716
 N527 N 0.02445 0.92555 0.21438
 C528 C 0.03859 0.91228 0.24812
 C529 C 0.07897 0.91156 0.25533
 N530 N 0.10331 0.92395 0.22795
 N531 N 0.11357 0.94757 0.16627
 C532 C 0.09947 0.95964 0.13204
 C533 C 0.05902 0.96139 0.12529
 N534 N 0.03467 0.95040 0.15324
 H535 H 0.01849 0.90299 0.26938
 H536 H 0.11961 0.96814 0.11045
 C537 C 0.91647 0.45077 0.32260
 C538 C 0.95017 0.43455 0.33888
 N539 N 0.96823 0.40531 0.32129
 C540 C 0.95366 0.39081 0.28841
 C541 C 0.91899 0.40586 0.27254
 N542 N 0.90151 0.43600 0.28986
 N543 N 0.89866 0.48021 0.34049
 C544 C 0.91284 0.49378 0.37421
 C545 C 0.94597 0.47670 0.39097
 N546 N 0.96386 0.44767 0.37256
 H547 H 0.96902 0.36763 0.27506
 H548 H 0.89788 0.51694 0.38815
   
