data_POSCAR
  _audit_creation_date              2014-09-24
  _audit_creation_method            'ToBaCCo'
  _symmetry_space_group_name_H-M    'P1'
  _symmetry_Int_Tables_number       1
  _symmetry_cell_setting            triclinic
  loop_
  _symmetry_equiv_pos_as_xyz
 x,y,z
_cell_length_a 36.8903
_cell_length_b 38.0711
_cell_length_c 15.8769
_cell_angle_alpha 89.863100
_cell_angle_beta 89.173700
_cell_angle_gamma 120.432700
loop_
  _atom_site_label
  _atom_site_type_symbol
  _atom_site_fract_x
  _atom_site_fract_y
  _atom_site_fract_z
C1 C 0.12039 0.48099 0.58312
 C2 C 0.12367 0.49029 0.49886
 C3 C 0.14676 0.47464 0.46163
 N4 N 0.15829 0.45677 0.52096
 C5 C 0.14218 0.46065 0.59515
 C6 C 0.15628 0.47619 0.37418
 C7 C 0.18501 0.46479 0.34335
 C8 C 0.18538 0.45117 0.26247
 C9 C 0.21914 0.44526 0.25693
 C10 C 0.23843 0.45542 0.33450
 N11 N 0.21721 0.46695 0.38704
 C12 C 0.27729 0.45842 0.35194
 C13 C 0.29329 0.46465 0.43411
 C14 C 0.33530 0.48146 0.45314
 C15 C 0.33737 0.48245 0.53945
 C16 C 0.29634 0.46496 0.57030
 N17 N 0.26948 0.45448 0.50554
 C18 C 0.28389 0.45789 0.65664
 C19 C 0.24250 0.44607 0.68353
 C20 C 0.22339 0.42480 0.75744
 C21 C 0.18379 0.41988 0.76070
 C22 C 0.18010 0.43895 0.68949
 N23 N 0.21594 0.45446 0.64235
 C24 C 0.14607 0.44511 0.67336
 H25 H 0.10481 0.48935 0.63051
 H26 H 0.11101 0.50725 0.46903
 H27 H 0.22392 0.47370 0.59012
 H28 H 0.16363 0.44612 0.21256
 H29 H 0.22897 0.43555 0.20147
 H30 H 0.36172 0.49273 0.40937
 H31 H 0.36592 0.49484 0.57528
 H32 H 0.16071 0.40456 0.81069
 H33 H 0.22697 0.48047 0.44557
 H34 H 0.23650 0.41365 0.80375
 C35 C 0.59586 -0.30870 0.52847
 C36 C 0.58485 -0.31356 0.44562
 C37 C 0.55586 -0.30086 0.43782
 N38 N 0.54870 -0.28840 0.51203
 C39 C 0.57256 -0.29386 0.56773
 C40 C 0.53177 -0.30631 0.36660
 C41 C 0.51662 -0.27965 0.34871
 C42 C 0.48801 -0.28499 0.28703
 C43 C 0.48321 -0.25148 0.28960
 C44 C 0.50789 -0.22733 0.35458
 N45 N 0.52849 -0.24441 0.38948
 C46 C 0.51266 -0.18953 0.37755
 C47 C 0.52612 -0.17247 0.45816
 C48 C 0.52979 -0.13613 0.48396
 C49 C 0.53870 -0.13274 0.56818
 C50 C 0.54105 -0.16676 0.59100
 N51 N 0.53279 -0.19128 0.52375
 C52 C 0.54546 -0.17699 0.67460
 C53 C 0.54730 -0.21219 0.69617
 C54 C 0.53563 -0.23180 0.77396
 C55 C 0.54038 -0.26532 0.76860
 C56 C 0.55660 -0.26453 0.68865
 N57 N 0.56055 -0.23192 0.64501
 C58 C 0.56623 -0.29362 0.65491
 H59 H 0.61645 -0.31747 0.55780
 H60 H 0.59553 -0.32638 0.39720
 H61 H 0.57374 -0.22221 0.58488
 H62 H 0.47193 -0.31030 0.24463
 H63 H 0.46310 -0.24616 0.24918
 H64 H 0.52457 -0.11521 0.44700
 H65 H 0.54122 -0.10881 0.60860
 H66 H 0.53120 -0.28814 0.81762
 H67 H 0.55231 -0.23089 0.43342
 H68 H 0.52321 -0.22387 0.82813
 C69 C 1.34274 0.86047 0.40377
 C70 C 1.34976 0.85376 0.48509
 C71 C 1.31063 0.82958 0.52293
 N72 N 1.27982 0.82093 0.46685
 C73 C 1.29946 0.84035 0.39397
 C74 C 1.30357 0.81643 0.60849
 C75 C 1.26428 0.78330 0.63499
 C76 C 1.24740 0.77761 0.71582
 C77 C 1.20988 0.74142 0.71601
 C78 C 1.20498 0.72574 0.63535
 N79 N 1.23802 0.75189 0.58590
 C80 C 1.17103 0.68793 0.60893
 C81 C 1.16233 0.67961 0.52265
 C82 C 1.14053 0.64108 0.48791
 C83 C 1.13553 0.64662 0.40432
 C84 C 1.15375 0.68822 0.39165
 N85 N 1.17069 0.70839 0.46366
 C86 C 1.15205 0.70729 0.31698
 C87 C 1.18006 0.74918 0.30176
 C88 C 1.17562 0.77223 0.23965
 C89 C 1.21141 0.81013 0.24071
 C90 C 1.23702 0.80890 0.30261
 N91 N 1.21737 0.77178 0.34020
 C92 C 1.27883 0.84018 0.31858
 H93 H 1.36696 0.87742 0.35666
 H94 H 1.38029 0.86463 0.51241
 H95 H 1.23098 0.76096 0.38222
 H96 H 1.26038 0.79786 0.76879
 H97 H 1.18844 0.72869 0.76941
 H98 H 1.12928 0.61212 0.51981
 H99 H 1.11954 0.62279 0.35855
 H100 H 1.21815 0.83542 0.19932
 H101 H 1.24416 0.74698 0.52405
 H102 H 1.14958 0.76255 0.19730
 C103 C 0.90894 0.63089 0.52835
 C104 C 0.90645 0.62477 0.44297
 C105 C 0.86410 0.60411 0.42512
 N106 N 0.84057 0.59685 0.49585
 C107 C 0.86783 0.61224 0.55945
 C108 C 0.84690 0.58589 0.34817
 C109 C 0.80595 0.57611 0.32688
 C110 C 0.78220 0.55065 0.26242
 C111 C 0.74447 0.54997 0.26393
 C112 C 0.74639 0.57470 0.32979
 N113 N 0.78416 0.59110 0.36644
 C114 C 0.71486 0.58328 0.35356
 C115 C 0.71501 0.60033 0.43175
 C116 C 0.69099 0.61760 0.45311
 C117 C 0.69370 0.62250 0.53872
 C118 C 0.71799 0.60658 0.56669
 N119 N 0.73183 0.59401 0.50094
 C120 C 0.72031 0.59594 0.65086
 C121 C 0.75420 0.59050 0.67499
 C122 C 0.75348 0.56634 0.74135
 C123 C 0.79147 0.56766 0.73944
 C124 C 0.81471 0.59268 0.67204
 N125 N 0.79157 0.60621 0.63292
 C126 C 0.85520 0.60093 0.64427
 H127 H 0.93751 0.64460 0.56434
 H128 H 0.93249 0.63302 0.39949
 H129 H 0.80140 0.62634 0.58158
 H130 H 0.79087 0.53405 0.21930
 H131 H 0.71861 0.53302 0.22180
 H132 H 0.67218 0.62442 0.41199
 H133 H 0.67731 0.63386 0.57672
 H134 H 0.79970 0.55008 0.78027
 H135 H 0.79552 0.61359 0.41232
 H136 H 0.72750 0.54765 0.78392
 C137 C 0.52348 0.14591 0.55605
 C138 C 0.52520 0.14731 0.46952
 C139 C 0.51057 0.17281 0.44506
 N140 N 0.49976 0.18681 0.51353
 C141 C 0.50736 0.17019 0.58149
 C142 C 0.50405 0.18009 0.36089
 C143 C 0.49311 0.20932 0.33775
 C144 C 0.47727 0.21107 0.26017
 C145 C 0.47319 0.24498 0.26068
 C146 C 0.48695 0.26324 0.33833
 N147 N 0.49908 0.24129 0.38492
 C148 C 0.49074 0.30081 0.36146
 C149 C 0.49766 0.31517 0.44525
 C150 C 0.50798 0.35414 0.46850
 C151 C 0.51127 0.35553 0.55466
 C152 C 0.50228 0.31716 0.58164
 N153 N 0.49401 0.29256 0.51445
 C154 C 0.50070 0.30523 0.66723
 C155 C 0.49576 0.26723 0.69192
 C156 C 0.48082 0.24923 0.77058
 C157 C 0.47957 0.21266 0.76981
 C158 C 0.49426 0.20924 0.69102
 N159 N 0.50410 0.24277 0.64378
 C160 C 0.49894 0.17593 0.66606
 H161 H 0.53284 0.12885 0.59587
 H162 H 0.53562 0.13113 0.42919
 H163 H 0.51897 0.25030 0.58495
 H164 H 0.46976 0.19029 0.20818
 H165 H 0.46190 0.25529 0.20914
 H166 H 0.51309 0.37909 0.42758
 H167 H 0.51940 0.38187 0.59311
 H168 H 0.46866 0.19087 0.82145
 H169 H 0.51511 0.25007 0.44129
 H170 H 0.47082 0.26080 0.82267
 C171 C 0.85979 0.34610 0.52648
 C172 C 0.86137 0.34401 0.44020
 C173 C 0.82813 0.30634 0.41809
 N174 N 0.80599 0.28548 0.48789
 C175 C 0.82511 0.30990 0.55449
 C176 C 0.81693 0.29305 0.33427
 C177 C 0.78643 0.25279 0.31391
 C178 C 0.76471 0.24112 0.23907
 C179 C 0.73875 0.19949 0.24341
 C180 C 0.74619 0.18680 0.31993
 N181 N 0.77551 0.21961 0.36229
 C182 C 0.72652 0.14596 0.34929
 C183 C 0.72984 0.13652 0.43347
 C184 C 0.71684 0.09770 0.46421
 C185 C 0.71419 0.09954 0.55013
 C186 C 0.72622 0.13949 0.56844
 N187 N 0.73606 0.16204 0.49740
 C188 C 0.71908 0.15262 0.64586
 C189 C 0.73814 0.19423 0.66670
 C190 C 0.72633 0.20915 0.73478
 C191 C 0.75233 0.25065 0.73339
 C192 C 0.77932 0.26010 0.66426
 N193 N 0.77064 0.22547 0.62411
 C194 C 0.81068 0.30012 0.63976
 H195 H 0.88187 0.37143 0.56406
 H196 H 0.88437 0.36751 0.39845
 H197 H 0.78782 0.22321 0.57388
 H198 H 0.76677 0.26068 0.18739
 H199 H 0.71684 0.18101 0.19560
 H200 H 0.70740 0.07041 0.42807
 H201 H 0.70232 0.07405 0.59382
 H202 H 0.75065 0.27161 0.77698
 H203 H 0.78999 0.21944 0.41803
 H204 H 0.70120 0.19210 0.78026
 O205 O 0.94159 0.51005 -0.18370
 O206 O 1.01900 0.54797 0.14324
 O207 O 0.93803 0.53297 0.06766
 O208 O 1.06971 0.54980 -0.10248
 O209 O 0.94253 0.49950 0.16535
 O210 O 1.01899 0.54603 -0.17645
 O211 O 1.05149 0.57434 0.02655
 O212 O 0.92604 0.53209 -0.07315
 C213 C 0.92967 0.53229 -0.15048
 C214 C 1.04358 0.57900 0.10046
 C215 C 0.93334 0.52499 0.14268
 C216 C 1.05726 0.56257 -0.16205
 O217 O 1.01619 0.47547 -0.16130
 O218 O 0.95105 0.43934 0.10942
 O219 O 0.89153 0.45012 -0.08305
 O220 O 1.08695 0.53398 0.05663
 O221 O 1.02850 0.48328 0.10928
 O222 O 0.93651 0.44046 -0.15747
 O223 O 1.04073 0.47755 -0.03723
 O224 O 0.89919 0.44721 0.06986
 Co225 Co 0.97878 0.49365 -0.15528
 Co226 Co 0.98504 0.49369 0.11804
 Co227 Co 0.91862 0.49115 -0.00418
 Co228 Co 1.04197 0.52452 -0.00396
 O229 O 0.97907 0.50072 -0.01827
 C230 C 1.03656 0.46641 -0.11214
 C231 C 0.91238 0.42536 0.10222
 C232 C 0.89960 0.42935 -0.13457
 C233 C 1.06784 0.50759 0.11849
 O234 O 0.47354 0.42746 -0.10365
 O235 O 0.42042 0.45361 0.11949
 O236 O 0.52897 0.44295 0.09660
 O237 O 0.43114 0.51230 -0.06819
 O238 O 0.46435 0.42362 0.11409
 O239 O 0.43331 0.46293 -0.13361
 O240 O 0.42952 0.51201 0.08827
 O241 O 0.53442 0.44316 -0.05620
 C242 C 0.50128 0.41854 -0.09414
 C243 C 0.40631 0.47698 0.11747
 C244 C 0.49303 0.41597 0.12019
 C245 C 0.41578 0.48304 -0.11908
 O246 O 0.50471 0.53154 -0.16625
 O247 O 0.52720 0.49043 0.18941
 O248 O 0.58070 0.52700 -0.05102
 O249 O 0.51077 0.56796 0.08772
 O250 O 0.48413 0.52268 0.18658
 O251 O 0.54350 0.49489 -0.15427
 O252 O 0.50890 0.57337 -0.06747
 O253 O 0.57045 0.52627 0.09305
 Co254 Co 0.48930 0.48016 -0.12474
 Co255 Co 0.47616 0.47444 0.14015
 Co256 Co 0.54847 0.48508 0.01993
 Co257 Co 0.47253 0.53657 0.01085
 O258 O 0.49539 0.49318 0.01041
 C259 C 0.51656 0.56715 -0.14053
 C260 C 0.56280 0.51883 0.16837
 C261 C 0.57728 0.52311 -0.12750
 C262 C 0.50347 0.55955 0.16320
 O263 O 0.53994 0.02411 -0.17378
 O264 O 0.51166 -0.05130 0.15620
 O265 O 0.59174 0.04330 0.06610
 O266 O 0.50163 -0.08190 -0.03195
 O267 O 0.55163 0.02297 0.17539
 O268 O 0.50997 -0.05071 -0.15008
 O269 O 0.45710 -0.09811 0.09540
 O270 O 0.58120 0.03288 -0.07759
 C271 C 0.57648 0.03685 -0.15205
 C272 C 0.48646 -0.08811 0.14588
 C273 C 0.58759 0.03998 0.14330
 C274 C 0.51430 -0.07579 -0.10629
 O275 O 0.43481 -0.05664 -0.11832
 O276 O 0.48607 0.02885 0.15724
 O277 O 0.53119 0.06849 -0.07505
 O278 O 0.41716 -0.06376 0.02914
 O279 O 0.44102 -0.04705 0.15413
 O280 O 0.47103 0.01942 -0.12037
 O281 O 0.42455 -0.11336 -0.06190
 O282 O 0.54006 0.07424 0.08013
 Co283 Co 0.49047 -0.01583 -0.12641
 Co284 Co 0.49763 -0.01221 0.14652
 Co285 Co 0.55622 0.04953 -0.00201
 Co286 Co 0.46182 -0.06983 -0.00240
 O287 O 0.50383 -0.00985 0.00997
 C288 C 0.41885 -0.09507 -0.12614
 C289 C 0.51121 0.06525 0.13561
 C290 C 0.49674 0.05688 -0.11184
 C291 C 0.41070 -0.06076 0.10521
 C292 C 1.09193 0.47129 0.32075
 C293 C 1.13549 0.48773 0.31574
 C294 C 1.15738 0.51504 0.24816
 C295 C 1.13557 0.52261 0.18524
 C296 C 1.09128 0.50211 0.18682
 C297 C 1.07031 0.47793 0.25773
 C298 C 1.03478 0.43482 0.26340
 C299 C 1.05837 0.42786 0.33268
 H300 H 1.19132 0.52990 0.24308
 H301 H 1.15329 0.54297 0.13346
 H302 H 1.03186 0.41735 0.20534
 H303 H 1.00515 0.43238 0.28720
 H304 H 1.06905 0.40624 0.31507
 H305 H 1.04258 0.42219 0.39551
 C306 C 0.52424 0.66236 0.22948
 C307 C 0.52065 0.65933 0.31694
 C308 C 0.50665 0.62053 0.35420
 C309 C 0.50114 0.58744 0.30542
 C310 C 0.51032 0.59290 0.21873
 C311 C 0.51959 0.63016 0.18197
 C312 C 0.55419 0.65756 0.12208
 C313 C 0.55926 0.69304 0.17458
 H314 H 0.50031 0.61598 0.42115
 H315 H 0.49084 0.55826 0.33559
 H316 H 0.54242 0.65720 0.05783
 H317 H 0.58170 0.65309 0.12466
 H318 H 0.55037 0.71306 0.14064
 H319 H 0.58972 0.70923 0.20778
 C320 C 0.30138 -0.14020 0.17034
 C321 C 0.30158 -0.12970 0.25537
 C322 C 0.33010 -0.08879 0.27626
 C323 C 0.36310 -0.06337 0.22044
 C324 C 0.36802 -0.07799 0.14212
 C325 C 0.33432 -0.11510 0.11515
 C326 C 0.33417 -0.15074 0.07560
 C327 C 0.29776 -0.17801 0.13428
 H328 H 0.32990 -0.07795 0.33921
 H329 H 0.38776 -0.03446 0.24335
 H330 H 0.36280 -0.15208 0.08984
 H331 H 0.32544 -0.15412 0.00814
 H332 H 0.30548 -0.19522 0.18033
 H333 H 0.26766 -0.19655 0.10097
 C334 C 0.87850 0.58104 0.21153
 C335 C 0.86934 0.57041 0.29647
 C336 C 0.87872 0.54160 0.33004
 C337 C 0.89994 0.52670 0.28073
 C338 C 0.91217 0.54050 0.19715
 C339 C 0.89952 0.56650 0.16314
 C340 C 0.92508 0.60639 0.11816
 C341 C 0.90201 0.62228 0.17143
 H342 H 0.87005 0.53106 0.39460
 H343 H 0.90728 0.50503 0.30823
 H344 H 0.91749 0.60430 0.05026
 H345 H 0.95918 0.62125 0.13176
 H346 H 0.88113 0.62930 0.13417
 H347 H 0.92265 0.64629 0.21632
 C348 C 0.51810 0.34250 0.22839
 C349 C 0.48782 0.32622 0.29325
 C350 C 0.45342 0.33255 0.28804
 C351 C 0.45289 0.35899 0.22586
 C352 C 0.48702 0.37993 0.16830
 C353 C 0.51801 0.36893 0.16823
 C354 C 0.56495 0.39395 0.16580
 C355 C 0.56488 0.36494 0.23202
 H356 H 0.42808 0.31871 0.33440
 H357 H 0.42754 0.36554 0.22753
 H358 H 0.57727 0.42537 0.18938
 H359 H 0.57835 0.39200 0.10401
 H360 H 0.57670 0.37950 0.29405
 H361 H 0.57827 0.34636 0.20835
 C362 C 0.65300 0.08877 0.33249
 C363 C 0.69362 0.11250 0.29832
 C364 C 0.70055 0.10435 0.21488
 C365 C 0.66617 0.07787 0.16457
 C366 C 0.62460 0.05882 0.19767
 C367 C 0.61947 0.06253 0.28391
 C368 C 0.59012 0.07228 0.33043
 C369 C 0.62711 0.10092 0.38409
 H370 H 0.73183 0.12070 0.18689
 H371 H 0.67183 0.07482 0.09863
 H372 H 0.56536 0.04556 0.36637
 H373 H 0.57842 0.08835 0.29039
 H374 H 0.62379 0.09050 0.45067
 H375 H 0.63687 0.13355 0.37525
 C376 C 0.46163 0.10702 -0.27074
 C377 C 0.49482 0.14754 -0.27148
 C378 C 0.52187 0.15956 -0.20179
 C379 C 0.52004 0.13021 -0.14433
 C380 C 0.49037 0.08822 -0.15366
 C381 C 0.45923 0.07854 -0.21332
 C382 C 0.43672 0.04452 -0.27334
 C383 C 0.43818 0.07572 -0.33584
 H384 H 0.54654 0.19106 -0.19556
 H385 H 0.54392 0.14015 -0.09677
 H386 H 0.40434 0.02233 -0.25061
 H387 H 0.45637 0.03160 -0.29422
 H388 H 0.40673 0.07189 -0.34728
 H389 H 0.45675 0.07848 -0.39347
 C390 C 0.64400 0.56602 -0.32370
 C391 C 0.68542 0.58504 -0.29366
 C392 C 0.68981 0.59125 -0.20570
 C393 C 0.65426 0.57331 -0.15121
 C394 C 0.61353 0.54855 -0.18337
 C395 C 0.60923 0.54816 -0.27029
 C396 C 0.58432 0.51393 -0.32868
 C397 C 0.62231 0.53353 -0.38793
 H398 H 0.72070 0.60839 -0.17854
 H399 H 0.65904 0.57647 -0.08388
 H400 H 0.55672 0.51474 -0.35348
 H401 H 0.57751 0.48392 -0.30308
 H402 H 0.61619 0.54568 -0.44631
 H403 H 0.63740 0.51486 -0.39735
 C404 C 0.83588 0.32344 -0.21684
 C405 C 0.82591 0.33082 -0.29776
 C406 C 0.83023 0.36947 -0.31188
 C407 C 0.84957 0.40063 -0.25189
 C408 C 0.86562 0.39419 -0.17718
 C409 C 0.85597 0.35446 -0.15890
 C410 C 0.88272 0.33821 -0.12831
 C411 C 0.86066 0.30407 -0.19148
 H412 H 0.82014 0.37616 -0.37044
 H413 H 0.85539 0.43071 -0.26743
 H414 H 0.87526 0.32750 -0.06171
 H415 H 0.91670 0.35878 -0.14325
 H416 H 0.84047 0.27372 -0.16122
 H417 H 0.88184 0.30482 -0.24290
 C418 C 0.57322 -0.11861 -0.22247
 C419 C 0.53974 -0.15417 -0.25609
 C420 C 0.49908 -0.16743 -0.22373
 C421 C 0.49185 -0.14271 -0.16872
 C422 C 0.52499 -0.10398 -0.14635
 C423 C 0.56585 -0.09380 -0.16960
 C424 C 0.60213 -0.05571 -0.20489
 C425 C 0.61079 -0.08282 -0.26232
 H426 H 0.47257 -0.19559 -0.24542
 H427 H 0.45981 -0.15241 -0.14957
 H428 H 0.62692 -0.03949 -0.15751
 H429 H 0.59223 -0.03656 -0.23931
 H430 H 0.64041 -0.08223 -0.24713
 H431 H 0.60710 -0.07852 -0.33012
 C432 C 0.33590 0.44175 -0.29019
 C433 C 0.31296 0.46147 -0.28238
 C434 C 0.32147 0.48618 -0.20987
 C435 C 0.35413 0.49267 -0.15393
 C436 C 0.37780 0.47318 -0.16703
 C437 C 0.36577 0.44666 -0.23488
 C438 C 0.37621 0.41902 -0.28178
 C439 C 0.34170 0.41268 -0.34336
 H440 H 0.30465 0.50229 -0.19905
 H441 H 0.36141 0.51357 -0.10222
 H442 H 0.36837 0.39125 -0.24452
 H443 H 0.40825 0.43558 -0.31072
 H444 H 0.31374 0.38145 -0.34059
 H445 H 0.35417 0.42450 -0.40768
 C446 C 1.15733 0.65037 -0.25652
 C447 C 1.14310 0.65931 -0.33063
 C448 C 1.09918 0.63946 -0.34147
 C449 C 1.07147 0.60916 -0.28473
 C450 C 1.08674 0.59713 -0.21612
 C451 C 1.12989 0.61970 -0.20113
 C452 C 1.16041 0.60561 -0.18674
 C453 C 1.19062 0.63951 -0.24630
 H454 H 1.08614 0.64698 -0.39456
 H455 H 1.03811 0.59399 -0.29704
 H456 H 1.14942 0.57475 -0.21239
 H457 H 1.17131 0.61014 -0.12064
 H458 H 1.19745 0.62821 -0.30551
 H459 H 1.21870 0.66391 -0.21436
 C460 C 0.90398 0.57509 -0.33889
 C461 C 0.88043 0.59150 -0.30411
 C462 C 0.88221 0.59634 -0.21569
 C463 C 0.90058 0.57917 -0.16526
 C464 C 0.91793 0.55706 -0.20208
 C465 C 0.92228 0.55857 -0.28954
 C466 C 0.91358 0.52588 -0.35131
 C467 C 0.89329 0.54379 -0.40566
 H468 H 0.86767 0.61161 -0.18501
 H469 H 0.89861 0.58090 -0.09747
 H470 H 0.89083 0.49498 -0.32668
 H471 H 0.94294 0.52932 -0.37974
 H472 H 0.85881 0.52330 -0.41230
 H473 H 0.91100 0.55717 -0.46560
 C474 C 0.46859 0.34003 -0.26277
 C475 C 0.50029 0.33059 -0.26871
 C476 C 0.53072 0.34654 -0.20423
 C477 C 0.53040 0.37385 -0.14320
 C478 C 0.49843 0.38413 -0.14264
 C479 C 0.46702 0.36423 -0.20192
 C480 C 0.42905 0.36246 -0.23802
 C481 C 0.43035 0.33419 -0.30544
 H482 H 0.55587 0.33972 -0.20371
 H483 H 0.55581 0.38785 -0.09887
 H484 H 0.43593 0.39216 -0.26455
 H485 H 0.40124 0.34720 -0.19480
 H486 H 0.43711 0.34773 -0.36987
 H487 H 0.40384 0.30224 -0.30013
 C488 C 0.68757 0.11310 -0.21991
 C489 C 0.68290 0.12235 -0.30262
 C490 C 0.64194 0.10445 -0.33469
 C491 C 0.60719 0.07534 -0.28710
 C492 C 0.61279 0.06358 -0.20645
 C493 C 0.65326 0.08431 -0.17293
 C494 C 0.67827 0.06767 -0.13463
 C495 C 0.71583 0.09930 -0.18611
 H496 H 0.63697 0.11271 -0.39699
 H497 H 0.57610 0.06210 -0.31340
 H498 H 0.66740 0.03587 -0.15395
 H499 H 0.68191 0.07303 -0.06569
 H500 H 0.72676 0.08586 -0.23535
 H501 H 0.74104 0.12294 -0.14684
 C502 C 1.12688 0.45371 -0.17741
 C503 C 1.11455 0.43738 -0.25800
 C504 C 1.07114 0.41761 -0.27469
 C505 C 1.04348 0.42236 -0.22009
 C506 C 1.05855 0.44612 -0.14684
 C507 C 1.09948 0.45771 -0.12256
 C508 C 1.13411 0.49750 -0.09128
 C509 C 1.16389 0.49281 -0.15092
 H510 H 1.05955 0.40268 -0.33441
 H511 H 1.01159 0.41146 -0.24009
 H512 H 1.14069 0.49588 -0.02371
 H513 H 1.12998 0.52341 -0.10892
 H514 H 1.18739 0.48798 -0.11780
 H515 H 1.17687 0.51606 -0.20241
 C516 C 0.54817 0.63457 -0.33158
 C517 C 0.56374 0.67367 -0.29648
 C518 C 0.57524 0.67747 -0.21116
 C519 C 0.56311 0.64252 -0.16104
 C520 C 0.54001 0.60308 -0.19560
 C521 C 0.53676 0.60028 -0.28257
 C522 C 0.50013 0.57351 -0.33569
 C523 C 0.51268 0.61086 -0.39029
 H524 H 0.59161 0.70707 -0.18188
 H525 H 0.56907 0.64631 -0.09413
 H526 H 0.46946 0.56204 -0.30200
 H527 H 0.50421 0.54985 -0.36811
 H528 H 0.48915 0.62091 -0.38960
 H529 H 0.52433 0.60843 -0.45352
 C530 C 0.36100 -0.12005 -0.33332
 C531 C 0.33545 -0.16256 -0.33095
 C532 C 0.34211 -0.18306 -0.26353
 C533 C 0.36986 -0.16123 -0.19795
 C534 C 0.39133 -0.11827 -0.19691
 C535 C 0.38796 -0.09857 -0.26831
 C536 C 0.37829 -0.06511 -0.27542
 C537 C 0.34879 -0.08864 -0.34616
 H538 H 0.32513 -0.21603 -0.26035
 H539 H 0.37312 -0.17809 -0.14650
 H540 H 0.40596 -0.03659 -0.29848
 H541 H 0.36209 -0.06234 -0.21840
 H542 H 0.35961 -0.07313 -0.40854
 H543 H 0.31515 -0.10013 -0.33016
 C544 C 0.46444 -0.17661 0.28782
 C545 C 0.50502 -0.16623 0.31224
 C546 C 0.53933 -0.13422 0.26854
 C547 C 0.53297 -0.11023 0.20996
 C548 C 0.49209 -0.11829 0.19268
 C549 C 0.45808 -0.15325 0.22876
 C550 C 0.42068 -0.15774 0.27610
 C551 C 0.42763 -0.18329 0.34052
 H552 H 0.57112 -0.12653 0.28289
 H553 H 0.56011 -0.08410 0.18142
 H554 H 0.39116 -0.17545 0.24051
 H555 H 0.42608 -0.12828 0.30133
 H556 H 0.40216 -0.21578 0.34183
 H557 H 0.43686 -0.16874 0.40329
 C558 C 0.31031 0.42665 0.26282
 C559 C 0.30385 0.45916 0.27981
 C560 C 0.32367 0.49321 0.22524
 C561 C 0.35430 0.49703 0.16584
 C562 C 0.36605 0.46698 0.16009
 C563 C 0.34077 0.43051 0.20505
 C564 C 0.35040 0.40333 0.25621
 C565 C 0.31653 0.39875 0.31880
 H566 H 0.31784 0.51820 0.23285
 H567 H 0.37131 0.52519 0.12998
 H568 H 0.38217 0.41957 0.28352
 H569 H 0.34219 0.37459 0.22321
 H570 H 0.32916 0.41193 0.38133
 H571 H 0.28857 0.36752 0.32069
 C572 C 1.07816 0.66187 0.26182
 C573 C 1.12204 0.68241 0.25035
 C574 C 1.13731 0.67636 0.17302
 C575 C 1.11011 0.64533 0.11796
 C576 C 1.06722 0.61938 0.13982
 C577 C 1.05174 0.63097 0.20877
 C578 C 1.01949 0.60895 0.27646
 C579 C 1.04809 0.64352 0.33493
 H580 H 1.17076 0.69288 0.15894
 H581 H 1.12371 0.63874 0.06367
 H582 H 1.01640 0.57926 0.29406
 H583 H 0.98948 0.60804 0.26403
 H584 H 1.05961 0.63302 0.38775
 H585 H 1.03454 0.66261 0.35412
 C586 C 0.46898 0.11668 0.27588
 C587 C 0.50505 0.15352 0.29399
 C588 C 0.54131 0.16520 0.24375
 C589 C 0.54254 0.13752 0.18613
 C590 C 0.50755 0.09777 0.17842
 C591 C 0.47024 0.08941 0.22036
 C592 C 0.43853 0.05363 0.27138
 C593 C 0.43724 0.08379 0.33228
 H594 H 0.56929 0.19459 0.25269
 H595 H 0.57181 0.14606 0.15315
 H596 H 0.45163 0.03576 0.29972
 H597 H 0.40865 0.03559 0.23717
 H598 H 0.44966 0.08332 0.39537
 H599 H 0.40666 0.08292 0.33296
 C600 C 0.64605 0.52593 0.30805
 C601 C 0.67675 0.56725 0.30293
 C602 C 0.66936 0.59293 0.25147
 C603 C 0.63040 0.57774 0.21227
 C604 C 0.59806 0.53696 0.22552
 C605 C 0.60748 0.51110 0.27031
 C606 C 0.58470 0.48326 0.34322
 C607 C 0.62727 0.49881 0.38325
 H608 H 0.69315 0.62476 0.24362
 H609 H 0.62542 0.59774 0.17154
 H610 H 0.56920 0.45060 0.32586
 H611 H 0.56419 0.49206 0.37813
 H612 H 0.63676 0.47542 0.38692
 H613 H 0.63144 0.51608 0.44182
 C614 C 0.86707 0.32289 0.21114
 C615 C 0.83641 0.32289 0.26395
 C616 C 0.82400 0.35152 0.24670
 C617 C 0.84640 0.38284 0.18658
 C618 C 0.88212 0.38650 0.14412
 C619 C 0.88983 0.35427 0.15352
 C620 C 0.92928 0.35355 0.16835
 C621 C 0.90429 0.31914 0.23157
 H622 H 0.79879 0.35115 0.28324
 H623 H 0.83827 0.40633 0.17969
 H624 H 0.95382 0.38178 0.19807
 H625 H 0.93979 0.34375 0.11174
 H626 H 0.91455 0.32760 0.29764
 H627 H 0.90031 0.28949 0.21122
   
