data_POSCAR
  _audit_creation_date              2014-09-24
  _audit_creation_method            'ToBaCCo'
  _symmetry_space_group_name_H-M    'P1'
  _symmetry_Int_Tables_number       1
  _symmetry_cell_setting            triclinic
  loop_
  _symmetry_equiv_pos_as_xyz
 x,y,z
_cell_length_a 34.3753
_cell_length_b 34.4234
_cell_length_c 19.2945
_cell_angle_alpha 89.823900
_cell_angle_beta 90.088200
_cell_angle_gamma 120.021600
loop_
  _atom_site_label
  _atom_site_type_symbol
  _atom_site_fract_x
  _atom_site_fract_y
  _atom_site_fract_z
O1 O 0.55455 1.04443 0.56590
 O2 O 0.51095 0.95732 0.43103
 O3 O 0.55419 1.04465 0.43078
 O4 O 0.51030 0.95712 0.56607
 O5 O 0.44598 0.95715 0.56573
 O6 O 0.48984 1.04460 0.43065
 O7 O 0.44659 0.95727 0.43069
 O8 O 0.49023 1.04447 0.56577
 Cu9 Cu 0.53899 1.00089 0.49846
 Cu10 Cu 0.46167 1.00088 0.49818
 C11 C 0.52975 1.05908 0.58873
 C12 C 0.47146 0.94262 0.40802
 C13 C 0.52935 1.05933 0.40778
 C14 C 0.47073 0.94242 0.58879
 O15 O 0.04365 0.48947 0.57008
 O16 O -0.04374 0.44572 0.43510
 O17 O 0.04367 0.48998 0.43499
 O18 O -0.04381 0.44622 0.57019
 O19 O -0.04383 0.51045 0.56971
 O20 O 0.04356 0.55417 0.43473
 O21 O -0.04385 0.50991 0.43462
 O22 O 0.04363 0.55370 0.56982
 Cu23 Cu -0.00005 0.46137 0.50265
 Cu24 Cu -0.00013 0.53853 0.50221
 C25 C 0.05835 0.52891 0.59285
 C26 C -0.05846 0.47044 0.41193
 C27 C 0.05828 0.52945 0.41192
 C28 C -0.05853 0.47101 0.59284
 O29 O 0.51092 0.55360 0.56837
 O30 O 0.55452 0.51005 0.43350
 O31 O 0.51033 0.55320 0.43333
 O32 O 0.55422 0.50952 0.56861
 O33 O 0.48986 0.44527 0.56875
 O34 O 0.44601 0.48889 0.43366
 O35 O 0.49020 0.44574 0.43363
 O36 O 0.44656 0.48933 0.56870
 Cu37 Cu 0.53900 0.53807 0.50094
 Cu38 Cu 0.46168 0.46082 0.50122
 C39 C 0.47143 0.52883 0.59137
 C40 C 0.52971 0.47061 0.41066
 C41 C 0.47077 0.52835 0.41060
 C42 C 0.52939 0.47003 0.59161
 O43 O 0.39829 0.66875 -0.08018
 O44 O 0.40032 0.74450 -0.05828
 C45 C 0.37234 0.75038 -0.09349
 O46 O 0.33056 0.72949 -0.08081
 O47 O 0.25469 0.65579 -0.05796
 C48 C 0.24875 0.62194 -0.09286
 O49 O 0.26967 0.60111 -0.08004
 O50 O 0.34349 0.59911 -0.05747
 C51 C 0.37740 0.62701 -0.09262
 O52 O 0.40038 0.65592 0.05760
 O53 O 0.39834 0.72963 0.07952
 C54 C 0.37750 0.75054 0.09193
 O55 O 0.34361 0.74460 0.05677
 O56 O 0.26983 0.66885 0.07967
 C57 C 0.24897 0.62714 0.09265
 O58 O 0.25479 0.59917 0.05767
 O59 O 0.33063 0.60122 0.08018
 C60 C 0.37242 0.62208 0.09282
 Cr61 Cr 0.39691 0.69849 -0.00034
 Cr62 Cr 0.30088 0.69847 -0.00057
 Cr63 Cr 0.30086 0.60257 0.00007
 O64 O 0.33288 0.66651 -0.00029
 O65 O 0.60154 0.33119 -0.08047
 O66 O 0.59951 0.25545 -0.05789
 C67 C 0.62751 0.24963 -0.09294
 O68 O 0.66929 0.27047 -0.08016
 O69 O 0.74514 0.34415 -0.05763
 C70 C 0.75107 0.37799 -0.09289
 O71 O 0.73014 0.39880 -0.08042
 O72 O 0.65633 0.40083 -0.05822
 C73 C 0.62244 0.37292 -0.09327
 O74 O 0.59946 0.34396 0.05721
 O75 O 0.60147 0.27025 0.07981
 C76 C 0.62234 0.24936 0.09258
 O77 O 0.65621 0.25529 0.05752
 O78 O 0.72998 0.33104 0.08004
 C79 C 0.75085 0.37275 0.09267
 O80 O 0.74505 0.40072 0.05734
 O81 O 0.66922 0.39867 0.07953
 C82 C 0.62744 0.37776 0.09227
 Cr83 Cr 0.60291 0.30142 -0.00034
 Cr84 Cr 0.69895 0.30144 -0.00007
 Cr85 Cr 0.69897 0.39734 -0.00044
 O86 O 0.66694 0.33340 -0.00029
 C87 C 0.42242 0.84743 -0.25868
 C88 C 0.37639 0.82364 -0.24396
 C89 C 0.35999 0.79191 -0.19044
 C90 C 0.45371 0.90871 -0.35804
 C91 C 0.43573 0.80758 -0.16636
 C92 C 0.45201 0.83926 -0.21989
 C93 C 0.43939 0.88063 -0.31296
 C94 C 0.38951 0.78360 -0.15081
 H95 H 0.35319 0.82973 -0.27367
 H96 H 0.32424 0.77406 -0.17997
 H97 H 0.45939 0.80200 -0.13705
 H98 H 0.48771 0.85751 -0.23084
 C99 C 0.15153 0.57482 -0.25764
 C100 C 0.15970 0.61254 -0.21913
 C101 C 0.19143 0.62797 -0.16572
 C102 C 0.09023 0.54475 -0.35686
 C103 C 0.20711 0.56802 -0.18932
 C104 C 0.17535 0.55266 -0.24273
 C105 C 0.11831 0.55856 -0.31183
 C106 C 0.21544 0.60581 -0.15000
 H107 H 0.14143 0.62993 -0.23022
 H108 H 0.19701 0.65718 -0.13664
 H109 H 0.22500 0.55019 -0.17873
 H110 H 0.16926 0.52340 -0.27221
 C111 C 0.42461 0.57696 -0.25677
 C112 C 0.38681 0.54741 -0.21805
 C113 C 0.37134 0.56369 -0.16485
 C114 C 0.45471 0.54576 -0.35564
 C115 C 0.43141 0.63932 -0.18912
 C116 C 0.44681 0.62294 -0.24231
 C117 C 0.44090 0.56002 -0.31076
 C118 C 0.39354 0.60985 -0.14957
 H119 H 0.36939 0.51175 -0.22880
 H120 H 0.34207 0.54006 -0.13558
 H121 H 0.44926 0.67503 -0.17886
 H122 H 0.47612 0.64611 -0.27197
 C123 C 0.57769 0.15332 -0.25838
 C124 C 0.62369 0.17701 -0.24344
 C125 C 0.64000 0.20847 -0.18980
 C126 C 0.54663 0.09255 -0.35801
 C127 C 0.56422 0.19270 -0.16600
 C128 C 0.54803 0.16129 -0.21965
 C129 C 0.56083 0.12040 -0.31282
 C130 C 0.61042 0.21660 -0.15026
 H131 H 0.64694 0.17106 -0.27309
 H132 H 0.67573 0.22627 -0.17920
 H133 H 0.54051 0.19815 -0.13676
 H134 H 0.51235 0.14310 -0.23076
 C135 C 0.84828 0.42510 -0.25765
 C136 C 0.84012 0.38740 -0.21877
 C137 C 0.80840 0.37196 -0.16536
 C138 C 0.90959 0.45517 -0.35687
 C139 C 0.79270 0.43190 -0.18973
 C140 C 0.82446 0.44726 -0.24313
 C141 C 0.88151 0.44136 -0.31185
 C142 C 0.78438 0.39412 -0.15002
 H143 H 0.85840 0.37001 -0.22956
 H144 H 0.80282 0.34276 -0.13598
 H145 H 0.77480 0.44972 -0.17943
 H146 H 0.83055 0.47652 -0.27291
 C147 C 0.57536 0.42290 -0.25853
 C148 C 0.61311 0.45247 -0.21986
 C149 C 0.62854 0.43623 -0.16628
 C150 C 0.54525 0.45403 -0.35800
 C151 C 0.56851 0.36057 -0.19008
 C152 C 0.55316 0.37693 -0.24364
 C153 C 0.55909 0.43980 -0.31287
 C154 C 0.60634 0.39007 -0.15058
 H155 H 0.63054 0.48813 -0.23094
 H156 H 0.65778 0.45987 -0.13707
 H157 H 0.55066 0.32487 -0.17950
 H158 H 0.52387 0.35374 -0.27325
 C159 C 0.84720 0.42248 0.25863
 C160 C 0.83923 0.45210 0.21957
 C161 C 0.80782 0.43594 0.16573
 C162 C 0.90800 0.45353 0.35856
 C163 C 0.79204 0.36027 0.19002
 C164 C 0.82349 0.37655 0.24384
 C165 C 0.88013 0.43932 0.31324
 C166 C 0.78391 0.38981 0.15015
 H167 H 0.85743 0.48773 0.23055
 H168 H 0.80237 0.45962 0.13624
 H169 H 0.77422 0.32459 0.17954
 H170 H 0.82944 0.35332 0.27375
 C171 C 0.57527 0.15236 0.25787
 C172 C 0.61300 0.16048 0.21916
 C173 C 0.62842 0.19213 0.16557
 C174 C 0.54520 0.09117 0.35738
 C175 C 0.56841 0.20783 0.18940
 C176 C 0.55307 0.17614 0.24298
 C177 C 0.55902 0.11921 0.31223
 C178 C 0.60622 0.21611 0.14988
 H179 H 0.63042 0.14223 0.23023
 H180 H 0.65764 0.19768 0.13634
 H181 H 0.55056 0.22569 0.17883
 H182 H 0.52380 0.17008 0.27261
 C183 C 0.57761 0.42429 0.25771
 C184 C 0.62362 0.44653 0.24280
 C185 C 0.63992 0.43138 0.18915
 C186 C 0.54658 0.45401 0.35738
 C187 C 0.56413 0.37147 0.16527
 C188 C 0.54795 0.38670 0.21893
 C189 C 0.56076 0.44035 0.31216
 C190 C 0.61033 0.39371 0.14957
 H191 H 0.64687 0.47570 0.27248
 H192 H 0.67565 0.44926 0.17858
 H193 H 0.54042 0.34235 0.13600
 H194 H 0.51226 0.36925 0.23002
 C195 C 0.15262 0.57740 0.25862
 C196 C 0.16060 0.54779 0.21994
 C197 C 0.19202 0.56395 0.16609
 C198 C 0.09182 0.54636 0.35856
 C199 C 0.20778 0.63961 0.18962
 C200 C 0.17632 0.62334 0.24345
 C201 C 0.11970 0.56056 0.31324
 C202 C 0.21591 0.61007 0.15013
 H203 H 0.14241 0.51216 0.23122
 H204 H 0.19747 0.54027 0.13691
 H205 H 0.22559 0.67529 0.17884
 H206 H 0.17037 0.64655 0.27306
 C207 C 0.42470 0.84775 0.25610
 C208 C 0.38693 0.83956 0.21734
 C209 C 0.37146 0.80783 0.16412
 C210 C 0.45475 0.90899 0.35501
 C211 C 0.43151 0.79219 0.18844
 C212 C 0.44689 0.82395 0.24165
 C213 C 0.44097 0.88094 0.31012
 C214 C 0.39365 0.78384 0.14887
 H215 H 0.36951 0.85781 0.22808
 H216 H 0.34221 0.80223 0.13484
 H217 H 0.44935 0.77432 0.17820
 H218 H 0.47620 0.83006 0.27134
 C219 C 0.42250 0.57507 0.25801
 C220 C 0.37647 0.55289 0.24332
 C221 C 0.36007 0.56823 0.18979
 C222 C 0.45376 0.54505 0.35740
 C223 C 0.43582 0.62820 0.16562
 C224 C 0.45210 0.61278 0.21916
 C225 C 0.43946 0.55883 0.31230
 C226 C 0.38960 0.60601 0.15012
 H227 H 0.35326 0.52363 0.27306
 H228 H 0.32432 0.55038 0.17936
 H229 H 0.45949 0.65740 0.13628
 H230 H 0.48781 0.63019 0.23008
   
