data_POSCAR
  _audit_creation_date              2014-09-24
  _audit_creation_method            'ToBaCCo'
  _symmetry_space_group_name_H-M    'P1'
  _symmetry_Int_Tables_number       1
  _symmetry_cell_setting            triclinic
  loop_
  _symmetry_equiv_pos_as_xyz
 x,y,z
_cell_length_a 39.8935
_cell_length_b 39.6295
_cell_length_c 43.2340
_cell_angle_alpha 89.628100
_cell_angle_beta 89.990900
_cell_angle_gamma 91.715100
loop_
  _atom_site_label
  _atom_site_type_symbol
  _atom_site_fract_x
  _atom_site_fract_y
  _atom_site_fract_z
C1 C -0.08776 0.31830 0.00030
 C2 C -0.07230 0.31225 0.02893
 C3 C -0.03762 0.30671 0.02955
 C4 C -0.01782 0.30936 0.00256
 C5 C -0.03443 0.31489 -0.02591
 C6 C -0.06948 0.31781 -0.02748
 C7 C 0.01984 0.30654 0.00416
 C8 C 0.03865 0.29980 -0.02266
 C9 C 0.07381 0.30025 -0.02212
 C10 C 0.09060 0.30494 0.00601
 C11 C 0.07271 0.30907 0.03352
 C12 C 0.03761 0.31100 0.03234
 H13 H -0.11462 0.32147 -0.00052
 H14 H -0.02624 0.30024 0.05134
 H15 H -0.02039 0.31754 -0.04714
 H16 H 0.02637 0.29436 -0.04435
 H17 H 0.11769 0.30387 0.00668
 H18 H 0.02478 0.31656 0.05359
 C19 C 0.41071 0.81498 0.49853
 C20 C 0.42856 0.81883 0.52622
 C21 C 0.46378 0.81973 0.52538
 C22 C 0.48150 0.81431 0.49751
 C23 C 0.46258 0.80839 0.47040
 C24 C 0.42746 0.80970 0.47058
 C25 C 0.51930 0.81450 0.49675
 C26 C 0.53750 0.81945 0.46883
 C27 C 0.57276 0.81958 0.46844
 C28 C 0.59015 0.81699 0.49646
 C29 C 0.57287 0.81183 0.52435
 C30 C 0.53774 0.80951 0.52415
 H31 H 0.38355 0.81446 0.49895
 H32 H 0.47688 0.82499 0.54673
 H33 H 0.47482 0.80259 0.44890
 H34 H 0.52475 0.82360 0.44717
 H35 H 0.61732 0.81734 0.49641
 H36 H 0.52510 0.80373 0.54568
 C37 C 1.08893 0.68309 -0.00498
 C38 C 1.07297 0.68960 0.02322
 C39 C 1.03826 0.69477 0.02320
 C40 C 1.01879 0.69092 -0.00385
 C41 C 1.03589 0.68530 -0.03200
 C42 C 1.07106 0.68284 -0.03302
 C43 C 0.98100 0.69252 -0.00240
 C44 C 0.96178 0.69759 -0.02940
 C45 C 0.92658 0.69658 -0.02848
 C46 C 0.91017 0.69277 0.00002
 C47 C 0.92843 0.68997 0.02748
 C48 C 0.96351 0.68858 0.02603
 H49 H 1.11584 0.68019 -0.00529
 H50 H 1.02658 0.70181 0.04460
 H51 H 1.02220 0.68221 -0.05335
 H52 H 0.97374 0.70224 -0.05144
 H53 H 0.88306 0.69351 0.00095
 H54 H 0.97655 0.68387 0.04741
 C55 C 0.58989 0.18729 0.50367
 C56 C 0.57253 0.18393 0.53175
 C57 C 0.53725 0.18258 0.53148
 C58 C 0.51906 0.18675 0.50360
 C59 C 0.53752 0.19262 0.47617
 C60 C 0.57260 0.19177 0.47585
 C61 C 0.48123 0.18518 0.50289
 C62 C 0.46345 0.17906 0.47500
 C63 C 0.42825 0.17842 0.47413
 C64 C 0.41042 0.18134 0.50182
 C65 C 0.42722 0.18721 0.52981
 C66 C 0.46237 0.19009 0.53002
 H67 H 0.61706 0.18806 0.50363
 H68 H 0.52449 0.17787 0.55317
 H69 H 0.52492 0.19793 0.45468
 H70 H 0.47649 0.17445 0.45363
 H71 H 0.38325 0.18067 0.50138
 H72 H 0.47467 0.19629 0.55156
 C73 C 0.68330 -0.08677 -0.00142
 C74 C 0.68946 -0.07001 0.02667
 C75 C 0.69196 -0.03447 0.02651
 C76 C 0.68619 -0.01553 -0.00065
 C77 C 0.68019 -0.03331 -0.02843
 C78 C 0.68003 -0.06870 -0.02916
 C79 C 0.68642 0.02247 0.00006
 C80 C 0.69258 0.04168 -0.02707
 C81 C 0.69046 0.07711 -0.02727
 C82 C 0.68431 0.09359 0.00079
 C83 C 0.68067 0.07537 0.02852
 C84 C 0.68046 0.03998 0.02782
 H85 H 0.68274 -0.11410 -0.00210
 H86 H 0.69852 -0.02167 0.04773
 H87 H 0.67532 -0.02005 -0.04979
 H88 H 0.69913 0.02919 -0.04825
 H89 H 0.68403 0.12090 0.00144
 H90 H 0.67531 0.02647 0.04915
 C91 C 0.18070 0.40235 0.50360
 C92 C 0.17704 0.42057 0.53097
 C93 C 0.17644 0.45598 0.52952
 C94 C 0.18184 0.47362 0.50128
 C95 C 0.18773 0.45445 0.47451
 C96 C 0.18615 0.41903 0.47531
 C97 C 0.18162 0.51163 0.49971
 C98 C 0.17646 0.52882 0.47137
 C99 C 0.17687 0.56424 0.46980
 C100 C 0.17999 0.58281 0.49715
 C101 C 0.18508 0.56658 0.52557
 C102 C 0.18687 0.53126 0.52651
 H103 H 0.18098 0.37503 0.50452
 H104 H 0.17146 0.46930 0.55066
 H105 H 0.19370 0.46674 0.45277
 H106 H 0.17184 0.51512 0.45023
 H107 H 0.18014 0.61013 0.49612
 H108 H 0.19254 0.51943 0.54837
 C109 C 0.31581 1.08690 -0.00013
 C110 C 0.31020 1.06909 0.02756
 C111 C 0.30719 1.03377 0.02697
 C112 C 0.31195 1.01567 -0.00060
 C113 C 0.31705 1.03437 -0.02830
 C114 C 0.31764 1.06997 -0.02853
 C115 C 0.31181 0.97762 -0.00031
 C116 C 0.30551 0.95899 -0.02754
 C117 C 0.30780 0.92358 -0.02800
 C118 C 0.31405 0.90648 -0.00008
 C119 C 0.31783 0.92407 0.02775
 C120 C 0.31810 0.95946 0.02725
 H121 H 0.31686 1.11424 0.00040
 H122 H 0.30120 1.02068 0.04832
 H123 H 0.32117 1.02155 -0.04986
 H124 H 0.29881 0.97189 -0.04862
 H125 H 0.31438 0.87916 0.00039
 H126 H 0.32352 0.97243 0.04863
 C127 C 0.81893 0.59757 0.50042
 C128 C 0.81346 0.57972 0.52815
 C129 C 0.81164 0.54423 0.52756
 C130 C 0.81736 0.52630 0.49994
 C131 C 0.82302 0.54513 0.47252
 C132 C 0.82254 0.58050 0.47241
 C133 C 0.81752 0.48831 0.49963
 C134 C 0.81165 0.46999 0.47206
 C135 C 0.81378 0.43465 0.47142
 C136 C 0.81971 0.41717 0.49909
 C137 C 0.82348 0.43448 0.52707
 C138 C 0.82365 0.46987 0.52698
 H139 H 0.81878 0.62490 0.50042
 H140 H 0.80569 0.53093 0.54883
 H141 H 0.82806 0.53267 0.45095
 H142 H 0.80533 0.48289 0.45087
 H143 H 0.81981 0.38984 0.49907
 H144 H 0.82880 0.48268 0.54851
 O145 O 0.29953 0.24324 0.27392
 O146 O 0.23981 0.27753 0.21755
 O147 O 0.25506 0.28993 0.27530
 O148 O 0.28399 0.23125 0.21613
 O149 O 0.24571 0.19327 0.23140
 O150 O 0.21685 0.25193 0.29068
 O151 O 0.20121 0.23997 0.23295
 O152 O 0.26099 0.20561 0.28931
 Cu153 Cu 0.27347 0.26428 0.24425
 Cu154 Cu 0.22734 0.21886 0.26256
 C155 C 0.29024 0.21893 0.29154
 C156 C 0.21051 0.26432 0.21537
 C157 C 0.23134 0.28072 0.29333
 C158 C 0.26942 0.20251 0.21337
 O159 O 0.75773 0.80540 0.22829
 O160 O 0.79067 0.74780 0.28713
 O161 O 0.80348 0.75991 0.22870
 O162 O 0.74386 0.79176 0.28636
 O163 O 0.70634 0.75293 0.27185
 O164 O 0.76589 0.72082 0.21480
 O165 O 0.75347 0.70844 0.27304
 O166 O 0.72085 0.76592 0.21376
 Cu167 Cu 0.77765 0.78018 0.25903
 Cu168 Cu 0.73280 0.73311 0.24212
 C169 C 0.73420 0.79523 0.21059
 C170 C 0.77756 0.71842 0.29024
 C171 C 0.79457 0.73517 0.21166
 C172 C 0.71502 0.77753 0.28905
 O173 O 0.79410 0.25331 0.22816
 O174 O 0.73365 0.22114 0.28590
 O175 O 0.74644 0.20685 0.22829
 O176 O 0.77963 0.26797 0.28544
 O177 O 0.74350 0.30537 0.26918
 O178 O 0.71002 0.24413 0.21241
 O179 O 0.69700 0.25828 0.27014
 O180 O 0.75743 0.29006 0.21170
 Cu181 Cu 0.76718 0.23357 0.25842
 Cu182 Cu 0.72334 0.27822 0.23923
 C183 C 0.78590 0.27675 0.20979
 C184 C 0.70539 0.23470 0.28833
 C185 C 0.72276 0.21524 0.21043
 C186 C 0.76672 0.29680 0.28746
 O187 O 0.28527 0.75352 0.21215
 O188 O 0.24825 0.69277 0.26849
 O189 O 0.23720 0.70867 0.21051
 O190 O 0.29689 0.73808 0.27000
 O191 O 0.26102 0.77612 0.28501
 O192 O 0.20123 0.74648 0.22583
 O193 O 0.21287 0.73117 0.28367
 O194 O 0.24970 0.79178 0.22729
 Cu195 Cu 0.27049 0.71936 0.23887
 Cu196 Cu 0.22759 0.76522 0.25691
 C197 C 0.27343 0.78283 0.20984
 C198 C 0.22459 0.70183 0.28598
 C199 C 0.20931 0.72298 0.20773
 C200 C 0.28893 0.76187 0.28782
 O201 O 0.79287 0.26460 0.71191
 O202 O 0.75960 0.20500 0.77068
 O203 O 0.74546 0.21839 0.71275
 O204 O 0.80618 0.25241 0.77011
 O205 O 0.76921 0.28953 0.78476
 O206 O 0.70870 0.25552 0.72775
 O207 O 0.72332 0.24267 0.78564
 O208 O 0.75647 0.30221 0.72671
 Cu209 Cu 0.77967 0.23133 0.73988
 Cu210 Cu 0.73567 0.27624 0.75751
 C211 C 0.78021 0.29346 0.70920
 C212 C 0.73631 0.21397 0.78858
 C213 C 0.71683 0.23139 0.71036
 C214 C 0.79771 0.27644 0.78755
 O215 O 0.29769 0.74996 0.72640
 O216 O 0.23684 0.71337 0.78246
 O217 O 0.25256 0.70116 0.72497
 O218 O 0.28164 0.76141 0.78409
 O219 O 0.24426 0.79776 0.76827
 O220 O 0.21506 0.73732 0.70904
 O221 O 0.19894 0.74911 0.76656
 O222 O 0.25987 0.78576 0.71048
 Cu223 Cu 0.27101 0.72787 0.75597
 Cu224 Cu 0.22576 0.77114 0.73704
 C225 C 0.28895 0.77373 0.70856
 C226 C 0.20774 0.72535 0.78440
 C227 C 0.22914 0.70914 0.70671
 C228 C 0.26749 0.78950 0.78667
 O229 O 0.20113 0.23873 0.77468
 O230 O 0.26047 0.21261 0.71504
 O231 O 0.24967 0.19637 0.77284
 O232 O 0.21232 0.25474 0.71663
 O233 O 0.24800 0.29522 0.73134
 O234 O 0.28502 0.23703 0.78780
 O235 O 0.29653 0.25271 0.72986
 O236 O 0.23707 0.27905 0.78930
 Cu237 Cu 0.22725 0.22157 0.74335
 Cu238 Cu 0.27026 0.27011 0.76095
 C239 C 0.20928 0.26297 0.79248
 C240 C 0.28844 0.22841 0.71212
 C241 C 0.27335 0.20696 0.79022
 C242 C 0.22413 0.28475 0.71411
 O243 O 0.73421 0.78883 0.71374
 O244 O 0.79400 0.75964 0.77179
 O245 O 0.77984 0.74435 0.71433
 O246 O 0.74666 0.80356 0.77144
 O247 O 0.70994 0.76424 0.78710
 O248 O 0.74317 0.70506 0.73015
 O249 O 0.75699 0.72071 0.78769
 O250 O 0.69709 0.74979 0.72927
 Cu251 Cu 0.76745 0.77803 0.74138
 Cu252 Cu 0.72311 0.73100 0.76015
 C253 C 0.70579 0.77388 0.71119
 C254 C 0.78553 0.73555 0.78991
 C255 C 0.76665 0.71489 0.71209
 C256 C 0.72283 0.79382 0.78918
 C257 C 0.29883 0.12242 0.11023
 N258 N 0.28680 0.09015 0.10778
 N259 N 0.29075 0.07302 0.08167
 C260 C 0.30662 0.08762 0.05695
 N261 N 0.31873 0.11987 0.05955
 N262 N 0.31497 0.13691 0.08569
 C263 C 0.29311 0.14203 0.13828
 N264 N 0.30744 0.17331 0.14138
 N265 N 0.30065 0.19214 0.16586
 C266 C 0.27921 0.18042 0.18808
 N267 N 0.26509 0.14900 0.18515
 N268 N 0.27201 0.13008 0.16073
 C269 C 0.79952 0.63378 0.61023
 N270 N 0.78877 0.60103 0.60815
 N271 N 0.79352 0.58364 0.58228
 C272 C 0.80893 0.59844 0.55740
 N273 N 0.81977 0.63116 0.55965
 N274 N 0.81522 0.64845 0.58553
 C275 C 0.79299 0.65371 0.63805
 N276 N 0.80612 0.68557 0.64066
 N277 N 0.79859 0.70462 0.66482
 C278 C 0.77757 0.69257 0.68725
 N279 N 0.76465 0.66058 0.68481
 N280 N 0.77232 0.64145 0.66070
 C281 C 0.70226 0.87525 0.10717
 N282 N 0.70763 0.90921 0.10684
 N283 N 0.70319 0.92695 0.08095
 C284 C 0.69366 0.91142 0.05424
 N285 N 0.68832 0.87736 0.05480
 N286 N 0.69242 0.85967 0.08072
 C287 C 0.70838 0.85534 0.13520
 N288 N 0.69764 0.82257 0.13700
 N289 N 0.70491 0.80376 0.16159
 C290 C 0.72338 0.81697 0.18518
 N291 N 0.73393 0.84983 0.18350
 N292 N 0.72640 0.86874 0.15902
 C293 C 0.18399 0.36698 0.61455
 N294 N 0.19263 0.40037 0.61314
 N295 N 0.18891 0.41782 0.58696
 C296 C 0.17663 0.40252 0.56111
 N297 N 0.16751 0.36925 0.56275
 N298 N 0.17098 0.35187 0.58897
 C299 C 0.19153 0.34673 0.64218
 N300 N 0.18083 0.31394 0.64419
 N301 N 0.19030 0.29454 0.66772
 C302 C 0.21102 0.30713 0.69002
 N303 N 0.22143 0.34003 0.68821
 N304 N 0.21179 0.35950 0.66477
 C305 C 0.87087 0.30614 0.10868
 N306 N 0.90386 0.29878 0.10928
 N307 N 0.92234 0.30126 0.08366
 C308 C 0.90852 0.31076 0.05631
 N309 N 0.87548 0.31831 0.05596
 N310 N 0.85706 0.31611 0.08160
 C311 C 0.84990 0.30127 0.13625
 N312 N 0.81810 0.31253 0.13672
 N313 N 0.79807 0.30579 0.16075
 C314 C 0.80907 0.28736 0.18508
 N315 N 0.84098 0.27639 0.18476
 N316 N 0.86110 0.28336 0.16083
 C317 C 0.37382 0.81217 0.60903
 N318 N 0.40654 0.80366 0.60829
 N319 N 0.42440 0.80723 0.58233
 C320 C 0.41018 0.81923 0.55604
 N321 N 0.37758 0.82818 0.55700
 N322 N 0.35981 0.82486 0.58299
 C323 C 0.35300 0.80499 0.63656
 N324 N 0.32107 0.81586 0.63797
 N325 N 0.30108 0.80685 0.66150
 C326 C 0.31217 0.78643 0.68442
 N327 N 0.34421 0.77583 0.68320
 N328 N 0.36428 0.78503 0.65975
 C329 C 0.12774 0.69648 0.10404
 N330 N 0.09479 0.70393 0.10375
 N331 N 0.07703 0.70134 0.07775
 C332 C 0.09156 0.69163 0.05089
 N333 N 0.12460 0.68412 0.05141
 N334 N 0.14230 0.68641 0.07744
 C335 C 0.14781 0.70095 0.13215
 N336 N 0.17923 0.68886 0.13375
 N337 N 0.19839 0.69487 0.15843
 C338 C 0.18689 0.71337 0.18228
 N339 N 0.15536 0.72524 0.18081
 N340 N 0.13608 0.71898 0.15623
 C341 C 0.62950 0.19265 0.61305
 N342 N 0.59686 0.20151 0.61270
 N343 N 0.57825 0.19730 0.58730
 C344 C 0.59161 0.18426 0.56121
 N345 N 0.62412 0.17496 0.56180
 N346 N 0.64263 0.17892 0.58723
 C347 C 0.65113 0.20032 0.63986
 N348 N 0.68290 0.18897 0.64104
 N349 N 0.70351 0.19810 0.66397
 C350 C 0.69321 0.21915 0.68649
 N351 N 0.66136 0.23031 0.68546
 N352 N 0.64068 0.22099 0.66263
 C353 C 0.70398 0.13238 0.89216
 N354 N 0.69425 0.14751 0.91859
 N355 N 0.68994 0.12965 0.94453
 C356 C 0.69496 0.09586 0.94515
 N357 N 0.70440 0.08076 0.91847
 N358 N 0.70904 0.09868 0.89256
 C359 C 0.71022 0.15255 0.86409
 N360 N 0.72808 0.14005 0.84024
 N361 N 0.73570 0.15933 0.81570
 C362 C 0.72539 0.19164 0.81402
 N363 N 0.70708 0.20392 0.83765
 N364 N 0.69973 0.18476 0.86228
 C365 C 0.18453 0.61771 0.38596
 N366 N 0.17126 0.63219 0.41136
 N367 N 0.16760 0.61479 0.43766
 C368 C 0.17679 0.58211 0.43957
 N369 N 0.18936 0.56740 0.41391
 N370 N 0.19326 0.58489 0.38764
 C371 C 0.19214 0.63822 0.35822
 N372 N 0.21250 0.62659 0.33574
 N373 N 0.22212 0.64651 0.31218
 C374 C 0.21157 0.67872 0.31017
 N375 N 0.19076 0.69013 0.33237
 N376 N 0.18132 0.67030 0.35600
 C377 C 0.29545 0.86997 0.89102
 N378 N 0.30526 0.85443 0.91738
 N379 N 0.30909 0.87175 0.94347
 C380 C 0.30352 0.90541 0.94429
 N381 N 0.29394 0.92095 0.91768
 N382 N 0.28975 0.90354 0.89162
 C383 C 0.29013 0.85029 0.86275
 N384 N 0.27201 0.86258 0.83882
 N385 N 0.26542 0.84357 0.81409
 C386 C 0.27706 0.81178 0.81232
 N387 N 0.29559 0.79976 0.83604
 N388 N 0.30191 0.81862 0.86084
 C389 C 0.79962 0.37978 0.38936
 N390 N 0.81536 0.36603 0.41401
 N391 N 0.81997 0.38359 0.43989
 C392 C 0.80913 0.41565 0.44219
 N393 N 0.79366 0.42953 0.41736
 N394 N 0.78886 0.41188 0.39148
 C395 C 0.79307 0.35948 0.36153
 N396 N 0.77252 0.37058 0.33883
 N397 N 0.76485 0.35102 0.31470
 C398 C 0.77765 0.31975 0.31230
 N399 N 0.79856 0.30889 0.33478
 N400 N 0.80609 0.32836 0.35894
 C401 C 0.12877 0.28837 0.89625
 N402 N 0.09650 0.27672 0.89816
 N403 N 0.07894 0.28056 0.92405
 C404 C 0.09312 0.29585 0.94909
 N405 N 0.12543 0.30744 0.94708
 N406 N 0.14290 0.30383 0.92115
 C407 C 0.14857 0.28343 0.86820
 N408 N 0.13721 0.26249 0.84553
 N409 N 0.15621 0.25656 0.82091
 C410 C 0.18709 0.27161 0.81802
 N411 N 0.19821 0.29289 0.84049
 N412 N 0.17933 0.29865 0.86516
 C413 C 0.62914 0.81300 0.38686
 N414 N 0.64273 0.82723 0.41261
 N415 N 0.62443 0.83049 0.43814
 C416 C 0.59170 0.81996 0.43890
 N417 N 0.57791 0.80641 0.41287
 N418 N 0.59629 0.80290 0.38738
 C419 C 0.65044 0.80615 0.35992
 N420 N 0.63940 0.78500 0.33726
 N421 N 0.65973 0.77647 0.31430
 C422 C 0.69181 0.78891 0.31304
 N423 N 0.70269 0.81044 0.33544
 N424 N 0.68243 0.81879 0.35851
 C425 C 0.86957 0.70693 0.89074
 N426 N 0.85608 0.69194 0.91633
 N427 N 0.87429 0.68858 0.94190
 C428 C 0.90672 0.69996 0.94285
 N429 N 0.92030 0.71467 0.91708
 N430 N 0.90202 0.71824 0.89155
 C431 C 0.84881 0.71228 0.86330
 N432 N 0.85984 0.73288 0.84000
 N433 N 0.83996 0.73961 0.81613
 C434 C 0.80846 0.72577 0.81461
 N435 N 0.79762 0.70478 0.83768
 N436 N 0.81742 0.69821 0.86163
 C437 C 0.37386 0.18337 0.39124
 N438 N 0.35949 0.17000 0.41719
 N439 N 0.37712 0.16724 0.44321
 C440 C 0.40993 0.17745 0.44428
 N441 N 0.42448 0.19013 0.41807
 N442 N 0.40677 0.19314 0.39209
 C443 C 0.35328 0.18988 0.36369
 N444 N 0.36509 0.21043 0.34063
 N445 N 0.34532 0.21896 0.31715
 C446 C 0.31306 0.20707 0.31575
 N447 N 0.30144 0.18607 0.33854
 N448 N 0.32114 0.17773 0.36211
 C449 C 0.68584 0.87712 0.88814
 N450 N 0.67252 0.86238 0.91396
 N451 N 0.66943 0.87996 0.93991
 C452 C 0.67924 0.91305 0.94102
 N453 N 0.69184 0.92798 0.91494
 N454 N 0.69518 0.91033 0.88902
 C455 C 0.69281 0.85662 0.86078
 N456 N 0.71328 0.86884 0.83795
 N457 N 0.72221 0.84912 0.81466
 C458 C 0.71084 0.81651 0.81328
 N459 N 0.68995 0.80448 0.83584
 N460 N 0.68120 0.82413 0.85920
 C461 C 0.20046 0.36269 0.39484
 N462 N 0.18473 0.34861 0.41979
 N463 N 0.18013 0.36657 0.44527
 C464 C 0.19097 0.39933 0.44677
 N465 N 0.20648 0.41347 0.42165
 N466 N 0.21127 0.39544 0.39621
 C467 C 0.20681 0.34233 0.36738
 N468 N 0.22759 0.35416 0.34465
 N469 N 0.23486 0.33480 0.32062
 C470 C 0.22141 0.30303 0.31838
 N471 N 0.20030 0.29139 0.34092
 N472 N 0.19319 0.31066 0.36501
 C473 C 0.31215 0.12505 0.89033
 N474 N 0.31861 0.14061 0.91761
 N475 N 0.32136 0.12272 0.94360
 C476 C 0.31811 0.08846 0.94346
 N477 N 0.31260 0.07288 0.91586
 N478 N 0.30942 0.09082 0.88987
 C479 C 0.30528 0.14530 0.86258
 N480 N 0.28758 0.13183 0.83858
 N481 N 0.27817 0.15124 0.81500
 C482 C 0.28638 0.18476 0.81446
 N483 N 0.30462 0.19805 0.83817
 N484 N 0.31374 0.17873 0.86185
 C485 C 0.81583 0.63598 0.39002
 N486 N 0.82799 0.65082 0.41608
 N487 N 0.83131 0.63294 0.44203
 C488 C 0.82289 0.59948 0.44284
 N489 N 0.81144 0.58454 0.41653
 N490 N 0.80786 0.60246 0.39064
 C491 C 0.80849 0.65646 0.36261
 N492 N 0.78845 0.64380 0.33983
 N493 N 0.77914 0.66334 0.31635
 C494 C 0.78971 0.69618 0.31474
 N495 N 0.81018 0.70868 0.33725
 N496 N 0.81928 0.68922 0.36085
 C497 C 0.12418 0.68772 0.88494
 N498 N 0.09057 0.69229 0.88510
 N499 N 0.07307 0.68927 0.91134
 C500 C 0.08854 0.68207 0.93857
 N501 N 0.12210 0.67696 0.93805
 N502 N 0.13949 0.67955 0.91183
 C503 C 0.14445 0.69433 0.85699
 N504 N 0.17677 0.68463 0.85594
 N505 N 0.19647 0.69346 0.83219
 C506 C 0.18472 0.71263 0.80867
 N507 N 0.15227 0.72209 0.80951
 N508 N 0.13245 0.71298 0.83318
 C509 C 0.62567 0.20411 0.39268
 N510 N 0.59385 0.21495 0.39514
 N511 N 0.57691 0.21086 0.42151
 C512 C 0.59125 0.19610 0.44648
 N513 N 0.62309 0.18526 0.44391
 N514 N 0.63996 0.18914 0.41750
 C515 C 0.64498 0.20984 0.36424
 N516 N 0.67559 0.19629 0.36102
 N517 N 0.69428 0.20328 0.33618
 C518 C 0.68307 0.22414 0.31368
 N519 N 0.65228 0.23743 0.31670
 N520 N 0.63349 0.23028 0.34151
 C521 C 0.87913 0.31225 0.88965
 N522 N 0.91265 0.30729 0.89057
 N523 N 0.92957 0.31047 0.91706
 C524 C 0.91360 0.31826 0.94382
 N525 N 0.88012 0.32371 0.94255
 N526 N 0.86331 0.32095 0.91605
 C527 C 0.85949 0.30578 0.86140
 N528 N 0.82751 0.31634 0.85936
 N529 N 0.80835 0.30793 0.83523
 C530 C 0.82029 0.28833 0.81233
 N531 N 0.85240 0.27796 0.81418
 N532 N 0.87170 0.28666 0.83822
 C533 C 0.37170 0.79463 0.38942
 N534 N 0.40358 0.78380 0.39143
 N535 N 0.42148 0.78888 0.41708
 C536 C 0.40805 0.80470 0.44176
 N537 N 0.37618 0.81559 0.43961
 N538 N 0.35837 0.81070 0.41392
 C539 C 0.35132 0.78784 0.36186
 N540 N 0.32062 0.80135 0.35900
 N541 N 0.30114 0.79376 0.33489
 C542 C 0.31161 0.77226 0.31284
 N543 N 0.34243 0.75892 0.31555
 N544 N 0.36200 0.76667 0.33960
 C545 C 0.31225 0.86833 0.11048
 N546 N 0.30411 0.90135 0.10984
 N547 N 0.30738 0.91948 0.08389
 C548 C 0.31872 0.90527 0.05749
 N549 N 0.32735 0.87237 0.05833
 N550 N 0.32431 0.85430 0.08433
 C551 C 0.30513 0.84728 0.13797
 N552 N 0.31548 0.81497 0.13938
 N553 N 0.30635 0.79481 0.16289
 C554 C 0.28631 0.80612 0.18575
 N555 N 0.27624 0.83853 0.18452
 N556 N 0.28556 0.85877 0.16111
 C557 C 0.81804 0.37848 0.60947
 N558 N 0.81008 0.41153 0.60901
 N559 N 0.81328 0.42971 0.58311
 C560 C 0.82433 0.41550 0.55662
 N561 N 0.83277 0.38254 0.55727
 N562 N 0.82982 0.36442 0.58323
 C563 C 0.81097 0.35749 0.63690
 N564 N 0.82147 0.32526 0.63836
 N565 N 0.81247 0.30517 0.66194
 C566 C 0.79240 0.31650 0.68476
 N567 N 0.78215 0.34883 0.68346
 N568 N 0.79136 0.36899 0.65999
 C569 C 0.68618 0.12989 0.11124
 N570 N 0.69530 0.09718 0.11043
 N571 N 0.69207 0.07934 0.08450
 C572 C 0.67981 0.09360 0.05832
 N573 N 0.67022 0.12618 0.05936
 N574 N 0.67320 0.14392 0.08533
 C575 C 0.69301 0.15077 0.13866
 N576 N 0.68154 0.18262 0.14016
 N577 N 0.69018 0.20275 0.16359
 C578 C 0.71082 0.19187 0.18630
 N579 N 0.72204 0.15989 0.18498
 N580 N 0.71322 0.13967 0.16163
 C581 C 0.19833 0.62441 0.60581
 N582 N 0.20899 0.59223 0.60483
 N583 N 0.20448 0.57370 0.57948
 C584 C 0.18941 0.58675 0.55407
 N585 N 0.17869 0.61893 0.55519
 N586 N 0.18301 0.63738 0.58058
 C587 C 0.20455 0.64543 0.63312
 N588 N 0.19132 0.67650 0.63502
 N589 N 0.19842 0.69644 0.65896
 C590 C 0.21912 0.68606 0.68180
 N591 N 0.23216 0.65488 0.68004
 N592 N 0.22490 0.63486 0.65617
 C593 C 0.87600 0.69891 0.11101
 N594 N 0.86099 0.68452 0.08598
 N595 N 0.87797 0.68065 0.05977
 C596 C 0.91075 0.69067 0.05762
 N597 N 0.92596 0.70444 0.08290
 N598 N 0.90888 0.70860 0.10906
 C599 C 0.85613 0.70611 0.13875
 N600 N 0.86810 0.72775 0.16066
 N601 N 0.84884 0.73648 0.18436
 C602 C 0.81699 0.72371 0.18710
 N603 N 0.80525 0.70171 0.16544
 N604 N 0.82440 0.69318 0.14167
 C605 C 0.37134 0.19958 0.61082
 N606 N 0.35794 0.18277 0.58633
 N607 N 0.37580 0.17872 0.56070
 C608 C 0.40780 0.19121 0.55860
 N609 N 0.42130 0.20775 0.58329
 N610 N 0.40335 0.21199 0.60888
 C611 C 0.35089 0.20544 0.63830
 N612 N 0.36166 0.22726 0.66050
 N613 N 0.34204 0.23410 0.68447
 C614 C 0.31109 0.21917 0.68713
 N615 N 0.30053 0.19703 0.66513
 N616 N 0.32005 0.19034 0.64111
 C617 C 0.12683 0.30188 0.11635
 N618 N 0.09379 0.29257 0.11536
 N619 N 0.07613 0.29630 0.08942
 C620 C 0.09089 0.30925 0.06342
 N621 N 0.12381 0.31899 0.06464
 N622 N 0.14137 0.31553 0.09060
 C623 C 0.14737 0.29471 0.14377
 N624 N 0.17955 0.30670 0.14546
 N625 N 0.19928 0.29786 0.16883
 C626 C 0.18766 0.27648 0.19132
 N627 N 0.15536 0.26472 0.18982
 N628 N 0.13555 0.27375 0.16652
 C629 C 0.62614 0.80146 0.60723
 N630 N 0.59410 0.78930 0.60489
 N631 N 0.57708 0.79279 0.57863
 C632 C 0.59156 0.80825 0.55364
 N633 N 0.62363 0.82042 0.55609
 N634 N 0.64058 0.81713 0.58239
 C635 C 0.64551 0.79639 0.63555
 N636 N 0.67639 0.81125 0.63868
 N637 N 0.69507 0.80495 0.66343
 C638 C 0.68360 0.78349 0.68589
 N639 N 0.65257 0.76888 0.68294
 N640 N 0.63378 0.77534 0.65824
   
