data_POSCAR
  _audit_creation_date              2014-09-24
  _audit_creation_method            'ToBaCCo'
  _symmetry_space_group_name_H-M    'P1'
  _symmetry_Int_Tables_number       1
  _symmetry_cell_setting            triclinic
  loop_
  _symmetry_equiv_pos_as_xyz
 x,y,z
_cell_length_a 72.1195
_cell_length_b 40.4660
_cell_length_c 22.9073
_cell_angle_alpha 90.030200
_cell_angle_beta 90.090000
_cell_angle_gamma 90.058100
loop_
  _atom_site_label
  _atom_site_type_symbol
  _atom_site_fract_x
  _atom_site_fract_y
  _atom_site_fract_z
C1 C 0.74942 0.24989 0.47187
 C2 C 0.74922 0.25032 0.53134
 C3 C 0.73414 0.26680 0.56444
 C4 C 0.76410 0.23416 0.56573
 C5 C 0.76554 0.23686 0.43905
 C6 C 0.73355 0.26240 0.43717
 C7 C 0.72970 0.29993 0.55420
 C8 C 0.71493 0.31485 0.58338
 C9 C 0.70405 0.29716 0.62454
 C10 C 0.70931 0.26392 0.63569
 C11 C 0.72409 0.24916 0.60620
 C12 C 0.77479 0.25275 0.60498
 C13 C 0.78961 0.23814 0.63466
 C14 C 0.79387 0.20458 0.62599
 C15 C 0.78267 0.18578 0.58814
 C16 C 0.76791 0.20043 0.55839
 C17 C 0.76328 0.20993 0.40115
 C18 C 0.77860 0.19631 0.37267
 C19 C 0.79639 0.20976 0.38091
 C20 C 0.79852 0.23735 0.41761
 C21 C 0.78323 0.25076 0.44649
 C22 C 0.71575 0.24894 0.44437
 C23 C 0.70068 0.26205 0.41384
 C24 C 0.70316 0.28889 0.37571
 C25 C 0.72107 0.30179 0.36757
 C26 C 0.73616 0.28846 0.39772
 H27 H 0.73774 0.31435 0.52344
 H28 H 0.71284 0.34080 0.57470
 H29 H 0.70152 0.24798 0.66438
 H30 H 0.72731 0.22346 0.61468
 H31 H 0.77200 0.27881 0.61124
 H32 H 0.79806 0.25338 0.66305
 H33 H 0.75956 0.18556 0.52906
 H34 H 0.74971 0.19900 0.39475
 H35 H 0.77655 0.17529 0.34409
 H36 H 0.81209 0.24807 0.42498
 H37 H 0.78519 0.27176 0.47521
 H38 H 0.71353 0.22859 0.47425
 H39 H 0.68701 0.25178 0.42114
 H40 H 0.72337 0.32222 0.33792
 H41 H 0.74982 0.29903 0.39146
 H42 H 0.78533 0.15973 0.58146
 C43 C 0.25039 0.75214 0.47072
 C44 C 0.24947 0.75044 0.53011
 C45 C 0.23410 0.76622 0.56283
 C46 C 0.26383 0.73302 0.56488
 C47 C 0.26692 0.74041 0.43800
 C48 C 0.23467 0.76534 0.43598
 C49 C 0.23040 0.80005 0.55629
 C50 C 0.21541 0.81448 0.58510
 C51 C 0.20386 0.79537 0.62126
 C52 C 0.20794 0.76166 0.62896
 C53 C 0.22299 0.74727 0.60020
 C54 C 0.27364 0.75004 0.60841
 C55 C 0.28818 0.73464 0.63815
 C56 C 0.29305 0.70177 0.62535
 C57 C 0.28265 0.68438 0.58332
 C58 C 0.26816 0.69984 0.55348
 C59 C 0.26478 0.71806 0.39160
 C60 C 0.28031 0.70530 0.36298
 C61 C 0.29825 0.71465 0.38038
 C62 C 0.30036 0.73788 0.42548
 C63 C 0.28483 0.75096 0.45352
 C64 C 0.21701 0.75091 0.44001
 C65 C 0.20207 0.76427 0.40922
 C66 C 0.20452 0.79232 0.37391
 C67 C 0.22230 0.80631 0.36904
 C68 C 0.23729 0.79275 0.39947
 H69 H 0.23907 0.81521 0.52852
 H70 H 0.21288 0.84063 0.57921
 H71 H 0.19923 0.74620 0.65604
 H72 H 0.22568 0.72113 0.60587
 H73 H 0.27046 0.77565 0.61785
 H74 H 0.29601 0.74884 0.66981
 H75 H 0.26050 0.68612 0.52075
 H76 H 0.25109 0.70976 0.37864
 H77 H 0.27832 0.68736 0.32843
 H78 H 0.31404 0.74592 0.43898
 H79 H 0.28680 0.76892 0.48804
 H80 H 0.21480 0.72952 0.46754
 H81 H 0.18850 0.75313 0.41406
 H82 H 0.22460 0.82771 0.34160
 H83 H 0.25085 0.80406 0.39564
 H84 H 0.28577 0.65883 0.57331
 C85 C 0.24974 0.24839 -0.47049
 C86 C 0.25089 0.24611 -0.52980
 C87 C 0.26755 0.25749 -0.56248
 C88 C 0.23516 0.23294 -0.56451
 C89 C 0.23418 0.23299 -0.43786
 C90 C 0.26393 0.26624 -0.43570
 C91 C 0.26554 0.27841 -0.61080
 C92 C 0.28111 0.29078 -0.63978
 C93 C 0.29923 0.28281 -0.62082
 C94 C 0.30103 0.26071 -0.57338
 C95 C 0.28542 0.24790 -0.54533
 C96 C 0.21784 0.24850 -0.56276
 C97 C 0.20279 0.23533 -0.59331
 C98 C 0.20460 0.20592 -0.62620
 C99 C 0.22229 0.19087 -0.62835
 C100 C 0.23738 0.20445 -0.59838
 C101 C 0.23023 0.19930 -0.44419
 C102 C 0.21518 0.18514 -0.41523
 C103 C 0.20364 0.20427 -0.37848
 C104 C 0.20821 0.23805 -0.37114
 C105 C 0.22328 0.25210 -0.40034
 C106 C 0.27356 0.24972 -0.39127
 C107 C 0.28796 0.26552 -0.36137
 C108 C 0.29283 0.29830 -0.37492
 C109 C 0.28259 0.31521 -0.41785
 C110 C 0.26825 0.29934 -0.44787
 H111 H 0.25187 0.28606 -0.62506
 H112 H 0.27874 0.30813 -0.67488
 H113 H 0.31447 0.25229 -0.55866
 H114 H 0.28733 0.23068 -0.50966
 H115 H 0.21592 0.27064 -0.53686
 H116 H 0.18955 0.24752 -0.58826
 H117 H 0.25075 0.19235 -0.60066
 H118 H 0.23886 0.18388 -0.47162
 H119 H 0.21314 0.15885 -0.42057
 H120 H 0.19973 0.25443 -0.34522
 H121 H 0.22614 0.27821 -0.39491
 H122 H 0.27037 0.22419 -0.38122
 H123 H 0.29567 0.25168 -0.32901
 H124 H 0.28572 0.34067 -0.42845
 H125 H 0.26072 0.31266 -0.48133
 H126 H 0.22479 0.16911 -0.65459
 C127 C -0.25039 0.74887 -0.47074
 C128 C -0.24940 0.74666 -0.53009
 C129 C -0.23279 0.75794 -0.56305
 C130 C -0.26521 0.73350 -0.56452
 C131 C -0.26583 0.73335 -0.43783
 C132 C -0.23607 0.76659 -0.43617
 C133 C -0.23484 0.77903 -0.61111
 C134 C -0.21928 0.79137 -0.64021
 C135 C -0.20116 0.78318 -0.62161
 C136 C -0.19933 0.76087 -0.57452
 C137 C -0.21492 0.74809 -0.54635
 C138 C -0.28257 0.74891 -0.56216
 C139 C -0.29766 0.73578 -0.59262
 C140 C -0.29585 0.70656 -0.62603
 C141 C -0.27813 0.69165 -0.62875
 C142 C -0.26301 0.70518 -0.59886
 C143 C -0.26971 0.69963 -0.44419
 C144 C -0.28470 0.68535 -0.41513
 C145 C -0.29625 0.70438 -0.37825
 C146 C -0.29173 0.73818 -0.37080
 C147 C -0.27672 0.75235 -0.40012
 C148 C -0.22642 0.74998 -0.39188
 C149 C -0.21194 0.76565 -0.36213
 C150 C -0.20700 0.79841 -0.37568
 C151 C -0.21724 0.81539 -0.41852
 C152 C -0.23166 0.79965 -0.44838
 H153 H -0.24851 0.78685 -0.62501
 H154 H -0.22166 0.80888 -0.67506
 H155 H -0.18588 0.75227 -0.56013
 H156 H -0.21300 0.73073 -0.51090
 H157 H -0.28448 0.77092 -0.53591
 H158 H -0.31090 0.74786 -0.58713
 H159 H -0.24961 0.69319 -0.60164
 H160 H -0.26108 0.68430 -0.47179
 H161 H -0.28669 0.65905 -0.42052
 H162 H -0.30023 0.75448 -0.34476
 H163 H -0.27391 0.77848 -0.39464
 H164 H -0.22966 0.72447 -0.38180
 H165 H -0.20424 0.75175 -0.32985
 H166 H -0.21406 0.84084 -0.42913
 H167 H -0.23920 0.81306 -0.48173
 H168 H -0.27562 0.67005 -0.65540
 N169 N -0.01980 0.96402 0.10471
 N170 N -0.03375 0.95960 0.14117
 N171 N 0.01898 0.94112 0.06303
 N172 N 0.03328 0.92106 0.06904
 N173 N 0.01922 0.96403 0.10363
 N174 N 0.03371 0.96024 0.13822
 N175 N -0.02007 0.94149 0.06346
 N176 N -0.03426 0.92128 0.07046
 C177 C -0.04266 0.93284 0.11917
 C178 C 0.04233 0.93327 0.11623
 N179 N 0.01872 0.96494 -0.10272
 N180 N 0.03292 0.96130 -0.13837
 N181 N -0.02036 0.94209 -0.06212
 N182 N -0.03488 0.92253 -0.06871
 N183 N -0.02026 0.96518 -0.10234
 N184 N -0.03466 0.96192 -0.13745
 N185 N 0.01875 0.94177 -0.06264
 N186 N 0.03301 0.92177 -0.06985
 Mn187 Mn -0.00068 0.94119 0.00042
 C188 C 0.04171 0.93423 -0.11739
 C189 C -0.04365 0.93517 -0.11606
 N190 N 0.01935 1.03514 0.10468
 N191 N 0.03387 1.03856 0.13936
 N192 N -0.01978 1.05844 0.06551
 N193 N -0.03388 1.07874 0.07321
 N194 N -0.01976 1.03524 0.10557
 N195 N -0.03392 1.03905 0.14143
 N196 N 0.01918 1.05840 0.06476
 N197 N 0.03350 1.07839 0.07139
 Mn198 Mn -0.00025 0.99962 0.10540
 C199 C 0.04253 1.06573 0.11816
 C200 C -0.04258 1.06635 0.12077
 N201 N -0.02010 1.03620 -0.10118
 N202 N -0.03441 1.04003 -0.13641
 N203 N 0.01898 1.05891 -0.06092
 N204 N 0.03329 1.07891 -0.06775
 N205 N 0.01887 1.03604 -0.10158
 N206 N 0.03307 1.03985 -0.13717
 N207 N -0.02011 1.05894 -0.06029
 N208 N -0.03448 1.07883 -0.06656
 Mn209 Mn -0.00068 1.00060 -0.10263
 Mn210 Mn -0.00044 1.05910 0.00227
 Cl211 Cl -0.00052 1.00012 0.00140
 C212 C -0.04326 1.06675 -0.11439
 C213 C 0.04195 1.06673 -0.11562
 N214 N 0.51893 0.55853 -0.06286
 N215 N 0.53323 0.57857 -0.06959
 N216 N 0.47994 0.53546 -0.10327
 N217 N 0.46558 0.53897 -0.13842
 N218 N 0.47983 0.55823 -0.06245
 N219 N 0.46533 0.57783 -0.06869
 N220 N 0.51892 0.53556 -0.10335
 N221 N 0.53317 0.53936 -0.13874
 C222 C 0.54197 0.56632 -0.11724
 C223 C 0.45659 0.56555 -0.11645
 N224 N 0.47981 0.44152 -0.06344
 N225 N 0.46525 0.42202 -0.06978
 N226 N 0.51892 0.46446 -0.10396
 N227 N 0.53326 0.46100 -0.13911
 N228 N 0.51891 0.44131 -0.06384
 N229 N 0.53328 0.42148 -0.07060
 N230 N 0.47994 0.46448 -0.10388
 N231 N 0.46552 0.46120 -0.13889
 Mn232 Mn 0.49945 0.49999 -0.10429
 C233 C 0.45649 0.43456 -0.11722
 C234 C 0.54209 0.43403 -0.11788
 N235 N 0.48010 0.55793 0.06326
 N236 N 0.46594 0.57810 0.07073
 N237 N 0.51937 0.53506 0.10278
 N238 N 0.53387 0.53867 0.13749
 N239 N 0.51911 0.55829 0.06281
 N240 N 0.53337 0.57844 0.06943
 N241 N 0.48032 0.53509 0.10394
 N242 N 0.46635 0.53921 0.14038
 Mn243 Mn 0.49948 0.55867 0.00019
 C244 C 0.45748 0.56615 0.11907
 C245 C 0.54244 0.56592 0.11625
 N246 N 0.51907 0.44091 0.06180
 N247 N 0.53322 0.42059 0.06838
 N248 N 0.48030 0.46380 0.10337
 N249 N 0.46641 0.45933 0.14000
 N250 N 0.48004 0.44121 0.06222
 N251 N 0.46591 0.42090 0.06948
 N252 N 0.51932 0.46391 0.10222
 N253 N 0.53369 0.45995 0.13726
 Mn254 Mn 0.49944 0.44081 -0.00083
 Mn255 Mn 0.49984 0.49947 0.10383
 Cl256 Cl 0.49955 0.49974 -0.00024
 C257 C 0.54222 0.43276 0.11568
 C258 C 0.45753 0.43248 0.11824
 C259 C 0.34657 0.32677 0.29933
 C260 C 0.34708 0.31691 0.35799
 C261 C 0.33168 0.30197 0.38390
 C262 C 0.31509 0.29696 0.35217
 C263 C 0.31473 0.30705 0.29312
 C264 C 0.33029 0.32142 0.26705
 C265 C 0.36289 0.34274 0.27213
 N266 N 0.36480 0.34363 0.21317
 N267 N 0.37952 0.35795 0.18879
 C268 C 0.39287 0.37220 0.22235
 N269 N 0.39091 0.37142 0.28130
 N270 N 0.37626 0.35690 0.30568
 C271 C 0.40926 0.38804 0.19534
 C272 C 0.41999 0.41089 0.22701
 C273 C 0.43554 0.42569 0.20165
 C274 C 0.44084 0.41751 0.14451
 C275 C 0.43015 0.39468 0.11281
 C276 C 0.41442 0.38029 0.13780
 H277 H 0.35943 0.32073 0.38409
 H278 H 0.33268 0.29588 0.42977
 H279 H 0.30270 0.30286 0.26586
 H280 H 0.32949 0.32864 0.22160
 H281 H 0.41631 0.41751 0.27130
 H282 H 0.44355 0.44322 0.22704
 H283 H 0.43389 0.38805 0.06856
 H284 H 0.40646 0.36271 0.11234
 C285 C -0.15385 0.82731 0.29881
 C286 C -0.17015 0.82216 0.26656
 C287 C -0.18570 0.80772 0.29254
 C288 C -0.18531 0.79738 0.35144
 C289 C -0.16869 0.80219 0.38313
 C290 C -0.15330 0.81719 0.35733
 C291 C -0.13753 0.84334 0.27177
 N292 N -0.12416 0.85740 0.30546
 N293 N -0.10950 0.87195 0.28123
 C294 C -0.10753 0.87286 0.22231
 N295 N -0.12087 0.85872 0.18859
 N296 N -0.13561 0.84438 0.21282
 C297 C -0.09111 0.88868 0.19549
 C298 C -0.08589 0.88092 0.13801
 C299 C -0.07010 0.89524 0.11326
 C300 C -0.05942 0.91799 0.14515
 C301 C -0.06479 0.92620 0.20221
 C302 C -0.08039 0.91147 0.22733
 H303 H -0.17097 0.82959 0.22122
 H304 H -0.19776 0.80370 0.26532
 H305 H -0.16767 0.79590 0.42891
 H306 H -0.14092 0.82086 0.38340
 H307 H -0.09383 0.86339 0.11244
 H308 H -0.06630 0.88860 0.06906
 H309 H -0.05678 0.94368 0.22773
 H310 H -0.08413 0.91810 0.27158
 C311 C 0.65707 0.66396 0.28967
 C312 C 0.65811 0.69817 0.29905
 C313 C 0.67354 0.71218 0.32654
 C314 C 0.68862 0.69244 0.34486
 C315 C 0.68758 0.65808 0.33406
 C316 C 0.67198 0.64409 0.30737
 C317 C 0.64041 0.64907 0.26227
 N318 N 0.63705 0.61612 0.26656
 N319 N 0.62188 0.60286 0.24295
 C320 C 0.60947 0.62197 0.21376
 N321 N 0.61288 0.65488 0.20919
 N322 N 0.62800 0.66816 0.23308
 C323 C 0.59247 0.60734 0.18810
 C324 C 0.58203 0.62496 0.14663
 C325 C 0.56587 0.61134 0.12288
 C326 C 0.55968 0.58003 0.14068
 C327 C 0.57008 0.56237 0.18207
 C328 C 0.58637 0.57579 0.20528
 H329 H 0.64688 0.71422 0.28562
 H330 H 0.67375 0.73876 0.33135
 H331 H 0.69835 0.64142 0.34861
 H332 H 0.67161 0.61760 0.30082
 H333 H 0.58639 0.64924 0.13226
 H334 H 0.55813 0.62547 0.09098
 H335 H 0.56566 0.53810 0.19637
 H336 H 0.59407 0.56162 0.23724
 C337 C 0.15752 1.16318 0.28988
 C338 C 0.15865 1.19744 0.29850
 C339 C 0.17409 1.21150 0.32580
 C340 C 0.18909 1.19174 0.34472
 C341 C 0.18797 1.15733 0.33462
 C342 C 0.17236 1.14330 0.30811
 C343 C 0.14083 1.14829 0.26275
 N344 N 0.13736 1.11540 0.26766
 N345 N 0.12213 1.10217 0.24432
 C346 C 0.10979 1.12125 0.21481
 N347 N 0.11331 1.15410 0.20962
 N348 N 0.12848 1.16735 0.23324
 C349 C 0.09273 1.10671 0.18942
 C350 C 0.08233 1.12433 0.14787
 C351 C 0.06612 1.11084 0.12436
 C352 C 0.05982 1.07966 0.14248
 C353 C 0.07018 1.06198 0.18394
 C354 C 0.08654 1.07528 0.20693
 H355 H 0.14748 1.21351 0.28463
 H356 H 0.17438 1.23811 0.33003
 H357 H 0.19868 1.14068 0.34964
 H358 H 0.17191 1.11676 0.30213
 H359 H 0.08677 1.14851 0.13324
 H360 H 0.05841 1.12498 0.09239
 H361 H 0.06567 1.03780 0.19846
 H362 H 0.09420 1.06111 0.23897
 C363 C 0.65727 0.34007 -0.29371
 C364 C 0.66472 0.35384 -0.34466
 C365 C 0.68025 0.33992 -0.37142
 C366 C 0.68905 0.31140 -0.34831
 C367 C 0.68141 0.29809 -0.29628
 C368 C 0.66587 0.31216 -0.26971
 C369 C 0.64050 0.35451 -0.26629
 N370 N 0.63286 0.34061 -0.21798
 N371 N 0.61763 0.35330 -0.19398
 C372 C 0.60938 0.38045 -0.21726
 N373 N 0.61706 0.39439 -0.26544
 N374 N 0.63228 0.38170 -0.28943
 C375 C 0.59227 0.39436 -0.19116
 C376 C 0.58384 0.42248 -0.21557
 C377 C 0.56757 0.43536 -0.19163
 C378 C 0.55936 0.42042 -0.14277
 C379 C 0.56779 0.39247 -0.11803
 C380 C 0.58408 0.37956 -0.14197
 H381 H 0.65835 0.37523 -0.36476
 H382 H 0.68441 0.35096 -0.41224
 H383 H 0.68768 0.27758 -0.27352
 H384 H 0.66065 0.30112 -0.22992
 H385 H 0.58975 0.43456 -0.25337
 H386 H 0.56141 0.45701 -0.21151
 H387 H 0.56178 0.38052 -0.08023
 H388 H 0.59019 0.35791 -0.12199
 C389 C 0.15582 0.83856 -0.29676
 C390 C 0.16679 0.81546 -0.26659
 C391 C 0.18243 0.80160 -0.29296
 C392 C 0.18743 0.81043 -0.35015
 C393 C 0.17647 0.83354 -0.38026
 C394 C 0.16089 0.84749 -0.35385
 C395 C 0.13913 0.85310 -0.26917
 N396 N 0.12950 0.87750 -0.29632
 N397 N 0.11441 0.89042 -0.27192
 C398 C 0.10827 0.87948 -0.21934
 N399 N 0.11791 0.85509 -0.19213
 N400 N 0.13303 0.84221 -0.21650
 C401 C 0.09134 0.89368 -0.19264
 C402 C 0.08388 0.88021 -0.14117
 C403 C 0.06775 0.89337 -0.11665
 C404 C 0.05880 0.92033 -0.14295
 C405 C 0.06630 0.93399 -0.19404
 C406 C 0.08237 0.92077 -0.21870
 H407 H 0.16335 0.80814 -0.22246
 H408 H 0.19072 0.78420 -0.26831
 H409 H 0.17975 0.84046 -0.42472
 H410 H 0.15271 0.86505 -0.37853
 H411 H 0.09042 0.85934 -0.11995
 H412 H 0.06229 0.88243 -0.07710
 H413 H 0.05972 0.95484 -0.21518
 H414 H 0.08775 0.93184 -0.25823
 C415 C 0.34093 0.65788 -0.29243
 C416 C 0.33684 0.65153 -0.35141
 C417 C 0.32125 0.66555 -0.37781
 C418 C 0.30928 0.68608 -0.34580
 C419 C 0.31324 0.69214 -0.28664
 C420 C 0.32891 0.67826 -0.26028
 C421 C 0.35776 0.64364 -0.26503
 N422 N 0.36328 0.65321 -0.21086
 N423 N 0.37860 0.64078 -0.18682
 C424 C 0.38902 0.61818 -0.21588
 N425 N 0.38344 0.60853 -0.26993
 N426 N 0.36817 0.62102 -0.29401
 C427 C 0.40619 0.60453 -0.18967
 C428 C 0.41568 0.57851 -0.21722
 C429 C 0.43198 0.56582 -0.19317
 C430 C 0.43925 0.57898 -0.14124
 C431 C 0.42980 0.60488 -0.11343
 C432 C 0.41340 0.61748 -0.13732
 H433 H 0.34584 0.63612 -0.37760
 H434 H 0.31881 0.66085 -0.42372
 H435 H 0.30417 0.70748 -0.26055
 H436 H 0.33158 0.68349 -0.21468
 H437 H 0.41051 0.56784 -0.25743
 H438 H 0.43895 0.54578 -0.21549
 H439 H 0.43507 0.61540 -0.07319
 H440 H 0.40646 0.63754 -0.11498
 C441 C -0.15809 1.16148 -0.29151
 C442 C -0.16934 1.18392 -0.26088
 C443 C -0.18501 1.19771 -0.28736
 C444 C -0.18975 1.18944 -0.34511
 C445 C -0.17852 1.16696 -0.37562
 C446 C -0.16292 1.15308 -0.34912
 C447 C -0.14134 1.14707 -0.26396
 N448 N -0.13152 1.12313 -0.29163
 N449 N -0.11635 1.11036 -0.26740
 C450 C -0.11030 1.12102 -0.21448
 N451 N -0.12011 1.14496 -0.18671
 N452 N -0.13533 1.15769 -0.21091
 C453 C -0.09326 1.10698 -0.18809
 C454 C -0.08578 1.12023 -0.13635
 C455 C -0.06952 1.10720 -0.11227
 C456 C -0.06047 1.08059 -0.13932
 C457 C -0.06800 1.06717 -0.19066
 C458 C -0.08418 1.08025 -0.21485
 H459 H -0.16608 1.19081 -0.21635
 H460 H -0.19350 1.21463 -0.26243
 H461 H -0.18159 1.16052 -0.42050
 H462 H -0.15453 1.13604 -0.37415
 H463 H -0.09241 1.14083 -0.11461
 H464 H -0.06404 1.11795 -0.07252
 H465 H -0.06134 1.04658 -0.21238
 H466 H -0.08956 1.06934 -0.25459
 C467 C 0.65632 0.66194 -0.29572
 C468 C 0.66362 0.64809 -0.34690
 C469 C 0.67919 0.66185 -0.37372
 C470 C 0.68806 0.69008 -0.35028
 C471 C 0.68062 0.70373 -0.29852
 C472 C 0.66503 0.68986 -0.27177
 C473 C 0.63962 0.64746 -0.26796
 N474 N 0.63211 0.66126 -0.21936
 N475 N 0.61697 0.64838 -0.19497
 C476 C 0.60872 0.62116 -0.21812
 N477 N 0.61627 0.60735 -0.26660
 N478 N 0.63138 0.62021 -0.29098
 C479 C 0.59174 0.60698 -0.19158
 C480 C 0.58335 0.57877 -0.21596
 C481 C 0.56722 0.56558 -0.19163
 C482 C 0.55911 0.58028 -0.14241
 C483 C 0.56749 0.60832 -0.11767
 C484 C 0.58365 0.62155 -0.14201
 H485 H 0.65717 0.62673 -0.36694
 H486 H 0.68360 0.65087 -0.41442
 H487 H 0.68708 0.72449 -0.27684
 H488 H 0.65988 0.70101 -0.23201
 H489 H 0.58920 0.56685 -0.25404
 H490 H 0.56109 0.54387 -0.21152
 H491 H 0.56155 0.62009 -0.07960
 H492 H 0.58975 0.64326 -0.12206
 C493 C 0.15615 1.16212 -0.29568
 C494 C 0.16490 1.19006 -0.27191
 C495 C 0.18049 1.20384 -0.29877
 C496 C 0.18792 1.19008 -0.35045
 C497 C 0.17901 1.16184 -0.37373
 C498 C 0.16343 1.14817 -0.34681
 C499 C 0.13945 1.14772 -0.26775
 N500 N 0.13115 1.12051 -0.29069
 N501 N 0.11605 1.10769 -0.26612
 C502 C 0.10858 1.12152 -0.21752
 N503 N 0.11690 1.14871 -0.19446
 N504 N 0.13201 1.16153 -0.21905
 C505 C 0.09163 1.10736 -0.19073
 C506 C 0.08365 1.12187 -0.14091
 C507 C 0.06753 1.10865 -0.11632
 C508 C 0.05906 1.08068 -0.14104
 C509 C 0.06706 1.06606 -0.19053
 C510 C 0.08315 1.07924 -0.21511
 H511 H 0.15976 1.20130 -0.23220
 H512 H 0.18698 1.22462 -0.27719
 H513 H 0.18341 1.15077 -0.41436
 H514 H 0.15696 1.12679 -0.36671
 H515 H 0.08982 1.14352 -0.12095
 H516 H 0.06167 1.12037 -0.07805
 H517 H 0.06086 1.04441 -0.21043
 H518 H 0.08890 1.06737 -0.25337
 C519 C 0.34048 0.34297 -0.29247
 C520 C 0.33655 0.34884 -0.35169
 C521 C 0.32102 0.33462 -0.37815
 C522 C 0.30895 0.31435 -0.34597
 C523 C 0.31272 0.30883 -0.28653
 C524 C 0.32833 0.32291 -0.26012
 C525 C 0.35730 0.35728 -0.26507
 N526 N 0.36277 0.34784 -0.21079
 N527 N 0.37812 0.36024 -0.18681
 C528 C 0.38862 0.38266 -0.21604
 N529 N 0.38309 0.39219 -0.27018
 N530 N 0.36779 0.37973 -0.29420
 C531 C 0.40585 0.39618 -0.18995
 C532 C 0.41540 0.42214 -0.21751
 C533 C 0.43179 0.43465 -0.19362
 C534 C 0.43907 0.42135 -0.14186
 C535 C 0.42955 0.39552 -0.11405
 C536 C 0.41307 0.38310 -0.13776
 H537 H 0.34566 0.36401 -0.37802
 H538 H 0.31872 0.33890 -0.42425
 H539 H 0.30356 0.29372 -0.26032
 H540 H 0.33087 0.31806 -0.21432
 H541 H 0.41022 0.43289 -0.25761
 H542 H 0.43881 0.45465 -0.21592
 H543 H 0.43483 0.38491 -0.07393
 H544 H 0.40608 0.36308 -0.11544
 C545 C -0.15931 0.84295 -0.29301
 C546 C -0.16323 0.84888 -0.35222
 C547 C -0.17877 0.83468 -0.37876
 C548 C -0.19085 0.81437 -0.34668
 C549 C -0.18707 0.80877 -0.28727
 C550 C -0.17146 0.82282 -0.26078
 C551 C -0.14252 0.85729 -0.26546
 N552 N -0.13708 0.84784 -0.21115
 N553 N -0.12178 0.86031 -0.18698
 C554 C -0.11129 0.88282 -0.21604
 N555 N -0.11677 0.89235 -0.27021
 N556 N -0.13203 0.87982 -0.29443
 C557 C -0.09411 0.89645 -0.18968
 C558 C -0.08459 0.92254 -0.21698
 C559 C -0.06827 0.93517 -0.19280
 C560 C -0.06102 0.92187 -0.14100
 C561 C -0.07051 0.89590 -0.11344
 C562 C -0.08693 0.88337 -0.13744
 H563 H -0.15413 0.86410 -0.37847
 H564 H -0.18107 0.83904 -0.42484
 H565 H -0.19623 0.79362 -0.26112
 H566 H -0.16893 0.81791 -0.21500
 H567 H -0.08975 0.93330 -0.25710
 H568 H -0.06127 0.95526 -0.21492
 H569 H -0.06526 0.88528 -0.07331
 H570 H -0.09389 0.86326 -0.11530
 C571 C 0.34596 0.66972 0.30034
 C572 C 0.33137 0.68195 0.26576
 C573 C 0.31586 0.69653 0.29169
 C574 C 0.31474 0.69956 0.35264
 C575 C 0.32936 0.68761 0.38721
 C576 C 0.34476 0.67267 0.36137
 C577 C 0.36231 0.65390 0.27302
 N578 N 0.37431 0.63572 0.30553
 N579 N 0.38902 0.62150 0.28105
 C580 C 0.39241 0.62500 0.22307
 N581 N 0.38042 0.64322 0.19056
 N582 N 0.36565 0.65729 0.21499
 C583 C 0.40890 0.60952 0.19603
 C584 C 0.41487 0.61927 0.14023
 C585 C 0.43067 0.60518 0.11527
 C586 C 0.44070 0.58077 0.14528
 C587 C 0.43463 0.57066 0.20065
 C588 C 0.41895 0.58503 0.22594
 H589 H 0.33185 0.68000 0.21864
 H590 H 0.30481 0.70572 0.26410
 H591 H 0.32873 0.68934 0.43436
 H592 H 0.35576 0.66358 0.38926
 H593 H 0.40747 0.63811 0.11607
 H594 H 0.43501 0.61334 0.07239
 H595 H 0.44210 0.55187 0.22472
 H596 H 0.41468 0.57684 0.26886
 C597 C -0.15579 1.16600 0.29920
 C598 C -0.15835 1.20045 0.29854
 C599 C -0.17387 1.21465 0.32502
 C600 C -0.18727 1.19471 0.35215
 C601 C -0.18483 1.16028 0.35237
 C602 C -0.16922 1.14608 0.32644
 C603 C -0.13917 1.15096 0.27202
 N604 N -0.13476 1.11882 0.28204
 N605 N -0.11973 1.10541 0.25806
 C606 C -0.10850 1.12352 0.22282
 N607 N -0.11294 1.15562 0.21265
 N608 N -0.12793 1.16907 0.23683
 C609 C -0.09171 1.10867 0.19634
 C610 C -0.08210 1.12524 0.15172
 C611 C -0.06622 1.11135 0.12693
 C612 C -0.05950 1.08077 0.14661
 C613 C -0.06906 1.06415 0.19115
 C614 C -0.08506 1.07788 0.21558
 H615 H -0.14827 1.21651 0.27802
 H616 H -0.17549 1.24125 0.32386
 H617 H -0.19486 1.14437 0.37351
 H618 H -0.16770 1.11947 0.32766
 H619 H -0.08689 1.14891 0.13568
 H620 H -0.05913 1.12469 0.09258
 H621 H -0.06421 1.04047 0.20702
 H622 H -0.09210 1.06448 0.24995
 C623 C 0.65582 0.33273 0.29124
 C624 C 0.66942 0.35266 0.31775
 C625 C 0.68489 0.33841 0.34444
 C626 C 0.68703 0.30393 0.34570
 C627 C 0.67349 0.28397 0.31915
 C628 C 0.65809 0.29822 0.29190
 C629 C 0.63926 0.34785 0.26378
 N630 N 0.62779 0.32965 0.22933
 N631 N 0.61280 0.34318 0.20520
 C632 C 0.60858 0.37545 0.21471
 N633 N 0.62005 0.39365 0.24915
 N634 N 0.63509 0.38015 0.27306
 C635 C 0.59174 0.39036 0.18869
 C636 C 0.58530 0.42130 0.20791
 C637 C 0.56920 0.43505 0.18422
 C638 C 0.55930 0.41832 0.14044
 C639 C 0.56581 0.38762 0.12065
 C640 C 0.58181 0.37369 0.14474
 H641 H 0.66811 0.37931 0.31794
 H642 H 0.69504 0.35434 0.36512
 H643 H 0.67488 0.25732 0.31917
 H644 H 0.64787 0.28216 0.27197
 H645 H 0.59259 0.43477 0.24176
 H646 H 0.56452 0.45884 0.20011
 H647 H 0.55845 0.37421 0.08686
 H648 H 0.58643 0.34990 0.12875
 C649 C 0.15721 0.83581 0.28845
 C650 C 0.17026 0.85576 0.31758
 C651 C 0.18576 0.84168 0.34449
 C652 C 0.18847 0.80732 0.34334
 C653 C 0.17552 0.78736 0.31399
 C654 C 0.16011 0.80146 0.28657
 C655 C 0.14055 0.85066 0.26109
 N656 N 0.12944 0.83253 0.22538
 N657 N 0.11430 0.84574 0.20160
 C658 C 0.10957 0.87761 0.21271
 N659 N 0.12069 0.89576 0.24836
 N660 N 0.13587 0.88259 0.27195
 C661 C 0.09251 0.89211 0.18724
 C662 C 0.08574 0.92264 0.20734
 C663 C 0.06943 0.93598 0.18428
 C664 C 0.05963 0.91922 0.14029
 C665 C 0.06647 0.88894 0.11961
 C666 C 0.08269 0.87543 0.14303
 H667 H 0.16848 0.88230 0.31977
 H668 H 0.19543 0.85760 0.36731
 H669 H 0.17736 0.76083 0.31203
 H670 H 0.15034 0.78536 0.26456
 H671 H 0.09293 0.93613 0.24138
 H672 H 0.06451 0.95945 0.20086
 H673 H 0.05920 0.87553 0.08563
 H674 H 0.08755 0.85195 0.12637
   
