data_POSCAR
  _audit_creation_date              2014-09-24
  _audit_creation_method            'ToBaCCo'
  _symmetry_space_group_name_H-M    'P1'
  _symmetry_Int_Tables_number       1
  _symmetry_cell_setting            triclinic
  loop_
  _symmetry_equiv_pos_as_xyz
 x,y,z
_cell_length_a 25.8027
_cell_length_b 25.0122
_cell_length_c 24.8517
_cell_angle_alpha 87.692400
_cell_angle_beta 90.684000
_cell_angle_gamma 88.286600
loop_
  _atom_site_label
  _atom_site_type_symbol
  _atom_site_fract_x
  _atom_site_fract_y
  _atom_site_fract_z
N1 N 0.18523 1.28632 0.15757
 N2 N 0.17059 1.30227 0.20492
 C3 C 0.14218 1.34832 0.19820
 C4 C 0.13821 1.36117 0.14328
 C5 C 0.16566 1.32039 0.11912
 H6 H 0.12091 1.36707 0.23001
 H7 H 0.16937 1.31472 0.07638
 Cu8 Cu 0.18001 1.25382 0.26776
 Cu9 Cu 0.22292 1.21922 0.14784
 Cu10 Cu 0.26911 1.15318 0.26367
 N11 N 0.17392 1.18811 0.31173
 N12 N 0.20760 1.14773 0.30978
 C13 C 0.18793 1.10468 0.33595
 C14 C 0.13841 1.11845 0.35362
 C15 C 0.13231 1.17251 0.33940
 H16 H 0.20643 1.06527 0.33780
 H17 H 0.09931 1.19869 0.34695
 N18 N 0.30491 1.14799 0.19435
 N19 N 0.28308 1.16850 0.14964
 C20 C 0.31308 1.15674 0.10784
 C21 C 0.35792 1.13001 0.12680
 C22 C 0.35065 1.12409 0.18222
 H23 H 0.30258 1.16738 0.06654
 H24 H 0.37639 1.10385 0.21159
 H25 H 0.20834 1.17667 0.21554
 H26 H 0.25773 1.22896 0.21966
 N27 N 0.80418 0.69037 0.16746
 N28 N 0.84268 0.69390 0.20217
 C29 C 0.87765 0.65396 0.19446
 C30 C 0.85985 0.62360 0.15322
 C31 C 0.81336 0.64811 0.13676
 H32 H 0.91567 0.65040 0.21325
 H33 H 0.79121 0.63947 0.10110
 Cu34 Cu 0.84791 0.75563 0.24728
 Cu35 Cu 0.75248 0.74799 0.15573
 Cu36 Cu 0.75490 0.85321 0.24175
 N37 N 0.85047 0.81642 0.29378
 N38 N 0.81293 0.85312 0.29283
 C39 C 0.82360 0.88984 0.32913
 C40 C 0.87035 0.87546 0.35488
 C41 C 0.88666 0.82903 0.33034
 H42 H 0.80043 0.92599 0.33419
 H43 H 0.92184 0.80563 0.33928
 N44 N 0.69992 0.84585 0.18670
 N45 N 0.69853 0.80540 0.15418
 C46 C 0.65947 0.81450 0.11812
 C47 C 0.63525 0.86280 0.12861
 C48 C 0.66203 0.88184 0.17188
 H49 H 0.65145 0.78997 0.08435
 H50 H 0.65628 0.92065 0.18889
 H51 H 0.79373 0.81153 0.18489
 H52 H 0.75508 0.77157 0.23416
 N53 N 0.82494 1.29299 -0.14431
 N54 N 0.85568 1.29653 -0.18594
 C55 C 0.89069 1.33416 -0.17756
 C56 C 0.88339 1.35330 -0.12649
 C57 C 0.84032 1.32710 -0.10725
 H58 H 0.92024 1.34539 -0.20599
 H59 H 0.82248 1.33127 -0.06840
 Cu60 Cu 0.85269 1.24602 -0.24321
 Cu61 Cu 0.76716 1.24468 -0.14267
 Cu62 Cu 0.79198 1.13120 -0.21396
 N63 N 0.86225 1.18327 -0.28601
 N64 N 0.83703 1.13933 -0.27588
 C65 C 0.85165 1.10243 -0.31100
 C66 C 0.88869 1.12398 -0.34537
 C67 C 0.89484 1.17539 -0.32693
 H68 H 0.83658 1.06258 -0.31079
 H69 H 0.92363 1.20385 -0.33880
 N70 N 0.73657 1.13645 -0.16021
 N71 N 0.72557 1.18055 -0.13470
 C72 C 0.68212 1.17372 -0.10605
 C73 C 0.66458 1.12300 -0.11456
 C74 C 0.70077 1.10009 -0.14798
 H75 H 0.66347 1.20407 -0.08254
 H76 H 0.69954 1.06071 -0.16433
 H77 H 0.82104 1.19150 -0.16791
 H78 H 0.76882 1.20986 -0.21871
 N79 N 0.18171 0.71153 -0.14239
 N80 N 0.15875 0.69990 -0.18772
 C81 C 0.12297 0.66290 -0.17753
 C82 C 0.12232 0.65208 -0.12244
 C83 C 0.16087 0.68286 -0.10161
 H84 H 0.09799 0.64671 -0.20770
 H85 H 0.17188 0.68521 -0.05966
 Cu86 Cu 0.17166 0.74065 -0.25374
 Cu87 Cu 0.23671 0.76303 -0.13991
 Cu88 Cu 0.26109 0.83487 -0.25911
 N89 N 0.16808 0.79890 -0.30777
 N90 N 0.20286 0.83608 -0.31022
 C91 C 0.18849 0.87315 -0.34883
 C92 C 0.14179 0.85850 -0.37209
 C93 C 0.13016 0.81119 -0.34400
 H94 H 0.20992 0.90878 -0.35810
 H95 H 0.09462 0.78951 -0.34585
 N96 N 0.30211 0.84182 -0.19237
 N97 N 0.29142 0.81605 -0.14655
 C98 C 0.32356 0.83199 -0.10768
 C99 C 0.35616 0.86896 -0.13029
 C100 C 0.34154 0.87468 -0.18387
 H101 H 0.32293 0.81848 -0.06582
 H102 H 0.35712 0.90215 -0.21380
 H103 H 0.20833 0.81179 -0.20348
 H104 H 0.25849 0.75968 -0.21894
 C105 C 0.49719 1.00435 -0.01117
 C106 C -0.00252 0.50174 1.01011
 C107 C 1.00031 -0.00079 0.49620
 C108 C 0.09710 0.45265 1.12828
 C109 C 0.10345 0.39784 1.11631
 C110 C 0.07420 0.37830 1.07449
 C111 C 0.03964 0.41067 1.04471
 C112 C 0.03517 0.46678 1.04997
 C113 C 0.06406 0.48767 1.09446
 C114 C 0.12600 0.47441 1.17042
 C115 C 0.12199 0.52859 1.18060
 C116 C 0.09088 0.56269 1.14792
 C117 C 0.06315 0.54285 1.10508
 H118 H 0.15293 0.45034 1.19532
 H119 H 0.14432 0.54447 1.21314
 H120 H 0.08927 0.60515 1.15488
 H121 H 0.04358 0.57221 1.07920
 H122 H 0.07577 0.33602 1.06623
 H123 H 0.01549 0.38910 1.01821
 C124 C -0.10492 0.53360 1.12417
 C125 C -0.10733 0.58992 1.11930
 C126 C -0.07827 0.61612 1.08050
 C127 C -0.04659 0.58793 1.04654
 C128 C -0.04253 0.53108 1.04808
 C129 C -0.07320 0.50360 1.08835
 C130 C -0.13386 0.50661 1.16408
 C131 C -0.13264 0.45101 1.16879
 C132 C -0.10331 0.42140 1.13349
 C133 C -0.07438 0.44711 1.09372
 H134 H -0.15772 0.52832 1.19190
 H135 H -0.15510 0.43079 1.19952
 H136 H -0.10339 0.37810 1.13651
 H137 H -0.05495 0.42162 1.06638
 H138 H -0.07935 0.65950 1.07702
 H139 H -0.02325 0.61281 1.02092
 C140 C -0.03011 0.39371 0.90055
 C141 C -0.08495 0.39159 0.90330
 C142 C -0.11127 0.42612 0.93685
 C143 C -0.08510 0.46085 0.96882
 C144 C -0.03045 0.46480 0.96855
 C145 C -0.00303 0.43262 0.93018
 C146 C -0.00096 0.35560 0.87191
 C147 C 0.05238 0.35888 0.86686
 C148 C 0.07844 0.39839 0.89236
 C149 C 0.05155 0.43372 0.92449
 H150 H -0.01810 0.32130 0.85495
 H151 H 0.07379 0.32966 0.84422
 H152 H 0.12021 0.40003 0.88949
 H153 H 0.07534 0.45875 0.94719
 H154 H -0.15318 0.42592 0.93908
 H155 H -0.10939 0.48534 0.99352
 C156 C 0.03362 0.61477 0.90028
 C157 C 0.08793 0.61621 0.90879
 C158 C 0.11095 0.58343 0.94936
 C159 C 0.08215 0.54861 0.98073
 C160 C 0.02788 0.54388 0.97382
 C161 C 0.00343 0.57815 0.93187
 C162 C 0.00814 0.65112 0.86289
 C163 C -0.04506 0.65000 0.85407
 C164 C -0.07444 0.61432 0.88369
 C165 C -0.05089 0.57981 0.92257
 H166 H 0.02835 0.68208 0.84113
 H167 H -0.06376 0.67799 0.82511
 H168 H -0.11612 0.61468 0.87794
 H169 H -0.07683 0.55746 0.94708
 H170 H 0.15249 0.58385 0.95634
 H171 H 0.10460 0.52320 1.00873
 C172 C 1.04746 0.09651 0.37709
 C173 C 1.10175 0.08502 0.37908
 C174 C 1.11922 0.03940 0.40900
 C175 C 1.08609 0.01130 0.44283
 C176 C 1.03438 0.02935 0.45225
 C177 C 1.01427 0.07122 0.41553
 C178 C 1.02473 0.12986 0.33529
 C179 C 0.97235 0.14448 0.33556
 C180 C 0.94135 0.12534 0.37670
 C181 C 0.96196 0.08904 0.41572
 H182 H 1.04670 0.14342 0.30089
 H183 H 0.95583 0.17078 0.30377
 H184 H 0.90080 0.13764 0.37774
 H185 H 0.93643 0.07588 0.44606
 H186 H 1.15952 0.02610 0.40830
 H187 H 1.10258 -0.02485 0.46196
 C188 C 1.06739 -0.13334 0.56248
 C189 C 1.10914 -0.11097 0.59100
 C190 C 1.11370 -0.05522 0.58759
 C191 C 1.07766 -0.02244 0.55901
 C192 C 1.03469 -0.04289 0.53156
 C193 C 1.02642 -0.09933 0.54015
 C194 C 1.06529 -0.18896 0.55490
 C195 C 1.01972 -0.21156 0.53750
 C196 C 0.97563 -0.17924 0.52817
 C197 C 0.97862 -0.12383 0.53038
 H198 H 1.09881 -0.21533 0.56228
 H199 H 1.01809 -0.25440 0.53342
 H200 H 0.93910 -0.19701 0.51848
 H201 H 0.94265 -0.10139 0.52592
 H202 H 1.14436 -0.03586 0.60875
 H203 H 1.08410 0.02010 0.55746
 C204 C 0.87299 -0.06238 0.43110
 C205 C 0.89776 -0.09561 0.39339
 C206 C 0.95181 -0.09734 0.39203
 C207 C 0.98103 -0.06536 0.42412
 C208 C 0.95884 -0.02920 0.46044
 C209 C 0.90241 -0.02553 0.46135
 C210 C 0.81956 -0.06756 0.44189
 C211 C 0.79342 -0.03239 0.47454
 C212 C 0.81976 0.00861 0.49717
 C213 C 0.87305 0.01226 0.49063
 H214 H 0.79757 -0.09976 0.42638
 H215 H 0.75236 -0.03643 0.48151
 H216 H 0.79891 0.03756 0.52066
 H217 H 0.88877 0.04672 0.50786
 H218 H 0.97238 -0.12250 0.36440
 H219 H 1.02269 -0.07041 0.42141
 C220 C 0.94787 0.12320 0.57477
 C221 C 0.91724 0.09688 0.61467
 C222 C 0.91931 0.04059 0.61736
 C223 C 0.94812 0.01135 0.58121
 C224 C 0.97774 0.03629 0.54046
 C225 C 0.98431 0.09278 0.54461
 C226 C 0.94287 0.17876 0.56240
 C227 C 0.98063 0.20502 0.53272
 C228 C 1.02375 0.17636 0.51523
 C229 C 1.02598 0.12072 0.52166
 H230 H 0.90941 0.20214 0.57431
 H231 H 0.97725 0.24787 0.52486
 H232 H 1.05492 0.19706 0.49540
 H233 H 1.06104 0.10061 0.50929
 H234 H 0.89840 0.01794 0.64753
 H235 H 0.94485 -0.03158 0.58365
 C236 C 0.40869 1.12503 0.03937
 C237 C 0.40117 1.10815 0.09369
 C238 C 0.43262 1.06607 0.11498
 C239 C 0.46578 1.03734 0.08227
 C240 C 0.46398 1.04355 0.02514
 C241 C 0.43496 1.09013 0.00383
 C242 C 0.39155 1.17638 0.01971
 C243 C 0.39230 1.19006 -0.03505
 C244 C 0.41014 1.15289 -0.07095
 C245 C 0.43100 1.10365 -0.05179
 H246 H 0.37851 1.20672 0.04668
 H247 H 0.37810 1.22919 -0.04972
 H248 H 0.40870 1.16254 -0.11381
 H249 H 0.44285 1.07638 -0.08122
 H250 H 0.43141 1.05449 0.15735
 H251 H 0.49135 1.00885 0.10350
 C252 C 0.58185 1.07193 -0.12831
 C253 C 0.61591 1.09942 -0.09474
 C254 C 0.60325 1.10538 -0.04101
 C255 C 0.56219 1.07842 -0.01820
 C256 C 0.53250 1.04220 -0.04728
 C257 C 0.53864 1.04446 -0.10550
 C258 C 0.58833 1.07425 -0.18487
 C259 C 0.55418 1.04983 -0.21892
 C260 C 0.51118 1.02532 -0.19796
 C261 C 0.50260 1.02411 -0.14278
 H262 H 0.61842 1.09688 -0.20401
 H263 H 0.55984 1.05211 -0.26204
 H264 H 0.48302 1.00890 -0.22489
 H265 H 0.46519 1.01029 -0.13216
 H266 H 0.62733 1.12866 -0.01534
 H267 H 0.55717 1.08168 0.02475
 C268 C 0.44769 0.89008 -0.10277
 C269 C 0.39379 0.90082 -0.10152
 C270 C 0.37449 0.94331 -0.07281
 C271 C 0.40743 0.97577 -0.04539
 C272 C 0.46212 0.96777 -0.04521
 C273 C 0.48241 0.92384 -0.07556
 C274 C 0.46771 0.84655 -0.13135
 C275 C 0.52090 0.83702 -0.13491
 C276 C 0.55502 0.87113 -0.11112
 C277 C 0.53622 0.91417 -0.08244
 H278 H 0.44242 0.81970 -0.15144
 H279 H 0.53573 0.80367 -0.15718
 H280 H 0.59640 0.86468 -0.11553
 H281 H 0.56468 0.94079 -0.06833
 H282 H 0.33303 0.95143 -0.07136
 H283 H 0.38839 1.00629 -0.02284
 C284 C 0.54473 0.88633 0.09264
 C285 C 0.59859 0.89406 0.09285
 C286 C 0.61879 0.93361 0.05933
 C287 C 0.58686 0.96646 0.02631
 C288 C 0.53188 0.96390 0.02649
 C289 C 0.51079 0.92169 0.06071
 C290 C 0.52395 0.84472 0.12499
 C291 C 0.47073 0.83804 0.12721
 C292 C 0.43727 0.87335 0.09849
 C293 C 0.45679 0.91484 0.06638
 H294 H 0.54869 0.81711 0.14900
 H295 H 0.45533 0.80601 0.15225
 H296 H 0.39578 0.86913 0.10176
 H297 H 0.42849 0.94252 0.04863
 H298 H 0.66036 0.93869 0.05802
 H299 H 0.60741 0.99252 -0.00079
   
