data_POSCAR
  _audit_creation_date              2014-09-24
  _audit_creation_method            'ToBaCCo'
  _symmetry_space_group_name_H-M    'P1'
  _symmetry_Int_Tables_number       1
  _symmetry_cell_setting            triclinic
  loop_
  _symmetry_equiv_pos_as_xyz
 x,y,z
_cell_length_a 54.5153
_cell_length_b 54.4431
_cell_length_c 55.7322
_cell_angle_alpha 94.152500
_cell_angle_beta 86.062500
_cell_angle_gamma 95.264800
loop_
  _atom_site_label
  _atom_site_type_symbol
  _atom_site_fract_x
  _atom_site_fract_y
  _atom_site_fract_z
C1 C 0.26957 0.49127 1.00944
 C2 C 0.26216 0.51368 1.00279
 C3 C 0.27984 0.53372 0.99897
 C4 C 0.30508 0.53188 1.00227
 C5 C 0.31196 0.50889 1.00853
 C6 C 0.29448 0.48881 1.01234
 C7 C 0.23566 0.51674 1.00149
 C8 C 0.21942 0.51306 1.02182
 C9 C 0.19429 0.51730 1.02161
 C10 C 0.18579 0.52444 1.00002
 C11 C 0.20171 0.52759 0.97935
 C12 C 0.22676 0.52402 0.98033
 H13 H 0.25592 0.47590 1.01267
 H14 H 0.27333 0.55109 0.99506
 H15 H 0.22700 0.50836 1.03818
 H16 H 0.23933 0.52675 0.96464
 H17 H 0.33117 0.50589 1.00963
 H18 H 0.16632 0.52611 0.99862
 C19 C 0.71570 0.48349 0.00081
 C20 C 0.73293 0.50368 -0.00360
 C21 C 0.72478 0.52658 -0.00786
 C22 C 0.69945 0.52958 -0.00725
 C23 C 0.68240 0.50932 -0.00239
 C24 C 0.69022 0.48601 0.00119
 C25 C 0.75955 0.50078 -0.00374
 C26 C 0.77446 0.50246 -0.02522
 C27 C 0.79993 0.49922 -0.02579
 C28 C 0.80995 0.49516 -0.00382
 C29 C 0.79528 0.49395 0.01787
 C30 C 0.76993 0.49631 0.01764
 H31 H 0.72230 0.46574 0.00329
 H32 H 0.73820 0.54198 -0.01164
 H33 H 0.76559 0.50502 -0.04153
 H34 H 0.75835 0.49551 0.03422
 H35 H 0.66289 0.51193 -0.00099
 H36 H 0.82951 0.49372 -0.00310
 C37 C 0.03318 0.22613 0.49764
 C38 C 0.01199 0.23700 0.49238
 C39 C -0.00964 0.22199 0.48748
 C40 C -0.01039 0.19619 0.48817
 C41 C 0.01106 0.18556 0.49323
 C42 C 0.03296 0.20033 0.49791
 C43 C 0.01220 0.26415 0.49255
 C44 C 0.00680 0.27530 0.47180
 C45 C 0.00683 0.30128 0.47159
 C46 C 0.01170 0.31544 0.49331
 C47 C 0.01750 0.30453 0.51403
 C48 C 0.01777 0.27882 0.51349
 H49 H 0.04979 0.23781 0.50160
 H50 H -0.02594 0.23050 0.48343
 H51 H 0.00381 0.26340 0.45570
 H52 H 0.02218 0.27017 0.52938
 H53 H 0.01067 0.16567 0.49370
 H54 H 0.00990 0.33510 0.49489
 C55 C 1.00971 0.76659 0.49769
 C56 C 0.98877 0.74969 0.49564
 C57 C 0.96621 0.75790 0.49055
 C58 C 0.96453 0.78288 0.48728
 C59 C 0.98552 0.79963 0.48912
 C60 C 1.00857 0.79191 0.49417
 C61 C 0.99089 0.72311 0.49721
 C62 C 0.99397 0.71359 0.51942
 C63 C 0.99657 0.68816 0.52096
 C64 C 0.99586 0.67267 0.49948
 C65 C 0.99274 0.68214 0.47724
 C66 C 0.99029 0.70739 0.47624
 H67 H 1.02703 0.75938 0.50060
 H68 H 0.95010 0.74481 0.48884
 H69 H 0.99516 0.72637 0.53519
 H70 H 0.98785 0.71485 0.45913
 H71 H 0.98316 0.81897 0.48773
 H72 H 0.99699 0.65296 0.49987
 C73 C 0.49572 0.02577 0.23064
 C74 C 0.50351 0.00427 0.23909
 C75 C 0.51140 -0.01451 0.22253
 C76 C 0.51143 -0.01201 0.19762
 C77 C 0.50378 0.00971 0.18948
 C78 C 0.49590 0.02871 0.20581
 C79 C 0.50323 0.00140 0.26527
 C80 C 0.48154 0.00427 0.27990
 C81 C 0.48098 0.00118 0.30471
 C82 C 0.50260 -0.00404 0.31491
 C83 C 0.52458 -0.00665 0.30060
 C84 C 0.52461 -0.00421 0.27566
 H85 H 0.48951 0.04018 0.24344
 H86 H 0.51736 -0.03113 0.22907
 H87 H 0.46491 0.00817 0.27181
 H88 H 0.54130 -0.00647 0.26430
 H89 H 0.50384 0.01180 0.17029
 H90 H 0.50240 -0.00538 0.33422
 C91 C 0.49892 0.03778 0.78148
 C92 C 0.50508 0.01695 0.76687
 C93 C 0.51331 -0.00329 0.77723
 C94 C 0.51600 -0.00284 0.80226
 C95 C 0.51037 0.01867 0.81651
 C96 C 0.50150 0.03879 0.80639
 C97 C 0.50345 0.01650 0.74058
 C98 C 0.52506 0.01647 0.72538
 C99 C 0.52385 0.01638 0.70030
 C100 C 0.50066 0.01551 0.69063
 C101 C 0.47883 0.01505 0.70558
 C102 C 0.48040 0.01604 0.73068
 H103 H 0.49216 0.05316 0.77338
 H104 H 0.51830 -0.01900 0.76546
 H105 H 0.54280 0.01717 0.73317
 H106 H 0.46375 0.01565 0.74250
 H107 H 0.51184 0.01956 0.83581
 H108 H 0.49958 0.01506 0.67127
 C109 C 0.28680 0.02448 0.48660
 H110 H 0.28745 0.04024 0.49961
 C111 C 0.30429 0.02363 0.46710
 H112 H 0.31841 0.03882 0.46522
 C113 C 0.26856 -0.01520 0.47422
 H114 H 0.25514 -0.03065 0.47746
 C115 C 0.28577 -0.01689 0.45457
 H116 H 0.28500 -0.03343 0.44253
 N117 N 0.26946 0.00521 0.48984
 C118 C 0.21648 0.03747 0.54248
 H119 H 0.21728 0.02534 0.55690
 C120 C 0.19982 0.05560 0.54470
 H121 H 0.18828 0.05766 0.56119
 C122 C 0.23009 0.04877 0.50318
 H123 H 0.24125 0.04539 0.48670
 C124 C 0.21350 0.06701 0.50455
 H125 H 0.21220 0.07754 0.48900
 Zn126 Zn 0.24897 0.00599 0.51867
 N127 N 0.23101 0.03424 0.52189
 C128 C 0.27430 0.02484 0.56036
 N129 N 0.27009 0.00535 0.54403
 C130 C 0.28277 -0.01502 0.54375
 C131 C 0.30054 -0.01641 0.56028
 C132 C 0.29219 0.02436 0.57712
 C133 C 0.20985 -0.02390 0.50009
 C134 C 0.19129 -0.04323 0.49877
 C135 C 0.20417 -0.05726 0.53570
 C136 C 0.22268 -0.03771 0.53620
 N137 N 0.22525 -0.02163 0.51843
 H138 H 0.26448 0.04114 0.55983
 H139 H 0.27931 -0.03009 0.53032
 H140 H 0.31027 -0.03292 0.55973
 H141 H 0.29595 0.04039 0.58938
 H142 H 0.21211 -0.01063 0.48638
 H143 H 0.17961 -0.04492 0.48369
 H144 H 0.20208 -0.06958 0.55025
 H145 H 0.23460 -0.03514 0.55104
 C146 C 0.19768 0.07026 0.52533
 C147 C 0.30416 0.00254 0.45101
 C148 C 0.18811 -0.06019 0.51682
 C149 C 0.30586 0.00365 0.57697
 C150 C 0.71987 0.00409 0.51839
 H151 H 0.72300 0.01743 0.50480
 C152 C 0.70375 0.00855 0.53844
 H153 H 0.69496 0.02568 0.54032
 C154 C 0.72756 -0.03449 0.53215
 H155 H 0.73630 -0.05157 0.52925
 C156 C 0.71133 -0.03090 0.55237
 H157 H 0.70784 -0.04536 0.56483
 N158 N 0.73151 -0.01706 0.51568
 C159 C 0.79040 0.00369 0.46197
 H160 H 0.78691 -0.01089 0.44806
 C161 C 0.80999 0.02177 0.45860
 H162 H 0.82125 0.02117 0.44183
 C163 C 0.77999 0.02190 0.50080
 H164 H 0.76876 0.02147 0.51752
 C165 C 0.79942 0.04029 0.49823
 H166 H 0.80282 0.05386 0.51307
 Zn167 Zn 0.75106 -0.02228 0.48670
 N168 N 0.77581 0.00413 0.48275
 C169 C 0.72944 -0.00713 0.44559
 N170 N 0.72910 -0.02483 0.46166
 C171 C 0.71133 -0.04403 0.46190
 C172 C 0.69293 -0.04606 0.44551
 C173 C 0.71115 -0.00827 0.42904
 C174 C 0.78220 -0.05286 0.50540
 C175 C 0.79566 -0.07331 0.50634
 C176 C 0.77908 -0.09014 0.46890
 C177 C 0.76568 -0.06947 0.46883
 N178 N 0.76740 -0.05141 0.48699
 H179 H 0.74329 0.00839 0.44619
 H180 H 0.71127 -0.05761 0.47515
 H181 H 0.67911 -0.06165 0.44598
 H182 H 0.71121 0.00650 0.41703
 H183 H 0.78365 -0.03795 0.51930
 H184 H 0.80760 -0.07400 0.52098
 H185 H 0.77768 -0.10431 0.45426
 H186 H 0.75437 -0.06764 0.45399
 C187 C 0.81484 0.04032 0.47695
 C188 C 0.69900 -0.00922 0.55563
 C189 C 0.79431 -0.09220 0.48784
 C190 C 0.69236 -0.02779 0.42904
 C191 C 0.44241 0.22019 1.05829
 H192 H 0.42942 0.21956 1.04449
 C193 C 0.43946 0.20228 1.07517
 H194 H 0.42357 0.18882 1.07466
 C195 C 0.47970 0.23720 1.07459
 H196 H 0.49592 0.25012 1.07375
 C197 C 0.47762 0.21939 1.09164
 H198 H 0.49233 0.21904 1.10367
 N199 N 0.46240 0.23708 1.05808
 C200 C 0.44855 0.30309 1.02910
 H201 H 0.46756 0.31048 1.02916
 C202 C 0.43035 0.31936 1.02850
 H203 H 0.43568 0.33901 1.02840
 C204 C 0.41857 0.26880 1.02764
 H205 H 0.41402 0.24909 1.02671
 C206 C 0.39973 0.28446 1.02680
 H207 H 0.38080 0.27662 1.02586
 Zn208 Zn 0.46829 0.25709 1.03130
 N209 N 0.44246 0.27829 1.02932
 C210 C 0.45782 0.23809 0.98362
 N211 N 0.46996 0.23512 1.00360
 C212 C 0.48307 0.21529 1.00510
 C213 C 0.48380 0.19703 0.98630
 C214 C 0.45832 0.22034 0.96417
 C215 C 0.50155 0.29374 1.05257
 C216 C 0.52248 0.31050 1.05334
 C217 C 0.53871 0.29043 1.01630
 C218 C 0.51722 0.27434 1.01596
 N219 N 0.49895 0.27658 1.03369
 H220 H 0.44755 0.25406 0.98286
 H221 H 0.49259 0.21345 1.02120
 H222 H 0.49411 0.18121 0.98792
 H223 H 0.44827 0.22262 0.94850
 H224 H 0.48677 0.29512 1.06646
 H225 H 0.52385 0.32474 1.06792
 H226 H 0.55273 0.28904 1.00163
 H227 H 0.51481 0.26065 1.00109
 C228 C 0.40554 0.31013 1.02765
 C229 C 0.45759 0.20121 1.09170
 C230 C 0.54115 0.30917 1.03482
 C231 C 0.47110 0.19930 0.96563
 C232 C 0.50830 0.79870 -0.05185
 H233 H 0.49261 0.79643 -0.03899
 C234 C 0.50810 0.81503 -0.06998
 H235 H 0.49217 0.82533 -0.07106
 C236 C 0.54852 0.78865 -0.06559
 H237 H 0.56437 0.77862 -0.06352
 C238 C 0.54933 0.80526 -0.08369
 H239 H 0.56570 0.80772 -0.09571
 N240 N 0.52812 0.78561 -0.05022
 C241 C 0.49472 0.72748 -0.00569
 H242 H 0.50780 0.72929 0.00821
 C243 C 0.47469 0.70967 -0.00450
 H244 H 0.47228 0.69820 0.01070
 C245 C 0.48223 0.74038 -0.04232
 H246 H 0.48563 0.75190 -0.05739
 C247 C 0.46198 0.72263 -0.04195
 H248 H 0.44994 0.72080 -0.05675
 Zn249 Zn 0.52693 0.76469 -0.02445
 N250 N 0.49801 0.74256 -0.02425
 C251 C 0.50762 0.78538 0.02042
 N252 N 0.52761 0.78528 0.00442
 C253 C 0.54811 0.80100 0.00789
 C254 C 0.54917 0.81749 0.02827
 C255 C 0.50787 0.80158 0.04102
 C256 C 0.55589 0.72995 -0.04820
 C257 C 0.57252 0.71181 -0.05045
 C258 C 0.58439 0.72413 -0.01007
 C259 C 0.56765 0.74226 -0.00868
 N260 N 0.55358 0.74456 -0.02749
 H261 H 0.49118 0.77337 0.01697
 H262 H 0.56361 0.80079 -0.00530
 H263 H 0.56574 0.82971 0.03079
 H264 H 0.49154 0.80175 0.05322
 H265 H 0.54414 0.73188 -0.06271
 H266 H 0.57384 0.70025 -0.06706
 H267 H 0.59450 0.72177 0.00554
 H268 H 0.56500 0.75354 0.00790
 C269 C 0.45807 0.70688 -0.02289
 C270 C 0.52884 0.81852 -0.08607
 C271 C 0.58657 0.70821 -0.03098
 C272 C 0.52880 0.81801 0.04513
 C273 C 1.01296 0.45250 0.20709
 H274 H 0.99945 0.43676 0.20518
 C275 C 1.03366 0.45455 0.19092
 H276 H 1.03603 0.44026 0.17660
 C277 C 1.02543 0.49107 0.22710
 H278 H 1.02177 0.50565 0.24071
 C279 C 1.04619 0.49402 0.21112
 H280 H 1.05864 0.51063 0.21292
 N281 N 1.00928 0.47056 0.22480
 C282 C 0.95442 0.43592 0.27541
 H283 H 0.94076 0.44921 0.27617
 C284 C 0.95210 0.41731 0.29158
 H285 H 0.93643 0.41617 0.30462
 C286 C 0.99247 0.42243 0.25873
 H287 H 1.00876 0.42520 0.24675
 C288 C 0.99070 0.40332 0.27437
 H289 H 1.00560 0.39143 0.27413
 Zn290 Zn 0.97908 0.46815 0.24378
 N291 N 0.97466 0.43851 0.25984
 C292 C 0.93659 0.45171 0.21728
 N293 N 0.95413 0.47041 0.22243
 C294 C 0.95615 0.49156 0.21067
 C295 C 0.94037 0.49450 0.19269
 C296 C 0.92045 0.45379 0.19916
 C297 C 0.99683 0.49650 0.28377
 C298 C 0.99689 0.51463 0.30279
 C299 C 0.95862 0.52702 0.29005
 C300 C 0.95951 0.50891 0.27101
 N301 N 0.97852 0.49419 0.26816
 H302 H 0.93565 0.43487 0.22660
 H303 H 0.97042 0.50603 0.21502
 H304 H 0.94237 0.51157 0.18363
 H305 H 0.90715 0.43843 0.19464
 H306 H 1.01138 0.48412 0.28144
 H307 H 1.01156 0.51620 0.31511
 H308 H 0.94336 0.53857 0.29219
 H309 H 0.94474 0.50629 0.25886
 C310 C 0.97072 0.40115 0.29157
 C311 C 1.05036 0.47570 0.19263
 C312 C 0.97753 0.53006 0.30615
 C313 C 0.92257 0.47527 0.18630
 C314 C -0.00734 0.49079 0.78584
 H315 H 0.00617 0.47732 0.78309
 C316 C -0.02608 0.48824 0.80401
 H317 H -0.02711 0.47240 0.81483
 C318 C -0.02206 0.52781 0.77499
 H319 H -0.01997 0.54358 0.76408
 C320 C -0.04105 0.52610 0.79317
 H321 H -0.05344 0.54062 0.79599
 N322 N -0.00569 0.51027 0.77172
 C323 C 0.04361 0.48230 0.71331
 H324 H 0.05854 0.49682 0.71410
 C325 C 0.04506 0.46244 0.69615
 H326 H 0.06144 0.46162 0.68408
 C327 C 0.00407 0.46608 0.72804
 H328 H -0.01219 0.46797 0.74002
 C329 C 0.00466 0.44595 0.71102
 H330 H -0.01123 0.43253 0.71016
 Zn331 Zn 0.02215 0.51278 0.74954
 N332 N 0.02338 0.48376 0.72883
 C333 C 0.06542 0.49951 0.76946
 N334 N 0.05006 0.51765 0.76824
 C335 C 0.05278 0.53912 0.78221
 C336 C 0.07156 0.54306 0.79820
 C337 C 0.08430 0.50256 0.78545
 C338 C 0.00073 0.53967 0.71686
 C339 C 0.00005 0.55698 0.69967
 C340 C 0.04170 0.57258 0.70821
 C341 C 0.04145 0.55522 0.72552
 N342 N 0.02118 0.53914 0.72941
 H343 H 0.06246 0.48226 0.75878
 H344 H 0.04004 0.55306 0.78115
 H345 H 0.07341 0.56039 0.80901
 H346 H 0.09566 0.48750 0.78681
 H347 H -0.01484 0.52618 0.71979
 H348 H -0.01616 0.55678 0.68944
 H349 H 0.05815 0.58491 0.70490
 H350 H 0.05782 0.55396 0.73508
 C351 C 0.02527 0.44407 0.69459
 C352 C -0.04307 0.50622 0.80816
 C353 C 0.02089 0.57342 0.69491
 C354 C 0.08740 0.52447 0.80033
 C355 C 0.07874 0.19701 0.49253
 C356 C 0.09966 0.18494 0.49606
 C357 C 0.09775 0.16439 0.51000
 C358 C 0.07469 0.15641 0.52097
 C359 C 0.05380 0.16846 0.51749
 C360 C 0.05550 0.18867 0.50293
 N361 N 0.11913 0.15133 0.51196
 N362 N 0.11792 0.13173 0.52327
 C363 C 0.13866 0.11769 0.52481
 C364 C 0.13501 0.09554 0.53627
 C365 C 0.15428 0.08044 0.53684
 C366 C 0.17777 0.08732 0.52605
 C367 C 0.18155 0.10993 0.51500
 C368 C 0.16214 0.12499 0.51434
 H369 H 0.08061 0.21239 0.48106
 H370 H 0.11731 0.19125 0.48747
 H371 H 0.07271 0.14067 0.53196
 H372 H 0.03626 0.16188 0.52611
 H373 H 0.11695 0.08966 0.54428
 H374 H 0.15051 0.06297 0.54508
 H375 H 0.19946 0.11592 0.50676
 H376 H 0.16541 0.14211 0.50542
 C377 C 0.70132 0.57598 -0.00112
 C378 C 0.69153 0.59841 -0.00404
 C379 C 0.67086 0.59894 -0.01755
 C380 C 0.66048 0.57679 -0.02871
 C381 C 0.67021 0.55444 -0.02580
 C382 C 0.69047 0.55370 -0.01166
 N383 N 0.66005 0.62182 -0.01888
 N384 N 0.64051 0.62267 -0.02994
 C385 C 0.62842 0.64478 -0.03106
 C386 C 0.60632 0.64319 -0.04259
 C387 C 0.59304 0.66386 -0.04291
 C388 C 0.60173 0.68674 -0.03178
 C389 C 0.62426 0.68842 -0.02057
 C390 C 0.63751 0.66759 -0.02017
 H391 H 0.71685 0.57596 0.00999
 H392 H 0.69970 0.61533 0.00468
 H393 H 0.64460 0.57665 -0.03938
 H394 H 0.66174 0.53765 -0.03450
 H395 H 0.59907 0.62566 -0.05089
 H396 H 0.57555 0.66167 -0.05125
 H397 H 0.63159 0.70579 -0.01204
 H398 H 0.65461 0.66925 -0.01117
 C399 C 0.93967 -0.19402 0.46216
 C400 C 0.91843 -0.18248 0.45892
 C401 C 0.89832 -0.18425 0.47587
 C402 C 0.89906 -0.19899 0.49548
 C403 C 0.92020 -0.21095 0.49850
 C404 C 0.94089 -0.20794 0.48221
 N405 N 0.87841 -0.16930 0.47372
 N406 N 0.86190 -0.16606 0.49064
 C407 C 0.84309 -0.14967 0.48882
 C408 C 0.82841 -0.14320 0.50947
 C409 C 0.81199 -0.12498 0.50904
 C410 C 0.80981 -0.11318 0.48777
 C411 C 0.82374 -0.12052 0.46676
 C412 C 0.84036 -0.13853 0.46729
 H413 H 0.95546 -0.19154 0.44938
 H414 H 0.91806 -0.17116 0.44377
 H415 H 0.88367 -0.20066 0.50877
 H416 H 0.92086 -0.22151 0.51415
 H417 H 0.83035 -0.15163 0.52617
 H418 H 0.80128 -0.11980 0.52542
 H419 H 0.82256 -0.11159 0.45018
 H420 H 0.85149 -0.14324 0.45106
 C421 C 0.31868 0.46614 1.03847
 C422 C 0.32915 0.44486 1.04363
 C423 C 0.32411 0.42264 1.02999
 C424 C 0.30735 0.42153 1.01177
 C425 C 0.29660 0.44285 1.00672
 C426 C 0.30276 0.46547 1.01962
 N427 N 0.33791 0.40230 1.03383
 N428 N 0.33625 0.38186 1.02119
 C429 C 0.35196 0.36286 1.02469
 C430 C 0.35035 0.34092 1.00989
 C431 C 0.36724 0.32326 1.01132
 C432 C 0.38610 0.32745 1.02749
 C433 C 0.38708 0.34906 1.04290
 C434 C 0.37019 0.36657 1.04156
 H435 H 0.32351 0.48333 1.04878
 H436 H 0.34203 0.44591 1.05770
 H437 H 0.30321 0.40450 1.00098
 H438 H 0.28444 0.44197 0.99205
 H439 H 0.33645 0.33786 0.99676
 H440 H 0.36614 0.30681 0.99916
 H441 H 0.40118 0.35256 1.05580
 H442 H 0.37184 0.38330 1.05328
 C443 C 0.94367 0.18768 0.49499
 C444 C 0.92201 0.17197 0.49307
 C445 C 0.92254 0.14868 0.48076
 C446 C 0.94496 0.14149 0.46972
 C447 C 0.96661 0.15720 0.47156
 C448 C 0.96629 0.18033 0.48453
 N449 N 0.90037 0.13236 0.48060
 N450 N 0.90002 0.11036 0.47110
 C451 C 0.87813 0.09364 0.47161
 C452 C 0.87961 0.06933 0.46201
 C453 C 0.85899 0.05212 0.46339
 C454 C 0.83640 0.05897 0.47439
 C455 C 0.83485 0.08358 0.48360
 C456 C 0.85553 0.10077 0.48226
 H457 H 0.94283 0.20523 0.50534
 H458 H 0.90487 0.17771 0.50170
 H459 H 0.94583 0.12362 0.45998
 H460 H 0.98365 0.15117 0.46296
 H461 H 0.89695 0.06359 0.45386
 H462 H 0.86095 0.03326 0.45644
 H463 H 0.81765 0.08956 0.49186
 H464 H 0.85390 0.11950 0.48974
 C465 C 0.34522 0.55375 0.01201
 C466 C 0.36323 0.57339 0.00942
 C467 C 0.35977 0.59252 -0.00494
 C468 C 0.33779 0.59201 -0.01672
 C469 C 0.31962 0.57221 -0.01431
 C470 C 0.32307 0.55242 -0.00006
 N471 N 0.37917 0.61192 -0.00727
 N472 N 0.37743 0.63130 -0.01828
 C473 C 0.39782 0.64984 -0.02004
 C474 C 0.39449 0.67258 -0.02902
 C475 C 0.41403 0.69116 -0.03013
 C476 C 0.43730 0.68716 -0.02240
 C477 C 0.44065 0.66406 -0.01393
 C478 C 0.42114 0.64567 -0.01266
 H479 H 0.34861 0.54017 0.02433
 H480 H 0.38000 0.57380 0.01886
 H481 H 0.33481 0.60664 -0.02807
 H482 H 0.30347 0.57214 -0.02453
 H483 H 0.37663 0.67605 -0.03480
 H484 H 0.41077 0.70879 -0.03659
 H485 H 0.45845 0.66009 -0.00841
 H486 H 0.42434 0.62815 -0.00592
 C487 C 0.03131 -0.16871 0.48332
 C488 C 0.05153 -0.15123 0.48526
 C489 C 0.07100 -0.15523 0.49901
 C490 C 0.07028 -0.17725 0.51074
 C491 C 0.04994 -0.19485 0.50898
 C492 C 0.02978 -0.19080 0.49546
 N493 N 0.09091 -0.13631 0.50098
 N494 N 0.11036 -0.13870 0.51165
 C495 C 0.12949 -0.11886 0.51335
 C496 C 0.15212 -0.12306 0.52205
 C497 C 0.17121 -0.10405 0.52332
 C498 C 0.16784 -0.08041 0.51606
 C499 C 0.14488 -0.07620 0.50781
 C500 C 0.12597 -0.09521 0.50636
 H501 H 0.01736 -0.16493 0.47155
 H502 H 0.05209 -0.13444 0.47585
 H503 H 0.08516 -0.18064 0.52163
 H504 H 0.04977 -0.21097 0.51924
 H505 H 0.15508 -0.14119 0.52752
 H506 H 0.18872 -0.10799 0.52955
 H507 H 0.14141 -0.05811 0.50263
 H508 H 0.10855 -0.09136 0.49985
 C509 C 0.64934 0.46252 0.99337
 C510 C 0.63153 0.44290 0.99731
 C511 C 0.63586 0.42442 1.01221
 C512 C 0.65829 0.42579 1.02340
 C513 C 0.67599 0.44576 1.01992
 C514 C 0.67171 0.46447 1.00489
 N515 N 0.61684 0.40494 1.01606
 N516 N 0.62077 0.38447 1.02413
 C517 C 0.60088 0.36583 1.02812
 C518 C 0.60585 0.34104 1.02816
 C519 C 0.58647 0.32244 1.03053
 C520 C 0.56193 0.32857 1.03362
 C521 C 0.55707 0.35350 1.03441
 C522 C 0.57634 0.37196 1.03146
 H523 H 0.64556 0.47606 0.98113
 H524 H 0.61433 0.44196 0.98851
 H525 H 0.66188 0.41176 1.03520
 H526 H 0.69276 0.44676 1.02939
 H527 H 0.62468 0.33608 1.02565
 H528 H 0.59058 0.30331 1.02990
 H529 H 0.53826 0.35861 1.03660
 H530 H 0.57208 0.39101 1.03170
 C531 C 0.49594 0.07497 1.20746
 C532 C 0.49020 0.09654 1.19767
 C533 C 0.47667 0.09514 1.17709
 C534 C 0.46818 0.07182 1.16683
 C535 C 0.47385 0.05030 1.17660
 C536 C 0.48818 0.05161 1.19675
 N537 N 0.47296 0.11742 1.16613
 N538 N 0.46244 0.11682 1.14638
 C539 C 0.45950 0.13852 1.13422
 C540 C 0.44986 0.13562 1.11151
 C541 C 0.44866 0.15603 1.09802
 C542 C 0.45689 0.17994 1.10714
 C543 C 0.46586 0.18290 1.13037
 C544 C 0.46723 0.16235 1.14379
 H545 H 0.50716 0.07657 1.22289
 H546 H 0.49691 0.11439 1.20572
 H547 H 0.45754 0.07020 1.15100
 H548 H 0.46721 0.03258 1.16823
 H549 H 0.44400 0.11733 1.10390
 H550 H 0.44215 0.15290 1.08004
 H551 H 0.47206 0.20105 1.13806
 H552 H 0.47469 0.16503 1.16139
 C553 C -0.01065 0.68894 0.56526
 C554 C -0.00855 0.67840 0.58711
 C555 C 0.00444 0.65752 0.58784
 C556 C 0.01537 0.64720 0.56639
 C557 C 0.01287 0.65732 0.54447
 C558 C -0.00033 0.67833 0.54338
 N559 N 0.00550 0.64648 0.61028
 N560 N 0.02079 0.63070 0.61285
 C561 C 0.02124 0.61823 0.63454
 C562 C 0.04122 0.60457 0.63748
 C563 C 0.04149 0.59071 0.65758
 C564 C 0.02150 0.58996 0.67489
 C565 C 0.00157 0.60394 0.67210
 C566 C 0.00151 0.61814 0.65216
 H567 H -0.02154 0.70461 0.56555
 H568 H -0.01725 0.68641 0.60353
 H569 H 0.02555 0.63105 0.56649
 H570 H 0.02208 0.64896 0.52853
 H571 H 0.05644 0.60437 0.62394
 H572 H 0.05692 0.57986 0.65916
 H573 H -0.01403 0.60367 0.68524
 H574 H -0.01422 0.62843 0.65016
 C575 C 0.53631 0.97936 -0.16567
 C576 C 0.54166 0.95890 -0.15390
 C577 C 0.53378 0.93501 -0.16262
 C578 C 0.52166 0.93163 -0.18418
 C579 C 0.51682 0.95206 -0.19640
 C580 C 0.52332 0.97640 -0.18693
 N581 N 0.53713 0.91473 -0.14855
 N582 N 0.52495 0.89378 -0.15165
 C583 C 0.52758 0.87392 -0.13679
 C584 C 0.50914 0.85428 -0.13610
 C585 C 0.50978 0.83594 -0.11992
 C586 C 0.52926 0.83669 -0.10458
 C587 C 0.54836 0.85576 -0.10604
 C588 C 0.54743 0.87440 -0.12187
 H589 H 0.54282 0.99750 -0.15819
 H590 H 0.55130 0.96171 -0.13743
 H591 H 0.51549 0.91325 -0.19132
 H592 H 0.50646 0.94859 -0.21236
 H593 H 0.49377 0.85372 -0.14750
 H594 H 0.49493 0.82132 -0.11913
 H595 H 0.56348 0.85673 -0.09428
 H596 H 0.56195 0.88936 -0.12217
 C597 C 1.01021 0.33823 0.44781
 C598 C 1.00515 0.35007 0.42760
 C599 C 0.99268 0.33717 0.40896
 C600 C 0.98512 0.31202 0.41068
 C601 C 0.98969 0.30010 0.43119
 C602 C 1.00224 0.31299 0.45041
 N603 N 0.98768 0.35039 0.38884
 N604 N 0.98145 0.33996 0.36872
 C605 C 0.97655 0.35458 0.34950
 C606 C 0.97885 0.34478 0.32558
 C607 C 0.97642 0.35967 0.30654
 C608 C 0.97098 0.38437 0.31128
 C609 C 0.96761 0.39376 0.33530
 C610 C 0.97054 0.37908 0.35422
 H611 H 1.02119 0.34906 0.46084
 H612 H 1.01136 0.36943 0.42628
 H613 H 0.97517 0.30176 0.39648
 H614 H 0.98234 0.28105 0.43207
 H615 H 0.98343 0.32591 0.32169
 H616 H 0.97907 0.35205 0.28815
 H617 H 0.96370 0.41281 0.33943
 H618 H 0.96847 0.38701 0.37255
 C619 C 0.53317 0.97321 0.15884
 C620 C 0.53815 0.95447 0.14117
 C621 C 0.52876 0.93005 0.14422
 C622 C 0.51490 0.92435 0.16563
 C623 C 0.50994 0.94308 0.18337
 C624 C 0.51866 0.96778 0.17995
 N625 N 0.53249 0.91175 0.12483
 N626 N 0.52392 0.88929 0.12598
 C627 C 0.52676 0.87142 0.10602
 C628 C 0.51680 0.84705 0.10842
 C629 C 0.51787 0.82954 0.08882
 C630 C 0.52894 0.83617 0.06638
 C631 C 0.53938 0.86057 0.06418
 C632 C 0.53831 0.87804 0.08380
 H633 H 0.54043 0.99200 0.15586
 H634 H 0.54890 0.95909 0.12479
 H635 H 0.50741 0.90558 0.16839
 H636 H 0.49853 0.93838 0.19934
 H637 H 0.50787 0.84170 0.12545
 H638 H 0.50997 0.81083 0.09121
 H639 H 0.54773 0.86638 0.04709
 H640 H 0.54606 0.89680 0.08144
 C641 C 0.03770 0.34276 0.53456
 C642 C 0.04115 0.35882 0.55495
 C643 C 0.02994 0.35285 0.57733
 C644 C 0.01573 0.33011 0.57933
 C645 C 0.01227 0.31394 0.55888
 C646 C 0.02286 0.32035 0.53620
 N647 N 0.03231 0.37083 0.59727
 N648 N 0.02266 0.36724 0.61832
 C649 C 0.02452 0.38623 0.63748
 C650 C 0.01455 0.38121 0.66061
 C651 C 0.01510 0.39981 0.67933
 C652 C 0.02558 0.42385 0.67515
 C653 C 0.03577 0.42870 0.65191
 C654 C 0.03531 0.41011 0.63331
 H655 H 0.04638 0.34801 0.51740
 H656 H 0.05219 0.37626 0.55322
 H657 H 0.00685 0.32513 0.59648
 H658 H 0.00062 0.29688 0.56063
 H659 H 0.00616 0.36290 0.66407
 H660 H 0.00735 0.39537 0.69706
 H661 H 0.04354 0.44708 0.64789
 H662 H 0.04298 0.41456 0.61556
 C663 C 0.50181 0.08481 0.81523
 C664 C 0.49704 0.10528 0.83099
 C665 C 0.48533 0.10197 0.85383
 C666 C 0.47758 0.07791 0.86041
 C667 C 0.48221 0.05752 0.84469
 C668 C 0.49484 0.06068 0.82212
 N669 N 0.48256 0.12301 0.87048
 N670 N 0.47485 0.12037 0.89229
 C671 C 0.47261 0.14066 0.90986
 C672 C 0.46690 0.13546 0.93390
 C673 C 0.46611 0.15457 0.95193
 C674 C 0.47076 0.17932 0.94615
 C675 C 0.47573 0.18462 0.92189
 C676 C 0.47682 0.16540 0.90383
 H677 H 0.51166 0.08782 0.79800
 H678 H 0.50311 0.12371 0.82569
 H679 H 0.46826 0.07482 0.87786
 H680 H 0.47610 0.03920 0.85029
 H681 H 0.46357 0.11648 0.93872
 H682 H 0.46192 0.15002 0.97045
 H683 H 0.47945 0.20357 0.91703
 H684 H 0.48123 0.16982 0.88532
 C685 C 1.00728 0.67140 0.43454
 C686 C 1.00700 0.65543 0.41374
 C687 C 0.99113 0.63370 0.41293
 C688 C 0.97559 0.62796 0.43331
 C689 C 0.97617 0.64370 0.45426
 C690 C 0.99199 0.66557 0.45503
 N691 N 0.99155 0.61753 0.39150
 N692 N 0.97486 0.59997 0.38795
 C693 C 0.97570 0.58322 0.36694
 C694 C 0.95474 0.56737 0.36188
 C695 C 0.95515 0.55040 0.34182
 C696 C 0.97677 0.54875 0.32677
 C697 C 0.99782 0.56463 0.33189
 C698 C 0.99725 0.58188 0.35171
 H699 H 1.01974 0.68808 0.43481
 H700 H 1.01913 0.65999 0.39819
 H701 H 0.96328 0.61118 0.43315
 H702 H 0.96413 0.63892 0.46981
 H703 H 0.93806 0.56816 0.37354
 H704 H 0.93877 0.53818 0.33837
 H705 H 1.01465 0.56375 0.32047
 H706 H 1.01373 0.59386 0.35535
 C707 C 1.15729 0.52855 0.04638
 C708 C 1.14101 0.52572 0.06662
 C709 C 1.14454 0.50862 0.08326
 C710 C 1.16501 0.49463 0.07979
 C711 C 1.18166 0.49771 0.05974
 C712 C 1.17794 0.51452 0.04241
 N713 N 1.12690 0.50580 0.10332
 N714 N 1.12627 0.48808 0.11710
 C715 C 1.10817 0.48574 0.13689
 C716 C 1.10452 0.46348 0.14827
 C717 C 1.08592 0.46022 0.16664
 C718 C 1.07100 0.47941 0.17418
 C719 C 1.07519 0.50198 0.16321
 C720 C 1.09351 0.50509 0.14464
 H721 H 1.15399 0.54249 0.03439
 H722 H 1.12542 0.53681 0.06928
 H723 H 1.16809 0.48126 0.09249
 H724 H 1.19673 0.48597 0.05743
 H725 H 1.11572 0.44845 0.14249
 H726 H 1.08312 0.44270 0.17491
 H727 H 1.06379 0.51697 0.16852
 H728 H 1.09604 0.52251 0.13620
 C729 C 0.54856 0.03158 0.66394
 C730 C 0.56894 0.03090 0.64742
 C731 C 0.58778 0.01592 0.65063
 C732 C 0.58638 0.00197 0.67101
 C733 C 0.56589 0.00257 0.68759
 C734 C 0.54656 0.01708 0.68398
 N735 N 0.60733 0.01437 0.63225
 N736 N 0.62583 0.00209 0.63391
 C737 C 0.64438 0.00015 0.61452
 C738 C 0.66574 -0.01127 0.61789
 C739 C 0.68371 -0.01405 0.59893
 C740 C 0.68046 -0.00562 0.57616
 C741 C 0.65893 0.00584 0.57293
 C742 C 0.64115 0.00880 0.59190
 H743 H 0.53422 0.04331 0.66091
 H744 H 0.56987 0.04178 0.63182
 H745 H 0.60073 -0.00982 0.67380
 H746 H 0.56478 -0.00893 0.70275
 H747 H 0.66845 -0.01805 0.63522
 H748 H 0.70018 -0.02270 0.60215
 H749 H 0.65549 0.01206 0.55555
 H750 H 0.62468 0.01746 0.58872
 C751 C -0.19073 0.51337 0.93294
 C752 C -0.17492 0.51504 0.91209
 C753 C -0.15285 0.50365 0.91008
 C754 C -0.14708 0.48987 0.92890
 C755 C -0.16280 0.48803 0.94962
 C756 C -0.18479 0.50015 0.95242
 N757 N -0.13635 0.50651 0.88909
 N758 N -0.11486 0.49898 0.88821
 C759 C -0.09749 0.50124 0.86787
 C760 C -0.07374 0.49424 0.86986
 C761 C -0.05612 0.49603 0.85057
 C762 C -0.06201 0.50466 0.82866
 C763 C -0.08594 0.51179 0.82670
 C764 C -0.10357 0.51014 0.84618
 H765 H -0.20691 0.52359 0.93399
 H766 H -0.17962 0.52576 0.89770
 H767 H -0.13038 0.48039 0.92762
 H768 H -0.15777 0.47632 0.96302
 H769 H -0.06883 0.48749 0.88655
 H770 H -0.03776 0.49092 0.85296
 H771 H -0.09115 0.51830 0.81003
 H772 H -0.12190 0.51559 0.84424
 C773 C 0.44299 0.02259 0.31828
 C774 C 0.42159 0.02460 0.33342
 C775 C 0.41455 0.00705 0.35032
 C776 C 0.42918 -0.01268 0.35188
 C777 C 0.45065 -0.01457 0.33695
 C778 C 0.45784 0.00309 0.32007
 N779 N 0.39294 0.00987 0.36609
 N780 N 0.38468 -0.00675 0.38020
 C781 C 0.36369 -0.00420 0.39680
 C782 C 0.35497 -0.02422 0.41029
 C783 C 0.33529 -0.02218 0.42751
 C784 C 0.32406 0.00011 0.43167
 C785 C 0.33270 0.02017 0.41793
 C786 C 0.35231 0.01803 0.40054
 H787 H 0.44823 0.03653 0.30553
 H788 H 0.41054 0.03993 0.33208
 H789 H 0.42418 -0.02648 0.36480
 H790 H 0.46161 -0.02993 0.33852
 H791 H 0.36369 -0.04139 0.40766
 H792 H 0.32932 -0.03782 0.43806
 H793 H 0.32429 0.03751 0.42066
 H794 H 0.35881 0.03379 0.39035
 C795 C 0.17366 0.55053 0.95704
 C796 C 0.16161 0.55367 0.93631
 C797 C 0.16723 0.53994 0.91478
 C798 C 0.18595 0.52371 0.91386
 C799 C 0.19805 0.52053 0.93464
 C800 C 0.19155 0.53345 0.95659
 N801 N 0.15229 0.54141 0.89487
 N802 N 0.15606 0.52968 0.87456
 C803 C 0.13962 0.53016 0.85562
 C804 C 0.14543 0.51850 0.83300
 C805 C 0.12883 0.51716 0.81477
 C806 C 0.10594 0.52729 0.81898
 C807 C 0.10039 0.53930 0.84166
 C808 C 0.11707 0.54082 0.85973
 H809 H 0.16853 0.56099 0.97361
 H810 H 0.14726 0.56626 0.93722
 H811 H 0.19056 0.51285 0.89741
 H812 H 0.21161 0.50710 0.93380
 H813 H 0.16273 0.51017 0.82959
 H814 H 0.13386 0.50807 0.79745
 H815 H 0.08279 0.54686 0.84578
 H816 H 0.11200 0.54972 0.87714
 C817 C 0.57044 0.00080 0.30445
 C818 C 0.59162 -0.00200 0.31646
 C819 C 0.59026 -0.01660 0.33624
 C820 C 0.56757 -0.02921 0.34335
 C821 C 0.54645 -0.02661 0.33126
 C822 C 0.54751 -0.01118 0.31197
 N823 N 0.61179 -0.01754 0.34943
 N824 N 0.61057 -0.02756 0.36946
 C825 C 0.63154 -0.02825 0.38343
 C826 C 0.62778 -0.03688 0.40651
 C827 C 0.64750 -0.03685 0.42121
 C828 C 0.67158 -0.02844 0.41294
 C829 C 0.67537 -0.02013 0.38951
 C830 C 0.65550 -0.01994 0.37490
 H831 H 0.57187 0.01302 0.28984
 H832 H 0.60899 0.00784 0.31081
 H833 H 0.56607 -0.04083 0.35844
 H834 H 0.52922 -0.03652 0.33718
 H835 H 0.60937 -0.04318 0.41333
 H836 H 0.64373 -0.04289 0.43928
 H837 H 0.69368 -0.01384 0.38244
 H838 H 0.65885 -0.01327 0.35703
 C839 C 0.79556 0.47479 0.05771
 C840 C 0.80735 0.47115 0.07859
 C841 C 0.83056 0.48340 0.08275
 C842 C 0.84153 0.49995 0.06611
 C843 C 0.82975 0.50371 0.04543
 C844 C 0.80684 0.49086 0.04073
 N845 N 0.84297 0.47859 0.10358
 N846 N 0.86533 0.48689 0.10591
 C847 C 0.87896 0.48302 0.12614
 C848 C 0.90392 0.49159 0.12559
 C849 C 0.91802 0.48874 0.14496
 C850 C 0.90734 0.47741 0.16553
 C851 C 0.88225 0.46847 0.16597
 C852 C 0.86812 0.47125 0.14638
 H853 H 0.77796 0.46457 0.05455
 H854 H 0.79864 0.45840 0.09128
 H855 H 0.85929 0.50994 0.06901
 H856 H 0.83864 0.51670 0.03305
 H857 H 0.91248 0.50054 0.11001
 H858 H 0.93740 0.49529 0.14373
 H859 H 0.87346 0.45979 0.18159
 H860 H 0.84880 0.46451 0.14716
 C861 C 0.43565 0.02767 0.70393
 C862 C 0.41369 0.02707 0.69212
 C863 C 0.41041 0.01206 0.67088
 C864 C 0.42897 -0.00313 0.66209
 C865 C 0.45076 -0.00264 0.67387
 C866 C 0.45461 0.01315 0.69460
 N867 N 0.38871 0.01309 0.65794
 N868 N 0.38705 0.00231 0.63701
 C869 C 0.36624 0.00282 0.62282
 C870 C 0.36767 -0.00784 0.59927
 C871 C 0.34813 -0.00748 0.58448
 C872 C 0.32648 0.00335 0.59308
 C873 C 0.32503 0.01405 0.61686
 C874 C 0.34480 0.01384 0.63164
 H875 H 0.43814 0.04006 0.71983
 H876 H 0.39952 0.03883 0.69913
 H877 H 0.42682 -0.01516 0.64590
 H878 H 0.46476 -0.01448 0.66658
 H879 H 0.38419 -0.01622 0.59225
 H880 H 0.35020 -0.01535 0.56613
 H881 H 0.30856 0.02235 0.62410
 H882 H 0.34331 0.02216 0.64986
   
