data_POSCAR
  _audit_creation_date              2014-09-24
  _audit_creation_method            'ToBaCCo'
  _symmetry_space_group_name_H-M    'P1'
  _symmetry_Int_Tables_number       1
  _symmetry_cell_setting            triclinic
  loop_
  _symmetry_equiv_pos_as_xyz
 x,y,z
_cell_length_a 17.5019
_cell_length_b 17.1538
_cell_length_c 39.1304
_cell_angle_alpha 95.729800
_cell_angle_beta 89.802800
_cell_angle_gamma 120.748300
loop_
  _atom_site_label
  _atom_site_type_symbol
  _atom_site_fract_x
  _atom_site_fract_y
  _atom_site_fract_z
C1 C 0.05550 -0.00296 0.50035
 C2 C 0.94439 -0.04340 0.15980
 C3 C -0.00483 1.04793 0.83990
 O4 O 0.36458 -0.05130 -0.03966
 O5 O 0.50264 -0.07763 0.02443
 O6 O 0.34538 -0.09282 0.02325
 O7 O 0.50623 -0.06656 -0.04115
 O8 O 0.58340 0.08261 -0.02602
 O9 O 0.41795 0.05645 0.03805
 O10 O 0.57480 0.07154 0.03956
 O11 O 0.44144 0.09797 -0.02487
 Cu12 Cu 0.42223 -0.08673 -0.00970
 Cu13 Cu 0.51159 0.09179 0.00810
 C14 C 0.37977 0.02854 -0.04276
 C15 C 0.56322 -0.00648 0.04246
 C16 C 0.35305 -0.02338 0.04115
 C17 C 0.57293 0.01144 -0.04404
 O18 O -0.01908 0.57038 0.63562
 O19 O -0.03925 0.42036 0.70115
 O20 O -0.05314 0.56445 0.70023
 O21 O -0.03752 0.40778 0.63425
 O22 O 0.10877 0.48177 0.64344
 O23 O 0.09329 0.64304 0.70944
 O24 O 0.10727 0.49876 0.71006
 O25 O 0.12731 0.64452 0.64441
 Cu26 Cu -0.05150 0.48308 0.66681
 Cu27 Cu 0.12351 0.57468 0.67760
 C28 C 0.05827 0.63404 0.62944
 C29 C 0.03144 0.43475 0.71663
 C30 C 0.01657 0.63036 0.71583
 C31 C 0.03717 0.41636 0.62809
 O32 O 0.62362 0.51470 0.35681
 O33 O 0.44644 0.35522 0.29083
 O34 O 0.60482 0.49988 0.29029
 O35 O 0.47927 0.35171 0.35554
 O36 O 0.40713 0.42562 0.36546
 O37 O 0.53673 0.57797 0.30031
 O38 O 0.37864 0.43348 0.30118
 O39 O 0.55135 0.58837 0.36709
 Cu40 Cu 0.54523 0.42274 0.32250
 Cu41 Cu 0.46186 0.51397 0.33461
 C42 C 0.61751 0.57965 0.37271
 C43 C 0.38236 0.36807 0.28501
 C44 C 0.59299 0.56414 0.28434
 C45 C 0.42084 0.36174 0.37103
 C46 C 0.04055 0.21678 0.56316
 C47 C -0.03754 0.13300 0.55388
 C48 C -0.03428 0.06243 0.53377
 C49 C 0.04707 0.07475 0.52143
 C50 C 0.12519 0.15896 0.53304
 C51 C 0.12173 0.22901 0.55290
 C52 C 0.03928 0.28852 0.58520
 C53 C 0.03945 0.34828 0.60434
 H54 H -0.10074 0.12125 0.56294
 H55 H -0.09531 -0.00299 0.52958
 H56 H 0.19066 0.17183 0.52772
 H57 H 0.18316 0.29235 0.56095
 C58 C 0.75560 0.74268 0.21925
 C59 C 0.80010 0.72071 0.19374
 C60 C 0.86155 0.78804 0.17431
 C61 C 0.88068 0.87891 0.18077
 C62 C 0.83259 0.89830 0.20590
 C63 C 0.77165 0.83138 0.22504
 C64 C 0.69546 0.67625 0.24065
 C65 C 0.64696 0.62408 0.26002
 H66 H 0.78723 0.65164 0.18885
 H67 H 0.89251 0.76818 0.15409
 H68 H 0.84324 0.96649 0.21093
 H69 H 0.73734 0.84911 0.24457
 C70 C 0.20812 0.06279 -0.10047
 C71 C 0.22446 0.09776 -0.13220
 C72 C 0.15705 0.10005 -0.15050
 C73 C 0.07155 0.06823 -0.13732
 C74 C 0.05820 0.03483 -0.10468
 C75 C 0.12565 0.03336 -0.08655
 C76 C 0.27299 0.05195 -0.08235
 C77 C 0.32320 0.04076 -0.06533
 H78 H 0.28811 0.12011 -0.14339
 H79 H 0.17032 0.12220 -0.17593
 H80 H -0.00612 0.00377 -0.09362
 H81 H 0.11190 0.00516 -0.06215
 C82 C 0.08305 0.82523 0.56894
 C83 C 0.03228 0.86490 0.57755
 C84 C 0.02951 0.92503 0.55687
 C85 C 0.07881 0.94923 0.52697
 C86 C 0.13279 0.91060 0.51949
 C87 C 0.13491 0.84960 0.54029
 C88 C 0.07661 0.75583 0.58874
 C89 C 0.06814 0.69859 0.60651
 H90 H -0.00862 0.84626 0.59959
 H91 H -0.01589 0.94803 0.56377
 H92 H 0.16679 0.91975 0.49582
 H93 H 0.17369 0.81819 0.53304
 C94 C 0.16615 0.18303 0.22286
 C95 C 0.11125 0.10131 0.23646
 C96 C 0.03671 0.03096 0.21735
 C97 C 0.01333 0.04097 0.18410
 C98 C 0.06908 0.12509 0.17099
 C99 C 0.14442 0.19562 0.19029
 C100 C 0.24577 0.25148 0.24256
 C101 C 0.31012 0.30549 0.26098
 H102 H 0.12796 0.09048 0.26152
 H103 H 0.00103 -0.03301 0.22825
 H104 H 0.05651 0.13460 0.14511
 H105 H 0.18705 0.25867 0.17939
 C106 C 0.76969 0.02503 -0.10363
 C107 C 0.75482 -0.04409 -0.12976
 C108 C 0.82622 -0.03969 -0.14767
 C109 C 0.91419 0.03328 -0.13917
 C110 C 0.92688 0.10297 -0.11310
 C111 C 0.85583 0.09835 -0.09541
 C112 C 0.69779 0.02072 -0.08431
 C113 C 0.63999 0.01776 -0.06666
 H114 H 0.68796 -0.10090 -0.13651
 H115 H 0.81166 -0.09204 -0.16868
 H116 H 0.99269 0.16181 -0.10656
 H117 H 0.86818 0.15242 -0.07534
 C118 C 0.14611 -0.05859 0.09902
 C119 C 0.12937 -0.09038 0.13136
 C120 C 0.05928 -0.09305 0.14971
 C121 C 0.00394 -0.06464 0.13596
 C122 C 0.02134 -0.03492 0.10279
 C123 C 0.09068 -0.03298 0.08457
 C124 C 0.22221 -0.04710 0.08081
 C125 C 0.28391 -0.03564 0.06374
 H126 H 0.17239 -0.10984 0.14295
 H127 H 0.05134 -0.11248 0.17555
 H128 H -0.01434 -0.00705 0.09139
 H129 H 0.10352 -0.00739 0.05968
 C130 C 0.82050 0.77780 0.43779
 C131 C 0.88917 0.76526 0.44791
 C132 C 0.96271 0.83509 0.46775
 C133 C 0.96913 0.91940 0.47947
 C134 C 0.90027 0.93194 0.46734
 C135 C 0.82643 0.86160 0.44725
 C136 C 0.74756 0.70642 0.41569
 C137 C 0.68797 0.64708 0.39650
 H138 H 0.88704 0.70187 0.43974
 H139 H 1.01512 0.82200 0.47295
 H140 H 0.90490 0.99742 0.47164
 H141 H 0.77518 0.87357 0.43831
 C142 C 0.01813 0.25744 0.78145
 C143 C -0.05084 0.16726 0.77419
 C144 C -0.05619 0.10057 0.79318
 C145 C 0.00881 0.12133 0.81966
 C146 C 0.07643 0.21416 0.82761
 C147 C 0.08156 0.28117 0.80829
 C148 C 0.02358 0.32378 0.76031
 C149 C 0.02646 0.37557 0.74101
 H150 H -0.10081 0.14821 0.75370
 H151 H -0.11169 0.03149 0.78701
 H152 H 0.12452 0.23592 0.84899
 H153 H 0.13467 0.35148 0.81441
 C154 C 0.74464 -0.02020 0.10253
 C155 C 0.79991 0.05025 0.12805
 C156 C 0.86618 0.04579 0.14627
 C157 C 0.87924 -0.02870 0.13869
 C158 C 0.82145 -0.09957 0.11324
 C159 C 0.75574 -0.09491 0.09523
 C160 C 0.67773 -0.01590 0.08294
 C161 C 0.62341 -0.01289 0.06516
 H162 H 0.79125 0.10819 0.13408
 H163 H 0.90493 0.09938 0.16677
 H164 H 0.82722 -0.15938 0.10745
 H165 H 0.71325 -0.14999 0.07563
 C166 C 0.25484 0.16909 0.43140
 C167 C 0.16432 0.12921 0.42300
 C168 C 0.10142 0.06895 0.44377
 C169 C 0.12660 0.04481 0.47355
 C170 C 0.21929 0.08353 0.48076
 C171 C 0.28242 0.14470 0.45989
 C172 C 0.31774 0.23888 0.41161
 C173 C 0.36637 0.29653 0.39388
 H174 H 0.14199 0.14786 0.40109
 H175 H 0.03297 0.04585 0.43704
 H176 H 0.24422 0.07437 0.50432
 H177 H 0.35268 0.17626 0.46696
 C178 C -0.01093 0.81868 0.77764
 C179 C 0.02122 0.90169 0.76441
 C180 C 0.01791 0.97294 0.78324
 C181 C -0.02010 0.96277 0.81577
 C182 C -0.05316 0.87752 0.82860
 C183 C -0.04925 0.80600 0.80958
 C184 C -0.00141 0.74880 0.75814
 C185 C 0.00786 0.69382 0.73981
 H186 H 0.05198 0.91263 0.73989
 H187 H 0.05000 1.03769 0.77275
 H188 H -0.07857 0.86760 0.85404
 H189 H -0.07372 0.74193 0.82021
   
