data_POSCAR
  _audit_creation_date              2014-09-24
  _audit_creation_method            'ToBaCCo'
  _symmetry_space_group_name_H-M    'P1'
  _symmetry_Int_Tables_number       1
  _symmetry_cell_setting            triclinic
  loop_
  _symmetry_equiv_pos_as_xyz
 x,y,z
_cell_length_a 48.7061
_cell_length_b 48.7385
_cell_length_c 26.2820
_cell_angle_alpha 89.953700
_cell_angle_beta 90.182700
_cell_angle_gamma 87.551400
loop_
  _atom_site_label
  _atom_site_type_symbol
  _atom_site_fract_x
  _atom_site_fract_y
  _atom_site_fract_z
C1 C -0.02756 0.26186 0.03193
 C2 C -0.02658 0.26187 -0.02253
 C3 C -0.00074 0.25991 -0.04663
 C4 C 0.02427 0.25938 -0.01935
 C5 C 0.02301 0.26153 0.03469
 C6 C -0.00260 0.26255 0.05902
 H7 H -0.00276 0.26272 0.10024
 H8 H -0.00016 0.25894 -0.08773
 C9 C 0.47322 0.77514 0.52195
 C10 C 0.47373 0.77231 0.46849
 C11 C 0.49900 0.77064 0.44322
 C12 C 0.52392 0.77192 0.46996
 C13 C 0.52335 0.77572 0.52361
 C14 C 0.49792 0.77706 0.54881
 H15 H 0.49733 0.77921 0.58986
 H16 H 0.49924 0.76763 0.40235
 C17 C 1.02592 0.72986 0.02361
 C18 C 1.02591 0.73305 -0.03029
 C19 C 1.00080 0.73556 -0.05661
 C20 C 0.97530 0.73627 -0.03131
 C21 C 0.97537 0.73305 0.02265
 C22 C 1.00046 0.73003 0.04878
 H23 H 0.99996 0.72650 0.08950
 H24 H 1.00138 0.73932 -0.09724
 C25 C 0.52455 0.22675 0.53441
 C26 C 0.52575 0.22628 0.48065
 C27 C 0.50133 0.22558 0.45243
 C28 C 0.47577 0.22550 0.47668
 C29 C 0.47450 0.22617 0.53046
 C30 C 0.49899 0.22674 0.55869
 H31 H 0.49813 0.22765 0.59988
 H32 H 0.50218 0.22579 0.41119
 C33 C 0.73087 -0.02169 0.02871
 C34 C 0.73380 -0.02068 -0.02530
 C35 C 0.73519 0.00488 -0.04966
 C36 C 0.73441 0.02956 -0.02224
 C37 C 0.73153 0.02870 0.03134
 C38 C 0.72999 0.00328 0.05583
 H39 H 0.72693 0.00319 0.09667
 H40 H 0.73821 0.00550 -0.09050
 C41 C 0.22903 0.47323 0.52949
 C42 C 0.23485 0.47215 0.47660
 C43 C 0.23780 0.49681 0.44980
 C44 C 0.23577 0.52241 0.47430
 C45 C 0.22992 0.52339 0.52714
 C46 C 0.22660 0.49882 0.55375
 H47 H 0.22208 0.49964 0.59412
 H48 H 0.24272 0.49601 0.40961
 C49 C 0.26837 1.02233 0.02625
 C50 C 0.26932 1.02192 -0.02844
 C51 C 0.26912 0.99639 -0.05354
 C52 C 0.26928 0.97164 -0.02681
 C53 C 0.26980 0.97180 0.02673
 C54 C 0.26941 0.99695 0.05255
 H55 H 0.26803 0.99649 0.09369
 H56 H 0.26991 0.99543 -0.09474
 C57 C 0.77350 0.52769 0.52786
 C58 C 0.77114 0.52739 0.47393
 C59 C 0.77126 0.50212 0.44836
 C60 C 0.77273 0.47727 0.47508
 C61 C 0.77406 0.47749 0.52877
 C62 C 0.77469 0.50264 0.55448
 H63 H 0.77589 0.50268 0.59568
 H64 H 0.76916 0.50173 0.40728
 O65 O 0.22404 0.26196 0.19286
 O66 O 0.29366 0.25218 0.24627
 O67 O 0.26204 0.22324 0.18628
 O68 O 0.25461 0.28994 0.25164
 O69 O 0.23939 0.26899 0.31997
 O70 O 0.24575 0.20248 0.25389
 O71 O 0.27710 0.23012 0.31218
 O72 O 0.20724 0.24121 0.25987
 Cu73 Cu 0.26045 0.25875 0.21242
 Cu74 Cu 0.24053 0.23368 0.29321
 C75 C 0.20371 0.25331 0.21731
 C76 C 0.29719 0.23972 0.28841
 C77 C 0.25492 0.20160 0.20878
 C78 C 0.24598 0.29071 0.29713
 O79 O 0.75299 0.79410 0.24676
 O80 O 0.76254 0.72628 0.30684
 O81 O 0.79198 0.75577 0.24619
 O82 O 0.72443 0.76402 0.30763
 O83 O 0.70494 0.74587 0.24017
 O84 O 0.77289 0.73638 0.17981
 O85 O 0.74345 0.70714 0.23993
 O86 O 0.73410 0.77520 0.17971
 Cu87 Cu 0.76005 0.76206 0.28335
 Cu88 Cu 0.73696 0.73928 0.20307
 C89 C 0.74188 0.79633 0.20307
 C90 C 0.75418 0.70529 0.28396
 C91 C 0.79406 0.74453 0.20269
 C92 C 0.70329 0.75607 0.28455
 O93 O 0.79346 0.24531 0.25788
 O94 O 0.72779 0.23789 0.32403
 O95 O 0.75657 0.20834 0.25946
 O96 O 0.76476 0.27545 0.32071
 O97 O 0.74285 0.29581 0.25628
 O98 O 0.73309 0.22864 0.19701
 O99 O 0.70580 0.25959 0.26123
 O100 O 0.77120 0.26419 0.19235
 Cu101 Cu 0.76281 0.23972 0.29707
 Cu102 Cu 0.73611 0.26420 0.22021
 C103 C 0.79343 0.25558 0.21354
 C104 C 0.70564 0.24759 0.30412
 C105 C 0.74331 0.20701 0.21786
 C106 C 0.75518 0.29703 0.29878
 O107 O 0.20685 0.74982 0.24675
 O108 O 0.27404 0.76164 0.30480
 O109 O 0.24142 0.78883 0.24293
 O110 O 0.23954 0.72261 0.31015
 O111 O 0.25743 0.70137 0.24294
 O112 O 0.26456 0.76843 0.18041
 O113 O 0.29448 0.73807 0.24282
 O114 O 0.22749 0.73087 0.18012
 Cu115 Cu 0.23831 0.75775 0.28268
 Cu116 Cu 0.26303 0.73267 0.20487
 C117 C 0.20565 0.73871 0.20314
 C118 C 0.29569 0.75141 0.28419
 C119 C 0.25392 0.79002 0.20072
 C120 C 0.24788 0.70074 0.28777
 O121 O 0.70511 0.26126 0.75664
 O122 O 0.77308 0.26982 0.81508
 O123 O 0.74182 0.29810 0.75200
 O124 O 0.73670 0.23248 0.82010
 O125 O 0.75516 0.21036 0.75432
 O126 O 0.76268 0.27623 0.68847
 O127 O 0.79259 0.24669 0.75172
 O128 O 0.72491 0.23932 0.69201
 Cu129 Cu 0.73713 0.26758 0.79246
 Cu130 Cu 0.76079 0.24105 0.71497
 C131 C 0.70349 0.24883 0.71436
 C132 C 0.79446 0.25950 0.79359
 C133 C 0.75349 0.29837 0.70890
 C134 C 0.74496 0.21031 0.79866
 O135 O 0.29222 0.74250 0.73836
 O136 O 0.22676 0.73841 0.80707
 O137 O 0.25436 0.70687 0.74302
 O138 O 0.26506 0.77379 0.80230
 O139 O 0.24015 0.79415 0.74162
 O140 O 0.23431 0.72751 0.67713
 O141 O 0.20450 0.75628 0.74061
 O142 O 0.27072 0.76593 0.67705
 Cu143 Cu 0.26177 0.73825 0.77911
 Cu144 Cu 0.23534 0.76304 0.70240
 C145 C 0.29268 0.75548 0.69650
 C146 C 0.20451 0.74634 0.78523
 C147 C 0.24288 0.70570 0.69967
 C148 C 0.25384 0.79529 0.78271
 O149 O 0.25082 0.29090 0.75684
 O150 O 0.26545 0.22245 0.81243
 O151 O 0.29104 0.25453 0.75111
 O152 O 0.22500 0.25852 0.81902
 O153 O 0.20436 0.24173 0.75157
 O154 O 0.27120 0.23390 0.68681
 O155 O 0.24360 0.20378 0.74841
 O156 O 0.23179 0.27194 0.68997
 Cu157 Cu 0.26004 0.25860 0.79145
 Cu158 Cu 0.23571 0.23596 0.71255
 C159 C 0.23929 0.29312 0.71351
 C160 C 0.25667 0.20140 0.79022
 C161 C 0.29247 0.24317 0.70768
 C162 C 0.20345 0.25089 0.79675
 O163 O 0.72672 0.77130 0.67845
 O164 O 0.79514 0.76146 0.73764
 O165 O 0.76544 0.73224 0.67769
 O166 O 0.75690 0.80031 0.73807
 O167 O 0.73841 0.78119 0.80543
 O168 O 0.74657 0.71337 0.74466
 O169 O 0.77606 0.74316 0.80520
 O170 O 0.70803 0.75214 0.74529
 Cu171 Cu 0.76285 0.76817 0.70107
 Cu172 Cu 0.74025 0.74542 0.78164
 C173 C 0.70567 0.76336 0.70179
 C174 C 0.79707 0.75122 0.78202
 C175 C 0.75751 0.71115 0.70094
 C176 C 0.74675 0.80216 0.78244
 C177 C 0.25982 0.09730 0.10731
 C178 C 0.24540 0.09425 0.06157
 C179 C 0.24662 0.06875 0.03698
 C180 C 0.26415 0.04692 0.05502
 C181 C 0.27764 0.05023 0.10228
 C182 C 0.27538 0.07527 0.12861
 C183 C 0.25875 0.12416 0.13319
 C184 C 0.27236 0.12696 0.17999
 C185 C 0.27090 0.15244 0.20485
 C186 C 0.25687 0.17512 0.18215
 C187 C 0.24380 0.17220 0.13482
 C188 C 0.24423 0.14655 0.11055
 C189 C 0.28892 0.07893 0.17528
 C190 C 0.28719 0.10425 0.20080
 C191 C 0.23058 0.11694 0.04062
 C192 C 0.23027 0.14274 0.06440
 H193 H 0.30094 0.06207 0.19226
 H194 H 0.29783 0.10616 0.23681
 H195 H 0.21956 0.11487 0.00505
 H196 H 0.21889 0.15979 0.04664
 H197 H 0.23438 0.06620 0.00296
 H198 H 0.29113 0.03394 0.11744
 H199 H 0.28097 0.15482 0.24134
 H200 H 0.23269 0.18966 0.11778
 C201 C 0.76983 0.60472 0.60657
 C202 C 0.75309 0.58361 0.62247
 C203 C 0.75507 0.55817 0.59761
 C204 C 0.77375 0.55372 0.55737
 C205 C 0.79133 0.57471 0.54356
 C206 C 0.78900 0.60049 0.56726
 C207 C 0.76691 0.63192 0.63103
 C208 C 0.78297 0.65333 0.61400
 C209 C 0.77972 0.67930 0.63678
 C210 C 0.76089 0.68377 0.67686
 C211 C 0.74515 0.66196 0.69372
 C212 C 0.74789 0.63606 0.67063
 C213 C 0.80497 0.62230 0.55170
 C214 C 0.80191 0.64831 0.57450
 C215 C 0.73429 0.58854 0.66218
 C216 C 0.73184 0.61429 0.68604
 H217 H 0.81973 0.61933 0.52123
 H218 H 0.81447 0.66462 0.56105
 H219 H 0.72129 0.57240 0.67482
 H220 H 0.71707 0.61723 0.71649
 H221 H 0.74147 0.54212 0.60836
 H222 H 0.80605 0.57125 0.51315
 H223 H 0.79200 0.69593 0.62369
 H224 H 0.73046 0.66526 0.72424
 C225 C 0.73084 0.90254 0.10727
 C226 C 0.71564 0.90567 0.06208
 C227 C 0.71431 0.93126 0.03757
 C228 C 0.72928 0.95337 0.05633
 C229 C 0.74353 0.94992 0.10306
 C230 C 0.74445 0.92462 0.12844
 C231 C 0.73299 0.87548 0.13247
 C232 C 0.74832 0.87237 0.17758
 C233 C 0.75076 0.84652 0.20089
 C234 C 0.73830 0.82375 0.17907
 C235 C 0.72284 0.82728 0.13390
 C236 C 0.72006 0.85315 0.11052
 C237 C 0.75942 0.92077 0.17385
 C238 C 0.76124 0.89510 0.19812
 C239 C 0.70256 0.88297 0.04170
 C240 C 0.70483 0.85713 0.06539
 H241 H 0.77001 0.93768 0.19058
 H242 H 0.77312 0.89296 0.23293
 H243 H 0.69084 0.88510 0.00670
 H244 H 0.69471 0.84008 0.04809
 H245 H 0.70183 0.93382 0.00357
 H246 H 0.75538 0.96637 0.11831
 H247 H 0.76276 0.84406 0.23554
 H248 H 0.71305 0.80994 0.11690
 C249 C 0.22795 0.39850 0.61496
 C250 C 0.21038 0.40195 0.57273
 C251 C 0.20933 0.42711 0.54665
 C252 C 0.22673 0.44814 0.56110
 C253 C 0.24363 0.44457 0.60436
 C254 C 0.24429 0.41982 0.63151
 C255 C 0.22991 0.37181 0.64148
 C256 C 0.24762 0.36837 0.68348
 C257 C 0.24995 0.34277 0.70778
 C258 C 0.23516 0.32053 0.68975
 C259 C 0.21734 0.32439 0.64772
 C260 C 0.21455 0.35006 0.62356
 C261 C 0.26157 0.41568 0.67396
 C262 C 0.26310 0.39042 0.69966
 C263 C 0.19492 0.37987 0.55654
 C264 C 0.19706 0.35433 0.58138
 H265 H 0.27421 0.43202 0.68713
 H266 H 0.27685 0.38801 0.73200
 H267 H 0.18140 0.38221 0.52385
 H268 H 0.18507 0.33773 0.56721
 H269 H 0.19600 0.42994 0.51378
 H270 H 0.25705 0.46070 0.61564
 H271 H 0.26388 0.33996 0.73980
 H272 H 0.20582 0.30742 0.63365
 C273 C 0.89718 0.25742 0.11147
 C274 C 0.90122 0.24217 0.06673
 C275 C 0.92677 0.24226 0.04245
 C276 C 0.94769 0.25926 0.05999
 C277 C 0.94331 0.27381 0.10608
 C278 C 0.91825 0.27276 0.13204
 C279 C 0.87033 0.25739 0.13721
 C280 C 0.86663 0.27179 0.18313
 C281 C 0.84126 0.27115 0.20807
 C282 C 0.81954 0.25708 0.18632
 C283 C 0.82328 0.24326 0.13979
 C284 C 0.84888 0.24291 0.11546
 C285 C 0.91367 0.28720 0.17772
 C286 C 0.88839 0.28649 0.20312
 C287 C 0.87945 0.22752 0.04659
 C288 C 0.85363 0.22812 0.07026
 H289 H 0.92979 0.29908 0.19409
 H290 H 0.88577 0.29773 0.23844
 H291 H 0.88229 0.21581 0.01183
 H292 H 0.83732 0.21675 0.05324
 H293 H 0.93014 0.22943 0.00923
 H294 H 0.95876 0.28712 0.12063
 H295 H 0.83823 0.28175 0.24401
 H296 H 0.80655 0.23213 0.12357
 C297 C 0.39693 0.76743 0.59921
 C298 C 0.41518 0.74445 0.59467
 C299 C 0.44034 0.74731 0.56986
 C300 C 0.44742 0.77300 0.55083
 C301 C 0.42956 0.79610 0.55776
 C302 C 0.40386 0.79328 0.58071
 C303 C 0.37004 0.76433 0.62367
 C304 C 0.35135 0.78705 0.62651
 C305 C 0.32563 0.78386 0.64924
 C306 C 0.31910 0.75846 0.67050
 C307 C 0.33816 0.73601 0.66794
 C308 C 0.36353 0.73870 0.64377
 C309 C 0.38479 0.81561 0.58488
 C310 C 0.35889 0.81250 0.60699
 C311 C 0.40779 0.71907 0.61464
 C312 C 0.38249 0.71630 0.63918
 H313 H 0.38982 0.83561 0.57045
 H314 H 0.34471 0.83020 0.60911
 H315 H 0.42172 0.70123 0.61146
 H316 H 0.37766 0.69641 0.65435
 H317 H 0.45433 0.72962 0.56483
 H318 H 0.43539 0.81600 0.54409
 H319 H 0.31102 0.80122 0.65167
 H320 H 0.33303 0.71640 0.68408
 C321 C 0.10065 0.72779 0.10583
 C322 C 0.07741 0.74178 0.12605
 C323 C 0.05239 0.74128 0.09975
 C324 C 0.05041 0.72715 0.05298
 C325 C 0.07365 0.71154 0.03549
 C326 C 0.09895 0.71248 0.06086
 C327 C 0.12742 0.72980 0.13158
 C328 C 0.15089 0.71665 0.11034
 C329 C 0.17647 0.71944 0.13406
 C330 C 0.17859 0.73511 0.17887
 C331 C 0.15471 0.74776 0.20003
 C332 C 0.12912 0.74534 0.17635
 C333 C 0.12276 0.69909 0.04131
 C334 C 0.14833 0.70125 0.06551
 C335 C 0.07986 0.75685 0.17126
 C336 C 0.10527 0.75852 0.19610
 H337 H 0.12173 0.68729 0.00649
 H338 H 0.16627 0.69096 0.04877
 H339 H 0.06204 0.76771 0.18729
 H340 H 0.10632 0.77054 0.23065
 H341 H 0.03501 0.75354 0.11412
 H342 H 0.07224 0.69913 0.00148
 H343 H 0.19468 0.70952 0.11756
 H344 H 0.15609 0.75993 0.23438
 C345 C 0.59901 0.23543 0.61792
 C346 C 0.58098 0.25842 0.61094
 C347 C 0.55631 0.25534 0.58423
 C348 C 0.54954 0.22944 0.56569
 C349 C 0.56704 0.20636 0.57546
 C350 C 0.59227 0.20937 0.60020
 C351 C 0.62559 0.23877 0.64368
 C352 C 0.64418 0.21606 0.64835
 C353 C 0.66983 0.21957 0.67127
 C354 C 0.67645 0.24531 0.69083
 C355 C 0.65738 0.26772 0.68709
 C356 C 0.63204 0.26468 0.66260
 C357 C 0.61113 0.18701 0.60662
 C358 C 0.63676 0.19035 0.62987
 C359 C 0.58821 0.28403 0.63016
 C360 C 0.61320 0.28705 0.65596
 H361 H 0.60621 0.16686 0.59283
 H362 H 0.65088 0.17266 0.63345
 H363 H 0.57444 0.30189 0.62520
 H364 H 0.61797 0.30715 0.67024
 H365 H 0.54256 0.27302 0.57714
 H366 H 0.56135 0.18629 0.56242
 H367 H 0.68450 0.20228 0.67458
 H368 H 0.66264 0.28759 0.70186
 C369 C 0.73998 0.10640 0.89966
 C370 C 0.75701 0.10076 0.94190
 C371 C 0.75621 0.07506 0.96566
 C372 C 0.73732 0.05574 0.94945
 C373 C 0.72060 0.06165 0.90667
 C374 C 0.72207 0.08685 0.88127
 C375 C 0.74090 0.13331 0.87422
 C376 C 0.72460 0.13858 0.83080
 C377 C 0.72605 0.16397 0.80604
 C378 C 0.74295 0.18414 0.82551
 C379 C 0.75873 0.17887 0.86957
 C380 C 0.75812 0.15323 0.89371
 C381 C 0.70580 0.09301 0.83817
 C382 C 0.70723 0.11835 0.81307
 C383 C 0.77420 0.12107 0.95996
 C384 C 0.77456 0.14696 0.93653
 H385 H 0.69194 0.07808 0.82357
 H386 H 0.69450 0.12222 0.77974
 H387 H 0.78726 0.11701 0.99279
 H388 H 0.78798 0.16211 0.95184
 H389 H 0.76973 0.07034 0.99760
 H390 H 0.70616 0.04681 0.89378
 H391 H 0.71394 0.16821 0.77202
 H392 H 0.77194 0.19445 0.88405
 C393 C 0.24393 0.59721 0.39088
 C394 C 0.25935 0.59278 0.43558
 C395 C 0.25813 0.56753 0.46083
 C396 C 0.24009 0.54760 0.44378
 C397 C 0.22520 0.55218 0.39832
 C398 C 0.22727 0.57686 0.37140
 C399 C 0.24500 0.62379 0.36429
 C400 C 0.23024 0.62792 0.31869
 C401 C 0.23158 0.65315 0.29327
 C402 C 0.24669 0.67432 0.31427
 C403 C 0.26099 0.67011 0.36034
 C404 C 0.26060 0.64464 0.38516
 C405 C 0.21263 0.58182 0.32593
 C406 C 0.21431 0.60682 0.29975
 C407 C 0.27513 0.61393 0.45478
 C408 C 0.27554 0.63952 0.43026
 H409 H 0.19978 0.56623 0.31043
 H410 H 0.20276 0.60978 0.26472
 H411 H 0.28693 0.61083 0.48949
 H412 H 0.28772 0.65539 0.44663
 H413 H 0.27033 0.56380 0.49488
 H414 H 0.21149 0.53683 0.38471
 H415 H 0.22049 0.65657 0.25783
 H416 H 0.27280 0.68646 0.37612
 C417 C 0.26317 0.89718 0.88926
 C418 C 0.28876 0.90407 0.90921
 C419 C 0.29087 0.92894 0.93534
 C420 C 0.26734 0.94597 0.94390
 C421 C 0.24187 0.93891 0.92361
 C422 C 0.23971 0.91460 0.89570
 C423 C 0.26091 0.87126 0.86106
 C424 C 0.23552 0.86479 0.83965
 C425 C 0.23354 0.84017 0.81258
 C426 C 0.25647 0.82178 0.80853
 C427 C 0.28168 0.82838 0.83062
 C428 C 0.28414 0.85336 0.85629
 C429 C 0.21461 0.90731 0.87418
 C430 C 0.21260 0.88292 0.84628
 C431 C 0.31164 0.88587 0.90293
 C432 C 0.30931 0.86081 0.87732
 H433 H 0.19639 0.92061 0.87880
 H434 H 0.19289 0.87809 0.83013
 H435 H 0.33145 0.89090 0.91843
 H436 H 0.32739 0.84721 0.87374
 H437 H 0.31065 0.93497 0.94940
 H438 H 0.22388 0.95240 0.92960
 H439 H 0.21405 0.83490 0.79600
 H440 H 0.29936 0.81422 0.82723
 C441 C 0.76571 0.40138 0.39610
 C442 C 0.79171 0.40925 0.41242
 C443 C 0.79407 0.43477 0.43619
 C444 C 0.77049 0.45147 0.44627
 C445 C 0.74463 0.44349 0.42941
 C446 C 0.74214 0.41851 0.40372
 C447 C 0.76310 0.37466 0.37073
 C448 C 0.73725 0.36720 0.35286
 C449 C 0.73495 0.34190 0.32824
 C450 C 0.75805 0.32383 0.32323
 C451 C 0.78373 0.33133 0.34199
 C452 C 0.78648 0.35702 0.36504
 C453 C 0.71659 0.41020 0.38581
 C454 C 0.71423 0.38508 0.36040
 C455 C 0.81470 0.39128 0.40527
 C456 C 0.81208 0.36548 0.38242
 H457 H 0.69829 0.42326 0.39135
 H458 H 0.69417 0.37948 0.34699
 H459 H 0.83482 0.39706 0.41802
 H460 H 0.83028 0.35212 0.37809
 H461 H 0.81408 0.44141 0.44793
 H462 H 0.72656 0.45666 0.43668
 H463 H 0.71514 0.33591 0.31410
 H464 H 0.80153 0.31739 0.33772
 C465 C 0.10001 0.25428 0.90101
 C466 C 0.07731 0.26858 0.87926
 C467 C 0.05232 0.27011 0.90568
 C468 C 0.04949 0.25681 0.95324
 C469 C 0.07231 0.24098 0.97238
 C470 C 0.09777 0.24058 0.94763
 C471 C 0.12665 0.25362 0.87442
 C472 C 0.14966 0.24023 0.89723
 C473 C 0.17505 0.24008 0.87212
 C474 C 0.17712 0.25228 0.82386
 C475 C 0.15383 0.26519 0.80106
 C476 C 0.12858 0.26637 0.82667
 C477 C 0.12112 0.22697 0.96886
 C478 C 0.14671 0.22706 0.94437
 C479 C 0.08014 0.28144 0.83177
 C480 C 0.10526 0.28009 0.80566
 H481 H 0.11970 0.21650 1.00509
 H482 H 0.16426 0.21657 0.96228
 H483 H 0.06273 0.29249 0.81447
 H484 H 0.10650 0.29008 0.76895
 H485 H 0.03555 0.28275 0.88992
 H486 H 0.07038 0.22878 1.00650
 H487 H 0.19301 0.22988 0.88931
 H488 H 0.15555 0.27464 0.76391
 C489 C 0.59985 0.76348 0.38809
 C490 C 0.57866 0.78120 0.36943
 C491 C 0.55388 0.78379 0.39634
 C492 C 0.54999 0.76831 0.44085
 C493 C 0.57098 0.74956 0.45740
 C494 C 0.59628 0.74774 0.43214
 C495 C 0.62634 0.76148 0.36110
 C496 C 0.64792 0.74467 0.38105
 C497 C 0.67326 0.74337 0.35594
 C498 C 0.67669 0.75797 0.31045
 C499 C 0.65482 0.77428 0.29022
 C500 C 0.62963 0.77652 0.31601
 C501 C 0.61818 0.73078 0.45043
 C502 C 0.64367 0.72947 0.42558
 C503 C 0.58279 0.79612 0.32452
 C504 C 0.60776 0.79362 0.29800
 H505 H 0.61572 0.71868 0.48460
 H506 H 0.66014 0.71636 0.44119
 H507 H 0.56655 0.80977 0.30965
 H508 H 0.61006 0.80539 0.26339
 H509 H 0.53774 0.79809 0.38313
 H510 H 0.56784 0.73691 0.49062
 H511 H 0.69020 0.73071 0.37117
 H512 H 0.65767 0.78562 0.25525
 C513 C 0.90094 0.74596 0.88550
 C514 C 0.92336 0.73128 0.86384
 C515 C 0.94814 0.72861 0.89109
 C516 C 0.95083 0.74083 0.93964
 C517 C 0.92856 0.75741 0.95837
 C518 C 0.90333 0.75905 0.93268
 C519 C 0.87436 0.74745 0.85847
 C520 C 0.85160 0.76103 0.88142
 C521 C 0.82618 0.76162 0.85635
 C522 C 0.82376 0.74967 0.80799
 C523 C 0.84681 0.73673 0.78476
 C524 C 0.87215 0.73508 0.81042
 C525 C 0.88029 0.77309 0.95380
 C526 C 0.85476 0.77379 0.92886
 C527 C 0.92034 0.71902 0.81585
 C528 C 0.89525 0.72113 0.78936
 H529 H 0.88188 0.78315 0.99038
 H530 H 0.83739 0.78447 0.94676
 H531 H 0.93753 0.70769 0.79863
 H532 H 0.89382 0.71144 0.75241
 H533 H 0.96478 0.71582 0.87543
 H534 H 0.93066 0.76894 0.99323
 H535 H 0.80838 0.77181 0.87385
 H536 H 0.84479 0.72749 0.74750
 C537 C 0.40179 0.23096 0.38907
 C538 C 0.41261 0.20503 0.40423
 C539 C 0.43758 0.20324 0.43095
 C540 C 0.45072 0.22723 0.44492
 C541 C 0.43984 0.25303 0.42918
 C542 C 0.41545 0.25500 0.40067
 C543 C 0.37547 0.23300 0.36120
 C544 C 0.36495 0.25887 0.34510
 C545 C 0.33975 0.26072 0.31909
 C546 C 0.32476 0.23710 0.31106
 C547 C 0.33540 0.21135 0.32765
 C548 C 0.36106 0.20911 0.35207
 C549 C 0.40425 0.28051 0.38402
 C550 C 0.37953 0.28239 0.35633
 C551 C 0.39796 0.18153 0.39323
 C552 C 0.37248 0.18356 0.36803
 H553 H 0.41465 0.29918 0.39254
 H554 H 0.37157 0.30245 0.34427
 H555 H 0.40604 0.16144 0.40495
 H556 H 0.36164 0.16498 0.36100
 H557 H 0.44637 0.18337 0.44239
 H558 H 0.45030 0.27143 0.43950
 H559 H 0.33124 0.28059 0.30693
 H560 H 0.32373 0.19319 0.32140
 C561 C 0.74239 0.90529 0.88736
 C562 C 0.75958 0.90883 0.92964
 C563 C 0.75792 0.93376 0.95619
 C564 C 0.73801 0.95433 0.94271
 C565 C 0.72137 0.95070 0.89951
 C566 C 0.72362 0.92625 0.87144
 C567 C 0.74373 0.87896 0.85976
 C568 C 0.72692 0.87557 0.81682
 C569 C 0.72830 0.85042 0.79074
 C570 C 0.74563 0.82871 0.80856
 C571 C 0.76211 0.83226 0.85183
 C572 C 0.76155 0.85753 0.87725
 C573 C 0.70709 0.92210 0.82843
 C574 C 0.70888 0.89727 0.80132
 C575 C 0.77755 0.88712 0.94533
 C576 C 0.77835 0.86181 0.91981
 H577 H 0.69260 0.93816 0.81568
 H578 H 0.69577 0.89490 0.76837
 H579 H 0.79077 0.88957 0.97810
 H580 H 0.79224 0.84547 0.93351
 H581 H 0.77119 0.93674 0.98873
 H582 H 0.70621 0.96659 0.88871
 H583 H 0.71555 0.84747 0.75745
 H584 H 0.77556 0.81544 0.86517
 C585 C 0.24120 0.39505 0.39815
 C586 C 0.25631 0.39840 0.44312
 C587 C 0.25553 0.42412 0.46703
 C588 C 0.23825 0.44580 0.44828
 C589 C 0.22351 0.44214 0.40277
 C590 C 0.22518 0.41690 0.37719
 C591 C 0.24209 0.36812 0.37259
 C592 C 0.22785 0.36507 0.32649
 C593 C 0.22930 0.33958 0.30172
 C594 C 0.24400 0.31714 0.32379
 C595 C 0.25765 0.32028 0.37050
 C596 C 0.25718 0.34594 0.39470
 C597 C 0.21091 0.41296 0.33141
 C598 C 0.21245 0.38755 0.30621
 C599 C 0.27147 0.37585 0.46374
 C600 C 0.27169 0.34999 0.44019
 H601 H 0.19854 0.42969 0.31480
 H602 H 0.20130 0.38543 0.27079
 H603 H 0.28300 0.37813 0.49870
 H604 H 0.28347 0.33307 0.45755
 H605 H 0.26762 0.42702 0.50113
 H606 H 0.21036 0.45879 0.38787
 H607 H 0.21876 0.33702 0.26574
 H608 H 0.26925 0.30297 0.38704
 C609 C 0.27002 0.09568 0.88708
 C610 C 0.28695 0.09260 0.93016
 C611 C 0.28821 0.06744 0.95616
 C612 C 0.27142 0.04586 0.94120
 C613 C 0.25561 0.04905 0.89617
 C614 C 0.25471 0.07390 0.86929
 C615 C 0.26758 0.12248 0.86099
 C616 C 0.25032 0.12562 0.81831
 C617 C 0.24739 0.15133 0.79455
 C618 C 0.26124 0.17395 0.81367
 C619 C 0.27871 0.17035 0.85627
 C620 C 0.28199 0.14462 0.88002
 C621 C 0.23795 0.07772 0.82604
 C622 C 0.23586 0.10312 0.80087
 C623 C 0.30157 0.11506 0.94741
 C624 C 0.29904 0.14066 0.92288
 H625 H 0.22606 0.06104 0.81192
 H626 H 0.22248 0.10528 0.76797
 H627 H 0.31464 0.11298 0.98074
 H628 H 0.31032 0.15756 0.93790
 H629 H 0.30151 0.06498 0.98914
 H630 H 0.24242 0.03295 0.88387
 H631 H 0.23382 0.15386 0.76196
 H632 H 0.28954 0.18759 0.87121
 C633 C 0.76188 0.60225 0.38889
 C634 C 0.78113 0.58179 0.37297
 C635 C 0.78391 0.55725 0.40071
 C636 C 0.76723 0.55294 0.44342
 C637 C 0.74704 0.57312 0.45714
 C638 C 0.74485 0.59815 0.43099
 C639 C 0.75968 0.62855 0.36125
 C640 C 0.74127 0.64943 0.37863
 C641 C 0.73986 0.67468 0.35313
 C642 C 0.75603 0.67870 0.30985
 C643 C 0.77395 0.65753 0.29209
 C644 C 0.77621 0.63243 0.31829
 C645 C 0.72630 0.61932 0.44662
 C646 C 0.72472 0.64464 0.42114
 C647 C 0.79741 0.58645 0.33002
 C648 C 0.79483 0.61126 0.30287
 H649 H 0.71317 0.61642 0.47922
 H650 H 0.71039 0.66058 0.43477
 H651 H 0.81227 0.57079 0.31725
 H652 H 0.80774 0.61401 0.26992
 H653 H 0.79930 0.54167 0.38971
 H654 H 0.73357 0.56958 0.48899
 H655 H 0.72602 0.69112 0.36648
 H656 H 0.78646 0.66087 0.25879
 C657 C 0.10128 0.74058 0.88800
 C658 C 0.09597 0.75728 0.93065
 C659 C 0.07062 0.75597 0.95539
 C660 C 0.05143 0.73679 0.93984
 C661 C 0.05689 0.72054 0.89646
 C662 C 0.08171 0.72254 0.87009
 C663 C 0.12791 0.74186 0.86182
 C664 C 0.13288 0.72582 0.81814
 C665 C 0.15807 0.72750 0.79285
 C666 C 0.17837 0.74434 0.81212
 C667 C 0.17339 0.75987 0.85639
 C668 C 0.14793 0.75905 0.88103
 C669 C 0.08754 0.70659 0.82664
 C670 C 0.11260 0.70839 0.80081
 C671 C 0.11635 0.77450 0.94833
 C672 C 0.14199 0.77520 0.92420
 H673 H 0.07259 0.69263 0.81240
 H674 H 0.11622 0.69584 0.76729
 H675 H 0.11257 0.78730 0.98148
 H676 H 0.15723 0.78858 0.93929
 H677 H 0.06624 0.76898 0.98806
 H678 H 0.04207 0.70596 0.88405
 H679 H 0.16210 0.71553 0.75871
 H680 H 0.18906 0.77302 0.87075
 C681 C 0.60231 0.23507 0.40449
 C682 C 0.58150 0.25580 0.39979
 C683 C 0.55639 0.25266 0.42463
 C684 C 0.55197 0.22883 0.45314
 C685 C 0.57256 0.20776 0.45560
 C686 C 0.59808 0.21107 0.43247
 C687 C 0.62896 0.23849 0.37938
 C688 C 0.64998 0.21807 0.38514
 C689 C 0.67534 0.22149 0.36136
 C690 C 0.67937 0.24470 0.33084
 C691 C 0.65803 0.26488 0.32512
 C692 C 0.63285 0.26204 0.34989
 C693 C 0.61950 0.19098 0.43702
 C694 C 0.64510 0.19452 0.41408
 C695 C 0.58630 0.27924 0.37055
 C696 C 0.61149 0.28222 0.34572
 H697 H 0.61652 0.17247 0.45883
 H698 H 0.66113 0.17861 0.41871
 H699 H 0.57041 0.29536 0.36660
 H700 H 0.61429 0.30053 0.32323
 H701 H 0.54036 0.26874 0.42224
 H702 H 0.56872 0.18889 0.47558
 H703 H 0.69167 0.20581 0.36546
 H704 H 0.66117 0.28287 0.30192
 C705 C 0.89976 0.26627 0.89185
 C706 C 0.92190 0.24929 0.87508
 C707 C 0.94674 0.24886 0.90221
 C708 C 0.94955 0.26507 0.94640
 C709 C 0.92760 0.28351 0.96013
 C710 C 0.90246 0.28356 0.93403
 C711 C 0.87301 0.26533 0.86561
 C712 C 0.85055 0.28146 0.88368
 C713 C 0.82490 0.27971 0.85970
 C714 C 0.82172 0.26210 0.81775
 C715 C 0.84464 0.24645 0.79964
 C716 C 0.87026 0.24781 0.82369
 C717 C 0.87969 0.29987 0.95035
 C718 C 0.85413 0.29874 0.92574
 C719 C 0.91844 0.23228 0.83262
 C720 C 0.89309 0.23163 0.80722
 H721 H 0.88149 0.31321 0.98304
 H722 H 0.83698 0.31133 0.94003
 H723 H 0.93538 0.21910 0.81924
 H724 H 0.89123 0.21804 0.77490
 H725 H 0.96310 0.23441 0.89086
 H726 H 0.92975 0.29714 0.99235
 H727 H 0.80744 0.29193 0.87383
 H728 H 0.84243 0.23277 0.76753
 C729 C 0.39895 0.76436 0.38536
 C730 C 0.41904 0.74281 0.38430
 C731 C 0.44365 0.74560 0.41132
 C732 C 0.44822 0.76984 0.43848
 C733 C 0.42844 0.79168 0.43714
 C734 C 0.40343 0.78880 0.41177
 C735 C 0.37267 0.76124 0.35851
 C736 C 0.35224 0.78241 0.36113
 C737 C 0.32700 0.77901 0.33674
 C738 C 0.32245 0.75499 0.30889
 C739 C 0.34333 0.73420 0.30566
 C740 C 0.36840 0.73705 0.33110
 C741 C 0.38270 0.80973 0.41277
 C742 C 0.35743 0.80650 0.38819
 C743 C 0.41399 0.71888 0.35666
 C744 C 0.38915 0.71612 0.33021
 H745 H 0.38590 0.82861 0.43327
 H746 H 0.34185 0.82300 0.39032
 H747 H 0.42934 0.70215 0.35544
 H748 H 0.38607 0.69735 0.30931
 H749 H 0.45910 0.72891 0.41182
 H750 H 0.43250 0.81080 0.45607
 H751 H 0.31099 0.79513 0.33892
 H752 H 0.33976 0.71558 0.28453
 C753 C 0.26395 0.89525 0.10488
 C754 C 0.24210 0.91496 0.10783
 C755 C 0.24438 0.94029 0.08306
 C756 C 0.26843 0.94598 0.05627
 C757 C 0.29064 0.92657 0.05588
 C758 C 0.28825 0.90085 0.07895
 C759 C 0.26131 0.86821 0.12921
 C760 C 0.28279 0.84820 0.12477
 C761 C 0.28000 0.82237 0.14734
 C762 C 0.25629 0.81684 0.17539
 C763 C 0.23509 0.83724 0.18002
 C764 C 0.23732 0.86287 0.15635
 C765 C 0.30946 0.88045 0.07594
 C766 C 0.30669 0.85450 0.09813
 C767 C 0.21832 0.90876 0.13494
 C768 C 0.21606 0.88324 0.15910
 H769 H 0.32823 0.88448 0.05575
 H770 H 0.32345 0.83928 0.09458
 H771 H 0.20134 0.92378 0.13756
 H772 H 0.19742 0.87934 0.17979
 H773 H 0.22737 0.95538 0.08372
 H774 H 0.30954 0.93136 0.03695
 H775 H 0.29648 0.80680 0.14416
 H776 H 0.21674 0.83300 0.20138
 C777 C 0.76646 0.40192 0.60906
 C778 C 0.74586 0.42281 0.61388
 C779 C 0.74881 0.44776 0.58826
 C780 C 0.77231 0.45191 0.55877
 C781 C 0.79337 0.43132 0.55645
 C782 C 0.79023 0.40595 0.58037
 C783 C 0.76305 0.37530 0.63440
 C784 C 0.78323 0.35411 0.62819
 C785 C 0.77968 0.32871 0.65183
 C786 C 0.75658 0.32476 0.68257
 C787 C 0.73670 0.34630 0.68888
 C788 C 0.73964 0.37153 0.66426
 C789 C 0.81015 0.38440 0.57558
 C790 C 0.80660 0.35884 0.59878
 C791 C 0.72261 0.41819 0.64368
 C792 C 0.71966 0.39304 0.66877
 H793 H 0.82847 0.38722 0.55324
 H794 H 0.82234 0.34269 0.59383
 H795 H 0.70660 0.43415 0.64773
 H796 H 0.70147 0.39035 0.69157
 H797 H 0.73269 0.46376 0.59037
 H798 H 0.81197 0.43494 0.53552
 H799 H 0.79515 0.31223 0.64732
 H800 H 0.71880 0.34324 0.71230
 C801 C 0.73277 0.10322 0.11708
 C802 C 0.75051 0.08092 0.13064
 C803 C 0.74929 0.05630 0.10344
 C804 C 0.73049 0.05391 0.06306
 C805 C 0.71197 0.07603 0.05150
 C806 C 0.71341 0.10096 0.07774
 C807 C 0.73492 0.12959 0.14389
 C808 C 0.71786 0.15217 0.12915
 C809 C 0.72056 0.17743 0.15375
 C810 C 0.73997 0.18011 0.19313
 C811 C 0.75659 0.15711 0.20797
 C812 C 0.75432 0.13185 0.18316
 C813 C 0.69639 0.12389 0.06462
 C814 C 0.69864 0.14910 0.08978
 C815 C 0.76954 0.08390 0.17032
 C816 C 0.77133 0.10891 0.19629
 H817 H 0.68145 0.12243 0.03422
 H818 H 0.68532 0.16636 0.07814
 H819 H 0.78329 0.06682 0.18115
 H820 H 0.78638 0.11040 0.22650
 H821 H 0.76355 0.03928 0.11244
 H822 H 0.69722 0.07409 0.02087
 H823 H 0.70758 0.19498 0.14223
 H824 H 0.77168 0.15899 0.23803
 C825 C 0.23150 0.60022 0.60537
 C826 C 0.21350 0.59767 0.56394
 C827 C 0.21164 0.57203 0.54019
 C828 C 0.22856 0.54949 0.55629
 C829 C 0.24595 0.55228 0.59865
 C830 C 0.24749 0.57758 0.62339
 C831 C 0.23409 0.62722 0.62975
 C832 C 0.25208 0.62969 0.67119
 C833 C 0.25462 0.65539 0.69408
 C834 C 0.23967 0.67866 0.67538
 C835 C 0.22180 0.67586 0.63357
 C836 C 0.21883 0.65011 0.61075
 C837 C 0.26522 0.58086 0.66498
 C838 C 0.26738 0.60646 0.68864
 C839 C 0.19833 0.62097 0.54633
 C840 C 0.20102 0.64676 0.56923
 H841 H 0.27764 0.56352 0.67917
 H842 H 0.28136 0.60813 0.72053
 H843 H 0.18451 0.61932 0.51418
 H844 H 0.18911 0.66424 0.55420
 H845 H 0.19800 0.56985 0.50791
 H846 H 0.25902 0.53497 0.61109
 H847 H 0.26855 0.65733 0.72601
 H848 H 0.21012 0.69362 0.61904
 C849 C 0.89972 0.73371 0.10542
 C850 C 0.90367 0.71517 0.06495
 C851 C 0.92909 0.71365 0.03989
 C852 C 0.94988 0.73155 0.05346
 C853 C 0.94581 0.74945 0.09504
 C854 C 0.92079 0.75058 0.12123
 C855 C 0.87282 0.73598 0.13102
 C856 C 0.86894 0.75448 0.17156
 C857 C 0.84325 0.75681 0.19541
 C858 C 0.82135 0.74121 0.17834
 C859 C 0.82558 0.72277 0.13752
 C860 C 0.85136 0.71995 0.11393
 C861 C 0.91617 0.76876 0.16205
 C862 C 0.89072 0.77057 0.18698
 C863 C 0.88185 0.69914 0.04945
 C864 C 0.85610 0.70158 0.07337
 H865 H 0.93230 0.78184 0.17463
 H866 H 0.88797 0.78494 0.21817
 H867 H 0.88457 0.68488 0.01810
 H868 H 0.83974 0.68906 0.05986
 H869 H 0.93230 0.69961 0.00829
 H870 H 0.96179 0.76319 0.10570
 H871 H 0.84016 0.77117 0.22655
 H872 H 0.80888 0.71059 0.12428
 C873 C 0.39706 0.23297 0.60709
 C874 C 0.40298 0.21017 0.57575
 C875 C 0.42873 0.20751 0.55224
 C876 C 0.44792 0.22807 0.55786
 C877 C 0.44177 0.25069 0.58971
 C878 C 0.41641 0.25313 0.61479
 C879 C 0.37015 0.23569 0.63253
 C880 C 0.36456 0.25802 0.66515
 C881 C 0.33912 0.26025 0.68996
 C882 C 0.31915 0.24071 0.68132
 C883 C 0.32491 0.21869 0.64784
 C884 C 0.35056 0.21586 0.62386
 C885 C 0.40994 0.27535 0.64724
 C886 C 0.38452 0.27766 0.67226
 C887 C 0.38298 0.19061 0.56838
 C888 C 0.35713 0.19352 0.59172
 H889 H 0.42470 0.29102 0.65354
 H890 H 0.38041 0.29504 0.69720
 H891 H 0.38727 0.17302 0.54404
 H892 H 0.34223 0.17806 0.58482
 H893 H 0.43388 0.18945 0.52974
 H894 H 0.45665 0.26641 0.59451
 H895 H 0.33469 0.27736 0.71542
 H896 H 0.30966 0.20348 0.64138
 C897 C 0.09733 0.26306 0.12183
 C898 C 0.09254 0.28263 0.08318
 C899 C 0.06740 0.28332 0.05695
 C900 C 0.04779 0.26368 0.06744
 C901 C 0.05257 0.24475 0.10735
 C902 C 0.07732 0.24437 0.13473
 C903 C 0.12413 0.26149 0.14817
 C904 C 0.12899 0.24177 0.18653
 C905 C 0.15480 0.23982 0.21041
 C906 C 0.17584 0.25696 0.19522
 C907 C 0.17052 0.27678 0.15697
 C908 C 0.14464 0.27923 0.13347
 C909 C 0.08282 0.22512 0.17365
 C910 C 0.10817 0.22394 0.19931
 C911 C 0.11336 0.30045 0.07037
 C912 C 0.13903 0.29869 0.09493
 H913 H 0.06751 0.21063 0.18399
 H914 H 0.11166 0.20861 0.22877
 H915 H 0.10998 0.31553 0.04044
 H916 H 0.15468 0.31252 0.08331
 H917 H 0.06361 0.29810 0.02661
 H918 H 0.03750 0.22963 0.11555
 H919 H 0.15880 0.22437 0.23951
 H920 H 0.18656 0.29015 0.14524
 C921 C 0.59936 0.77472 0.60593
 C922 C 0.59525 0.79326 0.56540
 C923 C 0.56970 0.79486 0.54057
 C924 C 0.54887 0.77713 0.55448
 C925 C 0.55313 0.75917 0.59602
 C926 C 0.57832 0.75793 0.62198
 C927 C 0.62642 0.77236 0.63126
 C928 C 0.63050 0.75383 0.67178
 C929 C 0.65635 0.75138 0.69531
 C930 C 0.67820 0.76689 0.67792
 C931 C 0.67376 0.78538 0.63716
 C932 C 0.64782 0.78832 0.61387
 C933 C 0.58315 0.73972 0.66280
 C934 C 0.60875 0.73781 0.68746
 C935 C 0.61702 0.80921 0.54962
 C936 C 0.64290 0.80670 0.57330
 H937 H 0.56705 0.72669 0.67556
 H938 H 0.61166 0.72341 0.71865
 H939 H 0.61416 0.82347 0.51820
 H940 H 0.65923 0.81915 0.55956
 H941 H 0.56636 0.80898 0.50904
 H942 H 0.53719 0.74545 0.60680
 H943 H 0.65961 0.73697 0.72642
 H944 H 0.69042 0.79750 0.62370
   
