data_POSCAR
  _audit_creation_date              2014-09-24
  _audit_creation_method            'ToBaCCo'
  _symmetry_space_group_name_H-M    'P1'
  _symmetry_Int_Tables_number       1
  _symmetry_cell_setting            triclinic
  loop_
  _symmetry_equiv_pos_as_xyz
 x,y,z
_cell_length_a 30.9197
_cell_length_b 30.7277
_cell_length_c 16.8074
_cell_angle_alpha 89.929900
_cell_angle_beta 90.020700
_cell_angle_gamma 120.663500
loop_
  _atom_site_label
  _atom_site_type_symbol
  _atom_site_fract_x
  _atom_site_fract_y
  _atom_site_fract_z
C1 C 0.44692 0.84448 0.46036
 C2 C 0.44724 0.84429 0.54192
 C3 C 0.46109 0.89292 0.56626
 N4 N 0.46848 0.92236 0.50191
 C5 C 0.46017 0.89299 0.43725
 C6 C 0.46078 0.90784 0.64601
 C7 C 0.47641 0.95855 0.66784
 C8 C 0.46841 0.97337 0.74185
 C9 C 0.49232 1.02511 0.74135
 C10 C 0.51574 1.04124 0.66799
 N11 N 0.50572 1.00041 0.62339
 C12 C 0.54690 1.09286 0.64576
 C13 C 0.55996 1.10848 0.56552
 C14 C 0.59615 1.15685 0.54132
 C15 C 0.59635 1.15660 0.45984
 C16 C 0.56102 1.10790 0.43670
 N17 N 0.53855 1.07861 0.50128
 C18 C 0.54817 1.09213 0.35700
 C19 C 0.51689 1.04109 0.33427
 C20 C 0.49637 1.02521 0.25907
 C21 C 0.47172 0.97327 0.25941
 C22 C 0.47817 0.95878 0.33461
 N23 N 0.50594 1.00038 0.37974
 C24 C 0.46085 0.90825 0.35775
 H25 H 0.43695 0.81225 0.42247
 H26 H 0.43676 0.81145 0.57864
 H27 H 0.52151 1.00132 0.43486
 H28 H 0.44828 0.94988 0.79227
 H29 H 0.49281 1.04825 0.79023
 H30 H 0.62030 1.18902 0.57835
 H31 H 0.62004 1.18861 0.42207
 H32 H 0.45191 0.94899 0.20946
 H33 H 0.52291 1.00143 0.56978
 H34 H 0.49931 1.04852 0.20868
 C35 C -0.15613 0.40995 0.45848
 C36 C -0.15625 0.41045 0.53990
 C37 C -0.10789 0.44619 0.56373
 N38 N -0.07869 0.46834 0.49895
 C39 C -0.10806 0.44623 0.43448
 C40 C -0.09266 0.46100 0.64374
 C41 C -0.04179 0.49468 0.66589
 C42 C -0.02568 0.51565 0.74112
 C43 C 0.02591 0.54069 0.74075
 C44 C 0.04028 0.53401 0.66587
 N45 N -0.00111 0.50594 0.62072
 C46 C 0.09047 0.55059 0.64360
 C47 C 0.10586 0.55078 0.56452
 C48 C 0.15388 0.56294 0.54197
 C49 C 0.15398 0.56135 0.46041
 C50 C 0.10595 0.54806 0.43602
 N51 N 0.07677 0.54203 0.49966
 C52 C 0.09090 0.54574 0.35625
 C53 C 0.04083 0.52894 0.33323
 C54 C 0.02695 0.53741 0.25902
 C55 C -0.02454 0.51341 0.25867
 C56 C -0.04106 0.48987 0.33215
 N57 N -0.00083 0.49976 0.37745
 C58 C -0.09240 0.45893 0.35413
 H59 H -0.18800 0.38549 0.42137
 H60 H -0.18870 0.38733 0.57682
 H61 H -0.00194 0.48293 0.43167
 H62 H -0.04830 0.51210 0.79243
 H63 H 0.05002 0.56035 0.79086
 H64 H 0.18569 0.57252 0.58020
 H65 H 0.18595 0.56976 0.42336
 H66 H -0.04722 0.51331 0.20954
 H67 H -0.00180 0.48976 0.56627
 H68 H 0.05128 0.55875 0.21001
 C69 C 0.59445 0.44052 0.54160
 C70 C 0.59346 0.43960 0.46005
 C71 C 0.55778 0.45162 0.43709
 N72 N 0.53693 0.45974 0.50182
 C73 C 0.55957 0.45353 0.56605
 C74 C 0.54286 0.45168 0.35770
 C75 C 0.50939 0.46800 0.33478
 C76 C 0.48814 0.46099 0.25975
 C77 C 0.46118 0.48530 0.25933
 C78 C 0.46634 0.50618 0.33434
 N79 N 0.49599 0.49568 0.37979
 C80 C 0.44761 0.53778 0.35669
 C81 C 0.44523 0.55107 0.43625
 C82 C 0.43319 0.58692 0.45899
 C83 C 0.43320 0.58729 0.54047
 C84 C 0.44431 0.55091 0.56509
 N85 N 0.45165 0.52881 0.50109
 C86 C 0.44713 0.53842 0.64549
 C87 C 0.46696 0.50735 0.66776
 C88 C 0.45959 0.48416 0.74138
 C89 C 0.48711 0.46059 0.74193
 C90 C 0.50981 0.46860 0.66773
 N91 N 0.49743 0.49748 0.62305
 C92 C 0.54484 0.45363 0.64593
 H93 H 0.61724 0.43107 0.57829
 H94 H 0.61572 0.43011 0.42210
 H95 H 0.51372 0.51471 0.56925
 H96 H 0.49234 0.44118 0.20988
 H97 H 0.44083 0.48794 0.20897
 H98 H 0.42553 0.61064 0.42096
 H99 H 0.42631 0.61202 0.57720
 H100 H 0.49042 0.44075 0.79251
 H101 H 0.51114 0.51180 0.43456
 H102 H 0.43717 0.48465 0.79042
 O103 O 0.40719 0.65012 -0.06591
 O104 O 0.40829 0.73463 -0.09249
 C105 C 0.38627 0.75912 -0.10666
 O106 O 0.34913 0.75356 -0.06577
 O107 O 0.26456 0.66971 -0.09145
 C108 C 0.23954 0.62273 -0.10626
 O109 O 0.24492 0.59044 -0.06687
 O110 O 0.32821 0.59081 -0.09377
 C111 C 0.37506 0.61280 -0.10693
 O112 O 0.40538 0.66503 0.09139
 O113 O 0.41155 0.75191 0.06537
 C114 C 0.38126 0.75920 0.10641
 O115 O 0.33447 0.73641 0.09252
 O116 O 0.24805 0.65496 0.06690
 C117 C 0.23973 0.61601 0.10618
 O118 O 0.26128 0.59127 0.09071
 O119 O 0.34226 0.58712 0.06466
 C120 C 0.38056 0.61788 0.10531
 Cr121 Cr 0.40539 0.69914 -0.00044
 Cr122 Cr 0.30031 0.70227 0.00050
 Cr123 Cr 0.29564 0.59261 -0.00132
 O124 O 0.33372 0.66465 -0.00033
 O125 O 0.59126 0.34620 -0.06625
 O126 O 0.59446 0.26441 -0.09318
 C127 C 0.61754 0.24094 -0.10656
 O128 O 0.65516 0.24789 -0.06574
 O129 O 0.73709 0.33456 -0.09408
 C130 C 0.76061 0.38178 -0.10764
 O131 O 0.75428 0.41270 -0.06603
 O132 O 0.66915 0.40887 -0.09230
 C133 C 0.62236 0.38457 -0.10674
 O134 O 0.59369 0.33121 0.09180
 O135 O 0.59243 0.24705 0.06523
 C136 C 0.62408 0.24146 0.10573
 O137 O 0.67089 0.26592 0.09125
 O138 O 0.75551 0.35014 0.06309
 C139 C 0.76115 0.38715 0.10492
 O140 O 0.73666 0.40929 0.09228
 O141 O 0.65405 0.41034 0.06548
 C142 C 0.61648 0.37827 0.10610
 Cr143 Cr 0.59556 0.29856 -0.00062
 Cr144 Cr 0.70333 0.30093 -0.00135
 Cr145 Cr 0.70228 0.40767 -0.00015
 O146 O 0.66701 0.33571 -0.00070
 C147 C 0.46808 0.84579 -0.27289
 C148 C 0.44178 0.87020 -0.29441
 C149 C 0.39625 0.85644 -0.25584
 C150 C 0.37821 0.82026 -0.19526
 C151 C 0.40500 0.79657 -0.17238
 C152 C 0.44989 0.80935 -0.21249
 H153 H 0.50318 0.85560 -0.30201
 H154 H 0.37469 0.87387 -0.27260
 H155 H 0.34320 0.81088 -0.16633
 H156 H 0.47135 0.79170 -0.19654
 C157 C 0.13180 0.53493 -0.24132
 C158 C 0.12918 0.56928 -0.29302
 C159 C 0.16300 0.62126 -0.28391
 C160 C 0.19895 0.63875 -0.22325
 C161 C 0.20179 0.60444 -0.17105
 C162 C 0.16790 0.55229 -0.18103
 H163 H 0.10584 0.49468 -0.24777
 H164 H 0.16129 0.64817 -0.32353
 H165 H 0.22456 0.67910 -0.21737
 H166 H 0.16896 0.52486 -0.14183
 C167 C 0.45965 0.58278 -0.22791
 C168 C 0.42914 0.55713 -0.29384
 C169 C 0.38043 0.55006 -0.29755
 C170 C 0.36261 0.56769 -0.23650
 C171 C 0.39345 0.59371 -0.17133
 C172 C 0.44221 0.60133 -0.16790
 H173 H 0.49749 0.58935 -0.22364
 H174 H 0.35568 0.52973 -0.34678
 H175 H 0.32487 0.56136 -0.24061
 H176 H 0.46673 0.62113 -0.11818
 C177 C 0.55721 0.17144 -0.29799
 C178 C 0.56486 0.13006 -0.29366
 C179 C 0.59013 0.12584 -0.22708
 C180 C 0.60772 0.16222 -0.16697
 C181 C 0.59943 0.20304 -0.17097
 C182 C 0.57381 0.20722 -0.23682
 H183 H 0.53717 0.17535 -0.34778
 H184 H 0.59707 0.09474 -0.22232
 H185 H 0.62725 0.15803 -0.11672
 H186 H 0.56705 0.23842 -0.24136
 C187 C 0.84554 0.38960 -0.27678
 C188 C 0.87038 0.44133 -0.29609
 C189 C 0.85809 0.47309 -0.25417
 C190 C 0.82232 0.45371 -0.19332
 C191 C 0.79783 0.40205 -0.17327
 C192 C 0.80962 0.37015 -0.21610
 H193 H 0.85452 0.36437 -0.30805
 H194 H 0.87622 0.51298 -0.26870
 H195 H 0.81389 0.47927 -0.16196
 H196 H 0.79148 0.33020 -0.20225
 C197 C 0.61543 0.46396 -0.27393
 C198 C 0.56420 0.43606 -0.29425
 C199 C 0.53271 0.39034 -0.25440
 C200 C 0.55168 0.37360 -0.19388
 C201 C 0.60271 0.40197 -0.17227
 C202 C 0.63449 0.44712 -0.21353
 H203 H 0.64050 0.49924 -0.30407
 H204 H 0.49332 0.36758 -0.27022
 H205 H 0.52626 0.33838 -0.16400
 H206 H 0.67400 0.46977 -0.19861
 C207 C 0.87535 0.41537 0.22685
 C208 C 0.87080 0.44069 0.29319
 C209 C 0.82951 0.44817 0.29681
 C210 C 0.79415 0.43130 0.23528
 C211 C 0.79869 0.40565 0.16965
 C212 C 0.83945 0.39759 0.16632
 H213 H 0.90636 0.40851 0.22261
 H214 H 0.82534 0.46828 0.34633
 H215 H 0.76300 0.43791 0.23936
 H216 H 0.84393 0.37802 0.11632
 C217 C 0.53803 0.14919 0.26256
 C218 C 0.56804 0.13122 0.29375
 C219 C 0.61680 0.15005 0.26422
 C220 C 0.63537 0.18643 0.20379
 C221 C 0.60514 0.20403 0.17128
 C222 C 0.55629 0.18507 0.20147
 H223 H 0.50033 0.13498 0.28505
 H224 H 0.64035 0.13646 0.28797
 H225 H 0.67307 0.20020 0.18172
 H226 H 0.53221 0.19811 0.17806
 C227 C 0.59956 0.46683 0.24211
 C228 C 0.56260 0.43275 0.29468
 C229 C 0.54362 0.38072 0.28602
 C230 C 0.56113 0.36290 0.22483
 C231 C 0.59815 0.39693 0.17160
 C232 C 0.61736 0.44914 0.18128
 H233 H 0.61443 0.50711 0.24812
 H234 H 0.51494 0.35401 0.32621
 H235 H 0.54570 0.32251 0.21923
 H236 H 0.64580 0.47636 0.14134
 C237 C 0.15108 0.61358 0.26405
 C238 C 0.13002 0.56420 0.29358
 C239 C 0.14581 0.53218 0.26297
 C240 C 0.18203 0.54920 0.20277
 C241 C 0.20257 0.59838 0.17167
 C242 C 0.18682 0.63045 0.20319
 H243 H 0.13931 0.63873 0.28753
 H244 H 0.12989 0.49399 0.28554
 H245 H 0.19336 0.52361 0.17972
 H246 H 0.20221 0.66865 0.18095
 C247 C 0.47312 0.86462 0.24207
 C248 C 0.44049 0.86886 0.29504
 C249 C 0.38844 0.83667 0.28686
 C250 C 0.36914 0.80089 0.22573
 C251 C 0.40166 0.79657 0.17201
 C252 C 0.45391 0.82863 0.18124
 H253 H 0.51341 0.88940 0.24767
 H254 H 0.36285 0.83970 0.32733
 H255 H 0.32875 0.77667 0.22052
 H256 H 0.47999 0.82637 0.14089
 C257 C 0.38166 0.52903 0.26096
 C258 C 0.42998 0.55843 0.29304
 C259 C 0.46186 0.60750 0.26418
 C260 C 0.44563 0.62706 0.20373
 C261 C 0.39740 0.59756 0.17049
 C262 C 0.36557 0.54831 0.19981
 H263 H 0.35668 0.49108 0.28291
 H264 H 0.49929 0.63056 0.28857
 H265 H 0.47107 0.66504 0.18235
 H266 H 0.32813 0.52476 0.17577
   
