data_POSCAR
  _audit_creation_date              2014-09-24
  _audit_creation_method            'ToBaCCo'
  _symmetry_space_group_name_H-M    'P1'
  _symmetry_Int_Tables_number       1
  _symmetry_cell_setting            triclinic
  loop_
  _symmetry_equiv_pos_as_xyz
 x,y,z
_cell_length_a 24.3030
_cell_length_b 23.9234
_cell_length_c 23.6688
_cell_angle_alpha 89.029600
_cell_angle_beta 91.017100
_cell_angle_gamma 89.388600
loop_
  _atom_site_label
  _atom_site_type_symbol
  _atom_site_fract_x
  _atom_site_fract_y
  _atom_site_fract_z
C1 C 0.25433 0.50851 0.99371
 C2 C 0.74308 0.49725 0.00385
 C3 C 0.00804 0.24948 0.50189
 C4 C 0.99639 0.74551 0.49546
 C5 C 0.49123 -0.00141 0.25781
 C6 C 0.51492 0.00979 0.73960
 C7 C 0.29013 -0.05675 0.40992
 H8 H 0.26263 -0.09093 0.41840
 C9 C 0.32970 -0.06233 0.36830
 H10 H 0.33143 -0.10037 0.34418
 C11 C 0.32515 0.03183 0.43455
 H12 H 0.32483 0.06707 0.46260
 C13 C 0.36506 0.02824 0.39291
 H14 H 0.39497 0.06121 0.38922
 N15 N 0.28909 -0.01055 0.44261
 C16 C 0.17117 0.05430 0.56342
 H17 H 0.17544 0.02102 0.59476
 C18 C 0.13211 0.09657 0.57037
 H19 H 0.10670 0.09579 0.60752
 C20 C 0.19783 0.09412 0.47589
 H21 H 0.22280 0.09224 0.43862
 C22 C 0.15905 0.13737 0.48114
 H23 H 0.15611 0.16921 0.44824
 Zn24 Zn 0.24756 -0.01100 0.50945
 N25 N 0.20283 0.05355 0.51667
 C26 C 0.30601 0.02254 0.60873
 N27 N 0.29979 -0.01754 0.56916
 C28 C 0.33426 -0.06260 0.56781
 C29 C 0.37776 -0.06828 0.60674
 C30 C 0.34908 0.01852 0.64855
 C31 C 0.19856 -0.10691 0.55737
 C32 C 0.15780 -0.14722 0.56234
 C33 C 0.11950 -0.11591 0.47217
 C34 C 0.16062 -0.07570 0.46925
 N35 N 0.19905 -0.07201 0.51146
 H36 H 0.27854 0.05835 0.60862
 H37 H 0.32860 -0.09355 0.53547
 H38 H 0.40549 -0.10389 0.60432
 H39 H 0.35306 0.05078 0.67979
 H40 H 0.22833 -0.10206 0.59132
 H41 H 0.15704 -0.17384 0.59980
 H42 H 0.08829 -0.11687 0.43904
 H43 H 0.16107 -0.04623 0.43408
 C44 C 0.12472 0.13821 0.52850
 C45 C 0.36826 -0.01996 0.35992
 C46 C 0.11764 -0.15200 0.51953
 C47 C 0.38646 -0.02678 0.64686
 C48 C 0.68402 0.04994 0.57149
 H49 H 0.68048 0.08209 0.53889
 C50 C 0.64929 0.05118 0.61770
 H51 H 0.61955 0.08495 0.62095
 C52 C 0.72583 -0.03432 0.60570
 H53 H 0.75430 -0.06861 0.59989
 C54 C 0.69245 -0.03417 0.65322
 H55 H 0.69582 -0.06811 0.68401
 N56 N 0.72064 0.00715 0.56579
 C57 C 0.83737 0.06527 0.44110
 H58 H 0.83029 0.03416 0.40920
 C59 C 0.87903 0.10427 0.43422
 H60 H 0.90367 0.10327 0.39655
 C61 C 0.81472 0.10291 0.52980
 H62 H 0.79007 0.10152 0.56735
 C63 C 0.85596 0.14290 0.52457
 H64 H 0.86110 0.17290 0.55783
 Zn65 Zn 0.75731 0.00502 0.49615
 N66 N 0.80656 0.06497 0.48846
 C67 C 0.69640 0.05618 0.40626
 N68 N 0.70194 0.00916 0.43903
 C69 C 0.66469 -0.03279 0.43591
 C70 C 0.61991 -0.02866 0.39812
 C71 C 0.65180 0.06244 0.36868
 C72 C 0.84237 -0.06743 0.52891
 C73 C 0.88089 -0.11047 0.52327
 C74 C 0.83390 -0.13741 0.43725
 C75 C 0.79581 -0.09421 0.44493
 N76 N 0.80082 -0.06023 0.49017
 H77 H 0.72547 0.08976 0.41064
 H78 H 0.66920 -0.06896 0.46372
 H79 H 0.59007 -0.06190 0.39714
 H80 H 0.64732 0.10058 0.34361
 H81 H 0.84662 -0.03838 0.56321
 H82 H 0.91470 -0.11406 0.55354
 H83 H 0.83038 -0.16333 0.40031
 H84 H 0.76381 -0.08642 0.41344
 C85 C 0.88959 0.14307 0.47665
 C86 C 0.65250 0.00796 0.65851
 C87 C 0.87703 -0.14587 0.47667
 C88 C 0.61302 0.01973 0.36420
 C89 C 0.44546 0.16708 1.05867
 H90 H 0.41550 0.17372 1.02480
 C91 C 0.43642 0.12640 1.10003
 H92 H 0.39933 0.10174 1.09774
 C93 C 0.53040 0.19127 1.10199
 H94 H 0.56695 0.21665 1.10220
 C95 C 0.52303 0.15064 1.14450
 H96 H 0.55389 0.14615 1.17776
 N97 N 0.49164 0.19859 1.06032
 C98 C 0.42933 0.33921 0.95963
 H99 H 0.45375 0.33616 0.92201
 C100 C 0.39138 0.38304 0.96472
 H101 H 0.38681 0.41348 0.93057
 C102 C 0.40923 0.30569 1.05174
 H103 H 0.41772 0.27673 1.08638
 C104 C 0.37147 0.34915 1.05885
 H105 H 0.35018 0.35252 1.09850
 Zn106 Zn 0.49591 0.24950 0.99886
 N107 N 0.43730 0.30154 1.00274
 C108 C 0.44758 0.20684 0.89755
 N109 N 0.49165 0.20525 0.93374
 C110 C 0.53305 0.16718 0.92815
 C111 C 0.53139 0.12862 0.88468
 C112 C 0.44399 0.16860 0.85368
 C113 C 0.57175 0.32644 1.04217
 C114 C 0.61149 0.36806 1.03742
 C115 C 0.62803 0.33861 0.94202
 C116 C 0.58837 0.29746 0.94870
 N117 N 0.56061 0.29260 0.99791
 H118 H 0.41434 0.23632 0.90383
 H119 H 0.56682 0.16598 0.95857
 H120 H 0.56391 0.09754 0.88252
 H121 H 0.40808 0.16932 0.82589
 H122 H 0.54754 0.32322 1.07998
 H123 H 0.61765 0.39621 1.07219
 H124 H 0.64831 0.34317 0.90183
 H125 H 0.57745 0.27186 0.91316
 C126 C 0.36216 0.38840 1.01511
 C127 C 0.47555 0.11721 1.14336
 C128 C 0.63947 0.37508 0.98628
 C129 C 0.48621 0.12890 0.84688
 C130 C 0.45609 0.84319 -0.06492
 H131 H 0.42485 0.83840 -0.03325
 C132 C 0.45140 0.88625 -0.10495
 H133 H 0.41614 0.91430 -0.10391
 C134 C 0.54081 0.81319 -0.10277
 H135 H 0.57612 0.78529 -0.10066
 C136 C 0.53790 0.85625 -0.14379
 H137 H 0.57145 0.86051 -0.17281
 N138 N 0.50021 0.80783 -0.06431
 C139 C 0.42589 0.67639 0.03706
 H140 H 0.44981 0.67797 0.07598
 C141 C 0.38535 0.63578 0.03053
 H142 H 0.37854 0.60644 0.06492
 C143 C 0.40995 0.70926 -0.05686
 H144 H 0.42117 0.73627 -0.09172
 C145 C 0.36959 0.66909 -0.06535
 H146 H 0.34931 0.66644 -0.10634
 Zn147 Zn 0.50067 0.75747 -0.00185
 N148 N 0.43750 0.71196 -0.00644
 C149 C 0.46250 0.80832 0.10106
 N150 N 0.50261 0.80407 0.06194
 C151 C 0.54781 0.83699 0.06388
 C152 C 0.55440 0.87595 0.10636
 C153 C 0.46731 0.84732 0.14444
 C154 C 0.57332 0.67390 -0.04189
 C155 C 0.61222 0.63050 -0.03537
 C156 C 0.62735 0.65804 0.06130
 C157 C 0.58870 0.70099 0.05284
 N158 N 0.56223 0.70796 0.00202
 H159 H 0.42658 0.78218 0.09825
 H160 H 0.57873 0.83307 0.03182
 H161 H 0.59070 0.90186 0.10683
 H162 H 0.43526 0.84973 0.17545
 H163 H 0.55027 0.67893 -0.08121
 H164 H 0.61874 0.60262 -0.07018
 H165 H 0.64680 0.65225 0.10256
 H166 H 0.57787 0.72682 0.08801
 C167 C 0.35711 0.63144 -0.02163
 C168 C 0.49269 0.89384 -0.14479
 C169 C 0.63926 0.62183 0.01721
 C170 C 0.51370 0.88217 0.14693
 C171 C 1.10780 0.47035 0.18880
 H172 H 1.11184 0.43615 0.21907
 C173 C 1.14797 0.47807 0.14780
 H174 H 1.18323 0.45012 0.14791
 C175 C 1.05719 0.54869 0.15257
 H176 H 1.02146 0.57588 0.15473
 C177 C 1.09624 0.55806 0.11126
 H178 H 1.09035 0.59265 0.08156
 N179 N 1.06373 0.50575 0.19048
 C180 C 0.97962 0.39705 0.29951
 H181 H 0.94343 0.39706 0.27235
 C182 C 0.98561 0.35643 0.34238
 H183 H 0.95463 0.32453 0.34592
 C184 C 1.06314 0.43927 0.32800
 H185 H 1.09249 0.47258 0.32286
 C186 C 1.07072 0.39958 0.37140
 H187 H 1.10649 0.40217 0.39916
 Zn188 Zn 1.00648 0.49879 0.24283
 N189 N 1.01800 0.43758 0.29337
 C190 C 0.94169 0.44475 0.16499
 N191 N 0.94154 0.48991 0.19901
 C192 C 0.89974 0.52822 0.19652
 C193 C 0.85595 0.52193 0.15790
 C194 C 0.89880 0.43664 0.12633
 C195 C 1.04867 0.59764 0.28771
 C196 C 1.05433 0.63862 0.32847
 C197 C 0.96839 0.60906 0.36851
 C198 C 0.96465 0.56809 0.32721
 N199 N 1.00470 0.56294 0.28817
 H200 H 0.97600 0.41556 0.16717
 H201 H 0.90102 0.56438 0.22325
 H202 H 0.82311 0.55280 0.15660
 H203 H 0.90010 0.40069 0.09914
 H204 H 1.08118 0.59158 0.25786
 H205 H 1.09060 0.66457 0.32875
 H206 H 0.93739 0.61078 0.40069
 H207 H 0.93121 0.53861 0.32792
 C208 C 1.03115 0.35819 0.37988
 C209 C 1.14210 0.52240 0.10814
 C210 C 1.01432 0.64431 0.36985
 C211 C 0.85576 0.47594 0.12154
 C212 C -0.10805 0.46364 0.80990
 H213 H -0.10964 0.42887 0.78136
 C214 C -0.14855 0.46975 0.85080
 H215 H -0.18166 0.43997 0.85230
 C216 C -0.06310 0.54491 0.84206
 H217 H -0.02937 0.57383 0.83847
 C218 C -0.10259 0.55271 0.88315
 H219 H -0.09906 0.58791 0.91115
 N220 N -0.06660 0.50123 0.80627
 C221 C -0.06031 0.43373 0.67185
 H222 H -0.09233 0.46504 0.67626
 C223 C -0.06439 0.39453 0.62907
 H224 H -0.10027 0.39535 0.60124
 C225 C 0.02658 0.39663 0.70110
 H226 H 0.06272 0.39870 0.72818
 C227 C 0.02418 0.35658 0.65879
 H228 H 0.05794 0.32710 0.65561
 Zn229 Zn -0.00849 0.49633 0.75457
 N230 N -0.01517 0.43441 0.70651
 C231 C 0.05975 0.44613 0.83471
 N232 N 0.05663 0.49113 0.79901
 C233 C 0.09537 0.53176 0.80022
 C234 C 0.13935 0.52809 0.83923
 C235 C 0.10296 0.44060 0.87384
 C236 C -0.05538 0.59367 0.70477
 C237 C -0.06206 0.63436 0.66229
 C238 C 0.02527 0.60571 0.62427
 C239 C 0.03007 0.56516 0.66730
 N240 N -0.01006 0.55979 0.70624
 H241 H 0.02778 0.41503 0.83347
 H242 H 0.09142 0.56774 0.77214
 H243 H 0.16971 0.56080 0.83951
 H244 H 0.10428 0.40469 0.90236
 H245 H -0.08784 0.58736 0.73470
 H246 H -0.09911 0.65997 0.66072
 H247 H 0.05660 0.60765 0.59243
 H248 H 0.06464 0.53626 0.66824
 C249 C -0.02135 0.35607 0.62122
 C250 C -0.14575 0.51476 0.88834
 C251 C -0.02174 0.64048 0.62117
 C252 C 0.14289 0.48228 0.87728
 C253 C 0.05823 0.21195 0.49370
 C254 C 0.08035 0.18046 0.53592
 H255 H 0.07231 0.20641 0.45102
 H256 H 0.06261 0.18341 0.57749
 C257 C 0.70633 0.54786 -0.01004
 C258 C 0.67666 0.57355 0.02930
 H259 H 0.70271 0.56197 -0.05368
 H260 H 0.68110 0.55946 0.07292
 C261 C 0.94791 -0.21584 0.50697
 C262 C 0.91980 -0.18839 0.46562
 H263 H 0.93921 -0.20670 0.55062
 H264 H 0.92827 -0.19732 0.42189
 C265 C 0.29373 0.46010 0.98319
 C266 C 0.32406 0.43567 1.02467
 H267 H 0.29829 0.44613 0.94019
 H268 H 0.31886 0.44911 1.06777
 C269 C 0.95883 0.21160 0.51085
 C270 C 0.93566 0.18251 0.46886
 H271 H 0.94555 0.20474 0.55378
 H272 H 0.95265 0.18639 0.42694
 C273 C 0.28881 0.55978 0.00603
 C274 C 0.31852 0.58545 -0.03369
 H275 H 0.29224 0.57331 0.04938
 H276 H 0.31439 0.57220 -0.07711
 C277 C 0.04537 -0.21664 0.48533
 C278 C 0.07229 -0.19173 0.52788
 H279 H 0.05607 -0.20671 0.44211
 H280 H 0.06135 -0.20160 0.57107
 C281 C 0.70595 0.44779 1.01629
 C282 C 0.67705 0.42226 0.97562
 H283 H 0.70152 0.43437 1.05988
 H284 H 0.68214 0.43572 0.93208
 C285 C 0.50339 0.04835 1.21906
 C286 C 0.46450 0.07277 1.18596
 H287 H 0.54595 0.05996 1.21391
 H288 H 0.42283 0.05722 1.18814
 C289 C 0.00799 0.70590 0.54537
 C290 C -0.03215 0.68044 0.57380
 H291 H 0.05055 0.69597 0.55603
 H292 H -0.07469 0.69039 0.56299
 C293 C 0.52130 0.95543 -0.22596
 C294 C 0.48753 0.94334 -0.18336
 H295 H 0.55355 0.92624 -0.23664
 H296 H 0.45414 0.97242 -0.17553
 C297 C 0.99860 0.28747 0.45023
 C298 C 1.03906 0.31825 0.42805
 H299 H 0.95685 0.29297 0.43433
 H300 H 1.07967 0.31555 0.44769
 C301 C 0.48125 0.94861 0.21989
 C302 C 0.52189 0.92548 0.19027
 H303 H 0.43920 0.93615 0.21178
 H304 H 0.56304 0.94196 0.19543
 C305 C 0.01588 0.28678 0.55292
 C306 C -0.02606 0.31689 0.57349
 H307 H 0.05710 0.29175 0.56993
 H308 H -0.06607 0.31390 0.55282
 C309 C 0.52178 0.05874 0.77961
 C310 C 0.47940 0.08547 0.80368
 H311 H 0.56342 0.07005 0.79135
 H312 H 0.43751 0.07486 0.79234
 C313 C 0.98454 0.70893 0.44477
 C314 C 1.02463 0.68348 0.41636
 H315 H 0.94198 0.70010 0.43427
 H316 H 1.06719 0.69212 0.42709
 C317 C 1.21773 0.49550 0.04378
 C318 C 1.18260 0.53379 0.06353
 H319 H 1.21652 0.45293 0.05991
 H320 H 1.18152 0.57498 0.04366
 C321 C 0.55877 0.01417 0.69479
 C322 C 0.61261 0.00460 0.70475
 H323 H 0.54578 0.02677 0.65228
 H324 H 0.62694 -0.00984 0.74612
 C325 C -0.21972 0.48525 0.95414
 C326 C -0.18674 0.52464 0.93277
 H327 H -0.21625 0.44271 0.93966
 H328 H -0.18794 0.56588 0.95106
 C329 C 0.44119 0.01060 0.29377
 C330 C 0.41419 -0.03012 0.32102
 H331 H 0.42952 0.05383 0.30014
 H332 H 0.42602 -0.07328 0.31435
 C333 C 0.21661 0.51790 0.94216
 C334 C 0.18639 0.47591 0.92157
 H335 H 0.20998 0.56014 0.92620
 H336 H 0.19123 0.43489 0.94135
 C337 C 0.53978 -0.01272 0.29819
 C338 C 0.56469 0.02856 0.32625
 H339 H 0.55367 -0.05552 0.30510
 H340 H 0.55095 0.07133 0.31868
 C341 C 0.78043 0.50796 0.05493
 C342 C 0.81264 0.46721 0.07765
 H343 H 0.78530 0.55056 0.06873
 H344 H 0.80996 0.42577 0.05999
 C345 C 0.45966 0.01289 0.70799
 C346 C 0.43549 -0.03157 0.68478
 H347 H 0.44387 0.05423 0.69704
 H348 H 0.45475 -0.07241 0.69010
   
