data_POSCAR
  _audit_creation_date              2014-09-24
  _audit_creation_method            'ToBaCCo'
  _symmetry_space_group_name_H-M    'P1'
  _symmetry_Int_Tables_number       1
  _symmetry_cell_setting            triclinic
  loop_
  _symmetry_equiv_pos_as_xyz
 x,y,z
_cell_length_a 31.9273
_cell_length_b 32.0037
_cell_length_c 31.9732
_cell_angle_alpha 82.857900
_cell_angle_beta 97.183800
_cell_angle_gamma 95.880600
loop_
  _atom_site_label
  _atom_site_type_symbol
  _atom_site_fract_x
  _atom_site_fract_y
  _atom_site_fract_z
C1 C 0.59180 0.54138 -0.00180
 C2 C 0.58241 0.58278 0.00000
 C3 C 0.54092 0.59216 0.00181
 C4 C 0.50756 0.55941 0.00188
 C5 C 0.51666 0.51722 0.00003
 C6 C 0.55895 0.50811 -0.00183
 C7 C 0.56719 0.46603 -0.00367
 C8 C 0.53462 0.43359 -0.00369
 C9 C 0.49254 0.44191 -0.00185
 C10 C 0.48343 0.48407 0.00004
 C11 C 0.46540 0.56765 0.00372
 C12 C 0.43286 0.53518 0.00376
 C13 C 0.44113 0.49312 0.00193
 C14 C 0.40833 0.45979 0.00193
 C15 C 0.41779 0.41843 0.00004
 C16 C 0.45927 0.40918 -0.00185
 H17 H 0.59900 0.45782 -0.00512
 H18 H 0.54276 0.40182 -0.00516
 H19 H 0.45719 0.59939 0.00518
 H20 H 0.40104 0.54335 0.00524
 H21 H 0.60783 0.60813 -0.00001
 H22 H 0.39252 0.39297 0.00003
 C23 C -0.00169 0.59197 0.45732
 C24 C 0.00034 0.58288 0.41607
 C25 C 0.00215 0.54141 0.40736
 C26 C 0.00194 0.50785 0.44068
 C27 C -0.00010 0.51679 0.48273
 C28 C -0.00192 0.55903 0.49111
 C29 C -0.00392 0.56720 0.53301
 C30 C -0.00413 0.53450 0.56608
 C31 C -0.00237 0.49240 0.55851
 C32 C -0.00034 0.48345 0.51648
 C33 C 0.00371 0.46568 0.43319
 C34 C 0.00347 0.43300 0.46628
 C35 C 0.00147 0.44120 0.50815
 C36 C 0.00120 0.40829 0.54199
 C37 C -0.00079 0.41748 0.58322
 C38 C -0.00256 0.45895 0.59182
 H39 H -0.00534 0.59902 0.54060
 H40 H -0.00571 0.54253 0.59772
 H41 H 0.00530 0.45758 0.40157
 H42 H 0.00489 0.40116 0.45872
 H43 H 0.00049 0.60853 0.39040
 H44 H -0.00096 0.39198 0.60901
 C45 C 0.54191 0.00206 0.59270
 C46 C 0.58349 0.00027 0.58407
 C47 C 0.59269 -0.00170 0.54280
 C48 C 0.55963 -0.00191 0.50890
 C49 C 0.51727 -0.00009 0.51727
 C50 C 0.50830 0.00191 0.55932
 C51 C 0.46602 0.00368 0.56680
 C52 C 0.43326 0.00351 0.53369
 C53 C 0.44147 0.00154 0.49183
 C54 C 0.48382 -0.00028 0.48351
 C55 C 0.56772 -0.00387 0.46692
 C56 C 0.53491 -0.00406 0.43387
 C57 C 0.49274 -0.00230 0.44146
 C58 C 0.45918 -0.00247 0.40815
 C59 C 0.41763 -0.00066 0.41674
 C60 C 0.40846 0.00133 0.45798
 H61 H 0.45790 0.00524 0.59842
 H62 H 0.40135 0.00494 0.54125
 H63 H 0.59959 -0.00529 0.45926
 H64 H 0.54293 -0.00561 0.40221
 H65 H 0.60911 0.00040 0.60989
 H66 H 0.39205 -0.00080 0.39096
 O67 O 0.46929 -0.00144 -0.06440
 O68 O 0.46151 -0.00965 0.05035
 O69 O 0.46170 0.05190 -0.01087
 O70 O 0.46908 -0.06300 -0.00315
 O71 O 0.53886 -0.05269 0.00925
 O72 O 0.53148 0.06222 0.00154
 O73 O 0.53130 0.00066 0.06275
 O74 O 0.53907 0.00887 -0.05199
 Cu75 Cu 0.45836 -0.00658 -0.00826
 Cu76 Cu 0.54222 0.00580 0.00662
 C77 C 0.50554 0.00486 -0.07753
 C78 C 0.49505 -0.00563 0.07590
 C79 C 0.49530 0.07643 -0.00571
 C80 C 0.50525 -0.07722 0.00413
 O81 O -0.05229 0.53881 0.99077
 O82 O 0.06289 0.53138 0.99851
 O83 O 0.00114 0.53122 0.93727
 O84 O 0.00944 0.53896 1.05203
 O85 O -0.00094 0.46935 1.06437
 O86 O -0.00924 0.46161 0.94960
 O87 O 0.05250 0.46178 1.01084
 O88 O -0.06268 0.46921 1.00310
 Cu89 Cu 0.00634 0.54212 0.99341
 Cu90 Cu -0.00612 0.45847 1.00822
 C91 C -0.07690 0.50531 0.99586
 C92 C 0.07711 0.49528 1.00572
 C93 C -0.00521 0.49507 0.92409
 C94 C 0.00540 0.50551 1.07754
 O95 O -0.01069 -0.05068 0.46083
 O96 O -0.00366 0.06350 0.46959
 O97 O 0.05004 0.00992 0.46081
 O98 O -0.06440 0.00288 0.46968
 O99 O -0.05138 -0.00998 0.53944
 O100 O 0.06304 -0.00293 0.53057
 O101 O 0.00934 0.05065 0.53936
 O102 O 0.00232 -0.06354 0.53059
 Cu103 Cu -0.00849 0.00769 0.45818
 Cu104 Cu 0.00713 -0.00774 0.54204
 C105 C -0.00516 -0.07636 0.49419
 C106 C 0.00383 0.07632 0.50599
 C107 C 0.07583 0.00448 0.49416
 C108 C -0.07718 -0.00454 0.50609
 C109 C -0.22245 0.55730 0.99770
 C110 C -0.25788 0.54790 0.96151
 C111 C -0.28525 0.52402 0.99461
 C112 C -0.25047 0.53350 1.03079
 C113 C -0.20431 0.51555 0.99352
 C114 C -0.23169 0.49166 1.02662
 C115 C -0.23906 0.50605 0.95731
 C116 C -0.26718 0.48224 0.99043
 C117 C -0.33012 0.52943 0.99560
 C118 C -0.36682 0.53462 0.99671
 C119 C -0.15902 0.51139 0.99350
 C120 C -0.12161 0.50842 0.99417
 H121 H -0.20359 0.58813 1.00068
 H122 H -0.26916 0.57109 0.93475
 H123 H -0.25564 0.54483 1.06102
 H124 H -0.22043 0.46849 1.05340
 H125 H -0.23386 0.49473 0.92709
 H126 H -0.28611 0.45145 0.98746
 C127 C 0.23509 0.47141 1.04674
 C128 C 0.25289 0.44096 1.02069
 C129 C 0.28541 0.47688 1.00606
 C130 C 0.26833 0.50728 1.03210
 C131 C 0.20449 0.48516 1.00759
 C132 C 0.23698 0.52111 0.99295
 C133 C 0.22164 0.45478 0.98157
 C134 C 0.25479 0.49063 0.96693
 C135 C 0.33026 0.47157 1.00485
 C136 C 0.36695 0.46645 1.00357
 C137 C 0.15922 0.48925 1.00782
 C138 C 0.12181 0.49218 1.00730
 H139 H 0.22649 0.46355 1.07956
 H140 H 0.25992 0.40793 1.03207
 H141 H 0.28806 0.52882 1.05285
 H142 H 0.22994 0.55413 0.98156
 H143 H 0.20197 0.43322 0.96080
 H144 H 0.26338 0.49849 0.93410
 C145 C 0.01792 -0.23412 0.51419
 C146 C -0.02143 -0.26675 0.51182
 C147 C -0.00563 -0.28321 0.47399
 C148 C 0.03371 -0.25129 0.47629
 C149 C -0.00699 -0.20277 0.48278
 C150 C 0.00880 -0.21929 0.44497
 C151 C -0.04636 -0.23467 0.48048
 C152 C -0.03054 -0.25186 0.44259
 C153 C -0.00452 -0.32782 0.46863
 C154 C -0.00333 -0.36438 0.46377
 C155 C -0.00716 -0.15782 0.48725
 C156 C -0.00664 -0.12069 0.49058
 H157 H 0.03784 -0.22631 0.54368
 H158 H -0.03383 -0.28682 0.53923
 H159 H 0.06664 -0.25863 0.47452
 H160 H 0.02122 -0.19927 0.41753
 H161 H -0.07927 -0.22731 0.48225
 H162 H -0.05044 -0.25968 0.41308
 C163 C 0.04548 0.23446 0.52007
 C164 C 0.02123 0.26669 0.48826
 C165 C 0.00483 0.28335 0.52565
 C166 C 0.02907 0.25186 0.55753
 C167 C 0.00594 0.20282 0.51715
 C168 C -0.01045 0.21954 0.55452
 C169 C -0.01830 0.23431 0.48527
 C170 C -0.03469 0.25169 0.52273
 C171 C 0.00385 0.32801 0.53086
 C172 C 0.00276 0.36462 0.53562
 C173 C 0.00599 0.15782 0.51282
 C174 C 0.00538 0.12066 0.50957
 H175 H 0.07844 0.22685 0.51894
 H176 H 0.03422 0.28662 0.46109
 H177 H 0.04852 0.25960 0.58729
 H178 H -0.02346 0.19966 0.58172
 H179 H -0.03777 0.22657 0.45551
 H180 H -0.06765 0.25927 0.52387
 C181 C 0.55776 0.00101 -0.22127
 C182 C 0.53316 -0.03077 -0.25021
 C183 C 0.52472 0.00604 -0.28497
 C184 C 0.54941 0.03783 -0.25668
 C185 C 0.51611 0.00729 -0.20441
 C186 C 0.50766 0.04413 -0.23913
 C187 C 0.49142 -0.02451 -0.23270
 C188 C 0.48305 0.01231 -0.26816
 C189 C 0.53016 0.00493 -0.32961
 C190 C 0.53530 0.00369 -0.36612
 C191 C 0.51185 0.00734 -0.15933
 C192 C 0.50878 0.00665 -0.12206
 H193 H 0.58844 -0.00362 -0.20152
 H194 H 0.54368 -0.06158 -0.25526
 H195 H 0.57332 0.06345 -0.26706
 H196 H 0.49714 0.07493 -0.23406
 H197 H 0.46752 -0.05014 -0.22234
 H198 H 0.45240 0.01693 -0.28799
 C199 C 0.52031 -0.01528 0.23925
 C200 C 0.50801 0.02305 0.25883
 C201 C 0.47638 -0.00668 0.28342
 C202 C 0.48859 -0.04502 0.26459
 C203 C 0.48469 -0.00800 0.20280
 C204 C 0.45306 -0.03774 0.22741
 C205 C 0.47249 0.03031 0.22169
 C206 C 0.44080 0.00059 0.24695
 C207 C 0.47111 -0.00553 0.32809
 C208 C 0.46609 -0.00426 0.36463
 C209 C 0.48883 -0.00809 0.15770
 C210 C 0.49184 -0.00741 0.12043
 H211 H 0.55305 -0.02182 0.23556
 H212 H 0.53054 0.04806 0.27226
 H213 H 0.49517 -0.07598 0.28276
 H214 H 0.43052 -0.06274 0.21399
 H215 H 0.46590 0.06129 0.20356
 H216 H 0.40805 0.00714 0.25060
 C217 C 0.52884 -0.23475 0.04581
 C218 C 0.49296 -0.26793 0.03102
 C219 C 0.52367 -0.28514 0.00537
 C220 C 0.55959 -0.25268 0.02016
 C221 C 0.51534 -0.20435 0.00646
 C222 C 0.54603 -0.22163 -0.01917
 C223 C 0.47939 -0.23680 -0.00833
 C224 C 0.51017 -0.25473 -0.03396
 C225 C 0.52902 -0.32992 0.00439
 C226 C 0.53418 -0.36654 0.00329
 C227 C 0.51125 -0.15916 0.00648
 C228 C 0.50833 -0.12182 0.00581
 H229 H 0.53647 -0.22603 0.07862
 H230 H 0.47119 -0.28751 0.05162
 H231 H 0.59264 -0.25969 0.03185
 H232 H 0.56782 -0.20212 -0.03979
 H233 H 0.44635 -0.22977 -0.02004
 H234 H 0.50254 -0.26344 -0.06677
 C235 C 0.52128 0.23600 0.00677
 C236 C 0.50709 0.26717 -0.03234
 C237 C 0.47684 0.28423 -0.00607
 C238 C 0.49096 0.25379 0.03302
 C239 C 0.48517 0.20351 -0.00758
 C240 C 0.45495 0.22064 0.01867
 C241 C 0.47106 0.23392 -0.04668
 C242 C 0.44076 0.25171 -0.02041
 C243 C 0.47151 0.32897 -0.00486
 C244 C 0.46639 0.36557 -0.00360
 C245 C 0.48928 0.15834 -0.00781
 C246 C 0.49222 0.12102 -0.00728
 H247 H 0.55445 0.22904 0.01793
 H248 H 0.52848 0.28683 -0.05328
 H249 H 0.49910 0.26245 0.06580
 H250 H 0.43354 0.20103 0.03963
 H251 H 0.46292 0.22526 -0.07946
 H252 H 0.40759 0.25865 -0.03156
 C253 C -0.22494 0.03327 0.52281
 C254 C -0.26238 0.01991 0.49010
 C255 C -0.28452 -0.00539 0.52643
 C256 C -0.24776 0.00798 0.55921
 C257 C -0.20389 -0.00657 0.51760
 C258 C -0.22605 -0.03186 0.55394
 C259 C -0.24063 -0.01994 0.48480
 C260 C -0.26352 -0.04524 0.52123
 C261 C -0.32924 -0.00435 0.53182
 C262 C -0.36589 -0.00321 0.53671
 C263 C -0.15883 -0.00665 0.51310
 C264 C -0.12161 -0.00607 0.50974
 H265 H -0.20857 0.06554 0.52341
 H266 H -0.27784 0.04120 0.46392
 H267 H -0.25119 0.01948 0.58985
 H268 H -0.21061 -0.05315 0.58012
 H269 H -0.23717 -0.03144 0.45416
 H270 H -0.27992 -0.07750 0.52063
 C271 C 0.23397 -0.01838 0.51436
 C272 C 0.25130 -0.03410 0.47651
 C273 C 0.28327 0.00518 0.47434
 C274 C 0.26665 0.02090 0.51212
 C275 C 0.20258 0.00644 0.48288
 C276 C 0.23452 0.04574 0.48071
 C277 C 0.21925 -0.00928 0.44513
 C278 C 0.25187 0.03000 0.44287
 C279 C 0.32802 0.00411 0.46911
 C280 C 0.36469 0.00295 0.46434
 C281 C 0.15749 0.00656 0.48726
 C282 C 0.12026 0.00600 0.49054
 H283 H 0.22610 -0.03827 0.54381
 H284 H 0.25871 -0.06693 0.47474
 H285 H 0.28670 0.03328 0.53959
 H286 H 0.22709 0.07856 0.48249
 H287 H 0.19926 -0.02167 0.41762
 H288 H 0.25975 0.04987 0.41341
 C289 C 0.04450 0.50719 1.23927
 C290 C 0.03846 0.54887 1.25692
 C291 C 0.00635 0.52443 1.28501
 C292 C 0.01237 0.48282 1.26810
 C293 C 0.00773 0.51596 1.20443
 C294 C -0.02438 0.49151 1.23253
 C295 C 0.00171 0.55754 1.22140
 C296 C -0.03039 0.53318 1.25014
 C297 C 0.00516 0.52978 1.32965
 C298 C 0.00386 0.53487 1.36617
 C299 C 0.00784 0.51176 1.15935
 C300 C 0.00718 0.50872 1.12208
 H301 H 0.07530 0.49646 1.23428
 H302 H 0.06428 0.57252 1.26747
 H303 H 0.01672 0.45216 1.28785
 H304 H -0.05022 0.46787 1.22199
 H305 H -0.00265 0.58823 1.20172
 H306 H -0.06120 0.54391 1.25510
 C307 C 0.03039 0.47190 0.77834
 C308 C 0.00018 0.44066 0.75298
 C309 C -0.00661 0.47627 0.71654
 C310 C 0.02363 0.50745 0.74125
 C311 C -0.00777 0.48466 0.79717
 C312 C -0.01456 0.52031 0.76076
 C313 C -0.03801 0.45348 0.77245
 C314 C -0.04481 0.48903 0.73531
 C315 C -0.00553 0.47095 0.67187
 C316 C -0.00431 0.46589 0.63533
 C317 C -0.00778 0.48883 0.84227
 C318 C -0.00705 0.49186 0.87955
 H319 H 0.06132 0.46489 0.79652
 H320 H 0.00626 0.40785 0.74929
 H321 H 0.04897 0.52958 0.72790
 H322 H -0.02064 0.55311 0.76448
 H323 H -0.06336 0.43134 0.78578
 H324 H -0.07571 0.49603 0.71708
   
