data_POSCAR
  _audit_creation_date              2014-09-24
  _audit_creation_method            'ToBaCCo'
  _symmetry_space_group_name_H-M    'P1'
  _symmetry_Int_Tables_number       1
  _symmetry_cell_setting            triclinic
  loop_
  _symmetry_equiv_pos_as_xyz
 x,y,z
_cell_length_a 51.1228
_cell_length_b 49.4721
_cell_length_c 50.5724
_cell_angle_alpha 88.205000
_cell_angle_beta 90.555200
_cell_angle_gamma 89.175800
loop_
  _atom_site_label
  _atom_site_type_symbol
  _atom_site_fract_x
  _atom_site_fract_y
  _atom_site_fract_z
N1 N 0.28342 0.23239 0.20424
 N2 N 0.26853 0.24984 0.19067
 C3 C 0.27948 0.25520 0.16707
 C4 C 0.30246 0.24042 0.16565
 C5 C 0.30447 0.22607 0.18960
 H6 H 0.27126 0.26878 0.15189
 H7 H 0.31978 0.21186 0.19575
 Cu8 Cu 0.23598 0.26415 0.20433
 Cu9 Cu 0.27333 0.21856 0.23931
 Cu10 Cu 0.22118 0.25168 0.26797
 N11 N 0.21036 0.28598 0.22248
 N12 N 0.20539 0.28186 0.24772
 C13 C 0.18679 0.29961 0.25503
 C14 C 0.17967 0.31552 0.23306
 C15 C 0.19491 0.30625 0.21276
 H16 H 0.17825 0.30006 0.27449
 H17 H 0.19442 0.31343 0.19234
 N18 N 0.23948 0.22052 0.28519
 N19 N 0.25962 0.20795 0.27461
 C20 C 0.26633 0.18630 0.29027
 C21 C 0.24936 0.18520 0.31144
 C22 C 0.23263 0.20705 0.30752
 H23 H 0.28119 0.17143 0.28570
 H24 H 0.21590 0.21195 0.31947
 H25 H 0.23382 0.22751 0.23736
 H26 H 0.25618 0.25521 0.24736
 N27 N 0.70808 -0.22379 0.21964
 N28 N 0.71497 -0.24758 0.21092
 C29 C 0.69900 -0.25368 0.19062
 C30 C 0.68144 -0.23227 0.18648
 C31 C 0.68781 -0.21378 0.20519
 H32 H 0.70064 -0.27174 0.17922
 H33 H 0.67851 -0.19429 0.20785
 Cu34 Cu 0.74542 -0.26658 0.22622
 Cu35 Cu 0.72588 -0.20696 0.24869
 Cu36 Cu 0.77829 -0.24196 0.27812
 N37 N 0.77565 -0.28557 0.24175
 N38 N 0.78743 -0.27665 0.26296
 C39 C 0.80774 -0.29324 0.26948
 C40 C 0.80906 -0.31323 0.25094
 C41 C 0.78849 -0.30772 0.23364
 H42 H 0.82146 -0.28989 0.28540
 H43 H 0.78368 -0.31872 0.21613
 N44 N 0.76584 -0.20631 0.29000
 N45 N 0.74604 -0.19311 0.27834
 C46 C 0.74283 -0.16908 0.28958
 C47 C 0.76139 -0.16686 0.30918
 C48 C 0.77578 -0.19080 0.30909
 H49 H 0.72829 -0.15392 0.28372
 H50 H 0.79251 -0.19621 0.32148
 H51 H 0.76260 -0.22504 0.24379
 H52 H 0.73975 -0.24246 0.26705
 N53 N 0.71553 0.23163 0.79377
 N54 N 0.72810 0.25283 0.80206
 C55 C 0.71634 0.26186 0.82385
 C56 C 0.69533 0.24552 0.82945
 C57 C 0.69532 0.22651 0.80997
 H58 H 0.72273 0.27881 0.83512
 H59 H 0.68203 0.20988 0.80798
 Cu60 Cu 0.75906 0.26605 0.78408
 Cu61 Cu 0.72711 0.21140 0.76346
 Cu62 Cu 0.78205 0.23481 0.73094
 N63 N 0.78945 0.27945 0.76516
 N64 N 0.79825 0.26685 0.74446
 C65 C 0.81968 0.27932 0.73539
 C66 C 0.82463 0.30091 0.75115
 C67 C 0.80505 0.30056 0.76993
 H68 H 0.83108 0.27296 0.71873
 H69 H 0.80260 0.31421 0.78602
 N70 N 0.76299 0.20274 0.72016
 N71 N 0.74203 0.19374 0.73244
 C72 C 0.73421 0.17096 0.72095
 C73 C 0.75103 0.16550 0.70053
 C74 C 0.76903 0.18605 0.70056
 H75 H 0.71779 0.15889 0.72720
 H76 H 0.78566 0.18835 0.68772
 H77 H 0.76610 0.22131 0.76630
 H78 H 0.74493 0.24360 0.74432
 N79 N 0.27733 -0.23711 0.79505
 N80 N 0.26012 -0.24811 0.81112
 C81 C 0.27138 -0.25314 0.83491
 C82 C 0.29701 -0.24489 0.83381
 C83 C 0.30022 -0.23472 0.80821
 H84 H 0.26177 -0.26261 0.85169
 H85 H 0.31784 -0.22653 0.79969
 Cu86 Cu 0.22496 -0.25671 0.79971
 Cu87 Cu 0.26834 -0.22683 0.75841
 Cu88 Cu 0.21188 -0.25489 0.73446
 N89 N 0.19665 -0.27719 0.78483
 N90 N 0.19297 -0.27830 0.75913
 C91 C 0.17385 -0.29598 0.75426
 C92 C 0.16494 -0.30618 0.77834
 C93 C 0.17967 -0.29363 0.79728
 H94 H 0.16668 -0.30053 0.73473
 H95 H 0.17870 -0.29689 0.81850
 N96 N 0.23331 -0.22994 0.71307
 N97 N 0.25503 -0.21922 0.72206
 C98 C 0.26344 -0.20063 0.70411
 C99 C 0.24592 -0.19949 0.68303
 C100 C 0.22714 -0.21828 0.68939
 H101 H 0.27977 -0.18739 0.70714
 H102 H 0.20936 -0.22183 0.67835
 H103 H 0.22816 -0.22737 0.76074
 H104 H 0.24595 -0.26073 0.75753
 N105 N 0.71127 -0.23500 0.79322
 N106 N 0.72777 -0.25056 0.80700
 C107 C 0.72003 -0.25199 0.83233
 C108 C 0.69740 -0.23677 0.83452
 C109 C 0.69226 -0.22621 0.80928
 H110 H 0.72979 -0.26365 0.84805
 H111 H 0.67597 -0.21333 0.80295
 Cu112 Cu 0.75666 -0.26902 0.79022
 Cu113 Cu 0.71589 -0.22795 0.75546
 Cu114 Cu 0.77350 -0.25221 0.72788
 N115 N 0.78536 -0.28713 0.77291
 N116 N 0.79144 -0.28128 0.74820
 C117 C 0.81188 -0.29701 0.74129
 C118 C 0.81901 -0.31329 0.76308
 C119 C 0.80188 -0.30639 0.78270
 H120 H 0.82124 -0.29599 0.72221
 H121 H 0.80166 -0.31477 0.80270
 N122 N 0.75156 -0.22329 0.71088
 N123 N 0.72935 -0.21477 0.72110
 C124 C 0.71995 -0.19371 0.70626
 C125 C 0.73692 -0.18874 0.68573
 C126 C 0.75679 -0.20787 0.68917
 H127 H 0.70285 -0.18174 0.71096
 H128 H 0.77440 -0.20949 0.67764
 H129 H 0.73930 -0.26146 0.74531
 H130 H 0.75632 -0.23147 0.75865
 N131 N 0.28608 0.23413 0.78573
 N132 N 0.27159 0.25451 0.79351
 C133 C 0.28243 0.26453 0.81546
 C134 C 0.30492 0.24978 0.82162
 C135 C 0.30670 0.23062 0.80233
 H136 H 0.27441 0.28103 0.82649
 H137 H 0.32138 0.21480 0.80090
 Cu138 Cu 0.23960 0.26549 0.77460
 Cu139 Cu 0.27615 0.21242 0.75587
 Cu140 Cu 0.21895 0.23103 0.72229
 N141 N 0.20768 0.27595 0.75528
 N142 N 0.19965 0.26213 0.73502
 C143 C 0.17691 0.27286 0.72576
 C144 C 0.17040 0.29466 0.74082
 C145 C 0.19033 0.29613 0.75945
 H146 H 0.16578 0.26530 0.70934
 H147 H 0.19178 0.31039 0.77513
 N148 N 0.24106 0.20014 0.71231
 N149 N 0.26276 0.19297 0.72522
 C150 C 0.27287 0.17063 0.71443
 C151 C 0.25689 0.16351 0.69373
 C152 C 0.23689 0.18263 0.69287
 H153 H 0.29042 0.16002 0.72126
 H154 H 0.22026 0.18340 0.67950
 H155 H 0.25539 0.24270 0.73570
 H156 H 0.23646 0.21981 0.75822
 N157 N 0.27515 -0.22702 0.19366
 N158 N 0.26214 -0.24727 0.18405
 C159 C 0.27540 -0.25724 0.16358
 C160 C 0.29783 -0.24235 0.16012
 C161 C 0.29709 -0.22327 0.17956
 H162 H 0.26894 -0.27365 0.15161
 H163 H 0.31103 -0.20747 0.18291
 Cu164 Cu 0.22815 -0.25726 0.19789
 Cu165 Cu 0.26129 -0.20608 0.22244
 Cu166 Cu 0.21516 -0.24026 0.26032
 N167 N 0.19688 -0.26961 0.21574
 N168 N 0.19246 -0.26420 0.24062
 C169 C 0.17082 -0.27729 0.24862
 C170 C 0.16106 -0.29118 0.22739
 C171 C 0.17793 -0.28571 0.20686
 H172 H 0.16262 -0.27641 0.26822
 H173 H 0.17682 -0.29354 0.18716
 N174 N 0.23371 -0.20797 0.27259
 N175 N 0.25097 -0.19505 0.25782
 C176 C 0.25965 -0.17361 0.27077
 C177 C 0.24716 -0.17265 0.29472
 C178 C 0.23075 -0.19473 0.29538
 H179 H 0.27388 -0.15945 0.26321
 H180 H 0.21741 -0.20050 0.31097
 H181 H 0.24933 -0.24174 0.23799
 H182 H 0.22212 -0.21868 0.22630
 N183 N 0.71276 0.24822 0.20779
 N184 N 0.72674 0.26818 0.19795
 C185 C 0.71516 0.27783 0.17549
 C186 C 0.69280 0.26322 0.17115
 C187 C 0.69182 0.24457 0.19204
 H188 H 0.72257 0.29401 0.16292
 H189 H 0.67740 0.22907 0.19524
 Cu190 Cu 0.75914 0.27905 0.21497
 Cu191 Cu 0.72323 0.22756 0.23957
 Cu192 Cu 0.77967 0.24743 0.27134
 N193 N 0.79055 0.29037 0.23360
 N194 N 0.79834 0.27768 0.25558
 C195 C 0.82060 0.28867 0.26419
 C196 C 0.82718 0.30942 0.24683
 C197 C 0.80771 0.31008 0.22756
 H198 H 0.83144 0.28194 0.28171
 H199 H 0.80636 0.32354 0.21033
 N200 N 0.75827 0.21728 0.28438
 N201 N 0.73703 0.20929 0.27202
 C202 C 0.72760 0.18742 0.28507
 C203 C 0.74351 0.18165 0.30676
 C204 C 0.76279 0.20091 0.30573
 H205 H 0.71062 0.17622 0.27913
 H206 H 0.77937 0.20231 0.31901
 H207 H 0.74313 0.25891 0.25623
 H208 H 0.76270 0.23448 0.23673
 C209 C 0.25144 -0.00427 0.42665
 C210 C 0.25843 0.01868 0.44049
 C211 C 0.26102 0.01686 0.46810
 C212 C 0.25492 -0.00722 0.48228
 C213 C 0.24752 -0.02998 0.46789
 C214 C 0.24678 -0.02894 0.44012
 C215 C 0.25618 -0.00853 0.51191
 C216 C 0.26252 -0.03301 0.52572
 C217 C 0.26207 -0.03469 0.55342
 C218 C 0.25717 -0.01134 0.56764
 C219 C 0.25220 0.01360 0.55444
 C220 C 0.25076 0.01464 0.52668
 H221 H 0.24988 -0.00286 0.40528
 H222 H 0.26747 0.03446 0.47841
 H223 H 0.24254 -0.04871 0.47813
 H224 H 0.26735 -0.05103 0.51509
 H225 H 0.25716 -0.01276 0.58904
 H226 H 0.24544 0.03365 0.51674
 C227 C 0.77821 -0.00605 0.57230
 C228 C 0.78284 0.01956 0.56076
 C229 C 0.78752 0.02190 0.53348
 C230 C 0.78555 -0.00067 0.51714
 C231 C 0.78014 -0.02603 0.52931
 C232 C 0.77687 -0.02888 0.55669
 C233 C 0.78796 0.00230 0.48756
 C234 C 0.79374 -0.02026 0.47200
 C235 C 0.79328 -0.01813 0.44427
 C236 C 0.78926 0.00733 0.43187
 C237 C 0.78390 0.03011 0.44675
 C238 C 0.78308 0.02750 0.47436
 H239 H 0.77649 -0.00843 0.59354
 H240 H 0.79243 0.04158 0.52525
 H241 H 0.77766 -0.04380 0.51773
 H242 H 0.79820 -0.03985 0.48112
 H243 H 0.79068 0.00965 0.41059
 H244 H 0.77763 0.04517 0.48518
 C245 C 0.42966 0.22463 -0.00472
 C246 C 0.44259 0.22055 0.01974
 C247 C 0.47005 0.22081 0.02059
 C248 C 0.48465 0.22725 -0.00230
 C249 C 0.47099 0.23234 -0.02636
 C250 C 0.44368 0.23070 -0.02779
 C251 C 0.51388 0.22940 -0.00104
 C252 C 0.52928 0.22469 -0.02353
 C253 C 0.55644 0.22821 -0.02289
 C254 C 0.56868 0.23449 0.00102
 C255 C 0.55395 0.23887 0.02379
 C256 C 0.52664 0.23675 0.02248
 H257 H 0.40869 0.22235 -0.00595
 H258 H 0.47985 0.21625 0.03928
 H259 H 0.48137 0.23814 -0.04414
 H260 H 0.52033 0.21839 -0.04176
 H261 H 0.58979 0.23493 0.00205
 H262 H 0.51547 0.24124 0.03991
 C263 C 0.57039 0.77589 0.00545
 C264 C 0.55553 0.76830 0.02746
 C265 C 0.52841 0.76581 0.02473
 C266 C 0.51558 0.77292 0.00057
 C267 C 0.53102 0.78074 -0.02131
 C268 C 0.55842 0.78100 -0.01931
 C269 C 0.48633 0.77205 -0.00170
 C270 C 0.47374 0.76744 -0.02614
 C271 C 0.44635 0.76645 -0.02805
 C272 C 0.43141 0.76960 -0.00519
 C273 C 0.44344 0.77359 0.01934
 C274 C 0.47067 0.77573 0.02078
 H275 H 0.59138 0.77738 0.00772
 H276 H 0.51749 0.75861 0.04169
 H277 H 0.52195 0.78640 -0.04012
 H278 H 0.48502 0.76412 -0.04376
 H279 H 0.41028 0.77000 -0.00659
 H280 H 0.47948 0.78020 0.03965
 C281 C 0.00120 0.43452 0.24731
 C282 C 0.02358 0.44855 0.25474
 C283 C 0.02178 0.47642 0.25870
 C284 C -0.00171 0.49091 0.25316
 C285 C -0.02381 0.47639 0.24491
 C286 C -0.02279 0.44816 0.24310
 C287 C -0.00313 0.52103 0.25555
 C288 C -0.02700 0.53408 0.26141
 C289 C -0.02893 0.56232 0.26151
 C290 C -0.00657 0.57787 0.25744
 C291 C 0.01770 0.56539 0.25292
 C292 C 0.01921 0.53711 0.25156
 H293 H 0.00260 0.41290 0.24483
 H294 H 0.03896 0.48669 0.26564
 H295 H -0.04203 0.48685 0.23997
 H296 H -0.04434 0.52247 0.26558
 H297 H -0.00802 0.59963 0.25892
 H298 H 0.03783 0.52790 0.24683
 C299 C -0.00218 0.56732 0.76309
 C300 C 0.02107 0.55240 0.76718
 C301 C 0.02065 0.52416 0.76633
 C302 C -0.00257 0.51049 0.76017
 C303 C -0.02545 0.52610 0.75474
 C304 C -0.02550 0.55428 0.75693
 C305 C -0.00281 0.48021 0.75929
 C306 C -0.02600 0.46578 0.76402
 C307 C -0.02638 0.43753 0.76267
 C308 C -0.00295 0.42324 0.75847
 C309 C 0.02050 0.43702 0.75436
 C310 C 0.02026 0.46535 0.75413
 H311 H -0.00186 0.58921 0.76317
 H312 H 0.03863 0.51311 0.77078
 H313 H -0.04340 0.51658 0.74879
 H314 H -0.04395 0.47631 0.76881
 H315 H -0.00284 0.40137 0.75951
 H316 H 0.03832 0.47560 0.74974
 C317 C 0.31967 0.24021 0.14248
 C318 C 0.34343 0.22603 0.14162
 C319 C 0.35918 0.22627 0.11727
 N320 N 0.38276 0.21325 0.11667
 N321 N 0.39689 0.21354 0.09459
 C322 C 0.38787 0.22684 0.07232
 N323 N 0.36433 0.23975 0.07296
 N324 N 0.35027 0.23947 0.09495
 C325 C 0.40286 0.22810 0.04763
 C326 C 0.42770 0.21654 0.04461
 H327 H 0.35060 0.21469 0.15892
 H328 H 0.39411 0.23995 0.03142
 H329 H 0.31306 0.25194 0.12518
 H330 H 0.43722 0.20630 0.06141
 C331 C 0.66217 0.77173 0.16708
 C332 C 0.65504 0.75226 0.14917
 C333 C 0.63664 0.75910 0.12739
 N334 N 0.62354 0.73939 0.11499
 N335 N 0.60744 0.74558 0.09472
 C336 C 0.60410 0.77168 0.08603
 N337 N 0.61732 0.79133 0.09832
 N338 N 0.63316 0.78518 0.11873
 C339 C 0.58817 0.77872 0.06248
 C340 C 0.56855 0.76216 0.05315
 H341 H 0.66280 0.73181 0.15113
 H342 H 0.59209 0.79767 0.05203
 H343 H 0.65220 0.79124 0.16604
 H344 H 0.56224 0.74494 0.06508
 C345 C 0.67795 0.24793 -0.14773
 C346 C 0.65669 0.23109 -0.14331
 C347 C 0.64030 0.23344 -0.11969
 N348 N 0.61923 0.21735 -0.11628
 N349 N 0.60445 0.21922 -0.09480
 C350 C 0.61028 0.23724 -0.07597
 N351 N 0.63135 0.25326 -0.07939
 N352 N 0.64607 0.25142 -0.10084
 C353 C 0.59457 0.23964 -0.05196
 C354 C 0.57184 0.22498 -0.04728
 H355 H 0.65194 0.21578 -0.15733
 H356 H 0.60095 0.25415 -0.03775
 H357 H 0.68228 0.26351 -0.13383
 H358 H 0.56433 0.21216 -0.06249
 C359 C 0.31608 0.75237 -0.14427
 C360 C 0.34181 0.76127 -0.14579
 C361 C 0.35985 0.75806 -0.12294
 N362 N 0.38423 0.76863 -0.12384
 N363 N 0.40031 0.76623 -0.10291
 C364 C 0.39259 0.75302 -0.08040
 N365 N 0.36832 0.74235 -0.07962
 N366 N 0.35229 0.74480 -0.10046
 C367 C 0.40899 0.75135 -0.05636
 C368 C 0.43340 0.76341 -0.05414
 H369 H 0.34873 0.77107 -0.16378
 H370 H 0.40071 0.74121 -0.03917
 H371 H 0.30930 0.74296 -0.12601
 H372 H 0.44291 0.77142 -0.07170
 C373 C 0.15861 0.33600 0.23040
 C374 C 0.14697 0.34782 0.25209
 C375 C 0.12417 0.36620 0.24886
 N376 N 0.11575 0.38093 0.26942
 N377 N 0.09455 0.39687 0.26682
 C378 C 0.08095 0.39848 0.24359
 N379 N 0.08935 0.38370 0.22311
 N380 N 0.11060 0.36795 0.22565
 C381 C 0.05669 0.41458 0.24055
 C382 C 0.04892 0.43410 0.25827
 H383 H 0.15460 0.34347 0.27184
 H384 H 0.04459 0.41117 0.22330
 H385 H 0.15208 0.34189 0.21058
 H386 H 0.06211 0.43990 0.27393
 C387 C 0.14536 0.67505 0.78330
 C388 C 0.13400 0.66000 0.76350
 C389 C 0.11266 0.64120 0.76918
 N390 N 0.10783 0.62079 0.75261
 N391 N 0.08800 0.60414 0.75709
 C392 C 0.07214 0.60746 0.77818
 N393 N 0.07688 0.62798 0.79466
 N394 N 0.09689 0.64445 0.79035
 C395 C 0.04897 0.59063 0.78197
 C396 C 0.04636 0.56613 0.76947
 H397 H 0.14151 0.66107 0.74355
 H398 H 0.03323 0.59815 0.79403
 H399 H 0.13944 0.67146 0.80362
 H400 H 0.06319 0.55719 0.76001
 C401 C -0.17185 0.66669 0.24828
 C402 C -0.15307 0.66055 0.26779
 C403 C -0.13079 0.64245 0.26279
 N404 N -0.11814 0.62936 0.28324
 N405 N -0.09704 0.61404 0.27896
 C406 C -0.08766 0.61162 0.25409
 N407 N -0.10022 0.62486 0.23369
 N408 N -0.12151 0.63986 0.23792
 C409 C -0.06337 0.59655 0.24929
 C410 C -0.05433 0.57562 0.26614
 H411 H -0.15467 0.66898 0.28721
 H412 H -0.05242 0.60177 0.23166
 H413 H -0.17172 0.65543 0.23023
 H414 H -0.06666 0.56788 0.28186
 C415 C -0.15420 0.31808 0.74824
 C416 C -0.14945 0.33984 0.76441
 C417 C -0.12559 0.35588 0.76122
 N418 N -0.12178 0.37809 0.77580
 N419 N -0.09988 0.39224 0.77331
 C420 C -0.08102 0.38459 0.75621
 N421 N -0.08487 0.36244 0.74166
 N422 N -0.10674 0.34837 0.74410
 C423 C -0.05643 0.39928 0.75342
 C424 C -0.05138 0.42323 0.76621
 H425 H -0.16306 0.34508 0.77975
 H426 H -0.04201 0.39108 0.74021
 H427 H -0.14064 0.31387 0.73250
 H428 H -0.06667 0.43260 0.77762
 C429 C 0.24609 0.16337 0.33149
 C430 C 0.26620 0.14555 0.33940
 C431 C 0.26119 0.12237 0.35755
 N432 N 0.28111 0.11013 0.37152
 N433 N 0.27668 0.08863 0.38735
 C434 C 0.25221 0.07846 0.38954
 N435 N 0.23238 0.09061 0.37545
 N436 N 0.23674 0.11225 0.35989
 C437 C 0.24713 0.05378 0.40548
 C438 C 0.26351 0.04448 0.42609
 H439 H 0.28590 0.14881 0.33245
 H440 H 0.22946 0.04283 0.40120
 H441 H 0.22708 0.16154 0.34061
 H442 H 0.27941 0.05695 0.43267
 C443 C 0.75030 0.14189 0.68355
 C444 C 0.76756 0.13871 0.66265
 C445 C 0.76752 0.11470 0.64626
 N446 N 0.78332 0.11358 0.62490
 N447 N 0.78371 0.09184 0.61000
 C448 C 0.76835 0.07039 0.61600
 N449 N 0.75260 0.07148 0.63739
 N450 N 0.75216 0.09324 0.65224
 C451 C 0.76864 0.04606 0.60006
 C452 C 0.78302 0.04409 0.57683
 H453 H 0.78160 0.15425 0.65797
 H454 H 0.75646 0.02950 0.60663
 H455 H 0.73580 0.12664 0.68772
 H456 H 0.79337 0.06164 0.56932
 C457 C 0.24390 -0.17912 0.66123
 C458 C 0.26472 -0.16298 0.65335
 C459 C 0.26073 -0.13967 0.63485
 N460 N 0.28140 -0.12816 0.62240
 N461 N 0.27801 -0.10614 0.60675
 C462 C 0.25385 -0.09469 0.60327
 N463 N 0.23325 -0.10614 0.61579
 N464 N 0.23659 -0.12829 0.63115
 C465 C 0.24992 -0.06928 0.58784
 C466 C 0.26649 -0.06095 0.56754
 H467 H 0.28416 -0.16716 0.66128
 H468 H 0.23287 -0.05698 0.59214
 H469 H 0.22506 -0.17633 0.65147
 H470 H 0.28163 -0.07454 0.56078
 C471 C 0.76455 -0.14278 0.32509
 C472 C 0.78282 -0.14061 0.34548
 C473 C 0.78425 -0.11556 0.36041
 N474 N 0.79837 -0.11480 0.38325
 N475 N 0.79893 -0.09229 0.39710
 C476 C 0.78547 -0.06975 0.38851
 N477 N 0.77164 -0.07046 0.36556
 N478 N 0.77102 -0.09291 0.35181
 C479 C 0.78504 -0.04483 0.40354
 C480 C 0.79627 -0.04286 0.42867
 H481 H 0.79562 -0.15752 0.35097
 H482 H 0.77397 -0.02791 0.39487
 H483 H 0.75133 -0.12594 0.32050
 H484 H 0.80535 -0.06066 0.43806
 C485 C 0.68227 0.76573 -0.14108
 C486 C 0.65854 0.77984 -0.13970
 C487 C 0.64344 0.77969 -0.11502
 N488 N 0.61990 0.79269 -0.11404
 N489 N 0.60582 0.79174 -0.09196
 C490 C 0.61481 0.77773 -0.07010
 N491 N 0.63840 0.76496 -0.07104
 N492 N 0.65243 0.76591 -0.09305
 C493 C 0.59947 0.77536 -0.04575
 C494 C 0.57418 0.78601 -0.04337
 H495 H 0.65054 0.79044 -0.15706
 H496 H 0.60812 0.76325 -0.02967
 H497 H 0.69002 0.75521 -0.12355
 H498 H 0.56493 0.79619 -0.06035
 C499 C 0.32185 0.25318 -0.15504
 C500 C 0.34550 0.23916 -0.15123
 C501 C 0.36132 0.24148 -0.12694
 N502 N 0.38531 0.22942 -0.12501
 N503 N 0.39944 0.23061 -0.10279
 C504 C 0.39005 0.24385 -0.08166
 N505 N 0.36609 0.25592 -0.08362
 N506 N 0.35202 0.25483 -0.10586
 C507 C 0.40460 0.24395 -0.05643
 C508 C 0.43028 0.23425 -0.05378
 H509 H 0.35264 0.22596 -0.16632
 H510 H 0.39455 0.25158 -0.03939
 H511 H 0.31532 0.26719 -0.14035
 H512 H 0.44107 0.22925 -0.07135
 C513 C 0.31687 0.75431 0.13879
 C514 C 0.33892 0.77036 0.13582
 C515 C 0.35654 0.76758 0.11316
 N516 N 0.37790 0.78344 0.11072
 N517 N 0.39357 0.78145 0.08992
 C518 C 0.38839 0.76353 0.07080
 N519 N 0.36709 0.74767 0.07329
 N520 N 0.35148 0.74964 0.09406
 C521 C 0.40480 0.76140 0.04725
 C522 C 0.42774 0.77594 0.04361
 H523 H 0.34318 0.78560 0.15006
 H524 H 0.39867 0.74747 0.03238
 H525 H 0.31294 0.73892 0.12458
 H526 H 0.43514 0.78803 0.05945
 C527 C 0.67521 0.26627 0.14802
 C528 C 0.65213 0.25181 0.14567
 C529 C 0.63591 0.25365 0.12148
 N530 N 0.61229 0.24150 0.12080
 N531 N 0.59783 0.24232 0.09870
 C532 C 0.60653 0.25528 0.07647
 N533 N 0.63014 0.26740 0.07716
 N534 N 0.64453 0.26667 0.09926
 C535 C 0.59174 0.25496 0.05142
 C536 C 0.56681 0.24401 0.04949
 H537 H 0.64584 0.23860 0.16177
 H538 H 0.60125 0.26298 0.03389
 H539 H 0.68082 0.28026 0.13226
 H540 H 0.55650 0.23853 0.06744
 C541 C -0.16045 0.66806 0.76621
 C542 C -0.14458 0.65985 0.74562
 C543 C -0.12187 0.64189 0.75102
 N544 N -0.11180 0.62656 0.73167
 N545 N -0.09111 0.61040 0.73658
 C546 C -0.07962 0.60924 0.76095
 N547 N -0.08950 0.62480 0.78016
 N548 N -0.11034 0.64069 0.77534
 C549 C -0.05630 0.59232 0.76656
 C550 C -0.04974 0.57014 0.75156
 H551 H -0.14912 0.66600 0.72535
 H552 H -0.04440 0.59693 0.78365
 H553 H -0.15694 0.65932 0.78588
 H554 H -0.06321 0.56348 0.73651
 C555 C -0.14920 0.32586 0.24905
 C556 C -0.14377 0.34797 0.23234
 C557 C -0.11953 0.36336 0.23564
 N558 N -0.11609 0.38718 0.22211
 N559 N -0.09427 0.40124 0.22538
 C560 C -0.07508 0.39188 0.24221
 N561 N -0.07845 0.36799 0.25551
 N562 N -0.10025 0.35404 0.25234
 C563 C -0.05083 0.40684 0.24646
 C564 C -0.04694 0.43324 0.23687
 H565 H -0.15761 0.35440 0.21699
 H566 H -0.03604 0.39695 0.25895
 H567 H -0.13564 0.32032 0.26496
 H568 H -0.06276 0.44392 0.22644
 C569 C 0.14650 0.31144 0.73770
 C570 C 0.14286 0.33559 0.75075
 C571 C 0.11840 0.35156 0.74809
 N572 N 0.11652 0.37612 0.75918
 N573 N 0.09432 0.39054 0.75739
 C574 C 0.07314 0.38090 0.74449
 N575 N 0.07501 0.35633 0.73344
 N576 N 0.09724 0.34195 0.73513
 C577 C 0.04815 0.39606 0.74332
 C578 C 0.04585 0.42242 0.75217
 H579 H 0.15835 0.34314 0.76310
 H580 H 0.03124 0.38609 0.73535
 H581 H 0.13144 0.30462 0.72437
 H582 H 0.06339 0.43289 0.75790
 C583 C 0.13782 0.69173 0.22607
 C584 C 0.12875 0.67702 0.24795
 C585 C 0.10635 0.65883 0.24578
 N586 N 0.10390 0.63747 0.26305
 N587 N 0.08371 0.62085 0.26116
 C588 C 0.06510 0.62515 0.24207
 N589 N 0.06739 0.64669 0.22502
 N590 N 0.08774 0.66310 0.22669
 C591 C 0.04198 0.60788 0.24058
 C592 C 0.04184 0.58150 0.25117
 H593 H 0.13933 0.67748 0.26658
 H594 H 0.02469 0.61612 0.23058
 H595 H 0.12893 0.68892 0.20683
 H596 H 0.06003 0.57225 0.25828
 C597 C 0.73525 -0.16538 0.66707
 C598 C 0.75329 -0.16083 0.64701
 C599 C 0.75337 -0.13521 0.63142
 N600 N 0.77070 -0.13160 0.61151
 N601 N 0.77182 -0.10796 0.59821
 C602 C 0.75572 -0.08706 0.60443
 N603 N 0.73835 -0.09072 0.62426
 N604 N 0.73716 -0.11436 0.63747
 C605 C 0.75768 -0.06039 0.59106
 C606 C 0.77295 -0.05610 0.56869
 H607 H 0.76830 -0.17584 0.64327
 H608 H 0.74678 -0.04368 0.59914
 H609 H 0.71973 -0.15068 0.67001
 H610 H 0.78182 -0.07326 0.55924
 C611 C 0.25110 -0.15139 0.31402
 C612 C 0.23676 -0.14872 0.33715
 C613 C 0.24121 -0.12567 0.35446
 N614 N 0.22714 -0.12269 0.37689
 N615 N 0.23087 -0.10146 0.39211
 C616 C 0.24880 -0.08246 0.38538
 N617 N 0.26284 -0.08554 0.36306
 N618 N 0.25915 -0.10670 0.34794
 C619 C 0.25305 -0.05832 0.40106
 C620 C 0.24137 -0.05378 0.42540
 H621 H 0.22180 -0.16319 0.34227
 H622 H 0.26672 -0.04372 0.39315
 H623 H 0.26583 -0.13658 0.30913
 H624 H 0.22960 -0.06941 0.43459
 C625 C 0.74139 0.15842 0.32539
 C626 C 0.75594 0.15652 0.34883
 C627 C 0.75696 0.13167 0.36549
 N628 N 0.77149 0.13073 0.38811
 N629 N 0.77383 0.10784 0.40260
 C630 C 0.76176 0.08506 0.39491
 N631 N 0.74712 0.08606 0.37238
 N632 N 0.74474 0.10894 0.35794
 C633 C 0.76524 0.05923 0.40965
 C634 C 0.77898 0.05677 0.43357
 H635 H 0.76770 0.17336 0.35475
 H636 H 0.75679 0.04145 0.40121
 H637 H 0.72851 0.14219 0.32014
 H638 H 0.78555 0.07471 0.44326
 C639 C 0.26059 0.13978 0.67724
 C640 C 0.24525 0.13520 0.65491
 C641 C 0.24928 0.11118 0.63885
 N642 N 0.23522 0.10828 0.61623
 N643 N 0.23867 0.08655 0.60162
 C644 C 0.25631 0.06693 0.60916
 N645 N 0.27030 0.06983 0.63179
 N646 N 0.26689 0.09154 0.64634
 C647 C 0.26025 0.04252 0.59372
 C648 C 0.24802 0.03861 0.56934
 H649 H 0.23011 0.14964 0.64879
 H650 H 0.27385 0.02734 0.60175
 H651 H 0.27620 0.12564 0.68283
 H652 H 0.23625 0.05484 0.56029
   
