data_POSCAR
  _audit_creation_date              2014-09-24
  _audit_creation_method            'ToBaCCo'
  _symmetry_space_group_name_H-M    'P1'
  _symmetry_Int_Tables_number       1
  _symmetry_cell_setting            triclinic
  loop_
  _symmetry_equiv_pos_as_xyz
 x,y,z
_cell_length_a 35.8815
_cell_length_b 37.9623
_cell_length_c 15.1645
_cell_angle_alpha 89.925800
_cell_angle_beta 90.114400
_cell_angle_gamma 117.977900
loop_
  _atom_site_label
  _atom_site_type_symbol
  _atom_site_fract_x
  _atom_site_fract_y
  _atom_site_fract_z
O1 O 0.16904 0.38238 0.41457
 O2 O 0.25170 0.40955 0.58689
 O3 O 0.16993 0.38320 0.58766
 O4 O 0.25042 0.40828 0.41279
 O5 O 0.25926 0.46990 0.41128
 O6 O 0.17916 0.44496 0.58323
 O7 O 0.25958 0.47080 0.58638
 O8 O 0.17891 0.44438 0.41491
 Cu9 Cu 0.20948 0.38965 0.50075
 Cu10 Cu 0.22083 0.46392 0.49885
 C11 C 0.15998 0.40896 0.38588
 C12 C 0.26889 0.44485 0.61753
 C13 C 0.16069 0.40988 0.61438
 C14 C 0.26766 0.44330 0.38080
 O15 O 0.52466 -0.27883 0.41117
 O16 O 0.55046 -0.20306 0.58421
 O17 O 0.52420 -0.27932 0.58326
 O18 O 0.55117 -0.20258 0.41227
 O19 O 0.48555 -0.21196 0.41245
 O20 O 0.45826 -0.28978 0.58171
 O21 O 0.48477 -0.21264 0.58263
 O22 O 0.45886 -0.28890 0.41015
 Cu23 Cu 0.54430 -0.23989 0.49789
 Cu24 Cu 0.46537 -0.25193 0.49670
 C25 C 0.48726 -0.29685 0.38113
 C26 C 0.52217 -0.19481 0.61247
 C27 C 0.48654 -0.29783 0.61136
 C28 C 0.52308 -0.19411 0.38360
 O29 O 1.23633 0.78096 0.41062
 O30 O 1.19302 0.70364 0.58244
 O31 O 1.23581 0.78112 0.58333
 O32 O 1.19446 0.70375 0.41154
 O33 O 1.25374 0.69943 0.41579
 O34 O 1.29618 0.77880 0.58372
 O35 O 1.25294 0.70058 0.58572
 O36 O 1.29630 0.77788 0.41249
 Cu37 Cu 1.20900 0.74294 0.49681
 Cu38 Cu 1.28070 0.73898 0.49962
 C39 C 1.27351 0.79251 0.38214
 C40 C 1.21534 0.68842 0.61242
 C41 C 1.27304 0.79326 0.61241
 C42 C 1.21673 0.68781 0.38595
 O43 O 0.78730 0.62882 0.58308
 O44 O 0.85804 0.62586 0.41387
 O45 O 0.78734 0.62750 0.41185
 O46 O 0.85755 0.62615 0.58566
 O47 O 0.82336 0.56025 0.58759
 O48 O 0.75215 0.56162 0.41283
 O49 O 0.82445 0.55995 0.41542
 O50 O 0.75112 0.56306 0.58346
 Cu51 Cu 0.82605 0.63363 0.49859
 Cu52 Cu 0.78436 0.55448 0.50024
 C53 C 0.75696 0.59682 0.61163
 C54 C 0.85335 0.59266 0.38540
 C55 C 0.75790 0.59502 0.38272
 C56 C 0.85246 0.59311 0.61635
 O57 O 0.43402 0.20121 0.58432
 O58 O 0.46946 0.27908 0.41305
 O59 O 0.43494 0.20171 0.41170
 O60 O 0.46948 0.27858 0.58536
 O61 O 0.53224 0.28107 0.58635
 O62 O 0.49789 0.20461 0.41272
 O63 O 0.53267 0.28259 0.41551
 O64 O 0.49631 0.20282 0.58289
 Cu65 Cu 0.44558 0.23977 0.49854
 Cu66 Cu 0.52096 0.24306 0.49952
 C67 C 0.45889 0.18846 0.61221
 C68 C 0.50730 0.29442 0.38590
 C69 C 0.46055 0.19007 0.38292
 C70 C 0.50694 0.29310 0.61486
 O71 O 0.74284 0.20287 0.41248
 O72 O 0.79277 0.27922 0.58363
 O73 O 0.74311 0.20308 0.58432
 O74 O 0.79189 0.27892 0.41180
 O75 O 0.73644 0.28961 0.41309
 O76 O 0.68666 0.21223 0.58385
 O77 O 0.73712 0.28952 0.58435
 O78 O 0.68653 0.21224 0.41314
 Cu79 Cu 0.77321 0.23991 0.49806
 Cu80 Cu 0.70619 0.25197 0.49867
 C81 C 0.70638 0.19449 0.38378
 C82 C 0.77361 0.29765 0.61287
 C83 C 0.70666 0.19457 0.61306
 C84 C 0.77258 0.29742 0.38356
 N85 N 0.98478 0.55376 0.09430
 N86 N 0.96732 0.57696 0.10888
 N87 N 1.05643 0.53535 0.15515
 N88 N 1.08654 0.54547 0.21487
 N89 N 1.06700 0.56342 0.09527
 N90 N 1.10410 0.59385 0.11376
 N91 N 0.97345 0.52594 0.15487
 N92 N 0.94760 0.52929 0.21231
 C93 C 0.94398 0.56116 0.18212
 C94 C 1.11615 0.58180 0.18750
 N95 N 1.01286 0.42259 0.09412
 N96 N 1.03183 0.40054 0.10933
 N97 N 0.94043 0.44078 0.15345
 N98 N 0.90935 0.43177 0.20989
 N99 N 0.93019 0.41248 0.09424
 N100 N 0.89207 0.38298 0.10997
 N101 N 1.02320 0.45034 0.15466
 N102 N 1.04976 0.44830 0.21197
 Mn103 Mn 0.99831 0.48805 0.15548
 C104 C 1.05488 0.41719 0.18294
 C105 C 0.87943 0.39582 0.18160
 N106 N 1.06705 0.56381 -0.09529
 N107 N 1.10405 0.59450 -0.11311
 N108 N 0.97321 0.52652 -0.15559
 N109 N 0.94716 0.53004 -0.21241
 N110 N 0.98476 0.55417 -0.09457
 N111 N 0.96721 0.57738 -0.10824
 N112 N 1.05626 0.53642 -0.15686
 N113 N 1.08592 0.54761 -0.21780
 Mn114 Mn 1.02610 0.55911 -0.00009
 C115 C 1.11568 0.58359 -0.18872
 C116 C 0.94364 0.56181 -0.18139
 N117 N 0.93008 0.41284 -0.09676
 N118 N 0.89225 0.38300 -0.11324
 N119 N 1.02317 0.45104 -0.15728
 N120 N 1.05006 0.44937 -0.21405
 N121 N 1.01278 0.42306 -0.09710
 N122 N 1.03205 0.40131 -0.11194
 N123 N 0.94027 0.44108 -0.15624
 N124 N 0.90946 0.43148 -0.21402
 Mn125 Mn 0.97134 0.41724 -0.00141
 Mn126 Mn 0.99816 0.48871 -0.15751
 Cl127 Cl 0.99852 0.48825 -0.00094
 C128 C 0.87970 0.39540 -0.18582
 C129 C 1.05529 0.41828 -0.18498
 N130 N 0.48858 0.42541 0.09479
 N131 N 0.49007 0.39203 0.11321
 N132 N 0.44587 0.47434 0.15533
 N133 N 0.42032 0.48008 0.20863
 N134 N 0.42445 0.44834 0.09369
 N135 N 0.38345 0.43553 0.10407
 N136 N 0.51123 0.45340 0.15194
 N137 N 0.52914 0.44008 0.20977
 C138 C 0.51589 0.40193 0.18441
 C139 C 0.38162 0.45529 0.17713
 N140 N 0.52387 0.58356 0.09100
 N141 N 0.51815 0.61503 0.10499
 N142 N 0.57266 0.53738 0.15104
 N143 N 0.60093 0.53881 0.20911
 N144 N 0.59076 0.56499 0.09060
 N145 N 0.63155 0.58580 0.10528
 N146 N 0.50580 0.55683 0.15324
 N147 N 0.48651 0.56892 0.21027
 Mn148 Mn 0.50912 0.50535 0.15377
 C149 C 0.49446 0.60513 0.17920
 C150 C 0.63756 0.56900 0.17869
 N151 N 0.42455 0.44762 -0.09944
 N152 N 0.38364 0.43562 -0.10980
 N153 N 0.51149 0.45217 -0.15429
 N154 N 0.52930 0.43829 -0.21078
 N155 N 0.48872 0.42466 -0.09635
 N156 N 0.49005 0.39108 -0.11279
 N157 N 0.44621 0.47306 -0.16178
 N158 N 0.42095 0.47913 -0.21549
 Mn159 Mn 0.45590 0.43595 -0.00183
 C160 C 0.38211 0.45511 -0.18381
 C161 C 0.51590 0.40035 -0.18361
 N162 N 0.59093 0.56432 -0.09675
 N163 N 0.63141 0.58611 -0.11333
 N164 N 0.50603 0.55557 -0.16191
 N165 N 0.48612 0.56692 -0.21935
 N166 N 0.52401 0.58276 -0.10051
 N167 N 0.51767 0.61382 -0.11555
 N168 N 0.57299 0.53612 -0.15606
 N169 N 0.60110 0.53808 -0.21496
 Mn170 Mn 0.55738 0.57428 -0.00392
 Mn171 Mn 0.50942 0.50409 -0.15934
 Cl172 Cl 0.50791 0.50482 -0.00283
 C173 C 0.63750 0.56915 -0.18622
 C174 C 0.49368 0.60317 -0.18946
 N175 N 0.39987 -0.04850 0.09222
 N176 N 0.36148 -0.07758 0.10659
 N177 N 0.46488 0.03631 0.15371
 N178 N 0.47132 0.06460 0.21164
 N179 N 0.43838 0.03497 0.09230
 N180 N 0.42572 0.06190 0.10714
 N181 N 0.42600 -0.04790 0.15371
 N182 N 0.40603 -0.07694 0.21129
 C183 C 0.36584 -0.09525 0.18049
 C184 C 0.44678 0.08033 0.18122
 N185 N 0.57281 0.04003 0.09210
 N186 N 0.61155 0.06817 0.10706
 N187 N 0.50810 -0.04468 0.15391
 N188 N 0.50300 -0.07227 0.21294
 N189 N 0.53431 -0.04322 0.09200
 N190 N 0.54807 -0.06927 0.10732
 N191 N 0.54708 0.03959 0.15404
 N192 N 0.56784 0.06788 0.21286
 Mn193 Mn 0.48649 -0.00416 0.15511
 C194 C 0.60799 0.08557 0.18180
 C195 C 0.52798 -0.08744 0.18218
 N196 N 0.43836 0.03509 -0.09779
 N197 N 0.42514 0.06157 -0.11360
 N198 N 0.42592 -0.04763 -0.15918
 N199 N 0.40574 -0.07631 -0.21740
 N200 N 0.39985 -0.04829 -0.09772
 N201 N 0.36132 -0.07698 -0.11277
 N202 N 0.46504 0.03665 -0.15880
 N203 N 0.47116 0.06474 -0.21718
 Mn204 Mn 0.41882 -0.00669 -0.00273
 C205 C 0.44621 0.08012 -0.18753
 C206 C 0.36553 -0.09442 -0.18698
 N207 N 0.53425 -0.04320 -0.09691
 N208 N 0.54766 -0.06953 -0.11177
 N209 N 0.54714 0.03971 -0.15873
 N210 N 0.56801 0.06799 -0.21752
 N211 N 0.57282 0.04008 -0.09653
 N212 N 0.61161 0.06810 -0.11125
 N213 N 0.50801 -0.04460 -0.15893
 N214 N 0.50256 -0.07241 -0.21758
 Mn215 Mn 0.55370 -0.00159 -0.00234
 Mn216 Mn 0.48650 -0.00396 -0.16019
 Cl217 Cl 0.48634 -0.00410 -0.00255
 C218 C 0.52737 -0.08779 -0.18651
 C219 C 0.60815 0.08555 -0.18611
 N220 N 1.08258 0.36875 0.21317
 N221 N 1.10994 0.36621 0.26823
 C222 C 1.12725 0.39943 0.31825
 C223 C 1.11014 0.42395 0.29451
 C224 C 1.08199 0.40348 0.22798
 H225 H 1.11716 0.45272 0.32197
 H226 H 1.06450 0.34694 0.16707
 H227 H 1.11673 0.34232 0.27076
 N228 N 0.43977 0.62327 0.22772
 N229 N 0.43781 0.65090 0.28555
 C230 C 0.47714 0.67403 0.31646
 C231 C 0.50489 0.66252 0.27821
 C232 C 0.48031 0.63090 0.22340
 H233 H 0.53822 0.67418 0.29196
 H234 H 0.41385 0.59985 0.19734
 H235 H 0.41013 0.65159 0.30402
 N236 N 0.28949 -0.13924 0.20573
 N237 N 0.26519 -0.16835 0.25947
 C238 C 0.28989 -0.17689 0.31287
 C239 C 0.33193 -0.15189 0.29277
 C240 C 0.33014 -0.12835 0.22457
 H241 H 0.35969 -0.15052 0.32422
 H242 H 0.27827 -0.12665 0.15807
 H243 H 0.23224 -0.18205 0.25933
 N244 N 0.92618 0.61586 0.20747
 N245 N 0.90285 0.62436 0.26174
 C246 C 0.88170 0.59297 0.31554
 C247 C 0.89215 0.56307 0.29515
 C248 C 0.92070 0.57909 0.22639
 H249 H 0.88137 0.53440 0.32693
 H250 H 0.94612 0.63534 0.15956
 H251 H 0.90159 0.65130 0.26175
 N252 N 0.56553 0.38279 0.25835
 N253 N 0.56327 0.35410 0.31101
 C254 C 0.52238 0.32722 0.32158
 C255 C 0.49753 0.33888 0.27192
 C256 C 0.52624 0.37424 0.23291
 H257 H 0.46343 0.32520 0.26967
 H258 H 0.59343 0.40837 0.24245
 H259 H 0.58917 0.35413 0.34266
 N260 N 0.68473 0.12552 0.20714
 N261 N 0.71061 0.15372 0.26085
 C262 C 0.68767 0.16410 0.31485
 C263 C 0.64511 0.14125 0.29534
 C264 C 0.64479 0.11702 0.22668
 H265 H 0.61840 0.14174 0.32724
 H266 H 0.69439 0.11192 0.15891
 H267 H 0.74342 0.16563 0.26014
 N268 N 0.40445 0.11488 -0.22416
 N269 N 0.40757 0.14466 -0.28215
 C270 C 0.44476 0.15833 -0.32452
 C271 C 0.46578 0.13754 -0.29596
 C272 C 0.43938 0.11058 -0.23381
 H273 H 0.49595 0.14106 -0.31846
 H274 H 0.37867 0.09827 -0.18334
 H275 H 0.38484 0.15429 -0.28971
 N276 N 0.70562 0.62607 -0.22651
 N277 N 0.73855 0.63404 -0.28466
 C278 C 0.73030 0.59962 -0.32541
 C279 C 0.69194 0.56919 -0.29562
 C280 C 0.67756 0.58723 -0.23437
 H281 H 0.67626 0.53835 -0.31674
 H282 H 0.70306 0.64727 -0.18675
 H283 H 0.76479 0.66197 -0.29332
 N284 N 0.80808 0.37982 -0.23909
 N285 N 0.77798 0.35189 -0.29560
 C286 C 0.79322 0.32752 -0.32418
 C287 C 0.83233 0.33857 -0.28569
 C288 C 0.84031 0.37118 -0.23329
 H289 H 0.85311 0.32561 -0.29704
 H290 H 0.80595 0.40359 -0.20923
 H291 H 0.74990 0.35170 -0.31465
 N292 N 0.56785 -0.12467 -0.21215
 N293 N 0.56693 -0.15242 -0.26575
 C294 C 0.53314 -0.16431 -0.31908
 C295 C 0.51168 -0.14298 -0.29927
 C296 C 0.53498 -0.11805 -0.23117
 H297 H 0.48361 -0.14496 -0.33052
 H298 H 0.59105 -0.11015 -0.16430
 H299 H 0.58904 -0.16302 -0.26534
 N300 N 0.34386 0.49313 -0.21186
 N301 N 0.31406 0.49149 -0.27290
 C302 C 0.29796 0.45575 -0.31329
 C303 C 0.31649 0.43371 -0.27826
 C304 C 0.34523 0.45834 -0.21541
 H305 H 0.31276 0.40532 -0.30172
 H306 H 0.36478 0.51880 -0.17797
 H307 H 0.30745 0.51497 -0.28659
 N308 N 1.18913 0.60668 -0.24102
 N309 N 1.21749 0.63691 -0.29588
 C310 C 1.19800 0.65746 -0.32630
 C311 C 1.15759 0.64144 -0.29126
 C312 C 1.15339 0.60991 -0.23885
 H313 H 1.13393 0.65094 -0.30359
 H314 H 1.19507 0.58559 -0.20837
 H315 H 1.24772 0.64139 -0.31178
 N316 N 0.92567 0.61655 -0.20584
 N317 N 0.90212 0.62503 -0.25985
 C318 C 0.88074 0.59358 -0.31333
 C319 C 0.89126 0.56371 -0.29307
 C320 C 0.92009 0.57976 -0.22475
 H321 H 0.88047 0.53507 -0.32494
 H322 H 0.94589 0.63610 -0.15829
 H323 H 0.90096 0.65202 -0.26010
 N324 N 0.56520 0.37948 -0.25188
 N325 N 0.56279 0.35085 -0.30475
 C326 C 0.52179 0.32524 -0.31934
 C327 C 0.49697 0.33764 -0.27221
 C328 C 0.52583 0.37211 -0.23039
 H329 H 0.46295 0.32513 -0.27347
 H330 H 0.59330 0.40429 -0.23335
 H331 H 0.58879 0.35014 -0.33384
 N332 N 0.68491 0.12516 -0.21104
 N333 N 0.71087 0.15343 -0.26447
 C334 C 0.68800 0.16405 -0.31835
 C335 C 0.64543 0.14132 -0.29911
 C336 C 0.64502 0.11690 -0.23072
 H337 H 0.61878 0.14203 -0.33098
 H338 H 0.69449 0.11138 -0.16290
 H339 H 0.74367 0.16522 -0.26363
 N340 N 1.08360 0.37029 -0.21296
 N341 N 1.11112 0.36774 -0.26719
 C342 C 1.12821 0.40073 -0.31797
 C343 C 1.11079 0.42513 -0.29563
 C344 C 1.08268 0.40479 -0.22909
 H345 H 1.11753 0.45368 -0.32408
 H346 H 1.06562 0.34862 -0.16654
 H347 H 1.11811 0.34396 -0.26879
 N348 N 0.43831 0.61990 -0.24147
 N349 N 0.43643 0.64805 -0.29801
 C350 C 0.47606 0.67233 -0.32560
 C351 C 0.50387 0.66109 -0.28636
 C352 C 0.47905 0.62842 -0.23458
 H353 H 0.53750 0.67374 -0.29745
 H354 H 0.41231 0.59583 -0.21315
 H355 H 0.40869 0.64831 -0.31808
 N356 N 0.28906 -0.13734 -0.21410
 N357 N 0.26466 -0.16650 -0.26771
 C358 C 0.28930 -0.17561 -0.31966
 C359 C 0.33134 -0.15097 -0.29886
 C360 C 0.32967 -0.12705 -0.23171
 H361 H 0.35903 -0.15024 -0.32888
 H362 H 0.27796 -0.12439 -0.16722
 H363 H 0.23173 -0.17992 -0.26822
 N364 N 0.56920 -0.12351 0.20938
 N365 N 0.56838 -0.15117 0.26328
 C366 C 0.53435 -0.16336 0.31574
 C367 C 0.51262 -0.14237 0.29512
 C368 C 0.53600 -0.11732 0.22743
 H369 H 0.48425 -0.14473 0.32540
 H370 H 0.59249 -0.10883 0.16193
 H371 H 0.59066 -0.16157 0.26353
 N372 N 0.33750 0.48828 0.19900
 N373 N 0.30903 0.48643 0.25639
 C374 C 0.29699 0.45345 0.30606
 C375 C 0.31850 0.43313 0.27839
 C376 C 0.34384 0.45630 0.21002
 H377 H 0.31854 0.40734 0.30877
 H378 H 0.35423 0.51238 0.15680
 H379 H 0.29926 0.50823 0.26329
 N380 N 1.18113 0.59545 0.27153
 N381 N 1.20854 0.62419 0.32252
 C382 C 1.19856 0.65427 0.32400
 C383 C 1.16391 0.64469 0.27027
 C384 C 1.15393 0.60722 0.23843
 H385 H 1.14649 0.66123 0.26107
 H386 H 1.18038 0.56788 0.26190
 H387 H 1.23199 0.62211 0.35964
 N388 N 0.40962 0.12047 0.20831
 N389 N 0.41279 0.14901 0.26238
 C390 C 0.44679 0.15928 0.31439
 C391 C 0.46598 0.13613 0.29316
 C392 C 0.44126 0.11184 0.22576
 H393 H 0.49360 0.13657 0.32314
 H394 H 0.38578 0.10683 0.16128
 H395 H 0.39206 0.16121 0.26320
 N396 N 0.71100 0.62103 0.20361
 N397 N 0.74248 0.62819 0.25797
 C398 C 0.73081 0.59677 0.31242
 C399 C 0.68990 0.56827 0.29249
 C400 C 0.67854 0.58513 0.22322
 H401 H 0.67094 0.54000 0.32489
 H402 H 0.71160 0.64086 0.15514
 H403 H 0.77138 0.65424 0.25761
 N404 N 0.81334 0.38629 0.25398
 N405 N 0.78463 0.35987 0.30705
 C406 C 0.79309 0.32911 0.31785
 C407 C 0.82808 0.33575 0.26800
 C408 C 0.83985 0.37228 0.22864
 H409 H 0.84464 0.31816 0.26644
 H410 H 0.81560 0.41402 0.23821
 H411 H 0.76130 0.36407 0.33922
   
