data_POSCAR
  _audit_creation_date              2014-09-24
  _audit_creation_method            'ToBaCCo'
  _symmetry_space_group_name_H-M    'P1'
  _symmetry_Int_Tables_number       1
  _symmetry_cell_setting            triclinic
  loop_
  _symmetry_equiv_pos_as_xyz
 x,y,z
_cell_length_a 44.4618
_cell_length_b 34.7829
_cell_length_c 42.0543
_cell_angle_alpha 90.972700
_cell_angle_beta 90.640100
_cell_angle_gamma 88.615500
loop_
  _atom_site_label
  _atom_site_type_symbol
  _atom_site_fract_x
  _atom_site_fract_y
  _atom_site_fract_z
O1 O 0.39166 0.34676 -0.01816
 O2 O 0.32829 0.35484 0.03641
 O3 O 0.38631 0.34763 0.04396
 O4 O 0.33331 0.35117 -0.02421
 O5 O 0.33114 0.28780 -0.02393
 O6 O 0.38397 0.28427 0.04384
 O7 O 0.32557 0.29151 0.03753
 O8 O 0.38904 0.28341 -0.01814
 Cu9 Cu 0.36045 0.35646 0.00953
 Cu10 Cu 0.35731 0.28035 0.01000
 C11 C 0.40071 0.31390 -0.02804
 C12 C 0.31584 0.32478 0.04589
 C13 C 0.39392 0.31532 0.05564
 C14 C 0.32301 0.31993 -0.03550
 O15 O 0.68620 0.69768 0.03185
 O16 O 0.64481 0.73161 -0.03958
 O17 O 0.69487 0.69157 -0.02935
 O18 O 0.63640 0.73834 0.02161
 O19 O 0.66208 0.79190 0.02111
 O20 O 0.72075 0.74493 -0.02676
 O21 O 0.67211 0.78387 -0.03865
 O22 O 0.71058 0.75228 0.03406
 Cu23 Cu 0.66300 0.70927 -0.00395
 Cu24 Cu 0.69408 0.77344 -0.00231
 C25 C 0.70520 0.71954 0.04521
 C26 C 0.65160 0.76372 -0.05119
 C27 C 0.71777 0.71062 -0.03675
 C28 C 0.63923 0.77358 0.02938
 O29 O 0.64886 0.39425 0.97488
 O30 O 0.62344 0.32923 1.03790
 O31 O 0.64626 0.39773 1.03691
 O32 O 0.62408 0.32724 0.97510
 O33 O 0.66957 0.30037 0.97720
 O34 O 0.69169 0.37080 1.03901
 O35 O 0.66897 0.30248 1.03908
 O36 O 0.69425 0.36713 0.97728
 Cu37 Cu 0.63105 0.36473 1.00604
 Cu38 Cu 0.68560 0.33246 1.00845
 C39 C 0.67592 0.39155 0.96538
 C40 C 0.64221 0.30473 1.04920
 C41 C 0.67278 0.39641 1.04841
 C42 C 0.64318 0.30214 0.96534
 O43 O 0.34824 0.59659 0.95280
 O44 O 0.37101 0.65989 1.01966
 O45 O 0.34557 0.59345 1.01489
 O46 O 0.37537 0.66220 0.95828
 O47 O 0.33169 0.69389 0.95863
 O48 O 0.30100 0.62271 1.01217
 O49 O 0.32575 0.68769 1.01918
 O50 O 0.30438 0.62763 0.95032
 Cu51 Cu 0.36447 0.62487 0.98641
 Cu52 Cu 0.31115 0.66084 0.98439
 C53 C 0.32236 0.60141 0.94022
 C54 C 0.35196 0.68406 1.03110
 C55 C 0.31833 0.59672 1.02355
 C56 C 0.35885 0.69052 0.94980
 O57 O 0.02569 0.32407 0.33269
 O58 O -0.03985 0.37100 0.29228
 O59 O -0.02961 0.34029 0.34734
 O60 O 0.01773 0.36320 0.28021
 O61 O 0.00494 0.30922 0.25588
 O62 O -0.03959 0.28374 0.32546
 O63 O -0.05281 0.31401 0.27332
 O64 O 0.01375 0.26919 0.30905
 Cu65 Cu -0.00519 0.35533 0.31519
 Cu66 Cu -0.01879 0.28916 0.28763
 C67 C 0.03037 0.28816 0.32791
 C68 C -0.05805 0.34975 0.27683
 C69 C -0.04240 0.30815 0.34817
 C70 C 0.01917 0.34046 0.25646
 O71 O 0.02717 0.63287 0.62496
 O72 O -0.02664 0.61712 0.68977
 O73 O -0.02530 0.66033 0.63994
 O74 O 0.02486 0.58636 0.67412
 O75 O 0.04798 0.63034 0.70323
 O76 O -0.00291 0.70488 0.66908
 O77 O -0.00363 0.66140 0.71868
 O78 O 0.04985 0.67668 0.65464
 Cu79 Cu -0.00199 0.61954 0.65421
 Cu80 Cu 0.02521 0.67266 0.68930
 C81 C 0.04708 0.65829 0.62854
 C82 C -0.02413 0.63688 0.71534
 C83 C -0.02270 0.69523 0.64857
 C84 C 0.04435 0.59542 0.69499
 O85 O 0.99249 0.62989 0.36960
 O86 O 1.04359 0.61594 0.30216
 O87 O 1.05126 0.62843 0.36308
 O88 O 0.98553 0.62100 0.30847
 O89 O 0.98735 0.68356 0.30067
 O90 O 1.04978 0.69145 0.35759
 O91 O 1.04555 0.67890 0.29678
 O92 O 0.99099 0.69259 0.36208
 Cu93 Cu 1.01823 0.61753 0.33668
 Cu94 Cu 1.01843 0.69292 0.32875
 C95 C 0.98237 0.66327 0.37681
 C96 C 1.05352 0.64498 0.28817
 C97 C 1.06176 0.66144 0.36948
 C98 C 0.97565 0.65127 0.29494
 O99 O 0.95868 0.32941 0.64416
 O100 O 1.01826 0.33878 0.70477
 O101 O 1.01583 0.30939 0.64691
 O102 O 0.95977 0.35384 0.70286
 O103 O 0.94889 0.29560 0.71862
 O104 O 1.00609 0.25282 0.66689
 O105 O 1.00697 0.28230 0.72400
 O106 O 0.94989 0.27067 0.66039
 Cu107 Cu 0.98931 0.33869 0.67305
 Cu108 Cu 0.97703 0.26973 0.69446
 C109 C 0.94437 0.29840 0.64174
 C110 C 1.02274 0.31231 0.72474
 C111 C 1.02026 0.27305 0.64756
 C112 C 0.94408 0.33162 0.71942
 O113 O 0.39744 0.03720 0.37870
 O114 O 0.33314 -0.01916 0.40619
 O115 O 0.38214 -0.03520 0.37455
 O116 O 0.35060 0.05188 0.41308
 O117 O 0.32494 0.06590 0.36932
 O118 O 0.35810 -0.02102 0.32988
 O119 O 0.30867 -0.00465 0.36183
 O120 O 0.37224 0.05131 0.33470
 Cu121 Cu 0.36836 0.00711 0.39745
 Cu122 Cu 0.33853 0.02407 0.34446
 C123 C 0.39549 0.05431 0.35221
 C124 C 0.30972 -0.02088 0.38862
 C125 C 0.37578 -0.04291 0.34574
 C126 C 0.33243 0.07367 0.39795
 O127 O 0.61114 0.02831 0.62445
 O128 O 0.65942 -0.05744 0.60732
 O129 O 0.61547 -0.04023 0.64736
 O130 O 0.65307 0.01092 0.58372
 O131 O 0.68752 0.03012 0.61838
 O132 O 0.64798 -0.01696 0.68245
 O133 O 0.69144 -0.03800 0.64447
 O134 O 0.64554 0.04892 0.65866
 Cu135 Cu 0.63150 -0.01699 0.61210
 Cu136 Cu 0.67194 0.00788 0.65421
 C137 C 0.62008 0.05273 0.64509
 C138 C 0.68356 -0.06224 0.62335
 C139 C 0.62445 -0.03555 0.67591
 C140 C 0.67667 0.02927 0.59032
 O141 O 0.31690 1.06258 0.62021
 O142 O 0.35345 0.97442 0.65264
 O143 O 0.30328 0.99056 0.62335
 O144 O 0.36856 1.04685 0.64810
 O145 O 0.34878 1.05678 0.69555
 O146 O 0.28076 1.00595 0.66854
 O147 O 0.32956 0.98578 0.69777
 O148 O 0.29859 1.07663 0.66775
 Cu149 Cu 0.33790 1.01750 0.63146
 Cu150 Cu 0.31250 1.03258 0.68717
 C151 C 0.30176 1.08470 0.63874
 C152 C 0.34635 0.96445 0.68045
 C153 C 0.28083 0.98885 0.64158
 C154 C 0.36986 1.06140 0.67592
 O155 O 0.60994 0.94194 0.36563
 O156 O 0.67232 0.98523 0.40908
 O157 O 0.62515 1.01197 0.37815
 O158 O 0.66008 0.91577 0.39320
 O159 O 0.68553 0.92066 0.34870
 O160 O 0.64884 1.01337 0.33227
 O161 O 0.69689 0.99250 0.36433
 O162 O 0.63542 0.94331 0.32087
 Cu163 Cu 0.63931 0.96322 0.39095
 Cu164 Cu 0.66942 0.96757 0.33716
 C165 C 0.61166 0.93590 0.33592
 C166 C 0.69509 0.99656 0.39441
 C167 C 0.63052 1.02832 0.35202
 C168 C 0.67936 0.90243 0.37353
 C169 C 0.82404 0.78432 0.51899
 C170 C 0.82330 0.77516 0.48740
 C171 C 0.84886 0.75338 0.47279
 C172 C 0.79801 0.78661 0.46563
 C173 C 0.79869 0.80351 0.53606
 C174 C 0.85090 0.77538 0.53899
 C175 C 0.87627 0.77106 0.46696
 C176 C 0.90010 0.74992 0.45314
 C177 C 0.89698 0.71069 0.44559
 C178 C 0.86947 0.69323 0.45152
 C179 C 0.84554 0.71450 0.46470
 C180 C 0.80482 0.80246 0.43614
 C181 C 0.78197 0.81427 0.41529
 C182 C 0.75172 0.81117 0.42363
 C183 C 0.74458 0.79495 0.45282
 C184 C 0.76756 0.78182 0.47333
 C185 C 0.78719 0.78565 0.56284
 C186 C 0.76548 0.80429 0.58151
 C187 C 0.75466 0.84116 0.57372
 C188 C 0.76535 0.85868 0.54628
 C189 C 0.78752 0.84015 0.52775
 C190 C 0.85872 0.73741 0.54681
 C191 C 0.88256 0.72985 0.56796
 C192 C 0.89900 0.76016 0.58172
 C193 C 0.89129 0.79812 0.57323
 C194 C 0.86737 0.80560 0.55227
 H195 H 0.87909 0.80115 0.47303
 H196 H 0.92109 0.76402 0.44886
 H197 H 0.86625 0.66322 0.44549
 H198 H 0.82447 0.70055 0.46895
 H199 H 0.82795 0.80635 0.42935
 H200 H 0.78799 0.82691 0.39294
 H201 H 0.76151 0.76822 0.49523
 H202 H 0.79551 0.75741 0.56966
 H203 H 0.75742 0.79001 0.60234
 H204 H 0.75761 0.88734 0.53999
 H205 H 0.79647 0.85467 0.50747
 H206 H 0.84588 0.71377 0.53717
 H207 H 0.88752 0.70026 0.57396
 H208 H 0.90352 0.82228 0.58272
 H209 H 0.86149 0.83511 0.54654
 H210 H 0.72130 0.79195 0.45947
 C211 C 0.17623 0.22658 0.50827
 C212 C 0.17931 0.22669 0.47612
 C213 C 0.15323 0.23480 0.45495
 C214 C 0.20762 0.21264 0.46065
 C215 C 0.20022 0.21079 0.52941
 C216 C 0.14676 0.23327 0.52371
 C217 C 0.13300 0.20556 0.44780
 C218 C 0.11114 0.21061 0.42418
 C219 C 0.10902 0.24508 0.40734
 C220 C 0.12831 0.27516 0.41555
 C221 C 0.15056 0.26986 0.43904
 C222 C 0.20672 0.18202 0.43845
 C223 C 0.23324 0.16422 0.42767
 C224 C 0.26131 0.17654 0.43890
 C225 C 0.26231 0.20890 0.45938
 C226 C 0.23571 0.22699 0.46993
 C227 C 0.21253 0.23377 0.55369
 C228 C 0.23324 0.21800 0.57534
 C229 C 0.24182 0.17886 0.57323
 C230 C 0.22999 0.15614 0.54835
 C231 C 0.20918 0.17190 0.52681
 C232 C 0.13979 0.26804 0.53975
 C233 C 0.11492 0.27079 0.56006
 C234 C 0.09690 0.23868 0.56460
 C235 C 0.10300 0.20486 0.54681
 C236 C 0.12790 0.20201 0.52705
 H237 H 0.13512 0.17805 0.45935
 H238 H 0.09628 0.18716 0.41866
 H239 H 0.12713 0.30194 0.40279
 H240 H 0.16626 0.29254 0.44411
 H241 H 0.18553 0.17024 0.43072
 H242 H 0.23155 0.13938 0.41197
 H243 H 0.23702 0.25110 0.48648
 H244 H 0.20585 0.26381 0.55607
 H245 H 0.24223 0.23643 0.59393
 H246 H 0.23579 0.12583 0.54623
 H247 H 0.19948 0.15354 0.50855
 H248 H 0.15444 0.29230 0.53783
 H249 H 0.11086 0.29722 0.57346
 H250 H 0.08924 0.17984 0.54899
 H251 H 0.13333 0.17464 0.51561
 H252 H 0.28361 0.21967 0.46792
 C253 C 0.18832 0.80512 0.48967
 C254 C 0.17975 0.80785 0.52077
 C255 C 0.15746 0.78138 0.53433
 C256 C 0.19179 0.83807 0.54257
 C257 C 0.20564 0.83603 0.47488
 C258 C 0.17694 0.77429 0.46800
 C259 C 0.12946 0.77561 0.51934
 C260 C 0.10968 0.74872 0.53099
 C261 C 0.11689 0.72840 0.55870
 C262 C 0.14405 0.73574 0.57477
 C263 C 0.16427 0.76179 0.56255
 C264 C 0.17199 0.86140 0.56064
 C265 C 0.18305 0.88966 0.58140
 C266 C 0.21416 0.89510 0.58454
 C267 C 0.23396 0.87150 0.56659
 C268 C 0.22290 0.84308 0.54602
 C269 C 0.23439 0.82826 0.46251
 C270 C 0.24990 0.85704 0.44703
 C271 C 0.23641 0.89358 0.44285
 C272 C 0.20773 0.90129 0.45547
 C273 C 0.19260 0.87289 0.47159
 C274 C 0.17927 0.73531 0.47620
 C275 C 0.16321 0.70761 0.45898
 C276 C 0.14498 0.71828 0.43286
 C277 C 0.14494 0.75681 0.42313
 C278 C 0.16071 0.78445 0.44050
 H279 H 0.12311 0.79147 0.49827
 H280 H 0.08853 0.74426 0.51862
 H281 H 0.14996 0.72060 0.59633
 H282 H 0.18550 0.76618 0.57480
 H283 H 0.14791 0.85797 0.55842
 H284 H 0.16715 0.90753 0.59462
 H285 H 0.23864 0.82475 0.53298
 H286 H 0.24469 0.79988 0.46470
 H287 H 0.27186 0.85032 0.43723
 H288 H 0.19690 0.92926 0.45265
 H289 H 0.17033 0.87930 0.48075
 H290 H 0.19211 0.72671 0.49704
 H291 H 0.16407 0.67830 0.46715
 H292 H 0.13197 0.76608 0.40263
 H293 H 0.15879 0.81422 0.43344
 H294 H 0.25807 0.87444 0.56881
 C295 C 0.83079 0.16662 0.46707
 C296 C 0.82174 0.17390 0.49746
 C297 C 0.83880 0.19942 0.51919
 C298 C 0.79529 0.15462 0.51038
 C299 C 0.81961 0.13234 0.44958
 C300 C 0.85071 0.19318 0.45063
 C301 C 0.86910 0.19077 0.52621
 C302 C 0.88521 0.21423 0.54720
 C303 C 0.87143 0.24714 0.56089
 C304 C 0.84115 0.25591 0.55371
 C305 C 0.82477 0.23179 0.53341
 C306 C 0.79824 0.13177 0.53739
 C307 C 0.77418 0.10987 0.54709
 C308 C 0.74687 0.11058 0.52987
 C309 C 0.74363 0.13479 0.50365
 C310 C 0.76755 0.15690 0.49419
 C311 C 0.80012 0.13655 0.42333
 C312 C 0.78205 0.10596 0.41358
 C313 C 0.78349 0.07120 0.43013
 C314 C 0.80559 0.06579 0.45375
 C315 C 0.82378 0.09603 0.46317
 C316 C 0.84510 0.23304 0.45277
 C317 C 0.86443 0.25844 0.43871
 C318 C 0.88925 0.24445 0.42145
 C319 C 0.89419 0.20455 0.41802
 C320 C 0.87505 0.17904 0.43261
 H321 H 0.88015 0.16565 0.51563
 H322 H 0.90860 0.20707 0.55227
 H323 H 0.83006 0.28105 0.56420
 H324 H 0.80134 0.23866 0.52833
 H325 H 0.81950 0.12968 0.55014
 H326 H 0.77735 0.09142 0.56737
 H327 H 0.76476 0.17502 0.47362
 H328 H 0.79669 0.16440 0.41256
 H329 H 0.76500 0.11074 0.39539
 H330 H 0.80720 0.03908 0.46661
 H331 H 0.83901 0.09223 0.48323
 H332 H 0.82574 0.24457 0.46544
 H333 H 0.85966 0.28903 0.44096
 H334 H 0.91320 0.19313 0.40471
 H335 H 0.87955 0.14838 0.43037
 H336 H 0.72268 0.13667 0.49037
 C337 C 0.50133 0.82353 0.80139
 C338 C 0.47163 0.81591 0.80278
 C339 C 0.44899 0.83243 0.77990
 C340 C 0.45948 0.79600 0.83050
 C341 C 0.52264 0.81375 0.82756
 C342 C 0.51380 0.84875 0.77719
 C343 C 0.42226 0.84934 0.79183
 C344 C 0.40067 0.86521 0.77147
 C345 C 0.40539 0.86538 0.73865
 C346 C 0.43194 0.84883 0.72628
 C347 C 0.45335 0.83174 0.74672
 C348 C 0.45597 0.81610 0.85948
 C349 C 0.43783 0.80155 0.88309
 C350 C 0.42374 0.76624 0.87837
 C351 C 0.42919 0.74472 0.85041
 C352 C 0.44659 0.75985 0.82635
 C353 C 0.53375 0.77603 0.83188
 C354 C 0.55818 0.76911 0.85266
 C355 C 0.57184 0.80000 0.86871
 C356 C 0.55940 0.83716 0.86573
 C357 C 0.53495 0.84392 0.84556
 C358 C 0.53533 0.83376 0.75594
 C359 C 0.55278 0.85849 0.73842
 C360 C 0.54951 0.89840 0.74291
 C361 C 0.52684 0.91335 0.76284
 C362 C 0.50877 0.88864 0.77957
 H363 H 0.41801 0.85077 0.81709
 H364 H 0.38038 0.87808 0.78148
 H365 H 0.43574 0.84839 0.70088
 H366 H 0.47316 0.81789 0.73659
 H367 H 0.46541 0.84432 0.86280
 H368 H 0.43394 0.81847 0.90458
 H369 H 0.44882 0.74429 0.80393
 H370 H 0.52456 0.75245 0.81805
 H371 H 0.56749 0.74019 0.85473
 H372 H 0.56919 0.86130 0.87835
 H373 H 0.52648 0.87314 0.84290
 H374 H 0.53969 0.80302 0.75425
 H375 H 0.57036 0.84648 0.72336
 H376 H 0.52405 0.94412 0.76652
 H377 H 0.49250 0.90059 0.79623
 H378 H 0.41833 0.71752 0.84630
 C379 C 0.53640 0.19791 0.21559
 C380 C 0.50602 0.20336 0.21740
 C381 C 0.48847 0.18478 0.24259
 C382 C 0.48882 0.22567 0.19338
 C383 C 0.55438 0.21166 0.18848
 C384 C 0.55274 0.17518 0.24010
 C385 C 0.46863 0.15543 0.23426
 C386 C 0.45484 0.13428 0.25782
 C387 C 0.46082 0.14195 0.29018
 C388 C 0.47970 0.17247 0.29846
 C389 C 0.49311 0.19397 0.27488
 C390 C 0.48620 0.21230 0.16183
 C391 C 0.47052 0.23435 0.13927
 C392 C 0.45756 0.27027 0.14787
 C393 C 0.46004 0.28330 0.17957
 C394 C 0.47527 0.26099 0.20219
 C395 C 0.55402 0.25051 0.17959
 C396 C 0.57168 0.26248 0.15428
 C397 C 0.59044 0.23593 0.13787
 C398 C 0.59047 0.19716 0.14668
 C399 C 0.57272 0.18522 0.17162
 C400 C 0.56691 0.19399 0.26575
 C401 C 0.57966 0.17276 0.29068
 C402 C 0.57932 0.13244 0.28968
 C403 C 0.56597 0.11365 0.26346
 C404 C 0.55239 0.13489 0.23907
 H405 H 0.46472 0.14792 0.20948
 H406 H 0.44041 0.11098 0.25065
 H407 H 0.48422 0.17971 0.32315
 H408 H 0.50777 0.21712 0.28181
 H409 H 0.49644 0.18497 0.15473
 H410 H 0.46902 0.22365 0.11499
 H411 H 0.47699 0.27156 0.22651
 H412 H 0.54048 0.27165 0.19254
 H413 H 0.57137 0.29261 0.14821
 H414 H 0.60419 0.17581 0.13420
 H415 H 0.57328 0.15509 0.17768
 H416 H 0.56717 0.22511 0.26692
 H417 H 0.59000 0.18777 0.31059
 H418 H 0.56529 0.08256 0.26231
 H419 H 0.54126 0.12000 0.21959
 H420 H 0.44990 0.31055 0.18701
 C421 C 0.49989 0.20403 0.80209
 C422 C 0.53021 0.20019 0.79901
 C423 C 0.54319 0.18078 0.77066
 C424 C 0.55154 0.21281 0.82436
 C425 C 0.48642 0.22536 0.82914
 C426 C 0.47892 0.18598 0.77892
 C427 C 0.54498 0.14055 0.76854
 C428 C 0.55581 0.12247 0.74095
 C429 C 0.56406 0.14441 0.71489
 C430 C 0.56202 0.18460 0.71686
 C431 C 0.55209 0.20274 0.74487
 C432 C 0.57116 0.18561 0.83831
 C433 C 0.59094 0.19644 0.86268
 C434 C 0.59151 0.23474 0.87372
 C435 C 0.57201 0.26211 0.85960
 C436 C 0.55242 0.25131 0.83490
 C437 C 0.47487 0.26264 0.82444
 C438 C 0.46384 0.28442 0.85008
 C439 C 0.46355 0.26882 0.88062
 C440 C 0.47437 0.23101 0.88515
 C441 C 0.48606 0.20948 0.85955
 C442 C 0.47774 0.19744 0.74711
 C443 C 0.46063 0.17710 0.72474
 C444 C 0.44381 0.14552 0.73396
 C445 C 0.44364 0.13553 0.76618
 C446 C 0.46117 0.15552 0.78845
 H447 H 0.53785 0.12330 0.78816
 H448 H 0.55736 0.09135 0.73969
 H449 H 0.56853 0.20182 0.69697
 H450 H 0.55058 0.23386 0.74620
 H451 H 0.57087 0.15573 0.83070
 H452 H 0.60537 0.17454 0.87326
 H453 H 0.53803 0.27299 0.82398
 H454 H 0.47504 0.27513 0.80102
 H455 H 0.45514 0.31326 0.84590
 H456 H 0.47430 0.21845 0.90853
 H457 H 0.49498 0.18067 0.86340
 H458 H 0.49060 0.22159 0.73948
 H459 H 0.46064 0.18604 0.70021
 H460 H 0.43091 0.11133 0.77396
 H461 H 0.46169 0.14639 0.81295
 H462 H 0.57222 0.29197 0.86727
 C463 C 0.46334 0.81852 0.18218
 C464 C 0.49219 0.82937 0.17733
 C465 C 0.50941 0.85095 0.20201
 C466 C 0.50857 0.82136 0.14749
 C467 C 0.44573 0.79558 0.15865
 C468 C 0.44736 0.83032 0.21182
 C469 C 0.49830 0.88593 0.21494
 C470 C 0.51295 0.90319 0.24080
 C471 C 0.53970 0.88679 0.25301
 C472 C 0.55213 0.85361 0.23848
 C473 C 0.53694 0.83561 0.21333
 C474 C 0.51435 0.85230 0.12782
 C475 C 0.53509 0.84825 0.10338
 C476 C 0.55119 0.81340 0.09864
 C477 C 0.54397 0.78154 0.11706
 C478 C 0.52273 0.78553 0.14141
 C479 C 0.42813 0.76563 0.16971
 C480 C 0.40839 0.74653 0.14927
 C481 C 0.40649 0.75625 0.11718
 C482 C 0.42463 0.78516 0.10559
 C483 C 0.44368 0.80528 0.12632
 C484 C 0.45809 0.81884 0.24176
 C485 C 0.44517 0.83429 0.26946
 C486 C 0.42098 0.86113 0.26776
 C487 C 0.40924 0.87076 0.23765
 C488 C 0.42225 0.85540 0.20998
 H489 H 0.47771 0.89904 0.20579
 H490 H 0.50330 0.92918 0.25143
 H491 H 0.57278 0.84058 0.24759
 H492 H 0.54613 0.80893 0.20347
 H493 H 0.50364 0.88016 0.13229
 H494 H 0.53930 0.87305 0.08906
 H495 H 0.51878 0.76151 0.15675
 H496 H 0.42904 0.75772 0.19451
 H497 H 0.39433 0.72443 0.15857
 H498 H 0.42286 0.79349 0.08093
 H499 H 0.45567 0.82935 0.11728
 H500 H 0.47726 0.79917 0.24362
 H501 H 0.45504 0.82614 0.29203
 H502 H 0.39036 0.89075 0.23535
 H503 H 0.41351 0.86430 0.18705
 H504 H 0.55596 0.75431 0.11398
 C505 C 0.82268 0.53619 0.83529
 C506 C 0.81576 0.49820 0.83327
 C507 C 0.78909 0.48315 0.84979
 C508 C 0.83454 0.46960 0.81492
 C509 C 0.84909 0.55193 0.81896
 C510 C 0.80488 0.56482 0.85460
 C511 C 0.79306 0.45373 0.87192
 C512 C 0.76873 0.44109 0.88938
 C513 C 0.73968 0.45737 0.88497
 C514 C 0.73563 0.48588 0.86178
 C515 C 0.76004 0.49849 0.84431
 C516 C 0.86606 0.46704 0.81865
 C517 C 0.88303 0.43980 0.80116
 C518 C 0.86865 0.41359 0.78076
 C519 C 0.83722 0.41558 0.77750
 C520 C 0.82038 0.44350 0.79416
 C521 C 0.85166 0.55066 0.78570
 C522 C 0.87555 0.56876 0.77099
 C523 C 0.89699 0.58870 0.78935
 C524 C 0.89462 0.58892 0.82264
 C525 C 0.87089 0.57094 0.83722
 C526 C 0.79669 0.60026 0.84107
 C527 C 0.78324 0.62947 0.85946
 C528 C 0.77705 0.62357 0.89156
 C529 C 0.78411 0.58783 0.90504
 C530 C 0.79850 0.55887 0.88685
 H531 H 0.81524 0.44127 0.87634
 H532 H 0.77302 0.41896 0.90668
 H533 H 0.71378 0.49892 0.85711
 H534 H 0.75637 0.52074 0.82688
 H535 H 0.87754 0.48569 0.83542
 H536 H 0.90721 0.43815 0.80455
 H537 H 0.79617 0.44460 0.79098
 H538 H 0.83483 0.53651 0.77118
 H539 H 0.87670 0.56816 0.74529
 H540 H 0.91104 0.60307 0.83763
 H541 H 0.86933 0.57212 0.86292
 H542 H 0.80152 0.60572 0.81639
 H543 H 0.77805 0.65698 0.84874
 H544 H 0.77997 0.58310 0.92998
 H545 H 0.80548 0.53239 0.89822
 H546 H 0.82566 0.39548 0.76198
 C547 C 0.17459 0.50101 0.15284
 C548 C 0.16792 0.46300 0.14998
 C549 C 0.18862 0.43450 0.13432
 C550 C 0.14048 0.44639 0.16294
 C551 C 0.15590 0.52983 0.17111
 C552 C 0.20170 0.51563 0.13722
 C553 C 0.19712 0.43812 0.10250
 C554 C 0.21747 0.41162 0.08886
 C555 C 0.22877 0.38037 0.10648
 C556 C 0.21919 0.37580 0.13779
 C557 C 0.19942 0.40278 0.15164
 C558 C 0.12110 0.42690 0.14204
 C559 C 0.09751 0.40585 0.15372
 C560 C 0.09295 0.40374 0.18658
 C561 C 0.11174 0.42450 0.20750
 C562 C 0.13549 0.44551 0.19575
 C563 C 0.17043 0.55696 0.19074
 C564 C 0.15388 0.58443 0.20821
 C565 C 0.12239 0.58486 0.20704
 C566 C 0.10765 0.55824 0.18728
 C567 C 0.12427 0.53160 0.16882
 C568 C 0.23070 0.50299 0.14627
 C569 C 0.25564 0.51321 0.12860
 C570 C 0.25199 0.53644 0.10168
 C571 C 0.22295 0.55043 0.09370
 C572 C 0.19810 0.54026 0.11141
 H573 H 0.18828 0.46164 0.08838
 H574 H 0.22423 0.41541 0.06448
 H575 H 0.22771 0.35210 0.15190
 H576 H 0.19288 0.39926 0.17614
 H577 H 0.12480 0.42719 0.11662
 H578 H 0.08313 0.39087 0.13696
 H579 H 0.15061 0.45985 0.21220
 H580 H 0.19474 0.55667 0.19284
 H581 H 0.16569 0.60471 0.22335
 H582 H 0.08332 0.55858 0.18568
 H583 H 0.11232 0.51256 0.15277
 H584 H 0.23385 0.48427 0.16642
 H585 H 0.27763 0.50258 0.13598
 H586 H 0.21910 0.56828 0.07319
 H587 H 0.17584 0.55027 0.10416
 H588 H 0.10892 0.42324 0.23298
 C589 C 0.80679 0.51966 0.18011
 C590 C 0.81246 0.55799 0.17987
 C591 C 0.79295 0.58568 0.16200
 C592 C 0.83898 0.57480 0.19636
 C593 C 0.82620 0.49149 0.19748
 C594 C 0.78097 0.50338 0.16214
 C595 C 0.78745 0.58094 0.12921
 C596 C 0.77071 0.60873 0.11257
 C597 C 0.76001 0.64223 0.12826
 C598 C 0.76544 0.64685 0.16101
 C599 C 0.78164 0.61876 0.17773
 C600 C 0.85777 0.59852 0.17917
 C601 C 0.88189 0.61652 0.19407
 C602 C 0.88798 0.61090 0.22646
 C603 C 0.86964 0.58658 0.24371
 C604 C 0.84499 0.56910 0.22888
 C605 C 0.81268 0.46561 0.21784
 C606 C 0.82993 0.43733 0.23309
 C607 C 0.86110 0.43460 0.22856
 C608 C 0.87487 0.46085 0.20869
 C609 C 0.85746 0.48870 0.19280
 C610 C 0.75123 0.51523 0.16849
 C611 C 0.72741 0.50019 0.15058
 C612 C 0.73290 0.47288 0.12609
 C613 C 0.76276 0.46056 0.12039
 C614 C 0.78647 0.47552 0.13832
 H615 H 0.79671 0.55623 0.11637
 H616 H 0.76723 0.60478 0.08721
 H617 H 0.75727 0.67228 0.17370
 H618 H 0.78580 0.62310 0.20295
 H619 H 0.85362 0.60332 0.15410
 H620 H 0.89587 0.63480 0.18016
 H621 H 0.83044 0.55157 0.24280
 H622 H 0.78863 0.46711 0.22169
 H623 H 0.81885 0.41748 0.24841
 H624 H 0.89884 0.45883 0.20448
 H625 H 0.86828 0.50763 0.17652
 H626 H 0.74653 0.53624 0.18719
 H627 H 0.70478 0.50993 0.15617
 H628 H 0.76807 0.43985 0.10171
 H629 H 0.80929 0.46592 0.13318
 H630 H 0.87376 0.58218 0.26883
 C631 C 0.18390 0.42652 0.82604
 C632 C 0.18499 0.46528 0.82126
 C633 C 0.21072 0.48793 0.83336
 C634 C 0.16069 0.48671 0.80382
 C635 C 0.15925 0.40271 0.81265
 C636 C 0.20701 0.40561 0.84552
 C637 C 0.20566 0.51813 0.85525
 C638 C 0.22988 0.53671 0.86970
 C639 C 0.25972 0.52568 0.86231
 C640 C 0.26457 0.49687 0.83887
 C641 C 0.24031 0.47822 0.82453
 C642 C 0.13021 0.48184 0.81097
 C643 C 0.10766 0.49736 0.79134
 C644 C 0.11514 0.51979 0.76533
 C645 C 0.14539 0.52771 0.75985
 C646 C 0.16805 0.51100 0.77882
 C647 C 0.15205 0.40267 0.78004
 C648 C 0.12797 0.38129 0.76828
 C649 C 0.11118 0.35880 0.78878
 C650 C 0.11907 0.35793 0.82119
 C651 C 0.14284 0.37969 0.83298
 C652 C 0.22073 0.37182 0.83327
 C653 C 0.24136 0.35072 0.85166
 C654 C 0.24890 0.36317 0.88258
 C655 C 0.23543 0.39716 0.89481
 C656 C 0.21430 0.41787 0.87663
 H657 H 0.18295 0.52618 0.86219
 H658 H 0.22504 0.55878 0.88744
 H659 H 0.28704 0.48813 0.83181
 H660 H 0.24461 0.45544 0.80718
 H661 H 0.12389 0.46457 0.83089
 H662 H 0.08437 0.49142 0.79617
 H663 H 0.19136 0.51570 0.77314
 H664 H 0.16483 0.41955 0.76380
 H665 H 0.12270 0.38210 0.74311
 H666 H 0.10644 0.34121 0.83765
 H667 H 0.14808 0.37917 0.85819
 H668 H 0.21532 0.36168 0.80944
 H669 H 0.25153 0.32473 0.84159
 H670 H 0.24048 0.40704 0.91879
 H671 H 0.20334 0.44313 0.88702
 H672 H 0.15153 0.54504 0.73988
 N673 N 0.25442 0.31581 0.09939
 N674 N 0.27743 0.30101 0.08327
 C675 C 0.28955 0.32918 0.06639
 C676 C 0.27349 0.36314 0.07161
 C677 C 0.25138 0.35350 0.09263
 H678 H 0.27767 0.39110 0.06186
 H679 H 0.24102 0.30020 0.11452
 H680 H 0.28477 0.27229 0.08415
 N681 N 0.74815 0.71118 0.11718
 N682 N 0.73412 0.73149 0.09506
 C683 C 0.72141 0.70716 0.07393
 C684 C 0.72774 0.66965 0.08278
 C685 C 0.74495 0.67348 0.11033
 H686 H 0.72155 0.64344 0.07039
 H687 H 0.76064 0.72313 0.13590
 H688 H 0.73364 0.76150 0.09432
 N689 N 0.68587 0.46049 0.90399
 N690 N 0.66925 0.44339 0.92522
 C691 C 0.68637 0.41672 0.94014
 C692 C 0.71512 0.41676 0.92785
 C693 C 0.71408 0.44505 0.90483
 H694 H 0.73399 0.39861 0.93500
 H695 H 0.67769 0.48254 0.88952
 H696 H 0.64659 0.45006 0.92937
 N697 N 0.31387 0.52802 0.88025
 N698 N 0.33027 0.54786 0.90084
 C699 C 0.31279 0.57571 0.91412
 C700 C 0.28406 0.57370 0.90136
 C701 C 0.28547 0.54277 0.88000
 H702 H 0.26471 0.59142 0.90789
 H703 H 0.32205 0.50388 0.86773
 H704 H 0.35282 0.54159 0.90627
 N705 N 0.08048 0.21780 0.36140
 N706 N 0.06027 0.22935 0.34026
 C707 C 0.05444 0.26717 0.34493
 C708 C 0.07201 0.28055 0.37006
 C709 C 0.08799 0.24804 0.38004
 H710 H 0.07194 0.30915 0.38061
 H711 H 0.08878 0.18954 0.36296
 H712 H 0.05015 0.21123 0.32343
 N713 N 0.07852 0.67720 0.55265
 N714 N 0.06066 0.65787 0.57119
 C715 C 0.06612 0.66828 0.60167
 C716 C 0.08875 0.69503 0.60260
 C717 C 0.09585 0.70010 0.57098
 H718 H 0.09727 0.71065 0.62313
 H719 H 0.07831 0.67524 0.52783
 H720 H 0.04408 0.63932 0.56290
 N721 N 0.92647 0.64969 0.43583
 N722 N 0.94911 0.63741 0.41799
 C723 C 0.95962 0.66731 0.40187
 C724 C 0.94314 0.70031 0.41010
 C725 C 0.92209 0.68774 0.43153
 H726 H 0.94495 0.72876 0.40038
 H727 H 0.91410 0.63200 0.45034
 H728 H 0.95655 0.60875 0.41627
 N729 N 0.88657 0.31111 0.58269
 N730 N 0.90628 0.32463 0.60354
 C731 C 0.92098 0.29472 0.61711
 C732 C 0.91049 0.26071 0.60421
 C733 C 0.88874 0.27240 0.58235
 H734 H 0.91780 0.23166 0.60974
 H735 H 0.87244 0.32823 0.56850
 H736 H 0.90942 0.35381 0.60842
 N737 N 0.46088 0.11164 0.34396
 N738 N 0.44405 0.08803 0.36000
 C739 C 0.42015 0.07854 0.34184
 C740 C 0.42190 0.09676 0.31288
 C741 C 0.44809 0.11762 0.31514
 H742 H 0.40605 0.09548 0.29319
 H743 H 0.48099 0.12291 0.35262
 H744 H 0.44882 0.07895 0.38310
 N745 N 0.56184 0.12397 0.65774
 N746 N 0.57647 0.09901 0.63909
 C747 C 0.60022 0.08451 0.65548
 C748 C 0.60061 0.10044 0.68576
 C749 C 0.57591 0.12509 0.68628
 H750 H 0.61554 0.09314 0.70537
 H751 H 0.54180 0.13838 0.65153
 H752 H 0.56972 0.09130 0.61603
 N753 N 0.35242 0.87685 0.72226
 N754 N 0.33678 0.90361 0.70707
 C755 C 0.35595 0.92698 0.69280
 C756 C 0.38526 0.91441 0.69891
 C757 C 0.38193 0.88267 0.71809
 H758 H 0.40579 0.92920 0.69396
 H759 H 0.34301 0.85665 0.73707
 H760 H 0.31342 0.90720 0.70821
 N761 N 0.53777 0.91465 0.30777
 N762 N 0.55685 0.92613 0.33003
 C763 C 0.58503 0.92218 0.31877
 C764 C 0.58395 0.90718 0.28809
 C765 C 0.55349 0.90287 0.28207
 H766 H 0.60253 0.90104 0.27223
 H767 H 0.51443 0.91459 0.31036
 H768 H 0.55053 0.93736 0.35223
 N769 N 0.45273 0.33046 0.90998
 N770 N 0.43636 0.34228 0.93441
 C771 C 0.42412 0.31145 0.94770
 C772 C 0.43343 0.27848 0.93137
 C773 C 0.45129 0.29187 0.90738
 H774 H 0.42620 0.24935 0.93477
 H775 H 0.46398 0.34875 0.89494
 H776 H 0.43264 0.37111 0.94089
 N777 N 0.62257 0.82091 0.88548
 N778 N 0.64363 0.81120 0.90634
 C779 C 0.63541 0.77907 0.92101
 C780 C 0.60796 0.76733 0.90859
 C781 C 0.60047 0.79514 0.88635
 H782 H 0.59436 0.74393 0.91635
 H783 H 0.62311 0.84539 0.87147
 H784 H 0.66276 0.82724 0.91114
 N785 N 0.35396 0.74027 0.10288
 N786 N 0.33954 0.72191 0.07986
 C787 C 0.35984 0.70771 0.05895
 C788 C 0.38847 0.71784 0.06875
 C789 C 0.38360 0.73854 0.09670
 H790 H 0.40969 0.71090 0.05742
 H791 H 0.34362 0.75391 0.12234
 H792 H 0.31625 0.71864 0.07888
 N793 N 0.63760 0.23003 0.10633
 N794 N 0.65104 0.24808 0.08333
 C795 C 0.63353 0.27813 0.07425
 C796 C 0.60766 0.27946 0.09259
 C797 C 0.61116 0.24820 0.11272
 H798 H 0.58913 0.30016 0.09148
 H799 H 0.64694 0.20613 0.11785
 H800 H 0.67201 0.23989 0.07414
 N801 N 0.26278 0.17468 0.62849
 N802 N 0.27831 0.14965 0.64574
 C803 C 0.28721 0.12000 0.62686
 C804 C 0.27696 0.12634 0.59616
 C805 C 0.26118 0.16129 0.59823
 H806 H 0.27910 0.10703 0.57582
 H807 H 0.25212 0.19932 0.63792
 H808 H 0.28182 0.15235 0.67028
 N809 N 0.74506 0.03116 0.45411
 N810 N 0.71947 0.01196 0.44420
 C811 C 0.71816 0.01302 0.41220
 C812 C 0.74246 0.03310 0.40096
 C813 C 0.75857 0.04417 0.42803
 H814 H 0.74707 0.04018 0.37656
 H815 H 0.75092 0.03686 0.47781
 H816 H 0.70427 -0.00062 0.45943
 N817 N 0.73618 0.85913 0.62774
 N818 N 0.71757 0.88475 0.64085
 C819 C 0.70307 0.90401 0.61759
 C820 C 0.71306 0.89050 0.58830
 C821 C 0.73429 0.86209 0.59584
 H822 H 0.70708 0.90137 0.56505
 H823 H 0.75100 0.84143 0.64062
 H824 H 0.71553 0.88963 0.66531
 N825 N 0.23565 0.94563 0.40290
 N826 N 0.25492 0.96735 0.38826
 C827 C 0.28285 0.95926 0.39934
 C828 C 0.28138 0.93069 0.42193
 C829 C 0.25089 0.92283 0.42340
 H830 H 0.29975 0.91753 0.43526
 H831 H 0.21251 0.94602 0.39836
 H832 H 0.24888 0.98761 0.37114
 N833 N 0.07503 0.30451 0.78990
 N834 N 0.05178 0.29228 0.77304
 C835 C 0.04670 0.31645 0.74880
 C836 C 0.06771 0.34518 0.75011
 C837 C 0.08535 0.33660 0.77657
 H838 H 0.06967 0.36908 0.73418
 H839 H 0.08381 0.29060 0.80988
 H840 H 0.03970 0.26779 0.77814
 N841 N 0.11208 0.65011 0.23078
 N842 N 0.09365 0.66609 0.25190
 C843 C 0.07500 0.63909 0.26213
 C844 C 0.08148 0.60455 0.24646
 C845 C 0.10518 0.61281 0.22682
 H846 H 0.07142 0.57694 0.24999
 H847 H 0.12935 0.66445 0.21967
 H848 H 0.09464 0.69462 0.25994
 N849 N 0.86803 0.36682 0.24540
 N850 N 0.88945 0.34451 0.25758
 C851 C 0.91388 0.36573 0.26341
 C852 C 0.90796 0.40328 0.25428
 C853 C 0.87854 0.40262 0.24286
 H854 H 0.92294 0.42734 0.25537
 H855 H 0.84688 0.35726 0.23822
 H856 H 0.88725 0.31520 0.26181
 N857 N 0.93575 0.63963 0.78859
 N858 N 0.95622 0.65225 0.76912
 C859 C 0.95526 0.63143 0.74189
 C860 C 0.93303 0.60429 0.74401
 C861 C 0.92126 0.61030 0.77426
 H862 H 0.92689 0.58276 0.72639
 H863 H 0.93176 0.65153 0.81115
 H864 H 0.97065 0.67475 0.77458
 N865 N 0.77913 0.69072 0.91166
 N866 N 0.76282 0.71480 0.93224
 C867 C 0.73988 0.69458 0.94353
 C868 C 0.74135 0.65721 0.93115
 C869 C 0.76616 0.65618 0.91130
 H870 H 0.72600 0.63417 0.93528
 H871 H 0.79803 0.69861 0.89900
 H872 H 0.76740 0.74371 0.93677
 N873 N 0.27171 0.30105 0.90091
 N874 N 0.29211 0.28903 0.92433
 C875 C 0.30244 0.32071 0.93927
 C876 C 0.28894 0.35328 0.92613
 C877 C 0.26975 0.33976 0.90236
 H878 H 0.29227 0.38293 0.93328
 H879 H 0.25934 0.28267 0.88619
 H880 H 0.29783 0.26038 0.92908
 N881 N 0.30506 0.52687 0.08237
 N882 N 0.32348 0.54362 0.06007
 C883 C 0.30735 0.57212 0.04622
 C884 C 0.27877 0.57423 0.05904
 C885 C 0.27811 0.54562 0.08168
 H886 H 0.26103 0.59475 0.05302
 H887 H 0.31149 0.50343 0.09626
 H888 H 0.34578 0.53531 0.05561
 N889 N 0.67987 0.47354 0.10459
 N890 N 0.66319 0.45205 0.08267
 C891 C 0.68126 0.42344 0.07145
 C892 C 0.70940 0.42578 0.08579
 C893 C 0.70781 0.45757 0.10632
 H894 H 0.72856 0.40672 0.08149
 H895 H 0.67179 0.49837 0.11623
 H896 H 0.64086 0.45808 0.07610
 N897 N 0.93683 0.77925 0.62378
 N898 N 0.95868 0.76084 0.64256
 C899 C 0.95837 0.72310 0.63507
 C900 C 0.93674 0.71656 0.61168
 C901 C 0.92369 0.75233 0.60510
 H902 H 0.93157 0.68912 0.60072
 H903 H 0.93169 0.80864 0.62517
 H904 H 0.97248 0.77452 0.65930
 N905 N 0.91543 0.30686 0.41928
 N906 N 0.93483 0.32459 0.39862
 C907 C 0.94017 0.29986 0.37422
 C908 C 0.92498 0.26610 0.37876
 C909 C 0.90970 0.27169 0.40706
 H910 H 0.92443 0.24114 0.36305
 H911 H 0.90732 0.31915 0.44042
 H912 H 0.94290 0.35237 0.40169
 N913 N 0.06547 0.20570 0.60384
 N914 N 0.04463 0.21554 0.62714
 C915 C 0.04039 0.25400 0.62709
 C916 C 0.05847 0.26965 0.60392
 C917 C 0.07375 0.23828 0.58978
 H918 H 0.06020 0.29970 0.59813
 H919 H 0.07385 0.17780 0.59973
 H920 H 0.03442 0.19583 0.64180
 N921 N 0.12622 0.65174 0.42026
 N922 N 0.10245 0.63596 0.40280
 C923 C 0.08690 0.66523 0.38931
 C924 C 0.10014 0.69970 0.39762
 C925 C 0.12469 0.69030 0.41694
 H926 H 0.09233 0.72810 0.39076
 H927 H 0.14213 0.63570 0.43316
 H928 H 0.09808 0.60665 0.40076
 N929 N 0.58577 0.95115 0.74851
 N930 N 0.60658 0.96713 0.73136
 C931 C 0.60648 0.95070 0.70214
 C932 C 0.58483 0.92274 0.70058
 C933 C 0.57223 0.92405 0.73059
 H934 H 0.57890 0.90443 0.68052
 H935 H 0.58134 0.95832 0.77225
 H936 H 0.62007 0.98956 0.73939
 N937 N 0.41538 0.86892 0.32696
 N938 N 0.40367 0.89435 0.34726
 C939 C 0.38947 0.92242 0.33087
 C940 C 0.39212 0.91450 0.29863
 C941 C 0.40906 0.88032 0.29704
 H942 H 0.38431 0.93236 0.27927
 H943 H 0.42770 0.84450 0.33389
 H944 H 0.40582 0.89265 0.37196
 N945 N 0.58944 0.11811 0.34711
 N946 N 0.60247 0.09021 0.36375
 C947 C 0.61465 0.06415 0.34332
 C948 C 0.60885 0.07559 0.31248
 C949 C 0.59271 0.10982 0.31586
 H950 H 0.61495 0.06061 0.29063
 H951 H 0.57778 0.14172 0.35704
 H952 H 0.60286 0.08911 0.38855
 N953 N 0.43611 0.11787 0.67931
 N954 N 0.41706 0.09514 0.66432
 C955 C 0.39585 0.08476 0.68489
 C956 C 0.40173 0.10144 0.71441
 C957 C 0.42750 0.12237 0.70981
 H958 H 0.38878 0.09926 0.73591
 H959 H 0.45487 0.12958 0.66873
 H960 H 0.41848 0.08730 0.64029
 N961 N 0.59275 0.84364 0.06948
 N962 N 0.61597 0.83304 0.05192
 C963 C 0.61595 0.79463 0.04765
 C964 C 0.59151 0.77991 0.06328
 C965 C 0.57728 0.81220 0.07692
 H966 H 0.58537 0.75011 0.06492
 H967 H 0.58851 0.87197 0.07704
 H968 H 0.63172 0.85198 0.04334
 N969 N 0.43923 0.33285 0.12513
 N970 N 0.42280 0.34471 0.10064
 C971 C 0.41411 0.31378 0.08353
 C972 C 0.42572 0.28077 0.09754
 C973 C 0.44147 0.29410 0.12398
 H974 H 0.42238 0.25124 0.09007
 H975 H 0.44877 0.35119 0.14215
 H976 H 0.41729 0.37348 0.09614
 N977 N 0.63886 0.22720 0.90613
 N978 N 0.65236 0.24488 0.93018
 C979 C 0.63496 0.27503 0.93968
 C980 C 0.60927 0.27681 0.92073
 C981 C 0.61261 0.24589 0.89963
 H982 H 0.59091 0.29775 0.92206
 H983 H 0.64800 0.20325 0.89406
 H984 H 0.67327 0.23649 0.93968
 N985 N 0.37946 0.77775 0.91315
 N986 N 0.36159 0.75749 0.93090
 C987 C 0.37162 0.72067 0.93057
 C988 C 0.39681 0.71711 0.91157
 C989 C 0.40099 0.75406 0.90098
 H990 H 0.41026 0.69146 0.90639
 H991 H 0.37658 0.80715 0.90908
 H992 H 0.34323 0.76896 0.94346
 N993 N 0.72964 0.82147 0.36989
 N994 N 0.71031 0.84584 0.35658
 C995 C 0.69606 0.86629 0.37961
 C996 C 0.70646 0.85388 0.40904
 C997 C 0.72816 0.82581 0.40173
 H998 H 0.70216 0.86718 0.43205
 H999 H 0.74499 0.80408 0.35727
 H1000 H 0.70854 0.85021 0.33211
 N1001 N 0.21139 0.93940 0.63233
 N1002 N 0.22896 0.96405 0.64738
 C1003 C 0.25496 0.96600 0.63146
 C1004 C 0.25397 0.94153 0.60522
 C1005 C 0.22597 0.92498 0.60661
 H1006 H 0.27146 0.93620 0.58789
 H1007 H 0.19017 0.93197 0.64025
 H1008 H 0.22331 0.97877 0.66841
 N1009 N 0.31321 0.15139 0.45129
 N1010 N 0.33164 0.12374 0.44084
 C1011 C 0.31979 0.10799 0.41422
 C1012 C 0.29266 0.12646 0.40728
 C1013 C 0.28903 0.15364 0.43167
 H1014 H 0.27698 0.11927 0.38836
 H1015 H 0.31649 0.16670 0.47257
 H1016 H 0.35149 0.11504 0.45245
 N1017 N 0.70016 0.07353 0.51893
 N1018 N 0.68180 0.05180 0.53484
 C1019 C 0.69159 0.04998 0.56519
 C1020 C 0.71728 0.07120 0.56883
 C1021 C 0.72198 0.08582 0.53893
 H1022 H 0.73035 0.07578 0.59037
 H1023 H 0.69784 0.07916 0.49470
 H1024 H 0.66294 0.03858 0.52498
 N1025 N 0.92030 0.66782 0.23414
 N1026 N 0.94311 0.67845 0.25230
 C1027 C 0.95062 0.64954 0.27196
 C1028 C 0.93152 0.61916 0.26636
 C1029 C 0.91262 0.63202 0.24207
 H1030 H 0.93160 0.59162 0.27797
 H1031 H 0.91005 0.68516 0.21691
 H1032 H 0.95346 0.70501 0.25095
 N1033 N 0.87643 0.34548 0.76372
 N1034 N 0.89651 0.32405 0.74830
 C1035 C 0.91894 0.34647 0.73891
 C1036 C 0.91305 0.38405 0.74919
 C1037 C 0.88574 0.38200 0.76488
 H1038 H 0.92636 0.40918 0.74544
 H1039 H 0.85680 0.33504 0.77351
 H1040 H 0.89451 0.29458 0.74384
 N1041 N 0.07091 0.50810 0.73024
 N1042 N 0.05296 0.52772 0.71090
 C1043 C 0.06160 0.56457 0.71085
 C1044 C 0.08648 0.56857 0.73076
 C1045 C 0.09152 0.53198 0.74261
 H1046 H 0.09846 0.59450 0.73664
 H1047 H 0.06897 0.47885 0.73487
 H1048 H 0.03453 0.51619 0.69880
 N1049 N 0.05867 0.34760 0.18332
 N1050 N 0.03942 0.33062 0.20187
 C1051 C 0.03767 0.35061 0.22947
 C1052 C 0.05652 0.38156 0.22858
 C1053 C 0.06955 0.37866 0.19890
 H1054 H 0.06035 0.40288 0.24713
 H1055 H 0.06474 0.33720 0.16080
 H1056 H 0.02802 0.30560 0.19576
   
