data_POSCAR
  _audit_creation_date              2014-09-24
  _audit_creation_method            'ToBaCCo'
  _symmetry_space_group_name_H-M    'P1'
  _symmetry_Int_Tables_number       1
  _symmetry_cell_setting            triclinic
  loop_
  _symmetry_equiv_pos_as_xyz
 x,y,z
_cell_length_a 18.1967
_cell_length_b 17.6985
_cell_length_c 54.9191
_cell_angle_alpha 89.388800
_cell_angle_beta 90.363600
_cell_angle_gamma 117.128700
loop_
  _atom_site_label
  _atom_site_type_symbol
  _atom_site_fract_x
  _atom_site_fract_y
  _atom_site_fract_z
C1 C -0.02639 0.14080 0.51757
 H2 H 0.01092 0.17744 0.50246
 C3 C -0.04103 0.18298 0.53680
 H4 H -0.01573 0.25144 0.53591
 C5 C -0.09699 0.00886 0.53822
 H6 H -0.11522 -0.05846 0.53909
 C7 C -0.11153 0.04881 0.55810
 H8 H -0.14251 0.01133 0.57400
 N9 N -0.05197 0.05567 0.51896
 C10 C 0.01589 -0.13340 0.51784
 H11 H -0.01982 -0.16827 0.50236
 C12 C 0.02878 -0.17774 0.53719
 H13 H 0.00373 -0.24606 0.53603
 C14 C 0.08435 -0.00383 0.53917
 H15 H 0.10247 0.06338 0.54021
 C16 C 0.09715 -0.04598 0.55915
 H17 H 0.12670 -0.01027 0.57531
 Zn18 Zn -0.00420 0.00478 0.49847
 N19 N 0.04124 -0.04846 0.51949
 C20 C 0.15718 0.10910 0.47782
 N21 N 0.07522 0.08772 0.47794
 C22 C 0.04133 0.11777 0.46067
 C23 C 0.08931 0.16932 0.44186
 C24 C 0.20807 0.16139 0.45918
 C25 C -0.16354 -0.10107 0.47657
 C26 C -0.21235 -0.15363 0.45779
 C27 C -0.08970 -0.15345 0.44102
 C28 C -0.04417 -0.10222 0.46005
 N29 N -0.08093 -0.07611 0.47712
 H30 H 0.18231 0.08305 0.49154
 H31 H -0.02424 0.09866 0.46105
 H32 H 0.06000 0.19047 0.42802
 H33 H 0.27259 0.17571 0.45872
 H34 H -0.19113 -0.07849 0.49024
 H35 H -0.27771 -0.17131 0.45746
 H36 H -0.05697 -0.17108 0.42762
 H37 H 0.02179 -0.08075 0.46088
 C38 C 0.06619 -0.13462 0.55865
 C39 C -0.08038 0.13750 0.55792
 C40 C -0.17514 -0.17896 0.43917
 C41 C 0.17339 0.19019 0.44055
 C42 C 1.14640 -0.01027 0.14716
 H43 H 1.18080 0.03391 0.16127
 C44 C 1.18926 -0.02996 0.12940
 H45 H 1.25598 -0.00115 0.13039
 C46 C 1.01895 -0.09534 0.12766
 H47 H 0.95281 -0.11821 0.12671
 C48 C 1.05955 -0.11591 0.10930
 H49 H 1.02377 -0.15552 0.09442
 N50 N 1.06294 -0.04146 0.14573
 C51 C 0.87065 0.01786 0.14716
 H52 H 0.83733 -0.02483 0.16184
 C53 C 0.82651 0.03606 0.12915
 H54 H 0.75990 0.00762 0.13051
 C55 C 0.99658 0.10058 0.12657
 H56 H 1.06259 0.12304 0.12532
 C57 C 0.95466 0.11960 0.10796
 H58 H 0.98930 0.15765 0.09257
 Zn59 Zn 1.00904 0.00404 0.16595
 N60 N 0.95392 0.04847 0.14531
 C61 C 1.10653 0.17061 0.18690
 N62 N 1.08734 0.08670 0.18665
 C63 C 1.11726 0.05221 0.20383
 C64 C 1.16622 0.10132 0.22271
 C65 C 1.15647 0.22282 0.20558
 C66 C 0.91101 -0.16192 0.18801
 C67 C 0.86124 -0.21359 0.20695
 C68 C 0.85568 -0.09054 0.22369
 C69 C 0.90414 -0.04204 0.20451
 N70 N 0.93189 -0.07759 0.18738
 H71 H 1.08081 0.19622 0.17324
 H72 H 1.10024 -0.01484 0.20330
 H73 H 1.18732 0.07146 0.23650
 H74 H 1.16919 0.28879 0.20619
 H75 H 0.93492 -0.18845 0.17436
 H76 H 0.84683 -0.28005 0.20779
 H77 H 0.83617 -0.05996 0.23740
 H78 H 0.92231 0.02527 0.20365
 C79 C 0.86807 0.08486 0.10873
 C80 C 1.14619 -0.08086 0.10963
 C81 C 0.83491 -0.17703 0.22540
 C82 C 1.18492 0.18727 0.22413
 C83 C 0.03788 0.91939 0.87124
 H84 H -0.02753 0.87682 0.87009
 C85 C 0.08352 0.91192 0.89062
 H86 H 0.05264 0.86223 0.90403
 C87 C 0.15522 1.03851 0.85560
 H88 H 0.18167 1.08928 0.84229
 C89 C 0.20374 1.03328 0.87489
 H90 H 0.26795 1.07992 0.87615
 N91 N 0.07361 0.98243 0.85443
 C92 C -0.16171 0.94841 0.85650
 H93 H -0.19018 0.89863 0.84321
 C94 C -0.20838 0.95477 0.87590
 H95 H -0.27320 0.90986 0.87713
 C96 C -0.04156 1.06443 0.87171
 H97 H 0.02407 1.10568 0.87024
 C98 C -0.08509 1.07277 0.89128
 H99 H -0.05174 1.12186 0.90444
 Zn100 Zn -0.00421 0.99243 0.83358
 N101 N -0.07965 1.00251 0.85503
 C102 C -0.09754 0.90165 0.79371
 N103 N -0.05273 0.89671 0.81302
 C104 C -0.02764 0.83518 0.81443
 C105 C -0.04268 0.77914 0.79520
 C106 C -0.11240 0.84796 0.77381
 C107 C 0.01732 1.14998 0.81424
 C108 C 0.03060 1.20651 0.79492
 C109 C 0.09826 1.13815 0.77302
 C110 C 0.08515 1.08392 0.79300
 N111 N 0.04220 1.08844 0.81263
 H112 H -0.11533 0.95220 0.79281
 H113 H 0.00968 0.83328 0.82953
 H114 H -0.01774 0.73410 0.79613
 H115 H -0.14317 0.85665 0.75787
 H116 H -0.01846 1.15159 0.82963
 H117 H 0.00589 1.25163 0.79604
 H118 H 0.12760 1.12987 0.75688
 H119 H 0.10282 1.03337 0.79197
 C120 C -0.16946 1.01640 0.89405
 C121 C 0.16706 0.97049 0.89304
 C122 C 0.06781 1.19818 0.77349
 C123 C -0.08181 0.78801 0.77404
 C124 C 0.28781 -0.06154 0.00202
 C125 C 0.33347 -0.03468 -0.01958
 C126 C 0.41853 -0.00909 -0.01891
 C127 C 0.45791 -0.01491 0.00276
 C128 C 0.41044 -0.04183 0.02429
 C129 C 0.32599 -0.06281 0.02417
 C130 C 0.54806 0.00766 0.00264
 C131 C 0.59715 0.03675 0.02383
 C132 C 0.68179 0.05857 0.02344
 C133 C 0.71848 0.05612 0.00128
 C134 C 0.67114 0.02690 -0.01994
 C135 C 0.58597 0.00025 -0.01894
 H136 H 0.22269 -0.07816 0.00173
 H137 H 0.45362 0.01525 -0.03547
 H138 H 0.43836 -0.04718 0.04123
 H139 H 0.57036 0.04324 0.04070
 H140 H 0.78376 0.07353 0.00071
 H141 H 0.54979 -0.02571 -0.03521
 C142 C -0.00987 0.69692 0.66622
 C143 C -0.03286 0.64617 0.68738
 C144 C -0.03289 0.56680 0.68713
 C145 C -0.00957 0.53815 0.66614
 C146 C 0.01364 0.59029 0.64521
 C147 C 0.01332 0.66949 0.64504
 C148 C -0.00933 0.45403 0.66608
 C149 C -0.03239 0.40362 0.64505
 C150 C -0.03174 0.32461 0.64474
 C151 C -0.00845 0.29554 0.66589
 C152 C 0.01446 0.34456 0.68713
 C153 C 0.01415 0.42378 0.68702
 H154 H -0.00993 0.75808 0.66625
 H155 H -0.05246 0.52670 0.70323
 H156 H 0.03347 0.56997 0.62909
 H157 H -0.05224 0.42521 0.62896
 H158 H -0.00803 0.23454 0.66579
 H159 H 0.03371 0.46261 0.70318
 C160 C 0.70265 0.68778 0.33363
 C161 C 0.66883 0.65013 0.31136
 C162 C 0.59239 0.57687 0.31111
 C163 C 0.54555 0.54534 0.33277
 C164 C 0.57973 0.58912 0.35475
 C165 C 0.65932 0.65726 0.35535
 C166 C 0.46228 0.46766 0.33256
 C167 C 0.42589 0.42354 0.35448
 C168 C 0.34728 0.35356 0.35455
 C169 C 0.30738 0.32218 0.33241
 C170 C 0.34311 0.36100 0.31032
 C171 C 0.41831 0.43564 0.31050
 H172 H 0.76309 0.74242 0.33408
 H173 H 0.57026 0.54647 0.29382
 H174 H 0.54642 0.57065 0.37172
 H175 H 0.45707 0.44275 0.37175
 H176 H 0.24799 0.26608 0.33235
 H177 H 0.44198 0.46647 0.29324
 N178 N -0.08500 0.14568 0.60259
 C179 C -0.07845 0.18341 0.58049
 N180 N -0.06015 0.26689 0.57969
 N181 N -0.04794 0.31102 0.60011
 C182 C -0.05262 0.27375 0.62219
 N183 N -0.07227 0.18994 0.62300
 N184 N 0.80107 0.81752 0.26856
 C185 C 0.79160 0.77508 0.24744
 N186 N 0.74187 0.68979 0.24727
 N187 N 0.70250 0.64912 0.26749
 C188 C 0.71244 0.69216 0.28864
 N189 N 0.76261 0.77700 0.28869
 N190 N 0.29563 0.01451 -0.08282
 C191 C 0.21231 -0.03172 -0.08468
 N192 N 0.16980 -0.07866 -0.06516
 N193 N 0.20849 -0.07942 -0.04463
 C194 C 0.29158 -0.03335 -0.04268
 N195 N 0.33455 0.01338 -0.06224
 N196 N 0.06837 0.85255 0.60333
 C197 C 0.06270 0.81701 0.58115
 N198 N 0.04418 0.73355 0.58016
 N199 N 0.03097 0.68737 0.60047
 C200 C 0.03486 0.72248 0.62262
 N201 N 0.05467 0.80625 0.62363
 N202 N 0.22103 0.19222 0.26720
 C203 C 0.22756 0.23524 0.24609
 N204 N 0.27265 0.32128 0.24598
 N205 N 0.31018 0.36220 0.26627
 C206 C 0.30291 0.31854 0.28741
 N207 N 0.25763 0.23290 0.28738
 N208 N 0.70660 -0.03193 -0.08171
 C209 C 0.78854 0.02021 -0.08493
 N210 N 0.83049 0.07483 -0.06679
 N211 N 0.79297 0.07681 -0.04630
 C212 C 0.71147 0.02455 -0.04302
 N213 N 0.66874 -0.02949 -0.06121
 N214 N 0.15245 -0.11768 0.06678
 C215 C 0.19195 -0.08830 0.08828
 N216 N 0.27550 -0.05663 0.08893
 N217 N 0.31789 -0.05245 0.06882
 C218 C 0.27851 -0.07947 0.04717
 N219 N 0.19481 -0.11323 0.04667
 N220 N 0.69914 0.74985 0.41712
 C221 C 0.78195 0.77672 0.41952
 N222 N 0.82201 0.76069 0.40102
 N223 N 0.78235 0.72184 0.38095
 C224 C 0.70031 0.69614 0.37845
 N225 N 0.65900 0.70992 0.39703
 N226 N 0.04615 0.30964 0.75199
 C227 C 0.06444 0.24338 0.75099
 N228 N 0.06977 0.21304 0.72881
 N229 N 0.05593 0.24651 0.70851
 C230 C 0.03630 0.31183 0.70954
 N231 N 0.03279 0.34344 0.73169
 N232 N 0.73722 0.05866 0.08827
 C233 C 0.82070 0.09025 0.08725
 N234 N 0.85856 0.11752 0.06540
 N235 N 0.81468 0.11111 0.04534
 C236 C 0.73104 0.07743 0.04623
 N237 N 0.69332 0.05253 0.06821
 N238 N 0.30497 0.27573 0.41846
 C239 C 0.22096 0.23563 0.41872
 N240 N 0.17989 0.23548 0.39801
 N241 N 0.22054 0.27319 0.37785
 C242 C 0.30423 0.31319 0.37746
 N243 N 0.34589 0.31429 0.39823
 N244 N -0.08635 0.77532 0.72937
 C245 C -0.08006 0.74371 0.75149
 N246 N -0.06197 0.67724 0.75236
 N247 N -0.04965 0.64449 0.73197
 C248 C -0.05403 0.67742 0.70988
 N249 N -0.07354 0.74291 0.70899
   
