data_POSCAR
  _audit_creation_date              2014-09-24
  _audit_creation_method            'ToBaCCo'
  _symmetry_space_group_name_H-M    'P1'
  _symmetry_Int_Tables_number       1
  _symmetry_cell_setting            triclinic
  loop_
  _symmetry_equiv_pos_as_xyz
 x,y,z
_cell_length_a 52.1054
_cell_length_b 52.3073
_cell_length_c 52.5151
_cell_angle_alpha 90.392600
_cell_angle_beta 89.870800
_cell_angle_gamma 89.707700
loop_
  _atom_site_label
  _atom_site_type_symbol
  _atom_site_fract_x
  _atom_site_fract_y
  _atom_site_fract_z
N1 N 0.29692 0.24362 0.22488
 N2 N 0.28578 0.26411 0.21557
 C3 C 0.29844 0.27132 0.19445
 C4 C 0.31861 0.25442 0.19022
 C5 C 0.31700 0.23709 0.21000
 H6 H 0.29302 0.28734 0.18272
 H7 H 0.32940 0.22084 0.21333
 Cu8 Cu 0.25532 0.27870 0.23157
 Cu9 Cu 0.28415 0.22651 0.25520
 Cu10 Cu 0.23005 0.25271 0.28415
 N11 N 0.22506 0.29336 0.24789
 N12 N 0.21535 0.28311 0.26853
 C13 C 0.19427 0.29635 0.27558
 C14 C 0.19042 0.31601 0.25841
 C15 C 0.21044 0.31349 0.24110
 H16 H 0.18232 0.29156 0.29167
 H17 H 0.21399 0.32527 0.22468
 N18 N 0.24771 0.22199 0.29699
 N19 N 0.26829 0.21205 0.28599
 C20 C 0.27540 0.19094 0.29877
 C21 C 0.25846 0.18732 0.31878
 C22 C 0.24118 0.20744 0.31703
 H23 H 0.29137 0.17877 0.29350
 H24 H 0.22494 0.21116 0.32934
 H25 H 0.24625 0.23768 0.25131
 H26 H 0.26712 0.25839 0.27150
 N27 N 0.70599 -0.24456 0.22080
 N28 N 0.71930 -0.26282 0.20960
 C29 C 0.70714 -0.27014 0.18821
 C30 C 0.68490 -0.25558 0.18564
 C31 C 0.68491 -0.23956 0.20689
 H32 H 0.71426 -0.28483 0.17544
 H33 H 0.67091 -0.22506 0.21187
 Cu34 Cu 0.75174 -0.27492 0.22332
 Cu35 Cu 0.71753 -0.22800 0.25202
 Cu36 Cu 0.77139 -0.25367 0.28076
 N37 N 0.77951 -0.29147 0.24168
 N38 N 0.78705 -0.28322 0.26409
 C39 C 0.80688 -0.29766 0.27203
 C40 C 0.81226 -0.31608 0.25354
 C41 C 0.79428 -0.31148 0.23456
 H42 H 0.81680 -0.29452 0.28981
 H43 H 0.79210 -0.32164 0.21673
 N44 N 0.75284 -0.22373 0.29456
 N45 N 0.73228 -0.21396 0.28363
 C46 C 0.72458 -0.19321 0.29696
 C47 C 0.74113 -0.18963 0.31728
 C48 C 0.75879 -0.20943 0.31511
 H49 H 0.70855 -0.18117 0.29177
 H50 H 0.77499 -0.21301 0.32739
 H51 H 0.75635 -0.23607 0.24891
 H52 H 0.73591 -0.26072 0.26464
 N53 N 0.70440 0.24901 0.77509
 N54 N 0.71554 0.26926 0.78493
 C55 C 0.70282 0.27635 0.80621
 C56 C 0.68262 0.25963 0.80996
 C57 C 0.68427 0.24254 0.78974
 H58 H 0.70824 0.29216 0.81837
 H59 H 0.67190 0.22644 0.78597
 Cu60 Cu 0.74612 0.28371 0.76941
 Cu61 Cu 0.71729 0.23192 0.74457
 Cu62 Cu 0.77171 0.25732 0.71654
 N63 N 0.77669 0.29779 0.75349
 N64 N 0.78650 0.28741 0.73279
 C65 C 0.80771 0.30029 0.72609
 C66 C 0.81164 0.31994 0.74360
 C67 C 0.79138 0.31765 0.76070
 H68 H 0.81949 0.29532 0.70984
 H69 H 0.78767 0.32931 0.77737
 N70 N 0.75397 0.22695 0.70299
 N71 N 0.73323 0.21735 0.71364
 C72 C 0.72609 0.19639 0.70049
 C73 C 0.74316 0.19249 0.68058
 C74 C 0.76058 0.21230 0.68279
 H75 H 0.71000 0.18445 0.70547
 H76 H 0.77699 0.21572 0.67069
 H77 H 0.75518 0.24258 0.74908
 H78 H 0.73459 0.26365 0.72901
 N79 N 0.29368 -0.24347 0.77850
 N80 N 0.28044 -0.26132 0.78998
 C81 C 0.29292 -0.26849 0.81119
 C82 C 0.31523 -0.25428 0.81325
 C83 C 0.31502 -0.23860 0.79205
 H84 H 0.28594 -0.28262 0.82439
 H85 H 0.32920 -0.22453 0.78690
 Cu86 Cu 0.24760 -0.27295 0.77693
 Cu87 Cu 0.28167 -0.22721 0.74745
 Cu88 Cu 0.22723 -0.25262 0.71965
 N89 N 0.21964 -0.28964 0.75903
 N90 N 0.21180 -0.28174 0.73667
 C91 C 0.19187 -0.29614 0.72909
 C92 C 0.18675 -0.31417 0.74776
 C93 C 0.20501 -0.30937 0.76646
 H94 H 0.18171 -0.29327 0.71143
 H95 H 0.20744 -0.31918 0.78432
 N96 N 0.24562 -0.22309 0.70549
 N97 N 0.26640 -0.21344 0.71606
 C98 C 0.27394 -0.19299 0.70259
 C99 C 0.25708 -0.18948 0.68254
 C100 C 0.23938 -0.20900 0.68502
 H101 H 0.29011 -0.18110 0.70749
 H102 H 0.22296 -0.21255 0.67300
 H103 H 0.24285 -0.23458 0.75113
 H104 H 0.26292 -0.25988 0.73530
 N105 N 0.70147 -0.24663 0.77235
 N106 N 0.71078 -0.26880 0.77960
 C107 C 0.69823 -0.27642 0.80063
 C108 C 0.68000 -0.25803 0.80699
 C109 C 0.68267 -0.23940 0.78851
 H110 H 0.70248 -0.29385 0.81076
 H111 H 0.67185 -0.22181 0.78690
 Cu112 Cu 0.73878 -0.28540 0.76132
 Cu113 Cu 0.71478 -0.22857 0.74286
 Cu114 Cu 0.76979 -0.25357 0.71513
 N115 N 0.77212 -0.29661 0.74874
 N116 N 0.78410 -0.28417 0.73068
 C117 C 0.80672 -0.29574 0.72585
 C118 C 0.80925 -0.31670 0.74182
 C119 C 0.78671 -0.31653 0.75610
 H120 H 0.82030 -0.28907 0.71186
 H121 H 0.78126 -0.32966 0.77093
 N122 N 0.75229 -0.22278 0.70229
 N123 N 0.73130 -0.21326 0.71285
 C124 C 0.72427 -0.19206 0.70019
 C125 C 0.74171 -0.18793 0.68070
 C126 C 0.75919 -0.20787 0.68265
 H127 H 0.70793 -0.18023 0.70513
 H128 H 0.77577 -0.21129 0.67070
 H129 H 0.73143 -0.25916 0.72376
 H130 H 0.75140 -0.24276 0.74849
 N131 N 0.29622 0.24523 0.77554
 N132 N 0.28521 0.26579 0.78514
 C133 C 0.29805 0.27310 0.80616
 C134 C 0.31822 0.25618 0.81002
 C135 C 0.31641 0.23874 0.79012
 H136 H 0.29275 0.28919 0.81809
 H137 H 0.32873 0.22243 0.78651
 Cu138 Cu 0.25464 0.28039 0.76965
 Cu139 Cu 0.28310 0.22791 0.74532
 Cu140 Cu 0.22883 0.25401 0.71723
 N141 N 0.22437 0.29509 0.75366
 N142 N 0.21443 0.28469 0.73311
 C143 C 0.19347 0.29811 0.72627
 C144 C 0.18997 0.31805 0.74350
 C145 C 0.21004 0.31548 0.76061
 H146 H 0.18140 0.29332 0.71026
 H147 H 0.21386 0.32746 0.77699
 N148 N 0.24623 0.22306 0.70404
 N149 N 0.26692 0.21321 0.71468
 C150 C 0.27397 0.19206 0.70163
 C151 C 0.25688 0.18829 0.68180
 C152 C 0.23955 0.20838 0.68397
 H153 H 0.29006 0.17998 0.70655
 H154 H 0.22323 0.21203 0.67185
 H155 H 0.26605 0.25975 0.72945
 H156 H 0.24531 0.23923 0.74978
 N157 N 0.30112 -0.25366 0.22895
 N158 N 0.28865 -0.27222 0.21753
 C159 C 0.30010 -0.27756 0.19513
 C160 C 0.32102 -0.26151 0.19231
 C161 C 0.32105 -0.24662 0.21429
 H162 H 0.29347 -0.29192 0.18183
 H163 H 0.33449 -0.23177 0.21938
 Cu164 Cu 0.25896 -0.28809 0.23324
 Cu165 Cu 0.29029 -0.24028 0.26201
 Cu166 Cu 0.22588 -0.25129 0.27440
 N167 N 0.22629 -0.29904 0.24717
 N168 N 0.21337 -0.28454 0.26326
 C169 C 0.19109 -0.29600 0.26905
 C170 C 0.18993 -0.31907 0.25593
 C171 C 0.21269 -0.32030 0.24220
 H172 H 0.17665 -0.28780 0.28150
 H173 H 0.21887 -0.33538 0.22940
 N174 N 0.24580 -0.22430 0.29157
 N175 N 0.27051 -0.22076 0.28754
 C176 C 0.27870 -0.20149 0.30249
 C177 C 0.25812 -0.19239 0.31673
 C178 C 0.23758 -0.20741 0.30927
 H179 H 0.29811 -0.19429 0.30248
 H180 H 0.21811 -0.20639 0.31636
 H181 H 0.26191 -0.26608 0.27440
 H182 H 0.25466 -0.24385 0.24769
 N183 N 0.70314 0.24600 0.22417
 N184 N 0.71419 0.26641 0.21481
 C185 C 0.70145 0.27375 0.19379
 C186 C 0.68131 0.25700 0.18969
 C187 C 0.68303 0.23963 0.20944
 H188 H 0.70678 0.28975 0.18205
 H189 H 0.67068 0.22348 0.21287
 Cu190 Cu 0.74463 0.28082 0.23060
 Cu191 Cu 0.71600 0.22881 0.25440
 Cu192 Cu 0.76990 0.25474 0.28320
 N193 N 0.77477 0.29532 0.24687
 N194 N 0.78446 0.28508 0.26752
 C195 C 0.80545 0.29824 0.27451
 C196 C 0.80924 0.31783 0.25727
 C197 C 0.78931 0.31535 0.24000
 H198 H 0.81738 0.29345 0.29060
 H199 H 0.78575 0.32711 0.22354
 N200 N 0.75238 0.22410 0.29610
 N201 N 0.73189 0.21425 0.28513
 C202 C 0.72483 0.19321 0.29795
 C203 C 0.74169 0.18953 0.31796
 C204 C 0.75889 0.20955 0.31616
 H205 H 0.70891 0.18113 0.29273
 H206 H 0.77505 0.21321 0.32848
 H207 H 0.73283 0.26065 0.27061
 H208 H 0.75387 0.23979 0.25042
 C209 C 0.25669 -0.02561 0.44535
 C210 C 0.25650 -0.00242 0.43232
 C211 C 0.25618 0.02089 0.44545
 C212 C 0.25599 0.02127 0.47236
 C213 C 0.25617 -0.00216 0.48581
 C214 C 0.25654 -0.02573 0.47226
 C215 C 0.25676 -0.04873 0.48598
 C216 C 0.25659 -0.04859 0.51250
 C217 C 0.25619 -0.02546 0.52631
 C218 C 0.25600 -0.00202 0.51285
 C219 C 0.25565 0.04441 0.48615
 C220 C 0.25548 0.04454 0.51267
 C221 C 0.25565 0.02155 0.52639
 C222 C 0.25551 0.02144 0.55330
 C223 C 0.25566 -0.00174 0.56633
 C224 C 0.25599 -0.02507 0.55322
 H225 H 0.25707 -0.06706 0.47628
 H226 H 0.25677 -0.06683 0.52213
 H227 H 0.25550 0.06265 0.47653
 H228 H 0.25521 0.06288 0.52236
 H229 H 0.25663 -0.00251 0.41165
 H230 H 0.25556 -0.00163 0.58700
 C231 C 0.74382 0.02371 0.44552
 C232 C 0.74341 0.00034 0.43251
 C233 C 0.74334 -0.02278 0.44565
 C234 C 0.74372 -0.02278 0.47256
 C235 C 0.74414 0.00084 0.48599
 C236 C 0.74418 0.02421 0.47242
 C237 C 0.74455 0.04741 0.48611
 C238 C 0.74486 0.04766 0.51263
 C239 C 0.74483 0.02473 0.52645
 C240 C 0.74448 0.00110 0.51302
 C241 C 0.74367 -0.04571 0.48638
 C242 C 0.74402 -0.04546 0.51290
 C243 C 0.74442 -0.02227 0.52659
 C244 C 0.74472 -0.02175 0.55350
 C245 C 0.74506 0.00162 0.56650
 C246 C 0.74510 0.02474 0.55336
 H247 H 0.74459 0.06560 0.47641
 H248 H 0.74512 0.06604 0.52223
 H249 H 0.74336 -0.06409 0.47678
 H250 H 0.74395 -0.06365 0.52261
 H251 H 0.74311 0.00015 0.41184
 H252 H 0.74522 0.00183 0.58718
 C253 C 0.44568 0.25380 0.02280
 C254 C 0.43255 0.25381 -0.00035
 C255 C 0.44577 0.25419 -0.02350
 C256 C 0.47289 0.25451 -0.02375
 C257 C 0.48644 0.25451 -0.00035
 C258 C 0.47279 0.25417 0.02305
 C259 C 0.48660 0.25424 0.04603
 C260 C 0.51332 0.25464 0.04604
 C261 C 0.52723 0.25497 0.02306
 C262 C 0.51369 0.25490 -0.00034
 C263 C 0.48681 0.25486 -0.04672
 C264 C 0.51354 0.25524 -0.04672
 C265 C 0.52734 0.25528 -0.02374
 C266 C 0.55446 0.25570 -0.02347
 C267 C 0.56758 0.25575 -0.00031
 C268 C 0.55434 0.25541 0.02283
 H269 H 0.47684 0.25401 0.06425
 H270 H 0.52299 0.25468 0.06426
 H271 H 0.47712 0.25484 -0.06494
 H272 H 0.52331 0.25551 -0.06493
 H273 H 0.41172 0.25359 -0.00034
 H274 H 0.58841 0.25610 -0.00030
 C275 C 0.44593 0.74505 -0.02255
 C276 C 0.43303 0.74520 0.00080
 C277 C 0.44649 0.74505 0.02378
 C278 C 0.47361 0.74479 0.02364
 C279 C 0.48694 0.74463 0.00004
 C280 C 0.47306 0.74476 -0.02317
 C281 C 0.48666 0.74454 -0.04634
 C282 C 0.51339 0.74421 -0.04671
 C283 C 0.52753 0.74408 -0.02393
 C284 C 0.51419 0.74430 -0.00033
 C285 C 0.48775 0.74464 0.04642
 C286 C 0.51448 0.74434 0.04605
 C287 C 0.52807 0.74416 0.02288
 C288 C 0.55519 0.74382 0.02227
 C289 C 0.56810 0.74361 -0.00107
 C290 C 0.55466 0.74373 -0.02405
 H291 H 0.47671 0.74462 -0.06442
 H292 H 0.52291 0.74405 -0.06506
 H293 H 0.47824 0.74476 0.06477
 H294 H 0.52442 0.74424 0.06413
 H295 H 0.41220 0.74535 0.00110
 H296 H 0.58893 0.74334 -0.00135
 C297 C -0.02346 0.55330 0.25184
 C298 C -0.00011 0.56628 0.25198
 C299 C 0.02322 0.55302 0.25235
 C300 C 0.02344 0.52601 0.25256
 C301 C -0.00016 0.51260 0.25239
 C302 C -0.02374 0.52629 0.25202
 C303 C -0.04690 0.51262 0.25190
 C304 C -0.04693 0.48599 0.25217
 C305 C -0.02379 0.47205 0.25257
 C306 C -0.00019 0.48546 0.25267
 C307 C 0.04658 0.51207 0.25299
 C308 C 0.04655 0.48544 0.25327
 C309 C 0.02338 0.47177 0.25312
 C310 C 0.02310 0.44476 0.25347
 C311 C -0.00024 0.43178 0.25336
 C312 C -0.02357 0.44504 0.25293
 H313 H -0.06525 0.52241 0.25161
 H314 H -0.06530 0.47641 0.25208
 H315 H 0.06495 0.52164 0.25314
 H316 H 0.06490 0.47565 0.25362
 H317 H -0.00009 0.58704 0.25189
 H318 H -0.00027 0.41103 0.25368
 C319 C -0.02371 0.55623 0.75161
 C320 C -0.00042 0.56933 0.75194
 C321 C 0.02298 0.55620 0.75205
 C322 C 0.02335 0.52918 0.75188
 C323 C -0.00018 0.51564 0.75155
 C324 C -0.02384 0.52921 0.75144
 C325 C -0.04693 0.51541 0.75106
 C326 C -0.04680 0.48877 0.75075
 C327 C -0.02358 0.47495 0.75075
 C328 C -0.00005 0.48849 0.75118
 C329 C 0.04657 0.51535 0.75194
 C330 C 0.04669 0.48872 0.75153
 C331 C 0.02360 0.47492 0.75108
 C332 C 0.02348 0.44791 0.75046
 C333 C 0.00021 0.43480 0.75011
 C334 C -0.02320 0.44793 0.75025
 H335 H -0.06533 0.52511 0.75097
 H336 H -0.06511 0.47909 0.75045
 H337 H 0.06488 0.52503 0.75226
 H338 H 0.06510 0.47901 0.75154
 H339 H -0.00051 0.59009 0.75194
 H340 H 0.00031 0.41405 0.74958
 C341 C 0.35608 0.27552 0.13203
 C342 C 0.37145 0.25404 0.12717
 C343 C 0.36993 0.23281 0.14316
 C344 C 0.35294 0.23299 0.16382
 C345 C 0.33718 0.25442 0.16874
 C346 C 0.33909 0.27575 0.15265
 C347 C 0.38829 0.25362 0.10543
 C348 C 0.40201 0.25346 0.08693
 C349 C 0.41764 0.25345 0.06495
 C350 C 0.43061 0.25356 0.04593
 H351 H 0.35713 0.29206 0.11977
 H352 H 0.38169 0.21603 0.13952
 H353 H 0.35195 0.21616 0.17563
 H354 H 0.32751 0.29268 0.15591
 C355 C 0.65250 0.72621 0.12479
 C356 C 0.63152 0.74295 0.12485
 C357 C 0.62792 0.75986 0.14528
 C358 C 0.64535 0.76021 0.16550
 C359 C 0.66685 0.74364 0.16561
 C360 C 0.66998 0.72648 0.14494
 C361 C 0.61410 0.74314 0.10361
 C362 C 0.59993 0.74331 0.08550
 C363 C 0.58383 0.74349 0.06392
 C364 C 0.57053 0.74365 0.04517
 H365 H 0.65549 0.71304 0.10903
 H366 H 0.61172 0.77293 0.14551
 H367 H 0.64186 0.77369 0.18081
 H368 H 0.68597 0.71328 0.14395
 C369 C 0.64523 0.27983 -0.13101
 C370 C 0.62949 0.25861 -0.12722
 C371 C 0.63077 0.23789 -0.14415
 C372 C 0.64786 0.23829 -0.16470
 C373 C 0.66399 0.25945 -0.16859
 C374 C 0.66234 0.28028 -0.15153
 C375 C 0.61247 0.25789 -0.10562
 C376 C 0.59855 0.25731 -0.08727
 C377 C 0.58270 0.25669 -0.06548
 C378 C 0.56958 0.25621 -0.04656
 H379 H 0.64438 0.29598 -0.11800
 H380 H 0.61873 0.22132 -0.14134
 H381 H 0.64862 0.22183 -0.17725
 H382 H 0.67421 0.29699 -0.15396
 C383 C 0.37058 0.76406 -0.14338
 C384 C 0.36968 0.74462 -0.12524
 C385 C 0.35139 0.72526 -0.12749
 C386 C 0.33389 0.72544 -0.14763
 C387 C 0.33440 0.74506 -0.16586
 C388 C 0.35310 0.76428 -0.16357
 C389 C 0.38704 0.74482 -0.10395
 C390 C 0.40119 0.74495 -0.08581
 C391 C 0.41728 0.74504 -0.06421
 C392 C 0.43058 0.74507 -0.04546
 H393 H 0.38461 0.77919 -0.14179
 H394 H 0.35051 0.71011 -0.11356
 H395 H 0.32001 0.71019 -0.14882
 H396 H 0.35406 0.77977 -0.17707
 C397 C 0.14432 0.36772 0.23616
 C398 C 0.12756 0.36963 0.25694
 C399 C 0.13158 0.35439 0.27835
 C400 C 0.15215 0.33715 0.27895
 C401 C 0.16901 0.33486 0.25807
 C402 C 0.16492 0.35049 0.23670
 C403 C 0.10586 0.38671 0.25607
 C404 C 0.08739 0.40065 0.25539
 C405 C 0.06543 0.41651 0.25466
 C406 C 0.04637 0.42963 0.25409
 H407 H 0.14133 0.37937 0.21944
 H408 H 0.11871 0.35571 0.29455
 H409 H 0.15472 0.32568 0.29581
 H410 H 0.17732 0.34923 0.22020
 C411 C 0.14366 0.63335 0.76959
 C412 C 0.12644 0.63177 0.74929
 C413 C 0.12954 0.64768 0.72825
 C414 C 0.14959 0.66531 0.72757
 C415 C 0.16698 0.66745 0.74805
 C416 C 0.16377 0.65095 0.76901
 C417 C 0.10512 0.61439 0.75027
 C418 C 0.08691 0.60028 0.75095
 C419 C 0.06516 0.58433 0.75156
 C420 C 0.04620 0.57122 0.75189
 H421 H 0.14142 0.62113 0.78601
 H422 H 0.11628 0.64663 0.71241
 H423 H 0.15110 0.67729 0.71096
 H424 H 0.17650 0.65160 0.78521
 C425 C -0.13089 0.64554 0.27418
 C426 C -0.12734 0.62934 0.25320
 C427 C -0.14416 0.63077 0.23256
 C428 C -0.16431 0.64854 0.23275
 C429 C -0.16795 0.66535 0.25364
 C430 C -0.15098 0.66335 0.27447
 C431 C -0.10593 0.61185 0.25258
 C432 C -0.08763 0.59767 0.25220
 C433 C -0.06577 0.58164 0.25191
 C434 C -0.04673 0.56845 0.25180
 H435 H -0.11795 0.64460 0.29028
 H436 H -0.14155 0.61832 0.21618
 H437 H -0.17670 0.64909 0.21630
 H438 H -0.15285 0.67555 0.29106
 C439 C -0.14590 0.37350 0.76459
 C440 C -0.12679 0.37258 0.74589
 C441 C -0.12825 0.35448 0.72626
 C442 C -0.14863 0.33724 0.72536
 C443 C -0.16803 0.33771 0.74420
 C444 C -0.16635 0.35630 0.76378
 C445 C -0.10535 0.38979 0.74707
 C446 C -0.08709 0.40384 0.74797
 C447 C -0.06534 0.41977 0.74890
 C448 C -0.04639 0.43289 0.74958
 H449 H -0.14493 0.38743 0.77991
 H450 H -0.11352 0.35358 0.71168
 H451 H -0.14887 0.32356 0.70986
 H452 H -0.18061 0.35764 0.77870
 C453 C 0.23636 0.14114 0.36977
 C454 C 0.25757 0.12476 0.37150
 C455 C 0.27922 0.12906 0.35637
 C456 C 0.27962 0.14952 0.33940
 C457 C 0.25830 0.16602 0.33731
 C458 C 0.23670 0.16165 0.35283
 C459 C 0.25697 0.10318 0.38833
 C460 C 0.25659 0.08481 0.40205
 C461 C 0.25631 0.06297 0.41765
 C462 C 0.25619 0.04401 0.43055
 H463 H 0.21945 0.13794 0.38134
 H464 H 0.29576 0.11648 0.35756
 H465 H 0.29667 0.15235 0.32802
 H466 H 0.21987 0.17376 0.35167
 C467 C 0.76547 0.14558 0.62950
 C468 C 0.74408 0.12966 0.62731
 C469 C 0.72224 0.13457 0.64211
 C470 C 0.72183 0.15515 0.65921
 C471 C 0.74333 0.17114 0.66180
 C472 C 0.76511 0.16620 0.64659
 C473 C 0.74470 0.10788 0.61043
 C474 C 0.74503 0.08932 0.59670
 C475 C 0.74522 0.06725 0.58111
 C476 C 0.74523 0.04809 0.56823
 H477 H 0.78253 0.14189 0.61819
 H478 H 0.70556 0.12238 0.64056
 H479 H 0.70463 0.15845 0.67034
 H480 H 0.78208 0.17793 0.64813
 C481 C 0.23573 -0.14408 0.63041
 C482 C 0.25711 -0.12817 0.62831
 C483 C 0.27865 -0.13257 0.64354
 C484 C 0.27876 -0.15266 0.66096
 C485 C 0.25726 -0.16865 0.66345
 C486 C 0.23578 -0.16420 0.64782
 C487 C 0.25675 -0.10687 0.61109
 C488 C 0.25651 -0.08871 0.59708
 C489 C 0.25630 -0.06704 0.58121
 C490 C 0.25615 -0.04817 0.56816
 H491 H 0.21889 -0.14077 0.61879
 H492 H 0.29532 -0.12036 0.64208
 H493 H 0.29572 -0.15556 0.67242
 H494 H 0.21881 -0.17592 0.64925
 C495 C 0.76201 -0.14377 0.36960
 C496 C 0.74084 -0.12729 0.37117
 C497 C 0.71953 -0.13149 0.35557
 C498 C 0.71947 -0.15193 0.33827
 C499 C 0.74080 -0.16847 0.33629
 C500 C 0.76201 -0.16423 0.35233
 C501 C 0.74128 -0.10562 0.38819
 C502 C 0.74172 -0.08717 0.40206
 C503 C 0.74228 -0.06520 0.41778
 C504 C 0.74277 -0.04611 0.43075
 H505 H 0.77866 -0.14064 0.38153
 H506 H 0.70303 -0.11884 0.35662
 H507 H 0.70271 -0.15465 0.32649
 H508 H 0.77884 -0.17637 0.35131
 C509 C 0.64225 0.72015 -0.13517
 C510 C 0.62841 0.74230 -0.12887
 C511 C 0.63123 0.76427 -0.14361
 C512 C 0.64788 0.76416 -0.16453
 C513 C 0.66202 0.74202 -0.17100
 C514 C 0.65892 0.71998 -0.15607
 C515 C 0.61171 0.74260 -0.10698
 C516 C 0.59801 0.74288 -0.08844
 C517 C 0.58239 0.74319 -0.06644
 C518 C 0.56949 0.74345 -0.04736
 H519 H 0.64022 0.70302 -0.12387
 H520 H 0.62069 0.78157 -0.13884
 H521 H 0.64982 0.78155 -0.17536
 H522 H 0.66927 0.70253 -0.16049
 C523 C 0.35596 0.27731 -0.13183
 C524 C 0.37139 0.25584 -0.12744
 C525 C 0.36984 0.23465 -0.14374
 C526 C 0.35277 0.23482 -0.16425
 C527 C 0.33693 0.25622 -0.16870
 C528 C 0.33887 0.27753 -0.15230
 C529 C 0.38829 0.25536 -0.10581
 C530 C 0.40208 0.25501 -0.08742
 C531 C 0.41777 0.25465 -0.06556
 C532 C 0.43077 0.25441 -0.04661
 H533 H 0.35701 0.29383 -0.11932
 H534 H 0.38165 0.21789 -0.14045
 H535 H 0.35177 0.21801 -0.17629
 H536 H 0.32725 0.29444 -0.15520
 C537 C 0.37323 0.76115 0.14723
 C538 C 0.37296 0.74189 0.12861
 C539 C 0.35595 0.72145 0.13093
 C540 C 0.33917 0.72028 0.15167
 C541 C 0.33914 0.73959 0.17048
 C542 C 0.35647 0.76002 0.16804
 C543 C 0.38975 0.74319 0.10685
 C544 C 0.40341 0.74398 0.08832
 C545 C 0.41890 0.74459 0.06625
 C546 C 0.43171 0.74490 0.04711
 H547 H 0.38628 0.77712 0.14559
 H548 H 0.35558 0.70642 0.11663
 H549 H 0.32634 0.70415 0.15293
 H550 H 0.35693 0.77532 0.18198
 C551 C 0.64379 0.27826 0.13160
 C552 C 0.62828 0.25698 0.12705
 C553 C 0.62968 0.23590 0.14323
 C554 C 0.64671 0.23598 0.16377
 C555 C 0.66264 0.25717 0.16837
 C556 C 0.66083 0.27839 0.15211
 C557 C 0.61148 0.25656 0.10535
 C558 C 0.59779 0.25623 0.08689
 C559 C 0.58222 0.25588 0.06496
 C560 C 0.56931 0.25563 0.04595
 H561 H 0.64285 0.29470 0.11919
 H562 H 0.61780 0.21929 0.13982
 H563 H 0.64761 0.21924 0.17571
 H564 H 0.67253 0.29515 0.15513
 C565 C -0.12746 0.65173 0.72911
 C566 C -0.12797 0.63166 0.74651
 C567 C -0.14932 0.62860 0.76234
 C568 C -0.17010 0.64557 0.76080
 C569 C -0.16989 0.66600 0.74335
 C570 C -0.14816 0.66873 0.72749
 C571 C -0.10640 0.61442 0.74818
 C572 C -0.08803 0.60037 0.74931
 C573 C -0.06612 0.58443 0.75036
 C574 C -0.04705 0.57129 0.75103
 H575 H -0.11099 0.65430 0.71677
 H576 H -0.14991 0.61312 0.77593
 H577 H -0.18619 0.64249 0.77342
 H578 H -0.14683 0.68395 0.71376
 C579 C -0.14456 0.36888 0.23461
 C580 C -0.12809 0.37101 0.25549
 C581 C -0.13235 0.35616 0.27712
 C582 C -0.15287 0.33907 0.27782
 C583 C -0.16944 0.33655 0.25682
 C584 C -0.16511 0.35181 0.23525
 C585 C -0.10641 0.38790 0.25457
 C586 C -0.08794 0.40166 0.25395
 C587 C -0.06596 0.41728 0.25342
 C588 C -0.04687 0.43018 0.25312
 H589 H -0.14138 0.38023 0.21772
 H590 H -0.11970 0.35765 0.29341
 H591 H -0.15565 0.32789 0.29484
 H592 H -0.17728 0.35035 0.21866
 C593 C 0.14451 0.37040 0.76647
 C594 C 0.12780 0.37250 0.74577
 C595 C 0.13170 0.35722 0.72413
 C596 C 0.15206 0.33972 0.72326
 C597 C 0.16883 0.33721 0.74408
 C598 C 0.16490 0.35293 0.76565
 C599 C 0.10622 0.38976 0.74699
 C600 C 0.08783 0.40381 0.74797
 C601 C 0.06591 0.41975 0.74902
 C602 C 0.04683 0.43287 0.74978
 H603 H 0.14162 0.38208 0.78336
 H604 H 0.11887 0.35869 0.70798
 H605 H 0.15455 0.32819 0.70625
 H606 H 0.17723 0.35152 0.78211
 C607 C 0.12849 0.64668 0.27383
 C608 C 0.12743 0.62753 0.25516
 C609 C 0.14701 0.62550 0.23698
 C610 C 0.16749 0.64268 0.23734
 C611 C 0.16861 0.66221 0.25589
 C612 C 0.14891 0.66390 0.27423
 C613 C 0.10588 0.61044 0.25435
 C614 C 0.08750 0.59656 0.25375
 C615 C 0.06558 0.58084 0.25316
 C616 C 0.04651 0.56790 0.25274
 H617 H 0.11343 0.64842 0.28801
 H618 H 0.14633 0.61078 0.22237
 H619 H 0.18215 0.64084 0.22283
 H620 H 0.14920 0.67845 0.28895
 C621 C 0.76425 -0.14133 0.63026
 C622 C 0.74290 -0.12517 0.62816
 C623 C 0.72106 -0.12968 0.64297
 C624 C 0.72059 -0.15017 0.65991
 C625 C 0.74201 -0.16648 0.66231
 C626 C 0.76383 -0.16186 0.64717
 C627 C 0.74353 -0.10365 0.61124
 C628 C 0.74395 -0.08537 0.59739
 C629 C 0.74431 -0.06366 0.58160
 C630 C 0.74454 -0.04479 0.56854
 H631 H 0.78131 -0.13795 0.61895
 H632 H 0.70442 -0.11727 0.64151
 H633 H 0.70338 -0.15318 0.67101
 H634 H 0.78076 -0.17380 0.64857
 C635 C 0.28103 -0.14015 0.36171
 C636 C 0.25775 -0.12966 0.37015
 C637 C 0.23459 -0.13983 0.36140
 C638 C 0.23468 -0.16034 0.34418
 C639 C 0.25799 -0.17095 0.33541
 C640 C 0.28118 -0.16064 0.34447
 C641 C 0.25762 -0.10805 0.38727
 C642 C 0.25746 -0.08969 0.40127
 C643 C 0.25724 -0.06785 0.41719
 C644 C 0.25700 -0.04885 0.43031
 H645 H 0.29908 -0.13240 0.36834
 H646 H 0.21645 -0.13177 0.36771
 H647 H 0.21646 -0.16755 0.33752
 H648 H 0.29948 -0.16839 0.33836
 C649 C 0.76363 0.14335 0.36912
 C650 C 0.74238 0.12723 0.37101
 C651 C 0.72077 0.13171 0.35591
 C652 C 0.72044 0.15208 0.33884
 C653 C 0.74179 0.16831 0.33659
 C654 C 0.76335 0.16377 0.35207
 C655 C 0.74292 0.10573 0.38795
 C656 C 0.74327 0.08743 0.40178
 C657 C 0.74357 0.06566 0.41750
 C658 C 0.74373 0.04677 0.43051
 H659 H 0.78052 0.14000 0.38066
 H660 H 0.70420 0.11934 0.35722
 H661 H 0.70341 0.15506 0.32748
 H662 H 0.78021 0.17566 0.35079
 C663 C 0.23485 0.14199 0.63032
 C664 C 0.25618 0.12577 0.62813
 C665 C 0.27787 0.13021 0.64314
 C666 C 0.27818 0.15065 0.66042
 C667 C 0.25676 0.16698 0.66297
 C668 C 0.23512 0.16247 0.64758
 C669 C 0.25567 0.10416 0.61102
 C670 C 0.25542 0.08574 0.59710
 C671 C 0.25530 0.06379 0.58132
 C672 C 0.25534 0.04472 0.56829
 H673 H 0.21791 0.13867 0.61886
 H674 H 0.29450 0.11777 0.64160
 H675 H 0.29527 0.15359 0.67169
 H676 H 0.21820 0.17445 0.64909
   
