data_POSCAR
  _audit_creation_date              2014-09-24
  _audit_creation_method            'ToBaCCo'
  _symmetry_space_group_name_H-M    'P1'
  _symmetry_Int_Tables_number       1
  _symmetry_cell_setting            triclinic
  loop_
  _symmetry_equiv_pos_as_xyz
 x,y,z
_cell_length_a 36.3217
_cell_length_b 34.4972
_cell_length_c 37.3392
_cell_angle_alpha 89.147600
_cell_angle_beta 99.606000
_cell_angle_gamma 80.072300
loop_
  _atom_site_label
  _atom_site_type_symbol
  _atom_site_fract_x
  _atom_site_fract_y
  _atom_site_fract_z
N1 N 0.36381 0.22007 0.20083
 N2 N 0.34212 0.24409 0.17511
 C3 C 0.36376 0.25518 0.15216
 C4 C 0.40098 0.23725 0.16451
 C5 C 0.39994 0.21532 0.19544
 H6 H 0.35305 0.27405 0.12795
 H7 H 0.42353 0.19625 0.21209
 Cu8 Cu 0.28723 0.25681 0.17278
 Cu9 Cu 0.34240 0.19409 0.23674
 Cu10 Cu 0.25799 0.23698 0.25426
 N11 N 0.23727 0.28015 0.18419
 N12 N 0.22683 0.27378 0.21567
 C13 C 0.19260 0.29595 0.21614
 C14 C 0.18099 0.31726 0.18340
 C15 C 0.20991 0.30652 0.16373
 H16 H 0.17748 0.29695 0.23881
 H17 H 0.21166 0.31820 0.13715
 N18 N 0.28652 0.18937 0.28113
 N19 N 0.31997 0.17282 0.27454
 C20 C 0.33366 0.14129 0.29747
 C21 C 0.30734 0.13789 0.31955
 C22 C 0.27773 0.16890 0.30854
 H23 H 0.36057 0.12205 0.29782
 H24 H 0.25182 0.17606 0.31961
 H25 H 0.27591 0.21477 0.20883
 H26 H 0.29837 0.25660 0.22750
 N27 N 0.66794 -0.24125 0.22798
 N28 N 0.69185 -0.27107 0.21894
 C29 C 0.67993 -0.27997 0.18454
 C30 C 0.64633 -0.25472 0.17131
 C31 C 0.63934 -0.23057 0.19970
 H32 H 0.69458 -0.30338 0.17047
 H33 H 0.61568 -0.20676 0.19969
 Cu34 Cu 0.73614 -0.29629 0.25279
 Cu35 Cu 0.67696 -0.21897 0.27582
 Cu36 Cu 0.76999 -0.24445 0.32187
 N37 N 0.78786 -0.31045 0.27802
 N38 N 0.80159 -0.28925 0.30424
 C39 C 0.83877 -0.30362 0.31505
 C40 C 0.84872 -0.33551 0.29435
 C41 C 0.81563 -0.33913 0.27124
 H42 H 0.85718 -0.29144 0.33602
 H43 H 0.81224 -0.36005 0.25019
 N44 N 0.73314 -0.20056 0.33554
 N45 N 0.69770 -0.19122 0.31841
 C46 C 0.67991 -0.16016 0.33414
 C47 C 0.70538 -0.14964 0.36254
 C48 C 0.73876 -0.17583 0.36268
 H49 H 0.65074 -0.14601 0.32534
 H50 H 0.76521 -0.17665 0.38114
 H51 H 0.73330 -0.22948 0.27283
 H52 H 0.71861 -0.26170 0.30628
 N53 N 0.71769 0.22732 0.80876
 N54 N 0.73044 0.25080 0.83342
 C55 C 0.70470 0.26024 0.85545
 C56 C 0.67429 0.24164 0.84377
 C57 C 0.68348 0.22105 0.81415
 H58 H 0.70798 0.27892 0.87835
 H59 H 0.66685 0.20231 0.79807
 Cu60 Cu 0.77951 0.26656 0.83462
 Cu61 Cu 0.74703 0.20475 0.77276
 Cu62 Cu 0.82734 0.24282 0.76556
 N63 N 0.81987 0.29361 0.82508
 N64 N 0.83733 0.28534 0.79726
 C65 C 0.86169 0.31030 0.79548
 C66 C 0.85962 0.33534 0.82394
 C67 C 0.83295 0.32379 0.84235
 H68 H 0.87942 0.31032 0.77491
 H69 H 0.82272 0.33719 0.86565
 N70 N 0.81205 0.19958 0.73617
 N71 N 0.78082 0.18567 0.73834
 C72 C 0.77756 0.15701 0.71455
 C73 C 0.80836 0.15257 0.69684
 C74 C 0.82972 0.17991 0.71117
 H75 H 0.75472 0.14029 0.71060
 H76 H 0.85593 0.18533 0.70366
 H77 H 0.80061 0.21166 0.79835
 H78 H 0.77065 0.25495 0.77021
 N79 N 0.25273 -0.23538 0.77376
 N80 N 0.24172 -0.26700 0.78577
 C81 C 0.25993 -0.27664 0.81993
 C82 C 0.28376 -0.25014 0.82995
 C83 C 0.27869 -0.22437 0.80007
 H84 H 0.25601 -0.30115 0.83640
 H85 H 0.29240 -0.19919 0.79795
 Cu86 Cu 0.20391 -0.29399 0.75720
 Cu87 Cu 0.23122 -0.20981 0.72513
 Cu88 Cu 0.16815 -0.25577 0.67372
 N89 N 0.15916 -0.30941 0.72880
 N90 N 0.14528 -0.29465 0.69571
 C91 C 0.11529 -0.31114 0.68199
 C92 C 0.11016 -0.33780 0.70796
 C93 C 0.13851 -0.33596 0.73739
 H94 H 0.09858 -0.30417 0.65515
 H95 H 0.14396 -0.35279 0.76297
 N96 N 0.18027 -0.20700 0.65704
 N97 N 0.20602 -0.18967 0.67628
 C98 C 0.20942 -0.15721 0.65738
 C99 C 0.18389 -0.15399 0.62504
 C100 C 0.16586 -0.18594 0.62579
 H101 H 0.22848 -0.13716 0.66666
 H102 H 0.14424 -0.19364 0.60488
 H103 H 0.18731 -0.23711 0.73553
 H104 H 0.22747 -0.26745 0.71798
 N105 N 0.65213 -0.19591 0.82296
 N106 N 0.67564 -0.22500 0.84214
 C107 C 0.65698 -0.24279 0.86378
 C108 C 0.61989 -0.22340 0.85856
 C109 C 0.61763 -0.19345 0.83269
 H110 H 0.66954 -0.26792 0.88212
 H111 H 0.59261 -0.17258 0.82086
 Cu112 Cu 0.72869 -0.23716 0.83787
 Cu113 Cu 0.66902 -0.16625 0.78541
 Cu114 Cu 0.74755 -0.22008 0.75524
 N115 N 0.77616 -0.26108 0.82428
 N116 N 0.78296 -0.25613 0.79119
 C117 C 0.81509 -0.28076 0.78749
 C118 C 0.82901 -0.30205 0.82020
 C119 C 0.80377 -0.28840 0.84301
 H120 H 0.82663 -0.28389 0.76258
 H121 H 0.80382 -0.29945 0.87027
 N122 N 0.71486 -0.17358 0.72795
 N123 N 0.68520 -0.15302 0.73943
 C124 C 0.66995 -0.12243 0.71565
 C125 C 0.69132 -0.12360 0.68816
 C126 C 0.71954 -0.15632 0.69683
 H127 H 0.64575 -0.10038 0.71867
 H128 H 0.74232 -0.16627 0.68202
 H129 H 0.69739 -0.21917 0.77566
 H130 H 0.72868 -0.18394 0.79403
 N131 N 0.32659 0.22522 0.78163
 N132 N 0.30809 0.25833 0.79164
 C133 C 0.32479 0.26595 0.82524
 C134 C 0.35460 0.23527 0.83694
 C135 C 0.35485 0.21000 0.80868
 H136 H 0.31528 0.29117 0.84035
 H137 H 0.37459 0.18290 0.80758
 Cu138 Cu 0.26243 0.28659 0.76039
 Cu139 Cu 0.31397 0.20596 0.73348
 Cu140 Cu 0.22223 0.22624 0.69672
 N141 N 0.20893 0.29836 0.73604
 N142 N 0.19338 0.27460 0.71307
 C143 C 0.15606 0.28894 0.70358
 C144 C 0.14773 0.32326 0.72147
 C145 C 0.18188 0.32850 0.74173
 H146 H 0.13631 0.27515 0.68535
 H147 H 0.18643 0.35162 0.76033
 N148 N 0.25842 0.18900 0.67536
 N149 N 0.29457 0.18126 0.68989
 C150 C 0.31281 0.15351 0.67107
 C151 C 0.28666 0.14314 0.64326
 C152 C 0.25234 0.16621 0.64673
 H153 H 0.34268 0.14112 0.67772
 H154 H 0.22495 0.16592 0.63019
 H155 H 0.26243 0.26043 0.70961
 H156 H 0.25215 0.23223 0.74861
 N157 N 0.26087 -0.21205 0.16876
 N158 N 0.24688 -0.23813 0.14773
 C159 C 0.27208 -0.25312 0.12680
 C160 C 0.30325 -0.23497 0.13453
 C161 C 0.29528 -0.20880 0.16111
 H162 H 0.26826 -0.27601 0.10775
 H163 H 0.31389 -0.19043 0.17507
 Cu164 Cu 0.19808 -0.25205 0.15048
 Cu165 Cu 0.23485 -0.18823 0.20710
 Cu166 Cu 0.15048 -0.21950 0.21609
 N167 N 0.15898 -0.27843 0.16351
 N168 N 0.14127 -0.26659 0.19040
 C169 C 0.11699 -0.29098 0.19492
 C170 C 0.11965 -0.31938 0.16925
 C171 C 0.14647 -0.31050 0.14973
 H172 H 0.09880 -0.28821 0.21526
 H173 H 0.15686 -0.32673 0.12781
 N174 N 0.17137 -0.17978 0.24668
 N175 N 0.20365 -0.16818 0.24390
 C176 C 0.21064 -0.14230 0.26983
 C177 C 0.18125 -0.13741 0.28954
 C178 C 0.15692 -0.16152 0.27412
 H179 H 0.23534 -0.12828 0.27429
 H180 H 0.13105 -0.16622 0.28286
 H181 H 0.20716 -0.23489 0.21370
 H182 H 0.18082 -0.19229 0.18330
 N183 N 0.76396 0.20352 0.21879
 N184 N 0.77187 0.23616 0.20538
 C185 C 0.74905 0.24603 0.17296
 C186 C 0.72644 0.21773 0.16565
 C187 C 0.73665 0.19132 0.19512
 H188 H 0.74961 0.27111 0.15547
 H189 H 0.72484 0.16518 0.19903
 Cu190 Cu 0.81334 0.26177 0.22993
 Cu191 Cu 0.78904 0.17865 0.26627
 Cu192 Cu 0.86638 0.21287 0.30533
 N193 N 0.85548 0.28199 0.25860
 N194 N 0.87569 0.26312 0.28824
 C195 C 0.90263 0.28357 0.30236
 C196 C 0.89942 0.31683 0.28022
 C197 C 0.86925 0.31495 0.25263
 H198 H 0.92343 0.27452 0.32658
 H199 H 0.85826 0.33589 0.22992
 N200 N 0.84787 0.17117 0.32871
 N201 N 0.81713 0.15837 0.31362
 C202 C 0.80962 0.13105 0.33617
 C203 C 0.83733 0.12636 0.36689
 C204 C 0.86121 0.15219 0.36128
 H205 H 0.78560 0.11605 0.33083
 H206 H 0.88576 0.15764 0.37992
 H207 H 0.80142 0.23479 0.27511
 H208 H 0.83040 0.20321 0.24593
 C209 C 0.31290 0.07567 0.50382
 C210 C 0.31478 0.07513 0.46744
 C211 C 0.28858 0.05281 0.45179
 N212 N 0.27064 0.03993 0.47734
 C213 C 0.28577 0.05343 0.50929
 C214 C 0.27956 0.04736 0.41415
 C215 C 0.25386 0.02317 0.39892
 C216 C 0.23821 0.02366 0.36234
 C217 C 0.21684 -0.00573 0.35835
 C218 C 0.22046 -0.02381 0.39248
 N219 N 0.24315 -0.00607 0.41701
 C220 C 0.20469 -0.05714 0.39988
 C221 C 0.20344 -0.07064 0.43546
 C222 C 0.19500 -0.10686 0.44436
 C223 C 0.19458 -0.10763 0.48097
 C224 C 0.20261 -0.07176 0.49326
 N225 N 0.20807 -0.04920 0.46538
 C226 C 0.20256 -0.05959 0.52922
 C227 C 0.21682 -0.02596 0.54247
 C228 C 0.21123 -0.00916 0.57505
 C229 C 0.23121 0.02137 0.57888
 C230 C 0.24827 0.02267 0.54835
 N231 N 0.23958 -0.00658 0.52650
 C232 C 0.27348 0.04836 0.54277
 H233 H 0.32923 0.09130 0.52373
 H234 H 0.33277 0.09021 0.45394
 H235 H 0.25193 -0.01569 0.50420
 H236 H 0.24185 0.04296 0.34061
 H237 H 0.20078 -0.01308 0.33306
 H238 H 0.18992 -0.13042 0.42640
 H239 H 0.18910 -0.13194 0.49672
 H240 H 0.23321 0.04000 0.60190
 H241 H 0.25431 -0.01625 0.44358
 H242 H 0.19481 -0.01817 0.59434
 C243 C 0.81330 0.09985 0.51212
 C244 C 0.81062 0.10327 0.54811
 C245 C 0.79978 0.06906 0.55925
 N246 N 0.79561 0.04492 0.53124
 C247 C 0.80385 0.06374 0.50238
 C248 C 0.79581 0.05975 0.59518
 C249 C 0.77825 0.02832 0.60431
 C250 C 0.78007 0.01337 0.63935
 C251 C 0.75729 -0.01478 0.63687
 C252 C 0.74239 -0.01654 0.60032
 N253 N 0.75517 0.01001 0.58071
 C254 C 0.71565 -0.04027 0.58641
 C255 C 0.70631 -0.04743 0.54912
 C256 C 0.67848 -0.06833 0.53450
 C257 C 0.68032 -0.07112 0.49816
 C258 C 0.70921 -0.05176 0.49173
 N259 N 0.72524 -0.03766 0.52303
 C260 C 0.72237 -0.05025 0.45821
 C261 C 0.75058 -0.02847 0.45189
 C262 C 0.76900 -0.03191 0.42204
 C263 C 0.79245 -0.00437 0.42490
 C264 C 0.78745 0.01560 0.45614
 N265 N 0.76177 0.00087 0.47230
 C266 C 0.80480 0.04799 0.46781
 H267 H 0.82100 0.12167 0.49500
 H268 H 0.81587 0.12825 0.56413
 H269 H 0.74945 0.01310 0.49365
 H270 H 0.79591 0.02201 0.66421
 H271 H 0.75210 -0.03171 0.65956
 H272 H 0.65931 -0.08090 0.54864
 H273 H 0.66287 -0.08642 0.47893
 H274 H 0.81074 0.00062 0.40584
 H275 H 0.74522 0.01846 0.55353
 H276 H 0.76581 -0.05184 0.40011
 C277 C 0.58254 0.26887 0.11012
 C278 C 0.54536 0.27177 0.11428
 C279 C 0.52570 0.26221 0.08145
 N280 N 0.54941 0.25462 0.05714
 C281 C 0.58417 0.25851 0.07465
 C282 C 0.48832 0.25436 0.07602
 C283 C 0.46851 0.24844 0.04113
 C284 C 0.43742 0.22956 0.03444
 C285 C 0.42726 0.22914 -0.00267
 C286 C 0.45254 0.24754 -0.01770
 N287 N 0.47719 0.25985 0.00916
 C288 C 0.45177 0.25333 -0.05537
 C289 C 0.48216 0.26453 -0.06959
 C290 C 0.48079 0.27627 -0.10553
 C291 C 0.51745 0.27709 -0.10972
 C292 C 0.54009 0.26501 -0.07644
 N293 N 0.51841 0.25783 -0.05184
 C294 C 0.58006 0.25508 -0.07051
 C295 C 0.60180 0.24617 -0.03536
 C296 C 0.63850 0.22489 -0.02793
 C297 C 0.64904 0.22210 0.00923
 C298 C 0.61846 0.24160 0.02352
 N299 N 0.58998 0.25673 -0.00384
 C300 C 0.61783 0.24581 0.06095
 H301 H 0.60586 0.27255 0.13118
 H302 H 0.53441 0.27829 0.13917
 H303 H 0.56486 0.27541 -0.00126
 H304 H 0.42393 0.21642 0.05407
 H305 H 0.40410 0.21633 -0.01690
 H306 H 0.45623 0.28241 -0.12687
 H307 H 0.52651 0.28411 -0.13484
 H308 H 0.67606 0.20712 0.02402
 H309 H 0.49728 0.27723 0.00589
 H310 H 0.65571 0.21175 -0.04710
 C311 C 0.46730 0.74834 0.10921
 C312 C 0.50519 0.74766 0.10901
 C313 C 0.50768 0.76526 0.07605
 N314 N 0.47262 0.77693 0.05634
 C315 C 0.44799 0.76599 0.07626
 C316 C 0.54172 0.76995 0.06422
 C317 C 0.54297 0.78187 0.02809
 C318 C 0.57375 0.79431 0.01695
 C319 C 0.56668 0.79640 -0.02046
 C320 C 0.53167 0.78535 -0.03121
 N321 N 0.51726 0.77702 -0.00141
 C322 C 0.51703 0.77672 -0.06714
 C323 C 0.47924 0.77130 -0.07822
 C324 C 0.46553 0.75567 -0.11070
 C325 C 0.42797 0.75446 -0.11037
 C326 C 0.41991 0.76984 -0.07787
 N327 N 0.45118 0.78061 -0.05854
 C328 C 0.38455 0.77331 -0.06600
 C329 C 0.37979 0.78356 -0.03033
 C330 C 0.34502 0.79566 -0.01959
 C331 C 0.35176 0.79534 0.01778
 C332 C 0.39051 0.78325 0.02888
 N333 N 0.40739 0.77667 -0.00068
 C334 C 0.40831 0.77191 0.06501
 H335 H 0.45541 0.73654 0.13084
 H336 H 0.52814 0.73481 0.13040
 H337 H 0.43469 0.76142 -0.00040
 H338 H 0.59942 0.79956 0.03401
 H339 H 0.58598 0.80345 -0.03771
 H340 H 0.48114 0.74542 -0.13204
 H341 H 0.40921 0.74274 -0.13137
 H342 H 0.33026 0.80146 0.03479
 H343 H 0.49476 0.76219 -0.00125
 H344 H 0.31744 0.80217 -0.03685
 C345 C 0.10622 0.51559 0.17996
 C346 C 0.11136 0.47533 0.17966
 C347 C 0.07861 0.46460 0.18804
 N348 N 0.05363 0.49697 0.19339
 C349 C 0.07050 0.52819 0.18852
 C350 C 0.07177 0.42557 0.18925
 C351 C 0.04107 0.41467 0.20335
 C352 C 0.02981 0.37836 0.19939
 C353 C 0.00107 0.37843 0.21918
 C354 C -0.00458 0.41489 0.23462
 N355 N 0.02007 0.43667 0.22490
 C356 C -0.02956 0.42575 0.25953
 C357 C -0.03897 0.46458 0.27089
 C358 C -0.06048 0.47532 0.29770
 C359 C -0.06449 0.51552 0.29934
 C360 C -0.04541 0.52805 0.27338
 N361 N -0.03015 0.49693 0.25582
 C362 C -0.04402 0.56777 0.26505
 C363 C -0.02238 0.57970 0.24014
 C364 C -0.02757 0.61749 0.22475
 C365 C -0.00032 0.61751 0.20322
 C366 C 0.02106 0.57982 0.20636
 N367 N 0.00744 0.55699 0.22900
 C368 C 0.05345 0.56800 0.19007
 H369 H 0.12669 0.53347 0.17486
 H370 H 0.13652 0.45619 0.17419
 H371 H 0.02028 0.52893 0.23943
 H372 H 0.04147 0.35409 0.18426
 H373 H -0.01342 0.35402 0.22231
 H374 H -0.07232 0.45624 0.31420
 H375 H -0.07994 0.53349 0.31738
 H376 H 0.00331 0.64253 0.18720
 H377 H 0.02557 0.46290 0.23597
 H378 H -0.04890 0.64246 0.22849
 C379 C 0.06222 0.47268 0.70527
 C380 C 0.05899 0.51289 0.70259
 C381 C 0.03690 0.52799 0.72778
 N382 N 0.02690 0.49837 0.74598
 C383 C 0.04208 0.46455 0.73206
 C384 C 0.02837 0.56827 0.73515
 C385 C 0.00361 0.58330 0.75907
 C386 C 0.00044 0.62085 0.77240
 C387 C -0.02830 0.62484 0.79257
 C388 C -0.04216 0.58979 0.79071
 N389 N -0.02268 0.56473 0.77012
 C390 C -0.07348 0.58259 0.80602
 C391 C -0.08370 0.54507 0.80811
 C392 C -0.11812 0.53831 0.81583
 C393 C -0.11621 0.49829 0.81695
 C394 C -0.08049 0.48187 0.81034
 N395 N -0.06068 0.51056 0.80486
 C396 C -0.06595 0.44107 0.81131
 C397 C -0.03207 0.42557 0.79859
 C398 C -0.01233 0.38737 0.80590
 C399 C 0.01729 0.38323 0.78684
 C400 C 0.01496 0.41907 0.76848
 N401 N -0.01524 0.44469 0.77575
 C402 C 0.03923 0.42640 0.74421
 H403 H 0.07767 0.45187 0.68931
 H404 H 0.07171 0.52909 0.68438
 H405 H -0.02631 0.47197 0.76256
 H406 H 0.01685 0.64326 0.76787
 H407 H -0.03820 0.65084 0.80655
 H408 H -0.14227 0.55998 0.81984
 H409 H -0.13873 0.48318 0.82191
 H410 H 0.03810 0.35675 0.78647
 H411 H -0.02981 0.53839 0.76066
 H412 H -0.01860 0.36472 0.82311
 N413 N 0.49166 0.22063 0.13642
 N414 N 0.46887 0.21623 0.15967
 C415 C 0.43441 0.23784 0.14717
 C416 C 0.43538 0.25724 0.11464
 C417 C 0.47231 0.24533 0.10871
 H418 H 0.41224 0.27601 0.09711
 H419 H 0.51961 0.20570 0.13896
 H420 H 0.47674 0.19771 0.18306
 N421 N 0.60617 0.72941 0.08021
 N422 N 0.63508 0.72198 0.11032
 C423 C 0.62458 0.74553 0.13669
 C424 C 0.58911 0.76838 0.12414
 C425 C 0.57849 0.75704 0.08886
 H426 H 0.57260 0.78955 0.13897
 H427 H 0.60581 0.71455 0.05602
 H428 H 0.65994 0.70132 0.11149
 N429 N 0.58768 0.22513 -0.13000
 N430 N 0.61245 0.22148 -0.15243
 C431 C 0.64022 0.24159 -0.13979
 C432 C 0.63266 0.25913 -0.10804
 C433 C 0.59909 0.24776 -0.10267
 H434 H 0.64989 0.27626 -0.09052
 H435 H 0.56417 0.21105 -0.13276
 H436 H 0.61068 0.20455 -0.17540
 N437 N 0.33344 0.73329 -0.07846
 N438 N 0.30725 0.72690 -0.10561
 C439 C 0.30844 0.75013 -0.13455
 C440 C 0.33669 0.77247 -0.12540
 C441 C 0.35203 0.76059 -0.08951
 H442 H 0.34535 0.79363 -0.14248
 H443 H 0.33893 0.71854 -0.05297
 H444 H 0.28912 0.70672 -0.10414
 N445 N 0.10759 0.39551 0.14184
 N446 N 0.13676 0.36713 0.14045
 C447 C 0.14689 0.34766 0.17311
 C448 C 0.12285 0.36403 0.19620
 C449 C 0.09858 0.39448 0.17536
 H450 H 0.12453 0.35698 0.22483
 H451 H 0.09514 0.41616 0.12065
 H452 H 0.15021 0.36230 0.11789
 N453 N 0.03309 0.61119 0.68253
 N454 N 0.05593 0.63783 0.67506
 C455 C 0.08241 0.63848 0.70493
 C456 C 0.07727 0.61257 0.73175
 C457 C 0.04617 0.59639 0.71668
 H458 H 0.09349 0.60663 0.75892
 H459 H 0.00972 0.60480 0.66476
 H460 H 0.05230 0.65417 0.65057
 N461 N -0.05307 0.62203 0.30786
 N462 N -0.08335 0.64906 0.31622
 C463 C -0.11528 0.64197 0.29523
 C464 C -0.10635 0.61035 0.27372
 C465 C -0.06737 0.59888 0.28245
 H466 H -0.12544 0.59787 0.25355
 H467 H -0.02455 0.62088 0.31906
 H468 H -0.08076 0.67131 0.33463
 N469 N -0.10123 0.41824 0.85761
 N470 N -0.12277 0.38893 0.86064
 C471 C -0.12097 0.36665 0.83143
 C472 C -0.09849 0.38086 0.80948
 C473 C -0.08713 0.41337 0.82648
 H474 H -0.09267 0.37028 0.78350
 H475 H -0.09780 0.44034 0.87605
 H476 H -0.13773 0.38586 0.88178
 N477 N 0.33418 0.05604 0.38428
 N478 N 0.34149 0.07974 0.35931
 C479 C 0.31030 0.10721 0.34814
 C480 C 0.28187 0.10083 0.36686
 C481 C 0.29821 0.06794 0.38929
 H482 H 0.25319 0.11705 0.36402
 H483 H 0.35336 0.03187 0.39728
 H484 H 0.36737 0.07681 0.35004
 N485 N 0.84615 0.09328 0.62906
 N486 N 0.84925 0.11817 0.65548
 C487 C 0.81635 0.12502 0.66836
 C488 C 0.79122 0.10349 0.64947
 C489 C 0.81117 0.08397 0.62461
 H490 H 0.76205 0.10334 0.65224
 H491 H 0.86745 0.08341 0.61400
 H492 H 0.87339 0.13045 0.66413
 N493 N 0.15059 -0.09231 0.54439
 N494 N 0.14589 -0.11748 0.56945
 C495 C 0.17728 -0.12406 0.59519
 C496 C 0.20313 -0.10190 0.58632
 C497 C 0.18518 -0.08256 0.55358
 H498 H 0.23186 -0.10216 0.60011
 H499 H 0.13095 -0.08310 0.52077
 H500 H 0.12191 -0.13065 0.56829
 N501 N 0.67070 -0.06492 0.40986
 N502 N 0.66614 -0.09108 0.38473
 C503 C 0.69890 -0.11693 0.38693
 C504 C 0.72540 -0.10690 0.41478
 C505 C 0.70642 -0.07362 0.42842
 H506 H 0.75453 -0.12124 0.42354
 H507 H 0.64982 -0.04128 0.41389
 H508 H 0.64111 -0.09082 0.36626
 N509 N 0.56237 0.72815 -0.09345
 N510 N 0.58982 0.72808 -0.11254
 C511 C 0.58984 0.76536 -0.12373
 C512 C 0.56101 0.79047 -0.11125
 C513 C 0.54452 0.76547 -0.09188
 H514 H 0.55509 0.82233 -0.11322
 H515 H 0.55721 0.70325 -0.08021
 H516 H 0.60900 0.70298 -0.11669
 N517 N 0.42473 0.19879 -0.08582
 N518 N 0.39961 0.19388 -0.11447
 C519 C 0.38100 0.22950 -0.12830
 C520 C 0.39471 0.25854 -0.10742
 C521 C 0.42280 0.23761 -0.08095
 H522 H 0.38760 0.29013 -0.11254
 H523 H 0.44420 0.17594 -0.07101
 H524 H 0.39627 0.16657 -0.12499
 N525 N 0.37992 0.72068 0.09191
 N526 N 0.35170 0.71884 0.10960
 C527 C 0.33825 0.75530 0.11928
 C528 C 0.35889 0.78167 0.10733
 C529 C 0.38486 0.75836 0.08974
 H530 H 0.35338 0.81347 0.10809
 H531 H 0.39405 0.69686 0.07966
 H532 H 0.34091 0.69324 0.11363
 N533 N 0.65903 0.18795 0.09530
 N534 N 0.68713 0.18050 0.12318
 C535 C 0.69809 0.21464 0.13330
 C536 C 0.67607 0.24534 0.11078
 C537 C 0.65145 0.22695 0.08722
 H538 H 0.67618 0.27659 0.11276
 H539 H 0.64430 0.16682 0.08299
 H540 H 0.69789 0.15255 0.13549
 N541 N -0.10211 0.61451 0.85663
 N542 N -0.12995 0.64668 0.86040
 C543 C -0.14064 0.66644 0.82785
 C544 C -0.11957 0.64804 0.80303
 C545 C -0.09628 0.61548 0.82201
 H546 H -0.12282 0.65536 0.77425
 H547 H -0.09009 0.59245 0.87670
 H548 H -0.14125 0.65251 0.88409
 N549 N -0.03156 0.37770 0.30931
 N550 N -0.05001 0.34892 0.31472
 C551 C -0.07598 0.34679 0.28481
 C552 C -0.07406 0.37559 0.25922
 C553 C -0.04534 0.39432 0.27588
 H554 H -0.09020 0.38124 0.23199
 H555 H -0.00939 0.38525 0.32795
 H556 H -0.04445 0.33089 0.33840
 N557 N 0.04862 0.36340 0.71212
 N558 N 0.07711 0.33643 0.70592
 C559 C 0.10996 0.34724 0.72104
 C560 C 0.10207 0.38283 0.73739
 C561 C 0.06282 0.39201 0.73099
 H562 H 0.12188 0.39926 0.75249
 H563 H 0.01998 0.36200 0.70381
 H564 H 0.07387 0.31076 0.69219
 N565 N 0.07985 0.59619 0.13976
 N566 N 0.09770 0.62547 0.13449
 C567 C 0.09952 0.64711 0.16425
 C568 C 0.08197 0.63101 0.18961
 C569 C 0.07017 0.59847 0.17308
 H570 H 0.07991 0.64032 0.21686
 H571 H 0.07514 0.57456 0.12110
 H572 H 0.10881 0.63009 0.11104
 N573 N 0.66355 -0.04296 0.62186
 N574 N 0.65732 -0.06458 0.64902
 C575 C 0.68671 -0.09474 0.65753
 C576 C 0.71269 -0.09235 0.63464
 C577 C 0.69694 -0.05901 0.61260
 H578 H 0.74007 -0.11085 0.63516
 H579 H 0.64579 -0.01701 0.61070
 H580 H 0.63372 -0.05811 0.66190
 N581 N 0.15177 -0.08652 0.36567
 N582 N 0.14568 -0.10770 0.33684
 C583 C 0.17696 -0.11326 0.32124
 C584 C 0.20417 -0.09461 0.34094
 C585 C 0.18703 -0.07818 0.36904
 H586 H 0.23277 -0.09429 0.33639
 H587 H 0.13218 -0.07834 0.38294
 H588 H 0.12061 -0.11845 0.32840
 N589 N 0.86130 0.07339 0.45317
 N590 N 0.86967 0.09453 0.42688
 C591 C 0.83969 0.10113 0.39959
 C592 C 0.81099 0.08320 0.40880
 C593 C 0.82580 0.06618 0.44317
 H594 H 0.78262 0.08442 0.39372
 H595 H 0.87923 0.06507 0.47799
 H596 H 0.89521 0.10489 0.42812
 N597 N 0.32438 0.06443 0.59085
 N598 N 0.32793 0.08948 0.61708
 C599 C 0.29391 0.11246 0.61706
 C600 C 0.26754 0.10168 0.58951
 C601 C 0.28809 0.07099 0.57371
 H602 H 0.23769 0.11405 0.58214
 H603 H 0.34643 0.04309 0.58499
 H604 H 0.35325 0.09043 0.63472
   
