data_POSCAR
  _audit_creation_date              2014-09-24
  _audit_creation_method            'ToBaCCo'
  _symmetry_space_group_name_H-M    'P1'
  _symmetry_Int_Tables_number       1
  _symmetry_cell_setting            triclinic
  loop_
  _symmetry_equiv_pos_as_xyz
 x,y,z
_cell_length_a 33.2521
_cell_length_b 33.2947
_cell_length_c 67.3957
_cell_angle_alpha 87.986700
_cell_angle_beta 91.014400
_cell_angle_gamma 120.082600
loop_
  _atom_site_label
  _atom_site_type_symbol
  _atom_site_fract_x
  _atom_site_fract_y
  _atom_site_fract_z
C1 C 0.01678 0.07676 0.52699
 H2 H 0.04957 0.07731 0.52674
 C3 C 0.01189 0.10796 0.53857
 H4 H 0.04095 0.13256 0.54734
 C5 C -0.06079 0.04490 0.51542
 H6 H -0.08867 0.02087 0.50608
 C7 C -0.06714 0.07563 0.52681
 H8 H -0.10005 0.07496 0.52634
 N9 N -0.01932 0.04596 0.51580
 C10 C 0.01278 -0.06364 0.50601
 H11 H 0.01367 -0.06288 0.48996
 C12 C 0.01765 -0.09746 0.51687
 H13 H 0.02259 -0.12271 0.50919
 C14 C 0.00291 -0.03317 0.53566
 H15 H -0.00420 -0.00898 0.54291
 C16 C 0.00760 -0.06642 0.54708
 H17 H 0.00460 -0.06738 0.56309
 Zn18 Zn -0.00719 0.00795 0.49965
 N19 N 0.00545 -0.03246 0.51550
 C20 C 0.08474 0.04732 0.48403
 N21 N 0.04434 0.04841 0.48357
 C22 C 0.04009 0.08090 0.47239
 C23 C 0.07727 0.11387 0.46091
 C24 C 0.12289 0.07979 0.47275
 C25 C -0.09846 -0.06277 0.49317
 C26 C -0.13635 -0.09520 0.48228
 C27 C -0.09281 -0.05964 0.45210
 C28 C -0.05575 -0.02789 0.46358
 N29 N -0.05916 -0.03012 0.48373
 H30 H 0.08774 0.02190 0.49336
 H31 H 0.00782 0.08140 0.47258
 H32 H 0.07364 0.13979 0.45216
 H33 H 0.15510 0.07907 0.47328
 H34 H -0.09983 -0.06433 0.50923
 H35 H -0.16709 -0.12161 0.49002
 H36 H -0.08928 -0.05811 0.43609
 H37 H -0.02383 -0.00254 0.45638
 C38 C 0.01463 -0.09908 0.53758
 C39 C -0.03036 0.10750 0.53843
 C40 C -0.13333 -0.09391 0.46155
 C41 C 0.11907 0.11341 0.46115
 C42 C 1.09029 0.03514 0.13943
 H43 H 1.09095 0.06796 0.13949
 C44 C 1.12221 0.03061 0.12795
 H45 H 1.14748 0.05997 0.11906
 C46 C 1.05732 -0.04291 0.15137
 H47 H 1.03254 -0.07114 0.16080
 C48 C 1.08874 -0.04891 0.14009
 H49 H 1.08786 -0.08190 0.14073
 N50 N 1.05858 -0.00137 0.15075
 C51 C 0.94805 0.03015 0.15992
 H52 H 0.94762 0.03031 0.17597
 C53 C 0.91484 0.03530 0.14891
 H54 H 0.88889 0.03972 0.15646
 C55 C 0.98082 0.02176 0.13046
 H56 H 1.00565 0.01509 0.12335
 C57 C 0.94823 0.02676 0.11889
 H58 H 0.94841 0.02442 0.10291
 Zn59 Zn 1.01935 0.01005 0.16668
 N60 N 0.98005 0.02338 0.15060
 C61 C 1.05740 0.10102 0.18200
 N62 N 1.05864 0.06073 0.18260
 C63 C 1.09036 0.05595 0.19391
 C64 C 1.12229 0.09241 0.20539
 C65 C 1.08884 0.13846 0.19328
 C66 C 0.94801 -0.08143 0.17347
 C67 C 0.91482 -0.11979 0.18449
 C68 C 0.94831 -0.07778 0.21449
 C69 C 0.98088 -0.04018 0.20291
 N70 N 0.98006 -0.04261 0.18278
 H71 H 1.03262 0.10447 0.17257
 H72 H 1.09100 0.02378 0.19384
 H73 H 1.14757 0.08833 0.21428
 H74 H 1.08798 0.17057 0.19266
 H75 H 0.94755 -0.08204 0.15742
 H76 H 0.88884 -0.15020 0.17695
 H77 H 0.94853 -0.07523 0.23048
 H78 H 1.00575 -0.00865 0.21001
 C79 C 0.91470 0.03314 0.12822
 C80 C 1.12151 -0.01172 0.12832
 C81 C 0.91474 -0.11774 0.20518
 C82 C 1.12161 0.13405 0.20504
 C83 C 0.04019 0.95865 0.86075
 H84 H 0.00793 0.92583 0.86054
 C85 C 0.07734 0.96290 0.87225
 H86 H 0.07370 0.93334 0.88101
 C87 C 0.08484 1.03695 0.84914
 H88 H 0.08785 1.06538 0.83982
 C89 C 0.12296 1.04268 0.86045
 H90 H 0.15516 1.07567 0.85994
 N91 N 0.04445 0.99540 0.84957
 C92 C -0.09835 0.96362 0.83996
 H93 H -0.09974 0.96381 0.82391
 C94 C -0.13621 0.95814 0.85086
 H95 H -0.16698 0.95379 0.84317
 C96 C -0.05562 0.97151 0.86956
 H97 H -0.02369 0.97811 0.87676
 C98 C -0.09267 0.96616 0.88103
 H99 H -0.08921 0.96818 0.89704
 Zn100 Zn -0.00707 0.98428 0.83349
 N101 N -0.05904 0.97032 0.84940
 C102 C -0.06068 0.89367 0.81770
 N103 N -0.01920 0.93413 0.81734
 C104 C 0.01691 0.93946 0.80615
 C105 C 0.01202 0.90337 0.79457
 C106 C -0.06703 0.85658 0.80631
 C107 C 0.01289 1.07585 0.82713
 C108 C 0.01777 1.11455 0.81626
 C109 C 0.00774 1.07346 0.78606
 C110 C 0.00304 1.03551 0.79747
 N111 N 0.00557 1.03734 0.81764
 H112 H -0.08856 0.88979 0.82703
 H113 H 0.04970 0.97174 0.80641
 H114 H 0.04108 0.90786 0.78581
 H115 H -0.09994 0.82431 0.80677
 H116 H 0.01378 1.07599 0.84318
 H117 H 0.02270 1.14475 0.82394
 H118 H 0.00475 1.07142 0.77004
 H119 H -0.00405 1.00421 0.79023
 C120 C -0.13316 0.95988 0.87158
 C121 C 0.11913 1.00523 0.87205
 C122 C 0.01476 1.11315 0.79555
 C123 C -0.03025 0.86153 0.79470
 C124 C 0.50757 -0.00350 0.00967
 C125 C 0.50581 -0.00529 -0.01053
 C126 C 0.46923 -0.00163 -0.02210
 C127 C 0.54033 -0.01104 -0.02198
 C128 C 0.54879 0.00219 0.02101
 C129 C 0.46836 -0.00700 0.02136
 C130 C 0.44282 -0.03492 -0.03621
 C131 C 0.40833 -0.03172 -0.04711
 C132 C 0.40012 0.00497 -0.04413
 C133 C 0.42676 0.03866 -0.03031
 C134 C 0.46130 0.03553 -0.01941
 C135 C 0.54907 -0.04742 -0.01718
 C136 C 0.58144 -0.05269 -0.02807
 C137 C 0.60507 -0.02195 -0.04397
 C138 C 0.59607 0.01396 -0.04899
 C139 C 0.56375 0.01929 -0.03811
 C140 C 0.59366 0.03855 0.01614
 C141 C 0.63219 0.04385 0.02697
 C142 C 0.62624 0.01317 0.04287
 C143 C 0.58160 -0.02275 0.04795
 C144 C 0.54305 -0.02812 0.03713
 C145 C 0.47672 0.02634 0.03550
 C146 C 0.44002 0.02328 0.04652
 C147 C 0.39467 -0.01331 0.04364
 C148 C 0.38617 -0.04703 0.02978
 C149 C 0.42284 -0.04405 0.01876
 H150 H 0.44858 -0.06365 -0.03859
 H151 H 0.38797 -0.05793 -0.05780
 H152 H 0.42085 0.06731 -0.02796
 H153 H 0.48190 0.06209 -0.00890
 H154 H 0.53070 -0.07178 -0.00506
 H155 H 0.58798 -0.08072 -0.02411
 H156 H 0.55731 0.04736 -0.04213
 H157 H 0.59877 0.06289 0.00403
 H158 H 0.66655 0.07190 0.02297
 H159 H 0.57661 -0.04662 0.06026
 H160 H 0.50876 -0.05617 0.04120
 H161 H 0.51157 0.05499 0.03782
 H162 H 0.44699 0.04951 0.05724
 H163 H 0.35124 -0.07560 0.02750
 H164 H 0.41578 -0.07064 0.00823
 H165 H 0.61410 0.03787 -0.06130
 C166 C -0.01730 0.49026 0.67669
 C167 C -0.01732 0.49176 0.65645
 C168 C -0.02179 0.45251 0.64487
 C169 C -0.01242 0.53292 0.64494
 C170 C -0.02176 0.52505 0.68827
 C171 C -0.01239 0.45401 0.68819
 C172 C 0.01019 0.46082 0.62973
 C173 C 0.00628 0.42410 0.61882
 C174 C -0.02982 0.37874 0.62283
 C175 C -0.06223 0.37026 0.63770
 C176 C -0.05839 0.40697 0.64861
 C177 C 0.02458 0.57769 0.64872
 C178 C 0.02913 0.61618 0.63776
 C179 C -0.00295 0.61029 0.62280
 C180 C -0.03952 0.56574 0.61878
 C181 C -0.04414 0.52722 0.62974
 C182 C -0.05836 0.53394 0.68453
 C183 C -0.06219 0.56681 0.69544
 C184 C -0.02976 0.59079 0.71031
 C185 C 0.00635 0.58158 0.71432
 C186 C 0.01025 0.54876 0.70341
 C187 C -0.04409 0.42797 0.70340
 C188 C -0.03944 0.39409 0.71436
 C189 C -0.00288 0.38614 0.71034
 C190 C 0.02918 0.41237 0.69537
 C191 C 0.02461 0.44628 0.68441
 H192 H 0.03849 0.49567 0.62653
 H193 H 0.03150 0.43104 0.60731
 H194 H -0.09041 0.33532 0.64086
 H195 H -0.08396 0.39992 0.65995
 H196 H 0.04999 0.58276 0.66009
 H197 H 0.05769 0.65047 0.64092
 H198 H -0.07270 0.49299 0.62651
 H199 H -0.08395 0.51537 0.67320
 H200 H -0.09038 0.57353 0.69229
 H201 H 0.03159 0.59990 0.72582
 H202 H 0.03854 0.54224 0.70660
 H203 H -0.07264 0.43361 0.70664
 H204 H -0.06438 0.37406 0.72595
 H205 H 0.05773 0.40667 0.69221
 H206 H 0.05000 0.46665 0.67304
 H207 H -0.06447 0.56079 0.60720
 C208 C 0.50613 0.51160 0.34412
 C209 C 0.50783 0.51165 0.32393
 C210 C 0.54904 0.54725 0.31259
 C211 C 0.46859 0.47596 0.31222
 C212 C 0.46955 0.47128 0.35568
 C213 C 0.54070 0.55185 0.35559
 C214 C 0.54329 0.57188 0.29650
 C215 C 0.58183 0.60509 0.28567
 C216 C 0.62646 0.61378 0.29071
 C217 C 0.63242 0.58900 0.30659
 C218 C 0.59391 0.55574 0.31742
 C219 C 0.42308 0.46746 0.31485
 C220 C 0.38638 0.43381 0.30381
 C221 C 0.39483 0.40864 0.28991
 C222 C 0.44016 0.41743 0.28701
 C223 C 0.47689 0.45104 0.29805
 C224 C 0.46157 0.42618 0.35294
 C225 C 0.42701 0.38844 0.36381
 C226 C 0.40040 0.39542 0.37766
 C227 C 0.40866 0.44033 0.38069
 C228 C 0.44318 0.47810 0.36982
 C229 C 0.56414 0.54488 0.37169
 C230 C 0.59654 0.58253 0.38259
 C231 C 0.60559 0.62748 0.37760
 C232 C 0.58192 0.63463 0.36174
 C233 C 0.54947 0.59701 0.35084
 H234 H 0.50901 0.56565 0.29245
 H235 H 0.57683 0.62401 0.27338
 H236 H 0.66677 0.59529 0.31055
 H237 H 0.59902 0.53646 0.32951
 H238 H 0.41606 0.48694 0.32542
 H239 H 0.35147 0.42743 0.30611
 H240 H 0.51172 0.45726 0.29571
 H241 H 0.48215 0.42028 0.34240
 H242 H 0.42105 0.35387 0.36141
 H243 H 0.38832 0.44611 0.39141
 H244 H 0.44897 0.51259 0.37225
 H245 H 0.55768 0.51034 0.37568
 H246 H 0.61460 0.57660 0.39486
 H247 H 0.58849 0.66924 0.35781
 H248 H 0.53109 0.60305 0.33874
 H249 H 0.44709 0.39821 0.27625
 C250 C -0.04234 0.22689 0.60026
 C251 C -0.07814 0.19941 0.58389
 C252 C -0.03810 0.20586 0.57062
 C253 C -0.00235 0.23274 0.58681
 C254 C -0.03707 0.27219 0.59109
 C255 C 0.00291 0.27855 0.57782
 C256 C -0.07286 0.24534 0.57491
 C257 C -0.03283 0.25116 0.56146
 C258 C -0.03727 0.16968 0.55918
 C259 C -0.03502 0.14081 0.54973
 C260 C -0.03546 0.30967 0.60245
 C261 C -0.03327 0.34096 0.61175
 H262 H -0.04622 0.21734 0.61634
 H263 H -0.11146 0.16645 0.58625
 H264 H 0.02665 0.22716 0.59159
 H265 H 0.03626 0.31147 0.57544
 H266 H -0.10183 0.25097 0.57014
 H267 H -0.02894 0.26074 0.54538
 C268 C 0.74536 0.76100 0.25326
 C269 C 0.79715 0.78303 0.25926
 C270 C 0.80888 0.77744 0.23795
 C271 C 0.75764 0.75594 0.23179
 C272 C 0.73854 0.71279 0.25871
 C273 C 0.75024 0.70718 0.23740
 C274 C 0.78976 0.73426 0.26489
 C275 C 0.80212 0.72924 0.24338
 C276 C 0.84747 0.81402 0.22633
 C277 C 0.87854 0.84476 0.21671
 C278 C 0.69895 0.67716 0.27019
 C279 C 0.66605 0.64816 0.27958
 H280 H 0.72160 0.77368 0.25744
 H281 H 0.81688 0.81463 0.26813
 H282 H 0.74485 0.76524 0.21805
 H283 H 0.73050 0.67558 0.22853
 H284 H 0.80250 0.72493 0.27864
 H285 H 0.82590 0.71661 0.23919
 C286 C 0.27968 0.04588 -0.07283
 C287 C 0.27891 0.05261 -0.09570
 C288 C 0.22860 0.01201 -0.09602
 C289 C 0.22875 0.00529 -0.07336
 C290 C 0.29643 0.01105 -0.07574
 C291 C 0.24611 -0.02950 -0.07608
 C292 C 0.29629 0.01777 -0.09840
 C293 C 0.24541 -0.02279 -0.09891
 C294 C 0.19028 0.01132 -0.10736
 C295 C 0.15817 0.00935 -0.11673
 C296 C 0.33380 0.00966 -0.06446
 C297 C 0.36418 0.00781 -0.05520
 H298 H 0.29421 0.07410 -0.06198
 H299 H 0.29196 0.08636 -0.10389
 H300 H 0.20056 0.00018 -0.06318
 H301 H 0.23301 -0.06328 -0.06791
 H302 H 0.32447 0.02286 -0.10858
 H303 H 0.23091 -0.05103 -0.10975
 C304 C -0.01548 0.74984 0.59645
 C305 C 0.02999 0.79589 0.59164
 C306 C 0.01372 0.79371 0.57003
 C307 C -0.03170 0.74826 0.57467
 C308 C 0.00855 0.72276 0.59068
 C309 C -0.00771 0.72062 0.56907
 C310 C 0.05400 0.76819 0.58605
 C311 C 0.03776 0.76666 0.56424
 C312 C 0.01554 0.83271 0.55849
 C313 C 0.01584 0.86418 0.54897
 C314 C 0.00500 0.68293 0.60216
 C315 C 0.00157 0.64991 0.61157
 H316 H -0.03742 0.74247 0.60982
 H317 H 0.04553 0.82728 0.60079
 H318 H -0.06693 0.74048 0.56987
 H319 H -0.02327 0.68923 0.55992
 H320 H 0.08921 0.77592 0.59086
 H321 H 0.05969 0.77403 0.55087
 C322 C 0.25587 0.31475 0.24333
 C323 C 0.26279 0.28495 0.22808
 C324 C 0.22122 0.24126 0.23726
 C325 C 0.21368 0.27043 0.25233
 C326 C 0.28801 0.30751 0.25784
 C327 C 0.24644 0.26382 0.26702
 C328 C 0.29548 0.27831 0.24277
 C329 C 0.25339 0.23410 0.25177
 C330 C 0.18471 0.20379 0.22577
 C331 C 0.15547 0.17234 0.21632
 C332 C 0.32568 0.34398 0.26929
 C333 C 0.35705 0.37361 0.27869
 H334 H 0.25734 0.34834 0.24000
 H335 H 0.26909 0.29324 0.21194
 H336 H 0.17962 0.26677 0.25612
 H337 H 0.24015 0.25553 0.28316
 H338 H 0.32951 0.28193 0.23896
 H339 H 0.25197 0.20052 0.25512
 C340 C 0.71379 -0.01842 -0.09773
 C341 C 0.76613 0.00557 -0.09248
 C342 C 0.76560 -0.03982 -0.09653
 C343 C 0.71376 -0.06387 -0.10195
 C344 C 0.70206 -0.03458 -0.07590
 C345 C 0.70146 -0.08002 -0.07993
 C346 C 0.75390 -0.01055 -0.07049
 C347 C 0.75390 -0.05600 -0.07470
 C348 C 0.80160 -0.04154 -0.10807
 C349 C 0.83189 -0.04158 -0.11761
 C350 C 0.66710 -0.03083 -0.06446
 C351 C 0.63868 -0.02706 -0.05510
 H352 H 0.69693 -0.00290 -0.10707
 H353 H 0.79311 0.04075 -0.09777
 H354 H 0.69767 -0.08583 -0.11501
 H355 H 0.67446 -0.11517 -0.07463
 H356 H 0.77003 0.01143 -0.05744
 H357 H 0.77079 -0.07149 -0.06537
 C358 C 0.26240 0.00729 0.06930
 C359 C 0.21558 -0.03655 0.07490
 C360 C 0.22111 -0.01935 0.09617
 C361 C 0.26735 0.02448 0.09074
 C362 C 0.28790 -0.01884 0.07564
 C363 C 0.29339 -0.00165 0.09691
 C364 C 0.24168 -0.06272 0.08105
 C365 C 0.24659 -0.04550 0.10252
 C366 C 0.18460 -0.01837 0.10762
 C367 C 0.15536 -0.01615 0.11706
 C368 C 0.32556 -0.01768 0.06422
 C369 C 0.35692 -0.01599 0.05484
 H370 H 0.26931 0.02903 0.05552
 H371 H 0.18317 -0.05091 0.06598
 H372 H 0.27752 0.06035 0.09484
 H373 H 0.32580 0.01273 0.10583
 H374 H 0.23157 -0.09857 0.07694
 H375 H 0.23966 -0.06722 0.11630
 C376 C 0.73543 0.78620 0.40094
 C377 C 0.72586 0.80670 0.41939
 C378 C 0.76660 0.80587 0.43012
 C379 C 0.77671 0.78599 0.41186
 C380 C 0.70287 0.73709 0.40951
 C381 C 0.74363 0.73633 0.42025
 C382 C 0.69271 0.75694 0.42777
 C383 C 0.73403 0.75674 0.43867
 C384 C 0.80270 0.84357 0.44165
 C385 C 0.83309 0.87391 0.45118
 C386 C 0.66780 0.69837 0.39808
 C387 C 0.63930 0.66619 0.38873
 H388 H 0.73561 0.79787 0.38529
 H389 H 0.71898 0.83607 0.41917
 H390 H 0.81165 0.79836 0.40543
 H391 H 0.75057 0.70699 0.42048
 H392 H 0.65776 0.74454 0.43419
 H393 H 0.73384 0.74505 0.45432
 C394 C 0.01558 0.24742 0.73337
 C395 C 0.05255 0.25560 0.74949
 C396 C 0.01384 0.21944 0.76311
 C397 C -0.02306 0.21070 0.74718
 C398 C 0.00867 0.28522 0.74245
 C399 C -0.03001 0.24903 0.75608
 C400 C 0.04559 0.29400 0.75838
 C401 C 0.00692 0.25724 0.77219
 C402 C 0.01567 0.18228 0.77465
 C403 C 0.01597 0.15111 0.78416
 C404 C 0.00511 0.32149 0.73098
 C405 C 0.00166 0.35106 0.72156
 H406 H 0.01909 0.24378 0.71728
 H407 H 0.08653 0.25787 0.74691
 H408 H -0.05127 0.17604 0.74269
 H409 H -0.06400 0.24672 0.75867
 H410 H 0.07378 0.32868 0.76286
 H411 H 0.00341 0.26088 0.78828
 C412 C 0.73443 0.00551 0.09588
 C413 C 0.76591 -0.01374 0.08954
 C414 C 0.80878 0.03203 0.09551
 C415 C 0.77787 0.05133 0.10203
 C416 C 0.73839 0.02631 0.07481
 C417 C 0.78123 0.07211 0.08076
 C418 C 0.76931 0.00701 0.06830
 C419 C 0.81278 0.05284 0.07444
 C420 C 0.84739 0.03406 0.10711
 C421 C 0.87848 0.03441 0.11671
 C422 C 0.69878 0.02233 0.06334
 C423 C 0.66586 0.01841 0.05398
 H424 H 0.70178 -0.01401 0.10457
 H425 H 0.76002 -0.04903 0.09328
 H426 H 0.78184 0.06960 0.11602
 H427 H 0.78706 0.10737 0.07702
 H428 H 0.76535 -0.01127 0.05431
 H429 H 0.84545 0.07235 0.06576
 C430 C 0.25183 0.24689 0.39984
 C431 C 0.25660 0.21034 0.41298
 C432 C 0.22867 0.21640 0.42935
 C433 C 0.22333 0.25234 0.41638
 C434 C 0.29658 0.28537 0.40914
 C435 C 0.26861 0.29136 0.42551
 C436 C 0.30199 0.24946 0.42209
 C437 C 0.27342 0.25488 0.43864
 C438 C 0.19030 0.17867 0.44064
 C439 C 0.15815 0.14843 0.44997
 C440 C 0.33399 0.32424 0.39791
 C441 C 0.36442 0.35655 0.38868
 H442 H 0.24337 0.24405 0.38376
 H443 H 0.25123 0.17660 0.40796
 H444 H 0.19056 0.25311 0.41415
 H445 H 0.27394 0.32508 0.43054
 H446 H 0.33479 0.24875 0.42431
 H447 H 0.28188 0.25773 0.45472
 C448 C -0.07426 0.70436 0.73998
 C449 C -0.07690 0.70433 0.76294
 C450 C -0.03799 0.75543 0.76250
 C451 C -0.03536 0.75606 0.73975
 C452 C -0.03697 0.69011 0.74204
 C453 C 0.00189 0.74122 0.74163
 C454 C -0.03960 0.68948 0.76480
 C455 C -0.00074 0.74112 0.76454
 C456 C -0.03716 0.79243 0.77395
 C457 C -0.03490 0.82356 0.78339
 C458 C -0.03537 0.65422 0.73069
 C459 C -0.03319 0.62512 0.72139
 H460 H -0.10448 0.68882 0.72975
 H461 H -0.10929 0.68959 0.77183
 H462 H -0.03364 0.78384 0.72958
 H463 H 0.03431 0.75601 0.73275
 H464 H -0.04131 0.66171 0.77497
 H465 H 0.02950 0.75662 0.77476
   
