data_POSCAR
  _audit_creation_date              2014-09-24
  _audit_creation_method            'ToBaCCo'
  _symmetry_space_group_name_H-M    'P1'
  _symmetry_Int_Tables_number       1
  _symmetry_cell_setting            triclinic
  loop_
  _symmetry_equiv_pos_as_xyz
 x,y,z
_cell_length_a 48.7753
_cell_length_b 32.9103
_cell_length_c 21.5698
_cell_angle_alpha 90.047100
_cell_angle_beta 89.909200
_cell_angle_gamma 90.040000
loop_
  _atom_site_label
  _atom_site_type_symbol
  _atom_site_fract_x
  _atom_site_fract_y
  _atom_site_fract_z
O1 O 0.73884 0.29884 0.55898
 O2 O 0.78497 0.25852 0.43851
 O3 O 0.73885 0.29875 0.43859
 O4 O 0.78496 0.25866 0.55889
 O5 O 0.76202 0.20089 0.55900
 O6 O 0.71591 0.24098 0.43870
 O7 O 0.76204 0.20081 0.43862
 O8 O 0.71590 0.24107 0.55909
 Cu9 Cu 0.76420 0.28447 0.49872
 Cu10 Cu 0.73667 0.21516 0.49885
 C11 C 0.71932 0.27699 0.57931
 C12 C 0.78162 0.22258 0.41822
 C13 C 0.71933 0.27687 0.41841
 C14 C 0.78153 0.22278 0.57919
 O15 O 0.23802 0.79924 0.56153
 O16 O 0.28428 0.75880 0.44137
 O17 O 0.23822 0.79916 0.44115
 O18 O 0.28408 0.75889 0.56175
 O19 O 0.26104 0.70120 0.56168
 O20 O 0.21519 0.74147 0.44108
 O21 O 0.26124 0.70111 0.44130
 O22 O 0.21500 0.74161 0.56146
 Cu23 Cu 0.26346 0.78479 0.50146
 Cu24 Cu 0.23581 0.71558 0.50138
 C25 C 0.21838 0.77754 0.58179
 C26 C 0.28082 0.72290 0.42110
 C27 C 0.21870 0.77734 0.42082
 C28 C 0.28057 0.72301 0.58200
 O29 O 0.21482 0.25824 -0.43947
 O30 O 0.26084 0.29853 -0.56016
 O31 O 0.21471 0.25823 -0.55985
 O32 O 0.26094 0.29852 -0.43977
 O33 O 0.28387 0.24079 -0.44003
 O34 O 0.23761 0.20055 -0.56010
 O35 O 0.28376 0.24079 -0.56042
 O36 O 0.23773 0.20056 -0.43973
 Cu37 Cu 0.23554 0.28415 -0.49979
 Cu38 Cu 0.26303 0.21490 -0.50010
 C39 C 0.21819 0.22232 -0.41920
 C40 C 0.28034 0.27669 -0.58059
 C41 C 0.21803 0.22231 -0.58027
 C42 C 0.28047 0.27668 -0.41969
 O43 O -0.28424 0.75886 -0.44105
 O44 O -0.23794 0.79932 -0.56109
 O45 O -0.28404 0.75896 -0.56144
 O46 O -0.23815 0.79920 -0.44071
 O47 O -0.21517 0.74151 -0.44081
 O48 O -0.26105 0.70128 -0.56154
 O49 O -0.21497 0.74170 -0.56119
 O50 O -0.26126 0.70117 -0.44116
 Cu51 Cu -0.26339 0.78486 -0.50108
 Cu52 Cu -0.23581 0.71564 -0.50120
 C53 C -0.28082 0.72296 -0.42090
 C54 C -0.21832 0.77763 -0.58141
 C55 C -0.28056 0.72309 -0.58179
 C56 C -0.21865 0.77738 -0.42043
 N57 N -0.02865 0.92817 -0.06653
 N58 N -0.04854 0.90174 -0.07669
 N59 N 0.02909 0.95647 -0.10925
 N60 N 0.04892 0.95006 -0.14977
 N61 N 0.02904 0.92814 -0.06638
 N62 N 0.04887 0.90163 -0.07656
 N63 N -0.02855 0.95649 -0.10941
 N64 N -0.04835 0.95016 -0.14992
 C65 C -0.06066 0.91613 -0.12857
 C66 C 0.06112 0.91598 -0.12843
 N67 N 0.02913 1.07235 -0.06636
 N68 N 0.04900 1.09883 -0.07651
 N69 N -0.02850 1.04400 -0.10942
 N70 N -0.04825 1.05034 -0.15002
 N71 N -0.02857 1.07237 -0.06655
 N72 N -0.04839 1.09885 -0.07682
 N73 N 0.02913 1.04398 -0.10924
 N74 N 0.04899 1.05032 -0.14973
 Mn75 Mn 0.00029 1.00023 -0.10997
 C76 C 0.06123 1.08440 -0.12836
 C77 C -0.06051 1.08443 -0.12874
 N78 N 0.02887 0.92822 0.06732
 N79 N 0.04872 0.90179 0.07748
 N80 N -0.02884 0.95660 0.11005
 N81 N -0.04868 0.95023 0.15057
 N82 N -0.02883 0.92823 0.06717
 N83 N -0.04868 0.90172 0.07735
 N84 N 0.02880 0.95659 0.11021
 N85 N 0.04858 0.95028 0.15073
 Mn86 Mn 0.00011 0.92772 0.00040
 C87 C 0.06086 0.91622 0.12937
 C88 C -0.06091 0.91613 0.12922
 N89 N -0.02874 1.07244 0.06715
 N90 N -0.04862 1.09889 0.07721
 N91 N 0.02885 1.04410 0.11022
 N92 N 0.04861 1.05048 0.15083
 N93 N 0.02896 1.07242 0.06735
 N94 N 0.04881 1.09891 0.07762
 N95 N -0.02878 1.04411 0.11003
 N96 N -0.04867 1.05047 0.15044
 Mn97 Mn 0.00020 1.07287 0.00040
 Mn98 Mn 0.00001 1.00035 0.11077
 Cl99 Cl 0.00015 1.00029 0.00040
 C100 C -0.06088 1.08451 0.12901
 C101 C 0.06091 1.08454 0.12955
 N102 N 0.47100 0.42760 -0.06699
 N103 N 0.45114 0.40111 -0.07710
 N104 N 0.52865 0.45598 -0.11019
 N105 N 0.54849 0.44970 -0.15075
 N106 N 0.52870 0.42763 -0.06735
 N107 N 0.54859 0.40124 -0.07758
 N108 N 0.47101 0.45596 -0.10981
 N109 N 0.45119 0.44959 -0.15023
 C110 C 0.43894 0.41551 -0.12888
 C111 C 0.56077 0.41567 -0.12946
 N112 N 0.52875 0.57183 -0.06713
 N113 N 0.54861 0.59830 -0.07738
 N114 N 0.47104 0.54347 -0.10964
 N115 N 0.45117 0.54979 -0.14994
 N116 N 0.47105 0.57180 -0.06670
 N117 N 0.45116 0.59822 -0.07660
 N118 N 0.52868 0.54349 -0.11005
 N119 N 0.54847 0.54985 -0.15069
 Mn120 Mn 0.49985 0.49972 -0.11057
 C121 C 0.56076 0.58392 -0.12937
 C122 C 0.43892 0.58382 -0.12838
 N123 N 0.52879 0.42759 0.06635
 N124 N 0.54864 0.40113 0.07635
 N125 N 0.47115 0.45591 0.10965
 N126 N 0.45130 0.44961 0.15016
 N127 N 0.47109 0.42758 0.06671
 N128 N 0.45117 0.40118 0.07683
 N129 N 0.52879 0.45593 0.10928
 N130 N 0.54863 0.44957 0.14965
 Mn131 Mn 0.49989 0.42713 -0.00032
 C132 C 0.56086 0.41552 0.12817
 C133 C 0.43900 0.41559 0.12875
 N134 N 0.47113 0.57178 0.06699
 N135 N 0.45129 0.59824 0.07735
 N136 N 0.52882 0.54345 0.10941
 N137 N 0.54869 0.54977 0.14973
 N138 N 0.52883 0.57179 0.06657
 N139 N 0.54873 0.59823 0.07656
 N140 N 0.47118 0.54343 0.10982
 N141 N 0.45139 0.54977 0.15049
 Mn142 Mn 0.49994 0.57227 -0.00006
 Mn143 Mn 0.49999 0.49968 0.11018
 Cl144 Cl 0.49992 0.49970 -0.00019
 C145 C 0.43914 0.58383 0.12928
 C146 C 0.56096 0.58382 0.12830
 C147 C 0.34103 0.28706 0.31053
 C148 C 0.33824 0.32731 0.29068
 C149 C 0.31589 0.35047 0.31086
 C150 C 0.29666 0.33371 0.35166
 C151 C 0.29960 0.29354 0.37293
 C152 C 0.32184 0.27023 0.35132
 C153 C 0.35904 0.34549 0.25228
 C154 C 0.37686 0.36106 0.22163
 C155 C 0.39813 0.37968 0.18750
 C156 C 0.41662 0.39590 0.15985
 H157 H 0.35832 0.26890 0.29536
 H158 H 0.31358 0.38171 0.29595
 H159 H 0.27980 0.35247 0.36740
 H160 H 0.32471 0.23923 0.36680
 C161 C -0.18371 0.85062 0.31209
 C162 C -0.16133 0.82754 0.29199
 C163 C -0.15847 0.78735 0.31197
 C164 C -0.17762 0.77048 0.35283
 C165 C -0.19995 0.79371 0.37464
 C166 C -0.20291 0.83390 0.35295
 C167 C -0.14058 0.84573 0.25341
 C168 C -0.12282 0.86133 0.22260
 C169 C -0.10163 0.88002 0.18826
 C170 C -0.08321 0.89631 0.16045
 H171 H -0.18607 0.88182 0.29700
 H172 H -0.14117 0.76923 0.29679
 H173 H -0.17458 0.73947 0.36811
 H174 H -0.21978 0.85281 0.36832
 C175 C 0.68402 0.64928 0.30955
 C176 C 0.66163 0.67238 0.28963
 C177 C 0.65878 0.71261 0.30966
 C178 C 0.67794 0.72947 0.35039
 C179 C 0.70021 0.70622 0.37176
 C180 C 0.70322 0.66607 0.35028
 C181 C 0.64085 0.65414 0.25133
 C182 C 0.62306 0.63852 0.22078
 C183 C 0.60180 0.61983 0.18678
 C184 C 0.58333 0.60356 0.15925
 H185 H 0.68638 0.61806 0.29450
 H186 H 0.64146 0.73071 0.29469
 H187 H 0.67502 0.76045 0.36603
 H188 H 0.72011 0.64736 0.36583
 C189 C 0.15831 1.21290 0.31310
 C190 C 0.16115 1.17274 0.29287
 C191 C 0.18347 1.14956 0.31283
 C192 C 0.20264 1.16617 0.35380
 C193 C 0.19970 1.20634 0.37573
 C194 C 0.17742 1.22965 0.35407
 C195 C 0.14043 1.15466 0.25416
 C196 C 0.12272 1.13915 0.22323
 C197 C 0.10156 1.12056 0.18876
 C198 C 0.08317 1.10432 0.16086
 H199 H 0.14105 1.23108 0.29804
 H200 H 0.18582 1.11838 0.29755
 H201 H 0.21946 1.14720 0.36905
 H202 H 0.17440 1.26065 0.36954
 C203 C 0.68377 0.35073 -0.31203
 C204 C 0.66141 0.32754 -0.29190
 C205 C 0.65860 0.28729 -0.31187
 C206 C 0.67779 0.27049 -0.35271
 C207 C 0.70004 0.29383 -0.37424
 C208 C 0.70299 0.33401 -0.35286
 C209 C 0.64062 0.34568 -0.25341
 C210 C 0.62283 0.36122 -0.22266
 C211 C 0.60159 0.37980 -0.18841
 C212 C 0.58312 0.39600 -0.16067
 H213 H 0.68609 0.38197 -0.29703
 H214 H 0.64131 0.26911 -0.29674
 H215 H 0.67491 0.23949 -0.36826
 H216 H 0.71986 0.35279 -0.36854
 C217 C 0.18385 0.85049 -0.31143
 C218 C 0.16145 0.82739 -0.29138
 C219 C 0.15856 0.78720 -0.31149
 C220 C 0.17769 0.77036 -0.35244
 C221 C 0.20004 0.79360 -0.37419
 C222 C 0.20303 0.83378 -0.35237
 C223 C 0.14072 0.84556 -0.25273
 C224 C 0.12299 0.86116 -0.22187
 C225 C 0.10181 0.87983 -0.18749
 C226 C 0.08341 0.89614 -0.15966
 H227 H 0.18624 0.88168 -0.29624
 H228 H 0.14125 0.76908 -0.29636
 H229 H 0.17462 0.73935 -0.36782
 H230 H 0.21991 0.85270 -0.36770
 C231 C 0.31592 0.64921 -0.30953
 C232 C 0.33832 0.67232 -0.28951
 C233 C 0.34120 0.71256 -0.30942
 C234 C 0.32206 0.72941 -0.35013
 C235 C 0.29978 0.70615 -0.37159
 C236 C 0.29674 0.66599 -0.35024
 C237 C 0.35908 0.65410 -0.25124
 C238 C 0.37686 0.63848 -0.22072
 C239 C 0.39810 0.61981 -0.18675
 C240 C 0.41657 0.60355 -0.15926
 H241 H 0.31354 0.61798 -0.29457
 H242 H 0.35852 0.73067 -0.29438
 H243 H 0.32500 0.76039 -0.36567
 H244 H 0.27984 0.64727 -0.36586
 C245 C -0.15783 1.21268 -0.31210
 C246 C -0.16069 1.17249 -0.29192
 C247 C -0.18303 1.14927 -0.31194
 C248 C -0.20220 1.16590 -0.35284
 C249 C -0.19920 1.20602 -0.37438
 C250 C -0.17696 1.22938 -0.35299
 C251 C -0.13998 1.15445 -0.25327
 C252 C -0.12227 1.13896 -0.22237
 C253 C -0.10113 1.12040 -0.18792
 C254 C -0.08276 1.10419 -0.16004
 H255 H -0.14055 1.23088 -0.29706
 H256 H -0.18540 1.11808 -0.29679
 H257 H -0.21907 1.14710 -0.36840
 H258 H -0.17405 1.26034 -0.36868
 C259 C 0.65838 0.71249 -0.31228
 C260 C 0.66121 0.67227 -0.29231
 C261 C 0.68358 0.64914 -0.31243
 C262 C 0.70281 0.66590 -0.35323
 C263 C 0.69985 0.70606 -0.37457
 C264 C 0.67757 0.72933 -0.35308
 C265 C 0.64044 0.65411 -0.25374
 C266 C 0.62268 0.63855 -0.22291
 C267 C 0.60149 0.61993 -0.18852
 C268 C 0.58306 0.60368 -0.16067
 H269 H 0.64108 0.73063 -0.29717
 H270 H 0.68592 0.61792 -0.29743
 H271 H 0.71971 0.64716 -0.36888
 H272 H 0.67469 0.76031 -0.36861
 C273 C 0.18382 1.14956 -0.31197
 C274 C 0.16152 1.17274 -0.29164
 C275 C 0.15865 1.21291 -0.31168
 C276 C 0.17770 1.22967 -0.35287
 C277 C 0.19994 1.20636 -0.37493
 C278 C 0.20292 1.16619 -0.35316
 C279 C 0.14083 1.15463 -0.25283
 C280 C 0.12312 1.13908 -0.22187
 C281 C 0.10195 1.12046 -0.18742
 C282 C 0.08354 1.10419 -0.15957
 H283 H 0.18618 1.11838 -0.29684
 H284 H 0.14141 1.23108 -0.29632
 H285 H 0.17466 1.26068 -0.36820
 H286 H 0.21972 1.14722 -0.36872
 C287 C 0.34125 0.28698 -0.31137
 C288 C 0.33843 0.32719 -0.29120
 C289 C 0.31607 0.35036 -0.31107
 C290 C 0.29684 0.33365 -0.35182
 C291 C 0.29979 0.29351 -0.37337
 C292 C 0.32205 0.27020 -0.35212
 C293 C 0.35921 0.34531 -0.25272
 C294 C 0.37698 0.36085 -0.22198
 C295 C 0.39819 0.37947 -0.18773
 C296 C 0.41662 0.39573 -0.16000
 H297 H 0.35854 0.26882 -0.29645
 H298 H 0.31374 0.38156 -0.29591
 H299 H 0.27996 0.35242 -0.36728
 H300 H 0.32493 0.23923 -0.36782
 C301 C -0.18335 0.85103 -0.31134
 C302 C -0.16102 0.82787 -0.29126
 C303 C -0.15814 0.78767 -0.31140
 C304 C -0.17724 0.77089 -0.35237
 C305 C -0.19946 0.79419 -0.37386
 C306 C -0.20248 0.83432 -0.35231
 C307 C -0.14031 0.84601 -0.25265
 C308 C -0.12258 0.86156 -0.22182
 C309 C -0.10140 0.88017 -0.18751
 C310 C -0.08297 0.89640 -0.15974
 H311 H -0.18571 0.88223 -0.29620
 H312 H -0.14088 0.76952 -0.29631
 H313 H -0.17432 0.73992 -0.36806
 H314 H -0.21933 0.85308 -0.36795
 C315 C 0.31635 0.64908 0.31247
 C316 C 0.33876 0.67219 0.29244
 C317 C 0.34164 0.71241 0.31252
 C318 C 0.32245 0.72925 0.35335
 C319 C 0.30014 0.70599 0.37475
 C320 C 0.29714 0.66584 0.35329
 C321 C 0.35951 0.65403 0.25384
 C322 C 0.37726 0.63846 0.22298
 C323 C 0.39844 0.61983 0.18856
 C324 C 0.41685 0.60359 0.16066
 H325 H 0.31398 0.61786 0.29738
 H326 H 0.35896 0.73054 0.29748
 H327 H 0.32537 0.76023 0.36897
 H328 H 0.28022 0.64711 0.36887
 C329 C -0.18383 1.14971 0.31139
 C330 C -0.16149 1.17288 0.29125
 C331 C -0.15866 1.21309 0.31126
 C332 C -0.17779 1.22990 0.35222
 C333 C -0.20007 1.20658 0.37410
 C334 C -0.20302 1.16637 0.35235
 C335 C -0.14072 1.15473 0.25270
 C336 C -0.12294 1.13917 0.22195
 C337 C -0.10171 1.12053 0.18774
 C338 C -0.08324 1.10427 0.16007
 H339 H -0.18618 1.11849 0.29628
 H340 H -0.14138 1.23126 0.29605
 H341 H -0.17476 1.26093 0.36755
 H342 H -0.21985 1.14740 0.36777
 C343 C 0.65858 0.28706 0.31005
 C344 C 0.66140 0.32728 0.28999
 C345 C 0.68378 0.35047 0.30991
 C346 C 0.70300 0.33379 0.35061
 C347 C 0.70004 0.29365 0.37208
 C348 C 0.67777 0.27031 0.35076
 C349 C 0.64062 0.34538 0.25160
 C350 C 0.62285 0.36091 0.22095
 C351 C 0.60163 0.37952 0.18681
 C352 C 0.58318 0.39576 0.15918
 H353 H 0.64128 0.26888 0.29509
 H354 H 0.68612 0.38168 0.29484
 H355 H 0.71989 0.35258 0.36613
 H356 H 0.67488 0.23934 0.36639
 C357 C 0.18347 0.85104 0.31199
 C358 C 0.16110 0.82790 0.29186
 C359 C 0.15819 0.78770 0.31189
 C360 C 0.17727 0.77089 0.35278
 C361 C 0.19953 0.79418 0.37431
 C362 C 0.20259 0.83431 0.35288
 C363 C 0.14041 0.84607 0.25332
 C364 C 0.12270 0.86163 0.22255
 C365 C 0.10154 0.88026 0.18829
 C366 C 0.08314 0.89650 0.16054
 H367 H 0.18587 0.88225 0.29695
 H368 H 0.14089 0.76957 0.29676
 H369 H 0.17431 0.73993 0.36838
 H370 H 0.21947 0.85305 0.36856
   
