data_POSCAR
  _audit_creation_date              2014-09-24
  _audit_creation_method            'ToBaCCo'
  _symmetry_space_group_name_H-M    'P1'
  _symmetry_Int_Tables_number       1
  _symmetry_cell_setting            triclinic
  loop_
  _symmetry_equiv_pos_as_xyz
 x,y,z
_cell_length_a 32.1874
_cell_length_b 31.7197
_cell_length_c 31.9721
_cell_angle_alpha 90.710100
_cell_angle_beta 88.357000
_cell_angle_gamma 88.669900
loop_
  _atom_site_label
  _atom_site_type_symbol
  _atom_site_fract_x
  _atom_site_fract_y
  _atom_site_fract_z
C1 C 0.29097 0.23448 0.24171
 C2 C 0.27181 0.21580 0.27657
 C3 C 0.23401 0.23169 0.29232
 C4 C 0.21515 0.26681 0.27376
 C5 C 0.23423 0.28541 0.23955
 C6 C 0.27217 0.26894 0.22321
 C7 C 0.32684 0.22479 0.21873
 N8 N 0.32991 0.25238 0.18677
 C9 C 0.29672 0.27946 0.18917
 C10 C 0.20937 0.31905 0.22841
 N11 N 0.17571 0.32110 0.25487
 C12 C 0.17879 0.28931 0.28269
 C13 C 0.22242 0.20697 0.32555
 N14 N 0.25231 0.17669 0.33028
 C15 C 0.28269 0.18183 0.30065
 H16 H 0.34845 0.19893 0.22416
 H17 H 0.29061 0.30445 0.16725
 H18 H 0.21533 0.34067 0.20311
 H19 H 0.15659 0.28340 0.30787
 H20 H 0.19443 0.21080 0.34492
 H21 H 0.31046 0.16207 0.29684
 C22 C 0.70709 -0.23094 0.22292
 C23 C 0.72530 -0.21260 0.25784
 C24 C 0.76091 -0.23065 0.27385
 C25 C 0.77897 -0.26697 0.25499
 C26 C 0.76110 -0.28513 0.22048
 C27 C 0.72493 -0.26689 0.20424
 C28 C 0.67229 -0.22042 0.20097
 N29 N 0.66871 -0.24904 0.16944
 C30 C 0.70083 -0.27743 0.17097
 C31 C 0.78500 -0.32029 0.20923
 N32 N 0.81685 -0.32353 0.23605
 C33 C 0.81356 -0.29103 0.26398
 C34 C 0.77135 -0.20676 0.30798
 N35 N 0.74319 -0.17451 0.31271
 C36 C 0.71485 -0.17769 0.28231
 H37 H 0.65140 -0.19372 0.20728
 H38 H 0.70614 -0.30379 0.14948
 H39 H 0.77962 -0.34177 0.18348
 H40 H 0.83465 -0.28556 0.28917
 H41 H 0.79750 -0.21225 0.32792
 H42 H 0.68847 -0.15645 0.27852
 C43 C 0.72081 0.23454 0.76760
 C44 C 0.74002 0.21638 0.73165
 C45 C 0.77582 0.23343 0.71473
 C46 C 0.79315 0.26864 0.73390
 C47 C 0.77425 0.28658 0.76953
 C48 C 0.73781 0.26935 0.78655
 C49 C 0.68563 0.22465 0.79044
 N50 N 0.68093 0.25256 0.82282
 C51 C 0.71275 0.27989 0.82094
 C52 C 0.79753 0.32055 0.78087
 N53 N 0.83017 0.32318 0.75325
 C54 C 0.82770 0.29174 0.72433
 C55 C 0.78717 0.20979 0.67965
 N56 N 0.75919 0.17885 0.67525
 C57 C 0.73037 0.18244 0.70690
 H58 H 0.66528 0.19877 0.78417
 H59 H 0.71727 0.30546 0.84299
 H60 H 0.79120 0.34186 0.80712
 H61 H 0.84912 0.28634 0.69798
 H62 H 0.81381 0.21462 0.65899
 H63 H 0.70417 0.16199 0.71128
 C64 C 0.28347 -0.23666 0.77174
 C65 C 0.26628 -0.21933 0.73580
 C66 C 0.23172 -0.23719 0.71859
 C67 C 0.21377 -0.27245 0.73722
 C68 C 0.23080 -0.28958 0.77264
 C69 C 0.26573 -0.27147 0.79010
 C70 C 0.31712 -0.22619 0.79503
 N71 N 0.31983 -0.25357 0.82717
 C72 C 0.28863 -0.28143 0.82444
 C73 C 0.20735 -0.32360 0.78377
 N74 N 0.17649 -0.32732 0.75600
 C75 C 0.17996 -0.29611 0.72755
 C76 C 0.22188 -0.21403 0.68398
 N77 N 0.24951 -0.18260 0.68003
 C78 C 0.27668 -0.18540 0.71156
 H79 H 0.33813 -0.20061 0.78910
 H80 H 0.28320 -0.30730 0.84551
 H81 H 0.21222 -0.34384 0.81027
 H82 H 0.15945 -0.29115 0.70171
 H83 H 0.19631 -0.21940 0.66347
 H84 H 0.30206 -0.16422 0.71639
 C85 C 0.70903 -0.23367 0.76126
 C86 C 0.72809 -0.21537 0.72616
 C87 C 0.76621 -0.23092 0.71093
 C88 C 0.78552 -0.26528 0.73032
 C89 C 0.76653 -0.28354 0.76478
 C90 C 0.72822 -0.26743 0.78054
 C91 C 0.67273 -0.22428 0.78357
 N92 N 0.66967 -0.25145 0.81593
 C93 C 0.70342 -0.27790 0.81443
 C94 C 0.79160 -0.31684 0.77641
 N95 N 0.82534 -0.31898 0.74999
 C96 C 0.82200 -0.28762 0.72169
 C97 C 0.77749 -0.20678 0.67717
 N98 N 0.74704 -0.17732 0.67154
 C99 C 0.71672 -0.18220 0.70129
 H100 H 0.65078 -0.19893 0.77730
 H101 H 0.70972 -0.30245 0.83678
 H102 H 0.78553 -0.33835 0.80179
 H103 H 0.84389 -0.28206 0.69613
 H104 H 0.80572 -0.21025 0.65808
 H105 H 0.68869 -0.16281 0.70481
 C106 C 0.29276 0.23193 0.77632
 C107 C 0.27593 0.21345 0.74065
 C108 C 0.24085 0.23134 0.72333
 C109 C 0.22197 0.26763 0.74152
 C110 C 0.23856 0.28586 0.77666
 C111 C 0.27407 0.26781 0.79426
 C112 C 0.32672 0.22176 0.79976
 N113 N 0.32866 0.25033 0.83156
 C114 C 0.29670 0.27867 0.82845
 C115 C 0.21403 0.32068 0.78737
 N116 N 0.18299 0.32369 0.75969
 C117 C 0.18741 0.29139 0.73164
 C118 C 0.23149 0.20712 0.68907
 N119 N 0.25974 0.17484 0.68547
 C120 C 0.28710 0.17832 0.71676
 H121 H 0.34842 0.19555 0.79418
 H122 H 0.29056 0.30545 0.84920
 H123 H 0.21824 0.34200 0.81351
 H124 H 0.16697 0.28579 0.70594
 H125 H 0.20588 0.21230 0.66837
 H126 H 0.31318 0.15698 0.72168
 C127 C 0.27732 -0.23388 0.22947
 C128 C 0.26043 -0.21761 0.26739
 C129 C 0.22565 -0.23555 0.28566
 C130 C 0.20704 -0.26977 0.26592
 C131 C 0.22342 -0.28541 0.22817
 C132 C 0.25882 -0.26746 0.20992
 C133 C 0.31166 -0.22368 0.20535
 N134 N 0.31417 -0.25014 0.17166
 C135 C 0.28201 -0.27701 0.17409
 C136 C 0.19922 -0.31836 0.21615
 N137 N 0.16861 -0.32303 0.24569
 C138 C 0.17320 -0.29369 0.27637
 C139 C 0.21611 -0.21320 0.32202
 N140 N 0.24410 -0.18217 0.32589
 C141 C 0.27128 -0.18454 0.29273
 H142 H 0.33353 -0.19921 0.21201
 H143 H 0.27635 -0.30222 0.15200
 H144 H 0.20387 -0.33773 0.18823
 H145 H 0.15337 -0.29010 0.30419
 H146 H 0.19033 -0.21860 0.34362
 H147 H 0.29679 -0.16343 0.28737
 C148 C 0.71661 0.23501 0.23056
 C149 C 0.73495 0.21759 0.26583
 C150 C 0.76973 0.23570 0.28227
 C151 C 0.78680 0.27129 0.26344
 C152 C 0.76870 0.28849 0.22858
 C153 C 0.73346 0.27014 0.21194
 C154 C 0.68254 0.22418 0.20811
 N155 N 0.67855 0.25178 0.17635
 C156 C 0.70955 0.27989 0.17824
 C157 C 0.79150 0.32290 0.21720
 N158 N 0.82296 0.32676 0.24426
 C159 C 0.82052 0.29529 0.27251
 C160 C 0.78062 0.21247 0.31652
 N161 N 0.75337 0.18075 0.32094
 C162 C 0.72545 0.18344 0.29010
 H163 H 0.66235 0.19801 0.21423
 H164 H 0.71417 0.30554 0.15669
 H165 H 0.78571 0.34338 0.19107
 H166 H 0.84165 0.29041 0.29785
 H167 H 0.80655 0.21804 0.33650
 H168 H 0.70009 0.16211 0.28583
 O169 O 0.21860 0.04096 0.46759
 O170 O 0.21709 -0.04189 0.54701
 O171 O 0.22115 0.03954 0.54881
 O172 O 0.21511 -0.04109 0.46555
 O173 O 0.28371 -0.04703 0.46264
 O174 O 0.28979 0.03587 0.54368
 O175 O 0.28576 -0.04629 0.54359
 O176 O 0.28711 0.03488 0.46218
 Cu177 Cu 0.21106 -0.00013 0.50757
 Cu178 Cu 0.29353 -0.00605 0.50264
 C179 C 0.25305 0.05179 0.45125
 C180 C 0.25114 -0.05797 0.55890
 C181 C 0.25648 0.05149 0.56021
 C182 C 0.24841 -0.05797 0.45026
 O183 O 0.78941 0.03828 0.53518
 O184 O 0.78324 -0.04162 0.45129
 O185 O 0.78748 0.03978 0.45368
 O186 O 0.78555 -0.04368 0.53255
 O187 O 0.71705 -0.03731 0.53779
 O188 O 0.71881 0.04432 0.45706
 O189 O 0.71460 -0.03770 0.45634
 O190 O 0.72081 0.04445 0.53792
 Cu191 Cu 0.79337 -0.00233 0.49285
 Cu192 Cu 0.71087 0.00387 0.49765
 C193 C 0.75612 0.05513 0.55050
 C194 C 0.74788 -0.05328 0.43973
 C195 C 0.75345 0.05600 0.44186
 C196 C 0.75099 -0.05443 0.54871
 O197 O 0.46450 0.21639 0.04299
 O198 O 0.54562 0.21693 -0.04041
 O199 O 0.54537 0.21619 0.04063
 O200 O 0.46445 0.21664 -0.03832
 O201 O 0.46311 0.28635 -0.03731
 O202 O 0.54355 0.28593 0.04224
 O203 O 0.54398 0.28665 -0.03926
 O204 O 0.46305 0.28611 0.04446
 Cu205 Cu 0.50510 0.20950 0.00101
 Cu206 Cu 0.50320 0.29331 0.00259
 C207 C 0.45023 0.25117 0.05803
 C208 C 0.55867 0.25185 -0.05383
 C209 C 0.55807 0.25096 0.05488
 C210 C 0.45011 0.25157 -0.05123
 O211 O 0.53421 0.78489 0.03709
 O212 O 0.45372 0.78314 -0.04234
 O213 O 0.45299 0.78395 0.03865
 O214 O 0.53464 0.78436 -0.04424
 O215 O 0.53713 0.71464 -0.04472
 O216 O 0.45569 0.71424 0.03840
 O217 O 0.45662 0.71341 -0.04295
 O218 O 0.53653 0.71518 0.03699
 Cu219 Cu 0.49372 0.79114 -0.00261
 Cu220 Cu 0.49683 0.70733 -0.00304
 C221 C 0.54898 0.75033 0.05050
 C222 C 0.44155 0.74795 -0.05607
 C223 C 0.44031 0.74901 0.05234
 C224 C 0.54955 0.74959 -0.05866
 O225 O 0.03991 0.45768 0.21317
 O226 O -0.04128 0.54076 0.20632
 O227 O 0.03949 0.53973 0.21093
 O228 O -0.04044 0.45869 0.20917
 O229 O -0.04553 0.46144 0.27827
 O230 O 0.03276 0.54408 0.27987
 O231 O -0.04779 0.54286 0.27536
 O232 O 0.03535 0.46188 0.28223
 Cu233 Cu 0.00002 0.49896 0.20292
 Cu234 Cu -0.00676 0.50286 0.28592
 C235 C 0.05147 0.44583 0.24884
 C236 C -0.05857 0.55556 0.23971
 C237 C 0.04947 0.55580 0.24566
 C238 C -0.05647 0.44632 0.24347
 O239 O 0.03864 0.54212 0.79095
 O240 O -0.04114 0.46085 0.78962
 O241 O 0.03954 0.46006 0.79201
 O242 O -0.04190 0.54324 0.78855
 O243 O -0.03806 0.54116 0.71940
 O244 O 0.04386 0.45861 0.72286
 O245 O -0.03712 0.45917 0.72047
 O246 O 0.04282 0.54014 0.72179
 Cu247 Cu -0.00171 0.50173 0.79727
 Cu248 Cu 0.00318 0.49956 0.71415
 C249 C 0.05435 0.55474 0.75660
 C250 C -0.05259 0.44621 0.75479
 C251 C 0.05569 0.44548 0.75800
 C252 C -0.05370 0.55632 0.75339
 C253 C 0.39528 0.21183 0.10813
 C254 C 0.40275 0.22586 0.15387
 C255 C 0.36192 0.25168 0.15354
 C256 C 0.35371 0.23760 0.10860
 C257 C 0.38436 0.29097 0.13836
 C258 C 0.42588 0.26515 0.13780
 C259 C 0.41805 0.25106 0.09252
 C260 C 0.37692 0.27681 0.09263
 H261 H 0.40002 0.17934 0.09531
 H262 H 0.41314 0.20505 0.17938
 H263 H 0.32354 0.22633 0.09740
 H264 H 0.37930 0.32332 0.15144
 H265 H 0.45595 0.27644 0.14927
 H266 H 0.36672 0.29765 0.06705
 C267 C 0.57428 0.73687 0.12828
 C268 C 0.61607 0.71150 0.12546
 C269 C 0.63820 0.75113 0.13988
 C270 C 0.59710 0.77650 0.14363
 C271 C 0.64586 0.76519 0.09476
 C272 C 0.62288 0.72565 0.07953
 C273 C 0.58147 0.75094 0.08281
 C274 C 0.60398 0.79048 0.09770
 H275 H 0.54448 0.72527 0.14155
 H276 H 0.62157 0.67921 0.13744
 H277 H 0.58652 0.79728 0.17021
 H278 H 0.67577 0.77676 0.08174
 H279 H 0.63301 0.70483 0.05281
 H280 H 0.59871 0.82288 0.08592
 C281 C 0.63235 0.27671 -0.08499
 C282 C 0.65700 0.23721 -0.10195
 C283 C 0.64981 0.25236 -0.14647
 C284 C 0.62604 0.29198 -0.13036
 C285 C 0.60961 0.22760 -0.14928
 C286 C 0.61603 0.21251 -0.10395
 C287 C 0.59184 0.25200 -0.08734
 C288 C 0.58512 0.26718 -0.13222
 H289 H 0.64120 0.29680 -0.05816
 H290 H 0.68704 0.22496 -0.09028
 H291 H 0.63074 0.32446 -0.14183
 H292 H 0.60019 0.20753 -0.17589
 H293 H 0.61162 0.17989 -0.09274
 H294 H 0.55518 0.27945 -0.14414
 C295 C 0.39493 0.70756 -0.11155
 C296 C 0.34888 0.72105 -0.10263
 C297 C 0.35014 0.74649 -0.14309
 C298 C 0.39537 0.73292 -0.15277
 C299 C 0.36338 0.78625 -0.11980
 C300 C 0.36305 0.76081 -0.07868
 C301 C 0.40864 0.74723 -0.08790
 C302 C 0.40944 0.77259 -0.12865
 H303 H 0.40828 0.67528 -0.10788
 H304 H 0.32381 0.69997 -0.09189
 H305 H 0.40787 0.72149 -0.18369
 H306 H 0.34980 0.81839 -0.12374
 H307 H 0.35031 0.77224 -0.04784
 H308 H 0.43472 0.79368 -0.13886
 C309 C 0.10665 0.39894 0.29131
 C310 C 0.10118 0.35206 0.27872
 C311 C 0.14265 0.35327 0.25401
 C312 C 0.14890 0.39935 0.26670
 C313 C 0.12089 0.36628 0.21402
 C314 C 0.07872 0.36594 0.23867
 C315 C 0.08457 0.41235 0.25134
 C316 C 0.12636 0.41310 0.22674
 H317 H 0.10049 0.41277 0.32301
 H318 H 0.09110 0.32663 0.29999
 H319 H 0.17827 0.41229 0.27819
 H320 H 0.12733 0.35224 0.18246
 H321 H 0.04947 0.35272 0.22715
 H322 H 0.13628 0.43859 0.20544
 C323 C 0.10033 0.61216 0.79577
 C324 C 0.14658 0.60284 0.78332
 C325 C 0.14602 0.64269 0.75668
 C326 C 0.10060 0.65280 0.76919
 C327 C 0.13346 0.61783 0.71784
 C328 C 0.13309 0.57732 0.74449
 C329 C 0.08730 0.58696 0.75702
 C330 C 0.08721 0.62711 0.73045
 H331 H 0.08631 0.60953 0.82773
 H332 H 0.17119 0.59282 0.80495
 H333 H 0.08803 0.68430 0.77930
 H334 H 0.14768 0.62071 0.68599
 H335 H 0.14591 0.54591 0.73437
 H336 H 0.06241 0.63662 0.70882
 C337 C -0.10496 0.61244 0.19798
 C338 C -0.15136 0.60475 0.20939
 C339 C -0.15224 0.64548 0.23572
 C340 C -0.10675 0.65403 0.22420
 C341 C -0.14007 0.62163 0.27507
 C342 C -0.13824 0.58020 0.24879
 C343 C -0.09237 0.58829 0.23732
 C344 C -0.09380 0.62938 0.26350
 H345 H -0.09009 0.60832 0.16639
 H346 H -0.17527 0.59473 0.18723
 H347 H -0.09460 0.68487 0.21412
 H348 H -0.15510 0.62594 0.30657
 H349 H -0.15064 0.54947 0.25890
 H350 H -0.06976 0.63907 0.28566
 C351 C -0.07732 0.36791 0.77033
 C352 C -0.12036 0.37062 0.79343
 C353 C -0.14004 0.35388 0.75363
 C354 C -0.09767 0.35023 0.73057
 C355 C -0.14775 0.39854 0.73754
 C356 C -0.12721 0.41612 0.77725
 C357 C -0.08455 0.41293 0.75423
 C358 C -0.10462 0.39570 0.71454
 H359 H -0.04799 0.35583 0.78377
 H360 H -0.12732 0.35971 0.82568
 H361 H -0.08559 0.32287 0.71154
 H362 H -0.17717 0.41035 0.72412
 H363 H -0.13888 0.44360 0.79635
 H364 H -0.09787 0.40638 0.68217
 C365 C 0.24268 0.13191 0.42780
 C366 C 0.28047 0.14421 0.39966
 C367 C 0.25218 0.14398 0.36196
 C368 C 0.21437 0.13250 0.38939
 C369 C 0.26280 0.09744 0.35243
 C370 C 0.29105 0.09692 0.39094
 C371 C 0.25332 0.08508 0.41871
 C372 C 0.22510 0.08523 0.38064
 H373 H 0.23451 0.14561 0.45917
 H374 H 0.30305 0.16904 0.40678
 H375 H 0.18284 0.14729 0.38844
 H376 H 0.27097 0.08398 0.32098
 H377 H 0.32251 0.08194 0.39190
 H378 H 0.20244 0.06057 0.37321
 C379 C 0.73153 0.08826 0.62456
 C380 C 0.77028 0.10025 0.64936
 C381 C 0.75947 0.14681 0.64216
 C382 C 0.72067 0.13555 0.61812
 C383 C 0.78626 0.14720 0.60176
 C384 C 0.79700 0.09982 0.60815
 C385 C 0.75820 0.08820 0.58382
 C386 C 0.74740 0.13508 0.57703
 H387 H 0.70910 0.06364 0.63349
 H388 H 0.77964 0.08674 0.67963
 H389 H 0.68948 0.15083 0.62282
 H390 H 0.80865 0.17179 0.59269
 H391 H 0.82830 0.08472 0.60370
 H392 H 0.73802 0.14888 0.54689
 C393 C 0.26260 -0.13789 0.58268
 C394 C 0.28860 -0.13793 0.62277
 C395 C 0.24965 -0.15032 0.64795
 C396 C 0.22364 -0.15115 0.60854
 C397 C 0.23754 -0.10407 0.65700
 C398 C 0.27642 -0.09090 0.63104
 C399 C 0.25048 -0.09132 0.59133
 C400 C 0.21159 -0.10414 0.61686
 H401 H 0.27288 -0.15128 0.55174
 H402 H 0.32006 -0.15244 0.62582
 H403 H 0.20202 -0.17621 0.59946
 H404 H 0.22728 -0.09096 0.68804
 H405 H 0.29804 -0.06573 0.63984
 H406 H 0.17998 -0.08988 0.61416
 C407 C 0.77144 -0.12716 0.40433
 C408 C 0.73224 -0.15105 0.39149
 C409 C 0.74352 -0.14232 0.34562
 C410 C 0.78276 -0.11919 0.35769
 C411 C 0.71758 -0.10116 0.34662
 C412 C 0.70638 -0.10912 0.39333
 C413 C 0.74562 -0.08569 0.40579
 C414 C 0.75688 -0.07736 0.35958
 H415 H 0.79352 -0.13743 0.42845
 H416 H 0.72213 -0.18185 0.40380
 H417 H 0.81396 -0.12390 0.34243
 H418 H 0.69555 -0.09077 0.32253
 H419 H 0.67506 -0.10466 0.40840
 H420 H 0.76701 -0.04668 0.34699
 C421 C 0.60399 0.78918 -0.10903
 C422 C 0.64622 0.76460 -0.10834
 C423 C 0.63890 0.74915 -0.15301
 C424 C 0.59746 0.77380 -0.15456
 C425 C 0.61738 0.70958 -0.13724
 C426 C 0.62385 0.72513 -0.09173
 C427 C 0.58209 0.74971 -0.09276
 C428 C 0.57523 0.73425 -0.13781
 H429 H 0.59820 0.82184 -0.09703
 H430 H 0.67590 0.77701 -0.09703
 H431 H 0.58666 0.79368 -0.18060
 H432 H 0.62345 0.67705 -0.14948
 H433 H 0.63421 0.70523 -0.06550
 H434 H 0.54565 0.72181 -0.14937
 C435 C 0.41979 0.22604 -0.12442
 C436 C 0.37461 0.21158 -0.11605
 C437 C 0.35891 0.25093 -0.13861
 C438 C 0.40327 0.26528 -0.14782
 C439 C 0.35586 0.27657 -0.09762
 C440 C 0.37248 0.23725 -0.07440
 C441 C 0.41721 0.25163 -0.08314
 C442 C 0.40104 0.29087 -0.10606
 H443 H 0.44645 0.20537 -0.13498
 H444 H 0.36316 0.17916 -0.12067
 H445 H 0.41516 0.27674 -0.17846
 H446 H 0.32936 0.29722 -0.08659
 H447 H 0.36033 0.22578 -0.04386
 H448 H 0.41228 0.32341 -0.10168
 C449 C 0.39090 0.70951 0.10785
 C450 C 0.39023 0.73487 0.14971
 C451 C 0.34558 0.74931 0.14125
 C452 C 0.34541 0.72388 0.10017
 C453 C 0.36046 0.78877 0.11872
 C454 C 0.40596 0.77424 0.12632
 C455 C 0.40627 0.74888 0.08494
 C456 C 0.36124 0.76333 0.07694
 H457 H 0.40382 0.67700 0.10311
 H458 H 0.40135 0.72322 0.18011
 H459 H 0.32035 0.70330 0.08936
 H460 H 0.34730 0.82116 0.12374
 H461 H 0.43126 0.79482 0.13660
 H462 H 0.34986 0.77500 0.04664
 C463 C 0.58195 0.26416 0.13323
 C464 C 0.60736 0.22493 0.14726
 C465 C 0.64672 0.25120 0.14484
 C466 C 0.62198 0.29044 0.13166
 C467 C 0.65559 0.23785 0.09921
 C468 C 0.61549 0.21162 0.10088
 C469 C 0.59042 0.25079 0.08729
 C470 C 0.63007 0.27700 0.08527
 H471 H 0.55130 0.27495 0.14670
 H472 H 0.59821 0.20363 0.17303
 H473 H 0.62525 0.32265 0.14492
 H474 H 0.68635 0.22708 0.08602
 H475 H 0.61253 0.17926 0.08785
 H476 H 0.63895 0.29832 0.05940
 C477 C -0.10790 0.60523 0.71225
 C478 C -0.15042 0.60463 0.73636
 C479 C -0.14366 0.65017 0.75049
 C480 C -0.10192 0.65162 0.72629
 C481 C -0.12256 0.63572 0.79036
 C482 C -0.12847 0.58934 0.77616
 C483 C -0.08642 0.59027 0.75205
 C484 C -0.08010 0.63619 0.76617
 H485 H -0.10158 0.59229 0.68022
 H486 H -0.17983 0.59246 0.72414
 H487 H -0.09109 0.67747 0.70592
 H488 H -0.12914 0.64888 0.82226
 H489 H -0.13891 0.56334 0.79657
 H490 H -0.05080 0.64861 0.77841
 C491 C -0.08864 0.37381 0.26987
 C492 C -0.13505 0.38258 0.28209
 C493 C -0.14703 0.35721 0.24337
 C494 C -0.10142 0.34761 0.23124
 C495 C -0.14794 0.39682 0.21639
 C496 C -0.13503 0.42287 0.25512
 C497 C -0.08906 0.41373 0.24298
 C498 C -0.10149 0.38802 0.20432
 H499 H -0.06388 0.36482 0.29175
 H500 H -0.14945 0.37978 0.31387
 H501 H -0.08839 0.31619 0.22146
 H502 H -0.17250 0.40629 0.19449
 H503 H -0.14831 0.45419 0.26491
 H504 H -0.08729 0.39057 0.17243
 C505 C 0.10288 0.38860 0.79830
 C506 C 0.10458 0.34706 0.77206
 C507 C 0.14988 0.35587 0.75992
 C508 C 0.14900 0.39663 0.78621
 C509 C 0.13695 0.37966 0.72078
 C510 C 0.09086 0.37163 0.73298
 C511 C 0.08955 0.41269 0.75920
 C512 C 0.13519 0.42108 0.74705
 H513 H 0.08847 0.39257 0.83010
 H514 H 0.09280 0.31613 0.78231
 H515 H 0.17321 0.40670 0.80799
 H516 H 0.15159 0.37540 0.68911
 H517 H 0.06656 0.36179 0.71118
 H518 H 0.14726 0.45190 0.73679
 C519 C 0.09317 0.61555 0.28452
 C520 C 0.13984 0.60753 0.27292
 C521 C 0.13847 0.64662 0.24537
 C522 C 0.09258 0.65554 0.25703
 C523 C 0.12724 0.62042 0.20687
 C524 C 0.12777 0.58057 0.23446
 C525 C 0.08157 0.58895 0.24612
 C526 C 0.08062 0.62846 0.21866
 H527 H 0.07882 0.61319 0.31636
 H528 H 0.16472 0.59964 0.29504
 H529 H 0.07878 0.68681 0.26618
 H530 H 0.14124 0.62264 0.17487
 H531 H 0.14175 0.54937 0.22528
 H532 H 0.05587 0.63661 0.19647
 C533 C 0.72159 -0.12583 0.58086
 C534 C 0.75884 -0.15450 0.59316
 C535 C 0.74759 -0.14522 0.63929
 C536 C 0.71021 -0.11735 0.62773
 C537 C 0.77619 -0.10734 0.64013
 C538 C 0.78743 -0.11581 0.59327
 C539 C 0.75015 -0.08758 0.58134
 C540 C 0.73887 -0.07874 0.62777
 H541 H 0.69926 -0.13301 0.55607
 H542 H 0.76695 -0.18614 0.57965
 H543 H 0.67845 -0.11831 0.64208
 H544 H 0.79844 -0.10045 0.66507
 H545 H 0.81914 -0.11484 0.57876
 H546 H 0.73076 -0.04720 0.64152
 C547 C 0.25792 -0.13807 0.42379
 C548 C 0.21863 -0.15086 0.40009
 C549 C 0.24440 -0.15018 0.35905
 C550 C 0.28364 -0.13827 0.38204
 C551 C 0.23272 -0.10378 0.35204
 C552 C 0.20703 -0.10365 0.39386
 C553 C 0.24626 -0.09134 0.41717
 C554 C 0.27191 -0.09114 0.37579
 H555 H 0.26828 -0.15165 0.45369
 H556 H 0.19683 -0.17575 0.40979
 H557 H 0.31493 -0.15310 0.37658
 H558 H 0.22239 -0.09047 0.32202
 H559 H 0.17561 -0.08901 0.39903
 H560 H 0.29375 -0.06621 0.36622
 C561 C 0.74198 0.13598 0.41841
 C562 C 0.78057 0.14934 0.39202
 C563 C 0.75400 0.14849 0.35301
 C564 C 0.71542 0.13600 0.37872
 C565 C 0.76607 0.10227 0.34375
 C566 C 0.79260 0.10233 0.38352
 C567 C 0.75407 0.08944 0.40955
 C568 C 0.72757 0.08902 0.37023
 H569 H 0.73210 0.14932 0.44949
 H570 H 0.80226 0.17445 0.40076
 H571 H 0.68388 0.15046 0.37613
 H572 H 0.77593 0.08921 0.31257
 H573 H 0.82427 0.08810 0.38580
 H574 H 0.70587 0.06382 0.36171
 C575 C 0.24691 0.07682 0.64002
 C576 C 0.28603 0.10097 0.65297
 C577 C 0.26000 0.14205 0.65306
 C578 C 0.22095 0.11859 0.64098
 C579 C 0.27170 0.15003 0.60713
 C580 C 0.29765 0.10814 0.60621
 C581 C 0.25860 0.08439 0.59375
 C582 C 0.23269 0.12582 0.59431
 H583 H 0.23673 0.04634 0.65304
 H584 H 0.30785 0.09105 0.67744
 H585 H 0.18960 0.12346 0.65586
 H586 H 0.28186 0.18064 0.59439
 H587 H 0.32911 0.10352 0.59150
 H588 H 0.21084 0.13562 0.56982
   
