data_POSCAR
  _audit_creation_date              2014-09-24
  _audit_creation_method            'ToBaCCo'
  _symmetry_space_group_name_H-M    'P1'
  _symmetry_Int_Tables_number       1
  _symmetry_cell_setting            triclinic
  loop_
  _symmetry_equiv_pos_as_xyz
 x,y,z
_cell_length_a 29.0465
_cell_length_b 28.9534
_cell_length_c 29.0344
_cell_angle_alpha 89.767700
_cell_angle_beta 89.836700
_cell_angle_gamma 89.940200
loop_
  _atom_site_label
  _atom_site_type_symbol
  _atom_site_fract_x
  _atom_site_fract_y
  _atom_site_fract_z
C1 C 0.16353 0.16708 0.22709
 C2 C 0.20149 0.14650 0.20479
 C3 C 0.22245 0.16748 0.16612
 C4 C 0.20633 0.21107 0.15176
 C5 C 0.17081 0.23357 0.17555
 C6 C 0.14973 0.21145 0.21302
 H7 H 0.21430 0.11352 0.21703
 H8 H 0.22066 0.22729 0.12121
 H9 H 0.12274 0.22931 0.23172
 C10 C -0.18105 0.82346 0.24407
 C11 C -0.15711 0.78885 0.21973
 C12 C -0.17422 0.77126 0.17819
 C13 C -0.21565 0.78869 0.16055
 C14 C -0.23952 0.82386 0.18353
 C15 C -0.22162 0.84177 0.22459
 H16 H -0.12462 0.77584 0.23274
 H17 H -0.22955 0.77465 0.12896
 H18 H -0.24079 0.86838 0.24251
 C19 C -0.17637 0.17588 -0.23060
 C20 C -0.21665 0.15664 -0.21129
 C21 C -0.23744 0.17588 -0.17176
 C22 C -0.21442 0.21197 -0.14903
 C23 C -0.17298 0.22975 -0.16621
 C24 C -0.15421 0.21179 -0.20684
 H25 H -0.23303 0.12769 -0.22818
 H26 H -0.22957 0.22787 -0.11883
 H27 H -0.12223 0.22603 -0.21998
 C28 C 0.17539 0.82728 -0.23179
 C29 C 0.15705 0.78591 -0.21455
 C30 C 0.17890 0.76203 -0.17862
 C31 C 0.21895 0.78067 -0.15915
 C32 C 0.23984 0.82038 -0.17806
 C33 C 0.21709 0.84379 -0.21405
 H34 H 0.12569 0.77219 -0.22929
 H35 H 0.23519 0.76246 -0.13083
 H36 H 0.23135 0.87553 -0.22792
 C37 C 0.16856 1.17203 0.77208
 C38 C 0.15257 1.21509 0.78742
 C39 C 0.17441 1.23793 0.82386
 C40 C 0.21330 1.21765 0.84435
 C41 C 0.23133 1.17600 0.82743
 C42 C 0.20829 1.15291 0.79197
 H43 H 0.12296 1.23084 0.77099
 H44 H 0.23002 1.23462 0.87299
 H45 H 0.22169 1.12034 0.77940
 C46 C 0.83613 0.84152 0.78235
 C47 C 0.85711 0.80373 0.80505
 C48 C 0.83496 0.78083 0.84194
 C49 C 0.79114 0.79602 0.85576
 C50 C 0.76948 0.83297 0.83345
 C51 C 0.79197 0.85546 0.79703
 H52 H 0.88945 0.79014 0.79218
 H53 H 0.77403 0.77965 0.88478
 H54 H 0.77514 0.88469 0.78079
 C55 C 0.17388 0.82240 1.24137
 C56 C 0.15529 0.78208 1.22185
 C57 C 0.17293 0.76428 1.18057
 C58 C 0.20821 0.78790 1.15745
 C59 C 0.22601 0.82905 1.17529
 C60 C 0.20854 0.84622 1.21694
 H61 H 0.12865 0.76296 1.23988
 H62 H 0.22217 0.77393 1.12576
 H63 H 0.22184 0.87855 1.23009
 C64 C 0.82799 1.16925 1.23143
 C65 C 0.79103 1.14679 1.20950
 C66 C 0.77382 1.16293 1.16729
 C67 C 0.79390 1.20175 1.14641
 C68 C 0.83204 1.22323 1.16645
 C69 C 0.84921 1.20666 1.20851
 H70 H 0.77400 1.11791 1.22618
 H71 H 0.77987 1.21522 1.11451
 H72 H 0.87917 1.22316 1.22333
 N73 N 0.54612 1.08219 0.95391
 N74 N 0.57928 1.11238 0.94602
 N75 N 0.44889 1.05050 0.92218
 N76 N 0.41427 1.05681 0.89348
 N77 N 0.44938 1.08287 0.95373
 N78 N 0.41535 1.11239 0.94715
 N79 N 0.54582 1.05030 0.92193
 N80 N 0.57875 1.05786 0.89143
 C81 C 0.59917 1.09686 0.90675
 C82 C 0.39381 1.09556 0.90952
 N83 N 0.44890 0.91870 0.95341
 N84 N 0.41736 0.88730 0.94425
 N85 N 0.54571 0.95103 0.92224
 N86 N 0.58009 0.94474 0.89315
 N87 N 0.54539 0.91857 0.95397
 N88 N 0.57932 0.88901 0.94712
 N89 N 0.44901 0.95116 0.92174
 N90 N 0.41748 0.94281 0.89026
 Mn91 Mn 0.49733 1.00077 0.92154
 C92 C 0.39816 0.90272 0.90461
 C93 C 0.60046 0.90578 0.90895
 N94 N 0.44859 1.08222 1.05286
 N95 N 0.41143 1.10835 1.05578
 N96 N 0.54496 1.04949 1.08542
 N97 N 0.58172 1.05265 1.11188
 N98 N 0.54586 1.08126 1.05301
 N99 N 0.58346 1.10660 1.05623
 N100 N 0.44785 1.04979 1.08460
 N101 N 0.41011 1.05293 1.10986
 Mn102 Mn 0.49755 1.08272 1.00350
 C103 C 0.38772 1.08960 1.09143
 C104 C 0.60526 1.08846 1.09324
 N105 N 0.54459 0.91802 1.05349
 N106 N 0.57770 0.88770 1.06116
 N107 N 0.44773 0.95033 1.08469
 N108 N 0.41140 0.94566 1.11170
 N109 N 0.44769 0.91872 1.05238
 N110 N 0.41112 0.89196 1.05620
 N111 N 0.54455 0.95008 1.08536
 N112 N 0.57776 0.94261 1.11543
 Mn113 Mn 0.49669 0.91797 1.00339
 Mn114 Mn 0.49626 0.99999 1.08562
 Cl115 Cl 0.49699 1.00034 1.00348
 C116 C 0.59797 0.90346 1.09999
 C117 C 0.38886 0.90928 1.09332
 N118 N -0.05382 0.45336 -0.07871
 N119 N -0.05739 0.41616 -0.10459
 N120 N -0.08550 0.55112 -0.04721
 N121 N -0.11122 0.58859 -0.05053
 N122 N -0.05314 0.55123 -0.07889
 N123 N -0.05563 0.58909 -0.10429
 N124 N -0.08636 0.45400 -0.04723
 N125 N -0.11333 0.41757 -0.05118
 C126 C -0.09475 0.39437 -0.08705
 C127 C -0.09216 0.61185 -0.08627
 N128 N -0.05378 0.54989 0.08400
 N129 N -0.05778 0.58603 0.11130
 N130 N -0.08643 0.45334 0.05187
 N131 N -0.11278 0.41633 0.05517
 N132 N -0.05388 0.45227 0.08317
 N133 N -0.05689 0.41423 0.10826
 N134 N -0.08545 0.55087 0.05185
 N135 N -0.11171 0.58788 0.05622
 Mn136 Mn -0.08654 0.50238 0.00233
 C137 C -0.09392 0.60948 0.09342
 C138 C -0.09393 0.39235 0.09050
 N139 N 0.04578 0.55000 -0.07961
 N140 N 0.05446 0.58197 -0.11095
 N141 N 0.07744 0.45300 -0.04765
 N142 N 0.10810 0.42037 -0.05582
 N143 N 0.04520 0.45295 -0.07927
 N144 N 0.05284 0.42004 -0.10968
 N145 N 0.07789 0.54965 -0.04787
 N146 N 0.10953 0.58109 -0.05694
 Mn147 Mn -0.00415 0.50186 -0.07968
 C148 C 0.09438 0.60093 -0.09636
 C149 C 0.09225 0.40018 -0.09461
 N150 N 0.04519 0.45250 0.08344
 N151 N 0.05322 0.41981 0.11417
 N152 N 0.07740 0.54946 0.05161
 N153 N 0.10778 0.58235 0.05928
 N154 N 0.04530 0.54946 0.08359
 N155 N 0.05281 0.58257 0.11374
 N156 N 0.07739 0.45280 0.05162
 N157 N 0.10834 0.42048 0.05991
 Mn158 Mn -0.00441 0.50099 0.08411
 Mn159 Mn 0.07798 0.50125 0.00195
 Cl160 Cl -0.00420 0.50163 0.00217
 C161 C 0.09285 0.40035 0.09912
 C162 C 0.09199 0.60258 0.09818
 N163 N 1.04749 0.08470 0.54974
 N164 N 1.05086 0.11063 0.58684
 N165 N 1.07830 0.05204 0.45220
 N166 N 1.10323 0.05490 0.41424
 N167 N 1.04640 0.08415 0.45267
 N168 N 1.04892 0.10986 0.41513
 N169 N 1.07992 0.05311 0.54923
 N170 N 1.10639 0.05680 0.58589
 C171 C 1.08772 0.09272 0.60905
 C172 C 1.08437 0.09104 0.39131
 N173 N 1.04776 -0.07958 0.45474
 N174 N 1.05604 -0.11084 0.42278
 N175 N 1.08058 -0.04591 0.55056
 N176 N 1.10853 -0.05004 0.58608
 N177 N 1.04908 -0.07839 0.55141
 N178 N 1.05491 -0.10574 0.58738
 N179 N 1.07934 -0.04720 0.45379
 N180 N 1.10985 -0.05544 0.42111
 Mn181 Mn 1.08010 0.00309 0.50138
 C182 C 1.09506 -0.09541 0.40223
 C183 C 1.09189 -0.08737 0.60878
 N184 N 0.94754 0.08367 0.45435
 N185 N 0.94076 0.11282 0.42003
 N186 N 0.91669 0.05238 0.55186
 N187 N 0.88740 0.05982 0.58592
 N188 N 0.94870 0.08433 0.55114
 N189 N 0.94215 0.11426 0.58466
 N190 N 0.91575 0.05145 0.45478
 N191 N 0.88643 0.05788 0.42064
 Mn192 Mn 0.99759 0.08476 0.50199
 C193 C 0.90230 0.09661 0.39954
 C194 C 0.90354 0.09880 0.60587
 N195 N 0.95004 -0.07884 0.55337
 N196 N 0.94770 -0.10423 0.59117
 N197 N 0.91617 -0.04842 0.45637
 N198 N 0.88536 -0.05702 0.42416
 N199 N 0.94849 -0.08015 0.45633
 N200 N 0.94067 -0.11102 0.42398
 N201 N 0.91764 -0.04715 0.55332
 N202 N 0.89232 -0.05024 0.59103
 Mn203 Mn 0.99879 -0.07980 0.50392
 Mn204 Mn 0.91595 0.00203 0.50402
 Cl205 Cl 0.99806 0.00248 0.50277
 C206 C 0.91157 -0.08594 0.61433
 C207 C 0.90094 -0.09640 0.40440
 C208 C 1.09213 0.14360 0.26957
 C209 C 1.14111 0.14470 0.26437
 C210 C 1.16837 0.12377 0.29848
 C211 C 1.14892 0.10602 0.33851
 C212 C 1.10141 0.10798 0.34619
 C213 C 1.07221 0.12535 0.31090
 C214 C 1.06234 0.15685 0.23325
 C215 C 1.01468 0.15510 0.23844
 C216 C 0.99543 0.13837 0.27901
 C217 C 1.02367 0.12282 0.31455
 H218 H 1.07532 0.16728 0.19990
 H219 H 0.99256 0.16578 0.21038
 H220 H 0.95837 0.13618 0.28247
 H221 H 1.00672 0.10743 0.34389
 H222 H 1.20558 0.12369 0.29580
 H223 H 1.17165 0.09209 0.36465
 C224 C 0.85297 -0.18870 0.32234
 C225 C 0.83597 -0.15944 0.28645
 C226 C 0.83680 -0.11137 0.29318
 C227 C 0.85728 -0.09214 0.33184
 C228 C 0.87748 -0.11996 0.36572
 C229 C 0.87412 -0.16879 0.36203
 C230 C 0.84599 -0.23711 0.32162
 C231 C 0.86191 -0.26529 0.35715
 C232 C 0.88350 -0.24600 0.39505
 C233 C 0.88890 -0.19832 0.39801
 H234 H 0.82676 -0.25374 0.29458
 H235 H 0.85647 -0.30224 0.35574
 H236 H 0.89495 -0.26801 0.42300
 H237 H 0.90325 -0.18525 0.42958
 H238 H 0.82387 -0.08800 0.26698
 H239 H 0.85870 -0.05483 0.33450
 C240 C 0.85569 0.18912 0.69037
 C241 C 0.84137 0.15927 0.72704
 C242 C 0.84474 0.11127 0.72068
 C243 C 0.86457 0.09280 0.68116
 C244 C 0.88161 0.12135 0.64611
 C245 C 0.87632 0.16999 0.64990
 C246 C 0.84638 0.23717 0.69112
 C247 C 0.85972 0.26585 0.65488
 C248 C 0.88093 0.24737 0.61623
 C249 C 0.88846 0.19999 0.61324
 H250 H 0.82727 0.25311 0.71877
 H251 H 0.85254 0.30251 0.65634
 H252 H 0.89038 0.26973 0.58777
 H253 H 0.90239 0.18746 0.58118
 H254 H 0.83395 0.08752 0.74755
 H255 H 0.86771 0.05560 0.67851
 C256 C 1.14017 -0.10093 0.73069
 C257 C 1.15235 -0.14850 0.72940
 C258 C 1.14277 -0.17422 0.68980
 C259 C 1.12252 -0.15375 0.65156
 C260 C 1.11214 -0.10662 0.65114
 C261 C 1.12060 -0.07962 0.69088
 C262 C 1.14532 -0.07446 0.77112
 C263 C 1.13302 -0.02789 0.77186
 C264 C 1.11459 -0.00697 0.73284
 C265 C 1.10796 -0.03250 0.69281
 H266 H 1.15798 -0.08952 0.80275
 H267 H 1.13731 -0.00806 0.80307
 H268 H 1.10466 0.02905 0.73385
 H269 H 1.09196 -0.01512 0.66400
 H270 H 1.15163 -0.21054 0.68821
 H271 H 1.11588 -0.17476 0.62150
 C272 C 0.26239 1.09814 1.13347
 C273 C 0.26026 1.14638 1.14336
 C274 C 0.29821 1.17414 1.13123
 C275 C 0.33849 1.15494 1.11379
 C276 C 0.34280 1.10728 1.10787
 C277 C 0.30425 1.07839 1.11651
 C278 C 0.22284 1.06972 1.13638
 C279 C 0.22523 1.02278 1.12656
 C280 C 0.26642 1.00334 1.11201
 C281 C 0.30544 1.03072 1.10626
 H282 H 0.18931 1.08358 1.14474
 H283 H 0.19470 1.00153 1.12938
 H284 H 0.26765 0.96709 1.10383
 H285 H 0.33581 1.01426 1.09241
 H286 H 0.29800 1.21095 1.13777
 H287 H 0.36733 1.17755 1.10643
 C288 C 0.31876 0.85344 0.81124
 C289 C 0.28200 0.83707 0.83977
 C290 C 0.28771 0.83814 0.88785
 C291 C 0.32619 0.85830 0.90763
 C292 C 0.36041 0.87866 0.88047
 C293 C 0.35790 0.87493 0.83178
 C294 C 0.31942 0.84549 0.76314
 C295 C 0.35567 0.86109 0.73574
 C296 C 0.39295 0.88330 0.75560
 C297 C 0.39461 0.88951 0.80310
 H298 H 0.29290 0.82574 0.74622
 H299 H 0.35532 0.85494 0.69899
 H300 H 0.42145 0.89455 0.73423
 H301 H 0.42576 0.90424 0.81680
 H302 H 0.26095 0.82568 0.91080
 H303 H 0.32844 0.85945 0.94482
 C304 C 0.67797 0.81390 1.15565
 C305 C 0.71682 0.84230 1.16433
 C306 C 0.71455 0.88954 1.15394
 C307 C 0.67545 0.90862 1.13381
 C308 C 0.63754 0.88102 1.12282
 C309 C 0.63814 0.83334 1.13436
 C310 C 0.67722 0.76693 1.16902
 C311 C 0.63877 0.73951 1.16061
 C312 C 0.60008 0.75836 1.13957
 C313 C 0.59943 0.80484 1.12690
 H314 H 0.70584 0.75109 1.18682
 H315 H 0.63878 0.70356 1.17100
 H316 H 0.57013 0.73700 1.13364
 H317 H 0.56799 0.81816 1.11212
 H318 H 0.74374 0.91175 1.16074
 H319 H 0.67522 0.94520 1.12569
 C320 C 0.68157 1.14829 0.81631
 C321 C 0.71974 1.15931 0.84531
 C322 C 0.71449 1.15355 0.89322
 C323 C 0.67476 1.13450 0.91203
 C324 C 0.63886 1.11950 0.88399
 C325 C 0.64137 1.12729 0.83576
 C326 C 0.68058 1.16127 0.76922
 C327 C 0.64316 1.15046 0.74141
 C328 C 0.60507 1.12816 0.75998
 C329 C 0.60367 1.11737 0.80674
 H330 H 0.70776 1.18140 0.75357
 H331 H 0.64333 1.16034 0.70541
 H332 H 0.57579 1.12051 0.73833
 H333 H 0.57208 1.10267 0.81981
 H334 H 0.74228 1.16176 0.91661
 H335 H 0.67265 1.13006 0.94900
 C336 C 0.18214 0.31747 0.15037
 C337 C 0.15314 0.27892 0.15931
 C338 C 0.10564 0.28305 0.15188
 C339 C 0.08694 0.32348 0.13418
 C340 C 0.11509 0.36054 0.12169
 C341 C 0.16302 0.35842 0.13068
 C342 C 0.22936 0.31687 0.16191
 C343 C 0.25733 0.35493 0.15282
 C344 C 0.23881 0.39460 0.13301
 C345 C 0.19208 0.39667 0.12241
 H346 H 0.24499 0.28754 0.17892
 H347 H 0.29348 0.35386 0.16176
 H348 H 0.26062 0.42424 0.12657
 H349 H 0.17900 0.42887 0.10877
 H350 H 0.08278 0.25431 0.15894
 H351 H 0.05016 0.32535 0.12878
 C352 C -0.10665 0.26829 -0.12413
 C353 C -0.15134 0.27002 -0.14364
 C354 C -0.17653 0.31127 -0.14198
 C355 C -0.15778 0.35090 -0.12273
 C356 C -0.11315 0.35060 -0.10488
 C357 C -0.08739 0.30899 -0.10453
 C358 C -0.08122 0.22674 -0.12247
 C359 C -0.03791 0.22529 -0.10192
 C360 C -0.01932 0.26490 -0.08237
 C361 C -0.04359 0.30649 -0.08371
 H362 H -0.09481 0.19491 -0.13626
 H363 H -0.01887 0.19315 -0.10072
 H364 H 0.01402 0.26330 -0.06587
 H365 H -0.02810 0.33631 -0.06765
 H366 H -0.21084 0.31297 -0.15645
 H367 H -0.17796 0.38241 -0.12266
 C368 C 0.18554 0.67723 -0.15427
 C369 C 0.15902 0.71812 -0.16072
 C370 C 0.11202 0.71751 -0.14962
 C371 C 0.09169 0.67837 -0.13071
 C372 C 0.11785 0.63932 -0.12017
 C373 C 0.16500 0.63790 -0.13272
 C374 C 0.23143 0.67382 -0.17020
 C375 C 0.25704 0.63367 -0.16313
 C376 C 0.23734 0.59582 -0.14102
 C377 C 0.19166 0.59757 -0.12631
 H378 H 0.24772 0.70153 -0.18920
 H379 H 0.29221 0.63172 -0.17540
 H380 H 0.25728 0.56460 -0.13604
 H381 H 0.17733 0.56669 -0.11093
 H382 H 0.09086 0.74790 -0.15496
 H383 H 0.05532 0.67891 -0.12298
 C384 C -0.13758 0.73377 0.10754
 C385 C -0.15034 0.73240 0.15480
 C386 C -0.14171 0.69226 0.18051
 C387 C -0.12255 0.65333 0.16004
 C388 C -0.11213 0.65286 0.11298
 C389 C -0.11885 0.69348 0.08630
 C390 C -0.14169 0.77472 0.08126
 C391 C -0.12906 0.77565 0.03495
 C392 C -0.11139 0.73628 0.01413
 C393 C -0.10589 0.69561 0.03940
 H394 H -0.15380 0.80660 0.09632
 H395 H -0.13251 0.80727 0.01521
 H396 H -0.10124 0.73758 -0.02161
 H397 H -0.09065 0.66638 0.02201
 H398 H -0.15092 0.69063 0.21668
 H399 H -0.11707 0.62273 0.18093
 C400 C 1.09772 0.13877 0.73223
 C401 C 1.14568 0.14853 0.73298
 C402 C 1.17288 0.13688 0.69483
 C403 C 1.15340 0.11774 0.65568
 C404 C 1.10594 0.11032 0.65295
 C405 C 1.07759 0.11986 0.69167
 C406 C 1.06953 0.14606 0.77128
 C407 C 1.02253 0.13635 0.77001
 C408 C 1.00286 0.11824 0.73038
 C409 C 1.03004 0.10950 0.69173
 H410 H 1.08351 0.15852 0.80337
 H411 H 1.00137 0.14238 0.80015
 H412 H 0.96645 0.11026 0.72980
 H413 H 1.01345 0.09375 0.66249
 H414 H 1.20954 0.14380 0.69485
 H415 H 1.17550 0.11007 0.62655
 C416 C 0.90498 -0.12660 0.74035
 C417 C 0.85698 -0.13710 0.74336
 C418 C 0.82900 -0.12673 0.70512
 C419 C 0.84750 -0.10967 0.66433
 C420 C 0.89480 -0.10266 0.65951
 C421 C 0.92410 -0.11031 0.69782
 C422 C 0.93373 -0.12800 0.77955
 C423 C 0.98047 -0.11781 0.77632
 C424 C 0.99937 -0.10414 0.73447
 C425 C 0.97155 -0.09960 0.69571
 H426 H 0.92015 -0.13506 0.81341
 H427 H 1.00194 -0.11954 0.80670
 H428 H 1.03551 -0.09561 0.73245
 H429 H 0.98751 -0.08636 0.66474
 H430 H 0.79245 -0.13414 0.70560
 H431 H 0.82464 -0.10332 0.63555
 C432 C 1.18645 -0.14433 0.31968
 C433 C 1.15708 -0.16076 0.28394
 C434 C 1.10918 -0.15951 0.29101
 C435 C 1.09023 -0.13905 0.32989
 C436 C 1.11820 -0.11926 0.36355
 C437 C 1.16682 -0.12313 0.35956
 C438 C 1.23464 -0.15188 0.31858
 C439 C 1.26287 -0.13642 0.35398
 C440 C 1.24385 -0.11474 0.39210
 C441 C 1.19637 -0.10879 0.39540
 H442 H 1.25101 -0.17119 0.29131
 H443 H 1.29966 -0.14229 0.35229
 H444 H 1.26589 -0.10364 0.41994
 H445 H 1.18343 -0.09439 0.42710
 H446 H 1.08575 -0.17203 0.26491
 H447 H 1.05306 -0.13720 0.33285
 C448 C 0.85505 0.18436 0.31186
 C449 C 0.84372 0.15376 0.27507
 C450 C 0.84833 0.10590 0.28252
 C451 C 0.86648 0.08842 0.32327
 C452 C 0.88092 0.11786 0.35837
 C453 C 0.87441 0.16625 0.35343
 C454 C 0.84397 0.23200 0.31007
 C455 C 0.85481 0.26138 0.34629
 C456 C 0.87520 0.24396 0.38590
 C457 C 0.88420 0.19689 0.38994
 H458 H 0.82532 0.24701 0.28158
 H459 H 0.84638 0.29775 0.34402
 H460 H 0.88279 0.26685 0.41427
 H461 H 0.89739 0.18498 0.42259
 H462 H 0.83997 0.08149 0.25563
 H463 H 0.87072 0.05137 0.32677
 C464 C 0.18180 0.32266 -0.15282
 C465 C 0.15507 0.28194 -0.15824
 C466 C 0.10842 0.28262 -0.14569
 C467 C 0.08862 0.32181 -0.12645
 C468 C 0.11501 0.36110 -0.11774
 C469 C 0.16185 0.36225 -0.13152
 C470 C 0.22735 0.32556 -0.16960
 C471 C 0.25334 0.36553 -0.16371
 C472 C 0.23423 0.40376 -0.14197
 C473 C 0.18880 0.40249 -0.12640
 H474 H 0.24287 0.29757 -0.18845
 H475 H 0.28830 0.36704 -0.17664
 H476 H 0.25442 0.43488 -0.13792
 H477 H 0.17494 0.43361 -0.11129
 H478 H 0.08721 0.25218 -0.15009
 H479 H 0.05258 0.32112 -0.11708
 C480 C -0.10202 0.26520 0.12657
 C481 C -0.14746 0.26470 0.14454
 C482 C -0.17445 0.30474 0.14187
 C483 C -0.15668 0.34545 0.12339
 C484 C -0.11134 0.34742 0.10716
 C485 C -0.08388 0.30688 0.10747
 C486 C -0.07466 0.22487 0.12599
 C487 C -0.03066 0.22545 0.10666
 C488 C -0.01330 0.26588 0.08725
 C489 C -0.03941 0.30636 0.08773
 H490 H -0.08723 0.19244 0.13969
 H491 H -0.01014 0.19423 0.10626
 H492 H 0.02059 0.26585 0.07164
 H493 H -0.02475 0.33686 0.07183
 H494 H -0.20939 0.30467 0.15507
 H495 H -0.17821 0.37603 0.12273
 C496 C -0.09889 0.73932 -0.12180
 C497 C -0.14540 0.74122 -0.13723
 C498 C -0.17324 0.70184 -0.13157
 C499 C -0.15525 0.66061 -0.11479
 C500 C -0.10888 0.65706 -0.10278
 C501 C -0.08046 0.69678 -0.10484
 C502 C -0.07177 0.77966 -0.11838
 C503 C -0.02732 0.77797 -0.10061
 C504 C -0.00922 0.73641 -0.08484
 C505 C -0.03529 0.69607 -0.08696
 H506 H -0.08541 0.81322 -0.12702
 H507 H -0.00724 0.80932 -0.09796
 H508 H 0.02489 0.73566 -0.06994
 H509 H -0.02033 0.66490 -0.07280
 H510 H -0.20895 0.70215 -0.14233
 H511 H -0.17760 0.63076 -0.11223
 C512 C 0.18193 0.68135 0.15328
 C513 C 0.15415 0.72086 0.16149
 C514 C 0.10711 0.71941 0.15117
 C515 C 0.08760 0.68038 0.13149
 C516 C 0.11462 0.64181 0.12098
 C517 C 0.16206 0.64156 0.13252
 C518 C 0.22868 0.67992 0.16657
 C519 C 0.25542 0.64074 0.15865
 C520 C 0.23610 0.60202 0.13816
 C521 C 0.18984 0.60210 0.12553
 H522 H 0.24484 0.70859 0.18391
 H523 H 0.29120 0.64022 0.16898
 H524 H 0.25692 0.57150 0.13261
 H525 H 0.17610 0.57064 0.11117
 H526 H 0.08540 0.74916 0.15770
 H527 H 0.05122 0.68074 0.12330
 C528 C 0.31693 1.18089 0.84491
 C529 C 0.27451 1.15659 0.84667
 C530 C 0.27300 1.11270 0.86714
 C531 C 0.31219 1.09331 0.88690
 C532 C 0.35377 1.11763 0.88760
 C533 C 0.35663 1.16169 0.86647
 C534 C 0.32122 1.22311 0.82082
 C535 C 0.36287 1.24697 0.81992
 C536 C 0.40129 1.22885 0.84210
 C537 C 0.39851 1.18642 0.86482
 H538 H 0.29288 1.23743 0.80153
 H539 H 0.36548 1.27943 0.80147
 H540 H 0.43363 1.24738 0.84104
 H541 H 0.42955 1.17304 0.88046
 H542 H 0.24103 1.09347 0.86820
 H543 H 0.30985 1.05935 0.90256
 C544 C 0.26490 0.86584 1.10528
 C545 C 0.26544 0.85230 1.15235
 C546 C 0.30513 0.85992 1.17856
 C547 C 0.34434 0.87913 1.15882
 C548 C 0.34552 0.89052 1.11201
 C549 C 0.30555 0.88451 1.08475
 C550 C 0.22436 0.86312 1.07869
 C551 C 0.22404 0.87760 1.03285
 C552 C 0.26371 0.89560 1.01278
 C553 C 0.30413 0.89918 1.03830
 H554 H 0.19228 0.85092 1.09324
 H555 H 0.19265 0.87545 1.01297
 H556 H 0.26293 0.90752 0.97740
 H557 H 0.33363 0.91471 1.02161
 H558 H 0.30609 0.85006 1.21459
 H559 H 0.37453 0.88406 1.18008
 C560 C 0.73226 1.12232 1.10169
 C561 C 0.73250 1.14112 1.14679
 C562 C 0.69213 1.13977 1.17333
 C563 C 0.65156 1.12170 1.15559
 C564 C 0.64990 1.10495 1.11056
 C565 C 0.69049 1.10432 1.08334
 C566 C 0.77285 1.11975 1.07492
 C567 C 0.77218 1.10055 1.03097
 C568 C 0.73141 1.08307 1.01306
 C569 C 0.69088 1.08478 1.03885
 H570 H 0.80557 1.13173 1.08790
 H571 H 0.80357 1.09879 1.01086
 H572 H 0.73126 1.06779 0.97909
 H573 H 0.66018 1.07005 1.02389
 H574 H 0.69181 1.15367 1.20793
 H575 H 0.62084 1.12185 1.17685
 C576 C 0.68501 0.82062 0.85411
 C577 C 0.72409 0.84980 0.84988
 C578 C 0.72060 0.89624 0.86284
 C579 C 0.67992 0.91372 0.88109
 C580 C 0.64170 0.88515 0.88781
 C581 C 0.64361 0.83833 0.87382
 C582 C 0.68565 0.77466 0.83796
 C583 C 0.64700 0.74646 0.84240
 C584 C 0.60682 0.76357 0.86219
 C585 C 0.60483 0.80912 0.87745
 H586 H 0.71556 0.76027 0.82104
 H587 H 0.64809 0.71128 0.82996
 H588 H 0.57681 0.74162 0.86515
 H589 H 0.57245 0.82126 0.89130
 H590 H 0.75001 0.91904 0.85965
 H591 H 0.67866 0.94969 0.89124
   
