data_POSCAR
  _audit_creation_date              2014-09-24
  _audit_creation_method            'ToBaCCo'
  _symmetry_space_group_name_H-M    'P1'
  _symmetry_Int_Tables_number       1
  _symmetry_cell_setting            triclinic
  loop_
  _symmetry_equiv_pos_as_xyz
 x,y,z
_cell_length_a 37.5297
_cell_length_b 37.5512
_cell_length_c 37.4580
_cell_angle_alpha 89.998500
_cell_angle_beta 89.982100
_cell_angle_gamma 89.909500
loop_
  _atom_site_label
  _atom_site_type_symbol
  _atom_site_fract_x
  _atom_site_fract_y
  _atom_site_fract_z
C1 C 0.17286 0.17117 0.21713
 N2 N 0.20246 0.15642 0.20239
 C3 C 0.21724 0.17117 0.17281
 N4 N 0.20243 0.20066 0.15799
 C5 C 0.17284 0.21540 0.17272
 N6 N 0.15807 0.20066 0.20229
 C7 C -0.17248 0.82868 0.21709
 N8 N -0.20202 0.84347 0.20230
 C9 C -0.21682 0.82870 0.17275
 N10 N -0.20208 0.79913 0.15801
 C11 C -0.17255 0.78433 0.17279
 N12 N -0.15776 0.79910 0.20233
 C13 C -0.17344 0.17176 -0.21720
 N14 N -0.20296 0.15703 -0.20240
 C15 C -0.21777 0.17181 -0.17282
 N16 N -0.20304 0.20133 -0.15807
 C17 C -0.17353 0.21607 -0.17286
 N18 N -0.15874 0.20128 -0.20243
 C19 C 0.17370 0.82788 -0.21581
 N20 N 0.15900 0.79834 -0.20109
 C21 C 0.17380 0.78349 -0.17157
 N22 N 0.20333 0.79818 -0.15678
 C23 C 0.21805 0.82774 -0.17150
 N24 N 0.20323 0.84257 -0.20102
 C25 C 0.17124 1.17257 0.78289
 N26 N 0.20079 1.15781 0.79766
 C27 C 0.21557 1.17256 0.82721
 N28 N 0.20081 1.20210 0.84199
 C29 C 0.17125 1.21688 0.82724
 N30 N 0.15648 1.20211 0.79768
 C31 C 0.82890 0.82705 0.78269
 N32 N 0.79937 0.84180 0.79753
 C33 C 0.78461 0.82702 0.82709
 N34 N 0.79938 0.79746 0.84181
 C35 C 0.82891 0.78268 0.82699
 N36 N 0.84367 0.79748 0.79742
 C37 C 0.17204 0.82764 1.21740
 N38 N 0.15733 0.79810 1.20264
 C39 C 0.17218 0.78327 1.17312
 N40 N 0.20173 0.79796 1.15837
 C41 C 0.21644 0.82749 1.17312
 N42 N 0.20159 0.84232 1.20264
 C43 C 0.82836 1.17334 1.21705
 N44 N 0.79885 1.15860 1.20226
 C45 C 0.78405 1.17336 1.17270
 N46 N 0.79876 1.20287 1.15792
 C47 C 0.82827 1.21763 1.17268
 N48 N 0.84306 1.20286 1.20226
 N49 N 0.53751 1.06322 0.96149
 N50 N 0.56439 1.08538 0.95681
 N51 N 0.46257 1.03828 0.93685
 N52 N 0.43559 1.04281 0.91469
 N53 N 0.46251 1.06306 0.96161
 N54 N 0.43549 1.08514 0.95700
 N55 N 0.53756 1.03844 0.93674
 N56 N 0.56449 1.04303 0.91452
 C57 C 0.58084 1.07237 0.92745
 C58 C 0.41908 1.07209 0.92767
 N59 N 0.46298 0.93686 0.96182
 N60 N 0.43610 0.91467 0.95731
 N61 N 0.53785 0.96171 0.93687
 N62 N 0.56478 0.95711 0.91464
 N63 N 0.53797 0.93702 0.96171
 N64 N 0.56498 0.91493 0.95710
 N65 N 0.46286 0.96155 0.93699
 N66 N 0.43588 0.95687 0.91486
 Mn67 Mn 0.50021 1.00000 0.93644
 C68 C 0.41958 0.92757 0.92795
 C69 C 0.58132 0.92787 0.92768
 N70 N 0.46260 1.06318 1.03853
 N71 N 0.43555 1.08524 1.04315
 N72 N 0.53772 1.03865 1.06324
 N73 N 0.56468 1.04333 1.08537
 N74 N 0.53759 1.06335 1.03841
 N75 N 0.56447 1.08554 1.04293
 N76 N 0.46273 1.03848 1.06337
 N77 N 0.43579 1.04303 1.08558
 Mn78 Mn 0.50005 1.06362 1.00001
 C79 C 0.41921 1.07226 1.07257
 C80 C 0.58098 1.07264 1.07229
 N81 N 0.53808 0.93715 1.03862
 N82 N 0.56510 0.91507 1.04325
 N83 N 0.46303 0.96176 1.06349
 N84 N 0.43608 0.95718 1.08568
 N85 N 0.46309 0.93699 1.03873
 N86 N 0.43620 0.91484 1.04337
 N87 N 0.53801 0.96193 1.06337
 N88 N 0.56498 0.95741 1.08555
 Mn89 Mn 0.50053 0.93659 1.00022
 Mn90 Mn 0.50037 1.00021 1.06379
 Cl91 Cl 0.50029 1.00010 1.00011
 C92 C 0.58150 0.92812 1.07259
 C93 C 0.41974 0.92784 1.07273
 N94 N 0.03794 0.46196 0.06307
 N95 N 0.04248 0.43502 0.08527
 N96 N 0.06291 0.53681 0.03834
 N97 N 0.08509 0.56368 0.04296
 N98 N 0.03813 0.53690 0.06312
 N99 N 0.04274 0.56383 0.08530
 N100 N 0.06270 0.46187 0.03829
 N101 N 0.08480 0.43488 0.04291
 C102 C 0.07178 0.41851 0.07227
 C103 C 0.07210 0.58015 0.07231
 N104 N 0.03828 0.53699 -0.06338
 N105 N 0.04297 0.56397 -0.08550
 N106 N 0.06277 0.46191 -0.03862
 N107 N 0.08485 0.43488 -0.04324
 N108 N 0.03805 0.46204 -0.06343
 N109 N 0.04260 0.43511 -0.08564
 N110 N 0.06299 0.53685 -0.03855
 N111 N 0.08520 0.56370 -0.04307
 Mn112 Mn 0.06326 0.49936 -0.00014
 C113 C 0.07231 0.58024 -0.07241
 C114 C 0.07185 0.41855 -0.07263
 N115 N -0.03863 0.53724 0.06307
 N116 N -0.04317 0.56418 0.08527
 N117 N -0.06356 0.46241 0.03823
 N118 N -0.08575 0.43554 0.04281
 N119 N -0.03883 0.46230 0.06303
 N120 N -0.04347 0.43536 0.08519
 N121 N -0.06336 0.53737 0.03826
 N122 N -0.08543 0.56440 0.04286
 Mn123 Mn -0.00035 0.49960 0.06350
 C124 C -0.07243 0.58074 0.07225
 C125 C -0.07280 0.41905 0.07217
 N126 N -0.03872 0.46238 -0.06349
 N127 N -0.04336 0.43545 -0.08566
 N128 N -0.06328 0.53743 -0.03867
 N129 N -0.08534 0.56447 -0.04330
 N130 N -0.03850 0.53733 -0.06344
 N131 N -0.04299 0.56428 -0.08563
 N132 N -0.06349 0.46248 -0.03870
 N133 N -0.08569 0.43562 -0.04330
 Mn134 Mn -0.00022 0.49969 -0.06386
 Mn135 Mn -0.06385 0.49992 -0.00022
 Cl136 Cl -0.00029 0.49964 -0.00018
 C137 C -0.07272 0.41915 -0.07266
 C138 C -0.07227 0.58083 -0.07265
 N139 N 0.93667 -0.03796 0.46232
 N140 N 0.91454 -0.04255 0.43532
 N141 N 0.96142 -0.06275 0.53744
 N142 N 0.95686 -0.08492 0.56440
 N143 N 0.93661 -0.03803 0.53746
 N144 N 0.91447 -0.04269 0.56446
 N145 N 0.96146 -0.06269 0.46231
 N146 N 0.95690 -0.08482 0.43530
 C147 C 0.92757 -0.07184 0.41885
 C148 C 0.92752 -0.07200 0.58088
 N149 N 1.06287 -0.03799 0.53752
 N150 N 1.08503 -0.04260 0.56450
 N151 N 1.03823 -0.06269 0.46237
 N152 N 1.04289 -0.08483 0.43538
 N153 N 1.06294 -0.03796 0.46239
 N154 N 1.08514 -0.04258 0.43542
 N155 N 1.03818 -0.06274 0.53749
 N156 N 1.04283 -0.08490 0.56447
 Mn157 Mn 0.99982 -0.06314 0.49990
 C158 C 1.07212 -0.07192 0.58093
 C159 C 1.07221 -0.07187 0.41896
 N160 N 0.93648 0.03870 0.53749
 N161 N 0.91429 0.04327 0.56447
 N162 N 0.96128 0.06350 0.46240
 N163 N 0.95668 0.08567 0.43543
 N164 N 0.93656 0.03878 0.46236
 N165 N 0.91444 0.04342 0.43534
 N166 N 0.96119 0.06345 0.53753
 N167 N 0.95650 0.08556 0.56455
 Mn168 Mn 0.93616 0.00037 0.49991
 C169 C 0.92719 0.07256 0.58097
 C170 C 0.92741 0.07274 0.41893
 N171 N 1.06283 0.03875 0.46246
 N172 N 1.08500 0.04332 0.43548
 N173 N 1.03796 0.06345 0.53758
 N174 N 1.04250 0.08558 0.56458
 N175 N 1.06275 0.03872 0.53758
 N176 N 1.08487 0.04332 0.56459
 N177 N 1.03805 0.06350 0.46244
 N178 N 1.04267 0.08562 0.43543
 Mn179 Mn 1.06327 0.00038 0.49999
 Mn180 Mn 0.99962 0.06390 0.49999
 Cl181 Cl 0.99971 0.00038 0.49995
 C182 C 1.07202 0.07262 0.41901
 C183 C 1.07183 0.07261 0.58105
 C184 C 1.15808 0.15650 0.24677
 C185 C 1.14489 0.14360 0.27310
 C186 C 1.12939 0.12858 0.30395
 C187 C 1.11616 0.11581 0.33031
 C188 C 1.10069 0.10084 0.36120
 C189 C 1.08755 0.08801 0.38759
 C190 C 0.84229 -0.15660 0.24670
 C191 C 0.85539 -0.14357 0.27300
 C192 C 0.87073 -0.12836 0.30383
 C193 C 0.88380 -0.11540 0.33018
 C194 C 0.89909 -0.10024 0.36106
 C195 C 0.91211 -0.08729 0.38743
 C196 C 0.84135 0.15703 0.75317
 C197 C 0.85450 0.14403 0.72685
 C198 C 0.86993 0.12888 0.69600
 C199 C 0.88310 0.11597 0.66965
 C200 C 0.89851 0.10088 0.63876
 C201 C 0.91162 0.08797 0.61238
 C202 C 1.15807 -0.15651 0.75293
 C203 C 1.14488 -0.14349 0.72664
 C204 C 1.12941 -0.12833 0.69584
 C205 C 1.11621 -0.11542 0.66952
 C206 C 1.10078 -0.10031 0.63867
 C207 C 1.08766 -0.08738 0.61232
 C208 C 0.24690 1.15648 1.15809
 C209 C 0.27324 1.14351 1.14499
 C210 C 0.30411 1.12840 1.12963
 C211 C 0.33048 1.11553 1.11652
 C212 C 0.36139 1.10048 1.10117
 C213 C 0.38778 1.08762 1.08810
 C214 C 0.24764 0.84241 0.84325
 C215 C 0.27393 0.85544 0.85630
 C216 C 0.30473 0.87070 0.87152
 C217 C 0.33105 0.88374 0.88449
 C218 C 0.36188 0.89900 0.89964
 C219 C 0.38822 0.91203 0.91256
 C220 C 0.75359 0.84345 1.15800
 C221 C 0.72729 0.85649 1.14490
 C222 C 0.69647 0.87170 1.12956
 C223 C 0.67014 0.88466 1.11647
 C224 C 0.63927 0.89980 1.10116
 C225 C 0.61290 0.91273 1.08811
 C226 C 0.75266 1.15711 0.84195
 C227 C 0.72639 1.14410 0.85507
 C228 C 0.69560 1.12890 0.87042
 C229 C 0.66930 1.11594 0.88352
 C230 C 0.63849 1.10077 0.89884
 C231 C 0.61217 1.08782 0.91191
 C232 C 0.15723 0.24663 0.15711
 C233 C 0.14409 0.27289 0.14407
 C234 C 0.12870 0.30367 0.12886
 C235 C 0.11559 0.32997 0.11591
 C236 C 0.10026 0.36080 0.10074
 C237 C 0.08723 0.38714 0.08777
 C238 C -0.15799 0.24733 -0.15731
 C239 C -0.14493 0.27360 -0.14430
 C240 C -0.12962 0.30439 -0.12912
 C241 C -0.11655 0.33069 -0.11619
 C242 C -0.10126 0.36151 -0.10105
 C243 C -0.08822 0.38782 -0.08811
 C244 C 0.15824 0.75221 -0.15609
 C245 C 0.14510 0.72591 -0.14321
 C246 C 0.12965 0.69509 -0.12822
 C247 C 0.11645 0.66877 -0.11547
 C248 C 0.10101 0.63793 -0.10054
 C249 C 0.08787 0.61159 -0.08775
 C250 C -0.15703 0.75301 0.15724
 C251 C -0.14403 0.72668 0.14420
 C252 C -0.12883 0.69582 0.12895
 C253 C -0.11587 0.66945 0.11595
 C254 C -0.10073 0.63855 0.10073
 C255 C -0.08781 0.61216 0.08774
 C256 C 1.15650 0.15784 0.75326
 C257 C 1.14348 0.14476 0.72695
 C258 C 1.12827 0.12945 0.69610
 C259 C 1.11532 0.11639 0.66975
 C260 C 1.10017 0.10111 0.63886
 C261 C 1.08724 0.08809 0.61247
 C262 C 0.84359 -0.15816 0.75306
 C263 C 0.85650 -0.14495 0.72675
 C264 C 0.87153 -0.12944 0.69590
 C265 C 0.88431 -0.11619 0.66955
 C266 C 0.89929 -0.10070 0.63867
 C267 C 0.91212 -0.08755 0.61229
 C268 C 1.15725 -0.15755 0.24698
 C269 C 1.14418 -0.14439 0.27326
 C270 C 1.12893 -0.12897 0.30406
 C271 C 1.11594 -0.11582 0.33038
 C272 C 1.10074 -0.10046 0.36122
 C273 C 1.08774 -0.08738 0.38757
 C274 C 0.84308 0.15858 0.24669
 C275 C 0.85607 0.14542 0.27302
 C276 C 0.87118 0.12998 0.30387
 C277 C 0.88405 0.11680 0.33023
 C278 C 0.89910 0.10139 0.36112
 C279 C 0.91199 0.08827 0.38750
 C280 C 0.15653 0.24648 -0.15800
 C281 C 0.14350 0.27278 -0.14491
 C282 C 0.12829 0.30359 -0.12958
 C283 C 0.11533 0.32993 -0.11650
 C284 C 0.10017 0.36079 -0.10120
 C285 C 0.08724 0.38715 -0.08815
 C286 C -0.15708 0.24721 0.15790
 C287 C -0.14415 0.27349 0.14474
 C288 C -0.12908 0.30427 0.12930
 C289 C -0.11623 0.33057 0.11612
 C290 C -0.10118 0.36139 0.10073
 C291 C -0.08827 0.38771 0.08765
 C292 C -0.15638 0.75305 -0.15829
 C293 C -0.14342 0.72673 -0.14518
 C294 C -0.12832 0.69588 -0.12980
 C295 C -0.11547 0.66953 -0.11666
 C296 C -0.10044 0.63864 -0.10128
 C297 C -0.08760 0.61226 -0.08819
 C298 C 0.15668 0.75201 0.15755
 C299 C 0.14371 0.72573 0.14447
 C300 C 0.12855 0.69493 0.12916
 C301 C 0.11563 0.66862 0.11609
 C302 C 0.10049 0.63780 0.10081
 C303 C 0.08755 0.61148 0.08779
 C304 C 0.24687 1.15699 0.84276
 C305 C 0.27319 1.14393 0.85579
 C306 C 0.30403 1.12866 0.87102
 C307 C 0.33038 1.11565 0.88401
 C308 C 0.36127 1.10045 0.89921
 C309 C 0.38766 1.08749 0.91219
 C310 C 0.24773 0.84299 1.15757
 C311 C 0.27403 0.85600 1.14455
 C312 C 0.30485 0.87123 1.12933
 C313 C 0.33118 0.88423 1.11636
 C314 C 0.36203 0.89944 1.10117
 C315 C 0.38838 0.91241 1.08820
 C316 C 0.75281 1.15781 1.15712
 C317 C 0.72654 1.14475 1.14407
 C318 C 0.69576 1.12948 1.12882
 C319 C 0.66947 1.11645 1.11583
 C320 C 0.63865 1.10120 1.10064
 C321 C 0.61233 1.08817 1.08769
 C322 C 0.75334 0.84260 0.84270
 C323 C 0.72705 0.85569 0.85576
 C324 C 0.69624 0.87103 0.87100
 C325 C 0.66991 0.88410 0.88398
 C326 C 0.63906 0.89939 0.89918
 C327 C 0.61270 0.91241 0.91217
   
