data_POSCAR
  _audit_creation_date              2014-09-24
  _audit_creation_method            'ToBaCCo'
  _symmetry_space_group_name_H-M    'P1'
  _symmetry_Int_Tables_number       1
  _symmetry_cell_setting            triclinic
  loop_
  _symmetry_equiv_pos_as_xyz
 x,y,z
_cell_length_a 27.6307
_cell_length_b 28.7362
_cell_length_c 80.6329
_cell_angle_alpha 88.999200
_cell_angle_beta 88.866400
_cell_angle_gamma 119.287500
loop_
  _atom_site_label
  _atom_site_type_symbol
  _atom_site_fract_x
  _atom_site_fract_y
  _atom_site_fract_z
C1 C 0.00507 0.06371 0.52553
 H2 H 0.04558 0.06661 0.52461
 C3 C -0.00457 0.09511 0.53664
 H4 H 0.02873 0.12208 0.54433
 C5 C -0.08805 0.02355 0.51697
 H6 H -0.12061 -0.00502 0.50945
 C7 C -0.09976 0.05372 0.52814
 H8 H -0.14120 0.04876 0.52898
 N9 N -0.03617 0.02933 0.51582
 C10 C 0.04976 -0.05056 0.51638
 H11 H 0.08313 -0.02104 0.50850
 C12 C 0.06031 -0.08224 0.52749
 H13 H 0.10163 -0.07750 0.52786
 C14 C -0.04415 -0.09157 0.52599
 H15 H -0.08452 -0.09422 0.52551
 C16 C -0.03564 -0.12440 0.53710
 H17 H -0.06968 -0.15221 0.54521
 Zn18 Zn -0.01831 -0.01243 0.50176
 N19 N -0.00198 -0.05610 0.51576
 C20 C 0.06371 0.00816 0.47732
 N21 N 0.04284 0.03195 0.48740
 C22 C 0.06163 0.08538 0.48613
 C23 C 0.10295 0.11705 0.47432
 C24 C 0.10548 0.03840 0.46544
 C25 C -0.09588 -0.02882 0.47771
 C26 C -0.13604 -0.05683 0.46611
 C27 C -0.13874 -0.13791 0.47588
 C28 C -0.09860 -0.10816 0.48731
 N29 N -0.07790 -0.05462 0.48798
 H30 H 0.04723 -0.03458 0.47835
 H31 H 0.04315 0.10330 0.49382
 H32 H 0.11571 0.15910 0.47314
 H33 H 0.12167 0.01859 0.45763
 H34 H -0.07848 0.01395 0.47844
 H35 H -0.15000 -0.03400 0.45885
 H36 H -0.15066 -0.17965 0.47540
 H37 H -0.08236 -0.12779 0.49516
 C38 C 0.01715 -0.11990 0.53796
 C39 C -0.05755 0.09023 0.53807
 C40 C -0.15812 -0.11269 0.46460
 C41 C 0.12517 0.09359 0.46365
 C42 C 1.10849 0.03580 0.15177
 H43 H 1.13072 0.07092 0.15903
 C44 C 1.13735 0.02363 0.13978
 H45 H 1.18165 0.04971 0.13806
 C46 C 1.02318 -0.03733 0.14409
 H47 H 0.97844 -0.05997 0.14557
 C48 C 1.05047 -0.05127 0.13205
 H49 H 1.02637 -0.08555 0.12458
 N50 N 1.05239 0.00558 0.15363
 C51 C 1.00509 0.09566 0.14356
 H52 H 1.04968 0.11836 0.14461
 C53 C 0.97909 0.10986 0.13134
 H54 H 1.00395 0.14436 0.12327
 C55 C 0.91899 0.02186 0.15244
 H56 H 0.89600 -0.01372 0.16019
 C57 C 0.89141 0.03438 0.14035
 H58 H 0.84734 0.00812 0.13908
 Zn59 Zn 1.01284 0.02813 0.16769
 N60 N 0.97489 0.05213 0.15372
 C61 C 1.06397 0.12972 0.18347
 N62 N 1.06197 0.08181 0.18167
 C63 C 1.09164 0.06663 0.19142
 C64 C 1.12450 0.09966 0.20371
 C65 C 1.09615 0.16405 0.19581
 C66 C 0.93087 -0.01377 0.19216
 C67 C 0.89590 -0.04897 0.20462
 C68 C 0.92540 -0.11206 0.19657
 C69 C 0.95969 -0.07558 0.18408
 N70 N 0.96196 -0.02738 0.18223
 H71 H 1.03890 0.14037 0.17585
 H72 H 1.08864 0.02800 0.18984
 H73 H 1.14767 0.08650 0.21131
 H74 H 1.09573 0.20112 0.19755
 H75 H 0.93412 0.02512 0.19055
 H76 H 0.87144 -0.03714 0.21230
 H77 H 0.92544 -0.14949 0.19828
 H78 H 0.98594 -0.08499 0.17635
 C79 C 0.92157 0.07838 0.12939
 C80 C 1.10830 -0.02002 0.12955
 C81 C 0.89366 -0.09844 0.20722
 C82 C 1.12602 0.14852 0.20636
 C83 C 0.06852 0.96302 0.85509
 H84 H 0.03748 0.92197 0.85334
 C85 C 0.10972 0.97456 0.86652
 H86 H 0.10923 0.94224 0.87377
 C87 C 0.10705 1.05473 0.84764
 H88 H 0.10616 1.08582 0.84018
 C89 C 0.14882 1.06819 0.85915
 H90 H 0.17981 1.10963 0.86044
 N91 N 0.06757 1.00282 0.84597
 C92 C -0.08737 0.98900 0.83928
 H93 H -0.07764 1.01250 0.82788
 C94 C -0.12922 0.98587 0.84997
 H95 H -0.15127 1.00656 0.84624
 C96 C -0.07210 0.93183 0.85717
 H97 H -0.04904 0.91161 0.86013
 C98 C -0.11422 0.92695 0.86817
 H99 H -0.12120 0.90373 0.87954
 Zn100 Zn 0.00855 0.98151 0.83104
 N101 N -0.05778 0.96444 0.84342
 C102 C -0.04803 0.88625 0.81315
 N103 N 0.00115 0.92144 0.81969
 C104 C 0.04849 0.91968 0.81611
 C105 C 0.04799 0.88250 0.80518
 C106 C -0.05033 0.84848 0.80199
 C107 C 0.02658 1.08352 0.81925
 C108 C 0.02791 1.11947 0.80706
 C109 C 0.02627 1.05972 0.78612
 C110 C 0.02493 1.02508 0.79863
 N111 N 0.02326 1.03648 0.81487
 H112 H -0.08478 0.88942 0.81588
 H113 H 0.08737 0.94897 0.82110
 H114 H 0.08646 0.88260 0.80225
 H115 H -0.08914 0.82259 0.79621
 H116 H 0.02470 1.09165 0.83223
 H117 H 0.02733 1.15524 0.81075
 H118 H 0.02580 1.04899 0.77329
 H119 H 0.02289 0.98799 0.79527
 C120 C -0.14182 0.95649 0.86515
 C121 C 0.15040 1.02770 0.86873
 C122 C 0.02584 1.10671 0.79026
 C123 C -0.00144 0.84743 0.79752
 C124 C 0.38795 0.00910 -0.00116
 C125 C 0.41941 0.01865 -0.01595
 C126 C 0.47034 0.01902 -0.01556
 C127 C 0.48939 0.00845 -0.00066
 C128 C 0.45644 -0.00240 0.01395
 C129 C 0.40610 -0.00139 0.01389
 C130 C 0.54382 0.00941 -0.00033
 C131 C 0.57733 0.02797 0.01361
 C132 C 0.62895 0.02953 0.01402
 C133 C 0.64811 0.01447 -0.00005
 C134 C 0.61559 -0.00360 -0.01409
 C135 C 0.56316 -0.00723 -0.01405
 H136 H 0.34907 0.00966 -0.00139
 H137 H 0.49557 0.02867 -0.02687
 H138 H 0.46943 -0.01259 0.02539
 H139 H 0.56384 0.04231 0.02408
 H140 H 0.68775 0.01534 -0.00003
 H141 H 0.53798 -0.02236 -0.02485
 C142 C -0.00484 0.60830 0.66521
 C143 C -0.01672 0.57882 0.68022
 C144 C -0.02430 0.52679 0.68013
 C145 C -0.01709 0.50502 0.66533
 C146 C -0.00370 0.53626 0.65050
 C147 C 0.00097 0.58712 0.65028
 C148 C -0.02310 0.45026 0.66528
 C149 C -0.03890 0.42000 0.65081
 C150 C -0.04206 0.36984 0.65032
 C151 C -0.03235 0.34821 0.66474
 C152 C -0.01823 0.37656 0.67948
 C153 C -0.01237 0.42797 0.67954
 H154 H -0.00168 0.64741 0.66512
 H155 H -0.03533 0.50381 0.69169
 H156 H 0.00403 0.52179 0.63901
 H157 H -0.04926 0.43490 0.63980
 H158 H -0.03386 0.30986 0.66434
 H159 H 0.00054 0.45027 0.69077
 C160 C 0.61880 0.63621 0.33711
 C161 C 0.60301 0.61006 0.32203
 C162 C 0.55606 0.55898 0.32186
 C163 C 0.52309 0.53518 0.33641
 C164 C 0.53884 0.56363 0.35124
 C165 C 0.58715 0.61344 0.35176
 C166 C 0.47233 0.48114 0.33625
 C167 C 0.45385 0.44814 0.35076
 C168 C 0.40519 0.39841 0.35105
 C169 C 0.37608 0.38037 0.33640
 C170 C 0.39490 0.41092 0.32155
 C171 C 0.44202 0.46188 0.32168
 H172 H 0.65670 0.67420 0.33751
 H173 H 0.54532 0.53830 0.31030
 H174 H 0.51323 0.54778 0.36244
 H175 H 0.47762 0.46043 0.36190
 H176 H 0.33786 0.34253 0.33659
 H177 H 0.45499 0.48601 0.31034
 C178 C -0.11515 0.09764 0.56122
 C179 C -0.12245 0.12682 0.57379
 C180 C -0.08390 0.18088 0.57548
 C181 C -0.03841 0.20591 0.56417
 C182 C -0.03073 0.17667 0.55174
 C183 C -0.06859 0.12209 0.55029
 N184 N -0.08946 0.20847 0.58939
 N185 N -0.05815 0.25846 0.59085
 C186 C -0.06011 0.28596 0.60527
 C187 C -0.02657 0.34144 0.60544
 C188 C -0.02263 0.36903 0.61990
 C189 C -0.05191 0.34133 0.63452
 C190 C -0.08708 0.28579 0.63416
 C191 C -0.09131 0.25830 0.61964
 H192 H -0.14467 0.05552 0.56044
 H193 H -0.15750 0.10700 0.58248
 H194 H -0.00791 0.24761 0.56523
 H195 H 0.00523 0.19652 0.54337
 H196 H -0.00209 0.36315 0.59448
 H197 H 0.00525 0.41171 0.61986
 H198 H -0.11044 0.26355 0.64521
 H199 H -0.11745 0.21535 0.61982
 C200 C 0.85840 0.88853 0.23671
 C201 C 0.82580 0.85626 0.25006
 C202 C 0.79503 0.80096 0.24867
 C203 C 0.79761 0.77780 0.23370
 C204 C 0.83014 0.81025 0.22020
 C205 C 0.86042 0.86611 0.22152
 N206 N 0.76076 0.77014 0.26260
 N207 N 0.73419 0.71935 0.26341
 C208 C 0.69992 0.69171 0.27778
 C209 C 0.67865 0.63656 0.27994
 C210 C 0.64671 0.60950 0.29423
 C211 C 0.63529 0.63735 0.30651
 C212 C 0.65550 0.69241 0.30400
 C213 C 0.68763 0.71932 0.28988
 H214 H 0.88223 0.93119 0.23832
 H215 H 0.82433 0.87445 0.26157
 H216 H 0.77394 0.73501 0.23237
 H217 H 0.83061 0.79180 0.20865
 H218 H 0.68765 0.61473 0.27070
 H219 H 0.63204 0.56715 0.29582
 H220 H 0.64631 0.71484 0.31298
 H221 H 0.70279 0.76180 0.28843
 C222 C 0.20545 0.08080 -0.10740
 C223 C 0.24121 0.08831 -0.09441
 C224 C 0.26562 0.05583 -0.09267
 C225 C 0.25530 0.01672 -0.10441
 C226 C 0.21932 0.00892 -0.11729
 C227 C 0.19320 0.04018 -0.11873
 N228 N 0.29737 0.06061 -0.07832
 N229 N 0.32135 0.03281 -0.07635
 C230 C 0.34997 0.03408 -0.06161
 C231 C 0.37670 0.00352 -0.06074
 C232 C 0.40073 -0.00019 -0.04605
 C233 C 0.39808 0.02648 -0.03191
 C234 C 0.37249 0.05834 -0.03293
 C235 C 0.34869 0.06222 -0.04768
 H236 H 0.18555 0.10516 -0.10816
 H237 H 0.24868 0.11847 -0.08542
 H238 H 0.27368 -0.00889 -0.10336
 H239 H 0.21108 -0.02223 -0.12598
 H240 H 0.37765 -0.01859 -0.07137
 H241 H 0.41964 -0.02546 -0.04558
 H242 H 0.37041 0.07980 -0.02228
 H243 H 0.32817 0.08606 -0.04805
 C244 C 0.07341 0.86940 0.56022
 C245 C 0.07999 0.83855 0.57266
 C246 C 0.04081 0.78447 0.57505
 C247 C -0.00464 0.76112 0.56459
 C248 C -0.01154 0.79200 0.55228
 C249 C 0.02701 0.84659 0.55011
 N250 N 0.04601 0.75503 0.58877
 N251 N 0.01369 0.70507 0.59094
 C252 C 0.01578 0.67581 0.60521
 C253 C -0.01936 0.62052 0.60623
 C254 C -0.02252 0.59135 0.62065
 C255 C 0.00921 0.61724 0.63438
 C256 C 0.04581 0.67256 0.63313
 C257 C 0.04921 0.70164 0.61865
 H258 H 0.10347 0.91148 0.55891
 H259 H 0.11503 0.85708 0.58069
 H260 H -0.03558 0.71942 0.56620
 H261 H -0.04737 0.77335 0.54454
 H262 H -0.04552 0.60023 0.59599
 H263 H -0.05150 0.54889 0.62133
 H264 H 0.07112 0.69342 0.64347
 H265 H 0.07667 0.74439 0.61816
 C266 C 0.15458 0.15521 0.23583
 C267 C 0.18451 0.18448 0.24919
 C268 C 0.21611 0.24002 0.24785
 C269 C 0.21695 0.26651 0.23293
 C270 C 0.18708 0.23706 0.21941
 C271 C 0.15615 0.18094 0.22067
 N272 N 0.24789 0.26753 0.26176
 N273 N 0.27488 0.31809 0.26273
 C274 C 0.30658 0.34186 0.27711
 C275 C 0.32746 0.39637 0.27974
 C276 C 0.35667 0.41942 0.29409
 C277 C 0.36571 0.38816 0.30595
 C278 C 0.34607 0.33388 0.30294
 C279 C 0.31665 0.31096 0.28878
 H280 H 0.13009 0.11224 0.23740
 H281 H 0.18335 0.16374 0.26067
 H282 H 0.24131 0.30955 0.23165
 H283 H 0.18924 0.25800 0.20789
 H284 H 0.32019 0.42074 0.27084
 H285 H 0.37104 0.46128 0.29607
 H286 H 0.35357 0.30897 0.31157
 H287 H 0.30183 0.26894 0.28696
 C288 C 0.81673 0.00601 -0.12167
 C289 C 0.78687 0.01228 -0.10857
 C290 C 0.76049 -0.02769 -0.09629
 C291 C 0.76313 -0.07505 -0.09739
 C292 C 0.79396 -0.08116 -0.11032
 C293 C 0.82226 -0.04030 -0.12261
 N294 N 0.73491 -0.01737 -0.08229
 N295 N 0.70149 -0.05381 -0.07209
 C296 C 0.67983 -0.04086 -0.05768
 C297 C 0.63092 -0.08015 -0.04970
 C298 C 0.60933 -0.06806 -0.03559
 C299 C 0.63747 -0.01687 -0.02904
 C300 C 0.68690 0.02218 -0.03688
 C301 C 0.70766 0.01050 -0.05118
 H302 H 0.83859 0.03954 -0.13031
 H303 H 0.78547 0.04919 -0.10776
 H304 H 0.74283 -0.10662 -0.08800
 H305 H 0.79479 -0.11836 -0.11069
 H306 H 0.60925 -0.11993 -0.05454
 H307 H 0.57119 -0.09871 -0.02964
 H308 H 0.70907 0.06191 -0.03201
 H309 H 0.74586 0.04133 -0.05703
 C310 C 0.11249 -0.04688 0.10027
 C311 C 0.14188 -0.05182 0.08674
 C312 C 0.19710 -0.03976 0.08822
 C313 C 0.22216 -0.02475 0.10365
 C314 C 0.19264 -0.02034 0.11725
 C315 C 0.13778 -0.03027 0.11565
 N316 N 0.22747 -0.04037 0.07371
 N317 N 0.27967 -0.02255 0.07358
 C318 C 0.31022 -0.02119 0.05885
 C319 C 0.36824 0.00564 0.05896
 C320 C 0.39942 0.01130 0.04445
 C321 C 0.37294 -0.01030 0.02955
 C322 C 0.31454 -0.03876 0.02964
 C323 C 0.28345 -0.04397 0.04412
 H324 H 0.07070 -0.05406 0.09846
 H325 H 0.12218 -0.06327 0.07490
 H326 H 0.26473 -0.01566 0.10513
 H327 H 0.21306 -0.00849 0.12897
 H328 H 0.38935 0.02352 0.07022
 H329 H 0.44426 0.03399 0.04480
 H330 H 0.29282 -0.05684 0.01848
 H331 H 0.23859 -0.06526 0.04375
 C332 C 0.79903 0.88571 0.43825
 C333 C 0.76486 0.85706 0.42540
 C334 C 0.73549 0.80147 0.42617
 C335 C 0.73905 0.77443 0.44030
 C336 C 0.77306 0.80277 0.45325
 C337 C 0.80525 0.85941 0.45247
 N338 N 0.70490 0.77365 0.41209
 N339 N 0.67918 0.72295 0.41155
 C340 C 0.65142 0.69587 0.39699
 C341 C 0.62687 0.64021 0.39678
 C342 C 0.60418 0.61308 0.38224
 C343 C 0.60578 0.64139 0.36765
 C344 C 0.62852 0.69711 0.36810
 C345 C 0.65120 0.72413 0.38262
 H346 H 0.82297 0.92836 0.43612
 H347 H 0.76271 0.87838 0.41447
 H348 H 0.71592 0.73127 0.44131
 H349 H 0.77210 0.77929 0.46397
 H350 H 0.62688 0.61798 0.40776
 H351 H 0.58738 0.57023 0.38224
 H352 H 0.62953 0.71990 0.35713
 H353 H 0.66965 0.76717 0.38248
 C354 C -0.02102 0.11356 0.76495
 C355 C -0.02911 0.14312 0.75252
 C356 C 0.00185 0.19879 0.75195
 C357 C 0.04101 0.22503 0.76415
 C358 C 0.04892 0.19535 0.77675
 C359 C 0.01826 0.13923 0.77715
 N360 N -0.00755 0.22692 0.73871
 N361 N 0.02036 0.27726 0.73626
 C362 C 0.00888 0.30250 0.72255
 C363 C 0.04374 0.35702 0.71899
 C364 C 0.03473 0.38165 0.70515
 C365 C -0.00952 0.35194 0.69468
 C366 C -0.04519 0.29758 0.69858
 C367 C -0.03607 0.27309 0.71231
 H368 H -0.04606 0.07047 0.76512
 H369 H -0.05956 0.12255 0.74323
 H370 H 0.06534 0.26816 0.76394
 H371 H 0.07943 0.21609 0.78601
 H372 H 0.07854 0.38018 0.72676
 H373 H 0.06318 0.42350 0.70240
 H374 H -0.08026 0.27387 0.69095
 H375 H -0.06402 0.23100 0.71484
 C376 C 0.92061 0.10397 0.09947
 C377 C 0.89223 0.10702 0.08570
 C378 C 0.83649 0.09396 0.08733
 C379 C 0.81000 0.08036 0.10311
 C380 C 0.83846 0.07778 0.11693
 C381 C 0.89370 0.08820 0.11521
 N382 N 0.80686 0.09119 0.07266
 N383 N 0.75449 0.07238 0.07301
 C384 C 0.72425 0.06664 0.05826
 C385 C 0.66623 0.03930 0.05937
 C386 C 0.63527 0.02839 0.04505
 C387 C 0.66195 0.04509 0.02931
 C388 C 0.72034 0.07436 0.02831
 C389 C 0.75124 0.08486 0.04264
 H390 H 0.96279 0.11157 0.09761
 H391 H 0.91305 0.11740 0.07359
 H392 H 0.76701 0.07054 0.10471
 H393 H 0.81682 0.06654 0.12891
 H394 H 0.64497 0.02485 0.07133
 H395 H 0.59047 0.00516 0.04628
 H396 H 0.74219 0.08872 0.01642
 H397 H 0.79612 0.10638 0.04148
 C398 C 0.16368 0.10411 0.43447
 C399 C 0.19952 0.13537 0.42142
 C400 C 0.23799 0.18903 0.42364
 C401 C 0.24159 0.21092 0.43931
 C402 C 0.20609 0.17955 0.45245
 C403 C 0.16606 0.12593 0.45013
 N404 N 0.27074 0.22075 0.40959
 N405 N 0.30197 0.27108 0.41007
 C406 C 0.33239 0.30231 0.39563
 C407 C 0.35932 0.35804 0.39618
 C408 C 0.38460 0.38949 0.38183
 C409 C 0.38359 0.36553 0.36667
 C410 C 0.35870 0.30957 0.36637
 C411 C 0.33313 0.27824 0.38068
 H412 H 0.13287 0.06336 0.43210
 H413 H 0.19619 0.11814 0.40937
 H414 H 0.27128 0.25230 0.44135
 H415 H 0.20976 0.19741 0.46440
 H416 H 0.35899 0.37708 0.40762
 H417 H 0.40298 0.43242 0.38246
 H418 H 0.35825 0.28992 0.35499
 H419 H 0.31308 0.23522 0.37997
 C420 C 0.04408 0.83561 0.77208
 C421 C 0.04518 0.80566 0.75883
 C422 C 0.00209 0.75363 0.75696
 C423 C -0.04254 0.73139 0.76862
 C424 C -0.04379 0.76151 0.78196
 C425 C -0.00036 0.81399 0.78383
 N426 N 0.00467 0.72545 0.74282
 N427 N -0.03159 0.67769 0.73988
 C428 C -0.02673 0.65254 0.72521
 C429 C -0.06638 0.59953 0.72235
 C430 C -0.06304 0.57493 0.70785
 C431 C -0.02005 0.60333 0.69593
 C432 C 0.01998 0.65623 0.69896
 C433 C 0.01676 0.68058 0.71342
 H434 H 0.07754 0.87627 0.77290
 H435 H 0.07953 0.82329 0.74983
 H436 H -0.07642 0.69117 0.76737
 H437 H -0.07847 0.74377 0.79084
 H438 H -0.10014 0.57746 0.73131
 H439 H -0.09464 0.53421 0.70578
 H440 H 0.05401 0.67879 0.69012
 H441 H 0.04812 0.72152 0.71530
   
