data_POSCAR
  _audit_creation_date              2014-09-24
  _audit_creation_method            'ToBaCCo'
  _symmetry_space_group_name_H-M    'P1'
  _symmetry_Int_Tables_number       1
  _symmetry_cell_setting            triclinic
  loop_
  _symmetry_equiv_pos_as_xyz
 x,y,z
_cell_length_a 33.7799
_cell_length_b 33.7845
_cell_length_c 33.8178
_cell_angle_alpha 90.560800
_cell_angle_beta 89.820400
_cell_angle_gamma 89.591900
loop_
  _atom_site_label
  _atom_site_type_symbol
  _atom_site_fract_x
  _atom_site_fract_y
  _atom_site_fract_z
C1 C 0.57466 0.39771 -0.00184
 C2 C 0.60327 0.42622 -0.00350
 C3 C 0.58380 0.46254 -0.00191
 N4 N 0.54432 0.45694 0.00060
 C5 C 0.53854 0.41739 0.00059
 C6 C 0.60279 0.49976 -0.00104
 C7 C 0.58283 0.53683 0.00132
 C8 C 0.60140 0.57263 0.00896
 C9 C 0.57260 0.60144 0.00876
 C10 C 0.53693 0.58273 0.00101
 N11 N 0.54357 0.54337 -0.00403
 C12 C 0.49992 0.60265 -0.00170
 C13 C 0.46271 0.58364 -0.00260
 C14 C 0.42641 0.60306 -0.00443
 C15 C 0.39787 0.57450 -0.00268
 C16 C 0.41752 0.53843 0.00003
 N17 N 0.45707 0.54421 0.00014
 C18 C 0.39857 0.50127 0.00167
 C19 C 0.41825 0.46406 0.00217
 C20 C 0.39918 0.42790 -0.00080
 C21 C 0.42801 0.39906 -0.00069
 C22 C 0.46414 0.41817 0.00234
 N23 N 0.45780 0.45776 0.00477
 C24 C 0.50134 0.39847 0.00206
 H25 H 0.57993 0.36607 -0.00251
 H26 H 0.63484 0.42079 -0.00530
 H27 H 0.47900 0.47904 0.00998
 H28 H 0.63255 0.57752 0.01443
 H29 H 0.57740 0.63269 0.01406
 H30 H 0.42101 0.63460 -0.00645
 H31 H 0.36624 0.57975 -0.00348
 H32 H 0.42288 0.36756 -0.00326
 H33 H 0.52321 0.52283 -0.01409
 H34 H 0.36771 0.42273 -0.00346
 C35 C -0.00033 0.57481 0.60293
 C36 C 0.00163 0.60337 0.57451
 C37 C 0.00125 0.58385 0.53819
 N38 N -0.00080 0.54435 0.54372
 C39 C -0.00172 0.53866 0.58320
 C40 C 0.00135 0.60280 0.50104
 C41 C -0.00030 0.58283 0.46396
 C42 C -0.00653 0.60152 0.42808
 C43 C -0.00661 0.57257 0.39935
 C44 C -0.00043 0.53677 0.41820
 N45 N 0.00401 0.54337 0.45752
 C46 C 0.00106 0.49962 0.39843
 C47 C 0.00096 0.46246 0.41726
 C48 C 0.00112 0.42622 0.39761
 C49 C -0.00086 0.39769 0.42608
 C50 C -0.00204 0.41735 0.46227
 N51 N -0.00095 0.45687 0.45670
 C52 C -0.00302 0.39848 0.49937
 C53 C -0.00245 0.41830 0.53649
 C54 C 0.00213 0.39937 0.57244
 C55 C 0.00224 0.42827 0.60124
 C56 C -0.00229 0.46428 0.58230
 N57 N -0.00582 0.45784 0.54288
 C58 C -0.00270 0.50149 0.60202
 H59 H -0.00046 0.58013 0.63455
 H60 H 0.00290 0.63496 0.57999
 H61 H -0.01282 0.47888 0.52198
 H62 H -0.01103 0.63283 0.42309
 H63 H -0.01117 0.57741 0.36810
 H64 H 0.00223 0.42084 0.36602
 H65 H -0.00117 0.36606 0.42068
 H66 H 0.00586 0.42326 0.63258
 H67 H 0.01269 0.52262 0.47816
 H68 H 0.00566 0.36795 0.57747
 C69 C 0.39811 -0.00217 0.57397
 C70 C 0.42669 -0.00389 0.60260
 C71 C 0.46297 -0.00237 0.58329
 N72 N 0.45727 0.00016 0.54385
 C73 C 0.41771 0.00023 0.53797
 C74 C 0.50021 -0.00163 0.60239
 C75 C 0.53720 0.00077 0.58254
 C76 C 0.57294 0.00824 0.60128
 C77 C 0.60167 0.00827 0.57252
 C78 C 0.58298 0.00081 0.53671
 N79 N 0.54372 -0.00427 0.54320
 C80 C 0.60284 -0.00158 0.49969
 C81 C 0.58377 -0.00235 0.46245
 C82 C 0.60319 -0.00386 0.42620
 C83 C 0.57456 -0.00214 0.39764
 C84 C 0.53845 0.00024 0.41720
 N85 N 0.54427 0.00015 0.45673
 C86 C 0.50122 0.00171 0.39818
 C87 C 0.46406 0.00198 0.41783
 C88 C 0.42791 -0.00121 0.39871
 C89 C 0.39915 -0.00122 0.42749
 C90 C 0.41830 0.00195 0.46363
 N91 N 0.45781 0.00459 0.45737
 C92 C 0.39870 0.00169 0.50077
 H93 H 0.36649 -0.00278 0.57914
 H94 H 0.42132 -0.00571 0.63410
 H95 H 0.47901 0.01001 0.47865
 H96 H 0.57784 0.01347 0.63250
 H97 H 0.63284 0.01352 0.57745
 H98 H 0.63477 -0.00565 0.42086
 H99 H 0.57979 -0.00274 0.36604
 H100 H 0.36769 -0.00395 0.42229
 H101 H 0.52328 -0.01410 0.52261
 H102 H 0.42271 -0.00392 0.36724
 O103 O 0.46816 -0.00055 -0.05526
 O104 O 0.46816 -0.00009 0.05373
 O105 O 0.46822 0.05417 -0.00045
 O106 O 0.46809 -0.05482 -0.00106
 O107 O 0.53338 -0.05538 -0.00127
 O108 O 0.53351 0.05363 -0.00067
 O109 O 0.53345 -0.00064 0.05352
 O110 O 0.53345 -0.00110 -0.05547
 Cu111 Cu 0.46163 -0.00027 -0.00075
 Cu112 Cu 0.53998 -0.00093 -0.00100
 C113 C 0.50081 -0.00089 -0.07405
 C114 C 0.50080 -0.00029 0.07231
 C115 C 0.50089 0.07258 -0.00045
 C116 C 0.50071 -0.07378 -0.00125
 O117 O -0.05525 0.53320 1.00077
 O118 O 0.05374 0.53335 1.00049
 O119 O -0.00075 0.53342 0.94624
 O120 O -0.00077 0.53312 1.05502
 O121 O -0.00021 0.46783 1.05420
 O122 O -0.00018 0.46813 0.94543
 O123 O 0.05431 0.46807 0.99967
 O124 O -0.05469 0.46791 0.99995
 Cu125 Cu -0.00081 0.53982 1.00071
 Cu126 Cu -0.00014 0.46143 0.99973
 C127 C -0.07365 0.50053 1.00038
 C128 C 0.07271 0.50074 1.00005
 C129 C -0.00049 0.50082 0.92719
 C130 C -0.00048 0.50043 1.07325
 O131 O 0.00019 -0.05539 0.46773
 O132 O -0.00074 0.05358 0.46751
 O133 O 0.05423 -0.00082 0.46764
 O134 O -0.05478 -0.00098 0.46763
 O135 O -0.05499 -0.00021 0.53285
 O136 O 0.05401 -0.00005 0.53286
 O137 O -0.00095 0.05436 0.53273
 O138 O -0.00003 -0.05462 0.53295
 Cu139 Cu -0.00025 -0.00098 0.46109
 Cu140 Cu -0.00051 -0.00005 0.53938
 C141 C 0.00022 -0.07369 0.50038
 C142 C -0.00100 0.07265 0.50008
 C143 C 0.07281 -0.00039 0.50026
 C144 C -0.07357 -0.00062 0.50024
 C145 C -0.18037 0.53620 1.00068
 C146 C -0.20083 0.50033 1.00016
 C147 C -0.17975 0.46452 0.99980
 C148 C -0.13836 0.46454 0.99991
 C149 C -0.35657 0.49993 0.99924
 C150 C -0.13898 0.53631 1.00079
 C151 C -0.24343 0.50026 0.99995
 C152 C -0.27911 0.50018 0.99974
 C153 C -0.32087 0.50006 0.99947
 C154 C -0.11749 0.50046 1.00039
 H155 H -0.19641 0.56409 1.00096
 H156 H -0.19530 0.43658 0.99940
 H157 H -0.12273 0.43645 0.99959
 H158 H -0.12384 0.56445 1.00117
 C159 C 0.17881 0.53673 1.00058
 C160 C 0.19988 0.50092 1.00020
 C161 C 0.17942 0.46505 0.99971
 C162 C 0.13803 0.46495 0.99961
 C163 C 0.35561 0.50118 1.00126
 C164 C 0.13741 0.53671 1.00048
 C165 C 0.24249 0.50098 1.00042
 C166 C 0.27816 0.50104 1.00065
 C167 C 0.31993 0.50111 1.00096
 C168 C 0.11655 0.50080 1.00002
 H169 H 0.19436 0.56467 1.00097
 H170 H 0.19546 0.43716 0.99942
 H171 H 0.12289 0.43680 0.99925
 H172 H 0.12179 0.56481 1.00081
 C173 C 0.00074 -0.17966 0.53638
 C174 C 0.00097 -0.20085 0.50061
 C175 C 0.00100 -0.18050 0.46477
 C176 C 0.00078 -0.13911 0.46465
 C177 C 0.00131 -0.35657 0.50092
 C178 C 0.00052 -0.13827 0.53634
 C179 C 0.00112 -0.24344 0.50069
 C180 C 0.00121 -0.27912 0.50076
 C181 C 0.00128 -0.32087 0.50084
 C182 C 0.00053 -0.11752 0.50046
 H183 H 0.00071 -0.19513 0.56429
 H184 H 0.00117 -0.19661 0.43691
 H185 H 0.00079 -0.12406 0.43653
 H186 H 0.00033 -0.12256 0.56441
 C187 C -0.00193 0.17948 0.53565
 C188 C -0.00195 0.19981 0.49980
 C189 C -0.00167 0.17861 0.46404
 C190 C -0.00138 0.13723 0.46409
 C191 C -0.00284 0.35552 0.49945
 C192 C -0.00163 0.13809 0.53578
 C193 C -0.00223 0.24241 0.49970
 C194 C -0.00244 0.27808 0.49961
 C195 C -0.00266 0.31984 0.49952
 C196 C -0.00135 0.11649 0.49999
 H197 H -0.00214 0.19561 0.56350
 H198 H -0.00168 0.19407 0.43612
 H199 H -0.00116 0.12150 0.43603
 H200 H -0.00162 0.12305 0.56391
 C201 C 0.46496 -0.00089 -0.18031
 C202 C 0.50079 -0.00124 -0.20122
 C203 C 0.53663 -0.00149 -0.18056
 C204 C 0.53668 -0.00139 -0.13919
 C205 C 0.50044 -0.00154 -0.35696
 C206 C 0.46492 -0.00079 -0.13895
 C207 C 0.50077 -0.00132 -0.24383
 C208 C 0.50071 -0.00139 -0.27950
 C209 C 0.50060 -0.00147 -0.32127
 C210 C 0.50080 -0.00103 -0.11789
 H211 H 0.43703 -0.00069 -0.19599
 H212 H 0.56455 -0.00176 -0.19642
 H213 H 0.56481 -0.00158 -0.12392
 H214 H 0.43680 -0.00051 -0.12349
 C215 C 0.53665 -0.00008 0.17857
 C216 C 0.50082 0.00034 0.19947
 C217 C 0.46498 0.00053 0.17881
 C218 C 0.46493 0.00032 0.13745
 C219 C 0.50105 0.00137 0.35522
 C220 C 0.53669 -0.00029 0.13721
 C221 C 0.50083 0.00059 0.24209
 C222 C 0.50087 0.00082 0.27776
 C223 C 0.50095 0.00110 0.31953
 C224 C 0.50081 -0.00009 0.11615
 H225 H 0.56457 -0.00023 0.19425
 H226 H 0.43706 0.00085 0.19468
 H227 H 0.43681 0.00049 0.12217
 H228 H 0.56481 -0.00060 0.12175
 C229 C 0.53639 -0.18050 -0.00173
 C230 C 0.50051 -0.20096 -0.00165
 C231 C 0.46471 -0.17988 -0.00148
 C232 C 0.46473 -0.13849 -0.00138
 C233 C 0.50009 -0.35671 -0.00172
 C234 C 0.53650 -0.13911 -0.00162
 C235 C 0.50044 -0.24357 -0.00170
 C236 C 0.50035 -0.27924 -0.00172
 C237 C 0.50022 -0.32101 -0.00173
 C238 C 0.50064 -0.11762 -0.00143
 H239 H 0.56428 -0.19654 -0.00186
 H240 H 0.43676 -0.19542 -0.00142
 H241 H 0.43663 -0.12286 -0.00123
 H242 H 0.56464 -0.12397 -0.00167
 C243 C 0.46516 0.17928 0.00040
 C244 C 0.50102 0.19976 0.00043
 C245 C 0.53684 0.17870 0.00014
 C246 C 0.53684 0.13731 -0.00015
 C247 C 0.50125 0.35551 0.00167
 C248 C 0.46507 0.13789 0.00011
 C249 C 0.50105 0.24237 0.00075
 C250 C 0.50110 0.27805 0.00103
 C251 C 0.50118 0.31982 0.00137
 C252 C 0.50094 0.11643 -0.00017
 H253 H 0.43725 0.19530 0.00062
 H254 H 0.56477 0.19427 0.00016
 H255 H 0.56495 0.12170 -0.00036
 H256 H 0.43693 0.12274 0.00010
 C257 C -0.17986 -0.00129 0.46443
 C258 C -0.20076 -0.00093 0.50023
 C259 C -0.18010 -0.00045 0.53604
 C260 C -0.13871 -0.00034 0.53608
 C261 C -0.35652 -0.00144 0.49991
 C262 C -0.13847 -0.00118 0.46439
 C263 C -0.24337 -0.00106 0.50022
 C264 C -0.27905 -0.00118 0.50017
 C265 C -0.32082 -0.00132 0.50006
 C266 C -0.11741 -0.00071 0.50024
 H267 H -0.19556 -0.00166 0.43654
 H268 H -0.19599 -0.00017 0.56392
 H269 H -0.12342 0.00002 0.56418
 H270 H -0.12299 -0.00147 0.43630
 C271 C 0.17909 0.00044 0.53610
 C272 C 0.19999 0.00014 0.50031
 C273 C 0.17935 -0.00039 0.46450
 C274 C 0.13796 -0.00059 0.46443
 C275 C 0.35574 0.00130 0.50060
 C276 C 0.13770 0.00024 0.53612
 C277 C 0.24260 0.00042 0.50034
 C278 C 0.27828 0.00068 0.50039
 C279 C 0.32005 0.00101 0.50049
 C280 C 0.11665 -0.00026 0.50027
 H281 H 0.19478 0.00085 0.56399
 H282 H 0.19525 -0.00062 0.43662
 H283 H 0.12268 -0.00097 0.43633
 H284 H 0.12221 0.00050 0.56421
 C285 C 0.00012 0.46428 1.17900
 C286 C -0.00011 0.50007 1.20016
 C287 C -0.00051 0.53597 1.17990
 C288 C -0.00066 0.53613 1.13858
 C289 C 0.00081 0.49968 1.35557
 C290 C -0.00004 0.46435 1.13767
 C291 C 0.00012 0.49995 1.24267
 C292 C 0.00033 0.49985 1.27828
 C293 C 0.00059 0.49974 1.31995
 C294 C -0.00041 0.50030 1.11700
 H295 H 0.00043 0.43633 1.19443
 H296 H -0.00068 0.56384 1.19604
 H297 H -0.00095 0.56430 1.12357
 H298 H 0.00016 0.43628 1.12195
 C299 C -0.00121 0.53693 0.82144
 C300 C -0.00103 0.50114 0.80028
 C301 C -0.00059 0.46524 0.82056
 C302 C -0.00037 0.46509 0.86188
 C303 C -0.00234 0.50142 0.64488
 C304 C -0.00099 0.53687 0.86276
 C305 C -0.00136 0.50123 0.75778
 C306 C -0.00166 0.50130 0.72217
 C307 C -0.00203 0.50135 0.68050
 C308 C -0.00059 0.50093 0.88345
 H309 H -0.00155 0.56488 0.80599
 H310 H -0.00045 0.43737 0.80443
 H311 H -0.00006 0.43694 0.87690
 H312 H -0.00117 0.56496 0.87847
   
