data_POSCAR
  _audit_creation_date              2014-09-24
  _audit_creation_method            'ToBaCCo'
  _symmetry_space_group_name_H-M    'P1'
  _symmetry_Int_Tables_number       1
  _symmetry_cell_setting            triclinic
  loop_
  _symmetry_equiv_pos_as_xyz
 x,y,z
_cell_length_a 30.9431
_cell_length_b 30.9710
_cell_length_c 40.0147
_cell_angle_alpha 89.467600
_cell_angle_beta 88.803600
_cell_angle_gamma 94.041600
loop_
  _atom_site_label
  _atom_site_type_symbol
  _atom_site_fract_x
  _atom_site_fract_y
  _atom_site_fract_z
C1 C -0.01063 0.54111 1.01836
 C2 C -0.01725 0.54071 0.98308
 C3 C -0.01877 0.50065 0.96655
 C4 C -0.01537 0.46136 0.98367
 C5 C -0.00967 0.46136 1.01879
 C6 C -0.00752 0.50137 1.03529
 H7 H -0.00268 0.50164 1.06202
 H8 H -0.02414 0.49953 0.93986
 C9 C 0.46296 -0.00651 0.51786
 C10 C 0.46398 0.00213 0.48314
 C11 C 0.50391 0.00566 0.46575
 C12 C 0.54334 0.00054 0.48195
 C13 C 0.54199 -0.00708 0.51713
 C14 C 0.50191 -0.01067 0.53439
 H15 H 0.50104 -0.01621 0.56121
 H16 H 0.50377 0.01091 0.43893
 C17 C 0.09981 0.00938 0.25603
 H18 H 0.09942 0.00873 0.22901
 C19 C 0.13924 0.01234 0.27245
 H20 H 0.16918 0.01434 0.25784
 C21 C 0.06106 0.00817 0.30777
 H22 H 0.03056 0.00684 0.32147
 C23 C 0.09977 0.01117 0.32522
 H24 H 0.09853 0.01123 0.35228
 N25 N 0.06177 0.00639 0.27381
 C26 C -0.02886 -0.06292 0.20788
 H27 H -0.05442 -0.04084 0.20732
 C28 C -0.03273 -0.10126 0.18978
 H29 H -0.06121 -0.10815 0.17495
 C30 C 0.03954 -0.08021 0.22764
 H31 H 0.06731 -0.07233 0.24287
 C32 C 0.03695 -0.11896 0.21001
 H33 H 0.06289 -0.14049 0.21196
 Zn34 Zn 0.01002 0.00008 0.24934
 N35 N 0.00718 -0.05279 0.22586
 C36 C 0.00712 0.04134 0.18559
 N37 N 0.01015 0.04750 0.21910
 C38 C 0.01385 0.08797 0.23209
 C39 C 0.01299 0.12427 0.21124
 C40 C 0.00602 0.07674 0.16384
 C41 C -0.04524 -0.03368 0.30118
 C42 C -0.08166 -0.03645 0.32252
 C43 C -0.10608 0.02727 0.29552
 C44 C -0.06908 0.02899 0.27488
 N45 N -0.03934 -0.00100 0.27824
 H46 H 0.00552 0.00904 0.17558
 H47 H 0.01676 0.09194 0.25880
 H48 H 0.01483 0.15618 0.22217
 H49 H 0.00354 0.07122 0.13724
 H50 H -0.02157 -0.05768 0.30282
 H51 H -0.08594 -0.06279 0.34053
 H52 H -0.12918 0.05167 0.29269
 H53 H -0.06450 0.05405 0.25596
 C54 C 0.00058 -0.12979 0.19055
 C55 C 0.13956 0.01270 0.30754
 C56 C -0.11269 -0.00571 0.31978
 C57 C 0.00860 0.11887 0.17664
 C58 C 0.00432 0.09205 0.76450
 H59 H 0.00778 0.09395 0.73756
 C60 C 0.00683 0.12985 0.78327
 H61 H 0.01199 0.16089 0.77059
 C62 C -0.00731 0.04915 0.81365
 H63 H -0.01314 0.01765 0.82535
 C64 C -0.00551 0.08622 0.83338
 H65 H -0.00933 0.08289 0.86027
 N66 N -0.00177 0.05269 0.77989
 C67 C 0.05489 -0.03222 0.70697
 H68 H 0.02816 -0.05606 0.70342
 C69 C 0.09399 -0.03554 0.68939
 H70 H 0.09719 -0.06208 0.67229
 C71 C 0.08361 0.03061 0.73436
 H72 H 0.07983 0.05593 0.75231
 C73 C 0.12331 0.02833 0.71752
 H74 H 0.14930 0.05266 0.72215
 Zn75 Zn -0.00346 0.00349 0.75203
 N76 N 0.05015 0.00094 0.72850
 C77 C -0.04394 0.00767 0.68850
 N78 N -0.04968 0.00864 0.72228
 C79 C -0.08929 0.01378 0.73640
 C80 C -0.12543 0.01671 0.71645
 C81 C -0.07930 0.01022 0.66758
 C82 C 0.01764 -0.05773 0.80002
 C83 C 0.01364 -0.09677 0.81797
 C84 C -0.05227 -0.11627 0.78868
 C85 C -0.04715 -0.07677 0.77144
 N86 N -0.01265 -0.04839 0.77742
 H87 H -0.01209 0.00455 0.67766
 H88 H -0.09280 0.01518 0.76332
 H89 H -0.15660 0.02094 0.72830
 H90 H -0.07424 0.00806 0.64081
 H91 H 0.04524 -0.03499 0.80378
 H92 H 0.03843 -0.10393 0.83548
 H93 H -0.07995 -0.13843 0.78361
 H94 H -0.07036 -0.06928 0.75285
 C95 C 0.12881 -0.00492 0.69456
 C96 C 0.00212 0.12719 0.81819
 C97 C -0.02155 -0.12676 0.81221
 C98 C -0.12086 0.01438 0.68152
 C99 C 0.02297 -0.38478 0.02455
 C100 C 0.02865 -0.34667 0.04288
 C101 C 0.00816 -0.34309 0.07423
 C102 C -0.01677 -0.37917 0.08753
 C103 C -0.02261 -0.41717 0.06921
 C104 C -0.00372 -0.42034 0.03704
 C105 C 0.01428 -0.30179 0.09260
 C106 C -0.01397 -0.28956 0.11600
 C107 C -0.00897 -0.24822 0.13444
 C108 C -0.04548 -0.23349 0.15099
 C109 C -0.04244 -0.19513 0.16913
 C110 C -0.00264 -0.17062 0.17128
 C111 C 0.03406 -0.18551 0.15498
 C112 C 0.03104 -0.22396 0.13688
 H113 H 0.03997 -0.38654 0.00073
 H114 H 0.04891 -0.31974 0.03239
 H115 H -0.03170 -0.37847 0.11218
 H116 H -0.04337 -0.44360 0.07990
 H117 H 0.04174 -0.28007 0.08514
 H118 H -0.04342 -0.30972 0.12106
 H119 H -0.07659 -0.25176 0.14989
 H120 H -0.07116 -0.18501 0.18189
 H121 H 0.06515 -0.16724 0.15599
 H122 H 0.06029 -0.23464 0.12537
 C123 C 0.02416 0.42244 0.06393
 C124 C 0.02785 0.38522 0.08326
 C125 C 0.00178 0.34738 0.07730
 C126 C -0.02890 0.34776 0.05187
 C127 C -0.03276 0.38511 0.03254
 C128 C -0.00589 0.42301 0.03793
 C129 C 0.00652 0.30915 0.09911
 C130 C -0.00496 0.26831 0.09032
 C131 C -0.00011 0.23037 0.11250
 C132 C -0.02628 0.19227 0.10725
 C133 C -0.02328 0.15599 0.12788
 C134 C 0.00624 0.15695 0.15413
 C135 C 0.03318 0.19470 0.15893
 C136 C 0.03025 0.23095 0.13827
 H137 H 0.04603 0.45042 0.06879
 H138 H 0.05157 0.38591 0.10283
 H139 H -0.05098 0.31987 0.04744
 H140 H -0.05821 0.38470 0.01441
 H141 H 0.02060 0.31538 0.12326
 H142 H -0.01925 0.26205 0.06624
 H143 H -0.04965 0.19080 0.08744
 H144 H -0.04468 0.12746 0.12370
 H145 H 0.05695 0.19603 0.17844
 H146 H 0.05234 0.25893 0.14235
 C147 C 0.38906 -0.04281 0.52937
 C148 C 0.34980 -0.04616 0.54745
 C149 C 0.34264 -0.01835 0.57424
 C150 C 0.37564 0.01329 0.58235
 C151 C 0.41491 0.01650 0.56432
 C152 C 0.42178 -0.01125 0.53755
 C153 C 0.29991 -0.02217 0.59202
 C154 C 0.29327 -0.00669 0.62280
 C155 C 0.25048 -0.00872 0.64051
 C156 C 0.24944 -0.00026 0.67492
 C157 C 0.21004 0.00038 0.69253
 C158 C 0.17064 -0.00740 0.67610
 C159 C 0.17149 -0.01628 0.64175
 C160 C 0.21092 -0.01668 0.62405
 H161 H 0.39387 -0.06468 0.50888
 H162 H 0.32491 -0.07057 0.54048
 H163 H 0.37110 0.03642 0.60195
 H164 H 0.43964 0.04137 0.57074
 H165 H 0.27360 -0.03959 0.57942
 H166 H 0.32057 0.00735 0.63638
 H167 H 0.27928 0.00615 0.68826
 H168 H 0.21041 0.00689 0.71907
 H169 H 0.14158 -0.02167 0.62835
 H170 H 0.20991 -0.02206 0.59743
 C171 C -0.41180 -0.04244 0.55839
 C172 C -0.37479 -0.04246 0.57777
 C173 C -0.34371 -0.00709 0.57679
 C174 C -0.35084 0.02869 0.55606
 C175 C -0.38780 0.02853 0.53654
 C176 C -0.41842 -0.00712 0.53742
 C177 C -0.30555 -0.00865 0.59862
 C178 C -0.27006 0.01891 0.59630
 C179 C -0.23245 0.01694 0.61864
 C180 C -0.19257 0.03792 0.60848
 C181 C -0.15638 0.03721 0.62880
 C182 C -0.15930 0.01560 0.65990
 C183 C -0.19935 -0.00499 0.67024
 C184 C -0.23555 -0.00409 0.65004
 H185 H -0.43518 -0.07017 0.55953
 H186 H -0.37045 -0.07028 0.59364
 H187 H -0.32868 0.05724 0.55513
 H188 H -0.39280 0.05645 0.52095
 H189 H -0.30661 -0.03485 0.61673
 H190 H -0.26719 0.04306 0.57657
 H191 H -0.18933 0.05486 0.58465
 H192 H -0.12626 0.05409 0.62030
 H193 H -0.20271 -0.02224 0.69392
 H194 H -0.26584 -0.01944 0.65953
 C195 C -0.05151 -0.39013 0.97690
 C196 C -0.05606 -0.35162 0.95927
 C197 C -0.03531 -0.34394 0.92809
 C198 C -0.01048 -0.37612 0.91452
 C199 C -0.00580 -0.41461 0.93216
 C200 C -0.02498 -0.42165 0.96420
 C201 C -0.03780 -0.30107 0.91167
 C202 C -0.03104 -0.29410 0.87878
 C203 C -0.03052 -0.25063 0.86287
 C204 C -0.03943 -0.24757 0.82873
 C205 C -0.03722 -0.20734 0.81243
 C206 C -0.02544 -0.16927 0.82987
 C207 C -0.01637 -0.17228 0.86403
 C208 C -0.01885 -0.21250 0.88039
 H209 H -0.06872 -0.39512 1.00061
 H210 H -0.07567 -0.32754 0.97019
 H211 H 0.00698 -0.37110 0.89095
 H212 H 0.01520 -0.43766 0.92149
 H213 H -0.04627 -0.27455 0.92738
 H214 H -0.02681 -0.32125 0.86249
 H215 H -0.04793 -0.27647 0.81456
 H216 H -0.04372 -0.20613 0.78597
 H217 H -0.00731 -0.14348 0.87812
 H218 H -0.01047 -0.21361 0.90648
 C219 C -0.05177 0.40821 0.94493
 C220 C -0.05286 0.36959 0.92711
 C221 C -0.01718 0.34402 0.92685
 C222 C 0.01970 0.35771 0.94504
 C223 C 0.02063 0.39621 0.96309
 C224 C -0.01528 0.42148 0.96343
 C225 C -0.02029 0.30263 0.90850
 C226 C 0.01422 0.28449 0.89541
 C227 C 0.01050 0.24378 0.87622
 C228 C 0.04112 0.23739 0.85073
 C229 C 0.03832 0.19960 0.83185
 C230 C 0.00525 0.16702 0.83853
 C231 C -0.02480 0.17288 0.86461
 C232 C -0.02230 0.21092 0.88324
 H233 H -0.07981 0.42727 0.94497
 H234 H -0.08169 0.35964 0.91347
 H235 H 0.04738 0.33830 0.94610
 H236 H 0.04908 0.40601 0.97723
 H237 H -0.05246 0.28800 0.90405
 H238 H 0.04602 0.30128 0.89682
 H239 H 0.06695 0.26200 0.84511
 H240 H 0.06228 0.19562 0.81221
 H241 H -0.05060 0.14827 0.87027
 H242 H -0.04571 0.21426 0.90335
 C243 C -0.41074 0.03153 0.43563
 C244 C -0.37288 0.03246 0.41597
 C245 C -0.34092 0.00367 0.42221
 C246 C -0.34797 -0.02662 0.44854
 C247 C -0.38575 -0.02740 0.46839
 C248 C -0.41769 0.00191 0.46250
 C249 C -0.30197 0.00539 0.39977
 C250 C -0.26540 -0.01358 0.40656
 C251 C -0.22691 -0.01149 0.38365
 C252 C -0.18637 -0.01927 0.39670
 C253 C -0.14930 -0.01763 0.37601
 C254 C -0.15202 -0.00823 0.34174
 C255 C -0.19265 -0.00121 0.32852
 C256 C -0.22974 -0.00310 0.34913
 H257 H -0.43399 0.05509 0.43031
 H258 H -0.36854 0.05598 0.39575
 H259 H -0.32522 -0.05070 0.45347
 H260 H -0.39073 -0.05252 0.48733
 H261 H -0.30334 0.02463 0.37717
 H262 H -0.26233 -0.02974 0.43037
 H263 H -0.18329 -0.02622 0.42310
 H264 H -0.11837 -0.02300 0.38692
 H265 H -0.19586 0.00506 0.30205
 H266 H -0.26047 0.00129 0.33769
 C267 C 0.39529 0.03857 0.47349
 C268 C 0.35723 0.04268 0.45586
 C269 C 0.34751 0.01627 0.42829
 C270 C 0.37635 -0.01498 0.41907
 C271 C 0.41427 -0.01915 0.43678
 C272 C 0.42395 0.00739 0.46422
 C273 C 0.30636 0.02098 0.41071
 C274 C 0.30065 0.00998 0.37865
 C275 C 0.25921 0.01239 0.36091
 C276 C 0.25323 -0.01171 0.33163
 C277 C 0.21462 -0.01132 0.31423
 C278 C 0.18106 0.01347 0.32558
 C279 C 0.18725 0.03830 0.35454
 C280 C 0.22594 0.03795 0.37197
 H281 H 0.40235 0.05965 0.49442
 H282 H 0.33544 0.06674 0.46363
 H283 H 0.36936 -0.03703 0.39878
 H284 H 0.43576 -0.04371 0.42947
 H285 H 0.28034 0.03406 0.42495
 H286 H 0.32724 -0.00248 0.36460
 H287 H 0.27832 -0.03152 0.32243
 H288 H 0.21070 -0.03119 0.29222
 H289 H 0.16231 0.05840 0.36351
 H290 H 0.22960 0.05819 0.39372
   
