data_POSCAR
  _audit_creation_date              2014-09-24
  _audit_creation_method            'ToBaCCo'
  _symmetry_space_group_name_H-M    'P1'
  _symmetry_Int_Tables_number       1
  _symmetry_cell_setting            triclinic
  loop_
  _symmetry_equiv_pos_as_xyz
 x,y,z
_cell_length_a 39.9353
_cell_length_b 38.1849
_cell_length_c 39.8666
_cell_angle_alpha 92.831000
_cell_angle_beta 88.323400
_cell_angle_gamma 89.412600
loop_
  _atom_site_label
  _atom_site_type_symbol
  _atom_site_fract_x
  _atom_site_fract_y
  _atom_site_fract_z
N1 N 0.16126 0.19220 0.25076
 N2 N 0.17835 0.17865 0.27478
 C3 C 0.16045 0.18206 0.30384
 C4 C 0.13033 0.19827 0.29763
 C5 C 0.13144 0.20406 0.26364
 H6 H 0.16877 0.17342 0.32769
 H7 H 0.11260 0.21712 0.24964
 Cu8 Cu 0.22226 0.15748 0.26585
 Cu9 Cu 0.18112 0.19595 0.20561
 Cu10 Cu 0.26795 0.19836 0.20870
 N11 N 0.26939 0.14640 0.25835
 N12 N 0.28769 0.16360 0.23686
 C13 C 0.31955 0.15179 0.23718
 C14 C 0.32098 0.12529 0.25958
 C15 C 0.28871 0.12246 0.27251
 H16 H 0.33976 0.16073 0.22121
 H17 H 0.27994 0.10420 0.29063
 N18 N 0.24229 0.21864 0.17256
 N19 N 0.20954 0.21543 0.17005
 C20 C 0.19991 0.22973 0.14160
 C21 C 0.22800 0.24285 0.12570
 C22 C 0.25434 0.23550 0.14600
 H23 H 0.17430 0.23153 0.13370
 H24 H 0.28043 0.24159 0.14147
 H25 H 0.22690 0.16744 0.20582
 H26 H 0.22151 0.20901 0.23204
 N27 N 0.66731 0.68359 0.75308
 N28 N 0.68435 0.67290 0.77846
 C29 C 0.66574 0.67788 0.80694
 C30 C 0.63524 0.69211 0.79893
 C31 C 0.63684 0.69509 0.76450
 H32 H 0.67398 0.67197 0.83167
 H33 H 0.61797 0.70632 0.74918
 Cu34 Cu 0.72952 0.65416 0.77233
 Cu35 Cu 0.68819 0.68517 0.70822
 Cu36 Cu 0.77463 0.69190 0.71253
 N37 N 0.77634 0.64204 0.76404
 N38 N 0.79459 0.65840 0.74187
 C39 C 0.82642 0.64651 0.74240
 C40 C 0.82782 0.62085 0.76567
 C41 C 0.79562 0.61857 0.77885
 H42 H 0.84661 0.65482 0.72606
 H43 H 0.78692 0.60116 0.79777
 N44 N 0.74881 0.70926 0.67513
 N45 N 0.71637 0.70397 0.67218
 C46 C 0.70643 0.71678 0.64318
 C47 C 0.73391 0.73121 0.62741
 C48 C 0.76031 0.72614 0.64833
 H49 H 0.68084 0.71713 0.63503
 H50 H 0.78599 0.73401 0.64423
 H51 H 0.73494 0.65936 0.71158
 H52 H 0.72744 0.70255 0.73461
 N53 N 0.32576 0.74279 0.71786
 N54 N 0.32630 0.76998 0.73945
 C55 C 0.35372 0.76761 0.75823
 C56 C 0.37134 0.73752 0.74759
 C57 C 0.35284 0.72236 0.72202
 H58 H 0.36112 0.78703 0.77717
 H59 H 0.35890 0.69859 0.70710
 Cu60 Cu 0.29276 0.80749 0.73858
 Cu61 Cu 0.29013 0.73616 0.68560
 Cu62 Cu 0.25038 0.81391 0.66816
 N63 N 0.25839 0.84386 0.73470
 N64 N 0.24303 0.84699 0.70625
 C65 C 0.22297 0.87557 0.70862
 C66 C 0.22544 0.89103 0.74046
 C67 C 0.24814 0.87022 0.75648
 H68 H 0.20760 0.88429 0.68866
 H69 H 0.25713 0.87444 0.78167
 N70 N 0.24725 0.77060 0.63977
 N71 N 0.26157 0.74052 0.64638
 C72 C 0.25268 0.71578 0.62297
 C73 C 0.23130 0.73120 0.60110
 C74 C 0.22858 0.76587 0.61253
 H75 H 0.26057 0.68857 0.62230
 H76 H 0.21356 0.78617 0.60215
 H77 H 0.29489 0.78749 0.67924
 H78 H 0.25515 0.77543 0.70144
 N79 N 0.82419 0.24388 0.21854
 N80 N 0.82024 0.26620 0.24462
 C81 C 0.84688 0.26359 0.26448
 C82 C 0.86893 0.23879 0.24959
 C83 C 0.85365 0.22685 0.22049
 H84 H 0.85036 0.27925 0.28746
 H85 H 0.86317 0.20724 0.20205
 Cu86 Cu 0.78114 0.29776 0.24934
 Cu87 Cu 0.79023 0.23823 0.18462
 Cu88 Cu 0.74388 0.30954 0.17319
 N89 N 0.75072 0.33768 0.24168
 N90 N 0.73797 0.34278 0.21210
 C91 C 0.71883 0.37205 0.21426
 C92 C 0.71940 0.38608 0.24675
 C93 C 0.73991 0.36372 0.26357
 H94 H 0.70467 0.38188 0.19393
 H95 H 0.74640 0.36615 0.28972
 N96 N 0.74035 0.26728 0.14446
 N97 N 0.75858 0.23900 0.14829
 C98 C 0.75160 0.21474 0.12372
 C99 C 0.72760 0.22883 0.10370
 C100 C 0.72123 0.26219 0.11759
 H101 H 0.76330 0.18909 0.12040
 H102 H 0.70433 0.28170 0.10858
 H103 H 0.78757 0.30103 0.19963
 H104 H 0.74860 0.27812 0.21254
 N105 N 0.85129 0.75224 0.23587
 N106 N 0.83479 0.72738 0.21965
 C107 C 0.84938 0.72089 0.18912
 C108 C 0.87653 0.74273 0.18607
 C109 C 0.87716 0.76224 0.21621
 H110 H 0.84082 0.70187 0.17038
 H111 H 0.89462 0.78268 0.22302
 Cu112 Cu 0.79482 0.70695 0.23913
 Cu113 Cu 0.83609 0.77132 0.28020
 Cu114 Cu 0.77768 0.72055 0.32123
 N115 N 0.75509 0.68755 0.26020
 N116 N 0.74743 0.69496 0.29207
 C117 C 0.71862 0.67913 0.30035
 C118 C 0.70803 0.66050 0.27220
 C119 C 0.73175 0.66603 0.24723
 H120 H 0.70711 0.67985 0.32528
 H121 H 0.73192 0.65516 0.22166
 N122 N 0.80287 0.75794 0.34413
 N123 N 0.82441 0.77811 0.32865
 C124 C 0.83561 0.80252 0.35111
 C125 C 0.82019 0.79724 0.38198
 C126 C 0.79974 0.76883 0.37663
 H127 H 0.85318 0.82289 0.34535
 H128 H 0.78293 0.75768 0.39489
 H129 H 0.82214 0.72262 0.29165
 H130 H 0.78687 0.75312 0.28332
 N131 N 0.37069 0.23937 -0.26274
 N132 N 0.35290 0.21633 -0.27992
 C133 C 0.36562 0.21244 -0.31146
 C134 C 0.39322 0.23383 -0.31418
 C135 C 0.39598 0.25036 -0.28268
 H136 H 0.35538 0.19542 -0.33097
 H137 H 0.41405 0.26998 -0.27530
 Cu138 Cu 0.31413 0.19364 -0.26054
 Cu139 Cu 0.35664 0.25596 -0.21734
 Cu140 Cu 0.28808 0.21540 -0.18173
 N141 N 0.26949 0.18228 -0.24410
 N142 N 0.25855 0.19295 -0.21386
 C143 C 0.22721 0.18127 -0.20875
 C144 C 0.21840 0.16187 -0.23719
 C145 C 0.24580 0.16270 -0.25902
 H146 H 0.21288 0.18456 -0.18533
 H147 H 0.24852 0.14945 -0.28357
 N148 N 0.31630 0.24832 -0.15631
 N149 N 0.34245 0.26406 -0.16962
 C150 C 0.35551 0.28589 -0.14594
 C151 C 0.33649 0.28365 -0.11654
 C152 C 0.31198 0.25964 -0.12399
 H153 H 0.37668 0.30275 -0.14995
 H154 H 0.29186 0.25181 -0.10733
 H155 H 0.33569 0.20968 -0.20514
 H156 H 0.30609 0.24318 -0.22030
 N157 N 0.65466 0.29080 -0.25758
 N158 N 0.66600 0.32285 -0.25985
 C159 C 0.64778 0.33973 -0.28202
 C160 C 0.62370 0.31694 -0.29410
 C161 C 0.62871 0.28618 -0.27802
 H162 H 0.65201 0.36637 -0.28904
 H163 H 0.61512 0.26197 -0.28155
 Cu164 Cu 0.70422 0.33902 -0.23448
 Cu165 Cu 0.67575 0.25700 -0.22963
 Cu166 Cu 0.71565 0.29848 -0.16316
 N167 N 0.73742 0.35528 -0.20273
 N168 N 0.74149 0.33928 -0.17466
 C169 C 0.76654 0.35443 -0.15772
 C170 C 0.77910 0.38120 -0.17631
 C171 C 0.75996 0.38120 -0.20469
 H172 H 0.77581 0.34555 -0.13434
 H173 H 0.76318 0.39776 -0.22576
 N174 N 0.70052 0.24966 -0.16300
 N175 N 0.68712 0.23297 -0.18901
 C176 C 0.68204 0.19925 -0.18177
 C177 C 0.69279 0.19487 -0.14959
 C178 C 0.70422 0.22723 -0.13847
 H179 H 0.67098 0.17968 -0.19843
 H180 H 0.71511 0.23375 -0.11446
 H181 H 0.67689 0.29857 -0.19713
 H182 H 0.71915 0.28249 -0.21255
 N183 N 0.14370 0.79978 0.24922
 N184 N 0.15279 0.83276 0.24851
 C185 C 0.13287 0.84953 0.22769
 C186 C 0.11014 0.82566 0.21490
 C187 C 0.11773 0.79440 0.22899
 H188 H 0.13513 0.87677 0.22181
 H189 H 0.10582 0.76939 0.22426
 Cu190 Cu 0.19078 0.84992 0.27374
 Cu191 Cu 0.16733 0.76580 0.27482
 Cu192 Cu 0.21082 0.80474 0.34014
 N193 N 0.22861 0.86336 0.30110
 N194 N 0.23595 0.84564 0.32742
 C195 C 0.26337 0.85924 0.34154
 C196 C 0.27412 0.88674 0.32278
 C197 C 0.25132 0.88888 0.29742
 H198 H 0.27523 0.84887 0.36305
 H199 H 0.25195 0.90675 0.27718
 N200 N 0.19596 0.75586 0.33947
 N201 N 0.18123 0.74021 0.31370
 C202 C 0.17587 0.70637 0.32027
 C203 C 0.18781 0.70081 0.35177
 C204 C 0.20029 0.73263 0.36320
 H205 H 0.16339 0.68762 0.30385
 H206 H 0.21190 0.73836 0.38700
 H207 H 0.16869 0.80528 0.30995
 H208 H 0.21033 0.79261 0.29023
 N209 N 0.46846 0.41427 0.44294
 N210 N 0.44400 0.41784 0.46565
 C211 C 0.45164 0.39943 0.49241
 C212 C 0.48275 0.38402 0.48604
 C213 C 0.49266 0.39379 0.45444
 H214 H 0.43644 0.39860 0.51527
 H215 H 0.51598 0.38713 0.44103
 Cu216 Cu 0.40596 0.44836 0.45889
 Cu217 Cu 0.46754 0.43739 0.40079
 Cu218 Cu 0.41818 0.51258 0.40504
 N219 N 0.37561 0.48807 0.45811
 N220 N 0.37954 0.51279 0.43651
 C221 C 0.35516 0.53722 0.44242
 C222 C 0.33549 0.52735 0.46946
 C223 C 0.34914 0.49608 0.47872
 H224 H 0.35261 0.56091 0.42888
 H225 H 0.34064 0.48046 0.49914
 N226 N 0.45398 0.50319 0.37005
 N227 N 0.47222 0.47407 0.36851
 C228 C 0.49605 0.47584 0.34417
 C229 C 0.49277 0.50754 0.32953
 C230 C 0.46572 0.52426 0.34629
 H231 H 0.51543 0.45623 0.33865
 H232 H 0.45640 0.55042 0.34253
 H233 H 0.44973 0.47940 0.42935
 H234 H 0.41894 0.45976 0.39984
 N235 N -0.01414 -0.07359 0.95278
 N236 N -0.03859 -0.06919 0.97541
 C237 C -0.03519 -0.09309 0.99886
 C238 C -0.00698 -0.11315 0.99045
 C239 C 0.00580 -0.10015 0.96110
 H240 H -0.05139 -0.09525 1.02086
 H241 H 0.02816 -0.10903 0.94712
 Cu242 Cu -0.07133 -0.03165 0.97267
 Cu243 Cu -0.00944 -0.04409 0.91480
 Cu244 Cu -0.06948 0.02129 0.90731
 N245 N -0.10445 0.00523 0.96871
 N246 N -0.10477 0.02505 0.94265
 C247 C -0.13136 0.04723 0.94614
 C248 C -0.14806 0.04108 0.97619
 C249 C -0.13031 0.01436 0.98977
 H250 H -0.13781 0.06662 0.92846
 H251 H -0.13624 0.00212 1.01305
 N252 N -0.03133 0.01292 0.87469
 N253 N -0.00860 -0.01195 0.87801
 C254 C 0.01493 -0.01037 0.85335
 C255 C 0.00685 0.01671 0.83349
 C256 C -0.02267 0.03104 0.84755
 H257 H 0.03689 -0.02714 0.85035
 H258 H -0.03623 0.05348 0.83918
 H259 H -0.03354 0.00052 0.93656
 H260 H -0.06005 -0.03109 0.91229
 N261 N 1.07446 0.60339 0.99680
 N262 N 1.10545 0.60086 1.00675
 C263 C 1.11170 0.62771 1.02864
 C264 C 1.08299 0.64805 1.03283
 C265 C 1.05975 0.63196 1.01230
 H266 H 1.13528 0.63189 1.04081
 H267 H 1.03431 0.64062 1.00854
 Cu268 Cu 1.13492 0.56255 0.99103
 Cu269 Cu 1.05704 0.56970 0.96341
 Cu270 Cu 1.09500 0.48829 0.96899
 N271 N 1.15796 0.51775 0.98739
 N272 N 1.14208 0.48839 0.98056
 C273 C 1.16347 0.46118 0.98298
 C274 C 1.19438 0.47448 0.99130
 C275 C 1.19003 0.51044 0.99381
 H276 H 1.15706 0.43387 0.97890
 H277 H 1.20844 0.52975 1.00100
 N278 N 1.05264 0.49545 0.94566
 N279 N 1.03878 0.52662 0.94246
 C280 C 1.01279 0.52334 0.92181
 C281 C 1.01024 0.48841 0.91156
 C282 C 1.03575 0.47145 0.92723
 H283 H 0.99759 0.54488 0.91393
 H284 H 1.04270 0.44402 0.92395
 H285 H 1.07975 0.53585 0.99245
 H286 H 1.09857 0.53667 0.94895
 N287 N 0.57216 0.09837 0.48093
 N288 N 0.58293 0.09080 0.51075
 C289 C 0.58353 0.12020 0.53065
 C290 C 0.57350 0.14770 0.51214
 C291 C 0.56646 0.13318 0.48073
 H292 H 0.59157 0.12158 0.55636
 H293 H 0.55661 0.14669 0.45987
 Cu294 Cu 0.59910 0.04416 0.52065
 Cu295 Cu 0.56232 0.06183 0.44588
 Cu296 Cu 0.58276 -0.02043 0.46431
 N297 N 0.62750 0.00248 0.51512
 N298 N 0.62092 -0.02336 0.49336
 C299 C 0.64544 -0.04781 0.49375
 C300 C 0.66877 -0.03614 0.51655
 C301 C 0.65660 -0.00428 0.52974
 H302 H 0.64721 -0.07119 0.47729
 H303 H 0.66853 0.01324 0.54778
 N304 N 0.54950 -0.01111 0.43120
 N305 N 0.54157 0.02109 0.42384
 C306 C 0.51817 0.01993 0.40016
 C307 C 0.51100 -0.01483 0.39254
 C308 C 0.53139 -0.03384 0.41261
 H309 H 0.50698 0.04267 0.38959
 H310 H 0.53276 -0.06205 0.41381
 H311 H 0.55893 0.03485 0.48791
 H312 H 0.60220 0.03989 0.46995
 N313 N -0.03420 0.08633 0.49421
 N314 N -0.06628 0.07880 0.49409
 C315 C -0.08151 0.09807 0.47148
 C316 C -0.05759 0.11854 0.45639
 C317 C -0.02782 0.11031 0.47125
 H318 H -0.10794 0.09717 0.46633
 H319 H -0.00349 0.12143 0.46622
 Cu320 Cu -0.08484 0.04388 0.52302
 Cu321 Cu -0.00370 0.06498 0.52521
 Cu322 Cu -0.04550 0.03355 0.59457
 N323 N -0.09758 0.00708 0.55285
 N324 N -0.08294 0.00405 0.58170
 C325 C -0.09522 -0.02400 0.59686
 C326 C -0.11841 -0.03965 0.57612
 C327 C -0.11949 -0.01920 0.54847
 H328 H -0.08653 -0.03332 0.62031
 H329 H -0.13419 -0.02382 0.52635
 N330 N 0.00155 0.04761 0.59503
 N331 N 0.01853 0.05590 0.56769
 C332 C 0.05145 0.05627 0.57432
 C333 C 0.05499 0.04817 0.60753
 C334 C 0.02292 0.04331 0.61995
 H335 H 0.07133 0.06089 0.55611
 H336 H 0.01594 0.03393 0.64433
 H337 H -0.03185 0.02520 0.54549
 H338 H -0.04244 0.07177 0.55815
 N339 N 0.46840 0.58988 -0.00309
 N340 N 0.43642 0.58202 -0.00382
 C341 C 0.42150 0.60076 -0.02702
 C342 C 0.44553 0.62123 -0.04189
 C343 C 0.47505 0.61358 -0.02626
 H344 H 0.39526 0.59934 -0.03284
 H345 H 0.49939 0.62479 -0.03102
 Cu346 Cu 0.41755 0.54705 0.02475
 Cu347 Cu 0.49836 0.56901 0.02879
 Cu348 Cu 0.45503 0.53789 0.09743
 N349 N 0.40466 0.51022 0.05439
 N350 N 0.41836 0.50772 0.08378
 C351 C 0.40629 0.47935 0.09858
 C352 C 0.38436 0.46292 0.07696
 C353 C 0.38369 0.48327 0.04924
 H354 H 0.41451 0.47021 0.12228
 H355 H 0.37003 0.47807 0.02652
 N356 N 0.50190 0.55231 0.09895
 N357 N 0.51960 0.56022 0.07191
 C358 C 0.55237 0.55998 0.07924
 C359 C 0.55502 0.55190 0.11258
 C360 C 0.52262 0.54775 0.12434
 H361 H 0.57272 0.56390 0.06137
 H362 H 0.51496 0.53831 0.14851
 H363 H 0.47006 0.52919 0.04868
 H364 H 0.45883 0.57575 0.06069
 N365 N 0.48182 -0.11498 -0.00065
 N366 N 0.50230 -0.09901 -0.02120
 C367 C 0.49913 -0.11338 -0.05258
 C368 C 0.47477 -0.13891 -0.05135
 C369 C 0.46446 -0.13924 -0.01810
 H370 H 0.51322 -0.10578 -0.07458
 H371 H 0.44653 -0.15678 -0.00718
 Cu372 Cu 0.53036 -0.06058 -0.00420
 Cu373 Cu 0.48131 -0.10592 0.04770
 Cu374 Cu 0.50668 -0.02254 0.07064
 N375 N 0.55604 -0.02220 0.01661
 N376 N 0.54650 -0.00808 0.04617
 C377 C 0.56826 0.01676 0.05572
 C378 C 0.59287 0.01858 0.03091
 C379 C 0.58431 -0.00630 0.00618
 H380 H 0.56634 0.03224 0.07919
 H381 H 0.59808 -0.01290 -0.01708
 N382 N 0.47829 -0.05054 0.09978
 N383 N 0.47062 -0.08340 0.09201
 C384 C 0.45407 -0.09675 0.11828
 C385 C 0.45114 -0.07081 0.14364
 C386 C 0.46658 -0.04186 0.13108
 H387 H 0.44470 -0.12320 0.11879
 H388 H 0.47013 -0.01677 0.14421
 H389 H 0.48251 -0.05559 0.03565
 H390 H 0.52138 -0.07161 0.05520
 N391 N 0.97731 0.38550 0.50633
 N392 N 1.00095 0.39745 0.48638
 C393 C 0.99819 0.38191 0.45544
 C394 C 0.97076 0.36000 0.45608
 C395 C 0.95811 0.36301 0.48869
 H396 H 1.01489 0.38611 0.43420
 H397 H 0.93754 0.34847 0.49918
 Cu398 Cu 1.03321 0.43219 0.50310
 Cu399 Cu 0.97629 0.39649 0.55442
 Cu400 Cu 1.00374 0.47580 0.57687
 N401 N 1.05190 0.47727 0.52047
 N402 N 1.03988 0.49373 0.54824
 C403 C 1.05888 0.52169 0.55564
 C404 C 1.08398 0.52334 0.53132
 C405 C 1.07874 0.49498 0.50909
 H406 H 1.05562 0.53869 0.57804
 H407 H 1.09436 0.48678 0.48745
 N408 N 0.98105 0.44686 0.60887
 N409 N 0.97134 0.41489 0.60063
 C410 C 0.95721 0.40077 0.62789
 C411 C 0.95787 0.42562 0.65433
 C412 C 0.97286 0.45459 0.64133
 H413 H 0.94654 0.37487 0.62824
 H414 H 0.97776 0.47934 0.65456
 H415 H 0.99384 0.45115 0.53014
 H416 H 1.02698 0.43165 0.55569
 C417 C 0.38572 0.02021 0.28248
 C418 C 0.35632 -0.00140 0.29586
 C419 C 0.36463 -0.03550 0.30005
 C420 C 0.40094 -0.04520 0.28991
 C421 C 0.41396 0.01488 0.30721
 C422 C 0.42204 -0.01945 0.31106
 C423 C 0.39767 0.00037 0.24997
 C424 C 0.40541 -0.03384 0.25373
 H425 H 0.33218 0.00979 0.30380
 H426 H 0.40688 -0.07326 0.29273
 H427 H 0.42616 0.03634 0.32057
 H428 H 0.39929 0.01236 0.22591
 C429 C 0.15590 -0.00404 0.74427
 C430 C 0.17083 0.03234 0.75109
 C431 C 0.15049 0.05916 0.74297
 C432 C 0.11723 0.04737 0.72808
 C433 C 0.12162 -0.00263 0.76293
 C434 C 0.10134 0.02430 0.75453
 C435 C 0.14781 -0.00497 0.70682
 C436 C 0.12757 0.02198 0.69846
 H437 H 0.19497 0.03647 0.76227
 H438 H 0.10131 0.06950 0.72071
 H439 H 0.11444 -0.02100 0.78163
 H440 H 0.15715 -0.02502 0.68867
 C441 C 0.64851 0.49233 0.25139
 C442 C 0.66281 0.52848 0.26084
 C443 C 0.64295 0.55563 0.25261
 C444 C 0.61087 0.54447 0.23510
 C445 C 0.61310 0.49270 0.26776
 C446 C 0.59341 0.52010 0.25938
 C447 C 0.64287 0.49322 0.21349
 C448 C 0.62314 0.52055 0.20509
 H449 H 0.68618 0.53219 0.27363
 H450 H 0.59547 0.56696 0.22765
 H451 H 0.60484 0.47348 0.28521
 H452 H 0.65324 0.47394 0.19512
 C453 C 0.89284 0.51714 0.79212
 C454 C 0.86314 0.49492 0.80378
 C455 C 0.87185 0.46112 0.80898
 C456 C 0.90887 0.45227 0.80142
 C457 C 0.91936 0.51294 0.81882
 C458 C 0.92786 0.47895 0.82370
 C459 C 0.90724 0.49717 0.76067
 C460 C 0.91533 0.46322 0.76531
 H461 H 0.83823 0.50544 0.80956
 H462 H 0.91522 0.42445 0.80504
 H463 H 0.93007 0.53494 0.83279
 H464 H 0.90941 0.50867 0.73639
 C465 C 0.26946 0.32251 0.04204
 C466 C 0.28807 0.30845 0.00992
 C467 C 0.30798 0.33256 -0.00451
 C468 C 0.30717 0.36862 0.01429
 C469 C 0.29690 0.33733 0.06484
 C470 C 0.31628 0.36182 0.05039
 C471 C 0.25016 0.35507 0.03148
 C472 C 0.27003 0.37927 0.01707
 H473 H 0.28521 0.28203 -0.00070
 H474 H 0.32333 0.38814 0.00231
 H475 H 0.29838 0.33172 0.09111
 H476 H 0.22360 0.35932 0.03658
 C477 C 0.70341 0.12496 -0.05205
 C478 C 0.70176 0.15799 -0.02858
 C479 C 0.70784 0.15236 0.00400
 C480 C 0.71528 0.11385 0.01036
 C481 C 0.73802 0.10893 -0.04701
 C482 C 0.74434 0.10286 -0.01444
 C483 C 0.67858 0.09979 -0.03609
 C484 C 0.68462 0.09406 -0.00331
 H485 H 0.69532 0.18369 -0.03695
 H486 H 0.72033 0.10965 0.03701
 H487 H 0.75536 0.10171 -0.06765
 H488 H 0.65728 0.08897 -0.04905
 C489 C 0.19661 0.62824 0.44776
 C490 C 0.19800 0.66079 0.47167
 C491 C 0.20397 0.65402 0.50402
 C492 C 0.20832 0.61485 0.50973
 C493 C 0.22984 0.60904 0.45192
 C494 C 0.23595 0.60157 0.48421
 C495 C 0.16998 0.60507 0.46379
 C496 C 0.17597 0.59820 0.49633
 H497 H 0.19331 0.68712 0.46386
 H498 H 0.21338 0.60955 0.53620
 H499 H 0.24587 0.59996 0.43080
 H500 H 0.14773 0.59635 0.45109
 C501 C 0.76554 0.81778 0.54617
 C502 C 0.78152 0.80956 0.51126
 C503 C 0.79660 0.83757 0.49763
 C504 C 0.79418 0.87137 0.52021
 C505 C 0.79391 0.83347 0.56725
 C506 C 0.80866 0.86174 0.55371
 C507 C 0.74158 0.84874 0.54152
 C508 C 0.75667 0.87680 0.52822
 H509 H 0.78044 0.78398 0.49833
 H510 H 0.80606 0.89439 0.50908
 H511 H 0.80021 0.82428 0.59154
 H512 H 0.71561 0.84927 0.55023
 C513 C 0.01870 0.22672 0.34685
 C514 C -0.00018 0.22469 0.31398
 C515 C -0.03397 0.22909 0.31814
 C516 C -0.04580 0.23536 0.35505
 C517 C 0.00844 0.26213 0.36396
 C518 C -0.02525 0.26665 0.36884
 C519 C 0.00198 0.19941 0.36849
 C520 C -0.03168 0.20380 0.37296
 H521 H 0.01211 0.21942 0.28967
 H522 H -0.07329 0.23884 0.35806
 H523 H 0.02647 0.28044 0.37423
 H524 H 0.01584 0.17871 0.37978
 C525 C -0.02437 0.76845 0.11620
 C526 C -0.00506 0.78805 0.14400
 C527 C 0.02581 0.79835 0.13361
 C528 C 0.03511 0.78766 0.09708
 C529 C -0.02431 0.79333 0.08701
 C530 C 0.00697 0.80285 0.07675
 C531 C -0.00116 0.73785 0.10383
 C532 C 0.02996 0.74799 0.09403
 H533 H -0.01522 0.79427 0.16909
 H534 H 0.06059 0.79607 0.08933
 H535 H -0.04676 0.80110 0.07458
 H536 H -0.00881 0.71069 0.10274
 C537 C 0.48568 0.26695 0.61276
 C538 C 0.50862 0.28257 0.63967
 C539 C 0.53822 0.29394 0.62677
 C540 C 0.54260 0.28829 0.58859
 C541 C 0.48236 0.29568 0.58716
 C542 C 0.51229 0.30676 0.57444
 C543 C 0.50696 0.23793 0.59429
 C544 C 0.53632 0.24926 0.58096
 H545 H 0.50154 0.28586 0.66608
 H546 H 0.56743 0.29677 0.57918
 H547 H 0.45846 0.30524 0.57897
 H548 H 0.49773 0.21174 0.58879
 C549 C 0.52293 0.72395 0.84458
 C550 C 0.50416 0.72025 0.81165
 C551 C 0.47039 0.72525 0.81556
 C552 C 0.45851 0.73346 0.85217
 C553 C 0.51288 0.76023 0.85991
 C554 C 0.47922 0.76524 0.86441
 C555 C 0.50591 0.69804 0.86753
 C556 C 0.47230 0.70289 0.87169
 H557 H 0.51650 0.71399 0.78752
 H558 H 0.43104 0.73724 0.85500
 H559 H 0.53100 0.77899 0.86918
 H560 H 0.51954 0.67785 0.87980
 C561 C 0.10344 0.20818 0.32232
 C562 C 0.10768 0.21107 0.35654
 C563 C 0.07687 0.21973 0.37011
 C564 C 0.05602 0.22112 0.34319
 O565 O 0.07216 0.21431 0.31407
 H566 H 0.13047 0.20716 0.36997
 H567 H 0.07005 0.22363 0.39651
 C568 C 0.60787 0.70351 0.82249
 C569 C 0.61155 0.70893 0.85662
 C570 C 0.58059 0.71852 0.86911
 C571 C 0.56022 0.71796 0.84172
 O572 O 0.57677 0.70902 0.81328
 H573 H 0.63408 0.70609 0.87072
 H574 H 0.57336 0.72438 0.89518
 C575 C 0.40424 0.72575 0.75891
 C576 C 0.42525 0.70278 0.74044
 C577 C 0.45321 0.70000 0.75893
 C578 C 0.44709 0.72119 0.78755
 O579 O 0.41734 0.73690 0.78762
 H580 H 0.42090 0.68997 0.71617
 H581 H 0.47520 0.68397 0.75253
 C582 C -0.09966 0.22861 0.26068
 C583 C -0.07783 0.20623 0.24241
 C584 C -0.05017 0.20399 0.26130
 C585 C -0.05711 0.22483 0.28997
 O586 O -0.08722 0.23981 0.28975
 H587 H -0.08138 0.19329 0.21803
 H588 H -0.02783 0.18846 0.25512
 C589 C -0.10071 0.74503 0.15661
 C590 C -0.10669 0.72983 0.12528
 C591 C -0.07942 0.73742 0.10580
 C592 C -0.05872 0.75650 0.12672
 O593 O -0.07165 0.76130 0.15759
 H594 H -0.12825 0.71485 0.11760
 H595 H -0.07473 0.72945 0.07964
 C596 C 0.41311 0.23837 0.65701
 C597 C 0.40560 0.22475 0.62541
 C598 C 0.43093 0.23498 0.60476
 C599 C 0.45247 0.25350 0.62523
 O600 O 0.44156 0.25595 0.65700
 H601 H 0.38416 0.20936 0.61813
 H602 H 0.43395 0.22888 0.57804
 C603 C 0.60052 0.32257 0.68129
 C604 C 0.59917 0.35201 0.66256
 C605 C 0.57501 0.34524 0.63977
 C606 C 0.56302 0.31266 0.64687
 O607 O 0.57843 0.29871 0.67192
 H608 H 0.61472 0.37503 0.66439
 H609 H 0.56731 0.36175 0.62002
 C610 C 0.08506 0.83083 0.18943
 C611 C 0.08258 0.86013 0.17072
 C612 C 0.05881 0.85221 0.14778
 C613 C 0.04828 0.81906 0.15477
 O614 O 0.06428 0.80585 0.17979
 H615 H 0.09736 0.88371 0.17257
 H616 H 0.05078 0.86813 0.12771
 C617 C 0.34984 0.10263 0.26590
 C618 C 0.38265 0.11054 0.25808
 C619 C 0.40072 0.08151 0.26518
 C620 C 0.37755 0.05797 0.27665
 O621 O 0.34662 0.07081 0.27720
 H622 H 0.39211 0.13422 0.24757
 H623 H 0.42738 0.07725 0.26103
 C624 C 0.85667 0.59862 0.77293
 C625 C 0.88956 0.60682 0.76589
 C626 C 0.90768 0.57821 0.77409
 C627 C 0.88444 0.55459 0.78526
 O628 O 0.85342 0.56701 0.78471
 H629 H 0.89907 0.63044 0.75531
 H630 H 0.93448 0.57426 0.77086
 C631 C 0.80935 0.40169 0.83047
 C632 C 0.83151 0.39436 0.85516
 C633 C 0.85759 0.41642 0.85066
 C634 C 0.84915 0.43591 0.82395
 O635 O 0.81993 0.42706 0.81147
 H636 H 0.82958 0.37436 0.87340
 H637 H 0.88039 0.41776 0.86469
 C638 C 0.30340 -0.09406 0.32680
 C639 C 0.32699 -0.10050 0.35049
 C640 C 0.35274 -0.07865 0.34381
 C641 C 0.34274 -0.06006 0.31706
 O642 O 0.31283 -0.06926 0.30654
 H643 H 0.32620 -0.11971 0.36955
 H644 H 0.37631 -0.07683 0.35649
 C645 C 0.20873 -0.07857 0.75298
 C646 C 0.21047 -0.06466 0.78549
 C647 C 0.19056 -0.03537 0.78669
 C648 C 0.17838 -0.03333 0.75478
 O649 O 0.18926 -0.05963 0.73431
 H650 H 0.22442 -0.07464 0.80590
 H651 H 0.18571 -0.01733 0.80811
 C652 C 0.70089 0.41752 0.26016
 C653 C 0.69939 0.42901 0.29349
 C654 C 0.67943 0.45827 0.29471
 C655 C 0.67033 0.46256 0.26200
 O656 O 0.68330 0.43778 0.24099
 H657 H 0.71125 0.41739 0.31439
 H658 H 0.67238 0.47471 0.31673
 C659 C 0.67932 0.63719 0.27004
 C660 C 0.64699 0.64663 0.27988
 C661 C 0.62850 0.61735 0.27338
 C662 C 0.65124 0.59226 0.26086
 O663 O 0.68208 0.60421 0.25869
 H664 H 0.63807 0.67185 0.29027
 H665 H 0.60190 0.61428 0.27814
 C666 C 0.18874 0.14009 0.75886
 C667 C 0.15636 0.15101 0.76681
 C668 C 0.13712 0.12226 0.76024
 C669 C 0.15945 0.09598 0.74954
 O670 O 0.19076 0.10674 0.74859
 H671 H 0.14794 0.17671 0.77638
 H672 H 0.11028 0.12027 0.76414
 C673 C 0.22986 0.26215 0.09473
 C674 C 0.20585 0.26196 0.07057
 C675 C 0.21775 0.28366 0.04683
 C676 C 0.24785 0.29584 0.05864
 O677 O 0.25530 0.28254 0.08754
 H678 H 0.18256 0.24773 0.07030
 H679 H 0.20567 0.29047 0.02406
 C680 C 0.73453 0.75053 0.59645
 C681 C 0.71083 0.74777 0.57203
 C682 C 0.72006 0.77142 0.54902
 C683 C 0.74843 0.78714 0.56143
 O684 O 0.75735 0.77429 0.59009
 H685 H 0.68923 0.73090 0.57134
 H686 H 0.70709 0.77747 0.52654
 C687 C 0.82237 0.81824 0.41368
 C688 C 0.84025 0.84871 0.41812
 C689 C 0.83342 0.86018 0.45062
 C690 C 0.81197 0.83571 0.46349
 O691 O 0.80534 0.81026 0.44112
 H692 H 0.85588 0.86133 0.39979
 H693 H 0.84293 0.88359 0.46322
 C694 C 0.33920 0.30435 -0.08473
 C695 C 0.36206 0.33055 -0.07882
 C696 C 0.35393 0.34437 -0.04740
 C697 C 0.32679 0.32541 -0.03651
 O698 O 0.31790 0.30105 -0.05909
 H699 H 0.38177 0.33908 -0.09563
 H700 H 0.36621 0.36585 -0.03423
 C701 C 0.69244 0.16351 -0.12982
 C702 C 0.68542 0.12972 -0.14110
 C703 C 0.68877 0.10987 -0.11363
 C704 C 0.69714 0.13332 -0.08781
 O705 O 0.69960 0.16560 -0.09781
 H706 H 0.67896 0.12067 -0.16621
 H707 H 0.68535 0.08188 -0.11245
 C708 C 0.18671 0.66905 0.37094
 C709 C 0.17817 0.63585 0.35916
 C710 C 0.18093 0.61527 0.38619
 C711 C 0.19050 0.63775 0.41228
 O712 O 0.19423 0.67012 0.40286
 H713 H 0.17101 0.62766 0.33404
 H714 H 0.17628 0.58745 0.38692
 C715 C 0.21398 0.71523 0.57208
 C716 C 0.18863 0.73223 0.55639
 C717 C 0.18098 0.71084 0.52966
 C718 C 0.20216 0.68218 0.53079
 O719 O 0.22218 0.68452 0.55678
 H720 H 0.17739 0.75757 0.56322
 H721 H 0.16247 0.71583 0.51113
 C722 C 0.71270 0.21330 0.07308
 C723 C 0.68803 0.22992 0.05608
 C724 C 0.68262 0.20885 0.02846
 C725 C 0.70431 0.18072 0.03046
 O726 O 0.72255 0.18314 0.05774
 H727 H 0.67573 0.25478 0.06270
 H728 H 0.66503 0.21358 0.00899
 C729 C 0.50253 0.36387 0.50884
 C730 C 0.53688 0.36095 0.50654
 C731 C 0.54532 0.34019 0.53170
 C732 C 0.51536 0.33151 0.54727
 O733 O 0.48927 0.34618 0.53353
 H734 H 0.55378 0.37270 0.48872
 H735 H 0.57047 0.33214 0.53726
 C736 C 0.00748 0.85915 0.00984
 C737 C 0.03887 0.84454 0.00357
 C738 C 0.04293 0.82143 0.02805
 C739 C 0.01361 0.82356 0.04726
 O740 O -0.00803 0.84639 0.03624
 H741 H 0.05682 0.85035 -0.01618
 H742 H 0.06457 0.80476 0.03122
 C743 C 0.07858 0.68040 0.05399
 C744 C 0.10460 0.70002 0.06657
 C745 C 0.08976 0.72821 0.08343
 C746 C 0.05584 0.72334 0.08022
 O747 O 0.04891 0.69439 0.06232
 H748 H 0.13120 0.69475 0.06331
 H749 H 0.10215 0.74962 0.09662
 C750 C 0.56949 0.18426 0.52427
 C751 C 0.57910 0.21265 0.50648
 C752 C 0.57009 0.24125 0.52670
 C753 C 0.55516 0.22797 0.55496
 O754 O 0.55487 0.19336 0.55356
 H755 H 0.59089 0.21244 0.48168
 H756 H 0.57241 0.26841 0.52065
 C757 C -0.06249 0.14419 0.43052
 C758 C -0.09313 0.15521 0.41959
 C759 C -0.08596 0.17939 0.39637
 C760 C -0.05147 0.18110 0.39474
 O761 O -0.03724 0.15980 0.41547
 H762 H -0.11773 0.14685 0.42776
 H763 H -0.10380 0.19373 0.38226
 C764 C 0.44091 0.64605 0.93148
 C765 C 0.41038 0.65665 0.91993
 C766 C 0.41778 0.67984 0.89584
 C767 C 0.45228 0.68141 0.89438
 O768 O 0.46630 0.66097 0.91601
 H769 H 0.38570 0.64862 0.92818
 H770 H 0.40010 0.69355 0.88101
 C771 C 0.46359 0.83681 0.92166
 C772 C 0.43089 0.82627 0.91868
 C773 C 0.43187 0.79946 0.89483
 C774 C 0.46526 0.79523 0.88536
 O775 O 0.48453 0.81808 0.90156
 H776 H 0.40918 0.83598 0.93329
 H777 H 0.41085 0.78378 0.88694
 C778 C -0.04071 0.33537 0.42943
 C779 C -0.07324 0.32401 0.42714
 C780 C -0.07239 0.29809 0.40237
 C781 C -0.03925 0.29524 0.39158
 O782 O -0.02003 0.31806 0.40791
 H783 H -0.09476 0.33272 0.44258
 H784 H -0.09325 0.28213 0.39459
 C785 C 0.30659 0.54620 0.48565
 C786 C 0.29432 0.54059 0.51760
 C787 C 0.26681 0.56188 0.52211
 C788 C 0.26422 0.57872 0.49243
 O789 O 0.28843 0.56930 0.47031
 H790 H 0.30398 0.52271 0.53529
 H791 H 0.25006 0.56368 0.54394
 C792 C 0.82137 0.05822 -0.00912
 C793 C 0.81092 0.05601 0.02396
 C794 C 0.78100 0.07343 0.02682
 C795 C 0.77525 0.08486 -0.00483
 O796 O 0.79984 0.07573 -0.02669
 H797 H 0.82341 0.04285 0.04360
 H798 H 0.76509 0.07639 0.04920
 C799 C 0.62228 0.04149 0.03220
 C800 C 0.63482 0.05544 0.06175
 C801 C 0.66064 0.07610 0.05239
 C802 C 0.66185 0.07353 0.01774
 O803 O 0.63857 0.05242 0.00535
 H804 H 0.62593 0.05133 0.08714
 H805 H 0.67582 0.09204 0.06902
 C806 C 0.11234 0.54768 0.53226
 C807 C 0.12333 0.56396 0.56150
 C808 C 0.14933 0.58427 0.55194
 C809 C 0.15212 0.57923 0.51749
 O810 O 0.12969 0.55693 0.50537
 H811 H 0.11353 0.56133 0.58683
 H812 H 0.16377 0.60151 0.56812
 C813 C 0.22518 0.45485 -0.00259
 C814 C 0.25646 0.46967 -0.00139
 C815 C 0.27765 0.44305 0.00547
 C816 C 0.25767 0.41397 0.00815
 O817 O 0.22573 0.42107 0.00329
 H818 H 0.26301 0.49670 -0.00490
 H819 H 0.30432 0.44506 0.00900
 C820 C 0.70150 0.94803 0.52243
 C821 C 0.72957 0.96695 0.53065
 C822 C 0.75449 0.94262 0.53275
 C823 C 0.73952 0.91074 0.52617
 O824 O 0.70736 0.91388 0.51981
 H825 H 0.73165 0.99510 0.53429
 H826 H 0.78021 0.94745 0.53924
 C827 C 0.86413 0.92719 0.58067
 C828 C 0.86727 0.90653 0.60784
 C829 C 0.84718 0.87844 0.60145
 C830 C 0.83337 0.88415 0.57081
 O831 O 0.84368 0.91368 0.55823
 H832 H 0.88234 0.91135 0.62968
 H833 H 0.84304 0.85668 0.61738
 C834 C 0.36790 0.42912 0.08065
 C835 C 0.36939 0.40907 0.10842
 C836 C 0.35062 0.38022 0.10086
 C837 C 0.33930 0.38492 0.06897
 O838 O 0.34981 0.41451 0.05675
 H839 H 0.38238 0.41486 0.13144
 H840 H 0.34566 0.35862 0.11678
 C841 C 0.51609 0.52148 0.30441
 C842 C 0.51147 0.55233 0.28860
 C843 C 0.53958 0.55578 0.26882
 C844 C 0.55937 0.52677 0.27416
 O845 O 0.54503 0.50592 0.29573
 H846 H 0.49037 0.57034 0.29144
 H847 H 0.54496 0.57735 0.25303
 C848 C 0.02738 0.02828 0.80499
 C849 C 0.01944 0.05548 0.78511
 C850 C 0.04595 0.05755 0.76289
 C851 C 0.06811 0.03143 0.77095
 O852 O 0.05677 0.01366 0.79645
 H853 H -0.00280 0.07197 0.78680
 H854 H 0.04863 0.07615 0.74344
 C855 C 0.08572 0.04010 0.62509
 C856 C 0.11571 0.02940 0.60966
 C857 C 0.13571 0.02050 0.63521
 C858 C 0.11646 0.02697 0.66419
 O859 O 0.08618 0.03880 0.65812
 H860 H 0.12179 0.02713 0.58301
 H861 H 0.16123 0.01065 0.63304
 C862 C 0.58499 0.54257 0.13079
 C863 C 0.61513 0.53122 0.11612
 C864 C 0.63387 0.52082 0.14211
 C865 C 0.61377 0.52709 0.17055
 O866 O 0.58420 0.54023 0.16374
 H867 H 0.62208 0.52943 0.08965
 H868 H 0.65906 0.51004 0.14055
 C869 C 0.43590 -0.07302 0.17737
 C870 C 0.42737 -0.10362 0.19233
 C871 C 0.41511 -0.09325 0.22364
 C872 C 0.41687 -0.05714 0.22513
 O873 O 0.42950 -0.04488 0.19713
 H874 H 0.43002 -0.13020 0.18181
 H875 H 0.40554 -0.11000 0.24273
 C876 C 0.94459 0.42330 0.68882
 C877 C 0.93632 0.39284 0.70412
 C878 C 0.92510 0.40341 0.73579
 C879 C 0.92714 0.43951 0.73711
 O880 O 0.93901 0.45152 0.70869
 H881 H 0.93817 0.36624 0.69348
 H882 H 0.91565 0.38685 0.75509
 C883 C 0.98746 0.47307 0.88666
 C884 C 0.98519 0.43770 0.87862
 C885 C 0.96233 0.43495 0.85399
 C886 C 0.95235 0.46894 0.84871
 O887 O 0.96759 0.49213 0.86862
 H888 H 0.99871 0.41642 0.88927
 H889 H 0.95433 0.41088 0.84143
 C890 C 0.48635 -0.02867 0.36877
 C891 C 0.48092 -0.06384 0.36205
 C892 C 0.45612 -0.06524 0.33937
 C893 C 0.44817 -0.03073 0.33386
 O894 O 0.46655 -0.00846 0.35175
 H895 H 0.49343 -0.08589 0.37251
 H896 H 0.44528 -0.08884 0.32852
   
