data_POSCAR
  _audit_creation_date              2014-09-24
  _audit_creation_method            'ToBaCCo'
  _symmetry_space_group_name_H-M    'P1'
  _symmetry_Int_Tables_number       1
  _symmetry_cell_setting            triclinic
  loop_
  _symmetry_equiv_pos_as_xyz
 x,y,z
_cell_length_a 24.2979
_cell_length_b 24.0671
_cell_length_c 24.3232
_cell_angle_alpha 91.286800
_cell_angle_beta 89.160900
_cell_angle_gamma 90.945300
loop_
  _atom_site_label
  _atom_site_type_symbol
  _atom_site_fract_x
  _atom_site_fract_y
  _atom_site_fract_z
C1 C 0.22912 0.15838 0.21269
 C2 C 0.20422 0.13164 0.25743
 C3 C 0.15495 0.15126 0.28061
 C4 C 0.13081 0.19892 0.25961
 C5 C 0.15555 0.22646 0.21478
 C6 C 0.20483 0.20588 0.19103
 C7 C 0.27679 0.13688 0.18792
 C8 C 0.30007 0.16152 0.14123
 C9 C 0.27654 0.20913 0.11977
 C10 C 0.22891 0.23167 0.14454
 C11 C 0.20363 0.27803 0.12232
 C12 C 0.15474 0.29852 0.14577
 C13 C 0.13100 0.27295 0.19198
 H14 H 0.22260 0.09462 0.27346
 H15 H 0.09248 0.21390 0.27739
 H16 H 0.29470 0.09956 0.20383
 H17 H 0.29423 0.22756 0.08311
 H18 H 0.22108 0.29728 0.08599
 H19 H 0.09262 0.28840 0.20920
 C20 C -0.24704 0.84048 0.22850
 C21 C -0.22679 0.86616 0.27666
 C22 C -0.17962 0.84627 0.30163
 C23 C -0.15301 0.79937 0.27877
 C24 C -0.17300 0.77288 0.23052
 C25 C -0.22017 0.79375 0.20521
 C26 C -0.29223 0.86250 0.20180
 C27 C -0.31044 0.83900 0.15189
 C28 C -0.28453 0.79208 0.12911
 C29 C -0.23936 0.76921 0.15547
 C30 C -0.21154 0.72386 0.13158
 C31 C -0.16462 0.70310 0.15626
 C32 C -0.14556 0.72740 0.20578
 H33 H -0.24681 0.90277 0.29378
 H34 H -0.11606 0.78441 0.29765
 H35 H -0.31192 0.89937 0.21877
 H36 H -0.29824 0.77460 0.09004
 H37 H -0.22543 0.70565 0.09291
 H38 H -0.10867 0.71178 0.22419
 C39 C -0.26361 0.17692 -0.24727
 C40 C -0.23771 0.14662 -0.29010
 C41 C -0.18659 0.16429 -0.31143
 C42 C -0.16128 0.21306 -0.28998
 C43 C -0.18685 0.24408 -0.24713
 C44 C -0.23856 0.22617 -0.22626
 C45 C -0.31205 0.15667 -0.22215
 C46 C -0.33509 0.18509 -0.17653
 C47 C -0.31229 0.23535 -0.15793
 C48 C -0.26374 0.25566 -0.18189
 C49 C -0.23756 0.30220 -0.15854
 C50 C -0.18567 0.31875 -0.17734
 C51 C -0.16046 0.29058 -0.22218
 H52 H -0.25638 0.10826 -0.30562
 H53 H -0.12112 0.22587 -0.30556
 H54 H -0.32967 0.11703 -0.23567
 H55 H -0.32984 0.25633 -0.12193
 H56 H -0.25601 0.32356 -0.12324
 H57 H -0.11962 0.30335 -0.23593
 C58 C 0.24731 0.83225 -0.24549
 C59 C 0.21982 0.86578 -0.28233
 C60 C 0.16697 0.85083 -0.30055
 C61 C 0.14133 0.80175 -0.28182
 C62 C 0.16851 0.76757 -0.24489
 C63 C 0.22203 0.78260 -0.22736
 C64 C 0.29813 0.84921 -0.22355
 C65 C 0.32331 0.81709 -0.18392
 C66 C 0.30000 0.76662 -0.16829
 C67 C 0.24918 0.74950 -0.18917
 C68 C 0.22313 0.70229 -0.16852
 C69 C 0.16963 0.68854 -0.18389
 C70 C 0.14238 0.72028 -0.22268
 H71 H 0.23915 0.90412 -0.29602
 H72 H 0.10012 0.79067 -0.29521
 H73 H 0.31631 0.88898 -0.23452
 H74 H 0.31935 0.74290 -0.13666
 H75 H 0.24318 0.67804 -0.13773
 H76 H 0.10038 0.70953 -0.23367
 C77 C 0.16857 1.23942 0.76828
 C78 C 0.15250 1.22493 0.71491
 C79 C 0.17565 1.17913 0.68785
 C80 C 0.21779 1.14971 0.71238
 C81 C 0.23467 1.16418 0.76577
 C82 C 0.20920 1.20864 0.79444
 C83 C 0.14145 1.28153 0.79725
 C84 C 0.15313 1.29247 0.85243
 C85 C 0.19391 1.26281 0.87893
 C86 C 0.22231 1.22064 0.84999
 C87 C 0.26174 1.18862 0.87593
 C88 C 0.28730 1.14478 0.84703
 C89 C 0.27393 1.13278 0.79221
 H90 H 0.11903 1.24664 0.69611
 H91 H 0.23477 1.11340 0.69148
 H92 H 0.10934 1.30435 0.77738
 H93 H 0.20240 1.27143 0.92198
 H94 H 0.27190 1.19710 0.91861
 H95 H 0.29333 1.09822 0.77056
 C96 C 0.85306 0.77157 0.76439
 C97 C 0.87670 0.79120 0.71555
 C98 C 0.85556 0.83815 0.69116
 C99 C 0.80941 0.86462 0.71425
 C100 C 0.78541 0.84550 0.76318
 C101 C 0.80756 0.79899 0.78876
 C102 C 0.87619 0.72692 0.79090
 C103 C 0.85507 0.70994 0.84171
 C104 C 0.80965 0.73652 0.86601
 C105 C 0.78568 0.78127 0.83976
 C106 C 0.74180 0.81011 0.86456
 C107 C 0.72012 0.85642 0.83910
 C108 C 0.74153 0.87377 0.78844
 H109 H 0.91307 0.77161 0.69803
 H110 H 0.79387 0.90169 0.69561
 H111 H 0.91190 0.70653 0.77286
 H112 H 0.79403 0.72344 0.90577
 H113 H 0.72528 0.79737 0.90407
 H114 H 0.72484 0.91007 0.76942
 C115 C 0.18199 0.74035 1.26142
 C116 C 0.16011 0.76118 1.31100
 C117 C 0.18181 0.80988 1.33452
 C118 C 0.22841 0.83575 1.31140
 C119 C 0.25117 0.81523 1.26187
 C120 C 0.22704 0.76795 1.23583
 C121 C 0.15593 0.69550 1.23483
 C122 C 0.17246 0.67881 1.18197
 C123 C 0.21767 0.70569 1.15601
 C124 C 0.24550 0.75045 1.18294
 C125 C 0.28900 0.78032 1.15711
 C126 C 0.31343 0.82719 1.18364
 C127 C 0.29455 0.84396 1.23594
 H128 H 0.12325 0.74236 1.32875
 H129 H 0.24414 0.87429 1.32962
 H130 H 0.12039 0.67557 1.25411
 H131 H 0.22979 0.69323 1.11452
 H132 H 0.30278 0.76818 1.11606
 H133 H 0.31235 0.88085 1.25557
 C134 C 0.83597 1.23821 1.25765
 C135 C 0.86283 1.21352 1.30114
 C136 C 0.84261 1.16368 1.32234
 C137 C 0.79408 1.13925 1.30185
 C138 C 0.76661 1.16349 1.25835
 C139 C 0.78796 1.21295 1.23550
 C140 C 0.85840 1.28600 1.23409
 C141 C 0.83464 1.30849 1.18788
 C142 C 0.78664 1.28380 1.16548
 C143 C 0.76281 1.23583 1.18926
 C144 C 0.71599 1.20875 1.16661
 C145 C 0.69465 1.15946 1.18972
 C146 C 0.71991 1.13745 1.23560
 H147 H 0.90083 1.23174 1.31677
 H148 H 0.77904 1.10014 1.31817
 H149 H 0.89592 1.30459 1.25042
 H150 H 0.76894 1.30091 1.12901
 H151 H 0.69698 1.22515 1.13047
 H152 H 0.70409 1.09897 1.25259
 O153 O 0.55092 0.94220 0.89629
 O154 O 0.44429 0.97259 1.11941
 O155 O 0.60694 0.97108 1.04496
 O156 O 0.43117 0.90297 0.95998
 O157 O 0.53513 0.93716 1.08456
 O158 O 0.44770 0.94639 0.88696
 O159 O 0.43628 0.91635 1.05367
 O160 O 0.61268 0.98760 0.94629
 C161 C 0.59963 0.94933 0.91180
 C162 C 0.42454 0.92769 1.10211
 C163 C 0.58503 0.93454 1.07400
 C164 C 0.42998 0.90456 0.90958
 O165 O 0.44994 1.05131 0.89756
 O166 O 0.54021 1.03076 1.13684
 O167 O 0.56920 1.09128 0.96704
 O168 O 0.39305 1.02239 1.04677
 O169 O 0.46409 1.06844 1.07897
 O170 O 0.55361 1.04826 0.89145
 O171 O 0.38717 1.00752 0.94758
 O172 O 0.56477 1.07408 1.06310
 Co173 Co 0.50046 0.99682 0.90306
 Co174 Co 0.50150 1.00328 1.07811
 Co175 Co 0.58099 1.02800 1.00446
 Co176 Co 0.41828 0.96489 1.00169
 O177 O 0.49826 0.99608 0.99390
 C178 C 0.40112 1.04542 0.91431
 C179 C 0.57363 1.06612 1.11344
 C180 C 0.56958 1.09055 0.91632
 C181 C 0.41346 1.06538 1.07007
 O182 O 0.05876 0.46329 0.08287
 O183 O 0.04291 0.55463 -0.11514
 O184 O 0.01002 0.38802 -0.05275
 O185 O 0.07833 0.56805 0.05058
 O186 O 0.05475 0.45149 -0.10074
 O187 O 0.02649 0.55468 0.11887
 O188 O 0.08690 0.57485 -0.04346
 O189 O 0.02106 0.39190 0.04526
 C190 C 0.05911 0.41266 0.07305
 C191 C 0.08294 0.57706 -0.09356
 C192 C 0.05056 0.40307 -0.08283
 C193 C 0.06968 0.57591 0.10012
 O194 O -0.07084 0.53726 0.08224
 O195 O -0.04913 0.44090 -0.11020
 O196 O -0.07995 0.43644 0.06056
 O197 O -0.01948 0.61295 -0.05204
 O198 O -0.05941 0.54599 -0.10284
 O199 O -0.03456 0.45803 0.13500
 O200 O -0.02729 0.60932 0.04968
 O201 O -0.09453 0.43312 -0.03653
 Co202 Co -0.00675 0.49807 0.07807
 Co203 Co -0.00258 0.49827 -0.09686
 Co204 Co -0.03325 0.41959 0.00304
 Co205 Co 0.02694 0.58458 0.00094
 O206 O -0.00170 0.50234 -0.00615
 C207 C -0.06770 0.58876 0.07597
 C208 C -0.09190 0.42641 -0.08685
 C209 C -0.07214 0.42722 0.11096
 C210 C -0.05559 0.59616 -0.08659
 O211 O 1.10506 0.06368 0.44819
 O212 O 0.88476 0.02264 0.55599
 O213 O 0.95803 0.03202 0.39432
 O214 O 1.04284 0.09443 0.57469
 O215 O 0.91945 0.06304 0.46819
 O216 O 1.11765 0.05620 0.55086
 O217 O 0.94921 0.07950 0.56902
 O218 O 1.05672 0.01743 0.38628
 C219 C 1.08863 0.05756 0.39976
 C220 C 0.90065 0.06658 0.57872
 C221 C 0.92863 0.06729 0.41838
 C222 C 1.09336 0.09474 0.57411
 O223 O 1.11183 -0.04900 0.54492
 O224 O 0.86855 -0.03072 0.45842
 O225 O 1.03898 -0.08763 0.42807
 O226 O 0.95918 -0.02830 0.60491
 O227 O 0.92793 -0.07106 0.53157
 O228 O 1.11387 -0.04294 0.44109
 O229 O 1.05944 -0.01200 0.61083
 O230 O 0.94284 -0.07254 0.43212
 Co231 Co 1.10216 0.00686 0.49641
 Co232 Co 0.92726 -0.00428 0.49781
 Co233 Co 1.00026 -0.02493 0.41760
 Co234 Co 1.00303 0.03098 0.58314
 O235 O 1.01120 0.00445 0.50102
 C236 C 1.09562 -0.04662 0.59436
 C237 C 0.89233 -0.06475 0.42368
 C238 C 1.08972 -0.08652 0.42756
 C239 C 0.93555 -0.06986 0.58230
 C240 C 1.13022 0.12197 0.32202
 C241 C 1.11034 0.09358 0.35787
 C242 C 0.84248 -0.12461 0.34540
 C243 C 0.86334 -0.09745 0.38241
 C244 C 0.84172 0.12979 0.64774
 C245 C 0.86686 0.10050 0.61517
 C246 C 1.14073 -0.11501 0.66431
 C247 C 1.11930 -0.08386 0.63290
 C248 C 0.34207 1.13490 1.11450
 C249 C 0.37670 1.10612 1.09287
 C250 C 0.36603 0.84125 0.84894
 C251 C 0.39764 0.86643 0.87789
 C252 C 0.65078 0.86608 1.12326
 C253 C 0.61890 0.89451 1.09940
 C254 C 0.62780 1.15868 0.85610
 C255 C 0.59892 1.13109 0.88551
 C256 C 0.12575 0.34247 0.11956
 C257 C 0.09791 0.37660 0.09778
 C258 C -0.15611 0.35984 -0.14521
 C259 C -0.12967 0.39179 -0.11700
 C260 C 0.14117 0.64635 -0.15351
 C261 C 0.11676 0.61327 -0.12564
 C262 C -0.13351 0.65989 0.12813
 C263 C -0.10547 0.62585 0.10391
 C264 C 1.14923 0.15619 0.64413
 C265 C 1.12354 0.13139 0.60950
 C266 C 0.88414 -0.13675 0.65002
 C267 C 0.90901 -0.10959 0.61677
 C268 C 1.14886 -0.15958 0.37333
 C269 C 1.12053 -0.12912 0.40070
 C270 C 0.87335 0.13537 0.35811
 C271 C 0.90008 0.10687 0.38720
 C272 C 0.12124 0.32990 -0.12034
 C273 C 0.08971 0.36313 -0.10112
 C274 C -0.13586 0.35342 0.16141
 C275 C -0.10748 0.38862 0.13971
 C276 C -0.11798 0.67012 -0.13141
 C277 C -0.09090 0.63582 -0.10973
 C278 C 0.13964 0.64095 0.15480
 C279 C 0.10768 0.60971 0.13160
 C280 C 0.32664 1.11063 0.87337
 C281 C 0.36014 1.08096 0.89316
 C282 C 0.35477 0.86156 1.15625
 C283 C 0.38772 0.89193 1.13324
 C284 C 0.64953 1.12828 1.16452
 C285 C 0.61367 1.10016 1.14285
 C286 C 0.67730 0.88795 0.86586
 C287 C 0.64181 0.91555 0.88743
   
