data_POSCAR
  _audit_creation_date              2014-09-24
  _audit_creation_method            'ToBaCCo'
  _symmetry_space_group_name_H-M    'P1'
  _symmetry_Int_Tables_number       1
  _symmetry_cell_setting            triclinic
  loop_
  _symmetry_equiv_pos_as_xyz
 x,y,z
_cell_length_a 36.4337
_cell_length_b 36.3954
_cell_length_c 37.9044
_cell_angle_alpha 89.998300
_cell_angle_beta 89.907500
_cell_angle_gamma 89.921600
loop_
  _atom_site_label
  _atom_site_type_symbol
  _atom_site_fract_x
  _atom_site_fract_y
  _atom_site_fract_z
B1 B 0.26778 0.23532 0.28460
 B2 B 0.22453 0.22622 0.27281
 B3 B 0.23629 0.26896 0.28434
 B4 B 0.27914 0.27740 0.26966
 B5 B 0.29358 0.23852 0.24805
 B6 B 0.25938 0.20648 0.25072
 B7 B 0.23313 0.26527 0.21379
 B8 B 0.27640 0.27441 0.22553
 B9 B 0.26461 0.23166 0.21400
 B10 B 0.22179 0.22320 0.22873
 B11 B 0.20738 0.26209 0.25031
 B12 B 0.24156 0.29412 0.24764
 B13 B 0.73874 0.77164 0.21313
 B14 B 0.72811 0.72855 0.22459
 B15 B 0.77145 0.73912 0.21400
 B16 B 0.78064 0.78172 0.22903
 B17 B 0.74174 0.79720 0.24984
 B18 B 0.70887 0.76391 0.24639
 B19 B 0.76594 0.73589 0.28455
 B20 B 0.77649 0.77892 0.27302
 B21 B 0.73319 0.76830 0.28366
 B22 B 0.72395 0.72574 0.26869
 B23 B 0.76288 0.71028 0.24797
 B24 B 0.79574 0.74359 0.25122
 B25 B 0.73243 0.23358 -0.21581
 B26 B 0.72488 0.27717 -0.22781
 B27 B 0.76688 0.26410 -0.21523
 B28 B 0.77456 0.22097 -0.22971
 B29 B 0.73596 0.20773 -0.25225
 B30 B 0.70486 0.24292 -0.25037
 B31 B 0.76529 0.26742 -0.28589
 B32 B 0.77288 0.22384 -0.27388
 B33 B 0.73087 0.23691 -0.28647
 B34 B 0.72317 0.28003 -0.27198
 B35 B 0.76180 0.29327 -0.24946
 B36 B 0.79289 0.25809 -0.25133
 B37 B 0.26751 0.76260 -0.28411
 B38 B 0.22516 0.77620 -0.27313
 B39 B 0.23257 0.73269 -0.28544
 B40 B 0.27376 0.71914 -0.26992
 B41 B 0.29156 0.75558 -0.24699
 B42 B 0.26121 0.79131 -0.24969
 B43 B 0.22741 0.73491 -0.21485
 B44 B 0.26985 0.72135 -0.22577
 B45 B 0.26242 0.76483 -0.21349
 B46 B 0.22132 0.77840 -0.22905
 B47 B 0.20343 0.74198 -0.25191
 B48 B 0.23383 0.70624 -0.24937
 B49 B 1.23446 1.26969 0.71613
 B50 B 1.22553 1.22615 0.72739
 B51 B 1.26798 1.23807 0.71516
 B52 B 1.27685 1.28065 0.73039
 B53 B 1.23849 1.29472 0.75302
 B54 B 1.20636 1.26062 0.75044
 B55 B 1.26577 1.23347 0.78575
 B56 B 1.27475 1.27701 0.77452
 B57 B 1.23228 1.26507 0.78670
 B58 B 1.22343 1.22253 0.77147
 B59 B 1.26180 1.20845 0.74887
 B60 B 1.29391 1.24255 0.75145
 B61 B 0.76936 0.73690 0.78518
 B62 B 0.72648 0.72611 0.77344
 B63 B 0.73643 0.76913 0.78567
 B64 B 0.77874 0.77975 0.77094
 B65 B 0.79477 0.74201 0.74856
 B66 B 0.76207 0.70842 0.75081
 B67 B 0.73295 0.76666 0.71507
 B68 B 0.77583 0.77750 0.72680
 B69 B 0.76593 0.73450 0.71454
 B70 B 0.72361 0.72382 0.72930
 B71 B 0.70757 0.76158 0.75168
 B72 B 0.74027 0.79516 0.74941
 B73 B 1.23531 0.73214 0.28459
 B74 B 1.22311 0.77469 0.27278
 B75 B 1.26653 0.76594 0.28440
 B76 B 1.27809 0.72374 0.26972
 B77 B 1.24050 0.70666 0.24803
 B78 B 1.20609 0.73852 0.25065
 B79 B 1.26295 0.76897 0.21376
 B80 B 1.27503 0.72631 0.22556
 B81 B 1.23163 0.73516 0.21394
 B82 B 1.22008 0.77728 0.22868
 B83 B 1.25764 0.79439 0.25028
 B84 B 1.29207 0.76250 0.24784
 B85 B 0.76451 1.26668 0.28486
 B86 B 0.77663 1.22380 0.27413
 B87 B 0.73343 1.23282 0.28640
 B88 B 0.72139 1.27445 0.27061
 B89 B 0.75847 1.29086 0.24761
 B90 B 0.79304 1.25923 0.25052
 B91 B 0.73562 1.22725 0.21586
 B92 B 0.72356 1.27027 0.22648
 B93 B 0.76675 1.26119 0.21429
 B94 B 0.77879 1.21967 0.23010
 B95 B 0.74175 1.20319 0.25306
 B96 B 0.70714 1.23487 0.25032
 O97 O 0.54636 1.06541 0.06282
 O98 O 0.58927 1.03456 0.02957
 C99 C 0.58001 1.05857 0.05344
 O100 O 0.45080 0.92699 0.05823
 O101 O 0.40781 0.96117 0.02856
 C102 C 0.41716 0.93467 0.04973
 O103 O 0.55239 0.93569 0.06301
 O104 O 0.59159 0.97188 0.03075
 C105 C 0.58503 0.94685 0.05432
 O106 O 0.44385 1.06438 0.05996
 O107 O 0.40471 1.02634 0.02981
 C108 C 0.41122 1.05306 0.05161
 Zr109 Zr 0.49596 1.04468 0.04396
 O110 O 0.49235 1.04220 0.09967
 O111 O 0.49710 1.10278 0.04609
 Zr112 Zr 0.50048 0.95277 0.04402
 O113 O 0.49835 0.95934 0.09937
 O114 O 0.50491 0.89517 0.04991
 O115 O 0.53135 1.00024 0.05086
 O116 O 0.46576 0.99711 0.05047
 O117 O 0.44447 1.06467 -0.06105
 O118 O 0.40508 1.02658 -0.03113
 C119 C 0.41177 1.05340 -0.05280
 O120 O 0.55256 0.93561 -0.06414
 O121 O 0.59175 0.97112 -0.03122
 C122 C 0.58520 0.94635 -0.05505
 O123 O 0.44974 0.92900 -0.06160
 O124 O 0.40760 0.96339 -0.03078
 C125 C 0.41624 0.93773 -0.05303
 O126 O 0.54718 1.06566 -0.06430
 O127 O 0.58914 1.03391 -0.03094
 C128 C 0.58062 1.05762 -0.05512
 Zr129 Zr 0.49647 1.04474 -0.04520
 O130 O 0.49258 1.04207 -0.10090
 O131 O 0.49791 1.10282 -0.04745
 Zr132 Zr 0.50045 0.95233 -0.04511
 O133 O 0.49682 0.95369 -0.10085
 O134 O 0.50625 0.89444 -0.04582
 Zr135 Zr 0.55340 1.00108 -0.00060
 Zr136 Zr 0.44318 0.99627 -0.00056
 O137 O 0.46637 0.99721 -0.05153
 O138 O 0.53151 0.99994 -0.05209
 O139 O 0.46315 1.05066 -0.00067
 O140 O 0.53265 0.94714 -0.00053
 O141 O 0.52764 1.05295 -0.00058
 O142 O 0.46817 0.94387 -0.00055
 H143 H 0.44879 0.99606 0.07091
 H144 H 0.54985 0.92604 -0.00042
 H145 H 0.44987 0.99660 -0.07228
 H146 H 0.54267 1.07562 -0.00069
 H147 H 0.50732 0.88484 0.02593
 H148 H 0.48675 0.88408 -0.03059
 H149 H 0.51819 0.96763 -0.10977
 H150 H 0.51575 1.03138 -0.10991
 H151 H 0.47986 1.11210 -0.03010
 H152 H 0.47867 1.11197 0.02911
 H153 H 0.51427 1.02886 0.10829
 H154 H 0.49833 0.93418 0.10935
 O155 O 1.05010 0.56600 0.56232
 O156 O 1.09093 0.53223 0.52930
 C157 C 1.08323 0.55661 0.55322
 O158 O 0.94734 0.43297 0.55937
 O159 O 0.90675 0.46916 0.52872
 C160 C 0.91428 0.44295 0.55079
 O161 O 1.04994 0.43598 0.56306
 O162 O 1.09074 0.46982 0.53025
 C163 C 1.08306 0.44559 0.55429
 O164 O 0.94749 0.56925 0.55883
 O165 O 0.90685 0.53253 0.52896
 C166 C 0.91440 0.55901 0.55069
 Zr167 Zr 0.99881 0.54675 0.54354
 O168 O 0.99754 0.54020 0.59892
 O169 O 0.99935 0.60457 0.54920
 Zr170 Zr 0.99877 0.45440 0.54319
 O171 O 0.99494 0.45563 0.59892
 O172 O 1.00273 0.39636 0.54383
 O173 O 1.03184 0.50058 0.55021
 O174 O 0.96652 0.50068 0.54972
 O175 O 0.94775 0.56885 0.43797
 O176 O 0.90699 0.53258 0.46830
 C177 C 0.91464 0.55882 0.44632
 O178 O 1.05067 0.43598 0.43488
 O179 O 1.09121 0.46938 0.46828
 C180 C 1.08372 0.44535 0.44407
 O181 O 0.94778 0.43335 0.43754
 O182 O 0.90700 0.46957 0.46805
 C183 C 0.91467 0.44352 0.44585
 O184 O 1.05063 0.56587 0.43530
 O185 O 1.09119 0.53219 0.46856
 C186 C 1.08368 0.55635 0.44445
 Zr187 Zr 0.99911 0.54735 0.45447
 O188 O 0.99549 0.54647 0.39872
 O189 O 1.00243 0.60542 0.45416
 Zr190 Zr 0.99917 0.45458 0.45413
 O191 O 0.99550 0.45606 0.39839
 O192 O 1.00308 0.39655 0.45316
 Zr193 Zr 1.05404 0.50071 0.49877
 Zr194 Zr 0.94392 0.50088 0.49863
 O195 O 0.96720 0.50103 0.44775
 O196 O 1.03210 0.50095 0.44732
 O197 O 0.96620 0.55437 0.49896
 O198 O 1.03092 0.44772 0.49873
 O199 O 1.03085 0.55375 0.49903
 O200 O 0.96610 0.44728 0.49855
 H201 H 0.94979 0.50071 0.57036
 H202 H 1.04728 0.42595 0.49884
 H203 H 0.95080 0.50115 0.42693
 H204 H 1.04713 0.57552 0.49896
 H205 H 0.98329 0.38668 0.52823
 H206 H 0.98344 0.38679 0.46855
 H207 H 1.01727 0.46937 0.38946
 H208 H 1.01706 0.53286 0.38970
 H209 H 0.98305 0.61479 0.47015
 H210 H 1.00653 0.61495 0.52614
 H211 H 0.99661 0.56535 0.60887
 H212 H 1.01491 0.47162 0.60767
 O213 O 1.06184 0.44688 0.06571
 O214 O 1.02902 0.40616 0.03188
 C215 C 1.05285 0.41377 0.05623
 O216 O 0.92796 0.54911 0.05889
 O217 O 0.96416 0.59063 0.02946
 C218 C 0.93703 0.58242 0.05040
 O219 O 0.93207 0.44687 0.06337
 O220 O 0.96620 0.40613 0.03069
 C221 C 0.94157 0.41374 0.05434
 O222 O 1.06489 0.54973 0.06287
 O223 O 1.02942 0.59063 0.03181
 C224 C 1.05519 0.58291 0.05423
 Zr225 Zr 1.04341 0.49829 0.04635
 O226 O 1.03711 0.49978 0.10176
 O227 O 1.10127 0.49489 0.05035
 Zr228 Zr 0.95156 0.49831 0.04480
 O229 O 0.95448 0.50225 0.10048
 O230 O 0.89377 0.49480 0.04821
 O231 O 0.99735 0.46504 0.05233
 O232 O 0.99729 0.53088 0.05195
 O233 O 1.06880 0.54861 -0.05709
 O234 O 1.03284 0.59042 -0.02766
 C235 C 1.05989 0.58199 -0.04865
 O236 O 0.93429 0.44732 -0.06390
 O237 O 0.96722 0.40638 -0.03033
 C238 C 0.94341 0.41414 -0.05467
 O239 O 0.93224 0.55042 -0.06121
 O240 O 0.96785 0.59097 -0.02996
 C241 C 0.94222 0.58350 -0.05255
 O242 O 1.06448 0.44642 -0.06128
 O243 O 1.02979 0.40587 -0.02907
 C244 C 1.05468 0.41335 -0.05246
 Zr245 Zr 1.04500 0.49799 -0.04300
 O246 O 1.04204 0.50236 -0.09867
 O247 O 1.10278 0.49403 -0.04652
 Zr248 Zr 0.95297 0.49870 -0.04450
 O249 O 0.95606 0.50255 -0.10018
 O250 O 0.89501 0.49535 -0.04679
 Zr251 Zr 0.99814 0.44321 0.00082
 Zr252 Zr 0.99843 0.55368 0.00091
 O253 O 0.99940 0.53078 -0.05010
 O254 O 0.99901 0.46516 -0.05069
 O255 O 1.05167 0.53073 0.00180
 O256 O 0.94531 0.46675 -0.00001
 O257 O 1.05104 0.46639 0.00181
 O258 O 0.94502 0.53121 0.00005
 H259 H 0.99655 0.54783 0.07240
 H260 H 0.92335 0.45073 -0.00031
 H261 H 1.00026 0.54769 -0.07057
 H262 H 1.07301 0.45031 0.00216
 H263 H 0.88389 0.50582 0.02638
 H264 H 0.88492 0.51545 -0.03210
 H265 H 0.96878 0.48029 -0.10890
 H266 H 1.03314 0.47858 -0.10795
 H267 H 1.11280 0.50576 -0.02510
 H268 H 1.11171 0.51284 0.03353
 H269 H 1.06228 0.49991 0.11160
 H270 H 0.96704 0.47991 0.10924
 O271 O 0.56641 1.05180 0.56141
 O272 O 0.53011 1.09253 0.53105
 C273 C 0.55626 1.08493 0.55306
 O274 O 0.56352 0.94899 0.43667
 O275 O 0.53025 0.90820 0.47008
 C276 C 0.55427 0.91585 0.44583
 O277 O 0.56690 1.05171 0.44018
 O278 O 0.53043 1.09249 0.47039
 C279 C 0.55683 1.08485 0.44856
 O280 O 0.56337 0.94890 0.56450
 O281 O 0.53004 0.90815 0.53117
 C282 C 0.55413 0.91578 0.55529
 Zr283 Zr 0.54487 1.00029 0.54516
 O284 O 0.60282 0.99672 0.54740
 O285 O 0.54045 1.00181 0.60074
 Zr286 Zr 0.54495 1.00033 0.45612
 O287 O 0.60287 0.99676 0.45331
 O288 O 0.54018 1.00204 0.40059
 O289 O 0.55221 1.03314 0.50067
 O290 O 0.55159 0.96837 0.50062
 O291 O 0.43415 0.94932 0.56521
 O292 O 0.46801 0.90849 0.53230
 C293 C 0.44387 0.91617 0.55644
 O294 O 0.43011 1.05188 0.44100
 O295 O 0.46723 1.09254 0.47039
 C296 C 0.44063 1.08499 0.44889
 O297 O 0.43327 0.94909 0.43744
 O298 O 0.46709 0.90823 0.47023
 C299 C 0.44271 0.91592 0.44639
 O300 O 0.43143 1.05221 0.56194
 O301 O 0.46739 1.09274 0.53096
 C302 C 0.44146 1.08529 0.55331
 Zr303 Zr 0.45237 1.00056 0.54519
 O304 O 0.39434 0.99721 0.54543
 O305 O 0.45320 1.00384 0.60094
 Zr306 Zr 0.45268 1.00050 0.45602
 O307 O 0.39495 0.99909 0.45088
 O308 O 0.45717 1.00388 0.40037
 Zr309 Zr 0.49876 1.05550 0.50070
 Zr310 Zr 0.49863 0.94523 0.50063
 O311 O 0.44570 0.96855 0.50068
 O312 O 0.44523 1.03332 0.50063
 O313 O 0.49863 0.96743 0.55199
 O314 O 0.49886 1.03271 0.44966
 O315 O 0.49869 1.03251 0.55166
 O316 O 0.49882 0.96726 0.44920
 H317 H 0.57351 0.95224 0.50059
 H318 H 0.49886 1.04947 0.42905
 H319 H 0.42401 0.95216 0.50100
 H320 H 0.49872 1.04900 0.57247
 H321 H 0.56561 1.00231 0.39130
 H322 H 0.46977 0.98136 0.39205
 H323 H 0.38480 0.99597 0.47485
 H324 H 0.38487 1.01782 0.53103
 H325 H 0.47112 0.98540 0.60943
 H326 H 0.56594 1.00203 0.60981
 H327 H 0.61273 1.01494 0.53056
 H328 H 0.61283 1.01372 0.47126
 O329 O 1.06341 0.93291 0.45163
 O330 O 1.03135 0.96906 0.41279
 C331 C 1.05389 0.94267 0.41997
 O332 O 0.93400 0.93955 0.55105
 O333 O 0.96995 0.97191 0.58968
 C334 C 0.94376 0.94918 0.58265
 O335 O 0.93894 0.93414 0.45211
 O336 O 0.97133 0.96970 0.41300
 C337 C 0.94836 0.94379 0.42037
 O338 O 1.06929 0.93894 0.55063
 O339 O 1.03365 0.97159 0.58952
 C340 C 1.05975 0.94873 0.58229
 Zr341 Zr 1.04759 0.95450 0.50112
 O342 O 1.04372 0.89665 0.50401
 O343 O 1.10543 0.95158 0.49666
 Zr344 Zr 0.95500 0.95565 0.50144
 O345 O 0.95407 0.89767 0.50542
 O346 O 0.89708 0.95633 0.49704
 O347 O 1.00120 0.94784 0.46998
 O348 O 1.00136 0.94833 0.53213
 O349 O 1.06957 1.06370 0.55031
 O350 O 1.03316 1.03223 0.58933
 C351 C 1.05955 1.05463 0.58202
 O352 O 0.94007 1.06974 0.45160
 O353 O 0.97200 1.03339 0.41279
 C354 C 0.94954 1.05985 0.41995
 O355 O 0.93494 1.06470 0.55075
 O356 O 0.97043 1.03196 0.58959
 C357 C 0.94451 1.05502 0.58242
 O358 O 1.06472 1.06823 0.45117
 O359 O 1.03191 1.03264 0.41258
 C360 C 1.05498 1.05853 0.41958
 Zr361 Zr 1.04857 1.04731 0.50082
 O362 O 1.04987 1.10528 0.50520
 O363 O 1.10648 1.04652 0.49601
 Zr364 Zr 0.95583 1.04830 0.50114
 O365 O 0.95562 1.10626 0.50572
 O366 O 0.89793 1.04888 0.49652
 Zr367 Zr 1.00170 1.00131 0.44876
 Zr368 Zr 1.00192 1.00161 0.55351
 O369 O 1.00230 1.05474 0.53159
 O370 O 1.00222 1.05500 0.46970
 O371 O 1.05544 1.00097 0.53225
 O372 O 0.94856 1.00194 0.47054
 O373 O 1.05487 1.00072 0.47025
 O374 O 0.94827 1.00213 0.53267
 H375 H 1.00128 0.92705 0.54845
 H376 H 0.92721 1.00211 0.45437
 H377 H 1.00239 1.07627 0.54759
 H378 H 1.07623 1.00038 0.45404
 H379 H 0.88738 0.97125 0.51677
 H380 H 0.88791 1.03392 0.51606
 H381 H 0.97170 1.11605 0.48691
 H382 H 1.03408 1.11536 0.48633
 H383 H 1.11631 1.03237 0.51618
 H384 H 1.11568 0.96993 0.51314
 H385 H 1.06929 0.88734 0.50385
 H386 H 0.97402 0.88823 0.49016
 O387 O 0.43377 0.43878 -0.04881
 O388 O 0.46903 0.47115 -0.08820
 C389 C 0.44308 0.44827 -0.08063
 O390 O 0.43931 0.56846 0.05025
 O391 O 0.47222 0.53282 0.08883
 C392 C 0.44909 0.55878 0.08183
 O393 O 0.43358 0.56384 -0.04873
 O394 O 0.46881 0.53132 -0.08808
 C395 C 0.44293 0.55433 -0.08053
 O396 O 0.43977 0.43357 0.05008
 O397 O 0.47245 0.46921 0.08878
 C398 C 0.44943 0.44322 0.08171
 Zr399 Zr 0.45568 0.45468 0.00053
 O400 O 0.39783 0.45217 0.00519
 O401 O 0.45938 0.39678 -0.00196
 Zr402 Zr 0.45513 0.54742 0.00058
 O403 O 0.39725 0.54731 0.00578
 O404 O 0.45439 0.60540 -0.00384
 O405 O 0.44776 0.50106 -0.03068
 O406 O 0.44888 0.50099 0.03133
 O407 O 0.56498 0.43369 0.04863
 O408 O 0.53309 0.46950 0.08802
 C409 C 0.55606 0.44353 0.08046
 O410 O 0.56881 0.56420 -0.04971
 O411 O 0.53248 0.53227 -0.08821
 C412 C 0.55871 0.55495 -0.08126
 O413 O 0.56517 0.56814 0.04883
 O414 O 0.53266 0.53305 0.08815
 C415 C 0.55599 0.55861 0.08062
 O416 O 0.56876 0.43899 -0.05051
 O417 O 0.53257 0.47148 -0.08896
 C418 C 0.55884 0.44873 -0.08206
 Zr419 Zr 0.54804 0.45488 -0.00063
 O420 O 0.60601 0.45426 0.00319
 O421 O 0.54787 0.39688 -0.00460
 Zr422 Zr 0.54769 0.54769 -0.00042
 O423 O 0.60563 0.54892 0.00332
 O424 O 0.54654 0.60569 -0.00478
 Zr425 Zr 0.50104 0.50124 -0.05251
 Zr426 Zr 0.50220 0.50116 0.05250
 O427 O 0.55505 0.50123 0.03005
 O428 O 0.55480 0.50136 -0.03194
 O429 O 0.50220 0.44763 0.03140
 O430 O 0.50106 0.55439 -0.03066
 O431 O 0.50150 0.44801 -0.03095
 O432 O 0.50173 0.55481 0.03149
 H433 H 0.42757 0.50087 0.04761
 H434 H 0.50081 0.57587 -0.04672
 H435 H 0.57674 0.50118 0.04579
 H436 H 0.50142 0.42667 -0.04720
 H437 H 0.47046 0.61528 0.01489
 H438 H 0.53320 0.61539 0.01599
 H439 H 0.61543 0.53208 -0.01488
 H440 H 0.61573 0.46986 -0.01602
 H441 H 0.52915 0.38772 0.01216
 H442 H 0.43378 0.38762 -0.00171
 H443 H 0.38756 0.47018 -0.01165
 H444 H 0.38721 0.53259 -0.01390
 C445 C 0.28089 1.21390 0.17911
 C446 C 0.27857 1.17647 0.17132
 C447 C 0.30382 1.15890 0.14583
 N448 N 0.29981 1.12290 0.13713
 N449 N 0.32431 1.10613 0.11640
 C450 C 0.35391 1.12472 0.10384
 N451 N 0.35780 1.16069 0.11243
 N452 N 0.33323 1.17747 0.13291
 C453 C 0.38312 1.10633 0.08344
 C454 C 0.37960 1.07142 0.06853
 H455 H 0.26008 1.15912 0.18627
 H456 H 0.40877 1.12101 0.08030
 H457 H 0.29878 1.23085 0.16322
 H458 H 0.35332 1.05755 0.06902
 C459 C 0.78304 0.71796 0.67949
 C460 C 0.78058 0.68089 0.67036
 C461 C 0.80674 0.66387 0.64538
 N462 N 0.80236 0.62841 0.63506
 N463 N 0.82748 0.61199 0.61477
 C464 C 0.85809 0.63036 0.60432
 N465 N 0.86238 0.66580 0.61458
 N466 N 0.83718 0.68226 0.63461
 C467 C 0.88759 0.61211 0.58419
 C468 C 0.88330 0.57810 0.56771
 H469 H 0.76123 0.66329 0.68397
 H470 H 0.91381 0.62602 0.58247
 H471 H 0.80194 0.73513 0.66496
 H472 H 0.85652 0.56522 0.56712
 C473 C 0.72276 0.78878 0.17788
 C474 C 0.72334 0.82641 0.17070
 C475 C 0.69681 0.84350 0.14622
 N476 N 0.69953 0.87971 0.13788
 N477 N 0.67382 0.89610 0.11834
 C478 C 0.64421 0.87693 0.10672
 N479 N 0.64159 0.84076 0.11498
 N480 N 0.66738 0.82434 0.13425
 C481 C 0.61400 0.89485 0.08738
 C482 C 0.61674 0.92963 0.07205
 H483 H 0.74114 0.84427 0.18580
 H484 H 0.58857 0.87968 0.08478
 H485 H 0.70574 0.77124 0.16172
 H486 H 0.64285 0.94383 0.07190
 C487 C 1.21632 0.28708 0.68194
 C488 C 1.21845 0.32437 0.67347
 C489 C 1.19166 0.34183 0.64944
 N490 N 1.19604 0.37732 0.63910
 N491 N 1.17055 0.39401 0.61951
 C492 C 1.13953 0.37591 0.60983
 N493 N 1.13521 0.34049 0.62016
 N494 N 1.16077 0.32376 0.63947
 C495 C 1.10979 0.39425 0.59013
 C496 C 1.11406 0.42774 0.57263
 H497 H 1.23818 0.34171 0.68682
 H498 H 1.08353 0.38038 0.58895
 H499 H 1.19700 0.27023 0.66764
 H500 H 1.14088 0.44049 0.57136
 C501 C 0.71338 1.21729 -0.18162
 C502 C 0.71647 1.18051 -0.17159
 C503 C 0.68896 1.16295 -0.14843
 N504 N 0.69415 1.12806 -0.13669
 N505 N 0.66820 1.11107 -0.11793
 C506 C 0.63591 1.12820 -0.11054
 N507 N 0.63076 1.16304 -0.12228
 N508 N 0.65678 1.18010 -0.14078
 C509 C 0.60600 1.10933 -0.09156
 C510 C 0.61115 1.07659 -0.07307
 H511 H 0.73761 1.16342 -0.18326
 H512 H 0.57910 1.12206 -0.09171
 H513 H 0.69256 1.23401 -0.16909
 H514 H 0.63850 1.06513 -0.07072
 C515 C 1.21927 0.71458 0.31960
 C516 C 1.21986 0.67690 0.32638
 C517 C 1.19333 0.65980 0.35082
 N518 N 1.19655 0.62377 0.35967
 N519 N 1.17093 0.60738 0.37933
 C520 C 1.14093 0.62635 0.39051
 N521 N 1.13776 0.66233 0.38169
 N522 N 1.16348 0.67876 0.36232
 C523 C 1.11097 0.60832 0.41008
 C524 C 1.11482 0.57425 0.42652
 H525 H 1.23770 0.65911 0.31113
 H526 H 1.08500 0.62274 0.41198
 H527 H 1.20231 0.73193 0.33608
 H528 H 1.14146 0.56102 0.42729
 C529 C 0.28005 0.78005 -0.17822
 C530 C 0.27877 0.81709 -0.16881
 C531 C 0.30630 0.83356 -0.14505
 N532 N 0.30242 0.86885 -0.13403
 N533 N 0.32863 0.88502 -0.11505
 C534 C 0.35993 0.86663 -0.10670
 N535 N 0.36379 0.83135 -0.11770
 N536 N 0.33748 0.81510 -0.13643
 C537 C 0.39020 0.88480 -0.08764
 C538 C 0.38562 0.91822 -0.07015
 H539 H 0.25935 0.83521 -0.18167
 H540 H 0.41675 0.87137 -0.08726
 H541 H 0.29883 0.76210 -0.16437
 H542 H 0.35850 0.93032 -0.06844
 C543 C 0.78109 0.28513 0.31920
 C544 C 0.78133 0.32299 0.32507
 C545 C 0.80719 0.33998 0.35021
 N546 N 0.80411 0.37611 0.35874
 N547 N 0.82905 0.39226 0.37930
 C548 C 0.85823 0.37293 0.39178
 N549 N 0.86127 0.33686 0.38325
 N550 N 0.83621 0.32067 0.36298
 C551 C 0.88766 0.39073 0.41225
 C552 C 0.88364 0.42499 0.42833
 H553 H 0.76434 0.34081 0.30904
 H554 H 0.91348 0.37617 0.41479
 H555 H 0.79712 0.26781 0.33650
 H556 H 0.85707 0.43839 0.42839
 C557 C 1.21623 0.28255 0.17909
 C558 C 1.17931 0.27879 0.16997
 C559 C 1.16095 0.30543 0.14651
 N560 N 1.17804 0.33699 0.13680
 N561 N 1.16030 0.36257 0.11835
 C562 C 1.12482 0.35758 0.10872
 N563 N 1.10773 0.32586 0.11808
 N564 N 1.12544 0.30034 0.13678
 C565 C 1.10536 0.38731 0.09014
 C566 C 1.07138 0.38275 0.07382
 H567 H 1.16265 0.25815 0.18291
 H568 H 1.11877 0.41383 0.08880
 H569 H 1.23261 0.30277 0.16535
 H570 H 1.05900 0.35575 0.07252
 C571 C 0.71547 0.78391 0.68056
 C572 C 0.67819 0.78137 0.67244
 C573 C 0.66029 0.80782 0.64840
 N574 N 0.62470 0.80316 0.63872
 N575 N 0.60752 0.82849 0.61931
 C576 C 0.62523 0.85961 0.60917
 N577 N 0.66077 0.86420 0.61881
 N578 N 0.67799 0.83880 0.63795
 C579 C 0.60632 0.88923 0.58983
 C580 C 0.57251 0.88475 0.57311
 H581 H 0.66112 0.76172 0.68627
 H582 H 0.61997 0.91562 0.58834
 H583 H 0.73221 0.80296 0.66572
 H584 H 0.55995 0.85782 0.57199
 C585 C 1.20609 0.72019 -0.18089
 C586 C 1.20679 0.68291 -0.17206
 C587 C 1.18430 0.66513 -0.14465
 N588 N 1.19328 0.63048 -0.13492
 N589 N 1.17218 0.61171 -0.11273
 C590 C 1.14096 0.62658 -0.09948
 N591 N 1.13183 0.66152 -0.10890
 N592 N 1.15322 0.68053 -0.13111
 C593 C 1.11746 0.60295 -0.07741
 C594 C 1.08260 0.61164 -0.06424
 H595 H 1.22462 0.66467 -0.18677
 H596 H 1.12790 0.57542 -0.07303
 H597 H 1.18876 0.73895 -0.16623
 H598 H 1.07194 0.63935 -0.06607
 C599 C 0.71733 1.21608 0.32179
 C600 C 0.68047 1.21924 0.33148
 C601 C 0.66315 1.19291 0.35603
 N602 N 0.62774 1.19762 0.36639
 N603 N 0.61094 1.17232 0.38612
 C604 C 0.62886 1.14119 0.39596
 N605 N 0.66425 1.13657 0.38570
 N606 N 0.68109 1.16193 0.36621
 C607 C 0.61018 1.11155 0.41550
 C608 C 0.57604 1.11594 0.43172
 H609 H 0.66312 1.23919 0.31837
 H610 H 0.62392 1.08517 0.41704
 H611 H 0.73430 1.19652 0.33573
 H612 H 0.56330 1.14283 0.43249
 C613 C 0.79199 0.72384 0.17987
 C614 C 0.78871 0.68707 0.16985
 C615 C 0.81166 0.66838 0.14330
 N616 N 0.80200 0.63402 0.13325
 N617 N 0.82341 0.61451 0.11187
 C618 C 0.85555 0.62835 0.09975
 N619 N 0.86534 0.66299 0.10947
 N620 N 0.84369 0.68271 0.13088
 C621 C 0.87931 0.60399 0.07863
 C622 C 0.91436 0.61227 0.06574
 H623 H 0.76898 0.66986 0.18336
 H624 H 0.86875 0.57650 0.07446
 H625 H 0.81137 0.74150 0.16642
 H626 H 0.92507 0.63995 0.06733
 C627 C 0.28488 1.22216 0.67973
 C628 C 0.32247 1.22201 0.67255
 C629 C 0.33891 1.19550 0.64759
 N630 N 0.37484 1.19828 0.63837
 N631 N 0.39069 1.17266 0.61827
 C632 C 0.37128 1.14305 0.60695
 N633 N 0.33538 1.14031 0.61614
 N634 N 0.31948 1.16606 0.63596
 C635 C 0.38887 1.11300 0.58698
 C636 C 0.42301 1.11659 0.57062
 H637 H 0.34068 1.23930 0.68781
 H638 H 0.37431 1.08714 0.58505
 H639 H 0.26707 1.20583 0.66321
 H640 H 0.43638 1.14316 0.57007
 C641 C 0.78419 0.28007 -0.18005
 C642 C 0.82175 0.27894 -0.17283
 C643 C 0.83905 0.30535 -0.14840
 N644 N 0.87492 0.30158 -0.13930
 N645 N 0.89158 0.32705 -0.11971
 C646 C 0.87307 0.35747 -0.10882
 N647 N 0.83725 0.36117 -0.11787
 N648 N 0.82054 0.33561 -0.13718
 C649 C 0.89143 0.38728 -0.08930
 C650 C 0.92538 0.38313 -0.07275
 H651 H 0.83940 0.26067 -0.18775
 H652 H 0.87731 0.41344 -0.08750
 H653 H 0.76692 0.29744 -0.16390
 H654 H 0.93832 0.35633 -0.07187
 C655 C 0.28336 0.78389 0.31892
 C656 C 0.32037 0.78104 0.32811
 C657 C 0.33787 0.80774 0.35219
 N658 N 0.37316 0.80288 0.36282
 N659 N 0.38999 0.82830 0.38235
 C660 C 0.37225 0.85972 0.39169
 N661 N 0.33702 0.86452 0.38109
 N662 N 0.32014 0.83903 0.36183
 C663 C 0.39085 0.88941 0.41122
 C664 C 0.42434 0.88489 0.42858
 H665 H 0.33759 0.76082 0.31519
 H666 H 0.37728 0.91590 0.41224
 H667 H 0.26657 0.80375 0.33272
 H668 H 0.43680 0.85790 0.43000
 C669 C 1.19959 1.20359 0.29829
 C670 C 1.17099 1.18095 0.28778
 C671 C 1.14839 1.16327 0.31486
 N672 N 1.12640 1.13444 0.30683
 N673 N 1.10755 1.11743 0.33218
 C674 C 1.11000 1.12888 0.36624
 N675 N 1.13140 1.15805 0.37405
 N676 N 1.15023 1.17491 0.34884
 C677 C 1.09142 1.10975 0.39493
 C678 C 1.07102 1.07810 0.38966
 H679 H 1.16576 1.17568 0.26013
 H680 H 1.09500 1.12050 0.42136
 H681 H 1.20496 1.20692 0.32614
 H682 H 1.06651 1.06766 0.36325
 C683 C 0.70320 0.70146 -0.20134
 C684 C 0.68119 0.67244 -0.21207
 C685 C 0.66327 0.64978 -0.18517
 N686 N 0.63495 0.62727 -0.19357
 N687 N 0.61786 0.60817 -0.16843
 C688 C 0.62874 0.61087 -0.13423
 N689 N 0.65738 0.63281 -0.12606
 N690 N 0.67430 0.65189 -0.15105
 C691 C 0.60962 0.59191 -0.10576
 C692 C 0.57818 0.57123 -0.11117
 H693 H 0.67676 0.66678 -0.23978
 H694 H 0.62020 0.59553 -0.07928
 H695 H 0.70579 0.70720 -0.17348
 H696 H 0.56779 0.56681 -0.13759
 C697 C 0.79563 1.19836 0.70115
 C698 C 0.81794 1.16965 0.71222
 C699 C 0.83642 1.14705 0.68558
 N700 N 0.86558 1.12565 0.69414
 N701 N 0.88340 1.10698 0.66915
 C702 C 0.87247 1.10903 0.63492
 N703 N 0.84295 1.12980 0.62660
 N704 N 0.82529 1.14846 0.65145
 C705 C 0.89244 1.09071 0.60657
 C706 C 0.92453 1.07103 0.61217
 H707 H 0.82255 1.16447 0.73999
 H708 H 0.88186 1.09387 0.58003
 H709 H 0.79320 1.20391 0.67323
 H710 H 0.93483 1.06684 0.63867
 C711 C 0.29972 0.70324 0.20014
 C712 C 0.32755 0.67971 0.21094
 C713 C 0.35081 0.66201 0.18433
 N714 N 0.37348 0.63386 0.19308
 N715 N 0.39347 0.61716 0.16831
 C716 C 0.39151 0.62826 0.13412
 N717 N 0.36931 0.65669 0.12558
 N718 N 0.34936 0.67324 0.15022
 C719 C 0.41143 0.60951 0.10597
 C720 C 0.43270 0.57840 0.11166
 H721 H 0.33206 0.67409 0.23866
 H722 H 0.40793 0.61999 0.07943
 H723 H 0.29519 0.70759 0.17224
 H724 H 0.43713 0.56816 0.13815
 C725 C 1.20409 0.80257 0.70149
 C726 C 1.18300 0.83228 0.71238
 C727 C 1.16584 0.85572 0.68570
 N728 N 1.13709 0.87777 0.69408
 N729 N 1.12015 0.89705 0.66903
 C730 C 1.13159 0.89501 0.63492
 N731 N 1.16078 0.87364 0.62680
 N732 N 1.17756 0.85434 0.65172
 C733 C 1.11219 0.91370 0.60649
 C734 C 1.07990 0.93310 0.61203
 H735 H 1.17815 0.83756 0.74011
 H736 H 1.12303 0.91068 0.58001
 H737 H 1.20680 0.79698 0.67359
 H738 H 1.06935 0.93709 0.63849
 C739 C 0.69849 0.29223 0.20053
 C740 C 0.67491 0.32048 0.21032
 C741 C 0.65323 0.33935 0.18322
 N742 N 0.63178 0.36859 0.19158
 N743 N 0.61290 0.38603 0.16655
 C744 C 0.61487 0.37473 0.13241
 N745 N 0.63608 0.34544 0.12419
 N746 N 0.65487 0.32809 0.14911
 C747 C 0.59555 0.39384 0.10410
 C748 C 0.57327 0.42421 0.11000
 H749 H 0.67279 0.32907 0.23760
 H750 H 0.59960 0.38376 0.07748
 H751 H 0.70054 0.28450 0.17303
 H752 H 0.56839 0.43397 0.13660
 C753 C 0.79979 0.80263 0.29892
 C754 C 0.82971 0.82385 0.28905
 C755 C 0.85160 0.84172 0.31645
 N756 N 0.87653 0.86796 0.30813
 N757 N 0.89540 0.88476 0.33353
 C758 C 0.89002 0.87565 0.36794
 N759 N 0.86556 0.84910 0.37610
 N760 N 0.84671 0.83247 0.35083
 C761 C 0.90903 0.89443 0.39649
 C762 C 0.93194 0.92421 0.39071
 H763 H 0.83695 0.82738 0.26154
 H764 H 0.90363 0.88511 0.42315
 H765 H 0.79283 0.80041 0.32657
 H766 H 0.93770 0.93351 0.36413
 C767 C 0.29798 0.30133 -0.19996
 C768 C 0.31960 0.33082 -0.21033
 C769 C 0.33792 0.35294 -0.18330
 N770 N 0.36508 0.37674 -0.19200
 N771 N 0.38247 0.39555 -0.16691
 C772 C 0.37307 0.39126 -0.13243
 N773 N 0.34560 0.36796 -0.12390
 N774 N 0.32837 0.34916 -0.14887
 C775 C 0.39254 0.41007 -0.10411
 C776 C 0.42300 0.43205 -0.11013
 H777 H 0.32342 0.33730 -0.23798
 H778 H 0.38310 0.40532 -0.07737
 H779 H 0.29578 0.29485 -0.17220
 H780 H 0.43233 0.43736 -0.13680
 C781 C 1.21519 0.28085 -0.17797
 C782 C 1.17783 0.27882 -0.17004
 C783 C 1.16036 0.30493 -0.14538
 N784 N 1.17870 0.33513 -0.13397
 N785 N 1.16184 0.36049 -0.11445
 C786 C 1.12603 0.35660 -0.10539
 N787 N 1.10769 0.32622 -0.11645
 N788 N 1.12451 0.30095 -0.13623
 C789 C 1.10747 0.38628 -0.08583
 C790 C 1.07316 0.38220 -0.06994
 H791 H 1.16039 0.26015 -0.18463
 H792 H 1.12160 0.41237 -0.08371
 H793 H 1.23230 0.29879 -0.16231
 H794 H 1.06008 0.35549 -0.06942
 C795 C 0.71479 0.78517 0.31800
 C796 C 0.67724 0.78318 0.32522
 C797 C 0.65938 0.80915 0.34987
 N798 N 0.62364 0.80471 0.35925
 N799 N 0.60668 0.82962 0.37939
 C800 C 0.62478 0.86009 0.39060
 N801 N 0.66046 0.86447 0.38123
 N802 N 0.67745 0.83947 0.36138
 C803 C 0.60618 0.88942 0.41068
 C804 C 0.57247 0.88487 0.42768
 H805 H 0.66012 0.76433 0.31050
 H806 H 0.62000 0.91570 0.41247
 H807 H 0.73133 0.80348 0.33377
 H808 H 0.55978 0.85799 0.42858
 C809 C 0.78648 0.71970 -0.18010
 C810 C 0.82401 0.71989 -0.17275
 C811 C 0.84047 0.69325 -0.14795
 N812 N 0.87621 0.69638 -0.13825
 N813 N 0.89201 0.67082 -0.11807
 C814 C 0.87273 0.64094 -0.10714
 N815 N 0.83704 0.63785 -0.11683
 N816 N 0.82119 0.66352 -0.13673
 C817 C 0.89022 0.61100 -0.08701
 C818 C 0.92400 0.61478 -0.07010
 H819 H 0.84212 0.73779 -0.18752
 H820 H 0.87581 0.58503 -0.08536
 H821 H 0.76881 0.70260 -0.16412
 H822 H 0.93721 0.64141 -0.06930
 C823 C 0.28420 1.21802 0.31955
 C824 C 0.32131 1.21978 0.32843
 C825 C 0.33781 1.19348 0.35351
 N826 N 0.37329 1.19729 0.36381
 N827 N 0.38919 1.17202 0.38425
 C828 C 0.37025 1.14181 0.39489
 N829 N 0.33480 1.13807 0.38465
 N830 N 0.31887 1.16343 0.36446
 C831 C 0.38792 1.11215 0.41523
 C832 C 0.42184 1.11618 0.43179
 H833 H 0.33922 1.23868 0.31462
 H834 H 0.37370 1.08609 0.41701
 H835 H 0.26674 1.19957 0.33430
 H836 H 0.43497 1.14286 0.43229
 C837 C 1.21489 0.71721 0.17937
 C838 C 1.17768 0.71909 0.17075
 C839 C 1.16042 0.69215 0.14675
 N840 N 1.12494 0.69644 0.13655
 N841 N 1.10828 0.67078 0.11718
 C842 C 1.12640 0.63966 0.10756
 N843 N 1.16185 0.63543 0.11773
 N844 N 1.17856 0.66117 0.13685
 C845 C 1.10791 0.60974 0.08822
 C846 C 1.07409 0.61401 0.07142
 H847 H 1.16013 0.73871 0.18413
 H848 H 1.12166 0.58335 0.08705
 H849 H 1.23210 0.69810 0.16505
 H850 H 1.06145 0.64094 0.07025
 C851 C 0.71370 1.22103 0.67827
 C852 C 0.67607 1.22097 0.67145
 C853 C 0.65949 1.19457 0.64656
 N854 N 0.62351 1.19748 0.63766
 N855 N 0.60754 1.17196 0.61763
 C856 C 0.62687 1.14232 0.60608
 N857 N 0.66283 1.13946 0.61496
 N858 N 0.67885 1.16511 0.63471
 C859 C 0.60915 1.11238 0.58620
 C860 C 0.57488 1.11613 0.57023
 H861 H 0.65794 1.23827 0.68690
 H862 H 0.62369 1.08648 0.58407
 H863 H 0.73137 1.20474 0.66150
 H864 H 0.56152 1.14273 0.56989
 C865 C 0.78272 0.27793 0.17886
 C866 C 0.81990 0.27621 0.17004
 C867 C 0.83695 0.30326 0.14607
 N868 N 0.87256 0.29938 0.13606
 N869 N 0.88916 0.32534 0.11698
 C870 C 0.87084 0.35636 0.10752
 N871 N 0.83524 0.36018 0.11747
 N872 N 0.81860 0.33413 0.13629
 C873 C 0.88922 0.38655 0.08852
 C874 C 0.92315 0.38256 0.07181
 H875 H 0.83766 0.25697 0.18361
 H876 H 0.87526 0.41282 0.08737
 H877 H 0.76517 0.29650 0.16431
 H878 H 0.93596 0.35572 0.07050
 C879 C 0.28654 0.77867 0.68148
 C880 C 0.32455 0.78059 0.67704
 C881 C 0.34157 0.80685 0.65218
 N882 N 0.37798 0.80469 0.64461
 N883 N 0.39412 0.83006 0.62445
 C884 C 0.37451 0.85883 0.61146
 N885 N 0.33816 0.86098 0.61907
 N886 N 0.32198 0.83545 0.63891
 C887 C 0.39216 0.88866 0.59126
 C888 C 0.42642 0.88511 0.57506
 H889 H 0.34239 0.76473 0.69408
 H890 H 0.37719 0.91425 0.58853
 H891 H 0.26929 0.79330 0.66302
 H892 H 0.44015 0.85869 0.57497
 C893 C 0.28360 1.21599 -0.17999
 C894 C 0.27947 1.17913 -0.17052
 C895 C 0.30504 1.16104 -0.14572
 N896 N 0.29990 1.12544 -0.13608
 N897 N 0.32445 1.10816 -0.11586
 C898 C 0.35519 1.12582 -0.10475
 N899 N 0.36019 1.16139 -0.11429
 N900 N 0.33560 1.17868 -0.13428
 C901 C 0.38429 1.10683 -0.08480
 C902 C 0.38029 1.07211 -0.06957
 H903 H 0.25903 1.16243 -0.18363
 H904 H 0.41030 1.12098 -0.08223
 H905 H 0.30387 1.23226 -0.16628
 H906 H 0.35377 1.05870 -0.06963
 C907 C 0.78205 0.71892 0.31985
 C908 C 0.78054 0.68149 0.32781
 C909 C 0.80662 0.66432 0.35271
 N910 N 0.80271 0.62852 0.36214
 N911 N 0.82787 0.61194 0.38219
 C912 C 0.85810 0.63048 0.39327
 N913 N 0.86193 0.66626 0.38390
 N914 N 0.83667 0.68287 0.36411
 C915 C 0.88769 0.61210 0.41315
 C916 C 0.88357 0.57781 0.42918
 H917 H 0.76212 0.66379 0.31322
 H918 H 0.91377 0.62621 0.41520
 H919 H 0.79972 0.73631 0.33551
 H920 H 0.85687 0.56478 0.42959
 C921 C 0.72014 1.20612 0.18220
 C922 C 0.68285 1.20780 0.17385
 C923 C 0.66368 1.18398 0.14850
 N924 N 0.62797 1.19136 0.14163
 N925 N 0.60824 1.16912 0.12139
 C926 C 0.62326 1.13840 0.10725
 N927 N 0.65924 1.13089 0.11374
 N928 N 0.67915 1.15336 0.13408
 C929 C 0.59899 1.11385 0.08708
 C930 C 0.60892 1.08093 0.07055
 H931 H 0.66544 1.22676 0.18817
 H932 H 0.57056 1.12256 0.08576
 H933 H 0.73805 1.18744 0.16811
 H934 H 0.63736 1.07234 0.06941
 C935 C 1.21506 0.71705 0.67938
 C936 C 1.21858 0.68038 0.66906
 C937 C 1.19181 0.66283 0.64519
 N938 N 1.19683 0.62758 0.63440
 N939 N 1.17125 0.61048 0.61533
 C940 C 1.13953 0.62793 0.60662
 N941 N 1.13460 0.66317 0.61731
 N942 N 1.16023 0.68031 0.63615
 C943 C 1.10974 0.60899 0.58764
 C944 C 1.11422 0.57518 0.57077
 H945 H 1.23922 0.66318 0.68132
 H946 H 1.08325 0.62252 0.58665
 H947 H 1.19476 0.73400 0.66639
 H948 H 1.14119 0.56271 0.56932
 C949 C 0.71945 0.78605 -0.17939
 C950 C 0.72212 0.82326 -0.17075
 C951 C 0.69566 0.84096 -0.14655
 N952 N 0.69963 0.87685 -0.13742
 N953 N 0.67412 0.89384 -0.11802
 C954 C 0.64352 0.87561 -0.10734
 N955 N 0.63967 0.83976 -0.11637
 N956 N 0.66523 0.82275 -0.13551
 C957 C 0.61356 0.89418 -0.08818
 C958 C 0.61688 0.92875 -0.07254
 H959 H 0.74170 0.84051 -0.18447
 H960 H 0.58772 0.87964 -0.08605
 H961 H 0.70029 0.76921 -0.16482
 H962 H 0.64328 0.94238 -0.07195
 C963 C 1.21974 0.28680 0.31909
 C964 C 1.22023 0.32451 0.32579
 C965 C 1.19350 0.34176 0.35004
 N966 N 1.19687 0.37770 0.35915
 N967 N 1.17120 0.39421 0.37872
 C968 C 1.14097 0.37545 0.38957
 N969 N 1.13764 0.33957 0.38045
 N970 N 1.16342 0.32302 0.36117
 C971 C 1.11098 0.39359 0.40912
 C972 C 1.11488 0.42742 0.42603
 H973 H 1.23828 0.34219 0.31071
 H974 H 1.08492 0.37937 0.41071
 H975 H 1.20254 0.26959 0.33542
 H976 H 1.14158 0.44042 0.42708
 C977 C 0.27779 0.78875 0.17909
 C978 C 0.31459 0.78554 0.16912
 C979 C 0.33324 0.80838 0.14257
 N980 N 0.36797 0.79922 0.13326
 N981 N 0.38752 0.82079 0.11212
 C982 C 0.37330 0.85260 0.09954
 N983 N 0.33827 0.86184 0.10847
 N984 N 0.31854 0.84004 0.12965
 C985 C 0.39753 0.87676 0.07884
 C986 C 0.38817 0.91121 0.06525
 H987 H 0.33204 0.76632 0.18299
 H988 H 0.42547 0.86708 0.07547
 H989 H 0.25997 0.80779 0.16540
 H990 H 0.36006 0.92086 0.06617
 C991 C 0.78408 0.28358 0.67976
 C992 C 0.78024 0.32008 0.66907
 C993 C 0.80677 0.33738 0.64470
 N994 N 0.80147 0.37237 0.63328
 N995 N 0.82670 0.38911 0.61343
 C996 C 0.85833 0.37153 0.60450
 N997 N 0.86354 0.33657 0.61584
 N998 N 0.83825 0.31979 0.63546
 C999 C 0.88783 0.39014 0.58475
 C1000 C 0.88320 0.42383 0.56772
 H1001 H 0.75922 0.33717 0.68094
 H1002 H 0.91437 0.37671 0.58376
 H1003 H 0.80488 0.26683 0.66722
 H1004 H 0.85622 0.43630 0.56651
 C1005 C 1.20232 1.20168 0.70208
 C1006 C 1.18170 1.17158 0.71262
 C1007 C 1.16413 1.14889 0.68565
 N1008 N 1.13631 1.12577 0.69405
 N1009 N 1.11936 1.10675 0.66884
 C1010 C 1.12990 1.11014 0.63457
 N1011 N 1.15813 1.13264 0.62639
 N1012 N 1.17490 1.15167 0.65146
 C1013 C 1.11076 1.09134 0.60610
 C1014 C 1.07926 1.07081 0.61172
 H1015 H 1.17806 1.16508 0.74028
 H1016 H 1.12122 1.09507 0.57956
 H1017 H 1.20401 1.20826 0.67431
 H1018 H 1.06894 1.06644 0.63821
 C1019 C 0.70491 0.70477 0.19864
 C1020 C 0.67641 0.68174 0.20879
 C1021 C 0.65586 0.66159 0.18184
 N1022 N 0.62951 0.63706 0.19101
 N1023 N 0.61117 0.61878 0.16619
 C1024 C 0.61859 0.62458 0.13148
 N1025 N 0.64475 0.64915 0.12242
 N1026 N 0.66304 0.66729 0.14713
 C1027 C 0.59939 0.60500 0.10352
 C1028 C 0.57346 0.57788 0.11001
 H1029 H 0.66921 0.67850 0.23634
 H1030 H 0.60659 0.61202 0.07660
 H1031 H 0.71196 0.70716 0.17099
 H1032 H 0.56622 0.57047 0.13681
 C1033 C 1.19822 0.79739 0.29834
 C1034 C 1.16861 0.81888 0.28803
 C1035 C 1.14618 0.83665 0.31524
 N1036 N 1.12364 0.86510 0.30717
 N1037 N 1.10500 0.88230 0.33258
 C1038 C 1.10821 0.87142 0.36676
 N1039 N 1.13014 0.84259 0.37462
 N1040 N 1.14877 0.82555 0.34933
 C1041 C 1.08993 0.89087 0.39548
 C1042 C 1.06958 0.92261 0.39012
 H1043 H 1.16248 0.82323 0.26040
 H1044 H 1.09383 0.88042 0.42199
 H1045 H 1.20445 0.79498 0.32613
 H1046 H 1.06491 0.93284 0.36367
 C1047 C 0.70229 0.30270 -0.20277
 C1048 C 0.68193 0.33293 -0.21357
 C1049 C 0.66458 0.35610 -0.18670
 N1050 N 0.63598 0.37839 -0.19489
 N1051 N 0.61899 0.39746 -0.16964
 C1052 C 0.63025 0.39494 -0.13554
 N1053 N 0.65929 0.37334 -0.12761
 N1054 N 0.67611 0.35427 -0.15272
 C1055 C 0.61093 0.41349 -0.10689
 C1056 C 0.57870 0.43308 -0.11206
 H1057 H 0.67809 0.33897 -0.24129
 H1058 H 0.62185 0.41025 -0.08050
 H1059 H 0.70391 0.29645 -0.17492
 H1060 H 0.56801 0.43723 -0.13842
 C1061 C 0.80226 1.20196 0.29962
 C1062 C 0.83242 1.18141 0.28897
 C1063 C 0.85579 1.16452 0.31585
 N1064 N 0.87847 1.13621 0.30764
 N1065 N 0.89785 1.11962 0.33284
 C1066 C 0.89529 1.13102 0.36691
 N1067 N 0.87328 1.15978 0.37488
 N1068 N 0.85388 1.17620 0.34981
 C1069 C 0.91415 1.11199 0.39548
 C1070 C 0.93389 1.07986 0.39013
 H1071 H 0.83831 1.17705 0.26128
 H1072 H 0.91089 1.12288 0.42191
 H1073 H 0.79628 1.20436 0.32748
 H1074 H 0.93798 1.06920 0.36372
 C1075 C 0.29101 0.69539 -0.20008
 C1076 C 0.31857 0.67120 -0.21017
 C1077 C 0.33697 0.64890 -0.18329
 N1078 N 0.36695 0.62848 -0.19150
 N1079 N 0.38435 0.60953 -0.16649
 C1080 C 0.37222 0.61036 -0.13256
 N1081 N 0.34207 0.63039 -0.12453
 N1082 N 0.32478 0.64928 -0.14943
 C1083 C 0.39159 0.59142 -0.10423
 C1084 C 0.42307 0.57079 -0.11006
 H1085 H 0.32726 0.66934 -0.23744
 H1086 H 0.38097 0.59460 -0.07768
 H1087 H 0.28352 0.69753 -0.17252
 H1088 H 0.43324 0.56651 -0.13662
 C1089 C 0.79897 0.80234 0.70165
 C1090 C 0.82131 0.83101 0.71259
 C1091 C 0.83897 0.85414 0.68593
 N1092 N 0.86747 0.87636 0.69443
 N1093 N 0.88438 0.89585 0.66947
 C1094 C 0.87314 0.89384 0.63534
 N1095 N 0.84430 0.87220 0.62707
 N1096 N 0.82754 0.85273 0.65189
 C1097 C 0.89222 0.91303 0.60700
 C1098 C 0.92395 0.93324 0.61250
 H1099 H 0.82618 0.83609 0.74034
 H1100 H 0.88151 0.90981 0.58053
 H1101 H 0.79585 0.79718 0.67372
 H1102 H 0.93441 0.93740 0.63893
 C1103 C 0.30122 0.29730 0.20004
 C1104 C 0.32941 0.32041 0.21073
 C1105 C 0.35184 0.33894 0.18398
 N1106 N 0.37529 0.36629 0.19296
 N1107 N 0.39462 0.38365 0.16815
 C1108 C 0.39118 0.37402 0.13365
 N1109 N 0.36814 0.34644 0.12485
 N1110 N 0.34884 0.32924 0.14953
 C1111 C 0.41068 0.39323 0.10553
 C1112 C 0.43301 0.42350 0.11146
 H1113 H 0.33472 0.32520 0.23845
 H1114 H 0.40616 0.38363 0.07883
 H1115 H 0.29582 0.29406 0.17218
 H1116 H 0.43823 0.43298 0.13807
   
