data_POSCAR
  _audit_creation_date              2014-09-24
  _audit_creation_method            'ToBaCCo'
  _symmetry_space_group_name_H-M    'P1'
  _symmetry_Int_Tables_number       1
  _symmetry_cell_setting            triclinic
  loop_
  _symmetry_equiv_pos_as_xyz
 x,y,z
_cell_length_a 44.1504
_cell_length_b 44.0186
_cell_length_c 44.0173
_cell_angle_alpha 90.004500
_cell_angle_beta 89.945900
_cell_angle_gamma 89.943400
loop_
  _atom_site_label
  _atom_site_type_symbol
  _atom_site_fract_x
  _atom_site_fract_y
  _atom_site_fract_z
C1 C 0.17584 1.21648 0.21595
 C2 C 0.16295 1.24224 0.20233
 C3 C 0.17600 1.25483 0.17616
 C4 C 0.20222 1.24192 0.16360
 C5 C 0.21539 1.21616 0.17694
 C6 C 0.20216 1.20332 0.20321
 C7 C 0.16250 1.20323 0.24167
 C8 C 0.17510 1.17701 0.25463
 C9 C 0.20131 1.16404 0.24213
 C10 C 0.21494 1.17701 0.21642
 C11 C 0.24071 1.16375 0.20326
 C12 C 0.25366 1.17641 0.17712
 C13 C 0.24116 1.20260 0.16408
 H14 H 0.14254 1.25221 0.21182
 H15 H 0.21209 1.25165 0.14322
 H16 H 0.14208 1.21303 0.25132
 H17 H 0.21084 1.14363 0.25214
 H18 H 0.25044 1.14334 0.21304
 H19 H 0.25124 1.21210 0.14371
 C20 C 0.82459 0.78363 0.21617
 C21 C 0.83783 0.75792 0.20276
 C22 C 0.82509 0.74504 0.17660
 C23 C 0.79882 0.75760 0.16385
 C24 C 0.78530 0.78330 0.17697
 C25 C 0.79823 0.79643 0.20323
 C26 C 0.83763 0.79716 0.24187
 C27 C 0.82469 0.82332 0.25462
 C28 C 0.79842 0.83595 0.24193
 C29 C 0.78510 0.82270 0.21623
 C30 C 0.75928 0.83562 0.20287
 C31 C 0.74663 0.82266 0.17674
 C32 C 0.75948 0.79653 0.16392
 H33 H 0.85828 0.74821 0.21240
 H34 H 0.78919 0.74766 0.14347
 H35 H 0.85808 0.78762 0.25167
 H36 H 0.78863 0.85633 0.25178
 H37 H 0.74929 0.85599 0.21249
 H38 H 0.74964 0.78681 0.14355
 C39 C 0.82300 1.21573 -0.21616
 C40 C 0.83615 1.24146 -0.20278
 C41 C 0.82343 1.25423 -0.17654
 C42 C 0.79732 1.24157 -0.16365
 C43 C 0.78387 1.21585 -0.17672
 C44 C 0.79675 1.20281 -0.20309
 C45 C 0.83600 1.20229 -0.24197
 C46 C 0.82314 1.17611 -0.25469
 C47 C 0.79699 1.16337 -0.24186
 C48 C 0.78371 1.17653 -0.21605
 C49 C 0.75802 1.16350 -0.20256
 C50 C 0.74541 1.17637 -0.17633
 C51 C 0.75818 1.20252 -0.16354
 H52 H 0.85650 1.25130 -0.21245
 H53 H 0.78778 1.25150 -0.14320
 H54 H 0.85636 1.21192 -0.25188
 H55 H 0.78727 1.14298 -0.25168
 H56 H 0.74808 1.14312 -0.21215
 H57 H 0.74837 1.21217 -0.14309
 C58 C 0.17647 0.78399 -0.21630
 C59 C 0.16333 0.75824 -0.20294
 C60 C 0.17609 0.74538 -0.17677
 C61 C 0.20226 0.75802 -0.16394
 C62 C 0.21568 0.78377 -0.17701
 C63 C 0.20274 0.79687 -0.20329
 C64 C 0.16342 0.79751 -0.24202
 C65 C 0.17627 0.82370 -0.25469
 C66 C 0.20241 0.83641 -0.24196
 C67 C 0.21576 0.82319 -0.21624
 C68 C 0.24147 0.83619 -0.20283
 C69 C 0.25414 0.82326 -0.17667
 C70 C 0.24140 0.79708 -0.16390
 H71 H 0.14295 0.74848 -0.21264
 H72 H 0.21190 0.74809 -0.14355
 H73 H 0.14305 0.78798 -0.25192
 H74 H 0.21205 0.85681 -0.25182
 H75 H 0.25138 0.85659 -0.21241
 H76 H 0.25125 0.78738 -0.14352
 C77 C 0.54620 1.04131 -0.00841
 H78 H 0.54683 1.04117 0.01616
 C79 C 0.56692 1.05886 -0.02470
 H80 H 0.58353 1.07240 -0.01269
 C81 C 0.52444 1.02309 -0.05417
 H82 H 0.50831 1.00862 -0.06557
 C83 C 0.54479 1.04031 -0.07135
 H84 H 0.54409 1.03926 -0.09593
 N85 N 0.52544 1.02399 -0.02327
 C86 C 0.45368 1.00831 0.04299
 H87 H 0.45309 0.98374 0.04288
 C88 C 0.43290 1.02459 0.06054
 H89 H 0.41630 1.01257 0.07410
 C90 C 0.47535 1.05409 0.02468
 H91 H 0.49147 1.06550 0.01017
 C92 C 0.45495 1.07125 0.04189
 H93 H 0.45560 1.09583 0.04081
 Zn94 Zn 0.49994 0.99918 0.00077
 N95 N 0.47441 1.02319 0.02562
 C96 C 0.52458 0.97528 0.05562
 N97 N 0.52551 0.97436 0.02471
 C98 C 0.54627 0.95703 0.00977
 C99 C 0.56707 0.93950 0.02599
 C100 C 0.54501 0.95808 0.07272
 C101 C 0.45363 0.99012 -0.04130
 C102 C 0.43288 0.97389 -0.05884
 C103 C 0.45502 0.92718 -0.04034
 C104 C 0.47540 0.94430 -0.02314
 N105 N 0.47441 0.97521 -0.02401
 H106 H 0.50844 0.98975 0.06707
 H107 H 0.54684 0.95716 -0.01480
 H108 H 0.58368 0.92597 0.01391
 H109 H 0.54437 0.95914 0.09730
 H110 H 0.45301 1.01469 -0.04114
 H111 H 0.41626 0.98595 -0.07234
 H112 H 0.45572 0.90260 -0.03932
 H113 H 0.49155 0.93286 -0.00870
 C114 C 0.43349 1.05634 0.05989
 C115 C 0.56626 1.05826 -0.05645
 C116 C 0.43353 0.94214 -0.05826
 C117 C 0.56649 0.94012 0.05774
 C118 C -0.00820 0.54663 1.04188
 H119 H 0.01629 0.54725 1.04171
 C120 C -0.02444 0.56743 1.05946
 H121 H -0.01245 0.58409 1.07300
 C122 C -0.05384 0.52484 1.02368
 H123 H -0.06521 0.50866 1.00921
 C124 C -0.07096 0.54527 1.04093
 H125 H -0.09546 0.54458 1.03991
 N126 N -0.02303 0.52582 1.02455
 C127 C 0.04296 0.45375 1.00880
 H128 H 0.04284 0.45314 0.98423
 C129 C 0.06044 0.43292 1.02507
 H130 H 0.07394 0.41625 1.01302
 C131 C 0.02472 0.47556 1.05460
 H132 H 0.01027 0.49175 1.06602
 C133 C 0.04187 0.45510 1.07174
 H134 H 0.04078 0.45578 1.09632
 Zn135 Zn 0.00091 0.50020 0.99972
 N136 N 0.02566 0.47458 1.02369
 C137 C 0.05563 0.52481 0.97576
 N138 N 0.02482 0.52580 0.97488
 C139 C 0.00995 0.54663 0.95757
 C140 C 0.02615 0.56744 0.94001
 C141 C 0.07271 0.54525 0.95852
 C142 C -0.04108 0.45379 0.99066
 C143 C -0.05860 0.43301 0.97441
 C144 C -0.04012 0.45518 0.92771
 C145 C -0.02294 0.47559 0.94484
 N146 N -0.02382 0.47460 0.97574
 H147 H 0.06703 0.50862 0.99021
 H148 H -0.01454 0.54725 0.95774
 H149 H 0.01414 0.58410 0.92649
 H150 H 0.09722 0.54456 0.95955
 H151 H -0.04092 0.45317 1.01523
 H152 H -0.07209 0.41637 0.98647
 H153 H -0.03910 0.45588 0.90313
 H154 H -0.00852 0.49177 0.93340
 C155 C 0.05979 0.43354 1.05681
 C156 C -0.05609 0.56680 1.05889
 C157 C -0.05803 0.43366 0.94266
 C158 C 0.05781 0.56680 0.94058
 C159 C 1.04109 -0.00833 0.54590
 H160 H 1.04088 0.01624 0.54657
 C161 C 1.05863 -0.02461 0.56667
 H162 H 1.07209 -0.01258 0.58335
 C163 C 1.02304 -0.05412 0.52402
 H164 H 1.00865 -0.06553 0.50781
 C165 C 1.04025 -0.07127 0.54441
 H166 H 1.03927 -0.09585 0.54367
 N167 N 1.02386 -0.02321 0.52506
 C168 C 1.00812 0.04303 0.45313
 H169 H 0.98362 0.04287 0.45252
 C170 C 1.02432 0.06062 0.43234
 H171 H 1.01231 0.07417 0.41570
 C172 C 1.05379 0.02479 0.47490
 H173 H 1.06518 0.01029 0.49106
 C174 C 1.07087 0.04204 0.45449
 H175 H 1.09538 0.04100 0.45516
 Zn176 Zn 0.99908 0.00079 0.49950
 N177 N 1.02297 0.02568 0.47393
 C178 C 0.97511 0.05562 0.52423
 N179 N 0.97427 0.02471 0.52515
 C180 C 0.95701 0.00976 0.54595
 C181 C 0.93948 0.02596 0.56681
 C182 C 0.95791 0.07270 0.54472
 C183 C 0.99016 -0.04129 0.45300
 C184 C 0.97402 -0.05888 0.43219
 C185 C 0.92741 -0.04046 0.45441
 C186 C 0.94443 -0.02320 0.47485
 N187 N 0.97525 -0.02402 0.47385
 H188 H 0.98952 0.06708 0.50806
 H189 H 0.95721 -0.01482 0.54652
 H190 H 0.92601 0.01387 0.58346
 H191 H 0.95891 0.09728 0.54410
 H192 H 1.01466 -0.04109 0.45237
 H193 H 0.98608 -0.07237 0.41551
 H194 H 0.90290 -0.03948 0.45512
 H195 H 0.93299 -0.00878 0.49106
 C196 C 1.05598 0.06002 0.43297
 C197 C 1.05811 -0.05636 0.56597
 C198 C 0.94237 -0.05837 0.43285
 C199 C 0.94003 0.05771 0.56625
 C200 C 0.12221 0.37227 1.13530
 C201 C 0.10748 0.34226 1.14631
 C202 C 0.13475 0.32461 1.13364
 C203 C 0.14974 0.35420 1.12290
 C204 C 0.10637 0.36833 1.10449
 C205 C 0.13363 0.35067 1.09183
 C206 C 0.09141 0.33872 1.11525
 C207 C 0.11889 0.32071 1.10283
 C208 C 0.15017 0.29978 1.14951
 C209 C 0.16248 0.27889 1.16220
 C210 C 0.09020 0.39218 1.08790
 C211 C 0.07653 0.41130 1.07391
 H212 H 0.12338 0.39375 1.14846
 H213 H 0.09691 0.33853 1.16889
 H214 H 0.17391 0.36028 1.12623
 H215 H 0.14421 0.35439 1.06925
 H216 H 0.06725 0.33260 1.11193
 H217 H 0.11770 0.29925 1.08965
 C218 C -0.08836 0.65974 1.12023
 C219 C -0.11321 0.68016 1.10612
 C220 C -0.13265 0.67544 1.13470
 C221 C -0.10803 0.65537 1.14905
 C222 C -0.10363 0.63184 1.10595
 C223 C -0.12307 0.62707 1.13452
 C224 C -0.12825 0.65192 1.09161
 C225 C -0.14796 0.64755 1.12043
 C226 C -0.14844 0.70020 1.15034
 C227 C -0.16105 0.72104 1.16285
 C228 C -0.08710 0.60805 1.08958
 C229 C -0.07315 0.58898 1.07577
 H230 H -0.06367 0.66450 1.11996
 H231 H -0.10932 0.70225 1.09461
 H232 H -0.09990 0.65707 1.17284
 H233 H -0.12693 0.60496 1.14601
 H234 H -0.13639 0.65023 1.06782
 H235 H -0.17265 0.64282 1.12070
 C236 C -0.12085 0.37267 0.86434
 C237 C -0.10639 0.34246 0.85345
 C238 C -0.13378 0.32515 0.86622
 C239 C -0.14852 0.35494 0.87686
 C240 C -0.10501 0.36870 0.89516
 C241 C -0.13241 0.35138 0.90792
 C242 C -0.09031 0.33888 0.88451
 C243 C -0.11793 0.32122 0.89703
 C244 C -0.14946 0.30041 0.85050
 C245 C -0.16200 0.27960 0.83796
 C246 C -0.08865 0.39246 0.91165
 C247 C -0.07486 0.41151 0.92560
 H248 H -0.12186 0.39410 0.85110
 H249 H -0.09587 0.33851 0.83088
 H250 H -0.17264 0.36126 0.87352
 H251 H -0.14293 0.35531 0.93050
 H252 H -0.06620 0.33253 0.88783
 H253 H -0.11690 0.29981 0.91031
 C254 C 0.13975 0.63606 0.89385
 C255 C 0.13892 0.64157 0.85906
 C256 C 0.13408 0.67563 0.86499
 C257 C 0.13517 0.67050 0.89950
 C258 C 0.10520 0.63194 0.89365
 C259 C 0.10040 0.66601 0.89954
 C260 C 0.10409 0.63705 0.85914
 C261 C 0.09953 0.67149 0.86482
 C262 C 0.14978 0.70044 0.84940
 C263 C 0.16232 0.72132 0.83694
 C264 C 0.08873 0.60811 0.90997
 C265 C 0.07482 0.58901 0.92374
 H266 H 0.15609 0.62122 0.90597
 H267 H 0.15494 0.63181 0.84223
 H268 H 0.14812 0.68453 0.91593
 H269 H 0.08438 0.67581 0.91636
 H270 H 0.09113 0.62302 0.84273
 H271 H 0.08317 0.68632 0.85271
 C272 C 1.13713 0.11582 0.36925
 C273 C 1.14119 0.10390 0.33636
 C274 C 1.13262 0.13550 0.32427
 C275 C 1.12881 0.14770 0.35675
 C276 C 1.10352 0.10693 0.36789
 C277 C 1.09493 0.13852 0.35580
 C278 C 1.10735 0.09477 0.33539
 C279 C 1.09901 0.12658 0.32295
 C280 C 1.14846 0.15102 0.29950
 C281 C 1.16114 0.16341 0.27864
 C282 C 1.08697 0.09064 0.39169
 C283 C 1.07301 0.07687 0.41078
 H284 H 1.15261 0.11121 0.38856
 H285 H 1.16039 0.08984 0.32809
 H286 H 1.13783 0.16964 0.36525
 H287 H 1.07573 0.15257 0.36406
 H288 H 1.09834 0.07284 0.32686
 H289 H 1.08350 0.13117 0.30365
 C290 C 1.09677 -0.10218 0.66475
 C291 C 1.09996 -0.13713 0.66704
 C292 C 1.13373 -0.13317 0.67442
 C293 C 1.13076 -0.09844 0.67247
 C294 C 1.10505 -0.10405 0.63089
 C295 C 1.13883 -0.10007 0.63825
 C296 C 1.10800 -0.13877 0.63281
 C297 C 1.14205 -0.13507 0.64057
 C298 C 1.14934 -0.14901 0.69913
 C299 C 1.16181 -0.16165 0.71994
 C300 C 1.08873 -0.08746 0.60714
 C301 C 1.07495 -0.07347 0.58811
 H302 H 1.07798 -0.08848 0.67445
 H303 H 1.08415 -0.15255 0.67916
 H304 H 1.14029 -0.08203 0.68904
 H305 H 1.15463 -0.08464 0.62614
 H306 H 1.09845 -0.15516 0.61622
 H307 H 1.16085 -0.14878 0.63091
 C308 C 0.90407 -0.13708 0.35575
 C309 C 0.87028 -0.14658 0.35672
 C310 C 0.86642 -0.13446 0.32422
 C311 C 0.89994 -0.12522 0.32289
 C312 C 0.89516 -0.10556 0.36781
 C313 C 0.89127 -0.09347 0.33530
 C314 C 0.86163 -0.11478 0.36918
 C315 C 0.85752 -0.10293 0.33628
 C316 C 0.85081 -0.15020 0.29946
 C317 C 0.83836 -0.16280 0.27862
 C318 C 0.91155 -0.08912 0.39160
 C319 C 0.92540 -0.07527 0.41067
 H320 H 0.92339 -0.15094 0.36403
 H321 H 0.86146 -0.16860 0.36523
 H322 H 0.91553 -0.12968 0.30359
 H323 H 0.90008 -0.07146 0.32675
 H324 H 0.84607 -0.11029 0.38849
 H325 H 0.83820 -0.08907 0.32800
 C326 C 0.86674 0.09189 0.64993
 C327 C 0.88164 0.10381 0.67944
 C328 C 0.86470 0.13404 0.67539
 C329 C 0.84954 0.12238 0.64624
 C330 C 0.89324 0.10513 0.63158
 C331 C 0.87631 0.13536 0.62748
 C332 C 0.90836 0.11681 0.66075
 C333 C 0.89120 0.14728 0.65705
 C334 C 0.84917 0.14976 0.70027
 C335 C 0.83677 0.16231 0.72120
 C336 C 0.90950 0.08865 0.60768
 C337 C 0.92323 0.07474 0.58852
 H338 H 0.85686 0.06893 0.64674
 H339 H 0.88366 0.09100 0.70107
 H340 H 0.82517 0.12485 0.64056
 H341 H 0.87431 0.14814 0.60584
 H342 H 0.93273 0.11434 0.66646
 H343 H 0.90108 0.17024 0.66026
 C344 C 0.34440 1.08877 0.12676
 C345 C 0.34912 1.11395 0.15088
 C346 C 0.32474 1.13318 0.13505
 C347 C 0.31967 1.10824 0.11118
 C348 C 0.36840 1.10404 0.10660
 C349 C 0.34400 1.12327 0.09080
 C350 C 0.37352 1.12898 0.13047
 C351 C 0.34873 1.14847 0.11490
 C352 C 0.29995 1.14905 0.15051
 C353 C 0.27910 1.16172 0.16284
 C354 C 0.39221 1.08745 0.09039
 C355 C 0.41130 1.07345 0.07668
 H356 H 0.34288 1.06404 0.13146
 H357 H 0.35094 1.11031 0.17577
 H358 H 0.29726 1.09988 0.10340
 H359 H 0.34216 1.12693 0.06591
 H360 H 0.39595 1.13731 0.13822
 H361 H 0.35022 1.17320 0.11021
 C362 C 0.63268 1.13983 -0.10814
 C363 C 0.66671 1.13880 -0.09961
 C364 C 0.67459 1.13385 -0.13326
 C365 C 0.64094 1.13513 -0.14207
 C366 C 0.63110 1.10519 -0.10416
 C367 C 0.63897 1.10023 -0.13780
 C368 C 0.66476 1.10394 -0.09539
 C369 C 0.67298 1.09922 -0.12925
 C370 C 0.69928 1.14945 -0.14908
 C371 C 0.72006 1.16191 -0.16171
 C372 C 0.60738 1.08887 -0.08758
 C373 C 0.58837 1.07510 -0.07357
 H374 H 0.61583 1.15634 -0.09927
 H375 H 0.67839 1.15483 -0.08408
 H376 H 0.63144 1.14815 -0.16145
 H377 H 0.62729 1.08419 -0.15332
 H378 H 0.67430 1.09094 -0.07601
 H379 H 0.68982 1.08268 -0.13811
 C380 C 0.33949 0.90976 -0.11700
 C381 C 0.34327 0.89239 -0.14737
 C382 C 0.32506 0.86585 -0.13396
 C383 C 0.32093 0.88299 -0.10383
 C384 C 0.36861 0.89470 -0.10523
 C385 C 0.35040 0.86816 -0.09183
 C386 C 0.37278 0.87757 -0.13536
 C387 C 0.35417 0.85075 -0.12221
 C388 C 0.30033 0.85018 -0.14962
 C389 C 0.27952 0.83770 -0.16214
 C390 C 0.39236 0.91116 -0.08888
 C391 C 0.41140 0.92508 -0.07510
 H392 H 0.33371 0.93420 -0.11468
 H393 H 0.34006 0.90218 -0.17039
 H394 H 0.29935 0.88506 -0.09104
 H395 H 0.35359 0.85837 -0.06881
 H396 H 0.39438 0.87552 -0.14813
 H397 H 0.35992 0.82630 -0.12453
 C398 C 0.66331 0.88730 0.09190
 C399 C 0.67750 0.89769 0.12231
 C400 C 0.67541 0.86489 0.13404
 C401 C 0.66157 0.85427 0.10385
 C402 C 0.63168 0.89339 0.10516
 C403 C 0.62955 0.86058 0.11687
 C404 C 0.64552 0.90401 0.13535
 C405 C 0.64379 0.87095 0.14735
 C406 C 0.70025 0.84939 0.14974
 C407 C 0.72115 0.83701 0.16226
 C408 C 0.60782 0.90962 0.08870
 C409 C 0.58871 0.92334 0.07478
 H410 H 0.67108 0.89420 0.06892
 H411 H 0.69748 0.91279 0.12472
 H412 H 0.66845 0.83364 0.09107
 H413 H 0.60955 0.84551 0.11445
 H414 H 0.63865 0.92465 0.14813
 H415 H 0.63606 0.86404 0.17033
   
