data_POSCAR
  _audit_creation_date              2014-09-24
  _audit_creation_method            'ToBaCCo'
  _symmetry_space_group_name_H-M    'P1'
  _symmetry_Int_Tables_number       1
  _symmetry_cell_setting            triclinic
  loop_
  _symmetry_equiv_pos_as_xyz
 x,y,z
_cell_length_a 43.1971
_cell_length_b 43.1865
_cell_length_c 24.3164
_cell_angle_alpha 90.004100
_cell_angle_beta 90.007000
_cell_angle_gamma 120.067400
loop_
  _atom_site_label
  _atom_site_type_symbol
  _atom_site_fract_x
  _atom_site_fract_y
  _atom_site_fract_z
C1 C 0.55557 1.11272 0.47333
 C2 C 0.55432 1.11273 0.52965
 C3 C 0.53736 1.07718 0.54618
 N4 N 0.52824 1.05564 0.50166
 C5 C 0.53926 1.07719 0.45705
 C6 C 0.53198 1.06551 0.60156
 C7 C 0.51542 1.02919 0.61841
 C8 C 0.51540 1.01826 0.67215
 C9 C 0.49701 0.98157 0.67209
 C10 C 0.48612 0.97072 0.61831
 N11 N 0.49703 0.99997 0.58602
 C12 C 0.46634 0.93442 0.60131
 C13 C 0.46029 0.92283 0.54588
 C14 C 0.44186 0.88730 0.52922
 C15 C 0.44336 0.88739 0.47291
 C16 C 0.46253 0.92295 0.45677
 N17 N 0.47283 0.94445 0.50146
 C18 C 0.46931 0.93466 0.40150
 C19 C 0.48718 0.97091 0.38436
 C20 C 0.48945 0.98177 0.33007
 C21 C 0.50765 1.01849 0.33014
 C22 C 0.51615 1.02933 0.38447
 N23 N 0.50410 1.00011 0.41711
 C24 C 0.53426 1.06557 0.40172
 H25 H 0.56706 1.13624 0.44736
 H26 H 0.56497 1.13628 0.55551
 H27 H 0.50905 1.00011 0.45870
 H28 H 0.52766 1.03501 0.70782
 H29 H 0.49247 0.96477 0.70769
 H30 H 0.42893 0.86371 0.55498
 H31 H 0.43150 0.86391 0.44686
 H32 H 0.51344 1.03527 0.29415
 H33 H 0.48972 0.99999 0.54545
 H34 H 0.47861 0.96501 0.29402
 C35 C -0.11405 0.44381 0.47096
 C36 C -0.11410 0.44256 0.52727
 C37 C -0.07854 0.45995 0.54378
 N38 N -0.05695 0.47163 0.49922
 C39 C -0.07847 0.46184 0.45458
 C40 C -0.06691 0.46558 0.59923
 C41 C -0.03060 0.48447 0.61633
 C42 C -0.01961 0.49423 0.67041
 C43 C 0.01708 0.51237 0.67037
 C44 C 0.02784 0.51338 0.61632
 N45 N -0.00141 0.49579 0.58379
 C46 C 0.06407 0.53048 0.59926
 C47 C 0.07574 0.53666 0.54399
 C48 C 0.11130 0.55479 0.52770
 C49 C 0.11134 0.55631 0.47138
 C50 C 0.07581 0.53895 0.45495
 N51 N 0.05420 0.52704 0.49943
 C52 C 0.06421 0.53350 0.39964
 C53 C 0.02800 0.51446 0.38245
 C54 C 0.01728 0.50471 0.32837
 C55 C -0.01941 0.48627 0.32820
 C56 C -0.03043 0.48511 0.38223
 N57 N -0.00127 0.50290 0.41487
 C58 C -0.06677 0.46782 0.39918
 H59 H -0.13758 0.43250 0.44502
 H60 H -0.13766 0.43041 0.55312
 H61 H -0.00134 0.50913 0.45595
 H62 H -0.03632 0.48919 0.70629
 H63 H 0.03390 0.52392 0.70618
 H64 H 0.13482 0.56600 0.55365
 H65 H 0.13490 0.56859 0.44550
 H66 H -0.03609 0.47464 0.29227
 H67 H -0.00146 0.48956 0.54268
 H68 H 0.03413 0.50991 0.29264
 C69 C 0.44309 0.55558 0.47311
 C70 C 0.44181 0.55435 0.52944
 C71 C 0.46035 0.53738 0.54603
 N72 N 0.47276 0.52824 0.50155
 C73 C 0.46227 0.53925 0.45690
 C74 C 0.46659 0.53200 0.60143
 C75 C 0.48626 0.51540 0.61835
 C76 C 0.49711 0.51535 0.67212
 C77 C 0.51533 0.49692 0.67213
 C78 C 0.51530 0.48603 0.61836
 N79 N 0.49704 0.49699 0.58601
 C80 C 0.53173 0.46621 0.60142
 C81 C 0.53732 0.46018 0.54601
 C82 C 0.55439 0.44175 0.52941
 C83 C 0.55588 0.44329 0.47311
 C84 C 0.53958 0.46249 0.45691
 N85 N 0.52835 0.47277 0.50155
 C86 C 0.53474 0.46931 0.40161
 C87 C 0.51642 0.48719 0.38441
 C88 C 0.50788 0.48947 0.33009
 C89 C 0.48940 0.50766 0.33009
 C90 C 0.48702 0.51614 0.38441
 N91 N 0.50413 0.50409 0.41711
 C92 C 0.46891 0.53424 0.40160
 H93 H 0.43110 0.56706 0.44710
 H94 H 0.42893 0.56501 0.55525
 H95 H 0.50905 0.50902 0.45871
 H96 H 0.49265 0.52763 0.70777
 H97 H 0.52753 0.49235 0.70777
 H98 H 0.56497 0.42879 0.55521
 H99 H 0.56750 0.43143 0.44710
 H100 H 0.47847 0.51346 0.29407
 H101 H 0.48972 0.48968 0.54543
 H102 H 0.51382 0.47865 0.29407
 O103 O 0.38589 0.66807 -0.06367
 O104 O 0.38750 0.72854 -0.04722
 C105 C 0.36512 0.73354 -0.07393
 O106 O 0.33196 0.71741 -0.06368
 O107 O 0.27151 0.65846 -0.04709
 C108 C 0.26645 0.63102 -0.07376
 O109 O 0.28255 0.61399 -0.06350
 O110 O 0.34146 0.61251 -0.04692
 C111 C 0.36883 0.63487 -0.07377
 O112 O 0.38745 0.65852 0.04583
 O113 O 0.38605 0.71747 0.06227
 C114 C 0.36903 0.73358 0.07255
 O115 O 0.34165 0.72860 0.04581
 O116 O 0.28268 0.66818 0.06239
 C117 C 0.26650 0.63501 0.07265
 O118 O 0.27146 0.61260 0.04596
 O119 O 0.33187 0.61415 0.06255
 C120 C 0.36505 0.63120 0.07273
 Cr121 Cr 0.38471 0.69214 -0.00070
 Cr122 Cr 0.30795 0.69216 -0.00065
 Cr123 Cr 0.30785 0.61532 -0.00049
 O124 O 0.33350 0.66654 -0.00062
 O125 O 0.61405 0.33180 -0.06332
 O126 O 0.61254 0.27140 -0.04669
 C127 C 0.63483 0.26634 -0.07354
 O128 O 0.66803 0.28250 -0.06351
 O129 O 0.72854 0.34147 -0.04740
 C130 C 0.73349 0.36880 -0.07427
 O131 O 0.71743 0.38587 -0.06401
 O132 O 0.65859 0.38741 -0.04718
 C133 C 0.63110 0.36496 -0.07371
 O134 O 0.61289 0.34166 0.04616
 O135 O 0.61435 0.28276 0.06278
 C136 C 0.63139 0.26666 0.07296
 O137 O 0.65868 0.27158 0.04603
 O138 O 0.71766 0.33205 0.06217
 C139 C 0.73382 0.36525 0.07230
 O140 O 0.72885 0.38760 0.04544
 O141 O 0.66852 0.38614 0.06226
 C142 C 0.63539 0.36910 0.07274
 Cr143 Cr 0.61547 0.30791 -0.00028
 Cr144 Cr 0.69223 0.30791 -0.00068
 Cr145 Cr 0.69234 0.38474 -0.00087
 O146 O 0.66668 0.33352 -0.00062
 C147 C 0.45346 0.90866 -0.35848
 C148 C 0.44220 0.88617 -0.32292
 C149 C 0.42888 0.85957 -0.28018
 C150 C 0.40821 0.82322 -0.29355
 C151 C 0.39521 0.79741 -0.25188
 C152 C 0.40284 0.80788 -0.19670
 C153 C 0.42354 0.84424 -0.18337
 C154 C 0.43654 0.87003 -0.22502
 C155 C 0.38943 0.78142 -0.15372
 C156 C 0.37828 0.75944 -0.11743
 H157 H 0.40214 0.81486 -0.33609
 H158 H 0.37922 0.76937 -0.26263
 H159 H 0.42960 0.85263 -0.14085
 H160 H 0.45250 0.89808 -0.21426
 C161 C 0.09127 0.54411 -0.35821
 C162 C 0.11374 0.55534 -0.32263
 C163 C 0.14034 0.56862 -0.27990
 C164 C 0.12985 0.56494 -0.22466
 C165 C 0.15565 0.57774 -0.18302
 C166 C 0.19205 0.59429 -0.19643
 C167 C 0.20254 0.59799 -0.25169
 C168 C 0.17673 0.58518 -0.29335
 C169 C 0.21853 0.60737 -0.15348
 C170 C 0.24052 0.61823 -0.11722
 H171 H 0.10178 0.55217 -0.21383
 H172 H 0.14725 0.57474 -0.14043
 H173 H 0.23061 0.61074 -0.26251
 H174 H 0.18511 0.58815 -0.33595
 C175 C 0.45402 0.54515 -0.35832
 C176 C 0.44308 0.55665 -0.32274
 C177 C 0.43018 0.57031 -0.27999
 C178 C 0.41006 0.58655 -0.29334
 C179 C 0.39754 0.59980 -0.25166
 C180 C 0.40510 0.59685 -0.19649
 C181 C 0.42523 0.58062 -0.18318
 C182 C 0.43775 0.56738 -0.22484
 C183 C 0.39221 0.61040 -0.15352
 C184 C 0.38149 0.62164 -0.11724
 H185 H 0.40407 0.58894 -0.33587
 H186 H 0.38199 0.61229 -0.26241
 H187 H 0.43123 0.57820 -0.14066
 H188 H 0.45329 0.55487 -0.21409
 C189 C 0.54508 0.09123 -0.35815
 C190 C 0.55655 0.11368 -0.32253
 C191 C 0.57017 0.14026 -0.27976
 C192 C 0.58647 0.17666 -0.29309
 C193 C 0.59971 0.20245 -0.25139
 C194 C 0.59669 0.19193 -0.19622
 C195 C 0.58039 0.15552 -0.18293
 C196 C 0.56716 0.12974 -0.22461
 C197 C 0.61026 0.21839 -0.15324
 C198 C 0.62154 0.24039 -0.11698
 H199 H 0.58894 0.18507 -0.33562
 H200 H 0.61227 0.23053 -0.26212
 H201 H 0.57791 0.14709 -0.14041
 H202 H 0.55460 0.10166 -0.21387
 C203 C 0.90735 0.45311 -0.36052
 C204 C 0.88496 0.44229 -0.32484
 C205 C 0.85855 0.42955 -0.28185
 C206 C 0.82207 0.41009 -0.29488
 C207 C 0.79646 0.39771 -0.25292
 C208 C 0.80726 0.40476 -0.19781
 C209 C 0.84375 0.42424 -0.18482
 C210 C 0.86934 0.43661 -0.22675
 C211 C 0.78101 0.39200 -0.15454
 C212 C 0.75921 0.38137 -0.11802
 H213 H 0.81345 0.40450 -0.33736
 H214 H 0.76832 0.38267 -0.26342
 H215 H 0.85240 0.42983 -0.14235
 H216 H 0.89749 0.45163 -0.21624
 C217 C 0.54451 0.45328 -0.35832
 C218 C 0.55565 0.44198 -0.32273
 C219 C 0.56884 0.42860 -0.27997
 C220 C 0.58465 0.40809 -0.29334
 C221 C 0.59740 0.39507 -0.25164
 C222 C 0.59438 0.40252 -0.19645
 C223 C 0.57858 0.42305 -0.18313
 C224 C 0.56584 0.43607 -0.22480
 C225 C 0.60743 0.38914 -0.15347
 C226 C 0.61828 0.37803 -0.11719
 H227 H 0.58710 0.40217 -0.33588
 H228 H 0.60957 0.37922 -0.26240
 H229 H 0.57611 0.42898 -0.14059
 H230 H 0.55365 0.45190 -0.21403
 C231 C 0.90755 0.45464 0.35884
 C232 C 0.88521 0.44314 0.32306
 C233 C 0.85886 0.42955 0.27997
 C234 C 0.86971 0.43341 0.22490
 C235 C 0.84417 0.42024 0.18289
 C236 C 0.80767 0.40314 0.19576
 C237 C 0.79681 0.39927 0.25085
 C238 C 0.82237 0.41245 0.29289
 C239 C 0.78145 0.38966 0.15243
 C240 C 0.75963 0.37846 0.11593
 H241 H 0.89787 0.44659 0.21448
 H242 H 0.85287 0.42338 0.14044
 H243 H 0.76865 0.38610 0.26126
 H244 H 0.81370 0.40933 0.33535
 C245 C 0.54736 0.09279 0.35923
 C246 C 0.55811 0.11518 0.32355
 C247 C 0.57079 0.14158 0.28054
 C248 C 0.58951 0.17809 0.29360
 C249 C 0.60184 0.20370 0.25164
 C250 C 0.59550 0.19287 0.19649
 C251 C 0.57676 0.15635 0.18347
 C252 C 0.56444 0.13077 0.22541
 C253 C 0.60822 0.21912 0.15322
 C254 C 0.61883 0.24093 0.11670
 H255 H 0.59456 0.18673 0.33612
 H256 H 0.61631 0.23186 0.26216
 H257 H 0.57172 0.14769 0.14097
 H258 H 0.54999 0.10260 0.21488
 C259 C 0.54824 0.45563 0.35908
 C260 C 0.55937 0.44441 0.32337
 C261 C 0.57252 0.43120 0.28033
 C262 C 0.59162 0.41384 0.29338
 C263 C 0.60445 0.40110 0.25139
 C264 C 0.59822 0.40568 0.19623
 C265 C 0.57910 0.42302 0.18323
 C266 C 0.56628 0.43576 0.22519
 C267 C 0.61143 0.39266 0.15295
 C268 C 0.62241 0.38186 0.11644
 H269 H 0.59659 0.41018 0.33590
 H270 H 0.61920 0.38772 0.26190
 H271 H 0.57413 0.42671 0.14072
 H272 H 0.55154 0.44915 0.21467
 C273 C 0.09146 0.54703 0.35719
 C274 C 0.11394 0.55822 0.32165
 C275 C 0.14053 0.57147 0.27891
 C276 C 0.17693 0.59141 0.29233
 C277 C 0.20272 0.60436 0.25065
 C278 C 0.19219 0.59741 0.19541
 C279 C 0.15579 0.57745 0.18204
 C280 C 0.13001 0.56451 0.22369
 C281 C 0.21864 0.61078 0.15243
 C282 C 0.24061 0.62189 0.11615
 H283 H 0.18533 0.59694 0.33491
 H284 H 0.23079 0.61977 0.26145
 H285 H 0.14736 0.57193 0.13946
 H286 H 0.10193 0.54913 0.21289
 C287 C 0.45560 0.90747 0.35891
 C288 C 0.44435 0.88512 0.32317
 C289 C 0.43109 0.85873 0.28012
 C290 C 0.41377 0.82223 0.29314
 C291 C 0.40101 0.79664 0.25114
 C292 C 0.40553 0.80747 0.19599
 C293 C 0.42283 0.84397 0.18301
 C294 C 0.43558 0.86955 0.22498
 C295 C 0.39252 0.78121 0.15270
 C296 C 0.38174 0.75938 0.11620
 H297 H 0.41018 0.81359 0.33565
 H298 H 0.38768 0.76848 0.26163
 H299 H 0.42647 0.85264 0.14051
 H300 H 0.44894 0.89771 0.21449
 C301 C 0.45480 0.54730 0.35905
 C302 C 0.44319 0.55803 0.32334
 C303 C 0.42947 0.57068 0.28031
 C304 C 0.41164 0.58932 0.29335
 C305 C 0.39838 0.60162 0.25137
 C306 C 0.40291 0.59532 0.19622
 C307 C 0.42073 0.57666 0.18322
 C308 C 0.43398 0.56437 0.22518
 C309 C 0.38939 0.60803 0.15294
 C310 C 0.37820 0.61863 0.11643
 H311 H 0.40802 0.59433 0.33586
 H312 H 0.38465 0.61603 0.26187
 H313 H 0.42438 0.57165 0.14073
 H314 H 0.44773 0.54998 0.21467
   
