data_POSCAR
  _audit_creation_date              2014-09-24
  _audit_creation_method            'ToBaCCo'
  _symmetry_space_group_name_H-M    'P1'
  _symmetry_Int_Tables_number       1
  _symmetry_cell_setting            triclinic
  loop_
  _symmetry_equiv_pos_as_xyz
 x,y,z
_cell_length_a 21.3311
_cell_length_b 21.3282
_cell_length_c 34.9938
_cell_angle_alpha 79.885900
_cell_angle_beta 98.176200
_cell_angle_gamma 82.626400
loop_
  _atom_site_label
  _atom_site_type_symbol
  _atom_site_fract_x
  _atom_site_fract_y
  _atom_site_fract_z
O1 O 0.04246 0.53158 1.04572
 O2 O 0.05505 0.43768 0.96819
 O3 O 0.05807 0.55795 0.97293
 O4 O 0.03929 0.41247 1.04116
 O5 O -0.06588 0.43589 1.02373
 O6 O -0.04654 0.57987 0.95329
 O7 O -0.05006 0.45704 0.95009
 O8 O -0.06231 0.55585 1.02649
 Cu9 Cu 0.05917 0.48271 1.00866
 Cu10 Cu -0.06678 0.50940 0.98615
 C11 C -0.01179 0.55987 1.04946
 C12 C 0.00487 0.43007 0.94637
 C13 C 0.00914 0.59455 0.95178
 C14 C -0.01643 0.39978 1.04463
 O15 O 0.43470 0.07080 0.51969
 O16 O 0.54206 0.05844 0.44641
 O17 O 0.42025 0.04997 0.44846
 O18 O 0.55463 0.08025 0.51819
 O19 O 0.57886 -0.02423 0.54248
 O20 O 0.44812 -0.05465 0.47112
 O21 O 0.56934 -0.04561 0.47073
 O22 O 0.45975 -0.03419 0.54201
 Cu23 Cu 0.48552 0.07537 0.48058
 Cu24 Cu 0.51698 -0.05015 0.50865
 C25 C 0.42858 0.02011 0.54319
 C26 C 0.57482 0.00424 0.44633
 C27 C 0.41047 -0.00758 0.44848
 C28 C 0.58873 0.03313 0.54288
 C29 C -0.04282 -0.12887 0.23266
 C30 C -0.10158 -0.11830 0.25293
 C31 C -0.10409 -0.06604 0.27068
 C32 C -0.04742 -0.02856 0.26611
 C33 C -0.04473 -0.06489 0.20448
 C34 C -0.04684 -0.01260 0.22170
 C35 C 0.01422 -0.13220 0.26551
 C36 C 0.01267 -0.07947 0.28253
 H37 H -0.13642 -0.15075 0.25485
 H38 H -0.04862 0.01401 0.28038
 H39 H -0.04317 -0.06165 0.17338
 H40 H 0.05412 -0.17153 0.27312
 C41 C 0.10151 0.05669 0.72225
 C42 C 0.10143 -0.00430 0.75286
 C43 C 0.05156 -0.00113 0.77300
 C44 C 0.00610 0.06383 0.76140
 C45 C 0.03525 0.06943 0.69651
 C46 C -0.01497 0.07349 0.71649
 C47 C 0.10045 0.11028 0.74634
 C48 C 0.05075 0.11414 0.76688
 H49 H 0.13840 -0.04626 0.75854
 H50 H -0.03376 0.06669 0.77854
 H51 H 0.02927 0.07145 0.66504
 H52 H 0.13736 0.14027 0.74901
 C53 C -0.02070 -0.32323 0.13655
 C54 C 0.03735 -0.36159 0.13536
 C55 C 0.03984 -0.40034 0.10732
 C56 C -0.01539 -0.40171 0.08061
 C57 C -0.07316 -0.36480 0.08382
 N58 N -0.07428 -0.32675 0.11121
 C59 C -0.02436 -0.27728 0.16356
 N60 N -0.08129 -0.25904 0.17491
 C61 C -0.08849 -0.21444 0.19807
 C62 C -0.03633 -0.18466 0.21095
 C63 C 0.02224 -0.20204 0.19860
 C64 C 0.02860 -0.24833 0.17540
 H65 H 0.08524 -0.42881 0.10638
 H66 H -0.11704 -0.36502 0.06410
 H67 H -0.13553 -0.20102 0.20489
 H68 H 0.06293 -0.17824 0.20595
 H69 H 0.08055 -0.36178 0.15578
 H70 H 0.07387 -0.25899 0.16551
 C71 C -0.03423 0.23251 0.12711
 C72 C -0.08824 0.28003 0.11207
 C73 C -0.08269 0.33475 0.08501
 C74 C -0.02342 0.34242 0.07327
 C75 C 0.02944 0.29410 0.08937
 N76 N 0.02261 0.24089 0.11513
 C77 C -0.03791 0.17138 0.15341
 N78 N 0.00245 0.11767 0.15145
 C79 C 0.00103 0.05901 0.17350
 C80 C -0.04278 0.05197 0.19967
 C81 C -0.08336 0.10686 0.20335
 C82 C -0.08142 0.16677 0.18004
 H83 H -0.12466 0.37094 0.07326
 H84 H 0.07594 0.29795 0.08101
 H85 H 0.03401 0.01786 0.17048
 H86 H -0.11758 0.10313 0.22336
 H87 H -0.13460 0.27424 0.12012
 H88 H -0.11325 0.20876 0.18301
 C89 C 0.29607 0.03024 0.62350
 C90 C 0.32995 -0.02974 0.62158
 C91 C 0.37372 -0.03280 0.59575
 C92 C 0.38419 0.02367 0.57184
 C93 C 0.35066 0.08291 0.57540
 N94 N 0.30805 0.08469 0.60081
 C95 C 0.24736 0.03551 0.64934
 N96 N 0.23525 0.09059 0.66345
 C97 C 0.19050 0.09878 0.68699
 C98 C 0.15450 0.04951 0.69766
 C99 C 0.16478 -0.00648 0.68192
 C100 C 0.21122 -0.01393 0.65822
 H101 H 0.39896 -0.07951 0.59430
 H102 H 0.35776 0.12768 0.55779
 H103 H 0.18255 0.14435 0.69628
 H104 H 0.13618 -0.04446 0.68765
 H105 H 0.32320 -0.07390 0.63998
 H106 H 0.21725 -0.05722 0.64612
 C107 C -0.25916 0.06541 0.62703
 C108 C -0.28477 0.00782 0.63381
 C109 C -0.33467 -0.00245 0.60642
 C110 C -0.35969 0.04470 0.57251
 C111 C -0.33382 0.10228 0.56725
 N112 N -0.28420 0.11063 0.59394
 C113 C -0.20130 0.07484 0.65268
 N114 N -0.15839 0.10801 0.63609
 C115 C -0.10054 0.11203 0.65665
 C116 C -0.08232 0.08027 0.69623
 C117 C -0.12797 0.05035 0.71470
 C118 C -0.18729 0.04709 0.69300
 H119 H -0.35335 -0.04751 0.61163
 H120 H -0.35170 0.13978 0.54143
 H121 H -0.06811 0.13829 0.64158
 H122 H -0.11725 0.02708 0.74535
 H123 H -0.26487 -0.03009 0.65910
 H124 H -0.22116 0.02205 0.70746
 C125 C 0.03175 -0.23092 0.88120
 C126 C 0.08600 -0.27388 0.90241
 C127 C 0.07842 -0.33183 0.92545
 C128 C 0.01696 -0.34812 0.92735
 C129 C -0.03603 -0.30446 0.90492
 N130 N -0.02735 -0.24799 0.88283
 C131 C 0.03698 -0.16878 0.85588
 N132 N -0.01340 -0.13926 0.82716
 C133 C -0.01116 -0.08391 0.80159
 C134 C 0.04460 -0.05559 0.80373
 C135 C 0.09639 -0.08386 0.83367
 C136 C 0.09262 -0.13987 0.86005
 H137 H 0.12103 -0.36385 0.94174
 H138 H -0.08441 -0.31468 0.90515
 H139 H -0.05159 -0.06415 0.77849
 H140 H 0.14006 -0.06287 0.83633
 H141 H 0.13412 -0.26398 0.90099
 H142 H 0.13311 -0.15988 0.88315
 C143 C 0.02716 0.29923 0.86784
 C144 C 0.07922 0.32829 0.88155
 C145 C 0.07128 0.37188 0.90644
 C146 C 0.01141 0.38806 0.91725
 C147 C -0.04032 0.36059 0.90145
 N148 N -0.03117 0.31713 0.87770
 C149 C 0.03432 0.24968 0.84306
 N150 N -0.01862 0.23713 0.82065
 C151 C -0.01499 0.19299 0.79688
 C152 C 0.04468 0.15914 0.79437
 C153 C 0.09941 0.16978 0.81811
 C154 C 0.09448 0.21436 0.84260
 H155 H 0.11225 0.39277 0.91738
 H156 H -0.08741 0.37202 0.90893
 H157 H -0.05837 0.18572 0.77917
 H158 H 0.14614 0.14312 0.81800
 H159 H 0.12579 0.31806 0.87324
 H160 H 0.13755 0.22004 0.86117
 C161 C -0.29381 -0.01289 0.36798
 C162 C -0.33041 0.04748 0.36650
 C163 C -0.37429 0.05331 0.39230
 C164 C -0.38229 -0.00079 0.41955
 C165 C -0.34534 -0.06038 0.41953
 N166 N -0.30297 -0.06468 0.39423
 C167 C -0.24602 -0.02323 0.34179
 N168 N -0.22464 -0.08485 0.33885
 C169 C -0.18016 -0.09948 0.31629
 C170 C -0.15371 -0.05041 0.29486
 C171 C -0.17441 0.01351 0.29770
 C172 C -0.22041 0.02737 0.32105
 H173 H -0.40186 0.10027 0.39082
 H174 H -0.34965 -0.10371 0.43970
 H175 H -0.16467 -0.14965 0.31594
 H176 H -0.15549 0.05295 0.28175
 H177 H -0.32628 0.08979 0.34552
 H178 H -0.23442 0.07700 0.32314
 C179 C 0.24107 -0.04429 0.38019
 C180 C 0.28995 -0.09579 0.39870
 C181 C 0.34569 -0.08358 0.42024
 C182 C 0.35366 -0.02022 0.42310
 C183 C 0.30476 0.03014 0.40310
 N184 N 0.25049 0.01700 0.38256
 C185 C 0.18022 -0.05445 0.35743
 N186 N 0.14400 -0.00396 0.33072
 C187 C 0.08883 -0.01004 0.30780
 C188 C 0.06769 -0.07004 0.31067
 C189 C 0.10292 -0.12215 0.33888
 C190 C 0.15872 -0.11453 0.36248
 H191 H 0.38242 -0.12388 0.43484
 H192 H 0.30894 0.07977 0.40445
 H193 H 0.06315 0.03131 0.28625
 H194 H 0.08744 -0.16894 0.34253
 H195 H 0.28606 -0.14509 0.39650
 H196 H 0.18417 -0.15546 0.38434
   
