data_POSCAR
  _audit_creation_date              2014-09-24
  _audit_creation_method            'ToBaCCo'
  _symmetry_space_group_name_H-M    'P1'
  _symmetry_Int_Tables_number       1
  _symmetry_cell_setting            triclinic
  loop_
  _symmetry_equiv_pos_as_xyz
 x,y,z
_cell_length_a 38.0643
_cell_length_b 37.3268
_cell_length_c 13.6933
_cell_angle_alpha 90.201500
_cell_angle_beta 91.720200
_cell_angle_gamma 90.517600
loop_
  _atom_site_label
  _atom_site_type_symbol
  _atom_site_fract_x
  _atom_site_fract_y
  _atom_site_fract_z
C1 C 0.71684 0.27828 0.54343
 C2 C 0.71689 0.27388 0.43417
 C3 C 0.73532 0.24654 0.39029
 C4 C 0.75641 0.22227 0.44285
 C5 C 0.75899 0.22420 0.54726
 C6 C 0.74017 0.25078 0.59658
 H7 H 0.74041 0.25158 0.67556
 H8 H 0.73408 0.24506 0.31100
 C9 C 0.21679 0.76802 0.53669
 C10 C 0.21060 0.76252 0.43514
 C11 C 0.22653 0.73360 0.38912
 C12 C 0.24977 0.71078 0.44019
 C13 C 0.25688 0.71685 0.54171
 C14 C 0.23953 0.74505 0.58805
 H15 H 0.24435 0.74987 0.66557
 H16 H 0.22058 0.72870 0.31223
 C17 C 0.28418 0.26224 -0.55043
 C18 C 0.29126 0.25805 -0.44903
 C19 C 0.27178 0.23282 -0.39712
 C20 C 0.24427 0.21267 -0.44215
 C21 C 0.23966 0.21445 -0.54605
 C22 C 0.25801 0.24110 -0.59654
 H23 H 0.25394 0.24366 -0.67504
 H24 H 0.27646 0.23098 -0.31871
 C25 C -0.19761 0.75262 -0.52702
 C26 C -0.20758 0.75654 -0.42921
 C27 C -0.23069 0.73169 -0.38925
 C28 C -0.24754 0.70510 -0.44787
 C29 C -0.24240 0.70582 -0.55085
 C30 C -0.21527 0.72743 -0.58717
 H31 H -0.20906 0.72603 -0.66386
 H32 H -0.23474 0.73334 -0.31161
 O33 O -0.03670 0.96992 0.16044
 O34 O 0.02244 0.96797 -0.16873
 O35 O -0.09271 0.99994 -0.10598
 O36 O 0.05129 0.95821 0.00612
 O37 O -0.04538 0.97194 -0.16058
 O38 O 0.03170 0.96759 0.15390
 O39 O 0.07561 0.99084 -0.12955
 O40 O -0.06322 0.96338 0.01626
 C41 C -0.05777 0.95280 0.10249
 C42 C 0.05563 0.96957 -0.18454
 C43 C -0.07865 0.97778 -0.16829
 C44 C 0.04955 0.94929 0.09470
 O45 O 0.03377 1.03879 0.16130
 O46 O -0.03964 1.04257 -0.19019
 O47 O -0.07762 1.02353 0.08912
 O48 O 0.05075 1.05190 -0.06777
 O49 O 0.02363 1.03876 -0.20004
 O50 O -0.03058 1.04201 0.16733
 O51 O 0.07454 1.01782 0.06906
 O52 O -0.05730 1.05721 -0.05071
 Co53 Co -0.00092 1.00486 0.14710
 Co54 Co -0.00926 1.00544 -0.16498
 Co55 Co -0.05664 1.01007 -0.02283
 Co56 Co 0.04662 1.00515 -0.03610
 O57 O -0.00441 1.00947 -0.00695
 C58 C 0.06550 1.03653 0.14038
 C59 C -0.05437 1.06486 -0.13739
 C60 C -0.06315 1.04284 0.15392
 C61 C 0.04323 1.05982 -0.15288
 O62 O 0.45407 0.48894 0.20329
 O63 O 0.53451 0.47404 -0.15013
 O64 O 0.45893 0.45767 -0.08571
 O65 O 0.56592 0.49914 0.14315
 O66 O 0.47304 0.49089 -0.19957
 O67 O 0.51883 0.48270 0.21614
 O68 O 0.55288 0.46327 -0.00421
 O69 O 0.44180 0.45787 0.07449
 C70 C 0.44172 0.46113 0.16431
 C71 C 0.54930 0.45331 -0.08998
 C72 C 0.46015 0.46207 -0.17382
 C73 C 0.55106 0.48001 0.20492
 O74 O 0.52589 0.55311 0.19176
 O75 O 0.48471 0.55665 -0.13929
 O76 O 0.42188 0.52747 0.06617
 O77 O 0.59070 0.51867 -0.03517
 O78 O 0.54755 0.54502 -0.11645
 O79 O 0.45945 0.55642 0.16480
 O80 O 0.55108 0.55843 0.05323
 O81 O 0.43588 0.52876 -0.10663
 Co82 Co 0.49059 0.51945 0.17767
 Co83 Co 0.50894 0.51553 -0.13507
 Co84 Co 0.44402 0.49421 -0.01205
 Co85 Co 0.54896 0.51056 0.02118
 O86 O 0.49589 0.50907 0.02043
 C87 C 0.54606 0.56984 0.13705
 C88 C 0.45189 0.55604 -0.13823
 C89 C 0.42965 0.55346 0.12348
 C90 C 0.58035 0.53858 -0.10955
 C91 C 0.30364 0.28730 0.38706
 C92 C 0.34013 0.29111 0.39193
 C93 C 0.35839 0.31895 0.33607
 C94 C 0.38755 0.33680 0.37901
 C95 C 0.40411 0.36468 0.32967
 C96 C 0.39206 0.37458 0.23561
 C97 C 0.36382 0.35569 0.19125
 C98 C 0.34692 0.32829 0.24119
 C99 C 0.40889 0.40354 0.18026
 C100 C 0.42614 0.43287 0.22407
 H101 H 0.35535 0.27566 0.44461
 H102 H 0.39707 0.32964 0.45163
 H103 H 0.42652 0.37800 0.36467
 H104 H 0.35450 0.36246 0.11813
 H105 H 0.32514 0.31426 0.20509
 H106 H 0.40579 0.40272 0.10132
 H107 H 0.28848 0.30235 0.33339
 H108 H 0.42748 0.43573 0.30278
 C109 C -0.16831 0.77444 0.43539
 C110 C -0.17145 0.79356 0.34829
 C111 C -0.14650 0.82217 0.31875
 C112 C -0.15124 0.83737 0.22586
 C113 C -0.12977 0.86554 0.19577
 C114 C -0.10257 0.87914 0.25785
 C115 C -0.09800 0.86424 0.35121
 C116 C -0.11962 0.83610 0.38154
 C117 C -0.07970 0.90964 0.22921
 C118 C -0.07624 0.92008 0.13231
 H119 H -0.19457 0.78879 0.30182
 H120 H -0.17207 0.82775 0.17655
 H121 H -0.13541 0.87698 0.12473
 H122 H -0.07772 0.87455 0.40121
 H123 H -0.11537 0.82618 0.45484
 H124 H -0.06539 0.92444 0.28606
 H125 H -0.14591 0.77875 0.48437
 H126 H -0.08897 0.90466 0.07420
 C127 C 0.73523 0.68818 0.37995
 C128 C 0.69923 0.68328 0.39438
 C129 C 0.67421 0.66737 0.32131
 C130 C 0.63826 0.67418 0.33045
 C131 C 0.61330 0.65753 0.26844
 C132 C 0.62378 0.63317 0.19669
 C133 C 0.65981 0.62757 0.18446
 C134 C 0.68487 0.64431 0.24657
 C135 C 0.59792 0.61140 0.13874
 C136 C 0.56569 0.60096 0.17620
 H137 H 0.68801 0.69432 0.45960
 H138 H 0.62938 0.69211 0.38683
 H139 H 0.58584 0.66346 0.27792
 H140 H 0.66854 0.60897 0.12949
 H141 H 0.71230 0.63803 0.23813
 H142 H 0.60674 0.59844 0.07297
 H143 H 0.74464 0.68395 0.30698
 H144 H 0.55771 0.61131 0.24593
 C145 C 0.22039 1.18953 0.39536
 C146 C 0.21441 1.15373 0.42036
 C147 C 0.19349 1.12915 0.35643
 C148 C 0.17105 1.10413 0.39916
 C149 C 0.14945 1.08186 0.34069
 C150 C 0.15032 1.08389 0.23821
 C151 C 0.17415 1.10753 0.19548
 C152 C 0.19541 1.13021 0.25402
 C153 C 0.12600 1.06228 0.17523
 C154 C 0.09144 1.05617 0.20176
 H155 H 0.22393 1.14347 0.48992
 H156 H 0.16955 1.10252 0.47794
 H157 H 0.13202 1.06312 0.37570
 H158 H 0.17559 1.10916 0.11672
 H159 H 0.21336 1.14842 0.21907
 H160 H 0.13425 1.05401 0.10359
 H161 H 0.21268 1.19758 0.32188
 H162 H 0.08229 1.06782 0.26886
 C163 C 0.69367 0.30887 -0.41012
 C164 C 0.68404 0.31154 -0.31353
 C165 C 0.65744 0.33827 -0.28617
 C166 C 0.63860 0.33356 -0.20065
 C167 C 0.61192 0.35736 -0.17671
 C168 C 0.60386 0.38677 -0.23751
 C169 C 0.62275 0.39135 -0.32307
 C170 C 0.64931 0.36757 -0.34694
 C171 C 0.57713 0.41395 -0.21327
 C172 C 0.56525 0.41937 -0.11907
 H173 H 0.69262 0.29154 -0.26098
 H174 H 0.64407 0.31100 -0.15318
 H175 H 0.59758 0.35220 -0.11125
 H176 H 0.61725 0.41371 -0.37122
 H177 H 0.66347 0.37221 -0.41320
 H178 H 0.57016 0.43354 -0.26866
 H179 H 0.70646 0.29238 -0.42564
 H180 H 0.57348 0.40171 -0.06054
 C181 C 0.20144 0.79784 -0.40759
 C182 C 0.16599 0.80687 -0.41553
 C183 C 0.15128 0.83937 -0.37030
 C184 C 0.17256 0.86852 -0.33911
 C185 C 0.15754 0.89904 -0.29887
 C186 C 0.12102 0.90140 -0.28992
 C187 C 0.09975 0.87231 -0.32186
 C188 C 0.11476 0.84184 -0.36227
 C189 C 0.10639 0.93356 -0.24239
 C190 C 0.07087 0.94237 -0.24800
 H191 H 0.14833 0.78960 -0.45817
 H192 H 0.20072 0.86830 -0.34707
 H193 H 0.17455 0.92100 -0.27493
 H194 H 0.07159 0.87236 -0.31406
 H195 H 0.09777 0.81989 -0.38635
 H196 H 0.12419 0.95030 -0.19861
 H197 H 0.21844 0.81154 -0.35458
 H198 H 0.05274 0.92714 -0.29444
 C199 C 0.28007 0.69639 -0.39902
 C200 C 0.30946 0.67816 -0.43157
 C201 C 0.33166 0.65573 -0.36606
 C202 C 0.36679 0.64985 -0.38921
 C203 C 0.38811 0.62787 -0.33056
 C204 C 0.37455 0.61110 -0.24769
 C205 C 0.33930 0.61665 -0.22523
 C206 C 0.31804 0.63877 -0.28357
 C207 C 0.39549 0.58564 -0.18786
 C208 C 0.43215 0.58550 -0.18402
 H209 H 0.31856 0.68282 -0.50453
 H210 H 0.37771 0.66213 -0.45329
 H211 H 0.41478 0.62328 -0.35229
 H212 H 0.32808 0.60351 -0.16283
 H213 H 0.29076 0.64171 -0.26528
 H214 H 0.38139 0.56584 -0.14610
 H215 H 0.27719 0.69795 -0.32060
 H216 H 0.44688 0.60665 -0.21846
 C217 C -0.22237 1.19814 -0.39788
 C218 C -0.20532 1.20475 -0.30717
 C219 C -0.17850 1.18039 -0.26326
 C220 C -0.16066 1.15506 -0.31942
 C221 C -0.13403 1.13414 -0.27728
 C222 C -0.12440 1.13803 -0.17785
 C223 C -0.14237 1.16301 -0.12148
 C224 C -0.16883 1.18424 -0.16396
 C225 C -0.09777 1.11467 -0.12970
 C226 C -0.07226 1.09607 -0.18047
 H227 H -0.20899 1.23004 -0.27017
 H228 H -0.16658 1.15150 -0.39637
 H229 H -0.12164 1.11448 -0.32275
 H230 H -0.13582 1.16622 -0.04438
 H231 H -0.18187 1.20367 -0.11899
 H232 H -0.09971 1.11033 -0.05180
 H233 H -0.21893 1.17216 -0.43069
 H234 H -0.06845 1.10140 -0.25704
 C235 C 0.73373 0.67662 -0.40462
 C236 C 0.72082 0.67726 -0.30996
 C237 C 0.70147 0.64666 -0.26853
 C238 C 0.67348 0.65357 -0.20722
 C239 C 0.65407 0.62539 -0.16855
 C240 C 0.66279 0.58970 -0.18879
 C241 C 0.69175 0.58260 -0.24644
 C242 C 0.71077 0.61091 -0.28713
 C243 C 0.64109 0.56018 -0.15104
 C244 C 0.60470 0.56176 -0.16167
 H245 H 0.72094 0.70196 -0.26856
 H246 H 0.66616 0.68087 -0.19083
 H247 H 0.63221 0.63145 -0.12257
 H248 H 0.69905 0.55523 -0.26196
 H249 H 0.73285 0.60486 -0.33219
 H250 H 0.65356 0.53755 -0.11546
 H251 H 0.72807 0.65287 -0.44813
 H252 H 0.59321 0.58303 -0.20548
 C253 C 0.22131 1.19471 -0.37905
 C254 C 0.18556 1.18829 -0.40063
 C255 C 0.16169 1.16841 -0.33565
 C256 C 0.12536 1.16881 -0.35701
 C257 C 0.10200 1.14918 -0.30058
 C258 C 0.11458 1.12853 -0.22153
 C259 C 0.15076 1.12868 -0.19884
 C260 C 0.17414 1.14801 -0.25572
 C261 C 0.09117 1.10564 -0.16324
 C262 C 0.06018 1.09015 -0.20159
 H263 H 0.17402 1.19925 -0.46717
 H264 H 0.11499 1.18421 -0.41809
 H265 H 0.07420 1.15035 -0.31897
 H266 H 0.16112 1.11286 -0.13853
 H267 H 0.20187 1.14602 -0.23769
 H268 H 0.10107 1.09672 -0.09243
 H269 H 0.23074 1.18988 -0.30501
 H270 H 0.05109 1.09645 -0.27509
 C271 C 0.31774 0.27978 -0.39289
 C272 C 0.32088 0.31692 -0.40309
 C273 C 0.34911 0.33865 -0.35428
 C274 C 0.35859 0.37169 -0.39516
 C275 C 0.38476 0.39326 -0.35055
 C276 C 0.40179 0.38226 -0.26327
 C277 C 0.39224 0.34924 -0.22252
 C278 C 0.36626 0.32764 -0.26731
 C279 C 0.42708 0.40542 -0.20744
 C280 C 0.44265 0.43674 -0.24252
 H281 H 0.30314 0.33040 -0.45388
 H282 H 0.34563 0.38088 -0.46190
 H283 H 0.39071 0.41884 -0.38326
 H284 H 0.40452 0.34037 -0.15450
 H285 H 0.35913 0.30293 -0.23175
 H286 H 0.43244 0.39823 -0.13183
 H287 H 0.33437 0.26578 -0.34059
 H288 H 0.44011 0.44402 -0.31874
 C289 C -0.19534 0.78714 -0.36791
 C290 C -0.19651 0.82197 -0.40454
 C291 C -0.18210 0.85332 -0.35111
 C292 C -0.16721 0.88124 -0.40468
 C293 C -0.15189 0.91076 -0.35679
 C294 C -0.15187 0.91309 -0.25445
 C295 C -0.16830 0.88605 -0.20101
 C296 C -0.18305 0.85612 -0.24888
 C297 C -0.13354 0.94263 -0.20223
 C298 C -0.10067 0.95446 -0.23096
 H299 H -0.20597 0.82611 -0.47903
 H300 H -0.16666 0.87978 -0.48367
 H301 H -0.13995 0.93166 -0.39966
 H302 H -0.16874 0.88758 -0.12202
 H303 H -0.19526 0.83541 -0.20601
 H304 H -0.14336 0.95137 -0.13268
 H305 H -0.18723 0.78231 -0.29271
 H306 H -0.08868 0.94224 -0.29346
 C307 C 0.26360 0.67956 0.38697
 C308 C 0.27903 0.68374 0.29646
 C309 C 0.29948 0.65526 0.24961
 C310 C 0.32753 0.66528 0.19111
 C311 C 0.34921 0.63934 0.15155
 C312 C 0.34289 0.60279 0.16856
 C313 C 0.31362 0.59259 0.22208
 C314 C 0.29220 0.61862 0.26314
 C315 C 0.36755 0.57532 0.13499
 C316 C 0.40371 0.58109 0.14412
 H317 H 0.28003 0.71034 0.26506
 H318 H 0.33337 0.69331 0.17853
 H319 H 0.37116 0.64789 0.10851
 H320 H 0.30809 0.56452 0.23509
 H321 H 0.27015 0.61001 0.30556
 H322 H 0.35750 0.54903 0.11438
 H323 H 0.26515 0.65408 0.42421
 H324 H 0.41349 0.60599 0.17601
 C325 C -0.22538 1.19755 0.38483
 C326 C -0.19150 1.18507 0.40650
 C327 C -0.17379 1.15659 0.35079
 C328 C -0.14228 1.14288 0.39020
 C329 C -0.12471 1.11553 0.34284
 C330 C -0.13775 1.10178 0.25289
 C331 C -0.16943 1.11514 0.21368
 C332 C -0.18736 1.14221 0.26190
 C333 C -0.11891 1.07394 0.19804
 C334 C -0.08313 1.06774 0.21316
 H335 H -0.17683 1.19679 0.46774
 H336 H -0.13126 1.15312 0.45870
 H337 H -0.10116 1.10519 0.37809
 H338 H -0.18017 1.10490 0.14481
 H339 H -0.21148 1.15165 0.22801
 H340 H -0.13296 1.05969 0.13965
 H341 H -0.23688 1.19121 0.31373
 H342 H -0.06805 1.08340 0.26635
 C343 C 0.69857 0.29984 0.36984
 C344 C 0.66404 0.30996 0.38527
 C345 C 0.64839 0.34282 0.34378
 C346 C 0.62230 0.35998 0.39618
 C347 C 0.60804 0.39219 0.36330
 C348 C 0.61883 0.40743 0.27507
 C349 C 0.64482 0.39010 0.22225
 C350 C 0.65950 0.35808 0.25608
 C351 C 0.60297 0.44048 0.23431
 C352 C 0.57048 0.45330 0.26243
 H353 H 0.64941 0.29572 0.43991
 H354 H 0.61341 0.34879 0.46414
 H355 H 0.58891 0.40496 0.40818
 H356 H 0.65349 0.40112 0.15386
 H357 H 0.67906 0.34523 0.21265
 H358 H 0.61539 0.45290 0.17262
 H359 H 0.71352 0.31220 0.31289
 H360 H 0.55626 0.44014 0.31941
 C361 C 0.18709 0.78535 0.37455
 C362 C 0.18903 0.82265 0.37774
 C363 C 0.16106 0.84564 0.33589
 C364 C 0.14091 0.83570 0.25222
 C365 C 0.11402 0.85787 0.21668
 C366 C 0.10681 0.89029 0.26439
 C367 C 0.12680 0.89997 0.34824
 C368 C 0.15395 0.87810 0.38283
 C369 C 0.07918 0.91493 0.22845
 C370 C 0.06969 0.91829 0.12975
 H371 H 0.20936 0.83524 0.42347
 H372 H 0.14607 0.81110 0.21342
 H373 H 0.09873 0.84937 0.15272
 H374 H 0.12175 0.92481 0.38627
 H375 H 0.16911 0.88631 0.44742
 H376 H 0.06936 0.93435 0.27971
 H377 H 0.16768 0.77205 0.32748
 H378 H 0.08148 0.90126 0.07590
   
