data_POSCAR
  _audit_creation_date              2014-09-24
  _audit_creation_method            'ToBaCCo'
  _symmetry_space_group_name_H-M    'P1'
  _symmetry_Int_Tables_number       1
  _symmetry_cell_setting            triclinic
  loop_
  _symmetry_equiv_pos_as_xyz
 x,y,z
_cell_length_a 30.4022
_cell_length_b 30.4024
_cell_length_c 30.4092
_cell_angle_alpha 90.199700
_cell_angle_beta 90.212500
_cell_angle_gamma 89.801200
loop_
  _atom_site_label
  _atom_site_type_symbol
  _atom_site_fract_x
  _atom_site_fract_y
  _atom_site_fract_z
N1 N 0.19860 0.19954 0.19948
 N2 N -0.19720 0.80196 0.19920
 N3 N -0.20147 0.19768 -0.19869
 N4 N 0.19844 0.79961 -0.19853
 N5 N 0.19860 1.19783 0.80335
 N6 N 0.80194 0.80300 0.80003
 N7 N 0.19799 0.80108 1.19820
 N8 N 0.80190 1.19882 1.19803
 O9 O 0.43751 0.91882 0.92454
 O10 O 0.38896 0.96105 0.96408
 C11 C 0.39787 0.93032 0.93572
 O12 O 0.56168 0.92323 1.08065
 O13 O 0.60984 0.96264 1.03850
 C14 C 0.60122 0.93431 1.06906
 O15 O 0.43815 0.91930 1.07710
 O16 O 0.38946 0.96177 1.03804
 C17 C 0.39845 0.93107 1.06624
 O18 O 0.56108 0.92284 0.92036
 O19 O 0.60955 0.96266 0.96240
 C20 C 0.60071 0.93410 0.93184
 Zr21 Zr 0.49928 0.94364 0.94502
 O22 O 0.50443 0.87418 0.94468
 O23 O 0.49408 0.94374 0.87556
 Zr24 Zr 0.49968 0.94393 1.05616
 O25 O 0.50474 0.87446 1.05607
 O26 O 0.49519 0.94427 1.12563
 O27 O 0.46024 0.93508 1.00059
 O28 O 0.53770 0.93566 1.00056
 O29 O 0.56022 1.07562 0.92054
 O30 O 0.60901 1.03671 0.96302
 C31 C 0.59991 1.06483 0.93229
 O32 O 0.43755 1.07954 1.07705
 O33 O 0.38901 1.03742 1.03736
 C34 C 0.39791 1.06797 1.06593
 O35 O 0.56122 1.07563 1.08094
 O36 O 0.60962 1.03588 1.03879
 C37 C 0.60084 1.06440 1.06939
 O38 O 0.43690 1.07930 0.92449
 O39 O 0.38870 1.03724 0.96393
 C40 C 0.39734 1.06777 0.93554
 Zr41 Zr 0.49883 1.05478 0.94528
 O42 O 0.50340 1.12426 0.94572
 O43 O 0.49373 1.05478 0.87582
 Zr44 Zr 0.49934 1.05498 1.05625
 O45 O 0.50396 1.12445 1.05616
 O46 O 0.49480 1.05528 1.12571
 Zr47 Zr 0.43379 0.99928 1.00063
 Zr48 Zr 0.56476 0.99927 1.00061
 O49 O 0.53728 1.06291 1.00077
 O50 O 0.45974 1.06352 1.00079
 O51 O 0.53830 0.99921 0.93642
 O52 O 0.46134 0.99949 1.06425
 O53 O 0.46081 0.99916 0.93702
 O54 O 0.53883 0.99946 1.06484
 H55 H 0.55768 0.90984 1.00050
 H56 H 0.44167 0.99959 1.09015
 H57 H 0.55701 1.08878 1.00089
 H58 H 0.44080 0.99908 0.91123
 H59 H 0.51996 0.96198 1.13710
 H60 H 0.51933 1.03717 1.13720
 H61 H 0.47906 1.13591 1.03855
 H62 H 0.47855 1.13575 0.96329
 H63 H 0.51810 1.03652 0.86427
 H64 H 0.51882 0.96128 0.86407
 H65 H 0.48031 0.86267 0.96304
 H66 H 0.48008 0.86293 1.03819
 O67 O 0.07906 0.43685 -0.07756
 O68 O 0.03716 0.38864 -0.03788
 C69 C 0.06761 0.39728 -0.06636
 O70 O 0.07579 0.56121 0.07876
 O71 O 0.03614 0.60966 0.03663
 C72 C 0.06466 0.60083 0.06722
 O73 O 0.07977 0.43812 0.07531
 O74 O 0.03754 0.38956 0.03595
 C75 C 0.06819 0.39851 0.06435
 O76 O 0.07515 0.56056 -0.08159
 O77 O 0.03573 0.60939 -0.03954
 C78 C 0.06405 0.60028 -0.07010
 Zr79 Zr 0.05461 0.49892 -0.05691
 O80 O 0.12409 0.50347 -0.05666
 O81 O 0.05457 0.49380 -0.12635
 Zr82 Zr 0.05487 0.49947 0.05412
 O83 O 0.12436 0.50407 0.05400
 O84 O 0.05496 0.49507 0.12360
 O85 O 0.06335 0.45983 -0.00134
 O86 O 0.06289 0.53739 -0.00143
 O87 O -0.07750 0.56121 -0.08159
 O88 O -0.03824 0.60954 -0.03896
 C89 C -0.06656 0.60081 -0.06976
 O90 O -0.08082 0.43807 0.07472
 O91 O -0.03891 0.38925 0.03515
 C92 C -0.06938 0.39833 0.06357
 O93 O -0.07672 0.56175 0.07863
 O94 O -0.03722 0.60997 0.03658
 C95 C -0.06559 0.60130 0.06712
 O96 O -0.08129 0.43783 -0.07783
 O97 O -0.03855 0.38927 -0.03890
 C98 C -0.06950 0.39818 -0.06701
 Zr99 Zr -0.05644 0.49947 -0.05698
 O100 O -0.12590 0.50454 -0.05719
 O101 O -0.05629 0.49439 -0.12644
 Zr102 Zr -0.05620 0.49975 0.05408
 O103 O -0.12567 0.50490 0.05400
 O104 O -0.05603 0.49512 0.12354
 Zr105 Zr -0.00086 0.43379 -0.00137
 Zr106 Zr -0.00071 0.56487 -0.00145
 O107 O -0.06436 0.53783 -0.00143
 O108 O -0.06505 0.46034 -0.00148
 O109 O -0.00091 0.53847 -0.06566
 O110 O -0.00065 0.46139 0.06220
 O111 O -0.00097 0.46093 -0.06497
 O112 O -0.00063 0.53891 0.06275
 H113 H 0.08870 0.55719 -0.00143
 H114 H -0.00063 0.44167 0.08807
 H115 H -0.09026 0.55771 -0.00140
 H116 H -0.00098 0.44103 -0.09084
 H117 H 0.03704 0.51977 0.13501
 H118 H -0.03816 0.51973 0.13510
 H119 H -0.13724 0.48029 0.03608
 H120 H -0.13740 0.48023 -0.03907
 H121 H -0.03881 0.51920 -0.13788
 H122 H 0.03646 0.51827 -0.13792
 H123 H 0.13562 0.47858 -0.03916
 H124 H 0.13577 0.47938 0.03606
 O125 O 1.08177 -0.07511 0.56232
 O126 O 1.03918 -0.03596 0.61075
 C127 C 1.06994 -0.06428 0.60191
 O128 O 1.07765 0.08170 0.43948
 O129 O 1.03808 0.03969 0.39074
 C130 C 1.06648 0.07018 0.39978
 O131 O 1.08154 0.07813 0.56304
 O132 O 1.03904 0.03904 0.61109
 C133 C 1.06975 0.06725 0.60256
 O134 O 1.07798 -0.07866 0.43895
 O135 O 1.03841 -0.03642 0.39049
 C136 C 1.06687 -0.06706 0.39932
 Zr137 Zr 1.05710 -0.05404 0.50075
 O138 O 1.12657 -0.05422 0.49626
 O139 O 1.05699 -0.12352 0.50525
 Zr140 Zr 1.05702 0.05710 0.50116
 O141 O 1.12650 0.05663 0.49664
 O142 O 1.05701 0.12658 0.50619
 O143 O 1.06575 0.00150 0.54033
 O144 O 1.06522 0.00153 0.46280
 O145 O 0.92561 -0.07844 0.43836
 O146 O 0.96508 -0.03639 0.39015
 C147 C 0.93673 -0.06695 0.39883
 O148 O 0.92118 0.07781 0.56243
 O149 O 0.96335 0.03825 0.61103
 C150 C 0.93266 0.06665 0.60207
 O151 O 0.92493 0.08202 0.43903
 O152 O 0.96409 0.03933 0.39067
 C153 C 0.93584 0.07020 0.39944
 O154 O 0.92148 -0.07446 0.56188
 O155 O 0.96346 -0.03499 0.61074
 C156 C 0.93296 -0.06340 0.60161
 Zr157 Zr 0.94601 -0.05370 0.50026
 O158 O 0.87654 -0.05310 0.49495
 O159 O 0.94569 -0.12316 0.50488
 Zr160 Zr 0.94584 0.05719 0.50064
 O161 O 0.87637 0.05708 0.49550
 O162 O 0.94563 0.12666 0.50574
 Zr163 Zr 1.00152 0.00163 0.56623
 Zr164 Zr 1.00162 0.00166 0.43525
 O165 O 0.93795 0.00175 0.46216
 O166 O 0.93729 0.00175 0.53974
 O167 O 1.00161 -0.06255 0.46123
 O168 O 1.00137 0.06523 0.53910
 O169 O 1.00153 -0.06196 0.53864
 O170 O 1.00145 0.06586 0.46167
 H171 H 1.09103 0.00147 0.44300
 H172 H 1.00121 0.09112 0.55898
 H173 H 0.91211 0.00172 0.44221
 H174 H 1.00147 -0.08789 0.55829
 H175 H 1.03893 0.13810 0.48168
 H176 H 0.96375 0.13815 0.48142
 H177 H 0.86490 0.03933 0.52010
 H178 H 0.86498 -0.03593 0.52008
 H179 H 0.96412 -0.13476 0.48073
 H180 H 1.03925 -0.13492 0.48041
 H181 H 1.13803 -0.03620 0.52087
 H182 H 1.13795 0.03905 0.52151
 C183 C 1.13128 0.13486 0.29276
 C184 C 1.14107 0.14640 0.33625
 C185 C 1.11973 0.12563 0.37096
 C186 C 1.17434 0.17599 0.22984
 C187 C 1.07829 0.08158 0.31879
 C188 C 1.09976 0.10250 0.28403
 C189 C 1.15405 0.15651 0.25760
 C190 C 1.08818 0.09284 0.36270
 H191 H 1.16539 0.17143 0.34336
 H192 H 1.12819 0.13516 0.40427
 H193 H 1.05416 0.05651 0.31126
 H194 H 1.09190 0.09335 0.25046
 C195 C 0.87117 -0.13226 0.29177
 C196 C 0.86202 -0.14376 0.33523
 C197 C 0.88371 -0.12282 0.36989
 C198 C 0.82738 -0.17407 0.22929
 C199 C 0.92431 -0.07868 0.31773
 C200 C 0.90247 -0.09980 0.28299
 C201 C 0.84802 -0.15421 0.25678
 C202 C 0.91495 -0.08984 0.36163
 H203 H 0.83796 -0.16894 0.34237
 H204 H 0.87574 -0.13243 0.40317
 H205 H 0.94827 -0.05356 0.31022
 H206 H 0.90990 -0.09078 0.24940
 C207 C 0.86584 0.13091 0.70878
 C208 C 0.89831 0.09938 0.71773
 C209 C 0.92006 0.07814 0.68308
 C210 C 0.82296 0.17361 0.77122
 C211 C 0.87662 0.11987 0.63067
 C212 C 0.85504 0.14096 0.66524
 C213 C 0.84326 0.15345 0.74373
 C214 C 0.90949 0.08827 0.63911
 H215 H 0.90688 0.09133 0.75137
 H216 H 0.94517 0.05397 0.69073
 H217 H 0.86759 0.12854 0.59732
 H218 H 0.82994 0.16530 0.65796
 C219 C 1.13459 -0.13055 0.70874
 C220 C 1.14626 -0.13981 0.66526
 C221 C 1.12549 -0.11796 0.63066
 C222 C 1.17529 -0.17521 0.77127
 C223 C 1.08120 -0.07699 0.68293
 C224 C 1.10214 -0.09899 0.71760
 C225 C 1.15605 -0.15412 0.74372
 C226 C 1.09256 -0.08641 0.63900
 H227 H 1.17135 -0.16417 0.65806
 H228 H 1.13511 -0.12608 0.59735
 H229 H 1.05602 -0.05287 0.69050
 H230 H 1.09289 -0.09156 0.75119
 C231 C 0.29116 1.13289 1.13210
 C232 C 0.33468 1.14438 1.14147
 C233 C 0.36925 1.12351 1.11966
 C234 C 0.22869 1.17506 1.17546
 C235 C 0.31688 1.07945 1.07855
 C236 C 0.28224 1.10049 1.10051
 C237 C 0.25620 1.15496 1.15512
 C238 C 0.36084 1.09067 1.08802
 H239 H 0.34193 1.16948 1.16580
 H240 H 0.40259 1.13304 1.12784
 H241 H 0.30924 1.05433 1.05439
 H242 H 0.24861 1.09144 1.09294
 C243 C 0.29105 0.86399 0.87103
 C244 C 0.28215 0.89676 0.90224
 C245 C 0.31683 0.91824 0.92374
 C246 C 0.22856 0.82275 0.82676
 C247 C 0.36919 0.87391 0.88291
 C248 C 0.33459 0.85258 0.86158
 C249 C 0.25608 0.84215 0.84777
 C250 C 0.36080 0.90716 0.91412
 H251 H 0.24852 0.90585 0.90976
 H252 H 0.30920 0.94365 0.94759
 H253 H 0.40253 0.86447 0.87465
 H254 H 0.34183 0.82730 0.83743
 C255 C 0.70897 0.86944 1.13410
 C256 C 0.71740 0.90106 1.10187
 C257 C 0.68241 0.92254 1.08080
 C258 C 0.77224 0.82626 1.17552
 C259 C 0.63065 0.88091 1.12442
 C260 C 0.66557 0.85956 1.14534
 C261 C 0.74433 0.84662 1.15591
 C262 C 0.63858 0.91257 1.09177
 H263 H 0.75091 0.90899 1.09296
 H264 H 0.68969 0.94675 1.05584
 H265 H 0.59743 0.87236 1.13374
 H266 H 0.65868 0.83516 1.17026
 C267 C 0.70627 1.12998 0.86693
 C268 C 0.71539 1.09872 0.89944
 C269 C 0.68086 1.07715 0.92068
 C270 C 0.76852 1.17331 0.82515
 C271 C 0.62822 1.11803 0.87664
 C272 C 0.66268 1.13945 0.85557
 C273 C 0.74110 1.15288 0.84493
 C274 C 0.63683 1.08670 0.90955
 H275 H 0.74907 1.09113 0.90844
 H276 H 0.68864 1.05321 0.94585
 H277 H 0.59482 1.12625 0.86720
 H278 H 0.65527 1.16358 0.83044
 C279 C 0.13307 0.29206 0.13099
 C280 C 0.14477 0.33560 0.13997
 C281 C 0.12397 0.37006 0.11792
 C282 C 0.17468 0.22971 0.17501
 C283 C 0.07964 0.31753 0.07731
 C284 C 0.10060 0.28299 0.09951
 C285 C 0.15492 0.25721 0.15436
 C286 C 0.09095 0.36152 0.08651
 H287 H 0.16997 0.34296 0.16417
 H288 H 0.13368 0.40342 0.12576
 H289 H 0.05448 0.30980 0.05322
 H290 H 0.09143 0.24934 0.09223
 C291 C -0.13573 0.29108 -0.13142
 C292 C -0.14707 0.33458 -0.14116
 C293 C -0.12569 0.36930 -0.12005
 C294 C -0.17773 0.22813 -0.17435
 C295 C -0.08138 0.31712 -0.07893
 C296 C -0.10292 0.28235 -0.10019
 C297 C -0.15793 0.25592 -0.15406
 C298 C -0.09248 0.36105 -0.08875
 H299 H -0.17241 0.34170 -0.16529
 H300 H -0.13512 0.40262 -0.12846
 H301 H -0.05601 0.30960 -0.05500
 H302 H -0.09390 0.24877 -0.09241
 C303 C 0.12917 0.70691 -0.13513
 C304 C 0.09760 0.71588 -0.10290
 C305 C 0.07597 0.68126 -0.08188
 C306 C 0.17337 0.76943 -0.17563
 C307 C 0.11735 0.62879 -0.12562
 C308 C 0.13883 0.66335 -0.14649
 C309 C 0.15246 0.74186 -0.15654
 C310 C 0.08578 0.63726 -0.09291
 H311 H 0.08988 0.74952 -0.09387
 H312 H 0.05187 0.68895 -0.05685
 H313 H 0.12580 0.59543 -0.13496
 H314 H 0.16323 0.65606 -0.17139
 C315 C -0.13047 0.70871 0.13262
 C316 C -0.14031 0.66527 0.14367
 C317 C -0.11897 0.63048 0.12257
 C318 C -0.17330 0.77162 0.17487
 C319 C -0.07738 0.68247 0.07917
 C320 C -0.09887 0.71733 0.10043
 C321 C -0.15315 0.74390 0.15480
 C322 C -0.08732 0.63858 0.08995
 H323 H -0.16466 0.65824 0.16859
 H324 H -0.12750 0.59721 0.13176
 H325 H -0.05318 0.68988 0.05424
 H326 H -0.09094 0.75090 0.09172
 C327 C 1.13465 0.13196 0.71073
 C328 C 1.10225 0.10044 0.71894
 C329 C 1.08120 0.07908 0.68383
 C330 C 1.17617 0.17488 0.77432
 C331 C 1.12513 0.12064 0.63230
 C332 C 1.14603 0.14187 0.66736
 C333 C 1.15651 0.15460 0.74627
 C334 C 1.09234 0.08905 0.64004
 H335 H 1.09320 0.09246 0.75239
 H336 H 1.05616 0.05493 0.69100
 H337 H 1.13460 0.12918 0.59913
 H338 H 1.17107 0.16617 0.66059
 C339 C 0.86762 -0.12886 0.70796
 C340 C 0.89983 -0.09727 0.71710
 C341 C 0.92101 -0.07557 0.68259
 C342 C 0.82585 -0.17248 0.77014
 C343 C 0.87752 -0.11693 0.62991
 C344 C 0.85651 -0.13848 0.66434
 C345 C 0.84565 -0.15191 0.74278
 C346 C 0.91016 -0.08530 0.63854
 H347 H 0.90866 -0.08954 0.75079
 H348 H 0.94595 -0.05139 0.69042
 H349 H 0.86826 -0.12530 0.59650
 H350 H 0.83161 -0.16285 0.65689
 C351 C 1.13178 -0.13249 0.29195
 C352 C 1.10013 -0.10004 0.28335
 C353 C 1.07869 -0.07881 0.31820
 C354 C 1.17427 -0.17469 0.22877
 C355 C 1.12041 -0.12269 0.37020
 C356 C 1.14173 -0.14377 0.33541
 C357 C 1.15431 -0.15468 0.25667
 C358 C 1.08870 -0.08985 0.36210
 H359 H 1.09212 -0.09110 0.24980
 H360 H 1.05443 -0.05371 0.31076
 H361 H 1.12898 -0.13208 0.40347
 H362 H 1.16611 -0.16888 0.34246
 C363 C 0.87075 0.13522 0.29189
 C364 C 0.86116 0.14696 0.33532
 C365 C 0.88256 0.12605 0.37019
 C366 C 0.82686 0.17589 0.22863
 C367 C 0.92368 0.08146 0.31831
 C368 C 0.90214 0.10251 0.28339
 C369 C 0.84762 0.15674 0.25657
 C370 C 0.91400 0.09292 0.36217
 H371 H 0.83688 0.17221 0.34228
 H372 H 0.87421 0.13574 0.40343
 H373 H 0.94768 0.05611 0.31095
 H374 H 0.90981 0.09314 0.24988
 C375 C 0.13307 0.28958 -0.13122
 C376 C 0.10063 0.28109 -0.09982
 C377 C 0.07937 0.31603 -0.07839
 C378 C 0.17549 0.22653 -0.17398
 C379 C 0.12320 0.36790 -0.11964
 C380 C 0.14429 0.33303 -0.14092
 C381 C 0.15530 0.25428 -0.15383
 C382 C 0.09039 0.35991 -0.08814
 H383 H 0.09170 0.24755 -0.09201
 H384 H 0.05424 0.30868 -0.05439
 H385 H 0.13254 0.40115 -0.12808
 H386 H 0.16937 0.34001 -0.16513
 C387 C -0.13441 0.29157 0.12883
 C388 C -0.10196 0.28264 0.09746
 C389 C -0.08096 0.31728 0.07578
 C390 C -0.17506 0.22898 0.17299
 C391 C -0.12512 0.36972 0.11670
 C392 C -0.14597 0.33515 0.13822
 C393 C -0.15589 0.25657 0.15211
 C394 C -0.09219 0.36129 0.08534
 H395 H -0.09274 0.24900 0.08993
 H396 H -0.05578 0.30958 0.05182
 H397 H -0.13467 0.40308 0.12493
 H398 H -0.17103 0.34245 0.16245
 C399 C -0.13116 0.70867 -0.13489
 C400 C -0.14125 0.66524 -0.14630
 C401 C -0.12006 0.63028 -0.12532
 C402 C -0.17392 0.77223 -0.17636
 C403 C -0.07818 0.68203 -0.08127
 C404 C -0.09950 0.71704 -0.10240
 C405 C -0.15376 0.74414 -0.15678
 C406 C -0.08833 0.63818 -0.09243
 H407 H -0.16568 0.65836 -0.17141
 H408 H -0.12873 0.59705 -0.13480
 H409 H -0.05390 0.68932 -0.05616
 H410 H -0.09139 0.75054 -0.09333
 C411 C 0.13006 0.70787 0.13274
 C412 C 0.13972 0.66436 0.14405
 C413 C 0.11820 0.62968 0.12297
 C414 C 0.17355 0.77071 0.17442
 C415 C 0.07679 0.68192 0.07907
 C416 C 0.09846 0.71666 0.10030
 C417 C 0.15306 0.74299 0.15471
 C418 C 0.08656 0.63798 0.09009
 H419 H 0.16411 0.65718 0.16913
 H420 H 0.12661 0.59636 0.13237
 H421 H 0.05261 0.68948 0.05394
 H422 H 0.09070 0.75026 0.09132
 C423 C 0.28995 1.13319 0.87020
 C424 C 0.28130 1.10070 0.90151
 C425 C 0.31614 1.07950 0.92317
 C426 C 0.22717 1.17511 0.82658
 C427 C 0.36819 1.12350 0.88233
 C428 C 0.33343 1.14454 0.86083
 C429 C 0.25478 1.15520 0.84717
 C430 C 0.36005 1.09059 0.91368
 H431 H 0.24773 1.09168 0.90906
 H432 H 0.30869 1.05434 0.94712
 H433 H 0.40147 1.13296 0.87415
 H434 H 0.34052 1.16966 0.83669
 C435 C 0.29132 0.86609 1.13098
 C436 C 0.33485 0.85452 1.14064
 C437 C 0.36957 0.87544 1.11937
 C438 C 0.22835 0.82470 1.17395
 C439 C 0.31735 0.91973 1.07829
 C440 C 0.28259 0.89867 1.09969
 C441 C 0.25613 0.84427 1.15369
 C442 C 0.36131 0.90843 1.08802
 H443 H 0.34201 0.82934 1.16478
 H444 H 0.40289 0.86583 1.12771
 H445 H 0.30979 0.94494 1.05431
 H446 H 0.24899 0.90787 1.09193
 C447 C 0.70829 1.12965 1.13443
 C448 C 0.71686 1.09807 1.10191
 C449 C 0.68199 1.07642 1.08090
 C450 C 0.77140 1.17379 1.17503
 C451 C 0.63003 1.11777 1.12516
 C452 C 0.66484 1.13927 1.14603
 C453 C 0.74355 1.15292 1.15589
 C454 C 0.63810 1.08618 1.09219
 H455 H 0.75040 1.09037 1.09266
 H456 H 0.68940 1.05231 1.05566
 H457 H 0.59676 1.12618 1.13472
 H458 H 0.65782 1.16367 1.17113
 C459 C 0.70813 0.86931 0.86632
 C460 C 0.66465 0.85937 0.85503
 C461 C 0.62984 0.88066 0.87612
 C462 C 0.77134 0.82676 0.82420
 C463 C 0.68186 0.92234 0.92005
 C464 C 0.71673 0.90092 0.89880
 C465 C 0.74342 0.84675 0.84416
 C466 C 0.63795 0.91234 0.90900
 H467 H 0.65761 0.83501 0.82989
 H468 H 0.59656 0.87208 0.86673
 H469 H 0.68930 0.94655 0.94518
 H470 H 0.75029 0.90893 0.90775
   
