data_POSCAR
  _audit_creation_date              2014-09-24
  _audit_creation_method            'ToBaCCo'
  _symmetry_space_group_name_H-M    'P1'
  _symmetry_Int_Tables_number       1
  _symmetry_cell_setting            triclinic
  loop_
  _symmetry_equiv_pos_as_xyz
 x,y,z
_cell_length_a 34.7151
_cell_length_b 33.6834
_cell_length_c 34.6888
_cell_angle_alpha 89.905600
_cell_angle_beta 90.197800
_cell_angle_gamma 90.066000
loop_
  _atom_site_label
  _atom_site_type_symbol
  _atom_site_fract_x
  _atom_site_fract_y
  _atom_site_fract_z
C1 C 0.59572 0.64851 0.61330
 N2 N 0.62556 0.64276 0.58878
 C3 C 0.65117 0.61295 0.59517
 N4 N 0.64654 0.58862 0.62604
 C5 C 0.61667 0.59409 0.65075
 N6 N 0.59129 0.62399 0.64412
 C7 C 0.90541 0.34802 0.11521
 N8 N 0.87637 0.35483 0.08974
 C9 C 0.85183 0.38576 0.09490
 N10 N 0.85678 0.41033 0.12548
 C11 C 0.88573 0.40377 0.15119
 N12 N 0.91001 0.37270 0.14590
 C13 C 0.40555 0.14937 -0.11238
 N14 N 0.37571 0.14321 -0.08792
 C15 C 0.35064 0.11283 -0.09404
 N16 N 0.35588 0.08824 -0.12454
 C17 C 0.38569 0.09422 -0.14918
 N18 N 0.41058 0.12465 -0.14288
 C19 C 0.09607 0.84887 0.38379
 N20 N 0.09208 0.87343 0.35286
 C21 C 0.11706 0.90392 0.34716
 N22 N 0.14626 0.90985 0.37278
 C23 C 0.15057 0.88546 0.40367
 N24 N 0.12528 0.85516 0.40919
 N25 N 0.07867 0.18812 0.11870
 N26 N 0.06681 0.16754 0.14864
 C27 C 0.03703 0.18655 0.16517
 C28 C 0.02939 0.22033 0.14391
 C29 C 0.05629 0.22046 0.11460
 H30 H 0.02216 0.17669 0.19081
 H31 H 0.06034 0.24328 0.09302
 Cu32 Cu 0.09132 0.11795 0.16323
 Cu33 Cu 0.12456 0.17364 0.08982
 Cu34 Cu 0.17676 0.09361 0.12462
 N35 N 0.12348 0.07685 0.18569
 N36 N 0.15755 0.06849 0.17141
 C37 C 0.17466 0.04094 0.19381
 C38 C 0.14969 0.03112 0.22322
 C39 C 0.11744 0.05445 0.21727
 H40 H 0.20310 0.02886 0.18907
 H41 H 0.09212 0.05598 0.23527
 N42 N 0.19119 0.12297 0.07762
 N43 N 0.17187 0.15416 0.06498
 C44 C 0.19024 0.16943 0.03418
 C45 C 0.22213 0.14635 0.02673
 C46 C 0.22192 0.11711 0.05473
 H47 H 0.18137 0.19563 0.01845
 H48 H 0.24337 0.09425 0.05894
 H49 H 0.12507 0.11344 0.10179
 H50 H 0.14983 0.14679 0.13714
 N51 N 0.42079 0.80970 0.62043
 N52 N 0.43137 0.82854 0.65191
 C53 C 0.46200 0.80988 0.66753
 C54 C 0.47142 0.77819 0.64425
 C55 C 0.44472 0.77888 0.61457
 H56 H 0.47623 0.81832 0.69406
 H57 H 0.44193 0.75764 0.59138
 Cu58 Cu 0.40344 0.87495 0.66987
 Cu59 Cu 0.37491 0.82448 0.59128
 Cu60 Cu 0.32405 0.90655 0.62348
 N61 N 0.37506 0.92129 0.68729
 N62 N 0.34333 0.93273 0.66972
 C63 C 0.32787 0.96337 0.68914
 C64 C 0.35147 0.97195 0.72013
 C65 C 0.38118 0.94471 0.71816
 H66 H 0.30125 0.97814 0.68155
 H67 H 0.40459 0.94129 0.73853
 N68 N 0.30916 0.87612 0.57727
 N69 N 0.32780 0.84413 0.56575
 C70 C 0.30904 0.82835 0.53534
 C71 C 0.27763 0.85189 0.52697
 C72 C 0.27851 0.88194 0.55404
 H73 H 0.31735 0.80154 0.52043
 H74 H 0.25753 0.90536 0.55740
 H75 H 0.37631 0.88394 0.60554
 H76 H 0.34604 0.85100 0.63645
 N77 N 0.91986 0.69142 0.37849
 N78 N 0.92972 0.67315 0.34654
 C79 C 0.95942 0.69268 0.33028
 C80 C 0.96908 0.72427 0.35368
 C81 C 0.94346 0.72265 0.38407
 H82 H 0.97288 0.68487 0.30327
 H83 H 0.94105 0.74365 0.40748
 Cu84 Cu 0.90226 0.62609 0.32907
 Cu85 Cu 0.87481 0.67581 0.40825
 Cu86 Cu 0.82437 0.59300 0.37658
 N87 N 0.87437 0.57909 0.31216
 N88 N 0.84314 0.56711 0.33013
 C89 C 0.82788 0.53602 0.31106
 C90 C 0.85112 0.52771 0.27991
 C91 C 0.88039 0.55557 0.28140
 H92 H 0.80168 0.52072 0.31904
 H93 H 0.90340 0.55929 0.26078
 N94 N 0.80995 0.62319 0.42295
 N95 N 0.82847 0.65539 0.43436
 C96 C 0.80995 0.67100 0.46485
 C97 C 0.77881 0.64714 0.47338
 C98 C 0.77961 0.61707 0.44635
 H99 H 0.81812 0.69801 0.47957
 H100 H 0.75871 0.59350 0.44303
 H101 H 0.87667 0.61642 0.39376
 H102 H 0.84530 0.64895 0.36343
 N103 N 0.57787 0.31337 -0.11756
 N104 N 0.56528 0.33464 -0.14680
 C105 C 0.53448 0.31648 -0.16261
 C106 C 0.52700 0.28246 -0.14168
 C107 C 0.55506 0.28134 -0.11327
 H108 H 0.51882 0.32707 -0.18759
 H109 H 0.55946 0.25818 -0.09209
 Cu110 Cu 0.59036 0.38384 -0.16165
 Cu111 Cu 0.62468 0.32700 -0.08942
 Cu112 Cu 0.67731 0.40642 -0.12467
 N113 N 0.62293 0.42409 -0.18486
 N114 N 0.65748 0.43185 -0.17116
 C115 C 0.67469 0.45885 -0.19402
 C116 C 0.64932 0.46892 -0.22317
 C117 C 0.61671 0.44632 -0.21655
 H118 H 0.70351 0.47032 -0.18984
 H119 H 0.59098 0.44510 -0.23418
 N120 N 0.69228 0.37674 -0.07796
 N121 N 0.67283 0.34569 -0.06523
 C122 C 0.69148 0.33020 -0.03460
 C123 C 0.72372 0.35299 -0.02736
 C124 C 0.72341 0.38229 -0.05531
 H125 H 0.68247 0.30416 -0.01873
 H126 H 0.74497 0.40505 -0.05958
 H127 H 0.62587 0.38730 -0.10093
 H128 H 0.64907 0.35386 -0.13708
 C129 C -0.06929 0.31657 0.10868
 C130 C -0.04282 0.30487 0.13444
 C131 C -0.01548 0.27304 0.12507
 C132 C 0.00071 0.25105 0.15276
 H133 H -0.04140 0.31835 0.16279
 H134 H -0.00895 0.26717 0.09507
 H135 H -0.07175 0.30063 0.08163
 H136 H -0.00802 0.25488 0.18249
 C137 C 0.56770 0.68027 0.60538
 C138 C 0.54536 0.69542 0.63296
 C139 C 0.51650 0.72606 0.62403
 C140 C 0.50151 0.74845 0.65193
 H141 H 0.54855 0.68540 0.66253
 H142 H 0.50771 0.73053 0.59432
 H143 H 0.56595 0.69200 0.57631
 H144 H 0.51211 0.74550 0.68122
 C145 C 1.07011 0.81790 0.39042
 C146 C 1.04331 0.80694 0.36470
 C147 C 1.01553 0.77527 0.37370
 C148 C 0.99815 0.75492 0.34558
 H149 H 1.04198 0.82085 0.33651
 H150 H 1.00966 0.76818 0.40361
 H151 H 1.07237 0.80173 0.41740
 H152 H 1.00613 0.76013 0.31581
 C153 C 0.43315 0.18151 -0.10445
 C154 C 0.45485 0.19766 -0.13207
 C155 C 0.48347 0.22845 -0.12280
 C156 C 0.49718 0.25261 -0.15006
 H157 H 0.45134 0.18834 -0.16178
 H158 H 0.49312 0.23162 -0.09320
 H159 H 0.43512 0.19268 -0.07521
 H160 H 0.48565 0.25112 -0.17910
 C161 C 0.11163 -0.07081 0.31565
 C162 C 0.13691 -0.04258 0.30571
 C163 C 0.12881 -0.01565 0.27325
 C164 C 0.15727 0.00330 0.25507
 H165 H 0.16398 -0.03942 0.32111
 H166 H 0.09927 -0.01187 0.26369
 H167 H 0.08588 -0.07480 0.29826
 H168 H 0.18697 -0.00266 0.26288
 C169 C 0.61103 0.56899 -0.31767
 C170 C 0.63657 0.54137 -0.30680
 C171 C 0.62844 0.51484 -0.27408
 C172 C 0.65688 0.49625 -0.25540
 H173 H 0.66392 0.53851 -0.32156
 H174 H 0.59888 0.51111 -0.26474
 H175 H 0.58492 0.57267 -0.30095
 H176 H 0.68658 0.50211 -0.26312
 C177 C 0.39245 1.06698 0.81844
 C178 C 0.36440 1.04465 0.80334
 C179 C 0.37257 1.01633 0.77219
 C180 C 0.34425 1.00171 0.75025
 H181 H 0.33515 1.04738 0.81385
 H182 H 0.40214 1.00761 0.76701
 H183 H 0.42116 1.06578 0.80629
 H184 H 0.31504 1.01234 0.75395
 C185 C 0.89229 0.43110 0.18359
 C186 C 0.86435 0.45403 0.19771
 C187 C 0.87239 0.48267 0.22868
 C188 C 0.84398 0.49756 0.25008
 H189 H 0.83525 0.45162 0.18647
 H190 H 0.90196 0.49144 0.23418
 H191 H 0.92077 0.43196 0.19649
 H192 H 0.81478 0.48683 0.24619
 C193 C 0.31895 0.10519 -0.06698
 C194 C 0.30426 0.13379 -0.04484
 C195 C 0.27382 0.12503 -0.01669
 C196 C 0.25153 0.15392 -0.00283
 H197 H 0.31455 0.16407 -0.04765
 H198 H 0.26942 0.09459 -0.00748
 H199 H 0.30693 0.07550 -0.06578
 H200 H 0.25434 0.18386 -0.01398
 C201 C 0.68290 0.60566 0.56811
 C202 C 0.69712 0.63426 0.54553
 C203 C 0.72765 0.62564 0.51748
 C204 C 0.74939 0.65471 0.50290
 H205 H 0.68637 0.66437 0.54790
 H206 H 0.73257 0.59513 0.50892
 H207 H 0.69539 0.57618 0.56730
 H208 H 0.74605 0.68481 0.51336
 C209 C 0.82085 0.39374 0.06693
 C210 C 0.80601 0.36518 0.04469
 C211 C 0.77585 0.37407 0.01609
 C212 C 0.75323 0.34532 0.00225
 H213 H 0.81580 0.33479 0.04793
 H214 H 0.77181 0.40450 0.00669
 H215 H 0.80928 0.42358 0.06531
 H216 H 0.75570 0.31542 0.01360
 C217 C 0.18173 0.89305 0.43156
 C218 C 0.19594 0.86447 0.45422
 C219 C 0.22622 0.87319 0.48275
 C220 C 0.24814 0.84424 0.49732
 H221 H 0.18551 0.83424 0.45145
 H222 H 0.23091 0.90369 0.49153
 H223 H 0.19393 0.92266 0.43277
 H224 H 0.24503 0.81418 0.48662
   
