data_POSCAR
  _audit_creation_date              2014-09-24
  _audit_creation_method            'ToBaCCo'
  _symmetry_space_group_name_H-M    'P1'
  _symmetry_Int_Tables_number       1
  _symmetry_cell_setting            triclinic
  loop_
  _symmetry_equiv_pos_as_xyz
 x,y,z
_cell_length_a 45.0199
_cell_length_b 44.8389
_cell_length_c 44.8387
_cell_angle_alpha 90.002500
_cell_angle_beta 90.000100
_cell_angle_gamma 90.000400
loop_
  _atom_site_label
  _atom_site_type_symbol
  _atom_site_fract_x
  _atom_site_fract_y
  _atom_site_fract_z
C1 C 0.20908 1.23210 0.18808
 C2 C 0.23110 1.20998 0.18826
 C3 C 0.23097 1.18818 0.21017
 C4 C 0.20883 1.18825 0.23217
 C5 C 0.18707 1.21012 0.23200
 C6 C 0.18720 1.23217 0.20983
 C7 C 0.20259 1.25477 0.16840
 N8 N 0.17746 1.26842 0.17786
 C9 C 0.16773 1.25488 0.20303
 C10 C 0.16744 1.20356 0.25464
 N11 N 0.17695 1.17840 0.26836
 C12 C 0.20211 1.16872 0.25491
 C13 C 0.25362 1.16858 0.20370
 N14 N 0.26732 1.17810 0.17856
 C15 C 0.25382 1.20327 0.16882
 H16 H 0.21468 1.26032 0.14826
 H17 H 0.14757 1.26054 0.21494
 H18 H 0.14731 1.21561 0.26011
 H19 H 0.21404 1.14854 0.26063
 H20 H 0.25917 1.14842 0.21578
 H21 H 0.25955 1.21522 0.14863
 C22 C 0.79133 0.76757 0.18811
 C23 C 0.76922 0.78960 0.18815
 C24 C 0.76918 0.81147 0.20999
 C25 C 0.79125 0.81157 0.23206
 C26 C 0.81311 0.78979 0.23203
 C27 C 0.81315 0.76767 0.20993
 C28 C 0.79799 0.74487 0.16852
 N29 N 0.82315 0.73136 0.17810
 C30 C 0.83274 0.74502 0.20326
 C31 C 0.83264 0.79652 0.25470
 N32 N 0.82299 0.82168 0.26831
 C33 C 0.79783 0.83120 0.25475
 C34 C 0.74647 0.83095 0.20338
 N35 N 0.73289 0.82127 0.17823
 C36 C 0.74653 0.79613 0.16861
 H37 H 0.78599 0.73920 0.14835
 H38 H 0.85289 0.73950 0.21525
 H39 H 0.85281 0.78457 0.26027
 H40 H 0.78579 0.85135 0.26038
 H41 H 0.74080 0.85112 0.21538
 H42 H 0.74092 0.78409 0.14845
 C43 C 0.79087 1.23200 -0.18780
 C44 C 0.76878 1.20995 -0.18781
 C45 C 0.76873 1.18809 -0.20966
 C46 C 0.79076 1.18802 -0.23177
 C47 C 0.81260 1.20981 -0.23176
 C48 C 0.81266 1.23193 -0.20966
 C49 C 0.79753 1.25471 -0.16822
 N50 N 0.82266 1.26824 -0.17784
 C51 C 0.83223 1.25460 -0.20302
 C52 C 0.83209 1.20312 -0.25448
 N53 N 0.82242 1.17795 -0.26809
 C54 C 0.79730 1.16840 -0.25448
 C55 C 0.74604 1.16859 -0.20302
 N56 N 0.73250 1.17824 -0.17784
 C57 C 0.74613 1.20339 -0.16824
 H58 H 0.78556 1.26036 -0.14804
 H59 H 0.85235 1.26015 -0.21504
 H60 H 0.85223 1.21508 -0.26010
 H61 H 0.78526 1.14825 -0.26010
 H62 H 0.74036 1.14841 -0.21502
 H63 H 0.74055 1.21541 -0.14806
 C64 C 0.20889 0.76819 -0.18846
 C65 C 0.23097 0.79026 -0.18845
 C66 C 0.23100 0.81215 -0.21027
 C67 C 0.20895 0.81224 -0.23236
 C68 C 0.18712 0.79043 -0.23237
 C69 C 0.18709 0.76828 -0.21029
 C70 C 0.20226 0.74546 -0.16890
 N71 N 0.17713 0.73193 -0.17853
 C72 C 0.16754 0.74560 -0.20368
 C73 C 0.16760 0.79716 -0.25505
 N74 N 0.17724 0.82235 -0.26862
 C75 C 0.20237 0.83189 -0.25503
 C76 C 0.25368 0.83166 -0.20362
 N77 N 0.26724 0.82198 -0.17847
 C78 C 0.25364 0.79681 -0.16889
 H79 H 0.21424 0.73978 -0.14874
 H80 H 0.14740 0.74005 -0.21569
 H81 H 0.14745 0.78520 -0.26066
 H82 H 0.21439 0.85206 -0.26062
 H83 H 0.25933 0.85184 -0.21560
 H84 H 0.25925 0.78476 -0.14873
 C85 C 0.54541 1.04097 -0.00894
 H86 H 0.54616 1.04092 0.01518
 C87 C 0.56555 1.05827 -0.02510
 H88 H 0.58184 1.07170 -0.01343
 C89 C 0.52385 1.02288 -0.05370
 H90 H 0.50798 1.00860 -0.06477
 C91 C 0.54362 1.03985 -0.07072
 H92 H 0.54274 1.03880 -0.09484
 N93 N 0.52499 1.02387 -0.02338
 C94 C 0.45459 1.00900 0.04174
 H95 H 0.45385 0.98489 0.04170
 C96 C 0.43444 1.02516 0.05904
 H97 H 0.41817 1.01350 0.07248
 C98 C 0.47612 1.05376 0.02360
 H99 H 0.49196 1.06483 0.00930
 C100 C 0.45635 1.07078 0.04057
 H101 H 0.45720 1.09490 0.03950
 Zn102 Zn 0.49997 0.99967 0.00038
 N103 N 0.47498 1.02343 0.02461
 C104 C 0.52390 0.97645 0.05444
 N105 N 0.52500 0.97545 0.02411
 C106 C 0.54537 0.95833 0.00965
 C107 C 0.56554 0.94103 0.02577
 C108 C 0.54369 0.95948 0.07143
 C109 C 0.45453 0.99042 -0.04091
 C110 C 0.43436 0.97430 -0.05821
 C111 C 0.45624 0.92864 -0.03982
 C112 C 0.47603 0.94562 -0.02284
 N113 N 0.47492 0.97595 -0.02381
 H114 H 0.50807 0.99074 0.06553
 H115 H 0.54608 0.95837 -0.01447
 H116 H 0.58180 0.92759 0.01408
 H117 H 0.54287 0.96054 0.09555
 H118 H 0.45381 1.01453 -0.04084
 H119 H 0.41809 0.98600 -0.07163
 H120 H 0.45708 0.90451 -0.03879
 H121 H 0.49188 0.93452 -0.00857
 C122 C 0.43530 1.05632 0.05838
 C123 C 0.56468 1.05764 -0.05626
 C124 C 0.43519 0.94314 -0.05760
 C125 C 0.56472 0.94167 0.05693
 C126 C -0.00899 0.54562 1.04092
 H127 H 0.01503 0.54640 1.04087
 C128 C -0.02510 0.56581 1.05825
 H129 H -0.01350 0.58215 1.07170
 C130 C -0.05354 0.52392 1.02282
 H131 H -0.06455 0.50799 1.00853
 C132 C -0.07051 0.54373 1.03981
 H133 H -0.09453 0.54282 1.03878
 N134 N -0.02334 0.52511 1.02380
 C135 C 0.04156 0.45444 1.00900
 H136 H 0.04153 0.45368 0.98488
 C137 C 0.05880 0.43425 1.02518
 H138 H 0.07221 0.41792 1.01354
 C139 C 0.02345 0.47608 1.05373
 H140 H 0.00920 0.49199 1.06478
 C141 C 0.04036 0.45627 1.07077
 H142 H 0.03929 0.45716 1.09489
 Zn143 Zn 0.00036 0.50001 0.99962
 N144 N 0.02447 0.47492 1.02340
 C145 C 0.05421 0.52402 0.97642
 N146 N 0.02400 0.52514 0.97542
 C147 C 0.00961 0.54560 0.95829
 C148 C 0.02568 0.56582 0.94097
 C149 C 0.07114 0.54386 0.95943
 C150 C -0.04075 0.45436 0.99031
 C151 C -0.05799 0.43413 0.97416
 C152 C -0.03965 0.45615 0.92854
 C153 C -0.02274 0.47599 0.94554
 N154 N -0.02372 0.47485 0.97587
 H155 H 0.06525 0.50812 0.99071
 H156 H -0.01441 0.54633 0.95833
 H157 H 0.01405 0.58214 0.92752
 H158 H 0.09517 0.54301 0.96048
 H159 H -0.04069 0.45361 1.01443
 H160 H -0.07137 0.41779 0.98584
 H161 H -0.03862 0.45702 0.90441
 H162 H -0.00852 0.49192 0.93447
 C163 C 0.05814 0.43514 1.05634
 C164 C -0.05613 0.56488 1.05763
 C165 C -0.05738 0.43501 0.94300
 C166 C 0.05672 0.56497 0.94161
 C167 C 1.04081 -0.00904 0.54554
 H168 H 1.04077 0.01508 0.54632
 C169 C 1.05807 -0.02522 0.56573
 H170 H 1.07146 -0.01357 0.58208
 C171 C 1.02277 -0.05378 0.52386
 H172 H 1.00854 -0.06483 0.50794
 C173 C 1.03969 -0.07081 0.54367
 H174 H 1.03865 -0.09493 0.54276
 N175 N 1.02376 -0.02345 0.52505
 C176 C 1.00897 0.04168 0.45437
 H177 H 0.98495 0.04164 0.45361
 C178 C 1.02507 0.05901 0.43417
 H179 H 1.01346 0.07247 0.41784
 C180 C 1.05354 0.02355 0.47600
 H181 H 1.06456 0.00925 0.49191
 C182 C 1.07050 0.04054 0.45619
 H183 H 1.09452 0.03949 0.45707
 Zn184 Zn 0.99966 0.00033 0.49994
 N185 N 1.02334 0.02454 0.47484
 C186 C 0.97657 0.05441 0.52395
 N187 N 0.97556 0.02408 0.52508
 C188 C 0.95850 0.00964 0.54555
 C189 C 0.94127 0.02579 0.56577
 C190 C 0.95966 0.07142 0.54380
 C191 C 0.99039 -0.04095 0.45431
 C192 C 0.97431 -0.05828 0.43410
 C193 C 0.92886 -0.03988 0.45612
 C194 C 0.94580 -0.02288 0.47596
 N195 N 0.97600 -0.02385 0.47480
 H196 H 0.99080 0.06548 0.50804
 H197 H 0.95854 -0.01447 0.54628
 H198 H 0.92787 0.01412 0.58210
 H199 H 0.96072 0.09554 0.54294
 H200 H 1.01441 -0.04088 0.45355
 H201 H 0.98594 -0.07171 0.41776
 H202 H 0.90483 -0.03886 0.45701
 H203 H 0.93477 -0.00861 0.49188
 C204 C 1.05611 0.05837 0.43507
 C205 C 1.05744 -0.05638 0.56481
 C206 C 0.94327 -0.05768 0.43499
 C207 C 0.94191 0.05695 0.56492
 C208 C 0.13403 0.33236 1.13360
 C209 C 0.13284 0.36266 1.14952
 C210 C 0.11764 0.38394 1.13404
 C211 C 0.10516 0.37281 1.10418
 C212 C 0.08630 0.34543 1.11215
 C213 C 0.10147 0.32418 1.12760
 C214 C 0.14726 0.33904 1.10276
 C215 C 0.13208 0.36031 1.08729
 C216 C 0.15024 0.30929 1.15011
 C217 C 0.16330 0.28995 1.16342
 C218 C 0.08869 0.39552 1.08741
 C219 C 0.07490 0.41379 1.07338
 H220 H 0.14302 0.36701 1.17103
 H221 H 0.11481 0.40652 1.14229
 H222 H 0.06305 0.34296 1.10618
 H223 H 0.09122 0.30350 1.13488
 H224 H 0.16684 0.32806 1.09386
 H225 H 0.13865 0.36754 1.06515
 C226 C -0.13293 0.66751 1.13419
 C227 C -0.12595 0.67630 1.10186
 C228 C -0.11060 0.65508 1.08654
 C229 C -0.10371 0.62712 1.10503
 C230 C -0.13399 0.61634 1.11654
 C231 C -0.14936 0.63759 1.13188
 C232 C -0.10271 0.65989 1.14809
 C233 C -0.08735 0.63866 1.13276
 C234 C -0.14933 0.69055 1.15057
 C235 C -0.16254 0.70986 1.16377
 C236 C -0.08705 0.60445 1.08841
 C237 C -0.07309 0.58620 1.07451
 H238 H -0.13252 0.69735 1.09187
 H239 H -0.10401 0.65796 1.06342
 H240 H -0.14258 0.59400 1.11297
 H241 H -0.17112 0.63345 1.14145
 H242 H -0.09414 0.67024 1.16822
 H243 H -0.06563 0.63082 1.13976
 C244 C -0.13358 0.33219 0.86610
 C245 C -0.15312 0.35060 0.88727
 C246 C -0.13786 0.37188 0.90265
 C247 C -0.10455 0.37265 0.89535
 C248 C -0.10297 0.37650 0.86136
 C249 C -0.11823 0.35521 0.84598
 C250 C -0.10874 0.31955 0.88585
 C251 C -0.09349 0.34081 0.90121
 C252 C -0.14989 0.30911 0.84968
 C253 C -0.16305 0.28977 0.83647
 C254 C -0.08801 0.39536 0.91203
 C255 C -0.07417 0.41365 0.92601
 H256 H -0.17686 0.34724 0.88993
 H257 H -0.14852 0.38674 0.91849
 H258 H -0.09093 0.39436 0.85036
 H259 H -0.11928 0.35484 0.82179
 H260 H -0.10357 0.29597 0.88760
 H261 H -0.07527 0.33543 0.91613
 C262 C 0.13331 0.66790 0.86524
 C263 C 0.11740 0.67983 0.89306
 C264 C 0.10209 0.65855 0.90833
 C265 C 0.10417 0.62739 0.89431
 C266 C 0.13759 0.62097 0.89189
 C267 C 0.15291 0.64228 0.87660
 C268 C 0.10891 0.65275 0.84673
 C269 C 0.09359 0.63145 0.86202
 C270 C 0.14967 0.69100 0.84891
 C271 C 0.16284 0.71037 0.83575
 C272 C 0.08755 0.60465 0.91088
 C273 C 0.07363 0.58635 0.92475
 H274 H 0.11810 0.70297 0.90015
 H275 H 0.08967 0.66346 0.92850
 H276 H 0.14826 0.60142 0.90133
 H277 H 0.17672 0.64099 0.87294
 H278 H 0.10410 0.65826 0.82365
 H279 H 0.07565 0.61871 0.85203
 C280 C 1.13293 0.13472 0.33229
 C281 C 1.12245 0.15433 0.35832
 C282 C 1.10706 0.13905 0.37960
 C283 C 1.10368 0.10567 0.37274
 C284 C 1.13550 0.09425 0.36814
 C285 C 1.15088 0.10952 0.34687
 C286 C 1.10466 0.11966 0.32049
 C287 C 1.08930 0.10440 0.34174
 C288 C 1.14935 0.15103 0.30922
 C289 C 1.16259 0.16416 0.28989
 C290 C 1.08701 0.08911 0.39545
 C291 C 1.07305 0.07523 0.41372
 H292 H 1.12674 0.17810 0.35990
 H293 H 1.09818 0.14973 0.39941
 H294 H 1.14511 0.07581 0.38051
 H295 H 1.17366 0.10416 0.34102
 H296 H 1.09734 0.12088 0.29745
 H297 H 1.06882 0.09255 0.33690
 C298 C 1.13360 -0.13351 0.66749
 C299 C 1.10417 -0.14826 0.65845
 C300 C 1.08893 -0.13283 0.63720
 C301 C 1.10461 -0.10416 0.62708
 C302 C 1.13561 -0.11421 0.61695
 C303 C 1.15087 -0.12965 0.63821
 C304 C 1.12515 -0.10176 0.67704
 C305 C 1.10991 -0.08634 0.65581
 C306 C 1.14988 -0.14999 0.69054
 C307 C 1.16300 -0.16326 0.70986
 C308 C 1.08808 -0.08742 0.60439
 C309 C 1.07425 -0.07340 0.58614
 H310 H 1.09604 -0.16901 0.66788
 H311 H 1.06774 -0.14036 0.62843
 H312 H 1.14477 -0.10962 0.59503
 H313 H 1.17309 -0.13829 0.63450
 H314 H 1.13066 -0.09221 0.69860
 H315 H 1.10238 -0.06358 0.65918
 C316 C 0.86672 -0.13432 0.33223
 C317 C 0.88733 -0.15402 0.35108
 C318 C 0.90264 -0.13867 0.37235
 C319 C 0.89583 -0.10512 0.37267
 C320 C 0.86197 -0.10301 0.37613
 C321 C 0.84665 -0.11837 0.35486
 C322 C 0.88686 -0.10980 0.31952
 C323 C 0.90216 -0.09446 0.34077
 C324 C 0.85038 -0.15072 0.30916
 C325 C 0.83723 -0.16395 0.28983
 C326 C 0.91243 -0.08848 0.39537
 C327 C 0.92635 -0.07457 0.41364
 H328 H 0.88968 -0.17792 0.34802
 H329 H 0.91811 -0.14942 0.38750
 H330 H 0.85099 -0.09058 0.39374
 H331 H 0.82256 -0.11909 0.35425
 H332 H 0.88893 -0.10491 0.29590
 H333 H 0.91733 -0.07644 0.33534
 C334 C 0.86594 0.13393 0.66786
 C335 C 0.89982 0.13587 0.67126
 C336 C 0.91501 0.12048 0.64997
 C337 C 0.89486 0.10464 0.62735
 C338 C 0.87481 0.12927 0.61466
 C339 C 0.85959 0.14468 0.63598
 C340 C 0.85898 0.10042 0.66751
 C341 C 0.87418 0.08503 0.64621
 C342 C 0.84971 0.15037 0.69097
 C343 C 0.83662 0.16360 0.71035
 C344 C 0.91135 0.08794 0.60460
 C345 C 0.92515 0.07395 0.58630
 H346 H 0.91090 0.14827 0.68883
 H347 H 0.93911 0.11970 0.64930
 H348 H 0.87274 0.13417 0.59104
 H349 H 0.84449 0.16278 0.63062
 H350 H 0.84346 0.08972 0.68264
 H351 H 0.87167 0.06115 0.64310
 C352 C 0.33254 1.13329 0.13435
 C353 C 0.36409 1.14535 0.13926
 C354 C 0.38538 1.12995 0.12405
 C355 C 0.37300 1.10401 0.10546
 C356 C 0.34938 1.11815 0.08523
 C357 C 0.32812 1.13353 0.10041
 C358 C 0.33422 1.10017 0.14284
 C359 C 0.35549 1.08478 0.12766
 C360 C 0.30946 1.14973 0.15057
 C361 C 0.29011 1.16296 0.16362
 C362 C 0.39571 1.08732 0.08898
 C363 C 0.41397 1.07332 0.07517
 H364 H 0.36925 1.16430 0.15341
 H365 H 0.40877 1.13570 0.12518
 H366 H 0.34937 1.11626 0.06109
 H367 H 0.30990 1.14482 0.08927
 H368 H 0.31998 1.08973 0.15936
 H369 H 0.35946 1.06116 0.13116
 C370 C 0.66733 1.13382 -0.13314
 C371 C 0.67033 1.09981 -0.13558
 C372 C 0.64909 1.08457 -0.12022
 C373 C 0.62692 1.10483 -0.10391
 C374 C 0.61430 1.12544 -0.12815
 C375 C 0.63556 1.14069 -0.14352
 C376 C 0.66734 1.14035 -0.09953
 C377 C 0.64610 1.12511 -0.08417
 C378 C 0.69039 1.15011 -0.14954
 C379 C 0.70972 1.16322 -0.16274
 C380 C 0.60423 1.08830 -0.08723
 C381 C 0.58599 1.07446 -0.07325
 H382 H 0.68761 1.08867 -0.14828
 H383 H 0.64817 1.06038 -0.11976
 H384 H 0.59076 1.12783 -0.13281
 H385 H 0.63024 1.15616 -0.16137
 H386 H 0.68267 1.15563 -0.08875
 H387 H 0.64323 1.12733 -0.06023
 C388 C 0.33244 0.86649 -0.13390
 C389 C 0.32034 0.88383 -0.10700
 C390 C 0.34160 0.89913 -0.09174
 C391 C 0.37289 0.89562 -0.10485
 C392 C 0.36998 0.90516 -0.13760
 C393 C 0.34871 0.88984 -0.15288
 C394 C 0.35706 0.84651 -0.12117
 C395 C 0.37834 0.86183 -0.10589
 C396 C 0.30937 0.85014 -0.15022
 C397 C 0.29003 0.83701 -0.16338
 C398 C 0.39560 0.91224 -0.08829
 C399 C 0.41386 0.92618 -0.07443
 H400 H 0.29711 0.88406 -0.10050
 H401 H 0.33656 0.91247 -0.07217
 H402 H 0.38345 0.92241 -0.14789
 H403 H 0.34396 0.89397 -0.17626
 H404 H 0.35774 0.82246 -0.12392
 H405 H 0.39724 0.85092 -0.09555
 C406 C 0.66759 0.86560 0.13364
 C407 C 0.67224 0.89951 0.13360
 C408 C 0.65096 0.91472 0.11828
 C409 C 0.62709 0.89454 0.10449
 C410 C 0.61480 0.87623 0.13066
 C411 C 0.63611 0.86100 0.14600
 C412 C 0.66559 0.85687 0.10060
 C413 C 0.64430 0.87209 0.08528
 C414 C 0.69070 0.84935 0.15001
 C415 C 0.71007 0.83626 0.16317
 C416 C 0.60435 0.91105 0.08785
 C417 C 0.58607 0.92487 0.07390
 H418 H 0.69063 0.91061 0.14466
 H419 H 0.65112 0.93885 0.11621
 H420 H 0.59145 0.87530 0.13661
 H421 H 0.63102 0.84702 0.16509
 H422 H 0.67963 0.84019 0.09016
 H423 H 0.64011 0.86843 0.06171
   
