data_POSCAR
  _audit_creation_date              2014-09-24
  _audit_creation_method            'ToBaCCo'
  _symmetry_space_group_name_H-M    'P1'
  _symmetry_Int_Tables_number       1
  _symmetry_cell_setting            triclinic
  loop_
  _symmetry_equiv_pos_as_xyz
 x,y,z
_cell_length_a 43.5596
_cell_length_b 43.9549
_cell_length_c 41.7462
_cell_angle_alpha 89.924800
_cell_angle_beta 90.080500
_cell_angle_gamma 89.863700
loop_
  _atom_site_label
  _atom_site_type_symbol
  _atom_site_fract_x
  _atom_site_fract_y
  _atom_site_fract_z
C1 C -0.06559 0.30752 0.03068
 C2 C -0.08118 0.31057 0.00137
 C3 C -0.06595 0.30889 -0.02821
 C4 C -0.03334 0.30738 -0.02847
 C5 C -0.01688 0.30571 0.00087
 C6 C -0.03297 0.30573 0.03049
 C7 C -0.01588 0.30659 0.05913
 C8 C 0.01598 0.30566 0.05887
 C9 C 0.03230 0.30464 0.02994
 C10 C 0.01586 0.30502 0.00061
 C11 C -0.01665 0.31030 -0.05715
 C12 C 0.01522 0.30937 -0.05739
 C13 C 0.03210 0.30563 -0.02893
 C14 C 0.06482 0.30526 -0.02895
 C15 C 0.08037 0.30574 0.00055
 C16 C 0.06472 0.30467 0.02968
 H17 H -0.02685 0.30908 0.08219
 H18 H 0.02773 0.30672 0.08170
 H19 H -0.02802 0.31454 -0.07977
 H20 H 0.02646 0.31289 -0.08016
 H21 H -0.10609 0.31069 0.00152
 H22 H 0.10527 0.30475 0.00102
 C23 C 0.43061 0.80645 0.52790
 C24 C 0.41470 0.80626 0.49878
 C25 C 0.43024 0.80605 0.46949
 C26 C 0.46271 0.80700 0.46912
 C27 C 0.47914 0.80763 0.49848
 C28 C 0.46305 0.80741 0.52799
 C29 C 0.47979 0.80853 0.55678
 C30 C 0.51173 0.80911 0.55665
 C31 C 0.52818 0.80852 0.52771
 C32 C 0.51174 0.80818 0.49835
 C33 C 0.47914 0.80771 0.44017
 C34 C 0.51108 0.80822 0.44003
 C35 C 0.52783 0.80806 0.46884
 C36 C 0.56029 0.80815 0.46892
 C37 C 0.57618 0.80894 0.49803
 C38 C 0.56067 0.80866 0.52733
 H39 H 0.46831 0.80921 0.57975
 H40 H 0.52341 0.81026 0.57951
 H41 H 0.46744 0.80812 0.41729
 H42 H 0.52251 0.80899 0.41705
 H43 H 0.38983 0.80489 0.49893
 H44 H 0.60108 0.80831 0.49788
 C45 C 1.06097 0.69674 -0.03084
 C46 C 1.07681 0.69185 -0.00216
 C47 C 1.06178 0.69240 0.02759
 C48 C 1.02915 0.69451 0.02804
 C49 C 1.01269 0.69871 -0.00109
 C50 C 1.02876 0.70066 -0.03046
 C51 C 1.01226 0.70664 -0.05870
 C52 C 0.98055 0.71024 -0.05822
 C53 C 0.96357 0.70598 -0.02988
 C54 C 0.98007 0.70121 -0.00080
 C55 C 1.01240 0.69084 0.05658
 C56 C 0.98065 0.69376 0.05699
 C57 C 0.96415 0.69956 0.02872
 C58 C 0.93204 0.70337 0.02925
 C59 C 0.91598 0.70748 0.00065
 C60 C 0.93083 0.70836 -0.02925
 H61 H 1.02370 0.70893 -0.08155
 H62 H 0.96978 0.71697 -0.08043
 H63 H 1.02363 0.68518 0.07893
 H64 H 0.96909 0.69107 0.07976
 H65 H 1.10167 0.69051 -0.00305
 H66 H 0.89116 0.70910 0.00194
 C67 C 0.43554 0.19303 0.47153
 C68 C 0.41963 0.19303 0.50061
 C69 C 0.43514 0.19351 0.52996
 C70 C 0.46763 0.19302 0.53045
 C71 C 0.48410 0.19265 0.50114
 C72 C 0.46802 0.19262 0.47157
 C73 C 0.48481 0.19175 0.44284
 C74 C 0.51677 0.19169 0.44310
 C75 C 0.53319 0.19247 0.47210
 C76 C 0.51672 0.19253 0.50141
 C77 C 0.48405 0.19247 0.55946
 C78 C 0.51600 0.19230 0.55972
 C79 C 0.53279 0.19273 0.53098
 C80 C 0.56526 0.19294 0.53103
 C81 C 0.58117 0.19250 0.50196
 C82 C 0.56569 0.19276 0.47260
 H83 H 0.47339 0.19087 0.41983
 H84 H 0.52849 0.19074 0.42029
 H85 H 0.47233 0.19188 0.58229
 H86 H 0.52742 0.19158 0.58274
 H87 H 0.39474 0.19400 0.50037
 H88 H 0.60607 0.19338 0.50220
 C89 C 0.72449 -0.06424 -0.02988
 C90 C 0.72347 -0.08040 -0.00087
 C91 C 0.72051 -0.06619 0.02904
 C92 C 0.71852 -0.03386 0.03005
 C93 C 0.71937 -0.01681 0.00099
 C94 C 0.72345 -0.03191 -0.02880
 C95 C 0.72964 -0.01413 -0.05608
 C96 C 0.72800 0.01742 -0.05516
 C97 C 0.72009 0.03292 -0.02690
 C98 C 0.71790 0.01563 0.00189
 C99 C 0.71844 -0.01785 0.05925
 C100 C 0.71621 0.01361 0.06008
 C101 C 0.71586 0.03076 0.03176
 C102 C 0.71452 0.06278 0.03270
 C103 C 0.71465 0.07938 0.00426
 C104 C 0.71753 0.06533 -0.02584
 H105 H 0.73705 -0.02431 -0.07832
 H106 H 0.73435 0.02943 -0.07673
 H107 H 0.72104 -0.02917 0.08204
 H108 H 0.71540 0.02439 0.08336
 H109 H 0.72258 -0.10504 -0.00168
 H110 H 0.71226 0.10389 0.00591
 C111 C 0.20051 0.43384 0.47005
 C112 C 0.19988 0.41851 0.49941
 C113 C 0.19976 0.43430 0.52847
 C114 C 0.19938 0.46649 0.52839
 C115 C 0.19955 0.48239 0.49880
 C116 C 0.20012 0.46603 0.46951
 C117 C 0.19979 0.48226 0.44047
 C118 C 0.19946 0.51393 0.44017
 C119 C 0.19944 0.53060 0.46889
 C120 C 0.19922 0.51471 0.49849
 C121 C 0.19834 0.48316 0.55709
 C122 C 0.19803 0.51483 0.55679
 C123 C 0.19877 0.53108 0.52777
 C124 C 0.19856 0.56329 0.52722
 C125 C 0.19830 0.57859 0.49783
 C126 C 0.19917 0.56278 0.46880
 H127 H 0.19950 0.47062 0.41765
 H128 H 0.19892 0.52522 0.41712
 H129 H 0.19745 0.47185 0.58011
 H130 H 0.19690 0.52647 0.57959
 H131 H 0.20069 0.39383 0.49966
 H132 H 0.19866 0.60327 0.49755
 C133 C 0.29799 0.93384 0.02688
 C134 C 0.29983 0.91833 -0.00222
 C135 C 0.29943 0.93372 -0.03175
 C136 C 0.29943 0.96615 -0.03174
 C137 C 0.29815 0.98220 -0.00222
 C138 C 0.29723 0.96595 0.02714
 C139 C 0.29657 0.98219 0.05610
 C140 C 0.29693 1.01380 0.05634
 C141 C 0.29794 1.03046 0.02762
 C142 C 0.29852 1.01461 -0.00198
 C143 C 0.30333 0.98294 -0.06014
 C144 C 0.30374 1.01457 -0.05991
 C145 C 0.30021 1.03104 -0.03126
 C146 C 0.30094 1.06344 -0.03081
 C147 C 0.30166 1.07841 -0.00110
 C148 C 0.29941 1.06256 0.02781
 H149 H 0.29644 0.97059 0.07899
 H150 H 0.29708 1.02504 0.07938
 H151 H 0.30728 0.97182 -0.08286
 H152 H 0.30799 1.02591 -0.08246
 H153 H 0.29930 0.89365 -0.00173
 H154 H 0.30167 1.10309 -0.00031
 C155 C 0.79951 0.56415 0.47217
 C156 C 0.79988 0.57974 0.50133
 C157 C 0.79947 0.56420 0.53056
 C158 C 0.79956 0.53204 0.53092
 C159 C 0.79970 0.51588 0.50153
 C160 C 0.79968 0.53197 0.47204
 C161 C 0.80028 0.51548 0.44322
 C162 C 0.80030 0.48382 0.44332
 C163 C 0.79973 0.46743 0.47226
 C164 C 0.79969 0.48358 0.50164
 C165 C 0.79993 0.51564 0.55985
 C166 C 0.79989 0.48398 0.55996
 C167 C 0.79948 0.46749 0.53113
 C168 C 0.79932 0.43531 0.53099
 C169 C 0.79983 0.41971 0.50182
 C170 C 0.79961 0.43527 0.47260
 H171 H 0.80102 0.52692 0.42026
 H172 H 0.80101 0.47231 0.42044
 H173 H 0.80051 0.52716 0.58274
 H174 H 0.80045 0.47254 0.58292
 H175 H 0.79919 0.60442 0.50127
 H176 H 0.79920 0.39503 0.50186
 O177 O 0.24561 0.20184 0.23206
 O178 O 0.22276 0.26131 0.28947
 O179 O 0.20444 0.24481 0.23247
 O180 O 0.26376 0.21861 0.28911
 O181 O 0.29706 0.25006 0.26716
 O182 O 0.23777 0.27620 0.21046
 O183 O 0.25583 0.29297 0.26747
 O184 O 0.27876 0.23346 0.21013
 Cu185 Cu 0.23081 0.22847 0.26293
 Cu186 Cu 0.27070 0.26633 0.23665
 C187 C 0.26586 0.20758 0.21102
 C188 C 0.23559 0.28722 0.28851
 C189 C 0.21104 0.26476 0.21153
 C190 C 0.29046 0.23013 0.28810
 O191 O 0.75202 0.79539 0.23374
 O192 O 0.77568 0.73633 0.29140
 O193 O 0.79396 0.75320 0.23454
 O194 O 0.73412 0.77857 0.29060
 O195 O 0.70128 0.74679 0.26840
 O196 O 0.76126 0.72114 0.21253
 O197 O 0.74305 0.70422 0.26938
 O198 O 0.71979 0.76305 0.21138
 Cu199 Cu 0.76723 0.76908 0.26478
 Cu200 Cu 0.72802 0.73055 0.23833
 C201 C 0.73223 0.78913 0.21236
 C202 C 0.76321 0.71024 0.29044
 C203 C 0.78775 0.73313 0.21365
 C204 C 0.70751 0.76690 0.28925
 O205 O 0.79834 0.24657 0.23478
 O206 O 0.74012 0.22113 0.29311
 O207 O 0.75800 0.20306 0.23657
 O208 O 0.78093 0.26386 0.29185
 O209 O 0.74708 0.29478 0.26962
 O210 O 0.72397 0.23374 0.21426
 O211 O 0.70611 0.25177 0.27071
 O212 O 0.76399 0.27692 0.21246
 Cu213 Cu 0.77278 0.23059 0.26628
 Cu214 Cu 0.73189 0.26744 0.23961
 C215 C 0.79090 0.26577 0.21330
 C216 C 0.71319 0.23230 0.29199
 C217 C 0.73732 0.20804 0.21573
 C218 C 0.76771 0.28960 0.29051
 O219 O 0.27605 0.76179 0.20794
 O220 O 0.25271 0.70188 0.26459
 O221 O 0.23563 0.71886 0.20712
 O222 O 0.29343 0.74509 0.26522
 O223 O 0.25938 0.77633 0.28642
 O224 O 0.20129 0.74947 0.22888
 O225 O 0.21902 0.73329 0.28615
 O226 O 0.24187 0.79294 0.22906
 Cu227 Cu 0.26787 0.72875 0.23413
 Cu228 Cu 0.22697 0.76616 0.25970
 C229 C 0.26269 0.78751 0.20855
 C230 C 0.23216 0.70747 0.28537
 C231 C 0.20865 0.72987 0.20789
 C232 C 0.28624 0.76500 0.28595
 O233 O 0.77781 0.26409 0.71291
 O234 O 0.75468 0.20458 0.77007
 O235 O 0.73700 0.22138 0.71291
 O236 O 0.79549 0.24786 0.77027
 O237 O 0.76149 0.27899 0.79180
 O238 O 0.70320 0.25268 0.73444
 O239 O 0.72118 0.23621 0.79163
 O240 O 0.74424 0.29567 0.73438
 Cu241 Cu 0.76964 0.23131 0.73943
 Cu242 Cu 0.72912 0.26907 0.76511
 C243 C 0.76477 0.28996 0.71362
 C244 C 0.73429 0.21038 0.79093
 C245 C 0.71016 0.23273 0.71368
 C246 C 0.78833 0.26766 0.79115
 O247 O 0.29200 0.74674 0.73094
 O248 O 0.23209 0.72080 0.78680
 O249 O 0.25057 0.70416 0.73004
 O250 O 0.27354 0.76264 0.78818
 O251 O 0.24144 0.79536 0.76590
 O252 O 0.21770 0.73632 0.70816
 O253 O 0.19946 0.75334 0.76515
 O254 O 0.25898 0.77860 0.70883
 Cu255 Cu 0.26538 0.73036 0.76111
 Cu256 Cu 0.22608 0.76912 0.73484
 C257 C 0.28560 0.76684 0.71004
 C258 C 0.20563 0.73301 0.78585
 C259 C 0.23037 0.71024 0.70900
 C260 C 0.26125 0.78885 0.78725
 O261 O 0.25341 0.29531 0.73271
 O262 O 0.27771 0.23607 0.78974
 O263 O 0.29518 0.25281 0.73249
 O264 O 0.23639 0.27794 0.78996
 O265 O 0.20298 0.24638 0.76826
 O266 O 0.26197 0.22110 0.71078
 O267 O 0.24490 0.20392 0.76801
 O268 O 0.22043 0.26336 0.71101
 Cu269 Cu 0.26901 0.26877 0.76327
 Cu270 Cu 0.22923 0.23049 0.73738
 C271 C 0.23300 0.28940 0.71187
 C272 C 0.26518 0.21003 0.78894
 C273 C 0.28858 0.23285 0.71161
 C274 C 0.20981 0.26614 0.78929
 O275 O 0.74355 0.70802 0.72988
 O276 O 0.72106 0.76898 0.78552
 O277 O 0.70233 0.75115 0.72910
 O278 O 0.76093 0.72587 0.78673
 O279 O 0.79487 0.75631 0.76417
 O280 O 0.73598 0.78169 0.70632
 O281 O 0.75444 0.79986 0.76273
 O282 O 0.77706 0.73887 0.70733
 Cu283 Cu 0.72852 0.73538 0.75991
 Cu284 Cu 0.76894 0.77225 0.73283
 C285 C 0.76407 0.71309 0.70894
 C286 C 0.73436 0.79464 0.78405
 C287 C 0.70910 0.77058 0.70773
 C288 C 0.78771 0.73715 0.78575
 C289 C 0.28992 0.11938 0.11104
 C290 C 0.31793 0.11807 0.09430
 C291 C 0.32126 0.09905 0.06769
 C292 C 0.29682 0.08072 0.05758
 C293 C 0.26905 0.08149 0.07449
 C294 C 0.26562 0.10061 0.10097
 C295 C 0.28551 0.14123 0.13789
 C296 C 0.26754 0.13343 0.16463
 C297 C 0.26169 0.15474 0.18874
 C298 C 0.27382 0.18428 0.18676
 C299 C 0.29250 0.19181 0.16051
 C300 C 0.29819 0.17059 0.13633
 H301 H 0.34280 0.09883 0.05476
 H302 H 0.24979 0.06782 0.06665
 H303 H 0.24736 0.14816 0.20874
 H304 H 0.30208 0.21442 0.15817
 H305 H 0.24357 0.10143 0.11288
 H306 H 0.25784 0.11088 0.16687
 H307 H 0.33723 0.13189 0.10163
 H308 H 0.31173 0.17755 0.11588
 C309 C 0.78979 0.62200 0.61269
 C310 C 0.81770 0.62087 0.59576
 C311 C 0.82115 0.60147 0.56952
 C312 C 0.79695 0.58256 0.56006
 C313 C 0.76938 0.58295 0.57730
 C314 C 0.76580 0.60250 0.60338
 C315 C 0.78502 0.64458 0.63870
 C316 C 0.76724 0.63736 0.66575
 C317 C 0.76089 0.65942 0.68893
 C318 C 0.77236 0.68911 0.68567
 C319 C 0.79087 0.69608 0.65913
 C320 C 0.79701 0.67413 0.63587
 H321 H 0.84253 0.60147 0.55631
 H322 H 0.75035 0.56875 0.56995
 H323 H 0.74673 0.65329 0.70923
 H324 H 0.79994 0.71879 0.65584
 H325 H 0.74384 0.60314 0.61547
 H326 H 0.75807 0.61469 0.66893
 H327 H 0.83677 0.63524 0.60258
 H328 H 0.81034 0.68065 0.61511
 C329 C 0.71716 0.87475 0.10959
 C330 C 0.69678 0.89939 0.10760
 C331 C 0.69750 0.91885 0.08101
 C332 C 0.71945 0.91471 0.05652
 C333 C 0.73953 0.88954 0.05884
 C334 C 0.73830 0.86982 0.08496
 C335 C 0.71684 0.85391 0.13720
 C336 C 0.70944 0.82319 0.13271
 C337 C 0.71297 0.80241 0.15777
 C338 C 0.72465 0.81190 0.18751
 C339 C 0.73118 0.84289 0.19223
 C340 C 0.72702 0.86381 0.16730
 H341 H 0.68036 0.93667 0.07928
 H342 H 0.75683 0.88543 0.04072
 H343 H 0.70793 0.77866 0.15338
 H344 H 0.74015 0.85081 0.21494
 H345 H 0.75424 0.85089 0.08621
 H346 H 0.70174 0.81521 0.10952
 H347 H 0.67996 0.90315 0.12626
 H348 H 0.73307 0.88743 0.17101
 C349 C 0.20818 0.37764 0.61199
 C350 C 0.18081 0.37795 0.59402
 C351 C 0.17778 0.39690 0.56727
 C352 C 0.20186 0.41619 0.55829
 C353 C 0.22892 0.41649 0.57647
 C354 C 0.23209 0.39739 0.60305
 C355 C 0.21248 0.35578 0.63890
 C356 C 0.20094 0.32599 0.63672
 C357 C 0.20679 0.30474 0.66090
 C358 C 0.22454 0.31268 0.68774
 C359 C 0.23544 0.34264 0.69036
 C360 C 0.22937 0.36397 0.66629
 H361 H 0.15678 0.39633 0.55335
 H362 H 0.24790 0.43094 0.56952
 H363 H 0.19819 0.28180 0.65807
 H364 H 0.24901 0.34952 0.71086
 H365 H 0.25368 0.39737 0.61592
 H366 H 0.18826 0.31871 0.61578
 H367 H 0.16180 0.36336 0.60047
 H368 H 0.23813 0.38685 0.66903
 C369 C 0.87714 0.29461 0.11201
 C370 C 0.90241 0.27533 0.10651
 C371 C 0.92185 0.28012 0.08036
 C372 C 0.91651 0.30427 0.05882
 C373 C 0.89115 0.32347 0.06434
 C374 C 0.87208 0.31902 0.09080
 C375 C 0.85537 0.28850 0.13881
 C376 C 0.82379 0.29437 0.13506
 C377 C 0.80311 0.28773 0.15960
 C378 C 0.81334 0.27457 0.18838
 C379 C 0.84485 0.26883 0.19239
 C380 C 0.86566 0.27594 0.16798
 H381 H 0.94022 0.26397 0.07613
 H382 H 0.88634 0.34238 0.04841
 H383 H 0.77892 0.29211 0.15564
 H384 H 0.85341 0.25885 0.21439
 H385 H 0.85329 0.33476 0.09454
 H386 H 0.81479 0.30334 0.11278
 H387 H 0.90662 0.25581 0.12173
 H388 H 0.88983 0.27160 0.17203
 C389 C 0.37409 0.79524 0.61125
 C390 C 0.39451 0.77213 0.60170
 C391 C 0.41353 0.77619 0.57514
 C392 C 0.41245 0.80339 0.55761
 C393 C 0.39253 0.82670 0.56722
 C394 C 0.37366 0.82277 0.59395
 C395 C 0.35218 0.78993 0.63796
 C396 C 0.32185 0.80077 0.63587
 C397 C 0.30055 0.79401 0.65977
 C398 C 0.30896 0.77602 0.68623
 C399 C 0.33944 0.76577 0.68878
 C400 C 0.36085 0.77274 0.66496
 H401 H 0.42852 0.75783 0.56770
 H402 H 0.39140 0.84779 0.55381
 H403 H 0.27721 0.80214 0.65701
 H404 H 0.34667 0.75203 0.70899
 H405 H 0.35855 0.84119 0.60091
 H406 H 0.31422 0.81362 0.61520
 H407 H 0.39506 0.75046 0.61404
 H408 H 0.38415 0.76448 0.66759
 C409 C 0.12056 0.70107 0.10843
 C410 C 0.09450 0.71975 0.10501
 C411 C 0.07452 0.71608 0.07911
 C412 C 0.08009 0.69376 0.05563
 C413 C 0.10617 0.67504 0.05912
 C414 C 0.12581 0.67831 0.08540
 C415 C 0.14294 0.70642 0.13491
 C416 C 0.17460 0.70196 0.12995
 C417 C 0.19579 0.70864 0.15407
 C418 C 0.18594 0.72047 0.18353
 C419 C 0.15438 0.72454 0.18882
 C420 C 0.13310 0.71730 0.16491
 H421 H 0.05560 0.73195 0.07653
 H422 H 0.11118 0.65748 0.04169
 H423 H 0.22002 0.70554 0.14921
 H424 H 0.14614 0.73339 0.21144
 H425 H 0.14523 0.66304 0.08749
 H426 H 0.18323 0.69425 0.10705
 H427 H 0.09009 0.73812 0.12163
 H428 H 0.10893 0.72041 0.16995
 C429 C 0.62229 0.20407 0.61420
 C430 C 0.62287 0.17668 0.59676
 C431 C 0.60379 0.17274 0.57014
 C432 C 0.58354 0.19593 0.56075
 C433 C 0.58244 0.22303 0.57835
 C434 C 0.60162 0.22708 0.60483
 C435 C 0.64415 0.20933 0.64100
 C436 C 0.67465 0.19896 0.63895
 C437 C 0.69585 0.20578 0.66302
 C438 C 0.68710 0.22333 0.68961
 C439 C 0.65644 0.23303 0.69213
 C440 C 0.63519 0.22602 0.66816
 H441 H 0.60501 0.15175 0.55663
 H442 H 0.56728 0.24135 0.57105
 H443 H 0.71933 0.19807 0.66031
 H444 H 0.64893 0.24640 0.71244
 H445 H 0.60097 0.24866 0.61728
 H446 H 0.68248 0.18644 0.61817
 H447 H 0.63822 0.15837 0.60355
 H448 H 0.61175 0.23388 0.67078
 C449 C 0.71774 0.12417 0.89319
 C450 C 0.70197 0.09644 0.89182
 C451 C 0.70161 0.07699 0.91844
 C452 C 0.71796 0.08439 0.94660
 C453 C 0.73366 0.11245 0.94749
 C454 C 0.73342 0.13205 0.92124
 C455 C 0.71835 0.14514 0.86555
 C456 C 0.70957 0.17562 0.86951
 C457 C 0.71342 0.19650 0.84463
 C458 C 0.72670 0.18738 0.81552
 C459 C 0.73460 0.15662 0.81122
 C460 C 0.73017 0.13558 0.83597
 H461 H 0.68781 0.05656 0.91721
 H462 H 0.74700 0.11904 0.96826
 H463 H 0.70721 0.22005 0.84868
 H464 H 0.74480 0.14897 0.78899
 H465 H 0.74600 0.15324 0.92263
 H466 H 0.70038 0.18339 0.89218
 H467 H 0.68937 0.09019 0.87044
 H468 H 0.73724 0.11217 0.83256
 C469 C 0.20809 0.61922 0.38524
 C470 C 0.23235 0.60014 0.39506
 C471 C 0.22908 0.58114 0.42169
 C472 C 0.20155 0.58087 0.43901
 C473 C 0.17713 0.59948 0.42915
 C474 C 0.18028 0.61833 0.40237
 C475 C 0.21239 0.64103 0.35834
 C476 C 0.23013 0.63311 0.33146
 C477 C 0.23602 0.65445 0.30738
 C478 C 0.22411 0.68412 0.30951
 C479 C 0.20561 0.69175 0.33585
 C480 C 0.19992 0.67052 0.36003
 H481 H 0.24829 0.56719 0.42931
 H482 H 0.15577 0.59958 0.44240
 H483 H 0.25021 0.64781 0.28727
 H484 H 0.19621 0.71447 0.33831
 H485 H 0.16100 0.63238 0.39522
 H486 H 0.23965 0.61045 0.32913
 H487 H 0.25424 0.60062 0.38285
 H488 H 0.18657 0.67758 0.38058
 C489 C 0.28875 0.87637 0.88710
 C490 C 0.31186 0.87069 0.90993
 C491 C 0.31569 0.88986 0.93626
 C492 C 0.29732 0.91599 0.94003
 C493 C 0.27484 0.92225 0.91663
 C494 C 0.27050 0.90262 0.89065
 C495 C 0.28280 0.85422 0.86072
 C496 C 0.27163 0.86391 0.83069
 C497 C 0.26475 0.84278 0.80667
 C498 C 0.26947 0.81155 0.81190
 C499 C 0.28118 0.80187 0.84154
 C500 C 0.28744 0.82285 0.86573
 H501 H 0.33345 0.88443 0.95357
 H502 H 0.25938 0.94142 0.91934
 H503 H 0.25588 0.85086 0.78395
 H504 H 0.28467 0.77790 0.84642
 H505 H 0.25199 0.90747 0.87409
 H506 H 0.26825 0.88784 0.82564
 H507 H 0.32699 0.85126 0.90767
 H508 H 0.29519 0.81427 0.88867
 C509 C 0.79137 0.37871 0.38929
 C510 C 0.81917 0.37991 0.40650
 C511 C 0.82207 0.39875 0.43326
 C512 C 0.79741 0.41702 0.44300
 C513 C 0.76990 0.41648 0.42558
 C514 C 0.76687 0.39748 0.39898
 C515 C 0.78729 0.35679 0.36254
 C516 C 0.76940 0.36438 0.33559
 C517 C 0.76359 0.34282 0.31174
 C518 C 0.77574 0.31328 0.31422
 C519 C 0.79445 0.30600 0.34060
 C520 C 0.80004 0.32744 0.36452
 H521 H 0.84343 0.39892 0.44658
 H522 H 0.75055 0.43023 0.43310
 H523 H 0.74925 0.34918 0.29160
 H524 H 0.80403 0.28338 0.34331
 H525 H 0.74498 0.39674 0.38670
 H526 H 0.75965 0.38694 0.33304
 H527 H 0.83862 0.36610 0.39943
 H528 H 0.81350 0.32061 0.38515
 C529 C 0.12235 0.29418 0.88970
 C530 C 0.12820 0.31708 0.91240
 C531 C 0.10902 0.32096 0.93885
 C532 C 0.08269 0.30286 0.94285
 C533 C 0.07631 0.28052 0.91964
 C534 C 0.09595 0.27613 0.89354
 C535 C 0.14447 0.28826 0.86311
 C536 C 0.13443 0.27722 0.83322
 C537 C 0.15555 0.27025 0.80903
 C538 C 0.18710 0.27477 0.81396
 C539 C 0.19712 0.28643 0.84344
 C540 C 0.17615 0.29277 0.86780
 H541 H 0.11456 0.33859 0.95603
 H542 H 0.05700 0.26527 0.92255
 H543 H 0.14720 0.26141 0.78645
 H544 H 0.22135 0.28974 0.84809
 H545 H 0.09099 0.25777 0.87711
 H546 H 0.11024 0.27394 0.82841
 H547 H 0.14776 0.33202 0.90993
 H548 H 0.18501 0.30044 0.89062
 C549 C 0.61770 0.79631 0.38638
 C550 C 0.61770 0.82403 0.40323
 C551 C 0.59846 0.82822 0.42963
 C552 C 0.57859 0.80495 0.43932
 C553 C 0.57795 0.77756 0.42220
 C554 C 0.59731 0.77325 0.39597
 C555 C 0.64000 0.79073 0.36011
 C556 C 0.63172 0.77337 0.33318
 C557 C 0.65347 0.76612 0.30979
 C558 C 0.68391 0.77626 0.31271
 C559 C 0.69195 0.79440 0.33909
 C560 C 0.67029 0.80145 0.36257
 H561 H 0.59929 0.84944 0.44275
 H562 H 0.56305 0.75920 0.42975
 H563 H 0.64651 0.75228 0.28962
 H564 H 0.71525 0.80246 0.34211
 H565 H 0.59710 0.75144 0.38396
 H566 H 0.60846 0.76518 0.33029
 H567 H 0.63281 0.84239 0.39622
 H568 H 0.67760 0.81445 0.38321
 C569 C 0.87280 0.71597 0.88912
 C570 C 0.89802 0.69612 0.88854
 C571 C 0.91719 0.69340 0.91536
 C572 C 0.91221 0.71135 0.94292
 C573 C 0.88665 0.73117 0.94305
 C574 C 0.86721 0.73333 0.91659
 C575 C 0.85176 0.71847 0.86151
 C576 C 0.86248 0.72834 0.83157
 C577 C 0.84178 0.73385 0.80651
 C578 C 0.81017 0.72891 0.81089
 C579 C 0.79978 0.71778 0.84051
 C580 C 0.82034 0.71292 0.86567
 H581 H 0.93532 0.67651 0.91483
 H582 H 0.88197 0.74566 0.96345
 H583 H 0.85039 0.74239 0.78391
 H584 H 0.77555 0.71393 0.84467
 H585 H 0.84789 0.74888 0.91740
 H586 H 0.88666 0.73288 0.82801
 H587 H 0.90232 0.68212 0.86768
 H588 H 0.81168 0.70528 0.88863
 C589 C 0.37866 0.20293 0.38798
 C590 C 0.37835 0.17572 0.40581
 C591 C 0.39736 0.17221 0.43259
 C592 C 0.41728 0.19563 0.44174
 C593 C 0.41814 0.22255 0.42373
 C594 C 0.39902 0.22618 0.39711
 C595 C 0.35679 0.20776 0.36102
 C596 C 0.36555 0.22437 0.33371
 C597 C 0.34422 0.23101 0.30962
 C598 C 0.31371 0.22099 0.31218
 C599 C 0.30521 0.20351 0.33892
 C600 C 0.32646 0.19707 0.36311
 H601 H 0.39634 0.15134 0.44638
 H602 H 0.43307 0.24103 0.43083
 H603 H 0.35154 0.24435 0.28920
 H604 H 0.28184 0.19558 0.34168
 H605 H 0.39946 0.24764 0.38436
 H606 H 0.38886 0.23248 0.33106
 H607 H 0.36327 0.15722 0.39921
 H608 H 0.31877 0.18462 0.38399
 C609 C 0.72377 0.88091 0.88646
 C610 C 0.74218 0.87312 0.91271
 C611 C 0.74315 0.89174 0.93964
 C612 C 0.72540 0.91862 0.94128
 C613 C 0.70689 0.92625 0.91462
 C614 C 0.70646 0.90779 0.88730
 C615 C 0.72247 0.86027 0.85874
 C616 C 0.73349 0.86955 0.82876
 C617 C 0.73635 0.84845 0.80386
 C618 C 0.72767 0.81796 0.80851
 C619 C 0.71503 0.80925 0.83807
 C620 C 0.71276 0.83016 0.86306
 H621 H 0.75817 0.88516 0.95917
 H622 H 0.69169 0.94577 0.91532
 H623 H 0.74612 0.85576 0.78129
 H624 H 0.70830 0.78590 0.84242
 H625 H 0.69184 0.91391 0.86728
 H626 H 0.74122 0.89270 0.82513
 H627 H 0.75593 0.85255 0.91229
 H628 H 0.70421 0.82266 0.88611
 C629 C 0.21066 0.37600 0.38773
 C630 C 0.23440 0.39586 0.39694
 C631 C 0.23071 0.41530 0.42313
 C632 C 0.20327 0.41526 0.44063
 C633 C 0.17939 0.39584 0.43138
 C634 C 0.18295 0.37654 0.40504
 C635 C 0.21539 0.35390 0.36116
 C636 C 0.23271 0.36184 0.33400
 C637 C 0.23880 0.34039 0.31010
 C638 C 0.22751 0.31056 0.31267
 C639 C 0.20950 0.30284 0.33936
 C640 C 0.20361 0.32420 0.36336
 H641 H 0.24954 0.42985 0.43029
 H642 H 0.15811 0.39547 0.44477
 H643 H 0.25259 0.34711 0.28973
 H644 H 0.20060 0.28001 0.34217
 H645 H 0.16404 0.36191 0.39836
 H646 H 0.24169 0.38464 0.33124
 H647 H 0.25623 0.39568 0.38459
 H648 H 0.19062 0.31710 0.38414
 C649 C 0.29168 0.12168 0.88841
 C650 C 0.27274 0.09599 0.89187
 C651 C 0.27654 0.07613 0.91778
 C652 C 0.29917 0.08157 0.94119
 C653 C 0.31815 0.10722 0.93761
 C654 C 0.31484 0.12663 0.91133
 C655 C 0.28636 0.14402 0.86202
 C656 C 0.29158 0.17525 0.86706
 C657 C 0.28558 0.19644 0.84292
 C658 C 0.27356 0.18710 0.81334
 C659 C 0.26842 0.15599 0.80803
 C660 C 0.27505 0.13464 0.83199
 H661 H 0.26061 0.05740 0.92039
 H662 H 0.33599 0.11203 0.95498
 H663 H 0.28939 0.22033 0.84783
 H664 H 0.25932 0.14817 0.78534
 H665 H 0.33043 0.14565 0.90916
 H666 H 0.29950 0.18358 0.89000
 H667 H 0.25414 0.09177 0.87528
 H668 H 0.27127 0.11080 0.82692
 C669 C 0.78940 0.62152 0.38944
 C670 C 0.81703 0.62128 0.40697
 C671 C 0.82064 0.60206 0.43343
 C672 C 0.79688 0.58245 0.44254
 C673 C 0.76955 0.58209 0.42479
 C674 C 0.76582 0.60143 0.39849
 C675 C 0.78451 0.64361 0.36289
 C676 C 0.76747 0.63548 0.33558
 C677 C 0.76102 0.65694 0.31175
 C678 C 0.77168 0.68697 0.31455
 C679 C 0.78947 0.69489 0.34136
 C680 C 0.79571 0.67350 0.36530
 H681 H 0.84182 0.60270 0.44704
 H682 H 0.75081 0.56740 0.43187
 H683 H 0.74744 0.65007 0.29126
 H684 H 0.79790 0.71788 0.34431
 H685 H 0.74405 0.60139 0.38596
 H686 H 0.75895 0.61252 0.33269
 H687 H 0.83580 0.63613 0.40041
 H688 H 0.80849 0.68072 0.38620
 C689 C 0.11783 0.70743 0.88595
 C690 C 0.10136 0.73229 0.89844
 C691 C 0.08242 0.72862 0.92510
 C692 C 0.07941 0.70002 0.93963
 C693 C 0.09562 0.67511 0.92724
 C694 C 0.11460 0.67873 0.90053
 C695 C 0.13931 0.71188 0.85877
 C696 C 0.16831 0.69779 0.85887
 C697 C 0.18950 0.70390 0.83462
 C698 C 0.18219 0.72427 0.80977
 C699 C 0.15283 0.73759 0.80909
 C700 C 0.13162 0.73144 0.83332
 H701 H 0.07048 0.74819 0.93479
 H702 H 0.09371 0.65294 0.93841
 H703 H 0.21195 0.69332 0.83588
 H704 H 0.14641 0.75326 0.79019
 H705 H 0.12680 0.65913 0.89132
 H706 H 0.17506 0.68288 0.87832
 H707 H 0.10383 0.75479 0.88818
 H708 H 0.10928 0.74225 0.83230
 C709 C 0.62434 0.20402 0.39071
 C710 C 0.60289 0.22665 0.39906
 C711 C 0.58316 0.22251 0.42505
 C712 C 0.58443 0.19568 0.44319
 C713 C 0.60548 0.17287 0.43481
 C714 C 0.62513 0.17690 0.40868
 C715 C 0.64663 0.20936 0.36430
 C716 C 0.67729 0.19958 0.36716
 C717 C 0.69872 0.20632 0.34329
 C718 C 0.69005 0.22317 0.31611
 C719 C 0.65928 0.23235 0.31287
 C720 C 0.63780 0.22543 0.33662
 H721 H 0.56743 0.24059 0.43158
 H722 H 0.60690 0.15211 0.44874
 H723 H 0.72229 0.19904 0.34657
 H724 H 0.65180 0.24517 0.29209
 H725 H 0.64107 0.15886 0.40268
 H726 H 0.68502 0.18756 0.38834
 H727 H 0.60204 0.24804 0.38620
 H728 H 0.61427 0.23281 0.33335
 C729 C 0.87589 0.29742 0.89086
 C730 C 0.90183 0.27873 0.89526
 C731 C 0.92159 0.28321 0.92122
 C732 C 0.91589 0.30637 0.94374
 C733 C 0.88994 0.32508 0.93926
 C734 C 0.87056 0.32100 0.91294
 C735 C 0.85372 0.29139 0.86436
 C736 C 0.82208 0.29632 0.86888
 C737 C 0.80106 0.28946 0.84470
 C738 C 0.81102 0.27693 0.81559
 C739 C 0.84256 0.27220 0.81079
 C740 C 0.86371 0.27962 0.83478
 H741 H 0.94049 0.26745 0.92457
 H742 H 0.88488 0.34328 0.95593
 H743 H 0.77684 0.29303 0.84923
 H744 H 0.85088 0.26275 0.78847
 H745 H 0.85127 0.33632 0.91004
 H746 H 0.81333 0.30466 0.89148
 H747 H 0.90630 0.25981 0.87935
 H748 H 0.88788 0.27605 0.83012
 C749 C 0.37304 0.79393 0.38651
 C750 C 0.39398 0.77117 0.39596
 C751 C 0.41311 0.77550 0.42244
 C752 C 0.41170 0.80263 0.43999
 C753 C 0.39112 0.82552 0.43059
 C754 C 0.37209 0.82131 0.40396
 C755 C 0.35142 0.78847 0.35951
 C756 C 0.32084 0.79868 0.36124
 C757 C 0.29993 0.79183 0.33689
 C758 C 0.30903 0.77439 0.31034
 C759 C 0.33974 0.76479 0.30819
 C760 C 0.36072 0.77184 0.33242
 H761 H 0.42856 0.75742 0.42973
 H762 H 0.38967 0.84654 0.44402
 H763 H 0.27639 0.79945 0.33935
 H764 H 0.34752 0.75150 0.28792
 H765 H 0.35654 0.83944 0.39711
 H766 H 0.31274 0.81114 0.38193
 H767 H 0.39493 0.74960 0.38353
 H768 H 0.38422 0.76410 0.33003
 C769 C 0.28771 0.87640 0.10953
 C770 C 0.26348 0.89532 0.09931
 C771 C 0.26717 0.91463 0.07299
 C772 C 0.29510 0.91538 0.05639
 C773 C 0.31946 0.89690 0.06665
 C774 C 0.31589 0.87771 0.09311
 C775 C 0.28305 0.85437 0.13617
 C776 C 0.29578 0.82499 0.13455
 C777 C 0.28985 0.80359 0.15851
 C778 C 0.27085 0.81097 0.18456
 C779 C 0.25865 0.84052 0.18660
 C780 C 0.26476 0.86201 0.16273
 H781 H 0.24800 0.92846 0.06504
 H782 H 0.34113 0.89715 0.05395
 H783 H 0.29949 0.78097 0.15614
 H784 H 0.24408 0.84698 0.20647
 H785 H 0.33513 0.86378 0.10059
 H786 H 0.30956 0.81814 0.11423
 H787 H 0.24132 0.89450 0.11097
 H788 H 0.25502 0.88459 0.16500
 C789 C 0.78971 0.37835 0.61407
 C790 C 0.76577 0.39795 0.60454
 C791 C 0.76929 0.41712 0.57808
 C792 C 0.79675 0.41704 0.56064
 C793 C 0.82085 0.39790 0.57021
 C794 C 0.81746 0.37888 0.59683
 C795 C 0.78512 0.35643 0.64083
 C796 C 0.79712 0.32676 0.63891
 C797 C 0.79122 0.30548 0.66300
 C798 C 0.77296 0.31327 0.68948
 C799 C 0.76149 0.34309 0.69182
 C800 C 0.76760 0.36446 0.66783
 H801 H 0.75031 0.43147 0.57067
 H802 H 0.84215 0.39752 0.55686
 H803 H 0.80026 0.28265 0.66039
 H804 H 0.74751 0.34984 0.71204
 H805 H 0.83651 0.36443 0.60376
 H806 H 0.81027 0.31960 0.61826
 H807 H 0.74391 0.39776 0.61684
 H808 H 0.75845 0.38725 0.67036
 C809 C 0.71732 0.11813 0.11721
 C810 C 0.74298 0.10069 0.10806
 C811 C 0.74165 0.08190 0.08118
 C812 C 0.71466 0.08015 0.06299
 C813 C 0.68882 0.09700 0.07225
 C814 C 0.69006 0.11573 0.09925
 C815 C 0.71977 0.14007 0.14411
 C816 C 0.73714 0.13292 0.17152
 C817 C 0.74206 0.15471 0.19529
 C818 C 0.72956 0.18407 0.19228
 C819 C 0.71111 0.19084 0.16556
 C820 C 0.70635 0.16911 0.14169
 H821 H 0.76193 0.06936 0.07397
 H822 H 0.66789 0.09599 0.05825
 H823 H 0.75617 0.14872 0.21574
 H824 H 0.70123 0.21328 0.16249
 H825 H 0.66982 0.12859 0.10587
 H826 H 0.74732 0.11058 0.17438
 H827 H 0.76449 0.10244 0.12094
 H828 H 0.69318 0.17551 0.12071
 C829 C 0.20663 0.62155 0.60947
 C830 C 0.23047 0.60134 0.60125
 C831 C 0.22741 0.58175 0.57511
 C832 C 0.20050 0.58195 0.55666
 C833 C 0.17652 0.60178 0.56489
 C834 C 0.17946 0.62126 0.59118
 C835 C 0.21075 0.64368 0.63612
 C836 C 0.22717 0.63552 0.66388
 C837 C 0.23296 0.65695 0.68783
 C838 C 0.22226 0.68701 0.68476
 C839 C 0.20501 0.69496 0.65753
 C840 C 0.19942 0.67359 0.63344
 H841 H 0.24635 0.56695 0.56872
 H842 H 0.15566 0.60234 0.55074
 H843 H 0.24613 0.65004 0.70864
 H844 H 0.19657 0.71796 0.65437
 H845 H 0.16051 0.63621 0.59706
 H846 H 0.23573 0.61257 0.66703
 H847 H 0.25193 0.60133 0.61435
 H848 H 0.18708 0.68082 0.61222
 C849 C 0.87631 0.70896 0.11376
 C850 C 0.87546 0.68284 0.09428
 C851 C 0.89414 0.68067 0.06718
 C852 C 0.91429 0.70432 0.05938
 C853 C 0.91594 0.72998 0.07915
 C854 C 0.89708 0.73234 0.10606
 C855 C 0.85442 0.71270 0.14081
 C856 C 0.86319 0.72803 0.16892
 C857 C 0.84175 0.73398 0.19301
 C858 C 0.81114 0.72447 0.18968
 C859 C 0.80265 0.70812 0.16218
 C860 C 0.82398 0.70244 0.13797
 H861 H 0.89263 0.66073 0.05204
 H862 H 0.93118 0.74857 0.07316
 H863 H 0.84904 0.74643 0.21405
 H864 H 0.77919 0.70064 0.15881
 H865 H 0.89798 0.75299 0.12011
 H866 H 0.88657 0.73574 0.17218
 H867 H 0.86012 0.66422 0.09977
 H868 H 0.81625 0.69102 0.11648
 C869 C 0.37709 0.20503 0.61232
 C870 C 0.37671 0.17764 0.59485
 C871 C 0.39608 0.17360 0.56850
 C872 C 0.41646 0.19666 0.55938
 C873 C 0.41735 0.22377 0.57700
 C874 C 0.39787 0.22794 0.60321
 C875 C 0.35501 0.21032 0.63895
 C876 C 0.36369 0.22709 0.66617
 C877 C 0.34230 0.23389 0.69008
 C878 C 0.31179 0.22387 0.68748
 C879 C 0.30332 0.20634 0.66078
 C880 C 0.32463 0.19974 0.63676
 H881 H 0.39501 0.15260 0.55500
 H882 H 0.43261 0.24200 0.56993
 H883 H 0.34962 0.24727 0.71046
 H884 H 0.27995 0.19840 0.65797
 H885 H 0.39839 0.24952 0.61565
 H886 H 0.38702 0.23513 0.66893
 H887 H 0.36133 0.15938 0.60144
 H888 H 0.31699 0.18718 0.61595
 C889 C 0.12236 0.29327 0.11250
 C890 C 0.12265 0.32072 0.09510
 C891 C 0.10342 0.32473 0.06858
 C892 C 0.08328 0.30154 0.05925
 C893 C 0.08245 0.27437 0.07683
 C894 C 0.10179 0.27025 0.10320
 C895 C 0.14440 0.28796 0.13919
 C896 C 0.13575 0.27109 0.16636
 C897 C 0.15719 0.26412 0.19023
 C898 C 0.18772 0.27405 0.18760
 C899 C 0.19615 0.29174 0.16098
 C900 C 0.17478 0.29852 0.13701
 H901 H 0.10441 0.34579 0.05512
 H902 H 0.06735 0.25607 0.06960
 H903 H 0.14993 0.25062 0.21056
 H904 H 0.21952 0.29962 0.15815
 H905 H 0.10135 0.24862 0.11562
 H906 H 0.11242 0.26306 0.16908
 H907 H 0.13789 0.33905 0.10185
 H908 H 0.18238 0.31116 0.11622
 C909 C 0.61942 0.79832 0.60941
 C910 C 0.59839 0.77540 0.60105
 C911 C 0.57861 0.77924 0.57499
 C912 C 0.57942 0.80605 0.55681
 C913 C 0.60004 0.82915 0.56522
 C914 C 0.61974 0.82542 0.59141
 C915 C 0.64185 0.79325 0.63580
 C916 C 0.67237 0.80323 0.63283
 C917 C 0.69402 0.79661 0.65661
 C918 C 0.68569 0.77969 0.68380
 C919 C 0.65503 0.77036 0.68719
 C920 C 0.63334 0.77716 0.66353
 H921 H 0.56322 0.76095 0.56843
 H922 H 0.60109 0.84991 0.55125
 H923 H 0.71749 0.80402 0.65323
 H924 H 0.64783 0.75749 0.70799
 H925 H 0.63537 0.84366 0.59743
 H926 H 0.67984 0.81529 0.61161
 H927 H 0.59792 0.75402 0.61395
 H928 H 0.60992 0.76962 0.66685
   
