data_POSCAR
  _audit_creation_date              2014-09-24
  _audit_creation_method            'ToBaCCo'
  _symmetry_space_group_name_H-M    'P1'
  _symmetry_Int_Tables_number       1
  _symmetry_cell_setting            triclinic
  loop_
  _symmetry_equiv_pos_as_xyz
 x,y,z
_cell_length_a 18.3580
_cell_length_b 18.3581
_cell_length_c 32.9278
_cell_angle_alpha 89.849200
_cell_angle_beta 90.014100
_cell_angle_gamma 90.001800
loop_
  _atom_site_label
  _atom_site_type_symbol
  _atom_site_fract_x
  _atom_site_fract_y
  _atom_site_fract_z
O1 O 0.06054 0.42844 0.96133
 O2 O 0.05926 0.57046 1.04013
 O3 O 0.06006 0.42842 1.04069
 O4 O 0.05988 0.57042 0.96149
 O5 O -0.06047 0.56931 0.96092
 O6 O -0.06022 0.42706 1.04000
 O7 O -0.06108 0.56921 1.04023
 O8 O -0.05981 0.42736 0.96136
 Cu9 Cu 0.07202 0.49935 1.00095
 Cu10 Cu -0.07248 0.49829 1.00062
 C11 C 0.00055 0.40362 0.94803
 C12 C -0.00111 0.59423 1.05344
 C13 C -0.00005 0.40324 1.05372
 C14 C -0.00030 0.59422 0.94785
 O15 O 0.57117 0.06096 0.45934
 O16 O 0.42960 0.06027 0.53856
 O17 O 0.57158 0.06093 0.53869
 O18 O 0.42913 0.06015 0.45991
 O19 O 0.43038 -0.06019 0.45973
 O20 O 0.57265 -0.05942 0.53859
 O21 O 0.43070 -0.06008 0.53905
 O22 O 0.57253 -0.05933 0.45996
 Cu23 Cu 0.50044 0.07266 0.49909
 Cu24 Cu 0.50150 -0.07185 0.49933
 C25 C 0.59630 0.00092 0.44628
 C26 C 0.40588 0.00000 0.55216
 C27 C 0.59648 0.00085 0.55195
 C28 C 0.40531 -0.00013 0.44655
 C29 C -0.00175 0.00031 0.25000
 C30 C 0.00114 -0.00002 0.75000
 C31 C -0.00163 -0.23855 0.13936
 N32 N 0.06142 -0.26006 0.12151
 N33 N 0.06159 -0.31387 0.09446
 C34 C -0.00133 -0.34792 0.08411
 N35 N -0.06443 -0.32648 0.10196
 N36 N -0.06455 -0.27289 0.12920
 C37 C -0.00172 -0.17828 0.16859
 N38 N -0.06276 -0.16142 0.18983
 N39 N -0.06276 -0.10616 0.21599
 C40 C -0.00165 -0.06568 0.22206
 N41 N 0.05898 -0.08210 0.20020
 N42 N 0.05910 -0.13757 0.17423
 C43 C -0.00056 0.23943 0.13890
 N44 N -0.06394 0.26418 0.12273
 N45 N -0.06377 0.31784 0.09543
 C46 C -0.00015 0.34846 0.08303
 N47 N 0.06327 0.32371 0.09927
 N48 N 0.06305 0.27034 0.12679
 C49 C -0.00089 0.17925 0.16836
 N50 N 0.06065 0.16056 0.18871
 N51 N 0.06033 0.10529 0.21502
 C52 C -0.00162 0.06661 0.22211
 N53 N -0.06279 0.08480 0.20111
 N54 N -0.06258 0.14034 0.17502
 C55 C 0.23990 0.00014 0.63905
 N56 N 0.27421 -0.06282 0.62900
 N57 N 0.32738 -0.06292 0.60145
 C58 C 0.34840 0.00001 0.58312
 N59 N 0.31438 0.06299 0.59335
 N60 N 0.26098 0.06302 0.62072
 C61 C 0.17995 0.00022 0.66855
 N62 N 0.13884 0.06085 0.67389
 N63 N 0.08340 0.06073 0.69995
 C64 C 0.06741 0.00031 0.72219
 N65 N 0.10839 -0.06056 0.71651
 N66 N 0.16362 -0.06057 0.69025
 C67 C -0.23716 0.00057 0.63865
 N68 N -0.25823 -0.06225 0.62045
 N69 N -0.31173 -0.06216 0.59312
 C70 C -0.34584 0.00083 0.58281
 N71 N -0.32481 0.06370 0.60100
 N72 N -0.27155 0.06355 0.62853
 C73 C -0.17721 0.00038 0.66818
 N74 N -0.16105 0.06099 0.68991
 N75 N -0.10593 0.06080 0.71625
 C76 C -0.06490 -0.00009 0.72200
 N77 N -0.08070 -0.06030 0.69972
 N78 N -0.13603 -0.06024 0.67357
 C79 C 0.00041 -0.23921 0.86106
 N80 N 0.06316 -0.26038 0.87943
 N81 N 0.06295 -0.31397 0.90677
 C82 C -0.00009 -0.34810 0.91692
 N83 N -0.06289 -0.32699 0.89854
 N84 N -0.06261 -0.27363 0.87101
 C85 C 0.00070 -0.17908 0.83157
 N86 N -0.05990 -0.16271 0.80977
 N87 N -0.05969 -0.10738 0.78349
 C88 C 0.00121 -0.06633 0.77789
 N89 N 0.06143 -0.08236 0.80024
 N90 N 0.06134 -0.13791 0.82632
 C91 C 0.00085 0.23784 0.86124
 N92 N 0.06376 0.27214 0.87145
 N93 N 0.06373 0.32521 0.89900
 C94 C 0.00072 0.34614 0.91714
 N95 N -0.06220 0.31213 0.90674
 N96 N -0.06210 0.25882 0.87938
 C97 C 0.00085 0.17807 0.83170
 N98 N -0.05975 0.13696 0.82622
 N99 N -0.05960 0.08174 0.80009
 C100 C 0.00082 0.06598 0.77791
 N101 N 0.06167 0.10695 0.78375
 N102 N 0.06165 0.16196 0.81007
 C103 C -0.24023 0.00093 0.36118
 N104 N -0.27110 0.06446 0.37329
 N105 N -0.32437 0.06452 0.40079
 C106 C -0.34905 0.00100 0.41699
 N107 N -0.31847 -0.06254 0.40459
 N108 N -0.26490 -0.06254 0.37731
 C109 C -0.18018 0.00077 0.33173
 N110 N -0.14126 -0.06087 0.32507
 N111 N -0.08589 -0.06094 0.29896
 C112 C -0.06791 0.00029 0.27791
 N113 N -0.10655 0.06220 0.28502
 N114 N -0.16166 0.06240 0.31135
 C115 C 0.23776 -0.00014 0.36055
 N116 N 0.27210 -0.06312 0.37072
 N117 N 0.32579 -0.06317 0.39797
 C118 C 0.34733 -0.00017 0.41586
 N119 N 0.31327 0.06282 0.40551
 N120 N 0.25936 0.06281 0.37843
 C121 C 0.17734 -0.00006 0.33132
 N122 N 0.13665 0.06081 0.32568
 N123 N 0.08101 0.06082 0.29973
 C124 C 0.06438 0.00027 0.27792
 N125 N 0.10489 -0.06088 0.28395
 N126 N 0.16033 -0.06100 0.31008
   
