data_POSCAR
  _audit_creation_date              2014-09-24
  _audit_creation_method            'ToBaCCo'
  _symmetry_space_group_name_H-M    'P1'
  _symmetry_Int_Tables_number       1
  _symmetry_cell_setting            triclinic
  loop_
  _symmetry_equiv_pos_as_xyz
 x,y,z
_cell_length_a 51.1497
_cell_length_b 51.1222
_cell_length_c 33.5224
_cell_angle_alpha 89.912700
_cell_angle_beta 90.134900
_cell_angle_gamma 90.288000
loop_
  _atom_site_label
  _atom_site_type_symbol
  _atom_site_fract_x
  _atom_site_fract_y
  _atom_site_fract_z
O1 O 0.02471 0.27457 -0.03907
 O2 O -0.02776 0.27461 0.03668
 O3 O 0.02357 0.27497 0.03847
 O4 O -0.02666 0.27414 -0.04092
 O5 O -0.02612 0.23101 -0.04026
 O6 O 0.02317 0.23183 0.03937
 O7 O -0.02746 0.23151 0.03703
 O8 O 0.02488 0.23143 -0.03739
 Cu9 Cu -0.00158 0.27893 -0.00133
 Cu10 Cu -0.00144 0.22716 -0.00036
 C11 C 0.03415 0.25287 -0.05044
 C12 C -0.03675 0.25296 0.04963
 C13 C 0.03213 0.25344 0.05220
 C14 C -0.03516 0.25233 -0.05385
 O15 O 0.47420 0.77554 0.53617
 O16 O 0.52619 0.77462 0.45970
 O17 O 0.47478 0.77484 0.45852
 O18 O 0.52551 0.77510 0.53725
 O19 O 0.52446 0.73197 0.53840
 O20 O 0.47481 0.73170 0.45922
 O21 O 0.52585 0.73148 0.46163
 O22 O 0.47377 0.73240 0.53652
 Cu23 Cu 0.50018 0.77938 0.49775
 Cu24 Cu 0.49961 0.72760 0.49891
 C25 C 0.46497 0.75402 0.54917
 C26 C 0.53533 0.75278 0.44838
 C27 C 0.46594 0.75312 0.44572
 C28 C 0.53382 0.75348 0.55100
 O29 O 1.02657 0.72589 0.03654
 O30 O 0.97546 0.72550 -0.04158
 O31 O 1.02683 0.72606 -0.04099
 O32 O 0.97517 0.72547 0.03599
 O33 O 0.97533 0.76861 0.03587
 O34 O 1.02629 0.76915 -0.04086
 O35 O 0.97549 0.76864 -0.04131
 O36 O 1.02613 0.76898 0.03639
 Cu37 Cu 1.00102 0.72138 -0.00251
 Cu38 Cu 1.00080 0.77311 -0.00248
 C39 C 1.03534 0.74759 0.04956
 C40 C 0.96655 0.74710 -0.05448
 C41 C 1.03563 0.74781 -0.05384
 C42 C 0.96625 0.74705 0.04879
 O43 O 0.47346 0.22436 0.45820
 O44 O 0.52437 0.22391 0.53656
 O45 O 0.47303 0.22428 0.53572
 O46 O 0.52479 0.22412 0.45893
 O47 O 0.52494 0.26726 0.45917
 O48 O 0.47384 0.26742 0.53568
 O49 O 0.52462 0.26705 0.53641
 O50 O 0.47414 0.26750 0.45853
 Cu51 Cu 0.49888 0.21980 0.49734
 Cu52 Cu 0.49945 0.27159 0.49745
 C53 C 0.46490 0.24610 0.44531
 C54 C 0.53336 0.24550 0.54960
 C55 C 0.46442 0.24599 0.54852
 C56 C 0.53385 0.24577 0.44618
 O57 O 0.72419 0.02374 -0.03744
 O58 O 0.72516 -0.02735 0.04077
 O59 O 0.72452 0.02400 0.04017
 O60 O 0.72463 -0.02759 -0.03691
 O61 O 0.76774 -0.02671 -0.03708
 O62 O 0.76763 0.02441 0.03956
 O63 O 0.76822 -0.02638 0.04016
 O64 O 0.76731 0.02407 -0.03765
 Cu65 Cu 0.72027 -0.00188 0.00170
 Cu66 Cu 0.77200 -0.00109 0.00122
 C67 C 0.74570 0.03278 -0.05065
 C68 C 0.74697 -0.03581 0.05363
 C69 C 0.74615 0.03319 0.05274
 C70 C 0.74630 -0.03610 -0.04993
 O71 O 0.22367 0.52561 0.46159
 O72 O 0.22416 0.47484 0.54027
 O73 O 0.22393 0.52618 0.53916
 O74 O 0.22378 0.47423 0.46257
 O75 O 0.26690 0.47486 0.46245
 O76 O 0.26705 0.52625 0.53875
 O77 O 0.26727 0.47542 0.53969
 O78 O 0.26679 0.52568 0.46154
 Cu79 Cu 0.21953 0.50016 0.50092
 Cu80 Cu 0.27128 0.50058 0.50058
 C81 C 0.24525 0.53451 0.44844
 C82 C 0.24591 0.46630 0.55316
 C83 C 0.24561 0.53526 0.55175
 C84 C 0.24541 0.46552 0.44967
 O85 O 0.27446 1.02732 0.03957
 O86 O 0.27539 0.97566 -0.03759
 O87 O 0.27524 1.02700 -0.03793
 O88 O 0.27510 0.97587 0.04006
 O89 O 0.23199 0.97548 0.03895
 O90 O 0.23217 1.02633 -0.03842
 O91 O 0.23228 0.97552 -0.03828
 O92 O 0.23139 1.02631 0.03877
 Cu93 Cu 0.27939 1.00150 0.00115
 Cu94 Cu 0.22769 1.00085 0.00019
 C95 C 0.25265 1.03591 0.05207
 C96 C 0.25386 0.96665 -0.05090
 C97 C 0.25364 1.03568 -0.05122
 C98 C 0.25344 0.96673 0.05250
 O99 O 0.77604 0.52460 0.53959
 O100 O 0.77622 0.47327 0.46202
 O101 O 0.77674 0.52457 0.46200
 O102 O 0.77588 0.47320 0.53962
 O103 O 0.73277 0.47346 0.53860
 O104 O 0.73362 0.52447 0.46149
 O105 O 0.73311 0.47367 0.46138
 O106 O 0.73292 0.52430 0.53867
 Cu107 Cu 0.78058 0.49890 0.50092
 Cu108 Cu 0.72882 0.49898 0.49997
 C109 C 0.75434 0.53340 0.55207
 C110 C 0.75458 0.46457 0.44868
 C111 C 0.75523 0.53347 0.44876
 C112 C 0.75410 0.46435 0.55205
 C113 C 0.23105 0.19983 0.20647
 C114 C 0.20586 0.20840 0.19706
 C115 C 0.19735 0.23347 0.20710
 C116 C 0.21425 0.25052 0.22821
 C117 C 0.23974 0.24200 0.23865
 C118 C 0.24823 0.21660 0.22764
 C119 C 0.27350 0.20856 0.23852
 C120 C 0.29029 0.22523 0.25924
 C121 C 0.28230 0.25042 0.27050
 C122 C 0.25680 0.25893 0.26008
 C123 C 0.20624 0.27569 0.23954
 C124 C 0.22300 0.29233 0.26037
 C125 C 0.24829 0.28430 0.27114
 C126 C 0.26547 0.30106 0.29230
 C127 C 0.29068 0.29254 0.30162
 C128 C 0.29921 0.26748 0.29157
 H129 H 0.28054 0.18923 0.23126
 H130 H 0.30967 0.21816 0.26624
 H131 H 0.18685 0.28275 0.23255
 H132 H 0.21595 0.31163 0.26779
 H133 H 0.19293 0.19563 0.18021
 H134 H 0.30360 0.30533 0.31847
 C135 C 0.73698 0.69982 0.29684
 C136 C 0.71288 0.70891 0.31034
 C137 C 0.70443 0.73439 0.30248
 C138 C 0.72031 0.75129 0.27928
 C139 C 0.74475 0.74220 0.26487
 C140 C 0.75320 0.71644 0.27392
 C141 C 0.77756 0.70797 0.25978
 C142 C 0.79359 0.72458 0.23769
 C143 C 0.78567 0.75015 0.22831
 C144 C 0.76101 0.75906 0.24199
 C145 C 0.71285 0.77717 0.27108
 C146 C 0.72863 0.79358 0.24818
 C147 C 0.75267 0.78487 0.23311
 C148 C 0.76896 0.80150 0.21021
 C149 C 0.79340 0.79259 0.19771
 C150 C 0.80192 0.76726 0.20621
 H151 H 0.78451 0.68839 0.26578
 H152 H 0.81235 0.71718 0.22818
 H153 H 0.69480 0.78511 0.28248
 H154 H 0.72199 0.81336 0.24295
 H155 H 0.70071 0.69606 0.32831
 H156 H 0.80573 0.80538 0.17991
 C157 C 0.80026 0.23278 0.20628
 C158 C 0.79158 0.20759 0.19672
 C159 C 0.76647 0.19891 0.20663
 C160 C 0.74949 0.21567 0.22768
 C161 C 0.75816 0.24116 0.23832
 C162 C 0.78361 0.24980 0.22750
 C163 C 0.79183 0.27503 0.23861
 C164 C 0.77529 0.29164 0.25948
 C165 C 0.75003 0.28351 0.27052
 C166 C 0.74132 0.25806 0.25975
 C167 C 0.72424 0.20753 0.23878
 C168 C 0.70767 0.22418 0.25950
 C169 C 0.71586 0.24944 0.27050
 C170 C 0.69917 0.26649 0.29158
 C171 C 0.70789 0.29164 0.30133
 C172 C 0.73308 0.30024 0.29168
 H173 H 0.81121 0.28217 0.23145
 H174 H 0.78249 0.31099 0.26672
 H175 H 0.71706 0.18815 0.23164
 H176 H 0.68829 0.21704 0.26671
 H177 H 0.80429 0.19479 0.17985
 H178 H 0.69516 0.30443 0.31818
 C179 C 0.19864 0.76731 0.20674
 C180 C 0.20744 0.79248 0.19719
 C181 C 0.23268 0.80097 0.20689
 C182 C 0.24969 0.78401 0.22774
 C183 C 0.24093 0.75854 0.23837
 C184 C 0.21534 0.75011 0.22777
 C185 C 0.20704 0.72489 0.23889
 C186 C 0.22363 0.70809 0.25951
 C187 C 0.24902 0.71601 0.27033
 C188 C 0.25781 0.74145 0.25959
 C189 C 0.27507 0.79194 0.23862
 C190 C 0.29169 0.77511 0.25912
 C191 C 0.28341 0.74986 0.27013
 C192 C 0.30015 0.73263 0.29101
 C193 C 0.29133 0.70750 0.30070
 C194 C 0.26603 0.69907 0.29124
 H195 H 0.18756 0.71791 0.23191
 H196 H 0.21635 0.68876 0.26675
 H197 H 0.28232 0.81130 0.23149
 H198 H 0.31116 0.78210 0.26613
 H199 H 0.19470 0.80541 0.18045
 H200 H 0.30409 0.69456 0.31739
 C201 C 0.79968 0.23053 0.79062
 C202 C 0.79093 0.20538 0.80036
 C203 C 0.76563 0.19692 0.79098
 C204 C 0.74857 0.21382 0.77012
 C205 C 0.75730 0.23927 0.75935
 C206 C 0.78290 0.24773 0.76978
 C207 C 0.79112 0.27298 0.75872
 C208 C 0.77445 0.28979 0.73830
 C209 C 0.74906 0.28183 0.72754
 C210 C 0.74035 0.25635 0.73823
 C211 C 0.72318 0.20585 0.75936
 C212 C 0.70654 0.22263 0.73882
 C213 C 0.71476 0.24788 0.72776
 C214 C 0.69800 0.26506 0.70688
 C215 C 0.70671 0.29024 0.69725
 C216 C 0.73198 0.29875 0.70674
 H217 H 0.81060 0.28000 0.76563
 H218 H 0.78166 0.30916 0.73115
 H219 H 0.71596 0.18649 0.76659
 H220 H 0.68707 0.21561 0.73184
 H221 H 0.80373 0.19249 0.81705
 H222 H 0.69391 0.30315 0.68058
 C223 C 0.30041 0.73474 0.70598
 C224 C 0.29164 0.70960 0.69622
 C225 C 0.26649 0.70098 0.70601
 C226 C 0.24957 0.71775 0.72720
 C227 C 0.25834 0.74316 0.73808
 C228 C 0.28382 0.75174 0.72730
 C229 C 0.29212 0.77693 0.73853
 C230 C 0.27566 0.79352 0.75958
 C231 C 0.25040 0.78544 0.77065
 C232 C 0.24159 0.76005 0.75970
 C233 C 0.22428 0.70969 0.73818
 C234 C 0.20778 0.72632 0.75908
 C235 C 0.21609 0.75149 0.77040
 C236 C 0.19949 0.76852 0.79172
 C237 C 0.20834 0.79359 0.80168
 C238 C 0.23353 0.80216 0.79198
 H239 H 0.31150 0.78403 0.73128
 H240 H 0.28294 0.81283 0.76697
 H241 H 0.21701 0.69037 0.73082
 H242 H 0.18836 0.71925 0.76615
 H243 H 0.30434 0.69682 0.67930
 H244 H 0.19569 0.80638 0.81867
 C245 C 0.23537 0.20068 0.79730
 C246 C 0.21137 0.20992 0.81097
 C247 C 0.20301 0.23542 0.80309
 C248 C 0.21888 0.25222 0.77973
 C249 C 0.24323 0.24301 0.76519
 C250 C 0.25160 0.21722 0.77423
 C251 C 0.27587 0.20863 0.75991
 C252 C 0.29192 0.22517 0.73771
 C253 C 0.28408 0.25077 0.72837
 C254 C 0.25950 0.25980 0.74218
 C255 C 0.21146 0.27811 0.77144
 C256 C 0.22725 0.29443 0.74841
 C257 C 0.25124 0.28563 0.73329
 C258 C 0.26754 0.30218 0.71030
 C259 C 0.29192 0.29318 0.69770
 C260 C 0.30036 0.26781 0.70617
 H261 H 0.28274 0.18901 0.76583
 H262 H 0.31061 0.21768 0.72809
 H263 H 0.19345 0.28611 0.78288
 H264 H 0.22065 0.31422 0.74310
 H265 H 0.19919 0.19716 0.82908
 H266 H 0.30427 0.30592 0.67984
 C267 C 0.73280 0.69886 0.70604
 C268 C 0.70763 0.70738 0.69645
 C269 C 0.69910 0.73249 0.70626
 C270 C 0.71597 0.74957 0.72740
 C271 C 0.74145 0.74107 0.73799
 C272 C 0.74996 0.71567 0.72712
 C273 C 0.77525 0.70767 0.73801
 C274 C 0.79201 0.72436 0.75872
 C275 C 0.78399 0.74955 0.76991
 C276 C 0.75848 0.75803 0.75940
 C277 C 0.70794 0.77476 0.73862
 C278 C 0.72467 0.79141 0.75948
 C279 C 0.74994 0.78340 0.77037
 C280 C 0.76707 0.80018 0.79157
 C281 C 0.79229 0.79171 0.80098
 C282 C 0.80087 0.76665 0.79098
 H283 H 0.78231 0.68834 0.73073
 H284 H 0.81140 0.71733 0.76576
 H285 H 0.68856 0.78181 0.73153
 H286 H 0.71759 0.81072 0.76682
 H287 H 0.69474 0.69455 0.67964
 H288 H 0.80516 0.80452 0.81785
 C289 C 0.24927 0.10063 0.13065
 C290 C 0.27354 0.09102 0.11790
 C291 C 0.27483 0.06911 0.09295
 C292 C 0.25180 0.05652 0.07979
 C293 C 0.22759 0.06584 0.09363
 C294 C 0.22637 0.08754 0.11869
 C295 C 0.24740 0.12514 0.15420
 C296 C 0.22889 0.12737 0.18494
 C297 C 0.22454 0.15144 0.20337
 C298 C 0.23874 0.17368 0.19165
 C299 C 0.25800 0.17132 0.16215
 C300 C 0.26240 0.14722 0.14371
 H301 H 0.29386 0.06251 0.08319
 H302 H 0.20937 0.05676 0.08443
 H303 H 0.20948 0.15294 0.22591
 H304 H 0.26882 0.18839 0.15223
 H305 H 0.20735 0.09468 0.12753
 H306 H 0.21725 0.11063 0.19395
 H307 H 0.29152 0.10061 0.12695
 H308 H 0.27654 0.14620 0.11978
 C309 C 0.75133 0.59926 0.63172
 C310 C 0.77550 0.59036 0.61729
 C311 C 0.77669 0.56839 0.59248
 C312 C 0.75372 0.55499 0.58145
 C313 C 0.72970 0.56344 0.59692
 C314 C 0.72852 0.58528 0.62173
 C315 C 0.74940 0.62397 0.65477
 C316 C 0.73141 0.62619 0.68624
 C317 C 0.72694 0.65038 0.70425
 C318 C 0.74056 0.67271 0.69144
 C319 C 0.75933 0.67040 0.66124
 C320 C 0.76380 0.64622 0.64313
 H321 H 0.79550 0.56233 0.58108
 H322 H 0.71163 0.55358 0.58905
 H323 H 0.71226 0.65187 0.72737
 H324 H 0.76970 0.68755 0.65055
 H325 H 0.70955 0.59183 0.63180
 H326 H 0.72027 0.60935 0.69621
 H327 H 0.79343 0.60059 0.62478
 H328 H 0.77750 0.64524 0.61863
 C329 C 0.75027 0.90065 0.13476
 C330 C 0.72600 0.91047 0.12212
 C331 C 0.72476 0.93194 0.09619
 C332 C 0.74782 0.94395 0.08206
 C333 C 0.77204 0.93449 0.09583
 C334 C 0.77322 0.91316 0.12173
 C335 C 0.75205 0.87639 0.15908
 C336 C 0.77147 0.87390 0.18862
 C337 C 0.77597 0.84980 0.20700
 C338 C 0.76094 0.82784 0.19658
 C339 C 0.74058 0.83054 0.16879
 C340 C 0.73612 0.85464 0.15024
 H341 H 0.70572 0.93869 0.08654
 H342 H 0.79028 0.94313 0.08589
 H343 H 0.79184 0.84802 0.22827
 H344 H 0.72907 0.81367 0.15995
 H345 H 0.79225 0.90585 0.13034
 H346 H 0.78379 0.89039 0.19652
 H347 H 0.70797 0.90137 0.13197
 H348 H 0.72123 0.85582 0.12731
 C349 C 0.24898 0.40159 0.63541
 C350 C 0.22474 0.41109 0.62198
 C351 C 0.22357 0.43263 0.59618
 C352 C 0.24664 0.44504 0.58323
 C353 C 0.27078 0.43601 0.59767
 C354 C 0.27193 0.41457 0.62336
 C355 C 0.25077 0.37720 0.65946
 C356 C 0.26997 0.37467 0.68933
 C357 C 0.27444 0.35051 0.70756
 C358 C 0.25958 0.32853 0.69669
 C359 C 0.23945 0.33125 0.66854
 C360 C 0.23504 0.35539 0.65011
 H361 H 0.20466 0.43916 0.58567
 H362 H 0.28893 0.44509 0.58829
 H363 H 0.29015 0.34871 0.72911
 H364 H 0.22807 0.31436 0.65937
 H365 H 0.29096 0.40753 0.63252
 H366 H 0.28212 0.39119 0.69768
 H367 H 0.20670 0.40166 0.63103
 H368 H 0.22033 0.35657 0.62691
 C369 C 0.89893 0.25068 0.12897
 C370 C 0.91145 0.22758 0.11723
 C371 C 0.93294 0.22843 0.09176
 C372 C 0.94261 0.25248 0.07728
 C373 C 0.93052 0.27572 0.09004
 C374 C 0.90882 0.27479 0.11542
 C375 C 0.87470 0.24916 0.15316
 C376 C 0.85273 0.26417 0.14279
 C377 C 0.82873 0.25986 0.16167
 C378 C 0.82639 0.24067 0.19144
 C379 C 0.84856 0.22657 0.20317
 C380 C 0.87253 0.23084 0.18433
 H381 H 0.94163 0.21006 0.08286
 H382 H 0.93740 0.29463 0.07976
 H383 H 0.81170 0.27060 0.15178
 H384 H 0.84706 0.21158 0.22593
 H385 H 0.89964 0.29292 0.12424
 H386 H 0.85372 0.27817 0.11857
 H387 H 0.90406 0.20867 0.12664
 H388 H 0.88919 0.21923 0.19327
 C389 C 0.39949 0.75238 0.62961
 C390 C 0.41277 0.72930 0.61970
 C391 C 0.43440 0.73003 0.59447
 C392 C 0.44334 0.75385 0.57846
 C393 C 0.43058 0.77708 0.58923
 C394 C 0.40880 0.77634 0.61448
 C395 C 0.37506 0.75092 0.65343
 C396 C 0.35300 0.76554 0.64218
 C397 C 0.32893 0.76134 0.66089
 C398 C 0.32657 0.74258 0.69127
 C399 C 0.34877 0.72885 0.70382
 C400 C 0.37284 0.73308 0.68524
 H401 H 0.44377 0.71177 0.58681
 H402 H 0.43702 0.79575 0.57743
 H403 H 0.31187 0.77179 0.65041
 H404 H 0.34723 0.71419 0.72708
 H405 H 0.39909 0.79447 0.62186
 H406 H 0.35399 0.77917 0.61747
 H407 H 0.40587 0.71048 0.63026
 H408 H 0.38955 0.72180 0.69496
 C409 C 0.09946 0.75000 0.12974
 C410 C 0.08693 0.77309 0.11775
 C411 C 0.06542 0.77221 0.09213
 C412 C 0.05575 0.74815 0.07776
 C413 C 0.06777 0.72492 0.09094
 C414 C 0.08947 0.72587 0.11646
 C415 C 0.12383 0.75149 0.15381
 C416 C 0.14564 0.73627 0.14360
 C417 C 0.16974 0.74040 0.16241
 C418 C 0.17237 0.75963 0.19199
 C419 C 0.15036 0.77399 0.20353
 C420 C 0.12629 0.76990 0.18473
 H421 H 0.05677 0.79056 0.08293
 H422 H 0.06089 0.70599 0.08079
 H423 H 0.18664 0.72947 0.15261
 H424 H 0.15208 0.78904 0.22612
 H425 H 0.09862 0.70774 0.12552
 H426 H 0.14445 0.72219 0.11955
 H427 H 0.09437 0.79201 0.12699
 H428 H 0.10976 0.78169 0.19356
 C429 C 0.59853 0.24744 0.63100
 C430 C 0.58521 0.27048 0.62077
 C431 C 0.56361 0.26967 0.59533
 C432 C 0.55473 0.24579 0.57947
 C433 C 0.56746 0.22260 0.59071
 C434 C 0.58920 0.22343 0.61615
 C435 C 0.62307 0.24897 0.65469
 C436 C 0.64506 0.23431 0.64347
 C437 C 0.66922 0.23852 0.66204
 C438 C 0.67175 0.25730 0.69227
 C439 C 0.64963 0.27110 0.70477
 C440 C 0.62547 0.26688 0.68631
 H441 H 0.55425 0.28790 0.58731
 H442 H 0.56107 0.20388 0.57904
 H443 H 0.68621 0.22802 0.65156
 H444 H 0.65129 0.28579 0.72791
 H445 H 0.59892 0.20533 0.62381
 H446 H 0.64394 0.22065 0.61888
 H447 H 0.59212 0.28934 0.63115
 H448 H 0.60881 0.27821 0.69597
 C449 C 0.74747 0.09783 0.86771
 C450 C 0.77046 0.08432 0.87756
 C451 C 0.76968 0.06277 0.90310
 C452 C 0.74588 0.05414 0.91947
 C453 C 0.72272 0.06707 0.90865
 C454 C 0.72352 0.08876 0.88310
 C455 C 0.74903 0.12228 0.84380
 C456 C 0.76669 0.12438 0.81185
 C457 C 0.77106 0.14845 0.79319
 C458 C 0.75763 0.17079 0.80582
 C459 C 0.73906 0.16856 0.83637
 C460 C 0.73472 0.14448 0.85514
 H461 H 0.78788 0.05326 0.91078
 H462 H 0.70407 0.06086 0.92073
 H463 H 0.78558 0.14988 0.76981
 H464 H 0.72886 0.18571 0.84692
 H465 H 0.70546 0.09864 0.87577
 H466 H 0.77774 0.10756 0.80208
 H467 H 0.78927 0.09102 0.86677
 H468 H 0.72125 0.14360 0.87997
 C469 C 0.24749 0.59974 0.36716
 C470 C 0.27040 0.58609 0.37700
 C471 C 0.26946 0.56446 0.40238
 C472 C 0.24560 0.55588 0.41857
 C473 C 0.22252 0.56895 0.40772
 C474 C 0.22347 0.59072 0.38234
 C475 C 0.24920 0.62429 0.34350
 C476 C 0.26695 0.62647 0.31166
 C477 C 0.27140 0.65059 0.29321
 C478 C 0.25799 0.67292 0.30592
 C479 C 0.23936 0.67062 0.33638
 C480 C 0.23493 0.64650 0.35495
 H481 H 0.28761 0.55485 0.41009
 H482 H 0.20382 0.56280 0.41967
 H483 H 0.28597 0.65207 0.26989
 H484 H 0.22917 0.68777 0.34701
 H485 H 0.20547 0.60070 0.37499
 H486 H 0.27798 0.60965 0.30181
 H487 H 0.28927 0.59275 0.36637
 H488 H 0.22140 0.64556 0.37970
 C489 C 0.25190 0.90128 0.86828
 C490 C 0.27588 0.91035 0.88370
 C491 C 0.27675 0.93213 0.90899
 C492 C 0.25362 0.94514 0.91953
 C493 C 0.22979 0.93648 0.90318
 C494 C 0.22895 0.91485 0.87791
 C495 C 0.25027 0.87681 0.84452
 C496 C 0.23251 0.87469 0.81257
 C497 C 0.22809 0.85062 0.79403
 C498 C 0.24157 0.82829 0.80674
 C499 C 0.26025 0.83053 0.83726
 C500 C 0.26463 0.85460 0.85594
 H501 H 0.29542 0.93835 0.92107
 H502 H 0.21161 0.94604 0.91066
 H503 H 0.21350 0.84918 0.77066
 H504 H 0.27051 0.81337 0.84786
 H505 H 0.21010 0.90815 0.86713
 H506 H 0.22143 0.89150 0.80271
 H507 H 0.29392 0.90043 0.87654
 H508 H 0.27819 0.85549 0.88076
 C509 C 0.75190 0.39936 0.36769
 C510 C 0.72906 0.41302 0.37758
 C511 C 0.73013 0.43463 0.40290
 C512 C 0.75408 0.44315 0.41901
 C513 C 0.77709 0.43005 0.40815
 C514 C 0.77600 0.40832 0.38281
 C515 C 0.75006 0.37487 0.34404
 C516 C 0.76439 0.35264 0.35541
 C517 C 0.75987 0.32857 0.33684
 C518 C 0.74110 0.32635 0.30646
 C519 C 0.72761 0.34870 0.29383
 C520 C 0.73215 0.37277 0.31228
 H521 H 0.71203 0.44426 0.41062
 H522 H 0.79585 0.43617 0.42002
 H523 H 0.77014 0.31140 0.34737
 H524 H 0.71294 0.34727 0.27057
 H525 H 0.79396 0.39832 0.37542
 H526 H 0.77804 0.35352 0.38011
 H527 H 0.71013 0.40641 0.36701
 H528 H 0.72108 0.38961 0.30249
 C529 C 0.10363 0.25155 0.87809
 C530 C 0.08881 0.27451 0.88019
 C531 C 0.06569 0.27495 0.90259
 C532 C 0.05696 0.25229 0.92251
 C533 C 0.07138 0.22910 0.91870
 C534 C 0.09457 0.22881 0.89701
 C535 C 0.12946 0.25126 0.85872
 C536 C 0.15163 0.24563 0.88176
 C537 C 0.17580 0.24201 0.86356
 C538 C 0.17819 0.24368 0.82195
 C539 C 0.15615 0.25010 0.79887
 C540 C 0.13192 0.25415 0.81725
 H541 H 0.05496 0.29308 0.90497
 H542 H 0.06528 0.21133 0.93374
 H543 H 0.19252 0.23691 0.88183
 H544 H 0.15753 0.25102 0.76667
 H545 H 0.10579 0.21091 0.89559
 H546 H 0.15003 0.24330 0.91379
 H547 H 0.09562 0.29225 0.86581
 H548 H 0.11490 0.25826 0.79906
 C549 C 0.60477 0.75061 0.37685
 C550 C 0.59013 0.77370 0.37877
 C551 C 0.56701 0.77440 0.40113
 C552 C 0.55807 0.75188 0.42121
 C553 C 0.57228 0.72854 0.41754
 C554 C 0.59549 0.72800 0.39588
 C555 C 0.63065 0.75009 0.35763
 C556 C 0.65271 0.74424 0.38079
 C557 C 0.67694 0.74063 0.36277
 C558 C 0.67951 0.74251 0.32119
 C559 C 0.65757 0.74909 0.29800
 C560 C 0.63328 0.75315 0.31621
 H561 H 0.55645 0.79264 0.40341
 H562 H 0.56603 0.71088 0.43271
 H563 H 0.69358 0.73541 0.38114
 H564 H 0.65908 0.75017 0.26582
 H565 H 0.60656 0.71000 0.39460
 H566 H 0.65100 0.74180 0.41279
 H567 H 0.59711 0.79135 0.36430
 H568 H 0.61635 0.75744 0.29792
 C569 C 0.90077 0.74913 0.86526
 C570 C 0.91002 0.72509 0.87991
 C571 C 0.93197 0.72423 0.90493
 C572 C 0.94499 0.74742 0.91595
 C573 C 0.93620 0.77132 0.90026
 C574 C 0.91439 0.77216 0.87524
 C575 C 0.87605 0.75068 0.84203
 C576 C 0.87354 0.76868 0.81049
 C577 C 0.84929 0.77288 0.79243
 C578 C 0.82715 0.75896 0.80524
 C579 C 0.82977 0.74011 0.83542
 C580 C 0.85403 0.73593 0.85358
 H581 H 0.93828 0.70551 0.91648
 H582 H 0.94578 0.78954 0.90812
 H583 H 0.84756 0.78762 0.76934
 H584 H 0.81278 0.72952 0.84613
 H585 H 0.90756 0.79104 0.86501
 H586 H 0.89021 0.78008 0.80057
 H587 H 0.90008 0.70700 0.87244
 H588 H 0.85523 0.72219 0.87813
 C589 C 0.39916 0.24907 0.36517
 C590 C 0.40820 0.22489 0.37954
 C591 C 0.43015 0.22372 0.40449
 C592 C 0.44339 0.24674 0.41570
 C593 C 0.43483 0.27079 0.40023
 C594 C 0.41300 0.27193 0.37529
 C595 C 0.37438 0.25094 0.34217
 C596 C 0.37192 0.26907 0.31080
 C597 C 0.34765 0.27350 0.29294
 C598 C 0.32546 0.25969 0.30580
 C599 C 0.32801 0.24075 0.33584
 C600 C 0.35228 0.23634 0.35381
 H601 H 0.43630 0.20489 0.41586
 H602 H 0.44458 0.28889 0.40825
 H603 H 0.34596 0.28831 0.26994
 H604 H 0.31097 0.23025 0.34657
 H605 H 0.40633 0.29091 0.36526
 H606 H 0.38864 0.28037 0.30084
 H607 H 0.39808 0.20692 0.37193
 H608 H 0.35344 0.22251 0.37824
 C609 C 0.74891 0.89874 0.86900
 C610 C 0.77181 0.91244 0.87938
 C611 C 0.77079 0.93398 0.90480
 C612 C 0.74683 0.94241 0.92052
 C613 C 0.72378 0.92924 0.90924
 C614 C 0.72482 0.90757 0.88380
 C615 C 0.75065 0.87440 0.84505
 C616 C 0.73613 0.85206 0.85592
 C617 C 0.74046 0.82813 0.83697
 C618 C 0.75923 0.82617 0.80670
 C619 C 0.77291 0.84863 0.79458
 C620 C 0.76857 0.87256 0.81342
 H621 H 0.78892 0.94367 0.91286
 H622 H 0.70500 0.93529 0.92079
 H623 H 0.73006 0.81087 0.84715
 H624 H 0.78759 0.84741 0.77142
 H625 H 0.70682 0.89755 0.87604
 H626 H 0.72246 0.85274 0.88050
 H627 H 0.79073 0.90591 0.86905
 H628 H 0.77978 0.88949 0.80402
 C629 C 0.24775 0.39991 0.36936
 C630 C 0.22370 0.40887 0.38417
 C631 C 0.22275 0.43068 0.40934
 C632 C 0.24584 0.44387 0.42037
 C633 C 0.26976 0.43529 0.40468
 C634 C 0.27070 0.41361 0.37951
 C635 C 0.24939 0.37547 0.34556
 C636 C 0.26726 0.37350 0.31388
 C637 C 0.27148 0.34952 0.29512
 C638 C 0.25773 0.32712 0.30736
 C639 C 0.23902 0.32921 0.33770
 C640 C 0.23481 0.35320 0.35657
 H641 H 0.20401 0.43683 0.42089
 H642 H 0.28792 0.44498 0.41256
 H643 H 0.28611 0.34820 0.27191
 H644 H 0.22856 0.31201 0.34799
 H645 H 0.28958 0.40700 0.36918
 H646 H 0.27852 0.39037 0.30435
 H647 H 0.20567 0.39885 0.37659
 H648 H 0.22117 0.35398 0.38119
 C649 C 0.25200 0.10014 0.86928
 C650 C 0.27600 0.08987 0.88226
 C651 C 0.27668 0.06806 0.90755
 C652 C 0.25332 0.05614 0.92069
 C653 C 0.22938 0.06600 0.90646
 C654 C 0.22875 0.08768 0.88118
 C655 C 0.25081 0.12481 0.84588
 C656 C 0.23188 0.12800 0.81578
 C657 C 0.22793 0.15245 0.79819
 C658 C 0.24301 0.17406 0.81003
 C659 C 0.26287 0.17069 0.83845
 C660 C 0.26681 0.14624 0.85617
 H661 H 0.29552 0.06100 0.91755
 H662 H 0.21093 0.05743 0.91564
 H663 H 0.21240 0.15478 0.77647
 H664 H 0.27439 0.18730 0.84839
 H665 H 0.20992 0.09532 0.87223
 H666 H 0.21952 0.11178 0.80681
 H667 H 0.29424 0.09891 0.87324
 H668 H 0.28131 0.14451 0.87959
 C669 C 0.75394 0.59918 0.36837
 C670 C 0.77788 0.58937 0.38247
 C671 C 0.77847 0.56747 0.40760
 C672 C 0.75512 0.55503 0.41922
 C673 C 0.73129 0.56437 0.40405
 C674 C 0.73071 0.58616 0.37899
 C675 C 0.75272 0.62396 0.34521
 C676 C 0.73420 0.62702 0.31448
 C677 C 0.73014 0.65150 0.29704
 C678 C 0.74475 0.67325 0.30960
 C679 C 0.76423 0.67004 0.33865
 C680 C 0.76824 0.64557 0.35628
 H681 H 0.79716 0.56071 0.41871
 H682 H 0.71294 0.55526 0.41239
 H683 H 0.71490 0.65372 0.27481
 H684 H 0.77538 0.68675 0.34912
 H685 H 0.71190 0.59343 0.36924
 H686 H 0.72222 0.61067 0.30488
 H687 H 0.79612 0.59884 0.37451
 H688 H 0.78242 0.64396 0.38018
 C689 C 0.10012 0.75064 0.86721
 C690 C 0.08745 0.77366 0.87898
 C691 C 0.06582 0.77263 0.90419
 C692 C 0.05617 0.74849 0.91837
 C693 C 0.06835 0.72534 0.90541
 C694 C 0.09018 0.72644 0.88029
 C695 C 0.12459 0.75230 0.84356
 C696 C 0.14642 0.73715 0.85411
 C697 C 0.17058 0.74144 0.83569
 C698 C 0.17323 0.76076 0.80619
 C699 C 0.15121 0.77507 0.79433
 C700 C 0.12709 0.77082 0.81271
 H701 H 0.05705 0.79093 0.91323
 H702 H 0.06150 0.70636 0.91542
 H703 H 0.18748 0.73054 0.84570
 H704 H 0.15296 0.79018 0.77178
 H705 H 0.09944 0.70837 0.87139
 H706 H 0.14519 0.72300 0.87811
 H707 H 0.09485 0.79263 0.86990
 H708 H 0.11054 0.78256 0.80363
 C709 C 0.59961 0.24827 0.36637
 C710 C 0.58606 0.27119 0.37626
 C711 C 0.56429 0.27019 0.40119
 C712 C 0.55547 0.24623 0.41690
 C713 C 0.56847 0.22315 0.40604
 C714 C 0.59037 0.22417 0.38110
 C715 C 0.62423 0.25000 0.34308
 C716 C 0.64629 0.23549 0.35465
 C717 C 0.67047 0.23986 0.33638
 C718 C 0.67296 0.25865 0.30608
 C719 C 0.65078 0.27233 0.29326
 C720 C 0.62661 0.26795 0.31143
 H721 H 0.55474 0.28835 0.40893
 H722 H 0.56212 0.20438 0.41761
 H723 H 0.68751 0.22944 0.34708
 H724 H 0.65241 0.28702 0.27007
 H725 H 0.60028 0.20615 0.37370
 H726 H 0.64520 0.22180 0.37927
 H727 H 0.59289 0.29011 0.36597
 H728 H 0.60990 0.27916 0.30149
 C729 C 0.89956 0.24899 0.86510
 C730 C 0.91316 0.22617 0.87563
 C731 C 0.93489 0.22743 0.90082
 C732 C 0.94357 0.25154 0.91613
 C733 C 0.93059 0.27450 0.90445
 C734 C 0.90876 0.27323 0.87926
 C735 C 0.87484 0.24703 0.84192
 C736 C 0.85285 0.26167 0.85321
 C737 C 0.82860 0.25725 0.83503
 C738 C 0.82597 0.23828 0.80509
 C739 C 0.84807 0.22441 0.79260
 C740 C 0.87231 0.22883 0.81070
 H741 H 0.94443 0.20937 0.90921
 H742 H 0.93683 0.29338 0.91567
 H743 H 0.81164 0.26779 0.84552
 H744 H 0.84632 0.20958 0.76970
 H745 H 0.89883 0.29116 0.87132
 H746 H 0.85405 0.27553 0.87753
 H747 H 0.90638 0.20716 0.86575
 H748 H 0.88895 0.21750 0.80102
 C749 C 0.40024 0.75040 0.36532
 C750 C 0.41376 0.72749 0.37559
 C751 C 0.43559 0.72854 0.40059
 C752 C 0.44449 0.75255 0.41596
 C753 C 0.43158 0.77562 0.40459
 C754 C 0.40963 0.77455 0.37960
 C755 C 0.37547 0.74866 0.34220
 C756 C 0.35357 0.76339 0.35360
 C757 C 0.32927 0.75916 0.33545
 C758 C 0.32650 0.74027 0.30541
 C759 C 0.34851 0.72632 0.29280
 C760 C 0.37280 0.73056 0.31087
 H761 H 0.44507 0.71040 0.40873
 H762 H 0.43798 0.79443 0.41588
 H763 H 0.31238 0.76977 0.34603
 H764 H 0.34667 0.71154 0.26983
 H765 H 0.39977 0.79256 0.37188
 H766 H 0.35487 0.77720 0.37800
 H767 H 0.40683 0.70854 0.36563
 H768 H 0.38936 0.71915 0.30108
 C769 C 0.25094 0.90088 0.13258
 C770 C 0.22802 0.91444 0.12252
 C771 C 0.22901 0.93627 0.09755
 C772 C 0.25296 0.94514 0.08200
 C773 C 0.27604 0.93215 0.09309
 C774 C 0.27502 0.91018 0.11804
 C775 C 0.24923 0.87615 0.15579
 C776 C 0.26369 0.85411 0.14416
 C777 C 0.25933 0.82984 0.16233
 C778 C 0.24060 0.82725 0.19259
 C779 C 0.22698 0.84941 0.20548
 C780 C 0.23134 0.87367 0.18739
 H781 H 0.21087 0.94582 0.08962
 H782 H 0.29480 0.93852 0.08163
 H783 H 0.26968 0.81283 0.15156
 H784 H 0.21233 0.84770 0.22863
 H785 H 0.29303 0.90026 0.12557
 H786 H 0.27733 0.85530 0.11957
 H787 H 0.20911 0.90757 0.13269
 H788 H 0.22016 0.89035 0.19735
 C789 C 0.75079 0.39846 0.63196
 C790 C 0.72801 0.41219 0.62172
 C791 C 0.72926 0.43403 0.59678
 C792 C 0.75333 0.44272 0.58145
 C793 C 0.77627 0.42955 0.59271
 C794 C 0.77499 0.40758 0.61764
 C795 C 0.74882 0.37375 0.65518
 C796 C 0.76320 0.35163 0.64372
 C797 C 0.75871 0.32742 0.66199
 C798 C 0.73991 0.32497 0.69218
 C799 C 0.72633 0.34720 0.70484
 C800 C 0.73082 0.37140 0.68666
 H801 H 0.71122 0.44372 0.58872
 H802 H 0.79512 0.43578 0.58144
 H803 H 0.76903 0.31035 0.65138
 H804 H 0.71163 0.34560 0.72794
 H805 H 0.79290 0.39753 0.62532
 H806 H 0.77692 0.35271 0.61921
 H807 H 0.70901 0.40546 0.63172
 H808 H 0.71969 0.38815 0.69648
 C809 C 0.74845 0.09905 0.13250
 C810 C 0.77143 0.08561 0.12256
 C811 C 0.77050 0.06380 0.09764
 C812 C 0.74657 0.05483 0.08204
 C813 C 0.72345 0.06771 0.09298
 C814 C 0.72439 0.08966 0.11789
 C815 C 0.75009 0.12373 0.15569
 C816 C 0.76804 0.12625 0.18732
 C817 C 0.77236 0.15051 0.20535
 C818 C 0.75862 0.17262 0.19239
 C819 C 0.73981 0.16999 0.16213
 C820 C 0.73551 0.14572 0.14400
 H821 H 0.78868 0.05434 0.08983
 H822 H 0.70470 0.06125 0.08149
 H823 H 0.78706 0.15225 0.22851
 H824 H 0.72936 0.18697 0.15132
 H825 H 0.70635 0.09948 0.12533
 H826 H 0.77932 0.10960 0.19734
 H827 H 0.79032 0.09256 0.13277
 H828 H 0.72181 0.14451 0.11939
 C829 C 0.24823 0.60132 0.63119
 C830 C 0.27114 0.58777 0.62127
 C831 C 0.27011 0.56591 0.59643
 C832 C 0.24614 0.55701 0.58088
 C833 C 0.22308 0.57004 0.59175
 C834 C 0.22413 0.59203 0.61657
 C835 C 0.24997 0.62598 0.65449
 C836 C 0.26792 0.62837 0.68614
 C837 C 0.27227 0.65256 0.70435
 C838 C 0.25857 0.67475 0.69157
 C839 C 0.23977 0.67224 0.66127
 C840 C 0.23543 0.64804 0.64296
 H841 H 0.28824 0.55635 0.58867
 H842 H 0.20430 0.56364 0.58028
 H843 H 0.28697 0.65421 0.72754
 H844 H 0.22935 0.68927 0.65058
 H845 H 0.20613 0.60193 0.62399
 H846 H 0.27915 0.61167 0.69605
 H847 H 0.29006 0.59464 0.63147
 H848 H 0.22173 0.64692 0.61834
 C849 C 0.90042 0.74929 0.12842
 C850 C 0.90904 0.72529 0.11292
 C851 C 0.93099 0.72433 0.08806
 C852 C 0.94459 0.74737 0.07800
 C853 C 0.93633 0.77121 0.09439
 C854 C 0.91454 0.77215 0.11928
 C855 C 0.87593 0.75101 0.15200
 C856 C 0.87425 0.76831 0.18446
 C857 C 0.85034 0.77263 0.20330
 C858 C 0.82773 0.75955 0.19032
 C859 C 0.82948 0.74144 0.15906
 C860 C 0.85341 0.73712 0.14013
 H861 H 0.93687 0.70566 0.07590
 H862 H 0.94635 0.78933 0.08727
 H863 H 0.84928 0.78678 0.22725
 H864 H 0.81210 0.73149 0.14830
 H865 H 0.90819 0.79100 0.13019
 H866 H 0.89132 0.77903 0.19463
 H867 H 0.89867 0.70732 0.11972
 H868 H 0.85399 0.72394 0.11490
 C869 C 0.39859 0.24904 0.62808
 C870 C 0.40700 0.22493 0.61272
 C871 C 0.42893 0.22370 0.58786
 C872 C 0.44274 0.24660 0.57768
 C873 C 0.43469 0.27056 0.59391
 C874 C 0.41292 0.27176 0.61880
 C875 C 0.37415 0.25103 0.65167
 C876 C 0.37264 0.26841 0.68406
 C877 C 0.34879 0.27293 0.70296
 C878 C 0.32608 0.25997 0.69012
 C879 C 0.32764 0.24181 0.65891
 C880 C 0.35151 0.23730 0.63991
 H881 H 0.43465 0.20494 0.57583
 H882 H 0.44488 0.28857 0.58668
 H883 H 0.34787 0.28711 0.72688
 H884 H 0.31018 0.23196 0.64826
 H885 H 0.40674 0.29069 0.62960
 H886 H 0.38980 0.27902 0.69413
 H887 H 0.39647 0.20707 0.61964
 H888 H 0.35196 0.22406 0.61474
 C889 C 0.09741 0.25154 0.13332
 C890 C 0.08844 0.27554 0.11813
 C891 C 0.06659 0.27640 0.09291
 C892 C 0.05338 0.25325 0.08227
 C893 C 0.06183 0.22941 0.09864
 C894 C 0.08356 0.22857 0.12381
 C895 C 0.12216 0.24990 0.15646
 C896 C 0.12460 0.23202 0.18817
 C897 C 0.14889 0.22764 0.20604
 C898 C 0.17110 0.24127 0.19288
 C899 C 0.16857 0.26003 0.16256
 C900 C 0.14429 0.26437 0.14455
 H901 H 0.06053 0.29507 0.08084
 H902 H 0.05211 0.21121 0.09109
 H903 H 0.15056 0.21299 0.22928
 H904 H 0.18562 0.27041 0.15162
 H905 H 0.09015 0.20971 0.13446
 H906 H 0.10786 0.22084 0.19838
 H907 H 0.09856 0.29360 0.12524
 H908 H 0.14316 0.27800 0.11986
 C909 C 0.59939 0.75089 0.63164
 C910 C 0.59054 0.77499 0.61662
 C911 C 0.56864 0.77606 0.59153
 C912 C 0.55523 0.75303 0.58083
 C913 C 0.56359 0.72909 0.59696
 C914 C 0.58537 0.72804 0.62201
 C915 C 0.62411 0.74906 0.65486
 C916 C 0.62642 0.73107 0.68647
 C917 C 0.65063 0.72663 0.70456
 C918 C 0.67291 0.74030 0.69173
 C919 C 0.67051 0.75912 0.66147
 C920 C 0.64630 0.76352 0.64325
 H921 H 0.56267 0.79481 0.57964
 H922 H 0.55372 0.71098 0.58935
 H923 H 0.65218 0.71193 0.72774
 H924 H 0.68761 0.76952 0.65077
 H925 H 0.59186 0.70911 0.63252
 H926 H 0.60963 0.71989 0.69648
 H927 H 0.60078 0.79296 0.62383
 H928 H 0.64528 0.77723 0.61865
   
