data_POSCAR
  _audit_creation_date              2014-09-24
  _audit_creation_method            'ToBaCCo'
  _symmetry_space_group_name_H-M    'P1'
  _symmetry_Int_Tables_number       1
  _symmetry_cell_setting            triclinic
  loop_
  _symmetry_equiv_pos_as_xyz
 x,y,z
_cell_length_a 18.5416
_cell_length_b 18.1059
_cell_length_c 19.3902
_cell_angle_alpha 90.917100
_cell_angle_beta 89.787700
_cell_angle_gamma 89.965500
loop_
  _atom_site_label
  _atom_site_type_symbol
  _atom_site_fract_x
  _atom_site_fract_y
  _atom_site_fract_z
N1 N 0.46693 0.44829 1.43332
 N2 N 1.07215 0.55663 0.92500
 N3 N 0.53666 -0.06367 0.08371
 N4 N -0.07491 1.07879 -0.42734
 N5 N 0.59942 0.57648 0.60392
 N6 N 0.93369 0.44072 0.08338
 N7 N 0.40060 0.06395 0.91954
 N8 N 0.05848 0.94984 0.40640
 Zn9 Zn 0.01502 1.05651 -0.06592
 Zn10 Zn -0.09245 0.93555 -0.06457
 Zn11 Zn 0.02841 0.93555 0.03679
 Zn12 Zn -0.09096 1.04586 0.05120
 O13 O -0.03496 0.99347 -0.01041
 O14 O -0.00286 1.04389 -0.15638
 O15 O -0.07470 0.83953 -0.05507
 O16 O 0.12031 0.96095 0.02244
 O17 O -0.08091 0.95170 -0.15436
 O18 O 0.11047 1.04824 -0.05576
 O19 O 0.02013 0.83881 0.01423
 O20 O -0.07271 1.02320 0.13934
 O21 O -0.18632 0.94903 -0.04780
 O22 O 0.01707 0.94304 0.12842
 O23 O -0.18593 1.02951 0.03945
 O24 O -0.07742 1.14398 0.04434
 O25 O -0.00415 1.15088 -0.04605
 C26 C -0.04332 0.99777 -0.18729
 C27 C -0.02561 0.80514 -0.02350
 C28 C 0.14842 1.00858 -0.01658
 C29 C -0.02637 0.98051 0.16559
 C30 C -0.21948 0.98865 -0.00350
 C31 C -0.04116 1.18144 0.00150
 Zn32 Zn 0.53217 0.06020 0.57067
 Zn33 Zn 0.55619 -0.05892 0.47314
 Zn34 Zn 0.42075 -0.05558 0.54182
 Zn35 Zn 0.45697 0.05591 0.43546
 O36 O 0.48966 0.00221 0.50604
 O37 O 0.62953 0.05511 0.56686
 O38 O 0.55850 -0.14377 0.51941
 O39 O 0.41582 -0.04284 0.63378
 O40 O 0.64288 -0.01756 0.47467
 O41 O 0.50203 0.03944 0.65595
 O42 O 0.43998 -0.15251 0.52896
 O43 O 0.36099 0.04751 0.42759
 O44 O 0.54034 -0.08121 0.38559
 O45 O 0.33325 -0.03647 0.50583
 O46 O 0.49483 0.02600 0.35321
 O47 O 0.47412 0.15267 0.44900
 O48 O 0.51208 0.15548 0.55765
 C49 C 0.66879 0.02605 0.51982
 C50 C 0.50231 -0.18168 0.53144
 C51 C 0.45242 -0.00368 0.67599
 C52 C 0.31491 0.00803 0.45878
 C53 C 0.52454 -0.03584 0.33886
 C54 C 0.49254 0.18813 0.50335
 Zn55 Zn 0.96356 0.45049 0.45490
 Zn56 Zn 1.09525 0.45197 0.54277
 Zn57 Zn 1.07663 0.56474 0.43575
 Zn58 Zn 0.98397 0.57031 0.56157
 O59 O 1.02958 0.50934 0.49889
 O60 O 0.97354 0.35459 0.47717
 O61 O 1.18707 0.46957 0.51772
 O62 O 1.05694 0.53751 0.34876
 O63 O 1.07863 0.35573 0.53137
 O64 O 0.97042 0.45455 0.36247
 O65 O 1.17255 0.55908 0.44262
 O66 O 0.99984 0.66671 0.54563
 O67 O 1.09129 0.46453 0.63404
 O68 O 1.05585 0.66044 0.44443
 O69 O 1.00989 0.55302 0.64909
 O70 O 0.88766 0.56001 0.55877
 O71 O 0.87255 0.47582 0.47577
 C72 C 1.02426 0.32133 0.50795
 C73 C 1.21299 0.51696 0.47693
 C74 C 1.01209 0.49149 0.32403
 C75 C 1.02708 0.69758 0.49327
 C76 C 1.05398 0.50644 0.67314
 C77 C 0.84703 0.52116 0.52007
 Zn78 Zn 0.56072 0.43122 1.04958
 Zn79 Zn 0.44242 0.53870 1.07689
 Zn80 Zn 0.55818 0.56913 0.97684
 Zn81 Zn 0.44653 0.45646 0.94871
 O82 O 0.50192 0.49890 1.01333
 O83 O 0.55724 0.43528 1.14242
 O84 O 0.43974 0.63776 1.07167
 O85 O 0.64766 0.56713 1.01314
 O86 O 0.46837 0.51546 1.16235
 O87 O 0.65286 0.44633 1.02623
 O88 O 0.52405 0.65975 0.99313
 O89 O 0.48346 0.47007 0.86433
 O90 O 0.35134 0.50927 1.06515
 O91 O 0.56624 0.55652 0.88486
 O92 O 0.35613 0.49331 0.95191
 O93 O 0.44138 0.35791 0.95855
 O94 O 0.53872 0.33892 1.02225
 C95 C 0.51724 0.47235 1.18374
 C96 C 0.47505 0.68216 1.03433
 C97 C 0.68360 0.50885 1.02432
 C98 C 0.53369 0.51227 0.84392
 C99 C 0.32027 0.50561 1.00704
 C100 C 0.48681 0.31468 0.98582
 N101 N 1.32545 0.57956 0.43817
 N102 N 1.39376 0.56164 0.42751
 C103 C 1.40406 0.49213 0.44916
 C104 C 1.34013 0.46507 0.47609
 C105 C 1.29143 0.52195 0.46716
 H106 H 1.32887 0.40954 0.49296
 H107 H 1.30213 0.62932 0.42329
 H108 H 1.43147 0.59535 0.40322
 N109 N 0.20107 0.53917 1.05844
 N110 N 0.13536 0.55411 1.03644
 C111 C 0.13380 0.54279 0.96770
 C112 C 0.20133 0.52056 0.94461
 C113 C 0.24230 0.51882 1.00388
 H114 H 0.21906 0.51043 0.89207
 H115 H 0.21761 0.54482 1.10969
 H116 H 0.09298 0.57244 1.06795
 N117 N -0.34036 0.96279 -0.05373
 N118 N -0.40618 0.94999 -0.03045
 C119 C -0.40703 0.96201 0.03838
 C120 C -0.33928 0.98606 0.05931
 C121 C -0.29845 0.98427 -0.00047
 H122 H -0.31998 0.99458 0.11144
 H123 H -0.32379 0.95337 -0.10466
 H124 H -0.44830 0.92958 -0.06086
 N125 N 0.78117 0.05438 0.45541
 N126 N 0.84900 0.07082 0.46950
 C127 C 0.85709 0.07078 0.53836
 C128 C 0.79177 0.05561 0.56995
 C129 C 0.74523 0.04525 0.51527
 H130 H 0.78043 0.05048 0.62445
 H131 H 0.76003 0.04971 0.40568
 H132 H 0.88898 0.08028 0.43264
 N133 N 0.48814 0.31239 0.56084
 N134 N 0.48092 0.38189 0.54205
 C135 C 0.48013 0.38341 0.47274
 C136 C 0.48540 0.31247 0.44591
 C137 C 0.49037 0.26906 0.50359
 H138 H 0.48314 0.29489 0.39234
 H139 H 0.48913 0.29503 0.61194
 H140 H 0.47521 0.42691 0.57596
 N141 N 1.07184 0.20103 0.54870
 N142 N 1.04511 0.13666 0.56731
 C143 C 0.97436 0.13565 0.55204
 C144 C 0.95523 0.20151 0.52153
 C145 C 1.01858 0.24182 0.52112
 H146 H 0.90174 0.22009 0.50787
 H147 H 1.12486 0.21787 0.55786
 H148 H 1.07444 0.09561 0.59201
 N149 N -0.07292 0.68306 -0.06288
 N150 N -0.04679 0.61654 -0.07670
 C151 C 0.02262 0.61489 -0.05670
 C152 C 0.04153 0.68281 -0.02816
 C153 C -0.02057 0.72474 -0.03385
 H154 H 0.09457 0.70131 -0.01248
 H155 H -0.12470 0.70042 -0.07617
 H156 H -0.07517 0.57439 -0.10202
 N157 N 0.41000 0.79299 1.08059
 N158 N 0.42604 0.86330 1.09177
 C159 C 0.48926 0.87843 1.06036
 C160 C 0.51392 0.81486 1.02730
 C161 C 0.46296 0.76191 1.04229
 H162 H 0.56730 0.80517 1.00624
 H163 H 0.36692 0.76566 1.10385
 H164 H 0.39805 0.89796 1.12613
 N165 N 0.58317 0.43180 1.28843
 N166 N 0.57021 0.42721 1.35529
 C167 C 0.50449 0.45615 1.36868
 C168 C 0.47443 0.48060 1.30789
 C169 C 0.52598 0.46371 1.25831
 H170 H 0.42060 0.50177 1.29970
 H171 H 0.62951 0.41151 1.26387
 H172 H 0.60473 0.40224 1.39042
 N173 N 0.58857 -0.11199 0.25139
 N174 N 0.59385 -0.11760 0.18376
 C175 C 0.55186 -0.06548 0.15595
 C176 C 0.51758 -0.02477 0.20750
 C177 C 0.54284 -0.05641 0.26756
 H178 H 0.47826 0.01892 0.20209
 H179 H 0.61539 -0.14632 0.28569
 H180 H 0.62384 -0.15785 0.15721
 N181 N -0.07680 0.94160 -0.30019
 N182 N -0.08402 0.96281 -0.36457
 C183 C -0.06025 1.03283 -0.36930
 C184 C -0.03620 1.05739 -0.30533
 C185 C -0.04851 0.99777 -0.26280
 H186 H -0.01959 1.11267 -0.29048
 H187 H -0.09402 0.89062 -0.28179
 H188 H -0.10804 0.93104 -0.40360
 N189 N 1.08904 0.43895 0.77831
 N190 N 1.09175 0.45126 0.84552
 C191 C 1.06657 0.51982 0.85892
 C192 C 1.04582 0.55240 0.79785
 C193 C 1.06175 0.49924 0.74796
 H194 H 1.02656 0.60812 0.79033
 H195 H 1.10648 0.39032 0.75377
 H196 H 1.11201 0.41387 0.88106
 N197 N 0.72184 0.51848 0.47367
 N198 N 0.65615 0.53531 0.49552
 C199 C 0.66029 0.55607 0.56225
 C200 C 0.73104 0.55346 0.58420
 C201 C 0.76850 0.52957 0.52607
 H202 H 0.75211 0.56751 0.63470
 H203 H 0.73447 0.50121 0.42340
 H204 H 0.60961 0.53217 0.46548
 N205 N 0.79707 0.57450 1.05797
 N206 N 0.86329 0.55577 1.07604
 C207 C 0.87028 0.48221 1.06724
 C208 C 0.80661 0.45261 1.04273
 C209 C 0.76127 0.51292 1.03810
 H210 H 0.79400 0.39501 1.03306
 H211 H 0.77620 0.62801 1.06177
 H212 H 0.90235 0.59255 1.09449
 N213 N 0.26983 1.00232 0.03787
 N214 N 0.33679 1.02058 0.02190
 C215 C 0.33671 1.04878 -0.04178
 C216 C 0.26753 1.04919 -0.06781
 C217 C 0.22669 1.01922 -0.01550
 H218 H 0.25001 1.06635 -0.11826
 H219 H 0.25423 0.97872 0.08440
 H220 H 0.38168 1.01187 0.05308
 N221 N 0.21214 0.06602 0.39725
 N222 N 0.14388 0.05094 0.38370
 C223 C 0.12605 -0.01209 0.41556
 C224 C 0.18509 -0.03777 0.45191
 C225 C 0.23879 0.01317 0.43825
 H226 H 0.18972 -0.08842 0.48045
 H227 H 0.24023 0.11102 0.37747
 H228 H 0.11098 0.08268 0.35215
 N229 N 0.45427 -0.30135 0.57352
 N230 N 0.48024 -0.36551 0.59349
 C231 C 0.55196 -0.36572 0.58256
 C232 C 0.57303 -0.29929 0.55458
 C233 C 0.50925 -0.25965 0.55034
 H234 H 0.62721 -0.28095 0.54297
 H235 H 0.40020 -0.28571 0.57801
 H236 H 0.44949 -0.40754 0.61522
 N237 N 1.02712 0.82597 0.54259
 N238 N 1.03670 0.89353 0.51917
 C239 C 1.04043 0.88941 0.44992
 C240 C 1.03445 0.81694 0.42793
 C241 C 1.02641 0.77830 0.48839
 H242 H 1.03960 0.79515 0.37584
 H243 H 1.02475 0.81265 0.59476
 H244 H 1.04278 0.94086 0.55004
 N245 N -0.02545 1.30747 -0.04581
 N246 N -0.03182 1.37662 -0.02384
 C247 C -0.04985 1.37596 0.04330
 C248 C -0.05715 1.30416 0.06529
 C249 C -0.04120 1.26231 0.00685
 H250 H -0.07296 1.28536 0.11583
 H251 H -0.01200 1.29175 -0.09631
 H252 H -0.02471 1.42304 -0.05436
 N253 N 0.53938 0.19059 0.96234
 N254 N 0.51680 0.12467 0.94174
 C255 C 0.44438 0.12587 0.93938
 C256 C 0.41928 0.19544 0.95802
 C257 C 0.48162 0.23494 0.97203
 H258 H 0.36410 0.21496 0.95906
 H259 H 0.59356 0.20564 0.96680
 H260 H 0.55047 0.08045 0.92868
 N261 N 0.56726 0.44667 0.73493
 N262 N 0.58700 0.46384 0.67163
 C263 C 0.58545 0.53782 0.66646
 C264 C 0.56546 0.56968 0.72900
 C265 C 0.55452 0.50961 0.77102
 H266 H 0.55911 0.62773 0.74175
 H267 H 0.56356 0.39284 0.75320
 H268 H 0.60007 0.42556 0.63271
 N269 N 0.39639 -0.06180 0.77819
 N270 N 0.38387 -0.04439 0.84349
 C271 C 0.41483 0.02146 0.85769
 C272 C 0.44961 0.04674 0.79927
 C273 C 0.43567 -0.00755 0.74982
 H274 H 0.47540 0.09967 0.79205
 H275 H 0.37619 -0.10886 0.75312
 H276 H 0.35222 -0.07583 0.87663
 N277 N -0.08023 0.97221 0.28311
 N278 N -0.05751 0.96276 0.34692
 C279 C 0.01506 0.96141 0.34632
 C280 C 0.03999 0.96750 0.27926
 C281 C -0.02243 0.97461 0.24086
 H282 H 0.09520 0.96594 0.26098
 H283 H -0.13439 0.97465 0.26869
 H284 H -0.09112 0.95629 0.38969
 N285 N 1.06865 0.46608 0.21000
 N286 N 1.04773 0.45101 0.14628
 C287 C 0.97550 0.45716 0.14367
 C288 C 0.94853 0.47455 0.20861
 C289 C 1.00979 0.47971 0.24915
 H290 H 0.89273 0.48023 0.22439
 H291 H 1.12207 0.46411 0.22680
 H292 H 1.08220 0.43550 0.10588
   
