data_POSCAR
  _audit_creation_date              2014-09-24
  _audit_creation_method            'ToBaCCo'
  _symmetry_space_group_name_H-M    'P1'
  _symmetry_Int_Tables_number       1
  _symmetry_cell_setting            triclinic
  loop_
  _symmetry_equiv_pos_as_xyz
 x,y,z
_cell_length_a 39.4116
_cell_length_b 39.3966
_cell_length_c 39.3831
_cell_angle_alpha 89.994200
_cell_angle_beta 89.959100
_cell_angle_gamma 90.010700
loop_
  _atom_site_label
  _atom_site_type_symbol
  _atom_site_fract_x
  _atom_site_fract_y
  _atom_site_fract_z
C1 C 0.19761 0.52591 1.04185
 H2 H 0.19685 0.54536 1.02247
 C3 C 0.17447 0.52672 1.06870
 H4 H 0.15589 0.54696 1.07004
 C5 C 0.22206 0.47518 1.06314
 H6 H 0.24015 0.45476 1.06050
 C7 C 0.19936 0.47500 1.09042
 H8 H 0.20028 0.45456 1.10882
 N9 N 0.22087 0.50049 1.03963
 C10 C 0.30131 0.54098 0.97522
 H11 H 0.30210 0.52156 0.95581
 C12 C 0.32441 0.56783 0.97433
 H13 H 0.34303 0.56920 0.95412
 C14 C 0.27681 0.56239 1.02592
 H15 H 0.25872 0.55980 1.04636
 C16 C 0.29950 0.58966 1.02599
 H17 H 0.29863 0.60815 1.04634
 Zn18 Zn 0.24946 0.50020 1.00100
 N19 N 0.27804 0.53882 1.00067
 C20 C 0.22218 0.52510 0.93878
 N21 N 0.22092 0.49986 0.96238
 C22 C 0.19767 0.47442 0.96020
 C23 C 0.17466 0.47348 0.93329
 C24 C 0.19958 0.52512 0.91144
 C25 C 0.30129 0.45940 1.02673
 C26 C 0.32439 0.43256 1.02756
 C27 C 0.29952 0.41082 0.97586
 C28 C 0.27684 0.43809 0.97600
 N29 N 0.27804 0.46161 1.00130
 H30 H 0.24025 0.54554 0.94138
 H31 H 0.19686 0.45503 0.97964
 H32 H 0.15608 0.45326 0.93190
 H33 H 0.20050 0.54543 0.89292
 H34 H 0.30207 0.47878 1.04617
 H35 H 0.34299 0.43115 1.04775
 H36 H 0.29867 0.39237 0.95548
 H37 H 0.25878 0.44071 0.95556
 C38 C 0.32356 0.59233 1.00000
 C39 C 0.17528 0.50097 1.09316
 C40 C 0.32355 0.40811 1.00184
 C41 C 0.17557 0.49911 0.90875
 C42 C 0.80178 0.52607 -0.04037
 H43 H 0.80263 0.54544 -0.02091
 C44 C 0.82485 0.52695 -0.06727
 H45 H 0.84350 0.54711 -0.06864
 C46 C 0.77718 0.47546 -0.06180
 H47 H 0.75907 0.45505 -0.05920
 C48 C 0.79983 0.47538 -0.08913
 H49 H 0.79890 0.45507 -0.10764
 N50 N 0.77847 0.50067 -0.03819
 C51 C 0.69826 0.54107 0.02652
 H52 H 0.69749 0.52162 0.04590
 C53 C 0.67517 0.56792 0.02749
 H54 H 0.65659 0.56926 0.04773
 C55 C 0.72267 0.56255 -0.02421
 H56 H 0.74070 0.55997 -0.04469
 C57 C 0.70000 0.58982 -0.02420
 H58 H 0.70083 0.60833 -0.04453
 Zn59 Zn 0.74997 0.50028 0.00049
 N60 N 0.72147 0.53893 0.00102
 C61 C 0.77749 0.52489 0.06272
 N62 N 0.77861 0.49973 0.03904
 C63 C 0.80181 0.47424 0.04104
 C64 C 0.82496 0.47319 0.06783
 C65 C 0.80023 0.52480 0.08994
 C66 C 0.69802 0.45971 -0.02532
 C67 C 0.67489 0.43288 -0.02628
 C68 C 0.69982 0.41080 0.02524
 C69 C 0.72253 0.43805 0.02524
 N70 N 0.72131 0.46173 0.00008
 H71 H 0.75946 0.54537 0.06025
 H72 H 0.80251 0.45491 0.02154
 H73 H 0.84352 0.45295 0.06907
 H74 H 0.79944 0.54507 0.10852
 H75 H 0.69724 0.47921 -0.04465
 H76 H 0.65626 0.43161 -0.04646
 H77 H 0.70070 0.39222 0.04550
 H78 H 0.74064 0.44054 0.04565
 C79 C 0.67598 0.59245 0.00184
 C80 C 0.82392 0.50132 -0.09180
 C81 C 0.67575 0.40827 -0.00072
 C82 C 0.82421 0.49876 0.09244
 C83 C -0.02568 0.30237 0.45836
 H84 H -0.04507 0.30313 0.47781
 C85 C -0.02659 0.32548 0.43151
 H86 H -0.04683 0.34406 0.43023
 C87 C 0.02499 0.27791 0.43691
 H88 H 0.04541 0.25984 0.43950
 C89 C 0.02507 0.30060 0.40962
 H90 H 0.04545 0.29966 0.39115
 N91 N -0.00025 0.27912 0.46051
 C92 C -0.04048 0.19861 0.52501
 H93 H -0.02100 0.19782 0.54433
 C94 C -0.06732 0.17551 0.52601
 H95 H -0.06861 0.15688 0.54621
 C96 C -0.06208 0.22313 0.47442
 H97 H -0.05957 0.24124 0.45399
 C98 C -0.08935 0.20044 0.47446
 H99 H -0.10791 0.20132 0.45421
 Zn100 Zn 0.00015 0.25052 0.49913
 N101 N -0.03842 0.22190 0.49958
 C102 C -0.02465 0.27777 0.56142
 N103 N 0.00054 0.27907 0.53777
 C104 C 0.02596 0.30235 0.53993
 C105 C 0.02690 0.32537 0.56686
 C106 C -0.02467 0.30037 0.58878
 C107 C 0.04089 0.19869 0.47325
 C108 C 0.06774 0.17560 0.47232
 C109 C 0.08962 0.20051 0.52393
 C110 C 0.06235 0.22319 0.52390
 N111 N 0.03875 0.22196 0.49869
 H112 H -0.04507 0.25969 0.55883
 H113 H 0.04532 0.30320 0.52046
 H114 H 0.04709 0.34398 0.56824
 H115 H -0.04495 0.29942 0.60733
 H116 H 0.02146 0.19789 0.45388
 H117 H 0.06909 0.15698 0.45212
 H118 H 0.10812 0.20139 0.54424
 H119 H 0.05978 0.24127 0.54435
 C120 C -0.09191 0.17637 0.50045
 C121 C -0.00092 0.32466 0.40696
 C122 C 0.09226 0.17646 0.49794
 C123 C 0.00131 0.32441 0.59145
 C124 C 0.97421 0.69808 0.54059
 H125 H 0.95488 0.69723 0.52111
 C126 C 0.97327 0.67502 0.56749
 H127 H 0.95310 0.65638 0.56885
 C128 C 1.02478 0.72267 0.56208
 H129 H 1.04519 0.74077 0.55950
 C130 C 1.02479 0.70004 0.58941
 H131 H 1.04506 0.70096 0.60795
 N132 N 0.99961 0.72137 0.53844
 C133 C 0.95942 0.80165 0.47374
 H134 H 0.97892 0.80242 0.45440
 C135 C 0.93259 0.82475 0.47272
 H136 H 0.93130 0.84334 0.45249
 C137 C 0.93781 0.77723 0.52440
 H138 H 0.94032 0.75918 0.54487
 C139 C 0.91054 0.79991 0.52434
 H140 H 0.89198 0.79907 0.54463
 Zn141 Zn 1.00009 0.74989 0.49977
 N142 N 0.96148 0.77842 0.49922
 C143 C 0.97551 0.72239 0.43754
 N144 N 1.00066 0.72124 0.46121
 C145 C 1.02612 0.69800 0.45917
 C146 C 1.02714 0.67485 0.43236
 C147 C 0.97558 0.69965 0.41030
 C148 C 1.04062 0.80184 0.52565
 C149 C 1.06744 0.82496 0.52666
 C150 C 1.08962 0.79999 0.47516
 C151 C 1.06236 0.77728 0.47512
 N152 N 1.03864 0.77852 0.50024
 H153 H 0.95506 0.74045 0.44003
 H154 H 1.04543 0.69728 0.47867
 H155 H 1.04735 0.65626 0.43110
 H156 H 0.95532 0.70046 0.39174
 H157 H 1.02109 0.80263 0.54495
 H158 H 1.06868 0.84361 0.54684
 H159 H 1.10823 0.79910 0.45492
 H160 H 1.05991 0.75916 0.45470
 C161 C 0.90799 0.82393 0.49831
 C162 C 0.99884 0.67595 0.59206
 C163 C 1.09210 0.82408 0.50113
 C164 C 1.00158 0.67563 0.40777
 C165 C 0.45943 -0.02659 0.30138
 H166 H 0.47888 -0.04595 0.30218
 C167 C 0.43258 -0.02750 0.32449
 H168 H 0.43123 -0.04768 0.34314
 C169 C 0.43796 0.02403 0.27682
 H170 H 0.44053 0.04445 0.25872
 C171 C 0.41068 0.02407 0.29952
 H172 H 0.39217 0.04438 0.29863
 N173 N 0.46157 -0.00117 0.27807
 C174 C 0.52607 -0.04150 0.19763
 H175 H 0.54544 -0.02206 0.19684
 C176 C 0.52700 -0.06835 0.17451
 H177 H 0.54724 -0.06962 0.15591
 C178 C 0.47542 -0.06297 0.22215
 H179 H 0.45498 -0.06039 0.24024
 C180 C 0.47536 -0.09025 0.19946
 H181 H 0.45500 -0.10872 0.20041
 Zn182 Zn 0.50017 -0.00075 0.24948
 N183 N 0.50063 -0.03937 0.22091
 C184 C 0.56244 -0.02536 0.27685
 N185 N 0.53874 -0.00024 0.27808
 C186 C 0.54075 0.02521 0.30134
 C187 C 0.56759 0.02626 0.32443
 C188 C 0.58971 -0.02526 0.29952
 C189 C 0.47433 0.03996 0.19760
 C190 C 0.47335 0.06687 0.17456
 C191 C 0.52487 0.08886 0.19952
 C192 C 0.52489 0.06152 0.22214
 N193 N 0.49974 0.03785 0.22088
 H194 H 0.55996 -0.04580 0.25876
 H195 H 0.52124 0.04450 0.30213
 H196 H 0.56885 0.04647 0.34304
 H197 H 0.60831 -0.04549 0.29864
 H198 H 0.45500 0.02047 0.19678
 H199 H 0.45316 0.06821 0.15596
 H200 H 0.54512 0.10743 0.20044
 H201 H 0.54531 0.05897 0.24023
 C202 C 0.50134 -0.09289 0.17536
 C203 C 0.40805 -0.00189 0.32361
 C204 C 0.49890 0.09148 0.17549
 C205 C 0.59223 0.00075 0.32356
 C206 C 0.54083 -0.02602 0.69816
 H207 H 0.52138 -0.04538 0.69738
 C208 C 0.56770 -0.02699 0.67506
 H209 H 0.56904 -0.04720 0.65646
 C210 C 0.56232 0.02463 0.72261
 H211 H 0.55975 0.04509 0.74068
 C212 C 0.58962 0.02463 0.69994
 H213 H 0.60814 0.04493 0.70079
 N214 N 0.53870 -0.00056 0.72141
 C215 C 0.47409 -0.04071 0.80188
 H216 H 0.45474 -0.02124 0.80262
 C217 C 0.47310 -0.06753 0.82503
 H218 H 0.45288 -0.06882 0.84364
 C219 C 0.52472 -0.06228 0.77745
 H220 H 0.54518 -0.05977 0.75937
 C221 C 0.52469 -0.08953 0.80018
 H222 H 0.54498 -0.10806 0.79936
 Zn223 Zn 0.50006 -0.00007 0.74997
 N224 N 0.49955 -0.03864 0.77861
 C225 C 0.43781 -0.02474 0.72261
 N226 N 0.46152 0.00038 0.72134
 C227 C 0.45951 0.02579 0.69803
 C228 C 0.43267 0.02680 0.67494
 C229 C 0.41054 -0.02468 0.69994
 C230 C 0.52586 0.04073 0.80180
 C231 C 0.52676 0.06764 0.82484
 C232 C 0.47523 0.08952 0.79983
 C233 C 0.47528 0.06219 0.77720
 N234 N 0.50047 0.03857 0.77850
 H235 H 0.44028 -0.04516 0.74073
 H236 H 0.47902 0.04509 0.69721
 H237 H 0.43141 0.04699 0.65630
 H238 H 0.39194 -0.04491 0.70085
 H239 H 0.54521 0.02128 0.80265
 H240 H 0.54692 0.06901 0.84348
 H241 H 0.45494 0.10804 0.79890
 H242 H 0.45488 0.05960 0.75910
 C243 C 0.49869 -0.09209 0.82423
 C244 C 0.59225 -0.00137 0.67590
 C245 C 0.50117 0.09219 0.82391
 C246 C 0.40802 0.00129 0.67586
 C247 C 0.25004 0.00023 0.49983
 C248 C 0.75020 0.00016 0.49961
 C249 C 0.49969 0.25024 0.99999
 C250 C 0.49975 0.75024 0.00075
 C251 C 1.00061 0.49923 0.25002
 C252 C 0.00010 0.49990 0.75018
 C253 C 0.11915 0.15176 0.49826
 C254 C 0.14107 0.13042 0.49853
 C255 C 0.16596 0.10467 0.49883
 C256 C 0.18648 0.08200 0.49907
 C257 C 0.20956 0.05461 0.49935
 C258 C 0.22839 0.03048 0.49958
 C259 C 0.65126 0.61933 0.00155
 C260 C 0.62991 0.64123 0.00133
 C261 C 0.60414 0.66610 0.00110
 C262 C 0.58145 0.68661 0.00094
 C263 C 0.55407 0.70969 0.00081
 C264 C 0.52996 0.72853 0.00075
 C265 C 0.88112 -0.15135 0.49855
 C266 C 0.85921 -0.13000 0.49875
 C267 C 0.83434 -0.10423 0.49896
 C268 C 0.81384 -0.08154 0.49913
 C269 C 0.79076 -0.05416 0.49931
 C270 C 0.77191 -0.03005 0.49945
 C271 C 0.34825 0.38121 1.00142
 C272 C 0.36958 0.35929 1.00109
 C273 C 0.39532 0.33438 1.00074
 C274 C 0.41798 0.31385 1.00048
 C275 C 0.44534 0.29076 1.00023
 C276 C 0.46946 0.27191 1.00008
 C277 C 0.88117 0.15168 0.50024
 C278 C 0.85924 0.13035 0.50010
 C279 C 0.83434 0.10460 0.49997
 C280 C 0.81381 0.08192 0.49988
 C281 C 0.79072 0.05454 0.49979
 C282 C 0.77188 0.03041 0.49971
 C283 C 0.34826 0.61924 0.00032
 C284 C 0.36959 0.64117 0.00054
 C285 C 0.39535 0.66607 0.00072
 C286 C 0.41802 0.68659 0.00082
 C287 C 0.44540 0.70969 0.00087
 C288 C 0.46952 0.72854 0.00085
 C289 C 0.11899 -0.15121 0.50090
 C290 C 0.14091 -0.12987 0.50073
 C291 C 0.16580 -0.10411 0.50055
 C292 C 0.18633 -0.08144 0.50040
 C293 C 0.20944 -0.05407 0.50022
 C294 C 0.22831 -0.02997 0.50006
 C295 C 0.65105 0.38136 0.99954
 C296 C 0.62973 0.35942 0.99971
 C297 C 0.60399 0.33451 0.99987
 C298 C 0.58134 0.31396 0.99996
 C299 C 0.55399 0.29084 1.00002
 C300 C 0.52989 0.27197 1.00003
 C301 C 0.49912 0.11850 1.15089
 C302 C 0.49928 0.14054 1.12966
 C303 C 0.49945 0.16558 1.10404
 C304 C 0.49956 0.18624 1.08147
 C305 C 0.49965 0.20948 1.05420
 C306 C 0.49969 0.22844 1.03015
 C307 C -0.00085 0.65129 0.61901
 C308 C -0.00060 0.62999 0.64099
 C309 C -0.00034 0.60428 0.66594
 C310 C -0.00015 0.58163 0.68650
 C311 C 0.00002 0.55427 0.70963
 C312 C 0.00009 0.53015 0.72849
 C313 C 0.49894 0.88104 -0.15101
 C314 C 0.49914 0.85914 -0.12963
 C315 C 0.49934 0.83427 -0.10383
 C316 C 0.49949 0.81377 -0.08111
 C317 C 0.49962 0.79071 -0.05369
 C318 C 0.49970 0.77189 -0.02953
 C319 C 0.99943 0.34805 0.38147
 C320 C 0.99972 0.36932 0.35946
 C321 C 1.00003 0.39500 0.33446
 C322 C 1.00026 0.41761 0.31385
 C323 C 1.00046 0.44493 0.29067
 C324 C 1.00057 0.46901 0.27176
 C325 C 0.50101 0.88164 0.15196
 C326 C 0.50072 0.85966 0.13067
 C327 C 0.50041 0.83469 0.10497
 C328 C 0.50018 0.81410 0.08234
 C329 C 0.49995 0.79093 0.05502
 C330 C 0.49982 0.77201 0.03094
 C331 C 0.00103 0.34899 0.61849
 C332 C 0.00082 0.37020 0.64054
 C333 C 0.00060 0.39582 0.66559
 C334 C 0.00043 0.41838 0.68625
 C335 C 0.00027 0.44565 0.70948
 C336 C 0.00017 0.46971 0.72842
 C337 C 0.50083 0.11915 0.84855
 C338 C 0.50055 0.14113 0.86984
 C339 C 0.50026 0.16609 0.89554
 C340 C 0.50005 0.18666 0.91819
 C341 C 0.49985 0.20978 0.94556
 C342 C 0.49974 0.22861 0.96970
 C343 C 1.00136 0.65087 0.38090
 C344 C 1.00118 0.62949 0.35901
 C345 C 1.00100 0.60370 0.33414
 C346 C 1.00087 0.58100 0.31363
 C347 C 1.00074 0.55360 0.29056
 C348 C 1.00066 0.52946 0.27171
 C349 C 1.15187 0.50054 0.11863
 C350 C 1.13057 0.50018 0.14061
 C351 C 1.10486 0.49981 0.16558
 C352 C 1.08223 0.49955 0.18617
 C353 C 1.05489 0.49933 0.20935
 C354 C 1.03081 0.49923 0.22826
 C355 C 0.61916 -0.00109 0.65119
 C356 C 0.64110 -0.00085 0.62985
 C357 C 0.66601 -0.00059 0.60408
 C358 C 0.68655 -0.00039 0.58140
 C359 C 0.70966 -0.00017 0.55401
 C360 C 0.72851 -0.00000 0.52987
 C361 C -0.15140 0.50094 0.88125
 C362 C -0.13008 0.50064 0.85930
 C363 C -0.10434 0.50034 0.83436
 C364 C -0.08167 0.50013 0.81382
 C365 C -0.05429 0.49995 0.79070
 C366 C -0.03015 0.49988 0.77186
 C367 C 0.38114 -0.00154 0.34833
 C368 C 0.35921 -0.00125 0.36967
 C369 C 0.33429 -0.00090 0.39543
 C370 C 0.31375 -0.00062 0.41810
 C371 C 0.29063 -0.00030 0.44548
 C372 C 0.27176 -0.00005 0.46960
 C373 C 0.15100 0.49937 0.88174
 C374 C 0.12978 0.49955 0.85971
 C375 C 0.10416 0.49971 0.83469
 C376 C 0.08159 0.49981 0.81406
 C377 C 0.05432 0.49988 0.79086
 C378 C 0.03027 0.49991 0.77193
 C379 C 0.61915 0.00059 0.34824
 C380 C 0.64108 0.00050 0.36955
 C381 C 0.66599 0.00043 0.39528
 C382 C 0.68653 0.00038 0.41793
 C383 C 0.70963 0.00032 0.44529
 C384 C 0.72849 0.00026 0.46940
 C385 C 0.84896 0.49894 0.11929
 C386 C 0.87034 0.49906 0.14117
 C387 C 0.89613 0.49916 0.16601
 C388 C 0.91883 0.49921 0.18649
 C389 C 0.94624 0.49924 0.20954
 C390 C 0.97037 0.49925 0.22836
 C391 C 0.38109 0.00109 0.65120
 C392 C 0.35915 0.00096 0.62990
 C393 C 0.33422 0.00082 0.60418
 C394 C 0.31367 0.00070 0.58154
 C395 C 0.29056 0.00057 0.55418
 C396 C 0.27172 0.00043 0.53007
   
