data_POSCAR
  _audit_creation_date              2014-09-24
  _audit_creation_method            'ToBaCCo'
  _symmetry_space_group_name_H-M    'P1'
  _symmetry_Int_Tables_number       1
  _symmetry_cell_setting            triclinic
  loop_
  _symmetry_equiv_pos_as_xyz
 x,y,z
_cell_length_a 37.6523
_cell_length_b 37.8384
_cell_length_c 37.8985
_cell_angle_alpha 89.900300
_cell_angle_beta 90.108500
_cell_angle_gamma 90.131600
loop_
  _atom_site_label
  _atom_site_type_symbol
  _atom_site_fract_x
  _atom_site_fract_y
  _atom_site_fract_z
N1 N 0.29519 0.22488 0.19660
 N2 N 0.28066 0.25338 0.18304
 C3 C 0.29946 0.26346 0.15459
 C4 C 0.32733 0.24000 0.14989
 C5 C 0.32369 0.21584 0.17720
 H6 H 0.29309 0.28607 0.13840
 H7 H 0.34062 0.19346 0.18278
 Cu8 Cu 0.23861 0.27434 0.20410
 Cu9 Cu 0.27622 0.20176 0.23857
 Cu10 Cu 0.20110 0.23888 0.27618
 N11 N 0.19653 0.29530 0.22518
 N12 N 0.18198 0.28093 0.25326
 C13 C 0.15337 0.29989 0.26261
 C14 C 0.14958 0.32786 0.23923
 C15 C 0.17761 0.32405 0.21580
 H16 H 0.13649 0.29354 0.28478
 H17 H 0.18386 0.34099 0.19369
 N18 N 0.22455 0.19645 0.29545
 N19 N 0.25310 0.18243 0.28104
 C20 C 0.26289 0.15401 0.30003
 C21 C 0.23944 0.14974 0.32786
 C22 C 0.21546 0.17724 0.32405
 H23 H 0.28534 0.13748 0.29377
 H24 H 0.19312 0.18298 0.34093
 H25 H 0.22411 0.21775 0.23145
 H26 H 0.25284 0.24607 0.26005
 N27 N 0.70043 -0.23070 0.20006
 N28 N 0.72109 -0.25028 0.18013
 C29 C 0.70491 -0.25587 0.14890
 C30 C 0.67171 -0.24043 0.15012
 C31 C 0.66962 -0.22469 0.18291
 H32 H 0.71593 -0.27081 0.12721
 H33 H 0.64865 -0.20759 0.19223
 Cu34 Cu 0.76599 -0.26885 0.19769
 Cu35 Cu 0.71837 -0.20812 0.24274
 Cu36 Cu 0.79901 -0.23804 0.27448
 N37 N 0.80695 -0.29073 0.22051
 N38 N 0.81965 -0.27834 0.25031
 C39 C 0.84717 -0.29838 0.26074
 C40 C 0.85232 -0.32514 0.23619
 C41 C 0.82611 -0.31921 0.21086
 H42 H 0.86225 -0.29344 0.28449
 H43 H 0.82088 -0.33467 0.18744
 N44 N 0.77341 -0.19814 0.29572
 N45 N 0.74192 -0.18777 0.28459
 C46 C 0.73132 -0.16013 0.30424
 C47 C 0.75736 -0.15266 0.32915
 C48 C 0.78366 -0.17745 0.32281
 H49 H 0.70683 -0.14592 0.29999
 H50 H 0.80874 -0.17993 0.33649
 H51 H 0.77180 -0.21490 0.23222
 H52 H 0.74876 -0.25131 0.25692
 N53 N 0.70515 0.22437 0.80314
 N54 N 0.72005 0.25262 0.81682
 C55 C 0.70116 0.26294 0.84508
 C56 C 0.67285 0.23984 0.84957
 C57 C 0.67630 0.21568 0.82230
 H58 H 0.70784 0.28541 0.86139
 H59 H 0.65918 0.19341 0.81668
 Cu60 Cu 0.76291 0.27326 0.79682
 Cu61 Cu 0.72416 0.20128 0.76137
 Cu62 Cu 0.79904 0.23867 0.72336
 N63 N 0.80441 0.29442 0.77458
 N64 N 0.81815 0.28088 0.74582
 C65 C 0.84628 0.30044 0.73592
 C66 C 0.85082 0.32784 0.75992
 C67 C 0.82351 0.32305 0.78412
 H68 H 0.86246 0.29448 0.71320
 H69 H 0.81776 0.33920 0.80692
 N70 N 0.77573 0.19598 0.70446
 N71 N 0.74723 0.18186 0.71902
 C72 C 0.73752 0.15322 0.70033
 C73 C 0.76098 0.14893 0.67251
 C74 C 0.78490 0.17663 0.67606
 H75 H 0.71513 0.13654 0.70679
 H76 H 0.80726 0.18238 0.65915
 H77 H 0.77641 0.21716 0.76806
 H78 H 0.74760 0.24622 0.74034
 N79 N 0.29498 -0.22555 0.80452
 N80 N 0.28088 -0.25461 0.81743
 C81 C 0.29991 -0.26501 0.84572
 C82 C 0.32759 -0.24122 0.85084
 C83 C 0.32348 -0.21654 0.82404
 H84 H 0.29375 -0.28794 0.86163
 H85 H 0.33981 -0.19354 0.81907
 Cu86 Cu 0.23828 -0.27495 0.79645
 Cu87 Cu 0.27555 -0.20149 0.76319
 Cu88 Cu 0.20385 -0.24185 0.72212
 N89 N 0.19557 -0.29530 0.77552
 N90 N 0.18224 -0.28191 0.74638
 C91 C 0.15341 -0.30061 0.73689
 C92 C 0.14799 -0.32738 0.76149
 C93 C 0.17536 -0.32291 0.78583
 H94 H 0.13762 -0.29470 0.71382
 H95 H 0.18049 -0.33870 0.80908
 N96 N 0.22490 -0.19727 0.70502
 N97 N 0.25203 -0.18187 0.72090
 C98 C 0.26092 -0.15252 0.70286
 C99 C 0.23841 -0.14917 0.67408
 C100 C 0.21577 -0.17801 0.67645
 H101 H 0.28230 -0.13490 0.71019
 H102 H 0.19456 -0.18479 0.65843
 H103 H 0.22355 -0.21943 0.76774
 H104 H 0.25526 -0.24637 0.74126
 N105 N 0.70513 -0.22727 0.80423
 N106 N 0.72026 -0.25549 0.81769
 C107 C 0.70126 -0.26659 0.84568
 C108 C 0.67259 -0.24411 0.85008
 C109 C 0.67603 -0.21940 0.82322
 H110 H 0.70806 -0.28911 0.86189
 H111 H 0.65865 -0.19738 0.81773
 Cu112 Cu 0.76287 -0.27544 0.79690
 Cu113 Cu 0.72398 -0.20313 0.76275
 Cu114 Cu 0.79935 -0.23898 0.72463
 N115 N 0.80547 -0.29495 0.77568
 N116 N 0.81905 -0.28099 0.74697
 C117 C 0.84734 -0.30006 0.73694
 C118 C 0.85205 -0.32765 0.76072
 C119 C 0.82486 -0.32335 0.78508
 H120 H 0.86342 -0.29379 0.71420
 H121 H 0.81923 -0.33982 0.80771
 N122 N 0.77559 -0.19656 0.70600
 N123 N 0.74706 -0.18278 0.72066
 C124 C 0.73711 -0.15420 0.70195
 C125 C 0.76042 -0.14970 0.67398
 C126 C 0.78452 -0.17710 0.67755
 H127 H 0.71463 -0.13778 0.70842
 H128 H 0.80688 -0.18262 0.66062
 H129 H 0.74764 -0.24726 0.74106
 H130 H 0.77615 -0.21866 0.76959
 N131 N 0.29433 0.22396 0.80409
 N132 N 0.27934 0.25200 0.81794
 C133 C 0.29818 0.26223 0.84635
 C134 C 0.32663 0.23937 0.85062
 C135 C 0.32322 0.21536 0.82324
 H136 H 0.29143 0.28446 0.86283
 H137 H 0.34047 0.19333 0.81748
 Cu138 Cu 0.23707 0.27242 0.79683
 Cu139 Cu 0.27536 0.20073 0.76218
 Cu140 Cu 0.20010 0.23774 0.72418
 N141 N 0.19520 0.29358 0.77557
 N142 N 0.18103 0.27974 0.74705
 C143 C 0.15275 0.29906 0.73733
 C144 C 0.14887 0.32673 0.76095
 C145 C 0.17639 0.32232 0.78494
 H146 H 0.13612 0.29308 0.71485
 H147 H 0.18234 0.33881 0.80744
 N148 N 0.22362 0.19534 0.70523
 N149 N 0.25216 0.18134 0.71982
 C150 C 0.26206 0.15301 0.70092
 C151 C 0.23874 0.14886 0.67292
 C152 C 0.21464 0.17624 0.67658
 H153 H 0.28451 0.13648 0.70735
 H154 H 0.19232 0.18199 0.65957
 H155 H 0.25186 0.24532 0.74056
 H156 H 0.22320 0.21640 0.76856
 N157 N 0.29529 -0.22107 0.19556
 N158 N 0.28122 -0.24963 0.18158
 C159 C 0.30039 -0.25888 0.15308
 C160 C 0.32795 -0.23478 0.14900
 C161 C 0.32372 -0.21112 0.17646
 H162 H 0.29440 -0.28114 0.13622
 H163 H 0.34024 -0.18847 0.18232
 Cu164 Cu 0.23909 -0.27169 0.20204
 Cu165 Cu 0.27600 -0.19899 0.23761
 Cu166 Cu 0.20138 -0.23725 0.27478
 N167 N 0.19692 -0.29299 0.22327
 N168 N 0.18254 -0.27907 0.25156
 C169 C 0.15402 -0.29821 0.26096
 C170 C 0.15006 -0.32595 0.23747
 C171 C 0.17784 -0.32170 0.21373
 H172 H 0.13721 -0.29198 0.28313
 H173 H 0.18372 -0.33823 0.19124
 N174 N 0.22445 -0.19488 0.29440
 N175 N 0.25288 -0.18041 0.28010
 C176 C 0.26253 -0.15210 0.29926
 C177 C 0.23916 -0.14848 0.32720
 C178 C 0.21525 -0.17611 0.32315
 H179 H 0.28476 -0.13517 0.29298
 H180 H 0.19286 -0.18218 0.33991
 H181 H 0.25296 -0.24439 0.25858
 H182 H 0.22404 -0.21598 0.23026
 N183 N 0.70509 0.22365 0.19663
 N184 N 0.71947 0.25243 0.18346
 C185 C 0.70071 0.26265 0.15501
 C186 C 0.67293 0.23905 0.14997
 C187 C 0.67666 0.21457 0.17699
 H188 H 0.70711 0.28542 0.13900
 H189 H 0.66001 0.19181 0.18208
 Cu190 Cu 0.76126 0.27381 0.20475
 Cu191 Cu 0.72433 0.20024 0.23828
 Cu192 Cu 0.79954 0.23737 0.27620
 N193 N 0.80362 0.29427 0.22589
 N194 N 0.81849 0.27971 0.25371
 C195 C 0.84720 0.29873 0.26301
 C196 C 0.85060 0.32694 0.23986
 C197 C 0.82241 0.32315 0.21657
 H198 H 0.86450 0.29215 0.28483
 H199 H 0.81594 0.34020 0.19459
 N200 N 0.77627 0.19462 0.29499
 N201 N 0.74769 0.18058 0.28044
 C202 C 0.73783 0.15209 0.29929
 C203 C 0.76118 0.14789 0.32727
 C204 C 0.78531 0.17537 0.32358
 H205 H 0.71536 0.13550 0.29288
 H206 H 0.80768 0.18111 0.34056
 H207 H 0.74758 0.24468 0.26041
 H208 H 0.77623 0.21708 0.23121
 C209 C 0.23691 -0.03262 0.57527
 C210 C 0.23736 -0.00040 0.59317
 C211 C 0.23694 0.03188 0.57528
 C212 C 0.23597 0.03227 0.53796
 C213 C 0.23532 -0.00022 0.51923
 C214 C 0.23584 -0.03283 0.53792
 C215 C 0.23668 -0.06458 0.51878
 C216 C 0.23672 -0.06445 0.48203
 C217 C 0.23590 -0.03257 0.46296
 C218 C 0.23537 -0.00009 0.48171
 C219 C 0.23707 0.06415 0.51891
 C220 C 0.23717 0.06428 0.48220
 C221 C 0.23613 0.03254 0.46305
 C222 C 0.23725 0.03239 0.42572
 C223 C 0.23764 0.00018 0.40778
 C224 C 0.23703 -0.03213 0.42563
 H225 H 0.23794 -0.08990 0.53200
 H226 H 0.23805 -0.08969 0.46875
 H227 H 0.23853 0.08940 0.53218
 H228 H 0.23873 0.08961 0.46901
 H229 H 0.23816 -0.00044 0.62181
 H230 H 0.23855 0.00029 0.37915
 C231 C 0.76244 0.03162 0.57478
 C232 C 0.76179 -0.00056 0.59290
 C233 C 0.76212 -0.03293 0.57526
 C234 C 0.76322 -0.03346 0.53791
 C235 C 0.76396 -0.00103 0.51895
 C236 C 0.76351 0.03166 0.53744
 C237 C 0.76270 0.06335 0.51809
 C238 C 0.76272 0.06311 0.48137
 C239 C 0.76347 0.03118 0.46249
 C240 C 0.76388 -0.00127 0.48140
 C241 C 0.76218 -0.06538 0.51901
 C242 C 0.76199 -0.06561 0.48226
 C243 C 0.76295 -0.03393 0.46288
 C244 C 0.76160 -0.03385 0.42549
 C245 C 0.76142 -0.00163 0.40744
 C246 C 0.76236 0.03070 0.42518
 H247 H 0.76139 0.08871 0.53113
 H248 H 0.76142 0.08834 0.46797
 H249 H 0.76082 -0.09059 0.53243
 H250 H 0.76044 -0.09097 0.46923
 H251 H 0.76096 -0.00038 0.62153
 H252 H 0.76046 -0.00170 0.37881
 C253 C 0.42504 0.23852 0.03227
 C254 C 0.40692 0.23912 0.00009
 C255 C 0.42483 0.23859 -0.03214
 C256 C 0.46238 0.23753 -0.03251
 C257 C 0.48134 0.23683 -0.00008
 C258 C 0.46263 0.23741 0.03247
 C259 C 0.48202 0.23825 0.06418
 C260 C 0.51900 0.23822 0.06405
 C261 C 0.53808 0.23723 0.03222
 C262 C 0.51910 0.23672 -0.00021
 C263 C 0.48146 0.23853 -0.06434
 C264 C 0.51842 0.23834 -0.06446
 C265 C 0.53780 0.23727 -0.03277
 C266 C 0.57539 0.23817 -0.03261
 C267 C 0.59355 0.23856 -0.00044
 C268 C 0.57566 0.23808 0.03180
 H269 H 0.46884 0.23959 0.08947
 H270 H 0.53244 0.23960 0.08926
 H271 H 0.46804 0.24011 -0.08954
 H272 H 0.53160 0.23969 -0.08975
 H273 H 0.37810 0.24000 0.00011
 H274 H 0.62237 0.23925 -0.00050
 C275 C 0.42629 0.76864 0.03244
 C276 C 0.40791 0.76551 0.00055
 C277 C 0.42565 0.76247 -0.03160
 C278 C 0.46320 0.76137 -0.03201
 C279 C 0.48238 0.76504 0.00013
 C280 C 0.46386 0.76967 0.03237
 C281 C 0.48338 0.77485 0.06353
 C282 C 0.52038 0.77474 0.06323
 C283 C 0.53941 0.76692 0.03228
 C284 C 0.52011 0.76325 0.00013
 C285 C 0.48198 0.75560 -0.06345
 C286 C 0.51887 0.75384 -0.06348
 C287 C 0.53842 0.75790 -0.03210
 C288 C 0.57582 0.75596 -0.03203
 C289 C 0.59428 0.75743 -0.00011
 C290 C 0.57707 0.76320 0.03219
 H291 H 0.47024 0.77946 0.08845
 H292 H 0.53370 0.78100 0.08768
 H293 H 0.46829 0.75177 -0.08829
 H294 H 0.53195 0.74862 -0.08834
 H295 H 0.37909 0.76520 0.00082
 H296 H 0.62290 0.75438 -0.00071
 C297 C -0.03292 0.57601 0.23488
 C298 C -0.00045 0.59397 0.23543
 C299 C 0.03198 0.57611 0.23502
 C300 C 0.03229 0.53873 0.23397
 C301 C -0.00040 0.51991 0.23328
 C302 C -0.03316 0.53858 0.23376
 C303 C -0.06510 0.51932 0.23451
 C304 C -0.06503 0.48251 0.23466
 C305 C -0.03301 0.46347 0.23405
 C306 C -0.00033 0.48231 0.23340
 C307 C 0.06430 0.51969 0.23503
 C308 C 0.06436 0.48290 0.23516
 C309 C 0.03243 0.46366 0.23423
 C310 C 0.03221 0.42626 0.23558
 C311 C -0.00019 0.40827 0.23611
 C312 C -0.03263 0.42608 0.23553
 H313 H -0.09052 0.53250 0.23565
 H314 H -0.09042 0.46916 0.23591
 H315 H 0.08970 0.53300 0.23644
 H316 H 0.08978 0.46973 0.23667
 H317 H -0.00042 0.62265 0.23624
 H318 H -0.00017 0.37959 0.23725
 C319 C -0.03273 0.57475 0.76374
 C320 C -0.00036 0.59276 0.76357
 C321 C 0.03206 0.57496 0.76427
 C322 C 0.03237 0.53758 0.76552
 C323 C -0.00035 0.51875 0.76612
 C324 C -0.03306 0.53739 0.76519
 C325 C -0.06504 0.51819 0.76429
 C326 C -0.06505 0.48142 0.76436
 C327 C -0.03309 0.46236 0.76549
 C328 C -0.00037 0.48118 0.76627
 C329 C 0.06435 0.51852 0.76475
 C330 C 0.06433 0.48174 0.76492
 C331 C 0.03234 0.46254 0.76576
 C332 C 0.03203 0.42517 0.76457
 C333 C -0.00038 0.40715 0.76407
 C334 C -0.03281 0.42497 0.76436
 H335 H -0.09046 0.53137 0.76284
 H336 H -0.09046 0.46815 0.76282
 H337 H 0.08976 0.53183 0.76332
 H338 H 0.08975 0.46854 0.76371
 H339 H -0.00039 0.62144 0.76268
 H340 H -0.00034 0.37848 0.76311
 C341 C 0.37825 0.21214 0.11691
 C342 C 0.35438 0.24041 0.12134
 C343 C 0.35583 0.26882 0.09740
 C344 C 0.37978 0.26862 0.06938
 C345 C 0.40311 0.24021 0.06470
 C346 C 0.40234 0.21201 0.08877
 H347 H 0.37781 0.18962 0.13450
 H348 H 0.33812 0.29112 0.09975
 H349 H 0.37953 0.29035 0.05072
 H350 H 0.41967 0.18949 0.08516
 C351 C 0.61385 0.74654 0.12488
 C352 C 0.64744 0.76245 0.12247
 C353 C 0.65707 0.77981 0.09124
 C354 C 0.63310 0.78208 0.06318
 C355 C 0.60000 0.76465 0.06455
 C356 C 0.59114 0.74608 0.09556
 H357 H 0.60619 0.73240 0.14856
 H358 H 0.68272 0.79263 0.08895
 H359 H 0.64088 0.79682 0.03993
 H360 H 0.56694 0.73068 0.09702
 C361 C 0.64453 0.26868 -0.09798
 C362 C 0.64579 0.24032 -0.12189
 C363 C 0.62172 0.21209 -0.11744
 C364 C 0.59775 0.21187 -0.08922
 C365 C 0.59726 0.23993 -0.06509
 C366 C 0.62067 0.26838 -0.06987
 H367 H 0.66230 0.29102 -0.10043
 H368 H 0.62193 0.18967 -0.13510
 H369 H 0.58023 0.18941 -0.08564
 H370 H 0.62099 0.29009 -0.05127
 C371 C 0.35510 0.73122 -0.09531
 C372 C 0.35463 0.75861 -0.12047
 C373 C 0.37963 0.78622 -0.11728
 C374 C 0.40383 0.78676 -0.08920
 C375 C 0.40347 0.75978 -0.06381
 C376 C 0.37911 0.73194 -0.06721
 H377 H 0.33656 0.70944 -0.09674
 H378 H 0.38013 0.80790 -0.13588
 H379 H 0.42216 0.80873 -0.08667
 H380 H 0.37823 0.71108 -0.04761
 C381 C 0.11708 0.37865 0.21054
 C382 C 0.12119 0.35515 0.23914
 C383 C 0.09711 0.35725 0.26738
 C384 C 0.06923 0.38146 0.26670
 C385 C 0.06480 0.40438 0.23792
 C386 C 0.08908 0.40300 0.20992
 H387 H 0.13477 0.37765 0.18813
 H388 H 0.09923 0.33985 0.28993
 H389 H 0.05043 0.38172 0.28833
 H390 H 0.08570 0.42001 0.18715
 C391 C 0.09627 0.64498 0.73337
 C392 C 0.12076 0.64688 0.76152
 C393 C 0.11695 0.62266 0.78968
 C394 C 0.08900 0.59818 0.79006
 C395 C 0.06453 0.59708 0.76218
 C396 C 0.06863 0.62043 0.73375
 H397 H 0.09786 0.66254 0.71092
 H398 H 0.13480 0.62301 0.81205
 H399 H 0.08588 0.58072 0.81253
 H400 H 0.04974 0.62021 0.71213
 C401 C -0.09747 0.64567 0.26555
 C402 C -0.12130 0.64828 0.23687
 C403 C -0.11736 0.62419 0.20871
 C404 C -0.08962 0.59950 0.20865
 C405 C -0.06550 0.59801 0.23683
 C406 C -0.06999 0.62099 0.26542
 H407 H -0.09930 0.66294 0.28815
 H408 H -0.13485 0.62491 0.18607
 H409 H -0.08631 0.58228 0.18610
 H410 H -0.05147 0.62044 0.28735
 C411 C -0.09742 0.35577 0.73225
 C412 C -0.12215 0.35380 0.76010
 C413 C -0.11846 0.37783 0.78838
 C414 C -0.09020 0.40195 0.78931
 C415 C -0.06536 0.40298 0.76182
 C416 C -0.06947 0.37997 0.73318
 H417 H -0.09905 0.33847 0.70966
 H418 H -0.13651 0.37746 0.81052
 H419 H -0.08714 0.41919 0.81190
 H420 H -0.05038 0.38020 0.71181
 C421 C 0.21119 0.11696 0.37864
 C422 C 0.23972 0.12133 0.35501
 C423 C 0.26830 0.09751 0.35686
 C424 C 0.26796 0.06960 0.38092
 C425 C 0.23922 0.06488 0.40390
 C426 C 0.21093 0.08892 0.40282
 H427 H 0.18857 0.13450 0.37791
 H428 H 0.29084 0.09987 0.33941
 H429 H 0.28984 0.05105 0.38104
 H430 H 0.18824 0.08536 0.42000
 C431 C 0.78897 0.11627 0.62162
 C432 C 0.76059 0.12050 0.64543
 C433 C 0.73196 0.09661 0.64372
 C434 C 0.73207 0.06881 0.61962
 C435 C 0.76067 0.06419 0.59648
 C436 C 0.78901 0.08831 0.59740
 H437 H 0.81163 0.13387 0.62222
 H438 H 0.70954 0.09884 0.66133
 H439 H 0.71011 0.05025 0.61960
 H440 H 0.81159 0.08489 0.58007
 C441 C 0.26759 -0.09722 0.64481
 C442 C 0.23884 -0.12092 0.64678
 C443 C 0.21040 -0.11679 0.62293
 C444 C 0.21034 -0.08902 0.59843
 C445 C 0.23878 -0.06504 0.59723
 C446 C 0.26748 -0.06957 0.62042
 H447 H 0.29015 -0.09958 0.66233
 H448 H 0.18768 -0.13431 0.62376
 H449 H 0.18767 -0.08558 0.58114
 H450 H 0.28948 -0.05105 0.62021
 C451 C 0.78628 -0.11927 0.37928
 C452 C 0.75770 -0.12350 0.35554
 C453 C 0.72969 -0.09898 0.35675
 C454 C 0.73053 -0.07075 0.38042
 C455 C 0.75922 -0.06638 0.40370
 C456 C 0.78706 -0.09093 0.40304
 H457 H 0.80842 -0.13741 0.37927
 H458 H 0.70729 -0.10098 0.33900
 H459 H 0.70903 -0.05176 0.38009
 H460 H 0.80975 -0.08768 0.42035
 C461 C 0.62206 0.78310 -0.11624
 C462 C 0.64527 0.75452 -0.12171
 C463 C 0.64303 0.72511 -0.09901
 C464 C 0.61948 0.72504 -0.07059
 C465 C 0.59715 0.75397 -0.06473
 C466 C 0.59819 0.78278 -0.08802
 H467 H 0.62301 0.80627 -0.13296
 H468 H 0.65987 0.70232 -0.10269
 H469 H 0.61919 0.70273 -0.05264
 H470 H 0.58140 0.80555 -0.08357
 C471 C 0.37788 0.21189 -0.11650
 C472 C 0.35395 0.24011 -0.12107
 C473 C 0.35562 0.26875 -0.09753
 C474 C 0.37961 0.26865 -0.06948
 C475 C 0.40279 0.24015 -0.06450
 C476 C 0.40202 0.21188 -0.08837
 H477 H 0.37742 0.18932 -0.13395
 H478 H 0.33808 0.29115 -0.10025
 H479 H 0.37959 0.29054 -0.05108
 H480 H 0.41946 0.18944 -0.08465
 C481 C 0.36139 0.73559 0.10038
 C482 C 0.35545 0.76579 0.12099
 C483 C 0.37534 0.79658 0.11389
 C484 C 0.39966 0.79739 0.08595
 C485 C 0.40473 0.76733 0.06502
 C486 C 0.38566 0.73642 0.07266
 H487 H 0.34707 0.71130 0.10532
 H488 H 0.37138 0.82039 0.12910
 H489 H 0.41376 0.82166 0.08005
 H490 H 0.38897 0.71311 0.05648
 C491 C 0.62221 0.21121 0.11640
 C492 C 0.64606 0.23955 0.12120
 C493 C 0.64472 0.26816 0.09749
 C494 C 0.62099 0.26801 0.06921
 C495 C 0.59773 0.23951 0.06416
 C496 C 0.59831 0.21118 0.08805
 H497 H 0.62246 0.18863 0.13392
 H498 H 0.66228 0.29061 0.10025
 H499 H 0.62125 0.28991 0.05075
 H500 H 0.58086 0.18870 0.08422
 C501 C -0.11759 0.62193 0.78847
 C502 C -0.12123 0.64625 0.76038
 C503 C -0.09692 0.64429 0.73220
 C504 C -0.06932 0.61980 0.73269
 C505 C -0.06520 0.59661 0.76125
 C506 C -0.08969 0.59759 0.78899
 H507 H -0.13539 0.62223 0.81080
 H508 H -0.09862 0.66180 0.70970
 H509 H -0.05048 0.61955 0.71111
 H510 H -0.08656 0.58020 0.81152
 C511 C -0.11727 0.37771 0.21085
 C512 C -0.12120 0.35445 0.23966
 C513 C -0.09720 0.35708 0.26801
 C514 C -0.06941 0.38148 0.26712
 C515 C -0.06509 0.40403 0.23804
 C516 C -0.08937 0.40221 0.21002
 H517 H -0.13503 0.37640 0.18844
 H518 H -0.09939 0.33999 0.29079
 H519 H -0.05061 0.38219 0.28879
 H520 H -0.08609 0.41902 0.18709
 C521 C 0.11692 0.37768 0.78944
 C522 C 0.12080 0.35425 0.76086
 C523 C 0.09678 0.35663 0.73249
 C524 C 0.06893 0.38082 0.73323
 C525 C 0.06455 0.40340 0.76216
 C526 C 0.08895 0.40197 0.79012
 H527 H 0.13478 0.37670 0.81179
 H528 H 0.09891 0.33946 0.70984
 H529 H 0.05012 0.38133 0.71155
 H530 H 0.08570 0.41893 0.81287
 C531 C 0.11714 0.62319 0.20929
 C532 C 0.12159 0.64673 0.23770
 C533 C 0.09774 0.64468 0.26620
 C534 C 0.06953 0.62076 0.26574
 C535 C 0.06461 0.59802 0.23699
 C536 C 0.08881 0.59911 0.20892
 H537 H 0.13487 0.62389 0.18689
 H538 H 0.10032 0.66185 0.28882
 H539 H 0.05095 0.62050 0.28755
 H540 H 0.08518 0.58196 0.18634
 C541 C 0.78824 -0.11724 0.62278
 C542 C 0.75991 -0.12139 0.64670
 C543 C 0.73134 -0.09756 0.64486
 C544 C 0.73159 -0.06976 0.62063
 C545 C 0.76021 -0.06523 0.59742
 C546 C 0.78842 -0.08934 0.59845
 H547 H 0.81077 -0.13489 0.62331
 H548 H 0.70886 -0.09990 0.66242
 H549 H 0.70974 -0.05117 0.62050
 H550 H 0.81100 -0.08597 0.58108
 C551 C 0.26820 -0.09674 0.35678
 C552 C 0.23950 -0.12050 0.35463
 C553 C 0.21093 -0.11644 0.37822
 C554 C 0.21062 -0.08857 0.40248
 C555 C 0.23895 -0.06446 0.40371
 C556 C 0.26781 -0.06898 0.38089
 H557 H 0.29089 -0.09905 0.33954
 H558 H 0.18833 -0.13411 0.37740
 H559 H 0.18788 -0.08520 0.41961
 H560 H 0.28975 -0.05040 0.38117
 C561 C 0.73175 0.09602 0.35638
 C562 C 0.76060 0.11963 0.35452
 C563 C 0.78910 0.11519 0.37824
 C564 C 0.78923 0.08705 0.40230
 C565 C 0.76077 0.06308 0.40320
 C566 C 0.73195 0.06801 0.38031
 H567 H 0.70907 0.09867 0.33908
 H568 H 0.81177 0.13277 0.37773
 H569 H 0.81188 0.08344 0.41957
 H570 H 0.70986 0.04961 0.38046
 C571 C 0.26790 0.09697 0.64401
 C572 C 0.23921 0.12064 0.64574
 C573 C 0.21070 0.11626 0.62202
 C574 C 0.21045 0.08821 0.59799
 C575 C 0.23878 0.06424 0.59712
 C576 C 0.26758 0.06903 0.62011
 H577 H 0.29052 0.09949 0.66142
 H578 H 0.18808 0.13381 0.62255
 H579 H 0.18777 0.08462 0.58073
 H580 H 0.28951 0.05054 0.62007
   
