data_POSCAR
  _audit_creation_date              2014-09-24
  _audit_creation_method            'ToBaCCo'
  _symmetry_space_group_name_H-M    'P1'
  _symmetry_Int_Tables_number       1
  _symmetry_cell_setting            triclinic
  loop_
  _symmetry_equiv_pos_as_xyz
 x,y,z
_cell_length_a 32.4788
_cell_length_b 31.7837
_cell_length_c 44.0397
_cell_angle_alpha 91.338300
_cell_angle_beta 83.725200
_cell_angle_gamma 84.615000
loop_
  _atom_site_label
  _atom_site_type_symbol
  _atom_site_fract_x
  _atom_site_fract_y
  _atom_site_fract_z
C1 C -0.00862 0.50165 0.98478
 C2 C -0.01298 0.50426 1.01595
 C3 C -0.01563 0.54557 1.03304
 C4 C -0.01476 0.46579 1.03454
 C5 C -0.00912 0.46087 0.96789
 C6 C -0.00286 0.53918 0.96590
 C7 C 0.01052 0.55091 1.05571
 C8 C 0.00908 0.58956 1.07168
 C9 C -0.01862 0.62484 1.06547
 C10 C -0.04561 0.61824 1.04283
 C11 C -0.04433 0.57926 1.02722
 C12 C 0.01604 0.43155 1.02931
 C13 C 0.01377 0.39549 1.04670
 C14 C -0.01867 0.39333 1.07042
 C15 C -0.04881 0.42824 1.07615
 C16 C -0.04690 0.46398 1.05836
 C17 C -0.04456 0.43854 0.97083
 C18 C -0.04410 0.39948 0.95543
 C19 C -0.00801 0.38207 0.93726
 C20 C 0.02720 0.40474 0.93409
 C21 C 0.02645 0.44410 0.94898
 C22 C -0.03020 0.54957 0.94409
 C23 C -0.02584 0.58525 0.92659
 C24 C 0.00622 0.61105 0.93034
 C25 C 0.03420 0.60003 0.95172
 C26 C 0.02976 0.56432 0.96930
 H27 H 0.03232 0.52496 1.06110
 H28 H 0.02888 0.59023 1.08980
 H29 H -0.06673 0.64324 1.03552
 H30 H -0.06547 0.57562 1.01016
 H31 H 0.04189 0.43268 1.01172
 H32 H 0.03730 0.36917 1.04133
 H33 H -0.07065 0.49029 1.06313
 H34 H -0.07236 0.45128 0.98517
 H35 H -0.07154 0.38243 0.95818
 H36 H 0.05520 0.39200 0.91997
 H37 H 0.05397 0.46106 0.94640
 H38 H -0.05533 0.53033 0.94095
 H39 H -0.04741 0.59251 0.90992
 H40 H 0.05910 0.61941 0.95519
 H41 H 0.05158 0.55642 0.98568
 H42 H -0.07366 0.42822 1.09464
 C43 C 0.50695 -0.00413 0.48345
 C44 C 0.50103 -0.00397 0.51447
 C45 C 0.45866 0.00065 0.53123
 C46 C 0.53617 -0.00710 0.53332
 C47 C 0.54902 -0.01064 0.46624
 C48 C 0.47107 0.00237 0.46549
 C49 C 0.44584 0.03629 0.55046
 C50 C 0.40575 0.04138 0.56599
 C51 C 0.37800 0.01061 0.56281
 C52 C 0.39118 -0.02542 0.54385
 C53 C 0.43122 -0.03034 0.52818
 C54 C 0.56430 0.02385 0.53237
 C55 C 0.59580 0.02188 0.55169
 C56 C 0.59980 -0.01119 0.57221
 C57 C 0.57182 -0.04246 0.57263
 C58 C 0.54011 -0.04018 0.55358
 C59 C 0.57560 -0.04722 0.46976
 C60 C 0.61536 -0.05279 0.45360
 C61 C 0.62920 -0.02182 0.43370
 C62 C 0.60232 0.01456 0.43004
 C63 C 0.56249 0.01995 0.44601
 C64 C 0.45870 -0.03172 0.44919
 C65 C 0.42249 -0.02686 0.43464
 C66 C 0.39841 0.01251 0.43561
 C67 C 0.41197 0.04698 0.45117
 C68 C 0.44779 0.04185 0.46615
 H69 H 0.46677 0.06037 0.55317
 H70 H 0.39658 0.06915 0.58077
 H71 H 0.37034 -0.04948 0.54087
 H72 H 0.44086 -0.05829 0.51367
 H73 H 0.56125 0.04999 0.51718
 H74 H 0.61631 0.04687 0.55110
 H75 H 0.51861 -0.06432 0.55457
 H76 H 0.56553 -0.07143 0.48500
 H77 H 0.63549 -0.08105 0.45694
 H78 H 0.61196 0.03864 0.41452
 H79 H 0.54233 0.04828 0.44288
 H80 H 0.47625 -0.06249 0.44873
 H81 H 0.41277 -0.05432 0.42343
 H82 H 0.39488 0.07796 0.45187
 H83 H 0.45715 0.06851 0.47859
 H84 H 0.57443 -0.06880 0.58767
 C85 C 0.12421 -0.00888 0.25511
 H86 H 0.12492 -0.01142 0.23051
 C87 C 0.16126 -0.01335 0.26851
 H88 H 0.19042 -0.01867 0.25389
 C89 C 0.08501 0.00259 0.30370
 H90 H 0.05515 0.00888 0.31726
 C91 C 0.12137 -0.00219 0.31812
 H92 H 0.11895 -0.00015 0.34283
 N93 N 0.08713 -0.00071 0.27272
 C94 C 0.03150 -0.04488 0.19786
 H95 H 0.02455 -0.01539 0.18707
 C96 C 0.03229 -0.08272 0.18090
 H97 H 0.02563 -0.08183 0.15734
 C98 C 0.05015 -0.08240 0.24093
 H99 H 0.05778 -0.08209 0.26421
 C100 C 0.05190 -0.12086 0.22469
 H101 H 0.06005 -0.15003 0.23582
 Zn102 Zn 0.03886 0.00490 0.25211
 N103 N 0.03964 -0.04534 0.22754
 C104 C 0.00921 0.06342 0.20968
 N105 N 0.03998 0.05371 0.22773
 C106 C 0.07104 0.07926 0.22952
 C107 C 0.07268 0.11531 0.21213
 C108 C 0.00997 0.09888 0.19153
 C109 C -0.01957 -0.02232 0.29840
 C110 C -0.05612 -0.01915 0.31860
 C111 C -0.07173 0.05215 0.30260
 C112 C -0.03486 0.04768 0.28281
 N113 N -0.00984 0.01067 0.28072
 H114 H -0.01608 0.04362 0.20942
 H115 H 0.09440 0.07215 0.24478
 H116 H 0.09736 0.13539 0.21443
 H117 H -0.01419 0.10513 0.17669
 H118 H 0.00092 -0.05123 0.29683
 H119 H -0.06316 -0.04573 0.33252
 H120 H -0.09163 0.08153 0.30323
 H121 H -0.02646 0.07386 0.26903
 C122 C 0.04258 -0.12130 0.19435
 C123 C 0.16027 -0.01014 0.30048
 C124 C -0.08299 0.01836 0.32070
 C125 C 0.04217 0.12537 0.19247
 C126 C -0.04476 0.08473 0.75440
 H127 H -0.04394 0.08345 0.72977
 C128 C -0.05018 0.12376 0.77027
 H129 H -0.05326 0.15260 0.75774
 C130 C -0.04144 0.04865 0.80071
 H131 H -0.03856 0.01939 0.81258
 C132 C -0.04610 0.08700 0.81742
 H133 H -0.04663 0.08693 0.84205
 N134 N -0.04020 0.04821 0.76972
 C135 C 0.03387 -0.04776 0.70958
 H136 H 0.01275 -0.07213 0.70959
 C137 C 0.07346 -0.05455 0.69340
 H138 H 0.08238 -0.08411 0.68061
 C139 C 0.04741 0.02064 0.72596
 H140 H 0.03729 0.04973 0.73894
 C141 C 0.08731 0.01515 0.71018
 H142 H 0.10762 0.04013 0.71135
 Zn143 Zn -0.03268 -0.00326 0.74633
 N144 N 0.02144 -0.01041 0.72506
 C145 C -0.06186 -0.00836 0.68793
 N146 N -0.07314 -0.00081 0.71837
 C147 C -0.11352 0.01010 0.72954
 C148 C -0.14455 0.01314 0.70988
 C149 C -0.09189 -0.00609 0.66750
 C150 C -0.00885 -0.05922 0.79092
 C151 C -0.01124 -0.09371 0.80988
 C152 C -0.07397 -0.10915 0.78876
 C153 C -0.07042 -0.07431 0.77026
 N154 N -0.03846 -0.04989 0.77189
 H155 H -0.02959 -0.01625 0.67934
 H156 H -0.12156 0.01665 0.75379
 H157 H -0.17639 0.02247 0.71925
 H158 H -0.08226 -0.01327 0.64348
 H159 H 0.01664 -0.03970 0.79138
 H160 H 0.01221 -0.10007 0.82529
 H161 H -0.09938 -0.12845 0.78687
 H162 H -0.09307 -0.06705 0.75447
 C163 C 0.10071 -0.02274 0.69342
 C164 C -0.05044 0.12512 0.80214
 C165 C -0.04421 -0.11918 0.80901
 C166 C -0.13395 0.00476 0.67837
 C167 C 0.01446 -0.32635 0.09657
 C168 C 0.01372 -0.28733 0.11234
 C169 C -0.02073 -0.25693 0.11214
 C170 C -0.05402 -0.26619 0.09640
 C171 C -0.05347 -0.30523 0.08105
 C172 C -0.01924 -0.33665 0.08062
 C173 C -0.02145 -0.21781 0.12777
 C174 C 0.01183 -0.20896 0.14392
 C175 C 0.04625 -0.23960 0.14434
 C176 C 0.04715 -0.27839 0.12834
 C177 C 0.07912 -0.23105 0.16096
 C178 C 0.07782 -0.19260 0.17721
 C179 C 0.04391 -0.16182 0.17681
 C180 C 0.01107 -0.17012 0.15994
 H181 H 0.04269 -0.34735 0.09594
 H182 H -0.08099 -0.24337 0.09631
 H183 H -0.08139 -0.31066 0.07095
 H184 H -0.04797 -0.19443 0.12753
 H185 H 0.07365 -0.30179 0.12863
 H186 H 0.10572 -0.25418 0.16155
 H187 H 0.10357 -0.18668 0.18988
 H188 H -0.01541 -0.14667 0.15982
 C189 C 0.01569 0.33184 0.09634
 C190 C 0.01371 0.29555 0.11379
 C191 C -0.02541 0.28253 0.12489
 C192 C -0.06186 0.30561 0.11785
 C193 C -0.05963 0.34128 0.10003
 C194 C -0.02091 0.35502 0.08918
 C195 C -0.02747 0.24663 0.14275
 C196 C 0.00916 0.22320 0.14925
 C197 C 0.04827 0.23581 0.13764
 C198 C 0.05031 0.27206 0.12020
 C199 C 0.08476 0.21187 0.14360
 C200 C 0.08264 0.17587 0.16105
 C201 C 0.04400 0.16330 0.17329
 C202 C 0.00730 0.18730 0.16717
 H203 H 0.04581 0.34223 0.08867
 H204 H -0.09213 0.29589 0.12595
 H205 H -0.08836 0.35782 0.09444
 H206 H -0.05751 0.23684 0.15145
 H207 H 0.08036 0.28184 0.11149
 H208 H 0.11499 0.22084 0.13463
 H209 H 0.11143 0.15764 0.16470
 H210 H -0.02276 0.17851 0.17669
 C211 C 0.31871 -0.01790 0.59457
 C212 C 0.27879 -0.01255 0.61077
 C213 C 0.25513 0.02724 0.61154
 C214 C 0.27183 0.06096 0.59615
 C215 C 0.31170 0.05545 0.58029
 C216 C 0.33550 0.01607 0.57936
 C217 C 0.21530 0.03277 0.62778
 C218 C 0.19891 -0.00089 0.64349
 C219 C 0.22259 -0.04064 0.64281
 C220 C 0.26233 -0.04626 0.62639
 C221 C 0.20612 -0.07410 0.65867
 C222 C 0.16660 -0.06827 0.67511
 C223 C 0.14274 -0.02889 0.67595
 C224 C 0.15919 0.00466 0.65996
 H225 H 0.33705 -0.04825 0.59427
 H226 H 0.25411 0.09163 0.59646
 H227 H 0.32385 0.08193 0.56847
 H228 H 0.19717 0.06329 0.62834
 H229 H 0.28048 -0.07676 0.62587
 H230 H 0.22388 -0.10474 0.65849
 H231 H 0.15493 -0.09448 0.68753
 H232 H 0.14090 0.03499 0.66002
 C233 C -0.32794 -0.00006 0.58437
 C234 C -0.29741 -0.00127 0.60467
 C235 C -0.30648 -0.01583 0.63453
 C236 C -0.34602 -0.02834 0.64371
 C237 C -0.37635 -0.02657 0.62352
 C238 C -0.36768 -0.01269 0.59359
 C239 C -0.27595 -0.01757 0.65477
 C240 C -0.23655 -0.00451 0.64567
 C241 C -0.22761 0.01057 0.61595
 C242 C -0.25801 0.01189 0.59558
 C243 C -0.18838 0.02411 0.60712
 C244 C -0.15818 0.02257 0.62746
 C245 C -0.16646 0.00714 0.65697
 C246 C -0.20592 -0.00634 0.66586
 H247 H -0.32055 0.01026 0.56130
 H248 H -0.35360 -0.03925 0.66659
 H249 H -0.40687 -0.03562 0.63155
 H250 H -0.28291 -0.02895 0.67762
 H251 H -0.25106 0.02327 0.57274
 H252 H -0.18107 0.03605 0.58452
 H253 H -0.12841 0.03391 0.62013
 H254 H -0.21266 -0.01890 0.68833
 C255 C -0.02541 -0.32403 0.90720
 C256 C -0.02205 -0.28831 0.88932
 C257 C 0.01752 -0.27892 0.87602
 C258 C 0.05306 -0.30524 0.88111
 C259 C 0.04943 -0.34076 0.89898
 C260 C 0.01021 -0.35065 0.91202
 C261 C 0.02088 -0.24353 0.85777
 C262 C -0.01483 -0.21739 0.85269
 C263 C -0.05434 -0.22664 0.86621
 C264 C -0.05770 -0.26200 0.88445
 C265 C -0.08993 -0.20045 0.86115
 C266 C -0.08653 -0.16552 0.84271
 C267 C -0.04749 -0.15609 0.82893
 C268 C -0.01169 -0.18224 0.83415
 H269 H -0.05575 -0.33100 0.91755
 H270 H 0.08363 -0.29854 0.87110
 H271 H 0.07727 -0.36097 0.90214
 H272 H 0.05122 -0.23643 0.84747
 H273 H -0.08805 -0.26915 0.89471
 H274 H -0.12042 -0.20697 0.87145
 H275 H -0.11451 -0.14557 0.83949
 H276 H 0.01855 -0.17569 0.82336
 C277 C -0.03703 0.33140 0.90287
 C278 C -0.03482 0.29194 0.88744
 C279 C -0.00242 0.26043 0.89181
 C280 C 0.02744 0.26908 0.91119
 C281 C 0.02552 0.30871 0.92590
 C282 C -0.00669 0.34006 0.92192
 C283 C -0.00007 0.22097 0.87648
 C284 C -0.02911 0.21288 0.85628
 C285 C -0.06110 0.24459 0.85147
 C286 C -0.06403 0.28375 0.86735
 C287 C -0.08934 0.23672 0.83058
 C288 C -0.08579 0.19790 0.81445
 C289 C -0.05440 0.16611 0.81934
 C290 C -0.02628 0.17373 0.84043
 H291 H -0.06169 0.35573 0.89953
 H292 H 0.05252 0.24535 0.91473
 H293 H 0.04904 0.31487 0.94064
 H294 H 0.02469 0.19679 0.87995
 H295 H -0.08866 0.30801 0.86376
 H296 H -0.11397 0.26067 0.82653
 H297 H -0.10784 0.19250 0.79836
 H298 H -0.00165 0.14947 0.84397
 C299 C -0.30361 0.00637 0.41441
 C300 C -0.26414 0.00157 0.39750
 C301 C -0.24945 -0.03760 0.38241
 C302 C -0.27422 -0.07147 0.38493
 C303 C -0.31339 -0.06647 0.40193
 C304 C -0.32861 -0.02747 0.41658
 C305 C -0.21044 -0.04218 0.36486
 C306 C -0.18588 -0.00811 0.36227
 C307 C -0.20031 0.03083 0.37778
 C308 C -0.23931 0.03542 0.39530
 C309 C -0.17563 0.06472 0.37527
 C310 C -0.13730 0.06038 0.35716
 C311 C -0.12287 0.02210 0.34113
 C312 C -0.14732 -0.01219 0.34407
 H313 H -0.31486 0.03640 0.42599
 H314 H -0.26344 -0.10172 0.37356
 H315 H -0.33222 -0.09288 0.40311
 H316 H -0.19935 -0.07213 0.35308
 H317 H -0.25048 0.06541 0.40700
 H318 H -0.18607 0.09469 0.38717
 H319 H -0.11884 0.08707 0.35577
 H320 H -0.13689 -0.04173 0.33158
 C321 C 0.35480 -0.00574 0.39411
 C322 C 0.31719 -0.00218 0.38097
 C323 C 0.28330 0.02559 0.39456
 C324 C 0.28741 0.04877 0.42133
 C325 C 0.32466 0.04444 0.43460
 C326 C 0.35890 0.01732 0.42113
 C327 C 0.24582 0.02957 0.38129
 C328 C 0.24156 0.00559 0.35485
 C329 C 0.27523 -0.02274 0.34159
 C330 C 0.31292 -0.02621 0.35457
 C331 C 0.27064 -0.04726 0.31556
 C332 C 0.23318 -0.04356 0.30258
 C333 C 0.19961 -0.01490 0.31512
 C334 C 0.20415 0.00952 0.34143
 H335 H 0.38092 -0.02632 0.38310
 H336 H 0.26164 0.06993 0.43221
 H337 H 0.32632 0.06190 0.45575
 H338 H 0.21993 0.05111 0.39163
 H339 H 0.33879 -0.04778 0.34425
 H340 H 0.29598 -0.06943 0.30527
 H341 H 0.23044 -0.06349 0.28278
 H342 H 0.17887 0.03214 0.35122
   
