data_POSCAR
  _audit_creation_date              2014-09-24
  _audit_creation_method            'ToBaCCo'
  _symmetry_space_group_name_H-M    'P1'
  _symmetry_Int_Tables_number       1
  _symmetry_cell_setting            triclinic
  loop_
  _symmetry_equiv_pos_as_xyz
 x,y,z
_cell_length_a 46.2733
_cell_length_b 46.2269
_cell_length_c 35.4881
_cell_angle_alpha 90.438900
_cell_angle_beta 89.991000
_cell_angle_gamma 120.020800
loop_
  _atom_site_label
  _atom_site_type_symbol
  _atom_site_fract_x
  _atom_site_fract_y
  _atom_site_fract_z
O1 O -0.01098 0.52313 -0.04929
 O2 O 0.04451 0.49861 -0.00289
 O3 O -0.00784 0.46835 -0.04753
 O4 O 0.04050 0.55230 -0.00460
 O5 O 0.00734 0.53516 0.04486
 O6 O -0.04110 0.45158 0.00173
 O7 O 0.01104 0.48104 0.04629
 O8 O -0.04418 0.50615 0.00011
 Cu9 Cu 0.01979 0.51213 -0.03112
 Cu10 Cu -0.02010 0.49165 0.02814
 C11 C -0.03703 0.51894 -0.03251
 C12 C 0.03767 0.48633 0.02997
 C13 C -0.03314 0.44564 -0.03050
 C14 C 0.03242 0.55797 0.02770
 O15 O 0.50688 0.54623 -0.00292
 O16 O 0.47085 0.46245 -0.04560
 O17 O 0.44899 0.49204 -0.00068
 O18 O 0.52893 0.51655 -0.04765
 O19 O 0.54458 0.49815 0.00090
 O20 O 0.46543 0.47523 0.04869
 O21 O 0.48657 0.44510 0.00391
 O22 O 0.52380 0.52942 0.04601
 Cu23 Cu 0.48733 0.50609 -0.02910
 Cu24 Cu 0.50684 0.48545 0.02990
 C25 C 0.52124 0.55214 0.02898
 C26 C 0.47270 0.43947 -0.02829
 C27 C 0.44356 0.47954 0.03210
 C28 C 0.55017 0.51077 -0.03184
 O29 O 0.53027 1.00947 -0.04727
 O30 O 0.44797 0.95584 -0.00448
 O31 O 0.47373 1.00868 -0.04753
 O32 O 0.50361 0.95605 -0.00495
 O33 O 0.51962 0.98828 0.04581
 O34 O 0.49076 1.04165 0.00252
 O35 O 0.46378 0.98865 0.04579
 O36 O 0.54627 1.04164 0.00354
 Cu37 Cu 0.48733 0.97935 -0.03119
 Cu38 Cu 0.50665 1.01824 0.02953
 C39 C 0.55211 1.03511 -0.02946
 C40 C 0.44209 0.96268 0.02837
 C41 C 0.47794 1.03474 -0.03032
 C42 C 0.51590 0.96262 0.02809
 O43 O 1.04091 0.54410 0.49990
 O44 O 0.98514 0.46377 0.54484
 O45 O 1.03715 0.48635 0.50120
 O46 O 0.98781 0.52094 0.54320
 O47 O 0.95519 0.50472 0.49297
 O48 O 1.00434 0.47014 0.45121
 O49 O 0.95212 0.44776 0.49491
 O50 O 1.00819 0.52831 0.44976
 Cu51 Cu 1.01608 0.50554 0.52725
 Cu52 Cu 0.97683 0.48627 0.46706
 C53 C 1.03449 0.54973 0.46688
 C54 C 0.95876 0.44231 0.52795
 C55 C 1.02938 0.47253 0.46881
 C56 C 0.96235 0.51770 0.52574
 O57 O 0.53238 0.52735 0.54736
 O58 O 0.44829 0.49215 0.50663
 O59 O 0.47823 0.46919 0.54985
 O60 O 0.50202 0.54922 0.50368
 O61 O 0.51861 0.53281 0.45371
 O62 O 0.49495 0.45305 0.49980
 O63 O 0.46435 0.47547 0.45646
 O64 O 0.54870 0.51092 0.49723
 Cu65 Cu 0.48861 0.51100 0.53202
 Cu66 Cu 0.50819 0.49126 0.47182
 C67 C 0.55488 0.52496 0.52946
 C68 C 0.44222 0.47877 0.47406
 C69 C 0.48316 0.44770 0.53295
 C70 C 0.51380 0.55440 0.47049
 O71 O 0.50751 -0.04351 0.50120
 O72 O 0.47687 0.00810 0.54614
 O73 O 0.45122 -0.04395 0.50135
 O74 O 0.53308 0.00803 0.54671
 O75 O 0.54980 0.04146 0.49764
 O76 O 0.46767 -0.01043 0.45244
 O77 O 0.49379 0.04159 0.49711
 O78 O 0.52414 -0.01010 0.45210
 Cu79 Cu 0.49050 -0.02117 0.52877
 Cu80 Cu 0.51053 0.01895 0.46989
 C81 C 0.52084 -0.03578 0.46881
 C82 C 0.48033 0.03385 0.52941
 C83 C 0.44536 -0.03630 0.46903
 C84 C 0.55540 0.03379 0.53007
 C85 C 0.13907 0.43417 0.25245
 C86 C 0.15531 0.43671 0.21823
 C87 C 0.18230 0.43082 0.21785
 C88 C 0.19244 0.42117 0.25067
 C89 C 0.17341 0.41571 0.28367
 C90 C 0.14790 0.42382 0.28547
 C91 C 0.22497 0.42108 0.25150
 C92 C 0.24303 0.42716 0.28548
 C93 C 0.27603 0.43332 0.28592
 C94 C 0.29147 0.43442 0.25149
 C95 C 0.27393 0.42750 0.21725
 C96 C 0.24025 0.41917 0.21790
 H97 H 0.12055 0.44190 0.25360
 H98 H 0.19583 0.43476 0.19192
 H99 H 0.17885 0.40598 0.30855
 H100 H 0.23198 0.42816 0.31182
 H101 H 0.31777 0.44232 0.25125
 H102 H 0.22640 0.41211 0.19174
 C103 C 0.56308 0.70441 0.24617
 C104 C 0.57291 0.72306 0.21281
 C105 C 0.58116 0.75679 0.21427
 C106 C 0.57656 0.77100 0.24743
 C107 C 0.56732 0.75172 0.28053
 C108 C 0.56116 0.71873 0.28039
 C109 C 0.57712 0.80383 0.24670
 C110 C 0.58089 0.82193 0.28026
 C111 C 0.57275 0.84742 0.28180
 C112 C 0.56438 0.85739 0.24818
 C113 C 0.56379 0.84221 0.21354
 C114 C 0.56959 0.81510 0.21327
 H115 H 0.55527 0.67811 0.24534
 H116 H 0.59033 0.77160 0.18909
 H117 H 0.56388 0.76184 0.30651
 H118 H 0.58911 0.81558 0.30577
 H119 H 0.55664 0.87592 0.24914
 H120 H 0.56718 0.80225 0.18697
 C121 C 0.29310 0.85705 0.25175
 C122 C 0.27794 0.84214 0.21728
 C123 C 0.24487 0.81552 0.21732
 C124 C 0.22634 0.80436 0.25093
 C125 C 0.24140 0.82194 0.28459
 C126 C 0.27520 0.84720 0.28569
 C127 C 0.19339 0.77218 0.25132
 C128 C 0.18254 0.75241 0.28403
 C129 C 0.15525 0.71961 0.28306
 C130 C 0.13947 0.70607 0.24839
 C131 C 0.14902 0.72535 0.21551
 C132 C 0.17469 0.75888 0.21790
 H133 H 0.31944 0.87532 0.25221
 H134 H 0.23411 0.80302 0.19096
 H135 H 0.22719 0.81557 0.31036
 H136 H 0.19580 0.76196 0.31027
 H137 H 0.12079 0.67986 0.24677
 H138 H 0.18067 0.77418 0.19309
 C139 C 0.85598 0.56316 0.74841
 C140 C 0.84144 0.56367 0.71389
 C141 C 0.81444 0.56963 0.71416
 C142 C 0.80256 0.57612 0.74802
 C143 C 0.81997 0.57865 0.78160
 C144 C 0.84543 0.57049 0.78247
 C145 C 0.76985 0.57583 0.74882
 C146 C 0.75010 0.56643 0.78172
 C147 C 0.71699 0.56001 0.78122
 C148 C 0.70323 0.56195 0.74672
 C149 C 0.72254 0.57246 0.71381
 C150 C 0.75621 0.58090 0.71571
 H151 H 0.87447 0.55538 0.74890
 H152 H 0.80218 0.56815 0.68783
 H153 H 0.81325 0.58602 0.80760
 H154 H 0.76001 0.56315 0.80775
 H155 H 0.67691 0.55378 0.74516
 H156 H 0.77137 0.59057 0.69080
 C157 C 0.43097 0.29120 0.75201
 C158 C 0.43368 0.27789 0.71739
 C159 C 0.42831 0.24513 0.71641
 C160 C 0.41900 0.22516 0.74901
 C161 C 0.41314 0.23824 0.78230
 C162 C 0.42089 0.27173 0.78475
 C163 C 0.41979 0.19298 0.74945
 C164 C 0.42672 0.18148 0.78314
 C165 C 0.43356 0.15505 0.78311
 C166 C 0.43452 0.14075 0.74841
 C167 C 0.42656 0.15075 0.71454
 C168 C 0.41772 0.17574 0.71571
 H169 H 0.43843 0.31739 0.75371
 H170 H 0.43242 0.23577 0.69026
 H171 H 0.40356 0.22280 0.80698
 H172 H 0.42777 0.19360 0.80954
 H173 H 0.44299 0.12279 0.74761
 H174 H 0.41006 0.18221 0.68988
 C175 C 0.70577 0.14087 0.75091
 C176 C 0.72409 0.15091 0.71729
 C177 C 0.75771 0.17643 0.71889
 C178 C 0.77205 0.19448 0.75251
 C179 C 0.75325 0.18308 0.78591
 C180 C 0.72036 0.15597 0.78556
 C181 C 0.80424 0.22741 0.75192
 C182 C 0.82282 0.24190 0.78519
 C183 C 0.84822 0.27570 0.78655
 C184 C 0.85713 0.29413 0.75302
 C185 C 0.84110 0.27954 0.71880
 C186 C 0.81442 0.24652 0.71873
 H187 H 0.67951 0.12233 0.74997
 H188 H 0.77225 0.18279 0.69336
 H189 H 0.76363 0.19581 0.81227
 H190 H 0.81715 0.22726 0.81050
 H191 H 0.87553 0.32046 0.75366
 H192 H 0.80110 0.23627 0.69266
 C193 C 0.07625 0.45735 0.10355
 C194 C 0.10885 0.47300 0.09156
 C195 C 0.11929 0.49160 0.05869
 C196 C 0.09526 0.49465 0.03766
 C197 C 0.06164 0.47959 0.05005
 C198 C 0.05204 0.46032 0.08331
 O199 O 0.07164 0.44145 0.13590
 C200 C 0.10202 0.44741 0.14468
 C201 C 0.12573 0.46674 0.11862
 C202 C 0.15941 0.47736 0.12333
 C203 C 0.16904 0.46758 0.15618
 C204 C 0.14498 0.44706 0.18336
 C205 C 0.11090 0.43683 0.17712
 H206 H 0.14511 0.50379 0.04987
 H207 H 0.10313 0.50970 0.01246
 H208 H 0.02669 0.44868 0.09368
 H209 H 0.17773 0.49318 0.10280
 H210 H 0.19535 0.47670 0.16064
 H211 H 0.09172 0.42110 0.19690
 C212 C 0.55698 0.62247 0.10080
 C213 C 0.55102 0.64537 0.08315
 C214 C 0.53727 0.64016 0.04721
 C215 C 0.52883 0.60989 0.02894
 C216 C 0.53389 0.58539 0.04690
 C217 C 0.54876 0.59219 0.08318
 O218 O 0.56809 0.63125 0.13588
 C219 C 0.56886 0.66015 0.14058
 C220 C 0.55862 0.66988 0.10920
 C221 C 0.55463 0.69773 0.10906
 C222 C 0.56076 0.71590 0.14284
 C223 C 0.57105 0.70629 0.17599
 C224 C 0.57597 0.67835 0.17418
 H225 H 0.53236 0.65834 0.03410
 H226 H 0.51738 0.60518 0.00130
 H227 H 0.55250 0.57392 0.09799
 H228 H 0.54567 0.70439 0.08428
 H229 H 0.55576 0.73640 0.14343
 H230 H 0.58380 0.67005 0.19855
 C231 C 0.37455 0.92383 0.10174
 C232 C 0.35641 0.89172 0.08787
 C233 C 0.36345 0.88198 0.05353
 C234 C 0.39075 0.90613 0.03305
 C235 C 0.41062 0.93915 0.04740
 C236 C 0.40190 0.94815 0.08201
 O237 O 0.36450 0.92766 0.13548
 C238 C 0.33967 0.89726 0.14322
 C239 C 0.33382 0.87431 0.11514
 C240 C 0.31038 0.84060 0.11852
 C241 C 0.29218 0.83013 0.15218
 C242 C 0.29726 0.85341 0.18151
 C243 C 0.32141 0.88757 0.17654
 H244 H 0.34895 0.85651 0.04328
 H245 H 0.39718 0.89867 0.00680
 H246 H 0.41669 0.97297 0.09399
 H247 H 0.30679 0.82283 0.09640
 H248 H 0.27475 0.80375 0.15553
 H249 H 0.32607 0.90618 0.19802
 C250 C 0.92415 0.54806 0.59900
 C251 C 0.89251 0.53534 0.58439
 C252 C 0.88309 0.51913 0.54965
 C253 C 0.90702 0.51519 0.52951
 C254 C 0.93952 0.52694 0.54457
 C255 C 0.94827 0.54417 0.57962
 O256 O 0.92760 0.56153 0.63306
 C257 C 0.89741 0.55691 0.64022
 C258 C 0.87498 0.54081 0.61147
 C259 C 0.84145 0.53136 0.61418
 C260 C 0.83057 0.53885 0.64787
 C261 C 0.85329 0.55611 0.67794
 C262 C 0.88735 0.56538 0.67357
 H263 H 0.85798 0.50915 0.53883
 H264 H 0.89970 0.50170 0.50295
 H265 H 0.97264 0.55309 0.59216
 H266 H 0.82407 0.51788 0.59155
 H267 H 0.80423 0.53029 0.65064
 H268 H 0.90560 0.57859 0.69554
 C269 C 0.45450 0.37944 0.60553
 C270 C 0.46999 0.36251 0.59262
 C271 C 0.48849 0.37101 0.55957
 C272 C 0.49153 0.39836 0.53930
 C273 C 0.47660 0.41689 0.55258
 C274 C 0.45752 0.40695 0.58607
 O275 O 0.43860 0.36770 0.63786
 C276 C 0.44441 0.34302 0.64566
 C277 C 0.46365 0.33893 0.61902
 C278 C 0.47410 0.31564 0.62265
 C279 C 0.46429 0.29574 0.65505
 C280 C 0.44388 0.29897 0.68285
 C281 C 0.43376 0.32304 0.67763
 H282 H 0.50054 0.35738 0.55000
 H283 H 0.50643 0.40572 0.51391
 H284 H 0.44596 0.42061 0.59710
 H285 H 0.48984 0.31336 0.60168
 H286 H 0.47336 0.27844 0.65867
 H287 H 0.41809 0.32628 0.69787
 C288 C 0.62430 0.06916 0.60319
 C289 C 0.64645 0.09911 0.58697
 C290 C 0.64106 0.10853 0.55172
 C291 C 0.61147 0.08633 0.53258
 C292 C 0.58781 0.05554 0.54904
 C293 C 0.59472 0.04677 0.58473
 O294 O 0.63318 0.06578 0.63772
 C295 C 0.66142 0.09432 0.64356
 C296 C 0.67062 0.11559 0.61342
 C297 C 0.69795 0.14776 0.61458
 C298 C 0.71616 0.15869 0.64840
 C299 C 0.70709 0.13738 0.68026
 C300 C 0.67960 0.10436 0.67716
 H301 H 0.65866 0.13241 0.53971
 H302 H 0.60663 0.09360 0.50542
 H303 H 0.57712 0.02371 0.59836
 H304 H 0.70426 0.16435 0.59079
 H305 H 0.73632 0.18432 0.65009
 H306 H 0.67175 0.08724 0.70058
 C307 C 0.45022 0.07269 0.89662
 C308 C 0.46130 0.10380 0.91225
 C309 C 0.47575 0.11262 0.94788
 C310 C 0.47963 0.08866 0.96787
 C311 C 0.46989 0.05677 0.95163
 C312 C 0.45431 0.04868 0.91562
 O313 O 0.43776 0.06952 0.86218
 C314 C 0.44140 0.09940 0.85576
 C315 C 0.45594 0.12140 0.88533
 C316 C 0.46410 0.15465 0.88348
 C317 C 0.45695 0.16566 0.84981
 C318 C 0.44116 0.14327 0.81895
 C319 C 0.43315 0.10949 0.82251
 H320 H 0.48428 0.13728 0.95964
 H321 H 0.49156 0.09561 0.99529
 H322 H 0.44648 0.02478 0.90211
 H323 H 0.47637 0.17177 0.90675
 H324 H 0.46458 0.19184 0.84777
 H325 H 0.42095 0.09139 0.80006
 C326 C 0.61513 0.53775 0.89412
 C327 C 0.63421 0.52513 0.90819
 C328 C 0.62789 0.50927 0.94281
 C329 C 0.60046 0.50579 0.96350
 C330 C 0.57937 0.51733 0.94892
 C331 C 0.58734 0.53395 0.91374
 O332 O 0.62536 0.55197 0.86073
 C333 C 0.65124 0.54792 0.85338
 C334 C 0.65753 0.53137 0.88130
 C335 C 0.68235 0.52293 0.87832
 C336 C 0.70152 0.53199 0.84526
 C337 C 0.69624 0.54998 0.81621
 C338 C 0.67060 0.55807 0.82085
 H339 H 0.64335 0.49965 0.95340
 H340 H 0.59509 0.49303 0.99025
 H341 H 0.57215 0.54328 0.90158
 H342 H 0.68634 0.50917 0.90030
 H343 H 0.71992 0.52425 0.84228
 H344 H 0.66572 0.57197 0.79987
 C345 C 0.93264 0.37704 0.89819
 C346 C 0.90387 0.35413 0.91593
 C347 C 0.89554 0.35927 0.95200
 C348 C 0.91746 0.38947 0.97034
 C349 C 0.94696 0.41420 0.95228
 C350 C 0.95478 0.40731 0.91579
 O351 O 0.93492 0.36822 0.86311
 C352 C 0.90684 0.33926 0.85850
 C353 C 0.88694 0.32955 0.88994
 C354 C 0.85521 0.30153 0.89021
 C355 C 0.84320 0.28318 0.85650
 C356 C 0.86306 0.29276 0.82331
 C357 C 0.89581 0.32088 0.82500
 H358 H 0.87257 0.34101 0.96525
 H359 H 0.91074 0.39388 0.99816
 H360 H 0.97673 0.42544 0.90077
 H361 H 0.83964 0.29485 0.91503
 H362 H 0.81779 0.26255 0.85603
 H363 H 0.91194 0.32914 0.80063
 C364 C 0.55481 0.92916 0.39591
 C365 C 0.54710 0.89924 0.41215
 C366 C 0.53226 0.88977 0.44738
 C367 C 0.52471 0.91188 0.46646
 C368 C 0.53173 0.94262 0.44996
 C369 C 0.54747 0.95146 0.41432
 O370 O 0.56705 0.93255 0.36137
 C371 C 0.56681 0.90404 0.35555
 C372 C 0.55481 0.88278 0.38571
 C373 C 0.54996 0.85061 0.38455
 C374 C 0.55716 0.83966 0.35070
 C375 C 0.56934 0.86096 0.31882
 C376 C 0.57489 0.89398 0.32192
 H377 H 0.52603 0.86590 0.45939
 H378 H 0.51256 0.90457 0.49360
 H379 H 0.55284 0.97448 0.40066
 H380 H 0.53971 0.83403 0.40834
 H381 H 0.55165 0.81402 0.34899
 H382 H 0.58409 0.91108 0.29848
 C383 C 0.37345 0.44790 0.40122
 C384 C 0.35440 0.46044 0.41593
 C385 C 0.36111 0.47657 0.45071
 C386 C 0.38907 0.48067 0.47076
 C387 C 0.40997 0.46916 0.45555
 C388 C 0.40152 0.45191 0.42053
 O389 O 0.36362 0.43465 0.36706
 C390 C 0.33804 0.43923 0.35992
 C391 C 0.33151 0.45509 0.38879
 C392 C 0.30747 0.46459 0.38607
 C393 C 0.28937 0.45743 0.35223
 C394 C 0.29508 0.44046 0.32204
 C395 C 0.31979 0.43110 0.32642
 H396 H 0.34590 0.48645 0.46158
 H397 H 0.39523 0.49418 0.49732
 H398 H 0.41710 0.44320 0.40786
 H399 H 0.30343 0.47790 0.40879
 H400 H 0.27162 0.46603 0.34944
 H401 H 0.32501 0.41812 0.30432
 C402 C 0.07412 0.61837 0.39484
 C403 C 0.10645 0.63541 0.40801
 C404 C 0.11634 0.62691 0.44113
 C405 C 0.09203 0.59941 0.46118
 C406 C 0.05868 0.58076 0.44761
 C407 C 0.04963 0.59074 0.41409
 O408 O 0.07009 0.63005 0.36242
 C409 C 0.10057 0.65480 0.35481
 C410 C 0.12378 0.65900 0.38167
 C411 C 0.15751 0.68231 0.37821
 C412 C 0.16774 0.70211 0.34574
 C413 C 0.14422 0.69873 0.31771
 C414 C 0.11004 0.67468 0.32277
 H415 H 0.14196 0.64061 0.45087
 H416 H 0.09949 0.59202 0.48659
 H417 H 0.02450 0.57697 0.40283
 H418 H 0.17544 0.68466 0.39934
 H419 H 0.19412 0.71942 0.34223
 H420 H 0.09122 0.67133 0.30233
 C421 C 0.92662 0.55142 0.89514
 C422 C 0.89623 0.54239 0.91113
 C423 C 0.88661 0.52675 0.94589
 C424 C 0.90916 0.51991 0.96479
 C425 C 0.94047 0.52841 0.94856
 C426 C 0.94934 0.54477 0.91334
 O427 O 0.93026 0.56449 0.86112
 C428 C 0.90144 0.56348 0.85537
 C429 C 0.87973 0.55015 0.88507
 C430 C 0.84734 0.54461 0.88389
 C431 C 0.83669 0.55254 0.85050
 C432 C 0.85847 0.56608 0.81912
 C433 C 0.89164 0.57222 0.82221
 H434 H 0.86240 0.51954 0.95773
 H435 H 0.90185 0.50728 0.99162
 H436 H 0.97285 0.55135 0.89995
 H437 H 0.83045 0.53341 0.90732
 H438 H 0.81095 0.54664 0.84869
 H439 H 0.90908 0.58248 0.79912
 C440 C 0.43594 0.36967 0.89954
 C441 C 0.44215 0.34663 0.91641
 C442 C 0.45638 0.35155 0.95208
 C443 C 0.46506 0.38167 0.97086
 C444 C 0.45977 0.40629 0.95362
 C445 C 0.44437 0.39976 0.91766
 O446 O 0.42460 0.36136 0.86450
 C447 C 0.42393 0.33261 0.85898
 C448 C 0.43445 0.32251 0.88983
 C449 C 0.43878 0.29487 0.88898
 C450 C 0.43277 0.27739 0.85472
 C451 C 0.42228 0.28748 0.82210
 C452 C 0.41693 0.31508 0.82493
 H453 H 0.46152 0.33329 0.96454
 H454 H 0.47694 0.38623 0.99824
 H455 H 0.44045 0.41814 0.90339
 H456 H 0.44799 0.28794 0.91332
 H457 H 0.43811 0.25714 0.85334
 H458 H 0.40901 0.32374 0.80095
 C459 C 0.62106 0.07401 0.89870
 C460 C 0.63907 0.10603 0.91285
 C461 C 0.63134 0.11572 0.94680
 C462 C 0.60354 0.09159 0.96661
 C463 C 0.58382 0.05864 0.95196
 C464 C 0.59315 0.04970 0.91773
 O465 O 0.63190 0.07024 0.86542
 C466 C 0.65707 0.10061 0.85827
 C467 C 0.66237 0.12347 0.88626
 C468 C 0.68602 0.15715 0.88333
 C469 C 0.70500 0.16772 0.85021
 C470 C 0.70048 0.14454 0.82097
 C471 C 0.67615 0.11037 0.82553
 H472 H 0.64576 0.14112 0.95727
 H473 H 0.59665 0.09899 0.99258
 H474 H 0.57851 0.02493 0.90558
 H475 H 0.68917 0.17484 0.90535
 H476 H 0.72250 0.19411 0.84715
 H477 H 0.67190 0.09182 0.80415
 C478 C 0.06328 0.43814 0.39776
 C479 C 0.09211 0.44400 0.41560
 C480 C 0.10055 0.45742 0.45179
 C481 C 0.07869 0.46565 0.47011
 C482 C 0.04918 0.46090 0.45189
 C483 C 0.04123 0.44619 0.41533
 O484 O 0.06094 0.42733 0.36253
 C485 C 0.08905 0.42666 0.35788
 C486 C 0.10904 0.43667 0.38945
 C487 C 0.14090 0.44076 0.38964
 C488 C 0.15293 0.43503 0.35572
 C489 C 0.13300 0.42505 0.32239
 C490 C 0.10012 0.41993 0.32416
 H491 H 0.12360 0.46220 0.46509
 H492 H 0.08548 0.47679 0.49799
 H493 H 0.01928 0.44239 0.40016
 H494 H 0.15654 0.44953 0.41456
 H495 H 0.17844 0.44014 0.35518
 H496 H 0.08398 0.41233 0.29965
 C497 C 0.54210 0.62109 0.39637
 C498 C 0.52662 0.63826 0.40851
 C499 C 0.50843 0.63061 0.44176
 C500 C 0.50560 0.60380 0.46300
 C501 C 0.52047 0.58502 0.45044
 C502 C 0.53936 0.59421 0.41682
 O503 O 0.55753 0.63178 0.36363
 C504 C 0.55145 0.65606 0.35473
 C505 C 0.53250 0.66093 0.38110
 C506 C 0.52182 0.68393 0.37634
 C507 C 0.53114 0.70273 0.34311
 C508 C 0.55124 0.69865 0.31560
 C509 C 0.56153 0.67488 0.32189
 H510 H 0.49635 0.64439 0.45069
 H511 H 0.49082 0.59695 0.48848
 H512 H 0.55085 0.58031 0.40630
 H513 H 0.50631 0.68683 0.39712
 H514 H 0.52201 0.71989 0.33864
 H515 H 0.57694 0.67103 0.30184
 C516 C 0.37732 0.92914 0.39757
 C517 C 0.35489 0.89971 0.41451
 C518 C 0.36032 0.89074 0.44997
 C519 C 0.39026 0.91282 0.46857
 C520 C 0.41442 0.94309 0.45134
 C521 C 0.40734 0.95137 0.41537
 O522 O 0.36815 0.93221 0.36307
 C523 C 0.33945 0.90397 0.35801
 C524 C 0.33025 0.88318 0.38857
 C525 C 0.30244 0.85129 0.38819
 C526 C 0.28374 0.84013 0.35469
 C527 C 0.29277 0.86096 0.32241
 C528 C 0.32074 0.89376 0.32479
 H529 H 0.34242 0.86729 0.46262
 H530 H 0.39485 0.90575 0.49599
 H531 H 0.42500 0.97398 0.40101
 H532 H 0.29612 0.83505 0.41230
 H533 H 0.26321 0.81466 0.35359
 H534 H 0.32856 0.91060 0.30112
 C535 C 0.54591 0.92386 0.10028
 C536 C 0.53201 0.89184 0.08616
 C537 C 0.51468 0.88210 0.05217
 C538 C 0.51098 0.90617 0.03226
 C539 C 0.52409 0.93913 0.04684
 C540 C 0.54226 0.94811 0.08115
 O541 O 0.56050 0.92769 0.13358
 C542 C 0.55544 0.89737 0.14079
 C543 C 0.53797 0.87447 0.11281
 C544 C 0.52813 0.84083 0.11575
 C545 C 0.53665 0.83035 0.14888
 C546 C 0.55522 0.85356 0.17812
 C547 C 0.56486 0.88769 0.17353
 H548 H 0.50380 0.85670 0.04172
 H549 H 0.49675 0.89872 0.00625
 H550 H 0.55231 0.97289 0.09325
 H551 H 0.51366 0.82310 0.09374
 H552 H 0.52790 0.80398 0.15192
 H553 H 0.57910 0.90630 0.19488
 C554 C 0.37505 0.44775 0.10495
 C555 C 0.35376 0.45691 0.08904
 C556 C 0.35980 0.47254 0.05427
 C557 C 0.38908 0.47919 0.03525
 C558 C 0.41180 0.47050 0.05135
 C559 C 0.40434 0.45423 0.08664
 O560 O 0.36551 0.43452 0.13890
 C561 C 0.33770 0.43557 0.14467
 C562 C 0.32944 0.44907 0.11506
 C563 C 0.30250 0.45448 0.11620
 C564 C 0.28367 0.44620 0.14944
 C565 C 0.29177 0.43244 0.18074
 C566 C 0.31894 0.42649 0.17769
 H567 H 0.34284 0.47983 0.04246
 H568 H 0.39436 0.49175 0.00838
 H569 H 0.42117 0.44747 0.09992
 H570 H 0.29687 0.46578 0.09282
 H571 H 0.26374 0.45195 0.15121
 H572 H 0.32600 0.41605 0.20070
 C573 C 0.06626 0.62737 0.10048
 C574 C 0.09569 0.65020 0.08377
 C575 C 0.10494 0.64526 0.04807
 C576 C 0.08322 0.61536 0.02906
 C577 C 0.05308 0.59096 0.04609
 C578 C 0.04433 0.59750 0.08213
 O579 O 0.06320 0.63570 0.13551
 C580 C 0.09144 0.66426 0.14120
 C581 C 0.11220 0.67422 0.11045
 C582 C 0.14423 0.70175 0.11142
 C583 C 0.15559 0.71931 0.14567
 C584 C 0.13485 0.70938 0.17817
 C585 C 0.10188 0.68183 0.17524
 H586 H 0.12847 0.66336 0.03571
 H587 H 0.09048 0.61079 0.00163
 H588 H 0.02184 0.57929 0.09625
 H589 H 0.16045 0.70860 0.08716
 H590 H 0.18119 0.73952 0.14714
 H591 H 0.08519 0.67332 0.19912
 C592 C 0.44608 0.06918 0.60166
 C593 C 0.45405 0.09913 0.58531
 C594 C 0.46919 0.10854 0.55023
 C595 C 0.47677 0.08634 0.53143
 C596 C 0.46948 0.05556 0.54806
 C597 C 0.45346 0.04678 0.58354
 O598 O 0.43348 0.06580 0.63599
 C599 C 0.43373 0.09435 0.64156
 C600 C 0.44612 0.11563 0.61145
 C601 C 0.45095 0.14781 0.61240
 C602 C 0.44329 0.15873 0.64598
 C603 C 0.43072 0.13739 0.67778
 C604 C 0.42523 0.10439 0.67490
 H605 H 0.47559 0.13243 0.53812
 H606 H 0.48914 0.09361 0.50441
 H607 H 0.44787 0.02372 0.59727
 H608 H 0.46146 0.16438 0.58865
 H609 H 0.44868 0.18434 0.64758
 H610 H 0.41569 0.08727 0.69830
 C611 C 0.62482 0.55985 0.60100
 C612 C 0.64744 0.55333 0.58338
 C613 C 0.64225 0.53957 0.54732
 C614 C 0.61227 0.53168 0.52897
 C615 C 0.58807 0.53730 0.54700
 C616 C 0.59491 0.55225 0.58331
 O617 O 0.63328 0.57065 0.63623
 C618 C 0.66171 0.57065 0.64109
 C619 C 0.67147 0.56025 0.60965
 C620 C 0.69881 0.55545 0.60969
 C621 C 0.71636 0.56091 0.64371
 C622 C 0.70657 0.57127 0.67687
 C623 C 0.67924 0.57702 0.67492
 H624 H 0.66017 0.53416 0.53423
 H625 H 0.60747 0.52011 0.50131
 H626 H 0.57685 0.55638 0.59819
 H627 H 0.70551 0.54638 0.58488
 H628 H 0.73647 0.55538 0.64447
 H629 H 0.67086 0.58486 0.69939
 C630 C 0.92020 0.37575 0.60203
 C631 C 0.88758 0.35862 0.58983
 C632 C 0.87715 0.36614 0.55641
 C633 C 0.90122 0.39282 0.53510
 C634 C 0.93482 0.41159 0.54779
 C635 C 0.94442 0.40246 0.58151
 O636 O 0.92480 0.36532 0.63501
 C637 C 0.89438 0.34125 0.64399
 C638 C 0.87066 0.33626 0.61743
 C639 C 0.83693 0.31353 0.62226
 C640 C 0.82730 0.29511 0.65575
 C641 C 0.85140 0.29932 0.68343
 C642 C 0.88549 0.32282 0.67709
 H643 H 0.85131 0.35241 0.54745
 H644 H 0.89337 0.39964 0.50955
 H645 H 0.96975 0.41639 0.59214
 H646 H 0.81860 0.31054 0.60134
 H647 H 0.80098 0.27812 0.66027
 H648 H 0.90467 0.32676 0.69731
   
