data_POSCAR
  _audit_creation_date              2014-09-24
  _audit_creation_method            'ToBaCCo'
  _symmetry_space_group_name_H-M    'P1'
  _symmetry_Int_Tables_number       1
  _symmetry_cell_setting            triclinic
  loop_
  _symmetry_equiv_pos_as_xyz
 x,y,z
_cell_length_a 25.9140
_cell_length_b 25.9478
_cell_length_c 25.7039
_cell_angle_alpha 90.117100
_cell_angle_beta 90.196900
_cell_angle_gamma 89.882800
loop_
  _atom_site_label
  _atom_site_type_symbol
  _atom_site_fract_x
  _atom_site_fract_y
  _atom_site_fract_z
C1 C 0.49884 1.00001 -0.47527
 C2 C 0.49880 0.99981 -0.52800
 C3 C 0.45042 0.99963 -0.55881
 C4 C 0.54717 0.99982 -0.55851
 C5 C 0.54723 1.00009 -0.44447
 C6 C 0.45051 1.00008 -0.44471
 C7 C 0.44236 0.96020 -0.59534
 C8 C 0.39981 0.96172 -0.62862
 C9 C 0.36491 1.00292 -0.62598
 C10 C 0.37215 1.04202 -0.58889
 C11 C 0.41484 1.04040 -0.55543
 C12 C 0.58285 0.95915 -0.55473
 C13 C 0.62564 0.95751 -0.58775
 C14 C 0.63286 0.99643 -0.62472
 C15 C 0.59790 1.03743 -0.62787
 C16 C 0.55522 1.03906 -0.59506
 C17 C 0.58258 1.04092 -0.44792
 C18 C 0.62532 1.04270 -0.41454
 C19 C 0.63280 1.00378 -0.37755
 C20 C 0.59820 0.96260 -0.37476
 C21 C 0.55558 0.96084 -0.40792
 C22 C 0.44226 1.03950 -0.40821
 C23 C 0.39988 1.03775 -0.37505
 C24 C 0.36541 0.99643 -0.37778
 C25 C 0.37275 0.95738 -0.41477
 C26 C 0.41525 0.95915 -0.44817
 H27 H 0.46964 0.92868 -0.59867
 H28 H 0.39491 0.93127 -0.65718
 H29 H 0.34565 1.07433 -0.58657
 H30 H 0.42101 1.07160 -0.52807
 H31 H 0.57671 0.92808 -0.52739
 H32 H 0.65234 0.92543 -0.58530
 H33 H 0.52788 1.07049 -0.59873
 H34 H 0.57621 1.07200 -0.47527
 H35 H 0.65174 1.07491 -0.41671
 H36 H 0.60354 0.93244 -0.34613
 H37 H 0.52849 0.92929 -0.40451
 H38 H 0.46929 1.07113 -0.40479
 H39 H 0.39466 1.06801 -0.34642
 H40 H 0.34643 0.92506 -0.41690
 H41 H 0.42156 0.92794 -0.47546
 H42 H 0.60303 1.06758 -0.65649
 C43 C -0.52677 1.50103 0.00028
 C44 C -0.47429 1.50102 0.00011
 C45 C -0.44371 1.54941 -0.00055
 C46 C -0.44355 1.45261 0.00062
 C47 C -0.55732 1.45262 -0.00014
 C48 C -0.55752 1.54945 0.00086
 C49 C -0.40728 1.55670 -0.04017
 C50 C -0.37375 1.59870 -0.03871
 C51 C -0.37592 1.63391 0.00252
 C52 C -0.41286 1.62757 0.04173
 C53 C -0.44663 1.58544 0.04026
 C54 C -0.44690 1.41654 -0.04013
 C55 C -0.41312 1.37429 -0.04169
 C56 C -0.37573 1.36787 -0.00264
 C57 C -0.37310 1.40315 0.03851
 C58 C -0.40664 1.44528 0.04006
 C59 C -0.55374 1.41673 0.04061
 C60 C -0.58728 1.37443 0.04221
 C61 C -0.62466 1.36779 0.00318
 C62 C -0.62754 1.40291 -0.03796
 C63 C -0.59424 1.44508 -0.03954
 C64 C -0.59398 1.55698 0.04044
 C65 C -0.62759 1.59906 0.03899
 C66 C -0.62548 1.63413 -0.00227
 C67 C -0.58848 1.62750 -0.04149
 C68 C -0.55465 1.58528 -0.03997
 H69 H -0.40413 1.52914 -0.07172
 H70 H -0.34528 1.60304 -0.06916
 H71 H -0.41470 1.65440 0.07401
 H72 H -0.47377 1.57997 0.07170
 H73 H -0.47441 1.42204 -0.07144
 H74 H -0.41533 1.34740 -0.07391
 H75 H -0.40316 1.47287 0.07156
 H76 H -0.52622 1.42239 0.07189
 H77 H -0.58488 1.34767 0.07442
 H78 H -0.65636 1.39834 -0.06826
 H79 H -0.59790 1.47253 -0.07104
 H80 H -0.59707 1.52957 0.07201
 H81 H -0.65603 1.60349 0.06952
 H82 H -0.58653 1.65415 -0.07383
 H83 H -0.52747 1.57961 -0.07139
 H84 H -0.34428 1.39876 0.06884
 C85 C 0.00048 0.49906 0.52757
 C86 C 0.00042 0.49902 0.47474
 C87 C 0.00012 0.45065 0.44387
 C88 C 0.00068 0.54737 0.44403
 C89 C 0.00027 0.54746 0.55840
 C90 C 0.00073 0.45071 0.55829
 C91 C 0.04075 0.41486 0.44734
 C92 C 0.04236 0.37240 0.41364
 C93 C 0.00342 0.36554 0.37622
 C94 C -0.03762 0.40060 0.37348
 C95 C -0.03917 0.44292 0.40697
 C96 C 0.03992 0.55508 0.40736
 C97 C 0.03837 0.59747 0.37412
 C98 C -0.00257 0.63257 0.37689
 C99 C -0.04146 0.62573 0.41400
 C100 C -0.03991 0.58321 0.44746
 C101 C -0.03896 0.55541 0.59508
 C102 C -0.03745 0.59791 0.62836
 C103 C 0.00348 0.63291 0.62563
 C104 C 0.04239 0.62577 0.58847
 C105 C 0.04083 0.58313 0.55499
 C106 C -0.03989 0.41508 0.55463
 C107 C -0.04150 0.37260 0.58813
 C108 C -0.00259 0.36558 0.62554
 C109 C 0.03843 0.40050 0.62849
 C110 C 0.03998 0.44284 0.59520
 H111 H 0.07189 0.42071 0.47491
 H112 H 0.07452 0.34573 0.41600
 H113 H -0.06791 0.39593 0.34466
 H114 H -0.07058 0.47033 0.40349
 H115 H 0.07128 0.52763 0.40389
 H116 H 0.06853 0.60225 0.34545
 H117 H -0.07102 0.57739 0.47484
 H118 H -0.07032 0.52810 0.59852
 H119 H -0.06772 0.60279 0.65699
 H120 H 0.07448 0.65238 0.58613
 H121 H 0.07193 0.57711 0.52759
 H122 H -0.07100 0.42105 0.52705
 H123 H -0.07364 0.34604 0.58561
 H124 H 0.06869 0.39571 0.65732
 H125 H 0.07138 0.47013 0.59883
 H126 H -0.07351 0.65251 0.41623
 O127 O -0.13233 1.00230 -0.07067
 O128 O 0.13310 0.99766 -0.07025
 O129 O -0.00170 1.06938 -0.13364
 O130 O 0.00225 0.93044 -0.13378
 O131 O 0.00243 0.86717 -0.07070
 O132 O -0.00166 1.13277 -0.07042
 O133 O 0.06968 0.99776 -0.13356
 O134 O -0.06916 1.00208 -0.13379
 Zr135 Zr 0.00034 0.99995 -0.09113
 O136 O 0.04721 0.95309 -0.04689
 O137 O -0.04637 1.04690 -0.04694
 C138 C -0.11669 1.00334 -0.11852
 C139 C 0.11727 0.99655 -0.11815
 C140 C -0.00277 1.11697 -0.11833
 C141 C 0.00340 0.88288 -0.11857
 H142 H 0.06903 1.06849 -0.06891
 O143 O 0.04706 1.04663 -0.04667
 H144 H -0.06828 0.93145 -0.06930
 O145 O -0.04622 0.95335 -0.04694
 O146 O 0.13334 1.00199 0.07089
 O147 O -0.13208 0.99819 0.07043
 O148 O 0.07066 1.13277 0.00229
 O149 O 0.07079 0.86709 -0.00184
 O150 O -0.06967 0.86732 0.00178
 O151 O -0.06979 1.13298 -0.00177
 O152 O 0.00265 1.06961 0.13402
 O153 O -0.00119 0.93070 0.13385
 O154 O 0.00255 1.13290 0.07096
 O155 O -0.00132 0.86731 0.07064
 O156 O 0.13349 1.06944 0.00225
 O157 O -0.13254 1.06984 -0.00189
 O158 O -0.13247 0.93067 0.00167
 O159 O 0.13355 0.93023 -0.00161
 O160 O 0.07017 1.00208 0.13401
 O161 O -0.06870 0.99821 0.13377
 Zr162 Zr 0.09138 0.99990 0.00026
 Zr163 Zr -0.09036 1.00018 -0.00005
 Zr164 Zr 0.00046 1.09113 0.00022
 Zr165 Zr 0.00055 0.90895 0.00001
 Zr166 Zr 0.00067 1.00012 0.09135
 O167 O -0.04616 0.95333 0.04700
 O168 O 0.04734 1.04684 0.04727
 C169 C 0.11771 1.00314 0.11875
 C170 C -0.11628 0.99710 0.11833
 C171 C 0.11825 1.11705 0.00334
 C172 C 0.11837 0.88267 -0.00274
 C173 C -0.11725 0.88306 0.00272
 C174 C -0.11736 1.11740 -0.00287
 C175 C 0.00368 1.11717 0.11883
 C176 C -0.00230 0.88312 0.11854
 H177 H -0.06810 1.06883 0.06929
 O178 O -0.04609 1.04687 0.04700
 H179 H 0.06934 0.93136 0.06936
 O180 O 0.04727 0.95329 0.04705
 C181 C 0.32741 1.00573 0.34010
 C182 C 0.29404 1.00732 0.30743
 C183 C 0.25628 1.00796 0.26789
 C184 C 0.22467 1.00766 0.23349
 C185 C 0.18794 1.00652 0.19300
 C186 C 0.15626 1.00510 0.15869
 C187 C -0.32571 0.99343 0.33843
 C188 C -0.29238 0.99209 0.30597
 C189 C -0.25464 0.99171 0.26667
 C190 C -0.22304 0.99222 0.23249
 C191 C -0.18634 0.99354 0.19223
 C192 C -0.15471 0.99507 0.15810
 C193 C -0.32590 1.00693 -0.34029
 C194 C -0.29268 1.00837 -0.30749
 C195 C -0.25507 1.00882 -0.26781
 C196 C -0.22355 1.00835 -0.23334
 C197 C -0.18688 1.00701 -0.19278
 C198 C -0.15523 1.00544 -0.15845
 C199 C 0.32451 0.99321 -0.34038
 C200 C 0.29167 0.99171 -0.30743
 C201 C 0.25449 0.99119 -0.26760
 C202 C 0.22333 0.99161 -0.23300
 C203 C 0.18704 0.99289 -0.19235
 C204 C 0.15563 0.99444 -0.15801
 C205 C 0.33804 1.32673 0.00610
 C206 C 0.30539 1.29364 0.00741
 C207 C 0.26603 1.25596 0.00785
 C208 C 0.23196 1.22432 0.00750
 C209 C 0.19186 1.18742 0.00644
 C210 C 0.15792 1.15565 0.00515
 C211 C 0.33892 0.67288 -0.00502
 C212 C 0.30612 0.70597 -0.00640
 C213 C 0.26658 0.74363 -0.00692
 C214 C 0.23236 0.77526 -0.00665
 C215 C 0.19212 0.81217 -0.00567
 C216 C 0.15808 0.84397 -0.00445
 C217 C -0.33827 0.67468 0.00537
 C218 C -0.30533 0.70750 0.00664
 C219 C -0.26565 0.74486 0.00704
 C220 C -0.23134 0.77624 0.00669
 C221 C -0.19103 0.81289 0.00565
 C222 C -0.15696 0.84452 0.00442
 C223 C -0.33816 1.32690 -0.00555
 C224 C -0.30529 1.29389 -0.00685
 C225 C -0.26569 1.25631 -0.00728
 C226 C -0.23142 1.22473 -0.00694
 C227 C -0.19115 1.18787 -0.00589
 C228 C -0.15709 1.15609 -0.00463
 C229 C 0.00627 1.32660 0.34070
 C230 C 0.00774 1.29339 0.30787
 C231 C 0.00829 1.25570 0.26820
 C232 C 0.00798 1.22411 0.23377
 C233 C 0.00690 1.18734 0.19324
 C234 C 0.00556 1.15567 0.15890
 C235 C -0.00542 1.32659 -0.33917
 C236 C -0.00688 1.29332 -0.30654
 C237 C -0.00743 1.25556 -0.26710
 C238 C -0.00712 1.22391 -0.23285
 C239 C -0.00602 1.18710 -0.19250
 C240 C -0.00467 1.15542 -0.15829
 C241 C 0.00622 0.67211 -0.33915
 C242 C 0.00761 0.70560 -0.30660
 C243 C 0.00808 0.74363 -0.26725
 C244 C 0.00772 0.77549 -0.23307
 C245 C 0.00659 0.81251 -0.19278
 C246 C 0.00525 0.84433 -0.15858
 C247 C -0.00546 0.67379 0.33961
 C248 C -0.00675 0.70698 0.30689
 C249 C -0.00713 0.74466 0.26737
 C250 C -0.00670 0.77626 0.23308
 C251 C -0.00553 0.81303 0.19271
 C252 C -0.00416 0.84468 0.15849
   
