data_POSCAR
  _audit_creation_date              2014-09-24
  _audit_creation_method            'ToBaCCo'
  _symmetry_space_group_name_H-M    'P1'
  _symmetry_Int_Tables_number       1
  _symmetry_cell_setting            triclinic
  loop_
  _symmetry_equiv_pos_as_xyz
 x,y,z
_cell_length_a 35.2196
_cell_length_b 35.4090
_cell_length_c 34.4731
_cell_angle_alpha 90.307900
_cell_angle_beta 89.966800
_cell_angle_gamma 89.514800
loop_
  _atom_site_label
  _atom_site_type_symbol
  _atom_site_fract_x
  _atom_site_fract_y
  _atom_site_fract_z
C1 C 0.19248 0.18423 0.21986
 C2 C 0.22985 0.17679 0.20668
 C3 C 0.24596 0.19657 0.17536
 C4 C 0.22394 0.22504 0.15779
 C5 C 0.18690 0.23328 0.17023
 C6 C 0.17113 0.21250 0.20075
 H7 H 0.24514 0.15293 0.21848
 H8 H 0.23567 0.24172 0.13460
 H9 H 0.14297 0.22011 0.21080
 C10 C -0.20817 0.78930 0.27027
 C11 C -0.24322 0.80119 0.25393
 C12 C -0.26103 0.78008 0.22468
 C13 C -0.24481 0.74582 0.21289
 C14 C -0.20914 0.73430 0.22638
 C15 C -0.19140 0.75545 0.25571
 H16 H -0.25520 0.82855 0.26112
 H17 H -0.25909 0.72903 0.19103
 H18 H -0.16443 0.74532 0.26653
 C19 C -0.20618 0.19412 -0.25111
 C20 C -0.23708 0.17854 -0.23078
 C21 C -0.25378 0.19662 -0.19845
 C22 C -0.24158 0.23319 -0.18883
 C23 C -0.21093 0.24980 -0.20834
 C24 C -0.19349 0.23013 -0.23923
 H25 H -0.24978 0.15272 -0.24105
 H26 H -0.25407 0.24797 -0.16439
 H27 H -0.16828 0.24210 -0.25190
 C28 C 0.19693 0.81881 -0.21370
 C29 C 0.17649 0.78933 -0.19704
 C30 C 0.19018 0.77072 -0.16400
 C31 C 0.22518 0.78143 -0.14799
 C32 C 0.24670 0.81078 -0.16453
 C33 C 0.23207 0.82897 -0.19780
 H34 H 0.14921 0.78165 -0.20912
 H35 H 0.23547 0.76654 -0.12271
 H36 H 0.24669 0.85274 -0.21035
 C37 C 0.20216 1.20155 0.75988
 C38 C 0.23565 1.18527 0.77463
 C39 C 0.25031 1.19660 0.81082
 C40 C 0.23117 1.22529 0.83186
 C41 C 0.19726 1.24118 0.81782
 C42 C 0.18333 1.22955 0.78164
 H43 H 0.24904 1.16221 0.75888
 H44 H 0.24178 1.23435 0.85985
 H45 H 0.15739 1.24217 0.77061
 C46 C 0.80622 0.80238 0.73689
 C47 C 0.77458 0.81894 0.75560
 C48 C 0.75629 0.80065 0.78640
 C49 C 0.76945 0.76477 0.79805
 C50 C 0.80096 0.74705 0.77990
 C51 C 0.81812 0.76615 0.74869
 H52 H 0.76579 0.84741 0.74842
 H53 H 0.75574 0.75175 0.82252
 H54 H 0.83968 0.75194 0.73165
 C55 C 0.18928 0.79823 1.23311
 C56 C 0.17215 0.77081 1.20915
 C57 C 0.18537 0.76349 1.17148
 C58 C 0.21706 0.78270 1.15748
 C59 C 0.23450 0.81036 1.18042
 C60 C 0.22091 0.81763 1.21809
 H61 H 0.14861 0.75424 1.21952
 H62 H 0.22658 0.77785 1.12795
 H63 H 0.23395 0.84023 1.23441
 C64 C 0.83120 1.19781 1.24562
 C65 C 0.80338 1.17547 1.22758
 C66 C 0.77941 1.19029 1.19908
 C67 C 0.78308 1.22814 1.18824
 C68 C 0.81170 1.25128 1.20425
 C69 C 0.83468 1.23577 1.23400
 H70 H 0.79902 1.14660 1.23666
 H71 H 0.76350 1.23899 1.16684
 H72 H 0.85825 1.25166 1.24534
 O73 O 0.54777 0.98118 0.92439
 O74 O 0.47384 0.96392 1.08104
 O75 O 0.55858 0.93342 1.03574
 O76 O 0.43704 0.98150 0.97896
 O77 O 0.54479 0.96178 1.08856
 O78 O 0.48521 0.95737 0.94985
 O79 O 0.43367 0.99758 1.04738
 O80 O 0.55351 0.94322 0.96965
 C81 C 0.56128 0.95075 0.93559
 C82 C 0.44065 0.97018 1.06971
 C83 C 0.55762 0.93348 1.07152
 C84 C 0.45111 0.95552 0.95866
 O85 O 0.48306 1.01963 0.91257
 O86 O 0.54858 1.03369 1.08383
 O87 O 0.58524 1.01454 0.97707
 O88 O 0.46871 1.06442 1.03124
 O89 O 0.47674 1.03765 1.08572
 O90 O 0.53659 1.04574 0.95437
 O91 O 0.46921 1.05008 0.96476
 O92 O 0.59018 1.00297 1.04739
 Co93 Co 0.50953 1.00194 0.95450
 Co94 Co 0.51092 0.99914 1.07790
 Co95 Co 0.56741 0.97550 1.00763
 Co96 Co 0.45695 1.02124 1.00613
 O97 O 0.51270 0.99786 1.01393
 C98 C 0.46137 1.04456 0.92947
 C99 C 0.58224 1.02823 1.07262
 C100 C 0.57165 1.04360 0.96052
 C101 C 0.46635 1.06587 1.06691
 O102 O 0.03634 0.46533 0.04166
 O103 O 0.03400 0.53339 -0.06173
 O104 O -0.00404 0.42175 -0.04408
 O105 O -0.00309 0.57905 0.02096
 O106 O 0.03566 0.46531 -0.05604
 O107 O 0.03330 0.53736 0.05024
 O108 O -0.00828 0.57513 -0.05014
 O109 O -0.00291 0.42125 0.02577
 C110 C 0.02929 0.43109 0.03799
 C111 C 0.02534 0.56723 -0.05824
 C112 C 0.02903 0.43115 -0.05275
 C113 C 0.02621 0.57076 0.04047
 O114 O -0.03748 0.53201 0.07284
 O115 O -0.03480 0.46135 -0.08837
 O116 O -0.07429 0.45094 0.02701
 O117 O -0.07749 0.54659 -0.04495
 O118 O -0.03829 0.52988 -0.09047
 O119 O -0.03371 0.46207 0.07144
 O120 O -0.07407 0.55802 0.02880
 O121 O -0.07431 0.45458 -0.04243
 Co122 Co -0.00197 0.49876 0.05243
 Co123 Co -0.00255 0.49754 -0.06873
 Co124 Co -0.03728 0.44213 -0.00864
 Co125 Co -0.03895 0.55832 -0.01142
 O126 O -0.01973 0.49930 -0.00879
 C127 C -0.06663 0.55095 0.06350
 C128 C -0.06734 0.45223 -0.07748
 C129 C -0.06640 0.45197 0.06191
 C130 C -0.07032 0.54294 -0.08017
 O131 O 1.09004 0.03086 0.46442
 O132 O 0.92052 0.02447 0.52204
 O133 O 0.98805 0.01882 0.42309
 O134 O 1.03765 0.06126 0.54966
 O135 O 0.96649 0.05073 0.47265
 O136 O 1.09007 0.03230 0.53750
 O137 O 0.97082 0.05160 0.54417
 O138 O 1.05521 0.00275 0.42043
 C139 C 1.07963 0.02728 0.42985
 C140 C 0.93533 0.04690 0.54751
 C141 C 0.97397 0.04904 0.43709
 C142 C 1.07281 0.06051 0.55074
 O143 O 1.08341 -0.04078 0.53876
 O144 O 0.93340 -0.01124 0.45698
 O145 O 1.03867 -0.06636 0.45254
 O146 O 0.97971 -0.01972 0.57308
 O147 O 0.95341 -0.03901 0.52082
 O148 O 1.09180 -0.04173 0.46569
 O149 O 1.04823 -0.00854 0.58010
 O150 O 0.97501 -0.05287 0.45317
 Co151 Co 1.08211 -0.00470 0.50134
 Co152 Co 0.96224 0.00591 0.49792
 Co153 Co 1.01444 -0.02264 0.44186
 Co154 Co 1.00979 0.01903 0.55640
 O155 O 1.01959 -0.00201 0.49821
 C156 C 1.07214 -0.03466 0.57282
 C157 C 0.94248 -0.04277 0.44419
 C158 C 1.07354 -0.06860 0.45218
 C159 C 0.95859 -0.04276 0.55614
 C160 C 1.14635 0.12035 0.31192
 C161 C 1.18556 0.12638 0.31015
 C162 C 1.20065 0.14762 0.28005
 C163 C 1.17699 0.16333 0.25119
 C164 C 1.13759 0.15679 0.25455
 N165 N 1.12367 0.13546 0.28399
 C166 C 1.12941 0.09714 0.34296
 N167 N 1.09798 0.07626 0.33518
 C168 C 1.08168 0.05367 0.36224
 C169 C 1.09693 0.05144 0.39982
 C170 C 1.12886 0.07334 0.40859
 C171 C 1.14515 0.09609 0.38034
 H172 H 1.23092 0.15255 0.28043
 H173 H 1.11783 0.16696 0.23293
 H174 H 1.05678 0.03763 0.35441
 H175 H 1.14136 0.07282 0.43728
 H176 H 1.20464 0.11433 0.33144
 H177 H 1.16950 0.11303 0.38795
 C178 C 0.84877 -0.13935 0.35033
 C179 C 0.80908 -0.13780 0.34773
 C180 C 0.79028 -0.16175 0.32193
 C181 C 0.81061 -0.18771 0.29832
 C182 C 0.85045 -0.18895 0.30312
 N183 N 0.86797 -0.16511 0.32827
 C184 C 0.87081 -0.11407 0.37619
 N185 N 0.90696 -0.12438 0.38553
 C186 C 0.92983 -0.10239 0.40770
 C187 C 0.91681 -0.06728 0.42161
 C188 C 0.87967 -0.05590 0.41251
 C189 C 0.85656 -0.07916 0.38981
 H190 H 0.75960 -0.16042 0.32164
 H191 H 0.86834 -0.20716 0.28563
 H192 H 0.95837 -0.11218 0.41393
 H193 H 0.86872 -0.02886 0.42246
 H194 H 0.79244 -0.11883 0.36575
 H195 H 0.82842 -0.06925 0.38226
 C196 C 0.84900 0.13226 0.65903
 C197 C 0.82694 0.11329 0.68626
 C198 C 0.80908 0.13356 0.71585
 C199 C 0.81226 0.17330 0.71855
 C200 C 0.83510 0.19101 0.69026
 N201 N 0.85271 0.17034 0.66199
 C202 C 0.86963 0.11124 0.62842
 N203 N 0.90542 0.12185 0.61864
 C204 C 0.92667 0.10218 0.59236
 C205 C 0.91186 0.06999 0.57409
 C206 C 0.87467 0.05924 0.58286
 C207 C 0.85352 0.07967 0.61013
 H208 H 0.79438 0.11720 0.73744
 H209 H 0.83831 0.22129 0.68949
 H210 H 0.95521 0.11148 0.58607
 H211 H 0.86229 0.03456 0.56934
 H212 H 0.82458 0.08282 0.68558
 H213 H 0.82491 0.07086 0.61688
 C214 C 1.14351 -0.11719 0.69651
 C215 C 1.15965 -0.09845 0.72840
 C216 C 1.17787 -0.11933 0.75718
 C217 C 1.17986 -0.15882 0.75446
 C218 C 1.16382 -0.17649 0.72189
 N219 N 1.14650 -0.15550 0.69395
 C220 C 1.12378 -0.09610 0.66549
 N221 N 1.12619 -0.10872 0.62818
 C222 C 1.10949 -0.09000 0.59824
 C223 C 1.08858 -0.05668 0.60516
 C224 C 1.08482 -0.04386 0.64356
 C225 C 1.10246 -0.06335 0.67372
 H226 H 1.18969 -0.10471 0.78201
 H227 H 1.16506 -0.20690 0.71870
 H228 H 1.11278 -0.10105 0.56908
 H229 H 1.06885 -0.01837 0.65024
 H230 H 1.15853 -0.06798 0.73094
 H231 H 1.09919 -0.05303 0.70315
 C232 C 0.35350 1.16280 1.13168
 C233 C 0.32748 1.18105 1.10718
 C234 C 0.29253 1.19312 1.12180
 C235 C 0.28272 1.18708 1.16098
 C236 C 0.31048 1.16991 1.18475
 N237 N 0.34422 1.15815 1.16964
 C238 C 0.38827 1.14395 1.11663
 N239 N 0.40405 1.11574 1.13810
 C240 C 0.43205 1.09283 1.12416
 C241 C 0.44469 1.09672 1.08581
 C242 C 0.43103 1.12736 1.06414
 C243 C 0.40313 1.15128 1.07956
 H244 H 0.27246 1.20469 1.10124
 H245 H 0.30583 1.16597 1.21546
 H246 H 0.44224 1.06988 1.14208
 H247 H 0.44046 1.13168 1.03460
 H248 H 0.33268 1.18420 1.07649
 H249 H 0.39258 1.17418 1.06188
 C250 C 0.34493 0.85490 0.88878
 C251 C 0.34168 0.85558 0.84830
 C252 C 0.30976 0.84016 0.83057
 C253 C 0.28091 0.82338 0.85286
 C254 C 0.28654 0.82165 0.89338
 N255 N 0.31735 0.83802 0.91000
 C256 C 0.37511 0.87605 0.90893
 N257 N 0.36636 0.89462 0.94248
 C258 C 0.39110 0.91837 0.96019
 C259 C 0.42693 0.92486 0.94380
 C260 C 0.43739 0.90438 0.91048
 C261 C 0.41150 0.88005 0.89286
 H262 H 0.30810 0.84117 0.79925
 H263 H 0.26528 0.80997 0.91238
 H264 H 0.38220 0.93324 0.98622
 H265 H 0.46483 0.90853 0.89702
 H266 H 0.36268 0.86939 0.83050
 H267 H 0.41957 0.86523 0.86654
 C268 C 0.64931 0.83009 1.15803
 C269 C 0.67830 0.80945 1.13943
 C270 C 0.70681 0.79265 1.16141
 C271 C 0.70682 0.79605 1.20202
 C272 C 0.67718 0.81654 1.21965
 N273 N 0.64973 0.83302 1.19750
 C274 C 0.62099 0.85228 1.13576
 N275 N 0.60370 0.88219 1.15357
 C276 C 0.58104 0.90683 1.13411
 C277 C 0.57563 0.90278 1.09394
 C278 C 0.59128 0.87098 1.07536
 C279 C 0.61361 0.84545 1.09621
 H280 H 0.72974 0.77819 1.14637
 H281 H 0.67608 0.81983 1.25086
 H282 H 0.56904 0.93071 1.14972
 H283 H 0.58732 0.86652 1.04452
 H284 H 0.68035 0.80760 1.10821
 H285 H 0.62551 0.82132 1.08106
 C286 C 0.67205 1.13827 0.87616
 C287 C 0.69906 1.11826 0.85437
 C288 C 0.72259 1.13744 0.82899
 C289 C 0.72000 1.17705 0.82531
 C290 C 0.69196 1.19595 0.84765
 N291 N 0.66876 1.17631 0.87178
 C292 C 0.64694 1.11796 0.90297
 N293 N 0.60879 1.12441 0.90218
 C294 C 0.58411 1.10272 0.92256
 C295 C 0.59765 1.07222 0.94472
 C296 C 0.63704 1.06678 0.94770
 C297 C 0.66169 1.08948 0.92682
 H298 H 0.74415 1.12106 0.81395
 H299 H 0.68758 1.22611 0.84529
 H300 H 0.55394 1.10812 0.91987
 H301 H 0.64880 1.04387 0.96471
 H302 H 0.70193 1.08788 0.85690
 H303 H 0.69197 1.08407 0.92831
 C304 C 0.12540 0.32055 0.11113
 C305 C 0.16361 0.32604 0.12120
 C306 C 0.18318 0.29802 0.14135
 C307 C 0.16521 0.26416 0.15114
 C308 C 0.12701 0.25971 0.14066
 N309 N 0.10841 0.28754 0.12108
 C310 C 0.10302 0.34949 0.08993
 N311 N 0.07057 0.33893 0.07147
 C312 C 0.04756 0.36411 0.05303
 C313 C 0.05643 0.40268 0.05303
 C314 C 0.09011 0.41410 0.07114
 C315 C 0.11331 0.38777 0.08970
 H316 H 0.21254 0.30282 0.14915
 H317 H 0.11222 0.23385 0.14722
 H318 H 0.02181 0.35409 0.03945
 H319 H 0.09790 0.44362 0.07218
 H320 H 0.17875 0.35123 0.11315
 H321 H 0.13811 0.39787 0.10485
 C322 C -0.15915 0.35054 -0.16429
 C323 C -0.16102 0.34479 -0.20457
 C324 C -0.17878 0.31248 -0.21916
 C325 C -0.19447 0.28584 -0.19376
 C326 C -0.19257 0.29328 -0.15373
 N327 N -0.17528 0.32484 -0.14034
 C328 C -0.13866 0.38241 -0.14633
 N329 N -0.14861 0.39310 -0.10973
 C330 C -0.12801 0.41803 -0.08861
 C331 C -0.09413 0.43263 -0.10356
 C332 C -0.08417 0.42351 -0.14193
 C333 C -0.10643 0.39848 -0.16350
 H334 H -0.18011 0.30829 -0.25026
 H335 H -0.20349 0.27345 -0.13285
 H336 H -0.13695 0.42451 -0.05925
 H337 H -0.05816 0.43406 -0.15450
 H338 H -0.14905 0.36491 -0.22457
 H339 H -0.09705 0.39004 -0.19218
 C340 C 0.12190 0.68655 -0.11001
 C341 C 0.10534 0.72082 -0.12185
 C342 C 0.12772 0.74818 -0.13919
 C343 C 0.16662 0.74165 -0.14500
 C344 C 0.18224 0.70711 -0.13271
 N345 N 0.15973 0.68061 -0.11608
 C346 C 0.09860 0.65622 -0.09301
 N347 N 0.10870 0.61940 -0.09897
 C348 C 0.08675 0.59029 -0.08672
 C349 C 0.05211 0.59767 -0.06787
 C350 C 0.04213 0.63535 -0.05993
 C351 C 0.06532 0.66458 -0.07215
 H352 H 0.11461 0.77454 -0.14802
 H353 H 0.21209 0.70091 -0.13701
 H354 H 0.09568 0.56158 -0.09295
 H355 H 0.01601 0.64230 -0.04480
 H356 H 0.07522 0.72625 -0.11872
 H357 H 0.05697 0.69339 -0.06556
 C358 C -0.15368 0.64415 0.16484
 C359 C -0.17452 0.67164 0.14475
 C360 C -0.19186 0.70092 0.16504
 C361 C -0.18910 0.70309 0.20560
 C362 C -0.16699 0.67567 0.22473
 N363 N -0.14989 0.64723 0.20410
 C364 C -0.13432 0.61359 0.14296
 N365 N -0.09832 0.60290 0.15265
 C366 C -0.07707 0.57973 0.12938
 C367 C -0.09157 0.56745 0.09356
 C368 C -0.12941 0.57599 0.08452
 C369 C -0.15096 0.59863 0.10930
 H370 H -0.20715 0.72225 0.14876
 H371 H -0.16377 0.67655 0.25594
 H372 H -0.04803 0.57334 0.13745
 H373 H -0.14182 0.56650 0.05745
 H374 H -0.17668 0.67113 0.11343
 H375 H -0.17984 0.60582 0.10126
 C376 C 1.15234 0.15571 0.65681
 C377 C 1.19159 0.16266 0.65770
 C378 C 1.20787 0.17817 0.69106
 C379 C 1.18518 0.18723 0.72331
 C380 C 1.14592 0.18123 0.72062
 N381 N 1.13083 0.16566 0.68810
 C382 C 1.13358 0.13569 0.62428
 N383 N 1.09500 0.13740 0.62167
 C384 C 1.07507 0.11596 0.59612
 C385 C 1.09402 0.08983 0.57211
 C386 C 1.13385 0.08873 0.57306
 C387 C 1.15372 0.11156 0.59900
 H388 H 1.23818 0.18305 0.69168
 H389 H 1.12734 0.18755 0.74485
 H390 H 1.04438 0.11775 0.59632
 H391 H 1.14961 0.06889 0.55510
 H392 H 1.20972 0.15617 0.63320
 H393 H 1.18422 0.10838 0.60057
 C394 C 0.86935 -0.13853 0.65263
 C395 C 0.83014 -0.13196 0.65569
 C396 C 0.80912 -0.15124 0.68357
 C397 C 0.82680 -0.17795 0.70797
 C398 C 0.86630 -0.18378 0.70327
 N399 N 0.88620 -0.16385 0.67668
 C400 C 0.89314 -0.11686 0.62562
 N401 N 0.92784 -0.10480 0.63765
 C402 C 0.95021 -0.08269 0.61520
 C403 C 0.93798 -0.07169 0.57820
 C404 C 0.90309 -0.08525 0.56454
 C405 C 0.88046 -0.10759 0.58829
 H406 H 0.77885 -0.14592 0.68499
 H407 H 0.88202 -0.20266 0.72201
 H408 H 0.97702 -0.07290 0.62666
 H409 H 0.89255 -0.07718 0.53623
 H410 H 0.81602 -0.11144 0.63738
 H411 H 0.85324 -0.11722 0.57773
 C412 C 1.14167 -0.16671 0.34042
 C413 C 1.11891 -0.18512 0.31296
 C414 C 1.13484 -0.19781 0.27823
 C415 C 1.17367 -0.19224 0.27002
 C416 C 1.19568 -0.17503 0.29932
 N417 N 1.17931 -0.16262 0.33280
 C418 C 1.12531 -0.14719 0.37480
 N419 N 1.14568 -0.11899 0.39161
 C420 C 1.13082 -0.09575 0.41927
 C421 C 1.09273 -0.09930 0.43046
 C422 C 1.07198 -0.12976 0.41565
 C423 C 1.08826 -0.15403 0.38819
 H424 H 1.11557 -0.20936 0.25696
 H425 H 1.22595 -0.17143 0.29606
 H426 H 1.14799 -0.07289 0.43035
 H427 H 1.04263 -0.13381 0.42397
 H428 H 1.08862 -0.18789 0.31676
 H429 H 1.07135 -0.17688 0.37686
 C430 C 0.90384 0.14834 0.32893
 C431 C 0.89482 0.18685 0.33208
 C432 C 0.87141 0.20361 0.30415
 C433 C 0.85609 0.18188 0.27355
 C434 C 0.86655 0.14339 0.27161
 N435 N 0.88988 0.12811 0.29865
 C436 C 0.92727 0.12825 0.35772
 N437 N 0.94821 0.09806 0.34542
 C438 C 0.96613 0.07445 0.37038
 C439 C 0.96200 0.07952 0.41056
 C440 C 0.94195 0.11144 0.42402
 C441 C 0.92470 0.13607 0.39762
 H442 H 0.86405 0.23316 0.30773
 H443 H 0.85745 0.12548 0.24794
 H444 H 0.98156 0.05041 0.35867
 H445 H 0.93800 0.11629 0.45481
 H446 H 0.90577 0.20381 0.35570
 H447 H 0.90756 0.15938 0.40839
 C448 C 0.12987 0.31803 -0.11452
 C449 C 0.11332 0.28568 -0.13081
 C450 C 0.13553 0.26066 -0.15249
 C451 C 0.17429 0.26748 -0.15797
 C452 C 0.19004 0.29977 -0.14077
 N453 N 0.16762 0.32424 -0.12018
 C454 C 0.10628 0.34649 -0.09379
 N455 N 0.11463 0.38384 -0.09709
 C456 C 0.09160 0.41148 -0.08230
 C457 C 0.05755 0.40204 -0.06360
 C458 C 0.04957 0.36370 -0.05806
 C459 C 0.07385 0.33594 -0.07291
 H460 H 0.12238 0.23595 -0.16517
 H461 H 0.21984 0.30602 -0.14457
 H462 H 0.09905 0.44074 -0.08671
 H463 H 0.02399 0.35514 -0.04315
 H464 H 0.08325 0.28029 -0.12799
 H465 H 0.06687 0.30654 -0.06869
 C466 C -0.15631 0.35530 0.15422
 C467 C -0.17929 0.33039 0.13327
 C468 C -0.19120 0.29697 0.15027
 C469 C -0.18059 0.28768 0.18860
 C470 C -0.15944 0.31501 0.20928
 N471 N -0.14743 0.34703 0.19160
 C472 C -0.13720 0.38704 0.13475
 N473 N -0.10149 0.39654 0.14617
 C474 C -0.07946 0.42043 0.12533
 C475 C -0.09271 0.43491 0.08999
 C476 C -0.13041 0.42785 0.07930
 C477 C -0.15285 0.40425 0.10175
 H478 H -0.20608 0.27749 0.13162
 H479 H -0.15204 0.31123 0.23941
 H480 H -0.05069 0.42566 0.13484
 H481 H -0.14194 0.43908 0.05257
 H482 H -0.18585 0.33507 0.10301
 H483 H -0.18150 0.39830 0.09236
 C484 C -0.15241 0.64459 -0.17651
 C485 C -0.13020 0.66811 -0.19960
 C486 C -0.14568 0.70139 -0.21426
 C487 C -0.18383 0.71188 -0.20666
 C488 C -0.20528 0.68660 -0.18392
 N489 N -0.18914 0.65459 -0.16936
 C490 C -0.13528 0.61203 -0.15591
 N491 N -0.14825 0.60345 -0.11985
 C492 C -0.13005 0.57829 -0.09654
 C493 C -0.09595 0.56103 -0.10873
 C494 C -0.08382 0.56710 -0.14694
 C495 C -0.10345 0.59247 -0.17064
 H496 H -0.12638 0.71972 -0.22942
 H497 H -0.23498 0.69159 -0.17787
 H498 H -0.14082 0.57389 -0.06751
 H499 H -0.05790 0.55411 -0.15770
 H500 H -0.10038 0.66219 -0.20453
 H501 H -0.09286 0.59779 -0.19956
 C502 C 0.12068 0.68760 0.10222
 C503 C 0.10312 0.71958 0.11872
 C504 C 0.12459 0.74460 0.14070
 C505 C 0.16352 0.73811 0.14600
 C506 C 0.18035 0.70646 0.12821
 N507 N 0.15865 0.68191 0.10753
 C508 C 0.09799 0.65848 0.08234
 N509 N 0.10790 0.62149 0.08646
 C510 C 0.08617 0.59306 0.07221
 C511 C 0.05202 0.60124 0.05284
 C512 C 0.04218 0.63924 0.04683
 C513 C 0.06507 0.66788 0.06146
 H514 H 0.11073 0.76880 0.15408
 H515 H 0.21034 0.70061 0.13192
 H516 H 0.09514 0.56414 0.07692
 H517 H 0.01634 0.64689 0.03168
 H518 H 0.07286 0.72448 0.11613
 H519 H 0.05680 0.69703 0.05688
 C520 C 0.34441 1.13548 0.85974
 C521 C 0.31499 1.14875 0.88383
 C522 C 0.28472 1.16891 0.86793
 C523 C 0.28348 1.17624 0.82798
 C524 C 0.31343 1.16218 0.80477
 N525 N 0.34263 1.14228 0.82096
 C526 C 0.37686 1.11407 0.87618
 N527 N 0.39263 1.08442 0.85626
 C528 C 0.42078 1.06240 0.87170
 C529 C 0.43416 1.06973 0.90932
 C530 C 0.41931 1.10112 0.92939
 C531 C 0.39088 1.12325 0.91301
 H532 H 0.26183 1.17786 0.88690
 H533 H 0.31381 1.16718 0.77384
 H534 H 0.43176 1.03863 0.85519
 H535 H 0.42920 1.10831 0.95822
 H536 H 0.31485 1.14288 0.91461
 H537 H 0.37982 1.14720 0.92922
 C538 C 0.31998 0.88008 1.13101
 C539 C 0.28824 0.89679 1.14900
 C540 C 0.26061 0.87394 1.16542
 C541 C 0.26433 0.83452 1.16372
 C542 C 0.29642 0.81884 1.14545
 N543 N 0.32333 0.84172 1.13007
 C544 C 0.35025 0.90338 1.11405
 N545 N 0.38700 0.89144 1.11652
 C546 C 0.41625 0.91218 1.10251
 C547 C 0.40917 0.94698 1.08444
 C548 C 0.37140 0.95930 1.08069
 C549 C 0.34192 0.93771 1.09560
 H550 H 0.23609 0.88703 1.17910
 H551 H 0.30025 0.78851 1.14379
 H552 H 0.44496 0.90143 1.10549
 H553 H 0.36467 0.98582 1.06666
 H554 H 0.28509 0.92717 1.15099
 H555 H 0.31294 0.94761 1.09237
 C556 C 0.69921 1.11911 1.14162
 C557 C 0.73643 1.10599 1.14790
 C558 C 0.76244 1.12921 1.16672
 C559 C 0.75161 1.16547 1.17935
 C560 C 0.71415 1.17751 1.17264
 N561 N 0.68919 1.15427 1.15445
 C562 C 0.67014 1.09533 1.12273
 N563 N 0.63291 1.10180 1.13125
 C564 C 0.60455 1.08091 1.11557
 C565 C 0.61293 1.05146 1.08940
 C566 C 0.65107 1.04474 1.07958
 C567 C 0.67971 1.06656 1.09613
 H568 H 0.79115 1.11892 1.17116
 H569 H 0.70456 1.20511 1.18232
 H570 H 0.57551 1.08735 1.12369
 H571 H 0.65879 1.02261 1.05917
 H572 H 0.74531 1.07789 1.13917
 H573 H 0.70884 1.06120 1.08766
 C574 C 0.66838 0.85935 0.84968
 C575 C 0.69525 0.83724 0.86961
 C576 C 0.72351 0.81795 0.84899
 C577 C 0.72535 0.82038 0.80840
 C578 C 0.69810 0.84307 0.78955
 N579 N 0.67085 0.86181 0.81034
 C580 C 0.63848 0.88104 0.87080
 N581 N 0.62495 0.91410 0.85582
 C582 C 0.59915 0.93626 0.87504
 C583 C 0.58574 0.92556 0.91171
 C584 C 0.59826 0.89096 0.92691
 C585 C 0.62436 0.86864 0.90660
 H586 H 0.74453 0.80195 0.86503
 H587 H 0.69833 0.84578 0.75830
 H588 H 0.59003 0.96266 0.86223
 H589 H 0.58840 0.88141 0.95494
 H590 H 0.69528 0.83562 0.90094
 H591 H 0.63337 0.84204 0.91900
   
