data_POSCAR
  _audit_creation_date              2014-09-24
  _audit_creation_method            'ToBaCCo'
  _symmetry_space_group_name_H-M    'P1'
  _symmetry_Int_Tables_number       1
  _symmetry_cell_setting            triclinic
  loop_
  _symmetry_equiv_pos_as_xyz
 x,y,z
_cell_length_a 32.8911
_cell_length_b 32.2062
_cell_length_c 7.5147
_cell_angle_alpha 90.257500
_cell_angle_beta 89.977200
_cell_angle_gamma 90.097500
loop_
  _atom_site_label
  _atom_site_type_symbol
  _atom_site_fract_x
  _atom_site_fract_y
  _atom_site_fract_z
C1 C 0.36911 0.23485 0.34710
 C2 C 0.36818 0.27732 0.35019
 C3 C 0.32760 0.28871 0.34571
 N4 N 0.30374 0.25444 0.34241
 C5 C 0.32901 0.22134 0.33924
 C6 C 0.31358 0.33030 0.34941
 C7 C 0.27205 0.34160 0.34854
 C8 C 0.25747 0.38119 0.38455
 C9 C 0.21625 0.38014 0.35719
 C10 C 0.20674 0.34012 0.30278
 N11 N 0.24085 0.31682 0.29865
 C12 C 0.16824 0.32773 0.23872
 C13 C 0.15717 0.28606 0.20649
 C14 C 0.12187 0.27372 0.12087
 C15 C 0.12257 0.23122 0.11513
 C16 C 0.15808 0.21893 0.19978
 N17 N 0.17908 0.25257 0.25634
 C18 C 0.17028 0.17718 0.22448
 C19 C 0.20953 0.16590 0.28694
 C20 C 0.21978 0.12668 0.34743
 C21 C 0.26094 0.12685 0.37735
 C22 C 0.27496 0.16656 0.33878
 N23 N 0.24328 0.19003 0.28263
 C24 C 0.31652 0.17905 0.34073
 H25 H 0.39637 0.21620 0.35412
 H26 H 0.39451 0.29745 0.35755
 H27 H 0.24537 0.21886 0.22232
 H28 H 0.27457 0.40842 0.42385
 H29 H 0.19581 0.40631 0.36928
 H30 H 0.09843 0.29332 0.06521
 H31 H 0.09974 0.21163 0.05372
 H32 H 0.27833 0.10022 0.41962
 H33 H 0.24348 0.28777 0.24006
 H34 H 0.19981 0.10022 0.36374
 C35 C 0.62407 0.27594 0.38911
 C36 C 0.62474 0.23342 0.39763
 C37 C 0.66167 0.22098 0.32661
 N38 N 0.68342 0.25438 0.27419
 C39 C 0.66067 0.28804 0.31344
 C40 C 0.67384 0.17929 0.30420
 C41 C 0.71282 0.16717 0.24410
 C42 C 0.72307 0.12703 0.19464
 C43 C 0.76379 0.12740 0.15485
 C44 C 0.77740 0.16790 0.17913
 N45 N 0.74617 0.19174 0.23632
 C46 C 0.81817 0.18110 0.15436
 C47 C 0.83130 0.22299 0.16036
 C48 C 0.87146 0.23557 0.14536
 C49 C 0.87145 0.27804 0.15110
 C50 C 0.83121 0.29035 0.16924
 N51 N 0.80676 0.25654 0.17199
 C52 C 0.81781 0.33232 0.17025
 C53 C 0.77614 0.34392 0.17369
 C54 C 0.76139 0.38351 0.13907
 C55 C 0.72012 0.38237 0.16617
 C56 C 0.71063 0.34241 0.21994
 N57 N 0.74491 0.31933 0.22544
 C58 C 0.67143 0.32947 0.27405
 H59 H 0.59945 0.29569 0.43369
 H60 H 0.60074 0.21391 0.44973
 H61 H 0.74751 0.29023 0.28222
 H62 H 0.70336 0.10009 0.18944
 H63 H 0.78127 0.10063 0.11309
 H64 H 0.89809 0.21629 0.12813
 H65 H 0.89809 0.29755 0.13800
 H66 H 0.69960 0.40839 0.15198
 H67 H 0.74844 0.22168 0.28590
 H68 H 0.77839 0.41085 0.10113
 C69 C 0.62068 0.77448 0.65827
 C70 C 0.62157 0.73203 0.64841
 C71 C 0.66203 0.72039 0.66095
 N72 N 0.68586 0.75450 0.67543
 C73 C 0.66065 0.78761 0.67638
 C74 C 0.67609 0.67890 0.65038
 C75 C 0.71730 0.66689 0.67078
 C76 C 0.73184 0.62689 0.64301
 C77 C 0.77271 0.62766 0.67924
 C78 C 0.78214 0.66795 0.73028
 N79 N 0.74818 0.69152 0.72637
 C80 C 0.82071 0.68075 0.79301
 C81 C 0.83180 0.72261 0.82289
 C82 C 0.86743 0.73514 0.90545
 C83 C 0.86701 0.77767 0.90800
 C84 C 0.83125 0.78988 0.82530
 N85 N 0.80985 0.75609 0.77276
 C86 C 0.81920 0.83172 0.79966
 C87 C 0.77967 0.84316 0.74127
 C88 C 0.76917 0.88249 0.68211
 C89 C 0.72795 0.88228 0.65396
 C90 C 0.71427 0.84253 0.69202
 N91 N 0.74598 0.81897 0.74651
 C92 C 0.67308 0.82972 0.68284
 H93 H 0.59364 0.79343 0.64884
 H94 H 0.59533 0.71215 0.63072
 H95 H 0.74391 0.78991 0.80491
 H96 H 0.71483 0.59964 0.60297
 H97 H 0.79302 0.60128 0.67228
 H98 H 0.89106 0.71566 0.96017
 H99 H 0.89014 0.79735 0.96678
 H100 H 0.71028 0.90866 0.61066
 H101 H 0.74550 0.72127 0.77760
 H102 H 0.78906 0.90896 0.66406
 C103 C 0.36687 0.73693 0.58580
 C104 C 0.36589 0.77950 0.58735
 C105 C 0.32916 0.79071 0.66404
 N106 N 0.30781 0.75651 0.70974
 C107 C 0.33064 0.72359 0.66089
 C108 C 0.31687 0.83197 0.69763
 C109 C 0.27791 0.84321 0.76085
 C110 C 0.26750 0.88281 0.81677
 C111 C 0.22671 0.88204 0.85438
 C112 C 0.21310 0.84174 0.82258
 N113 N 0.24456 0.81856 0.76249
 C114 C 0.17200 0.82836 0.83904
 C115 C 0.15926 0.78635 0.82293
 C116 C 0.11925 0.77299 0.83666
 C117 C 0.11999 0.73055 0.83149
 C118 C 0.16045 0.71892 0.81518
 N119 N 0.18431 0.75316 0.81161
 C120 C 0.17468 0.67733 0.82170
 C121 C 0.21623 0.66580 0.80160
 C122 C 0.23132 0.62593 0.82662
 C123 C 0.27234 0.62741 0.79341
 C124 C 0.28135 0.66787 0.74527
 N125 N 0.24693 0.69087 0.74784
 C126 C 0.32037 0.68163 0.69175
 H127 H 0.39150 0.71799 0.53541
 H128 H 0.38964 0.79985 0.53906
 H129 H 0.24391 0.72067 0.69867
 H130 H 0.28706 0.90979 0.82579
 H131 H 0.20912 0.90860 0.89720
 H132 H 0.09227 0.79167 0.85539
 H133 H 0.09364 0.71068 0.84536
 H134 H 0.29303 0.60136 0.80065
 H135 H 0.24250 0.78927 0.70608
 H136 H 0.21460 0.59833 0.86362
 O137 O 0.95913 -0.02444 -0.20643
 O138 O 1.03852 0.05006 -0.07089
 O139 O 1.03883 -0.02607 -0.17746
 O140 O 0.95973 0.05256 -0.10435
 O141 O 0.95329 0.03410 0.17640
 O142 O 1.03222 -0.04482 0.10269
 O143 O 1.03271 0.03186 0.21070
 O144 O 0.95337 -0.04221 0.07598
 Cu145 Cu 0.99973 0.01524 -0.16738
 Cu146 Cu 0.99234 -0.00750 0.16918
 C147 C 0.94194 -0.04535 -0.08443
 C148 C 1.04973 0.05317 0.08992
 C149 C 1.04978 -0.04829 -0.04680
 C150 C 0.94215 0.05608 0.04510
 O151 O 0.53360 0.45581 0.54422
 O152 O 0.45972 0.53609 0.67174
 O153 O 0.45505 0.45912 0.55968
 O154 O 0.53912 0.53212 0.64868
 O155 O 0.53567 0.55227 0.36937
 O156 O 0.45167 0.47967 0.28124
 O157 O 0.45698 0.55608 0.39177
 O158 O 0.53111 0.47552 0.26381
 Cu159 Cu 0.49694 0.49374 0.63265
 Cu160 Cu 0.49350 0.51815 0.29989
 C161 C 0.54513 0.45180 0.38401
 C162 C 0.44590 0.56009 0.55260
 C163 C 0.43943 0.45621 0.40558
 C164 C 0.55238 0.55414 0.52116
 O165 O -0.04402 0.55337 0.09710
 O166 O 0.03548 0.47824 0.21537
 O167 O 0.03534 0.55395 0.10336
 O168 O -0.04366 0.47689 0.20421
 O169 O -0.04229 0.45674 -0.07665
 O170 O 0.03782 0.53327 -0.17624
 O171 O 0.03617 0.45773 -0.06516
 O172 O -0.04272 0.53349 -0.18405
 Cu173 Cu -0.00455 0.51819 0.18210
 Cu174 Cu -0.00269 0.49329 -0.15325
 C175 C -0.05771 0.55571 -0.06013
 C176 C 0.04987 0.45544 0.09213
 C177 C 0.05136 0.55569 -0.04981
 C178 C -0.05614 0.45312 0.08024
 O179 O 0.53703 1.03215 0.31588
 O180 O 0.45357 0.96018 0.41893
 O181 O 0.45729 1.03646 0.31299
 O182 O 0.53230 0.95575 0.42418
 O183 O 0.53277 0.97588 0.70477
 O184 O 0.45746 1.05645 0.59379
 O185 O 0.45308 0.98004 0.70002
 O186 O 0.53637 1.05234 0.59644
 Cu187 Cu 0.49502 0.99395 0.34122
 Cu188 Cu 0.49504 1.01843 0.67584
 C189 C 0.55143 1.05425 0.44144
 C190 C 0.43856 0.95818 0.57390
 C191 C 0.44437 1.06029 0.43583
 C192 C 0.54536 0.95179 0.58208
 C193 C 1.07672 0.11298 0.26013
 C194 C 1.10533 0.14434 0.28628
 C195 C 1.14173 0.14530 0.18808
 C196 C 1.14900 0.11380 0.05884
 C197 C 1.12018 0.08149 0.03486
 C198 C 1.08332 0.08187 0.13306
 C199 C 1.12929 0.04963 -0.08770
 N200 N 1.16377 0.05150 -0.18619
 N201 N 1.18976 0.08303 -0.17065
 C202 C 1.18345 0.11434 -0.05289
 H203 H 1.04869 0.11372 0.33602
 H204 H 1.09923 0.16792 0.38620
 H205 H 1.10959 0.02306 -0.10523
 H206 H 1.20533 0.13941 -0.04845
 C207 C 0.58988 0.60303 0.71614
 C208 C 0.61899 0.63371 0.74592
 C209 C 0.64566 0.64582 0.61046
 C210 C 0.64365 0.62586 0.44239
 C211 C 0.61521 0.59333 0.41389
 C212 C 0.58681 0.58315 0.55014
 C213 C 0.61727 0.57137 0.25142
 N214 N 0.64423 0.58295 0.12437
 N215 N 0.66937 0.61492 0.14810
 C216 C 0.66985 0.63691 0.30214
 H217 H 0.56898 0.59551 0.82299
 H218 H 0.62023 0.64881 0.87505
 H219 H 0.59881 0.54430 0.22532
 H220 H 0.69116 0.66237 0.31453
 C221 C -0.11672 0.41449 -0.02053
 C222 C -0.14798 0.38587 0.00130
 C223 C -0.15234 0.36388 0.16068
 C224 C -0.12407 0.37096 0.30074
 C225 C -0.09111 0.39888 0.27579
 C226 C -0.08811 0.42167 0.11471
 C227 C -0.06159 0.40161 0.41107
 N228 N -0.06650 0.38026 0.56465
 N229 N -0.09868 0.35601 0.59199
 C230 C -0.12763 0.35069 0.46573
 H231 H -0.11482 0.43112 -0.14540
 H232 H -0.16861 0.38031 -0.10868
 H233 H -0.03416 0.41954 0.39571
 H234 H -0.15301 0.33043 0.49466
 C235 C 0.40509 0.90548 0.76226
 C236 C 0.37646 0.87426 0.79003
 C237 C 0.34652 0.86583 0.66248
 C238 C 0.34451 0.89008 0.50623
 C239 C 0.37297 0.92256 0.47955
 C240 C 0.40444 0.92925 0.60650
 C241 C 0.36824 0.94771 0.32791
 N242 N 0.33841 0.93929 0.20845
 N243 N 0.31271 0.90777 0.23072
 C244 C 0.31469 0.88292 0.37544
 H245 H 0.42875 0.91023 0.86059
 H246 H 0.37793 0.85615 0.91111
 H247 H 0.38723 0.97448 0.30399
 H248 H 0.29284 0.85796 0.38733
 C249 C -0.08899 0.60919 -0.25182
 C250 C -0.11758 0.64010 -0.28487
 C251 C -0.14917 0.64782 -0.16430
 C252 C -0.15262 0.62332 -0.00912
 C253 C -0.12414 0.59120 0.02284
 C254 C -0.09122 0.58504 -0.09742
 C255 C -0.13027 0.56585 0.17310
 N256 N -0.16139 0.57376 0.28663
 N257 N -0.18715 0.60494 0.25979
 C258 C -0.18389 0.62993 0.11584
 H259 H -0.06431 0.60479 -0.34541
 H260 H -0.11500 0.65832 -0.40525
 H261 H -0.11125 0.53936 0.20083
 H262 H -0.20592 0.65452 0.09957
 C263 C 0.38336 1.09846 0.53400
 C264 C 0.35173 1.12652 0.51111
 C265 C 0.34709 1.14818 0.35114
 C266 C 0.37565 1.14135 0.21160
 C267 C 0.40907 1.11410 0.23816
 C268 C 0.41232 1.09163 0.39987
 C269 C 0.43881 1.11166 0.10384
 N270 N 0.43377 1.13256 -0.05084
 N271 N 0.40126 1.15612 -0.07979
 C272 C 0.37202 1.16118 0.04559
 H273 H 0.38513 1.08175 0.65849
 H274 H 0.33085 1.13174 0.62038
 H275 H 0.46657 1.09444 0.12180
 H276 H 0.34639 1.18091 0.01481
 C277 C 1.08553 -0.10025 -0.23146
 C278 C 1.11458 -0.13096 -0.25811
 C279 C 1.14208 -0.14145 -0.12326
 C280 C 1.13988 -0.12059 0.04331
 C281 C 1.11134 -0.08810 0.06850
 C282 C 1.08302 -0.07882 -0.06906
 C283 C 1.11310 -0.06548 0.22949
 N284 N 1.13949 -0.07676 0.35905
 N285 N 1.16445 -0.10891 0.33911
 C286 C 1.16540 -0.13134 0.18631
 H287 H 1.06448 -0.09356 -0.33852
 H288 H 1.11570 -0.14675 -0.38551
 H289 H 1.09459 -0.03842 0.25371
 H290 H 1.18640 -0.15707 0.17677
 C291 C 0.60719 0.41437 0.47093
 C292 C 0.63791 0.38543 0.44489
 C293 C 0.63925 0.36150 0.28970
 C294 C 0.60926 0.36692 0.15711
 C295 C 0.57725 0.39571 0.18511
 C296 C 0.57662 0.42023 0.34301
 C297 C 0.54634 0.39758 0.05644
 N298 N 0.54875 0.37415 -0.09369
 N299 N 0.57970 0.34844 -0.12292
 C300 C 0.60998 0.34388 -0.00232
 H301 H 0.60735 0.43241 0.59309
 H302 H 0.66066 0.38134 0.54759
 H303 H 0.52001 0.41674 0.07444
 H304 H 0.63421 0.32224 -0.03177
 C305 C 0.91333 -0.10523 -0.24947
 C306 C 0.88417 -0.13631 -0.27095
 C307 C 0.84822 -0.13644 -0.16946
 C308 C 0.84192 -0.10421 -0.04230
 C309 C 0.87121 -0.07213 -0.02364
 C310 C 0.90768 -0.07349 -0.12447
 C311 C 0.86301 -0.03955 0.09669
 N312 N 0.82908 -0.04058 0.19893
 N313 N 0.80277 -0.07194 0.18910
 C314 C 0.80812 -0.10385 0.07331
 H315 H 0.94101 -0.10669 -0.32764
 H316 H 0.88961 -0.16047 -0.36881
 H317 H 0.88305 -0.01310 0.10971
 H318 H 0.78602 -0.12872 0.07386
 C319 C 0.38080 0.41666 0.52043
 C320 C 0.35094 0.38615 0.50964
 C321 C 0.34452 0.36417 0.35152
 C322 C 0.36877 0.37316 0.20070
 C323 C 0.40050 0.40306 0.21318
 C324 C 0.40636 0.42536 0.37552
 C325 C 0.42596 0.40807 0.06422
 N326 N 0.41929 0.38579 -0.08634
 N327 N 0.38865 0.35893 -0.09941
 C328 C 0.36296 0.35214 0.03815
 H329 H 0.38424 0.43337 0.64492
 H330 H 0.33258 0.37953 0.62581
 H331 H 0.45151 0.42873 0.06527
 H332 H 0.33855 0.33001 0.01964
 C333 C 0.08817 0.60498 -0.24352
 C334 C 0.11779 0.63503 -0.27416
 C335 C 0.14592 0.64588 -0.14150
 C336 C 0.14442 0.62530 0.02510
 C337 C 0.11546 0.59330 0.05338
 C338 C 0.08590 0.58441 -0.07998
 C339 C 0.11777 0.57088 0.21385
 N340 N 0.14500 0.58201 0.34082
 N341 N 0.17028 0.61387 0.31866
 C342 C 0.17078 0.63602 0.16591
 H343 H 0.06628 0.59839 -0.34777
 H344 H 0.11848 0.65037 -0.40238
 H345 H 0.09902 0.54404 0.23927
 H346 H 0.19207 0.66152 0.15527
 C347 C 0.58503 1.10610 0.24887
 C348 C 0.61384 1.13695 0.21744
 C349 C 0.64383 1.14603 0.34394
 C350 C 0.64555 1.12291 0.50337
 C351 C 0.61680 1.09088 0.53428
 C352 C 0.58543 1.08336 0.40758
 C353 C 0.62118 1.06697 0.68984
 N354 N 0.65086 1.07621 0.80895
 N355 N 0.67683 1.10731 0.78250
 C356 C 0.67529 1.13089 0.63379
 H357 H 0.56159 1.10071 0.15008
 H358 H 0.61254 1.15420 0.09415
 H359 H 0.60205 1.04050 0.71732
 H360 H 0.69728 1.15566 0.61953
 C361 C 0.07936 0.40089 0.28289
 C362 C 0.10704 0.36911 0.31519
 C363 C 0.13859 0.36091 0.19515
 C364 C 0.14290 0.38557 0.04097
 C365 C 0.11539 0.41854 0.00973
 C366 C 0.08261 0.42540 0.12991
 C367 C 0.12235 0.44400 -0.13948
 N368 N 0.15342 0.43547 -0.25249
 N369 N 0.17828 0.40352 -0.22614
 C370 C 0.17414 0.37833 -0.08337
 H371 H 0.05459 0.40568 0.37578
 H372 H 0.10385 0.35066 0.43472
 H373 H 0.10412 0.47111 -0.16607
 H374 H 0.19539 0.35301 -0.06792
 C375 C 0.60492 0.91126 0.48205
 C376 C 0.63586 0.88238 0.50550
 C377 C 0.64090 0.86218 0.66827
 C378 C 0.61328 0.87048 0.80877
 C379 C 0.58017 0.89802 0.78147
 C380 C 0.57681 0.91979 0.61805
 C381 C 0.55079 0.90128 0.91683
 N382 N 0.55592 0.88076 1.07238
 N383 N 0.58819 0.85683 1.10141
 C384 C 0.61706 0.85102 0.97506
 H385 H 0.60301 0.92717 0.35564
 H386 H 0.65629 0.87588 0.39588
 H387 H 0.52320 0.91874 0.89944
 H388 H 0.64240 0.83082 1.00432
 C389 C 0.90517 0.10725 0.22976
 C390 C 0.87580 0.13773 0.25526
 C391 C 0.84931 0.14869 0.11773
 C392 C 0.85195 0.12802 -0.04847
 C393 C 0.88061 0.09561 -0.07255
 C394 C 0.90858 0.08630 0.06646
 C395 C 0.87913 0.07291 -0.23342
 N396 N 0.85260 0.08381 -0.36312
 N397 N 0.82723 0.11564 -0.34336
 C398 C 0.82608 0.13821 -0.19088
 H399 H 0.92580 0.10045 0.33825
 H400 H 0.87403 0.15343 0.38279
 H401 H 0.89779 0.04593 -0.25691
 H402 H 0.80456 0.16348 -0.18139
 C403 C 0.38285 0.59727 0.47845
 C404 C 0.35219 0.62586 0.51277
 C405 C 0.35285 0.65004 0.66758
 C406 C 0.38514 0.64541 0.79053
 C407 C 0.41710 0.61715 0.75326
 C408 C 0.41531 0.59210 0.59739
 C409 C 0.45037 0.61619 0.87074
 N410 N 0.45010 0.63985 1.02057
 N411 N 0.41916 0.66491 1.05947
 C412 C 0.38675 0.66863 0.94927
 H413 H 0.38099 0.57872 0.35808
 H414 H 0.32776 0.62935 0.41737
 H415 H 0.47697 0.59769 0.84356
 H416 H 0.36265 0.68979 0.98604
   
