data_POSCAR
  _audit_creation_date              2014-09-24
  _audit_creation_method            'ToBaCCo'
  _symmetry_space_group_name_H-M    'P1'
  _symmetry_Int_Tables_number       1
  _symmetry_cell_setting            triclinic
  loop_
  _symmetry_equiv_pos_as_xyz
 x,y,z
_cell_length_a 17.8992
_cell_length_b 17.8987
_cell_length_c 17.8811
_cell_angle_alpha 89.917100
_cell_angle_beta 90.245000
_cell_angle_gamma 90.000000
loop_
  _atom_site_label
  _atom_site_type_symbol
  _atom_site_fract_x
  _atom_site_fract_y
  _atom_site_fract_z
O1 O -0.19295 0.10087 0.00174
 O2 O 0.19150 0.10097 -0.00281
 O3 O -0.00311 0.19202 0.10036
 O4 O 0.00146 0.19258 -0.10212
 O5 O 0.00132 0.10154 -0.19344
 O6 O -0.00295 0.10067 0.19178
 O7 O 0.10034 0.19227 -0.00302
 O8 O -0.10163 0.19210 0.00182
 Zr9 Zr -0.00072 0.13139 -0.00085
 O10 O 0.06697 0.06791 -0.06861
 O11 O -0.06830 0.06740 0.06690
 C12 C -0.17044 0.16970 0.00311
 C13 C 0.16920 0.16988 -0.00399
 C14 C -0.00420 0.16957 0.16931
 C15 C 0.00252 0.17052 -0.17119
 H16 H 0.09872 0.09907 0.09893
 O17 O 0.06673 0.06722 0.06699
 H18 H -0.10039 0.09935 -0.10038
 O19 O -0.06846 0.06740 -0.06838
 O20 O 0.19135 -0.10096 0.00232
 O21 O -0.19342 -0.10149 -0.00322
 O22 O 0.10069 -0.00312 0.19189
 O23 O 0.10015 0.00241 -0.19301
 O24 O -0.10225 -0.00246 -0.19339
 O25 O -0.10131 0.00227 0.19172
 O26 O 0.00166 -0.19290 0.10118
 O27 O -0.00373 -0.19226 -0.10138
 O28 O 0.00193 -0.10172 0.19233
 O29 O -0.00371 -0.10092 -0.19287
 O30 O 0.19161 -0.00281 0.10060
 O31 O -0.19282 0.00235 0.10023
 O32 O -0.19328 -0.00281 -0.10226
 O33 O 0.19144 0.00223 -0.10135
 O34 O 0.10020 -0.19234 0.00251
 O35 O -0.10228 -0.19274 -0.00282
 Zr36 Zr 0.13055 -0.00006 -0.00048
 Zr37 Zr -0.13236 -0.00031 -0.00090
 Zr38 Zr -0.00053 -0.00045 0.13106
 Zr39 Zr -0.00103 0.00018 -0.13236
 Zr40 Zr -0.00103 -0.13180 -0.00024
 O41 O -0.06867 -0.06786 -0.06854
 O42 O 0.06709 -0.06807 0.06743
 C43 C 0.16902 -0.16979 0.00366
 C44 C -0.17126 -0.17050 -0.00406
 C45 C 0.16942 -0.00422 0.16945
 C46 C 0.16911 0.00337 -0.17039
 C47 C -0.17108 -0.00386 -0.17118
 C48 C -0.17019 0.00353 0.16918
 C49 C 0.00293 -0.17074 0.17025
 C50 C -0.00489 -0.16974 -0.17028
 H51 H -0.10009 -0.09971 0.09889
 O52 O -0.06830 -0.06781 0.06699
 H53 H 0.09813 -0.09935 -0.09964
 O54 O 0.06625 -0.06752 -0.06785
 O55 O 0.30787 0.60163 0.00265
 O56 O 0.69271 0.60221 -0.00171
 O57 O 0.49798 0.69324 0.10207
 O58 O 0.50286 0.69282 -0.10041
 O59 O 0.50251 0.60156 -0.19170
 O60 O 0.49814 0.60195 0.19340
 O61 O 0.60144 0.69341 -0.00170
 O62 O 0.39910 0.69294 0.00302
 Zr63 Zr 0.50029 0.63234 0.00082
 O64 O 0.56767 0.56853 -0.06706
 O65 O 0.43250 0.56849 0.06831
 C66 C 0.33027 0.67044 0.00398
 C67 C 0.67040 0.67116 -0.00295
 C68 C 0.49695 0.67096 0.17113
 C69 C 0.50401 0.67027 -0.16921
 H70 H 0.59992 0.60024 0.10038
 O71 O 0.56796 0.56834 0.06845
 H72 H 0.40067 0.60014 -0.09905
 O73 O 0.43264 0.56827 -0.06701
 O74 O 0.69233 0.39974 0.00352
 O75 O 0.30771 0.39965 -0.00232
 O76 O 0.60185 0.49813 0.19342
 O77 O 0.60072 0.50322 -0.19177
 O78 O 0.39834 0.49844 -0.19234
 O79 O 0.39940 0.50326 0.19289
 O80 O 0.50286 0.30850 0.10155
 O81 O 0.49755 0.30839 -0.10042
 O82 O 0.50318 0.39954 0.19301
 O83 O 0.49729 0.39955 -0.19192
 O84 O 0.69284 0.49824 0.10226
 O85 O 0.30801 0.50316 0.10125
 O86 O 0.30735 0.49847 -0.10124
 O87 O 0.69225 0.50349 -0.10029
 O88 O 0.60093 0.30860 0.00332
 O89 O 0.39899 0.30847 -0.00207
 Zr90 Zr 0.63177 0.50097 0.00091
 Zr91 Zr 0.36859 0.50071 0.00020
 Zr92 Zr 0.50050 0.50084 0.13238
 Zr93 Zr 0.49972 0.50066 -0.13105
 Zr94 Zr 0.50003 0.36941 0.00057
 O95 O 0.43195 0.43286 -0.06755
 O96 O 0.56803 0.43312 0.06857
 C97 C 0.66977 0.33092 0.00454
 C98 C 0.33009 0.33078 -0.00340
 C99 C 0.67073 0.49696 0.17122
 C100 C 0.66968 0.50449 -0.16929
 C101 C 0.32938 0.49735 -0.17027
 C102 C 0.33048 0.50435 0.17026
 C103 C 0.50426 0.33076 0.17043
 C104 C 0.49634 0.33066 -0.16943
 H105 H 0.40101 0.40145 0.09985
 O106 O 0.43285 0.43340 0.06803
 H107 H 0.59924 0.40159 -0.09857
 O108 O 0.56747 0.43346 -0.06671
 O109 O -0.19272 0.60160 0.50211
 O110 O 0.19208 0.60091 0.49784
 O111 O -0.00283 0.69228 0.60067
 O112 O 0.00196 0.69289 0.39819
 O113 O 0.00182 0.60171 0.30696
 O114 O -0.00257 0.60099 0.69221
 O115 O 0.10091 0.69228 0.49725
 O116 O -0.10151 0.69277 0.50200
 Zr117 Zr -0.00033 0.63176 0.49959
 O118 O 0.06747 0.56796 0.43223
 O119 O -0.06769 0.56784 0.56759
 C120 C -0.17049 0.67058 0.50323
 C121 C 0.16973 0.66974 0.49634
 C122 C -0.00400 0.66979 0.66957
 C123 C 0.00298 0.67069 0.32915
 H124 H 0.09920 0.59939 0.59952
 O125 O 0.06724 0.56753 0.56757
 H126 H -0.09992 0.59980 0.40007
 O127 O -0.06798 0.56784 0.43204
 O128 O 0.19218 0.39894 0.50300
 O129 O -0.19238 0.39917 0.49709
 O130 O 0.10155 0.49772 0.69311
 O131 O 0.10064 0.50301 0.30778
 O132 O -0.10188 0.49783 0.30717
 O133 O -0.10086 0.50252 0.69243
 O134 O 0.00222 0.30742 0.60150
 O135 O -0.00290 0.30800 0.39902
 O136 O 0.00246 0.39846 0.69288
 O137 O -0.00313 0.39929 0.30753
 O138 O 0.19255 0.49781 0.60195
 O139 O -0.19231 0.50288 0.60086
 O140 O -0.19289 0.49784 0.39838
 O141 O 0.19196 0.50268 0.39948
 O142 O 0.10093 0.30773 0.50280
 O143 O -0.10105 0.30795 0.49736
 Zr144 Zr 0.13130 0.50003 0.50049
 Zr145 Zr -0.13178 0.50036 0.49970
 Zr146 Zr 0.00017 0.49985 0.63181
 Zr147 Zr -0.00052 0.50044 0.36819
 Zr148 Zr -0.00012 0.36866 0.50023
 O149 O -0.06804 0.43260 0.43213
 O150 O 0.06792 0.43207 0.56836
 C151 C 0.16982 0.33006 0.50401
 C152 C -0.16987 0.33033 0.49601
 C153 C 0.17048 0.49676 0.67096
 C154 C 0.16954 0.50405 0.33046
 C155 C -0.17073 0.49668 0.32945
 C156 C -0.16979 0.50393 0.66988
 C157 C 0.00335 0.32951 0.67056
 C158 C -0.00422 0.33040 0.33005
 H159 H -0.09936 0.40083 0.59933
 O160 O -0.06754 0.43272 0.56745
 H161 H 0.09889 0.40098 0.40090
 O162 O 0.06705 0.43284 0.43270
 O163 O 0.30838 0.10027 0.50215
 O164 O 0.69290 0.10030 0.49763
 O165 O 0.49832 0.19163 0.60103
 O166 O 0.50306 0.19152 0.39907
 O167 O 0.50298 0.10042 0.30768
 O168 O 0.49845 0.10044 0.69250
 O169 O 0.60150 0.19144 0.49748
 O170 O 0.39957 0.19153 0.50229
 Zr171 Zr 0.50062 0.13064 0.50004
 O172 O 0.56828 0.06688 0.43239
 O173 O 0.43292 0.06711 0.56781
 C174 C 0.33070 0.16916 0.50339
 C175 C 0.67034 0.16911 0.49631
 C176 C 0.49719 0.16934 0.67002
 C177 C 0.50423 0.16922 0.33021
 H178 H 0.60027 0.09858 0.59960
 O179 O 0.56840 0.06665 0.56762
 H180 H 0.40116 0.09861 0.40032
 O181 O 0.43315 0.06667 0.43227
 O182 O 0.69342 -0.10210 0.50280
 O183 O 0.30860 -0.10168 0.49721
 O184 O 0.60212 -0.00316 0.69275
 O185 O 0.60125 0.00198 0.30765
 O186 O 0.39931 -0.00337 0.30745
 O187 O 0.39976 0.00168 0.69228
 O188 O 0.50377 -0.19281 0.60114
 O189 O 0.49828 -0.19331 0.39859
 O190 O 0.50367 -0.10149 0.69237
 O191 O 0.49800 -0.10195 0.30727
 O192 O 0.69326 -0.00341 0.60166
 O193 O 0.30845 0.00156 0.60065
 O194 O 0.30834 -0.00329 0.39868
 O195 O 0.69278 0.00195 0.39912
 O196 O 0.60222 -0.19338 0.50254
 O197 O 0.39980 -0.19301 0.49725
 Zr198 Zr 0.63236 -0.00092 0.50028
 Zr199 Zr 0.36934 -0.00075 0.49980
 Zr200 Zr 0.50094 -0.00064 0.63162
 Zr201 Zr 0.50049 -0.00085 0.36835
 Zr202 Zr 0.50100 -0.13239 0.49985
 O203 O 0.43287 -0.06860 0.43204
 O204 O 0.56865 -0.06856 0.56801
 C205 C 0.67118 -0.17108 0.50378
 C206 C 0.33097 -0.17050 0.49605
 C207 C 0.67095 -0.00442 0.67053
 C208 C 0.67014 0.00325 0.33017
 C209 C 0.33057 -0.00452 0.32985
 C210 C 0.33080 0.00277 0.66968
 C211 C 0.50492 -0.17023 0.66994
 C212 C 0.49699 -0.17094 0.32956
 H213 H 0.40176 -0.10010 0.59918
 O214 O 0.43364 -0.06826 0.56730
 H215 H 0.60007 -0.10016 0.40066
 O216 O 0.56827 -0.06831 0.43251
 C217 C 0.22587 0.22649 -0.00483
 C218 C 0.27348 0.27411 -0.00464
 C219 C 0.22643 -0.27399 0.49513
 C220 C 0.27428 -0.22679 0.49503
 C221 C 0.77495 0.77576 -0.00468
 C222 C 0.72721 0.72802 -0.00434
 C223 C 0.77381 0.27366 0.49495
 C224 C 0.72660 0.22582 0.49505
 C225 C 0.77326 0.22636 0.00474
 C226 C 0.72605 0.27420 0.00523
 C227 C 0.77577 -0.27565 0.50437
 C228 C 0.72803 -0.22791 0.50461
 C229 C 0.22645 0.27340 0.50485
 C230 C 0.27406 0.22578 0.50464
 C231 C 0.22574 0.77394 0.00489
 C232 C 0.27359 0.72674 0.00498
 C233 C -0.00530 0.22616 0.22591
 C234 C -0.00532 0.27378 0.27347
 C235 C 0.49559 0.27388 0.77402
 C236 C 0.49588 0.22610 0.72657
 C237 C -0.00577 0.77381 0.77333
 C238 C -0.00546 0.72626 0.72592
 C239 C 0.49601 -0.27535 0.22491
 C240 C 0.49597 -0.22768 0.27268
 C241 C 0.00389 0.77542 0.22421
 C242 C 0.00394 0.72763 0.27211
 C243 C 0.50552 -0.27356 0.77426
 C244 C 0.50584 -0.22638 0.72651
 C245 C 0.50540 0.27396 0.22672
 C246 C 0.50538 0.22599 0.27390
 C247 C 0.00368 0.22447 0.77505
 C248 C 0.00400 0.27245 0.72739
 C249 C 0.22612 -0.00548 0.22591
 C250 C 0.27390 -0.00557 0.27337
 C251 C 0.27544 0.49629 0.77581
 C252 C 0.22753 0.49605 0.72796
 C253 C 0.77527 -0.00506 0.77510
 C254 C 0.72761 -0.00530 0.72734
 C255 C -0.27546 0.49584 0.22496
 C256 C -0.22762 0.49570 0.27266
 C257 C 0.22598 0.00416 0.77324
 C258 C 0.27395 0.00396 0.72606
 C259 C 0.27387 0.50533 0.22669
 C260 C 0.22619 0.50524 0.27406
 C261 C 0.77356 0.00462 0.22580
 C262 C 0.72637 0.00453 0.27354
 C263 C -0.27383 0.50540 0.77407
 C264 C -0.22633 0.50521 0.72647
   
