data_POSCAR
  _audit_creation_date              2014-09-24
  _audit_creation_method            'ToBaCCo'
  _symmetry_space_group_name_H-M    'P1'
  _symmetry_Int_Tables_number       1
  _symmetry_cell_setting            triclinic
  loop_
  _symmetry_equiv_pos_as_xyz
 x,y,z
_cell_length_a 15.6187
_cell_length_b 15.9396
_cell_length_c 29.3318
_cell_angle_alpha 88.133800
_cell_angle_beta 89.805000
_cell_angle_gamma 91.220600
loop_
  _atom_site_label
  _atom_site_type_symbol
  _atom_site_fract_x
  _atom_site_fract_y
  _atom_site_fract_z
O1 O 0.07813 0.57815 1.04204
 O2 O 0.05009 0.41796 0.95548
 O3 O 0.07706 0.57851 0.95343
 O4 O 0.05464 0.41513 1.04425
 O5 O -0.08518 0.43182 1.04509
 O6 O -0.06206 0.59837 0.95537
 O7 O -0.08971 0.43562 0.95691
 O8 O -0.06167 0.59457 1.04433
 Cu9 Cu 0.07895 0.49566 0.99883
 Cu10 Cu -0.08865 0.51712 1.00058
 C11 C 0.01306 0.61403 1.05790
 C12 C -0.02460 0.39931 0.94149
 C13 C 0.01162 0.61679 0.93879
 C14 C -0.01914 0.39452 1.05975
 O15 O 0.42691 0.06089 0.54208
 O16 O 0.59859 0.04244 0.45624
 O17 O 0.43486 0.06659 0.45433
 O18 O 0.59321 0.04593 0.54557
 O19 O 0.57334 -0.09153 0.54813
 O20 O 0.41632 -0.07104 0.45447
 O21 O 0.58080 -0.09511 0.45959
 O22 O 0.40676 -0.07688 0.54264
 Cu23 Cu 0.51598 0.06765 0.49959
 Cu24 Cu 0.49267 -0.09744 0.50148
 C25 C 0.38633 -0.00510 0.55588
 C26 C 0.61897 -0.02984 0.44307
 C27 C 0.39780 0.00186 0.43899
 C28 C 0.61050 -0.02584 0.56263
 Si29 Si 0.00400 -0.00801 0.24800
 Si30 Si 0.00248 0.02019 0.75311
 C31 C 0.10645 -0.28529 0.09989
 C32 C 0.02463 -0.32018 0.09196
 C33 C -0.04603 -0.29055 0.11610
 C34 C -0.03516 -0.22661 0.14752
 C35 C 0.04728 -0.19115 0.15457
 C36 C 0.11762 -0.22111 0.13075
 C37 C 0.05792 -0.12599 0.18514
 C38 C -0.01226 -0.09722 0.20960
 C39 C -0.09393 -0.13241 0.20251
 C40 C -0.10536 -0.19683 0.17171
 H41 H -0.10943 -0.31715 0.11047
 H42 H 0.18125 -0.19473 0.13586
 H43 H 0.12083 -0.09763 0.18995
 H44 H -0.16911 -0.22287 0.16656
 H45 H 0.16189 -0.30676 0.08170
 H46 H -0.14923 -0.10921 0.22004
 C47 C -0.10976 0.29016 0.10486
 C48 C -0.02843 0.32531 0.09442
 C49 C 0.04405 0.29194 0.11620
 C50 C 0.03550 0.22384 0.14757
 C51 C -0.04651 0.18807 0.15705
 C52 C -0.11869 0.22197 0.13574
 C53 C -0.05486 0.11866 0.18744
 C54 C 0.01730 0.08585 0.20931
 C55 C 0.09849 0.12151 0.19992
 C56 C 0.10760 0.19014 0.16926
 H57 H 0.10712 0.31861 0.10862
 H58 H -0.18201 0.19545 0.14274
 H59 H -0.11751 0.09022 0.19418
 H60 H 0.17100 0.21647 0.16226
 H61 H -0.16657 0.31445 0.08850
 H62 H 0.15510 0.09561 0.21564
 C63 C 0.22991 0.00301 0.56609
 C64 C 0.31160 0.00160 0.58562
 C65 C 0.32063 0.00326 0.63312
 C66 C 0.24766 0.00603 0.66116
 C67 C 0.16533 0.00762 0.64121
 C68 C 0.15717 0.00629 0.59365
 C69 C 0.09243 0.01066 0.66904
 C70 C 0.10028 0.01200 0.71664
 C71 C 0.18216 0.01026 0.73621
 C72 C 0.25531 0.00718 0.70875
 H73 H 0.38401 0.00155 0.64805
 H74 H 0.09460 0.00740 0.57782
 H75 H 0.02992 0.01263 0.65332
 H76 H 0.31777 0.00627 0.72470
 H77 H 0.22257 0.00125 0.52941
 H78 H 0.18972 0.01289 0.77282
 C79 C -0.29121 -0.11064 0.61252
 C80 C -0.32441 -0.03239 0.59910
 C81 C -0.29278 0.04047 0.61969
 C82 C -0.22762 0.03564 0.65238
 C83 C -0.19323 -0.04314 0.66478
 C84 C -0.22603 -0.11595 0.64500
 C85 C -0.12564 -0.04743 0.69612
 C86 C -0.09256 0.02591 0.71527
 C87 C -0.12791 0.10363 0.70344
 C88 C -0.19511 0.10852 0.67224
 H89 H -0.31810 0.10122 0.60991
 H90 H -0.20058 -0.17686 0.65422
 H91 H -0.09771 -0.10746 0.70496
 H92 H -0.22072 0.16941 0.66310
 H93 H -0.31441 -0.16766 0.59722
 H94 H -0.10242 0.16089 0.71748
 C95 C 0.10191 -0.30359 0.88385
 C96 C 0.02129 -0.32006 0.90443
 C97 C -0.04867 -0.27119 0.89033
 C98 C -0.03770 -0.20600 0.85731
 C99 C 0.04358 -0.19053 0.83709
 C100 C 0.11268 -0.24009 0.85033
 C101 C 0.05492 -0.12477 0.80454
 C102 C -0.01319 -0.07241 0.79300
 C103 C -0.09391 -0.08852 0.81292
 C104 C -0.10632 -0.15511 0.84459
 H105 H -0.11131 -0.28236 0.90568
 H106 H 0.17548 -0.22898 0.83521
 H107 H 0.11714 -0.11407 0.78909
 H108 H -0.16922 -0.16602 0.85960
 H109 H 0.15719 -0.33991 0.89354
 H110 H -0.14768 -0.04965 0.80397
 C111 C -0.11177 0.28542 0.90616
 C112 C -0.03557 0.33372 0.90752
 C113 C 0.03133 0.31711 0.87723
 C114 C 0.02298 0.25192 0.84648
 C115 C -0.05258 0.20150 0.84656
 C116 C -0.11999 0.21939 0.87616
 C117 C -0.05885 0.13342 0.81751
 C118 C 0.00907 0.11558 0.78819
 C119 C 0.08186 0.16873 0.78662
 C120 C 0.08922 0.23583 0.81587
 H121 H 0.08992 0.35481 0.87766
 H122 H -0.17861 0.18177 0.87647
 H123 H -0.11620 0.09406 0.81806
 H124 H 0.14694 0.27480 0.81475
 H125 H -0.16409 0.29721 0.92926
 H126 H 0.13377 0.15859 0.76321
 C127 C -0.28884 -0.11843 0.39850
 C128 C -0.31638 -0.03813 0.41012
 C129 C -0.27831 0.03306 0.38782
 C130 C -0.21468 0.02406 0.35447
 C131 C -0.18701 -0.05692 0.34387
 C132 C -0.22443 -0.12761 0.36608
 C133 C -0.12214 -0.06588 0.31134
 C134 C -0.08649 0.00482 0.28820
 C135 C -0.11417 0.08506 0.29872
 C136 C -0.17786 0.09469 0.33161
 H137 H -0.29869 0.09549 0.39588
 H138 H -0.20413 -0.19013 0.35824
 H139 H -0.09921 -0.12780 0.30410
 H140 H -0.19789 0.15732 0.33938
 H141 H -0.31638 -0.17472 0.41483
 H142 H -0.08537 0.14055 0.28229
 C143 C 0.29804 0.09257 0.39423
 C144 C 0.33114 0.01249 0.40368
 C145 C 0.29824 -0.05663 0.38021
 C146 C 0.23249 -0.04587 0.34809
 C147 C 0.19874 0.03480 0.33970
 C148 C 0.23228 0.10356 0.36271
 C149 C 0.13125 0.04528 0.30886
 C150 C 0.09818 -0.02331 0.28549
 C151 C 0.13198 -0.10319 0.29363
 C152 C 0.19887 -0.11443 0.32467
 H153 H 0.32337 -0.11862 0.38706
 H154 H 0.20726 0.16579 0.35658
 H155 H 0.10396 0.10674 0.30327
 H156 H 0.22353 -0.17680 0.33076
 H157 H 0.32193 0.14686 0.41187
 H158 H 0.10552 -0.15732 0.27688
   
