data_POSCAR
  _audit_creation_date              2014-09-24
  _audit_creation_method            'ToBaCCo'
  _symmetry_space_group_name_H-M    'P1'
  _symmetry_Int_Tables_number       1
  _symmetry_cell_setting            triclinic
  loop_
  _symmetry_equiv_pos_as_xyz
 x,y,z
_cell_length_a 32.5277
_cell_length_b 33.1163
_cell_length_c 33.2682
_cell_angle_alpha 90.067600
_cell_angle_beta 89.298900
_cell_angle_gamma 89.827000
loop_
  _atom_site_label
  _atom_site_type_symbol
  _atom_site_fract_x
  _atom_site_fract_y
  _atom_site_fract_z
C1 C 0.20473 0.15346 0.21260
 C2 C 0.18673 0.13589 0.24671
 C3 C 0.15196 0.15306 0.26560
 C4 C 0.13495 0.18880 0.24894
 C5 C 0.15269 0.20676 0.21442
 C6 C 0.18782 0.18896 0.19640
 C7 C 0.23971 0.13589 0.19477
 C8 C 0.25866 0.15345 0.16063
 C9 C 0.24139 0.18900 0.14475
 C10 C 0.20631 0.20676 0.16229
 C11 C 0.18966 0.24219 0.14621
 C12 C 0.15449 0.26025 0.16334
 C13 C 0.13616 0.24239 0.19774
 H14 H 0.20026 0.10855 0.25883
 H15 H 0.10818 0.20312 0.26219
 H16 H 0.25159 0.10871 0.20825
 H17 H 0.25536 0.20309 0.11853
 H18 H 0.20409 0.25579 0.11998
 H19 H 0.10972 0.25635 0.21215
 C20 C -0.20065 0.85155 0.19895
 C21 C -0.18194 0.86924 0.23224
 C22 C -0.14823 0.85081 0.25099
 C23 C -0.13271 0.81418 0.23482
 C24 C -0.15103 0.79633 0.20117
 C25 C -0.18524 0.81498 0.18331
 C26 C -0.23501 0.86983 0.18163
 C27 C -0.25495 0.85182 0.14869
 C28 C -0.23891 0.81534 0.13310
 C29 C -0.20432 0.79690 0.15007
 C30 C -0.18886 0.76038 0.13458
 C31 C -0.15423 0.74180 0.15178
 C32 C -0.13585 0.75986 0.18529
 H33 H -0.19433 0.89737 0.24408
 H34 H -0.10662 0.79903 0.24780
 H35 H -0.24570 0.89784 0.19467
 H36 H -0.25358 0.80097 0.10771
 H37 H -0.20454 0.74629 0.10977
 H38 H -0.10950 0.74547 0.19897
 C39 C -0.20189 0.15452 -0.20662
 C40 C -0.18364 0.13777 -0.24115
 C41 C -0.14952 0.15610 -0.25954
 C42 C -0.13287 0.19125 -0.24238
 C43 C -0.15071 0.20825 -0.20762
 C44 C -0.18544 0.18987 -0.18974
 C45 C -0.23656 0.13644 -0.18908
 C46 C -0.25561 0.15331 -0.15452
 C47 C -0.23857 0.18856 -0.13777
 C48 C -0.20380 0.20689 -0.15509
 C49 C -0.18721 0.24210 -0.13839
 C50 C -0.15232 0.26042 -0.15565
 C51 C -0.13445 0.24344 -0.19060
 H52 H -0.19639 0.11057 -0.25418
 H53 H -0.10573 0.20512 -0.25537
 H54 H -0.24801 0.10938 -0.20304
 H55 H -0.25257 0.20204 -0.11117
 H56 H -0.20137 0.25524 -0.11173
 H57 H -0.10854 0.25783 -0.20532
 C58 C 0.21531 0.84309 -0.20796
 C59 C 0.19855 0.86296 -0.24093
 C60 C 0.16215 0.84948 -0.25878
 C61 C 0.14233 0.81488 -0.24242
 C62 C 0.15902 0.79444 -0.20901
 C63 C 0.19568 0.80879 -0.19187
 C64 C 0.25163 0.85728 -0.19085
 C65 C 0.26860 0.83796 -0.15750
 C66 C 0.24951 0.80321 -0.14192
 C67 C 0.21310 0.78867 -0.15881
 C68 C 0.19411 0.75420 -0.14310
 C69 C 0.15701 0.73977 -0.15902
 C70 C 0.13993 0.75990 -0.19238
 H71 H 0.21425 0.88932 -0.25285
 H72 H 0.11429 0.80347 -0.25522
 H73 H 0.26653 0.88387 -0.20318
 H74 H 0.26305 0.78712 -0.11703
 H75 H 0.20907 0.73839 -0.11888
 H76 H 0.11173 0.74868 -0.20527
 C77 C 0.14927 1.20331 0.79190
 C78 C 0.13102 1.18536 0.75830
 C79 C 0.14851 1.15072 0.73982
 C80 C 0.18469 1.13431 0.75638
 C81 C 0.20317 1.15185 0.79016
 C82 C 0.18538 1.18655 0.80786
 C83 C 0.13185 1.23807 0.80952
 C84 C 0.15018 1.25671 0.84311
 C85 C 0.18624 1.23938 0.85867
 C86 C 0.20388 1.20470 0.84138
 C87 C 0.23993 1.18808 0.85710
 C88 C 0.25788 1.15333 0.84012
 C89 C 0.23937 1.13544 0.80633
 H90 H 0.10335 1.19914 0.74712
 H91 H 0.19871 1.10773 0.74286
 H92 H 0.10418 1.25001 0.79642
 H93 H 0.20092 1.25306 0.88443
 H94 H 0.25410 1.20220 0.88289
 H95 H 0.25327 1.10937 0.79193
 C96 C 0.85156 0.78743 0.79770
 C97 C 0.86715 0.79993 0.76053
 C98 C 0.84905 0.83184 0.73946
 C99 C 0.81402 0.85123 0.75649
 C100 C 0.79791 0.83873 0.79396
 C101 C 0.81693 0.80673 0.81465
 C102 C 0.87039 0.75556 0.81785
 C103 C 0.85545 0.74235 0.85553
 C104 C 0.82071 0.76190 0.87237
 C105 C 0.80138 0.79389 0.85221
 C106 C 0.76672 0.81312 0.86898
 C107 C 0.74689 0.84472 0.84838
 C108 C 0.76310 0.85759 0.81111
 H109 H 0.89396 0.78464 0.74798
 H110 H 0.79898 0.87590 0.74131
 H111 H 0.89601 0.74097 0.80288
 H112 H 0.80848 0.75206 0.90122
 H113 H 0.75589 0.80368 0.89836
 H114 H 0.74829 0.88216 0.79527
 C115 C 0.15233 0.78988 1.20970
 C116 C 0.13465 0.80650 1.24471
 C117 C 0.15114 0.84148 1.26237
 C118 C 0.18628 0.85921 1.24475
 C119 C 0.20444 0.84282 1.20977
 C120 C 0.18731 0.80805 1.19217
 C121 C 0.13561 0.75506 1.19230
 C122 C 0.15338 0.73775 1.15725
 C123 C 0.18848 0.75626 1.14028
 C124 C 0.20549 0.79109 1.15738
 C125 C 0.24068 0.80892 1.14030
 C126 C 0.25788 0.84396 1.15728
 C127 C 0.23961 0.86044 1.19223
 H128 H 0.10866 0.79135 1.25845
 H129 H 0.19949 0.88589 1.25834
 H130 H 0.10888 0.74208 1.20673
 H131 H 0.20278 0.74349 1.11348
 H132 H 0.25490 0.79465 1.11437
 H133 H 0.25283 0.88713 1.20579
 C134 C 0.85412 1.20301 1.20217
 C135 C 0.87342 1.18525 1.23500
 C136 C 0.85817 1.14937 1.25224
 C137 C 0.82272 1.13171 1.23551
 C138 C 0.80284 1.14949 1.20258
 C139 C 0.81878 1.18530 1.18581
 C140 C 0.86959 1.23885 1.18599
 C141 C 0.85077 1.25716 1.15292
 C142 C 0.81516 1.23975 1.13694
 C143 C 0.79903 1.20392 1.15318
 C144 C 0.76328 1.18670 1.13761
 C145 C 0.74685 1.15100 1.15395
 C146 C 0.76692 1.13251 1.18661
 H147 H 0.90006 1.20033 1.24670
 H148 H 0.81022 1.10423 1.24844
 H149 H 0.89578 1.25281 1.20009
 H150 H 0.80007 1.25415 1.11182
 H151 H 0.74801 1.20124 1.11267
 H152 H 0.75435 1.10567 1.20049
 N153 N 0.45695 1.04654 0.92951
 N154 N 0.42554 1.05119 0.90518
 N155 N 0.54313 1.07471 0.95656
 N156 N 0.57426 1.09968 0.95158
 N157 N 0.54352 1.04668 0.92862
 N158 N 0.57506 1.05179 0.90382
 N159 N 0.45662 1.07454 0.95749
 N160 N 0.42492 1.09910 0.95286
 C161 C 0.40584 1.08413 0.92007
 C162 C 0.59384 1.08503 0.91861
 N163 N 0.54429 1.04597 1.07057
 N164 N 0.57648 1.05003 1.09403
 N165 N 0.45736 1.07437 1.04420
 N166 N 0.42603 1.09923 1.04963
 N167 N 0.45769 1.04644 1.07216
 N168 N 0.42650 1.05150 1.09741
 N169 N 0.54392 1.07431 1.04298
 N170 N 0.57590 1.09842 1.04697
 Mn171 Mn 0.50020 1.07498 1.00032
 C172 C 0.59586 1.08296 1.07899
 C173 C 0.40712 1.08459 1.08292
 N174 N 0.54376 0.95962 0.92817
 N175 N 0.57477 0.95440 0.90269
 N176 N 0.45712 0.93178 0.95716
 N177 N 0.42636 0.90653 0.95204
 N178 N 0.45728 0.95973 0.92921
 N179 N 0.42653 0.95433 0.90430
 N180 N 0.54358 0.93127 0.95574
 N181 N 0.57455 0.90597 0.94974
 Mn182 Mn 0.50043 1.00316 0.92839
 C183 C 0.59371 0.92084 0.91651
 C184 C 0.40757 0.92108 0.91899
 N185 N 0.45741 0.95955 1.07192
 N186 N 0.42618 0.95500 1.09722
 N187 N 0.54344 0.93096 1.04221
 N188 N 0.57497 0.90617 1.04594
 N189 N 0.54394 0.95895 1.07017
 N190 N 0.57589 0.95397 1.09374
 N191 N 0.45683 0.93164 1.04385
 N192 N 0.42507 0.90735 1.04931
 Mn193 Mn 0.50087 1.00273 1.07170
 Mn194 Mn 0.50019 0.93092 0.99976
 Cl195 Cl 0.50041 1.00294 1.00004
 C196 C 0.40629 0.92235 1.08280
 C197 C 0.59484 0.92086 1.07821
 N198 N 0.04734 0.45629 0.07115
 N199 N 0.05216 0.42550 0.09582
 N200 N 0.07557 0.54147 0.04251
 N201 N 0.10083 0.57223 0.04713
 N202 N 0.04741 0.54122 0.07114
 N203 N 0.05270 0.57181 0.09597
 N204 N 0.07594 0.45614 0.04291
 N205 N 0.10103 0.42502 0.04773
 C206 C 0.08577 0.40622 0.08093
 C207 C 0.08616 0.59085 0.08062
 N208 N 0.04531 0.54072 -0.07182
 N209 N 0.04904 0.57118 -0.09710
 N210 N 0.07493 0.45622 -0.04408
 N211 N 0.10007 0.42524 -0.04939
 N212 N 0.04582 0.45588 -0.07109
 N213 N 0.05035 0.42470 -0.09550
 N214 N 0.07426 0.54172 -0.04465
 N215 N 0.09842 0.57331 -0.05074
 Mn216 Mn 0.07580 0.49894 -0.00085
 C217 C 0.08221 0.59130 -0.08372
 C218 C 0.08437 0.40592 -0.08160
 N219 N -0.04107 0.54152 0.07307
 N220 N -0.04511 0.57293 0.09729
 N221 N -0.07015 0.45706 0.04564
 N222 N -0.09470 0.42575 0.04961
 N223 N -0.04123 0.45639 0.07280
 N224 N -0.04528 0.42431 0.09604
 N225 N -0.06988 0.54173 0.04578
 N226 N -0.09431 0.57331 0.05067
 Mn227 Mn 0.00312 0.49882 0.07254
 C228 C -0.07849 0.59239 0.08300
 C229 C -0.07893 0.40572 0.08115
 N230 N -0.04269 0.45583 -0.06873
 N231 N -0.04758 0.42454 -0.09279
 N232 N -0.07113 0.54090 -0.04045
 N233 N -0.09551 0.57257 -0.04352
 N234 N -0.04289 0.54093 -0.06895
 N235 N -0.04702 0.57298 -0.09206
 N236 N -0.07111 0.45626 -0.04040
 N237 N -0.09618 0.42527 -0.04440
 Mn238 Mn 0.00137 0.49828 -0.07061
 Mn239 Mn -0.07101 0.49903 0.00267
 Cl240 Cl 0.00244 0.49877 0.00095
 C241 C -0.08111 0.40581 -0.07722
 C242 C -0.08009 0.59222 -0.07581
 N243 N 1.07082 0.03666 0.46250
 N244 N 1.09751 0.04016 0.43224
 N245 N 1.03765 0.06590 0.54570
 N246 N 1.04338 0.09091 0.57610
 N247 N 1.06358 0.03546 0.54744
 N248 N 1.08757 0.03891 0.57897
 N249 N 1.04410 0.06645 0.46150
 N250 N 1.05170 0.09079 0.43112
 C251 C 1.08511 0.07431 0.41308
 C252 C 1.07460 0.07357 0.59662
 N253 N 0.91895 0.04755 0.53708
 N254 N 0.89199 0.05461 0.56628
 N255 N 0.95637 0.07307 0.45454
 N256 N 0.95484 0.09800 0.42352
 N257 N 0.92583 0.04735 0.45317
 N258 N 0.90249 0.05410 0.42191
 N259 N 0.94970 0.07300 0.53911
 N260 N 0.94459 0.09809 0.56952
 Mn261 Mn 0.99702 0.07006 0.50023
 C262 C 0.90844 0.08632 0.58611
 C263 C 0.92091 0.08553 0.40361
 N264 N 1.05635 -0.05202 0.54669
 N265 N 1.07867 -0.06158 0.57843
 N266 N 1.03347 -0.07613 0.45918
 N267 N 1.03873 -0.09963 0.42733
 N268 N 1.06407 -0.05051 0.46201
 N269 N 1.09091 -0.05594 0.43245
 N270 N 1.02521 -0.07697 0.54359
 N271 N 1.02533 -0.10384 0.57271
 Mn272 Mn 1.06434 -0.00765 0.50475
 C273 C 1.05862 -0.09402 0.59430
 C274 C 1.07486 -0.08670 0.41112
 N275 N 0.91923 -0.03883 0.45144
 N276 N 0.89674 -0.04182 0.41877
 N277 N 0.93720 -0.06912 0.53775
 N278 N 0.92654 -0.09276 0.56819
 N279 N 0.91159 -0.03856 0.53533
 N280 N 0.88291 -0.04043 0.56344
 N281 N 0.94556 -0.06885 0.45327
 N282 N 0.94186 -0.09303 0.42205
 Mn283 Mn 0.91854 0.00440 0.49424
 Mn284 Mn 0.98535 -0.07327 0.49846
 Cl285 Cl 0.99143 -0.00164 0.49949
 C286 C 0.91130 -0.07581 0.40082
 C287 C 0.89246 -0.07426 0.58366
 C288 C 1.13645 0.13332 0.30034
 C289 C 1.10401 0.14554 0.32259
 C290 C 1.08837 0.12468 0.35917
 C291 C 1.10436 0.09140 0.37641
 H292 H 1.08704 0.17230 0.31456
 H293 H 1.06136 0.13851 0.37277
 H294 H 1.15232 0.10623 0.30962
 H295 H 1.13125 0.07640 0.36417
 C296 C 0.86758 -0.13010 0.28542
 C297 C 0.89805 -0.14448 0.30835
 C298 C 0.91257 -0.12482 0.34558
 C299 C 0.89557 -0.09205 0.36294
 H300 H 0.91363 -0.17230 0.30081
 H301 H 0.93853 -0.13923 0.35985
 H302 H 0.85322 -0.10190 0.29402
 H303 H 0.86954 -0.07666 0.35019
 C304 C 0.86799 0.13688 0.70389
 C305 C 0.89010 0.15673 0.67607
 C306 C 0.90677 0.13728 0.63943
 C307 C 0.88990 0.10485 0.62208
 H308 H 0.89746 0.18826 0.68015
 H309 H 0.93337 0.15142 0.62557
 H310 H 0.86132 0.10519 0.69950
 H311 H 0.86187 0.09168 0.63390
 C312 C 1.14808 -0.12830 0.70776
 C313 C 1.11430 -0.13582 0.68643
 C314 C 1.10395 -0.11002 0.65157
 C315 C 1.07056 -0.11748 0.62998
 H316 H 1.09419 -0.16069 0.69391
 H317 H 1.12388 -0.08511 0.64329
 H318 H 1.16643 -0.10262 0.69819
 H319 H 1.05088 -0.14251 0.63843
 C320 C 0.29420 1.13739 1.14166
 C321 C 0.31425 1.10376 1.15325
 C322 C 0.35175 1.08737 1.13347
 C323 C 0.36985 1.10273 1.10053
 H324 H 0.30390 1.08638 1.17875
 H325 H 0.36497 1.06077 1.14724
 H326 H 0.30587 1.15390 1.11602
 H327 H 0.35774 1.12895 1.08549
 C328 C 0.30652 0.85488 0.85966
 C329 C 0.31660 0.85103 0.89843
 C330 C 0.35323 0.87005 0.91597
 C331 C 0.37127 0.90302 0.90063
 H332 H 0.29771 0.83320 0.91859
 H333 H 0.36456 0.85712 0.94363
 H334 H 0.32577 0.87249 0.83962
 H335 H 0.35913 0.91789 0.87439
 C336 C 0.70953 0.86825 1.13089
 C337 C 0.69020 0.90231 1.14301
 C338 C 0.65226 0.91877 1.12512
 C339 C 0.63268 0.90282 1.09373
 H340 H 0.70135 0.91992 1.16779
 H341 H 0.63988 0.94582 1.13913
 H342 H 0.69704 0.85152 1.10601
 H343 H 0.64395 0.87616 1.07848
 C344 C 0.70893 1.13680 0.86398
 C345 C 0.68856 1.10399 0.85090
 C346 C 0.65098 1.08725 0.86996
 C347 C 0.63118 1.10336 0.90166
 H348 H 0.69879 1.08750 0.82470
 H349 H 0.63895 1.06000 0.85647
 H350 H 0.69758 1.15224 0.89048
 H351 H 0.64181 1.13052 0.91608
 C352 C 0.13927 0.29829 0.14466
 C353 C 0.10093 0.31284 0.14921
 C354 C 0.08567 0.35047 0.13006
 C355 C 0.10345 0.36909 0.09842
 H356 H 0.07913 0.29713 0.16828
 H357 H 0.05715 0.36254 0.14227
 H358 H 0.16082 0.31433 0.12556
 H359 H 0.13087 0.35689 0.08427
 C360 C -0.13650 0.29798 -0.13708
 C361 C -0.09772 0.31105 -0.14197
 C362 C -0.08159 0.34877 -0.12436
 C363 C -0.09904 0.36857 -0.09338
 H364 H -0.07617 0.29406 -0.16034
 H365 H -0.05297 0.35986 -0.13709
 H366 H -0.15786 0.31495 -0.11845
 H367 H -0.12645 0.35723 -0.07865
 C368 C 0.13675 0.70285 -0.14233
 C369 C 0.14337 0.68921 -0.10471
 C370 C 0.12703 0.65122 -0.08710
 C371 C 0.09757 0.62847 -0.10321
 H372 H 0.16270 0.70626 -0.08475
 H373 H 0.13976 0.64222 -0.05852
 H374 H 0.11625 0.68669 -0.16193
 H375 H 0.08307 0.63745 -0.13086
 C376 C -0.13712 0.70293 0.13668
 C377 C -0.14285 0.68893 0.09925
 C378 C -0.12599 0.65025 0.08384
 C379 C -0.09453 0.63025 0.10030
 H380 H -0.16117 0.70595 0.07832
 H381 H -0.13945 0.63871 0.05652
 H382 H -0.11865 0.68577 0.15742
 H383 H -0.07905 0.64199 0.12637
 C384 C 1.13171 0.13185 0.70544
 C385 C 1.09771 0.14430 0.68606
 C386 C 1.08052 0.12519 0.64954
 C387 C 1.09319 0.09017 0.63330
 H388 H 1.08085 0.17060 0.69595
 H389 H 1.05539 0.14125 0.63558
 H390 H 1.14802 0.10576 0.69386
 H391 H 1.11760 0.07277 0.64664
 C392 C 0.86770 -0.15733 0.70261
 C393 C 0.85545 -0.12759 0.67847
 C394 C 0.87928 -0.11825 0.64175
 C395 C 0.86859 -0.08713 0.61896
 H396 H 0.82878 -0.10928 0.68554
 H397 H 0.90630 -0.13601 0.63398
 H398 H 0.89481 -0.17423 0.69310
 H399 H 0.84181 -0.06921 0.62716
 C400 C 1.13369 -0.14067 0.30004
 C401 C 1.09501 -0.14725 0.31338
 C402 C 1.07697 -0.13078 0.35125
 C403 C 1.09452 -0.10255 0.37419
 H404 H 1.07456 -0.16590 0.29607
 H405 H 1.04699 -0.14222 0.35997
 H406 H 1.15383 -0.12123 0.31683
 H407 H 1.12374 -0.08948 0.36576
 C408 C 0.87615 0.13112 0.28614
 C409 C 0.90976 0.14491 0.30533
 C410 C 0.92624 0.12718 0.34263
 C411 C 0.90437 0.10321 0.36691
 H412 H 0.92735 0.17002 0.29402
 H413 H 0.95721 0.13548 0.35092
 H414 H 0.86143 0.10406 0.29727
 H415 H 0.87311 0.09516 0.35994
 C416 C 0.13452 0.29200 -0.13812
 C417 C 0.10077 0.31250 -0.14953
 C418 C 0.08494 0.34982 -0.12999
 C419 C 0.10222 0.36877 -0.09881
 H420 H 0.08277 0.30251 -0.17461
 H421 H 0.05714 0.36235 -0.14263
 H422 H 0.15146 0.30312 -0.11271
 H423 H 0.12988 0.35752 -0.08511
 C424 C -0.13345 0.29537 0.13580
 C425 C -0.09414 0.30719 0.13935
 C426 C -0.07801 0.34596 0.12434
 C427 C -0.09617 0.36770 0.09581
 H428 H -0.07217 0.28834 0.15466
 H429 H -0.04905 0.35605 0.13651
 H430 H -0.15530 0.31407 0.12012
 H431 H -0.12376 0.35717 0.08143
 C432 C -0.12715 0.70940 -0.12387
 C433 C -0.09247 0.69005 -0.13553
 C434 C -0.07651 0.65281 -0.11716
 C435 C -0.09717 0.63021 -0.09058
 H436 H -0.07352 0.70109 -0.15989
 H437 H -0.04655 0.64274 -0.12776
 H438 H -0.14313 0.69932 -0.09706
 H439 H -0.12713 0.63894 -0.07920
 C440 C 0.13793 0.70273 0.13831
 C441 C 0.10462 0.68181 0.15065
 C442 C 0.08856 0.64505 0.13087
 C443 C 0.10451 0.62747 0.09783
 H444 H 0.08705 0.69103 0.17675
 H445 H 0.06156 0.63183 0.14492
 H446 H 0.15446 0.69234 0.11189
 H447 H 0.13129 0.63949 0.08264
 C448 C 0.29654 1.13791 0.85810
 C449 C 0.31068 1.10002 0.85354
 C450 C 0.34902 1.08457 0.87180
 C451 C 0.36806 1.10159 0.90313
 H452 H 0.29412 1.07880 0.83516
 H453 H 0.36119 1.05670 0.85932
 H454 H 0.31345 1.15890 0.87648
 H455 H 0.35566 1.12830 0.91757
 C456 C 0.29574 0.86322 1.14048
 C457 C 0.30961 0.85749 1.10259
 C458 C 0.34787 0.87514 1.08547
 C459 C 0.36863 0.90591 1.10166
 H460 H 0.29281 0.83830 1.08235
 H461 H 0.35864 0.86248 1.05719
 H462 H 0.31241 0.88286 1.16044
 H463 H 0.35778 0.92041 1.12892
 C464 C 0.70788 1.13544 1.13680
 C465 C 0.69382 1.09765 1.14186
 C466 C 0.65475 1.08244 1.12498
 C467 C 0.63437 1.09987 1.09469
 H468 H 0.71089 1.07634 1.15974
 H469 H 0.64310 1.05453 1.13762
 H470 H 0.69037 1.15649 1.11899
 H471 H 0.64618 1.12662 1.08007
 C472 C 0.71000 0.86573 0.86528
 C473 C 0.68455 0.84902 0.89273
 C474 C 0.64785 0.86901 0.91077
 C475 C 0.63064 0.90315 0.89725
 H476 H 0.69039 0.81876 0.90337
 H477 H 0.63380 0.85376 0.93621
 H478 H 0.70369 0.89565 0.85395
 H479 H 0.64296 0.91852 0.87116
   
