data_POSCAR
  _audit_creation_date              2014-09-24
  _audit_creation_method            'ToBaCCo'
  _symmetry_space_group_name_H-M    'P1'
  _symmetry_Int_Tables_number       1
  _symmetry_cell_setting            triclinic
  loop_
  _symmetry_equiv_pos_as_xyz
 x,y,z
_cell_length_a 37.0596
_cell_length_b 38.0949
_cell_length_c 7.1995
_cell_angle_alpha 91.318800
_cell_angle_beta 89.979100
_cell_angle_gamma 90.083200
loop_
  _atom_site_label
  _atom_site_type_symbol
  _atom_site_fract_x
  _atom_site_fract_y
  _atom_site_fract_z
O1 O 0.29071 0.21746 0.38417
 O2 O 0.22550 0.28457 0.24578
 O3 O 0.29049 0.28538 0.38232
 O4 O 0.22551 0.21632 0.24872
 O5 O 0.20414 0.21791 0.53553
 O6 O 0.26928 0.28729 0.66947
 O7 O 0.20395 0.28617 0.53216
 O8 O 0.26955 0.21886 0.67137
 Cu9 Cu 0.26036 0.25077 0.28704
 Cu10 Cu 0.23439 0.25271 0.63056
 C11 C 0.29149 0.20703 0.54995
 C12 C 0.20344 0.29654 0.36603
 C13 C 0.29116 0.29784 0.54701
 C14 C 0.20357 0.20561 0.37036
 O15 O 0.79150 0.28177 0.13721
 O16 O 0.72659 0.21423 0.27685
 O17 O 0.79177 0.21381 0.14136
 O18 O 0.72634 0.28236 0.27341
 O19 O 0.70496 0.28033 -0.01333
 O20 O 0.77069 0.21155 -0.14592
 O21 O 0.70518 0.21222 -0.00970
 O22 O 0.77032 0.28001 -0.14983
 Cu23 Cu 0.76140 0.24823 0.23537
 Cu24 Cu 0.73550 0.24582 -0.10817
 C25 C 0.79217 0.29215 -0.02872
 C26 C 0.70456 0.20208 0.15684
 C27 C 0.79260 0.20127 -0.02311
 C28 C 0.70428 0.29270 0.15169
 O29 O 0.72790 0.78706 0.71947
 O30 O 0.79285 0.71806 0.83567
 O31 O 0.72790 0.71886 0.69920
 O32 O 0.79307 0.78600 0.85506
 O33 O 0.77179 0.78444 1.14161
 O34 O 0.70620 0.71705 0.98488
 O35 O 0.77150 0.71600 1.12203
 O36 O 0.70642 0.78525 1.00565
 Cu37 Cu 0.76275 0.75268 0.74920
 Cu38 Cu 0.73665 0.75052 1.09194
 C39 C 0.70591 0.79762 0.84365
 C40 C 0.79341 0.70552 0.99715
 C41 C 0.70578 0.70678 0.81606
 C42 C 0.79378 0.79638 1.02346
 O43 O 0.29194 0.78397 0.64267
 O44 O 0.22724 0.71477 0.76159
 O45 O 0.29241 0.71601 0.62650
 O46 O 0.22680 0.78305 0.77799
 O47 O 0.20549 0.78407 0.49145
 O48 O 0.27139 0.71682 0.33931
 O49 O 0.20601 0.71581 0.47480
 O50 O 0.27093 0.78528 0.35555
 Cu51 Cu 0.26191 0.74935 0.73038
 Cu52 Cu 0.23613 0.75061 0.38685
 C53 C 0.29267 0.79615 0.48041
 C54 C 0.20544 0.70374 0.63748
 C55 C 0.29328 0.70524 0.45872
 C56 C 0.20477 0.79471 0.65963
 C57 C 1.00201 0.09139 0.02285
 C58 C 1.03366 0.07426 0.07741
 C59 C 1.03434 0.03739 0.07866
 C60 C 1.00365 0.01767 0.02682
 C61 C 0.97237 0.03547 -0.02935
 C62 C 0.97116 0.07225 -0.02945
 C63 C 1.00374 -0.02136 0.03449
 C64 C 0.97232 -0.03942 0.08711
 C65 C 0.97109 -0.07622 0.08358
 C66 C 1.00214 -0.09511 0.03260
 C67 C 1.03394 -0.07770 -0.01821
 C68 C 1.03459 -0.04082 -0.01654
 H69 H 1.00120 0.11982 0.02463
 H70 H 1.05835 0.02418 0.12657
 H71 H 0.94882 0.02072 -0.07436
 H72 H 0.94860 -0.02486 0.13077
 H73 H 1.00133 -0.12354 0.02783
 H74 H 1.05867 -0.02740 -0.06241
 C75 C 0.50297 0.59369 0.44336
 C76 C 0.53461 0.57618 0.49447
 C77 C 0.53417 0.53946 0.50744
 C78 C 0.50269 0.52012 0.46610
 C79 C 0.47142 0.53823 0.41258
 C80 C 0.47108 0.57501 0.40481
 C81 C 0.50216 0.48118 0.48147
 C82 C 0.47082 0.46391 0.54193
 C83 C 0.46940 0.42717 0.54899
 C84 C 0.50014 0.40760 0.50011
 C85 C 0.53183 0.42423 0.44134
 C86 C 0.53262 0.46100 0.43206
 H87 H 0.50276 0.62213 0.44297
 H88 H 0.55834 0.52605 0.55141
 H89 H 0.44715 0.52376 0.37661
 H90 H 0.44738 0.47900 0.58459
 H91 H 0.49919 0.37920 0.50408
 H92 H 0.55659 0.47371 0.37968
 C93 C 0.00067 0.40490 -0.01429
 C94 C -0.03020 0.42281 -0.07258
 C95 C -0.02906 0.45951 -0.08371
 C96 C 0.00219 0.47849 -0.03289
 C97 C 0.03287 0.45996 0.02539
 C98 C 0.03224 0.42319 0.03544
 C99 C 0.00224 0.51759 -0.03539
 C100 C 0.03334 0.53623 -0.08762
 C101 C 0.03300 0.57306 -0.09384
 C102 C 0.00129 0.59126 -0.04682
 C103 C -0.02996 0.57324 0.00579
 C104 C -0.02918 0.53649 0.01274
 H105 H -0.00009 0.37659 -0.00370
 H106 H -0.05266 0.47324 -0.13275
 H107 H 0.05680 0.47414 0.07012
 H108 H 0.05750 0.52216 -0.12940
 H109 H 0.00081 0.61963 -0.05365
 H110 H -0.05308 0.52270 0.05789
 C111 C 0.50100 0.90958 0.53190
 C112 C 0.46985 0.92792 0.48164
 C113 C 0.47078 0.96472 0.48037
 C114 C 0.50218 0.98333 0.53239
 C115 C 0.53315 0.96439 0.58249
 C116 C 0.53271 0.92752 0.58266
 C117 C 0.50231 1.02244 0.53616
 C118 C 0.53315 1.04126 0.48214
 C119 C 0.53274 1.07810 0.47810
 C120 C 0.50114 1.09616 0.52907
 C121 C 0.47007 1.07794 0.58293
 C122 C 0.47107 1.04117 0.58868
 H123 H 0.50042 0.88116 0.53431
 H124 H 0.44698 0.97878 0.43674
 H125 H 0.55727 0.97824 0.62729
 H126 H 0.55707 1.02728 0.43595
 H127 H 0.50051 1.12454 0.52273
 H128 H 0.44736 1.02718 0.63478
 C129 C 1.12486 0.13768 0.23782
 C130 C 1.09041 0.14588 0.30525
 C131 C 1.06094 0.12483 0.25594
 C132 C 1.17818 0.18134 0.32251
 C133 C 1.10031 0.08661 0.07423
 C134 C 1.12985 0.10783 0.12348
 C135 C 1.15452 0.16077 0.28262
 C136 C 1.06548 0.09522 0.13805
 H137 H 1.08626 0.16883 0.39441
 H138 H 1.03452 0.13177 0.30954
 H139 H 1.10450 0.06408 -0.01768
 H140 H 1.15641 0.10128 0.07035
 C141 C 0.62708 0.63851 0.64569
 C142 C 0.61688 0.61025 0.75512
 C143 C 0.58732 0.58935 0.70362
 C144 C 0.67908 0.68177 0.75550
 C145 C 0.57840 0.62465 0.43147
 C146 C 0.60800 0.64543 0.48289
 C147 C 0.65581 0.66159 0.70506
 C148 C 0.56750 0.59663 0.54245
 H149 H 0.63131 0.60482 0.88212
 H150 H 0.57925 0.56821 0.79281
 H151 H 0.56382 0.63060 0.30568
 H152 H 0.61564 0.66727 0.39737
 C153 C -0.12703 0.36166 -0.12727
 C154 C -0.12813 0.39503 -0.04205
 C155 C -0.09699 0.41575 -0.03280
 C156 C -0.18101 0.31745 -0.07812
 C157 C -0.06387 0.37037 -0.20129
 C158 C -0.09506 0.34971 -0.21056
 C159 C -0.15704 0.33802 -0.10731
 C160 C -0.06427 0.40321 -0.10773
 H161 H -0.15262 0.40438 0.02475
 H162 H -0.09805 0.44073 0.04193
 H163 H -0.03917 0.36025 -0.26232
 H164 H -0.09383 0.32383 -0.27587
 C165 C 0.37325 0.86705 0.40744
 C166 C 0.40524 0.85628 0.32004
 C167 C 0.43636 0.87689 0.33664
 C168 C 0.31940 0.82211 0.43972
 C169 C 0.40316 0.91993 0.52147
 C170 C 0.37209 0.89924 0.50496
 C171 C 0.34330 0.84311 0.41828
 C172 C 0.43588 0.90849 0.44167
 H173 H 0.40653 0.83130 0.24530
 H174 H 0.46107 0.86768 0.27173
 H175 H 0.40205 0.94394 0.60475
 H176 H 0.34760 0.90762 0.57514
 C177 C -0.12617 0.63470 0.07140
 C178 C -0.09416 0.64571 0.15798
 C179 C -0.06318 0.62494 0.14409
 C180 C -0.17988 0.67959 0.03717
 C181 C -0.09654 0.58130 -0.03643
 C182 C -0.12749 0.60216 -0.02270
 C183 C -0.15604 0.65861 0.05897
 C184 C -0.06382 0.59293 0.04270
 H185 H -0.09276 0.67096 0.22999
 H186 H -0.03844 0.63433 0.20821
 H187 H -0.09774 0.55698 -0.11704
 H188 H -0.15199 0.59359 -0.09228
 C189 C 0.37291 1.13824 0.64338
 C190 C 0.40481 1.15014 0.72786
 C191 C 0.43613 1.12977 0.71629
 C192 C 0.31854 1.18199 0.59857
 C193 C 0.40330 1.08482 0.54238
 C194 C 0.37204 1.10523 0.55405
 C195 C 0.34271 1.16164 0.62620
 C196 C 0.43593 1.09729 0.61913
 H197 H 0.40586 1.17576 0.79619
 H198 H 0.46075 1.13985 0.77863
 H199 H 0.40238 1.06015 0.46473
 H200 H 0.34763 1.09595 0.48619
 C201 C 1.12541 -0.13961 -0.18925
 C202 C 1.09094 -0.14787 -0.25619
 C203 C 1.06135 -0.12741 -0.20254
 C204 C 1.17913 -0.18183 -0.28585
 C205 C 1.10065 -0.08973 -0.01672
 C206 C 1.13030 -0.11037 -0.07036
 C207 C 1.15528 -0.16195 -0.24023
 C208 C 1.06581 -0.09834 -0.08071
 H209 H 1.08686 -0.17036 -0.34876
 H210 H 1.03494 -0.13430 -0.25652
 H211 H 1.10478 -0.06759 0.07797
 H212 H 1.15688 -0.10378 -0.01749
 C213 C 0.62321 0.36074 0.28700
 C214 C 0.58861 0.35139 0.22587
 C215 C 0.55902 0.37231 0.27402
 C216 C 0.67714 0.31796 0.20204
 C217 C 0.59856 0.41253 0.44261
 C218 C 0.62821 0.39146 0.39453
 C219 C 0.65315 0.33809 0.24190
 C220 C 0.56360 0.40293 0.38436
 H221 H 0.58446 0.32774 0.14207
 H222 H 0.53251 0.36457 0.22467
 H223 H 0.60281 0.43585 0.52876
 H224 H 0.65489 0.39890 0.44272
 C225 C 0.87336 -0.13570 0.13335
 C226 C 0.87305 -0.10342 0.04457
 C227 C 0.90445 -0.08316 0.03677
 C228 C 0.81930 -0.17985 0.07594
 C229 C 0.93624 -0.12668 0.21443
 C230 C 0.90478 -0.14691 0.22197
 C231 C 0.84331 -0.15932 0.10986
 C232 C 0.93667 -0.09506 0.11714
 H233 H 0.84902 -0.09470 -0.02655
 H234 H 0.90401 -0.05920 -0.04121
 H235 H 0.96053 -0.13627 0.27954
 H236 H 0.90540 -0.17199 0.28993
 C237 C 0.37199 0.36863 0.62970
 C238 C 0.40375 0.35858 0.71911
 C239 C 0.43514 0.37864 0.70130
 C240 C 0.31796 0.32376 0.59292
 C241 C 0.40260 0.41979 0.51189
 C242 C 0.37127 0.39969 0.52982
 C243 C 0.34196 0.34473 0.61733
 C244 C 0.43514 0.40891 0.59293
 H245 H 0.40469 0.33443 0.79561
 H246 H 0.45970 0.36988 0.76709
 H247 H 0.40185 0.44272 0.42577
 H248 H 0.34698 0.40747 0.45797
 C249 C 0.12533 0.63437 -0.24410
 C250 C 0.09159 0.64110 -0.32253
 C251 C 0.06182 0.62054 -0.27724
 C252 C 0.17876 0.67798 -0.31768
 C253 C 0.09956 0.58556 -0.07828
 C254 C 0.12939 0.60632 -0.12343
 C255 C 0.15508 0.65740 -0.28289
 C256 C 0.06535 0.59289 -0.15249
 H257 H 0.08816 0.66266 -0.41655
 H258 H 0.03590 0.62642 -0.33857
 H259 H 0.10293 0.56455 0.01900
 H260 H 0.15540 0.60093 -0.06167
 C261 C 0.62478 1.13761 0.30372
 C262 C 0.59038 1.14541 0.23649
 C263 C 0.56058 1.12571 0.29117
 C264 C 0.67884 1.17885 0.20850
 C265 C 0.59954 1.08971 0.47851
 C266 C 0.62939 1.10957 0.42394
 C267 C 0.65484 1.15935 0.25286
 C268 C 0.56477 1.09788 0.41427
 H269 H 0.58651 1.16700 0.14314
 H270 H 0.53421 1.13225 0.23720
 H271 H 0.60346 1.06855 0.57440
 H272 H 0.65590 1.10338 0.47726
 C273 C 0.12331 0.36344 0.21719
 C274 C 0.12837 0.39083 0.09321
 C275 C 0.09888 0.41094 0.03699
 C276 C 0.17657 0.32139 0.31232
 C277 C 0.05941 0.37658 0.23089
 C278 C 0.08885 0.35665 0.28719
 C279 C 0.15289 0.34121 0.26829
 C280 C 0.06402 0.40364 0.10332
 H281 H 0.15493 0.39625 0.03781
 H282 H 0.10311 0.43149 -0.06221
 H283 H 0.03297 0.37076 0.28651
 H284 H 0.08463 0.33559 0.38356
 C285 C 0.62519 0.86619 0.72767
 C286 C 0.59128 0.85845 0.80181
 C287 C 0.56140 0.87891 0.75784
 C288 C 0.67902 0.82314 0.79959
 C289 C 0.59936 0.91568 0.56860
 C290 C 0.62929 0.89504 0.61241
 C291 C 0.65514 0.84346 0.76557
 C292 C 0.56502 0.90745 0.63876
 H293 H 0.58782 0.83626 0.89168
 H294 H 0.53538 0.87231 0.81621
 H295 H 0.60282 0.93739 0.47572
 H296 H 0.65542 0.90122 0.55403
 C297 C 0.87397 0.13121 -0.10498
 C298 C 0.90596 0.14188 -0.19048
 C299 C 0.93731 0.12180 -0.17392
 C300 C 0.81962 0.17559 -0.06837
 C301 C 0.90431 0.07949 0.00687
 C302 C 0.87303 0.09962 -0.00971
 C303 C 0.84378 0.15484 -0.09248
 C304 C 0.93703 0.09088 -0.07070
 H305 H 0.90707 0.16643 -0.26334
 H306 H 0.96200 0.13096 -0.23713
 H307 H 0.90334 0.05604 0.08890
 H308 H 0.84855 0.09135 0.05913
 C309 C 0.37405 0.63540 0.35512
 C310 C 0.40518 0.64543 0.25956
 C311 C 0.43638 0.62489 0.26769
 C312 C 0.32025 0.67999 0.40583
 C313 C 0.40488 0.58347 0.46060
 C314 C 0.37376 0.60401 0.45216
 C315 C 0.34423 0.65932 0.37515
 C316 C 0.43684 0.59416 0.37252
 H317 H 0.40578 0.66982 0.18502
 H318 H 0.46043 0.63355 0.19651
 H319 H 0.40446 0.56024 0.54444
 H320 H 0.34997 0.59622 0.52858
   
