data_POSCAR
  _audit_creation_date              2014-09-24
  _audit_creation_method            'ToBaCCo'
  _symmetry_space_group_name_H-M    'P1'
  _symmetry_Int_Tables_number       1
  _symmetry_cell_setting            triclinic
  loop_
  _symmetry_equiv_pos_as_xyz
 x,y,z
_cell_length_a 55.3743
_cell_length_b 59.6057
_cell_length_c 40.7743
_cell_angle_alpha 89.851300
_cell_angle_beta 90.098000
_cell_angle_gamma 89.896500
loop_
  _atom_site_label
  _atom_site_type_symbol
  _atom_site_fract_x
  _atom_site_fract_y
  _atom_site_fract_z
C1 C 1.26932 0.22615 0.26491
 C2 C 1.25004 0.23853 0.25158
 C3 C 1.22972 0.22721 0.23935
 C4 C 1.22885 0.20374 0.24007
 C5 C 1.24804 0.19150 0.25362
 C6 C 1.26825 0.20269 0.26616
 C7 C 1.25139 0.26325 0.24993
 C8 C 1.27152 0.27365 0.23552
 C9 C 1.27289 0.29708 0.23393
 C10 C 1.25436 0.31020 0.24721
 C11 C 1.23436 0.29996 0.26182
 C12 C 1.23274 0.27652 0.26291
 H13 H 1.28499 0.23483 0.27457
 H14 H 1.21491 0.23663 0.22860
 H15 H 1.28587 0.26349 0.22519
 H16 H 1.21727 0.26863 0.27439
 H17 H 1.24728 0.17331 0.25419
 H18 H 1.25549 0.32837 0.24627
 C19 C 0.76780 -0.27666 0.26340
 C20 C 0.74931 -0.26321 0.25015
 C21 C 0.72902 -0.27343 0.23588
 C22 C 0.72729 -0.29682 0.23471
 C23 C 0.74561 -0.31013 0.24823
 C24 C 0.76581 -0.30011 0.26272
 C25 C 0.75099 -0.23850 0.25133
 C26 C 0.77151 -0.22746 0.23913
 C27 C 0.77260 -0.20399 0.23924
 C28 C 0.75343 -0.19148 0.25214
 C29 C 0.73306 -0.20239 0.26464
 C30 C 0.73177 -0.22583 0.26403
 H31 H 0.78339 -0.26887 0.27475
 H32 H 0.71479 -0.26319 0.22530
 H33 H 0.78627 -0.23710 0.22881
 H34 H 0.71592 -0.23422 0.27365
 H35 H 0.74408 -0.32828 0.24750
 H36 H 0.75428 -0.17330 0.25222
 C37 C 0.77137 0.22768 -0.24020
 C38 C 0.75070 0.23830 -0.25297
 C39 C 0.73181 0.22521 -0.26564
 C40 C 0.73358 0.20179 -0.26566
 C41 C 0.75409 0.19131 -0.25261
 C42 C 0.77294 0.20422 -0.23975
 C43 C 0.74854 0.26300 -0.25247
 C44 C 0.76701 0.27654 -0.26535
 C45 C 0.76460 0.29995 -0.26528
 C46 C 0.74395 0.30988 -0.25183
 C47 C 0.72564 0.29650 -0.23871
 C48 C 0.72781 0.27312 -0.23922
 H49 H 0.78588 0.23763 -0.22990
 H50 H 0.71585 0.23325 -0.27571
 H51 H 0.78295 0.26882 -0.27591
 H52 H 0.71358 0.26283 -0.22890
 H53 H 0.75531 0.17315 -0.25225
 H54 H 0.74210 0.32802 -0.25158
 C55 C 1.27091 -0.27202 -0.23642
 C56 C 1.25030 -0.26208 -0.25047
 C57 C 1.23169 -0.27578 -0.26251
 C58 C 1.23382 -0.29917 -0.26084
 C59 C 1.25431 -0.30895 -0.24663
 C60 C 1.27281 -0.29540 -0.23431
 C61 C 1.24842 -0.23742 -0.25274
 C62 C 1.26744 -0.22491 -0.26627
 C63 C 1.26590 -0.20151 -0.26806
 C64 C 1.24549 -0.19045 -0.25593
 C65 C 1.22653 -0.20279 -0.24221
 C66 C 1.22787 -0.22624 -0.24089
 H67 H 1.28525 -0.26154 -0.22680
 H68 H 1.21585 -0.26827 -0.27374
 H69 H 1.28331 -0.23340 -0.27566
 H70 H 1.21326 -0.23573 -0.22993
 H71 H 1.25583 -0.32709 -0.24526
 H72 H 1.24445 -0.17228 -0.25695
 C73 C 0.22524 0.26882 0.74139
 C74 C 0.23723 0.24988 0.75407
 C75 C 0.22360 0.23196 0.76671
 C76 C 0.19829 0.23309 0.76700
 C77 C 0.18652 0.25198 0.75404
 C78 C 0.19997 0.26980 0.74111
 C79 C 0.26394 0.24897 0.75437
 C80 C 0.27729 0.26681 0.76771
 C81 C 0.30259 0.26606 0.76796
 C82 C 0.31466 0.24764 0.75438
 C83 C 0.30153 0.22990 0.74079
 C84 C 0.27622 0.23044 0.74106
 H85 H 0.23558 0.28264 0.73132
 H86 H 0.23274 0.21739 0.77686
 H87 H 0.26795 0.28109 0.77823
 H88 H 0.26611 0.21672 0.73036
 H89 H 0.16694 0.25286 0.75402
 H90 H 0.33425 0.24712 0.75424
 C91 C 0.72452 0.76875 0.73963
 C92 C 0.73683 0.75038 0.75356
 C93 C 0.72352 0.73262 0.76727
 C94 C 0.69822 0.73326 0.76725
 C95 C 0.68611 0.75150 0.75303
 C96 C 0.69919 0.76919 0.73907
 C97 C 0.76354 0.74954 0.75350
 C98 C 0.77710 0.76755 0.76592
 C99 C 0.80239 0.76646 0.76645
 C100 C 0.81424 0.74755 0.75394
 C101 C 0.80088 0.72964 0.74121
 C102 C 0.77561 0.73056 0.74126
 H103 H 0.73467 0.78238 0.72865
 H104 H 0.73290 0.71847 0.77826
 H105 H 0.76796 0.78215 0.77575
 H106 H 0.76532 0.71666 0.73136
 H107 H 0.66650 0.75187 0.75270
 H108 H 0.83381 0.74676 0.75417
 C109 C 0.72401 0.26783 0.23390
 C110 C 0.73746 0.25012 0.24767
 C111 C 0.72531 0.23154 0.26105
 C112 C 0.70001 0.23083 0.26095
 C113 C 0.68680 0.24845 0.24694
 C114 C 0.69874 0.26689 0.23330
 C115 C 0.76415 0.25117 0.24818
 C116 C 0.77592 0.27017 0.26077
 C117 C 0.80118 0.27126 0.26117
 C118 C 0.81482 0.25350 0.24846
 C119 C 0.80326 0.23458 0.23561
 C120 C 0.77798 0.23332 0.23578
 H121 H 0.73320 0.28215 0.22326
 H122 H 0.73550 0.21790 0.27205
 H123 H 0.76541 0.28395 0.27064
 H124 H 0.76907 0.21870 0.22566
 H125 H 0.66722 0.24784 0.24672
 H126 H 0.83439 0.25443 0.24850
 C127 C 0.22181 0.76694 0.23658
 C128 C 0.23565 0.74910 0.24920
 C129 C 0.22391 0.73017 0.26216
 C130 C 0.19863 0.72913 0.26273
 C131 C 0.18496 0.74688 0.24978
 C132 C 0.19651 0.76574 0.23654
 C133 C 0.26234 0.75007 0.24851
 C134 C 0.27464 0.76862 0.26168
 C135 C 0.29995 0.76926 0.26142
 C136 C 0.31302 0.75160 0.24744
 C137 C 0.30092 0.73320 0.23400
 C138 C 0.27566 0.73234 0.23478
 H139 H 0.23077 0.78148 0.22620
 H140 H 0.23450 0.71643 0.27218
 H141 H 0.26456 0.78228 0.27263
 H142 H 0.26635 0.71805 0.22430
 H143 H 0.16537 0.74599 0.24993
 H144 H 0.33260 0.75216 0.24708
 N145 N 1.04347 0.02343 0.03636
 N146 N 1.05977 0.03905 0.04221
 N147 N 1.02649 -0.02366 0.05923
 N148 N 1.03066 -0.03961 0.08109
 N149 N 1.04322 -0.02374 0.03643
 N150 N 1.05923 -0.03973 0.04212
 N151 N 1.02671 0.02353 0.05913
 N152 N 1.03115 0.03923 0.08112
 C153 C 1.05165 0.04885 0.06995
 C154 C 1.05100 -0.04954 0.06985
 N155 N 0.95767 -0.02317 0.03609
 N156 N 0.94146 -0.03891 0.04176
 N157 N 0.97459 0.02389 0.05896
 N158 N 0.97037 0.03982 0.08071
 N159 N 0.95789 0.02399 0.03603
 N160 N 0.94187 0.03997 0.04152
 N161 N 0.97439 -0.02330 0.05899
 N162 N 0.97001 -0.03913 0.08089
 Mn163 Mn 1.00054 0.00012 0.05943
 C164 C 0.94958 -0.04880 0.06954
 C165 C 0.95005 0.04975 0.06925
 N166 N 1.04321 -0.02364 -0.03428
 N167 N 1.05920 -0.03963 -0.03984
 N168 N 1.02684 0.02369 -0.05726
 N169 N 1.03127 0.03956 -0.07912
 N170 N 1.04355 0.02353 -0.03435
 N171 N 1.05979 0.03927 -0.03996
 N172 N 1.02649 -0.02350 -0.05717
 N173 N 1.03063 -0.03939 -0.07896
 Mn174 Mn 1.04360 -0.00010 0.00104
 C175 C 1.05092 -0.04938 -0.06754
 C176 C 1.05173 0.04919 -0.06776
 N177 N 0.95797 0.02408 -0.03465
 N178 N 0.94195 0.04004 -0.04039
 N179 N 0.97440 -0.02318 -0.05742
 N180 N 0.97001 -0.03899 -0.07928
 N181 N 0.95767 -0.02310 -0.03461
 N182 N 0.94145 -0.03883 -0.04030
 N183 N 0.97474 0.02402 -0.05741
 N184 N 0.97058 0.03994 -0.07929
 Mn185 Mn 0.95756 0.00045 0.00072
 Mn186 Mn 1.00062 0.00026 -0.05767
 Cl187 Cl 1.00058 0.00018 0.00088
 C188 C 0.95025 0.04987 -0.06806
 C189 C 0.94954 -0.04867 -0.06803
 N190 N 0.97508 0.52460 0.44285
 N191 N 0.95858 0.52912 0.42034
 N192 N 1.02571 0.53988 0.46653
 N193 N 1.04161 0.55574 0.46002
 N194 N 1.02585 0.52452 0.44347
 N195 N 1.04185 0.52958 0.42061
 N196 N 0.97499 0.54000 0.46584
 N197 N 0.95844 0.55539 0.45966
 C198 C 0.94823 0.54820 0.43149
 C199 C 1.05178 0.54886 0.43168
 N200 N 1.02509 0.52400 0.56006
 N201 N 1.04144 0.52836 0.58278
 N202 N 0.97453 0.53980 0.53650
 N203 N 0.95863 0.55568 0.54305
 N204 N 0.97434 0.52429 0.55944
 N205 N 0.95828 0.52925 0.58227
 N206 N 1.02524 0.53956 0.53719
 N207 N 1.04170 0.55491 0.54367
 Mn208 Mn 1.00012 0.53999 0.50152
 C209 C 1.05179 0.54750 0.57187
 C210 C 0.94841 0.54865 0.57131
 N211 N 1.02577 0.47602 0.44340
 N212 N 1.04248 0.47158 0.42125
 N213 N 0.97483 0.46060 0.46553
 N214 N 0.95886 0.44490 0.45861
 N215 N 0.97500 0.47612 0.44258
 N216 N 0.95914 0.47133 0.41937
 N217 N 1.02554 0.46047 0.46629
 N218 N 1.04208 0.44505 0.46039
 Mn219 Mn 1.00043 0.50032 0.44274
 C220 C 1.05263 0.45239 0.43253
 C221 C 0.94900 0.45203 0.43011
 N222 N 0.97422 0.47579 0.55916
 N223 N 0.95750 0.47132 0.58129
 N224 N 1.02508 0.46016 0.53692
 N225 N 1.04097 0.44429 0.54371
 N226 N 1.02498 0.47551 0.55998
 N227 N 1.04082 0.47044 0.58315
 N228 N 0.97436 0.46040 0.53616
 N229 N 0.95777 0.44505 0.54197
 Mn230 Mn 0.99965 0.49990 0.55999
 Mn231 Mn 0.99995 0.46023 0.50122
 Cl232 Cl 1.00004 0.50011 0.50137
 C233 C 0.94727 0.45228 0.56990
 C234 C 1.05087 0.45113 0.57227
 N235 N 0.54336 0.02280 0.53434
 N236 N 0.56011 0.03792 0.54058
 N237 N 0.52636 -0.02426 0.55720
 N238 N 0.53087 -0.03998 0.57931
 N239 N 0.54300 -0.02433 0.53427
 N240 N 0.55926 -0.04006 0.54011
 N241 N 0.52672 0.02291 0.55727
 N242 N 0.53172 0.03811 0.57978
 C243 C 0.55238 0.04749 0.56868
 C244 C 0.55128 -0.04977 0.56804
 N245 N 0.45750 -0.02354 0.53430
 N246 N 0.44107 -0.03904 0.54011
 N247 N 0.47457 0.02340 0.55733
 N248 N 0.47013 0.03898 0.57953
 N249 N 0.45785 0.02359 0.53443
 N250 N 0.44160 0.03927 0.54039
 N251 N 0.47423 -0.02378 0.55719
 N252 N 0.46961 -0.03946 0.57925
 Mn253 Mn 0.50047 -0.00043 0.55760
 C254 C 0.44906 -0.04893 0.56794
 C255 C 0.44967 0.04882 0.56834
 N256 N 0.54282 -0.02414 0.46363
 N257 N 0.55904 -0.03984 0.45770
 N258 N 0.52653 0.02321 0.44078
 N259 N 0.53116 0.03889 0.41872
 N260 N 0.54325 0.02299 0.46368
 N261 N 0.55970 0.03849 0.45786
 N262 N 0.52609 -0.02396 0.44074
 N263 N 0.53051 -0.03955 0.41856
 Mn264 Mn 0.54333 -0.00067 0.49897
 C265 C 0.55092 -0.04942 0.42980
 C266 C 0.55174 0.04836 0.42998
 N267 N 0.45777 0.02376 0.46378
 N268 N 0.44152 0.03949 0.45792
 N269 N 0.47396 -0.02349 0.44075
 N270 N 0.46924 -0.03906 0.41864
 N271 N 0.45732 -0.02337 0.46367
 N272 N 0.44083 -0.03883 0.45782
 N273 N 0.47440 0.02369 0.44085
 N274 N 0.46991 0.03938 0.41871
 Mn275 Mn 0.45739 0.00011 0.49905
 Mn276 Mn 0.50025 -0.00014 0.44042
 Cl277 Cl 0.50036 -0.00028 0.49901
 C278 C 0.44953 0.04920 0.43002
 C279 C 0.44868 -0.04856 0.42990
 N280 N 0.54204 0.52376 0.03373
 N281 N 0.55788 0.53986 0.03904
 N282 N 0.52518 0.47669 0.05678
 N283 N 0.52930 0.46075 0.07866
 N284 N 0.54198 0.47662 0.03407
 N285 N 0.55797 0.46065 0.03982
 N286 N 0.52521 0.52387 0.05640
 N287 N 0.52913 0.54006 0.07779
 C288 C 0.54942 0.54992 0.06639
 C289 C 0.54968 0.45084 0.06750
 N290 N 0.45649 0.47692 0.03316
 N291 N 0.44063 0.46080 0.03833
 N292 N 0.47315 0.52405 0.05596
 N293 N 0.46878 0.53998 0.07764
 N294 N 0.45655 0.52407 0.03291
 N295 N 0.44043 0.53998 0.03823
 N296 N 0.47312 0.47687 0.05617
 N297 N 0.46905 0.46072 0.07767
 Mn298 Mn 0.49917 0.50037 0.05670
 C299 C 0.44887 0.45081 0.06596
 C300 C 0.44846 0.54982 0.06600
 N301 N 0.54220 0.47648 -0.03653
 N302 N 0.55785 0.46009 -0.04131
 N303 N 0.52584 0.52369 -0.05994
 N304 N 0.53027 0.53956 -0.08179
 N305 N 0.54243 0.52363 -0.03689
 N306 N 0.55860 0.53944 -0.04238
 N307 N 0.52557 0.47650 -0.05953
 N308 N 0.52942 0.46013 -0.08064
 Mn309 Mn 0.54241 0.50013 -0.00140
 C310 C 0.54948 0.45002 -0.06871
 C311 C 0.55062 0.54928 -0.07026
 N312 N 0.45695 0.52402 -0.03770
 N313 N 0.44139 0.54042 -0.04297
 N314 N 0.47352 0.47675 -0.06017
 N315 N 0.46930 0.46081 -0.08187
 N316 N 0.45672 0.47687 -0.03746
 N317 N 0.44063 0.46102 -0.04305
 N318 N 0.47379 0.52394 -0.06036
 N319 N 0.47015 0.54029 -0.08171
 Mn320 Mn 0.45643 0.50047 -0.00228
 Mn321 Mn 0.49968 0.50022 -0.06038
 Cl322 Cl 0.49942 0.50030 -0.00184
 C323 C 0.45001 0.55044 -0.07030
 C324 C 0.44886 0.45109 -0.07061
 C325 C 1.20873 0.19205 0.22576
 C326 C 1.19234 0.18186 0.21329
 C327 C 1.17338 0.16920 0.19792
 C328 C 1.15689 0.15716 0.21704
 C329 C 1.13948 0.14367 0.20200
 C330 C 1.13838 0.14203 0.16759
 C331 C 1.15474 0.15457 0.14860
 C332 C 1.17212 0.16803 0.16369
 C333 C 1.12103 0.12655 0.15156
 C334 C 1.10928 0.13271 0.12224
 C335 C 1.09410 0.11754 0.10618
 C336 C 1.09045 0.09608 0.11923
 C337 C 1.10171 0.08996 0.14868
 C338 C 1.11688 0.10507 0.16477
 C339 C 1.07609 0.07993 0.10179
 C340 C 1.06462 0.06597 0.08720
 H341 H 1.15773 0.15793 0.24356
 H342 H 1.12696 0.13443 0.21727
 H343 H 1.15460 0.15342 0.12211
 H344 H 1.18490 0.17717 0.14866
 H345 H 1.11190 0.14920 0.11167
 H346 H 1.08548 0.12245 0.08339
 H347 H 1.09912 0.07333 0.15888
 H348 H 1.12592 0.09970 0.18701
 C349 C 1.21541 0.68666 0.72552
 C350 C 1.20052 0.67430 0.71387
 C351 C 1.18332 0.65911 0.69969
 C352 C 1.18896 0.63629 0.69716
 C353 C 1.17262 0.62150 0.68261
 C354 C 1.15039 0.62938 0.67039
 C355 C 1.14480 0.65234 0.67329
 C356 C 1.16119 0.66711 0.68783
 C357 C 1.13327 0.61380 0.65423
 C358 C 1.10830 0.61558 0.65994
 C359 C 1.09214 0.60128 0.64401
 C360 C 1.10072 0.58503 0.62222
 C361 C 1.12554 0.58296 0.61662
 C362 C 1.14173 0.59723 0.63254
 C363 C 1.08392 0.57109 0.60477
 C364 C 1.06949 0.55996 0.58987
 H365 H 1.20604 0.62994 0.70631
 H366 H 1.17730 0.60389 0.68110
 H367 H 1.12797 0.65895 0.66373
 H368 H 1.15671 0.68477 0.68955
 H369 H 1.10127 0.62798 0.67680
 H370 H 1.07295 0.60303 0.64850
 H371 H 1.13234 0.57052 0.59963
 H372 H 1.16083 0.59564 0.62734
 C373 C 0.71433 0.18849 0.72091
 C374 C 0.69836 0.17723 0.70949
 C375 C 0.67957 0.16359 0.69563
 C376 C 0.66899 0.16960 0.66567
 C377 C 0.65144 0.15584 0.65151
 C378 C 0.64429 0.13586 0.66714
 C379 C 0.65477 0.13017 0.69751
 C380 C 0.67231 0.14395 0.71163
 C381 C 0.62665 0.12062 0.65126
 C382 C 0.63039 0.09727 0.65187
 C383 C 0.61436 0.08290 0.63590
 C384 C 0.59437 0.09162 0.61912
 C385 C 0.59030 0.11480 0.61864
 C386 C 0.60634 0.12923 0.63462
 C387 C 0.57865 0.07669 0.60154
 C388 C 0.56622 0.06366 0.58661
 H389 H 0.67455 0.18474 0.65304
 H390 H 0.64394 0.16053 0.62792
 H391 H 0.64942 0.11505 0.71034
 H392 H 0.68037 0.13917 0.73486
 H393 H 0.64604 0.09015 0.66401
 H394 H 0.61775 0.06499 0.63624
 H395 H 0.57488 0.12172 0.60569
 H396 H 0.60285 0.14711 0.63402
 C397 C 0.70694 0.69269 0.21918
 C398 C 0.69028 0.68338 0.20598
 C399 C 0.67096 0.67159 0.19002
 C400 C 0.65107 0.66414 0.20812
 C401 C 0.63323 0.65118 0.19304
 C402 C 0.63512 0.64549 0.15967
 C403 C 0.65490 0.65353 0.14153
 C404 C 0.67271 0.66647 0.15665
 C405 C 0.61733 0.63021 0.14420
 C406 C 0.60955 0.63380 0.11173
 C407 C 0.59432 0.61836 0.09637
 C408 C 0.58666 0.59921 0.11328
 C409 C 0.59381 0.59578 0.14584
 C410 C 0.60902 0.61119 0.16123
 C411 C 0.57274 0.58235 0.09672
 C412 C 0.56175 0.56777 0.08284
 H413 H 0.64958 0.66800 0.23399
 H414 H 0.61807 0.64543 0.20753
 H415 H 0.65707 0.64916 0.11595
 H416 H 0.68812 0.67205 0.14249
 H417 H 0.61543 0.64843 0.09813
 H418 H 0.58891 0.62114 0.07114
 H419 H 0.58811 0.58092 0.15906
 H420 H 0.61497 0.60778 0.18606
 C421 C 0.79286 -0.19257 0.22484
 C422 C 0.80931 -0.18254 0.21227
 C423 C 0.82832 -0.17001 0.19674
 C424 C 0.84580 -0.15914 0.21572
 C425 C 0.86322 -0.14567 0.20063
 C426 C 0.86334 -0.14290 0.16634
 C427 C 0.84598 -0.15429 0.14746
 C428 C 0.82859 -0.16773 0.16259
 C429 C 0.88070 -0.12737 0.15038
 C430 C 0.89129 -0.13282 0.12007
 C431 C 0.90641 -0.11752 0.10413
 C432 C 0.91114 -0.09662 0.11829
 C433 C 0.90107 -0.09123 0.14872
 C434 C 0.88597 -0.10649 0.16469
 C435 C 0.92537 -0.08026 0.10102
 C436 C 0.93672 -0.06612 0.08659
 H437 H 0.84573 -0.16078 0.24219
 H438 H 0.87652 -0.13733 0.21579
 H439 H 0.84535 -0.15224 0.12108
 H440 H 0.81504 -0.17596 0.14769
 H441 H 0.88780 -0.14886 0.10862
 H442 H 0.91410 -0.12186 0.08057
 H443 H 0.90450 -0.07504 0.15980
 H444 H 0.87783 -0.10165 0.18774
 C445 C 0.78193 0.31320 0.72115
 C446 C 0.79673 0.32544 0.70900
 C447 C 0.81379 0.34058 0.69431
 C448 C 0.83790 0.33414 0.69020
 C449 C 0.85432 0.34891 0.67565
 C450 C 0.84678 0.37029 0.66500
 C451 C 0.82252 0.37660 0.66937
 C452 C 0.80615 0.36183 0.68394
 C453 C 0.86409 0.38586 0.64909
 C454 C 0.85707 0.39863 0.62159
 C455 C 0.87352 0.41294 0.60619
 C456 C 0.89714 0.41472 0.61810
 C457 C 0.90424 0.40224 0.64561
 C458 C 0.88783 0.38791 0.66103
 C459 C 0.91439 0.42864 0.60139
 C460 C 0.92918 0.43978 0.58714
 H461 H 0.84397 0.31770 0.69807
 H462 H 0.87281 0.34346 0.67223
 H463 H 0.81625 0.39304 0.66181
 H464 H 0.78753 0.36699 0.68711
 H465 H 0.83902 0.39720 0.61157
 H466 H 0.86790 0.42241 0.58476
 H467 H 0.92250 0.40347 0.65499
 H468 H 0.89367 0.37851 0.68239
 C469 C 0.28530 -0.18885 0.71763
 C470 C 0.30146 -0.17822 0.70543
 C471 C 0.32053 -0.16541 0.69061
 C472 C 0.33908 -0.15657 0.70998
 C473 C 0.35722 -0.14357 0.69562
 C474 C 0.35702 -0.13928 0.66167
 C475 C 0.33842 -0.14847 0.64238
 C476 C 0.32031 -0.16144 0.65679
 C477 C 0.37559 -0.12466 0.64651
 C478 C 0.38529 -0.12985 0.61556
 C479 C 0.40164 -0.11531 0.60043
 C480 C 0.40856 -0.09546 0.61606
 C481 C 0.39942 -0.09039 0.64715
 C482 C 0.38308 -0.10490 0.66232
 C483 C 0.42377 -0.07960 0.59939
 C484 C 0.43575 -0.06585 0.58516
 H485 H 0.33944 -0.15960 0.73619
 H486 H 0.37144 -0.13693 0.71104
 H487 H 0.33756 -0.14518 0.61627
 H488 H 0.30598 -0.16815 0.64160
 H489 H 0.38010 -0.14508 0.60297
 H490 H 0.40857 -0.11936 0.57632
 H491 H 0.40451 -0.07497 0.65933
 H492 H 0.37570 -0.10029 0.68594
 C493 C 0.29199 0.30721 0.21910
 C494 C 0.30852 0.31664 0.20580
 C495 C 0.32769 0.32858 0.18973
 C496 C 0.34774 0.33589 0.20766
 C497 C 0.36545 0.34897 0.19250
 C498 C 0.36326 0.35493 0.15920
 C499 C 0.34331 0.34704 0.14123
 C500 C 0.32564 0.33397 0.15643
 C501 C 0.38093 0.37030 0.14365
 C502 C 0.38843 0.36694 0.11106
 C503 C 0.40360 0.38245 0.09568
 C504 C 0.41148 0.40144 0.11269
 C505 C 0.40461 0.40464 0.14534
 C506 C 0.38946 0.38917 0.16076
 C507 C 0.42542 0.41833 0.09616
 C508 C 0.43645 0.43294 0.08235
 H509 H 0.34947 0.33182 0.23347
 H510 H 0.38074 0.35459 0.20686
 H511 H 0.34091 0.35161 0.11571
 H512 H 0.31010 0.32852 0.14240
 H513 H 0.38239 0.35244 0.09739
 H514 H 0.40880 0.37984 0.07037
 H515 H 0.41049 0.41937 0.15864
 H516 H 0.38373 0.39240 0.18568
 C517 C 0.79336 0.19324 -0.22487
 C518 C 0.80994 0.18351 -0.21194
 C519 C 0.82908 0.17127 -0.19603
 C520 C 0.84751 0.16146 -0.21458
 C521 C 0.86506 0.14817 -0.19926
 C522 C 0.86435 0.14448 -0.16517
 C523 C 0.84605 0.15484 -0.14667
 C524 C 0.82853 0.16811 -0.16203
 C525 C 0.88183 0.12903 -0.14911
 C526 C 0.89133 0.13391 -0.11790
 C527 C 0.90645 0.11856 -0.10192
 C528 C 0.91230 0.09818 -0.11693
 C529 C 0.90336 0.09338 -0.14824
 C530 C 0.88825 0.10869 -0.16426
 C531 C 0.92640 0.08165 -0.09963
 C532 C 0.93760 0.06737 -0.08517
 H533 H 0.84807 0.16378 -0.24093
 H534 H 0.87909 0.14064 -0.21410
 H535 H 0.84478 0.15207 -0.12047
 H536 H 0.81424 0.17550 -0.14747
 H537 H 0.88695 0.14954 -0.10578
 H538 H 0.91327 0.12243 -0.07766
 H539 H 0.90765 0.07759 -0.15999
 H540 H 0.88095 0.10428 -0.18803
 C541 C 0.78309 0.68671 0.27675
 C542 C 0.79785 0.67454 0.28933
 C543 C 0.81485 0.65949 0.30453
 C544 C 0.83936 0.66505 0.30619
 C545 C 0.85575 0.65035 0.32115
 C546 C 0.84779 0.62991 0.33467
 C547 C 0.82312 0.62447 0.33276
 C548 C 0.80679 0.63917 0.31778
 C549 C 0.86508 0.61442 0.35097
 C550 C 0.85873 0.60335 0.38024
 C551 C 0.87517 0.58909 0.39592
 C552 C 0.89812 0.58566 0.38256
 C553 C 0.90456 0.59644 0.35333
 C554 C 0.88815 0.61073 0.33761
 C555 C 0.91542 0.57180 0.39947
 C556 C 0.93020 0.56069 0.41394
 H557 H 0.84577 0.68077 0.29606
 H558 H 0.87457 0.65513 0.32261
 H559 H 0.81650 0.60874 0.34255
 H560 H 0.78786 0.63468 0.31651
 H561 H 0.84123 0.60609 0.39136
 H562 H 0.87008 0.58095 0.41867
 H563 H 0.92231 0.59393 0.34281
 H564 H 0.89345 0.61878 0.31491
 C565 C 0.28677 0.19078 0.27971
 C566 C 0.30300 0.18015 0.29191
 C567 C 0.32209 0.16726 0.30678
 C568 C 0.34031 0.15790 0.28737
 C569 C 0.35837 0.14471 0.30177
 C570 C 0.35842 0.14074 0.33581
 C571 C 0.34018 0.15047 0.35514
 C572 C 0.32215 0.16363 0.34069
 C573 C 0.37685 0.12586 0.35102
 C574 C 0.38688 0.13107 0.38180
 C575 C 0.40308 0.11631 0.39701
 C576 C 0.40948 0.09621 0.38164
 C577 C 0.40000 0.09110 0.35072
 C578 C 0.38382 0.10583 0.33547
 C579 C 0.42453 0.08016 0.39840
 C580 C 0.43638 0.06627 0.41271
 H581 H 0.34045 0.16065 0.26109
 H582 H 0.37232 0.13765 0.28631
 H583 H 0.33950 0.14745 0.38131
 H584 H 0.30807 0.17073 0.35592
 H585 H 0.38210 0.14649 0.39420
 H586 H 0.41027 0.12040 0.42099
 H587 H 0.40470 0.07549 0.33873
 H588 H 0.37617 0.10119 0.31199
 C589 C 0.29243 0.69492 -0.21993
 C590 C 0.30942 0.68583 -0.20704
 C591 C 0.32908 0.67421 -0.19144
 C592 C 0.34879 0.66684 -0.20997
 C593 C 0.36686 0.65383 -0.19528
 C594 C 0.36537 0.64801 -0.16188
 C595 C 0.34580 0.65604 -0.14329
 C596 C 0.32777 0.66903 -0.15802
 C597 C 0.38322 0.63249 -0.14688
 C598 C 0.39135 0.63577 -0.11453
 C599 C 0.40647 0.61999 -0.09950
 C600 C 0.41368 0.60081 -0.11663
 C601 C 0.40625 0.59772 -0.14910
 C602 C 0.39114 0.61346 -0.16417
 C603 C 0.42734 0.58357 -0.10031
 C604 C 0.43805 0.56865 -0.08661
 H605 H 0.34994 0.67075 -0.23588
 H606 H 0.38184 0.64810 -0.21011
 H607 H 0.34394 0.65156 -0.11767
 H608 H 0.31249 0.67453 -0.14354
 H609 H 0.38577 0.65038 -0.10074
 H610 H 0.41211 0.62250 -0.07432
 H611 H 0.41159 0.58284 -0.16248
 H612 H 0.38491 0.61029 -0.18891
 C613 C 1.20621 -0.19123 -0.22822
 C614 C 1.18965 -0.18115 -0.21598
 C615 C 1.17052 -0.16860 -0.20080
 C616 C 1.15987 -0.17643 -0.17186
 C617 C 1.14256 -0.16340 -0.15577
 C618 C 1.13571 -0.14234 -0.16844
 C619 C 1.14614 -0.13486 -0.19795
 C620 C 1.16345 -0.14791 -0.21397
 C621 C 1.11867 -0.12772 -0.15023
 C622 C 1.10127 -0.11485 -0.16706
 C623 C 1.08638 -0.09994 -0.15003
 C624 C 1.08866 -0.09774 -0.11601
 C625 C 1.10554 -0.11081 -0.09896
 C626 C 1.12044 -0.12574 -0.11593
 C627 C 1.07466 -0.08119 -0.09882
 C628 C 1.06352 -0.06689 -0.08447
 H629 H 1.16525 -0.19242 -0.16144
 H630 H 1.13464 -0.16972 -0.13331
 H631 H 1.14152 -0.11860 -0.20807
 H632 H 1.17171 -0.14163 -0.23624
 H633 H 1.09930 -0.11620 -0.19341
 H634 H 1.07338 -0.08986 -0.16346
 H635 H 1.10756 -0.10912 -0.07265
 H636 H 1.13388 -0.13516 -0.10233
 C637 C 1.21593 0.31368 0.27642
 C638 C 1.20100 0.32565 0.28889
 C639 C 1.18373 0.34035 0.30406
 C640 C 1.16993 0.33283 0.33059
 C641 C 1.15387 0.34742 0.34616
 C642 C 1.15143 0.36977 0.33539
 C643 C 1.16522 0.37710 0.30849
 C644 C 1.18129 0.36248 0.29298
 C645 C 1.13473 0.38539 0.35234
 C646 C 1.12035 0.40053 0.33431
 C647 C 1.10438 0.41498 0.35035
 C648 C 1.10263 0.41454 0.38458
 C649 C 1.11701 0.39970 0.40274
 C650 C 1.13297 0.38522 0.38676
 C651 C 1.08544 0.42863 0.40109
 C652 C 1.07068 0.43986 0.41527
 H653 H 1.17170 0.31573 0.33936
 H654 H 1.14325 0.34119 0.36650
 H655 H 1.16395 0.39427 0.29988
 H656 H 1.19201 0.36851 0.27258
 H657 H 1.12111 0.40087 0.30778
 H658 H 1.09320 0.42631 0.33606
 H659 H 1.11577 0.39920 0.42925
 H660 H 1.14405 0.37400 0.40134
 C661 C 0.71347 -0.18953 0.27811
 C662 C 0.69720 -0.17866 0.28960
 C663 C 0.67802 -0.16552 0.30358
 C664 C 0.66259 -0.17499 0.32693
 C665 C 0.64453 -0.16195 0.34143
 C666 C 0.64170 -0.13924 0.33271
 C667 C 0.65712 -0.12996 0.30888
 C668 C 0.67516 -0.14303 0.29445
 C669 C 0.62337 -0.12502 0.34921
 C670 C 0.61013 -0.10892 0.33134
 C671 C 0.59400 -0.09459 0.34730
 C672 C 0.59085 -0.09618 0.38127
 C673 C 0.60354 -0.11245 0.39915
 C674 C 0.61967 -0.12680 0.38325
 C675 C 0.57583 -0.08023 0.39808
 C676 C 0.56402 -0.06641 0.41243
 H677 H 0.66464 -0.19240 0.33414
 H678 H 0.63277 -0.16963 0.35943
 H679 H 0.65564 -0.11246 0.30201
 H680 H 0.68709 -0.13550 0.27649
 H681 H 0.61237 -0.10734 0.30506
 H682 H 0.58430 -0.08201 0.33324
 H683 H 0.60138 -0.11369 0.42550
 H684 H 0.62982 -0.13881 0.39775
 C685 C 0.70485 0.30693 -0.22417
 C686 C 0.68788 0.31626 -0.21176
 C687 C 0.66825 0.32816 -0.19668
 C688 C 0.65985 0.32166 -0.16575
 C689 C 0.64223 0.33445 -0.14988
 C690 C 0.63286 0.35394 -0.16477
 C691 C 0.64098 0.35997 -0.19625
 C692 C 0.65859 0.34717 -0.21206
 C693 C 0.61581 0.36870 -0.14687
 C694 C 0.59657 0.37928 -0.16341
 C695 C 0.58184 0.39467 -0.14708
 C696 C 0.58612 0.39963 -0.11406
 C697 C 0.60479 0.38875 -0.09717
 C698 C 0.61954 0.37336 -0.11344
 C699 C 0.57241 0.41689 -0.09801
 C700 C 0.56160 0.43180 -0.08460
 H701 H 0.66726 0.30699 -0.15362
 H702 H 0.63613 0.32926 -0.12581
 H703 H 0.63440 0.37505 -0.20815
 H704 H 0.66512 0.35243 -0.23590
 H705 H 0.59310 0.37583 -0.18905
 H706 H 0.56744 0.40304 -0.16037
 H707 H 0.60835 0.39260 -0.07166
 H708 H 0.63441 0.36576 -0.10016
 C709 C 1.18511 0.21609 -0.21956
 C710 C 1.17329 0.20126 -0.20739
 C711 C 1.15901 0.18378 -0.19257
 C712 C 1.17012 0.16425 -0.18074
 C713 C 1.15630 0.14746 -0.16583
 C714 C 1.13113 0.14999 -0.16251
 C715 C 1.12014 0.16966 -0.17460
 C716 C 1.13399 0.18641 -0.18952
 C717 C 1.11647 0.13227 -0.14629
 C718 C 1.09757 0.13804 -0.12482
 C719 C 1.08402 0.12135 -0.10923
 C720 C 1.08911 0.09868 -0.11490
 C721 C 1.10777 0.09277 -0.13633
 C722 C 1.12136 0.10942 -0.15193
 C723 C 1.07549 0.08146 -0.09836
 C724 C 1.06443 0.06685 -0.08443
 H725 H 1.18948 0.16206 -0.18283
 H726 H 1.16536 0.13268 -0.15640
 H727 H 1.10079 0.17199 -0.17282
 H728 H 1.12519 0.20144 -0.19862
 H729 H 1.09355 0.15545 -0.11963
 H730 H 1.06968 0.12614 -0.09258
 H731 H 1.11186 0.07528 -0.14095
 H732 H 1.13555 0.10442 -0.16863
 C733 C 1.18734 0.71101 0.27624
 C734 C 1.17725 0.69514 0.28847
 C735 C 1.16501 0.67643 0.30344
 C736 C 1.16448 0.67435 0.33762
 C737 C 1.15196 0.65664 0.35232
 C738 C 1.13974 0.64074 0.33300
 C739 C 1.14061 0.64284 0.29863
 C740 C 1.15316 0.66057 0.28397
 C741 C 1.12551 0.62252 0.34874
 C742 C 1.10275 0.61646 0.33618
 C743 C 1.08874 0.60025 0.35202
 C744 C 1.09725 0.58980 0.38057
 C745 C 1.12006 0.59538 0.39293
 C746 C 1.13411 0.61160 0.37712
 C747 C 1.08193 0.57444 0.39821
 C748 C 1.06852 0.56230 0.41331
 H749 H 1.17350 0.68658 0.35295
 H750 H 1.15134 0.65572 0.37883
 H751 H 1.13163 0.63074 0.28307
 H752 H 1.15348 0.66199 0.25748
 H753 H 1.09545 0.62476 0.31468
 H754 H 1.07103 0.59621 0.34238
 H755 H 1.12681 0.58745 0.41506
 H756 H 1.15167 0.61568 0.38717
 C757 C 0.68732 0.21238 0.27585
 C758 C 0.67595 0.19743 0.28844
 C759 C 0.66164 0.18013 0.30357
 C760 C 0.63654 0.18259 0.30528
 C761 C 0.62249 0.16612 0.32047
 C762 C 0.63338 0.14693 0.33420
 C763 C 0.65864 0.14454 0.33220
 C764 C 0.67267 0.16106 0.31700
 C765 C 0.61845 0.12957 0.35071
 C766 C 0.62352 0.10662 0.34645
 C767 C 0.60951 0.09033 0.36213
 C768 C 0.59027 0.09672 0.38229
 C769 C 0.58504 0.11949 0.38665
 C770 C 0.59901 0.13582 0.37096
 C771 C 0.57620 0.07990 0.39893
 C772 C 0.56478 0.06563 0.41302
 H773 H 0.62781 0.19727 0.29491
 H774 H 0.60309 0.16831 0.32120
 H775 H 0.66759 0.13009 0.34288
 H776 H 0.69210 0.15903 0.31593
 H777 H 0.63816 0.10127 0.33070
 H778 H 0.61371 0.07274 0.35857
 H779 H 0.57027 0.12463 0.40233
 H780 H 0.59485 0.15334 0.37510
 C781 C 0.68530 0.71628 -0.21889
 C782 C 0.67354 0.70148 -0.20659
 C783 C 0.65916 0.68408 -0.19186
 C784 C 0.67015 0.66463 -0.17958
 C785 C 0.65615 0.64784 -0.16504
 C786 C 0.63093 0.65030 -0.16255
 C787 C 0.62006 0.66991 -0.17503
 C788 C 0.63409 0.68666 -0.18958
 C789 C 0.61604 0.63255 -0.14688
 C790 C 0.59680 0.63826 -0.12596
 C791 C 0.58301 0.62153 -0.11090
 C792 C 0.58821 0.59889 -0.11658
 C793 C 0.60722 0.59304 -0.13748
 C794 C 0.62105 0.60973 -0.15254
 C795 C 0.57444 0.58163 -0.10045
 C796 C 0.56331 0.56699 -0.08677
 H797 H 0.68955 0.66249 -0.18112
 H798 H 0.66509 0.63309 -0.15529
 H799 H 0.60067 0.67218 -0.17387
 H800 H 0.62539 0.70163 -0.19907
 H801 H 0.59269 0.65566 -0.12078
 H802 H 0.56841 0.62625 -0.09464
 H803 H 0.61140 0.57556 -0.14206
 H804 H 0.63551 0.60479 -0.16884
 C805 C 0.81625 -0.21551 -0.21949
 C806 C 0.82805 -0.20065 -0.20741
 C807 C 0.84231 -0.18314 -0.19268
 C808 C 0.83108 -0.16406 -0.17978
 C809 C 0.84489 -0.14727 -0.16494
 C810 C 0.87018 -0.14934 -0.16275
 C811 C 0.88130 -0.16857 -0.17591
 C812 C 0.86745 -0.18533 -0.19076
 C813 C 0.88484 -0.13163 -0.14659
 C814 C 0.90440 -0.13740 -0.12610
 C815 C 0.91796 -0.12073 -0.11053
 C816 C 0.91221 -0.09807 -0.11524
 C817 C 0.89289 -0.09216 -0.13571
 C818 C 0.87930 -0.10879 -0.15128
 C819 C 0.92582 -0.08088 -0.09870
 C820 C 0.93687 -0.06630 -0.08475
 H821 H 0.81162 -0.16223 -0.18099
 H822 H 0.83574 -0.13284 -0.15468
 H823 H 0.90073 -0.17054 -0.17500
 H824 H 0.87635 -0.20001 -0.20068
 H825 H 0.90894 -0.15482 -0.12163
 H826 H 0.93280 -0.12553 -0.09463
 H827 H 0.88829 -0.07467 -0.13958
 H828 H 0.86458 -0.10377 -0.16722
 C829 C 0.81313 0.29047 0.27507
 C830 C 0.82322 0.30639 0.28706
 C831 C 0.83545 0.32514 0.30181
 C832 C 0.83580 0.32743 0.33596
 C833 C 0.84832 0.34517 0.35048
 C834 C 0.86072 0.36091 0.33102
 C835 C 0.86003 0.35862 0.29667
 C836 C 0.84748 0.34085 0.28220
 C837 C 0.87498 0.37913 0.34660
 C838 C 0.89787 0.38495 0.33430
 C839 C 0.91195 0.40110 0.35013
 C840 C 0.90336 0.41172 0.37838
 C841 C 0.88041 0.40641 0.39043
 C842 C 0.86629 0.39025 0.37464
 C843 C 0.91876 0.42691 0.39613
 C844 C 0.93223 0.43886 0.41142
 H845 H 0.82664 0.31532 0.35139
 H846 H 0.84880 0.34625 0.37698
 H847 H 0.86916 0.37058 0.28101
 H848 H 0.84731 0.33927 0.25573
 H849 H 0.90523 0.37650 0.31306
 H850 H 0.92977 0.40493 0.34074
 H851 H 0.87360 0.41447 0.41233
 H852 H 0.84863 0.38636 0.38447
 C853 C 0.31275 -0.21229 0.27608
 C854 C 0.32412 -0.19728 0.28847
 C855 C 0.33832 -0.17983 0.30338
 C856 C 0.32747 -0.16411 0.32413
 C857 C 0.34148 -0.14759 0.33928
 C858 C 0.36658 -0.14661 0.33392
 C859 C 0.37726 -0.16242 0.31286
 C860 C 0.36322 -0.17890 0.29772
 C861 C 0.38156 -0.12931 0.35042
 C862 C 0.40446 -0.13482 0.36321
 C863 C 0.41847 -0.11857 0.37897
 C864 C 0.40982 -0.09661 0.38213
 C865 C 0.38711 -0.09095 0.36941
 C866 C 0.37307 -0.10716 0.35367
 C867 C 0.42403 -0.07992 0.39879
 C868 C 0.43556 -0.06574 0.41289
 H869 H 0.30823 -0.16475 0.32883
 H870 H 0.33276 -0.13585 0.35567
 H871 H 0.39646 -0.16194 0.30787
 H872 H 0.37181 -0.19098 0.28170
 H873 H 0.41137 -0.15177 0.36151
 H874 H 0.43597 -0.12317 0.38886
 H875 H 0.38025 -0.07399 0.37168
 H876 H 0.35567 -0.10232 0.34373
 C877 C 0.31554 0.28312 -0.21846
 C878 C 0.32727 0.29799 -0.20636
 C879 C 0.34155 0.31552 -0.19183
 C880 C 0.33038 0.33477 -0.17939
 C881 C 0.34427 0.35167 -0.16497
 C882 C 0.36954 0.34952 -0.16277
 C883 C 0.38059 0.33011 -0.17542
 C884 C 0.36667 0.31324 -0.18985
 C885 C 0.38429 0.36737 -0.14717
 C886 C 0.40377 0.36179 -0.12645
 C887 C 0.41740 0.37862 -0.11140
 C888 C 0.41179 0.40122 -0.11690
 C889 C 0.39256 0.40694 -0.13762
 C890 C 0.37889 0.39016 -0.15266
 C891 C 0.42539 0.41858 -0.10077
 C892 C 0.43637 0.43330 -0.08710
 H893 H 0.31094 0.33667 -0.18069
 H894 H 0.33520 0.36627 -0.15508
 H895 H 0.40001 0.32807 -0.17448
 H896 H 0.37550 0.29842 -0.19945
 H897 H 0.40818 0.34442 -0.12139
 H898 H 0.43217 0.37400 -0.09527
 H899 H 0.38806 0.42439 -0.14206
 H900 H 0.36423 0.39500 -0.16881
 C901 C 1.18314 -0.21736 0.22300
 C902 C 1.17119 -0.20261 0.21070
 C903 C 1.15683 -0.18520 0.19567
 C904 C 1.16563 -0.16324 0.19371
 C905 C 1.15182 -0.14644 0.17865
 C906 C 1.12899 -0.15139 0.16527
 C907 C 1.12028 -0.17351 0.16748
 C908 C 1.13411 -0.19027 0.18258
 C909 C 1.11445 -0.13360 0.14884
 C910 C 1.10157 -0.13826 0.11985
 C911 C 1.08820 -0.12143 0.10413
 C912 C 1.08747 -0.09974 0.11715
 C913 C 1.10009 -0.09497 0.14607
 C914 C 1.11349 -0.11176 0.16182
 C915 C 1.07420 -0.08225 0.10053
 C916 C 1.06340 -0.06744 0.08655
 H917 H 1.18324 -0.15914 0.20364
 H918 H 1.15919 -0.12967 0.17697
 H919 H 1.10266 -0.17780 0.15782
 H920 H 1.12709 -0.20720 0.18400
 H921 H 1.10219 -0.15481 0.10899
 H922 H 1.07860 -0.12530 0.08167
 H923 H 1.09965 -0.07824 0.15640
 H924 H 1.12293 -0.10770 0.18430
 C925 C 1.18780 0.28895 0.72708
 C926 C 1.17751 0.30480 0.71498
 C927 C 1.16506 0.32349 0.70011
 C928 C 1.15362 0.33957 0.71968
 C929 C 1.14091 0.35732 0.70513
 C930 C 1.13948 0.35922 0.67076
 C931 C 1.15126 0.34308 0.65133
 C932 C 1.16394 0.32537 0.66593
 C933 C 1.12514 0.37749 0.65515
 C934 C 1.13338 0.38814 0.62642
 C935 C 1.11919 0.40439 0.61072
 C936 C 1.09662 0.41027 0.62353
 C937 C 1.08848 0.40010 0.65244
 C938 C 1.10263 0.38385 0.66818
 C939 C 1.08113 0.42561 0.60596
 C940 C 1.06764 0.43773 0.59082
 H941 H 1.15440 0.33832 0.74618
 H942 H 1.13228 0.36959 0.72076
 H943 H 1.15021 0.34385 0.62483
 H944 H 1.17264 0.31297 0.65053
 H945 H 1.15074 0.38383 0.61601
 H946 H 1.12565 0.41210 0.58830
 H947 H 1.07095 0.40437 0.66243
 H948 H 1.09561 0.37578 0.68997
 C949 C 0.68709 -0.21361 0.72423
 C950 C 0.67571 -0.19889 0.71092
 C951 C 0.66143 -0.18189 0.69483
 C952 C 0.66829 -0.15932 0.69612
 C953 C 0.65417 -0.14291 0.68062
 C954 C 0.63300 -0.14889 0.66360
 C955 C 0.62629 -0.17164 0.66248
 C956 C 0.64041 -0.18799 0.67799
 C957 C 0.61796 -0.13153 0.64705
 C958 C 0.60762 -0.13573 0.61611
 C959 C 0.59352 -0.11940 0.60049
 C960 C 0.58952 -0.09866 0.61556
 C961 C 0.59967 -0.09433 0.64636
 C962 C 0.61379 -0.11063 0.66201
 C963 C 0.57551 -0.08164 0.59906
 C964 C 0.56417 -0.06722 0.58502
 H965 H 0.68454 -0.15441 0.70905
 H966 H 0.65998 -0.12559 0.68159
 H967 H 0.60994 -0.17676 0.64999
 H968 H 0.63487 -0.20540 0.67696
 H969 H 0.61075 -0.15152 0.60373
 H970 H 0.58588 -0.12289 0.57656
 H971 H 0.59671 -0.07832 0.65824
 H972 H 0.62123 -0.10699 0.68599
 C973 C 0.68493 0.28468 0.21839
 C974 C 0.67298 0.29926 0.20577
 C975 C 0.65835 0.31636 0.19056
 C976 C 0.63810 0.31030 0.17205
 C977 C 0.62380 0.32681 0.15722
 C978 C 0.62958 0.34966 0.16075
 C979 C 0.64995 0.35559 0.17949
 C980 C 0.66424 0.33903 0.19428
 C981 C 0.61451 0.36720 0.14476
 C982 C 0.60910 0.38731 0.16123
 C983 C 0.59521 0.40394 0.14595
 C984 C 0.58654 0.40072 0.11406
 C985 C 0.59169 0.38073 0.09754
 C986 C 0.60556 0.36407 0.11277
 C987 C 0.57299 0.41817 0.09791
 C988 C 0.56206 0.43297 0.08416
 H989 H 0.63332 0.29279 0.16912
 H990 H 0.60807 0.32172 0.14331
 H991 H 0.65505 0.37301 0.18231
 H992 H 0.67990 0.34391 0.20851
 H993 H 0.61546 0.39011 0.18601
 H994 H 0.59133 0.41936 0.15896
 H995 H 0.58520 0.37811 0.07276
 H996 H 0.60967 0.34891 0.09929
 C997 C 0.81734 0.21670 0.22151
 C998 C 0.82920 0.20192 0.20932
 C999 C 0.84338 0.18445 0.19434
 C1000 C 0.83194 0.16634 0.17907
 C1001 C 0.84566 0.14965 0.16381
 C1002 C 0.87105 0.15084 0.16360
 C1003 C 0.88238 0.16905 0.17923
 C1004 C 0.86862 0.18574 0.19445
 C1005 C 0.88561 0.13328 0.14690
 C1006 C 0.90720 0.12526 0.16099
 C1007 C 0.92075 0.10863 0.14528
 C1008 C 0.91296 0.09983 0.11528
 C1009 C 0.89159 0.10778 0.10101
 C1010 C 0.87800 0.12438 0.11667
 C1011 C 0.92659 0.08240 0.09931
 C1012 C 0.93757 0.06761 0.08571
 H1013 H 0.81242 0.16516 0.17887
 H1014 H 0.83640 0.13570 0.15242
 H1015 H 0.90185 0.17060 0.17915
 H1016 H 0.87766 0.19973 0.20607
 H1017 H 0.91339 0.13157 0.18441
 H1018 H 0.93722 0.10253 0.15664
 H1019 H 0.88539 0.10113 0.07777
 H1020 H 0.86167 0.13042 0.10494
 C1021 C 0.81314 0.71045 0.72766
 C1022 C 0.82352 0.69454 0.71600
 C1023 C 0.83611 0.67579 0.70171
 C1024 C 0.82407 0.66128 0.68028
 C1025 C 0.83655 0.64357 0.66546
 C1026 C 0.86127 0.64015 0.67188
 C1027 C 0.87312 0.65468 0.69378
 C1028 C 0.86061 0.67237 0.70855
 C1029 C 0.87488 0.62198 0.65507
 C1030 C 0.89264 0.60955 0.67194
 C1031 C 0.90638 0.59337 0.65556
 C1032 C 0.90254 0.58935 0.62215
 C1033 C 0.88460 0.60130 0.60532
 C1034 C 0.87082 0.61747 0.62164
 C1035 C 0.91803 0.57407 0.60466
 C1036 C 0.93156 0.56200 0.58964
 H1037 H 0.80510 0.66375 0.67483
 H1038 H 0.82685 0.63254 0.64903
 H1039 H 0.89220 0.65273 0.69888
 H1040 H 0.87015 0.68356 0.72497
 H1041 H 0.89599 0.61242 0.69776
 H1042 H 0.92027 0.58428 0.66883
 H1043 H 0.88160 0.59847 0.57939
 H1044 H 0.85754 0.62694 0.60784
 C1045 C 0.31428 0.21150 0.72582
 C1046 C 0.32559 0.19656 0.71311
 C1047 C 0.33971 0.17921 0.69775
 C1048 C 0.36446 0.17754 0.70436
 C1049 C 0.37845 0.16122 0.68871
 C1050 C 0.36787 0.14636 0.66613
 C1051 C 0.34292 0.14808 0.65982
 C1052 C 0.32896 0.16440 0.67553
 C1053 C 0.38284 0.12933 0.64895
 C1054 C 0.37902 0.12476 0.61550
 C1055 C 0.39314 0.10879 0.59931
 C1056 C 0.41127 0.09717 0.61627
 C1057 C 0.41526 0.10161 0.64953
 C1058 C 0.40117 0.11759 0.66577
 C1059 C 0.42539 0.08037 0.59964
 C1060 C 0.43678 0.06611 0.58548
 H1061 H 0.37300 0.18900 0.72137
 H1062 H 0.39764 0.16054 0.69378
 H1063 H 0.33418 0.13670 0.64291
 H1064 H 0.30981 0.16555 0.67022
 H1065 H 0.36531 0.13372 0.60174
 H1066 H 0.38989 0.10549 0.57356
 H1067 H 0.42915 0.09263 0.66295
 H1068 H 0.40437 0.12053 0.69161
 C1069 C 0.31454 0.71537 0.21905
 C1070 C 0.32624 0.70069 0.20636
 C1071 C 0.34045 0.68342 0.19102
 C1072 C 0.36562 0.68355 0.19416
 C1073 C 0.37952 0.66704 0.17881
 C1074 C 0.36841 0.65017 0.16003
 C1075 C 0.34307 0.65014 0.15714
 C1076 C 0.32921 0.66666 0.17254
 C1077 C 0.38317 0.63277 0.14337
 C1078 C 0.37725 0.62568 0.11147
 C1079 C 0.39104 0.60921 0.09584
 C1080 C 0.41092 0.59962 0.11184
 C1081 C 0.41703 0.60661 0.14352
 C1082 C 0.40327 0.62309 0.15920
 C1083 C 0.42470 0.58230 0.09590
 C1084 C 0.43582 0.56760 0.08236
 H1085 H 0.37452 0.69650 0.20830
 H1086 H 0.39899 0.66769 0.18116
 H1087 H 0.33395 0.63722 0.14324
 H1088 H 0.30973 0.66638 0.16999
 H1089 H 0.36211 0.63302 0.09845
 H1090 H 0.38616 0.60394 0.07130
 H1091 H 0.43232 0.59921 0.15619
 H1092 H 0.40811 0.62800 0.18389
   
