data_POSCAR
  _audit_creation_date              2014-09-24
  _audit_creation_method            'ToBaCCo'
  _symmetry_space_group_name_H-M    'P1'
  _symmetry_Int_Tables_number       1
  _symmetry_cell_setting            triclinic
  loop_
  _symmetry_equiv_pos_as_xyz
 x,y,z
_cell_length_a 50.2961
_cell_length_b 11.7305
_cell_length_c 21.5499
_cell_angle_alpha 92.734800
_cell_angle_beta 89.981100
_cell_angle_gamma 89.095400
loop_
  _atom_site_label
  _atom_site_type_symbol
  _atom_site_fract_x
  _atom_site_fract_y
  _atom_site_fract_z
C1 C 0.69350 0.23856 0.55835
 C2 C 0.68003 0.23464 0.50137
 C3 C 0.69309 0.24805 0.44497
 C4 C 0.72112 0.25867 0.44460
 C5 C 0.73548 0.26040 0.50137
 C6 C 0.72164 0.25149 0.55842
 C7 C 0.73647 0.25216 0.61366
 C8 C 0.76361 0.27068 0.61375
 C9 C 0.77810 0.27470 0.55811
 C10 C 0.76378 0.27120 0.50101
 C11 C 0.73515 0.26818 0.38895
 C12 C 0.76228 0.28672 0.38894
 C13 C 0.77741 0.28301 0.44375
 C14 C 0.80546 0.29794 0.44357
 C15 C 0.81887 0.30245 0.50077
 C16 C 0.80619 0.28924 0.55798
 H17 H 0.72741 0.23907 0.65812
 H18 H 0.77278 0.28346 0.65870
 H19 H 0.72537 0.26297 0.34434
 H20 H 0.77091 0.30593 0.34493
 H21 H 0.65849 0.23079 0.50123
 H22 H 0.84040 0.30570 0.50019
 C23 C 0.30413 0.73590 0.44488
 C24 C 0.31717 0.72874 0.50189
 C25 C 0.30351 0.73403 0.55847
 C26 C 0.27532 0.73945 0.55815
 C27 C 0.26150 0.74480 0.50080
 C28 C 0.27597 0.74493 0.44408
 C29 C 0.26186 0.75526 0.38839
 C30 C 0.23430 0.75630 0.38745
 C31 C 0.21946 0.75756 0.44268
 C32 C 0.23314 0.75256 0.50022
 C33 C 0.26052 0.73953 0.61329
 C34 C 0.23295 0.73852 0.61230
 C35 C 0.21859 0.75186 0.55697
 C36 C 0.19020 0.75805 0.55594
 C37 C 0.17747 0.76304 0.49809
 C38 C 0.19134 0.76211 0.44196
 H39 H 0.27178 0.76243 0.34440
 H40 H 0.22494 0.75610 0.34239
 H41 H 0.26988 0.73841 0.65825
 H42 H 0.22331 0.72537 0.65600
 H43 H 0.33867 0.71952 0.50240
 H44 H 0.15603 0.77333 0.49636
 C45 C 0.19345 0.24281 -0.44251
 C46 C 0.17999 0.24768 -0.49893
 C47 C 0.19311 0.24930 -0.55651
 C48 C 0.22157 0.24791 -0.55675
 C49 C 0.23575 0.24244 -0.49968
 C50 C 0.22160 0.23881 -0.44262
 C51 C 0.23602 0.23186 -0.38719
 C52 C 0.26349 0.22220 -0.38755
 C53 C 0.27815 0.23301 -0.44235
 C54 C 0.26421 0.24286 -0.49935
 C55 C 0.23638 0.25704 -0.61159
 C56 C 0.26398 0.25077 -0.61163
 C57 C 0.27860 0.24987 -0.55604
 C58 C 0.30707 0.25026 -0.55524
 C59 C 0.31995 0.24354 -0.49763
 C60 C 0.30632 0.23340 -0.44177
 H61 H 0.22639 0.23282 -0.34242
 H62 H 0.27293 0.20679 -0.34373
 H63 H 0.22707 0.27023 -0.65576
 H64 H 0.27343 0.24567 -0.65657
 H65 H 0.15847 0.24333 -0.49768
 H66 H 0.34137 0.25197 -0.49542
 C67 C -0.30733 0.72433 -0.44443
 C68 C -0.32084 0.72761 -0.50108
 C69 C -0.30794 0.74350 -0.55781
 C70 C -0.27971 0.75556 -0.55735
 C71 C -0.26539 0.74845 -0.50061
 C72 C -0.27924 0.73211 -0.44419
 C73 C -0.26447 0.71379 -0.39014
 C74 C -0.23695 0.71827 -0.39020
 C75 C -0.22285 0.74400 -0.44387
 C76 C -0.23704 0.75641 -0.50027
 C77 C -0.26537 0.77813 -0.61125
 C78 C -0.23777 0.77887 -0.61167
 C79 C -0.22293 0.77197 -0.55662
 C80 C -0.19448 0.77386 -0.55615
 C81 C -0.18139 0.76695 -0.49888
 C82 C -0.19484 0.75304 -0.44310
 H83 H -0.27395 0.69163 -0.34742
 H84 H -0.22687 0.69894 -0.34762
 H85 H -0.27514 0.79555 -0.65440
 H86 H -0.22857 0.78335 -0.65657
 H87 H -0.34220 0.71625 -0.50072
 H88 H -0.16001 0.77726 -0.49717
 O89 O -0.03841 0.84523 0.11915
 O90 O -0.06787 0.93980 0.05792
 C91 C -0.06238 0.87560 0.10383
 O92 O 0.03651 1.22744 0.11323
 O93 O 0.06540 1.11484 0.05432
 C94 C 0.06033 1.19086 0.09848
 O95 O -0.03792 1.22728 0.11730
 O96 O -0.06761 1.12596 0.05683
 C97 C -0.06196 1.19792 0.10231
 O98 O 0.03608 0.82594 0.11235
 O99 O 0.06534 0.92333 0.05371
 C100 C 0.06004 0.85455 0.09709
 Zr101 Zr -0.00147 0.88246 0.07862
 O102 O 0.00034 0.86957 0.17598
 O103 O -0.00458 0.70251 0.06899
 Zr104 Zr -0.00093 1.17307 0.07825
 O105 O 0.00112 1.20028 0.17581
 O106 O -0.00318 1.35194 0.06917
 O107 O -0.02450 1.03147 0.09116
 O108 O 0.02140 1.02636 0.09038
 O109 O 0.03547 0.80427 -0.11053
 O110 O 0.06493 0.91133 -0.05243
 C111 C 0.05943 0.83571 -0.09612
 O112 O -0.03770 1.20295 -0.11697
 O113 O -0.06760 1.11411 -0.05589
 C114 C -0.06179 1.17699 -0.10185
 O115 O 0.03658 1.20618 -0.11252
 O116 O 0.06532 1.10452 -0.05320
 C117 C 0.06037 1.17238 -0.09753
 O118 O -0.03866 0.81979 -0.11431
 O119 O -0.06797 0.92827 -0.05425
 C120 C -0.06255 0.85411 -0.09929
 Zr121 Zr -0.00160 0.86839 -0.07624
 O122 O 0.00039 0.84611 -0.17414
 O123 O -0.00461 0.68965 -0.06871
 Zr124 Zr -0.00088 1.15899 -0.07654
 O125 O 0.00054 1.17404 -0.17374
 O126 O -0.00306 1.33934 -0.06581
 Zr127 Zr -0.04112 1.02476 0.00113
 Zr128 Zr 0.03847 1.01620 0.00085
 O129 O 0.02136 1.00997 -0.08843
 O130 O -0.02454 1.01488 -0.08897
 O131 O 0.02264 0.85086 0.00110
 O132 O -0.02463 1.18865 0.00079
 O133 O -0.02528 0.85766 0.00142
 O134 O 0.02345 1.18521 0.00077
 H135 H 0.03255 1.02827 0.12826
 H136 H -0.03715 1.25477 0.00057
 H137 H 0.03246 1.00491 -0.12646
 H138 H -0.03796 0.79384 0.00177
 H139 H 0.01469 1.37766 0.05736
 H140 H 0.01511 1.36707 -0.05705
 H141 H -0.00045 1.09555 -0.19227
 H142 H -0.01012 0.90905 -0.19145
 H143 H 0.01273 0.66049 -0.05390
 H144 H 0.01329 0.67060 0.05849
 H145 H -0.00260 0.94754 0.19429
 H146 H -0.00836 1.13667 0.19404
 O147 O 0.46407 0.31754 0.11882
 O148 O 0.43412 0.40478 0.05578
 C149 C 0.43994 0.34513 0.10324
 O150 O 0.53631 0.70388 0.10952
 O151 O 0.56612 0.59411 0.05141
 C152 C 0.56041 0.66992 0.09529
 O153 O 0.46157 0.68949 0.11497
 O154 O 0.43281 0.58599 0.05291
 C155 C 0.43781 0.65678 0.09935
 O156 O 0.53867 0.30471 0.11152
 O157 O 0.56710 0.40584 0.05276
 C158 C 0.56233 0.33739 0.09667
 Zr159 Zr 0.50083 0.35422 0.07682
 O160 O 0.50284 0.33982 0.17402
 O161 O 0.49883 0.17398 0.06730
 Zr162 Zr 0.49909 0.64576 0.07484
 O163 O 0.50058 0.68142 0.17179
 O164 O 0.49532 0.82348 0.06345
 O165 O 0.47691 0.50066 0.08838
 O166 O 0.52239 0.50206 0.08803
 O167 O 0.53858 0.27795 -0.11220
 O168 O 0.56670 0.39053 -0.05352
 C169 C 0.56218 0.31348 -0.09704
 O170 O 0.46235 0.66835 -0.12033
 O171 O 0.43334 0.57527 -0.05909
 C172 C 0.43853 0.63933 -0.10493
 O173 O 0.53666 0.67768 -0.11619
 O174 O 0.56635 0.58082 -0.05619
 C175 C 0.56060 0.64595 -0.10135
 O176 O 0.46371 0.28501 -0.11608
 O177 O 0.43389 0.39068 -0.05577
 C178 C 0.43962 0.31690 -0.10075
 Zr179 Zr 0.50080 0.33691 -0.07825
 O180 O 0.50299 0.31135 -0.17592
 O181 O 0.49916 0.15817 -0.06914
 Zr182 Zr 0.49942 0.62860 -0.08000
 O183 O 0.50081 0.64107 -0.17738
 O184 O 0.49614 0.80883 -0.07069
 Zr185 Zr 0.46045 0.48994 -0.00178
 Zr186 Zr 0.53952 0.49295 -0.00142
 O187 O 0.52256 0.48186 -0.09090
 O188 O 0.47692 0.48077 -0.09190
 O189 O 0.52516 0.32499 -0.00051
 O190 O 0.47541 0.65633 -0.00282
 O191 O 0.47723 0.32455 -0.00041
 O192 O 0.52342 0.66001 -0.00262
 H193 H 0.53337 0.50605 0.12617
 H194 H 0.46231 0.72038 -0.00314
 H195 H 0.53360 0.47698 -0.12897
 H196 H 0.46479 0.25987 0.00050
 H197 H 0.51325 0.85183 0.05415
 H198 H 0.51416 0.83878 -0.06256
 H199 H 0.49881 0.56264 -0.19534
 H200 H 0.49251 0.37389 -0.19370
 H201 H 0.51678 0.13205 -0.05443
 H202 H 0.51706 0.14378 0.05916
 H203 H 0.50023 0.41800 0.19244
 H204 H 0.49576 0.60993 0.19124
 C205 C 0.35881 0.27880 0.28883
 C206 C 0.36554 0.20780 0.33770
 C207 C 0.34768 0.19482 0.38669
 C208 C 0.32357 0.25809 0.39126
 C209 C 0.31805 0.33523 0.34464
 C210 C 0.33489 0.34274 0.29329
 C211 C 0.37833 0.28792 0.23662
 C212 C 0.37264 0.34678 0.18261
 C213 C 0.39217 0.35863 0.13724
 C214 C 0.41799 0.31425 0.14507
 C215 C 0.42327 0.24936 0.19687
 C216 C 0.40363 0.23464 0.24195
 C217 C 0.39048 0.15327 0.33881
 C218 C 0.40931 0.16811 0.29263
 H219 H 0.39595 0.10195 0.37737
 H220 H 0.42861 0.12669 0.29664
 H221 H 0.35276 0.13480 0.42174
 H222 H 0.30110 0.39307 0.34867
 H223 H 0.38724 0.40585 0.09681
 H224 H 0.44292 0.21240 0.20308
 H225 H 0.32937 0.40202 0.25868
 H226 H 0.35330 0.38459 0.17482
 C227 C -0.14345 0.79965 0.28689
 C228 C -0.13705 0.72532 0.33446
 C229 C -0.15469 0.71395 0.38411
 C230 C -0.17816 0.78145 0.39021
 C231 C -0.18305 0.86255 0.34533
 C232 C -0.16644 0.86918 0.29359
 C233 C -0.12423 0.80807 0.23416
 C234 C -0.12992 0.86989 0.18126
 C235 C -0.11030 0.88570 0.13667
 C236 C -0.08454 0.84037 0.14385
 C237 C -0.07958 0.76897 0.19327
 C238 C -0.09925 0.75179 0.23796
 C239 C -0.11255 0.66668 0.33377
 C240 C -0.09389 0.68086 0.28705
 H241 H -0.10721 0.61298 0.37149
 H242 H -0.07491 0.63624 0.28966
 H243 H -0.14996 0.65222 0.41852
 H244 H -0.19921 0.92431 0.35119
 H245 H -0.11512 0.93661 0.09755
 H246 H -0.06011 0.72950 0.19828
 H247 H -0.17125 0.93247 0.26063
 H248 H -0.14934 0.90724 0.17400
 C249 C 0.64115 0.73451 0.28337
 C250 C 0.63301 0.78918 0.34017
 C251 C 0.65058 0.79734 0.39047
 C252 C 0.67591 0.74405 0.38783
 C253 C 0.68315 0.68295 0.33233
 C254 C 0.66640 0.68082 0.28041
 C255 C 0.62178 0.73065 0.23032
 C256 C 0.62822 0.68428 0.17059
 C257 C 0.60870 0.67336 0.12457
 C258 C 0.58231 0.70853 0.13689
 C259 C 0.57633 0.76360 0.19455
 C260 C 0.59569 0.77413 0.24117
 C261 C 0.60705 0.83220 0.34749
 C262 C 0.58873 0.82427 0.29923
 H263 H 0.60064 0.87120 0.39171
 H264 H 0.56877 0.85760 0.30765
 H265 H 0.64427 0.84540 0.43229
 H266 H 0.70139 0.63275 0.32948
 H267 H 0.61404 0.63227 0.08015
 H268 H 0.55612 0.79210 0.20481
 H269 H 0.67313 0.63289 0.23924
 H270 H 0.64802 0.65351 0.15903
 C271 C 0.14190 1.24419 0.28516
 C272 C 0.13499 1.30703 0.34044
 C273 C 0.15279 1.31363 0.39033
 C274 C 0.17687 1.25004 0.38926
 C275 C 0.18250 1.17976 0.33584
 C276 C 0.16577 1.17960 0.28391
 C277 C 0.12254 1.24318 0.23218
 C278 C 0.12814 1.19001 0.17360
 C279 C 0.10846 1.18156 0.12796
 C280 C 0.08275 1.22647 0.13934
 C281 C 0.07780 1.28886 0.19548
 C282 C 0.09734 1.29667 0.24190
 C283 C 0.10987 1.35917 0.34685
 C284 C 0.09137 1.35350 0.29884
 H285 H 0.10411 1.40236 0.39048
 H286 H 0.07202 1.39354 0.30665
 H287 H 0.14766 1.36878 0.43054
 H288 H 0.19939 1.12133 0.33465
 H289 H 0.11308 1.13490 0.08464
 H290 H 0.05821 1.32572 0.20478
 H291 H 0.17131 1.12478 0.24423
 H292 H 0.14735 1.15182 0.16279
 C293 C 0.64426 0.24470 -0.28119
 C294 C 0.64017 0.16299 -0.33040
 C295 C 0.65715 0.15879 -0.38224
 C296 C 0.67792 0.23729 -0.38695
 C297 C 0.68088 0.32181 -0.33915
 C298 C 0.66464 0.32457 -0.28671
 C299 C 0.62535 0.24884 -0.22757
 C300 C 0.62908 0.32082 -0.17441
 C301 C 0.60931 0.33377 -0.12939
 C302 C 0.58520 0.27543 -0.13612
 C303 C 0.58240 0.19476 -0.18596
 C304 C 0.60249 0.18006 -0.23129
 C305 C 0.61849 0.08941 -0.32876
 C306 C 0.59967 0.09963 -0.28101
 H307 H 0.61541 0.02626 -0.36633
 H308 H 0.58255 0.04458 -0.28338
 H309 H 0.65409 0.09455 -0.41933
 H310 H 0.69525 0.38889 -0.34331
 H311 H 0.61242 0.39511 -0.09101
 H312 H 0.56418 0.14703 -0.19097
 H313 H 0.66760 0.39328 -0.25245
 H314 H 0.64682 0.37031 -0.16751
 C315 C 0.13939 0.77025 -0.28523
 C316 C 0.13188 0.71127 -0.34094
 C317 C 0.14937 0.70311 -0.39150
 C318 C 0.17376 0.76109 -0.39020
 C319 C 0.17986 0.82851 -0.33640
 C320 C 0.16346 0.82993 -0.28401
 C321 C 0.12049 0.77263 -0.23147
 C322 C 0.12676 0.82196 -0.17257
 C323 C 0.10745 0.83274 -0.12606
 C324 C 0.08148 0.79459 -0.13715
 C325 C 0.07589 0.73521 -0.19358
 C326 C 0.09505 0.72486 -0.24076
 C327 C 0.10661 0.66376 -0.34678
 C328 C 0.08848 0.67129 -0.29795
 H329 H 0.10049 0.62231 -0.39037
 H330 H 0.06897 0.63511 -0.30522
 H331 H 0.14385 0.65056 -0.43211
 H332 H 0.19706 0.88290 -0.33496
 H333 H 0.11254 0.87659 -0.08242
 H334 H 0.05606 0.70342 -0.20256
 H335 H 0.16950 0.88142 -0.24383
 H336 H 0.14617 0.85570 -0.16212
 C337 C 0.35643 0.73701 -0.28384
 C338 C 0.33458 0.66251 -0.28618
 C339 C 0.31731 0.66041 -0.33750
 C340 C 0.32008 0.73901 -0.38412
 C341 C 0.34058 0.81866 -0.37893
 C342 C 0.35871 0.81688 -0.33010
 C343 C 0.37664 0.72474 -0.23339
 C344 C 0.40090 0.78316 -0.23230
 C345 C 0.42046 0.75876 -0.18880
 C346 C 0.41622 0.67723 -0.14438
 C347 C 0.39139 0.62431 -0.14242
 C348 C 0.37191 0.64522 -0.18743
 C349 C 0.33030 0.59014 -0.23755
 C350 C 0.34837 0.58279 -0.18871
 H351 H 0.31267 0.53833 -0.23745
 H352 H 0.34434 0.52418 -0.15266
 H353 H 0.30202 0.59643 -0.34165
 H354 H 0.34311 0.88032 -0.41423
 H355 H 0.43933 0.80153 -0.19130
 H356 H 0.38780 0.56162 -0.10822
 H357 H 0.37444 0.87794 -0.32970
 H358 H 0.40569 0.84432 -0.26622
 C359 C -0.14115 1.27701 -0.28692
 C360 C -0.16332 1.20446 -0.29085
 C361 C -0.18059 1.20735 -0.34213
 C362 C -0.17741 1.28790 -0.38804
 C363 C -0.15580 1.36261 -0.38191
 C364 C -0.13789 1.35654 -0.33288
 C365 C -0.12165 1.26344 -0.23503
 C366 C -0.09764 1.32369 -0.23073
 C367 C -0.07886 1.29933 -0.18543
 C368 C -0.08362 1.21596 -0.14238
 C369 C -0.10827 1.16127 -0.14353
 C370 C -0.12699 1.18244 -0.19025
 C371 C -0.16795 1.12881 -0.24385
 C372 C -0.15040 1.11936 -0.19412
 H373 H -0.18549 1.07638 -0.24550
 H374 H -0.15487 1.05955 -0.15901
 H375 H -0.19586 1.14338 -0.34726
 H376 H -0.15262 1.42687 -0.41544
 H377 H -0.06014 1.34374 -0.18537
 H378 H -0.11228 1.09715 -0.11039
 H379 H -0.12158 1.41465 -0.33204
 H380 H -0.09245 1.38682 -0.26320
 C381 C 0.64170 0.69720 -0.28861
 C382 C 0.64084 0.61671 -0.33968
 C383 C 0.65815 0.62535 -0.39000
 C384 C 0.67726 0.71114 -0.39037
 C385 C 0.67892 0.78830 -0.33860
 C386 C 0.66130 0.78194 -0.28846
 C387 C 0.62147 0.68836 -0.23763
 C388 C 0.61906 0.76781 -0.18632
 C389 C 0.59933 0.75557 -0.14100
 C390 C 0.58174 0.66447 -0.14644
 C391 C 0.58406 0.58524 -0.19671
 C392 C 0.60350 0.59662 -0.24222
 C393 C 0.62257 0.52812 -0.34083
 C394 C 0.60455 0.51745 -0.29276
 H395 H 0.62224 0.46567 -0.37954
 H396 H 0.59090 0.44684 -0.29570
 H397 H 0.65695 0.56397 -0.42916
 H398 H 0.69310 0.85678 -0.33820
 H399 H 0.59768 0.81743 -0.10220
 H400 H 0.57038 0.51457 -0.20074
 H401 H 0.66314 0.84463 -0.25047
 H402 H 0.63198 0.84016 -0.18084
 C403 C 0.14211 1.22580 -0.28217
 C404 C 0.13776 1.30895 -0.32653
 C405 C 0.15563 1.31826 -0.37599
 C406 C 0.17678 1.23960 -0.38525
 C407 C 0.17978 1.15161 -0.34384
 C408 C 0.16324 1.14674 -0.29192
 C409 C 0.12282 1.22056 -0.22933
 C410 C 0.12666 1.14820 -0.17977
 C411 C 0.10708 1.13970 -0.13442
 C412 C 0.08302 1.20179 -0.13755
 C413 C 0.07985 1.28017 -0.18432
 C414 C 0.09965 1.29072 -0.22970
 C415 C 0.11490 1.37842 -0.32315
 C416 C 0.09605 1.36853 -0.27636
 H417 H 0.11096 1.43737 -0.35912
 H418 H 0.07832 1.42215 -0.27695
 H419 H 0.15257 1.38467 -0.40877
 H420 H 0.19493 1.08601 -0.35188
 H421 H 0.11038 1.08015 -0.09828
 H422 H 0.06162 1.33029 -0.18671
 H423 H 0.16670 1.07836 -0.26118
 H424 H 0.14446 1.09651 -0.17565
 C425 C 0.35695 0.22795 -0.27968
 C426 C 0.36335 0.16068 -0.33388
 C427 C 0.34562 0.15615 -0.38420
 C428 C 0.32279 0.22719 -0.38419
 C429 C 0.31771 0.30044 -0.33200
 C430 C 0.33379 0.29674 -0.27939
 C431 C 0.37657 0.23322 -0.22757
 C432 C 0.37092 0.28820 -0.16955
 C433 C 0.39114 0.30834 -0.12634
 C434 C 0.41740 0.27279 -0.13971
 C435 C 0.42244 0.20518 -0.19426
 C436 C 0.40214 0.18451 -0.23798
 C437 C 0.38814 0.10474 -0.33905
 C438 C 0.40742 0.11894 -0.29281
 H439 H 0.39321 0.05416 -0.38090
 H440 H 0.42679 0.07894 -0.30038
 H441 H 0.35034 0.10197 -0.42501
 H442 H 0.30131 0.36136 -0.33193
 H443 H 0.38633 0.35600 -0.08344
 H444 H 0.44241 0.17348 -0.20435
 H445 H 0.32855 0.35206 -0.23991
 H446 H 0.35111 0.31806 -0.15740
 C447 C -0.14446 0.76103 -0.28053
 C448 C -0.13722 0.69472 -0.33459
 C449 C -0.15469 0.68643 -0.38523
 C450 C -0.17848 0.75086 -0.38533
 C451 C -0.18487 0.82168 -0.33292
 C452 C -0.16856 0.82387 -0.28044
 C453 C -0.12499 0.77006 -0.22805
 C454 C -0.13099 0.82637 -0.17047
 C455 C -0.11102 0.84747 -0.12657
 C456 C -0.08472 0.81135 -0.13879
 C457 C -0.07933 0.74360 -0.19302
 C458 C -0.09921 0.72277 -0.23754
 C459 C -0.11199 0.64273 -0.33926
 C460 C -0.09320 0.65819 -0.29221
 H461 H -0.10629 0.59312 -0.38102
 H462 H -0.07359 0.61996 -0.29904
 H463 H -0.14918 0.63385 -0.42608
 H464 H -0.20239 0.87666 -0.33280
 H465 H -0.11604 0.89573 -0.08398
 H466 H -0.05930 0.71174 -0.20232
 H467 H -0.17454 0.87878 -0.24126
 H468 H -0.15086 0.85636 -0.15909
 C469 C 0.35560 0.72739 0.28408
 C470 C 0.36148 0.79705 0.33749
 C471 C 0.34368 0.80447 0.38760
 C472 C 0.32111 0.73545 0.38807
 C473 C 0.31647 0.65985 0.33694
 C474 C 0.33291 0.65872 0.28468
 C475 C 0.37504 0.72242 0.23141
 C476 C 0.36975 0.66644 0.17362
 C477 C 0.38964 0.65337 0.12852
 C478 C 0.41533 0.69421 0.14031
 C479 C 0.41995 0.75933 0.19552
 C480 C 0.39993 0.77499 0.24059
 C481 C 0.38576 0.85357 0.34205
 C482 C 0.40487 0.84040 0.29530
 H483 H 0.39060 0.90386 0.38384
 H484 H 0.42382 0.88179 0.30215
 H485 H 0.34795 0.86091 0.42757
 H486 H 0.30003 0.60143 0.33737
 H487 H 0.38515 0.60678 0.08533
 H488 H 0.43949 0.79391 0.20478
 H489 H 0.32816 0.60058 0.24618
 H490 H 0.35054 0.63087 0.16285
 C491 C -0.14288 1.30437 0.28698
 C492 C -0.16536 1.23352 0.28456
 C493 C -0.18242 1.23055 0.33616
 C494 C -0.17881 1.30469 0.38892
 C495 C -0.15731 1.38036 0.38860
 C496 C -0.13950 1.37903 0.33913
 C497 C -0.12303 1.29306 0.23507
 C498 C -0.09820 1.34719 0.23747
 C499 C -0.07892 1.32137 0.19216
 C500 C -0.08404 1.24310 0.14250
 C501 C -0.10957 1.19693 0.13677
 C502 C -0.12870 1.21820 0.18356
 C503 C -0.17038 1.16476 0.23106
 C504 C -0.15271 1.15919 0.18107
 H505 H -0.18816 1.11381 0.22794
 H506 H -0.15729 1.10353 0.14106
 H507 H -0.19771 1.16640 0.33603
 H508 H -0.15400 1.44081 0.42736
 H509 H -0.05953 1.35935 0.19761
 H510 H -0.11402 1.13795 0.09813
 H511 H -0.12306 1.43614 0.34299
 H512 H -0.09269 1.40504 0.27551
 C513 C 0.64226 0.27656 0.28456
 C514 C 0.63849 0.18935 0.32652
 C515 C 0.65603 0.17728 0.37643
 C516 C 0.67623 0.25649 0.38836
 C517 C 0.67835 0.34924 0.34987
 C518 C 0.66212 0.35755 0.29762
 C519 C 0.62362 0.28366 0.23067
 C520 C 0.62752 0.35816 0.18237
 C521 C 0.60848 0.36824 0.13586
 C522 C 0.58490 0.30560 0.13676
 C523 C 0.58187 0.22452 0.18196
 C524 C 0.60118 0.21221 0.22831
 C525 C 0.61651 0.11827 0.32027
 C526 C 0.59794 0.13070 0.27296
 H527 H 0.61300 0.05581 0.35440
 H528 H 0.58080 0.07580 0.27134
 H529 H 0.65349 0.10788 0.40728
 H530 H 0.69266 0.41551 0.36025
 H531 H 0.61170 0.42945 0.10074
 H532 H 0.56404 0.17375 0.18237
 H533 H 0.66475 0.42982 0.26927
 H534 H 0.64498 0.41020 0.18020
 C535 C 0.14120 0.78201 0.28006
 C536 C 0.13593 0.70375 0.32612
 C537 C 0.15348 0.69282 0.37602
 C538 C 0.17510 0.76632 0.38422
 C539 C 0.17894 0.85087 0.34130
 C540 C 0.16273 0.85655 0.28886
 C541 C 0.12223 0.78888 0.22683
 C542 C 0.12698 0.85573 0.17567
 C543 C 0.10741 0.86923 0.13070
 C544 C 0.08259 0.81694 0.13571
 C545 C 0.07868 0.74154 0.18338
 C546 C 0.09835 0.72682 0.22865
 C547 C 0.11242 0.64168 0.32414
 C548 C 0.09386 0.65371 0.27686
 H549 H 0.10766 0.58776 0.36165
 H550 H 0.07560 0.60611 0.27845
 H551 H 0.14973 0.62971 0.41008
 H552 H 0.19443 0.91317 0.34857
 H553 H 0.11133 0.92558 0.09357
 H554 H 0.05990 0.69819 0.18700
 H555 H 0.16664 0.92247 0.25708
 H556 H 0.14543 0.89999 0.17028
   
