data_POSCAR
  _audit_creation_date              2014-09-24
  _audit_creation_method            'ToBaCCo'
  _symmetry_space_group_name_H-M    'P1'
  _symmetry_Int_Tables_number       1
  _symmetry_cell_setting            triclinic
  loop_
  _symmetry_equiv_pos_as_xyz
 x,y,z
_cell_length_a 39.0979
_cell_length_b 39.0797
_cell_length_c 39.0529
_cell_angle_alpha 90.091000
_cell_angle_beta 89.998200
_cell_angle_gamma 89.981700
loop_
  _atom_site_label
  _atom_site_type_symbol
  _atom_site_fract_x
  _atom_site_fract_y
  _atom_site_fract_z
N1 N 0.35151 0.35913 1.35501
 N2 N 1.14147 0.64111 0.85894
 N3 N 0.64532 -0.14856 0.14060
 N4 N -0.14140 1.14542 -0.35137
 N5 N 0.64010 0.64843 0.64419
 N6 N 0.85308 0.35347 0.14648
 N7 N 0.35676 0.13912 0.85261
 N8 N 0.14826 0.85539 0.35939
 Zn9 Zn 0.04371 0.97807 0.01044
 Zn10 Zn -0.02457 0.97230 -0.02399
 Zn11 Zn -0.01832 1.00551 0.04499
 Zn12 Zn 0.00968 1.04050 -0.01639
 O13 O 0.00256 0.99902 0.00370
 O14 O 0.04629 0.93772 -0.01074
 O15 O -0.06388 0.95988 -0.00340
 O16 O 0.00625 0.98968 0.08028
 O17 O -0.00383 0.93305 -0.03659
 O18 O 0.05242 0.96952 0.05459
 O19 O -0.05866 0.98439 0.04742
 O20 O -0.00590 1.07566 0.00862
 O21 O -0.03660 0.99370 -0.06306
 O22 O -0.02689 1.04959 0.05415
 O23 O -0.01119 1.04387 -0.05675
 O24 O 0.05384 1.04901 -0.02486
 O25 O 0.07916 1.00246 -0.00523
 C26 C 0.02561 0.92117 -0.02955
 C27 C -0.07547 0.96624 0.02635
 C28 C 0.03523 0.97510 0.08160
 C29 C -0.02092 1.07675 0.03740
 C30 C -0.02961 1.02349 -0.07407
 C31 C 0.08068 1.03151 -0.01963
 Zn32 Zn 0.48477 0.01279 0.45287
 Zn33 Zn 0.47845 -0.02159 0.52101
 Zn34 Zn 0.54680 -0.01493 0.48717
 Zn35 Zn 0.51223 0.04690 0.51528
 O36 O 0.50552 0.00575 0.49413
 O37 O 0.44441 -0.00833 0.44987
 O38 O 0.49932 -0.06069 0.53319
 O39 O 0.55545 -0.02332 0.44292
 O40 O 0.43942 -0.03395 0.50006
 O41 O 0.50938 -0.00277 0.41742
 O42 O 0.54972 -0.05541 0.50806
 O43 O 0.55636 0.05555 0.52394
 O44 O 0.46596 -0.00106 0.56026
 O45 O 0.58205 0.00967 0.50306
 O46 O 0.49108 0.04941 0.55573
 O47 O 0.49646 0.08236 0.49090
 O48 O 0.47618 0.05700 0.44454
 C49 C 0.42775 -0.02704 0.47051
 C50 C 0.52895 -0.07224 0.52647
 C51 C 0.53823 -0.01761 0.41597
 C52 C 0.58335 0.03843 0.51815
 C53 C 0.47259 0.02845 0.57223
 C54 C 0.48171 0.08387 0.46199
 Zn55 Zn 0.95475 0.48168 0.49460
 Zn56 Zn 1.02361 0.47525 0.52776
 Zn57 Zn 1.01612 0.50971 0.45965
 Zn58 Zn 0.98928 0.54361 0.52230
 O59 O 0.99600 0.50249 0.50115
 O60 O 0.95225 0.44128 0.51560
 O61 O 1.06263 0.46322 0.50627
 O62 O 0.99115 0.49426 0.42441
 O63 O 1.00299 0.43593 0.54006
 O64 O 0.94565 0.47322 0.45047
 O65 O 1.05642 0.48877 0.45616
 O66 O 1.00503 0.57911 0.49803
 O67 O 1.03620 0.49588 0.56709
 O68 O 1.02465 0.55389 0.45133
 O69 O 1.01039 0.54605 0.56268
 O70 O 0.94518 0.55238 0.53087
 O71 O 0.91951 0.50628 0.51051
 C72 C 0.97326 0.42439 0.53369
 C73 C 1.07368 0.47028 0.47649
 C74 C 0.96239 0.47925 0.42330
 C75 C 1.01947 0.58069 0.46898
 C76 C 1.02917 0.52530 0.57912
 C77 C 0.91819 0.53525 0.52520
 Zn78 Zn 0.47774 0.48905 0.95624
 Zn79 Zn 0.54028 0.51603 0.99006
 Zn80 Zn 0.47222 0.52353 1.02464
 Zn81 Zn 0.50544 0.45466 1.01820
 O82 O 0.49885 0.49588 0.99736
 O83 O 0.50192 0.50485 0.92069
 O84 O 0.54370 0.55637 1.01100
 O85 O 0.43292 0.53604 1.00404
 O86 O 0.54856 0.52453 0.94583
 O87 O 0.43734 0.51006 0.95387
 O88 O 0.49365 0.56262 1.03664
 O89 O 0.48440 0.45218 1.05862
 O90 O 0.57550 0.49112 1.00549
 O91 O 0.45994 0.50295 1.06401
 O92 O 0.54952 0.44565 1.02667
 O93 O 0.48971 0.41933 0.99357
 O94 O 0.46935 0.44489 0.94744
 C95 C 0.53092 0.51933 0.91905
 C96 C 0.52339 0.57366 1.02954
 C97 C 0.42090 0.52890 0.97464
 C98 C 0.46631 0.47322 1.07554
 C99 C 0.57665 0.46240 1.02057
 C100 C 0.47511 0.41792 0.96457
 C101 C 1.26038 0.39615 0.40189
 C102 C 1.26279 0.39421 0.36618
 C103 C 1.29278 0.38234 0.35078
 C104 C 1.32082 0.37228 0.37092
 C105 C 1.31827 0.37445 0.40679
 C106 C 1.28821 0.38633 0.42219
 C107 C 1.22925 0.40827 0.41740
 C108 C 1.20275 0.41872 0.42925
 C109 C 1.17066 0.43173 0.44178
 C110 C 1.15088 0.45266 0.42060
 C111 C 1.11944 0.46517 0.43200
 C112 C 1.10722 0.45691 0.46487
 C113 C 1.12732 0.43590 0.48612
 C114 C 1.15888 0.42337 0.47459
 H115 H 1.24140 0.40172 0.35023
 H116 H 1.29398 0.38055 0.32314
 H117 H 1.33960 0.36696 0.42279
 H118 H 1.28665 0.38779 0.44985
 H119 H 1.15972 0.45926 0.39515
 H120 H 1.10470 0.48128 0.41496
 H121 H 1.11865 0.42908 0.51154
 H122 H 1.17400 0.40712 0.49119
 C123 C 0.23232 0.60502 0.90698
 C124 C 0.20716 0.58183 0.89636
 C125 C 0.17712 0.59369 0.88100
 C126 C 0.17191 0.62893 0.87602
 C127 C 0.19713 0.65208 0.88714
 C128 C 0.22715 0.64017 0.90251
 C129 C 0.26407 0.59262 0.92092
 C130 C 0.29095 0.58191 0.93160
 C131 C 0.32335 0.56858 0.94297
 C132 C 0.34217 0.54731 0.92118
 C133 C 0.37380 0.53443 0.93157
 C134 C 0.38718 0.54264 0.96403
 C135 C 0.36804 0.56400 0.98588
 C136 C 0.33630 0.57690 0.97537
 H137 H 0.21094 0.55455 0.89958
 H138 H 0.15797 0.57543 0.87280
 H139 H 0.19384 0.67931 0.88329
 H140 H 0.24655 0.65834 0.91041
 H141 H 0.33241 0.54072 0.89604
 H142 H 0.38779 0.51806 0.91409
 H143 H 0.37761 0.57080 1.01100
 H144 H 0.32194 0.59339 0.99244
 C145 C -0.26249 0.88819 0.09572
 C146 C -0.28957 0.87756 0.07479
 C147 C -0.31991 0.86551 0.08950
 C148 C -0.32347 0.86402 0.12531
 C149 C -0.29609 0.87468 0.14608
 C150 C -0.26585 0.88670 0.13137
 C151 C -0.23125 0.90091 0.08099
 C152 C -0.20468 0.91198 0.06990
 C153 C -0.17257 0.92576 0.05830
 C154 C -0.16007 0.91828 0.02552
 C155 C -0.12850 0.93151 0.01489
 C156 C -0.10910 0.95234 0.03701
 C157 C -0.12205 0.95974 0.06983
 C158 C -0.15350 0.94655 0.08034
 H159 H -0.28728 0.87866 0.04717
 H160 H -0.34072 0.85755 0.07303
 H161 H -0.29808 0.87342 0.17370
 H162 H -0.24505 0.89481 0.14781
 H163 H -0.17462 0.90217 0.00826
 H164 H -0.11926 0.92533 -0.01051
 H165 H -0.10784 0.97569 0.08752
 H166 H -0.16291 0.95247 0.10577
 C167 C 0.76866 0.10776 0.60011
 C168 C 0.79650 0.11851 0.58032
 C169 C 0.82622 0.13047 0.59625
 C170 C 0.82842 0.13183 0.63217
 C171 C 0.80043 0.12071 0.65183
 C172 C 0.77076 0.10875 0.63588
 C173 C 0.73768 0.09627 0.58387
 C174 C 0.71141 0.08677 0.57081
 C175 C 0.67967 0.07546 0.55596
 C176 C 0.64997 0.09495 0.56041
 C177 C 0.61874 0.08326 0.54750
 C178 C 0.61679 0.05183 0.52997
 C179 C 0.64693 0.03270 0.52510
 C180 C 0.67814 0.04446 0.53805
 H181 H 0.79515 0.11785 0.55262
 H182 H 0.84753 0.13879 0.58063
 H183 H 0.80138 0.12187 0.67952
 H184 H 0.74932 0.10058 0.65144
 H185 H 0.65086 0.11897 0.57429
 H186 H 0.59605 0.09860 0.55172
 H187 H 0.64633 0.00840 0.51175
 H188 H 0.70098 0.02915 0.53450
 C189 C 0.40007 0.26941 0.39304
 C190 C 0.41980 0.29727 0.38226
 C191 C 0.40385 0.32693 0.37018
 C192 C 0.36798 0.32903 0.36873
 C193 C 0.34837 0.30103 0.37989
 C194 C 0.36434 0.27142 0.39197
 C195 C 0.41632 0.23847 0.40459
 C196 C 0.42937 0.21219 0.41410
 C197 C 0.44416 0.18042 0.42534
 C198 C 0.44011 0.15085 0.40550
 C199 C 0.45294 0.11955 0.41708
 C200 C 0.46998 0.11740 0.44876
 C201 C 0.47445 0.14741 0.46824
 C202 C 0.46157 0.17869 0.45659
 H203 H 0.44748 0.29599 0.38297
 H204 H 0.41943 0.34824 0.36183
 H205 H 0.32072 0.30190 0.37867
 H206 H 0.34883 0.24997 0.40016
 H207 H 0.42663 0.15189 0.38129
 H208 H 0.44905 0.09696 0.40146
 H209 H 0.48740 0.14665 0.49273
 H210 H 0.46479 0.20143 0.47217
 C211 C 0.90359 0.23746 0.61166
 C212 C 0.92445 0.21029 0.62215
 C213 C 0.90971 0.18001 0.63426
 C214 C 0.87393 0.17658 0.63595
 C215 C 0.85323 0.20403 0.62542
 C216 C 0.86798 0.23423 0.61334
 C217 C 0.91836 0.26867 0.59889
 C218 C 0.92950 0.29520 0.58781
 C219 C 0.94116 0.32729 0.57403
 C220 C 0.97390 0.33974 0.58154
 C221 C 0.98458 0.37130 0.56835
 C222 C 0.96256 0.39076 0.54752
 C223 C 0.92977 0.37785 0.54009
 C224 C 0.91921 0.34640 0.55325
 H225 H 0.95204 0.21249 0.62091
 H226 H 0.92612 0.15913 0.64212
 H227 H 0.82564 0.20215 0.62684
 H228 H 0.85159 0.25510 0.60533
 H229 H 0.99109 0.32515 0.59765
 H230 H 1.00996 0.38051 0.57455
 H231 H 0.91215 0.39209 0.52415
 H232 H 0.89380 0.33703 0.54730
 C233 C 0.09365 0.73231 -0.10527
 C234 C 0.09811 0.72694 -0.14043
 C235 C 0.11342 0.69681 -0.15224
 C236 C 0.12451 0.67169 -0.12898
 C237 C 0.11955 0.67712 -0.09373
 C238 C 0.10424 0.70727 -0.08196
 C239 C 0.07970 0.76415 -0.09299
 C240 C 0.06899 0.79109 -0.08238
 C241 C 0.05757 0.82356 -0.06917
 C242 C 0.07935 0.84260 -0.04810
 C243 C 0.06887 0.87427 -0.03527
 C244 C 0.03635 0.88746 -0.04332
 C245 C 0.01453 0.86812 -0.06452
 C246 C 0.02512 0.83635 -0.07737
 H247 H 0.09023 0.74624 -0.15869
 H248 H 0.11726 0.69336 -0.17948
 H249 H 0.12771 0.65806 -0.07538
 H250 H 0.10102 0.71121 -0.05469
 H251 H 0.10452 0.83297 -0.04161
 H252 H 0.08633 0.88841 -0.01903
 H253 H -0.01065 0.87754 -0.07119
 H254 H 0.00806 0.82181 -0.09370
 C255 C 0.59817 0.76039 1.10367
 C256 C 0.57800 0.78831 1.11354
 C257 C 0.59348 0.81835 1.12540
 C258 C 0.62932 0.82079 1.12748
 C259 C 0.64934 0.79265 1.11737
 C260 C 0.63385 0.76268 1.10553
 C261 C 0.58258 0.72929 1.09156
 C262 C 0.57067 0.70280 1.08111
 C263 C 0.55811 0.67071 1.06808
 C264 C 0.52535 0.65893 1.07655
 C265 C 0.51381 0.62736 1.06401
 C266 C 0.53499 0.60724 1.04289
 C267 C 0.56781 0.61946 1.03453
 C268 C 0.57922 0.65091 1.04704
 H269 H 0.55036 0.78685 1.11214
 H270 H 0.57756 0.83976 1.13292
 H271 H 0.67696 0.79375 1.11910
 H272 H 0.64971 0.74121 1.09797
 H273 H 0.50881 0.67407 1.09288
 H274 H 0.48843 0.61869 1.07091
 H275 H 0.58481 0.60470 1.01833
 H276 H 0.60463 0.65974 1.04036
 C277 C 0.38852 0.40387 1.26282
 C278 C 0.37786 0.42482 1.28991
 C279 C 0.36575 0.41016 1.32026
 C280 C 0.36422 0.37438 1.32381
 C281 C 0.37494 0.35359 1.29643
 C282 C 0.38702 0.36825 1.26617
 C283 C 0.40125 0.41856 1.23154
 C284 C 0.41230 0.42964 1.20494
 C285 C 0.42603 0.44125 1.17279
 C286 C 0.41854 0.47399 1.16034
 C287 C 0.43170 0.48463 1.12873
 C288 C 0.45248 0.46255 1.10922
 C289 C 0.45990 0.42976 1.12212
 C290 C 0.44677 0.41924 1.15362
 H291 H 0.37896 0.45242 1.28761
 H292 H 0.35775 0.42664 1.34108
 H293 H 0.37365 0.32599 1.29841
 H294 H 0.39516 0.35179 1.24535
 H295 H 0.40247 0.49123 1.17498
 H296 H 0.42551 0.51001 1.11954
 H297 H 0.47581 0.41210 1.10783
 H298 H 0.45270 0.39384 1.16298
 C299 C 0.60747 -0.09959 0.23037
 C300 C 0.60842 -0.13535 0.22841
 C301 C 0.62044 -0.15145 0.19879
 C302 C 0.63165 -0.13195 0.17072
 C303 C 0.63032 -0.09605 0.17278
 C304 C 0.61831 -0.07996 0.20245
 C305 C 0.59597 -0.08321 0.26132
 C306 C 0.58648 -0.07006 0.28760
 C307 C 0.57521 -0.05516 0.31938
 C308 C 0.54409 -0.03754 0.32103
 C309 C 0.53236 -0.02463 0.35233
 C310 C 0.55162 -0.02926 0.38243
 C311 C 0.58319 -0.04647 0.38034
 C312 C 0.59486 -0.05933 0.34903
 H313 H 0.60020 -0.15078 0.24991
 H314 H 0.62157 -0.17912 0.19795
 H315 H 0.63871 -0.08055 0.15141
 H316 H 0.61768 -0.05227 0.20370
 H317 H 0.52865 -0.03422 0.29824
 H318 H 0.50795 -0.01155 0.35303
 H319 H 0.59865 -0.05049 0.40299
 H320 H 0.61897 -0.07297 0.34805
 C321 C -0.10418 1.09821 -0.26053
 C322 C -0.11424 1.07803 -0.28842
 C323 C -0.12619 1.09353 -0.31839
 C324 C -0.12820 1.12940 -0.32078
 C325 C -0.11791 1.14942 -0.29268
 C326 C -0.10597 1.13391 -0.26278
 C327 C -0.09197 1.08260 -0.22950
 C328 C -0.08143 1.07069 -0.20306
 C329 C -0.06830 1.05814 -0.17103
 C330 C -0.07665 1.02534 -0.15927
 C331 C -0.06405 1.01382 -0.12773
 C332 C -0.04298 1.03506 -0.10763
 C333 C -0.03473 1.06791 -0.11984
 C334 C -0.04730 1.07930 -0.15125
 H335 H -0.11289 1.05038 -0.28697
 H336 H -0.13385 1.07762 -0.33977
 H337 H -0.11958 1.17705 -0.29375
 H338 H -0.09828 1.14977 -0.24134
 H339 H -0.09296 1.00876 -0.17438
 H340 H -0.07087 0.98841 -0.11907
 H341 H -0.01858 1.08495 -0.10509
 H342 H -0.04071 1.10474 -0.16007
 C343 C 1.10538 0.59302 0.76794
 C344 C 1.14053 0.59738 0.77318
 C345 C 1.15243 0.61275 0.80325
 C346 C 1.12929 0.62400 0.82845
 C347 C 1.09406 0.61912 0.82317
 C348 C 1.08219 0.60375 0.79309
 C349 C 1.09299 0.57907 0.73614
 C350 C 1.08228 0.56839 0.70921
 C351 C 1.06896 0.55702 0.67676
 C352 C 1.07715 0.52460 0.66380
 C353 C 1.06422 0.51408 0.63202
 C354 C 1.04296 0.53594 0.61286
 C355 C 1.03490 0.56843 0.62624
 C356 C 1.04780 0.57883 0.65791
 H357 H 1.15869 0.58939 0.75380
 H358 H 1.17966 0.61653 0.80659
 H359 H 1.07579 0.62742 0.84231
 H360 H 1.05493 0.60062 0.78925
 H361 H 1.09354 0.50751 0.67819
 H362 H 1.07090 0.48893 0.62246
 H363 H 1.01862 0.58592 0.61223
 H364 H 1.04132 0.60399 0.66767
 C365 C 0.73156 0.60921 0.59995
 C366 C 0.70483 0.62032 0.57886
 C367 C 0.67465 0.63295 0.59338
 C368 C 0.67092 0.63461 0.62915
 C369 C 0.69785 0.62325 0.65011
 C370 C 0.72796 0.61062 0.63558
 C371 C 0.76291 0.59676 0.58521
 C372 C 0.78946 0.58642 0.57342
 C373 C 0.82149 0.57415 0.56006
 C374 C 0.82309 0.54265 0.54305
 C375 C 0.85448 0.53016 0.53126
 C376 C 0.88471 0.54904 0.53641
 C377 C 0.88273 0.58089 0.55318
 C378 C 0.85132 0.59331 0.56492
 H379 H 0.70735 0.61933 0.55125
 H380 H 0.65417 0.64144 0.57678
 H381 H 0.69569 0.62462 0.67772
 H382 H 0.74854 0.60218 0.65213
 H383 H 0.80015 0.52759 0.53921
 H384 H 0.85511 0.50556 0.51847
 H385 H 0.90549 0.59607 0.55756
 H386 H 0.85036 0.61770 0.57812
 C387 C 0.76268 0.38921 1.09744
 C388 C 0.78762 0.41252 1.10830
 C389 C 0.81747 0.40077 1.12412
 C390 C 0.82269 0.36556 1.12928
 C391 C 0.79762 0.34232 1.11803
 C392 C 0.76780 0.35410 1.10222
 C393 C 0.73141 0.40134 1.08227
 C394 C 0.70495 0.41147 1.07009
 C395 C 0.67306 0.42355 1.05624
 C396 C 0.67168 0.45473 1.03873
 C397 C 0.64040 0.46715 1.02658
 C398 C 0.61005 0.44850 1.03186
 C399 C 0.61183 0.41693 1.04907
 C400 C 0.64312 0.40459 1.06118
 H401 H 0.78389 0.43976 1.10477
 H402 H 0.83652 0.41910 1.13240
 H403 H 0.80093 0.31511 1.12202
 H404 H 0.74859 0.33585 1.09405
 H405 H 0.69470 0.46965 1.03482
 H406 H 0.63994 0.49153 1.01346
 H407 H 0.58898 0.40194 1.05358
 H408 H 0.64390 0.38044 1.07475
 C409 C 0.26635 1.10258 -0.09902
 C410 C 0.29138 1.07944 -0.11010
 C411 C 0.32117 1.09142 -0.12587
 C412 C 0.32622 1.12670 -0.13074
 C413 C 0.30097 1.14974 -0.11944
 C414 C 0.27124 1.13773 -0.10368
 C415 C 0.23530 1.09034 -0.08356
 C416 C 0.20896 1.08038 -0.07102
 C417 C 0.17714 1.06874 -0.05668
 C418 C 0.17542 1.03722 -0.03982
 C419 C 0.14415 1.02534 -0.02715
 C420 C 0.11416 1.04487 -0.03126
 C421 C 0.11631 1.07678 -0.04778
 C422 C 0.14760 1.08859 -0.06040
 H423 H 0.28782 1.05217 -0.10667
 H424 H 0.34035 1.07325 -0.13422
 H425 H 0.30413 1.17699 -0.12322
 H426 H 0.25196 1.15585 -0.09536
 H427 H 0.19815 1.02164 -0.03683
 H428 H 0.14338 1.00067 -0.01460
 H429 H 0.09375 1.09245 -0.05139
 H430 H 0.14866 1.11302 -0.07343
 C431 C 0.24080 -0.10610 0.40199
 C432 C 0.21393 -0.11589 0.42355
 C433 C 0.18348 -0.12850 0.40958
 C434 C 0.17959 -0.13141 0.37389
 C435 C 0.20675 -0.12156 0.35248
 C436 C 0.23713 -0.10898 0.36645
 C437 C 0.27218 -0.09292 0.41602
 C438 C 0.29877 -0.08160 0.42676
 C439 C 0.33085 -0.06771 0.43828
 C440 C 0.34356 -0.07552 0.47086
 C441 C 0.37506 -0.06224 0.48154
 C442 C 0.39422 -0.04098 0.45967
 C443 C 0.38108 -0.03323 0.42704
 C444 C 0.34965 -0.04651 0.41647
 H445 H 0.21649 -0.11372 0.45109
 H446 H 0.16283 -0.13580 0.42654
 H447 H 0.20451 -0.12392 0.32495
 H448 H 0.25778 -0.10152 0.34954
 H449 H 0.32920 -0.09195 0.48794
 H450 H 0.38445 -0.06869 0.50680
 H451 H 0.39511 -0.01696 0.40956
 H452 H 0.34007 -0.04033 0.39118
 C453 C 0.59741 -0.25920 0.60547
 C454 C 0.63291 -0.26277 0.60843
 C455 C 0.64691 -0.29309 0.62109
 C456 C 0.62557 -0.32030 0.63092
 C457 C 0.58992 -0.31652 0.62793
 C458 C 0.57592 -0.28612 0.61524
 C459 C 0.58336 -0.22787 0.59222
 C460 C 0.57260 -0.20130 0.58087
 C461 C 0.56108 -0.16924 0.56696
 C462 C 0.58300 -0.15030 0.54598
 C463 C 0.57245 -0.11886 0.53274
 C464 C 0.53974 -0.10584 0.54031
 C465 C 0.51777 -0.12514 0.56132
 C466 C 0.52842 -0.15666 0.57458
 H467 H 0.64977 -0.24207 0.60099
 H468 H 0.67441 -0.29525 0.62351
 H469 H 0.57302 -0.33721 0.63522
 H470 H 0.54842 -0.28364 0.61301
 H471 H 0.60834 -0.15979 0.53995
 H472 H 0.59001 -0.10471 0.51665
 H473 H 0.49245 -0.11584 0.56764
 H474 H 0.51127 -0.17111 0.59084
 C475 C 1.10073 0.76612 0.39954
 C476 C 1.13642 0.76808 0.39755
 C477 C 1.15208 0.79758 0.38487
 C478 C 1.13219 0.82551 0.37400
 C479 C 1.09637 0.82350 0.37648
 C480 C 1.08073 0.79395 0.38917
 C481 C 1.08473 0.73520 0.41143
 C482 C 1.07181 0.70894 0.42110
 C483 C 1.05709 0.67718 0.43241
 C484 C 1.06076 0.64770 0.41238
 C485 C 1.04791 0.61642 0.42394
 C486 C 1.03122 0.61421 0.45580
 C487 C 1.02714 0.64414 0.47550
 C488 C 1.04004 0.67541 0.46386
 H489 H 1.15212 0.74663 0.40541
 H490 H 1.17968 0.79840 0.38287
 H491 H 1.08057 0.84476 0.36840
 H492 H 1.05309 0.79269 0.39059
 H493 H 1.07395 0.64879 0.38800
 H494 H 1.05150 0.59390 0.40816
 H495 H 1.01446 0.64333 0.50013
 H496 H 1.03710 0.69808 0.47958
 C497 C -0.09803 1.26283 0.11081
 C498 C -0.10885 1.28773 0.08746
 C499 C -0.12462 1.31765 0.09918
 C500 C -0.12978 1.32299 0.13442
 C501 C -0.11858 1.29796 0.15770
 C502 C -0.10282 1.26807 0.14595
 C503 C -0.08287 1.23151 0.09871
 C504 C -0.07068 1.20503 0.08858
 C505 C -0.05679 1.17314 0.07644
 C506 C -0.03927 1.17178 0.04522
 C507 C -0.02706 1.14052 0.03275
 C508 C -0.03229 1.11014 0.05137
 C509 C -0.04951 1.11188 0.08298
 C510 C -0.06168 1.14317 0.09538
 H511 H -0.10531 1.28391 0.06021
 H512 H -0.13287 1.33666 0.08081
 H513 H -0.12257 1.30136 0.18493
 H514 H -0.09468 1.24890 0.16423
 H515 H -0.03539 1.19483 0.03033
 H516 H -0.01393 1.14008 0.00834
 H517 H -0.05399 1.08901 0.09795
 H518 H -0.07526 1.14393 0.11956
 C519 C 0.40328 0.23035 0.88971
 C520 C 0.39886 0.22546 0.85448
 C521 C 0.38397 0.19532 0.84225
 C522 C 0.37331 0.16972 0.86514
 C523 C 0.37818 0.17469 0.90047
 C524 C 0.39306 0.20485 0.91267
 C525 C 0.41734 0.26197 0.90232
 C526 C 0.42859 0.28871 0.91281
 C527 C 0.44138 0.32090 0.92530
 C528 C 0.43632 0.35072 0.90619
 C529 C 0.44764 0.38225 0.91876
 C530 C 0.46419 0.38436 0.95070
 C531 C 0.46950 0.35414 0.96956
 C532 C 0.45813 0.32264 0.95692
 H533 H 0.40654 0.24510 0.83651
 H534 H 0.38017 0.19220 0.81496
 H535 H 0.37030 0.15523 0.91853
 H536 H 0.39633 0.20841 0.94000
 H537 H 0.42333 0.34966 0.88170
 H538 H 0.44315 0.40499 0.90359
 H539 H 0.48213 0.35486 0.99422
 H540 H 0.46212 0.29970 0.97194
 C541 C 0.59990 0.60083 0.73345
 C542 C 0.61042 0.58083 0.70561
 C543 C 0.62310 0.59649 0.67606
 C544 C 0.62543 0.63234 0.67405
 C545 C 0.61440 0.65223 0.70197
 C546 C 0.60172 0.63655 0.73149
 C547 C 0.58808 0.58481 0.76440
 C548 C 0.57847 0.57186 0.79068
 C549 C 0.56724 0.55710 0.82247
 C550 C 0.53587 0.53997 0.82430
 C551 C 0.52432 0.52702 0.85559
 C552 C 0.54403 0.53112 0.88550
 C553 C 0.57580 0.54787 0.88323
 C554 C 0.58729 0.56078 0.85192
 H555 H 0.60913 0.55317 0.70687
 H556 H 0.63131 0.58069 0.65479
 H557 H 0.61629 0.67985 0.70116
 H558 H 0.59375 0.65226 0.75294
 H559 H 0.52014 0.53702 0.80165
 H560 H 0.49974 0.51429 0.85645
 H561 H 0.59159 0.55148 0.90573
 H562 H 0.61160 0.57402 0.85078
 C563 C 0.39442 0.09300 0.76130
 C564 C 0.41720 0.10360 0.78685
 C565 C 0.40481 0.11820 0.81710
 C566 C 0.36945 0.12243 0.82212
 C567 C 0.34672 0.11121 0.79656
 C568 C 0.35915 0.09660 0.76631
 C569 C 0.40734 0.07993 0.72935
 C570 C 0.41844 0.06989 0.70235
 C571 C 0.43209 0.05906 0.66988
 C572 C 0.45286 0.08138 0.65118
 C573 C 0.46604 0.07137 0.61948
 C574 C 0.45862 0.03880 0.60596
 C575 C 0.43775 0.01645 0.62498
 C576 C 0.42457 0.02657 0.65676
 H577 H 0.44455 0.10102 0.78319
 H578 H 0.42276 0.12649 0.83651
 H579 H 0.31940 0.11449 0.79971
 H580 H 0.34131 0.08867 0.74662
 H581 H 0.45882 0.10660 0.66108
 H582 H 0.48200 0.08920 0.60555
 H583 H 0.43156 -0.00878 0.61531
 H584 H 0.40848 0.00910 0.67103
 C585 C 0.10891 0.89994 0.26817
 C586 C 0.11020 0.86433 0.27161
 C587 C 0.12286 0.84969 0.30166
 C588 C 0.13437 0.87053 0.32867
 C589 C 0.13281 0.90629 0.32510
 C590 C 0.12015 0.92091 0.29500
 C591 C 0.09648 0.91479 0.23687
 C592 C 0.08618 0.92667 0.21034
 C593 C 0.07397 0.94012 0.17833
 C594 C 0.09321 0.93543 0.14848
 C595 C 0.08085 0.94724 0.11707
 C596 C 0.04898 0.96389 0.11510
 C597 C 0.03002 0.96887 0.14535
 C598 C 0.04246 0.95702 0.17674
 H599 H 0.10167 0.84787 0.25096
 H600 H 0.12415 0.82209 0.30368
 H601 H 0.14141 0.92280 0.34566
 H602 H 0.11925 0.94851 0.29259
 H603 H 0.11762 0.92232 0.14943
 H604 H 0.09608 0.94298 0.09430
 H605 H 0.00541 0.98157 0.14473
 H606 H 0.02734 0.96072 0.19970
 C607 C 0.88888 0.40254 0.23702
 C608 C 0.91216 0.39161 0.21205
 C609 C 0.90040 0.37580 0.18216
 C610 C 0.86519 0.37071 0.17690
 C611 C 0.84197 0.38202 0.20199
 C612 C 0.85377 0.39784 0.23186
 C613 C 0.90103 0.41769 0.26834
 C614 C 0.91119 0.42985 0.29485
 C615 C 0.92334 0.44367 0.32678
 C616 C 0.95456 0.46111 0.32814
 C617 C 0.96704 0.47324 0.35946
 C618 C 0.94843 0.46799 0.38986
 C619 C 0.91682 0.45084 0.38810
 C620 C 0.90440 0.43877 0.35677
 H621 H 0.93940 0.39509 0.21581
 H622 H 0.91871 0.36745 0.16309
 H623 H 0.81477 0.37809 0.19866
 H624 H 0.83554 0.40605 0.25109
 H625 H 0.96945 0.46500 0.30508
 H626 H 0.99146 0.48630 0.35990
 H627 H 0.90185 0.44636 0.41099
 H628 H 0.88022 0.42525 0.35601
   
