data_POSCAR
  _audit_creation_date              2014-09-24
  _audit_creation_method            'ToBaCCo'
  _symmetry_space_group_name_H-M    'P1'
  _symmetry_Int_Tables_number       1
  _symmetry_cell_setting            triclinic
  loop_
  _symmetry_equiv_pos_as_xyz
 x,y,z
_cell_length_a 29.2821
_cell_length_b 29.2822
_cell_length_c 29.2822
_cell_angle_alpha 90.000000
_cell_angle_beta 90.000000
_cell_angle_gamma 90.000000
loop_
  _atom_site_label
  _atom_site_type_symbol
  _atom_site_fract_x
  _atom_site_fract_y
  _atom_site_fract_z
C1 C 0.25000 0.50000 1.00000
 C2 C 0.75000 0.50000 -0.00000
 C3 C 0.00000 0.25000 0.49999
 C4 C 1.00000 0.75000 0.50001
 C5 C 0.50000 -0.00001 0.25000
 C6 C 0.50000 0.00001 0.75000
 C7 C 0.28854 0.03092 0.41611
 H8 H 0.26475 0.05900 0.41865
 C9 C 0.32030 0.03011 0.38049
 H10 H 0.32015 0.05750 0.35565
 C11 C 0.31910 -0.03751 0.44661
 H12 H 0.31888 -0.06326 0.47311
 C13 C 0.35133 -0.03974 0.41159
 H14 H 0.37564 -0.06759 0.41138
 N15 N 0.28861 -0.00257 0.44830
 C16 C 0.21146 0.08388 0.53093
 H17 H 0.23525 0.08135 0.55900
 C18 C 0.17970 0.11951 0.53011
 H19 H 0.17985 0.14434 0.55750
 C20 C 0.18090 0.05339 0.46249
 H21 H 0.18112 0.02689 0.43674
 C22 C 0.14867 0.08841 0.46026
 H23 H 0.12436 0.08862 0.43241
 Zn24 Zn 0.25000 -0.00000 0.50000
 N25 N 0.21139 0.05170 0.49743
 C26 C 0.31910 0.03751 0.55339
 N27 N 0.28861 0.00257 0.55170
 C28 C 0.28854 -0.03093 0.58389
 C29 C 0.32030 -0.03011 0.61951
 C30 C 0.35133 0.03974 0.58841
 C31 C 0.21146 -0.08388 0.46907
 C32 C 0.17970 -0.11951 0.46989
 C33 C 0.14867 -0.08841 0.53974
 C34 C 0.18090 -0.05339 0.53751
 N35 N 0.21139 -0.05170 0.50257
 H36 H 0.31888 0.06326 0.52689
 H37 H 0.26475 -0.05900 0.58135
 H38 H 0.32015 -0.05750 0.64435
 H39 H 0.37564 0.06759 0.58862
 H40 H 0.23525 -0.08135 0.44100
 H41 H 0.17985 -0.14434 0.44250
 H42 H 0.12436 -0.08862 0.56759
 H43 H 0.18112 -0.02689 0.56326
 C44 C 0.14740 0.12183 0.49468
 C45 C 0.35260 -0.00532 0.37817
 C46 C 0.14740 -0.12183 0.50532
 C47 C 0.35260 0.00532 0.62183
 C48 C 0.71146 0.03093 0.58388
 H49 H 0.73524 0.05901 0.58134
 C50 C 0.67970 0.03013 0.61951
 H51 H 0.67985 0.05752 0.64434
 C52 C 0.68090 -0.03751 0.55340
 H53 H 0.68112 -0.06325 0.52689
 C54 C 0.64867 -0.03973 0.58842
 H55 H 0.62436 -0.06758 0.58862
 N56 N 0.71139 -0.00257 0.55170
 C57 C 0.78854 0.08388 0.46906
 H58 H 0.76476 0.08134 0.44099
 C59 C 0.82030 0.11951 0.46987
 H60 H 0.82015 0.14434 0.44248
 C61 C 0.81910 0.05340 0.53751
 H62 H 0.81888 0.02690 0.56325
 C63 C 0.85133 0.08842 0.53973
 H64 H 0.87564 0.08862 0.56758
 Zn65 Zn 0.75000 -0.00000 0.50000
 N66 N 0.78861 0.05170 0.50257
 C67 C 0.68090 0.03751 0.44660
 N68 N 0.71139 0.00257 0.44830
 C69 C 0.71146 -0.03093 0.41612
 C70 C 0.67970 -0.03013 0.38049
 C71 C 0.64867 0.03973 0.41158
 C72 C 0.78854 -0.08388 0.53094
 C73 C 0.82030 -0.11951 0.53013
 C74 C 0.85133 -0.08842 0.46027
 C75 C 0.81910 -0.05340 0.46249
 N76 N 0.78861 -0.05170 0.49743
 H77 H 0.68112 0.06325 0.47311
 H78 H 0.73524 -0.05901 0.41866
 H79 H 0.67985 -0.05752 0.35566
 H80 H 0.62436 0.06758 0.41138
 H81 H 0.76476 -0.08134 0.55901
 H82 H 0.82015 -0.14434 0.55752
 H83 H 0.87564 -0.08862 0.43242
 H84 H 0.81888 -0.02690 0.43675
 C85 C 0.85260 0.12182 0.50531
 C86 C 0.64740 -0.00531 0.62182
 C87 C 0.85260 -0.12182 0.49469
 C88 C 0.64740 0.00531 0.37818
 C89 C 0.46249 0.18089 1.05340
 H90 H 0.43675 0.18112 1.02690
 C91 C 0.46027 0.14867 1.08842
 H92 H 0.43242 0.12435 1.08862
 C93 C 0.53093 0.21146 1.08389
 H94 H 0.55900 0.23524 1.08136
 C95 C 0.53012 0.17970 1.11952
 H96 H 0.55751 0.17985 1.14435
 N97 N 0.49743 0.21139 1.05171
 C98 C 0.44661 0.31911 0.96250
 H99 H 0.47311 0.31888 0.93676
 C100 C 0.41159 0.35133 0.96028
 H101 H 0.41139 0.37565 0.93243
 C102 C 0.41612 0.28854 1.03094
 H103 H 0.41865 0.26475 1.05901
 C104 C 0.38049 0.32030 1.03012
 H105 H 0.35566 0.32015 1.05751
 Zn106 Zn 0.50000 0.25000 1.00001
 N107 N 0.44830 0.28861 0.99744
 C108 C 0.46907 0.21146 0.91612
 N109 N 0.50257 0.21139 0.94831
 C110 C 0.53751 0.18089 0.94661
 C111 C 0.53973 0.14867 0.91159
 C112 C 0.46988 0.17971 0.88050
 C113 C 0.55340 0.31910 1.03752
 C114 C 0.58842 0.35133 1.03974
 C115 C 0.61951 0.32030 0.96989
 C116 C 0.58389 0.28854 0.96908
 N117 N 0.55170 0.28860 1.00258
 H118 H 0.44100 0.23525 0.91866
 H119 H 0.56325 0.18111 0.97312
 H120 H 0.56758 0.12436 0.91139
 H121 H 0.44250 0.17986 0.85566
 H122 H 0.52689 0.31888 1.06326
 H123 H 0.58862 0.37564 1.06759
 H124 H 0.64434 0.32015 0.94250
 H125 H 0.58135 0.26475 0.94101
 C126 C 0.37818 0.35260 0.99469
 C127 C 0.49468 0.14740 1.12183
 C128 C 0.62183 0.35260 1.00532
 C129 C 0.50532 0.14740 0.87818
 C130 C 0.46249 0.81911 -0.05340
 H131 H 0.43675 0.81888 -0.02690
 C132 C 0.46027 0.85133 -0.08842
 H133 H 0.43242 0.87565 -0.08862
 C134 C 0.53093 0.78854 -0.08389
 H135 H 0.55900 0.76476 -0.08136
 C136 C 0.53012 0.82030 -0.11952
 H137 H 0.55751 0.82015 -0.14435
 N138 N 0.49743 0.78861 -0.05171
 C139 C 0.44661 0.68089 0.03750
 H140 H 0.47311 0.68112 0.06324
 C141 C 0.41159 0.64867 0.03972
 H142 H 0.41139 0.62435 0.06757
 C143 C 0.41612 0.71146 -0.03094
 H144 H 0.41865 0.73525 -0.05901
 C145 C 0.38049 0.67970 -0.03012
 H146 H 0.35566 0.67985 -0.05751
 Zn147 Zn 0.50000 0.75000 -0.00001
 N148 N 0.44830 0.71139 0.00256
 C149 C 0.46907 0.78854 0.08388
 N150 N 0.50257 0.78861 0.05169
 C151 C 0.53751 0.81911 0.05339
 C152 C 0.53973 0.85133 0.08841
 C153 C 0.46988 0.82029 0.11950
 C154 C 0.55340 0.68090 -0.03752
 C155 C 0.58842 0.64867 -0.03974
 C156 C 0.61951 0.67970 0.03011
 C157 C 0.58389 0.71146 0.03092
 N158 N 0.55170 0.71140 -0.00258
 H159 H 0.44100 0.76475 0.08134
 H160 H 0.56325 0.81889 0.02688
 H161 H 0.56758 0.87564 0.08861
 H162 H 0.44250 0.82014 0.14434
 H163 H 0.52689 0.68112 -0.06326
 H164 H 0.58862 0.62436 -0.06759
 H165 H 0.64434 0.67985 0.05750
 H166 H 0.58135 0.73525 0.05899
 C167 C 0.37818 0.64740 0.00531
 C168 C 0.49468 0.85260 -0.12183
 C169 C 0.62183 0.64740 -0.00532
 C170 C 0.50532 0.85260 0.12182
 C171 C 1.05339 0.46250 0.18089
 H172 H 1.02689 0.43676 0.18112
 C173 C 1.08841 0.46028 0.14867
 H174 H 1.08861 0.43243 0.12436
 C175 C 1.08388 0.53094 0.21146
 H176 H 1.08135 0.55901 0.23525
 C177 C 1.11951 0.53013 0.17970
 H178 H 1.14434 0.55751 0.17985
 N179 N 1.05170 0.49744 0.21139
 C180 C 0.96249 0.44661 0.31911
 H181 H 0.93675 0.47312 0.31889
 C182 C 0.96027 0.41159 0.35133
 H183 H 0.93242 0.41139 0.37564
 C184 C 1.03093 0.41612 0.28854
 H185 H 1.05900 0.41866 0.26475
 C186 C 1.03012 0.38050 0.32029
 H187 H 1.05751 0.35566 0.32014
 Zn188 Zn 1.00000 0.50001 0.25000
 N189 N 0.99743 0.44831 0.28861
 C190 C 0.91612 0.46908 0.21146
 N191 N 0.94830 0.50258 0.21140
 C192 C 0.94660 0.53752 0.18090
 C193 C 0.91158 0.53974 0.14867
 C194 C 0.88049 0.46989 0.17970
 C195 C 1.03751 0.55340 0.31911
 C196 C 1.03973 0.58842 0.35133
 C197 C 0.96988 0.61952 0.32030
 C198 C 0.96907 0.58389 0.28854
 N199 N 1.00257 0.55171 0.28861
 H200 H 0.91865 0.44100 0.23525
 H201 H 0.97311 0.56326 0.18112
 H202 H 0.91138 0.56759 0.12436
 H203 H 0.85566 0.44250 0.17985
 H204 H 1.06326 0.52690 0.31888
 H205 H 1.06758 0.58862 0.37565
 H206 H 0.94249 0.64435 0.32015
 H207 H 0.94100 0.58136 0.26476
 C208 C 0.99469 0.37818 0.35260
 C209 C 1.12182 0.49469 0.14740
 C210 C 1.00531 0.62183 0.35260
 C211 C 0.87817 0.50532 0.14740
 C212 C -0.05340 0.46248 0.81910
 H213 H -0.02689 0.43674 0.81888
 C214 C -0.08842 0.46026 0.85133
 H215 H -0.08862 0.43241 0.87564
 C216 C -0.08388 0.53092 0.78854
 H217 H -0.08135 0.55900 0.76475
 C218 C -0.11951 0.53011 0.82030
 H219 H -0.14434 0.55750 0.82015
 N220 N -0.05170 0.49742 0.78860
 C221 C 0.03751 0.44660 0.68089
 H222 H 0.06326 0.47310 0.68112
 C223 C 0.03973 0.41158 0.64867
 H224 H 0.06758 0.41138 0.62435
 C225 C -0.03093 0.41611 0.71146
 H226 H -0.05900 0.41864 0.73524
 C227 C -0.03012 0.38048 0.67970
 H228 H -0.05751 0.35565 0.67985
 Zn229 Zn 0.00000 0.49999 0.75000
 N230 N 0.00257 0.44829 0.71139
 C231 C 0.08388 0.46906 0.78854
 N232 N 0.05170 0.50256 0.78861
 C233 C 0.05339 0.53750 0.81911
 C234 C 0.08841 0.53972 0.85133
 C235 C 0.11951 0.46987 0.82030
 C236 C -0.03751 0.55339 0.68089
 C237 C -0.03973 0.58841 0.64867
 C238 C 0.03012 0.61950 0.67971
 C239 C 0.03093 0.58388 0.71146
 N240 N -0.00257 0.55169 0.71139
 H241 H 0.08135 0.44099 0.76475
 H242 H 0.02689 0.56324 0.81888
 H243 H 0.08861 0.56757 0.87564
 H244 H 0.14434 0.44249 0.82015
 H245 H -0.06325 0.52688 0.68111
 H246 H -0.06758 0.58861 0.62436
 H247 H 0.05751 0.64434 0.67986
 H248 H 0.05900 0.58134 0.73525
 C249 C 0.00531 0.37817 0.64740
 C250 C -0.12183 0.49468 0.85260
 C251 C -0.00531 0.62182 0.64740
 C252 C 0.12182 0.50531 0.85260
 N253 N 0.04548 0.18872 0.46212
 C254 C 0.04154 0.21878 0.49727
 N255 N 0.07337 0.21752 0.53106
 N256 N 0.10751 0.18747 0.52977
 C257 C 0.11121 0.15725 0.49475
 N258 N 0.07959 0.15870 0.46086
 N259 N 0.71752 0.57337 0.03107
 C260 C 0.71878 0.54154 -0.00272
 N261 N 0.68872 0.54547 -0.03788
 N262 N 0.65870 0.57958 -0.03914
 C263 C 0.65725 0.61121 -0.00525
 N264 N 0.68747 0.60751 0.02977
 N265 N 0.92663 -0.21752 0.53108
 C266 C 0.95847 -0.21878 0.49729
 N267 N 0.95453 -0.18872 0.46213
 N268 N 0.92042 -0.15870 0.46088
 C269 C 0.88880 -0.15724 0.49477
 N270 N 0.89249 -0.18746 0.52978
 N271 N 0.28248 0.42663 1.03108
 C272 C 0.28122 0.45846 0.99728
 N273 N 0.31128 0.45452 0.96213
 N274 N 0.34130 0.42041 0.96087
 C275 C 0.34276 0.38880 0.99477
 N276 N 0.31254 0.39249 1.02978
 N277 N 0.92663 0.21752 0.46892
 C278 C 0.95847 0.21878 0.50271
 N279 N 0.95453 0.18872 0.53787
 N280 N 0.92042 0.15870 0.53912
 C281 C 0.88880 0.15724 0.50523
 N282 N 0.89249 0.18746 0.47022
 N283 N 0.31128 0.54548 0.03787
 C284 C 0.28122 0.54154 0.00272
 N285 N 0.28248 0.57337 -0.03108
 N286 N 0.31254 0.60751 -0.02978
 C287 C 0.34276 0.61120 0.00523
 N288 N 0.34130 0.57959 0.03913
 N289 N 0.04548 -0.18872 0.53788
 C290 C 0.04154 -0.21878 0.50273
 N291 N 0.07337 -0.21752 0.46894
 N292 N 0.10751 -0.18747 0.47023
 C293 C 0.11121 -0.15725 0.50525
 N294 N 0.07959 -0.15870 0.53914
 N295 N 0.71752 0.42663 0.96893
 C296 C 0.71878 0.45846 1.00272
 N297 N 0.68872 0.45453 1.03788
 N298 N 0.65870 0.42042 1.03914
 C299 C 0.65725 0.38879 1.00525
 N300 N 0.68747 0.39249 0.97023
 N301 N 0.46212 0.04547 1.18872
 C302 C 0.49728 0.04153 1.21878
 N303 N 0.53107 0.07336 1.21752
 N304 N 0.52977 0.10750 1.18747
 C305 C 0.49476 0.11120 1.15725
 N306 N 0.46087 0.07958 1.15870
 N307 N -0.03788 0.68872 0.54548
 C308 C -0.00272 0.71878 0.54154
 N309 N 0.03107 0.71752 0.57338
 N310 N 0.02977 0.68746 0.60752
 C311 C -0.00524 0.65724 0.61121
 N312 N -0.03913 0.65870 0.57959
 N313 N 0.46212 0.95453 -0.18872
 C314 C 0.49728 0.95847 -0.21878
 N315 N 0.53107 0.92664 -0.21752
 N316 N 0.52977 0.89250 -0.18747
 C317 C 0.49476 0.88880 -0.15725
 N318 N 0.46087 0.92042 -0.15870
 N319 N 0.96212 0.31128 0.45452
 C320 C 0.99728 0.28122 0.45846
 N321 N 1.03107 0.28248 0.42662
 N322 N 1.02977 0.31254 0.39248
 C323 C 0.99476 0.34276 0.38879
 N324 N 0.96087 0.34130 0.42041
 N325 N 0.53788 0.95452 0.18872
 C326 C 0.50272 0.95846 0.21878
 N327 N 0.46893 0.92662 0.21752
 N328 N 0.47023 0.89248 0.18746
 C329 C 0.50524 0.88879 0.15724
 N330 N 0.53913 0.92041 0.15870
 N331 N -0.03107 0.28248 0.57336
 C332 C 0.00272 0.28122 0.54153
 N333 N 0.03788 0.31128 0.54547
 N334 N 0.03913 0.34130 0.57958
 C335 C 0.00524 0.34275 0.61120
 N336 N -0.02977 0.31253 0.60750
 N337 N 0.46893 0.07338 0.78248
 C338 C 0.50272 0.04154 0.78122
 N339 N 0.53788 0.04548 0.81128
 N340 N 0.53913 0.07959 0.84130
 C341 C 0.50524 0.11121 0.84276
 N342 N 0.47023 0.10752 0.81254
 N343 N 0.96893 0.71752 0.42664
 C344 C 1.00272 0.71878 0.45847
 N345 N 1.03788 0.68872 0.45453
 N346 N 1.03913 0.65870 0.42042
 C347 C 1.00524 0.65725 0.38880
 N348 N 0.97023 0.68747 0.39250
 N349 N 1.18872 0.46213 0.04548
 C350 C 1.21878 0.49728 0.04154
 N351 N 1.21752 0.53108 0.07337
 N352 N 1.18746 0.52978 0.10751
 C353 C 1.15724 0.49477 0.11120
 N354 N 1.15870 0.46087 0.07959
 N355 N 0.57337 0.03108 0.71752
 C356 C 0.54153 -0.00271 0.71878
 N357 N 0.54547 -0.03787 0.68872
 N358 N 0.57958 -0.03912 0.65870
 C359 C 0.61120 -0.00523 0.65724
 N360 N 0.60751 0.02978 0.68746
 N361 N -0.21752 0.53107 0.92663
 C362 C -0.21878 0.49728 0.95846
 N363 N -0.18872 0.46212 0.95453
 N364 N -0.15870 0.46086 0.92042
 C365 C -0.15725 0.49476 0.88879
 N366 N -0.18747 0.52977 0.89249
 N367 N 0.42663 0.03106 0.28248
 C368 C 0.45846 -0.00273 0.28122
 N369 N 0.45452 -0.03788 0.31128
 N370 N 0.42041 -0.03914 0.34130
 C371 C 0.38879 -0.00525 0.34275
 N372 N 0.39249 0.02977 0.31253
 N373 N 0.18872 0.53787 0.95452
 C374 C 0.21878 0.50272 0.95846
 N375 N 0.21752 0.46892 0.92663
 N376 N 0.18746 0.47022 0.89249
 C377 C 0.15724 0.50523 0.88880
 N378 N 0.15870 0.53913 0.92041
 N379 N 0.54547 0.03787 0.31128
 C380 C 0.54153 0.00271 0.28122
 N381 N 0.57337 -0.03108 0.28248
 N382 N 0.60751 -0.02978 0.31254
 C383 C 0.61120 0.00523 0.34276
 N384 N 0.57958 0.03912 0.34130
 N385 N 0.78248 0.46893 0.07337
 C386 C 0.78122 0.50272 0.04154
 N387 N 0.81128 0.53788 0.04547
 N388 N 0.84130 0.53914 0.07958
 C389 C 0.84275 0.50524 0.11121
 N390 N 0.81253 0.47023 0.10751
 N391 N 0.42663 -0.03106 0.71752
 C392 C 0.45846 0.00273 0.71878
 N393 N 0.45452 0.03788 0.68872
 N394 N 0.42041 0.03914 0.65870
 C395 C 0.38879 0.00525 0.65725
 N396 N 0.39249 -0.02977 0.68747
   
