data_POSCAR
  _audit_creation_date              2014-09-24
  _audit_creation_method            'ToBaCCo'
  _symmetry_space_group_name_H-M    'P1'
  _symmetry_Int_Tables_number       1
  _symmetry_cell_setting            triclinic
  loop_
  _symmetry_equiv_pos_as_xyz
 x,y,z
_cell_length_a 35.5006
_cell_length_b 35.6219
_cell_length_c 13.5897
_cell_angle_alpha 89.568800
_cell_angle_beta 90.132800
_cell_angle_gamma 121.854200
loop_
  _atom_site_label
  _atom_site_type_symbol
  _atom_site_fract_x
  _atom_site_fract_y
  _atom_site_fract_z
C1 C 0.13739 0.44339 0.47010
 C2 C 0.15756 0.44295 0.38021
 C3 C 0.19653 0.44167 0.38512
 C4 C 0.21300 0.43643 0.47464
 C5 C 0.19042 0.43376 0.56144
 C6 C 0.15475 0.44055 0.56201
 C7 C 0.25503 0.43599 0.47848
 C8 C 0.28261 0.45190 0.56228
 C9 C 0.32219 0.45215 0.56665
 C10 C 0.33489 0.43739 0.48639
 C11 C 0.31054 0.42532 0.39912
 C12 C 0.26954 0.42246 0.39689
 H13 H 0.10889 0.44674 0.46873
 H14 H 0.21555 0.44669 0.31945
 H15 H 0.20104 0.42622 0.62913
 H16 H 0.27426 0.46554 0.62323
 H17 H 0.36487 0.43660 0.49096
 H18 H 0.24986 0.41109 0.33075
 C19 C 0.54776 -0.32436 0.51645
 C20 C 0.54403 -0.30611 0.42672
 C21 C 0.54685 -0.26527 0.42961
 C22 C 0.54483 -0.24635 0.51836
 C23 C 0.54585 -0.26685 0.60664
 C24 C 0.54996 -0.30423 0.60773
 C25 C 0.53945 -0.20683 0.51789
 C26 C 0.54462 -0.18266 0.60417
 C27 C 0.53467 -0.14931 0.60568
 C28 C 0.52499 -0.13577 0.51679
 C29 C 0.52197 -0.15744 0.42870
 C30 C 0.52676 -0.19410 0.43135
 H31 H 0.54787 -0.35460 0.51531
 H32 H 0.55106 -0.24805 0.36129
 H33 H 0.54158 -0.25476 0.67505
 H34 H 0.55578 -0.18968 0.67166
 H35 H 0.51872 -0.10919 0.51638
 H36 H 0.51889 -0.21331 0.36535
 C37 C 1.29357 0.87921 0.50197
 C38 C 1.27146 0.86391 0.41107
 C39 C 1.22853 0.82542 0.41149
 C40 C 1.21058 0.79912 0.49674
 C41 C 1.23411 0.81489 0.58541
 C42 C 1.27462 0.85535 0.58931
 C43 C 1.17048 0.75311 0.49103
 C44 C 1.14435 0.73184 0.57502
 C45 C 1.11339 0.68583 0.57635
 C46 C 1.10407 0.66263 0.48753
 C47 C 1.12819 0.68333 0.40199
 C48 C 1.16166 0.72821 0.40470
 H49 H 1.32550 0.90969 0.50578
 H50 H 1.20949 0.81426 0.34473
 H51 H 1.22235 0.79476 0.65133
 H52 H 1.15045 0.75091 0.64075
 H53 H 1.07942 0.62772 0.48544
 H54 H 1.18190 0.74320 0.34008
 C55 C 0.88841 0.54545 0.47636
 C56 C 0.86350 0.54064 0.39306
 C57 C 0.82771 0.54664 0.39970
 C58 C 0.81724 0.55869 0.48962
 C59 C 0.84343 0.56384 0.57313
 C60 C 0.87826 0.55602 0.56665
 C61 C 0.77797 0.56367 0.49621
 C62 C 0.75308 0.55308 0.58398
 C63 C 0.71373 0.55366 0.58772
 C64 C 0.69963 0.56503 0.50303
 C65 C 0.72328 0.57523 0.41507
 C66 C 0.76311 0.57593 0.41255
 H67 H 0.91680 0.54194 0.47060
 H68 H 0.80753 0.54060 0.33502
 H69 H 0.83644 0.57310 0.64319
 H70 H 0.76276 0.54177 0.64763
 H71 H 0.67046 0.56725 0.50583
 H72 H 0.78168 0.58466 0.34461
 C73 C 0.48323 0.34207 0.53257
 C74 C 0.48154 0.32247 0.44172
 C75 C 0.46868 0.27801 0.43953
 C76 C 0.46278 0.25371 0.52639
 C77 C 0.46759 0.27509 0.61696
 C78 C 0.47611 0.31856 0.62201
 C79 C 0.45390 0.20722 0.52229
 C80 C 0.43880 0.17910 0.60566
 C81 C 0.43695 0.13851 0.60714
 C82 C 0.44283 0.12253 0.51747
 C83 C 0.45422 0.14812 0.43127
 C84 C 0.46215 0.19100 0.43586
 H85 H 0.49263 0.37631 0.53313
 H86 H 0.46365 0.26297 0.36829
 H87 H 0.46469 0.25781 0.68413
 H88 H 0.42890 0.18902 0.67002
 H89 H 0.43845 0.09019 0.51364
 H90 H 0.47584 0.21160 0.37134
 C91 C 0.66011 0.10256 0.49984
 C92 C 0.68185 0.11816 0.40883
 C93 C 0.72277 0.15882 0.40543
 C94 C 0.74000 0.18591 0.48925
 C95 C 0.71588 0.17005 0.57800
 C96 C 0.67722 0.12810 0.58472
 C97 C 0.78155 0.23131 0.48440
 C98 C 0.80474 0.25219 0.57091
 C99 C 0.83967 0.29671 0.57229
 C100 C 0.85667 0.31868 0.48077
 C101 C 0.83544 0.29773 0.39155
 C102 C 0.79728 0.25496 0.39522
 H103 H 0.62971 0.07055 0.50505
 H104 H 0.74059 0.16974 0.33688
 H105 H 0.72585 0.19069 0.64237
 H106 H 0.79596 0.23337 0.63849
 H107 H 0.88433 0.35258 0.47873
 H108 H 0.78000 0.24037 0.32745
 O109 O 0.96449 0.49015 -0.22244
 O110 O 1.03141 0.53404 0.17368
 O111 O 0.95460 0.51679 0.06160
 O112 O 1.08163 0.57274 -0.08628
 O113 O 0.95060 0.47837 0.17884
 O114 O 1.04405 0.53218 -0.21288
 O115 O 1.09081 0.55349 0.08862
 O116 O 0.95951 0.52173 -0.09846
 C117 C 0.95748 0.51813 -0.18733
 C118 C 1.07137 0.56096 0.15489
 C119 C 0.94194 0.50503 0.14485
 C120 C 1.06571 0.56951 -0.17018
 O121 O 1.03735 0.45007 -0.16254
 O122 O 0.96398 0.41580 0.13373
 O123 O 0.91373 0.43054 -0.12014
 O124 O 1.08589 0.48205 0.02470
 O125 O 1.04709 0.46974 0.15882
 O126 O 0.96254 0.41615 -0.15797
 O127 O 1.09311 0.51200 -0.14793
 O128 O 0.91385 0.42296 0.05667
 Co129 Co 1.00295 0.47363 -0.17488
 Co130 Co 0.99917 0.47542 0.14249
 Co131 Co 0.94085 0.47355 -0.02459
 Co132 Co 1.07924 0.52528 -0.02912
 O133 O 1.00552 0.48582 -0.02039
 C134 C 1.07690 0.47437 -0.17896
 C135 C 0.92429 0.40050 0.11131
 C136 C 0.92341 0.40489 -0.15816
 C137 C 1.07739 0.46927 0.11261
 O138 O 0.48257 0.44792 -0.13502
 O139 O 0.46126 0.49525 0.19784
 O140 O 0.55173 0.45454 0.10974
 O141 O 0.44591 0.48862 -0.10556
 O142 O 0.49859 0.45238 0.19627
 O143 O 0.48313 0.50694 -0.24054
 O144 O 0.42869 0.47593 0.05924
 O145 O 0.53752 0.44580 -0.06974
 C146 C 0.50178 0.42749 -0.11851
 C147 C 0.42689 0.47184 0.14916
 C148 C 0.52132 0.43634 0.17455
 C149 C 0.44694 0.49776 -0.19538
 O150 O 0.55104 0.56730 -0.14964
 O151 O 0.57506 0.52475 0.20884
 O152 O 0.59754 0.53625 -0.08722
 O153 O 0.48533 0.56425 0.10205
 O154 O 0.53896 0.56841 0.19009
 O155 O 0.55802 0.50430 -0.20731
 O156 O 0.50370 0.57655 -0.07386
 O157 O 0.61043 0.54354 0.07383
 Co158 Co 0.51581 0.50806 -0.13477
 Co159 Co 0.51869 0.51034 0.18077
 Co160 Co 0.57014 0.49580 0.00707
 Co161 Co 0.47051 0.52539 -0.00270
 O162 O 0.52100 0.51041 0.01829
 C163 C 0.53596 0.59093 -0.13136
 C164 C 0.61078 0.54576 0.16352
 C165 C 0.59587 0.52407 -0.17192
 C166 C 0.51570 0.58361 0.16596
 O167 O 0.52676 0.04057 -0.18655
 O168 O 0.46270 -0.06827 0.20399
 O169 O 0.55595 0.06459 0.11085
 O170 O 0.45930 -0.09492 -0.09339
 O171 O 0.53383 0.00149 0.17933
 O172 O 0.51091 -0.03489 -0.16214
 O173 O 0.47468 -0.09045 0.07273
 O174 O 0.56330 0.05802 -0.05589
 C175 C 0.56336 0.05780 -0.14600
 C176 C 0.47689 -0.08920 0.16275
 C177 C 0.56425 0.03980 0.16011
 C178 C 0.49444 -0.07470 -0.14323
 O179 O 0.42563 -0.06427 -0.18403
 O180 O 0.49214 0.04413 0.20404
 O181 O 0.49321 0.07098 -0.09446
 O182 O 0.39818 -0.08845 0.11447
 O183 O 0.42088 -0.02543 0.18183
 O184 O 0.44170 0.01100 -0.16187
 O185 O 0.38956 -0.08167 -0.05247
 O186 O 0.47922 0.06655 0.07304
 Co187 Co 0.47632 -0.01190 -0.15411
 Co188 Co 0.47730 -0.01203 0.17284
 Co189 Co 0.51885 0.05828 0.00844
 Co190 Co 0.43445 -0.08216 0.01033
 O191 O 0.47671 -0.01194 0.00937
 C192 C 0.38923 -0.08066 -0.14269
 C193 C 0.47918 0.06644 0.16326
 C194 C 0.45800 0.05068 -0.14360
 C195 C 0.39025 -0.06362 0.16370
 N196 N 1.13353 0.44773 0.12393
 N197 N 1.15619 0.44099 0.19904
 C198 C 1.14075 0.44537 0.28677
 C199 C 1.10721 0.45378 0.26816
 C200 C 1.10423 0.45551 0.16616
 H201 H 1.08880 0.46045 0.32110
 H202 H 1.13964 0.44778 0.04887
 H203 H 1.18009 0.43308 0.18557
 N204 N 0.51121 0.65057 0.18188
 N205 N 0.52013 0.68174 0.25422
 C206 C 0.53557 0.67167 0.33529
 C207 C 0.53730 0.63427 0.31474
 C208 C 0.52190 0.62238 0.21863
 H209 H 0.54728 0.61693 0.36351
 H210 H 0.49789 0.64948 0.11259
 H211 H 0.51191 0.70575 0.24674
 N212 N 0.30846 -0.10854 0.16100
 N213 N 0.27479 -0.12939 0.23084
 C214 C 0.29312 -0.11581 0.32109
 C215 C 0.33838 -0.08458 0.30902
 C216 C 0.34649 -0.08185 0.20871
 H217 H 0.36362 -0.07001 0.36531
 H218 H 0.30491 -0.11620 0.08636
 H219 H 0.24225 -0.15338 0.21263
 N220 N 0.89756 0.54013 0.14708
 N221 N 0.87505 0.54810 0.21187
 C222 C 0.87672 0.53093 0.29915
 C223 C 0.90053 0.51039 0.28906
 C224 C 0.91363 0.51768 0.19240
 H225 H 0.90928 0.49455 0.34507
 H226 H 0.90276 0.55098 0.07393
 H227 H 0.86119 0.56715 0.19748
 N228 N 0.52825 0.37101 0.20491
 N229 N 0.51738 0.34110 0.27515
 C230 C 0.49630 0.34838 0.34833
 C231 C 0.49340 0.38448 0.32277
 C232 C 0.51392 0.39769 0.23117
 H233 H 0.47921 0.39960 0.36539
 H234 H 0.54550 0.37321 0.14081
 H235 H 0.52559 0.31694 0.27387
 N236 N 0.64642 0.08400 0.15982
 N237 N 0.67801 0.10506 0.22597
 C238 C 0.65975 0.09393 0.31687
 C239 C 0.61460 0.06326 0.30691
 C240 C 0.60762 0.05834 0.20667
 H241 H 0.58920 0.05086 0.36317
 H242 H 0.65109 0.08914 0.08399
 H243 H 0.71086 0.12834 0.20757
 N244 N 0.43691 0.10652 -0.14213
 N245 N 0.43136 0.13173 -0.21274
 C246 C 0.43236 0.11611 -0.30269
 C247 C 0.43661 0.07952 -0.28964
 C248 C 0.44015 0.07538 -0.18917
 H249 H 0.44235 0.06150 -0.34516
 H250 H 0.44234 0.11400 -0.06742
 H251 H 0.43123 0.16011 -0.19530
 N252 N 0.67327 0.54207 -0.16810
 N253 N 0.70587 0.54849 -0.23473
 C254 C 0.68876 0.54360 -0.32559
 C255 C 0.64451 0.53202 -0.31836
 C256 C 0.63640 0.53158 -0.21915
 H257 H 0.62131 0.52580 -0.37706
 H258 H 0.67832 0.54725 -0.09248
 H259 H 0.73868 0.55989 -0.21564
 N260 N 0.85267 0.33306 -0.17642
 N261 N 0.83017 0.30267 -0.25117
 C262 C 0.85447 0.31804 -0.33512
 C263 C 0.89320 0.35834 -0.31427
 C264 C 0.89074 0.36608 -0.21446
 H265 H 0.91961 0.37967 -0.36478
 H266 H 0.84132 0.33015 -0.10430
 H267 H 0.79822 0.27506 -0.24248
 N268 N 0.50710 -0.13668 -0.14804
 N269 N 0.51819 -0.15614 -0.21416
 C270 C 0.52999 -0.13224 -0.29850
 C271 C 0.52717 -0.09516 -0.28374
 C272 C 0.51216 -0.09962 -0.18780
 H273 H 0.53099 -0.07082 -0.33749
 H274 H 0.49378 -0.15006 -0.07891
 H275 H 0.51414 -0.18712 -0.20334
 N276 N 0.36850 0.47650 -0.19177
 N277 N 0.33556 0.46482 -0.25368
 C278 C 0.35087 0.46812 -0.34569
 C279 C 0.39603 0.48347 -0.34213
 C280 C 0.40566 0.48808 -0.24301
 H281 H 0.41816 0.48830 -0.40218
 H282 H 0.36470 0.47422 -0.11542
 H283 H 0.30278 0.45237 -0.23226
 N284 N 1.09011 0.64864 -0.17356
 N285 N 1.10304 0.68156 -0.24475
 C286 C 1.09632 0.66253 -0.33405
 C287 C 1.07749 0.61704 -0.32068
 C288 C 1.07551 0.61024 -0.22028
 H289 H 1.07087 0.59241 -0.37538
 H290 H 1.09414 0.65405 -0.09779
 H291 H 1.11732 0.71489 -0.22804
 N292 N 0.93354 0.57181 -0.20267
 N293 N 0.91100 0.58092 -0.26559
 C294 C 0.90387 0.55691 -0.34713
 C295 C 0.92294 0.53164 -0.33576
 C296 C 0.94110 0.54189 -0.24318
 H297 H 0.92099 0.50685 -0.38472
 H298 H 0.94199 0.58462 -0.13160
 H299 H 0.90036 0.60269 -0.25183
 N300 N 0.48762 0.35154 -0.12381
 N301 N 0.48172 0.32166 -0.19701
 C302 C 0.47885 0.33817 -0.28506
 C303 C 0.48154 0.37821 -0.26800
 C304 C 0.48689 0.38515 -0.16691
 H305 H 0.48237 0.40110 -0.32200
 H306 H 0.49480 0.34934 -0.05018
 H307 H 0.48343 0.29380 -0.18299
 N308 N 0.64534 0.10502 -0.16082
 N309 N 0.67524 0.12381 -0.23149
 C310 C 0.65448 0.11185 -0.31926
 C311 C 0.60925 0.08398 -0.30353
 C312 C 0.60496 0.08082 -0.20202
 H313 H 0.58304 0.06946 -0.35779
 H314 H 0.65256 0.10959 -0.08579
 H315 H 0.70925 0.14448 -0.21913
 N316 N 1.13966 0.46341 -0.18872
 N317 N 1.16135 0.45404 -0.26051
 C318 C 1.13902 0.44629 -0.34646
 C319 C 1.10207 0.44986 -0.32935
 C320 C 1.10388 0.46038 -0.23002
 H321 H 1.07827 0.44764 -0.38253
 H322 H 1.15146 0.47400 -0.11759
 H323 H 1.19207 0.45757 -0.24842
 N324 N 0.55722 0.66911 -0.13898
 N325 N 0.55928 0.69773 -0.21226
 C326 C 0.55410 0.67829 -0.30085
 C327 C 0.55065 0.63772 -0.28462
 C328 C 0.55225 0.63318 -0.18294
 H329 H 0.54298 0.61232 -0.33809
 H330 H 0.55558 0.67350 -0.06354
 H331 H 0.56361 0.72839 -0.19693
 N332 N 0.30706 -0.12240 -0.15686
 N333 N 0.27696 -0.13921 -0.22720
 C334 C 0.29774 -0.12894 -0.31517
 C335 C 0.34323 -0.10418 -0.29984
 C336 C 0.34759 -0.10116 -0.19835
 H337 H 0.36942 -0.09175 -0.35426
 H338 H 0.29973 -0.12625 -0.08186
 H339 H 0.24280 -0.15751 -0.21444
 N340 N 0.51065 -0.13481 0.17507
 N341 N 0.52250 -0.15264 0.24448
 C342 C 0.51297 -0.14291 0.33334
 C343 C 0.49446 -0.11725 0.31917
 C344 C 0.49345 -0.11319 0.21778
 H345 H 0.48292 -0.10378 0.37416
 H346 H 0.51476 -0.13715 0.09977
 H347 H 0.53771 -0.17036 0.23019
 N348 N 0.34450 0.42219 0.15262
 N349 N 0.31295 0.40923 0.21970
 C350 C 0.33222 0.42292 0.30872
 C351 C 0.37779 0.44483 0.29719
 C352 C 0.38414 0.44435 0.19802
 H353 H 0.40333 0.46381 0.35099
 H354 H 0.33890 0.41834 0.07685
 H355 H 0.27924 0.39354 0.20325
 N356 N 1.13863 0.63448 0.18206
 N357 N 1.15353 0.66710 0.24548
 C358 C 1.12172 0.65677 0.31320
 C359 C 1.08470 0.61561 0.29102
 C360 C 1.09711 0.60270 0.20786
 H361 H 1.05367 0.59707 0.33076
 H362 H 1.15712 0.63382 0.12313
 H363 H 1.18568 0.69484 0.24379
 N364 N 0.45852 0.12283 0.17727
 N365 N 0.45243 0.14455 0.24739
 C366 C 0.45830 0.13073 0.33562
 C367 C 0.46836 0.09844 0.32053
 C368 C 0.46833 0.09467 0.21903
 H369 H 0.47566 0.08088 0.37509
 H370 H 0.45637 0.12768 0.10218
 H371 H 0.44392 0.16808 0.23423
 N372 N 0.69325 0.58955 0.17157
 N373 N 0.72360 0.59717 0.23837
 C374 C 0.70300 0.58054 0.32534
 C375 C 0.65787 0.56217 0.31314
 C376 C 0.65308 0.56808 0.21526
 H377 H 0.63139 0.54262 0.36508
 H378 H 0.69983 0.59678 0.09665
 H379 H 0.75734 0.61189 0.22299
 N380 N 0.84624 0.33947 0.14302
 N381 N 0.82294 0.31402 0.21825
 C382 C 0.85056 0.32027 0.29358
 C383 C 0.89368 0.35081 0.26346
 C384 C 0.88947 0.36201 0.16712
 H385 H 0.92358 0.36479 0.30716
 H386 H 0.83241 0.34273 0.07805
 H387 H 0.78836 0.29425 0.21888
   
