data_POSCAR
  _audit_creation_date              2014-09-24
  _audit_creation_method            'ToBaCCo'
  _symmetry_space_group_name_H-M    'P1'
  _symmetry_Int_Tables_number       1
  _symmetry_cell_setting            triclinic
  loop_
  _symmetry_equiv_pos_as_xyz
 x,y,z
_cell_length_a 43.7617
_cell_length_b 45.8891
_cell_length_c 45.2698
_cell_angle_alpha 89.720600
_cell_angle_beta 89.061900
_cell_angle_gamma 89.348600
loop_
  _atom_site_label
  _atom_site_type_symbol
  _atom_site_fract_x
  _atom_site_fract_y
  _atom_site_fract_z
N1 N 0.31210 0.35523 1.34383
 N2 N 0.31649 0.33770 1.36644
 C3 C 0.29580 0.34397 1.38785
 C4 C 0.27728 0.36647 1.37801
 C5 C 0.28829 0.37316 1.34992
 H6 H 0.29389 0.33258 1.40877
 H7 H 0.27957 0.38941 1.33478
 Cu8 Cu 0.34728 0.30696 1.36512
 Cu9 Cu 0.33663 0.35233 1.30772
 Cu10 Cu 0.40331 0.31143 1.31353
 N11 N 0.38476 0.28428 1.36799
 N12 N 0.40664 0.28622 1.34789
 C13 C 0.42934 0.26747 1.35467
 C14 C 0.42126 0.25304 1.38039
 C15 C 0.39279 0.26434 1.38839
 H16 H 0.44988 0.26399 1.34147
 H17 H 0.37854 0.25815 1.40705
 N18 N 0.39544 0.33807 1.28031
 N19 N 0.36996 0.35352 1.27796
 C20 C 0.37093 0.36980 1.25316
 C21 C 0.40022 0.36456 1.23693
 C22 C 0.41417 0.34323 1.25706
 H23 H 0.35294 0.38457 1.24631
 H24 H 0.43640 0.33317 1.25378
 H25 H 0.35686 0.31116 1.31163
 H26 H 0.37347 0.34156 1.33309
 N27 N 1.20593 0.64423 0.85775
 N28 N 1.20579 0.66490 0.87797
 C29 C 1.23116 0.66167 0.89443
 C30 C 1.24773 0.63788 0.88371
 C31 C 1.23106 0.62752 0.86066
 H32 H 1.23747 0.67591 0.91223
 H33 H 1.23739 0.60942 0.84654
 Cu34 Cu 1.17297 0.69531 0.88007
 Cu35 Cu 1.17491 0.64072 0.82732
 Cu36 Cu 1.12525 0.69580 0.82196
 N37 N 1.13814 0.72267 0.87730
 N38 N 1.11990 0.72266 0.85447
 C39 C 1.09812 0.74325 0.85809
 C40 C 1.10273 0.75710 0.88454
 C41 C 1.12842 0.74354 0.89633
 H42 H 1.08004 0.74776 0.84264
 H43 H 1.13929 0.74840 0.91698
 N44 N 1.12270 0.66211 0.79646
 N45 N 1.14245 0.64048 0.79859
 C46 C 1.13687 0.62004 0.77826
 C47 C 1.11033 0.62885 0.76038
 C48 C 1.10288 0.65701 0.77471
 H49 H 1.15017 0.60025 0.77533
 H50 H 1.08454 0.67174 0.76863
 H51 H 1.17758 0.68564 0.83643
 H52 H 1.14878 0.66461 0.85857
 N53 N 0.69232 -0.12137 0.13905
 N54 N 0.68864 -0.14154 0.11889
 C55 C 0.71007 -0.13859 0.09751
 C56 C 0.72829 -0.11540 0.10443
 C57 C 0.71647 -0.10486 0.13106
 H58 H 0.71252 -0.15244 0.07834
 H59 H 0.72494 -0.08693 0.14387
 Cu60 Cu 0.65675 -0.17030 0.12256
 Cu61 Cu 0.66603 -0.11990 0.17476
 Cu62 Cu 0.59805 -0.15807 0.16837
 N63 N 0.62569 -0.19959 0.12907
 N64 N 0.60212 -0.19449 0.14671
 C65 C 0.58307 -0.21731 0.14592
 C66 C 0.59552 -0.23788 0.12686
 C67 C 0.62269 -0.22592 0.11661
 H68 H 0.56165 -0.21869 0.15812
 H69 H 0.63887 -0.23524 0.10094
 N70 N 0.60481 -0.12886 0.19912
 N71 N 0.63086 -0.11516 0.20279
 C72 C 0.62873 -0.09949 0.22800
 C73 C 0.59994 -0.10379 0.24052
 C74 C 0.58553 -0.12231 0.22155
 H75 H 0.64694 -0.08664 0.23690
 H76 H 0.56311 -0.13161 0.22475
 H77 H 0.64408 -0.16023 0.17405
 H78 H 0.63094 -0.13043 0.14902
 N79 N -0.19386 1.10646 -0.36855
 N80 N -0.18784 1.12556 -0.38948
 C81 C -0.21094 1.12628 -0.40873
 C82 C -0.23254 1.10638 -0.39949
 C83 C -0.22098 1.09412 -0.37386
 H84 H -0.21190 1.14014 -0.42809
 H85 H -0.23132 1.07750 -0.36009
 Cu86 Cu -0.15033 1.14739 -0.38957
 Cu87 Cu -0.16518 1.09869 -0.33686
 Cu88 Cu -0.11006 1.15195 -0.32716
 N89 N -0.12163 1.17831 -0.38377
 N90 N -0.10615 1.18093 -0.35927
 C91 C -0.08943 1.20552 -0.36112
 C92 C -0.09514 1.21874 -0.38825
 C93 C -0.11556 1.20081 -0.40186
 H94 H -0.07480 1.21334 -0.34392
 H95 H -0.12594 1.20434 -0.42313
 N96 N -0.11796 1.12009 -0.29795
 N97 N -0.13902 1.10012 -0.30191
 C98 C -0.13900 1.08146 -0.27890
 C99 C -0.11676 1.08969 -0.25952
 C100 C -0.10379 1.11435 -0.27221
 H101 H -0.15395 1.06297 -0.27642
 H102 H -0.08543 1.12709 -0.26345
 H103 H -0.15493 1.14227 -0.33630
 H104 H -0.12452 1.11789 -0.35189
 N105 N 0.71700 0.62781 0.63339
 N106 N 0.71709 0.64671 0.61148
 C107 C 0.74359 0.64414 0.59620
 C108 C 0.76085 0.62239 0.60920
 C109 C 0.74338 0.61253 0.63286
 H110 H 0.74981 0.65695 0.57695
 H111 H 0.74924 0.59562 0.64856
 Cu112 Cu 0.68270 0.67294 0.60524
 Cu113 Cu 0.68301 0.62514 0.66132
 Cu114 Cu 0.61494 0.65189 0.63347
 N115 N 0.64524 0.69409 0.59674
 N116 N 0.61878 0.68583 0.60790
 C117 C 0.59677 0.70435 0.59885
 C118 C 0.61030 0.72539 0.58119
 C119 C 0.64099 0.71814 0.58013
 H120 H 0.57285 0.70266 0.60493
 H121 H 0.65890 0.72986 0.56859
 N122 N 0.61705 0.62612 0.66830
 N123 N 0.64306 0.61645 0.67919
 C124 C 0.63725 0.60119 0.70403
 C125 C 0.60600 0.60151 0.70915
 C126 C 0.59392 0.61751 0.68613
 H127 H 0.65464 0.59139 0.71767
 H128 H 0.57014 0.62335 0.68320
 H129 H 0.65678 0.63030 0.62554
 H130 H 0.65572 0.66188 0.65145
 N131 N 0.78283 0.37300 0.16706
 N132 N 0.78489 0.35316 0.14623
 C133 C 0.76191 0.35712 0.12718
 C134 C 0.74436 0.38062 0.13666
 C135 C 0.75818 0.39010 0.16209
 H136 H 0.75811 0.34365 0.10809
 H137 H 0.75090 0.40820 0.17581
 Cu138 Cu 0.81682 0.32346 0.14583
 Cu139 Cu 0.81249 0.37507 0.19883
 Cu140 Cu 0.87547 0.32922 0.19218
 N141 N 0.85464 0.30163 0.13974
 N142 N 0.87796 0.30489 0.15729
 C143 C 0.90113 0.28749 0.14815
 C144 C 0.89166 0.27223 0.12388
 C145 C 0.86203 0.28170 0.11901
 H146 H 0.92288 0.28524 0.15899
 H147 H 0.84697 0.27458 0.10183
 N148 N 0.86883 0.35525 0.22597
 N149 N 0.84528 0.37337 0.22843
 C150 C 0.84729 0.38786 0.25421
 C151 C 0.87312 0.37792 0.26856
 C152 C 0.88605 0.35727 0.25017
 H153 H 0.83069 0.40359 0.26243
 H154 H 0.90640 0.34443 0.25439
 H155 H 0.84682 0.35915 0.17157
 H156 H 0.82821 0.33253 0.19750
 N157 N 0.26695 0.17175 0.84284
 N158 N 0.27004 0.19450 0.85996
 C159 C 0.24807 0.19425 0.88112
 C160 C 0.23043 0.16989 0.87708
 C161 C 0.24296 0.15612 0.85251
 H162 H 0.24563 0.21011 0.89862
 H163 H 0.23552 0.13610 0.84257
 Cu164 Cu 0.30353 0.22105 0.85382
 Cu165 Cu 0.29505 0.16359 0.81013
 Cu166 Cu 0.36091 0.20511 0.80572
 N167 N 0.34239 0.24036 0.85549
 N168 N 0.36477 0.23497 0.83647
 C169 C 0.38877 0.25186 0.84318
 C170 C 0.38076 0.26821 0.86790
 C171 C 0.35136 0.26023 0.87509
 H172 H 0.41054 0.25168 0.83152
 H173 H 0.33755 0.26824 0.89341
 N174 N 0.35167 0.17368 0.77717
 N175 N 0.32612 0.15862 0.77875
 C176 C 0.32560 0.13966 0.75625
 C177 C 0.35212 0.14245 0.73986
 C178 C 0.36832 0.16421 0.75363
 H179 H 0.30735 0.12460 0.75211
 H180 H 0.39028 0.17273 0.74680
 H181 H 0.33225 0.18089 0.83199
 H182 H 0.31415 0.20476 0.80349
 N183 N 0.18603 0.87231 0.37212
 N184 N 0.18932 0.84945 0.38947
 C185 C 0.21161 0.85492 0.40896
 C186 C 0.22252 0.88273 0.40338
 C187 C 0.20574 0.89301 0.37999
 H188 H 0.21918 0.83994 0.42591
 H189 H 0.20802 0.91401 0.36929
 Cu190 Cu 0.16361 0.81517 0.38456
 Cu191 Cu 0.15721 0.87382 0.33997
 Cu192 Cu 0.11351 0.81274 0.32880
 N193 N 0.13880 0.78065 0.37765
 N194 N 0.11980 0.77994 0.35545
 C195 C 0.10567 0.75408 0.35533
 C196 C 0.11606 0.73766 0.37875
 C197 C 0.13716 0.75512 0.39255
 H198 H 0.08868 0.74773 0.33958
 H199 H 0.15025 0.74967 0.41189
 N200 N 0.11026 0.84810 0.30417
 N201 N 0.12695 0.87142 0.30848
 C202 C 0.11953 0.89189 0.28834
 C203 C 0.09705 0.88090 0.27056
 C204 C 0.09166 0.85319 0.28124
 H205 H 0.12955 0.91328 0.28690
 H206 H 0.07536 0.83791 0.27280
 H207 H 0.12620 0.84462 0.35790
 H208 H 0.15685 0.82928 0.33307
 Zn209 Zn 0.04020 0.99790 0.01759
 Zn210 Zn -0.02182 0.98801 -0.00889
 Zn211 Zn -0.01531 1.01409 0.05181
 Zn212 Zn 0.00288 1.04858 -0.00091
 O213 O 0.00130 1.01199 0.01473
 O214 O 0.04504 0.96471 -0.00154
 O215 O -0.05597 0.97489 0.01054
 O216 O 0.00957 1.00124 0.08022
 O217 O -0.00024 0.95571 -0.02069
 O218 O 0.05144 0.99010 0.05459
 O219 O -0.04869 0.99302 0.05520
 O220 O -0.01359 1.07590 0.02260
 O221 O -0.03462 1.00670 -0.04241
 O222 O -0.02728 1.05014 0.06195
 O223 O -0.01718 1.05113 -0.03447
 O224 O 0.04076 1.06011 -0.01022
 O225 O 0.06845 1.02167 0.00258
 C226 C 0.02758 0.94866 -0.01621
 C227 C -0.06423 0.97822 0.03747
 C228 C 0.03690 0.99176 0.07894
 C229 C -0.02583 1.07417 0.04812
 C230 C -0.03133 1.03322 -0.05028
 C231 C 0.06632 1.04699 -0.00845
 Zn232 Zn 0.49059 -0.04203 0.49112
 Zn233 Zn 0.50435 -0.01591 0.54928
 Zn234 Zn 0.51608 0.01788 0.49372
 Zn235 Zn 0.45183 0.00634 0.51498
 O236 O 0.49075 -0.00835 0.51218
 O237 O 0.50397 -0.07257 0.51196
 O238 O 0.54011 0.00062 0.55588
 O239 O 0.53228 0.00416 0.45970
 O240 O 0.51011 -0.05391 0.55646
 O241 O 0.51349 -0.04037 0.45788
 O242 O 0.54834 0.02757 0.51587
 O243 O 0.44822 0.04004 0.49570
 O244 O 0.47967 -0.00169 0.57770
 O245 O 0.49619 0.05086 0.48380
 O246 O 0.44061 0.01542 0.55225
 O247 O 0.42345 -0.01779 0.50040
 O248 O 0.45305 -0.05224 0.48065
 C249 C 0.51034 -0.07548 0.53907
 C250 C 0.55633 0.01838 0.54116
 C251 C 0.52980 -0.02019 0.44684
 C252 C 0.46785 0.05726 0.48472
 C253 C 0.45435 0.01188 0.57651
 C254 C 0.42678 -0.04150 0.48622
 Zn255 Zn 0.98364 0.46038 0.50830
 Zn256 Zn 1.01362 0.51428 0.52898
 Zn257 Zn 1.04760 0.45747 0.53024
 Zn258 Zn 1.03418 0.48756 0.47261
 O259 O 1.01981 0.47983 0.51001
 O260 O 0.95262 0.47984 0.52561
 O261 O 1.03459 0.51629 0.56198
 O262 O 1.03195 0.42365 0.54327
 O263 O 0.97478 0.52041 0.53978
 O264 O 0.98473 0.42553 0.52653
 O265 O 1.06150 0.47521 0.56276
 O266 O 1.06956 0.46900 0.46494
 O267 O 1.02544 0.54531 0.50793
 O268 O 1.08023 0.44778 0.50772
 O269 O 1.04189 0.52561 0.46606
 O270 O 1.00801 0.47654 0.44470
 O271 O 0.97174 0.45471 0.47114
 C272 C 0.95133 0.50462 0.53780
 C273 C 1.05391 0.49952 0.57412
 C274 C 1.00569 0.41257 0.54076
 C275 C 1.08688 0.45335 0.48090
 C276 C 1.03754 0.54771 0.48244
 C277 C 0.98293 0.46292 0.44644
 Zn278 Zn 0.49213 0.51208 0.95140
 Zn279 Zn 0.49219 0.53310 1.01377
 Zn280 Zn 0.51077 0.47161 0.99994
 Zn281 Zn 0.55117 0.52045 0.98225
 O282 O 0.51151 0.50932 0.98683
 O283 O 0.45958 0.53649 0.95245
 O284 O 0.47652 0.51342 1.04456
 O285 O 0.49479 0.44711 0.97359
 O286 O 0.46046 0.55241 0.99852
 O287 O 0.47923 0.47751 0.93862
 O288 O 0.48861 0.46781 1.03310
 O289 O 0.57805 0.49319 0.99368
 O290 O 0.51664 0.56057 1.02823
 O291 O 0.54800 0.45744 1.00875
 O292 O 0.55985 0.55172 1.00361
 O293 O 0.56087 0.52973 0.94502
 O294 O 0.51681 0.52483 0.92231
 C295 C 0.44865 0.55228 0.97316
 C296 C 0.47573 0.48632 1.05007
 C297 C 0.48219 0.45189 0.94891
 C298 C 0.57439 0.46826 1.00525
 C299 C 0.54427 0.56659 1.02206
 C300 C 0.54499 0.53104 0.92189
 C301 C 1.25231 0.37836 0.39347
 C302 C 1.23360 0.40039 0.38195
 C303 C 1.20615 0.41211 0.39764
 C304 C 1.19402 0.43914 0.38874
 C305 C 1.16787 0.45073 0.40264
 C306 C 1.15336 0.43558 0.42580
 C307 C 1.16507 0.40822 0.43435
 C308 C 1.19115 0.39658 0.42040
 C309 C 1.12544 0.44829 0.43967
 C310 C 1.11534 0.44113 0.46818
 H311 H 1.23947 0.41002 0.36076
 H312 H 1.20486 0.45138 0.37101
 H313 H 1.15904 0.47167 0.39536
 H314 H 1.15374 0.39532 0.45123
 H315 H 1.19885 0.37513 0.42711
 H316 H 1.11292 0.46464 0.42729
 H317 H 1.24763 0.36980 0.41536
 H318 H 1.12874 0.42660 0.48186
 C319 C 0.27767 0.62582 0.89203
 C320 C 0.29435 0.63458 0.91630
 C321 C 0.32432 0.62076 0.92276
 C322 C 0.33304 0.61632 0.95211
 C323 C 0.36018 0.60124 0.95852
 C324 C 0.37944 0.59078 0.93554
 C325 C 0.37111 0.59616 0.90621
 C326 C 0.34400 0.61109 0.89986
 C327 C 0.40758 0.57327 0.94093
 C328 C 0.42156 0.57090 0.96832
 H329 H 0.28441 0.65004 0.93181
 H330 H 0.31832 0.62362 0.97013
 H331 H 0.36530 0.59721 0.98144
 H332 H 0.38552 0.58858 0.88808
 H333 H 0.33848 0.61495 0.87695
 H334 H 0.41797 0.56191 0.92232
 H335 H 0.28659 0.60825 0.87840
 H336 H 0.41290 0.58321 0.98700
 C337 C -0.24499 0.89406 0.08671
 C338 C -0.22791 0.91855 0.09345
 C339 C -0.20015 0.92788 0.07660
 C340 C -0.18283 0.95054 0.08817
 C341 C -0.15605 0.95967 0.07393
 C342 C -0.14557 0.94611 0.04777
 C343 C -0.16344 0.92427 0.03542
 C344 C -0.19040 0.91514 0.04966
 C345 C -0.11630 0.95467 0.03321
 C346 C -0.09233 0.96535 0.04974
 H347 H -0.23470 0.93119 0.11266
 H348 H -0.18993 0.96117 0.10851
 H349 H -0.14375 0.97756 0.08345
 H350 H -0.15622 0.91389 0.01498
 H351 H -0.20326 0.89816 0.03932
 H352 H -0.11345 0.95214 0.00955
 H353 H -0.23877 0.88071 0.06795
 H354 H -0.09476 0.96591 0.07357
 C355 C 0.73876 0.10003 0.58538
 C356 C 0.71908 0.07815 0.59503
 C357 C 0.69039 0.07058 0.58005
 C358 C 0.67727 0.04347 0.58635
 C359 C 0.64994 0.03545 0.57336
 C360 C 0.63477 0.05463 0.55402
 C361 C 0.64806 0.08158 0.54730
 C362 C 0.67549 0.08964 0.56033
 C363 C 0.60535 0.04687 0.54052
 C364 C 0.58497 0.02785 0.55437
 H365 H 0.72553 0.06500 0.61388
 H366 H 0.68832 0.02830 0.60128
 H367 H 0.64103 0.01405 0.57828
 H368 H 0.63688 0.09668 0.53239
 H369 H 0.68444 0.11098 0.55531
 H370 H 0.59910 0.05716 0.51985
 H371 H 0.73384 0.11243 0.56562
 H372 H 0.59002 0.01933 0.57611
 C373 C 0.43798 0.23058 0.39358
 C374 C 0.42796 0.21639 0.41926
 C375 C 0.44216 0.18947 0.43124
 C376 C 0.42586 0.17397 0.45299
 C377 C 0.43699 0.14748 0.46376
 C378 C 0.46473 0.13573 0.45285
 C379 C 0.48183 0.15180 0.43214
 C380 C 0.47069 0.17842 0.42135
 C381 C 0.47633 0.10701 0.46285
 C382 C 0.45684 0.08537 0.47338
 H383 H 0.40726 0.22410 0.43022
 H384 H 0.40409 0.18215 0.46139
 H385 H 0.42378 0.13641 0.48071
 H386 H 0.50357 0.14347 0.42386
 H387 H 0.48457 0.18995 0.40529
 H388 H 0.50061 0.10238 0.46078
 H389 H 0.45880 0.22362 0.38244
 H390 H 0.43236 0.08899 0.47361
 C391 C 0.91530 0.24489 0.59960
 C392 C 0.93570 0.26361 0.61311
 C393 C 0.94444 0.29176 0.59916
 C394 C 0.97324 0.30358 0.60451
 C395 C 0.98219 0.32972 0.59089
 C396 C 0.96230 0.34467 0.57171
 C397 C 0.93316 0.33323 0.56718
 C398 C 0.92427 0.30720 0.58074
 C399 C 0.97033 0.37245 0.55655
 C400 C 0.99963 0.38427 0.55521
 H401 H 0.94652 0.25705 0.63347
 H402 H 0.98901 0.29237 0.61898
 H403 H 1.00452 0.33804 0.59576
 H404 H 0.91712 0.34447 0.55300
 H405 H 0.90140 0.29948 0.57698
 H406 H 0.95208 0.38413 0.54553
 H407 H 0.90686 0.25066 0.57797
 H408 H 1.01864 0.37315 0.56540
 C409 C 0.08460 0.78001 -0.10453
 C410 C 0.08955 0.79382 -0.07764
 C411 C 0.07144 0.81949 -0.06713
 C412 C 0.08313 0.83618 -0.04415
 C413 C 0.06785 0.86133 -0.03442
 C414 C 0.04049 0.87063 -0.04767
 C415 C 0.02791 0.85319 -0.06959
 C416 C 0.04315 0.82788 -0.07928
 C417 C 0.02488 0.89827 -0.03893
 C418 C 0.04122 0.92150 -0.02770
 H419 H 0.10860 0.78665 -0.06436
 H420 H 0.10445 0.82997 -0.03389
 H421 H 0.07759 0.87331 -0.01641
 H422 H 0.00651 0.85945 -0.07966
 H423 H 0.03251 0.81516 -0.09618
 H424 H 0.00052 0.90071 -0.04227
 H425 H 0.06623 0.78750 -0.11842
 H426 H 0.06581 0.91959 -0.02615
 C427 C 0.58242 0.73560 1.11932
 C428 C 0.59615 0.71657 1.09892
 C429 C 0.58224 0.68924 1.08866
 C430 C 0.59351 0.67692 1.06231
 C431 C 0.58124 0.65130 1.05141
 C432 C 0.55759 0.63706 1.06692
 C433 C 0.54625 0.64932 1.09330
 C434 C 0.55854 0.67507 1.10423
 C435 C 0.54367 0.61015 1.05555
 C436 C 0.55898 0.59154 1.03588
 H437 H 0.61759 0.72257 1.08848
 H438 H 0.61165 0.68743 1.04981
 H439 H 0.58997 0.64320 1.03050
 H440 H 0.52799 0.63880 1.10561
 H441 H 0.54963 0.68345 1.12494
 H442 H 0.52080 0.60473 1.06309
 H443 H 0.56046 0.73045 1.12918
 H444 H 0.58262 0.59543 1.02986
 C445 C 0.41484 0.37782 1.20561
 C446 C 0.40190 0.40107 1.19050
 C447 C 0.41626 0.41255 1.16318
 C448 C 0.40578 0.43904 1.15129
 C449 C 0.41949 0.45061 1.12578
 C450 C 0.44391 0.43573 1.11170
 C451 C 0.45390 0.40896 1.12325
 C452 C 0.44038 0.39752 1.14881
 C453 C 0.45909 0.44692 1.08467
 C454 C 0.45952 0.47632 1.07682
 H455 H 0.38150 0.41166 1.19945
 H456 H 0.38707 0.45088 1.16185
 H457 H 0.41059 0.47090 1.11700
 H458 H 0.47247 0.39697 1.11263
 H459 H 0.44883 0.37688 1.15721
 H460 H 0.47188 0.43145 1.07117
 H461 H 0.40598 0.37192 1.22151
 H462 H 0.44854 0.49252 1.09079
 C463 C 0.58669 -0.09406 0.26898
 C464 C 0.60229 -0.07823 0.29009
 C465 C 0.58820 -0.07148 0.31939
 C466 C 0.59668 -0.04630 0.33456
 C467 C 0.58301 -0.03925 0.36189
 C468 C 0.56072 -0.05752 0.37473
 C469 C 0.55307 -0.08314 0.35992
 C470 C 0.56664 -0.09011 0.33270
 C471 C 0.54522 -0.05135 0.40354
 C472 C 0.54634 -0.02485 0.41855
 H473 H 0.62480 -0.06993 0.28480
 H474 H 0.61362 -0.03185 0.32505
 H475 H 0.59023 -0.01967 0.37279
 H476 H 0.53640 -0.09789 0.36943
 H477 H 0.56041 -0.11036 0.32237
 H478 H 0.53137 -0.06852 0.41310
 H479 H 0.56334 -0.10038 0.27358
 H480 H 0.55911 -0.00680 0.40946
 C481 C -0.10950 1.07437 -0.23166
 C482 C -0.08498 1.08181 -0.21396
 C483 C -0.07734 1.06701 -0.18558
 C484 C -0.05552 1.07986 -0.16756
 C485 C -0.04766 1.06727 -0.14053
 C486 C -0.06161 1.04143 -0.13055
 C487 C -0.08271 1.02798 -0.14893
 C488 C -0.09060 1.04059 -0.17611
 C489 C -0.05390 1.02801 -0.10153
 C490 C -0.04341 1.04478 -0.07823
 H491 H -0.07095 1.09998 -0.22084
 H492 H -0.04447 1.09985 -0.17440
 H493 H -0.03025 1.07773 -0.12778
 H494 H -0.09338 1.00779 -0.14209
 H495 H -0.10685 1.02933 -0.18950
 H496 H -0.05683 1.00478 -0.09839
 H497 H -0.12431 1.05669 -0.22525
 H498 H -0.04251 1.06820 -0.08090
 C499 C 1.09429 0.61236 0.73200
 C500 C 1.10671 0.58675 0.72048
 C501 C 1.09370 0.57262 0.69436
 C502 C 1.10820 0.54786 0.68225
 C503 C 1.09690 0.53488 0.65679
 C504 C 1.07077 0.54646 0.64311
 C505 C 1.05616 0.57097 0.65554
 C506 C 1.06741 0.58389 0.68086
 C507 C 1.05839 0.53470 0.61545
 C508 C 1.06763 0.50861 0.60202
 H509 H 1.12706 0.57741 0.73026
 H510 H 1.12856 0.53880 0.69223
 H511 H 1.10909 0.51626 0.64779
 H512 H 1.03603 0.58038 0.64546
 H513 H 1.05562 0.60291 0.68962
 H514 H 1.04054 0.54750 0.60506
 H515 H 1.10253 0.62083 0.74660
 H516 H 1.08450 0.49444 0.61196
 C517 C 0.79117 0.61223 0.59918
 C518 C 0.80498 0.58721 0.61063
 C519 C 0.83458 0.57604 0.59920
 C520 C 0.84049 0.54595 0.59987
 C521 C 0.86780 0.53466 0.58803
 C522 C 0.88978 0.55342 0.57565
 C523 C 0.88437 0.58357 0.57613
 C524 C 0.85699 0.59483 0.58770
 C525 C 0.91886 0.54241 0.56288
 C526 C 0.92198 0.51492 0.55017
 H527 H 0.79272 0.57410 0.62674
 H528 H 0.82375 0.53113 0.60915
 H529 H 0.87173 0.51135 0.58894
 H530 H 0.90123 0.59845 0.56716
 H531 H 0.85358 0.61822 0.58787
 H532 H 0.93809 0.55708 0.56215
 H533 H 0.80204 0.62401 0.58118
 H534 H 0.90249 0.50070 0.54882
 C535 C 0.71649 0.39284 1.12328
 C536 C 0.70811 0.38602 1.09452
 C537 C 0.68024 0.39791 1.08059
 C538 C 0.68015 0.40223 1.04988
 C539 C 0.65419 0.41345 1.03602
 C540 C 0.62759 0.41999 1.05263
 C541 C 0.62733 0.41470 1.08319
 C542 C 0.65349 0.40402 1.09714
 C543 C 0.59994 0.43233 1.03872
 C544 C 0.60155 0.45218 1.01534
 H545 H 0.72344 0.37284 1.08098
 H546 H 0.70035 0.39723 1.03663
 H547 H 0.65483 0.41663 1.01231
 H548 H 0.60695 0.41927 1.09636
 H549 H 0.65255 0.40012 1.12073
 H550 H 0.57798 0.42841 1.04934
 H551 H 0.70301 0.40839 1.13599
 H552 H 0.62365 0.45881 1.00673
 C553 C 0.20473 1.16049 -0.10399
 C554 C 0.19276 1.13258 -0.10598
 C555 C 0.16780 1.12180 -0.08664
 C556 C 0.16517 1.09166 -0.08234
 C557 C 0.14151 1.08040 -0.06488
 C558 C 0.11984 1.09915 -0.05143
 C559 C 0.12217 1.12929 -0.05608
 C560 C 0.14602 1.14059 -0.07342
 C561 C 0.09354 1.08774 -0.03427
 C562 C 0.09411 1.06057 -0.02037
 H563 H 0.20330 1.11722 -0.12121
 H564 H 0.18142 1.07674 -0.09265
 H565 H 0.13983 1.05699 -0.06275
 H566 H 0.10540 1.14410 -0.04641
 H567 H 0.14680 1.16390 -0.07699
 H568 H 0.07291 1.10099 -0.03295
 H569 H 0.19638 1.17538 -0.08717
 H570 H 0.11521 1.04809 -0.01945
 C571 C 0.24668 -0.10086 0.41803
 C572 C 0.26683 -0.11319 0.43822
 C573 C 0.29255 -0.09651 0.45045
 C574 C 0.31955 -0.11131 0.45799
 C575 C 0.34478 -0.09598 0.46806
 C576 C 0.34339 -0.06545 0.47104
 C577 C 0.31589 -0.05085 0.46486
 C578 C 0.29075 -0.06614 0.45455
 C579 C 0.36996 -0.04840 0.48089
 C580 C 0.40009 -0.05770 0.47605
 H581 H 0.26542 -0.13625 0.44315
 H582 H 0.32134 -0.13474 0.45554
 H583 H 0.36518 -0.10817 0.47370
 H584 H 0.31400 -0.02745 0.46756
 H585 H 0.26992 -0.05413 0.44998
 H586 H 0.36572 -0.02730 0.49088
 H587 H 0.24974 -0.07848 0.41103
 H588 H 0.40461 -0.07774 0.46418
 C589 C 0.59610 -0.24904 0.56719
 C590 C 0.56704 -0.23892 0.57537
 C591 C 0.55428 -0.21142 0.56358
 C592 C 0.53487 -0.19437 0.58160
 C593 C 0.52411 -0.16733 0.57166
 C594 C 0.53226 -0.15718 0.54329
 C595 C 0.55040 -0.17488 0.52477
 C596 C 0.56147 -0.20171 0.53483
 C597 C 0.52209 -0.12844 0.53232
 C598 C 0.51829 -0.10441 0.55079
 H599 H 0.55460 -0.24980 0.59303
 H600 H 0.52862 -0.20169 0.60365
 H601 H 0.50934 -0.15452 0.58609
 H602 H 0.55660 -0.16761 0.50269
 H603 H 0.57555 -0.21483 0.52006
 H604 H 0.52004 -0.12552 0.50867
 H605 H 0.60995 -0.23664 0.55172
 H606 H 0.52253 -0.10647 0.57421
 C607 C 1.10564 0.70809 0.38641
 C608 C 1.11309 0.69388 0.41268
 C609 C 1.10070 0.66491 0.42084
 C610 C 1.09719 0.65758 0.45082
 C611 C 1.08481 0.63077 0.45930
 C612 C 1.07597 0.61053 0.43788
 C613 C 1.08052 0.61742 0.40792
 C614 C 1.09261 0.64436 0.39943
 C615 C 1.06322 0.58173 0.44611
 C616 C 1.04729 0.57686 0.47261
 H617 H 1.12657 0.70520 0.42875
 H618 H 1.10376 0.67279 0.46774
 H619 H 1.08274 0.62582 0.48263
 H620 H 1.07449 0.60198 0.39101
 H621 H 1.09598 0.64879 0.37612
 H622 H 1.06603 0.56396 0.43058
 H623 H 1.09008 0.69795 0.37133
 H624 H 1.04256 0.59490 0.48736
 C625 C -0.09065 1.24950 0.10832
 C626 C -0.10474 1.22759 0.09254
 C627 C -0.08733 1.20242 0.08073
 C628 C -0.10063 1.17479 0.08166
 C629 C -0.08418 1.15035 0.07183
 C630 C -0.05430 1.15327 0.06038
 C631 C -0.04145 1.18108 0.05841
 C632 C -0.05769 1.20546 0.06878
 C633 C -0.03681 1.12784 0.04922
 C634 C -0.03980 1.10017 0.06171
 H635 H -0.12946 1.22706 0.09189
 H636 H -0.12358 1.17205 0.09050
 H637 H -0.09506 1.12929 0.07276
 H638 H -0.01867 1.18386 0.04918
 H639 H -0.04721 1.22668 0.06717
 H640 H -0.02073 1.13110 0.03108
 H641 H -0.06627 1.24832 0.11195
 H642 H -0.05354 1.09729 0.08160
 C643 C 0.39866 0.28908 0.88482
 C644 C 0.42428 0.30336 0.87359
 C645 C 0.43887 0.32674 0.89064
 C646 C 0.45032 0.35133 0.87587
 C647 C 0.46170 0.37479 0.89184
 C648 C 0.46219 0.37382 0.92293
 C649 C 0.45231 0.34853 0.93753
 C650 C 0.44059 0.32528 0.92161
 C651 C 0.47316 0.39852 0.94069
 C652 C 0.47100 0.42746 0.93126
 H653 H 0.43149 0.29969 0.85089
 H654 H 0.44965 0.35275 0.85200
 H655 H 0.47019 0.39352 0.87980
 H656 H 0.45301 0.34702 0.96140
 H657 H 0.43280 0.30621 0.93358
 H658 H 0.48160 0.39389 0.96261
 H659 H 0.38950 0.29527 0.90628
 H660 H 0.46066 0.43259 0.91028
 C661 C 0.58887 0.58979 0.73470
 C662 C 0.60316 0.57376 0.75692
 C663 C 0.58767 0.56415 0.78453
 C664 C 0.60581 0.55537 0.80830
 C665 C 0.59244 0.54694 0.83514
 C666 C 0.56046 0.54721 0.83883
 C667 C 0.54226 0.55500 0.81477
 C668 C 0.55565 0.56342 0.78787
 C669 C 0.54538 0.53899 0.86709
 C670 C 0.56010 0.53982 0.89416
 H671 H 0.62744 0.56935 0.75486
 H672 H 0.63051 0.55527 0.80620
 H673 H 0.60732 0.53995 0.85270
 H674 H 0.51757 0.55485 0.81689
 H675 H 0.54075 0.56906 0.76989
 H676 H 0.52151 0.53298 0.86667
 H677 H 0.56481 0.59516 0.73630
 H678 H 0.58346 0.54708 0.89540
 C679 C 0.35983 0.12524 0.71338
 C680 C 0.38932 0.12277 0.70155
 C681 C 0.39664 0.10329 0.67632
 C682 C 0.42583 0.09051 0.67401
 C683 C 0.43317 0.07149 0.65083
 C684 C 0.41144 0.06510 0.62925
 C685 C 0.38255 0.07858 0.63110
 C686 C 0.37513 0.09737 0.65443
 C687 C 0.41892 0.04626 0.60356
 C688 C 0.44195 0.02497 0.60387
 H689 H 0.40790 0.13337 0.71263
 H690 H 0.44294 0.09508 0.69034
 H691 H 0.45609 0.06246 0.64953
 H692 H 0.36567 0.07456 0.61441
 H693 H 0.35272 0.10759 0.65495
 H694 H 0.40644 0.04997 0.58338
 H695 H 0.34175 0.11231 0.70428
 H696 H 0.45350 0.01992 0.62425
 C697 C 0.08152 0.89514 0.24566
 C698 C 0.09157 0.92138 0.23343
 C699 C 0.07683 0.93555 0.20785
 C700 C 0.09437 0.95352 0.18921
 C701 C 0.08136 0.96689 0.16456
 C702 C 0.05036 0.96272 0.15824
 C703 C 0.03253 0.94565 0.17751
 C704 C 0.04562 0.93205 0.20202
 C705 C 0.03594 0.97591 0.13196
 C706 C 0.05220 0.98188 0.10591
 H707 H 0.11223 0.93101 0.24161
 H708 H 0.11834 0.95693 0.19355
 H709 H 0.09555 0.98069 0.15073
 H710 H 0.00848 0.94251 0.17336
 H711 H 0.03116 0.91916 0.21649
 H712 H 0.01129 0.97853 0.13219
 H713 H 0.06252 0.88390 0.23604
 H714 H 0.07640 0.97690 0.10433
 C715 C 0.88443 0.38548 0.29787
 C716 C 0.87820 0.41210 0.31143
 C717 C 0.89262 0.41960 0.33963
 C718 C 0.90402 0.44770 0.34378
 C719 C 0.91982 0.45441 0.36946
 C720 C 0.92376 0.43324 0.39169
 C721 C 0.91097 0.40564 0.38816
 C722 C 0.89586 0.39872 0.36222
 C723 C 0.94053 0.43949 0.41894
 C724 C 0.96639 0.45699 0.41910
 H725 H 0.86541 0.42873 0.29969
 H726 H 0.90142 0.46419 0.32678
 H727 H 0.92871 0.47616 0.37202
 H728 H 0.91331 0.38918 0.40524
 H729 H 0.88668 0.37706 0.35983
 H730 H 0.93355 0.42836 0.43907
 H731 H 0.90035 0.37038 0.30805
 H732 H 0.97507 0.46621 0.39860
   
