data_POSCAR
  _audit_creation_date              2014-09-24
  _audit_creation_method            'ToBaCCo'
  _symmetry_space_group_name_H-M    'P1'
  _symmetry_Int_Tables_number       1
  _symmetry_cell_setting            triclinic
  loop_
  _symmetry_equiv_pos_as_xyz
 x,y,z
_cell_length_a 59.2978
_cell_length_b 59.3397
_cell_length_c 59.3422
_cell_angle_alpha 89.982000
_cell_angle_beta 89.997400
_cell_angle_gamma 90.019600
loop_
  _atom_site_label
  _atom_site_type_symbol
  _atom_site_fract_x
  _atom_site_fract_y
  _atom_site_fract_z
C1 C 0.26909 0.24049 0.24017
 C2 C 0.25943 0.23083 0.25946
 C3 C 0.24037 0.24038 0.26902
 C4 C 0.23075 0.25970 0.25941
 C5 C 0.24029 0.26925 0.24035
 C6 C 0.25957 0.25959 0.23067
 C7 C 0.28757 0.23484 0.22730
 N8 N 0.28935 0.25005 0.21038
 C9 C 0.27242 0.26525 0.21218
 C10 C 0.22748 0.28778 0.23474
 N11 N 0.21054 0.28954 0.24994
 C12 C 0.21228 0.27257 0.26509
 C13 C 0.23472 0.22751 0.28750
 N14 N 0.24988 0.21054 0.28923
 C15 C 0.26506 0.21231 0.27227
 H16 H 0.29887 0.22077 0.23001
 H17 H 0.26970 0.27933 0.20089
 H18 H 0.23023 0.29911 0.22070
 H19 H 0.20096 0.26983 0.27915
 H20 H 0.22067 0.23025 0.29883
 H21 H 0.27910 0.20098 0.26951
 C22 C 0.73045 -0.24073 0.23987
 C23 C 0.74011 -0.23108 0.25915
 C24 C 0.75923 -0.24057 0.26865
 C25 C 0.76893 -0.25983 0.25897
 C26 C 0.75938 -0.26937 0.23991
 C27 C 0.74003 -0.25977 0.23030
 C28 C 0.71191 -0.23512 0.22706
 N29 N 0.71018 -0.25030 0.21011
 C30 C 0.72717 -0.26544 0.21182
 C31 C 0.77226 -0.28782 0.23422
 N32 N 0.78925 -0.28954 0.24939
 C33 C 0.78747 -0.27262 0.26459
 C34 C 0.76488 -0.22774 0.28714
 N35 N 0.74965 -0.21084 0.28894
 C36 C 0.73444 -0.21262 0.27202
 H37 H 0.70056 -0.22109 0.22984
 H38 H 0.72995 -0.27948 0.20049
 H39 H 0.76951 -0.29913 0.22016
 H40 H 0.79880 -0.26984 0.27864
 H41 H 0.77897 -0.23044 0.29843
 H42 H 0.72034 -0.20134 0.26932
 C43 C 0.73107 0.24105 0.75968
 C44 C 0.74079 0.23137 0.74044
 C45 C 0.75987 0.24092 0.73092
 C46 C 0.76947 0.26026 0.74053
 C47 C 0.75986 0.26983 0.75955
 C48 C 0.74055 0.26017 0.76918
 C49 C 0.71255 0.23538 0.77250
 N50 N 0.71073 0.25061 0.78939
 C51 C 0.72765 0.26584 0.78764
 C52 C 0.77267 0.28836 0.76519
 N53 N 0.78966 0.29011 0.75003
 C54 C 0.78797 0.27312 0.73488
 C55 C 0.76559 0.22803 0.71249
 N56 N 0.75044 0.21105 0.71075
 C57 C 0.73520 0.21283 0.72765
 H58 H 0.70127 0.22127 0.76976
 H59 H 0.73036 0.27993 0.79891
 H60 H 0.76986 0.29970 0.77922
 H61 H 0.79933 0.27035 0.72086
 H62 H 0.77968 0.23076 0.70120
 H63 H 0.72115 0.20149 0.73039
 C64 C 0.26928 -0.24119 0.76045
 C65 C 0.25961 -0.23152 0.74117
 C66 C 0.24047 -0.24100 0.73169
 C67 C 0.23077 -0.26026 0.74138
 C68 C 0.24033 -0.26982 0.76044
 C69 C 0.25969 -0.26023 0.77003
 C70 C 0.28784 -0.23558 0.77324
 N71 N 0.28958 -0.25077 0.79019
 C72 C 0.27256 -0.26591 0.78850
 C73 C 0.22742 -0.28827 0.76614
 N74 N 0.21043 -0.28997 0.75099
 C75 C 0.21220 -0.27304 0.73578
 C76 C 0.23482 -0.22815 0.71321
 N77 N 0.25007 -0.21126 0.71139
 C78 C 0.26530 -0.21306 0.72830
 H79 H 0.29920 -0.22156 0.77044
 H80 H 0.26978 -0.27995 0.79983
 H81 H 0.23017 -0.29958 0.78021
 H82 H 0.20087 -0.27025 0.72174
 H83 H 0.22072 -0.23085 0.70193
 H84 H 0.27941 -0.20179 0.73099
 C85 C 0.73051 -0.24092 0.76033
 C86 C 0.74016 -0.23126 0.74104
 C87 C 0.75927 -0.24075 0.73153
 C88 C 0.76895 -0.26002 0.74119
 C89 C 0.75941 -0.26958 0.76026
 C90 C 0.74007 -0.25997 0.76988
 C91 C 0.71197 -0.23530 0.77315
 N92 N 0.71023 -0.25050 0.79009
 C93 C 0.72722 -0.26566 0.78836
 C94 C 0.77228 -0.28805 0.76593
 N95 N 0.78925 -0.28976 0.75075
 C96 C 0.78749 -0.27282 0.73555
 C97 C 0.76491 -0.22790 0.71304
 N98 N 0.74969 -0.21099 0.71125
 C99 C 0.73449 -0.21278 0.72818
 H100 H 0.70063 -0.22127 0.77038
 H101 H 0.72999 -0.27972 0.79968
 H102 H 0.76953 -0.29937 0.77999
 H103 H 0.79881 -0.27004 0.72150
 H104 H 0.77899 -0.23061 0.70173
 H105 H 0.72040 -0.20150 0.73090
 C106 C 0.26945 0.24060 0.75984
 C107 C 0.25973 0.23090 0.74060
 C108 C 0.24061 0.24040 0.73111
 C109 C 0.23098 0.25971 0.74074
 C110 C 0.24058 0.26929 0.75975
 C111 C 0.25992 0.25969 0.76936
 C112 C 0.28800 0.23498 0.77263
 N113 N 0.28979 0.25021 0.78953
 C114 C 0.27283 0.26539 0.78780
 C115 C 0.22774 0.28779 0.76539
 N116 N 0.21073 0.28950 0.75026
 C117 C 0.21246 0.27252 0.73512
 C118 C 0.23491 0.22751 0.71267
 N119 N 0.25010 0.21058 0.71090
 C120 C 0.26535 0.21239 0.72779
 H121 H 0.29931 0.22092 0.76988
 H122 H 0.27010 0.27947 0.79909
 H123 H 0.23052 0.29914 0.77940
 H124 H 0.20109 0.26975 0.72111
 H125 H 0.22081 0.23021 0.70140
 H126 H 0.27943 0.20110 0.73050
 C127 C 0.26933 -0.24097 0.23977
 C128 C 0.25969 -0.23133 0.25907
 C129 C 0.24055 -0.24081 0.26856
 C130 C 0.23082 -0.26004 0.25886
 C131 C 0.24034 -0.26957 0.23978
 C132 C 0.25971 -0.25998 0.23018
 C133 C 0.28788 -0.23536 0.22697
 N134 N 0.28958 -0.25052 0.20999
 C135 C 0.27255 -0.26565 0.21169
 C136 C 0.22742 -0.28800 0.23407
 N137 N 0.21044 -0.28971 0.24923
 C138 C 0.21224 -0.27281 0.26446
 C139 C 0.23493 -0.22799 0.28706
 N140 N 0.25020 -0.21111 0.28889
 C141 C 0.26540 -0.21290 0.27196
 H142 H 0.29926 -0.22136 0.22977
 H143 H 0.26975 -0.27967 0.20035
 H144 H 0.23014 -0.29928 0.21999
 H145 H 0.20092 -0.27004 0.27852
 H146 H 0.22084 -0.23069 0.29835
 H147 H 0.27952 -0.20163 0.26926
 C148 C 0.73147 0.24093 0.24023
 C149 C 0.74113 0.23128 0.25952
 C150 C 0.76016 0.24087 0.26910
 C151 C 0.76976 0.26023 0.25951
 C152 C 0.76020 0.26977 0.24045
 C153 C 0.74095 0.26007 0.23075
 C154 C 0.71301 0.23524 0.22736
 N155 N 0.71120 0.25045 0.21044
 C156 C 0.72810 0.26570 0.21226
 C157 C 0.77298 0.28834 0.23485
 N158 N 0.78990 0.29013 0.25007
 C159 C 0.78820 0.27314 0.26522
 C160 C 0.76583 0.22801 0.28758
 N161 N 0.75069 0.21100 0.28928
 C162 C 0.73553 0.21274 0.27232
 H163 H 0.70173 0.22113 0.23004
 H164 H 0.73079 0.27980 0.20098
 H165 H 0.77019 0.29967 0.22081
 H166 H 0.79951 0.27040 0.27930
 H167 H 0.77985 0.23078 0.29893
 H168 H 0.72151 0.20138 0.26954
 O169 O 0.26872 0.02147 0.47819
 O170 O 0.26882 -0.02243 0.52209
 O171 O 0.26881 -0.02242 0.47820
 O172 O 0.26873 0.02146 0.52208
 O173 O 0.23144 0.02138 0.52210
 O174 O 0.23151 -0.02250 0.47821
 O175 O 0.23152 -0.02251 0.52210
 O176 O 0.23142 0.02139 0.47821
 Cu177 Cu 0.27253 -0.00047 0.50014
 Cu178 Cu 0.22771 -0.00057 0.50015
 C179 C 0.25006 0.02884 0.47079
 C180 C 0.25018 -0.02988 0.52950
 C181 C 0.25017 -0.02986 0.47079
 C182 C 0.25007 0.02882 0.52950
 O183 O 0.73161 0.02184 0.52206
 O184 O 0.73144 -0.02203 0.47816
 O185 O 0.73144 -0.02205 0.52205
 O186 O 0.73161 0.02186 0.47817
 O187 O 0.76890 0.02174 0.47816
 O188 O 0.76874 -0.02218 0.52204
 O189 O 0.76874 -0.02215 0.47815
 O190 O 0.76891 0.02171 0.52205
 Cu191 Cu 0.72776 -0.00008 0.50011
 Cu192 Cu 0.77259 -0.00023 0.50010
 C193 C 0.75029 0.02918 0.52947
 C194 C 0.75006 -0.02949 0.47075
 C195 C 0.75006 -0.02952 0.52945
 C196 C 0.75028 0.02921 0.47076
 O197 O 0.47835 0.26894 0.02124
 O198 O 0.52227 0.26904 -0.02266
 O199 O 0.47835 0.26900 -0.02265
 O200 O 0.52227 0.26899 0.02123
 O201 O 0.52230 0.23172 0.02120
 O202 O 0.47837 0.23173 -0.02268
 O203 O 0.52229 0.23177 -0.02269
 O204 O 0.47838 0.23167 0.02121
 Cu205 Cu 0.50031 0.27275 -0.00071
 Cu206 Cu 0.50034 0.22796 -0.00075
 C207 C 0.47095 0.25029 0.02863
 C208 C 0.52970 0.25042 -0.03008
 C209 C 0.47094 0.25036 -0.03007
 C210 C 0.52970 0.25035 0.02862
 O211 O 0.52191 0.73062 0.02204
 O212 O 0.47799 0.73055 -0.02185
 O213 O 0.52192 0.73059 -0.02185
 O214 O 0.47799 0.73058 0.02204
 O215 O 0.47797 0.76785 0.02200
 O216 O 0.52190 0.76786 -0.02188
 O217 O 0.47798 0.76782 -0.02188
 O218 O 0.52189 0.76789 0.02201
 Cu219 Cu 0.49996 0.72682 0.00010
 Cu220 Cu 0.49993 0.77162 0.00006
 C221 C 0.52932 0.74926 0.02943
 C222 C 0.47057 0.74917 -0.02927
 C223 C 0.52932 0.74923 -0.02927
 C224 C 0.47056 0.74922 0.02943
 O225 O 0.02166 0.47882 0.26830
 O226 O -0.02225 0.52270 0.26817
 O227 O -0.02226 0.47881 0.26834
 O228 O 0.02167 0.52271 0.26811
 O229 O 0.02163 0.52257 0.23085
 O230 O -0.02230 0.47868 0.23108
 O231 O -0.02229 0.52257 0.23090
 O232 O 0.02162 0.47868 0.23103
 Cu233 Cu -0.00029 0.50078 0.27199
 Cu234 Cu -0.00034 0.50061 0.22720
 C235 C 0.02905 0.47134 0.24968
 C236 C -0.02969 0.53004 0.24952
 C237 C -0.02970 0.47134 0.24975
 C238 C 0.02907 0.53005 0.24944
 O239 O 0.02166 0.52246 0.73209
 O240 O -0.02228 0.47857 0.73190
 O241 O -0.02227 0.52246 0.73206
 O242 O 0.02164 0.47857 0.73192
 O243 O 0.02161 0.47842 0.76919
 O244 O -0.02230 0.52231 0.76932
 O245 O -0.02231 0.47842 0.76917
 O246 O 0.02163 0.52231 0.76936
 Cu247 Cu -0.00031 0.50053 0.72823
 Cu248 Cu -0.00035 0.50035 0.77302
 C249 C 0.02906 0.52979 0.75076
 C250 C -0.02971 0.47109 0.75050
 C251 C -0.02970 0.52979 0.75071
 C252 C 0.02903 0.47109 0.75053
 C253 C 0.30605 0.25006 0.19367
 C254 C 0.32042 0.25007 0.17930
 C255 C 0.33757 0.25011 0.16214
 C256 C 0.33250 0.25766 0.14038
 C257 C 0.34914 0.25769 0.12369
 C258 C 0.37111 0.25017 0.12857
 C259 C 0.37604 0.24262 0.15051
 C260 C 0.35936 0.24259 0.16716
 C261 C 0.38881 0.25019 0.11085
 C262 C 0.41102 0.25680 0.11597
 C263 C 0.42766 0.25681 0.09928
 C264 C 0.42235 0.25022 0.07727
 C265 C 0.40032 0.24361 0.07200
 C266 C 0.38365 0.24359 0.08866
 C267 C 0.43950 0.25023 0.06011
 C268 C 0.45386 0.25025 0.04573
 H269 H 0.31570 0.26357 0.13633
 H270 H 0.34490 0.26387 0.10705
 H271 H 0.39270 0.23645 0.15471
 H272 H 0.36345 0.23665 0.18394
 H273 H 0.41546 0.26224 0.13281
 H274 H 0.44465 0.26202 0.10353
 H275 H 0.39604 0.23841 0.05503
 H276 H 0.36679 0.23814 0.08426
 C277 C 0.69435 0.74967 0.19433
 C278 C 0.67996 0.74965 0.17997
 C279 C 0.66280 0.74961 0.16282
 C280 C 0.66388 0.73413 0.14507
 C281 C 0.64721 0.73406 0.12840
 C282 C 0.62923 0.74952 0.12928
 C283 C 0.62832 0.76502 0.14720
 C284 C 0.64500 0.76504 0.16386
 C285 C 0.61152 0.74947 0.11158
 C286 C 0.60291 0.76987 0.10308
 C287 C 0.58624 0.76980 0.08641
 C288 C 0.57795 0.74937 0.07803
 C289 C 0.58639 0.72899 0.08638
 C290 C 0.60307 0.72902 0.10303
 C291 C 0.56079 0.74932 0.06089
 C292 C 0.54642 0.74929 0.04652
 H293 H 0.67763 0.72215 0.14407
 H294 H 0.64855 0.72213 0.11467
 H295 H 0.61455 0.77692 0.14851
 H296 H 0.64397 0.77705 0.17756
 H297 H 0.60927 0.78588 0.10910
 H298 H 0.57987 0.78567 0.08002
 H299 H 0.58005 0.71308 0.08005
 H300 H 0.60914 0.71305 0.10943
 C301 C 0.69489 0.25060 -0.19483
 C302 C 0.68049 0.25060 -0.18049
 C303 C 0.66331 0.25059 -0.16336
 C304 C 0.65914 0.27010 -0.15079
 C305 C 0.64245 0.27011 -0.13415
 C306 C 0.62971 0.25057 -0.12984
 C307 C 0.63404 0.23104 -0.14258
 C308 C 0.65072 0.23107 -0.15922
 C309 C 0.61198 0.25055 -0.11216
 C310 C 0.60922 0.23182 -0.09786
 C311 C 0.59253 0.23182 -0.08122
 C312 C 0.57837 0.25051 -0.07865
 C313 C 0.58097 0.26922 -0.09277
 C314 C 0.59766 0.26926 -0.10942
 C315 C 0.56119 0.25048 -0.06152
 C316 C 0.54680 0.25045 -0.04717
 H317 H 0.66884 0.28529 -0.15381
 H318 H 0.63973 0.28532 -0.12444
 H319 H 0.62432 0.21582 -0.13987
 H320 H 0.65377 0.21589 -0.16890
 H321 H 0.62016 0.21729 -0.09935
 H322 H 0.59070 0.21728 -0.07033
 H323 H 0.57006 0.28375 -0.09096
 H324 H 0.59917 0.28381 -0.12034
 C325 C 0.30541 0.74920 -0.19404
 C326 C 0.31981 0.74918 -0.17969
 C327 C 0.33699 0.74918 -0.16256
 C328 C 0.33694 0.76572 -0.14577
 C329 C 0.35361 0.76572 -0.12911
 C330 C 0.37059 0.74915 -0.12905
 C331 C 0.37049 0.73260 -0.14602
 C332 C 0.35379 0.73262 -0.16266
 C333 C 0.38831 0.74914 -0.11136
 C334 C 0.41088 0.74431 -0.11689
 C335 C 0.42755 0.74432 -0.10023
 C336 C 0.42191 0.74913 -0.07785
 C337 C 0.39952 0.75395 -0.07217
 C338 C 0.38282 0.75396 -0.08880
 C339 C 0.43908 0.74914 -0.06071
 C340 C 0.45347 0.74915 -0.04636
 H341 H 0.32405 0.77866 -0.14558
 H342 H 0.35340 0.77886 -0.11645
 H343 H 0.38315 0.71945 -0.14627
 H344 H 0.35395 0.71969 -0.17555
 H345 H 0.41570 0.74083 -0.13414
 H346 H 0.44485 0.74064 -0.10482
 H347 H 0.39495 0.75763 -0.05488
 H348 H 0.36557 0.75745 -0.08396
 C349 C 0.19386 0.30627 0.24997
 C350 C 0.17952 0.32066 0.25000
 C351 C 0.16240 0.33784 0.25003
 C352 C 0.16691 0.35904 0.24071
 C353 C 0.15029 0.37574 0.24071
 C354 C 0.12888 0.37144 0.25002
 C355 C 0.12452 0.35007 0.25934
 C356 C 0.14118 0.33340 0.25935
 C357 C 0.11119 0.38915 0.24998
 C358 C 0.08860 0.38363 0.24523
 C359 C 0.07196 0.40032 0.24517
 C360 C 0.07765 0.42272 0.24986
 C361 C 0.10006 0.42839 0.25461
 C362 C 0.11673 0.41173 0.25467
 C363 C 0.06051 0.43988 0.24979
 C364 C 0.04615 0.45425 0.24973
 H365 H 0.18326 0.36264 0.23340
 H366 H 0.15407 0.39191 0.23314
 H367 H 0.10832 0.34633 0.26690
 H368 H 0.13752 0.31707 0.26666
 H369 H 0.08384 0.36647 0.24127
 H370 H 0.05467 0.39576 0.24140
 H371 H 0.10465 0.44567 0.25833
 H372 H 0.13391 0.41646 0.25867
 C373 C 0.19456 0.69428 0.75103
 C374 C 0.18013 0.67996 0.75108
 C375 C 0.16291 0.66287 0.75112
 C376 C 0.16788 0.64110 0.75867
 C377 C 0.15117 0.62447 0.75867
 C378 C 0.12923 0.62942 0.75112
 C379 C 0.12440 0.65139 0.74357
 C380 C 0.14114 0.66798 0.74357
 C381 C 0.11147 0.61177 0.75108
 C382 C 0.08926 0.61695 0.75764
 C383 C 0.07256 0.60032 0.75759
 C384 C 0.07780 0.57831 0.75097
 C385 C 0.09983 0.57297 0.74441
 C386 C 0.11657 0.58957 0.74447
 C387 C 0.06059 0.56120 0.75090
 C388 C 0.04619 0.54686 0.75083
 H389 H 0.18466 0.63698 0.76460
 H390 H 0.15534 0.60781 0.76485
 H391 H 0.10776 0.65565 0.73739
 H392 H 0.13713 0.68478 0.73763
 H393 H 0.08488 0.63380 0.76310
 H394 H 0.05557 0.60462 0.76276
 H395 H 0.10406 0.55599 0.73919
 H396 H 0.13342 0.58512 0.73904
 C397 C -0.19491 0.69470 0.24936
 C398 C -0.18051 0.68036 0.24935
 C399 C -0.16332 0.66325 0.24935
 C400 C -0.16837 0.64144 0.24193
 C401 C -0.15169 0.62479 0.24194
 C402 C -0.12970 0.62976 0.24937
 C403 C -0.12480 0.65175 0.25679
 C404 C -0.14152 0.66836 0.25678
 C405 C -0.11197 0.61209 0.24938
 C406 C -0.08979 0.61723 0.24268
 C407 C -0.07312 0.60058 0.24269
 C408 C -0.07836 0.57859 0.24942
 C409 C -0.10036 0.57330 0.25613
 C410 C -0.11707 0.58992 0.25611
 C411 C -0.06118 0.56147 0.24945
 C412 C -0.04679 0.54712 0.24947
 H413 H -0.18518 0.63732 0.23609
 H414 H -0.15591 0.60812 0.23585
 H415 H -0.10813 0.65602 0.26288
 H416 H -0.13744 0.68518 0.26262
 H417 H -0.08541 0.63406 0.23713
 H418 H -0.05615 0.60485 0.23741
 H419 H -0.10458 0.55634 0.26143
 H420 H -0.13390 0.58550 0.26164
 C421 C -0.19455 0.30593 0.75004
 C422 C -0.18019 0.32032 0.75006
 C423 C -0.16306 0.33750 0.75009
 C424 C -0.15639 0.34762 0.72986
 C425 C -0.13976 0.36432 0.72988
 C426 C -0.12954 0.37111 0.75018
 C427 C -0.13636 0.36083 0.77044
 C428 C -0.15302 0.34414 0.77037
 C429 C -0.11185 0.38884 0.75022
 C430 C -0.09270 0.38675 0.76408
 C431 C -0.07606 0.40344 0.76411
 C432 C -0.07832 0.42244 0.75032
 C433 C -0.09729 0.42469 0.73648
 C434 C -0.11395 0.40801 0.73642
 C435 C -0.06117 0.43961 0.75038
 C436 C -0.04681 0.45399 0.75043
 H437 H -0.16402 0.34256 0.71405
 H438 H -0.13467 0.37171 0.71398
 H439 H -0.12904 0.36589 0.78636
 H440 H -0.15810 0.33646 0.78614
 H441 H -0.09045 0.37206 0.77467
 H442 H -0.06140 0.40149 0.77484
 H443 H -0.09924 0.43937 0.72579
 H444 H -0.12862 0.41026 0.72579
 C445 C 0.24987 0.19382 0.30591
 C446 C 0.24987 0.17944 0.32026
 C447 C 0.24989 0.16228 0.33740
 C448 C 0.23127 0.15980 0.35167
 C449 C 0.23127 0.14314 0.36834
 C450 C 0.24992 0.12871 0.37094
 C451 C 0.26855 0.13134 0.35648
 C452 C 0.26852 0.14802 0.33984
 C453 C 0.24994 0.11101 0.38864
 C454 C 0.25869 0.08943 0.38410
 C455 C 0.25869 0.07278 0.40078
 C456 C 0.24998 0.07746 0.42219
 C457 C 0.24125 0.09885 0.42688
 C458 C 0.24121 0.11553 0.41022
 C459 C 0.24999 0.06030 0.43934
 C460 C 0.25002 0.04593 0.45370
 H461 H 0.21672 0.17070 0.34989
 H462 H 0.21655 0.14135 0.37900
 H463 H 0.28328 0.12070 0.35824
 H464 H 0.28305 0.14984 0.32891
 H465 H 0.26525 0.08534 0.36758
 H466 H 0.26543 0.05625 0.39695
 H467 H 0.23452 0.10267 0.44342
 H468 H 0.23464 0.13204 0.41433
 C469 C 0.75050 0.19430 0.69411
 C470 C 0.75053 0.17989 0.67979
 C471 C 0.75055 0.16268 0.66271
 C472 C 0.73356 0.14630 0.66241
 C473 C 0.73353 0.12960 0.64581
 C474 C 0.75053 0.12905 0.62926
 C475 C 0.76754 0.14559 0.62972
 C476 C 0.76753 0.16229 0.64634
 C477 C 0.75050 0.11133 0.61159
 C478 C 0.77078 0.10107 0.60477
 C479 C 0.77072 0.08440 0.58813
 C480 C 0.75043 0.07776 0.57807
 C481 C 0.73018 0.08786 0.58473
 C482 C 0.73019 0.10452 0.60138
 C483 C 0.75039 0.06061 0.56093
 C484 C 0.75035 0.04626 0.54656
 H485 H 0.72037 0.14641 0.67505
 H486 H 0.72038 0.11694 0.64608
 H487 H 0.78068 0.14579 0.61706
 H488 H 0.78072 0.17492 0.64638
 H489 H 0.78664 0.10573 0.61251
 H490 H 0.78649 0.07664 0.58314
 H491 H 0.71438 0.08289 0.57701
 H492 H 0.71434 0.11230 0.60605
 C493 C 0.25009 -0.19457 0.69468
 C494 C 0.25011 -0.18022 0.68029
 C495 C 0.25015 -0.16309 0.66312
 C496 C 0.23669 -0.14388 0.66555
 C497 C 0.23672 -0.12723 0.64888
 C498 C 0.25021 -0.12959 0.62951
 C499 C 0.26368 -0.14899 0.62723
 C500 C 0.26364 -0.16561 0.64393
 C501 C 0.25023 -0.11192 0.61178
 C502 C 0.25051 -0.11788 0.58883
 C503 C 0.25051 -0.10123 0.57215
 C504 C 0.25025 -0.07843 0.57817
 C505 C 0.24999 -0.07233 0.60094
 C506 C 0.24997 -0.08895 0.61765
 C507 C 0.25024 -0.06131 0.56099
 C508 C 0.25022 -0.04696 0.54661
 H509 H 0.22614 -0.14180 0.68031
 H510 H 0.22595 -0.11265 0.65099
 H511 H 0.27447 -0.15116 0.61267
 H512 H 0.27417 -0.18039 0.64191
 H513 H 0.25042 -0.13541 0.58376
 H514 H 0.25065 -0.10614 0.55457
 H515 H 0.24985 -0.05473 0.60579
 H516 H 0.25005 -0.08382 0.63516
 C517 C 0.74964 -0.19416 0.30565
 C518 C 0.74964 -0.17982 0.32004
 C519 C 0.74966 -0.16270 0.33721
 C520 C 0.74225 -0.14089 0.33217
 C521 C 0.74228 -0.12424 0.34884
 C522 C 0.74974 -0.12921 0.37080
 C523 C 0.75715 -0.15120 0.37569
 C524 C 0.75711 -0.16782 0.35899
 C525 C 0.74979 -0.11153 0.38852
 C526 C 0.74309 -0.11667 0.41069
 C527 C 0.74314 -0.10002 0.42735
 C528 C 0.74989 -0.07804 0.42210
 C529 C 0.75659 -0.07275 0.40012
 C530 C 0.75654 -0.08937 0.38342
 C531 C 0.74994 -0.06091 0.43927
 C532 C 0.74999 -0.04657 0.45365
 H533 H 0.73639 -0.13676 0.31538
 H534 H 0.73620 -0.10756 0.34462
 H535 H 0.76326 -0.15548 0.39235
 H536 H 0.76295 -0.18463 0.36306
 H537 H 0.73753 -0.13349 0.41507
 H538 H 0.73786 -0.10428 0.44430
 H539 H 0.76191 -0.05580 0.39589
 H540 H 0.76206 -0.08495 0.36660
 C541 C 0.69440 0.74946 -0.19413
 C542 C 0.68001 0.74943 -0.17977
 C543 C 0.66285 0.74941 -0.16263
 C544 C 0.64508 0.76489 -0.16366
 C545 C 0.62840 0.76489 -0.14701
 C546 C 0.62926 0.74936 -0.12910
 C547 C 0.64720 0.73385 -0.12823
 C548 C 0.66387 0.73390 -0.14489
 C549 C 0.61154 0.74933 -0.11141
 C550 C 0.60303 0.72889 -0.10288
 C551 C 0.58634 0.72888 -0.08624
 C552 C 0.57796 0.74927 -0.07787
 C553 C 0.58631 0.76969 -0.08623
 C554 C 0.60298 0.76974 -0.10289
 C555 C 0.56079 0.74924 -0.06073
 C556 C 0.54642 0.74923 -0.04636
 H557 H 0.64409 0.77693 -0.17735
 H558 H 0.61466 0.77683 -0.14831
 H559 H 0.64850 0.72189 -0.11451
 H560 H 0.67759 0.72188 -0.14390
 H561 H 0.60905 0.71291 -0.10930
 H562 H 0.57995 0.71298 -0.07993
 H563 H 0.57998 0.78557 -0.07983
 H564 H 0.60939 0.78574 -0.10889
 C565 C 0.30565 0.25024 -0.19471
 C566 C 0.32007 0.25028 -0.18038
 C567 C 0.33727 0.25033 -0.16328
 C568 C 0.35779 0.23936 -0.16710
 C569 C 0.37451 0.23938 -0.15049
 C570 C 0.37090 0.25038 -0.12979
 C571 C 0.35019 0.26137 -0.12612
 C572 C 0.33350 0.26134 -0.14277
 C573 C 0.38864 0.25040 -0.11212
 C574 C 0.38289 0.24757 -0.08928
 C575 C 0.39960 0.24756 -0.07266
 C576 C 0.42226 0.25039 -0.07863
 C577 C 0.42816 0.25322 -0.10128
 C578 C 0.41147 0.25322 -0.11793
 C579 C 0.43944 0.25037 -0.06150
 C580 C 0.45383 0.25037 -0.04715
 H581 H 0.36086 0.23073 -0.18289
 H582 H 0.39015 0.23053 -0.15371
 H583 H 0.34701 0.27024 -0.11050
 H584 H 0.31769 0.26994 -0.13966
 H585 H 0.36550 0.24507 -0.08430
 H586 H 0.39485 0.24530 -0.05518
 H587 H 0.44564 0.25548 -0.10608
 H588 H 0.41641 0.25572 -0.13532
 C589 C 0.30542 0.74944 0.19422
 C590 C 0.31981 0.74942 0.17986
 C591 C 0.33698 0.74940 0.16272
 C592 C 0.35873 0.75705 0.16774
 C593 C 0.37543 0.75702 0.15110
 C594 C 0.37057 0.74934 0.12920
 C595 C 0.34863 0.74169 0.12433
 C596 C 0.33197 0.74172 0.14100
 C597 C 0.38829 0.74930 0.11151
 C598 C 0.38314 0.75576 0.08928
 C599 C 0.39984 0.75573 0.07265
 C600 C 0.42189 0.74924 0.07799
 C601 C 0.42719 0.74278 0.10004
 C602 C 0.41052 0.74281 0.11671
 C603 C 0.43907 0.74922 0.06086
 C604 C 0.45345 0.74921 0.04650
 H605 H 0.36277 0.76309 0.18449
 H606 H 0.39206 0.76329 0.15530
 H607 H 0.34444 0.73540 0.10773
 H608 H 0.31520 0.73570 0.13696
 H609 H 0.36627 0.76112 0.08481
 H610 H 0.39557 0.76082 0.05564
 H611 H 0.44419 0.73767 0.10435
 H612 H 0.41495 0.73748 0.13359
 C613 C 0.69452 0.25042 0.19372
 C614 C 0.68017 0.25041 0.17933
 C615 C 0.66303 0.25040 0.16216
 C616 C 0.65513 0.27079 0.15334
 C617 C 0.63847 0.27081 0.13666
 C618 C 0.62952 0.25039 0.12856
 C619 C 0.63760 0.22998 0.13754
 C620 C 0.65424 0.23000 0.15423
 C621 C 0.61183 0.25038 0.11084
 C622 C 0.61238 0.23446 0.09327
 C623 C 0.59573 0.23448 0.07659
 C624 C 0.57831 0.25036 0.07725
 C625 C 0.57760 0.26626 0.09465
 C626 C 0.59425 0.26630 0.11133
 C627 C 0.56116 0.25035 0.06008
 C628 C 0.54680 0.25035 0.04571
 H629 H 0.66187 0.28668 0.15931
 H630 H 0.63282 0.28678 0.12988
 H631 H 0.63084 0.21400 0.13188
 H632 H 0.66019 0.21412 0.16100
 H633 H 0.62586 0.22219 0.09225
 H634 H 0.59647 0.22213 0.06316
 H635 H 0.56415 0.27860 0.09535
 H636 H 0.59319 0.27857 0.12478
 C637 C -0.19491 0.69446 0.75076
 C638 C -0.18052 0.68012 0.75078
 C639 C -0.16333 0.66301 0.75082
 C640 C -0.16826 0.64133 0.75870
 C641 C -0.15158 0.62468 0.75872
 C642 C -0.12971 0.62952 0.75086
 C643 C -0.12493 0.65138 0.74299
 C644 C -0.14164 0.66799 0.74297
 C645 C -0.11198 0.61184 0.75087
 C646 C -0.08970 0.61709 0.75712
 C647 C -0.07302 0.60044 0.75711
 C648 C -0.07837 0.57834 0.75083
 C649 C -0.10048 0.57295 0.74457
 C650 C -0.11719 0.58956 0.74459
 C651 C -0.06119 0.56122 0.75079
 C652 C -0.04680 0.54687 0.75076
 H653 H -0.18498 0.63731 0.76488
 H654 H -0.15571 0.60811 0.76516
 H655 H -0.10836 0.65554 0.73656
 H656 H -0.13766 0.68470 0.73677
 H657 H -0.08523 0.63400 0.76232
 H658 H -0.05598 0.60478 0.76204
 H659 H -0.10479 0.55591 0.73962
 H660 H -0.13410 0.58506 0.73941
 C661 C -0.19435 0.30600 0.25011
 C662 C -0.18003 0.32043 0.25014
 C663 C -0.16294 0.33766 0.25015
 C664 C -0.14915 0.34064 0.26905
 C665 C -0.13253 0.35735 0.26905
 C666 C -0.12949 0.37133 0.25013
 C667 C -0.14346 0.36819 0.23121
 C668 C -0.16007 0.35146 0.23124
 C669 C -0.11182 0.38908 0.25010
 C670 C -0.11618 0.41041 0.24069
 C671 C -0.09952 0.42710 0.24066
 C672 C -0.07831 0.42269 0.24999
 C673 C -0.07380 0.40154 0.25940
 C674 C -0.09043 0.38484 0.25947
 C675 C -0.06117 0.43987 0.24991
 C676 C -0.04680 0.45424 0.24983
 H677 H -0.15128 0.33008 0.28380
 H678 H -0.12225 0.35954 0.28397
 H679 H -0.14135 0.37848 0.21629
 H680 H -0.17061 0.34925 0.21649
 H681 H -0.13256 0.41429 0.23363
 H682 H -0.10321 0.44344 0.23339
 H683 H -0.05741 0.39794 0.26661
 H684 H -0.08646 0.36850 0.26657
 C685 C 0.19402 0.30620 0.75026
 C686 C 0.17965 0.32056 0.75028
 C687 C 0.16249 0.33770 0.75031
 C688 C 0.16846 0.36038 0.75284
 C689 C 0.15181 0.37705 0.75286
 C690 C 0.12893 0.37125 0.75036
 C691 C 0.12311 0.34839 0.74783
 C692 C 0.13979 0.33175 0.74780
 C693 C 0.11122 0.38895 0.75038
 C694 C 0.09064 0.38541 0.76165
 C695 C 0.07398 0.40208 0.76166
 C696 C 0.07766 0.42249 0.75043
 C697 C 0.09807 0.42618 0.73917
 C698 C 0.11475 0.40954 0.73914
 C699 C 0.06050 0.43964 0.75045
 C700 C 0.04613 0.45400 0.75048
 H701 H 0.18598 0.36517 0.75486
 H702 H 0.15680 0.39446 0.75514
 H703 H 0.10569 0.34341 0.74557
 H704 H 0.13500 0.31425 0.74576
 H705 H 0.08753 0.36987 0.77070
 H706 H 0.05827 0.39908 0.77049
 H707 H 0.10106 0.44190 0.73036
 H708 H 0.13029 0.41265 0.73007
 C709 C 0.19456 0.69456 0.24918
 C710 C 0.18012 0.68024 0.24915
 C711 C 0.16290 0.66315 0.24912
 C712 C 0.14120 0.66818 0.25691
 C713 C 0.12446 0.65159 0.25690
 C714 C 0.12922 0.62970 0.24911
 C715 C 0.15110 0.62482 0.24132
 C716 C 0.16780 0.64145 0.24132
 C717 C 0.11146 0.61204 0.24914
 C718 C 0.11662 0.58978 0.25550
 C719 C 0.09988 0.57318 0.25554
 C720 C 0.07780 0.57857 0.24923
 C721 C 0.07250 0.60065 0.24286
 C722 C 0.08920 0.61729 0.24282
 C723 C 0.06059 0.56146 0.24929
 C724 C 0.04619 0.54712 0.24936
 H725 H 0.13724 0.68492 0.26304
 H726 H 0.10788 0.65579 0.26327
 H727 H 0.15521 0.60823 0.23494
 H728 H 0.18453 0.63739 0.23520
 H729 H 0.13352 0.58527 0.26073
 H730 H 0.10416 0.55615 0.26057
 H731 H 0.05547 0.60500 0.23788
 H732 H 0.08476 0.63419 0.23755
 C733 C 0.74968 -0.19430 0.69454
 C734 C 0.74968 -0.17995 0.68016
 C735 C 0.74968 -0.16282 0.66298
 C736 C 0.74238 -0.14098 0.66806
 C737 C 0.74241 -0.12432 0.65139
 C738 C 0.74974 -0.12931 0.62939
 C739 C 0.75704 -0.15133 0.62447
 C740 C 0.75701 -0.16796 0.64117
 C741 C 0.74979 -0.11162 0.61167
 C742 C 0.74298 -0.11672 0.58954
 C743 C 0.74303 -0.10006 0.57287
 C744 C 0.74990 -0.07811 0.57809
 C745 C 0.75671 -0.07286 0.60005
 C746 C 0.75666 -0.08949 0.61674
 C747 C 0.74995 -0.06097 0.56092
 C748 C 0.75000 -0.04662 0.54655
 H749 H 0.73662 -0.13684 0.68488
 H750 H 0.73642 -0.10762 0.65564
 H751 H 0.76305 -0.15562 0.60778
 H752 H 0.76276 -0.18480 0.63707
 H753 H 0.73732 -0.13351 0.58518
 H754 H 0.73766 -0.10428 0.55594
 H755 H 0.76212 -0.05594 0.60425
 H756 H 0.76227 -0.08511 0.63354
 C757 C 0.25023 -0.19444 0.30561
 C758 C 0.25027 -0.18011 0.32000
 C759 C 0.25030 -0.16301 0.33719
 C760 C 0.25804 -0.14128 0.33224
 C761 C 0.25805 -0.12465 0.34892
 C762 C 0.25031 -0.12954 0.37080
 C763 C 0.24258 -0.15145 0.37560
 C764 C 0.24257 -0.16805 0.35890
 C765 C 0.25030 -0.11187 0.38853
 C766 C 0.25670 -0.11710 0.41077
 C767 C 0.25668 -0.10046 0.42744
 C768 C 0.25026 -0.07840 0.42214
 C769 C 0.24386 -0.07302 0.40008
 C770 C 0.24389 -0.08963 0.38338
 C771 C 0.25023 -0.06128 0.43931
 C772 C 0.25020 -0.04694 0.45369
 H773 H 0.26412 -0.13722 0.31551
 H774 H 0.26438 -0.10804 0.34477
 H775 H 0.23625 -0.15566 0.39219
 H776 H 0.23648 -0.18480 0.36289
 H777 H 0.26200 -0.13399 0.41520
 H778 H 0.26172 -0.10479 0.44445
 H779 H 0.23880 -0.05600 0.39581
 H780 H 0.23859 -0.08514 0.36650
 C781 C 0.75070 0.19428 0.30596
 C782 C 0.75069 0.17989 0.32031
 C783 C 0.75066 0.16272 0.33744
 C784 C 0.73022 0.15447 0.34587
 C785 C 0.73016 0.13780 0.36252
 C786 C 0.75058 0.12913 0.37095
 C787 C 0.77104 0.13754 0.36234
 C788 C 0.77106 0.15422 0.34571
 C789 C 0.75053 0.11142 0.38864
 C790 C 0.76594 0.09341 0.38771
 C791 C 0.76587 0.07674 0.40437
 C792 C 0.75043 0.07784 0.42217
 C793 C 0.73505 0.09569 0.42326
 C794 C 0.73508 0.11237 0.40662
 C795 C 0.75038 0.06068 0.43931
 C796 C 0.75034 0.04631 0.45367
 H797 H 0.71433 0.16089 0.33954
 H798 H 0.71414 0.13147 0.36859
 H799 H 0.78703 0.13142 0.36869
 H800 H 0.78697 0.16054 0.33934
 H801 H 0.77784 0.09205 0.37394
 H802 H 0.77781 0.06296 0.40333
 H803 H 0.72307 0.09674 0.43701
 H804 H 0.72321 0.12616 0.40797
 C805 C 0.25007 0.19385 0.69424
 C806 C 0.25005 0.17945 0.67991
 C807 C 0.25004 0.16227 0.66280
 C808 C 0.22976 0.15559 0.65275
 C809 C 0.22974 0.13890 0.63612
 C810 C 0.25003 0.12869 0.62930
 C811 C 0.27033 0.13554 0.63951
 C812 C 0.27031 0.15221 0.65615
 C813 C 0.25004 0.11098 0.61162
 C814 C 0.26702 0.11048 0.59506
 C815 C 0.26700 0.09382 0.57841
 C816 C 0.25004 0.07742 0.57809
 C817 C 0.23307 0.07775 0.59448
 C818 C 0.23305 0.09441 0.61114
 C819 C 0.25004 0.06027 0.56095
 C820 C 0.25005 0.04591 0.54659
 H821 H 0.21398 0.16332 0.65773
 H822 H 0.21388 0.13421 0.62839
 H823 H 0.28619 0.12779 0.63484
 H824 H 0.28610 0.15721 0.66386
 H825 H 0.28015 0.12316 0.59480
 H826 H 0.28018 0.09375 0.56577
 H827 H 0.21990 0.06510 0.59443
 H828 H 0.21992 0.09416 0.62381
   
