data_POSCAR
  _audit_creation_date              2014-09-24
  _audit_creation_method            'ToBaCCo'
  _symmetry_space_group_name_H-M    'P1'
  _symmetry_Int_Tables_number       1
  _symmetry_cell_setting            triclinic
  loop_
  _symmetry_equiv_pos_as_xyz
 x,y,z
_cell_length_a 26.5767
_cell_length_b 26.4786
_cell_length_c 12.6212
_cell_angle_alpha 89.875300
_cell_angle_beta 89.879600
_cell_angle_gamma 119.996400
loop_
  _atom_site_label
  _atom_site_type_symbol
  _atom_site_fract_x
  _atom_site_fract_y
  _atom_site_fract_z
C1 C 0.43869 0.87730 0.59723
 C2 C 0.42432 0.84761 0.50075
 C3 C 0.43981 0.87774 0.40446
 C4 C 0.47056 0.93933 0.40341
 C5 C 0.48550 0.97012 0.50076
 C6 C 0.46952 0.93903 0.59826
 C7 C 0.48479 0.97048 0.69377
 C8 C 0.51511 1.03118 0.69360
 C9 C 0.53139 1.06291 0.59791
 C10 C 0.51644 1.03209 0.50055
 C11 C 0.48675 0.97087 0.30772
 C12 C 0.51705 1.03155 0.30746
 C13 C 0.53235 1.06309 0.40294
 C14 C 0.56316 1.12480 0.40366
 C15 C 0.57762 1.15465 0.50004
 C16 C 0.56220 1.12464 0.59668
 H17 H 0.47338 0.94831 0.76967
 H18 H 0.52573 1.05313 0.76941
 H19 H 0.47609 0.94883 0.23201
 H20 H 0.52841 1.05363 0.23147
 H21 H 0.40065 0.80023 0.50036
 H22 H 0.60128 1.20205 0.49984
 C23 C -0.12389 0.43844 0.40429
 C24 C -0.15394 0.42295 0.50058
 C25 C -0.12438 0.43732 0.59712
 C26 C -0.06288 0.46811 0.59821
 C27 C -0.03193 0.48408 0.50069
 C28 C -0.06254 0.46920 0.40327
 C29 C -0.03103 0.48547 0.30760
 C30 C 0.02947 0.51581 0.30748
 C31 C 0.06067 0.53097 0.40301
 C32 C 0.02975 0.51498 0.50053
 C33 C -0.03150 0.48334 0.69375
 C34 C 0.02902 0.51364 0.69353
 C35 C 0.06045 0.52986 0.59784
 C36 C 0.12184 0.56058 0.59651
 C37 C 0.15172 0.57607 0.50011
 C38 C 0.12203 0.56172 0.40392
 H39 H -0.05294 0.47485 0.23185
 H40 H 0.05163 0.52730 0.23166
 H41 H -0.05358 0.47192 0.76966
 H42 H 0.05102 0.52428 0.76920
 H43 H -0.20114 0.39929 0.50016
 H44 H 0.19890 0.59970 0.49993
 C45 C 0.43884 0.56210 0.59870
 C46 C 0.42352 0.57649 0.50208
 C47 C 0.43797 0.56092 0.40592
 C48 C 0.46860 0.53009 0.40514
 C49 C 0.48445 0.51515 0.50264
 C50 C 0.46954 0.53118 0.60002
 C51 C 0.48574 0.51587 0.69564
 C52 C 0.51594 0.48545 0.69568
 C53 C 0.53117 0.46913 0.60009
 C54 C 0.51527 0.48414 0.50268
 C55 C 0.48378 0.51383 0.30958
 C56 C 0.51399 0.48344 0.30962
 C57 C 0.53014 0.46819 0.40521
 C58 C 0.56079 0.43737 0.40608
 C59 C 0.57622 0.42282 0.50227
 C60 C 0.56188 0.43822 0.59886
 H61 H 0.47513 0.52732 0.77145
 H62 H 0.52731 0.47478 0.77152
 H63 H 0.47241 0.52449 0.23376
 H64 H 0.52461 0.47200 0.23383
 H65 H 0.39996 0.60022 0.50147
 H66 H 0.59979 0.39910 0.50173
 O67 O 0.41902 0.66950 -0.12288
 O68 O 0.42191 0.76801 -0.09196
 C69 C 0.38536 0.77543 -0.14440
 O70 O 0.33170 0.75008 -0.12287
 O71 O 0.23351 0.65446 -0.09067
 C72 C 0.22596 0.61024 -0.14277
 O73 O 0.25141 0.58186 -0.12197
 O74 O 0.34670 0.57893 -0.09083
 C75 C 0.39066 0.61563 -0.14369
 O76 O 0.42138 0.65373 0.08863
 O77 O 0.41913 0.74958 0.11958
 C78 C 0.39094 0.77512 0.14098
 O79 O 0.34725 0.76821 0.08844
 O80 O 0.25167 0.67004 0.12040
 C81 C 0.22598 0.61613 0.14159
 O82 O 0.23314 0.57929 0.08922
 O83 O 0.33092 0.58160 0.12061
 C84 C 0.38455 0.60989 0.14174
 Cr85 Cr 0.41718 0.70862 -0.00166
 Cr86 Cr 0.29263 0.70910 -0.00120
 Cr87 Cr 0.29217 0.58362 -0.00077
 O88 O 0.33399 0.66712 -0.00129
 O89 O 0.57844 0.34563 -0.09055
 O90 O 0.58118 0.25002 -0.12201
 C91 C 0.60964 0.22480 -0.14381
 O92 O 0.65335 0.23178 -0.09118
 O93 O 0.74873 0.33015 -0.12308
 C94 C 0.77407 0.38402 -0.14458
 O95 O 0.76677 0.42076 -0.09213
 O96 O 0.66871 0.41809 -0.12275
 C97 C 0.61503 0.38971 -0.14348
 O98 O 0.58118 0.32978 0.12086
 O99 O 0.57865 0.23158 0.08972
 C100 C 0.61546 0.22477 0.14261
 O101 O 0.66903 0.25004 0.12044
 O102 O 0.76688 0.34570 0.08821
 C103 C 0.77390 0.38959 0.14079
 O104 O 0.74857 0.41800 0.11945
 O105 O 0.65317 0.42051 0.08880
 C106 C 0.60947 0.38361 0.14196
 Cr107 Cr 0.58304 0.29083 -0.00055
 Cr108 Cr 0.70788 0.29098 -0.00141
 Cr109 Cr 0.70773 0.41615 -0.00167
 O110 O 0.66622 0.33267 -0.00129
 C111 C 0.42173 0.84459 -0.31194
 C112 C 0.40574 0.81399 -0.23405
 C113 C 0.15620 0.57708 -0.30801
 C114 C 0.18706 0.59181 -0.23111
 C115 C 0.42326 0.57913 -0.31065
 C116 C 0.40876 0.59519 -0.23300
 C117 C 0.57771 0.15696 -0.31237
 C118 C 0.59195 0.18696 -0.23407
 C119 C 0.84301 0.42039 -0.31208
 C120 C 0.81251 0.40441 -0.23421
 C121 C 0.57876 0.42253 -0.31045
 C122 C 0.59470 0.40792 -0.23278
 C123 C 0.84209 0.42199 0.30830
 C124 C 0.81194 0.40755 0.23044
 C125 C 0.57992 0.15719 0.31238
 C126 C 0.59554 0.18710 0.23358
 C127 C 0.57720 0.41959 0.31000
 C128 C 0.59157 0.40376 0.23195
 C129 C 0.15650 0.57966 0.30812
 C130 C 0.18725 0.59574 0.23069
 C131 C 0.42337 0.84357 0.30851
 C132 C 0.40893 0.81329 0.23066
 C133 C 0.42029 0.57739 0.30980
 C134 C 0.40455 0.59185 0.23173
   
