data_POSCAR
  _audit_creation_date              2014-09-24
  _audit_creation_method            'ToBaCCo'
  _symmetry_space_group_name_H-M    'P1'
  _symmetry_Int_Tables_number       1
  _symmetry_cell_setting            triclinic
  loop_
  _symmetry_equiv_pos_as_xyz
 x,y,z
_cell_length_a 33.4547
_cell_length_b 31.0484
_cell_length_c 17.8887
_cell_angle_alpha 90.000000
_cell_angle_beta 89.794500
_cell_angle_gamma 89.879600
loop_
  _atom_site_label
  _atom_site_type_symbol
  _atom_site_fract_x
  _atom_site_fract_y
  _atom_site_fract_z
C1 C 0.67003 0.32696 0.50172
 C2 C 0.68792 0.31517 0.56892
 C3 C 0.72000 0.28608 0.56886
 C4 C 0.73321 0.26631 0.50155
 C5 C 0.71363 0.27815 0.43436
 C6 C 0.68311 0.30907 0.43456
 C7 C 0.76685 0.23373 0.50150
 C8 C 0.78668 0.22171 0.43430
 C9 C 0.81718 0.19066 0.43464
 C10 C 0.82990 0.17291 0.50208
 C11 C 0.81170 0.18493 0.56904
 C12 C 0.77974 0.21405 0.56883
 H13 H 0.64572 0.35020 0.50154
 H14 H 0.73426 0.27960 0.62171
 H15 H 0.72132 0.26369 0.38139
 H16 H 0.77915 0.23620 0.38132
 H17 H 0.85416 0.14961 0.50262
 H18 H 0.76538 0.22058 0.62172
 C19 C 0.16990 0.82691 0.50476
 C20 C 0.18793 0.81520 0.57188
 C21 C 0.21997 0.78610 0.57181
 C22 C 0.23304 0.76621 0.50460
 C23 C 0.21334 0.77795 0.43740
 C24 C 0.18283 0.80891 0.43757
 C25 C 0.26675 0.73373 0.50468
 C26 C 0.28651 0.72183 0.43746
 C27 C 0.31707 0.69096 0.43761
 C28 C 0.33001 0.67318 0.50478
 C29 C 0.31195 0.68504 0.57203
 C30 C 0.27982 0.71408 0.57202
 H31 H 0.14561 0.85017 0.50467
 H32 H 0.23433 0.77970 0.62460
 H33 H 0.22093 0.76337 0.38447
 H34 H 0.27893 0.73622 0.38447
 H35 H 0.35435 0.64997 0.50456
 H36 H 0.26542 0.72061 0.62491
 C37 C 0.32897 0.32666 -0.50170
 C38 C 0.31102 0.31471 -0.56863
 C39 C 0.27910 0.28563 -0.56824
 C40 C 0.26605 0.26600 -0.50075
 C41 C 0.28565 0.27804 -0.43372
 C42 C 0.31607 0.30895 -0.43432
 C43 C 0.23259 0.23337 -0.50043
 C44 C 0.21294 0.22132 -0.43310
 C45 C 0.18255 0.19026 -0.43328
 C46 C 0.16980 0.17251 -0.50065
 C47 C 0.18785 0.18452 -0.56770
 C48 C 0.21967 0.21366 -0.56767
 H49 H 0.35318 0.34988 -0.50207
 H50 H 0.26493 0.27909 -0.62108
 H51 H 0.27808 0.26372 -0.38060
 H52 H 0.22051 0.23579 -0.38017
 H53 H 0.14563 0.14921 -0.50106
 H54 H 0.23390 0.22020 -0.62065
 C55 C -0.16960 0.82731 -0.50333
 C56 C -0.18748 0.81560 -0.57054
 C57 C -0.21938 0.78648 -0.57066
 C58 C -0.23248 0.76657 -0.50353
 C59 C -0.21295 0.77834 -0.43621
 C60 C -0.18255 0.80931 -0.43621
 C61 C -0.26601 0.73404 -0.50390
 C62 C -0.28580 0.72195 -0.43683
 C63 C -0.31626 0.69109 -0.43740
 C64 C -0.32901 0.67349 -0.50478
 C65 C -0.31089 0.68550 -0.57175
 C66 C -0.27893 0.71453 -0.57142
 H67 H -0.14539 0.85057 -0.50311
 H68 H -0.23361 0.78009 -0.62354
 H69 H -0.22060 0.76377 -0.38331
 H70 H -0.27833 0.73619 -0.38369
 H71 H -0.35326 0.65030 -0.50510
 H72 H -0.26460 0.72112 -0.62429
 N73 N -0.04188 1.04617 -0.13103
 N74 N -0.06877 1.05401 -0.18294
 N75 N 0.04196 1.07699 -0.08037
 N76 N 0.06693 1.10819 -0.09903
 N77 N 0.04211 1.04660 -0.13148
 N78 N 0.06724 1.05624 -0.18593
 N79 N -0.04207 1.07674 -0.08022
 N80 N -0.06911 1.10638 -0.09661
 C81 C -0.08591 1.09113 -0.16006
 C82 C 0.08302 1.09419 -0.16413
 N83 N 0.04180 1.04607 0.13216
 N84 N 0.06864 1.05384 0.18412
 N85 N -0.04210 1.07709 0.08152
 N86 N -0.06708 1.10838 0.10024
 N87 N -0.04219 1.04669 0.13262
 N88 N -0.06730 1.05642 0.18711
 N89 N 0.04193 1.07664 0.08137
 N90 N 0.06890 1.10624 0.09781
 Mn91 Mn -0.00007 1.07731 0.00057
 C92 C 0.08570 1.09094 0.16128
 C93 C -0.08314 1.09442 0.16536
 N94 N 0.04247 0.95393 -0.13095
 N95 N 0.06949 0.94601 -0.18295
 N96 N -0.04161 0.92312 -0.08044
 N97 N -0.06655 0.89195 -0.09906
 N98 N -0.04153 0.95351 -0.13156
 N99 N -0.06646 0.94389 -0.18599
 N100 N 0.04242 0.92335 -0.08015
 N101 N 0.06944 0.89363 -0.09662
 Mn102 Mn 0.00029 1.00005 -0.13172
 C103 C 0.08648 0.90885 -0.16011
 C104 C -0.08238 0.90597 -0.16417
 N105 N -0.04238 0.95404 0.13209
 N106 N -0.06936 0.94618 0.18412
 N107 N 0.04175 0.92302 0.08158
 N108 N 0.06671 0.89177 0.10027
 N109 N 0.04161 0.95341 0.13270
 N110 N 0.06653 0.94372 0.18717
 N111 N -0.04228 0.92346 0.08130
 N112 N -0.06921 0.89378 0.09783
 Mn113 Mn -0.00029 1.00005 0.13285
 Mn114 Mn 0.00007 0.92280 0.00057
 Cl115 Cl 0.00000 1.00005 0.00057
 C116 C -0.08626 0.90904 0.16133
 C117 C 0.08249 0.90574 0.16540
 N118 N 0.54156 0.57698 -0.08242
 N119 N 0.56668 0.60805 -0.10093
 N120 N 0.45756 0.54615 -0.13226
 N121 N 0.43069 0.55415 -0.18416
 N122 N 0.45753 0.57671 -0.08144
 N123 N 0.43061 0.60650 -0.09781
 N124 N 0.54156 0.54663 -0.13360
 N125 N 0.56674 0.55616 -0.18799
 C126 C 0.58269 0.59400 -0.16605
 C127 C 0.41370 0.59135 -0.16125
 N128 N 0.45821 0.42312 -0.08145
 N129 N 0.43308 0.39202 -0.09943
 N130 N 0.54206 0.45395 -0.13325
 N131 N 0.56883 0.44600 -0.18570
 N132 N 0.54224 0.42340 -0.08242
 N133 N 0.56917 0.39366 -0.09934
 N134 N 0.45806 0.45347 -0.13262
 N135 N 0.43276 0.44391 -0.18647
 Mn136 Mn 0.49981 0.50005 -0.13341
 C137 C 0.41690 0.40605 -0.16419
 C138 C 0.58592 0.40882 -0.16314
 N139 N 0.45809 0.57697 0.08028
 N140 N 0.43300 0.60812 0.09908
 N141 N 0.54223 0.54618 0.13006
 N142 N 0.56916 0.55411 0.18180
 N143 N 0.54211 0.57674 0.07924
 N144 N 0.56901 0.60646 0.09543
 N145 N 0.45823 0.54659 0.13142
 N146 N 0.43318 0.55619 0.18604
 Mn147 Mn 0.49982 0.57729 -0.00109
 C148 C 0.41714 0.59409 0.16430
 C149 C 0.58604 0.59128 0.15879
 N150 N 0.54214 0.42313 0.07930
 N151 N 0.56724 0.39194 0.09758
 N152 N 0.45816 0.45393 0.13104
 N153 N 0.43132 0.44604 0.18334
 N154 N 0.45812 0.42337 0.08022
 N155 N 0.43121 0.39370 0.09695
 N156 N 0.54215 0.45351 0.13044
 N157 N 0.56732 0.44388 0.18452
 Mn158 Mn 0.50018 0.42281 -0.00109
 Mn159 Mn 0.50019 0.50005 0.13121
 Cl160 Cl 0.50000 0.50005 -0.00110
 C161 C 0.58327 0.40596 0.16245
 C162 C 0.41434 0.40889 0.16068
 C163 C 0.32695 0.33194 0.36272
 C164 C 0.34332 0.34748 0.30900
 C165 C 0.36558 0.36713 0.25120
 C166 C 0.38682 0.38535 0.20681
 C167 C -0.17247 0.83207 0.36460
 C168 C -0.15649 0.84758 0.31050
 C169 C -0.13463 0.86719 0.25222
 C170 C -0.11363 0.88541 0.20752
 C171 C 0.67332 0.66835 0.35963
 C172 C 0.65702 0.65283 0.30604
 C173 C 0.63480 0.63315 0.24851
 C174 C 0.61357 0.61490 0.20443
 C175 C 0.17214 1.16735 0.36371
 C176 C 0.15605 1.15197 0.30984
 C177 C 0.13412 1.13251 0.25180
 C178 C 0.11308 1.11442 0.20729
 C179 C 0.67276 0.33161 -0.36619
 C180 C 0.65656 0.34718 -0.31223
 C181 C 0.63447 0.36690 -0.25415
 C182 C 0.61334 0.38518 -0.20952
 C183 C 0.17295 0.83168 -0.36320
 C184 C 0.15693 0.84722 -0.30909
 C185 C 0.13501 0.86689 -0.25086
 C186 C 0.11393 0.88517 -0.20623
 C187 C 0.32698 0.66867 -0.36312
 C188 C 0.34310 0.65312 -0.30928
 C189 C 0.36515 0.63339 -0.25146
 C190 C 0.38627 0.61507 -0.20715
 C191 C -0.17262 1.16775 -0.36231
 C192 C -0.15649 1.15232 -0.30844
 C193 C -0.13449 1.13281 -0.25045
 C194 C -0.11338 1.11466 -0.20600
 C195 C 0.66546 0.67601 -0.36932
 C196 C 0.64872 0.66044 -0.31606
 C197 C 0.62746 0.63936 -0.25853
 C198 C 0.60784 0.61945 -0.21378
 C199 C 0.16534 1.17603 -0.36861
 C200 C 0.14874 1.16063 -0.31496
 C201 C 0.12758 1.13965 -0.25707
 C202 C 0.10805 1.11974 -0.21207
 C203 C 0.33421 0.32397 -0.36631
 C204 C 0.35088 0.33952 -0.31318
 C205 C 0.37211 0.36061 -0.25590
 C206 C 0.39173 0.38055 -0.21145
 C207 C -0.16450 0.82413 -0.36788
 C208 C -0.14790 0.83958 -0.31451
 C209 C -0.12679 0.86058 -0.25686
 C210 C -0.10732 0.88047 -0.21201
 C211 C 0.33520 0.67600 0.36925
 C212 C 0.35175 0.66053 0.31563
 C213 C 0.37277 0.63953 0.25760
 C214 C 0.39219 0.61963 0.21243
 C215 C -0.16551 1.17639 0.37004
 C216 C -0.14886 1.16098 0.31639
 C217 C -0.12768 1.13998 0.25844
 C218 C -0.10816 1.12004 0.21337
 C219 C 0.66513 0.32397 0.36625
 C220 C 0.64865 0.33942 0.31277
 C221 C 0.62766 0.36043 0.25499
 C222 C 0.60824 0.38037 0.21011
 C223 C 0.16467 0.82377 0.36931
 C224 C 0.14803 0.83923 0.31593
 C225 C 0.12689 0.86026 0.25823
 C226 C 0.10743 0.88017 0.21331
   
