data_POSCAR
  _audit_creation_date              2014-09-24
  _audit_creation_method            'ToBaCCo'
  _symmetry_space_group_name_H-M    'P1'
  _symmetry_Int_Tables_number       1
  _symmetry_cell_setting            triclinic
  loop_
  _symmetry_equiv_pos_as_xyz
 x,y,z
_cell_length_a 36.9546
_cell_length_b 37.4936
_cell_length_c 40.0537
_cell_angle_alpha 90.744700
_cell_angle_beta 92.591100
_cell_angle_gamma 92.657800
loop_
  _atom_site_label
  _atom_site_type_symbol
  _atom_site_fract_x
  _atom_site_fract_y
  _atom_site_fract_z
C1 C 0.33143 0.37258 1.34900
 C2 C 0.35320 0.36049 1.32375
 C3 C 0.37174 0.32952 1.32810
 C4 C 0.36851 0.31009 1.35765
 C5 C 0.34733 0.32228 1.38248
 C6 C 0.32848 0.35356 1.37803
 C7 C 0.31071 0.40191 1.35194
 N8 N 0.29472 0.40115 1.38205
 C9 C 0.30592 0.37142 1.39807
 C10 C 0.35043 0.29932 1.40878
 N11 N 0.37289 0.27302 1.40068
 C12 C 0.38386 0.27953 1.36915
 C13 C 0.39238 0.32549 1.30067
 N14 N 0.38681 0.35319 1.27976
 C15 C 0.36268 0.37460 1.29363
 H16 H 0.30706 0.42153 1.33271
 H17 H 0.29893 0.36311 1.42279
 H18 H 0.33653 0.30164 1.43184
 H19 H 0.40284 0.26425 1.35579
 H20 H 0.41074 0.30434 1.29661
 H21 H 0.35402 0.39955 1.28338
 C22 C 1.13120 0.60527 0.88479
 C23 C 1.11515 0.61043 0.85281
 C24 C 1.08708 0.63362 0.84883
 C25 C 1.07395 0.65102 0.87676
 C26 C 1.08874 0.64449 0.90818
 C27 C 1.11797 0.62230 0.91211
 C28 C 1.16288 0.59006 0.89564
 N29 N 1.16976 0.59844 0.92870
 C30 C 1.14168 0.61758 0.93882
 C31 C 1.07282 0.66630 0.93038
 N32 N 1.04892 0.68675 0.91338
 C33 C 1.04970 0.67764 0.88034
 C34 C 1.07937 0.63637 0.81508
 N35 N 1.10152 0.61506 0.79857
 C36 C 1.12359 0.59914 0.82129
 H37 H 1.18123 0.57719 0.87954
 H38 H 1.13898 0.62892 0.96348
 H39 H 1.08044 0.66884 0.95674
 H40 H 1.03409 0.68951 0.86023
 H41 H 1.05950 0.65304 0.80328
 H42 H 1.14498 0.58172 0.81522
 C43 C 0.63482 -0.07189 0.12549
 C44 C 0.61474 -0.06996 0.15420
 C45 C 0.59502 -0.09962 0.16437
 C46 C 0.59527 -0.13161 0.14607
 C47 C 0.61510 -0.13381 0.11770
 C48 C 0.63575 -0.10360 0.10756
 C49 C 0.65865 -0.04780 0.11192
 N50 N 0.67505 -0.06376 0.08629
 C51 C 0.66121 -0.09816 0.08358
 C52 C 0.61086 -0.16876 0.10620
 N53 N 0.58947 -0.18774 0.12729
 C54 C 0.58019 -0.16484 0.15178
 C55 C 0.58178 -0.09151 0.19496
 N56 N 0.59353 -0.05773 0.20386
 C57 C 0.61357 -0.04425 0.17893
 H58 H 0.66537 -0.02129 0.12202
 H59 H 0.66916 -0.11802 0.06584
 H60 H 0.62364 -0.17960 0.08477
 H61 H 0.56274 -0.17123 0.17204
 H62 H 0.56729 -0.10988 0.21081
 H63 H 0.62799 -0.01844 0.17959
 C64 C -0.10976 1.08892 -0.39725
 C65 C -0.08791 1.09443 -0.36779
 C66 C -0.05832 1.11866 -0.36748
 C67 C -0.04980 1.13724 -0.39650
 C68 C -0.07035 1.13047 -0.42563
 C69 C -0.10073 1.10679 -0.42585
 C70 C -0.14448 1.07416 -0.40307
 N71 N -0.15706 1.08373 -0.43411
 C72 C -0.12978 1.10298 -0.44824
 C73 C -0.05993 1.15549 -0.44834
 N74 N -0.03396 1.17830 -0.43375
 C75 C -0.02758 1.16710 -0.40184
 C76 C -0.04535 1.12259 -0.33494
 N77 N -0.06596 1.10128 -0.31541
 C78 C -0.09214 1.08398 -0.33523
 H79 H -0.16066 1.06135 -0.38439
 H80 H -0.13121 1.11544 -0.47242
 H81 H -0.07355 1.15896 -0.47248
 H82 H -0.00943 1.18042 -0.38321
 H83 H -0.02309 1.14050 -0.32597
 H84 H -0.11376 1.06661 -0.32637
 C85 C 0.65580 0.58902 0.65544
 C86 C 0.62627 0.59423 0.67554
 C87 C 0.59888 0.61568 0.66447
 C88 C 0.60063 0.63244 0.63352
 C89 C 0.62929 0.62694 0.61354
 C90 C 0.65699 0.60489 0.62443
 C91 C 0.68831 0.57304 0.66116
 N92 N 0.70878 0.57848 0.63420
 C93 C 0.68986 0.59785 0.61164
 C94 C 0.62618 0.64981 0.58708
 N95 N 0.59656 0.66976 0.59069
 C96 C 0.58068 0.65870 0.61910
 C97 C 0.57541 0.61851 0.68984
 N98 N 0.58769 0.59935 0.71624
 C99 C 0.61887 0.58437 0.70767
 H100 H 0.69699 0.55955 0.68367
 H101 H 0.70017 0.60782 0.58849
 H102 H 0.64617 0.65346 0.56839
 H103 H 0.55699 0.66948 0.62958
 H104 H 0.55133 0.63388 0.68911
 H105 H 0.63577 0.56868 0.72402
 C106 C 0.84078 0.39922 0.13871
 C107 C 0.85817 0.38939 0.16864
 C108 C 0.88019 0.36052 0.16949
 C109 C 0.88479 0.34094 0.13989
 C110 C 0.86752 0.35091 0.11025
 C111 C 0.84457 0.37970 0.10980
 C112 C 0.81756 0.42574 0.13135
 N113 N 0.80592 0.42233 0.09870
 C114 C 0.82223 0.39395 0.08533
 C115 C 0.87824 0.32872 0.08544
 N116 N 0.90124 0.30496 0.09908
 C117 C 0.90482 0.31193 0.13259
 C118 C 0.89295 0.35734 0.20227
 N119 N 0.87840 0.38317 0.22088
 C120 C 0.85719 0.40281 0.20053
 H121 H 0.80816 0.44473 0.14921
 H122 H 0.81846 0.38449 0.05970
 H123 H 0.86932 0.32965 0.05937
 H124 H 0.92222 0.29826 0.15018
 H125 H 0.91061 0.33732 0.21203
 H126 H 0.84195 0.42512 0.20854
 C127 C 0.36963 0.07168 0.86467
 C128 C 0.40102 0.07308 0.84608
 C129 C 0.42321 0.10396 0.84653
 C130 C 0.41423 0.13394 0.86522
 C131 C 0.38309 0.13249 0.88310
 C132 C 0.36082 0.10126 0.88283
 C133 C 0.34170 0.04633 0.86748
 N134 N 0.31591 0.05993 0.88681
 C135 C 0.32785 0.09373 0.89612
 C136 C 0.37856 0.16613 0.89562
 N137 N 0.40619 0.18812 0.88588
 C138 C 0.42838 0.16870 0.86742
 C139 C 0.44952 0.09899 0.82400
 N140 N 0.44391 0.06601 0.80968
 C141 C 0.41429 0.04996 0.82308
 H142 H 0.33997 0.02056 0.85494
 H143 H 0.31410 0.11198 0.91174
 H144 H 0.35591 0.17443 0.90959
 H145 H 0.45165 0.17954 0.85481
 H146 H 0.46993 0.11883 0.81706
 H147 H 0.40248 0.02389 0.81582
 C148 C 0.13639 0.90563 0.37221
 C149 C 0.11620 0.91181 0.34246
 C150 C 0.08410 0.89219 0.33499
 C151 C 0.07187 0.86598 0.35708
 C152 C 0.09165 0.86027 0.38647
 C153 C 0.12400 0.88026 0.39407
 C154 C 0.17036 0.91768 0.38421
 N155 N 0.17904 0.90031 0.41306
 C156 C 0.15036 0.87740 0.41903
 C157 C 0.07639 0.83049 0.40086
 N158 N 0.04793 0.81760 0.38089
 C159 C 0.04487 0.83936 0.35407
 C160 C 0.07241 0.90111 0.30320
 N161 N 0.09660 0.92556 0.29114
 C162 C 0.12346 0.93221 0.31504
 H163 H 0.18735 0.93740 0.37215
 H164 H 0.14913 0.85811 0.43881
 H165 H 0.08726 0.81746 0.42283
 H166 H 0.02574 0.83509 0.33298
 H167 H 0.04910 0.88916 0.28919
 H168 H 0.14719 0.94979 0.31235
 Zn169 Zn 0.01858 1.04191 -0.02815
 Zn170 Zn -0.03872 0.98311 -0.03953
 Zn171 Zn 0.02693 0.97409 -0.00040
 Zn172 Zn -0.02455 1.01872 0.02856
 O173 O -0.00573 1.00535 -0.01015
 O174 O 0.00082 1.04928 -0.06902
 O175 O -0.02867 0.93665 -0.04715
 O176 O 0.06287 0.97594 -0.02901
 O177 O -0.04184 1.00634 -0.07917
 O178 O 0.06618 1.03476 -0.03151
 O179 O 0.00676 0.93017 -0.00178
 O180 O -0.00177 1.00001 0.06492
 O181 O -0.08339 0.98226 -0.02261
 O182 O 0.04686 0.98192 0.04049
 O183 O -0.07192 1.00699 0.02793
 O184 O -0.02143 1.06653 0.03459
 O185 O 0.01286 1.08317 -0.00695
 C186 C -0.02418 1.03448 -0.08787
 C187 C -0.01267 0.91678 -0.02615
 C188 C 0.08009 1.00477 -0.03612
 C189 C 0.03020 0.98861 0.06673
 C190 C -0.09386 0.99311 0.00549
 C191 C -0.00573 1.09079 0.01784
 Zn192 Zn 0.47969 -0.00776 0.47193
 Zn193 Zn 0.48555 -0.04628 0.53620
 Zn194 Zn 0.55013 -0.03296 0.49773
 Zn195 Zn 0.52051 0.02604 0.52917
 O196 O 0.50798 -0.01560 0.50869
 O197 O 0.43899 -0.03583 0.47072
 O198 O 0.50424 -0.09016 0.53493
 O199 O 0.55797 -0.02556 0.45471
 O200 O 0.43839 -0.05294 0.52364
 O201 O 0.50329 -0.01315 0.43398
 O202 O 0.55145 -0.07967 0.50373
 O203 O 0.56568 0.04124 0.51980
 O204 O 0.48941 -0.03045 0.57914
 O205 O 0.58817 -0.01209 0.52108
 O206 O 0.51936 0.02180 0.57339
 O207 O 0.49132 0.06083 0.51743
 O208 O 0.46424 0.03704 0.47136
 C209 C 0.42268 -0.05018 0.49485
 C210 C 0.53120 -0.10106 0.51963
 C211 C 0.53662 -0.01847 0.43020
 C212 C 0.59275 0.02163 0.52215
 C213 C 0.50535 -0.00216 0.59163
 C214 C 0.46973 0.06293 0.49204
 Zn215 Zn 0.96695 0.48302 0.50255
 Zn216 Zn 1.04396 0.48813 0.52710
 Zn217 Zn 1.01921 0.51399 0.46061
 Zn218 Zn 1.00281 0.55162 0.52226
 O219 O 1.00844 0.50921 0.50330
 O220 O 0.97609 0.43778 0.51160
 O221 O 1.08568 0.49048 0.50495
 O222 O 0.99470 0.48119 0.43404
 O223 O 1.03311 0.44112 0.53228
 O224 O 0.94464 0.48152 0.46181
 O225 O 1.06626 0.50965 0.45529
 O226 O 0.99795 0.58631 0.49215
 O227 O 1.05276 0.51018 0.56767
 O228 O 1.00824 0.55704 0.44531
 O229 O 1.04079 0.56406 0.54969
 O230 O 0.96352 0.55068 0.54725
 O231 O 0.93570 0.49898 0.53151
 C232 C 1.00437 0.42305 0.52281
 C233 C 1.09160 0.49991 0.47513
 C234 C 0.96084 0.47418 0.43544
 C235 C 1.00027 0.58537 0.46056
 C236 C 1.05470 0.54404 0.57167
 C237 C 0.93740 0.52755 0.54908
 Zn238 Zn 0.44728 0.47582 1.01428
 Zn239 Zn 0.51639 0.47989 0.97798
 Zn240 Zn 0.47993 0.54637 0.99602
 Zn241 Zn 0.51267 0.50621 1.04799
 O242 O 0.48881 0.50147 1.00839
 O243 O 0.44186 0.44040 0.98450
 O244 O 0.51927 0.50575 0.94025
 O245 O 0.43277 0.55541 0.99804
 O246 O 0.49665 0.43652 0.96431
 O247 O 0.40818 0.50193 1.00909
 O248 O 0.49153 0.55449 0.95426
 O249 O 0.50694 0.54869 1.06776
 O250 O 0.56309 0.47643 0.99362
 O251 O 0.50531 0.57951 1.02139
 O252 O 0.55973 0.50318 1.04316
 O253 O 0.49971 0.47287 1.07692
 O254 O 0.44590 0.45492 1.05471
 C255 C 0.46381 0.42495 0.96625
 C256 C 0.50772 0.53632 0.93309
 C257 C 0.40528 0.53480 1.00280
 C258 C 0.51044 0.57824 1.05287
 C259 C 0.57811 0.48978 1.02052
 C260 C 0.47029 0.45422 1.07810
 C261 C 1.22492 0.44120 0.43201
 C262 C 1.21937 0.47181 0.41447
 C263 C 1.23878 0.48101 0.38674
 C264 C 1.26476 0.45756 0.37643
 C265 C 1.27089 0.42508 0.39360
 C266 C 1.25066 0.41755 0.42237
 O267 O 1.20179 0.43596 0.45608
 C268 C 1.18105 0.46385 0.45359
 C269 C 1.19072 0.48663 0.42849
 C270 C 1.17069 0.51577 0.41948
 C271 C 1.13894 0.52108 0.43643
 C272 C 1.12803 0.49757 0.46199
 C273 C 1.14998 0.46910 0.47128
 H274 H 1.23365 0.50513 0.37309
 H275 H 1.27979 0.46518 0.35496
 H276 H 1.25300 0.39317 0.43616
 H277 H 1.17839 0.53289 0.39918
 H278 H 1.12217 0.54278 0.42890
 H279 H 1.14167 0.45005 0.48987
 C280 C 0.25846 0.56400 0.95501
 C281 C 0.26723 0.58556 0.98245
 C282 C 0.24413 0.61050 0.99411
 C283 C 0.21078 0.61376 0.97658
 C284 C 0.20116 0.59278 0.94718
 C285 C 0.22571 0.56719 0.93672
 O286 O 0.28435 0.54205 0.94804
 C287 C 0.31012 0.55024 0.97142
 C288 C 0.30116 0.57699 0.99293
 C289 C 0.32505 0.59113 1.01811
 C290 C 0.35962 0.57710 1.02120
 C291 C 0.36904 0.54903 0.99977
 C292 C 0.34391 0.53525 0.97469
 H293 H 0.25169 0.62725 1.01576
 H294 H 0.19364 0.63410 0.98536
 H295 H 0.21971 0.55000 0.91511
 H296 H 0.31757 0.61259 1.03438
 H297 H 0.37896 0.58785 1.04028
 H298 H 0.35091 0.51423 0.95767
 C299 C -0.24107 0.94875 0.04018
 C300 C -0.23737 0.98538 0.04108
 C301 C -0.26289 1.00682 0.05425
 C302 C -0.29311 0.98991 0.06806
 C303 C -0.29752 0.95194 0.06882
 C304 C -0.27146 0.93117 0.05332
 O305 O -0.21206 0.93353 0.02890
 C306 C -0.18963 0.96125 0.02277
 C307 C -0.20401 0.99354 0.02987
 C308 C -0.18441 1.02595 0.02833
 C309 C -0.14829 1.02512 0.01940
 C310 C -0.13270 0.99234 0.01188
 C311 C -0.15375 0.95988 0.01304
 H312 H -0.25919 1.03563 0.05475
 H313 H -0.31298 1.00677 0.07824
 H314 H -0.27300 0.90231 0.05384
 H315 H -0.19614 1.05088 0.03484
 H316 H -0.13217 1.04997 0.01882
 H317 H -0.14200 0.93448 0.00830
 C318 C 0.74717 0.05190 0.55366
 C319 C 0.73548 0.07572 0.53023
 C320 C 0.75830 0.10147 0.51671
 C321 C 0.79472 0.10316 0.52805
 C322 C 0.80781 0.07977 0.55328
 C323 C 0.78320 0.05356 0.56601
 O324 O 0.72100 0.02897 0.56262
 C325 C 0.69217 0.03889 0.54463
 C326 C 0.69958 0.06767 0.52472
 C327 C 0.67325 0.08330 0.50462
 C328 C 0.63777 0.06843 0.50483
 C329 C 0.62962 0.03808 0.52434
 C330 C 0.65722 0.02305 0.54452
 H331 H 0.74838 0.11984 0.49818
 H332 H 0.81187 0.12412 0.51805
 H333 H 0.79173 0.03466 0.58460
 H334 H 0.67978 0.10614 0.48939
 H335 H 0.61682 0.07992 0.48915
 H336 H 0.65157 -0.00001 0.55976
 C337 C 0.40896 0.18770 0.42869
 C338 C 0.40539 0.19094 0.46255
 C339 C 0.39069 0.22036 0.47722
 C340 C 0.37923 0.24765 0.45615
 C341 C 0.38322 0.24564 0.42089
 C342 C 0.39847 0.21479 0.40727
 O343 O 0.42341 0.15744 0.41976
 C344 C 0.42933 0.14138 0.44871
 C345 C 0.41907 0.16090 0.47571
 C346 C 0.42430 0.14978 0.50850
 C347 C 0.44098 0.11728 0.51365
 C348 C 0.45133 0.09644 0.48616
 C349 C 0.44510 0.10859 0.45320
 H350 H 0.38823 0.22234 0.50400
 H351 H 0.36857 0.27081 0.46785
 H352 H 0.40147 0.21125 0.38074
 H353 H 0.41635 0.16579 0.52938
 H354 H 0.44572 0.10826 0.53898
 H355 H 0.45331 0.09351 0.43181
 C356 C 0.99900 0.27188 0.55724
 C357 C 0.99438 0.27492 0.52320
 C358 C 0.98361 0.24636 0.50219
 C359 C 0.97604 0.21339 0.51689
 C360 C 0.97890 0.20930 0.55225
 C361 C 0.99217 0.23903 0.57250
 O362 O 1.00653 0.30313 0.57276
 C363 C 1.00637 0.32632 0.54790
 C364 C 0.99899 0.31023 0.51710
 C365 C 0.99400 0.32931 0.48790
 C366 C 0.99646 0.36658 0.49051
 C367 C 1.00419 0.38393 0.52181
 C368 C 1.00981 0.36361 0.55096
 H369 H 0.98003 0.24958 0.47545
 H370 H 0.96751 0.19117 0.50046
 H371 H 0.99409 0.23778 0.59946
 H372 H 0.98735 0.31599 0.46413
 H373 H 0.99198 0.38208 0.46817
 H374 H 1.01485 0.37640 0.57522
 C375 C 0.00553 0.77234 -0.07519
 C376 C 0.00015 0.77113 -0.04149
 C377 C 0.00827 0.74191 -0.02214
 C378 C 0.02342 0.71300 -0.03792
 C379 C 0.03019 0.71345 -0.07267
 C380 C 0.01966 0.74334 -0.09172
 O381 O 0.00008 0.80430 -0.08802
 C382 C -0.00876 0.82362 -0.06179
 C383 C -0.00926 0.80439 -0.03277
 C384 C -0.01380 0.81993 -0.00165
 C385 C -0.01704 0.85697 -0.00020
 C386 C -0.01585 0.87761 -0.02958
 C387 C -0.01270 0.86057 -0.06099
 H388 H 0.00437 0.74188 0.00447
 H389 H 0.02997 0.69031 -0.02278
 H390 H 0.02531 0.74559 -0.11788
 H391 H -0.01314 0.80436 0.02091
 H392 H -0.01911 0.86981 0.02398
 H393 H -0.01035 0.87591 -0.08357
 C394 C 0.56514 0.72257 1.09178
 C395 C 0.55303 0.70574 1.11971
 C396 C 0.55328 0.72246 1.15077
 C397 C 0.56602 0.75821 1.15315
 C398 C 0.57870 0.77678 1.12471
 C399 C 0.57876 0.75799 1.09363
 O400 O 0.56125 0.70214 1.06439
 C401 C 0.54650 0.67177 1.07541
 C402 C 0.54115 0.67253 1.10914
 C403 C 0.52603 0.64364 1.12592
 C404 C 0.51610 0.61258 1.10716
 C405 C 0.52092 0.61118 1.07222
 C406 C 0.53631 0.64135 1.05617
 H407 H 0.54363 0.70859 1.17242
 H408 H 0.56658 0.77090 1.17755
 H409 H 0.58733 0.77083 1.07111
 H410 H 0.52208 0.64495 1.15251
 H411 H 0.50435 0.58977 1.11979
 H412 H 0.54055 0.64106 1.02960
 C413 C 0.40915 0.38756 1.19541
 C414 C 0.44494 0.37922 1.19454
 C415 C 0.46265 0.36129 1.22018
 C416 C 0.44275 0.35181 1.24800
 C417 C 0.40595 0.36071 1.24992
 C418 C 0.38893 0.37864 1.22298
 O419 O 0.39782 0.40569 1.16895
 C420 C 0.42719 0.40909 1.15111
 C421 C 0.45680 0.39352 1.16579
 C422 C 0.49095 0.39591 1.15257
 C423 C 0.49485 0.41548 1.12322
 C424 C 0.46473 0.43166 1.10749
 C425 C 0.43026 0.42794 1.12140
 H426 H 0.49095 0.35534 1.21906
 H427 H 0.45636 0.33864 1.26855
 H428 H 0.36095 0.38584 1.22369
 H429 H 0.51397 0.38392 1.16486
 H430 H 0.52139 0.41829 1.11287
 H431 H 0.40703 0.44072 1.11033
 C432 C 0.55942 -0.03671 0.28786
 C433 C 0.58935 -0.01839 0.30231
 C434 C 0.62042 -0.01028 0.28509
 C435 C 0.62092 -0.02206 0.25173
 C436 C 0.59082 -0.04198 0.23651
 C437 C 0.55945 -0.04891 0.25482
 O438 O 0.53327 -0.04296 0.30898
 C439 C 0.54713 -0.02854 0.33747
 C440 C 0.58150 -0.01339 0.33475
 C441 C 0.60219 0.00077 0.36203
 C442 C 0.58690 -0.00089 0.39341
 C443 C 0.55137 -0.01602 0.39678
 C444 C 0.53102 -0.02963 0.36832
 H445 H 0.64379 0.00383 0.29713
 H446 H 0.64536 -0.01711 0.23830
 H447 H 0.53622 -0.06425 0.24394
 H448 H 0.62944 0.01192 0.35937
 H449 H 0.60269 0.00956 0.41511
 H450 H 0.50416 -0.04199 0.37038
 C451 C -0.06106 1.06708 -0.22794
 C452 C -0.05070 1.09818 -0.21086
 C453 C -0.04606 1.13089 -0.22634
 C454 C -0.05195 1.13162 -0.26106
 C455 C -0.06226 1.09998 -0.27958
 C456 C -0.06744 1.06727 -0.26265
 O457 O -0.06210 1.03866 -0.20836
 C458 C -0.05205 1.05223 -0.17831
 C459 C -0.04484 1.08856 -0.17871
 C460 C -0.03217 1.10829 -0.15075
 C461 C -0.02624 1.08986 -0.12108
 C462 C -0.03306 1.05230 -0.11969
 C463 C -0.04678 1.03321 -0.14868
 H464 H -0.03763 1.15491 -0.21225
 H465 H -0.04834 1.15684 -0.27361
 H466 H -0.07478 1.04267 -0.27625
 H467 H -0.02639 1.13681 -0.15188
 H468 H -0.01605 1.10495 -0.09911
 H469 H -0.05179 1.00453 -0.14846
 C470 C 1.09572 0.57674 0.71186
 C471 C 1.09984 0.60750 0.69378
 C472 C 1.10549 0.64113 0.70870
 C473 C 1.10667 0.64320 0.74372
 C474 C 1.10268 0.61195 0.76294
 C475 C 1.09767 0.57816 0.74682
 O476 O 1.08739 0.54798 0.69277
 C477 C 1.08622 0.56089 0.66199
 C478 C 1.09388 0.59714 0.66134
 C479 C 1.09193 0.61668 0.63218
 C480 C 1.08085 0.59833 0.60251
 C481 C 1.07172 0.56108 0.60242
 C482 C 1.07531 0.54195 0.63259
 H483 H 1.10785 0.66501 0.69391
 H484 H 1.11028 0.66909 0.75601
 H485 H 1.09364 0.55409 0.76109
 H486 H 1.09764 0.64526 0.63240
 H487 H 1.07825 0.61347 0.57975
 H488 H 1.06775 0.51375 0.63353
 C489 C 0.79357 0.54857 0.59790
 C490 C 0.81854 0.55783 0.62345
 C491 C 0.80870 0.57212 0.65381
 C492 C 0.77172 0.57747 0.65775
 C493 C 0.74576 0.56925 0.63129
 C494 C 0.75689 0.55433 0.60108
 O495 O 0.80843 0.53594 0.57091
 C496 C 0.84358 0.53753 0.57943
 C497 C 0.85132 0.55108 0.61119
 C498 C 0.88668 0.55735 0.62417
 C499 C 0.91511 0.54942 0.60352
 C500 C 0.90763 0.53476 0.57099
 C501 C 0.87134 0.52845 0.55896
 H502 H 0.82878 0.57932 0.67354
 H503 H 0.76341 0.58929 0.68082
 H504 H 0.73755 0.54804 0.58050
 H505 H 0.89217 0.56868 0.64897
 H506 H 0.94288 0.55456 0.61279
 H507 H 0.86497 0.51808 0.53391
 C508 C 0.72629 0.44764 1.04753
 C509 C 0.72303 0.48179 1.05952
 C510 C 0.74755 0.49815 1.08279
 C511 C 0.77622 0.47822 1.09497
 C512 C 0.78042 0.44264 1.08346
 C513 C 0.75568 0.42776 1.05823
 O514 O 0.69722 0.43543 1.02930
 C515 C 0.67518 0.46248 1.02995
 C516 C 0.69004 0.49155 1.04790
 C517 C 0.67074 0.52136 1.05508
 C518 C 0.63431 0.52095 1.04406
 C519 C 0.61780 0.49098 1.02636
 C520 C 0.63880 0.46169 1.01828
 H521 H 0.74380 0.52475 1.09247
 H522 H 0.79505 0.49058 1.11361
 H523 H 0.75699 0.40035 1.04975
 H524 H 0.68285 0.54350 1.06992
 H525 H 0.61851 0.54350 1.05040
 H526 H 0.62655 0.43806 1.00575
 C527 C 0.22379 1.04554 -0.08248
 C528 C 0.21840 1.00935 -0.08738
 C529 C 0.24425 0.98855 -0.10118
 C530 C 0.27697 1.00573 -0.11017
 C531 C 0.28365 1.04327 -0.10499
 C532 C 0.25600 1.06311 -0.09090
 O533 O 0.19590 1.06071 -0.06935
 C534 C 0.17236 1.03345 -0.06570
 C535 C 0.18475 1.00135 -0.07621
 C536 C 0.16438 0.96935 -0.07416
 C537 C 0.12992 0.97060 -0.06075
 C538 C 0.11648 1.00354 -0.04997
 C539 C 0.13821 1.03537 -0.05260
 H540 H 0.23947 0.96003 -0.10481
 H541 H 0.29718 0.98929 -0.12029
 H542 H 0.25856 1.09167 -0.08705
 H543 H 0.17465 0.94434 -0.08249
 H544 H 0.11368 0.94597 -0.05898
 H545 H 0.12897 1.06093 -0.04450
 C546 C 0.27468 -0.07627 0.43850
 C547 C 0.27688 -0.09181 0.46932
 C548 C 0.24749 -0.10960 0.48304
 C549 C 0.21456 -0.11182 0.46412
 C550 C 0.21120 -0.09632 0.43176
 C551 C 0.24221 -0.07788 0.41926
 O552 O 0.30584 -0.06071 0.42994
 C553 C 0.32815 -0.06655 0.45600
 C554 C 0.31177 -0.08543 0.48082
 C555 C 0.33013 -0.09427 0.51042
 C556 C 0.36683 -0.08292 0.51471
 C557 C 0.38440 -0.06326 0.48949
 C558 C 0.36460 -0.05521 0.45962
 H559 H 0.24981 -0.12140 0.50752
 H560 H 0.19177 -0.12519 0.47537
 H561 H 0.24192 -0.06590 0.39490
 H562 H 0.31665 -0.10915 0.52962
 H563 H 0.38144 -0.08934 0.53772
 H564 H 0.37698 -0.04007 0.43994
 C565 C 0.55645 -0.24619 0.56405
 C566 C 0.57269 -0.24121 0.53422
 C567 C 0.59552 -0.26561 0.52107
 C568 C 0.60251 -0.29615 0.53971
 C569 C 0.58692 -0.30192 0.57128
 C570 C 0.56268 -0.27649 0.58290
 O571 O 0.53752 -0.21868 0.57314
 C572 C 0.54204 -0.19577 0.54851
 C573 C 0.56333 -0.20834 0.52406
 C574 C 0.57365 -0.18791 0.49712
 C575 C 0.56196 -0.15291 0.49553
 C576 C 0.54027 -0.13904 0.52061
 C577 C 0.52964 -0.16112 0.54719
 H578 H 0.60814 -0.26098 0.49755
 H579 H 0.62015 -0.31509 0.52921
 H580 H 0.55054 -0.27859 0.60685
 H581 H 0.59087 -0.19821 0.47845
 H582 H 0.57031 -0.13642 0.47499
 H583 H 0.51376 -0.15111 0.56705
 C584 C 1.01329 0.73373 0.42011
 C585 C 1.00275 0.71351 0.39216
 C586 C 1.00369 0.72700 0.36000
 C587 C 1.01684 0.76246 0.35649
 C588 C 1.02906 0.78352 0.38492
 C589 C 1.02618 0.76900 0.41721
 O590 O 1.01336 0.71521 0.44809
 C591 C 1.00294 0.68248 0.43761
 C592 C 0.99613 0.67993 0.40358
 C593 C 0.98840 0.64745 0.38700
 C594 C 0.98833 0.61635 0.40619
 C595 C 0.99577 0.61831 0.44129
 C596 C 1.00234 0.65203 0.45721
 H597 H 0.99597 0.71040 0.33830
 H598 H 1.01936 0.77270 0.33155
 H599 H 1.03543 0.78412 0.43941
 H600 H 0.98394 0.64596 0.36011
 H601 H 0.98345 0.59072 0.39362
 H602 H 1.00917 0.65438 0.48375
 C603 C -0.05414 1.22209 0.07845
 C604 C -0.04678 1.22840 0.04568
 C605 C -0.05631 1.25922 0.02934
 C606 C -0.07422 1.28470 0.04747
 C607 C -0.08138 1.27964 0.08180
 C608 C -0.07051 1.24780 0.09750
 O609 O -0.04593 1.18955 0.08817
 C610 C -0.03285 1.17520 0.06095
 C611 C -0.03226 1.19818 0.03448
 C612 C -0.02048 1.18863 0.00332
 C613 C -0.00955 1.15367 -0.00103
 C614 C -0.01146 1.12876 0.02533
 C615 C -0.02284 1.13991 0.05697
 H616 H -0.05085 1.26321 0.00329
 H617 H -0.08144 1.30885 0.03484
 H618 H -0.07645 1.24221 0.12316
 H619 H -0.02045 1.20720 -0.01714
 H620 H -0.00136 1.14554 -0.02550
 H621 H -0.02501 1.12144 0.07742
 C622 C 0.44120 0.28097 0.90841
 C623 C 0.40966 0.29882 0.90426
 C624 C 0.37686 0.28218 0.89320
 C625 C 0.37636 0.24545 0.88645
 C626 C 0.40831 0.22617 0.89074
 C627 C 0.44141 0.24432 0.90132
 O628 O 0.46871 0.30154 0.92149
 C629 C 0.45409 0.33297 0.92573
 C630 C 0.41803 0.33253 0.91546
 C631 C 0.39650 0.36147 0.91956
 C632 C 0.41257 0.39204 0.93541
 C633 C 0.44958 0.39331 0.94673
 C634 C 0.47092 0.36354 0.94121
 H635 H 0.35233 0.29680 0.89062
 H636 H 0.35101 0.23183 0.87818
 H637 H 0.46596 0.23000 0.90538
 H638 H 0.36806 0.36020 0.91168
 H639 H 0.39595 0.41463 0.93941
 H640 H 0.49898 0.36352 0.95023
 C641 C 0.55959 0.56629 0.79959
 C642 C 0.53888 0.59378 0.80928
 C643 C 0.53355 0.62372 0.78997
 C644 C 0.55008 0.62536 0.75921
 C645 C 0.57139 0.59724 0.74822
 C646 C 0.57626 0.56731 0.76898
 O647 O 0.56151 0.54055 0.82203
 C648 C 0.54157 0.55215 0.84637
 C649 C 0.52711 0.58457 0.83967
 C650 C 0.50567 0.60194 0.86167
 C651 C 0.49905 0.58539 0.89207
 C652 C 0.51389 0.55204 0.89999
 C653 C 0.53529 0.53509 0.87654
 H654 H 0.51740 0.64517 0.79836
 H655 H 0.54661 0.64885 0.74424
 H656 H 0.59214 0.54532 0.76140
 H657 H 0.49463 0.62746 0.85576
 H658 H 0.48259 0.59885 0.90954
 H659 H 0.54716 0.50979 0.88179
 C660 C 0.46469 0.02239 0.72865
 C661 C 0.50035 0.03388 0.72623
 C662 C 0.51939 0.05406 0.75115
 C663 C 0.50075 0.06332 0.77951
 C664 C 0.46367 0.05261 0.78236
 C665 C 0.44568 0.03116 0.75673
 O666 O 0.45084 0.00584 0.70112
 C667 C 0.47829 0.00709 0.68080
 C668 C 0.50918 0.02405 0.69499
 C669 C 0.54005 0.03138 0.67724
 C670 C 0.53885 0.02135 0.64334
 C671 C 0.50729 0.00401 0.62806
 C672 C 0.47683 -0.00391 0.64727
 H673 H 0.54730 0.06320 0.74847
 H674 H 0.51497 0.07947 0.79895
 H675 H 0.41719 0.02338 0.75764
 H676 H 0.56372 0.04549 0.68873
 H677 H 0.56220 0.02776 0.62876
 H678 H 0.45203 -0.01609 0.63593
 C679 C 0.06249 0.95538 0.20707
 C680 C 0.09474 0.96185 0.19191
 C681 C 0.12829 0.95786 0.20821
 C682 C 0.12864 0.94652 0.24146
 C683 C 0.09576 0.93913 0.25764
 C684 C 0.06220 0.94388 0.24007
 O685 O 0.03361 0.96001 0.18688
 C686 C 0.04797 0.96942 0.15831
 C687 C 0.08528 0.97079 0.16007
 C688 C 0.10593 0.97841 0.13269
 C689 C 0.08738 0.98463 0.10215
 C690 C 0.04888 0.98351 0.09960
 C691 C 0.02893 0.97616 0.12828
 H692 H 0.15330 0.96284 0.19563
 H693 H 0.15451 0.94249 0.25424
 H694 H 0.03667 0.93854 0.25168
 H695 H 0.13526 0.97896 0.13462
 H696 H 0.10303 0.99023 0.08046
 H697 H -0.00043 0.97455 0.12699
 C698 C 0.91996 0.40866 0.30472
 C699 C 0.88922 0.41040 0.32274
 C700 C 0.85471 0.40117 0.30919
 C701 C 0.85169 0.39050 0.27547
 C702 C 0.88287 0.38887 0.25627
 C703 C 0.91759 0.39738 0.27126
 O704 O 0.94977 0.42090 0.32170
 C705 C 0.93754 0.43059 0.35100
 C706 C 0.90071 0.42463 0.35291
 C707 C 0.88201 0.43416 0.38076
 C708 C 0.90211 0.45039 0.40785
 C709 C 0.94018 0.45701 0.40657
 C710 C 0.95807 0.44679 0.37762
 H711 H 0.83088 0.40330 0.32371
 H712 H 0.82504 0.38443 0.26388
 H713 H 0.94158 0.39734 0.25672
 H714 H 0.85293 0.42954 0.38150
 H715 H 0.88790 0.45799 0.42971
 H716 H 0.98701 0.45159 0.37569
   
