data_POSCAR
  _audit_creation_date              2014-09-24
  _audit_creation_method            'ToBaCCo'
  _symmetry_space_group_name_H-M    'P1'
  _symmetry_Int_Tables_number       1
  _symmetry_cell_setting            triclinic
  loop_
  _symmetry_equiv_pos_as_xyz
 x,y,z
_cell_length_a 24.2126
_cell_length_b 22.0354
_cell_length_c 24.0456
_cell_angle_alpha 94.842900
_cell_angle_beta 94.110000
_cell_angle_gamma 95.162300
loop_
  _atom_site_label
  _atom_site_type_symbol
  _atom_site_fract_x
  _atom_site_fract_y
  _atom_site_fract_z
N1 N 0.16589 1.28779 0.17142
 N2 N 0.12126 1.27596 0.19866
 C3 C 0.08870 1.32202 0.19490
 C4 C 0.11328 1.36427 0.16282
 C5 C 0.16262 1.34157 0.14909
 H6 H 0.04799 1.32266 0.21062
 H7 H 0.19193 1.36031 0.12172
 Cu8 Cu 0.10352 1.19755 0.22997
 Cu9 Cu 0.22119 1.22834 0.15917
 Cu10 Cu 0.18863 1.08911 0.20287
 N11 N 0.10036 1.12302 0.26802
 N12 N 0.13297 1.07986 0.25662
 C13 C 0.12127 1.03334 0.28807
 C14 C 0.07909 1.04822 0.32106
 C15 C 0.06667 1.10561 0.30713
 H16 H 0.14266 0.99228 0.28788
 H17 H 0.03613 1.13317 0.32429
 N18 N 0.25688 1.10862 0.16782
 N19 N 0.27009 1.16300 0.15116
 C20 C 0.31811 1.16231 0.12603
 C21 C 0.33566 1.10430 0.12734
 C22 C 0.29598 1.07166 0.15423
 H23 H 0.33754 1.20035 0.10659
 H24 H 0.29488 1.02388 0.16177
 H25 H 0.14820 1.17452 0.16138
 H26 H 0.18846 1.19767 0.23017
 N27 N 0.84571 0.75400 0.11655
 N28 N 0.88153 0.76031 0.16126
 C29 C 0.91958 0.71983 0.15426
 C30 C 0.90703 0.68678 0.10257
 C31 C 0.86029 0.70984 0.07987
 H32 H 0.95331 0.71444 0.18485
 H33 H 0.83824 0.69480 0.03967
 Cu34 Cu 0.87466 0.81753 0.22792
 Cu35 Cu 0.78173 0.80272 0.10842
 Cu36 Cu 0.76144 0.89405 0.22162
 N37 N 0.84686 0.85608 0.29529
 N38 N 0.79955 0.88102 0.29256
 C39 C 0.78626 0.89750 0.34457
 C40 C 0.82875 0.88519 0.38203
 C41 C 0.86665 0.85828 0.34945
 H42 H 0.74879 0.91802 0.35449
 H43 H 0.90379 0.83862 0.36407
 N44 N 0.71343 0.89155 0.15347
 N45 N 0.72143 0.85580 0.10882
 C46 C 0.68381 0.86471 0.06696
 C47 C 0.65032 0.90806 0.08669
 C48 C 0.67041 0.92418 0.14184
 H49 H 0.68156 0.84225 0.02498
 H50 H 0.65597 0.95818 0.17097
 H51 H 0.83442 0.85925 0.16379
 H52 H 0.79402 0.79623 0.19468
 N53 N 0.84518 1.29689 -0.14251
 N54 N 0.88516 1.28558 -0.17501
 C55 C 0.93094 1.32321 -0.15738
 C56 C 0.91891 1.36077 -0.11192
 C57 C 0.86396 1.34321 -0.10359
 H58 H 0.97095 1.32113 -0.17445
 H59 H 0.84104 1.35906 -0.06909
 Cu60 Cu 0.87595 1.21944 -0.23439
 Cu61 Cu 0.77561 1.24354 -0.14859
 Cu62 Cu 0.79070 1.09824 -0.21070
 N63 N 0.87497 1.14222 -0.27934
 N64 N 0.84180 1.09435 -0.26974
 C65 C 0.85090 1.04635 -0.30526
 C66 C 0.89184 1.06532 -0.33905
 C67 C 0.90622 1.12668 -0.32134
 H68 H 0.82926 1.00104 -0.30651
 H69 H 0.93721 1.15777 -0.33710
 N70 N 0.72978 1.11623 -0.16345
 N71 N 0.72328 1.17156 -0.14069
 C72 C 0.67866 1.16836 -0.11025
 C73 C 0.65595 1.10801 -0.11448
 C74 C 0.68917 1.07650 -0.14864
 H75 H 0.66475 1.20684 -0.08599
 H76 H 0.68450 1.02785 -0.16096
 H77 H 0.82559 1.17610 -0.16079
 H78 H 0.77837 1.18629 -0.22333
 N79 N 0.20323 0.70795 -0.14957
 N80 N 0.15127 0.70845 -0.16953
 C81 C 0.11836 0.67176 -0.14095
 C82 C 0.15186 0.64700 -0.10118
 C83 C 0.20536 0.67045 -0.10834
 H84 H 0.07357 0.66453 -0.14800
 H85 H 0.24290 0.66284 -0.08377
 Cu86 Cu 0.13218 0.75847 -0.23006
 Cu87 Cu 0.26372 0.76000 -0.17495
 Cu88 Cu 0.22415 0.87295 -0.25626
 N89 N 0.11998 0.80450 -0.29506
 N90 N 0.15780 0.84743 -0.30634
 C91 C 0.13917 0.87396 -0.35143
 C92 C 0.08618 0.84685 -0.36909
 C93 C 0.07537 0.80292 -0.33232
 H94 H 0.16129 0.91270 -0.36755
 H95 H 0.03729 0.77331 -0.33187
 N96 N 0.29675 0.87854 -0.21311
 N97 N 0.31288 0.83434 -0.18382
 C98 C 0.35920 0.85567 -0.15104
 C99 C 0.37219 0.91646 -0.15958
 C100 C 0.33207 0.92912 -0.19953
 H101 H 0.37705 0.83164 -0.11778
 H102 H 0.32537 0.97385 -0.21257
 H103 H 0.21041 0.82591 -0.18553
 H104 H 0.22824 0.78348 -0.25157
 C105 C 0.45939 1.07458 0.03995
 C106 C 0.49498 1.03686 0.07638
 C107 C 0.53010 1.00348 0.04787
 C108 C 0.52636 1.01087 -0.01544
 C109 C 0.50180 1.11389 0.01046
 C110 C 0.53688 1.08072 -0.01899
 C111 C 0.43006 1.02899 -0.00658
 C112 C 0.46482 0.99573 -0.03555
 H113 H 0.49474 1.03950 0.12158
 H114 H 0.55361 0.98268 -0.03924
 H115 H 0.50408 1.16338 0.01301
 H116 H 0.38530 1.02354 -0.01572
 C117 C 0.07145 0.48503 1.07077
 C118 C 0.10107 0.52292 1.02913
 C119 C 0.06627 0.55462 0.99772
 C120 C 0.00510 0.54534 1.01129
 C121 C 0.04145 0.53123 1.10575
 C122 C 0.00654 0.56287 1.07498
 C123 C 0.02549 0.44457 1.03471
 C124 C -0.00909 0.47585 1.00357
 H125 H 0.14513 0.52272 1.02457
 H126 H -0.02276 0.57019 0.98469
 H127 H 0.04870 0.53946 1.15086
 H128 H 0.02194 0.39502 1.03255
 C129 C 1.00044 -0.00188 0.44384
 C130 C 0.98814 0.04259 0.49284
 C131 C 0.96912 0.01490 0.53708
 C132 C 0.96578 -0.05552 0.52886
 C133 C 1.04231 -0.04163 0.47013
 C134 C 1.02445 -0.06960 0.51461
 C135 C 0.94595 -0.04335 0.43028
 C136 C 0.92768 -0.07224 0.47468
 H137 H 0.99190 0.09184 0.49161
 H138 H 0.95145 -0.07832 0.56532
 H139 H 1.08516 -0.04086 0.45983
 H140 H 0.92045 -0.04026 0.39220
 C141 C 0.08736 0.41269 1.14201
 C142 C 0.10848 0.44740 1.10396
 H143 H 0.04562 0.41860 1.15374
 H144 H 0.14956 0.44176 1.09045
 C145 C -0.06452 0.63708 1.07568
 C146 C -0.02283 0.61210 1.10195
 H147 H -0.07977 0.62019 1.03338
 H148 H -0.00994 0.62755 1.14526
 C149 C -0.03962 0.39945 0.92606
 C150 C -0.05235 0.44452 0.96224
 H151 H 0.00338 0.38962 0.92468
 H152 H -0.09404 0.45874 0.96131
 C153 C 0.13604 0.60720 0.94247
 C154 C 0.08310 0.59299 0.95295
 H155 H 0.16968 0.59123 0.96752
 H156 H 0.05015 0.61106 0.92849
 C157 C 1.05734 0.01300 0.36154
 C158 C 1.01899 0.03170 0.39504
 H159 H 1.07393 -0.03038 0.36656
 H160 H 1.00039 0.07364 0.38839
 C161 C 1.04885 -0.13611 0.58914
 C162 C 1.06422 -0.09559 0.55325
 H163 H 1.00616 -0.15627 0.58644
 H164 H 1.10771 -0.07947 0.55236
 C165 C 0.82711 -0.10867 0.44006
 C166 C 0.87017 -0.10042 0.47922
 H167 H 0.78599 -0.11091 0.45539
 H168 H 0.85924 -0.10411 0.52182
 C169 C 0.91250 0.02915 0.61805
 C170 C 0.95086 0.05126 0.58557
 H171 H 0.89486 -0.01794 0.61012
 H172 H 0.96688 0.09901 0.59172
 C173 C 0.38233 1.07799 0.10138
 C174 C 0.41852 1.10875 0.07180
 H175 H 0.38539 1.02960 0.10461
 H176 H 0.41559 1.15672 0.06665
 C177 C 0.60890 1.07993 -0.08699
 C178 C 0.58151 1.11071 -0.04912
 H179 H 0.59758 1.03178 -0.09852
 H180 H 0.59207 1.15944 -0.03950
 C181 C 0.40572 0.96318 -0.12101
 C182 C 0.44413 0.94995 -0.08225
 H183 H 0.39492 1.00986 -0.12144
 H184 H 0.45845 0.90476 -0.08301
 C185 C 0.60588 0.93430 0.05398
 C186 C 0.57195 0.97118 0.07851
 H187 H 0.60183 0.92291 0.00921
 H188 H 0.57529 0.97926 0.12372
   
