data_POSCAR
  _audit_creation_date              2014-09-24
  _audit_creation_method            'ToBaCCo'
  _symmetry_space_group_name_H-M    'P1'
  _symmetry_Int_Tables_number       1
  _symmetry_cell_setting            triclinic
  loop_
  _symmetry_equiv_pos_as_xyz
 x,y,z
_cell_length_a 38.1031
_cell_length_b 35.3084
_cell_length_c 34.6353
_cell_angle_alpha 88.820300
_cell_angle_beta 91.808400
_cell_angle_gamma 91.766700
loop_
  _atom_site_label
  _atom_site_type_symbol
  _atom_site_fract_x
  _atom_site_fract_y
  _atom_site_fract_z
N1 N 0.18929 0.19274 0.16187
 N2 N -0.17574 0.81995 0.17654
 N3 N -0.18688 0.15282 -0.15759
 N4 N 0.21860 0.79440 -0.21448
 N5 N 0.20750 1.19538 0.84045
 N6 N 0.80504 0.84494 0.81634
 N7 N 0.18033 0.79664 1.20142
 N8 N 0.82168 1.15916 1.15523
 N9 N 0.53744 1.05424 0.99778
 N10 N 0.56296 1.08041 0.99796
 N11 N 0.46914 1.02446 0.95721
 N12 N 0.44461 1.02754 0.92970
 N13 N 0.46444 1.04882 0.98455
 N14 N 0.43677 1.06942 0.97619
 N15 N 0.54240 1.02915 0.97121
 N16 N 0.57161 1.03724 0.95291
 C17 C 0.58416 1.06927 0.96994
 C18 C 0.42474 1.05583 0.94178
 N19 N 0.46937 0.91535 0.97910
 N20 N 0.44080 0.89430 0.97116
 N21 N 0.54526 0.94798 0.96765
 N22 N 0.57489 0.94667 0.94906
 N23 N 0.54289 0.92004 0.99307
 N24 N 0.57104 0.89918 0.99283
 N25 N 0.47211 0.94371 0.95412
 N26 N 0.44545 0.94300 0.92900
 Mn27 Mn 0.50738 0.98633 0.96214
 C28 C 0.42647 0.91181 0.93951
 C29 C 0.59073 0.91609 0.96515
 N30 N 0.45429 1.04313 1.06682
 N31 N 0.42586 1.06359 1.06729
 N32 N 0.52568 1.02048 1.10533
 N33 N 0.55271 1.02273 1.13016
 N34 N 0.52761 1.04822 1.07951
 N35 N 0.55609 1.06960 1.08576
 N36 N 0.45226 1.01498 1.09211
 N37 N 0.42230 1.01528 1.11014
 Mn38 Mn 0.49582 1.04907 1.03226
 C39 C 0.40613 1.04582 1.09449
 C40 C 0.57119 1.05377 1.11771
 N41 N 0.53298 0.91476 1.07469
 N42 N 0.56211 0.89601 1.08112
 N43 N 0.45548 0.93380 1.08926
 N44 N 0.42523 0.92716 1.10613
 N45 N 0.45930 0.90990 1.06125
 N46 N 0.43158 0.88669 1.05801
 N47 N 0.52862 0.93882 1.10244
 N48 N 0.55429 0.93654 1.12883
 Mn49 Mn 0.50110 0.91447 1.02705
 Mn50 Mn 0.49048 0.97702 1.09782
 Cl51 Cl 0.49868 0.98171 1.02981
 C52 C 0.57487 0.90958 1.11521
 C53 C 0.41070 0.89758 1.08641
 N54 N 0.00429 0.45536 0.04653
 N55 N 0.00625 0.42763 0.07266
 N56 N 0.03605 0.53512 0.03021
 N57 N 0.05717 0.56404 0.03981
 N58 N 0.00754 0.53492 0.05054
 N59 N 0.00824 0.56383 0.07411
 N60 N 0.03154 0.45554 0.02429
 N61 N 0.05249 0.42770 0.03419
 C62 C 0.03624 0.41032 0.06416
 C63 C 0.03950 0.58156 0.06736
 N64 N 0.02878 0.54516 -0.08274
 N65 N 0.03965 0.57500 -0.10329
 N66 N 0.04381 0.46201 -0.05724
 N67 N 0.06533 0.43369 -0.06051
 N68 N 0.02434 0.46612 -0.08893
 N69 N 0.03231 0.44108 -0.11473
 N70 N 0.04825 0.54148 -0.05100
 N71 N 0.07240 0.56889 -0.04870
 Mn72 Mn 0.04030 0.49841 -0.01338
 C73 C 0.06677 0.58958 -0.08141
 C74 C 0.05773 0.42087 -0.09653
 N75 N -0.06687 0.53756 0.03451
 N76 N -0.07469 0.56384 0.05917
 N77 N -0.09053 0.46073 -0.00137
 N78 N -0.11380 0.43226 -0.00291
 N79 N -0.07007 0.45771 0.02970
 N80 N -0.07835 0.42672 0.04974
 N81 N -0.08729 0.53967 0.00336
 N82 N -0.10995 0.56685 0.00614
 Mn83 Mn -0.03138 0.49640 0.04079
 C84 C -0.10160 0.58182 0.04094
 C85 C -0.10575 0.41127 0.02912
 N86 N -0.05029 0.46884 -0.10469
 N87 N -0.05078 0.43945 -0.12781
 N88 N -0.07455 0.54670 -0.07791
 N89 N -0.09268 0.57778 -0.08308
 N90 N -0.04608 0.54866 -0.09837
 N91 N -0.04389 0.58127 -0.11764
 N92 N -0.07779 0.46714 -0.08270
 N93 N -0.09738 0.43656 -0.08985
 Mn94 Mn -0.01081 0.50733 -0.09423
 Mn95 Mn -0.08291 0.50354 -0.03985
 Cl96 Cl -0.02116 0.50141 -0.02665
 C97 C -0.08053 0.41983 -0.11834
 C98 C -0.07334 0.59898 -0.10811
 N99 N 1.05004 0.09077 0.54721
 N100 N 1.05336 0.10795 0.58058
 N101 N 1.07054 0.07421 0.46358
 N102 N 1.08783 0.07923 0.43133
 N103 N 1.04634 0.09971 0.46593
 N104 N 1.04622 0.12233 0.43510
 N105 N 1.07376 0.06479 0.54471
 N106 N 1.09429 0.06411 0.57627
 C107 C 1.08127 0.09150 0.59814
 C108 C 1.07263 0.10961 0.41413
 N109 N 1.04221 -0.03290 0.45276
 N110 N 1.04597 -0.05408 0.42225
 N111 N 1.07068 -0.01687 0.53610
 N112 N 1.09190 -0.02460 0.56601
 N113 N 1.04502 -0.04252 0.53350
 N114 N 1.04771 -0.06789 0.56175
 N115 N 1.06745 -0.00677 0.45512
 N116 N 1.08869 -0.00908 0.42594
 Mn117 Mn 1.07113 0.02886 0.49998
 C118 C 1.07492 -0.03866 0.40564
 C119 C 1.07715 -0.05659 0.58160
 N120 N 0.97094 0.10032 0.46839
 N121 N 0.96737 0.12512 0.43957
 N122 N 0.94981 0.06496 0.54756
 N123 N 0.93098 0.06525 0.57890
 N124 N 0.97515 0.09095 0.54928
 N125 N 0.97454 0.10934 0.58200
 N126 N 0.94582 0.07410 0.46661
 N127 N 0.92478 0.08000 0.43628
 Mn128 Mn 1.01071 0.09590 0.50766
 C129 C 0.93833 0.11211 0.41992
 C130 C 0.94673 0.09319 0.60007
 N131 N 0.96981 -0.04281 0.53487
 N132 N 0.96498 -0.07073 0.56021
 N133 N 0.94293 -0.00628 0.45822
 N134 N 0.91982 -0.00668 0.42906
 N135 N 0.96611 -0.03260 0.45440
 N136 N 0.95896 -0.05218 0.42288
 N137 N 0.94704 -0.01622 0.53935
 N138 N 0.92633 -0.02514 0.56826
 Mn139 Mn 1.00582 -0.03812 0.49370
 Mn140 Mn 0.94598 0.02914 0.50306
 Cl141 Cl 1.00842 0.02891 0.50109
 C142 C 0.93793 -0.05923 0.58098
 C143 C 0.93006 -0.03551 0.40737
 C144 C 1.14591 0.17427 0.21172
 C145 C 1.13811 0.16298 0.24972
 C146 C 1.16577 0.15617 0.27693
 C147 C 1.20062 0.16247 0.26624
 C148 C 1.20809 0.17530 0.22895
 C149 C 1.18097 0.18088 0.20101
 C150 C 1.15819 0.14345 0.31447
 C151 C 1.12327 0.13892 0.32569
 C152 C 1.09556 0.14762 0.29911
 C153 C 1.10314 0.15882 0.26107
 C154 C 1.06075 0.14514 0.31116
 C155 C 1.05344 0.13385 0.34906
 C156 C 1.08071 0.12376 0.37507
 C157 C 1.11558 0.12621 0.36325
 H158 H 1.12473 0.17806 0.19052
 H159 H 1.22213 0.15789 0.28686
 H160 H 1.23526 0.18073 0.22182
 H161 H 1.17946 0.13756 0.33506
 H162 H 1.08187 0.16480 0.24050
 H163 H 1.03920 0.15202 0.29134
 H164 H 1.02636 0.13198 0.35777
 H165 H 1.13667 0.11880 0.38350
 C166 C 0.83966 -0.12988 0.22360
 C167 C 0.85561 -0.11860 0.25882
 C168 C 0.86898 -0.14630 0.28501
 C169 C 0.86477 -0.18476 0.27642
 C170 C 0.84859 -0.19571 0.24160
 C171 C 0.83677 -0.16845 0.21444
 C172 C 0.88676 -0.13516 0.31913
 C173 C 0.89084 -0.09670 0.32785
 C174 C 0.87617 -0.06901 0.30253
 C175 C 0.85896 -0.08011 0.26798
 C176 C 0.87901 -0.03067 0.31228
 C177 C 0.89627 -0.01991 0.34669
 C178 C 0.91181 -0.04712 0.37129
 C179 C 0.90916 -0.08548 0.36168
 H180 H 0.83056 -0.10877 0.20276
 H181 H 0.87445 -0.20636 0.29636
 H182 H 0.84611 -0.22559 0.23527
 H183 H 0.89752 -0.15643 0.33883
 H184 H 0.84830 -0.05884 0.24823
 H185 H 0.86773 -0.00907 0.29343
 H186 H 0.89803 0.00978 0.35382
 H187 H 0.92067 -0.10659 0.38098
 C188 C 0.85995 0.14130 0.79629
 C189 C 0.87056 0.12959 0.76012
 C190 C 0.84553 0.11336 0.73382
 C191 C 0.81020 0.11009 0.74375
 C192 C 0.79964 0.12328 0.77915
 C193 C 0.82434 0.13890 0.80586
 C194 C 0.85607 0.10136 0.69775
 C195 C 0.89106 0.10684 0.68698
 C196 C 0.91585 0.12422 0.71281
 C197 C 0.90562 0.13473 0.74952
 C198 C 0.95036 0.13144 0.70119
 C199 C 0.96015 0.12181 0.66424
 C200 C 0.93596 0.10372 0.63878
 C201 C 0.90149 0.09601 0.65042
 H202 H 0.87922 0.15302 0.81678
 H203 H 0.79061 0.09805 0.72383
 H204 H 0.77202 0.12152 0.78563
 H205 H 0.83692 0.08860 0.67774
 H206 H 0.92471 0.14776 0.76942
 H207 H 0.96963 0.14501 0.72046
 H208 H 0.98679 0.12823 0.65568
 H209 H 0.88259 0.08249 0.63066
 C210 C 1.17173 -0.17107 0.75006
 C211 C 1.16048 -0.14679 0.72000
 C212 C 1.18540 -0.12855 0.69599
 C213 C 1.22125 -0.13513 0.70255
 C214 C 1.23218 -0.16021 0.73202
 C215 C 1.20753 -0.17866 0.75586
 C216 C 1.17398 -0.10477 0.66538
 C217 C 1.13792 -0.10012 0.65778
 C218 C 1.11312 -0.11882 0.68174
 C219 C 1.12458 -0.14139 0.71306
 C220 C 1.07714 -0.11556 0.67335
 C221 C 1.06573 -0.09487 0.64090
 C222 C 1.09001 -0.07619 0.61692
 C223 C 1.12611 -0.07818 0.62588
 H224 H 1.15252 -0.18462 0.76865
 H225 H 1.24076 -0.12150 0.68441
 H226 H 1.25988 -0.16568 0.73588
 H227 H 1.19306 -0.09081 0.64688
 H228 H 1.10549 -0.15570 0.73132
 H229 H 1.05784 -0.12977 0.69135
 H230 H 1.03778 -0.09349 0.63447
 H231 H 1.14490 -0.06411 0.60712
 C232 C 0.23054 1.14185 1.14953
 C233 C 0.26249 1.12978 1.13576
 C234 C 0.28511 1.15596 1.11655
 C235 C 0.27545 1.19381 1.11178
 C236 C 0.24399 1.20578 1.12648
 C237 C 0.22127 1.17998 1.14549
 C238 C 0.31725 1.14405 1.10309
 C239 C 0.32751 1.10655 1.10953
 C240 C 0.30504 1.08053 1.12918
 C241 C 0.27250 1.09217 1.14167
 C242 C 0.31578 1.04341 1.13662
 C243 C 0.34867 1.03226 1.12524
 C244 C 0.37114 1.05779 1.10560
 C245 C 0.36023 1.09482 1.09738
 H246 H 0.21306 1.12182 1.16408
 H247 H 0.29251 1.21431 1.09733
 H248 H 0.23751 1.23535 1.12344
 H249 H 0.33456 1.16413 1.08832
 H250 H 0.25529 1.07217 1.15669
 H251 H 0.29893 1.02313 1.15168
 H252 H 0.35650 1.00353 1.13169
 H253 H 0.37754 1.11475 1.08245
 C254 C 0.25871 0.83769 0.82224
 C255 C 0.28913 0.84434 0.84524
 C256 C 0.31158 0.81415 0.85484
 C257 C 0.30308 0.77778 0.84120
 C258 C 0.27276 0.77145 0.81818
 C259 C 0.25040 0.80131 0.80841
 C260 C 0.34222 0.82091 0.87758
 C261 C 0.35097 0.85760 0.89028
 C262 C 0.32836 0.88769 0.88060
 C263 C 0.29748 0.88079 0.85852
 C264 C 0.33735 0.92449 0.89245
 C265 C 0.36899 0.93170 0.91258
 C266 C 0.39188 0.90229 0.92178
 C267 C 0.38246 0.86504 0.91151
 H268 H 0.24126 0.86069 0.81529
 H269 H 0.31993 0.75429 0.84821
 H270 H 0.26669 0.74320 0.80781
 H271 H 0.35952 0.79780 0.88479
 H272 H 0.28029 0.90394 0.85109
 H273 H 0.32030 0.94783 0.88544
 H274 H 0.37575 0.96043 0.92098
 H275 H 0.40029 0.84236 0.91842
 C276 C 0.76435 0.84486 1.18154
 C277 C 0.73274 0.85703 1.16411
 C278 C 0.72911 0.85913 1.12336
 C279 C 0.75762 0.85067 1.10082
 C280 C 0.78914 0.83925 1.11839
 C281 C 0.79263 0.83526 1.15883
 C282 C 0.69701 0.86938 1.10579
 C283 C 0.66867 0.87833 1.12846
 C284 C 0.67275 0.87782 1.16921
 C285 C 0.70462 0.86676 1.18678
 C286 C 0.64482 0.88841 1.19171
 C287 C 0.61308 0.89919 1.17403
 C288 C 0.60846 0.89855 1.13371
 C289 C 0.63633 0.88806 1.11102
 H290 H 0.76663 0.84195 1.21271
 H291 H 0.75548 0.85263 1.06957
 H292 H 0.81074 0.83282 1.10028
 H293 H 0.69409 0.87036 1.07452
 H294 H 0.70752 0.86573 1.21804
 H295 H 0.64756 0.88851 1.22294
 H296 H 0.59189 0.90741 1.19191
 H297 H 0.63305 0.88822 1.07981
 C298 C 0.75861 1.15150 0.87987
 C299 C 0.73078 1.13137 0.89728
 C300 C 0.72928 1.09132 0.89641
 C301 C 0.75656 1.07207 0.87999
 C302 C 0.78461 1.09230 0.86363
 C303 C 0.78558 1.13216 0.86258
 C304 C 0.70034 1.07119 0.91144
 C305 C 0.67314 1.09057 0.92795
 C306 C 0.67553 1.13048 0.93073
 C307 C 0.70418 1.15067 0.91505
 C308 C 0.64892 1.14956 0.94868
 C309 C 0.61970 1.12941 0.96271
 C310 C 0.61633 1.09004 0.95827
 C311 C 0.64333 1.07069 0.94130
 H312 H 0.75895 1.18220 0.87903
 H313 H 0.75607 1.04138 0.87951
 H314 H 0.80534 1.07682 0.85099
 H315 H 0.69880 1.04052 0.90993
 H316 H 0.70561 1.18135 0.91635
 H317 H 0.65050 1.18008 0.95145
 H318 H 0.59915 1.14475 0.97587
 H319 H 0.64106 1.04018 0.93837
 C320 C 0.14837 0.24645 0.15755
 C321 C 0.12756 0.27162 0.13563
 C322 C 0.12667 0.26988 0.09486
 C323 C 0.14491 0.24164 0.07686
 C324 C 0.16437 0.21575 0.09896
 C325 C 0.16698 0.21821 0.13949
 C326 C 0.10778 0.29652 0.07273
 C327 C 0.08890 0.32422 0.09089
 C328 C 0.08799 0.32451 0.13169
 C329 C 0.10776 0.29858 0.15381
 C330 C 0.06763 0.35111 0.14964
 C331 C 0.04927 0.37795 0.12744
 C332 C 0.05171 0.37914 0.08710
 C333 C 0.07122 0.35195 0.06892
 H334 H 0.15035 0.24913 0.18865
 H335 H 0.14411 0.23954 0.04567
 H336 H 0.17785 0.19397 0.08426
 H337 H 0.10788 0.29578 0.04144
 H338 H 0.10780 0.29943 0.18510
 H339 H 0.06629 0.35148 0.18083
 H340 H 0.03437 0.39880 0.14188
 H341 H 0.07281 0.35260 0.03770
 C342 C -0.16076 0.21758 -0.16763
 C343 C -0.14586 0.25141 -0.15309
 C344 C -0.14380 0.25681 -0.11275
 C345 C -0.15502 0.22756 -0.08765
 C346 C -0.16835 0.19331 -0.10235
 C347 C -0.17196 0.18804 -0.14246
 C348 C -0.13050 0.29129 -0.09816
 C349 C -0.11810 0.31994 -0.12336
 C350 C -0.11832 0.31377 -0.16358
 C351 C -0.13279 0.27979 -0.17826
 C352 C -0.10412 0.34182 -0.18840
 C353 C -0.09050 0.37598 -0.17356
 C354 C -0.09184 0.38289 -0.13395
 C355 C -0.10546 0.35472 -0.10894
 H356 H -0.16360 0.21424 -0.19860
 H357 H -0.15316 0.23103 -0.05663
 H358 H -0.17608 0.17090 -0.08228
 H359 H -0.12964 0.29576 -0.06724
 H360 H -0.13367 0.27533 -0.20917
 H361 H -0.10371 0.33741 -0.21924
 H362 H -0.08002 0.39751 -0.19313
 H363 H -0.10601 0.35987 -0.07820
 C364 C 0.18865 0.75308 -0.16666
 C365 C 0.16515 0.72314 -0.15760
 C366 C 0.14869 0.70180 -0.18758
 C367 C 0.15657 0.71044 -0.22611
 C368 C 0.18017 0.74022 -0.23484
 C369 C 0.19611 0.76201 -0.20527
 C370 C 0.12469 0.67223 -0.17854
 C371 C 0.11740 0.66336 -0.13988
 C372 C 0.13435 0.68444 -0.10995
 C373 C 0.15782 0.71438 -0.11902
 C374 C 0.12795 0.67488 -0.07132
 C375 C 0.10552 0.64426 -0.06231
 C376 C 0.08849 0.62322 -0.09173
 C377 C 0.09404 0.63323 -0.13053
 H378 H 0.20065 0.77001 -0.14377
 H379 H 0.14437 0.69430 -0.24946
 H380 H 0.18579 0.74665 -0.26476
 H381 H 0.11197 0.65594 -0.20152
 H382 H 0.17063 0.73061 -0.09604
 H383 H 0.14075 0.69067 -0.04806
 H384 H 0.10148 0.63694 -0.03221
 H385 H 0.08125 0.61675 -0.15330
 C386 C -0.17524 0.76124 0.13869
 C387 C -0.15701 0.73191 0.12245
 C388 C -0.11992 0.73176 0.12590
 C389 C -0.10165 0.76184 0.14405
 C390 C -0.11998 0.79139 0.15932
 C391 C -0.15692 0.79107 0.15745
 C392 C -0.10173 0.70151 0.11134
 C393 C -0.12011 0.67193 0.09242
 C394 C -0.15710 0.67298 0.08746
 C395 C -0.17534 0.70265 0.10300
 C396 C -0.17523 0.64437 0.06684
 C397 C -0.15692 0.61494 0.05133
 C398 C -0.12043 0.61307 0.05723
 C399 C -0.10209 0.64147 0.07796
 H400 H -0.20371 0.76057 0.13740
 H401 H -0.07322 0.76243 0.14660
 H402 H -0.10534 0.81430 0.17334
 H403 H -0.07332 0.70108 0.11456
 H404 H -0.20374 0.70309 0.09978
 H405 H -0.20350 0.64491 0.06246
 H406 H -0.17135 0.59321 0.03524
 H407 H -0.07379 0.64031 0.08192
 C408 C 1.16399 0.16701 0.79421
 C409 C 1.15506 0.15228 0.75774
 C410 C 1.18077 0.15135 0.72920
 C411 C 1.21488 0.16552 0.73759
 C412 C 1.22345 0.18040 0.77387
 C413 C 1.19821 0.18103 0.80256
 C414 C 1.17190 0.13664 0.69268
 C415 C 1.13743 0.12358 0.68406
 C416 C 1.11169 0.12486 0.71260
 C417 C 1.12077 0.13875 0.74932
 C418 C 1.07701 0.11302 0.70366
 C419 C 1.06763 0.10115 0.66650
 C420 C 1.09284 0.10002 0.63796
 C421 C 1.12792 0.11043 0.64698
 H422 H 1.14448 0.16735 0.81630
 H423 H 1.23489 0.16524 0.71606
 H424 H 1.24988 0.19140 0.77970
 H425 H 1.19161 0.13599 0.67081
 H426 H 1.10100 0.13967 0.77112
 H427 H 1.05696 0.11382 0.72511
 H428 H 1.04052 0.09300 0.65984
 H429 H 1.14727 0.11005 0.62471
 C430 C 0.84123 -0.15185 0.75945
 C431 C 0.85923 -0.13019 0.73147
 C432 C 0.86139 -0.09029 0.73411
 C433 C 0.84710 -0.07287 0.76568
 C434 C 0.82974 -0.09456 0.79372
 C435 C 0.82554 -0.13434 0.79067
 C436 C 0.87738 -0.06839 0.70491
 C437 C 0.89179 -0.08595 0.67336
 C438 C 0.89109 -0.12598 0.67164
 C439 C 0.87453 -0.14781 0.70048
 C440 C 0.90683 -0.14351 0.64093
 C441 C 0.92268 -0.12162 0.61190
 C442 C 0.92229 -0.08191 0.61258
 C443 C 0.90687 -0.06416 0.64344
 H444 H 0.83802 -0.18218 0.75584
 H445 H 0.84903 -0.04236 0.76852
 H446 H 0.81911 -0.08009 0.81781
 H447 H 0.87839 -0.03773 0.70661
 H448 H 0.87338 -0.17847 0.69869
 H449 H 0.90683 -0.17413 0.63931
 H450 H 0.93455 -0.13577 0.58835
 H451 H 0.90701 -0.03347 0.64435
 C452 C 1.15768 -0.14901 0.23641
 C453 C 1.13919 -0.13446 0.26697
 C454 C 1.12010 -0.15946 0.29150
 C455 C 1.12029 -0.19858 0.28537
 C456 C 1.13983 -0.21290 0.25578
 C457 C 1.15877 -0.18836 0.23098
 C458 C 1.10186 -0.14506 0.32231
 C459 C 1.10359 -0.10611 0.32981
 C460 C 1.12331 -0.08121 0.30573
 C461 C 1.14039 -0.09544 0.27402
 C462 C 1.12631 -0.04258 0.31431
 C463 C 1.11047 -0.02882 0.34683
 C464 C 1.09057 -0.05322 0.37068
 C465 C 1.08675 -0.09178 0.36169
 H466 H 1.17202 -0.12980 0.21738
 H467 H 1.10604 -0.21819 0.30406
 H468 H 1.14062 -0.24330 0.25263
 H469 H 1.08714 -0.16425 0.34105
 H470 H 1.15543 -0.07630 0.25552
 H471 H 1.14144 -0.02313 0.29628
 H472 H 1.11364 0.00101 0.35327
 H473 H 1.07176 -0.11082 0.38031
 C474 C 0.85367 0.16706 0.21663
 C475 C 0.86734 0.15174 0.25137
 C476 C 0.86230 0.11267 0.25979
 C477 C 0.84480 0.08936 0.23272
 C478 C 0.83201 0.10462 0.19774
 C479 C 0.83569 0.14383 0.18920
 C480 C 0.87480 0.09753 0.29514
 C481 C 0.89300 0.12086 0.32178
 C482 C 0.89924 0.15967 0.31278
 C483 C 0.88595 0.17499 0.27783
 C484 C 0.91876 0.18246 0.33889
 C485 C 0.93187 0.16693 0.37369
 C486 C 0.92488 0.12870 0.38325
 C487 C 0.90535 0.10585 0.35722
 H488 H 0.85629 0.19736 0.21133
 H489 H 0.84114 0.05924 0.23851
 H490 H 0.81930 0.08564 0.17710
 H491 H 0.87051 0.06763 0.30184
 H492 H 0.89027 0.20488 0.27112
 H493 H 0.92404 0.21219 0.33232
 H494 H 0.94703 0.18491 0.39340
 H495 H 0.90026 0.07622 0.36430
 C496 C 0.16838 0.25010 -0.16382
 C497 C 0.14815 0.27703 -0.14622
 C498 C 0.14448 0.27573 -0.10570
 C499 C 0.15984 0.24648 -0.08374
 C500 C 0.17946 0.21941 -0.10159
 C501 C 0.18473 0.22151 -0.14161
 C502 C 0.12582 0.30385 -0.08781
 C503 C 0.11032 0.33291 -0.11004
 C504 C 0.11281 0.33322 -0.15073
 C505 C 0.13193 0.30550 -0.16851
 C506 C 0.09627 0.36143 -0.17303
 C507 C 0.07781 0.38942 -0.15523
 C508 C 0.07617 0.39016 -0.11482
 C509 C 0.09240 0.36175 -0.09229
 H510 H 0.17214 0.25187 -0.19470
 H511 H 0.15691 0.24469 -0.05273
 H512 H 0.19113 0.19711 -0.08404
 H513 H 0.12351 0.30321 -0.05666
 H514 H 0.13433 0.30620 -0.19964
 H515 H 0.09769 0.36193 -0.20424
 H516 H 0.06543 0.41106 -0.17309
 H517 H 0.09082 0.36193 -0.06109
 C518 C -0.17880 0.21841 0.11769
 C519 C -0.16064 0.24947 0.10097
 C520 C -0.12359 0.25184 0.10401
 C521 C -0.10523 0.22212 0.12167
 C522 C -0.12338 0.19080 0.13728
 C523 C -0.16052 0.18872 0.13665
 C524 C -0.10547 0.28409 0.08981
 C525 C -0.12394 0.31370 0.07188
 C526 C -0.16088 0.31040 0.06679
 C527 C -0.17905 0.27849 0.08177
 C528 C -0.17903 0.33934 0.04718
 C529 C -0.16085 0.37170 0.03367
 C530 C -0.12447 0.37596 0.04047
 C531 C -0.10607 0.34675 0.05924
 H532 H -0.20725 0.21819 0.11724
 H533 H -0.07677 0.22315 0.12359
 H534 H -0.10824 0.16813 0.15024
 H535 H -0.07707 0.28630 0.09303
 H536 H -0.20746 0.27639 0.07874
 H537 H -0.20727 0.33710 0.04261
 H538 H -0.17536 0.39399 0.01908
 H539 H -0.07785 0.34977 0.06393
 C540 C -0.15091 0.79745 -0.16889
 C541 C -0.14233 0.76025 -0.15780
 C542 C -0.16932 0.73351 -0.14875
 C543 C -0.20440 0.74396 -0.15223
 C544 C -0.21282 0.78057 -0.16438
 C545 C -0.18635 0.80837 -0.17243
 C546 C -0.16089 0.69665 -0.13661
 C547 C -0.12578 0.68580 -0.13437
 C548 C -0.09878 0.71211 -0.14472
 C549 C -0.10717 0.74932 -0.15583
 C550 C -0.06383 0.70066 -0.14391
 C551 C -0.05568 0.66359 -0.13276
 C552 C -0.08222 0.63761 -0.12140
 C553 C -0.11726 0.64893 -0.12221
 H554 H -0.12988 0.81807 -0.17419
 H555 H -0.22545 0.72362 -0.14601
 H556 H -0.24035 0.78692 -0.16809
 H557 H -0.18166 0.67633 -0.12922
 H558 H -0.08640 0.76961 -0.16329
 H559 H -0.04281 0.72033 -0.15198
 H560 H -0.02849 0.65543 -0.13224
 H561 H -0.13790 0.62887 -0.11384
 C562 C 0.13297 0.75710 0.16996
 C563 C 0.12154 0.72416 0.15059
 C564 C 0.14629 0.69741 0.14025
 C565 C 0.18185 0.70352 0.15047
 C566 C 0.19283 0.73571 0.17087
 C567 C 0.16867 0.76309 0.18053
 C568 C 0.13506 0.66477 0.12035
 C569 C 0.09922 0.65782 0.11182
 C570 C 0.07434 0.68397 0.12331
 C571 C 0.08570 0.71728 0.14198
 C572 C 0.03842 0.67610 0.11640
 C573 C 0.02722 0.64254 0.09854
 C574 C 0.05173 0.61680 0.08631
 C575 C 0.08776 0.62475 0.09267
 H576 H 0.11409 0.77798 0.17711
 H577 H 0.20114 0.68313 0.14318
 H578 H 0.22033 0.73918 0.17926
 H579 H 0.15413 0.64447 0.11211
 H580 H 0.06662 0.73748 0.15042
 H581 H 0.01897 0.69568 0.12520
 H582 H -0.00068 0.63692 0.09378
 H583 H 0.10675 0.60473 0.08365
 C584 C 0.25276 1.14769 0.85467
 C585 C 0.28437 1.13680 0.87280
 C586 C 0.30285 1.16203 0.89788
 C587 C 0.29010 1.19831 0.90309
 C588 C 0.25929 1.20945 0.88374
 C589 C 0.23992 1.18412 0.85983
 C590 C 0.33389 1.15071 0.91703
 C591 C 0.34732 1.11497 0.91032
 C592 C 0.32962 1.09044 0.88387
 C593 C 0.29794 1.10121 0.86583
 C594 C 0.34407 1.05561 0.87565
 C595 C 0.37560 1.04499 0.89371
 C596 C 0.39259 1.06840 0.92123
 C597 C 0.37838 1.10347 0.92936
 H598 H 0.23816 1.12782 0.83640
 H599 H 0.30418 1.21823 0.92176
 H600 H 0.25055 1.23798 0.88751
 H601 H 0.34777 1.16984 0.93676
 H602 H 0.28411 1.08213 0.84602
 H603 H 0.33110 1.03668 0.85509
 H604 H 0.38644 1.01815 0.88655
 H605 H 0.39168 1.12193 0.95014
 C606 C 0.22722 0.81709 1.15661
 C607 C 0.26073 0.83307 1.14986
 C608 C 0.28141 0.84773 1.18106
 C609 C 0.26867 0.84508 1.21855
 C610 C 0.23584 0.82796 1.22518
 C611 C 0.21455 0.81411 1.19433
 C612 C 0.31463 0.86438 1.17437
 C613 C 0.32798 0.86544 1.13707
 C614 C 0.30781 0.84960 1.10607
 C615 C 0.27409 0.83411 1.11254
 C616 C 0.32189 0.84919 1.06916
 C617 C 0.35564 0.86427 1.06299
 C618 C 0.37549 0.88085 1.09338
 C619 C 0.36144 0.88159 1.13034
 H620 H 0.21104 0.80662 1.13259
 H621 H 0.28432 0.85578 1.24286
 H622 H 0.22703 0.82542 1.25455
 H623 H 0.33029 0.87599 1.19826
 H624 H 0.25849 0.82235 1.08868
 H625 H 0.30691 0.83698 1.04512
 H626 H 0.36600 0.86359 1.03425
 H627 H 0.37683 0.89404 1.15397
 C628 C 0.76291 1.13268 1.16604
 C629 C 0.73025 1.11900 1.15167
 C630 C 0.72295 1.11962 1.11145
 C631 C 0.74894 1.13246 1.08622
 C632 C 0.78186 1.14485 1.10065
 C633 C 0.78941 1.14580 1.14086
 C634 C 0.68981 1.10734 1.09709
 C635 C 0.66425 1.09343 1.12245
 C636 C 0.67206 1.09123 1.16260
 C637 C 0.70484 1.10459 1.17702
 C638 C 0.64693 1.07558 1.18760
 C639 C 0.61421 1.06258 1.17298
 C640 C 0.60590 1.06605 1.13338
 C641 C 0.63102 1.08143 1.10823
 H642 H 0.76742 1.13377 1.19705
 H643 H 0.74395 1.13257 1.05524
 H644 H 0.80164 1.15341 1.08020
 H645 H 0.68399 1.10839 1.06622
 H646 H 0.71067 1.10350 1.20788
 H647 H 0.65261 1.07333 1.21840
 H648 H 0.59511 1.05060 1.19265
 H649 H 0.62487 1.08350 1.07748
 C650 C 0.76397 0.85402 0.86777
 C651 C 0.73278 0.86908 0.88055
 C652 C 0.71246 0.89215 0.85525
 C653 C 0.72331 0.89931 0.81753
 C654 C 0.75380 0.88348 0.80469
 C655 C 0.77485 0.86061 0.82947
 C656 C 0.68131 0.90726 0.86778
 C657 C 0.66959 0.89872 0.90499
 C658 C 0.68954 0.87515 0.93022
 C659 C 0.72129 0.86095 0.91804
 C660 C 0.67703 0.86569 0.96696
 C661 C 0.64480 0.87896 0.97832
 C662 C 0.62500 0.90258 0.95350
 C663 C 0.63777 0.91275 0.91705
 H664 H 0.77993 0.83728 0.88771
 H665 H 0.70785 0.91663 0.79766
 H666 H 0.76055 0.88848 0.77484
 H667 H 0.66583 0.92505 0.84832
 H668 H 0.73666 0.84297 0.93742
 H669 H 0.69190 0.84763 0.98668
 H670 H 0.63544 0.87092 1.00662
 H671 H 0.62247 0.93074 0.89763
   
