data_POSCAR
  _audit_creation_date              2014-09-24
  _audit_creation_method            'ToBaCCo'
  _symmetry_space_group_name_H-M    'P1'
  _symmetry_Int_Tables_number       1
  _symmetry_cell_setting            triclinic
  loop_
  _symmetry_equiv_pos_as_xyz
 x,y,z
_cell_length_a 36.9507
_cell_length_b 36.7859
_cell_length_c 36.6954
_cell_angle_alpha 89.943800
_cell_angle_beta 89.951600
_cell_angle_gamma 89.969800
loop_
  _atom_site_label
  _atom_site_type_symbol
  _atom_site_fract_x
  _atom_site_fract_y
  _atom_site_fract_z
N1 N 0.14333 0.16565 0.24257
 N2 N 0.16826 0.14010 0.24187
 C3 C 0.16289 0.11738 0.27022
 C4 C 0.13302 0.12944 0.28941
 C5 C 0.12129 0.16008 0.27126
 H6 H 0.17936 0.09390 0.27645
 H7 H 0.09850 0.17706 0.27850
 Cu8 Cu 0.20520 0.13925 0.20386
 Cu9 Cu 0.14120 0.20444 0.20654
 Cu10 Cu 0.20731 0.20454 0.13962
 N11 N 0.24279 0.14029 0.16647
 N12 N 0.24323 0.16594 0.14147
 C13 C 0.27172 0.16075 0.11921
 C14 C 0.29005 0.13021 0.13084
 C15 C 0.27112 0.11782 0.16088
 H16 H 0.27866 0.17801 0.09640
 H17 H 0.27768 0.09436 0.17738
 N18 N 0.16874 0.24137 0.14215
 N19 N 0.14354 0.24139 0.16769
 C20 C 0.12129 0.26990 0.16215
 C21 C 0.13319 0.28858 0.13185
 C22 C 0.16318 0.26984 0.11973
 H23 H 0.09812 0.27670 0.17882
 H24 H 0.17964 0.27650 0.09628
 H25 H 0.16603 0.17602 0.16501
 H26 H 0.19585 0.20422 0.19487
 N27 N -0.14322 0.83460 0.24116
 N28 N -0.16891 0.85938 0.24117
 C29 C -0.16356 0.88213 0.26948
 C30 C -0.13296 0.87080 0.28790
 C31 C -0.12076 0.84067 0.26933
 H32 H -0.18069 0.90496 0.27641
 H33 H -0.09745 0.82422 0.27603
 Cu34 Cu -0.20662 0.85926 0.20399
 Cu35 Cu -0.14081 0.79586 0.20516
 Cu36 Cu -0.20755 0.79498 0.13882
 N37 N -0.24398 0.85844 0.16644
 N38 N -0.24390 0.83327 0.14099
 C39 C -0.27213 0.83869 0.11849
 C40 C -0.29085 0.86886 0.13046
 C41 C -0.27239 0.88083 0.16093
 H42 H -0.27860 0.82179 0.09532
 H43 H -0.27936 0.90393 0.17779
 N44 N -0.16851 0.75854 0.14118
 N45 N -0.14308 0.75890 0.16645
 C46 C -0.12093 0.73025 0.16125
 C47 C -0.13307 0.71110 0.13141
 C48 C -0.16319 0.72965 0.11927
 H49 H -0.09785 0.72346 0.17805
 H50 H -0.18010 0.72235 0.09639
 H51 H -0.16695 0.82401 0.16434
 H52 H -0.19570 0.79444 0.19410
 N53 N -0.14322 0.16667 -0.24181
 N54 N -0.16900 0.14202 -0.24209
 C55 C -0.16384 0.11979 -0.27083
 C56 C -0.13328 0.13127 -0.28925
 C57 C -0.12087 0.16098 -0.27021
 H58 H -0.18098 0.09711 -0.27801
 H59 H -0.09740 0.17730 -0.27672
 Cu60 Cu -0.20681 0.14206 -0.20495
 Cu61 Cu -0.14055 0.20464 -0.20510
 Cu62 Cu -0.20700 0.20476 -0.13841
 N63 N -0.24385 0.14198 -0.16701
 N64 N -0.24361 0.16672 -0.14113
 C65 C -0.27195 0.16118 -0.11876
 C66 C -0.29097 0.13143 -0.13127
 C67 C -0.27251 0.11982 -0.16192
 H68 H -0.27835 0.17773 -0.09530
 H69 H -0.27966 0.09714 -0.17922
 N70 N -0.16763 0.24101 -0.14025
 N71 N -0.14236 0.24084 -0.16571
 C72 C -0.11982 0.26904 -0.16016
 C73 C -0.13146 0.28776 -0.12983
 C74 C -0.16175 0.26940 -0.11780
 H75 H -0.09687 0.27581 -0.17713
 H76 H -0.17843 0.27661 -0.09469
 H77 H -0.16681 0.17593 -0.16463
 H78 H -0.19534 0.20636 -0.19354
 N79 N 0.14283 0.83415 -0.24086
 N80 N 0.16801 0.85942 -0.24053
 C81 C 0.16253 0.88209 -0.26894
 C82 C 0.13243 0.87025 -0.28779
 C83 C 0.12058 0.83987 -0.26931
 H84 H 0.17927 0.90521 -0.27569
 H85 H 0.09767 0.82303 -0.27635
 Cu86 Cu 0.20592 0.85944 -0.20353
 Cu87 Cu 0.14087 0.79539 -0.20478
 Cu88 Cu 0.20779 0.79482 -0.13863
 N89 N 0.24347 0.85873 -0.16614
 N90 N 0.24399 0.83321 -0.14100
 C91 C 0.27257 0.83848 -0.11894
 C92 C 0.29096 0.86891 -0.13085
 C93 C 0.27189 0.88116 -0.16084
 H94 H 0.27955 0.82138 -0.09604
 H95 H 0.27843 0.90451 -0.17750
 N96 N 0.16885 0.75826 -0.14072
 N97 N 0.14340 0.75846 -0.16597
 C98 C 0.12101 0.73012 -0.16022
 C99 C 0.13297 0.71135 -0.13003
 C100 C 0.16328 0.72978 -0.11828
 H101 H 0.09779 0.72338 -0.17680
 H102 H 0.18006 0.72279 -0.09520
 H103 H 0.16678 0.82363 -0.16379
 H104 H 0.19576 0.79462 -0.19370
 N105 N 0.16744 1.14072 0.75868
 N106 N 0.14179 1.16551 0.75932
 C107 C 0.11951 1.16011 0.73077
 C108 C 0.13204 1.13046 0.71150
 C109 C 0.16243 1.11879 0.72982
 H110 H 0.09610 1.17652 0.72424
 H111 H 0.17975 1.09624 0.72252
 Cu112 Cu 0.14060 1.20256 0.79713
 Cu113 Cu 0.20574 1.13890 0.79481
 Cu114 Cu 0.20531 1.20543 0.86166
 N115 N 0.14114 1.24019 0.83433
 N116 N 0.16651 1.24116 0.85944
 C117 C 0.16082 1.26999 0.88128
 C118 C 0.13034 1.28790 0.86915
 C119 C 0.11846 1.26842 0.83938
 H120 H 0.17774 1.27765 0.90405
 H121 H 0.09522 1.27458 0.82259
 N122 N 0.24213 1.16681 0.85910
 N123 N 0.24220 1.14149 0.83361
 C124 C 0.27076 1.11939 0.83884
 C125 C 0.28939 1.13142 0.86897
 C126 C 0.27071 1.16144 0.88124
 H127 H 0.27776 1.09645 0.82186
 H128 H 0.27771 1.17821 0.90436
 H129 H 0.17738 1.16412 0.83647
 H130 H 0.20536 1.19418 0.80654
 N131 N 0.83282 0.85871 0.75836
 N132 N 0.85721 0.83268 0.75842
 C133 C 0.87997 0.83774 0.73016
 C134 C 0.86913 0.86850 0.71163
 C135 C 0.83918 0.88117 0.73010
 H136 H 0.90265 0.82042 0.72346
 H137 H 0.82321 0.90489 0.72335
 Cu138 Cu 0.85719 0.79526 0.79586
 Cu139 Cu 0.79462 0.86129 0.79477
 Cu140 Cu 0.79393 0.79476 0.86182
 N141 N 0.85662 0.75815 0.83357
 N142 N 0.83202 0.75826 0.85949
 C143 C 0.83810 0.73008 0.88212
 C144 C 0.86807 0.71152 0.86964
 C145 C 0.87921 0.72990 0.83886
 H146 H 0.82194 0.72347 0.90580
 H147 H 0.90198 0.72309 0.82169
 N148 N 0.75776 0.83400 0.85924
 N149 N 0.75808 0.85936 0.83373
 C150 C 0.72966 0.88169 0.83883
 C151 C 0.71070 0.86970 0.86885
 C152 C 0.72910 0.83956 0.88123
 H153 H 0.72296 0.90474 0.82183
 H154 H 0.72181 0.82280 0.90432
 H155 H 0.82296 0.83504 0.83610
 H156 H 0.79315 0.80611 0.80696
 N157 N 0.16689 0.85858 1.24046
 N158 N 0.14155 0.83351 1.23973
 C159 C 0.11910 0.83855 1.26822
 C160 C 0.13110 0.86832 1.28755
 C161 C 0.16141 0.88044 1.26933
 H162 H 0.09592 0.82179 1.27457
 H163 H 0.17829 0.90329 1.27672
 Cu164 Cu 0.14047 0.79663 1.20184
 Cu165 Cu 0.20531 0.86067 1.20438
 Cu166 Cu 0.20564 0.79419 1.13758
 N167 N 0.14168 0.75897 1.16473
 N168 N 0.16718 0.75826 1.13971
 C169 C 0.16190 0.72947 1.11779
 C170 C 0.13155 0.71127 1.12978
 C171 C 0.11931 0.73053 1.15955
 H172 H 0.17901 0.72214 1.09503
 H173 H 0.09606 0.72404 1.17624
 N174 N 0.24214 0.83301 1.14016
 N175 N 0.24191 0.85834 1.16563
 C176 C 0.27023 0.88070 1.16035
 C177 C 0.28901 0.86884 1.13021
 C178 C 0.27065 0.83864 1.11797
 H179 H 0.27691 0.90377 1.17727
 H180 H 0.27780 0.82196 1.09481
 H181 H 0.17716 0.83537 1.16251
 H182 H 0.20514 0.80544 1.19257
 N183 N 0.83289 1.14083 1.24100
 N184 N 0.85841 1.16572 1.24017
 C185 C 0.88094 1.16035 1.26852
 C186 C 0.86875 1.13058 1.28785
 C187 C 0.83828 1.11882 1.26978
 H188 H 0.90427 1.17688 1.27488
 H189 H 0.82122 1.09611 1.27717
 Cu190 Cu 0.85935 1.20282 1.20237
 Cu191 Cu 0.79438 1.13886 1.20514
 Cu192 Cu 0.79385 1.20556 1.13854
 N193 N 0.85781 1.24075 1.16545
 N194 N 0.83216 1.24156 1.14064
 C195 C 0.83728 1.27043 1.11872
 C196 C 0.86770 1.28855 1.13049
 C197 C 0.88014 1.26919 1.16013
 H198 H 0.82009 1.27781 1.09606
 H199 H 0.90356 1.27556 1.17657
 N200 N 0.75746 1.16669 1.14110
 N201 N 0.75767 1.14130 1.16655
 C202 C 0.72935 1.11894 1.16127
 C203 C 0.71060 1.13092 1.13115
 C204 C 0.72897 1.16115 1.11894
 H205 H 0.72266 1.09581 1.17816
 H206 H 0.72183 1.17791 1.09581
 H207 H 0.82249 1.16422 1.16325
 H208 H 0.79467 1.19411 1.19353
 N209 N 0.53818 1.06473 0.96100
 N210 N 0.56623 1.08661 0.95682
 N211 N 0.46198 1.03970 0.93577
 N212 N 0.43398 1.04387 0.91388
 N213 N 0.46200 1.06482 0.96116
 N214 N 0.43405 1.08679 0.95730
 N215 N 0.53812 1.03951 0.93568
 N216 N 0.56604 1.04354 0.91358
 C217 C 0.58322 1.07303 0.92710
 C218 C 0.41698 1.07336 0.92768
 N219 N 0.46167 0.93610 0.96084
 N220 N 0.43367 0.91419 0.95665
 N221 N 0.53789 0.96126 0.93559
 N222 N 0.56587 0.95714 0.91362
 N223 N 0.53784 0.93602 0.96090
 N224 N 0.56573 0.91400 0.95690
 N225 N 0.46168 0.96146 0.93562
 N226 N 0.43373 0.95750 0.91358
 Mn227 Mn 0.49992 1.00049 0.93521
 C228 C 0.41661 0.92789 0.92704
 C229 C 0.58281 0.92752 0.92729
 N230 N 0.46167 1.06454 1.03958
 N231 N 0.43345 1.08623 1.04360
 N232 N 0.53786 1.03940 1.06474
 N233 N 0.56593 1.04341 1.08657
 N234 N 0.53782 1.06463 1.03941
 N235 N 0.56580 1.08652 1.04327
 N236 N 0.46169 1.03916 1.06478
 N237 N 0.43349 1.04282 1.08658
 Mn238 Mn 0.49992 1.06514 1.00030
 C239 C 0.41625 1.07232 1.07304
 C240 C 0.58292 1.07293 1.07281
 N241 N 0.53819 0.93594 1.03921
 N242 N 0.56647 0.91430 1.04298
 N243 N 0.46195 0.96096 1.06464
 N244 N 0.43373 0.95695 1.08633
 N245 N 0.46203 0.93587 1.03921
 N246 N 0.43393 0.91410 1.04285
 N247 N 0.53819 0.96117 1.06452
 N248 N 0.56646 0.95742 1.08617
 Mn249 Mn 0.49993 0.93553 1.00006
 Mn250 Mn 0.49991 1.00017 1.06515
 Cl251 Cl 0.49991 1.00034 1.00018
 C252 C 0.58373 0.92805 1.07241
 C253 C 0.41669 0.92758 1.07236
 N254 N 0.03883 0.46111 0.06472
 N255 N 0.04291 0.43297 0.08670
 N256 N 0.06412 0.53761 0.03956
 N257 N 0.08586 0.56578 0.04343
 N258 N 0.03903 0.53763 0.06492
 N259 N 0.04296 0.56582 0.08675
 N260 N 0.06391 0.46111 0.03935
 N261 N 0.08577 0.43299 0.04336
 C262 C 0.07231 0.41579 0.07301
 C263 C 0.07231 0.58295 0.07299
 N264 N 0.03882 0.53824 -0.06408
 N265 N 0.04284 0.56658 -0.08584
 N266 N 0.06377 0.46154 -0.03903
 N267 N 0.08541 0.43328 -0.04294
 N268 N 0.03861 0.46162 -0.06429
 N269 N 0.04243 0.43335 -0.08610
 N270 N 0.06398 0.53802 -0.03882
 N271 N 0.08581 0.56615 -0.04269
 Mn272 Mn 0.06441 0.49957 0.00025
 C273 C 0.07228 0.58360 -0.07214
 C274 C 0.07177 0.41609 -0.07242
 N275 N -0.03887 0.53807 0.06519
 N276 N -0.04300 0.56604 0.08736
 N277 N -0.06419 0.46175 0.03971
 N278 N -0.08609 0.43373 0.04368
 N279 N -0.03900 0.46153 0.06492
 N280 N -0.04300 0.43329 0.08675
 N281 N -0.06403 0.53817 0.03994
 N282 N -0.08599 0.56615 0.04423
 Mn283 Mn 0.00002 0.49959 0.06540
 C284 C -0.07253 0.58316 0.07391
 C285 C -0.07250 0.41639 0.07312
 N286 N -0.03937 0.46179 -0.06406
 N287 N -0.04338 0.43344 -0.08575
 N288 N -0.06415 0.53836 -0.03836
 N289 N -0.08568 0.56677 -0.04181
 N290 N -0.03912 0.53848 -0.06379
 N291 N -0.04293 0.56704 -0.08526
 N292 N -0.06438 0.46186 -0.03861
 N293 N -0.08609 0.43361 -0.04227
 Mn294 Mn -0.00028 0.50003 -0.06457
 Mn295 Mn -0.06460 0.50003 0.00066
 Cl296 Cl -0.00011 0.49981 0.00043
 C297 C -0.07267 0.41626 -0.07180
 C298 C -0.07211 0.58427 -0.07117
 N299 N 1.03970 0.06431 0.53781
 N300 N 1.04373 0.08612 0.56604
 N301 N 1.06453 0.03910 0.46102
 N302 N 1.08626 0.04304 0.43273
 N303 N 1.03950 0.06445 0.46111
 N304 N 1.04352 0.08638 0.43289
 N305 N 1.06480 0.03903 0.53772
 N306 N 1.08665 0.04295 0.56587
 C307 C 1.07315 0.07245 0.58314
 C308 C 1.07281 0.07265 0.41556
 N309 N 1.03921 -0.06428 0.46110
 N310 N 1.04310 -0.08607 0.43280
 N311 N 1.06459 -0.03924 0.53779
 N312 N 1.08631 -0.04320 0.56606
 N313 N 1.03941 -0.06443 0.53787
 N314 N 1.04330 -0.08622 0.56622
 N315 N 1.06437 -0.03909 0.46107
 N316 N 1.08608 -0.04302 0.43278
 Mn317 Mn 1.06504 -0.00005 0.49940
 C318 C 1.07247 -0.07244 0.41555
 C319 C 1.07270 -0.07263 0.58341
 N320 N 0.96164 0.06467 0.46149
 N321 N 0.95775 0.08650 0.43321
 N322 N 0.93665 0.03937 0.53823
 N323 N 0.91476 0.04352 0.56635
 N324 N 0.96187 0.06452 0.53823
 N325 N 0.95787 0.08646 0.56640
 N326 N 0.93643 0.03953 0.46160
 N327 N 0.91462 0.04357 0.43343
 Mn328 Mn 1.00068 0.06495 0.49966
 C329 C 0.92828 0.07298 0.41612
 C330 C 0.92836 0.07298 0.58356
 N331 N 0.96155 -0.06412 0.53814
 N332 N 0.95790 -0.08565 0.56672
 N333 N 0.93632 -0.03866 0.46140
 N334 N 0.91473 -0.04223 0.43300
 N335 N 0.96135 -0.06401 0.46129
 N336 N 0.95747 -0.08555 0.43279
 N337 N 0.93650 -0.03879 0.53820
 N338 N 0.91509 -0.04238 0.56678
 Mn339 Mn 1.00036 -0.06469 0.49960
 Mn340 Mn 0.93602 0.00035 0.49986
 Cl341 Cl 1.00053 0.00014 0.49963
 C342 C 0.92878 -0.07172 0.58418
 C343 C 0.92825 -0.07160 0.41553
 C344 C 1.07460 0.12183 0.36104
 C345 C 1.11410 0.13549 0.35745
 C346 C 1.11774 0.11438 0.32149
 C347 C 1.07845 0.10097 0.32457
 C348 C 1.13161 0.08060 0.34188
 C349 C 1.12775 0.10152 0.37829
 C350 C 1.08850 0.08806 0.38144
 C351 C 1.09210 0.06698 0.34546
 H352 H 1.05097 0.13860 0.36922
 H353 H 1.12335 0.16382 0.36210
 H354 H 1.05842 0.10097 0.30204
 H355 H 1.15514 0.06352 0.33407
 H356 H 1.14776 0.10164 0.40084
 H357 H 1.08275 0.03867 0.34088
 C358 C 0.92671 -0.12033 0.36083
 C359 C 0.88735 -0.13433 0.35749
 C360 C 0.88334 -0.11325 0.32151
 C361 C 0.92252 -0.09945 0.32440
 C362 C 0.86929 -0.07963 0.34196
 C363 C 0.87345 -0.10054 0.37835
 C364 C 0.91258 -0.08674 0.38130
 C365 C 0.90866 -0.06561 0.34533
 H366 H 0.95054 -0.13692 0.36883
 H367 H 0.87836 -0.16273 0.36223
 H368 H 0.94247 -0.09919 0.30176
 H369 H 0.84554 -0.06298 0.33394
 H370 H 0.85348 -0.10079 0.40097
 H371 H 0.91768 -0.03719 0.34066
 C372 C 0.92742 0.12142 0.63861
 C373 C 0.88851 0.13682 0.64142
 C374 C 0.88304 0.11545 0.67704
 C375 C 0.92177 0.10027 0.67469
 C376 C 0.86824 0.08262 0.65587
 C377 C 0.87388 0.10381 0.61984
 C378 C 0.91254 0.08860 0.61748
 C379 C 0.90716 0.06723 0.65309
 H380 H 0.95199 0.13715 0.63116
 H381 H 0.88069 0.16562 0.63695
 H382 H 0.94125 0.09907 0.69768
 H383 H 0.84374 0.06673 0.66309
 H384 H 0.85442 0.10516 0.59686
 H385 H 0.91505 0.03844 0.65758
 C386 C 1.12697 -0.10225 0.62118
 C387 C 1.13121 -0.08096 0.65730
 C388 C 1.11649 -0.11408 0.67818
 C389 C 1.11242 -0.13554 0.64246
 C390 C 1.07755 -0.09967 0.67478
 C391 C 1.09207 -0.06635 0.65345
 C392 C 1.08809 -0.08784 0.61776
 C393 C 1.07330 -0.12093 0.63862
 H394 H 1.14713 -0.10321 0.59875
 H395 H 1.15514 -0.06454 0.66516
 H396 H 1.12094 -0.16418 0.63830
 H397 H 1.05737 -0.09875 0.69719
 H398 H 1.08348 -0.03771 0.65755
 H399 H 1.04929 -0.13721 0.63063
 C400 C 0.37876 1.12612 1.10424
 C401 C 0.34292 1.13118 1.08300
 C402 C 0.32214 1.11532 1.11574
 C403 C 0.35756 1.11050 1.13715
 C404 C 0.32540 1.07673 1.10004
 C405 C 0.34667 1.09236 1.06713
 C406 C 0.38210 1.08755 1.08855
 C407 C 0.36131 1.07169 1.12125
 H408 H 0.40109 1.14625 1.10578
 H409 H 0.33535 1.15579 1.06722
 H410 H 0.36179 1.11809 1.16611
 H411 H 0.30308 1.05661 1.09850
 H412 H 0.34256 1.08479 1.03815
 H413 H 0.36915 1.04702 1.13681
 C414 C 0.36241 0.92738 0.87794
 C415 C 0.35873 0.88815 0.86309
 C416 C 0.32298 0.88405 0.88417
 C417 C 0.32617 0.92307 0.89880
 C418 C 0.34325 0.86906 0.91761
 C419 C 0.37942 0.87337 0.89671
 C420 C 0.38267 0.91237 0.91135
 C421 C 0.34691 0.90830 0.93242
 H422 H 0.37056 0.95156 0.86177
 H423 H 0.36327 0.87970 0.83441
 H424 H 0.30391 0.94334 0.89945
 H425 H 0.33545 0.84497 0.93408
 H426 H 0.40167 0.85310 0.89598
 H427 H 0.34237 0.91676 0.96110
 C428 C 0.63825 0.92768 1.12106
 C429 C 0.64166 0.88853 1.13627
 C430 C 0.67731 0.88400 1.11515
 C431 C 0.67439 0.92292 1.10015
 C432 C 0.65691 0.86891 1.08188
 C433 C 0.62083 0.87366 1.10284
 C434 C 0.61780 0.91257 1.08785
 C435 C 0.65348 0.90807 1.06670
 H436 H 0.63033 0.95207 1.13697
 H437 H 0.63713 0.88035 1.16503
 H438 H 0.69685 0.94293 1.09928
 H439 H 0.66448 0.84463 1.06562
 H440 H 0.59841 0.85361 1.10379
 H441 H 0.65805 0.91629 1.03793
 C442 C 0.62087 1.12775 0.89749
 C443 C 0.65740 1.13094 0.91789
 C444 C 0.67694 1.11641 0.88380
 C445 C 0.64083 1.11344 0.86322
 C446 C 0.67328 1.07711 0.89764
 C447 C 0.65328 1.09143 0.93191
 C448 C 0.61717 1.08850 0.91135
 C449 C 0.63669 1.07393 0.87729
 H450 H 0.59898 1.14844 0.89763
 H451 H 0.66592 1.15451 0.93468
 H452 H 0.63593 1.12260 0.83482
 H453 H 0.69513 1.05638 0.89747
 H454 H 0.65810 1.08226 0.96034
 H455 H 0.62782 1.05030 0.86077
 C456 C 0.09243 0.34594 0.06768
 C457 C 0.13159 0.34268 0.08231
 C458 C 0.11707 0.32228 0.11589
 C459 C 0.07812 0.32509 0.10146
 C460 C 0.11272 0.35820 0.13683
 C461 C 0.12702 0.37901 0.10307
 C462 C 0.08809 0.38185 0.08864
 C463 C 0.07355 0.36146 0.12221
 H464 H 0.08395 0.34117 0.03907
 H465 H 0.15567 0.33486 0.06599
 H466 H 0.05826 0.30245 0.10108
 H467 H 0.12132 0.36295 0.16540
 H468 H 0.14692 0.40160 0.10356
 H469 H 0.04951 0.36944 0.13851
 C470 C -0.10294 0.37817 -0.12581
 C471 C -0.08232 0.34174 -0.12975
 C472 C -0.11546 0.32167 -0.11421
 C473 C -0.13623 0.35769 -0.11045
 C474 C -0.10061 0.32539 -0.07526
 C475 C -0.06729 0.34592 -0.09059
 C476 C -0.08810 0.38193 -0.08690
 C477 C -0.12121 0.36186 -0.07130
 H478 H -0.10372 0.40022 -0.14647
 H479 H -0.06630 0.33333 -0.15391
 H480 H -0.16476 0.36216 -0.11878
 H481 H -0.09986 0.30329 -0.05465
 H482 H -0.03874 0.34144 -0.08229
 H483 H -0.13706 0.37041 -0.04707
 C484 C 0.09229 0.65341 -0.06610
 C485 C 0.13143 0.65687 -0.08083
 C486 C 0.11682 0.67762 -0.11414
 C487 C 0.07789 0.67461 -0.09960
 C488 C 0.11248 0.64192 -0.13544
 C489 C 0.12690 0.62076 -0.10197
 C490 C 0.08800 0.61772 -0.08745
 C491 C 0.07335 0.63846 -0.12072
 H492 H 0.08381 0.65777 -0.03741
 H493 H 0.15546 0.66462 -0.06445
 H494 H 0.05796 0.69720 -0.09884
 H495 H 0.12097 0.63757 -0.16413
 H496 H 0.14691 0.59826 -0.10280
 H497 H 0.04926 0.63059 -0.13695
 C498 C -0.12714 0.62018 0.10406
 C499 C -0.11270 0.64142 0.13744
 C500 C -0.11709 0.67708 0.11597
 C501 C -0.13173 0.65625 0.08278
 C502 C -0.07817 0.67402 0.10141
 C503 C -0.07357 0.63791 0.12267
 C504 C -0.08825 0.61712 0.08949
 C505 C -0.09262 0.65276 0.06802
 H506 H -0.14705 0.59762 0.10499
 H507 H -0.12117 0.63709 0.16615
 H508 H -0.15582 0.66387 0.06639
 H509 H -0.05826 0.69659 0.10056
 H510 H -0.04948 0.62998 0.13888
 H511 H -0.08420 0.65705 0.03929
 C512 C 1.07310 0.12059 0.63806
 C513 C 1.07784 0.09945 0.67426
 C514 C 1.11641 0.11475 0.67751
 C515 C 1.11187 0.13606 0.64175
 C516 C 1.13189 0.08191 0.65674
 C517 C 1.09310 0.06643 0.65303
 C518 C 1.08859 0.08778 0.61730
 C519 C 1.12714 0.10304 0.62056
 H520 H 1.04871 0.13629 0.63002
 H521 H 1.05780 0.09817 0.69677
 H522 H 1.11979 0.16486 0.63745
 H523 H 1.15622 0.06600 0.66455
 H524 H 1.08525 0.03761 0.65725
 H525 H 1.14719 0.10429 0.59806
 C526 C 0.89910 -0.12623 0.62157
 C527 C 0.91932 -0.13031 0.65828
 C528 C 0.88568 -0.11557 0.67811
 C529 C 0.86532 -0.11166 0.64182
 C530 C 0.89998 -0.07645 0.67501
 C531 C 0.93381 -0.09096 0.65468
 C532 C 0.91338 -0.08714 0.61840
 C533 C 0.87980 -0.07234 0.63826
 H534 H 0.89895 -0.14652 0.59920
 H535 H 0.93558 -0.15427 0.66665
 H536 H 0.83699 -0.12037 0.63687
 H537 H 0.90004 -0.05624 0.69746
 H538 H 0.96214 -0.08225 0.65967
 H539 H 0.86377 -0.04827 0.62970
 C540 C 1.06721 -0.09150 0.34529
 C541 C 1.10088 -0.07689 0.32478
 C542 C 1.11512 -0.11602 0.32142
 C543 C 1.08166 -0.13084 0.34146
 C544 C 1.13579 -0.11236 0.35755
 C545 C 1.12134 -0.07303 0.36138
 C546 C 1.08791 -0.08790 0.38142
 C547 C 1.10216 -0.12699 0.37803
 H548 H 1.03883 -0.08278 0.34057
 H549 H 1.10062 -0.05649 0.30246
 H550 H 1.06543 -0.15477 0.33304
 H551 H 1.16418 -0.12109 0.36221
 H552 H 1.13743 -0.04904 0.36994
 H553 H 1.10251 -0.14744 0.40029
 C554 C 0.87426 0.10341 0.37879
 C555 C 0.88928 0.13641 0.35736
 C556 C 0.88468 0.11496 0.32175
 C557 C 0.86947 0.08212 0.34276
 C558 C 0.92334 0.09983 0.32489
 C559 C 0.92816 0.12111 0.36097
 C560 C 0.91290 0.08832 0.38195
 C561 C 0.90834 0.06682 0.34636
 H562 H 0.85427 0.10467 0.40134
 H563 H 0.88124 0.16519 0.36151
 H564 H 0.84519 0.06613 0.33507
 H565 H 0.94331 0.09853 0.30231
 H566 H 0.95251 0.13693 0.36883
 H567 H 0.91633 0.03801 0.34228
 C568 C 0.12060 0.36214 -0.07278
 C569 C 0.10019 0.32555 -0.07615
 C570 C 0.11429 0.32179 -0.11540
 C571 C 0.13490 0.35793 -0.11221
 C572 C 0.08073 0.34156 -0.13032
 C573 C 0.06643 0.34579 -0.09086
 C574 C 0.08708 0.38191 -0.08775
 C575 C 0.10118 0.37813 -0.12695
 H576 H 0.13682 0.37093 -0.04891
 H577 H 0.10006 0.30354 -0.05544
 H578 H 0.16325 0.36257 -0.12111
 H579 H 0.06438 0.33289 -0.15413
 H580 H 0.03810 0.34117 -0.08188
 H581 H 0.10140 0.40017 -0.14765
 C582 C -0.07279 0.36130 0.12113
 C583 C -0.11167 0.35780 0.13651
 C584 C -0.11642 0.32237 0.11489
 C585 C -0.07776 0.32541 0.09969
 C586 C -0.13161 0.34346 0.08207
 C587 C -0.12665 0.37931 0.10352
 C588 C -0.08802 0.38236 0.08836
 C589 C -0.09274 0.34696 0.06669
 H590 H -0.04839 0.36900 0.13697
 H591 H -0.11968 0.36187 0.16537
 H592 H -0.05791 0.30280 0.09828
 H593 H -0.15593 0.33595 0.06604
 H594 H -0.14651 0.40192 0.10485
 H595 H -0.08478 0.34300 0.03778
 C596 C -0.12112 0.63814 -0.07117
 C597 C -0.10095 0.67482 -0.07530
 C598 C -0.11554 0.67804 -0.11439
 C599 C -0.13591 0.64184 -0.11045
 C600 C -0.08203 0.65829 -0.12951
 C601 C -0.06724 0.65458 -0.09021
 C602 C -0.08767 0.61839 -0.08637
 C603 C -0.10225 0.62168 -0.12540
 H604 H -0.13696 0.62951 -0.04695
 H605 H -0.10072 0.69713 -0.05495
 H606 H -0.16432 0.63698 -0.11894
 H607 H -0.06589 0.66666 -0.15362
 H608 H -0.03884 0.65945 -0.08166
 H609 H -0.10258 0.59942 -0.14580
 C610 C 0.09175 0.65262 0.06650
 C611 C 0.07693 0.67392 0.09972
 C612 C 0.11572 0.67732 0.11442
 C613 C 0.13075 0.65648 0.08138
 C614 C 0.11156 0.64176 0.13605
 C615 C 0.07256 0.63790 0.12116
 C616 C 0.08763 0.61709 0.08816
 C617 C 0.12639 0.62050 0.10284
 H618 H 0.08338 0.65662 0.03772
 H619 H 0.05677 0.69628 0.09864
 H620 H 0.15481 0.66432 0.06505
 H621 H 0.11987 0.63769 0.16483
 H622 H 0.04843 0.62987 0.13730
 H623 H 0.14652 0.59811 0.10396
 C624 C 0.36279 1.12197 0.92772
 C625 C 0.35882 1.13693 0.88847
 C626 C 0.32320 1.11575 0.88457
 C627 C 0.32672 1.10098 0.92360
 C628 C 0.34352 1.08259 0.86929
 C629 C 0.37957 1.10360 0.87339
 C630 C 0.38309 1.08884 0.91239
 C631 C 0.34749 1.06763 0.90853
 H632 H 0.37110 1.13797 0.95194
 H633 H 0.36302 1.16561 0.88004
 H634 H 0.30456 1.10013 0.94403
 H635 H 0.33543 1.06640 0.84513
 H636 H 0.40173 1.10450 0.85296
 H637 H 0.34333 1.03894 0.91696
 C638 C 0.37891 0.89721 1.12631
 C639 C 0.34268 0.91798 1.13021
 C640 C 0.32274 0.88474 1.11468
 C641 C 0.35854 0.86380 1.11096
 C642 C 0.32647 0.89967 1.07572
 C643 C 0.34688 0.93310 1.09105
 C644 C 0.38266 0.91213 1.08740
 C645 C 0.36274 0.87893 1.07181
 H646 H 0.40088 0.89640 1.14690
 H647 H 0.33427 0.93403 1.15438
 H648 H 0.36295 0.83511 1.11928
 H649 H 0.30448 0.90040 1.05514
 H650 H 0.34252 0.96179 1.08270
 H651 H 0.37135 0.86308 1.04756
 C652 C 0.62060 1.10287 1.12705
 C653 C 0.65673 1.08190 1.13089
 C654 C 0.67687 1.11517 1.11559
 C655 C 0.64117 1.13630 1.11194
 C656 C 0.67319 1.10059 1.07653
 C657 C 0.65258 1.06713 1.09162
 C658 C 0.61690 1.08829 1.08803
 C659 C 0.63702 1.12152 1.07268
 H660 H 0.59854 1.10362 1.14759
 H661 H 0.66500 1.06561 1.15496
 H662 H 0.63688 1.16494 1.12044
 H663 H 0.69523 1.09991 1.05597
 H664 H 0.65682 1.03850 1.08308
 H665 H 0.62855 1.13762 1.04854
 C666 C 0.62044 0.89752 0.87295
 C667 C 0.65650 0.91857 0.86902
 C668 C 0.67677 0.88534 0.88426
 C669 C 0.64114 0.86412 0.88798
 C670 C 0.67305 0.89988 0.92333
 C671 C 0.65234 0.93330 0.90830
 C672 C 0.61673 0.91207 0.91198
 C673 C 0.63696 0.87886 0.92726
 H674 H 0.59834 0.89669 0.85250
 H675 H 0.66467 0.93485 0.84490
 H676 H 0.63693 0.83550 0.87941
 H677 H 0.69511 0.90060 0.94384
 H678 H 0.65648 0.96194 0.91686
 H679 H 0.62858 0.86264 0.95137
   
