data_POSCAR
  _audit_creation_date              2014-09-24
  _audit_creation_method            'ToBaCCo'
  _symmetry_space_group_name_H-M    'P1'
  _symmetry_Int_Tables_number       1
  _symmetry_cell_setting            triclinic
  loop_
  _symmetry_equiv_pos_as_xyz
 x,y,z
_cell_length_a 47.7304
_cell_length_b 47.2894
_cell_length_c 41.8957
_cell_angle_alpha 90.005300
_cell_angle_beta 89.942700
_cell_angle_gamma 90.897500
loop_
  _atom_site_label
  _atom_site_type_symbol
  _atom_site_fract_x
  _atom_site_fract_y
  _atom_site_fract_z
C1 C 0.08612 0.25791 0.01365
 C2 C 0.08555 0.25746 -0.01906
 C3 C 0.05901 0.26604 -0.02817
 N4 N 0.04362 0.27205 -0.00201
 C5 C 0.06004 0.26690 0.02354
 C6 C 0.05045 0.27129 -0.06000
 C7 C 0.02276 0.27921 -0.06810
 C8 C 0.01467 0.28976 -0.09758
 C9 C -0.01393 0.29219 -0.09682
 C10 C -0.02284 0.28253 -0.06719
 N11 N -0.00033 0.27480 -0.04976
 C12 C -0.05133 0.27988 -0.05763
 C13 C -0.05936 0.27687 -0.02514
 C14 C -0.08588 0.26866 -0.01465
 C15 C -0.08512 0.26883 0.01801
 C16 C -0.05808 0.27669 0.02651
 N17 N -0.04235 0.28171 0.00015
 C18 C -0.04871 0.27993 0.05827
 C19 C -0.02018 0.28267 0.06666
 C20 C -0.01044 0.29090 0.09645
 C21 C 0.01823 0.28856 0.09571
 C22 C 0.02517 0.27892 0.06549
 N23 N 0.00161 0.27532 0.04797
 C24 C 0.05254 0.27205 0.05561
 H25 H 0.10392 0.25277 0.02843
 H26 H 0.10304 0.25221 -0.03426
 H27 H 0.00011 0.26520 0.02604
 H28 H 0.02778 0.29476 -0.11792
 H29 H -0.02675 0.29987 -0.11617
 H30 H -0.10387 0.26266 -0.02895
 H31 H -0.10239 0.26334 0.03370
 H32 H 0.03232 0.29304 0.11536
 H33 H -0.00110 0.26385 -0.02827
 H34 H -0.02276 0.29751 0.11676
 C35 C 0.41302 0.76730 0.48343
 C36 C 0.41288 0.76723 0.51616
 C37 C 0.43981 0.77456 0.52578
 N38 N 0.45631 0.77932 0.50003
 C39 C 0.44004 0.77467 0.47411
 C40 C 0.44832 0.77789 0.55788
 C41 C 0.47645 0.78246 0.56737
 C42 C 0.48472 0.79081 0.59771
 C43 C 0.51354 0.79127 0.59785
 C44 C 0.52210 0.78318 0.56760
 N45 N 0.49936 0.77771 0.54924
 C46 C 0.55031 0.77947 0.55840
 C47 C 0.55910 0.77630 0.52639
 C48 C 0.58605 0.76955 0.51705
 C49 C 0.58620 0.76955 0.48432
 C50 C 0.55933 0.77631 0.47473
 N51 N 0.54286 0.78064 0.50048
 C52 C 0.55084 0.77950 0.44264
 C53 C 0.52273 0.78329 0.43316
 C54 C 0.51448 0.79146 0.40284
 C55 C 0.48566 0.79107 0.40269
 C56 C 0.47708 0.78266 0.43292
 N57 N 0.49980 0.77782 0.45127
 C58 C 0.44885 0.77812 0.44210
 H59 H 0.39525 0.76248 0.46825
 H60 H 0.39496 0.76235 0.53115
 H61 H 0.49968 0.76815 0.47349
 H62 H 0.47138 0.79583 0.61777
 H63 H 0.52669 0.79672 0.61804
 H64 H 0.60378 0.76507 0.53222
 H65 H 0.60406 0.76507 0.46933
 H66 H 0.47252 0.79617 0.38252
 H67 H 0.49946 0.76810 0.52699
 H68 H 0.52784 0.79693 0.38281
 C69 C 0.91448 0.73803 0.01922
 C70 C 0.91350 0.73813 -0.01343
 C71 C 0.93893 0.72778 -0.02408
 N72 N 0.95554 0.72174 0.00110
 C73 C 0.94060 0.72807 0.02753
 C74 C 0.94626 0.72369 -0.05658
 C75 C 0.97425 0.71861 -0.06627
 C76 C 0.98197 0.70777 -0.09576
 C77 C 1.01073 0.70717 -0.09629
 C78 C 1.01983 0.71728 -0.06699
 N79 N 0.99754 0.72422 -0.04880
 C80 C 1.04819 0.72167 -0.05868
 C81 C 1.05745 0.72575 -0.02703
 C82 C 1.08421 0.73469 -0.01869
 C83 C 1.08520 0.73469 0.01397
 C84 C 1.05910 0.72530 0.02460
 N85 N 1.04210 0.71994 -0.00060
 C86 C 1.05147 0.72149 0.05710
 C87 C 1.02316 0.71746 0.06674
 C88 C 1.01467 0.70686 0.09619
 C89 C 0.98591 0.70743 0.09672
 C90 C 0.97755 0.71798 0.06746
 N91 N 1.00031 0.72405 0.04929
 C92 C 0.94954 0.72352 0.05916
 H93 H 0.89793 0.74475 0.03505
 H94 H 0.89609 0.74530 -0.02766
 H95 H 1.00025 0.73497 0.02775
 H96 H 0.96831 0.70096 -0.11497
 H97 H 1.02350 0.70013 -0.11603
 H98 H 1.10119 0.74083 -0.03450
 H99 H 1.10307 0.74120 0.02820
 H100 H 0.97266 0.70086 0.11643
 H101 H 0.99837 0.73505 -0.02721
 H102 H 1.02783 0.69945 0.11537
 C103 C 0.41382 0.23384 0.51558
 C104 C 0.41410 0.23386 0.48285
 C105 C 0.44110 0.22713 0.47365
 N106 N 0.45722 0.22279 0.49965
 C107 C 0.44065 0.22709 0.52532
 C108 C 0.45000 0.22390 0.44170
 C109 C 0.47819 0.21986 0.43263
 C110 C 0.48674 0.21164 0.40242
 C111 C 0.51555 0.21168 0.40270
 C112 C 0.52382 0.21993 0.43308
 N113 N 0.50092 0.22503 0.45110
 C114 C 0.55197 0.22409 0.44271
 C115 C 0.56039 0.22730 0.47485
 C116 C 0.58736 0.23431 0.48461
 C117 C 0.58707 0.23423 0.51733
 C118 C 0.55994 0.22717 0.52651
 N119 N 0.54372 0.22274 0.50050
 C120 C 0.55096 0.22381 0.55845
 C121 C 0.52265 0.21969 0.56751
 C122 C 0.51385 0.21138 0.59770
 C123 C 0.48504 0.21141 0.59742
 C124 C 0.47701 0.21972 0.56707
 N125 N 0.50007 0.22488 0.54907
 C126 C 0.44898 0.22380 0.55745
 H127 H 0.39587 0.23824 0.53050
 H128 H 0.39642 0.23828 0.46758
 H129 H 0.50041 0.23455 0.52685
 H130 H 0.47360 0.20637 0.38217
 H131 H 0.52890 0.20645 0.38272
 H132 H 0.60538 0.23900 0.46971
 H133 H 0.60484 0.23884 0.53261
 H134 H 0.47154 0.20611 0.61739
 H135 H 0.50087 0.23465 0.47334
 H136 H 0.52684 0.20607 0.61792
 C137 C 0.69176 -0.08053 0.01899
 C138 C 0.69111 -0.08033 -0.01371
 C139 C 0.70571 -0.05622 -0.02334
 N140 N 0.71478 -0.04137 0.00232
 C141 C 0.70672 -0.05652 0.02822
 C142 C 0.71257 -0.04916 -0.05525
 C143 C 0.71857 -0.02065 -0.06350
 C144 C 0.73440 -0.01170 -0.08950
 C145 C 0.73401 0.01736 -0.08951
 C146 C 0.71795 0.02541 -0.06351
 N147 N 0.70906 0.00211 -0.04744
 C148 C 0.71150 0.05364 -0.05514
 C149 C 0.70454 0.06036 -0.02319
 C150 C 0.69119 0.08466 -0.01311
 C151 C 0.69188 0.08445 0.01962
 C152 C 0.70516 0.05982 0.02837
 N153 N 0.71261 0.04495 0.00225
 C154 C 0.71327 0.05278 0.05965
 C155 C 0.72030 0.02486 0.06783
 C156 C 0.73562 0.01703 0.09437
 C157 C 0.73609 -0.01207 0.09444
 C158 C 0.72066 -0.02115 0.06817
 N159 N 0.71149 0.00155 0.05184
 C160 C 0.71445 -0.04963 0.05994
 H161 H 0.68240 -0.09655 0.03426
 H162 H 0.68121 -0.09620 -0.02872
 H163 H 0.69765 0.00113 0.03258
 H164 H 0.74548 -0.02470 -0.10644
 H165 H 0.74477 0.03097 -0.10645
 H166 H 0.68235 0.10108 -0.02782
 H167 H 0.68390 0.10071 0.03522
 H168 H 0.74672 -0.02499 0.11181
 H169 H 0.69524 0.00165 -0.02813
 H170 H 0.74554 0.03080 0.11177
 C171 C 0.19340 0.41103 0.48079
 C172 C 0.19297 0.41101 0.51355
 C173 C 0.20346 0.43714 0.52316
 N174 N 0.21011 0.45316 0.49747
 C175 C 0.20413 0.43718 0.47156
 C176 C 0.20965 0.44485 0.55498
 C177 C 0.21528 0.47322 0.56386
 C178 C 0.22790 0.48179 0.59213
 C179 C 0.22812 0.51090 0.59214
 C180 C 0.21562 0.51929 0.56388
 N181 N 0.20785 0.49620 0.54681
 C182 C 0.21040 0.54757 0.55504
 C183 C 0.20436 0.55522 0.52323
 C184 C 0.19423 0.58119 0.51365
 C185 C 0.19466 0.58121 0.48090
 C186 C 0.20503 0.55526 0.47161
 N187 N 0.21080 0.53935 0.49751
 C188 C 0.21186 0.54763 0.43999
 C189 C 0.21736 0.51936 0.43133
 C190 C 0.23060 0.51101 0.40348
 C191 C 0.23040 0.48190 0.40347
 C192 C 0.21704 0.47331 0.43132
 N193 N 0.20916 0.49626 0.44814
 C194 C 0.21113 0.44494 0.43996
 H195 H 0.18704 0.39362 0.46554
 H196 H 0.18622 0.39357 0.52857
 H197 H 0.19638 0.49615 0.46831
 H198 H 0.23616 0.46849 0.61079
 H199 H 0.23657 0.52433 0.61083
 H200 H 0.18770 0.59848 0.52870
 H201 H 0.18851 0.59852 0.46567
 H202 H 0.23914 0.46862 0.38506
 H203 H 0.19563 0.49611 0.52622
 H204 H 0.23953 0.52445 0.38507
 C205 C 0.27048 0.91289 0.01533
 C206 C 0.26955 0.91249 -0.01733
 C207 C 0.28051 0.93828 -0.02769
 N208 N 0.28769 0.95457 -0.00238
 C209 C 0.28154 0.93904 0.02389
 C210 C 0.28448 0.94614 -0.06005
 C211 C 0.28994 0.97461 -0.06915
 C212 C 0.30168 0.98285 -0.09807
 C213 C 0.30260 1.01188 -0.09821
 C214 C 0.29140 1.02069 -0.06938
 N215 N 0.28400 0.99784 -0.05161
 C216 C 0.28731 1.04931 -0.06071
 C217 C 0.28377 1.05760 -0.02845
 C218 C 0.27239 1.08300 -0.01872
 C219 C 0.27341 1.08330 0.01388
 C220 C 0.28536 1.05806 0.02318
 N221 N 0.29149 1.04219 -0.00277
 C222 C 0.29046 1.05015 0.05529
 C223 C 0.29517 1.02166 0.06400
 C224 C 0.30653 1.01293 0.09281
 C225 C 0.30547 0.98388 0.09287
 C226 C 0.29390 0.97567 0.06395
 N227 N 0.28780 0.99876 0.04641
 C228 C 0.28722 0.94752 0.05550
 H229 H 0.26363 0.89594 0.03099
 H230 H 0.26153 0.89520 -0.03175
 H231 H 0.27621 0.99891 0.02539
 H232 H 0.30907 0.96935 -0.11706
 H233 H 0.31075 1.02501 -0.11734
 H234 H 0.26368 1.09941 -0.03354
 H235 H 0.26557 1.09996 0.02901
 H236 H 0.31223 0.97033 0.11212
 H237 H 0.27292 0.99819 -0.03019
 H238 H 0.31447 1.02613 0.11198
 C239 C 0.77797 0.41571 0.51892
 C240 C 0.77825 0.41573 0.48620
 C241 C 0.78580 0.44292 0.47683
 N242 N 0.79036 0.45941 0.50272
 C243 C 0.78535 0.44288 0.52848
 C244 C 0.78931 0.45175 0.44484
 C245 C 0.79367 0.48025 0.43569
 C246 C 0.80214 0.48896 0.40553
 C247 C 0.80191 0.51804 0.40557
 C248 C 0.79331 0.52629 0.43574
 N249 N 0.78825 0.50313 0.45391
 C250 C 0.78853 0.55456 0.44496
 C251 C 0.78490 0.56319 0.47697
 C252 C 0.77707 0.59004 0.48638
 C253 C 0.77680 0.59002 0.51911
 C254 C 0.78447 0.56315 0.52862
 N255 N 0.78964 0.54687 0.50283
 C256 C 0.78756 0.55447 0.56067
 C257 C 0.79216 0.52618 0.56992
 C258 C 0.80026 0.51787 0.60024
 C259 C 0.80049 0.48879 0.60020
 C260 C 0.79252 0.48014 0.56986
 N261 N 0.78741 0.50306 0.55160
 C262 C 0.78832 0.45166 0.56056
 H263 H 0.77282 0.39774 0.53394
 H264 H 0.77336 0.39779 0.47105
 H265 H 0.77786 0.50285 0.52937
 H266 H 0.80759 0.47572 0.38545
 H267 H 0.80715 0.53156 0.38552
 H268 H 0.77201 0.60780 0.47126
 H269 H 0.77149 0.60775 0.53416
 H270 H 0.80561 0.47551 0.62035
 H271 H 0.77833 0.50288 0.47595
 H272 H 0.80517 0.53135 0.62042
 O273 O 0.23449 0.26822 0.20685
 O274 O 0.29561 0.25529 0.25809
 O275 O 0.27465 0.23224 0.20639
 O276 O 0.25511 0.29166 0.25821
 O277 O 0.22991 0.26245 0.28812
 O278 O 0.24971 0.20296 0.23652
 O279 O 0.27000 0.22640 0.28792
 O280 O 0.20898 0.23914 0.23655
 Cu281 Cu 0.26756 0.26478 0.22946
 Cu282 Cu 0.23703 0.22982 0.26519
 C283 C 0.21134 0.25567 0.21275
 C284 C 0.29320 0.23883 0.28196
 C285 C 0.26536 0.20750 0.21246
 C286 C 0.23938 0.28715 0.28221
 O287 O 0.70746 0.74565 0.26222
 O288 O 0.76849 0.73129 0.21135
 O289 O 0.74702 0.70834 0.26259
 O290 O 0.72933 0.76847 0.21110
 O291 O 0.75525 0.79683 0.24116
 O292 O 0.77296 0.73664 0.29270
 O293 O 0.79471 0.75937 0.24142
 O294 O 0.73358 0.77376 0.29235
 Cu295 Cu 0.73544 0.73559 0.23386
 Cu296 Cu 0.76675 0.76950 0.26989
 C297 C 0.71010 0.76201 0.28612
 C298 C 0.79199 0.74302 0.21750
 C299 C 0.76288 0.71222 0.28658
 C300 C 0.73945 0.79289 0.21713
 O301 O 0.79596 0.24651 0.24132
 O302 O 0.73448 0.23146 0.29205
 O303 O 0.75583 0.20849 0.24106
 O304 O 0.77437 0.26924 0.29233
 O305 O 0.74890 0.29696 0.26199
 O306 O 0.73072 0.23641 0.21053
 O307 O 0.70887 0.25893 0.26157
 O308 O 0.77041 0.27422 0.21105
 Cu309 Cu 0.76773 0.23612 0.26970
 Cu310 Cu 0.73713 0.26941 0.23330
 C311 C 0.79366 0.26278 0.21735
 C312 C 0.71120 0.24279 0.28564
 C313 C 0.74035 0.21215 0.21680
 C314 C 0.76461 0.29345 0.28608
 O315 O 0.25411 0.70363 0.25855
 O316 O 0.27289 0.76481 0.20796
 O317 O 0.29404 0.74192 0.25911
 O318 O 0.23332 0.72696 0.20733
 O319 O 0.20695 0.75353 0.23812
 O320 O 0.26806 0.76956 0.28905
 O321 O 0.24662 0.79213 0.23795
 O322 O 0.22885 0.73129 0.28929
 Cu323 Cu 0.26621 0.73154 0.23027
 Cu324 Cu 0.23497 0.76438 0.26656
 C325 C 0.23861 0.70712 0.28287
 C326 C 0.26269 0.78887 0.21407
 C327 C 0.29143 0.75821 0.28303
 C328 C 0.20982 0.73786 0.21373
 O329 O 0.75275 0.20778 0.76298
 O330 O 0.77108 0.26863 0.71177
 O331 O 0.79255 0.24623 0.76280
 O332 O 0.73150 0.23053 0.71175
 O333 O 0.70553 0.25808 0.74179
 O334 O 0.76632 0.27314 0.79337
 O335 O 0.74547 0.29621 0.74221
 O336 O 0.72670 0.23534 0.79293
 Cu337 Cu 0.76457 0.23549 0.73434
 Cu338 Cu 0.73337 0.26847 0.77054
 C339 C 0.73677 0.21122 0.78690
 C340 C 0.76131 0.29282 0.71816
 C341 C 0.78979 0.26215 0.78700
 C342 C 0.70814 0.24187 0.71782
 O343 O 0.29070 0.74094 0.73806
 O344 O 0.22884 0.72574 0.78813
 O345 O 0.25047 0.70296 0.73723
 O346 O 0.26862 0.76334 0.78916
 O347 O 0.24389 0.79151 0.75847
 O348 O 0.22561 0.73108 0.70665
 O349 O 0.20356 0.75363 0.75777
 O350 O 0.26542 0.76876 0.70763
 Cu351 Cu 0.26222 0.73042 0.76612
 Cu352 Cu 0.23203 0.76403 0.72964
 C353 C 0.28860 0.75728 0.71412
 C354 C 0.20569 0.73734 0.78175
 C355 C 0.23516 0.70677 0.71287
 C356 C 0.25917 0.78768 0.78285
 O357 O 0.25031 0.29085 0.73665
 O358 O 0.26914 0.23143 0.78878
 O359 O 0.29096 0.25470 0.73760
 O360 O 0.22880 0.26743 0.78743
 O361 O 0.20419 0.23766 0.75769
 O362 O 0.26597 0.22593 0.70702
 O363 O 0.24521 0.20198 0.75788
 O364 O 0.22549 0.26161 0.70643
 Cu365 Cu 0.26233 0.26401 0.76562
 Cu366 Cu 0.23265 0.22890 0.72927
 C367 C 0.23484 0.28634 0.71248
 C368 C 0.26033 0.20659 0.78233
 C369 C 0.28902 0.23839 0.71355
 C370 C 0.20594 0.25444 0.78132
 O371 O 0.73106 0.77433 0.71159
 O372 O 0.79155 0.75955 0.76326
 O373 O 0.77015 0.73692 0.71190
 O374 O 0.75236 0.79742 0.76300
 O375 O 0.72562 0.76944 0.79264
 O376 O 0.74393 0.70887 0.74205
 O377 O 0.76460 0.73228 0.79356
 O378 O 0.70447 0.74631 0.74136
 Cu379 Cu 0.76395 0.76990 0.73447
 Cu380 Cu 0.73196 0.73639 0.77032
 C381 C 0.70747 0.76261 0.71745
 C382 C 0.78830 0.74363 0.78746
 C383 C 0.76000 0.71256 0.71815
 C384 C 0.73613 0.79372 0.78675
 C385 C 0.28615 0.11497 0.12539
 C386 C 0.27163 0.08910 0.12960
 C387 C 0.27385 0.06741 0.10712
 C388 C 0.29011 0.07122 0.07936
 C389 C 0.30511 0.09685 0.07550
 C390 C 0.30341 0.11826 0.09835
 C391 C 0.28237 0.13877 0.14831
 C392 C 0.28309 0.16699 0.13756
 C393 C 0.27839 0.18930 0.15865
 C394 C 0.27223 0.18394 0.19085
 C395 C 0.27166 0.15590 0.20181
 C396 C 0.27700 0.13358 0.18087
 H397 H 0.26163 0.04816 0.11065
 H398 H 0.31840 0.10023 0.05482
 H399 H 0.27865 0.21073 0.14951
 H400 H 0.26719 0.15124 0.22663
 H401 H 0.31562 0.13746 0.09467
 H402 H 0.28647 0.17195 0.11263
 H403 H 0.25768 0.08584 0.14969
 H404 H 0.27688 0.11227 0.19028
 C405 C 0.78003 0.61925 0.63202
 C406 C 0.75888 0.59844 0.62820
 C407 C 0.76168 0.57707 0.60547
 C408 C 0.78554 0.57619 0.58603
 C409 C 0.80692 0.59653 0.59002
 C410 C 0.80423 0.61784 0.61290
 C411 C 0.77630 0.64287 0.65499
 C412 C 0.78515 0.67048 0.64704
 C413 C 0.78039 0.69297 0.66786
 C414 C 0.76648 0.68844 0.69703
 C415 C 0.75803 0.66079 0.70527
 C416 C 0.76297 0.63824 0.68453
 H417 H 0.74496 0.56154 0.60250
 H418 H 0.82552 0.59601 0.57521
 H419 H 0.78704 0.71404 0.66073
 H420 H 0.74743 0.65657 0.72767
 H421 H 0.82109 0.63324 0.61556
 H422 H 0.79507 0.67488 0.62429
 H423 H 0.73980 0.59913 0.64214
 H424 H 0.75630 0.61718 0.69163
 C425 C 0.72187 0.88458 0.12862
 C426 C 0.71086 0.91078 0.13747
 C427 C 0.70823 0.93241 0.11495
 C428 C 0.71687 0.92849 0.08304
 C429 C 0.72816 0.90212 0.07456
 C430 C 0.73047 0.88048 0.09697
 C431 C 0.72472 0.86150 0.15223
 C432 C 0.71662 0.83372 0.14423
 C433 C 0.72074 0.81159 0.16568
 C434 C 0.73332 0.81672 0.19548
 C435 C 0.74094 0.84461 0.20374
 C436 C 0.73653 0.86683 0.18237
 H437 H 0.69867 0.95196 0.12237
 H438 H 0.73601 0.89839 0.05069
 H439 H 0.71462 0.79035 0.15860
 H440 H 0.75063 0.84923 0.22655
 H441 H 0.73955 0.86065 0.08969
 H442 H 0.70720 0.82912 0.12126
 H443 H 0.70379 0.91433 0.16169
 H444 H 0.74311 0.88804 0.18901
 C445 C 0.21725 0.37807 0.62427
 C446 C 0.19980 0.40108 0.63045
 C447 C 0.19719 0.42277 0.60796
 C448 C 0.21241 0.42203 0.57925
 C449 C 0.23034 0.39930 0.57352
 C450 C 0.23249 0.37739 0.59563
 C451 C 0.21982 0.35474 0.64753
 C452 C 0.21654 0.32656 0.63751
 C453 C 0.22050 0.30435 0.65894
 C454 C 0.22835 0.30991 0.69067
 C455 C 0.23123 0.33815 0.70081
 C456 C 0.22671 0.36039 0.67949
 H457 H 0.18322 0.44007 0.61285
 H458 H 0.24258 0.39847 0.55176
 H459 H 0.21824 0.28281 0.65042
 H460 H 0.23719 0.34304 0.72515
 H461 H 0.24636 0.36003 0.59058
 H462 H 0.21108 0.32175 0.61299
 H463 H 0.18784 0.40197 0.65240
 H464 H 0.22947 0.38198 0.68766
 C465 C 0.88744 0.27724 0.13074
 C466 C 0.90660 0.25507 0.12767
 C467 C 0.92778 0.25634 0.10466
 C468 C 0.93009 0.27968 0.08417
 C469 C 0.91144 0.30209 0.08744
 C470 C 0.89037 0.30095 0.11061
 C471 C 0.86383 0.27504 0.15387
 C472 C 0.83714 0.28490 0.14567
 C473 C 0.81455 0.28150 0.16662
 C474 C 0.81803 0.26796 0.19616
 C475 C 0.84478 0.25852 0.20465
 C476 C 0.86745 0.26212 0.18380
 H477 H 0.94196 0.23880 0.10225
 H478 H 0.91306 0.32028 0.07180
 H479 H 0.79418 0.28888 0.15928
 H480 H 0.84818 0.24817 0.22735
 H481 H 0.87629 0.31859 0.11267
 H482 H 0.83346 0.29451 0.12264
 H483 H 0.90472 0.23632 0.14237
 H484 H 0.88781 0.25472 0.19111
 C485 C 0.38310 0.77284 0.62863
 C486 C 0.40210 0.75061 0.62483
 C487 C 0.42363 0.75256 0.60229
 C488 C 0.42646 0.77664 0.58302
 C489 C 0.40793 0.79907 0.58698
 C490 C 0.38649 0.79724 0.60967
 C491 C 0.35927 0.77010 0.65141
 C492 C 0.33275 0.78048 0.64336
 C493 C 0.31000 0.77682 0.66402
 C494 C 0.31315 0.76252 0.69317
 C495 C 0.33972 0.75248 0.70149
 C496 C 0.36254 0.75632 0.68090
 H497 H 0.43776 0.73504 0.59934
 H498 H 0.40997 0.81784 0.57231
 H499 H 0.28978 0.78467 0.65681
 H500 H 0.34286 0.74152 0.72387
 H501 H 0.37254 0.81492 0.61233
 H502 H 0.32934 0.79077 0.62064
 H503 H 0.39987 0.73136 0.63864
 H504 H 0.38276 0.74847 0.68808
 C505 C 0.11653 0.72359 0.12640
 C506 C 0.09249 0.74015 0.13018
 C507 C 0.07078 0.73887 0.10784
 C508 C 0.07277 0.72152 0.08066
 C509 C 0.09657 0.70460 0.07717
 C510 C 0.11798 0.70540 0.09987
 C511 C 0.14034 0.72597 0.14936
 C512 C 0.16814 0.72293 0.13877
 C513 C 0.19057 0.72603 0.15992
 C514 C 0.18586 0.73284 0.19206
 C515 C 0.15821 0.73581 0.20285
 C516 C 0.13568 0.73211 0.18183
 H517 H 0.05291 0.75244 0.11109
 H518 H 0.09842 0.69039 0.05701
 H519 H 0.21170 0.72395 0.15087
 H520 H 0.15400 0.74086 0.22759
 H521 H 0.13567 0.69167 0.09656
 H522 H 0.17274 0.71889 0.11391
 H523 H 0.09073 0.75481 0.14988
 H524 H 0.11464 0.73402 0.19112
 C525 C 0.61517 0.22745 0.63030
 C526 C 0.59634 0.24982 0.62662
 C527 C 0.57515 0.24834 0.60369
 C528 C 0.57250 0.22457 0.58391
 C529 C 0.59088 0.20201 0.58771
 C530 C 0.61199 0.20338 0.61078
 C531 C 0.63859 0.22969 0.65361
 C532 C 0.66524 0.21944 0.64587
 C533 C 0.68764 0.22281 0.66704
 C534 C 0.68398 0.23669 0.69637
 C535 C 0.65724 0.24650 0.70440
 C536 C 0.63478 0.24296 0.68331
 H537 H 0.56114 0.26597 0.60087
 H538 H 0.58897 0.18347 0.57263
 H539 H 0.70801 0.21514 0.66006
 H540 H 0.65369 0.25712 0.72692
 H541 H 0.62583 0.18560 0.61332
 H542 H 0.66904 0.20952 0.62301
 H543 H 0.59844 0.26884 0.64087
 H544 H 0.61443 0.25066 0.69027
 C545 C 0.71888 0.11926 0.87567
 C546 C 0.72807 0.12364 0.90708
 C547 C 0.72579 0.10208 0.92967
 C548 C 0.71383 0.07554 0.92167
 C549 C 0.70473 0.07127 0.88996
 C550 C 0.70736 0.09283 0.86722
 C551 C 0.72168 0.14230 0.85191
 C552 C 0.73328 0.13719 0.82167
 C553 C 0.73778 0.15949 0.80023
 C554 C 0.73043 0.18722 0.80851
 C555 C 0.71798 0.19208 0.83839
 C556 C 0.71380 0.16988 0.85991
 H557 H 0.73422 0.10602 0.95327
 H558 H 0.69491 0.05145 0.88285
 H559 H 0.74736 0.15509 0.77735
 H560 H 0.71208 0.21319 0.84550
 H561 H 0.69993 0.08903 0.84316
 H562 H 0.73966 0.11612 0.81504
 H563 H 0.73761 0.14365 0.91401
 H564 H 0.70456 0.17430 0.88297
 C565 C 0.22131 0.61428 0.37051
 C566 C 0.23601 0.61546 0.39948
 C567 C 0.23327 0.59359 0.42167
 C568 C 0.21528 0.57041 0.41566
 C569 C 0.20066 0.56915 0.38658
 C570 C 0.20385 0.59080 0.36403
 C571 C 0.22415 0.63776 0.34738
 C572 C 0.23153 0.63253 0.31550
 C573 C 0.23598 0.65504 0.29430
 C574 C 0.23253 0.68310 0.30451
 C575 C 0.22430 0.68818 0.33618
 C576 C 0.22041 0.66575 0.35747
 H577 H 0.24507 0.59483 0.44372
 H578 H 0.18666 0.55147 0.38147
 H579 H 0.24226 0.65053 0.27000
 H580 H 0.22161 0.70957 0.34477
 H581 H 0.19228 0.58954 0.34184
 H582 H 0.23463 0.61109 0.30728
 H583 H 0.24984 0.63322 0.40478
 H584 H 0.21457 0.67023 0.38192
 C585 C 0.27893 0.88102 0.87010
 C586 C 0.26430 0.90641 0.86620
 C587 C 0.26683 0.92818 0.88865
 C588 C 0.28347 0.92489 0.91607
 C589 C 0.29861 0.89978 0.91956
 C590 C 0.29660 0.87831 0.89676
 C591 C 0.27504 0.85711 0.84718
 C592 C 0.27610 0.82891 0.85786
 C593 C 0.27169 0.80643 0.83674
 C594 C 0.26548 0.81155 0.80455
 C595 C 0.26443 0.83959 0.79369
 C596 C 0.26947 0.86212 0.81467
 H597 H 0.25467 0.94711 0.88533
 H598 H 0.31234 0.89689 0.93984
 H599 H 0.27229 0.78501 0.84584
 H600 H 0.25988 0.84410 0.76890
 H601 H 0.30895 0.85955 0.90014
 H602 H 0.27963 0.82406 0.88276
 H603 H 0.25013 0.90922 0.84636
 H604 H 0.26904 0.88343 0.80533
 C605 C 0.78343 0.38686 0.37317
 C606 C 0.76224 0.40703 0.37642
 C607 C 0.76451 0.42843 0.39928
 C608 C 0.78788 0.42997 0.41942
 C609 C 0.80930 0.41025 0.41604
 C610 C 0.80714 0.38891 0.39305
 C611 C 0.78024 0.36326 0.34995
 C612 C 0.78872 0.33582 0.35800
 C613 C 0.78425 0.31329 0.33694
 C614 C 0.77104 0.31763 0.30742
 C615 C 0.76307 0.34513 0.29907
 C616 C 0.76771 0.36770 0.32004
 H617 H 0.74775 0.44346 0.40177
 H618 H 0.82753 0.41129 0.43140
 H619 H 0.79053 0.29233 0.34414
 H620 H 0.75303 0.34920 0.27640
 H621 H 0.82401 0.37399 0.39085
 H622 H 0.79805 0.33156 0.38101
 H623 H 0.74351 0.40582 0.36190
 H624 H 0.76138 0.38864 0.31285
 C625 C 0.11296 0.26586 0.86876
 C626 C 0.10230 0.29227 0.87764
 C627 C 0.08129 0.29408 0.90078
 C628 C 0.07065 0.26950 0.91559
 C629 C 0.08125 0.24310 0.90669
 C630 C 0.10207 0.24129 0.88336
 C631 C 0.13602 0.26394 0.84516
 C632 C 0.13538 0.24306 0.82129
 C633 C 0.15778 0.24042 0.80002
 C634 C 0.18139 0.25843 0.80239
 C635 C 0.18181 0.27960 0.82596
 C636 C 0.15930 0.28240 0.84702
 H637 H 0.07367 0.31469 0.90756
 H638 H 0.07344 0.22390 0.91792
 H639 H 0.15683 0.22390 0.78214
 H640 H 0.19968 0.29382 0.82839
 H641 H 0.11017 0.22071 0.87727
 H642 H 0.11756 0.22874 0.81915
 H643 H 0.11024 0.31152 0.86665
 H644 H 0.16046 0.29850 0.86537
 C645 C 0.61612 0.77599 0.37199
 C646 C 0.61329 0.80008 0.39140
 C647 C 0.59181 0.80143 0.41403
 C648 C 0.57271 0.77883 0.41750
 C649 C 0.57501 0.75505 0.39779
 C650 C 0.59656 0.75358 0.37530
 C651 C 0.63988 0.77376 0.34916
 C652 C 0.66669 0.78413 0.35739
 C653 C 0.68934 0.78085 0.33663
 C654 C 0.68577 0.76694 0.30724
 C655 C 0.65891 0.75696 0.29875
 C656 C 0.63621 0.76042 0.31942
 H657 H 0.59019 0.81997 0.42907
 H658 H 0.56046 0.73738 0.40036
 H659 H 0.70980 0.78865 0.34395
 H660 H 0.65544 0.74632 0.27618
 H661 H 0.59836 0.73455 0.36113
 H662 H 0.67038 0.79411 0.38029
 H663 H 0.62769 0.81788 0.38914
 H664 H 0.61577 0.75262 0.31209
 C665 C 0.88112 0.72796 0.87450
 C666 C 0.87870 0.70975 0.90096
 C667 C 0.90014 0.70823 0.92352
 C668 C 0.92493 0.72441 0.91993
 C669 C 0.92787 0.74175 0.89280
 C670 C 0.90613 0.74378 0.87062
 C671 C 0.85737 0.73108 0.85168
 C672 C 0.86222 0.73720 0.81921
 C673 C 0.83982 0.74128 0.79828
 C674 C 0.81208 0.73870 0.80916
 C675 C 0.80713 0.73205 0.84133
 C676 C 0.82946 0.72861 0.86240
 H677 H 0.89751 0.69405 0.94365
 H678 H 0.94655 0.75474 0.88949
 H679 H 0.84418 0.74620 0.77350
 H680 H 0.78592 0.73028 0.85043
 H681 H 0.90870 0.75843 0.85096
 H682 H 0.88332 0.73871 0.80983
 H683 H 0.86022 0.69653 0.90433
 H684 H 0.82472 0.72465 0.88728
 C685 C 0.38599 0.22686 0.36970
 C686 C 0.38914 0.20253 0.38866
 C687 C 0.41014 0.20143 0.41182
 C688 C 0.42848 0.22452 0.41625
 C689 C 0.42589 0.24856 0.39702
 C690 C 0.40478 0.24978 0.37401
 C691 C 0.36262 0.22874 0.34636
 C692 C 0.36641 0.24269 0.31698
 C693 C 0.34399 0.24564 0.29582
 C694 C 0.31734 0.23455 0.30348
 C695 C 0.31370 0.22010 0.33254
 C696 C 0.33603 0.21732 0.35376
 H697 H 0.41203 0.18268 0.42645
 H698 H 0.43988 0.26658 0.40032
 H699 H 0.34751 0.25676 0.27354
 H700 H 0.29340 0.21145 0.33925
 H701 H 0.40271 0.26898 0.36020
 H702 H 0.38671 0.25133 0.31030
 H703 H 0.37535 0.18434 0.38563
 H704 H 0.33222 0.20687 0.37637
 C705 C 0.71924 0.88540 0.87544
 C706 C 0.70829 0.91170 0.86692
 C707 C 0.70591 0.93321 0.88966
 C708 C 0.71475 0.92905 0.92145
 C709 C 0.72608 0.90261 0.92953
 C710 C 0.72811 0.88110 0.90692
 C711 C 0.72176 0.86241 0.85167
 C712 C 0.71333 0.83471 0.85957
 C713 C 0.71727 0.81258 0.83806
 C714 C 0.73001 0.81762 0.80831
 C715 C 0.73792 0.84546 0.80012
 C716 C 0.73366 0.86769 0.82154
 H717 H 0.69641 0.95286 0.88248
 H718 H 0.73420 0.89871 0.95322
 H719 H 0.71094 0.79138 0.84510
 H720 H 0.74774 0.85001 0.77734
 H721 H 0.73719 0.86119 0.91393
 H722 H 0.70385 0.83016 0.88254
 H723 H 0.70108 0.91543 0.84280
 H724 H 0.74048 0.88885 0.81498
 C725 C 0.22037 0.37852 0.37052
 C726 C 0.20305 0.40155 0.36400
 C727 C 0.19988 0.42311 0.38656
 C728 C 0.21441 0.42220 0.41569
 C729 C 0.23219 0.39944 0.42180
 C730 C 0.23490 0.37767 0.39960
 C731 C 0.22345 0.35531 0.34721
 C732 C 0.21991 0.32710 0.35700
 C733 C 0.22423 0.30499 0.33554
 C734 C 0.23269 0.31067 0.30402
 C735 C 0.23587 0.33895 0.29411
 C736 C 0.23101 0.36110 0.31546
 H737 H 0.18604 0.44044 0.38138
 H738 H 0.24390 0.39850 0.44391
 H739 H 0.22172 0.28342 0.34388
 H740 H 0.24231 0.34392 0.26994
 H741 H 0.24864 0.36028 0.40493
 H742 H 0.21394 0.32219 0.38135
 H743 H 0.19162 0.40257 0.34172
 H744 H 0.23397 0.38272 0.30748
 C745 C 0.28185 0.11391 0.86901
 C746 C 0.29971 0.11719 0.89548
 C747 C 0.30182 0.09583 0.91832
 C748 C 0.28656 0.07027 0.91507
 C749 C 0.26977 0.06642 0.88776
 C750 C 0.26718 0.08806 0.86527
 C751 C 0.27767 0.13771 0.84620
 C752 C 0.27186 0.13255 0.81375
 C753 C 0.26639 0.15491 0.79291
 C754 C 0.26719 0.18297 0.80388
 C755 C 0.27368 0.18827 0.83600
 C756 C 0.27857 0.16593 0.85697
 H757 H 0.31562 0.09921 0.93854
 H758 H 0.25743 0.04720 0.88464
 H759 H 0.26165 0.15026 0.76817
 H760 H 0.27414 0.20968 0.84517
 H761 H 0.25285 0.08480 0.84556
 H762 H 0.27154 0.11124 0.80434
 H763 H 0.31207 0.13635 0.89873
 H764 H 0.28229 0.17085 0.88185
 C765 C 0.78194 0.61932 0.37349
 C766 C 0.80581 0.61805 0.39311
 C767 C 0.80819 0.59675 0.41605
 C768 C 0.78685 0.57631 0.41960
 C769 C 0.76331 0.57708 0.39970
 C770 C 0.76082 0.59843 0.37691
 C771 C 0.77853 0.64286 0.35035
 C772 C 0.76575 0.63806 0.32057
 C773 C 0.76104 0.66051 0.29965
 C774 C 0.76919 0.68823 0.30793
 C775 C 0.78259 0.69294 0.33735
 C776 C 0.78711 0.67054 0.35836
 H777 H 0.82654 0.59632 0.43123
 H778 H 0.74661 0.56148 0.40233
 H779 H 0.75085 0.65616 0.27705
 H780 H 0.78899 0.71407 0.34450
 H781 H 0.74197 0.59902 0.36259
 H782 H 0.75933 0.61694 0.31342
 H783 H 0.82264 0.63352 0.39077
 H784 H 0.79662 0.67506 0.38128
 C785 C 0.11199 0.72393 0.86874
 C786 C 0.09269 0.74602 0.87148
 C787 C 0.07155 0.74492 0.89457
 C788 C 0.06945 0.72187 0.91548
 C789 C 0.08823 0.69955 0.91255
 C790 C 0.10923 0.70048 0.88929
 C791 C 0.13555 0.72591 0.84551
 C792 C 0.16224 0.71607 0.85375
 C793 C 0.18478 0.71915 0.83269
 C794 C 0.18128 0.73240 0.80298
 C795 C 0.15456 0.74187 0.79445
 C796 C 0.13192 0.73855 0.81542
 H797 H 0.05723 0.76237 0.89670
 H798 H 0.08674 0.68155 0.92848
 H799 H 0.20514 0.71180 0.84009
 H800 H 0.15116 0.75201 0.77164
 H801 H 0.12336 0.68287 0.88748
 H802 H 0.16597 0.70670 0.87690
 H803 H 0.09442 0.76458 0.85645
 H804 H 0.11157 0.74594 0.80806
 C805 C 0.61721 0.22818 0.37193
 C806 C 0.59825 0.25049 0.37539
 C807 C 0.57675 0.24887 0.39800
 C808 C 0.57392 0.22504 0.41767
 C809 C 0.59244 0.20256 0.41408
 C810 C 0.61386 0.20406 0.39134
 C811 C 0.64091 0.23055 0.34896
 C812 C 0.66749 0.22035 0.35705
 C813 C 0.69013 0.22377 0.33617
 C814 C 0.68679 0.23764 0.30680
 C815 C 0.66014 0.24743 0.29843
 C816 C 0.63744 0.24384 0.31922
 H817 H 0.56263 0.26643 0.40064
 H818 H 0.59039 0.18397 0.42906
 H819 H 0.71042 0.21611 0.34341
 H820 H 0.65684 0.25805 0.27587
 H821 H 0.62779 0.18634 0.38896
 H822 H 0.67103 0.21042 0.37994
 H823 H 0.60047 0.26954 0.36123
 H824 H 0.61715 0.25151 0.31201
 C825 C 0.88372 0.27776 0.87304
 C826 C 0.90728 0.26045 0.86988
 C827 C 0.92904 0.26181 0.89214
 C828 C 0.92755 0.28005 0.91862
 C829 C 0.90429 0.29781 0.92138
 C830 C 0.88282 0.29686 0.89876
 C831 C 0.85975 0.27511 0.85038
 C832 C 0.83208 0.27880 0.86108
 C833 C 0.80947 0.27529 0.84025
 C834 C 0.81390 0.26746 0.80836
 C835 C 0.84144 0.26392 0.79746
 C836 C 0.86413 0.26798 0.81814
 H837 H 0.94647 0.24759 0.88947
 H838 H 0.90285 0.31265 0.94100
 H839 H 0.78842 0.27789 0.84938
 H840 H 0.84544 0.25811 0.77288
 H841 H 0.86548 0.31113 0.90154
 H842 H 0.82771 0.28366 0.88582
 H843 H 0.90859 0.24511 0.85079
 H844 H 0.88509 0.26553 0.80879
 C845 C 0.38444 0.77346 0.37047
 C846 C 0.40349 0.75128 0.37426
 C847 C 0.42474 0.75310 0.39712
 C848 C 0.42722 0.77699 0.41673
 C849 C 0.40861 0.79935 0.41283
 C850 C 0.38745 0.79766 0.38982
 C851 C 0.36099 0.77089 0.34721
 C852 C 0.33429 0.78108 0.35487
 C853 C 0.31189 0.77752 0.33372
 C854 C 0.31559 0.76349 0.30448
 C855 C 0.34235 0.75369 0.29654
 C856 C 0.36481 0.75743 0.31761
 H857 H 0.43892 0.73562 0.40001
 H858 H 0.41038 0.81799 0.42777
 H859 H 0.29151 0.78519 0.34064
 H860 H 0.34592 0.74294 0.27411
 H861 H 0.37345 0.81529 0.38720
 H862 H 0.33046 0.79114 0.37764
 H863 H 0.40154 0.73217 0.36016
 H864 H 0.38519 0.74975 0.31071
 C865 C 0.28151 0.88261 0.12722
 C866 C 0.26133 0.90396 0.12554
 C867 C 0.26363 0.92544 0.10274
 C868 C 0.28596 0.92584 0.08103
 C869 C 0.30639 0.90495 0.08284
 C870 C 0.30429 0.88361 0.10583
 C871 C 0.27819 0.85886 0.15032
 C872 C 0.28555 0.83122 0.14162
 C873 C 0.28116 0.80864 0.16264
 C874 C 0.26903 0.81309 0.19275
 C875 C 0.26206 0.84073 0.20172
 C876 C 0.26672 0.86338 0.18082
 H877 H 0.24761 0.94138 0.10147
 H878 H 0.32382 0.90508 0.06625
 H879 H 0.28659 0.78756 0.15494
 H880 H 0.25286 0.84487 0.22487
 H881 H 0.32047 0.86784 0.10679
 H882 H 0.29396 0.82683 0.11816
 H883 H 0.24328 0.90365 0.14121
 H884 H 0.26128 0.88443 0.18856
 C885 C 0.78129 0.38660 0.63189
 C886 C 0.76016 0.40678 0.62834
 C887 C 0.76279 0.42824 0.60559
 C888 C 0.78649 0.42984 0.58589
 C889 C 0.80786 0.41012 0.58961
 C890 C 0.80533 0.38871 0.61248
 C891 C 0.77771 0.36290 0.65491
 C892 C 0.78629 0.33550 0.64683
 C893 C 0.78153 0.31288 0.66768
 C894 C 0.76792 0.31709 0.69702
 C895 C 0.75981 0.34455 0.70540
 C896 C 0.76474 0.36721 0.68463
 H897 H 0.74607 0.44328 0.60284
 H898 H 0.82633 0.41120 0.57460
 H899 H 0.78792 0.29196 0.66046
 H900 H 0.74946 0.34852 0.72794
 H901 H 0.82216 0.37379 0.61494
 H902 H 0.79595 0.33135 0.62395
 H903 H 0.74120 0.40553 0.64250
 H904 H 0.75831 0.38812 0.69183
 C905 C 0.72225 0.11971 0.12884
 C906 C 0.73491 0.12206 0.09869
 C907 C 0.73224 0.10019 0.07650
 C908 C 0.71641 0.07574 0.08378
 C909 C 0.70376 0.07334 0.11398
 C910 C 0.70685 0.09506 0.13645
 C911 C 0.72525 0.14306 0.15213
 C912 C 0.73407 0.13777 0.18349
 C913 C 0.73868 0.16018 0.20475
 C914 C 0.73407 0.18821 0.19513
 C915 C 0.72442 0.19333 0.16402
 C916 C 0.72027 0.17100 0.14267
 H917 H 0.74253 0.10235 0.05355
 H918 H 0.69140 0.05470 0.12007
 H919 H 0.74606 0.15561 0.22861
 H920 H 0.72075 0.21470 0.15589
 H921 H 0.69684 0.09286 0.15954
 H922 H 0.73817 0.11638 0.19124
 H923 H 0.74719 0.14071 0.09246
 H924 H 0.71325 0.17555 0.11865
 C925 C 0.21843 0.61434 0.62460
 C926 C 0.20075 0.59093 0.63064
 C927 C 0.19801 0.56923 0.60807
 C928 C 0.21333 0.57038 0.57942
 C929 C 0.23151 0.59351 0.57385
 C930 C 0.23379 0.61542 0.59604
 C931 C 0.22097 0.63776 0.64785
 C932 C 0.21766 0.66581 0.63777
 C933 C 0.22141 0.68817 0.65921
 C934 C 0.22908 0.68292 0.69101
 C935 C 0.23205 0.65479 0.70119
 C936 C 0.22774 0.63238 0.67985
 H937 H 0.18385 0.55161 0.61284
 H938 H 0.24383 0.59466 0.55214
 H939 H 0.21909 0.70962 0.65066
 H940 H 0.23788 0.65015 0.72558
 H941 H 0.24781 0.63312 0.59110
 H942 H 0.21230 0.67041 0.61321
 H943 H 0.18869 0.58973 0.65252
 H944 H 0.23050 0.61089 0.68806
 C945 C 0.88547 0.72784 0.13113
 C946 C 0.88713 0.70416 0.11087
 C947 C 0.90825 0.70252 0.08787
 C948 C 0.92826 0.72436 0.08492
 C949 C 0.92727 0.74761 0.10558
 C950 C 0.90599 0.74942 0.12841
 C951 C 0.86182 0.73057 0.15406
 C952 C 0.86589 0.74330 0.18409
 C953 C 0.84330 0.74709 0.20488
 C954 C 0.81619 0.73799 0.19623
 C955 C 0.81221 0.72476 0.16652
 C956 C 0.83470 0.72122 0.14564
 H957 H 0.90887 0.68439 0.07210
 H958 H 0.94253 0.76470 0.10341
 H959 H 0.84707 0.75720 0.22770
 H960 H 0.79154 0.71769 0.15905
 H961 H 0.90515 0.76813 0.14323
 H962 H 0.88655 0.75034 0.19158
 H963 H 0.87202 0.68692 0.11269
 H964 H 0.83066 0.71180 0.12252
 C965 C 0.38357 0.22671 0.62796
 C966 C 0.38706 0.20242 0.60901
 C967 C 0.40854 0.20133 0.58637
 C968 C 0.42701 0.22438 0.58245
 C969 C 0.42408 0.24838 0.60169
 C970 C 0.40250 0.24959 0.62419
 C971 C 0.35972 0.22859 0.65071
 C972 C 0.36291 0.24245 0.68023
 C973 C 0.34007 0.24534 0.70086
 C974 C 0.31358 0.23428 0.69252
 C975 C 0.31051 0.21996 0.66331
 C976 C 0.33326 0.21724 0.64262
 H977 H 0.41067 0.18261 0.57172
 H978 H 0.43818 0.26638 0.59878
 H979 H 0.34315 0.25636 0.72328
 H980 H 0.29034 0.21134 0.65608
 H981 H 0.40019 0.26877 0.63799
 H982 H 0.38308 0.25105 0.68743
 H983 H 0.37317 0.18425 0.61165
 H984 H 0.32991 0.20687 0.61987
 C985 C 0.11812 0.26780 0.12561
 C986 C 0.11494 0.29221 0.10680
 C987 C 0.09350 0.29365 0.08419
 C988 C 0.07477 0.27083 0.08017
 C989 C 0.07748 0.24665 0.09913
 C990 C 0.09902 0.24508 0.12160
 C991 C 0.14167 0.26571 0.14867
 C992 C 0.16828 0.27699 0.14103
 C993 C 0.19071 0.27421 0.16213
 C994 C 0.18714 0.25990 0.19128
 C995 C 0.16050 0.24890 0.19914
 C996 C 0.13800 0.25186 0.17812
 H997 H 0.09152 0.31251 0.06974
 H998 H 0.06317 0.22885 0.09614
 H999 H 0.21101 0.28277 0.15527
 H1000 H 0.15705 0.23789 0.22150
 H1001 H 0.10110 0.22582 0.13529
 H1002 H 0.17199 0.28737 0.11836
 H1003 H 0.12896 0.31025 0.10961
 H1004 H 0.11769 0.24334 0.18499
 C1005 C 0.61479 0.77619 0.62990
 C1006 C 0.61217 0.80021 0.61034
 C1007 C 0.59098 0.80148 0.58741
 C1008 C 0.57194 0.77884 0.58376
 C1009 C 0.57405 0.75511 0.60356
 C1010 C 0.59532 0.75373 0.62636
 C1011 C 0.63820 0.77409 0.65315
 C1012 C 0.63410 0.76086 0.68289
 C1013 C 0.65648 0.75751 0.70397
 C1014 C 0.68346 0.76750 0.69591
 C1015 C 0.68746 0.78132 0.66653
 C1016 C 0.66512 0.78449 0.64535
 H1017 H 0.58951 0.81998 0.57230
 H1018 H 0.55955 0.73742 0.60086
 H1019 H 0.65267 0.74694 0.72652
 H1020 H 0.70801 0.78912 0.65953
 H1021 H 0.59696 0.73475 0.64062
 H1022 H 0.61356 0.75305 0.68989
 H1023 H 0.62651 0.81804 0.61276
 H1024 H 0.66914 0.79440 0.62247
   
