data_POSCAR
  _audit_creation_date              2014-09-24
  _audit_creation_method            'ToBaCCo'
  _symmetry_space_group_name_H-M    'P1'
  _symmetry_Int_Tables_number       1
  _symmetry_cell_setting            triclinic
  loop_
  _symmetry_equiv_pos_as_xyz
 x,y,z
_cell_length_a 22.2924
_cell_length_b 22.2998
_cell_length_c 22.6266
_cell_angle_alpha 89.667500
_cell_angle_beta 90.320200
_cell_angle_gamma 89.913500
loop_
  _atom_site_label
  _atom_site_type_symbol
  _atom_site_fract_x
  _atom_site_fract_y
  _atom_site_fract_z
C1 C 0.44610 0.99697 -0.52110
 C2 C 0.44752 0.99738 -0.45841
 C3 C 0.50305 1.00039 -0.42904
 C4 C 0.55821 1.00117 -0.45926
 C5 C 0.55733 1.00003 -0.52236
 C6 C 0.50120 0.99685 -0.55150
 H7 H 0.50015 1.00081 -0.59924
 H8 H 0.50322 0.99708 -0.38121
 C9 C -0.55841 1.47142 -0.05079
 C10 C -0.55602 1.53446 -0.06081
 C11 C -0.49989 1.56320 -0.05877
 C12 C -0.44608 1.53168 -0.05053
 C13 C -0.44785 1.46851 -0.04894
 C14 C -0.50367 1.43948 -0.04779
 H15 H -0.50432 1.39089 -0.04597
 H16 H -0.49876 1.61181 -0.06019
 C17 C 0.00110 0.53434 0.56346
 C18 C -0.00167 0.47036 0.56556
 C19 C -0.00223 0.43830 0.51196
 C20 C -0.00206 0.46714 0.45671
 C21 C 0.00055 0.53035 0.45457
 C22 C 0.00125 0.56278 0.50753
 H23 H 0.00639 0.61104 0.50461
 H24 H -0.00712 0.38993 0.51304
 O25 O -0.15065 1.02391 -0.07115
 O26 O 0.15579 0.99360 -0.06705
 O27 O 0.01030 1.08875 -0.13775
 O28 O -0.00348 0.92899 -0.14646
 O29 O -0.00898 0.85101 -0.07918
 O30 O 0.01286 1.15900 -0.06315
 O31 O 0.08430 1.00179 -0.14090
 O32 O -0.07798 1.01938 -0.14318
 Zr33 Zr 0.00232 1.00618 -0.09398
 O34 O 0.05146 0.94381 -0.04638
 O35 O -0.04865 1.06240 -0.04213
 C36 C -0.13290 1.02656 -0.12553
 C37 C 0.13934 0.99923 -0.12184
 C38 C 0.01486 1.14306 -0.11833
 C39 C -0.00803 0.87271 -0.13264
 H40 H 0.08704 1.07724 -0.06205
 O41 O 0.05895 1.05232 -0.03903
 H42 H -0.08395 0.93361 -0.07515
 O43 O -0.05672 0.95428 -0.04737
 O44 O 0.15330 0.98139 0.09089
 O45 O -0.15341 1.00037 0.08666
 O46 O 0.09286 1.14765 0.01903
 O47 O 0.06715 0.83869 0.00404
 O48 O -0.09356 0.85363 -0.00065
 O49 O -0.06978 1.16073 0.01567
 O50 O 0.01050 1.07194 0.16547
 O51 O -0.01356 0.91192 0.15696
 O52 O 0.01419 1.14965 0.09767
 O53 O -0.01872 0.84242 0.08172
 O54 O 0.16004 1.06848 0.01989
 O55 O -0.14713 1.09209 0.01463
 O56 O -0.15964 0.93340 -0.00024
 O57 O 0.14684 0.90481 0.00559
 O58 O 0.08056 0.98405 0.16296
 O59 O -0.08218 0.99542 0.16092
 Zr60 Zr 0.10549 0.99081 0.01130
 Zr61 Zr -0.10374 1.00897 0.00836
 Zr62 Zr 0.00828 1.10592 0.01515
 Zr63 Zr -0.00843 0.89482 0.00387
 Zr64 Zr -0.00035 0.99438 0.11368
 O65 O -0.05825 0.94760 0.05944
 O66 O 0.05842 1.04693 0.06653
 C67 C 0.13580 0.97910 0.14534
 C68 C -0.13714 0.99477 0.14150
 C69 C 0.14662 1.12537 0.02095
 C70 C 0.12381 0.85115 0.00471
 C71 C -0.14694 0.87676 -0.00378
 C72 C -0.12620 1.14611 0.01680
 C73 C 0.01592 1.12808 0.15109
 C74 C -0.02118 0.85814 0.13689
 H75 H -0.07338 1.08098 0.09281
 O76 O -0.04969 1.05570 0.06575
 H77 H 0.07095 0.90882 0.08549
 O78 O 0.04884 0.93832 0.06092
 C79 C 0.38661 0.96789 0.39210
 C80 C 0.33494 0.97261 0.35686
 C81 C 0.28683 1.00939 0.37482
 C82 C 0.29135 1.04061 0.42823
 C83 C 0.34337 1.03624 0.46291
 C84 C 0.39193 0.99974 0.44552
 C85 C 0.23572 1.01528 0.33848
 C86 C 0.23290 0.98567 0.28385
 C87 C 0.28128 0.94867 0.26642
 C88 C 0.33145 0.94180 0.30328
 C89 C 0.27958 0.92013 0.21159
 C90 C 0.23143 0.92963 0.17329
 C91 C 0.18342 0.96696 0.18936
 C92 C 0.18352 0.99371 0.24547
 H93 H 0.42247 0.93837 0.37812
 H94 H 0.25522 1.06956 0.44255
 H95 H 0.34634 1.06365 0.50212
 H96 H 0.19894 1.04390 0.35199
 H97 H 0.36851 0.91364 0.28949
 H98 H 0.31616 0.89151 0.19771
 H99 H 0.23185 0.90785 0.13060
 H100 H 0.14661 1.02240 0.25816
 C101 C -0.38488 0.97619 0.38866
 C102 C -0.33504 0.98459 0.35208
 C103 C -0.28904 1.02453 0.36900
 C104 C -0.29433 1.05610 0.42209
 C105 C -0.34477 1.04839 0.45787
 C106 C -0.39059 1.00765 0.44225
 C107 C -0.23913 1.03289 0.33209
 C108 C -0.23556 1.00276 0.27783
 C109 C -0.28233 0.96343 0.26089
 C110 C -0.33116 0.95399 0.29840
 C111 C -0.28016 0.93473 0.20613
 C112 C -0.23268 0.94553 0.16786
 C113 C -0.18579 0.98420 0.18402
 C114 C -0.18678 1.01209 0.23955
 H115 H -0.41876 0.94390 0.37575
 H116 H -0.26000 1.08766 0.43545
 H117 H -0.34852 1.07580 0.49699
 H118 H -0.20374 1.06351 0.34508
 H119 H -0.36677 0.92365 0.28525
 H120 H -0.31562 0.90453 0.19252
 H121 H -0.23228 0.92314 0.12548
 H122 H -0.15079 1.04220 0.25199
 C123 C -0.38309 1.03132 -0.37253
 C124 C -0.33178 1.02709 -0.33676
 C125 C -0.28442 0.98841 -0.35276
 C126 C -0.28935 0.95472 -0.40467
 C127 C -0.34089 0.95889 -0.44005
 C128 C -0.38847 0.99755 -0.42477
 C129 C -0.23353 0.98336 -0.31606
 C130 C -0.23010 1.01586 -0.26312
 C131 C -0.27768 1.05472 -0.24757
 C132 C -0.32776 1.06055 -0.28473
 C133 C -0.27525 1.08614 -0.19425
 C134 C -0.22714 1.07772 -0.15556
 C135 C -0.17998 1.03870 -0.16994
 C136 C -0.18087 1.00887 -0.22448
 H137 H -0.41849 1.06215 -0.36019
 H138 H -0.25377 0.92436 -0.41744
 H139 H -0.34414 0.93041 -0.47852
 H140 H -0.19732 0.95334 -0.32805
 H141 H -0.36424 1.09016 -0.27248
 H142 H -0.31126 1.11613 -0.18179
 H143 H -0.22699 1.10141 -0.11388
 H144 H -0.14482 0.97837 -0.23550
 C145 C 0.38389 1.02361 -0.37136
 C146 C 0.33533 1.01282 -0.33374
 C147 C 0.29394 0.96678 -0.34705
 C148 C 0.30281 0.93149 -0.39739
 C149 C 0.35256 0.94125 -0.43362
 C150 C 0.39321 0.98781 -0.42132
 C151 C 0.24524 0.95611 -0.30921
 C152 C 0.23876 0.98956 -0.25718
 C153 C 0.28138 1.03452 -0.24345
 C154 C 0.32856 1.04656 -0.28227
 C155 C 0.27678 1.06630 -0.19054
 C156 C 0.23078 1.05343 -0.15114
 C157 C 0.18770 1.00966 -0.16449
 C158 C 0.19118 0.97824 -0.21797
 H159 H 0.41511 1.05945 -0.36135
 H160 H 0.27201 0.89556 -0.40807
 H161 H 0.35957 0.91214 -0.47109
 H162 H 0.21324 0.92106 -0.31956
 H163 H 0.36084 1.08133 -0.27172
 H164 H 0.30911 1.10070 -0.17931
 H165 H 0.22818 1.07853 -0.11034
 H166 H 0.15799 0.94430 -0.22815
 C167 C 0.38210 1.38822 -0.00519
 C168 C 0.33435 1.34742 -0.00583
 C169 C 0.28633 1.35598 -0.04596
 C170 C 0.28776 1.40472 -0.08556
 C171 C 0.33725 1.44339 -0.08674
 C172 C 0.38507 1.43562 -0.04659
 C173 C 0.23873 1.31472 -0.04697
 C174 C 0.23998 1.26374 -0.01007
 C175 C 0.28913 1.25431 0.02868
 C176 C 0.33529 1.29688 0.03148
 C177 C 0.29175 1.20192 0.06335
 C178 C 0.24604 1.15919 0.05985
 C179 C 0.19626 1.16897 0.02288
 C180 C 0.19338 1.22143 -0.01192
 H181 H 0.41848 1.38164 0.02620
 H182 H 0.25168 1.41156 -0.11718
 H183 H 0.33885 1.47796 -0.12042
 H184 H 0.20155 1.32145 -0.07744
 H185 H 0.37278 1.28983 0.06151
 H186 H 0.32935 1.19382 0.09289
 H187 H 0.24885 1.11910 0.08701
 H188 H 0.15534 1.22870 -0.04121
 C189 C 0.34840 0.57891 -0.02937
 C190 C 0.30919 0.62860 -0.03312
 C191 C 0.31380 0.66932 -0.08118
 C192 C 0.35581 0.65894 -0.12552
 C193 C 0.39595 0.61140 -0.12028
 C194 C 0.39398 0.57172 -0.07160
 C195 C 0.27833 0.72128 -0.08310
 C196 C 0.23876 0.73403 -0.03705
 C197 C 0.23288 0.69286 0.01046
 C198 C 0.26784 0.64029 0.01197
 C199 C 0.19233 0.70527 0.05592
 C200 C 0.15791 0.75765 0.05415
 C201 C 0.16422 0.79908 0.00765
 C202 C 0.20491 0.78734 -0.03779
 H203 H 0.34709 0.54955 0.00896
 H204 H 0.35971 0.68939 -0.16281
 H205 H 0.43046 0.60667 -0.15352
 H206 H 0.28267 0.75258 -0.11972
 H207 H 0.26392 0.60934 0.04890
 H208 H 0.18689 0.67428 0.09256
 H209 H 0.12607 0.76595 0.08918
 H210 H 0.20887 0.81878 -0.07430
 C211 C -0.37990 0.62053 -0.06951
 C212 C -0.33384 0.65915 -0.05185
 C213 C -0.29416 0.64171 -0.00591
 C214 C -0.30247 0.58647 0.02265
 C215 C -0.35102 0.55005 0.00742
 C216 C -0.39024 0.56654 -0.03892
 C217 C -0.24829 0.68068 0.01206
 C218 C -0.24375 0.73807 -0.01324
 C219 C -0.28522 0.75624 -0.05749
 C220 C -0.32886 0.71612 -0.07761
 C221 C -0.28283 0.81457 -0.08053
 C222 C -0.23930 0.85445 -0.06051
 C223 C -0.19659 0.83621 -0.01824
 C224 C -0.19886 0.77793 0.00532
 H225 H -0.40944 0.63382 -0.10550
 H226 H -0.27310 0.57270 0.05858
 H227 H -0.35898 0.51000 0.03340
 H228 H -0.21734 0.66707 0.04680
 H229 H -0.36018 0.72994 -0.11198
 H230 H -0.31451 0.82931 -0.11411
 H231 H -0.23756 0.89900 -0.07981
 H232 H -0.16594 0.76390 0.03807
 C233 C -0.38266 1.38717 -0.00722
 C234 C -0.33019 1.35246 -0.00788
 C235 C -0.28681 1.36208 -0.05235
 C236 C -0.29655 1.40696 -0.09504
 C237 C -0.34894 1.44147 -0.09395
 C238 C -0.39234 1.43179 -0.05013
 C239 C -0.23500 1.32615 -0.05387
 C240 C -0.22653 1.28020 -0.01194
 C241 C -0.26984 1.27136 0.03288
 C242 C -0.32094 1.30782 0.03491
 C243 C -0.26239 1.22488 0.07407
 C244 C -0.21393 1.18581 0.06953
 C245 C -0.17136 1.19326 0.02465
 C246 C -0.17676 1.24142 -0.01522
 H247 H -0.41585 1.37992 0.02694
 H248 H -0.26391 1.41507 -0.12946
 H249 H -0.35588 1.47560 -0.12756
 H250 H -0.20204 1.33308 -0.08832
 H251 H -0.35421 1.30053 0.06901
 H252 H -0.29505 1.21757 0.10866
 H253 H -0.21020 1.14871 0.10051
 H254 H -0.14428 1.24661 -0.05036
 C255 C 0.02739 1.37780 0.39658
 C256 C 0.02019 1.34032 0.34750
 C257 C -0.02149 1.35579 0.30259
 C258 C -0.05618 1.40791 0.30833
 C259 C -0.05009 1.44397 0.35833
 C260 C -0.00775 1.42976 0.40258
 C261 C -0.02867 1.31829 0.25339
 C262 C 0.00388 1.26450 0.24959
 C263 C 0.04446 1.24849 0.29541
 C264 C 0.05312 1.28696 0.34344
 C265 C 0.07505 1.19366 0.29299
 C266 C 0.06510 1.15465 0.24603
 C267 C 0.02568 1.17036 0.19991
 C268 C -0.00437 1.22573 0.20143
 H269 H 0.05994 1.36622 0.43059
 H270 H -0.08891 1.42013 0.27476
 H271 H -0.07902 1.48271 0.36272
 H272 H -0.06042 1.33030 0.21878
 H273 H 0.08452 1.27471 0.37830
 H274 H 0.10608 1.18057 0.32780
 H275 H 0.08882 1.11230 0.24528
 H276 H -0.03535 1.23766 0.16614
 C277 C 0.02513 1.38439 -0.37248
 C278 C 0.01939 1.35068 -0.32049
 C279 C -0.02171 1.36850 -0.27663
 C280 C -0.05560 1.42089 -0.28536
 C281 C -0.04901 1.45491 -0.33712
 C282 C -0.00844 1.43714 -0.38137
 C283 C -0.02865 1.33322 -0.22536
 C284 C 0.00504 1.28035 -0.21779
 C285 C 0.04717 1.26385 -0.26150
 C286 C 0.05419 1.29914 -0.31219
 C287 C 0.08075 1.21128 -0.25480
 C288 C 0.07098 1.17374 -0.20664
 C289 C 0.02805 1.18830 -0.16384
 C290 C -0.00378 1.24255 -0.16844
 H291 H 0.05740 1.37045 -0.40541
 H292 H -0.08754 1.43530 -0.25242
 H293 H -0.07685 1.49434 -0.34317
 H294 H -0.06082 1.34630 -0.19202
 H295 H 0.08603 1.28582 -0.34580
 H296 H 0.11344 1.19832 -0.28764
 H297 H 0.09639 1.13235 -0.20328
 H298 H -0.03708 1.25368 -0.13552
 C299 C -0.01978 0.62680 -0.38189
 C300 C -0.01226 0.66333 -0.33223
 C301 C 0.02422 0.64385 -0.28461
 C302 C 0.05368 0.58849 -0.28825
 C303 C 0.04678 0.55269 -0.33835
 C304 C 0.00890 0.57056 -0.38554
 C305 C 0.03110 0.68032 -0.23455
 C306 C 0.00279 0.73656 -0.23222
 C307 C -0.03279 0.75622 -0.28066
 C308 C -0.04063 0.71928 -0.32986
 C309 C -0.05959 0.81294 -0.27954
 C310 C -0.05086 0.85029 -0.23122
 C311 C -0.01621 0.83132 -0.18253
 C312 C 0.01006 0.77401 -0.18281
 H313 H -0.04969 0.64165 -0.41701
 H314 H 0.08276 0.57320 -0.25269
 H315 H 0.07248 0.51156 -0.34055
 H316 H 0.05891 0.66527 -0.19787
 H317 H -0.06825 0.73443 -0.36668
 H318 H -0.08685 0.82869 -0.31629
 H319 H -0.07184 0.89412 -0.23162
 H320 H 0.03721 0.75939 -0.14550
 C321 C -0.03378 0.61228 0.38667
 C322 C -0.02768 0.64713 0.33535
 C323 C 0.01786 0.63349 0.29424
 C324 C 0.05626 0.58472 0.30524
 C325 C 0.05042 0.55073 0.35704
 C326 C 0.00544 0.56431 0.39815
 C327 C 0.02517 0.66974 0.24379
 C328 C -0.01142 0.72038 0.23493
 C329 C -0.05705 0.73360 0.27622
 C330 C -0.06545 0.69641 0.32552
 C331 C -0.09237 0.78506 0.26873
 C332 C -0.08115 0.82447 0.22215
 C333 C -0.03557 0.81234 0.18140
 C334 C -0.00173 0.75946 0.18687
 H335 H -0.06857 0.62287 0.41827
 H336 H 0.09155 0.57363 0.27441
 H337 H 0.08156 0.51432 0.36549
 H338 H 0.06041 0.65965 0.21249
 H339 H -0.10018 0.70694 0.35724
 H340 H -0.12746 0.79581 0.29991
 H341 H -0.10767 0.86509 0.21824
 H342 H 0.03388 0.75049 0.15570
   
