data_POSCAR
  _audit_creation_date              2014-09-24
  _audit_creation_method            'ToBaCCo'
  _symmetry_space_group_name_H-M    'P1'
  _symmetry_Int_Tables_number       1
  _symmetry_cell_setting            triclinic
  loop_
  _symmetry_equiv_pos_as_xyz
 x,y,z
_cell_length_a 59.8235
_cell_length_b 59.3086
_cell_length_c 59.2239
_cell_angle_alpha 90.053600
_cell_angle_beta 89.904200
_cell_angle_gamma 89.858000
loop_
  _atom_site_label
  _atom_site_type_symbol
  _atom_site_fract_x
  _atom_site_fract_y
  _atom_site_fract_z
N1 N 0.18927 1.23717 0.17458
 N2 N 0.17395 1.23708 0.19056
 C3 C 0.15937 1.25404 0.18682
 C4 C 0.16606 1.26518 0.16756
 C5 C 0.18499 1.25416 0.16013
 H6 H 0.14486 1.25781 0.19708
 H7 H 0.19472 1.25799 0.14521
 Cu8 Cu 0.17434 1.21429 0.21416
 Cu9 Cu 0.21323 1.21487 0.17331
 Cu10 Cu 0.21395 1.17418 0.21547
 N11 N 0.17473 1.19149 0.23775
 N12 N 0.19035 1.17583 0.23815
 C13 C 0.18658 1.16188 0.25568
 C14 C 0.16766 1.16931 0.26673
 C15 C 0.16044 1.18804 0.25503
 H16 H 0.19661 1.14726 0.25983
 H17 H 0.14575 1.19809 0.25863
 N18 N 0.23636 1.17542 0.19103
 N19 N 0.23609 1.19091 0.17499
 C20 C 0.25305 1.18686 0.16052
 C21 C 0.26440 1.16805 0.16789
 C22 C 0.25350 1.16113 0.18716
 H23 H 0.25664 1.19655 0.14549
 H24 H 0.25751 1.14651 0.19728
 H25 H 0.19619 1.18942 0.18977
 H26 H 0.21411 1.20804 0.20747
 N27 N 0.80873 0.76493 0.17554
 N28 N 0.82565 0.76638 0.18962
 C29 C 0.84005 0.74939 0.18545
 C30 C 0.83163 0.73677 0.16789
 C31 C 0.81180 0.74700 0.16191
 H32 H 0.85565 0.74660 0.19422
 H33 H 0.80073 0.74204 0.14837
 Cu34 Cu 0.82794 0.79063 0.21162
 Cu35 Cu 0.78469 0.78702 0.17521
 Cu36 Cu 0.78559 0.82809 0.21667
 N37 N 0.82663 0.81239 0.23617
 N38 N 0.81006 0.82689 0.23817
 C39 C 0.81376 0.84022 0.25620
 C40 C 0.83361 0.83355 0.26592
 C41 C 0.84144 0.81595 0.25291
 H42 H 0.80307 0.85396 0.26157
 H43 H 0.85687 0.80671 0.25525
 N44 N 0.76222 0.82657 0.19337
 N45 N 0.76187 0.81086 0.17756
 C46 C 0.74446 0.81478 0.16369
 C47 C 0.73346 0.83377 0.17124
 C48 C 0.74505 0.84091 0.18999
 H49 H 0.74037 0.80494 0.14889
 H50 H 0.74152 0.85574 0.20003
 H51 H 0.80203 0.81358 0.18950
 H52 H 0.78744 0.79396 0.20937
 N53 N 0.80807 1.23637 -0.17397
 N54 N 0.82387 1.23620 -0.18945
 C55 C 0.83815 1.25327 -0.18538
 C56 C 0.83078 1.26458 -0.16643
 C57 C 0.81174 1.25352 -0.15954
 H58 H 0.85291 1.25706 -0.19524
 H59 H 0.80149 1.25750 -0.14500
 Cu60 Cu 0.82429 1.21326 -0.21296
 Cu61 Cu 0.78414 1.21413 -0.17335
 Cu62 Cu 0.78476 1.17328 -0.21534
 N63 N 0.82465 1.19033 -0.23649
 N64 N 0.80906 1.17472 -0.23728
 C65 C 0.81334 1.16066 -0.25463
 C66 C 0.83255 1.16794 -0.26516
 C67 C 0.83942 1.18672 -0.25334
 H68 H 0.80343 1.14607 -0.25902
 H69 H 0.85418 1.19671 -0.25658
 N70 N 0.76162 1.17469 -0.19162
 N71 N 0.76141 1.19023 -0.17562
 C72 C 0.74404 1.18632 -0.16166
 C73 C 0.73291 1.16752 -0.16933
 C74 C 0.74438 1.16048 -0.18825
 H75 H 0.73998 1.19611 -0.14679
 H76 H 0.74065 1.14587 -0.19850
 H77 H 0.80179 1.18858 -0.18916
 H78 H 0.78438 1.20717 -0.20748
 N79 N 0.19143 0.76157 -0.17615
 N80 N 0.17501 0.76347 -0.19077
 C81 C 0.16031 0.74663 -0.18734
 C82 C 0.16804 0.73365 -0.16971
 C83 C 0.18775 0.74350 -0.16291
 H84 H 0.14503 0.74412 -0.19673
 H85 H 0.19838 0.73813 -0.14916
 Cu86 Cu 0.17391 0.78787 -0.21270
 Cu87 Cu 0.21582 0.78310 -0.17480
 Cu88 Cu 0.21652 0.82503 -0.21531
 N89 N 0.17581 0.81061 -0.23630
 N90 N 0.19252 0.82495 -0.23736
 C91 C 0.18943 0.83887 -0.25505
 C92 C 0.16981 0.83279 -0.26552
 C93 C 0.16149 0.81490 -0.25332
 H94 H 0.20043 0.85255 -0.25973
 H95 H 0.14610 0.80590 -0.25645
 N96 N 0.23938 0.82245 -0.19159
 N97 N 0.23911 0.80643 -0.17611
 C98 C 0.25637 0.80959 -0.16187
 C99 C 0.26794 0.82839 -0.16884
 C100 C 0.25683 0.83621 -0.18762
 H101 H 0.26002 0.79931 -0.14726
 H102 H 0.26091 0.85108 -0.19733
 H103 H 0.19910 0.81007 -0.18911
 H104 H 0.21435 0.79077 -0.20888
 C105 C 0.53307 1.03085 -0.00809
 H106 H 0.53349 1.03119 0.01017
 C107 C 0.54809 1.04391 -0.02048
 H108 H 0.56009 1.05443 -0.01178
 C109 C 0.51735 1.01622 -0.04179
 H110 H 0.50566 1.00507 -0.05003
 C111 C 0.53209 1.02902 -0.05484
 H112 H 0.53158 1.02786 -0.07309
 N113 N 0.51803 1.01744 -0.01884
 C114 C 0.46510 1.00626 0.03055
 H115 H 0.46501 0.98802 0.03098
 C116 C 0.44954 1.01845 0.04326
 H117 H 0.43746 1.00960 0.05361
 C118 C 0.48051 1.04010 0.01602
 H119 H 0.49228 1.04846 0.00503
 C120 C 0.46522 1.05294 0.02847
 H121 H 0.46540 1.07116 0.02720
 Zn122 Zn 0.49950 0.99920 -0.00055
 N123 N 0.48023 1.01719 0.01735
 C124 C 0.51781 0.98301 0.04076
 N125 N 0.51865 0.98165 0.01782
 C126 C 0.53419 0.96863 0.00718
 C127 C 0.54955 0.95605 0.01970
 C128 C 0.53288 0.97070 0.05392
 C129 C 0.46568 0.99090 -0.03183
 C130 C 0.45082 0.97816 -0.04473
 C131 C 0.46768 0.94425 -0.02978
 C132 C 0.48226 0.95763 -0.01716
 N133 N 0.48109 0.98052 -0.01851
 H134 H 0.50573 0.99388 0.04889
 H135 H 0.53474 0.96819 -0.01107
 H136 H 0.56192 0.94580 0.01109
 H137 H 0.53222 0.97196 0.07216
 H138 H 0.46485 1.00912 -0.03225
 H139 H 0.43855 0.98657 -0.05522
 H140 H 0.46859 0.92605 -0.02853
 H141 H 0.49421 0.94969 -0.00605
 C142 C 0.44956 1.04199 0.04215
 C143 C 0.54763 1.04293 -0.04406
 C144 C 0.45181 0.95464 -0.04366
 C145 C 0.54889 0.95713 0.04327
 C146 C -0.00721 0.53532 1.03057
 H147 H 0.01086 0.53585 1.03037
 C148 C -0.01925 0.55075 1.04365
 H149 H -0.01044 0.56319 1.05364
 C150 C -0.04084 0.51888 1.01731
 H151 H -0.04921 0.50675 1.00669
 C152 C -0.05351 0.53400 1.03016
 H153 H -0.07160 0.53332 1.02957
 N154 N -0.01811 0.51970 1.01787
 C155 C 0.03032 0.46564 1.00712
 H156 H 0.03032 0.46487 0.98887
 C157 C 0.04323 0.45042 1.01951
 H158 H 0.05330 0.43793 1.01080
 C159 C 0.01674 0.48245 1.04083
 H160 H 0.00606 0.49465 1.04908
 C161 C 0.02938 0.46752 1.05387
 H162 H 0.02856 0.46839 1.07212
 Zn163 Zn -0.00045 0.50031 0.99971
 N164 N 0.01753 0.48133 1.01788
 C165 C 0.04025 0.51768 0.98184
 N166 N 0.01753 0.51887 0.98114
 C167 C 0.00688 0.53431 0.96798
 C168 C 0.01915 0.54917 0.95457
 C169 C 0.05316 0.53225 0.96868
 C170 C -0.03169 0.46606 0.99309
 C171 C -0.04498 0.45093 0.98106
 C172 C -0.03129 0.46722 0.94631
 C173 C -0.01823 0.48206 0.95899
 N174 N -0.01879 0.48132 0.98197
 H175 H 0.04842 0.50572 0.99282
 H176 H -0.01119 0.53515 0.96807
 H177 H 0.01054 0.56146 0.94421
 H178 H 0.07123 0.53131 0.96941
 H179 H -0.03150 0.46558 1.01135
 H180 H -0.05514 0.43878 0.99005
 H181 H -0.03069 0.46781 0.92804
 H182 H -0.00747 0.49390 0.95045
 C183 C 0.04272 0.45135 1.04309
 C184 C -0.04261 0.55008 1.04342
 C185 C -0.04476 0.45152 0.95746
 C186 C 0.04249 0.54813 0.95494
 C187 C 1.03199 -0.00667 0.53549
 H188 H 1.03156 0.01155 0.53626
 C189 C 1.04516 -0.01879 0.55070
 H190 H 1.05497 -0.00990 0.56321
 C191 C 1.01931 -0.04060 0.51862
 H192 H 1.00891 -0.04905 0.50638
 C193 C 1.03225 -0.05336 0.53353
 H194 H 1.03193 -0.07160 0.53260
 N195 N 1.01955 -0.01767 0.51976
 C196 C 1.00855 0.03140 0.46613
 H197 H 0.99049 0.03110 0.46519
 C198 C 1.02076 0.04473 0.45113
 H199 H 1.01212 0.05479 0.43861
 C200 C 1.04196 0.01820 0.48317
 H201 H 1.05018 0.00752 0.49537
 C202 C 1.05481 0.03129 0.46848
 H203 H 1.07288 0.03080 0.46956
 Zn204 Zn 1.00139 0.00014 0.50063
 N205 N 1.01924 0.01861 0.48184
 C206 C 0.98318 0.04088 0.51844
 N207 N 0.98286 0.01795 0.51951
 C208 C 0.97014 0.00699 0.53507
 C209 C 0.95685 0.01915 0.55022
 C210 C 0.97012 0.05368 0.53328
 C211 C 0.99497 -0.03114 0.46594
 C212 C 0.98305 -0.04437 0.45064
 C213 C 0.94866 -0.03076 0.46729
 C214 C 0.96121 -0.01777 0.48231
 N215 N 0.98395 -0.01830 0.48145
 H216 H 0.99378 0.04930 0.50634
 H217 H 0.97051 -0.01123 0.53580
 H218 H 0.94687 0.01029 0.56262
 H219 H 0.97056 0.07192 0.53242
 H220 H 1.01304 -0.03093 0.46539
 H221 H 0.99194 -0.05447 0.43828
 H222 H 0.93057 -0.03015 0.46796
 H223 H 0.95276 -0.00706 0.49436
 C224 C 1.04410 0.04464 0.45231
 C225 C 1.04528 -0.04234 0.54970
 C226 C 0.95969 -0.04413 0.45130
 C227 C 0.95688 0.04270 0.54932
 C228 C 0.15554 0.28279 1.15738
 C229 C 0.14614 0.29829 1.14825
 C230 C 0.13480 0.31667 1.13724
 C231 C 0.14701 0.33477 1.12848
 C232 C 0.13599 0.35245 1.11749
 C233 C 0.11258 0.35225 1.11515
 C234 C 0.10046 0.33401 1.12412
 C235 C 0.11151 0.31635 1.13507
 C236 C 0.10084 0.37076 1.10311
 C237 C 0.08028 0.37911 1.11117
 C238 C 0.06888 0.39601 1.09940
 C239 C 0.07786 0.40480 1.07944
 C240 C 0.09842 0.39680 1.07141
 C241 C 0.10986 0.37991 1.08317
 C242 C 0.06569 0.42154 1.06686
 C243 C 0.05531 0.43529 1.05613
 H244 H 0.16504 0.33519 1.13010
 H245 H 0.14576 0.36636 1.11100
 H246 H 0.08247 0.33319 1.12229
 H247 H 0.10190 0.30237 1.14170
 H248 H 0.07304 0.37264 1.12662
 H249 H 0.05298 0.40210 1.10578
 H250 H 0.10548 0.40341 1.05592
 H251 H 0.12551 0.37365 1.07637
 C252 C -0.15783 0.71788 1.15702
 C253 C -0.14873 0.70224 1.14778
 C254 C -0.13760 0.68381 1.13660
 C255 C -0.12294 0.66989 1.14864
 C256 C -0.11160 0.65241 1.13763
 C257 C -0.11478 0.64862 1.11439
 C258 C -0.12970 0.66261 1.10248
 C259 C -0.14101 0.68009 1.11353
 C260 C -0.10232 0.63044 1.10251
 C261 C -0.11285 0.61722 1.08591
 C262 C -0.10093 0.60050 1.07436
 C263 C -0.07834 0.59676 1.07923
 C264 C -0.06775 0.60967 1.09583
 C265 C -0.07965 0.62639 1.10742
 C266 C -0.06587 0.58004 1.06683
 C267 C -0.05532 0.56627 1.05626
 H268 H -0.12020 0.67261 1.16652
 H269 H -0.10044 0.64177 1.14731
 H270 H -0.13227 0.66035 1.08453
 H271 H -0.15224 0.69083 1.10404
 H272 H -0.13035 0.61973 1.08196
 H273 H -0.10929 0.59057 1.06156
 H274 H -0.05025 0.60697 1.09967
 H275 H -0.07098 0.63648 1.11987
 C276 C -0.15880 0.28348 0.84444
 C277 C -0.15000 0.29922 0.85372
 C278 C -0.13934 0.31784 0.86495
 C279 C -0.14074 0.31991 0.88845
 C280 C -0.12984 0.33759 0.89948
 C281 C -0.11735 0.35344 0.88711
 C282 C -0.11627 0.35136 0.86346
 C283 C -0.12720 0.33366 0.85247
 C284 C -0.10508 0.37172 0.89889
 C285 C -0.08335 0.37768 0.89200
 C286 C -0.07150 0.39439 0.90350
 C287 C -0.08116 0.40539 0.92202
 C288 C -0.10284 0.39977 0.92887
 C289 C -0.11474 0.38305 0.91740
 C290 C -0.06858 0.42198 0.93433
 C291 C -0.05782 0.43559 0.94479
 H292 H -0.15006 0.30772 0.89829
 H293 H -0.13076 0.33856 0.91771
 H294 H -0.10705 0.36346 0.85345
 H295 H -0.12607 0.33226 0.83426
 H296 H -0.07533 0.36906 0.87803
 H297 H -0.05468 0.39853 0.89812
 H298 H -0.11049 0.40821 0.94318
 H299 H -0.13152 0.37904 0.92294
 C300 C 0.15712 0.71464 0.84041
 C301 C 0.14779 0.69888 0.84910
 C302 C 0.13647 0.68031 0.85972
 C303 C 0.14865 0.66408 0.87167
 C304 C 0.13756 0.64647 0.88263
 C305 C 0.11411 0.64488 0.88177
 C306 C 0.10204 0.66116 0.86950
 C307 C 0.11317 0.67875 0.85857
 C308 C 0.10220 0.62669 0.89408
 C309 C 0.08353 0.61601 0.88444
 C310 C 0.07185 0.59949 0.89643
 C311 C 0.07867 0.59343 0.91818
 C312 C 0.09738 0.60375 0.92782
 C313 C 0.10908 0.62026 0.91586
 C314 C 0.06611 0.57713 0.93090
 C315 C 0.05542 0.56376 0.94177
 H316 H 0.16671 0.66512 0.87265
 H317 H 0.14733 0.63405 0.89169
 H318 H 0.08397 0.66060 0.86878
 H319 H 0.10357 0.69129 0.84945
 H320 H 0.07799 0.62038 0.86760
 H321 H 0.05740 0.59158 0.88880
 H322 H 0.10274 0.59925 0.94469
 H323 H 0.12319 0.62837 0.92388
 C324 C 1.15746 0.15942 0.28469
 C325 C 1.14832 0.15049 0.30048
 C326 C 1.13726 0.13963 0.31912
 C327 C 1.14945 0.12611 0.33406
 C328 C 1.13858 0.11504 0.35178
 C329 C 1.11535 0.11737 0.35478
 C330 C 1.10329 0.13117 0.33978
 C331 C 1.11418 0.14220 0.32207
 C332 C 1.10362 0.10504 0.37312
 C333 C 1.08620 0.11541 0.38534
 C334 C 1.07459 0.10346 0.40197
 C335 C 1.08023 0.08103 0.40661
 C336 C 1.09771 0.07066 0.39476
 C337 C 1.10935 0.08257 0.37814
 C338 C 1.06768 0.06844 0.42304
 C339 C 1.05700 0.05769 0.43653
 H340 H 1.16733 0.12402 0.33194
 H341 H 1.14837 0.10474 0.36320
 H342 H 1.08535 0.13304 0.34144
 H343 H 1.10456 0.15255 0.31055
 H344 H 1.08159 0.13277 0.38208
 H345 H 1.06110 0.11166 0.41106
 H346 H 1.10215 0.05327 0.39815
 H347 H 1.12247 0.07402 0.36884
 C348 C 1.16000 -0.15683 0.71659
 C349 C 1.15116 -0.14746 0.70090
 C350 C 1.14039 -0.13606 0.68242
 C351 C 1.12913 -0.14843 0.66586
 C352 C 1.11807 -0.13728 0.64831
 C353 C 1.11814 -0.11358 0.64713
 C354 C 1.12971 -0.10132 0.66375
 C355 C 1.14075 -0.11250 0.68127
 C356 C 1.10582 -0.10164 0.62894
 C357 C 1.11494 -0.08236 0.61864
 C358 C 1.10295 -0.07069 0.60208
 C359 C 1.08174 -0.07814 0.59559
 C360 C 1.07262 -0.09744 0.60555
 C361 C 1.08457 -0.10913 0.62210
 C362 C 1.06908 -0.06569 0.57914
 C363 C 1.05830 -0.05512 0.56560
 H364 H 1.12879 -0.16668 0.66657
 H365 H 1.10956 -0.14720 0.63562
 H366 H 1.12982 -0.08306 0.66350
 H367 H 1.14935 -0.10275 0.69406
 H368 H 1.13136 -0.07635 0.62332
 H369 H 1.11018 -0.05579 0.59445
 H370 H 1.05617 -0.10329 0.60072
 H371 H 1.07697 -0.12372 0.62992
 C372 C 0.84409 -0.15663 0.28372
 C373 C 0.85350 -0.14774 0.29934
 C374 C 0.86486 -0.13687 0.31775
 C375 C 0.85934 -0.11469 0.32365
 C376 C 0.87074 -0.10385 0.34113
 C377 C 0.88786 -0.11506 0.35294
 C378 C 0.89318 -0.13742 0.34698
 C379 C 0.88174 -0.14824 0.32950
 C380 C 0.90038 -0.10331 0.37110
 C381 C 0.92369 -0.10591 0.37297
 C382 C 0.93556 -0.09435 0.38965
 C383 C 0.92431 -0.08007 0.40470
 C384 C 0.90111 -0.07751 0.40311
 C385 C 0.88920 -0.08905 0.38643
 C386 C 0.93666 -0.06764 0.42140
 C387 C 0.94710 -0.05703 0.43516
 H388 H 0.84637 -0.10570 0.31460
 H389 H 0.86647 -0.08654 0.34509
 H390 H 0.90608 -0.14659 0.35593
 H391 H 0.88612 -0.16542 0.32508
 H392 H 0.93281 -0.11651 0.36123
 H393 H 0.95353 -0.09636 0.39066
 H394 H 0.89223 -0.06651 0.41469
 H395 H 0.87124 -0.08691 0.38560
 C396 C 0.84310 0.15796 0.71709
 C397 C 0.85244 0.14891 0.70145
 C398 C 0.86360 0.13784 0.68294
 C399 C 0.85157 0.12385 0.66833
 C400 C 0.86252 0.11260 0.65072
 C401 C 0.88568 0.11522 0.64749
 C402 C 0.89758 0.12949 0.66216
 C403 C 0.88660 0.14070 0.67976
 C404 C 0.89748 0.10280 0.62920
 C405 C 0.91448 0.11328 0.61659
 C406 C 0.92602 0.10133 0.59986
 C407 C 0.92074 0.07876 0.59551
 C408 C 0.90370 0.06826 0.60778
 C409 C 0.89212 0.08018 0.62451
 C410 C 0.93322 0.06620 0.57892
 C411 C 0.94389 0.05555 0.56529
 H412 H 0.83375 0.12155 0.67061
 H413 H 0.85285 0.10196 0.63956
 H414 H 0.91546 0.13162 0.66031
 H415 H 0.89610 0.15143 0.69102
 H416 H 0.91879 0.13074 0.61960
 H417 H 0.93916 0.10964 0.59042
 H418 H 0.89954 0.05077 0.60462
 H419 H 0.87933 0.07154 0.63411
 C420 C 0.28270 1.15690 0.15677
 C421 C 0.29781 1.14735 0.14722
 C422 C 0.31551 1.13570 0.13553
 C423 C 0.31040 1.11778 0.12107
 C424 C 0.32745 1.10647 0.10951
 C425 C 0.34990 1.11295 0.11226
 C426 C 0.35489 1.13094 0.12692
 C427 C 0.33778 1.14225 0.13845
 C428 C 0.36797 1.10097 0.09985
 C429 C 0.38833 1.09579 0.11056
 C430 C 0.40517 1.08417 0.09892
 C431 C 0.40190 1.07765 0.07646
 C432 C 0.38178 1.08286 0.06562
 C433 C 0.36492 1.09444 0.07722
 C434 C 0.41900 1.06531 0.06457
 C435 C 0.43308 1.05479 0.05445
 H436 H 0.29323 1.11252 0.11874
 H437 H 0.32310 1.09249 0.09862
 H438 H 0.37197 1.13648 0.12920
 H439 H 0.34191 1.15614 0.14957
 H440 H 0.39108 1.10035 0.12804
 H441 H 0.42065 1.08014 0.10750
 H442 H 0.37908 1.07793 0.04822
 H443 H 0.34957 1.09846 0.06841
 C444 C 0.71417 1.15664 -0.15885
 C445 C 0.69861 1.14738 -0.14985
 C446 C 0.68027 1.13617 -0.13887
 C447 C 0.67716 1.11298 -0.14189
 C448 C 0.65974 1.10192 -0.13076
 C449 C 0.64519 1.11391 -0.11639
 C450 C 0.64835 1.13726 -0.11361
 C451 C 0.66578 1.14829 -0.12478
 C452 C 0.62710 1.10201 -0.10404
 C453 C 0.62242 1.10734 -0.08135
 C454 C 0.60585 1.09569 -0.06952
 C455 C 0.59370 1.07860 -0.08018
 C456 C 0.59807 1.07330 -0.10279
 C457 C 0.61465 1.08492 -0.11466
 C458 C 0.57714 1.06618 -0.06773
 C459 C 0.56353 1.05565 -0.05707
 H460 H 0.68835 1.10341 -0.15268
 H461 H 0.65795 1.08389 -0.13301
 H462 H 0.63727 1.14700 -0.10289
 H463 H 0.66802 1.16626 -0.12235
 H464 H 0.63190 1.12018 -0.07261
 H465 H 0.60267 1.09984 -0.05198
 H466 H 0.58875 1.06011 -0.11121
 H467 H 0.61767 1.08062 -0.13218
 C468 C 0.28671 0.83869 -0.15785
 C469 C 0.30227 0.84755 -0.14849
 C470 C 0.32061 0.85838 -0.13718
 C471 C 0.32314 0.85610 -0.11381
 C472 C 0.34050 0.86722 -0.10266
 C473 C 0.35557 0.88083 -0.11477
 C474 C 0.35303 0.88282 -0.13831
 C475 C 0.33565 0.87167 -0.14942
 C476 C 0.37350 0.89334 -0.10281
 C477 C 0.37859 0.91568 -0.10887
 C478 C 0.39496 0.92772 -0.09718
 C479 C 0.40649 0.91762 -0.07930
 C480 C 0.40172 0.89533 -0.07326
 C481 C 0.38533 0.88325 -0.08493
 C482 C 0.42279 0.93034 -0.06684
 C483 C 0.43617 0.94128 -0.05631
 H484 H 0.31153 0.84593 -0.10416
 H485 H 0.34182 0.86558 -0.08451
 H486 H 0.36452 0.89293 -0.14814
 H487 H 0.33387 0.87353 -0.16752
 H488 H 0.36957 0.92403 -0.12233
 H489 H 0.39844 0.94500 -0.10192
 H490 H 0.41056 0.88734 -0.05946
 H491 H 0.38199 0.86600 -0.08004
 C492 C 0.71486 0.84484 0.16065
 C493 C 0.69945 0.85421 0.15149
 C494 C 0.68126 0.86545 0.14025
 C495 C 0.66703 0.85328 0.12605
 C496 C 0.64980 0.86430 0.11454
 C497 C 0.64658 0.88768 0.11709
 C498 C 0.66086 0.89973 0.13158
 C499 C 0.67809 0.88867 0.14306
 C500 C 0.62868 0.89952 0.10439
 C501 C 0.61597 0.91669 0.11469
 C502 C 0.59941 0.92808 0.10254
 C503 C 0.59534 0.92248 0.07996
 C504 C 0.60780 0.90535 0.06960
 C505 C 0.62435 0.89393 0.08171
 C506 C 0.57871 0.93457 0.06726
 C507 C 0.56500 0.94480 0.05642
 H508 H 0.66932 0.83529 0.12377
 H509 H 0.63891 0.85452 0.10375
 H510 H 0.65901 0.91777 0.13368
 H511 H 0.68908 0.89826 0.15394
 H512 H 0.61872 0.92119 0.13219
 H513 H 0.58984 0.94130 0.11073
 H514 H 0.60486 0.90095 0.05210
 H515 H 0.63406 0.88103 0.07321
   
