data_POSCAR
  _audit_creation_date              2014-09-24
  _audit_creation_method            'ToBaCCo'
  _symmetry_space_group_name_H-M    'P1'
  _symmetry_Int_Tables_number       1
  _symmetry_cell_setting            triclinic
  loop_
  _symmetry_equiv_pos_as_xyz
 x,y,z
_cell_length_a 32.4616
_cell_length_b 32.5164
_cell_length_c 31.1424
_cell_angle_alpha 91.110000
_cell_angle_beta 88.953400
_cell_angle_gamma 120.655700
loop_
  _atom_site_label
  _atom_site_type_symbol
  _atom_site_fract_x
  _atom_site_fract_y
  _atom_site_fract_z
C1 C 0.52950 0.07123 0.05752
 H2 H 0.56142 0.06868 0.05526
 C3 C 0.52967 0.10750 0.08221
 H4 H 0.56173 0.13212 0.09961
 C5 C 0.44914 0.04197 0.03720
 H6 H 0.41825 0.01697 0.01877
 C7 C 0.44786 0.07805 0.06135
 H8 H 0.41578 0.08041 0.06120
 N9 N 0.48967 0.03938 0.03570
 C10 C 0.51454 -0.07881 0.01141
 H11 H 0.51170 -0.08156 -0.02321
 C12 C 0.52272 -0.11060 0.03401
 H13 H 0.52594 -0.13794 0.01652
 C14 C 0.51160 -0.04105 0.07629
 H15 H 0.50634 -0.01453 0.09275
 C16 C 0.51950 -0.07225 0.10017
 H17 H 0.52125 -0.06867 0.13483
 Zn18 Zn 0.49584 -0.00475 -0.00017
 N19 N 0.50959 -0.04464 0.03269
 C20 C 0.58641 0.02866 -0.04190
 N21 N 0.54639 0.03208 -0.03916
 C22 C 0.54253 0.06515 -0.06197
 C23 C 0.57987 0.09663 -0.08878
 C24 C 0.62460 0.05934 -0.06854
 C25 C 0.39956 -0.07545 -0.00600
 C26 C 0.35728 -0.10951 -0.02586
 C27 C 0.39535 -0.07969 -0.09468
 C28 C 0.43693 -0.04637 -0.07332
 N29 N 0.43838 -0.04508 -0.02979
 H30 H 0.58930 0.00288 -0.02283
 H31 H 0.51069 0.06773 -0.05849
 H32 H 0.57646 0.12357 -0.10557
 H33 H 0.65609 0.05597 -0.07037
 H34 H 0.40170 -0.07360 0.02868
 H35 H 0.32731 -0.13134 -0.00494
 H36 H 0.39771 -0.08050 -0.12927
 H37 H 0.46860 -0.02269 -0.09173
 C38 C 0.52510 -0.10767 0.07903
 C39 C 0.48873 0.11178 0.08391
 C40 C 0.35421 -0.11331 -0.07130
 C41 C 0.62183 0.09425 -0.09215
 C42 C -0.07158 0.47462 0.60301
 H43 H -0.06870 0.44292 0.60112
 C44 C -0.10526 0.47758 0.57831
 H45 H -0.12764 0.44822 0.55683
 C46 C -0.04603 0.55098 0.63397
 H47 H -0.02358 0.57890 0.65654
 C48 C -0.07953 0.55539 0.60983
 H49 H -0.08258 0.58686 0.61402
 N50 N -0.04308 0.51078 0.63035
 C51 C 0.06859 0.47685 0.65191
 H52 H 0.06503 0.47069 0.68615
 C53 C 0.10276 0.47180 0.62825
 H54 H 0.12538 0.46149 0.64431
 C55 C 0.04472 0.49955 0.58947
 H56 H 0.02265 0.51119 0.57460
 C57 C 0.07913 0.49598 0.56482
 H58 H 0.08285 0.50420 0.53093
 Zn59 Zn -0.00422 0.49850 0.66593
 N60 N 0.03989 0.48975 0.63216
 C61 C -0.04432 0.40202 0.69477
 N62 N -0.04674 0.44259 0.69678
 C63 C -0.08226 0.44411 0.71924
 C64 C -0.11678 0.40410 0.74139
 C65 C -0.07800 0.36118 0.71677
 C66 C 0.06628 0.59215 0.68678
 C67 C 0.09733 0.63021 0.71335
 C68 C 0.05607 0.58181 0.77504
 C69 C 0.02610 0.54457 0.74729
 N70 N 0.03182 0.55027 0.70404
 H71 H -0.01689 0.40084 0.67562
 H72 H -0.08382 0.47656 0.71970
 H73 H -0.14447 0.40626 0.75942
 H74 H -0.07586 0.32904 0.71457
 H75 H 0.07051 0.59543 0.65225
 H76 H 0.12562 0.66254 0.69884
 H77 H 0.05082 0.57645 0.80935
 H78 H -0.00092 0.51080 0.76046
 C79 C 0.10845 0.48177 0.58423
 C80 C -0.11028 0.51791 0.58212
 C81 C 0.09288 0.62514 0.75820
 C82 C -0.11494 0.36190 0.74031
 C83 C 0.54813 0.48389 0.39455
 H84 H 0.51260 0.45254 0.39512
 C85 C 0.58421 0.48533 0.41912
 H86 H 0.57585 0.45520 0.43923
 C87 C 0.60192 0.56072 0.36675
 H88 H 0.60882 0.58931 0.34527
 C89 C 0.63936 0.56362 0.39087
 H90 H 0.67492 0.59468 0.38788
 N91 N 0.55752 0.52096 0.36878
 C92 C 0.40892 0.47821 0.34666
 H93 H 0.40584 0.47001 0.31262
 C94 C 0.36891 0.47136 0.37025
 H95 H 0.33488 0.45757 0.35436
 C96 C 0.45751 0.50833 0.40853
 H97 H 0.49236 0.52376 0.42308
 C98 C 0.41875 0.50306 0.43305
 H99 H 0.42377 0.51372 0.46661
 Zn100 Zn 0.50649 0.50922 0.33266
 N101 N 0.45199 0.49590 0.36615
 C102 C 0.45615 0.41228 0.30062
 N103 N 0.49600 0.45650 0.29780
 C104 C 0.53370 0.46442 0.27231
 C105 C 0.53233 0.42731 0.24812
 C106 C 0.45338 0.37383 0.27708
 C107 C 0.53392 0.60475 0.31867
 C108 C 0.54153 0.64418 0.29507
 C109 C 0.52365 0.59621 0.23030
 C110 C 0.51641 0.55775 0.25512
 N111 N 0.52167 0.56265 0.29847
 H112 H 0.42725 0.40630 0.32223
 H113 H 0.56531 0.49973 0.27132
 H114 H 0.56272 0.43476 0.22780
 H115 H 0.42205 0.33860 0.28064
 H116 H 0.53704 0.60741 0.35327
 H117 H 0.55132 0.67740 0.31174
 H118 H 0.51788 0.59107 0.19600
 H119 H 0.50502 0.52358 0.23977
 C120 C 0.37387 0.48444 0.41386
 C121 C 0.63082 0.52506 0.41679
 C122 C 0.53600 0.64007 0.25026
 C123 C 0.49214 0.38103 0.25079
 C124 C 0.21753 0.47539 0.51106
 C125 C 0.18481 0.43554 0.53508
 C126 C 0.14925 0.43762 0.55930
 C127 C 0.14582 0.47888 0.55889
 C128 C 0.17901 0.51776 0.53427
 N129 N 0.21389 0.51528 0.51166
 C130 C 0.25688 0.47583 0.48624
 N131 N 0.29988 0.51729 0.48398
 C132 C 0.33768 0.52054 0.46153
 C133 C 0.33302 0.48074 0.43884
 C134 C 0.28883 0.43782 0.44006
 C135 C 0.25075 0.43507 0.46409
 H136 H 0.12422 0.40700 0.57806
 H137 H 0.17770 0.55035 0.53362
 H138 H 0.37113 0.55438 0.46084
 H139 H 0.28402 0.40646 0.42279
 H140 H 0.18733 0.40363 0.53592
 H141 H 0.21670 0.40182 0.46459
 C142 C 0.54162 0.79006 0.14988
 C143 C 0.56926 0.80996 0.11249
 C144 C 0.56410 0.84350 0.08951
 C145 C 0.53198 0.85777 0.10379
 C146 C 0.50593 0.83792 0.14179
 N147 N 0.51123 0.80504 0.16339
 C148 C 0.54378 0.75301 0.17520
 N149 N 0.52436 0.74367 0.21549
 C150 C 0.52267 0.70892 0.24030
 C151 C 0.54072 0.68036 0.22462
 C152 C 0.56124 0.68950 0.18329
 C153 C 0.56277 0.72557 0.15849
 H154 H 0.58561 0.85866 0.06081
 H155 H 0.48051 0.84763 0.15383
 H156 H 0.50585 0.70272 0.27169
 H157 H 0.57587 0.66856 0.17000
 H158 H 0.59497 0.80046 0.10105
 H159 H 0.57750 0.73060 0.12634
 C160 C 0.23575 0.77607 0.86438
 C161 C 0.24122 0.77221 0.90830
 C162 C 0.27987 0.80936 0.93000
 C163 C 0.31416 0.85128 0.90837
 C164 C 0.30543 0.85390 0.86430
 N165 N 0.26737 0.81706 0.84409
 C166 C 0.19708 0.73656 0.83924
 N167 N 0.18159 0.74684 0.80287
 C168 C 0.14779 0.71222 0.77715
 C169 C 0.12789 0.66369 0.78714
 C170 C 0.14350 0.65240 0.82450
 C171 C 0.17788 0.68854 0.85055
 H172 H 0.28353 0.80287 0.96317
 H173 H 0.32750 0.88548 0.84562
 H174 H 0.13659 0.72272 0.74894
 H175 H 0.13030 0.61558 0.83297
 H176 H 0.21615 0.74066 0.92595
 H177 H 0.19038 0.67869 0.87829
 C178 C 0.77880 0.52035 0.51194
 C179 C 0.76978 0.47814 0.53184
 C180 C 0.80580 0.47774 0.55499
 C181 C 0.85097 0.51925 0.55872
 C182 C 0.85813 0.56128 0.53967
 N183 N 0.82238 0.56077 0.51697
 C184 C 0.74171 0.52150 0.48591
 N185 N 0.74061 0.56272 0.48330
 C186 C 0.70632 0.56523 0.46087
 C187 C 0.67026 0.52448 0.43965
 C188 C 0.67190 0.48223 0.44080
 C189 C 0.70742 0.48061 0.46368
 H190 H 0.79811 0.44493 0.57034
 H191 H 0.89236 0.59414 0.54195
 H192 H 0.70653 0.59860 0.46056
 H193 H 0.64583 0.45040 0.42372
 H194 H 0.73508 0.44577 0.53010
 H195 H 0.70815 0.44771 0.46349
 C196 C 0.49210 0.22760 0.15502
 C197 C 0.53273 0.23512 0.13173
 C198 C 0.53133 0.19753 0.10833
 C199 C 0.48963 0.15220 0.10795
 C200 C 0.44929 0.14645 0.13080
 N201 N 0.45150 0.18377 0.15342
 C202 C 0.49258 0.26650 0.18082
 N203 N 0.45156 0.26796 0.18582
 C204 C 0.45022 0.30357 0.20836
 C205 C 0.49195 0.34061 0.22743
 C206 C 0.53415 0.33879 0.22367
 C207 C 0.53463 0.30201 0.20049
 H208 H 0.56282 0.20418 0.09009
 H209 H 0.41637 0.11216 0.13143
 H210 H 0.41686 0.30347 0.21049
 H211 H 0.56682 0.36558 0.23902
 H212 H 0.56511 0.26987 0.13094
 H213 H 0.56751 0.30115 0.19857
 C214 C -0.26044 0.20033 0.83371
 C215 C -0.25141 0.18383 0.87172
 C216 C -0.28965 0.14849 0.89538
 C217 C -0.33693 0.12941 0.88139
 C218 C -0.34425 0.14628 0.84276
 N219 N -0.30649 0.18103 0.82051
 C220 C -0.22190 0.24032 0.80903
 N221 N -0.23346 0.26737 0.78488
 C222 C -0.20015 0.30573 0.76242
 C223 C -0.15173 0.31890 0.76335
 C224 C -0.13908 0.29082 0.78710
 C225 C -0.17398 0.25157 0.81000
 H226 H -0.28227 0.13740 0.92542
 H227 H -0.37995 0.13218 0.83034
 H228 H -0.21158 0.32584 0.74380
 H229 H -0.10211 0.29976 0.78863
 H230 H -0.21555 0.19918 0.88412
 H231 H -0.16342 0.23032 0.82791
   
