data_POSCAR
  _audit_creation_date              2014-09-24
  _audit_creation_method            'ToBaCCo'
  _symmetry_space_group_name_H-M    'P1'
  _symmetry_Int_Tables_number       1
  _symmetry_cell_setting            triclinic
  loop_
  _symmetry_equiv_pos_as_xyz
 x,y,z
_cell_length_a 23.6963
_cell_length_b 21.9481
_cell_length_c 26.6993
_cell_angle_alpha 88.875200
_cell_angle_beta 89.091200
_cell_angle_gamma 128.143600
loop_
  _atom_site_label
  _atom_site_type_symbol
  _atom_site_fract_x
  _atom_site_fract_y
  _atom_site_fract_z
C1 C 0.01115 0.46771 1.37479
 C2 C 0.05657 0.46029 1.34664
 C3 C 0.04938 0.45267 1.29446
 C4 C -0.00016 0.45754 1.26940
 C5 C -0.04502 0.46530 1.29884
 C6 C -0.03996 0.46943 1.35092
 C7 C 0.00075 0.46439 1.21313
 C8 C -0.05879 0.44866 1.18718
 C9 C -0.05177 0.46857 1.13569
 C10 C 0.01274 0.50040 1.10974
 C11 C 0.06975 0.51025 1.13360
 C12 C 0.06416 0.49350 1.18490
 H13 H 0.01729 0.47498 1.41491
 H14 H 0.08395 0.44477 1.27384
 H15 H -0.08105 0.47341 1.28154
 H16 H -0.10966 0.42298 1.20658
 H17 H 0.01702 0.51392 1.06995
 H18 H 0.11125 0.50692 1.20241
 C19 C 0.53816 0.54753 1.39839
 C20 C 0.48876 0.55310 1.37572
 C21 C 0.46846 0.52802 1.32681
 C22 C 0.50334 0.50599 1.29761
 C23 C 0.55335 0.50130 1.32132
 C24 C 0.56986 0.52092 1.37161
 C25 C 0.49299 0.49683 1.24189
 C26 C 0.50952 0.45551 1.21285
 C27 C 0.49664 0.44721 1.16099
 C28 C 0.46467 0.47659 1.13899
 C29 C 0.45255 0.52151 1.16607
 C30 C 0.46894 0.53365 1.21642
 H31 H 0.55675 0.57034 1.43532
 H32 H 0.42893 0.53165 1.31088
 H33 H 0.58355 0.48785 1.30028
 H34 H 0.53113 0.42908 1.22982
 H35 H 0.45491 0.46997 1.09922
 H36 H 0.46312 0.57289 1.23493
 C37 C 0.48351 1.02720 1.38139
 C38 C 0.43195 0.94842 1.37056
 C39 C 0.40554 0.92792 1.32171
 C40 C 0.43252 0.98552 1.28352
 C41 C 0.48648 1.06311 1.29493
 C42 C 0.50996 1.08442 1.34327
 C43 C 0.40945 0.96763 1.23079
 C44 C 0.41438 1.02452 1.20072
 C45 C 0.42114 1.02536 1.14893
 C46 C 0.41016 0.96235 1.12631
 C47 C 0.39654 0.90064 1.15512
 C48 C 0.39652 0.90290 1.20761
 H49 H 0.50257 1.04347 1.41910
 H50 H 0.36516 0.86758 1.31344
 H51 H 0.51137 1.10878 1.26603
 H52 H 0.42282 1.07409 1.21728
 H53 H 0.41500 0.96269 1.08584
 H54 H 0.39213 0.85798 1.22945
 C55 C 0.99316 0.47010 0.62868
 C56 C 0.94645 0.47866 0.65435
 C57 C 0.95408 0.49283 0.70543
 C58 C 1.00448 0.49221 0.73232
 C59 C 1.05016 0.48186 0.70594
 C60 C 1.04495 0.47198 0.65405
 C61 C 1.00592 0.49732 0.78796
 C62 C 1.07036 0.53099 0.81316
 C63 C 1.07016 0.53020 0.86568
 C64 C 1.00668 0.49965 0.89311
 C65 C 0.94279 0.46807 0.86891
 C66 C 0.94192 0.46510 0.81662
 H67 H 0.98805 0.46005 0.58882
 H68 H 0.91855 0.50105 0.72422
 H69 H 1.08795 0.47873 0.72562
 H70 H 1.12019 0.55617 0.79232
 H71 H 1.00661 0.49854 0.93372
 H72 H 0.89089 0.43578 0.79882
 C73 C 0.56960 0.57993 0.61049
 C74 C 0.58369 0.53262 0.63223
 C75 C 0.56242 0.50596 0.68225
 C76 C 0.52875 0.52882 0.71177
 C77 C 0.51031 0.57233 0.68739
 C78 C 0.52909 0.59585 0.63660
 C79 C 0.51472 0.50922 0.76733
 C80 C 0.46696 0.51569 0.79439
 C81 C 0.46266 0.51057 0.84664
 C82 C 0.50164 0.49265 0.87278
 C83 C 0.54496 0.47981 0.84732
 C84 C 0.55208 0.48862 0.79482
 H85 H 0.58347 0.59731 0.57115
 H86 H 0.57276 0.46784 0.69734
 H87 H 0.48213 0.58942 0.70682
 H88 H 0.43442 0.52762 0.77590
 H89 H 0.49644 0.48619 0.91330
 H90 H 0.58865 0.48167 0.77656
 C91 C 0.47060 -0.01847 0.60877
 C92 C 0.52967 0.05294 0.62636
 C93 C 0.54622 0.05915 0.67693
 C94 C 0.50261 -0.00410 0.71104
 C95 C 0.44426 -0.07578 0.69289
 C96 C 0.42872 -0.08333 0.64190
 C97 C 0.51660 0.00545 0.76557
 C98 C 0.50828 -0.05395 0.79474
 C99 C 0.52125 -0.04530 0.84603
 C100 C 0.54082 0.02150 0.86879
 C101 C 0.55091 0.08186 0.84036
 C102 C 0.53957 0.07440 0.78877
 H103 H 0.45739 -0.02348 0.56963
 H104 H 0.59225 0.11444 0.68979
 H105 H 0.40937 -0.12517 0.71857
 H106 H 0.49453 -0.10554 0.77731
 H107 H 0.55269 0.02882 0.90827
 H108 H 0.54755 0.12164 0.76724
 O109 O 0.45001 0.62984 0.98022
 O110 O 0.49261 0.76754 0.95657
 C111 C 0.47947 0.80838 0.93393
 O112 O 0.42457 0.80450 0.94426
 O113 O 0.30327 0.68381 0.91215
 C114 C 0.25024 0.61374 0.90751
 O115 O 0.23800 0.56075 0.93725
 O116 O 0.34675 0.55411 0.93975
 C117 C 0.41201 0.58269 0.94610
 O118 O 0.41236 0.64272 1.07317
 O119 O 0.45988 0.78431 1.05003
 C120 C 0.41661 0.79832 1.06087
 O121 O 0.36043 0.77160 1.03712
 O122 O 0.23932 0.65472 1.00453
 C123 C 0.21045 0.59572 1.03438
 O124 O 0.23097 0.55407 1.03676
 O125 O 0.32851 0.53162 1.03888
 C126 C 0.37311 0.56962 1.07271
 Cr127 Cr 0.45061 0.70485 1.01439
 Cr128 Cr 0.33304 0.72685 0.97508
 Cr129 Cr 0.28829 0.55359 0.98818
 O130 O 0.35781 0.66249 0.99241
 O131 O 0.57473 0.36440 0.95227
 O132 O 0.53836 0.22450 0.96013
 C133 C 0.57812 0.21630 0.93360
 O134 O 0.64450 0.25436 0.94071
 O135 O 0.77255 0.36701 0.96961
 C136 C 0.79845 0.43337 0.95048
 O137 O 0.77490 0.46985 0.96232
 O138 O 0.66912 0.47680 0.98111
 C139 C 0.61774 0.43785 0.95094
 O140 O 0.55952 0.36551 1.05322
 O141 O 0.53239 0.23001 1.05997
 C142 C 0.54996 0.18595 1.06179
 O143 O 0.60209 0.19883 1.03607
 O144 O 0.72771 0.31579 1.06571
 C145 C 0.77418 0.38436 1.07950
 O146 O 0.78051 0.44227 1.06042
 O147 O 0.67144 0.44372 1.07960
 C148 C 0.60544 0.41318 1.08439
 Cr149 Cr 0.55486 0.29826 1.00643
 Cr150 Cr 0.68567 0.28615 1.00328
 Cr151 Cr 0.72148 0.45440 1.02058
 O152 O 0.65423 0.34640 1.01033
 O153 O 0.69119 0.47198 0.55240
 O154 O 0.78475 0.44502 0.56561
 C155 C 0.80841 0.40686 0.56152
 O156 O 0.79244 0.36177 0.52613
 O157 O 0.65742 0.23881 0.52511
 C158 C 0.59062 0.20571 0.52952
 O159 O 0.56123 0.23157 0.50790
 O160 O 0.58647 0.35437 0.54731
 C161 C 0.62620 0.42007 0.56657
 O162 O 0.73824 0.51393 0.45714
 O163 O 0.83395 0.49500 0.47079
 C164 C 0.83723 0.46124 0.43426
 O165 O 0.79143 0.38855 0.42827
 O166 O 0.65750 0.25793 0.42586
 C167 C 0.61676 0.26575 0.40156
 O168 O 0.59787 0.30508 0.41657
 O169 O 0.61900 0.42543 0.45474
 C170 C 0.67823 0.49060 0.44114
 Cr171 Cr 0.75932 0.47741 0.51106
 Cr172 Cr 0.72352 0.31382 0.47683
 Cr173 Cr 0.59462 0.33055 0.48201
 O174 O 0.69217 0.37374 0.49026
 O175 O 0.33308 0.54621 0.56516
 O176 O 0.20159 0.47524 0.54132
 C177 C 0.16873 0.49534 0.56493
 O178 O 0.17736 0.55730 0.55423
 O179 O 0.26499 0.70826 0.54534
 C180 C 0.31748 0.74454 0.57458
 O181 O 0.36998 0.74270 0.57149
 O182 O 0.42740 0.67092 0.55696
 C183 C 0.39487 0.60356 0.57727
 O184 O 0.37721 0.57352 0.46660
 O185 O 0.24446 0.50587 0.44306
 C186 C 0.19495 0.50830 0.42962
 O187 O 0.17916 0.54648 0.45275
 O188 O 0.27345 0.69860 0.44490
 C189 C 0.33648 0.76255 0.44297
 O190 O 0.38438 0.77820 0.47327
 O191 O 0.43338 0.70083 0.45819
 C192 C 0.42503 0.64028 0.44606
 Cr193 Cr 0.28969 0.52896 0.50407
 Cr194 Cr 0.22660 0.62747 0.49952
 Cr195 Cr 0.40003 0.71933 0.51482
 O196 O 0.30532 0.62509 0.50619
 N197 N 0.47725 0.59972 0.39394
 N198 N 0.47302 0.65015 0.40763
 N199 N 0.40957 0.89024 0.40895
 N200 N 0.35439 0.81974 0.40534
 N201 N 0.10741 0.46321 0.36840
 N202 N 0.15550 0.46450 0.38696
 N203 N 0.62469 0.52906 0.39024
 N204 N 0.67911 0.54169 0.40666
 N205 N 0.55321 0.15857 0.35168
 N206 N 0.59145 0.22947 0.35501
 N207 N 0.92504 0.48743 0.37614
 N208 N 0.89593 0.50948 0.39941
 N209 N 0.51852 0.41376 1.12810
 N210 N 0.58333 0.43883 1.12375
 N211 N 0.89120 0.45582 1.10730
 N212 N 0.82573 0.39696 1.11404
 N213 N 0.45668 0.09694 1.12107
 N214 N 0.50893 0.11680 1.09206
 N215 N 0.43064 0.56139 1.14085
 N216 N 0.38658 0.52875 1.10582
 N217 N 0.13332 0.53594 1.10572
 N218 N 0.15015 0.57393 1.06436
 N219 N 0.38562 0.83819 1.12927
 N220 N 0.43407 0.85182 1.09848
 N221 N 0.61565 0.50867 0.60109
 N222 N 0.59461 0.43951 0.60201
 N223 N 0.57285 0.12090 0.59418
 N224 N 0.54595 0.13638 0.56021
 N225 N 0.88826 0.46736 0.62884
 N226 N 0.86066 0.41888 0.59428
 N227 N 0.49768 0.62337 0.60813
 N228 N 0.43042 0.58807 0.61178
 N229 N 0.37176 0.85089 0.62615
 N230 N 0.31656 0.79009 0.61167
 N231 N 0.08459 0.45900 0.62941
 N232 N 0.12005 0.44513 0.60530
 N233 N 0.42349 0.53020 0.87335
 N234 N 0.44525 0.55986 0.91585
 N235 N 0.13210 0.55531 0.89289
 N236 N 0.19572 0.59500 0.87418
 N237 N 0.52385 0.90519 0.87150
 N238 N 0.52974 0.86091 0.89524
 N239 N 0.57579 0.45091 0.87509
 N240 N 0.60286 0.47769 0.91757
 N241 N 0.87778 0.43128 0.89826
 N242 N 0.85929 0.47001 0.91649
 N243 N 0.58000 0.15297 0.86409
 N244 N 0.54487 0.15394 0.90010
   
