data_POSCAR
  _audit_creation_date              2014-09-24
  _audit_creation_method            'ToBaCCo'
  _symmetry_space_group_name_H-M    'P1'
  _symmetry_Int_Tables_number       1
  _symmetry_cell_setting            triclinic
  loop_
  _symmetry_equiv_pos_as_xyz
 x,y,z
_cell_length_a 30.8069
_cell_length_b 30.8722
_cell_length_c 30.8984
_cell_angle_alpha 91.070300
_cell_angle_beta 91.003000
_cell_angle_gamma 89.003500
loop_
  _atom_site_label
  _atom_site_type_symbol
  _atom_site_fract_x
  _atom_site_fract_y
  _atom_site_fract_z
C1 C 0.03007 0.44314 0.18785
 H2 H 0.05610 0.46603 0.18564
 C3 C 0.03270 0.40326 0.16563
 H4 H 0.06065 0.39562 0.14591
 C5 C -0.03713 0.42406 0.21789
 H6 H -0.06368 0.43148 0.23924
 C7 C -0.03584 0.38403 0.19626
 H8 H -0.06176 0.36130 0.20070
 N9 N -0.00445 0.45270 0.21346
 C10 C -0.01200 0.59244 0.23764
 H11 H -0.01582 0.59154 0.27235
 C12 C -0.01227 0.63210 0.21685
 H13 H -0.01638 0.66189 0.23555
 C14 C -0.00150 0.55465 0.17096
 H15 H 0.00264 0.52434 0.15334
 C16 C -0.00155 0.59382 0.14880
 H17 H 0.00271 0.59369 0.11407
 Zn18 Zn -0.00445 0.50407 0.24818
 N19 N -0.00605 0.55481 0.21472
 C20 C 0.07622 0.53564 0.27828
 N21 N 0.04720 0.50328 0.28254
 C22 C 0.05645 0.46861 0.30792
 C23 C 0.09633 0.46561 0.33021
 C24 C 0.11626 0.53393 0.29998
 C25 C -0.09288 0.51242 0.25976
 C26 C -0.13237 0.51302 0.28106
 C27 C -0.09335 0.50166 0.34857
 C28 C -0.05436 0.50131 0.32591
 N29 N -0.05498 0.50600 0.28217
 H30 H 0.06904 0.56230 0.25710
 H31 H 0.03327 0.44284 0.31000
 H32 H 0.10378 0.43765 0.34984
 H33 H 0.13932 0.55957 0.29583
 H34 H -0.09233 0.51638 0.22505
 H35 H -0.16239 0.51750 0.26276
 H36 H -0.09285 0.49728 0.38328
 H37 H -0.02384 0.49683 0.34314
 C38 C -0.00667 0.63288 0.17212
 C39 C -0.00047 0.37329 0.17021
 C40 C -0.13269 0.50725 0.32578
 C41 C 0.12658 0.49850 0.32589
 C42 C 0.03708 0.55623 0.80983
 H43 H 0.06344 0.53276 0.81244
 C44 C 0.03963 0.59606 0.83207
 H45 H 0.06785 0.60323 0.85217
 C46 C -0.03103 0.57676 0.77886
 H47 H -0.05793 0.56992 0.75712
 C48 C -0.02981 0.61675 0.80048
 H49 H -0.05603 0.64011 0.79573
 N50 N 0.00212 0.54742 0.78377
 C51 C -0.00333 0.40799 0.75997
 H52 H -0.00690 0.40878 0.72510
 C53 C -0.00412 0.36856 0.78106
 H54 H -0.00823 0.33879 0.76242
 C55 C 0.00612 0.44598 0.82687
 H56 H 0.00972 0.47632 0.84446
 C57 C 0.00552 0.40703 0.84934
 H58 H 0.00892 0.40732 0.88430
 Zn59 Zn 0.00190 0.49605 0.74927
 N60 N 0.00215 0.44559 0.78291
 C61 C 0.08227 0.46346 0.71938
 N62 N 0.05216 0.49594 0.71480
 C63 C 0.05945 0.53027 0.68902
 C64 C 0.09844 0.53284 0.66670
 C65 C 0.12149 0.46474 0.69765
 C66 C -0.08649 0.48902 0.73868
 C67 C -0.12696 0.48835 0.71796
 C68 C -0.09145 0.49819 0.64967
 C69 C -0.05141 0.49862 0.67184
 N70 N -0.04986 0.49466 0.71565
 H71 H 0.07663 0.43710 0.74090
 H72 H 0.03543 0.55614 0.68670
 H73 H 0.10438 0.56057 0.64681
 H74 H 0.14550 0.43907 0.70210
 H75 H -0.08415 0.48560 0.77343
 H76 H -0.15588 0.48438 0.73692
 H77 H -0.09255 0.50190 0.61484
 H78 H -0.02181 0.50245 0.65416
 C79 C 0.00046 0.36801 0.82608
 C80 C 0.00595 0.62667 0.82700
 C81 C -0.12959 0.49328 0.67309
 C82 C 0.12983 0.49987 0.67139
 C83 C 0.18848 0.03799 0.44414
 H84 H 0.18584 0.06426 0.46767
 C85 C 0.16592 0.04043 0.40452
 H86 H 0.14554 0.06847 0.39756
 C87 C 0.21982 -0.02979 0.42328
 H88 H 0.24180 -0.05652 0.42993
 C89 C 0.19787 -0.02867 0.38349
 H90 H 0.20264 -0.05481 0.36007
 N91 N 0.21485 0.00324 0.45269
 C92 C 0.23925 -0.00218 0.59182
 H93 H 0.27423 -0.00561 0.59084
 C94 C 0.21828 -0.00298 0.63133
 H95 H 0.23711 -0.00699 0.66097
 C96 C 0.17197 0.00703 0.55421
 H97 H 0.15419 0.01056 0.52399
 C98 C 0.14960 0.00641 0.59325
 H99 H 0.11454 0.00971 0.59315
 Zn100 Zn 0.24962 0.00317 0.50385
 N101 N 0.21607 0.00321 0.55438
 C102 C 0.27923 0.08348 0.53644
 N103 N 0.28390 0.05347 0.50392
 C104 C 0.30970 0.06084 0.46959
 C105 C 0.33198 0.09980 0.46706
 C106 C 0.30092 0.12267 0.53521
 C107 C 0.26081 -0.08499 0.51059
 C108 C 0.28195 -0.12518 0.51134
 C109 C 0.35014 -0.08921 0.50178
 C110 C 0.32761 -0.04943 0.50125
 N111 N 0.28364 -0.04824 0.50505
 H112 H 0.25768 0.07776 0.56281
 H113 H 0.31208 0.03689 0.44369
 H114 H 0.35191 0.10581 0.43933
 H115 H 0.29640 0.14660 0.56091
 H116 H 0.22593 -0.08295 0.51391
 H117 H 0.26336 -0.15428 0.51525
 H118 H 0.38507 -0.09022 0.49825
 H119 H 0.34514 -0.01975 0.49753
 C120 C 0.17312 0.00148 0.63210
 C121 C 0.17101 0.00686 0.37385
 C122 C 0.32693 -0.12737 0.50663
 C123 C 0.32722 0.13108 0.50009
 C124 C 0.81246 0.02960 0.55438
 H125 H 0.81451 0.05554 0.53148
 C126 C 0.83476 0.03244 0.59419
 H127 H 0.85438 0.06043 0.60186
 C128 C 0.78273 -0.03757 0.57363
 H129 H 0.76145 -0.06421 0.56632
 C130 C 0.80445 -0.03604 0.61357
 H131 H 0.80021 -0.06178 0.63641
 N132 N 0.78695 -0.00502 0.54494
 C133 C 0.76225 -0.01338 0.40547
 H134 H 0.72747 -0.01742 0.40657
 C135 C 0.78294 -0.01379 0.36574
 H136 H 0.76400 -0.01823 0.33613
 C137 C 0.82917 -0.00222 0.44287
 H138 H 0.84691 0.00224 0.47305
 C139 C 0.85127 -0.00237 0.40362
 H140 H 0.88608 0.00212 0.40369
 Zn141 Zn 0.75195 -0.00531 0.49378
 N142 N 0.78533 -0.00705 0.44293
 C143 C 0.72144 0.07493 0.46208
 N144 N 0.71740 0.04617 0.49459
 C145 C 0.69229 0.05566 0.52946
 C146 C 0.67018 0.09558 0.53259
 C147 C 0.69990 0.11500 0.46390
 C148 C 0.74060 -0.09357 0.48560
 C149 C 0.71943 -0.13308 0.48539
 C150 C 0.65169 -0.09442 0.49755
 C151 C 0.67422 -0.05540 0.49749
 N152 N 0.71802 -0.05583 0.49222
 H153 H 0.74240 0.06756 0.43523
 H154 H 0.69039 0.03268 0.55534
 H155 H 0.65087 0.10327 0.56075
 H156 H 0.70396 0.13789 0.43818
 H157 H 0.77534 -0.09287 0.48121
 H158 H 0.73788 -0.16297 0.48077
 H159 H 0.61696 -0.09408 0.50242
 H160 H 0.65686 -0.02501 0.50217
 C161 C 0.82778 -0.00789 0.36470
 C162 C 0.83035 -0.00058 0.62416
 C163 C 0.67468 -0.13359 0.49177
 C164 C 0.67437 0.12561 0.49959
 C165 C 0.55427 0.18901 0.96226
 H166 H 0.53075 0.18665 0.93595
 C167 C 0.59395 0.16640 0.95970
 H168 H 0.60095 0.14624 0.93152
 C169 C 0.57512 0.21977 1.03025
 H170 H 0.56847 0.24157 1.05711
 C171 C 0.61496 0.19776 1.02901
 H172 H 0.63841 0.20227 1.05519
 N173 N 0.54570 0.21515 0.99716
 C174 C 0.40622 0.24025 1.00240
 H175 H 0.40731 0.27516 1.00584
 C176 C 0.36651 0.21945 1.00323
 H177 H 0.33687 0.23844 1.00725
 C178 C 0.44374 0.17300 0.99325
 H179 H 0.47401 0.15516 0.98978
 C180 C 0.40453 0.15077 0.99390
 H181 H 0.40465 0.11576 0.99065
 Zn182 Zn 0.49462 0.25018 0.99731
 N183 N 0.44371 0.21700 0.99706
 C184 C 0.46245 0.28037 0.91714
 N185 N 0.49503 0.28453 0.94720
 C186 C 0.52985 0.30981 0.93999
 C187 C 0.53284 0.33207 0.90115
 C188 C 0.46413 0.30206 0.87805
 C189 C 0.48768 0.26122 1.08545
 C190 C 0.48743 0.28218 1.12572
 C191 C 0.49817 0.35015 1.09008
 C192 C 0.49818 0.32780 1.05022
 N193 N 0.49360 0.28401 1.04883
 H194 H 0.43568 0.25922 0.92273
 H195 H 0.55578 0.31179 0.96398
 H196 H 0.56095 0.35159 0.89529
 H197 H 0.43837 0.29796 0.85408
 H198 H 0.48378 0.22648 1.08326
 H199 H 0.48330 0.26360 1.15473
 H200 H 0.50240 0.38491 1.09124
 H201 H 0.50223 0.34531 1.02065
 C202 C 0.36558 0.17434 0.99884
 C203 C 0.62465 0.17117 0.99331
 C204 C 0.49303 0.32695 1.12812
 C205 C 0.49976 0.32783 0.86981
 C206 C 0.44262 0.81000 0.97113
 H207 H 0.46573 0.81198 0.94531
 C208 C 0.40277 0.83235 0.96816
 H209 H 0.39537 0.85192 0.94014
 C210 C 0.42297 0.78049 1.03820
 H211 H 0.43018 0.75931 1.06485
 C212 C 0.38295 0.80225 1.03656
 H213 H 0.36001 0.79808 1.06230
 N214 N 0.45190 0.78463 1.00577
 C215 C 0.59185 0.76080 1.01443
 H216 H 0.59099 0.72609 1.01851
 C217 C 0.63156 0.78173 1.01477
 H218 H 0.66142 0.76315 1.01917
 C219 C 0.55392 0.82730 1.00322
 H220 H 0.52354 0.84481 0.99877
 C221 C 0.59313 0.84960 1.00330
 H222 H 0.59295 0.88431 0.99875
 Zn223 Zn 0.50335 0.74993 1.00634
 N224 N 0.55414 0.78356 1.00809
 C225 C 0.53555 0.71944 0.92628
 N226 N 0.50293 0.71523 0.95500
 C227 C 0.46821 0.68981 0.94557
 C228 C 0.46538 0.66750 0.90576
 C229 C 0.53403 0.69771 0.88634
 C230 C 0.51113 0.73909 1.09461
 C231 C 0.51157 0.71811 1.13415
 C232 C 0.50051 0.65019 1.09567
 C233 C 0.50031 0.67254 1.05662
 N234 N 0.50496 0.71632 1.05695
 H235 H 0.56226 0.74065 0.93360
 H236 H 0.44223 0.68777 0.96851
 H237 H 0.43736 0.64790 0.89813
 H238 H 0.55985 0.70188 0.86349
 H239 H 0.51505 0.77382 1.09383
 H240 H 0.51588 0.73669 1.16397
 H241 H 0.49621 0.61544 1.09540
 H242 H 0.49601 0.65502 1.02629
 C243 C 0.63228 0.82644 1.00880
 C244 C 0.37254 0.82812 1.00110
 C245 C 0.50589 0.67334 1.13476
 C246 C 0.49851 0.67184 0.87579
 B247 B 0.99957 1.04521 0.02707
 B248 B 1.02763 1.00117 0.04398
 B249 B 0.97294 1.00130 0.04321
 B250 B 0.95549 1.02813 -0.00095
 B251 B 0.99939 1.04455 -0.02742
 B252 B 1.04394 1.02788 0.00031
 B253 B 1.00072 0.95629 -0.02811
 B254 B 0.97265 1.00031 -0.04503
 B255 B 1.02729 1.00019 -0.04419
 B256 B 1.04479 0.97334 -0.00010
 B257 B 1.00089 0.95688 0.02642
 B258 B 0.95630 0.97355 -0.00136
 B259 B 0.54420 0.49870 0.47502
 B260 B 0.54447 0.49930 0.52952
 B261 B 0.52691 0.54323 0.50241
 B262 B 0.49956 0.52603 0.45784
 B263 B 0.50022 0.47149 0.45742
 B264 B 0.52798 0.45492 0.50172
 B265 B 0.45600 0.49976 0.52843
 B266 B 0.45573 0.49918 0.47391
 B267 B 0.47329 0.45524 0.50103
 B268 B 0.50065 0.47242 0.54561
 B269 B 0.49998 0.52699 0.54607
 B270 B 0.47225 0.54351 0.50173
 C271 C 1.00211 1.33314 0.15122
 C272 C 1.00331 1.29704 0.13560
 C273 C 1.00359 1.25350 0.11802
 C274 C 1.02165 1.21946 0.14219
 C275 C 1.02043 1.17689 0.12588
 C276 C 1.00099 1.16821 0.08540
 C277 C 0.98308 1.20225 0.06117
 C278 C 0.98436 1.24479 0.07744
 C279 C 1.00011 1.12469 0.06804
 C280 C 0.99955 1.08898 0.05171
 H281 H 1.03644 1.22580 0.17369
 H282 H 1.03454 1.15083 0.14478
 H283 H 0.96810 1.19588 0.02975
 H284 H 0.97013 1.27080 0.05854
 C285 C 0.99463 0.67397 0.15097
 C286 C 0.99589 0.70925 0.13497
 C287 C 0.99751 0.75204 0.11739
 C288 C 0.98311 0.75957 0.07490
 C289 C 0.98416 0.80137 0.05831
 C290 C 0.99963 0.83580 0.08412
 C291 C 1.01411 0.82829 0.12656
 C292 C 1.01302 0.78649 0.14317
 C293 C 1.00071 0.87861 0.06672
 C294 C 1.00119 0.91376 0.05054
 H295 H 0.97099 0.73322 0.05471
 H296 H 0.97285 0.80689 0.02543
 H297 H 1.02615 0.85468 0.14676
 H298 H 1.02416 0.78104 0.17611
 C299 C 0.99998 1.32717 -0.15233
 C300 C 0.99947 1.29201 -0.13607
 C301 C 0.99881 1.24929 -0.11836
 C302 C 1.01717 1.24141 -0.07741
 C303 C 1.01725 1.19957 -0.06086
 C304 C 0.99897 1.16550 -0.08518
 C305 C 0.98050 1.17338 -0.12605
 C306 C 0.98047 1.21521 -0.14263
 C307 C 0.99880 1.12273 -0.06774
 C308 C 0.99888 1.08760 -0.05155
 H309 H 1.03152 1.26750 -0.05842
 H310 H 1.03157 1.19376 -0.02916
 H311 H 0.96621 1.14725 -0.14504
 H312 H 0.96628 1.22096 -0.17438
 C313 C 1.00846 0.66905 -0.15307
 C314 C 1.00923 0.70525 -0.13780
 C315 C 1.00886 0.74896 -0.12081
 C316 C 0.99016 0.78238 -0.14539
 C317 C 0.98872 0.82479 -0.12873
 C318 C 1.00602 0.83394 -0.08744
 C319 C 1.02498 0.80061 -0.06296
 C320 C 1.02637 0.75817 -0.07959
 C321 C 1.00361 0.87717 -0.06956
 C322 C 1.00190 0.91269 -0.05291
 H323 H 0.97645 0.77557 -0.17727
 H324 H 0.97391 0.85033 -0.14785
 H325 H 1.03840 0.80739 -0.03094
 H326 H 1.04081 0.73259 -0.06028
 C327 C 1.15065 1.00923 0.33170
 C328 C 1.13498 1.00989 0.29570
 C329 C 1.11746 1.00937 0.25224
 C330 C 1.13943 1.02996 0.21924
 C331 C 1.12344 1.02786 0.17661
 C332 C 1.08553 1.00501 0.16687
 C333 C 1.06347 0.98458 0.19988
 C334 C 1.07941 0.98673 0.24248
 C335 C 1.06838 1.00332 0.12337
 C336 C 1.05217 1.00206 0.08767
 H337 H 1.16901 1.04737 0.22642
 H338 H 1.14058 1.04395 0.15133
 H339 H 1.03400 0.96698 0.19266
 H340 H 1.06229 0.97052 0.26769
 C341 C 1.15167 1.00105 -0.32698
 C342 C 1.13557 1.00061 -0.29174
 C343 C 1.11807 1.00004 -0.24894
 C344 C 1.14336 0.98351 -0.21468
 C345 C 1.12692 0.98354 -0.17279
 C346 C 1.08517 1.00018 -0.16506
 C347 C 1.05984 1.01667 -0.19929
 C348 C 1.07626 1.01660 -0.24119
 C349 C 1.06782 0.99992 -0.12226
 C350 C 1.05162 0.99988 -0.08714
 H351 H 1.17578 0.97072 -0.22034
 H352 H 1.14668 0.97064 -0.14653
 H353 H 1.02747 1.02959 -0.19357
 H354 H 1.05648 1.02953 -0.26742
 C355 C 0.84777 0.99323 0.32576
 C356 C 0.86384 0.99439 0.29049
 C357 C 0.88141 0.99589 0.24769
 C358 C 0.92240 1.01342 0.24131
 C359 C 0.93891 1.01539 0.19952
 C360 C 0.91452 0.99986 0.16398
 C361 C 0.87357 0.98231 0.17034
 C362 C 0.85703 0.98039 0.21211
 C363 C 0.93219 1.00094 0.12128
 C364 C 0.94856 1.00145 0.08621
 H365 H 0.94149 1.02558 0.26855
 H366 H 0.97070 1.02890 0.19493
 H367 H 0.85454 0.97005 0.14309
 H368 H 0.82525 0.96685 0.21668
 C369 C 0.85034 1.00235 -0.33343
 C370 C 0.86576 1.00361 -0.29728
 C371 C 0.88306 1.00395 -0.25368
 C372 C 0.85958 1.02409 -0.22020
 C373 C 0.87554 1.02295 -0.17754
 C374 C 0.91495 1.00153 -0.16820
 C375 C 0.93848 0.98153 -0.20168
 C376 C 0.92258 0.98271 -0.24431
 C377 C 0.93202 1.00081 -0.12461
 C378 C 0.94816 1.00033 -0.08885
 H379 H 0.82889 1.04042 -0.22704
 H380 H 0.85720 1.03869 -0.15191
 H381 H 0.96909 0.96502 -0.19480
 H382 H 0.94091 0.96687 -0.26988
 C383 C 1.32673 1.15406 -0.00062
 C384 C 1.29151 1.13771 -0.00006
 C385 C 1.24876 1.11980 0.00066
 C386 C 1.24051 1.07968 -0.01944
 C387 C 1.19863 1.06296 -0.01946
 C388 C 1.16489 1.08630 0.00063
 C389 C 1.17313 1.12634 0.02083
 C390 C 1.21501 1.14309 0.02080
 C391 C 1.12211 1.06864 0.00088
 C392 C 1.08697 1.05225 0.00084
 H393 H 1.26634 1.06147 -0.03519
 H394 H 1.19253 1.03190 -0.03511
 H395 H 1.14727 1.14455 0.03653
 H396 H 1.22105 1.17421 0.03634
 C397 C 0.66691 1.15084 -0.00921
 C398 C 0.70302 1.13521 -0.00998
 C399 C 0.74662 1.11776 -0.00956
 C400 C 0.78038 1.14158 -0.02676
 C401 C 0.82311 1.12556 -0.02462
 C402 C 0.83218 1.08575 -0.00512
 C403 C 0.79841 1.06186 0.01189
 C404 C 0.75571 1.07783 0.00970
 C405 C 0.87583 1.06871 -0.00326
 C406 C 0.91164 1.05258 -0.00190
 H407 H 0.77372 1.17260 -0.04151
 H408 H 0.84899 1.14416 -0.03803
 H409 H 0.80512 1.03096 0.02691
 H410 H 0.72990 1.05926 0.02329
 C411 C 1.33246 0.84734 -0.00176
 C412 C 1.29641 0.86322 -0.00322
 C413 C 1.25295 0.88115 -0.00379
 C414 C 1.24493 0.92302 0.01278
 C415 C 1.20248 0.93973 0.01385
 C416 C 1.16783 0.91464 -0.00161
 C417 C 1.17581 0.87286 -0.01839
 C418 C 1.21830 0.85613 -0.01941
 C419 C 1.12436 0.93230 -0.00075
 C420 C 1.08866 0.94878 -0.00018
 H421 H 1.27142 0.94260 0.02512
 H422 H 1.19663 0.97212 0.02682
 H423 H 1.14926 0.85327 -0.03055
 H424 H 1.22411 0.82363 -0.03211
 C425 C 0.67341 0.84772 0.00747
 C426 C 0.70873 0.86384 0.00616
 C427 C 0.75157 0.88153 0.00447
 C428 C 0.78694 0.85891 0.02289
 C429 C 0.82878 0.87553 0.02075
 C430 C 0.83542 0.91477 0.00006
 C431 C 0.80008 0.93740 -0.01838
 C432 C 0.75823 0.92081 -0.01620
 C433 C 0.87813 0.93264 -0.00114
 C434 C 0.91323 0.94913 -0.00167
 H435 H 0.78217 0.82846 0.03886
 H436 H 0.85586 0.85791 0.03530
 H437 H 0.80488 0.96789 -0.03430
 H438 H 0.73115 0.93853 -0.03062
 C439 C 0.82639 0.50627 0.34747
 C440 C 0.79125 0.50527 0.36397
 C441 C 0.74860 0.50395 0.38213
 C442 C 0.74238 0.48435 0.42203
 C443 C 0.70070 0.48248 0.43906
 C444 C 0.66509 0.50018 0.41624
 C445 C 0.67130 0.51980 0.37639
 C446 C 0.71296 0.52163 0.35934
 C447 C 0.62250 0.49910 0.43437
 C448 C 0.58743 0.49858 0.45090
 H449 H 0.76967 0.47050 0.43988
 H450 H 0.69622 0.46735 0.46999
 H451 H 0.64400 0.53373 0.35860
 H452 H 0.71740 0.53676 0.32841
 C453 C 0.16889 0.49558 0.34626
 C454 C 0.20492 0.49432 0.36216
 C455 C 0.24833 0.49399 0.38021
 C456 C 0.28356 0.48194 0.35423
 C457 C 0.32593 0.48320 0.37124
 C458 C 0.33320 0.49664 0.41426
 C459 C 0.29798 0.50851 0.44028
 C460 C 0.25564 0.50721 0.42330
 C461 C 0.37655 0.49783 0.43217
 C462 C 0.41212 0.49870 0.44892
 H463 H 0.27829 0.47186 0.32081
 H464 H 0.35294 0.47384 0.35089
 H465 H 0.30328 0.51890 0.47362
 H466 H 0.22870 0.51678 0.44364
 C467 C 0.83231 0.49385 0.65383
 C468 C 0.79638 0.49448 0.63776
 C469 C 0.75276 0.49531 0.62043
 C470 C 0.71900 0.47858 0.64457
 C471 C 0.67636 0.47998 0.62836
 C472 C 0.66735 0.49823 0.58800
 C473 C 0.70108 0.51498 0.56383
 C474 C 0.74373 0.51353 0.58002
 C475 C 0.62383 0.49887 0.57063
 C476 C 0.58811 0.49922 0.55428
 H477 H 0.72566 0.46453 0.67592
 H478 H 0.65052 0.46679 0.64718
 H479 H 0.69439 0.52905 0.53249
 H480 H 0.76956 0.52665 0.56115
 C481 C 0.17142 0.50255 0.65121
 C482 C 0.20694 0.50373 0.63555
 C483 C 0.24986 0.50406 0.61793
 C484 C 0.28257 0.52819 0.63863
 C485 C 0.32473 0.52717 0.62247
 C486 C 0.33432 0.50189 0.58566
 C487 C 0.30160 0.47789 0.56487
 C488 C 0.25947 0.47895 0.58098
 C489 C 0.37735 0.50115 0.56844
 C490 C 0.41267 0.50046 0.55238
 H491 H 0.27554 0.54755 0.66734
 H492 H 0.34978 0.54599 0.63866
 H493 H 0.30869 0.45837 0.53626
 H494 H 0.23449 0.46002 0.56482
 C495 C 0.50483 0.65197 0.17571
 C496 C 0.50377 0.63575 0.21087
 C497 C 0.50241 0.61790 0.25352
 C498 C 0.51836 0.57589 0.26103
 C499 C 0.51756 0.55905 0.30271
 C500 C 0.50078 0.58412 0.33702
 C501 C 0.48475 0.62608 0.32953
 C502 C 0.48560 0.64294 0.28786
 C503 C 0.49983 0.56645 0.37968
 C504 C 0.49939 0.55014 0.41475
 H505 H 0.53149 0.55627 0.23476
 H506 H 0.53004 0.52655 0.30821
 H507 H 0.47168 0.64570 0.35584
 H508 H 0.47326 0.67550 0.28242
 C509 C 0.49571 0.65164 0.83347
 C510 C 0.49460 0.63596 0.79743
 C511 C 0.49451 0.61827 0.75397
 C512 C 0.47381 0.64095 0.72033
 C513 C 0.47524 0.62463 0.67780
 C514 C 0.49751 0.58566 0.66877
 C515 C 0.51805 0.56291 0.70242
 C516 C 0.51657 0.57918 0.74492
 C517 C 0.49861 0.56823 0.62532
 C518 C 0.49946 0.55180 0.58969
 H519 H 0.45683 0.67132 0.72693
 H520 H 0.45908 0.64236 0.65203
 H521 H 0.53522 0.53264 0.69579
 H522 H 0.53285 0.56146 0.77062
 C523 C 0.49421 0.34821 0.16989
 C524 C 0.49534 0.36409 0.20580
 C525 C 0.49677 0.38130 0.24934
 C526 C 0.47814 0.42196 0.25898
 C527 C 0.47888 0.43804 0.30157
 C528 C 0.49824 0.41352 0.33463
 C529 C 0.51695 0.37291 0.32502
 C530 C 0.51616 0.35681 0.28243
 C531 C 0.49938 0.43062 0.37814
 C532 C 0.50003 0.44682 0.41384
 H533 H 0.46299 0.44111 0.23367
 H534 H 0.46439 0.46954 0.30874
 H535 H 0.53209 0.35379 0.35036
 H536 H 0.53056 0.32527 0.27530
 C537 C 0.50284 0.34800 0.82841
 C538 C 0.50435 0.36372 0.79306
 C539 C 0.50507 0.38149 0.75037
 C540 C 0.52136 0.35656 0.71572
 C541 C 0.52048 0.37313 0.67388
 C542 C 0.50317 0.41465 0.66658
 C543 C 0.48707 0.43966 0.70123
 C544 C 0.48800 0.42312 0.74305
 C545 C 0.50225 0.43207 0.62378
 C546 C 0.50143 0.44830 0.58867
 H547 H 0.53445 0.32425 0.72101
 H548 H 0.53310 0.35361 0.64729
 H549 H 0.47366 0.47184 0.69589
 H550 H 0.47514 0.44260 0.76955
 C551 C 0.65319 0.82546 0.49325
 C552 C 0.63693 0.79028 0.49468
 C553 C 0.61912 0.74758 0.49649
 C554 C 0.64527 0.71126 0.48650
 C555 C 0.62837 0.66961 0.48856
 C556 C 0.58528 0.66413 0.50072
 C557 C 0.55912 0.70041 0.51075
 C558 C 0.57600 0.74207 0.50865
 C559 C 0.56743 0.62149 0.50199
 C560 C 0.55104 0.58640 0.50260
 H561 H 0.67868 0.71515 0.47711
 H562 H 0.64881 0.64177 0.48059
 H563 H 0.52570 0.69648 0.52010
 H564 H 0.55551 0.76989 0.51650
 C565 C 0.65451 0.16808 0.50277
 C566 C 0.63919 0.20429 0.50426
 C567 C 0.62201 0.24797 0.50487
 C568 C 0.58292 0.25787 0.52565
 C569 C 0.56609 0.30025 0.52541
 C570 C 0.58823 0.33285 0.50437
 C571 C 0.62740 0.32302 0.48378
 C572 C 0.64426 0.28066 0.48406
 C573 C 0.56996 0.37598 0.50307
 C574 C 0.55304 0.41141 0.50216
 H575 H 0.56540 0.23287 0.54177
 H576 H 0.53569 0.30753 0.54135
 H577 H 0.64468 0.34796 0.46731
 H578 H 0.67448 0.27334 0.46784
 C579 C 0.34842 0.83093 0.50624
 C580 C 0.36446 0.79507 0.50583
 C581 C 0.38182 0.75156 0.50526
 C582 C 0.36217 0.71974 0.52968
 C583 C 0.37813 0.67708 0.52841
 C584 C 0.41370 0.66611 0.50259
 C585 C 0.43339 0.69790 0.47820
 C586 C 0.41746 0.74057 0.47951
 C587 C 0.43107 0.62268 0.50211
 C588 C 0.44744 0.58704 0.50183
 H589 H 0.33449 0.72790 0.54958
 H590 H 0.36288 0.65275 0.54757
 H591 H 0.46110 0.68971 0.45833
 H592 H 0.43280 0.76489 0.46042
 C593 C 0.34734 0.17262 0.49746
 C594 C 0.36290 0.20811 0.49631
 C595 C 0.38038 0.25101 0.49595
 C596 C 0.35397 0.28681 0.50703
 C597 C 0.37100 0.32852 0.50777
 C598 C 0.41451 0.33453 0.49740
 C599 C 0.44088 0.29878 0.48609
 C600 C 0.42386 0.25707 0.48540
 C601 C 0.43251 0.37714 0.49890
 C602 C 0.44907 0.41216 0.50005
 H603 H 0.32032 0.28245 0.51535
 H604 H 0.35039 0.35596 0.51661
 H605 H 0.47459 0.30315 0.47802
 H606 H 0.44459 0.22963 0.47690
   
