data_POSCAR
  _audit_creation_date              2014-09-24
  _audit_creation_method            'ToBaCCo'
  _symmetry_space_group_name_H-M    'P1'
  _symmetry_Int_Tables_number       1
  _symmetry_cell_setting            triclinic
  loop_
  _symmetry_equiv_pos_as_xyz
 x,y,z
_cell_length_a 38.8401
_cell_length_b 38.7393
_cell_length_c 21.7723
_cell_angle_alpha 89.916200
_cell_angle_beta 89.967800
_cell_angle_gamma 120.162800
loop_
  _atom_site_label
  _atom_site_type_symbol
  _atom_site_fract_x
  _atom_site_fract_y
  _atom_site_fract_z
O1 O 0.45922 0.96205 0.55943
 O2 O 0.49508 1.03971 0.43994
 O3 O 0.45604 0.96202 0.44012
 O4 O 0.49781 1.03954 0.55932
 O5 O 0.55471 1.03992 0.55427
 O6 O 0.51274 0.96202 0.43496
 O7 O 0.55171 1.03967 0.43452
 O8 O 0.51590 0.96198 0.55458
 Cu9 Cu 0.47138 1.00083 0.50013
 Cu10 Cu 0.53947 1.00092 0.49418
 C11 C 0.48141 0.94872 0.57757
 C12 C 0.52946 1.05301 0.41645
 C13 C 0.47715 0.94873 0.41704
 C14 C 0.53339 1.05299 0.57733
 O15 O 0.03901 0.49534 0.55933
 O16 O -0.03958 0.45640 0.44296
 O17 O 0.03798 0.49554 0.43987
 O18 O -0.03819 0.45808 0.56244
 O19 O -0.03751 0.51528 0.56098
 O20 O 0.03848 0.55271 0.43971
 O21 O -0.03895 0.51364 0.44125
 O22 O 0.04021 0.55279 0.55941
 Cu23 Cu -0.00027 0.47063 0.50112
 Cu24 Cu 0.00064 0.53934 0.50036
 C25 C 0.05316 0.53060 0.57970
 C26 C -0.05278 0.47811 0.42197
 C27 C 0.05123 0.53063 0.41882
 C28 C -0.05094 0.48038 0.58280
 O29 O 0.50425 0.54227 0.56076
 O30 O 0.54317 0.50425 0.43979
 O31 O 0.50434 0.54316 0.44085
 O32 O 0.54354 0.50416 0.55990
 O33 O 0.48694 0.44691 0.55874
 O34 O 0.44767 0.48584 0.44088
 O35 O 0.48617 0.44727 0.43945
 O36 O 0.44761 0.48493 0.56010
 Cu37 Cu 0.52955 0.52921 0.50028
 Cu38 Cu 0.46146 0.46054 0.49985
 C39 C 0.46917 0.51996 0.58115
 C40 C 0.52119 0.46922 0.41879
 C41 C 0.46923 0.52111 0.42051
 C42 C 0.52187 0.46875 0.57988
 O43 O 0.39170 0.65426 -0.05072
 O44 O 0.39319 0.72133 -0.07092
 C45 C 0.37563 0.74041 -0.08445
 O46 O 0.34499 0.73564 -0.05578
 O47 O 0.27840 0.66927 -0.07514
 C48 C 0.25905 0.63208 -0.08543
 O49 O 0.26322 0.60703 -0.05319
 O50 O 0.32926 0.60635 -0.06972
 C51 C 0.36628 0.62401 -0.08099
 O52 O 0.38928 0.66580 0.07150
 O53 O 0.39358 0.73424 0.05118
 C54 C 0.36893 0.74103 0.07961
 O55 O 0.33226 0.72383 0.06616
 O56 O 0.26414 0.65928 0.04697
 C57 C 0.25738 0.62896 0.07893
 O58 O 0.27480 0.60925 0.06921
 O59 O 0.33884 0.60472 0.05248
 C60 C 0.36934 0.62879 0.08328
 Cr61 Cr 0.38972 0.69287 0.00020
 Cr62 Cr 0.30601 0.69586 -0.00434
 Cr63 Cr 0.30271 0.60905 -0.00035
 O64 O 0.33286 0.66596 -0.00150
 O65 O 0.60973 0.33086 -0.07414
 O66 O 0.60978 0.26456 -0.05484
 C67 C 0.63561 0.26015 -0.08430
 O68 O 0.67235 0.27950 -0.07148
 O69 O 0.73805 0.34628 -0.05105
 C70 C 0.74326 0.37680 -0.08096
 O71 O 0.72407 0.39454 -0.06955
 O72 O 0.65696 0.39349 -0.05418
 C73 C 0.62730 0.36795 -0.08534
 O74 O 0.60546 0.34091 0.04754
 O75 O 0.60926 0.27666 0.06710
 C76 C 0.62852 0.25919 0.07987
 O77 O 0.65968 0.26582 0.05064
 O78 O 0.72364 0.33423 0.07078
 C79 C 0.74080 0.37108 0.08346
 O80 O 0.73476 0.39571 0.05323
 O81 O 0.66610 0.39133 0.06881
 C82 C 0.62899 0.37142 0.07896
 Cr83 Cr 0.61077 0.30442 -0.00352
 Cr84 Cr 0.69729 0.30753 -0.00031
 Cr85 Cr 0.69443 0.39155 -0.00047
 O86 O 0.66753 0.33452 -0.00147
 C87 C 0.43948 0.85847 -0.28075
 C88 C 0.41661 0.87603 -0.29825
 C89 C 0.43034 0.90516 -0.34466
 C90 C 0.46695 0.91761 -0.37399
 C91 C 0.48967 0.90033 -0.35640
 C92 C 0.47619 0.87114 -0.31053
 C93 C 0.42369 0.82746 -0.23087
 C94 C 0.44373 0.80765 -0.21072
 C95 C 0.42798 0.77934 -0.16364
 C96 C 0.39187 0.76999 -0.13517
 C97 C 0.37148 0.78928 -0.15535
 C98 C 0.38697 0.81768 -0.20283
 C99 C 0.38028 0.86466 -0.26909
 C100 C 0.36587 0.83625 -0.22228
 H101 H 0.36278 0.87813 -0.28245
 H102 H 0.33770 0.82868 -0.20097
 H103 H 0.41253 0.91838 -0.35759
 H104 H 0.51804 0.90936 -0.37819
 H105 H 0.44437 0.76491 -0.14925
 H106 H 0.34341 0.78219 -0.13415
 H107 H 0.49506 0.85909 -0.29900
 H108 H 0.47160 0.81353 -0.23060
 C109 C 0.14197 0.57121 -0.28187
 C110 C 0.12956 0.59717 -0.30592
 C111 C 0.10016 0.58374 -0.35185
 C112 C 0.08299 0.54463 -0.37502
 C113 C 0.09618 0.51939 -0.35168
 C114 C 0.12508 0.53236 -0.30593
 C115 C 0.17258 0.58624 -0.23178
 C116 C 0.18548 0.56210 -0.20307
 C117 C 0.21356 0.57720 -0.15602
 C118 C 0.22980 0.61682 -0.13632
 C119 C 0.21738 0.64127 -0.16488
 C120 C 0.18871 0.62619 -0.21188
 C121 C 0.14661 0.63638 -0.28404
 C122 C 0.17573 0.65065 -0.23838
 H123 H 0.13733 0.65640 -0.30258
 H124 H 0.18798 0.68123 -0.22313
 H125 H 0.09075 0.60390 -0.36946
 H126 H 0.08398 0.48914 -0.36842
 H127 H 0.22260 0.55764 -0.13501
 H128 H 0.22947 0.67187 -0.14981
 H129 H 0.13370 0.51139 -0.29026
 H130 H 0.17408 0.53135 -0.21569
 C131 C 0.42166 0.56158 -0.27646
 C132 C 0.46216 0.58471 -0.29398
 C133 C 0.47748 0.57123 -0.34076
 C134 C 0.45309 0.53461 -0.37015
 C135 C 0.41306 0.51169 -0.35233
 C136 C 0.39749 0.52491 -0.30631
 C137 C 0.40641 0.57704 -0.22649
 C138 C 0.36643 0.55671 -0.20684
 C139 C 0.35368 0.57213 -0.15993
 C140 C 0.38035 0.60819 -0.13102
 C141 C 0.42024 0.62885 -0.15052
 C142 C 0.43336 0.61368 -0.19804
 C143 C 0.48719 0.62097 -0.26442
 C144 C 0.47315 0.63504 -0.21731
 H145 H 0.51822 0.63868 -0.27769
 H146 H 0.49379 0.66316 -0.19573
 H147 H 0.50853 0.58914 -0.35384
 H148 H 0.39353 0.48331 -0.37413
 H149 H 0.32270 0.55550 -0.14611
 H150 H 0.44114 0.65691 -0.12897
 H151 H 0.36654 0.50579 -0.29476
 H152 H 0.34439 0.52891 -0.22704
 C153 C 0.58150 0.14281 -0.28088
 C154 C 0.54093 0.12489 -0.29790
 C155 C 0.52560 0.09593 -0.34441
 C156 C 0.54997 0.08400 -0.37427
 C157 C 0.59011 0.10164 -0.35713
 C158 C 0.60574 0.13067 -0.31121
 C159 C 0.59663 0.17362 -0.23090
 C160 C 0.63660 0.19376 -0.21129
 C161 C 0.64911 0.22188 -0.16412
 C162 C 0.62218 0.23069 -0.13502
 C163 C 0.58236 0.21104 -0.15463
 C164 C 0.56950 0.18284 -0.20223
 C165 C 0.51577 0.13570 -0.26816
 C166 C 0.52970 0.16391 -0.22121
 H167 H 0.48470 0.12195 -0.28114
 H168 H 0.50894 0.17105 -0.19943
 H169 H 0.49447 0.08241 -0.35696
 H170 H 0.60960 0.09301 -0.37932
 H171 H 0.68004 0.23659 -0.15019
 H172 H 0.56126 0.21773 -0.13294
 H173 H 0.63677 0.14300 -0.30005
 H174 H 0.65874 0.18833 -0.23165
 C175 C 0.86182 0.43975 -0.27592
 C176 C 0.87700 0.41534 -0.29646
 C177 C 0.90565 0.42872 -0.34360
 C178 C 0.92012 0.46664 -0.37043
 C179 C 0.90520 0.49086 -0.34916
 C180 C 0.87652 0.47767 -0.30285
 C181 C 0.83102 0.42424 -0.22595
 C182 C 0.81308 0.44566 -0.20394
 C183 C 0.78469 0.43010 -0.15719
 C184 C 0.77339 0.39282 -0.13077
 C185 C 0.79090 0.37109 -0.15262
 C186 C 0.81929 0.38635 -0.20012
 C187 C 0.86376 0.37786 -0.26951
 C188 C 0.83575 0.36381 -0.22212
 H189 H 0.87543 0.35916 -0.28502
 H190 H 0.82670 0.33471 -0.20259
 H191 H 0.91686 0.40957 -0.35890
 H192 H 0.91559 0.52029 -0.36838
 H193 H 0.77168 0.44755 -0.14148
 H194 H 0.78216 0.34206 -0.13309
 H195 H 0.86653 0.49784 -0.28871
 H196 H 0.82033 0.47441 -0.22222
 C197 C 0.56427 0.42248 -0.28119
 C198 C 0.58790 0.46251 -0.30108
 C199 C 0.57403 0.47761 -0.34769
 C200 C 0.53628 0.45360 -0.37438
 C201 C 0.51286 0.41400 -0.35376
 C202 C 0.52658 0.39865 -0.30813
 C203 C 0.58016 0.40742 -0.23158
 C204 C 0.55956 0.36767 -0.21044
 C205 C 0.57519 0.35515 -0.16354
 C206 C 0.61176 0.38182 -0.13608
 C207 C 0.63286 0.42142 -0.15735
 C208 C 0.61750 0.43426 -0.20506
 C209 C 0.62499 0.48737 -0.27379
 C210 C 0.63931 0.47366 -0.22649
 H211 H 0.64310 0.51808 -0.28881
 H212 H 0.66801 0.49422 -0.20653
 H213 H 0.59256 0.50834 -0.36247
 H214 H 0.48360 0.39452 -0.37291
 H215 H 0.55822 0.32438 -0.14839
 H216 H 0.66136 0.44224 -0.13704
 H217 H 0.50695 0.36813 -0.29438
 H218 H 0.53136 0.34563 -0.22944
 C219 C 0.85651 0.42885 0.28202
 C220 C 0.87480 0.46985 0.29724
 C221 C 0.90397 0.48581 0.34355
 C222 C 0.91565 0.46153 0.37456
 C223 C 0.89738 0.42094 0.35925
 C224 C 0.86824 0.40477 0.31386
 C225 C 0.82588 0.41298 0.23198
 C226 C 0.80576 0.37259 0.21416
 C227 C 0.77813 0.35932 0.16651
 C228 C 0.76963 0.38581 0.13505
 C229 C 0.78907 0.42608 0.15304
 C230 C 0.81698 0.43978 0.20120
 C231 C 0.86421 0.49469 0.26567
 C232 C 0.83607 0.48003 0.21855
 H233 H 0.87817 0.52609 0.27721
 H234 H 0.82920 0.50057 0.19525
 H235 H 0.91798 0.51727 0.35476
 H236 H 0.90566 0.40142 0.38241
 H237 H 0.76356 0.32805 0.15409
 H238 H 0.78264 0.44687 0.12946
 H239 H 0.85563 0.37343 0.30428
 H240 H 0.81085 0.35063 0.23617
 C241 C 0.56859 0.14112 0.27621
 C242 C 0.59300 0.12562 0.29516
 C243 C 0.58012 0.09673 0.34201
 C244 C 0.54272 0.08239 0.37025
 C245 C 0.51858 0.09781 0.35086
 C246 C 0.53126 0.12670 0.30475
 C247 C 0.58344 0.17194 0.22612
 C248 C 0.56176 0.18981 0.20503
 C249 C 0.57661 0.21807 0.15796
 C250 C 0.61345 0.22936 0.13029
 C251 C 0.63548 0.21197 0.15128
 C252 C 0.62087 0.18360 0.19898
 C253 C 0.62999 0.13878 0.26694
 C254 C 0.64353 0.16697 0.21971
 H255 H 0.64871 0.12690 0.28132
 H256 H 0.67226 0.17596 0.19917
 H257 H 0.59924 0.08521 0.35595
 H258 H 0.48958 0.08757 0.37129
 H259 H 0.55892 0.23097 0.14298
 H260 H 0.66413 0.22062 0.13071
 H261 H 0.51118 0.13707 0.29205
 H262 H 0.53330 0.18253 0.22419
 C263 C 0.56371 0.42368 0.27466
 C264 C 0.58968 0.46101 0.30222
 C265 C 0.57574 0.47578 0.34914
 C266 C 0.53616 0.45372 0.36966
 C267 C 0.51067 0.41654 0.34271
 C268 C 0.52414 0.40170 0.29591
 C269 C 0.57959 0.40922 0.22414
 C270 C 0.55592 0.37302 0.19275
 C271 C 0.57203 0.36095 0.14585
 C272 C 0.61218 0.38449 0.12894
 C273 C 0.63604 0.42061 0.15999
 C274 C 0.62006 0.43318 0.20700
 C275 C 0.62940 0.48334 0.28291
 C276 C 0.64429 0.46965 0.23655
 H277 H 0.64934 0.51186 0.30407
 H278 H 0.67527 0.48804 0.22339
 H279 H 0.59581 0.50445 0.36979
 H280 H 0.48000 0.39880 0.35760
 H281 H 0.55287 0.33292 0.12287
 H282 H 0.66708 0.43923 0.14729
 H283 H 0.50303 0.37297 0.27720
 H284 H 0.52487 0.35359 0.20338
 C285 C 0.13938 0.57628 0.27443
 C286 C 0.12798 0.53895 0.30219
 C287 C 0.09918 0.52410 0.34912
 C288 C 0.08164 0.54610 0.36946
 C289 C 0.09333 0.58325 0.34227
 C290 C 0.12171 0.59816 0.29544
 C291 C 0.16985 0.59085 0.22398
 C292 C 0.18244 0.62707 0.19242
 C293 C 0.21075 0.63926 0.14559
 C294 C 0.22744 0.61582 0.12893
 C295 C 0.21514 0.57969 0.16017
 C296 C 0.18645 0.56701 0.20710
 C297 C 0.14544 0.51672 0.28311
 C298 C 0.17416 0.53053 0.23681
 H299 H 0.13684 0.48821 0.30442
 H300 H 0.18681 0.51222 0.22384
 H301 H 0.09057 0.49545 0.36997
 H302 H 0.08038 0.60094 0.35702
 H303 H 0.21966 0.66729 0.12246
 H304 H 0.22761 0.56115 0.14764
 H305 H 0.12934 0.62687 0.27655
 H306 H 0.17076 0.64642 0.20286
 C307 C 0.42705 0.85884 0.27562
 C308 C 0.46752 0.87565 0.29260
 C309 C 0.48363 0.90469 0.33903
 C310 C 0.46007 0.91767 0.36879
 C311 C 0.42001 0.90100 0.35173
 C312 C 0.40366 0.87201 0.30593
 C313 C 0.41103 0.82802 0.22572
 C314 C 0.37110 0.80918 0.20606
 C315 C 0.35768 0.78099 0.15903
 C316 C 0.38359 0.77072 0.13007
 C317 C 0.42338 0.78909 0.14966
 C318 C 0.43719 0.81746 0.19715
 C319 C 0.49174 0.86361 0.26291
 C320 C 0.47695 0.83525 0.21611
 H321 H 0.52274 0.87647 0.27584
 H322 H 0.49699 0.82712 0.19441
 H323 H 0.51467 0.91742 0.35160
 H324 H 0.40110 0.91040 0.37384
 H325 H 0.32680 0.76732 0.14516
 H326 H 0.44372 0.78132 0.12801
 H327 H 0.37274 0.86052 0.29494
 H328 H 0.34966 0.81570 0.22624
 C329 C 0.42223 0.56423 0.27935
 C330 C 0.46004 0.59002 0.30543
 C331 C 0.47524 0.57591 0.35152
 C332 C 0.45319 0.53632 0.37251
 C333 C 0.41555 0.51104 0.34704
 C334 C 0.40024 0.52468 0.30117
 C335 C 0.40739 0.58019 0.22945
 C336 C 0.37066 0.55665 0.19957
 C337 C 0.35844 0.57263 0.15266
 C338 C 0.38233 0.61255 0.13422
 C339 C 0.41884 0.63640 0.16413
 C340 C 0.43158 0.62051 0.21114
 C341 C 0.48247 0.62966 0.28532
 C342 C 0.46849 0.64461 0.23937
 H343 H 0.51135 0.64948 0.30538
 H344 H 0.48704 0.67548 0.22541
 H345 H 0.50429 0.59584 0.37101
 H346 H 0.39779 0.48037 0.36235
 H347 H 0.33008 0.55349 0.13069
 H348 H 0.43769 0.66727 0.15028
 H349 H 0.37119 0.50369 0.28354
 H350 H 0.35096 0.52576 0.21126
   
