data_POSCAR
  _audit_creation_date              2014-09-24
  _audit_creation_method            'ToBaCCo'
  _symmetry_space_group_name_H-M    'P1'
  _symmetry_Int_Tables_number       1
  _symmetry_cell_setting            triclinic
  loop_
  _symmetry_equiv_pos_as_xyz
 x,y,z
_cell_length_a 40.7105
_cell_length_b 40.6133
_cell_length_c 23.4455
_cell_angle_alpha 89.926300
_cell_angle_beta 90.073300
_cell_angle_gamma 120.048100
loop_
  _atom_site_label
  _atom_site_type_symbol
  _atom_site_fract_x
  _atom_site_fract_y
  _atom_site_fract_z
C1 C 0.46005 0.92006 0.55257
 C2 C 0.45042 0.90062 0.50058
 C3 C 0.46024 0.92027 0.44879
 C4 C 0.48026 0.96046 0.44836
 C5 C 0.49023 0.98059 0.50080
 C6 C 0.48010 0.96034 0.55320
 C7 C 0.49029 0.98091 0.60467
 C8 C 0.51000 1.02049 0.60470
 C9 C 0.52034 1.04117 0.55326
 C10 C 0.51037 1.02102 0.50081
 C11 C 0.49056 0.98104 0.39692
 C12 C 0.51027 1.02062 0.39691
 C13 C 0.52048 1.04123 0.44837
 C14 C 0.54054 1.08150 0.44890
 C15 C 0.55020 1.10101 0.50083
 C16 C 0.54039 1.08144 0.55274
 H17 H 0.48308 0.96651 0.64551
 H18 H 0.51708 1.03481 0.64557
 H19 H 0.48344 0.96666 0.35610
 H20 H 0.51747 1.03499 0.35604
 H21 H 0.43503 0.86972 0.50030
 H22 H 0.56560 1.13193 0.50084
 C23 C 0.07964 0.53940 0.55051
 C24 C 0.09910 0.54919 0.49864
 C25 C 0.07958 0.53949 0.44678
 C26 C 0.03947 0.51944 0.44624
 C27 C 0.01937 0.50934 0.49865
 C28 C 0.03953 0.51936 0.55106
 C29 C 0.01907 0.50908 0.60253
 C30 C -0.02044 0.48934 0.60256
 C31 C -0.04099 0.47912 0.55111
 C32 C -0.02094 0.48919 0.49866
 C33 C 0.01895 0.50924 0.39479
 C34 C -0.02056 0.48949 0.39477
 C35 C -0.04111 0.47916 0.44624
 C36 C -0.08129 0.45908 0.44688
 C37 C -0.10069 0.44934 0.49887
 C38 C -0.08109 0.45908 0.55067
 H39 H 0.03348 0.51623 0.64333
 H40 H -0.03476 0.48213 0.64339
 H41 H 0.03331 0.51646 0.35398
 H42 H -0.03490 0.48237 0.35392
 H43 H 0.12991 0.56459 0.49863
 H44 H -0.13151 0.43394 0.49915
 C45 C 0.46023 0.54062 0.55346
 C46 C 0.45048 0.55030 0.50142
 C47 C 0.46019 0.54042 0.44967
 C48 C 0.48019 0.52031 0.44933
 C49 C 0.49028 0.51029 0.50182
 C50 C 0.48028 0.52047 0.55418
 C51 C 0.49059 0.51021 0.60570
 C52 C 0.51029 0.49038 0.60580
 C53 C 0.52049 0.48000 0.55439
 C54 C 0.51039 0.49006 0.50192
 C55 C 0.49037 0.50996 0.39793
 C56 C 0.51008 0.49015 0.39803
 C57 C 0.52036 0.47992 0.44953
 C58 C 0.54037 0.45981 0.45007
 C59 C 0.55017 0.45004 0.50192
 C60 C 0.54053 0.45984 0.55386
 H61 H 0.48348 0.51744 0.64651
 H62 H 0.51747 0.48324 0.64668
 H63 H 0.48317 0.51712 0.35707
 H64 H 0.51720 0.48291 0.35724
 H65 H 0.43510 0.56576 0.50107
 H66 H 0.56554 0.43457 0.50172
 O67 O 0.38965 0.66872 -0.06607
 O68 O 0.39127 0.73289 -0.04935
 C69 C 0.36745 0.73794 -0.07741
 O70 O 0.33233 0.72108 -0.06639
 O71 O 0.26827 0.65846 -0.04963
 C72 C 0.26321 0.62950 -0.07752
 O73 O 0.28002 0.61118 -0.06635
 O74 O 0.34244 0.60961 -0.04923
 C75 C 0.37135 0.63353 -0.07715
 O76 O 0.39120 0.65855 0.04769
 O77 O 0.38956 0.72108 0.06439
 C78 C 0.37123 0.73787 0.07541
 O79 O 0.34237 0.73281 0.04734
 O80 O 0.27993 0.66857 0.06410
 C81 C 0.26310 0.63337 0.07518
 O82 O 0.26819 0.60951 0.04731
 O83 O 0.33224 0.61121 0.06444
 C84 C 0.36733 0.62959 0.07565
 Cr85 Cr 0.38831 0.69425 -0.00084
 Cr86 Cr 0.30679 0.69417 -0.00114
 Cr87 Cr 0.30678 0.61250 -0.00096
 O88 O 0.33396 0.66697 -0.00098
 O89 O 0.60900 0.34147 -0.04793
 O90 O 0.61044 0.27884 -0.06474
 C91 C 0.62869 0.26198 -0.07587
 O92 O 0.65754 0.26695 -0.04786
 O93 O 0.72005 0.33108 -0.06481
 C94 C 0.73690 0.36627 -0.07598
 O95 O 0.73196 0.39021 -0.04805
 O96 O 0.66799 0.38872 -0.06485
 C97 C 0.63287 0.37041 -0.07592
 O98 O 0.61070 0.33132 0.06580
 O99 O 0.60887 0.26706 0.04902
 C100 C 0.63270 0.26200 0.07704
 O101 O 0.66778 0.27874 0.06586
 O102 O 0.73191 0.34122 0.04889
 C103 C 0.73706 0.37020 0.07682
 O104 O 0.72035 0.38862 0.06569
 O105 O 0.65801 0.39037 0.04889
 C106 C 0.62911 0.36650 0.07689
 Cr107 Cr 0.61187 0.30572 0.00053
 Cr108 Cr 0.69326 0.30556 0.00052
 Cr109 Cr 0.69351 0.38736 0.00042
 O110 O 0.66622 0.33288 0.00050
 C111 C 0.42831 0.85668 -0.30527
 N112 N 0.39610 0.84927 -0.27750
 N113 N 0.38470 0.82679 -0.23169
 C114 C 0.40515 0.81106 -0.21228
 N115 N 0.43738 0.81852 -0.24001
 N116 N 0.44878 0.84099 -0.28581
 C117 C 0.43996 0.87990 -0.35561
 C118 C 0.44950 0.89896 -0.39839
 C119 C 0.39223 0.78588 -0.16409
 C120 C 0.38107 0.76425 -0.12418
 C121 C 0.14422 0.57143 -0.30474
 N122 N 0.15861 0.60719 -0.28394
 N123 N 0.18117 0.61827 -0.23829
 C124 C 0.19001 0.59393 -0.21207
 N125 N 0.17558 0.55815 -0.23283
 N126 N 0.15302 0.54707 -0.27848
 C127 C 0.12094 0.55990 -0.35496
 C128 C 0.10187 0.55044 -0.39767
 C129 C 0.21525 0.60624 -0.16403
 C130 C 0.23691 0.61677 -0.12422
 C131 C 0.42897 0.57258 -0.30455
 N132 N 0.39323 0.55133 -0.28392
 N133 N 0.38224 0.56279 -0.23821
 C134 C 0.40667 0.59583 -0.21173
 N135 N 0.44244 0.61705 -0.23231
 N136 N 0.45342 0.60560 -0.27803
 C137 C 0.44041 0.56085 -0.35482
 C138 C 0.44982 0.55124 -0.39755
 C139 C 0.39446 0.60877 -0.16364
 C140 C 0.38401 0.61992 -0.12382
 C141 C 0.57145 0.14428 -0.30468
 N142 N 0.54703 0.15285 -0.27833
 N143 N 0.55792 0.17508 -0.23230
 C144 C 0.59354 0.18939 -0.21123
 N145 N 0.61794 0.18078 -0.23755
 N146 N 0.60705 0.15856 -0.28357
 C147 C 0.56011 0.12130 -0.35522
 C148 C 0.55077 0.10241 -0.39812
 C149 C 0.60566 0.21434 -0.16282
 C150 C 0.61606 0.23581 -0.12276
 C151 C 0.85486 0.42686 -0.30417
 N152 N 0.84697 0.39427 -0.27681
 N153 N 0.82466 0.38291 -0.23094
 C154 C 0.80957 0.40381 -0.21103
 N155 N 0.81749 0.43643 -0.23835
 N156 N 0.83980 0.44778 -0.28422
 C157 C 0.87790 0.43848 -0.35459
 C158 C 0.89681 0.44799 -0.39741
 C159 C 0.78456 0.39095 -0.16277
 C160 C 0.76306 0.37985 -0.12280
 C161 C 0.57220 0.42833 -0.30383
 N162 N 0.55127 0.39231 -0.28374
 N163 N 0.56265 0.38125 -0.23791
 C164 C 0.59530 0.40588 -0.21080
 N165 N 0.61621 0.44193 -0.23085
 N166 N 0.60483 0.45298 -0.27668
 C167 C 0.56057 0.43986 -0.35421
 C168 C 0.55105 0.44934 -0.39704
 C169 C 0.60818 0.39361 -0.16260
 C170 C 0.61929 0.38312 -0.12269
 C171 C 0.85552 0.42772 0.30468
 N172 N 0.84012 0.39160 0.28491
 N173 N 0.81771 0.38062 0.23909
 C174 C 0.81003 0.40542 0.21167
 N175 N 0.82546 0.44155 0.23139
 N176 N 0.84787 0.45254 0.27721
 C177 C 0.87866 0.43919 0.35503
 C178 C 0.89767 0.44862 0.39783
 C179 C 0.78491 0.39325 0.16347
 C180 C 0.76333 0.38283 0.12357
 C181 C 0.57219 0.14444 0.30628
 N182 N 0.55193 0.16040 0.28695
 N183 N 0.56325 0.18261 0.24085
 C184 C 0.59516 0.18951 0.21268
 N185 N 0.61540 0.17351 0.23198
 N186 N 0.60408 0.15130 0.27808
 C187 C 0.56060 0.12145 0.35686
 C188 C 0.55109 0.10252 0.39978
 C189 C 0.60801 0.21441 0.16418
 C190 C 0.61911 0.23585 0.12403
 C191 C 0.57210 0.42741 0.30503
 N192 N 0.54725 0.39503 0.27745
 N193 N 0.55814 0.38362 0.23158
 C194 C 0.59421 0.40425 0.21191
 N195 N 0.61904 0.43666 0.23945
 N196 N 0.60815 0.44807 0.28532
 C197 C 0.56072 0.43908 0.35542
 C198 C 0.55134 0.44864 0.39822
 C199 C 0.60628 0.39132 0.16365
 C200 C 0.61661 0.38016 0.12369
 C201 C 0.14404 0.57203 0.30205
 N202 N 0.15219 0.60481 0.27502
 N203 N 0.17474 0.61633 0.22941
 C204 C 0.18982 0.59543 0.20947
 N205 N 0.18162 0.56263 0.23645
 N206 N 0.15907 0.55110 0.28206
 C207 C 0.12079 0.56027 0.35225
 C208 C 0.10175 0.55066 0.39495
 C209 C 0.21508 0.60846 0.16150
 C210 C 0.23676 0.61968 0.12177
 C211 C 0.42849 0.85608 0.30362
 N212 N 0.39258 0.84098 0.28341
 N213 N 0.38165 0.81863 0.23752
 C214 C 0.40632 0.81072 0.21045
 N215 N 0.44225 0.82586 0.23062
 N216 N 0.45317 0.84821 0.27651
 C217 C 0.43989 0.87917 0.35405
 C218 C 0.44927 0.89812 0.39688
 C219 C 0.39419 0.78566 0.16218
 C220 C 0.38381 0.76411 0.12222
 C221 C 0.42789 0.57222 0.30432
 N222 N 0.39517 0.54756 0.27740
 N223 N 0.38380 0.55850 0.23142
 C224 C 0.40483 0.59442 0.21098
 N225 N 0.43758 0.61907 0.23786
 N226 N 0.44894 0.60813 0.28383
 C227 C 0.43953 0.56082 0.35482
 C228 C 0.44906 0.55142 0.39770
 C229 C 0.39198 0.60657 0.16261
 C230 C 0.38089 0.61698 0.12257
   
