data_POSCAR
  _audit_creation_date              2014-09-24
  _audit_creation_method            'ToBaCCo'
  _symmetry_space_group_name_H-M    'P1'
  _symmetry_Int_Tables_number       1
  _symmetry_cell_setting            triclinic
  loop_
  _symmetry_equiv_pos_as_xyz
 x,y,z
_cell_length_a 43.4913
_cell_length_b 43.0970
_cell_length_c 43.4587
_cell_angle_alpha 87.961800
_cell_angle_beta 88.644500
_cell_angle_gamma 84.288700
loop_
  _atom_site_label
  _atom_site_type_symbol
  _atom_site_fract_x
  _atom_site_fract_y
  _atom_site_fract_z
C1 C 0.28064 0.27026 0.21695
 C2 C 0.30323 0.26979 0.19331
 C3 C 0.32806 0.24619 0.19288
 C4 C 0.33012 0.22301 0.21658
 C5 C 0.30775 0.22318 0.24037
 C6 C 0.28291 0.24685 0.24056
 C7 C 0.25579 0.29373 0.21736
 C8 C 0.23304 0.29403 0.24100
 C9 C 0.23553 0.27050 0.26434
 C10 C 0.26030 0.24709 0.26435
 C11 C 0.26275 0.22390 0.28785
 C12 C 0.28745 0.20022 0.28791
 C13 C 0.30986 0.20003 0.26400
 H14 H 0.30123 0.28753 0.17496
 H15 H 0.34940 0.20502 0.21674
 H16 H 0.25434 0.31193 0.19945
 H17 H 0.21787 0.27007 0.28232
 H18 H 0.24563 0.22460 0.30641
 H19 H 0.32876 0.18164 0.26356
 C20 C 0.72338 -0.29009 0.22526
 C21 C 0.70149 -0.28797 0.20184
 C22 C 0.67678 -0.26399 0.20111
 C23 C 0.67468 -0.24214 0.22476
 C24 C 0.69625 -0.24417 0.24837
 C25 C 0.72065 -0.26825 0.24868
 C26 C 0.74799 -0.31379 0.22547
 C27 C 0.77011 -0.31636 0.24903
 C28 C 0.76668 -0.29432 0.27252
 C29 C 0.74234 -0.27042 0.27242
 C30 C 0.73954 -0.24844 0.29563
 C31 C 0.71525 -0.22435 0.29549
 C32 C 0.69366 -0.22244 0.27178
 H33 H 0.70473 -0.30444 0.18353
 H34 H 0.65547 -0.22417 0.22590
 H35 H 0.74897 -0.33090 0.20775
 H36 H 0.78371 -0.29455 0.29031
 H37 H 0.75608 -0.25029 0.31404
 H38 H 0.67511 -0.20367 0.27127
 C39 C 0.77017 0.26882 0.74135
 C40 C 0.74974 0.26860 0.76690
 C41 C 0.73114 0.24376 0.77268
 C42 C 0.73369 0.21908 0.75185
 C43 C 0.75385 0.21912 0.72622
 C44 C 0.77204 0.24412 0.72086
 C45 C 0.78893 0.29332 0.73615
 C46 C 0.80937 0.29390 0.71034
 C47 C 0.81039 0.26910 0.68982
 C48 C 0.79222 0.24431 0.69505
 C49 C 0.79433 0.21943 0.67495
 C50 C 0.77648 0.19427 0.68024
 C51 C 0.75609 0.19440 0.70582
 H52 H 0.74952 0.28732 0.78288
 H53 H 0.71907 0.20022 0.75456
 H54 H 0.78659 0.31246 0.75179
 H55 H 0.82658 0.26791 0.67049
 H56 H 0.80975 0.21973 0.65499
 H57 H 0.74243 0.17493 0.71019
 C58 C 0.23027 -0.27724 0.78660
 C59 C 0.25260 -0.27581 0.80914
 C60 C 0.27220 -0.25172 0.80814
 C61 C 0.26893 -0.22866 0.78441
 C62 C 0.24666 -0.22979 0.76174
 C63 C 0.22738 -0.25428 0.76273
 C64 C 0.21099 -0.30147 0.78757
 C65 C 0.18863 -0.30351 0.76481
 C66 C 0.18625 -0.28033 0.74087
 C67 C 0.20525 -0.25583 0.73981
 C68 C 0.20236 -0.23272 0.71619
 C69 C 0.22136 -0.20813 0.71512
 C70 C 0.24348 -0.20688 0.73801
 H71 H 0.25457 -0.29338 0.82765
 H72 H 0.28414 -0.21018 0.78321
 H73 H 0.21458 -0.31943 0.80554
 H74 H 0.16869 -0.28028 0.72363
 H75 H 0.18557 -0.23411 0.69838
 H76 H 0.25799 -0.18781 0.73759
 C77 C 0.71941 -0.28659 0.78170
 C78 C 0.69691 -0.28359 0.80533
 C79 C 0.67154 -0.26079 0.80309
 C80 C 0.66932 -0.24026 0.77720
 C81 C 0.69179 -0.24284 0.75350
 C82 C 0.71679 -0.26630 0.75562
 C83 C 0.74438 -0.30969 0.78389
 C84 C 0.76674 -0.31402 0.75981
 C85 C 0.76350 -0.29338 0.73365
 C86 C 0.73911 -0.26950 0.73165
 C87 C 0.73654 -0.24889 0.70585
 C88 C 0.71197 -0.22512 0.70377
 C89 C 0.68958 -0.22242 0.72765
 H90 H 0.69906 -0.29913 0.82550
 H91 H 0.64974 -0.22272 0.77519
 H92 H 0.74644 -0.32354 0.80510
 H93 H 0.77903 -0.29622 0.71396
 H94 H 0.75360 -0.25141 0.68728
 H95 H 0.67070 -0.20402 0.72637
 C96 C 0.27922 0.26126 0.77756
 C97 C 0.30351 0.26125 0.79820
 C98 C 0.33004 0.23995 0.79545
 C99 C 0.33199 0.21847 0.77167
 C100 C 0.30789 0.21824 0.75079
 C101 C 0.28138 0.23970 0.75374
 C102 C 0.25282 0.28256 0.78035
 C103 C 0.22837 0.28262 0.75971
 C104 C 0.23072 0.26100 0.73603
 C105 C 0.25707 0.23966 0.73285
 C106 C 0.25951 0.21837 0.70902
 C107 C 0.28586 0.19685 0.70583
 C108 C 0.30990 0.19693 0.72697
 H109 H 0.30158 0.27757 0.81672
 H110 H 0.35250 0.20221 0.76915
 H111 H 0.25156 0.29946 0.79833
 H112 H 0.21187 0.26052 0.72024
 H113 H 0.24105 0.21892 0.69263
 H114 H 0.33008 0.18015 0.72511
 C115 C 0.21909 -0.27194 0.23583
 C116 C 0.24221 -0.27113 0.21289
 C117 C 0.26360 -0.24850 0.21253
 C118 C 0.26078 -0.22626 0.23584
 C119 C 0.23794 -0.22712 0.25915
 C120 C 0.21712 -0.25017 0.25927
 C121 C 0.19794 -0.29436 0.23548
 C122 C 0.17469 -0.29598 0.25857
 C123 C 0.17354 -0.27442 0.28250
 C124 C 0.19434 -0.25145 0.28279
 C125 C 0.19259 -0.22956 0.30612
 C126 C 0.21320 -0.20633 0.30615
 C127 C 0.23575 -0.20532 0.28248
 H128 H 0.24253 -0.28758 0.19460
 H129 H 0.27721 -0.20907 0.23698
 H130 H 0.20069 -0.31145 0.21769
 H131 H 0.15561 -0.27434 0.30022
 H132 H 0.17535 -0.23078 0.32443
 H133 H 0.25139 -0.18723 0.28192
 C134 C 0.77986 0.26080 0.21434
 C135 C 0.75811 0.26126 0.19092
 C136 C 0.73749 0.23812 0.19019
 C137 C 0.73890 0.21434 0.21330
 C138 C 0.76055 0.21353 0.23680
 C139 C 0.78106 0.23690 0.23737
 C140 C 0.80033 0.28396 0.21505
 C141 C 0.82224 0.28393 0.23863
 C142 C 0.82306 0.25963 0.26145
 C143 C 0.80278 0.23631 0.26093
 C144 C 0.80410 0.21226 0.28362
 C145 C 0.78392 0.18873 0.28316
 C146 C 0.76209 0.18964 0.25969
 H147 H 0.75754 0.27941 0.17297
 H148 H 0.72287 0.19663 0.21322
 H149 H 0.79801 0.30270 0.19775
 H150 H 0.84033 0.25776 0.27912
 H151 H 0.82064 0.21205 0.30191
 H152 H 0.74667 0.17143 0.25891
 O153 O 0.27409 0.02810 0.47083
 O154 O 0.28067 -0.03252 0.53262
 O155 O 0.27946 -0.03272 0.47294
 O156 O 0.27407 0.02818 0.53098
 O157 O 0.22339 0.02782 0.53265
 O158 O 0.22873 -0.03263 0.47457
 O159 O 0.22997 -0.03279 0.53429
 O160 O 0.22338 0.02811 0.47241
 Cu161 Cu 0.28214 -0.00213 0.50164
 Cu162 Cu 0.22128 -0.00227 0.50363
 C163 C 0.24767 0.03838 0.46088
 C164 C 0.25651 -0.04313 0.54399
 C165 C 0.25500 -0.04321 0.46394
 C166 C 0.24774 0.03817 0.54201
 O167 O 0.71716 0.01068 0.52156
 O168 O 0.72486 -0.04968 0.46338
 O169 O 0.72424 -0.05012 0.52325
 O170 O 0.71822 0.01111 0.46166
 O171 O 0.76889 0.01159 0.46105
 O172 O 0.77487 -0.04926 0.52278
 O173 O 0.77552 -0.04907 0.46286
 O174 O 0.76779 0.01146 0.52092
 Cu175 Cu 0.71604 -0.01959 0.49252
 Cu176 Cu 0.77684 -0.01875 0.49187
 C177 C 0.74117 0.02149 0.53115
 C178 C 0.75146 -0.05974 0.45316
 C179 C 0.75061 -0.06017 0.53357
 C180 C 0.74256 0.02183 0.45079
 O181 O 0.49940 0.32374 0.01666
 O182 O 0.55957 0.32356 -0.04425
 O183 O 0.49969 0.32308 -0.04322
 O184 O 0.55926 0.32290 0.01582
 O185 O 0.56412 0.27145 0.01733
 O186 O 0.50463 0.27163 -0.04147
 O187 O 0.56449 0.27211 -0.04274
 O188 O 0.50404 0.27229 0.01840
 Cu189 Cu 0.52903 0.32846 -0.01394
 Cu190 Cu 0.53485 0.26672 -0.01194
 C191 C 0.49135 0.29812 0.02797
 C192 C 0.57231 0.29788 -0.05403
 C193 C 0.49191 0.29734 -0.05240
 C194 C 0.57183 0.29709 0.02676
 O195 O 0.49739 0.77852 0.03775
 O196 O 0.43693 0.78059 -0.01984
 O197 O 0.49659 0.77945 -0.02182
 O198 O 0.43743 0.78102 0.03991
 O199 O 0.43389 0.83246 0.03861
 O200 O 0.49314 0.83089 -0.02352
 O201 O 0.43297 0.83203 -0.02146
 O202 O 0.49401 0.82995 0.03650
 Cu203 Cu 0.46740 0.77477 0.00918
 Cu204 Cu 0.46312 0.83653 0.00737
 C205 C 0.50618 0.80376 0.04696
 C206 C 0.42463 0.80651 -0.03063
 C207 C 0.50505 0.80485 -0.03325
 C208 C 0.42554 0.80696 0.04990
 O209 O 0.03511 0.45740 0.32636
 O210 O -0.03484 0.51321 0.32803
 O211 O -0.02433 0.45272 0.32608
 O212 O 0.02416 0.51769 0.32975
 O213 O 0.02578 0.52151 0.27901
 O214 O -0.02320 0.45673 0.27534
 O215 O -0.03331 0.51704 0.27728
 O216 O 0.03624 0.46109 0.27561
 Cu217 Cu -0.00011 0.48476 0.33263
 Cu218 Cu 0.00158 0.48943 0.27173
 C219 C 0.04771 0.44975 0.30067
 C220 C -0.04598 0.52477 0.30288
 C221 C -0.03231 0.44375 0.30017
 C222 C 0.03320 0.53082 0.30501
 O223 O 0.03113 0.52151 0.69746
 O224 O -0.02802 0.46549 0.70590
 O225 O -0.02827 0.52627 0.70174
 O226 O 0.03230 0.46096 0.69842
 O227 O 0.03681 0.46082 0.74886
 O228 O -0.02576 0.52540 0.75250
 O229 O -0.02325 0.46506 0.75632
 O230 O 0.03419 0.52150 0.74805
 Cu231 Cu 0.00137 0.49334 0.69581
 Cu232 Cu 0.00592 0.49307 0.75647
 C233 C 0.04241 0.53141 0.72157
 C234 C -0.03583 0.45587 0.73272
 C235 C -0.03723 0.53712 0.72753
 C236 C 0.04535 0.44999 0.72282
 C237 C 0.36339 0.27346 0.15672
 C238 C 0.38625 0.27291 0.13330
 C239 C 0.39787 0.24419 0.12068
 C240 C 0.38629 0.21655 0.13156
 C241 C 0.36353 0.21729 0.15483
 C242 C 0.35191 0.24567 0.16775
 C243 C 0.42090 0.24353 0.09746
 C244 C 0.43245 0.27125 0.08664
 C245 C 0.42070 0.29999 0.09917
 C246 C 0.39773 0.30064 0.12243
 C247 C 0.43213 0.32766 0.08821
 C248 C 0.45500 0.32695 0.06508
 C249 C 0.46702 0.29854 0.05249
 C250 C 0.45557 0.27071 0.06346
 H251 H 0.35492 0.29545 0.16671
 H252 H 0.39482 0.19434 0.12207
 H253 H 0.35479 0.19561 0.16255
 H254 H 0.42983 0.22146 0.08785
 H255 H 0.38881 0.32270 0.13205
 H256 H 0.42337 0.34989 0.09752
 H257 H 0.46337 0.34874 0.05712
 H258 H 0.46454 0.24865 0.05392
 C259 C 0.63840 0.76692 0.16846
 C260 C 0.61582 0.76879 0.14575
 C261 C 0.60890 0.74143 0.13157
 C262 C 0.62493 0.71275 0.14003
 C263 C 0.64743 0.71102 0.16257
 C264 C 0.65449 0.73798 0.17750
 C265 C 0.58601 0.74311 0.10923
 C266 C 0.57002 0.77191 0.10078
 C267 C 0.57721 0.79941 0.11462
 C268 C 0.60006 0.79768 0.13702
 C269 C 0.56130 0.82817 0.10586
 C270 C 0.53835 0.82966 0.08372
 C271 C 0.53079 0.80240 0.07006
 C272 C 0.54687 0.77359 0.07871
 H273 H 0.64401 0.78841 0.17815
 H274 H 0.61979 0.69151 0.12947
 H275 H 0.65811 0.68808 0.16913
 H276 H 0.58059 0.72203 0.09850
 H277 H 0.60546 0.81877 0.14777
 H278 H 0.56655 0.84949 0.11618
 H279 H 0.52633 0.85214 0.07748
 H280 H 0.54142 0.75239 0.06824
 C281 C 0.69727 0.27162 -0.18849
 C282 C 0.67595 0.27133 -0.16368
 C283 C 0.66756 0.24262 -0.15114
 C284 C 0.68077 0.21472 -0.16342
 C285 C 0.70178 0.21513 -0.18818
 C286 C 0.71036 0.24353 -0.20148
 C287 C 0.64593 0.24221 -0.12668
 C288 C 0.63232 0.27025 -0.11473
 C289 C 0.64075 0.29902 -0.12720
 C290 C 0.66254 0.29938 -0.15153
 C291 C 0.62706 0.32699 -0.11528
 C292 C 0.60502 0.32652 -0.09140
 C293 C 0.59623 0.29808 -0.07890
 C294 C 0.61019 0.26997 -0.09066
 H295 H 0.70224 0.29399 -0.19846
 H296 H 0.67488 0.19246 -0.15384
 H297 H 0.71201 0.19282 -0.19601
 H298 H 0.63948 0.22011 -0.11716
 H299 H 0.66889 0.32149 -0.16113
 H300 H 0.63326 0.34925 -0.12453
 H301 H 0.59472 0.34854 -0.08282
 H302 H 0.60368 0.24785 -0.08128
 C303 C 0.30256 0.77735 -0.15583
 C304 C 0.32542 0.77790 -0.13361
 C305 C 0.34223 0.74968 -0.12369
 C306 C 0.33609 0.72151 -0.13625
 C307 C 0.31344 0.72119 -0.15840
 C308 C 0.29636 0.74900 -0.16836
 C309 C 0.36493 0.75001 -0.10140
 C310 C 0.37118 0.77822 -0.08893
 C311 C 0.35457 0.80650 -0.09890
 C312 C 0.33171 0.80617 -0.12114
 C313 C 0.36117 0.83464 -0.08645
 C314 C 0.38399 0.83474 -0.06431
 C315 C 0.40050 0.80670 -0.05412
 C316 C 0.39388 0.77851 -0.06662
 H317 H 0.28934 0.79892 -0.16306
 H318 H 0.34889 0.69971 -0.12901
 H319 H 0.30954 0.69912 -0.16804
 H320 H 0.37776 0.72833 -0.09378
 H321 H 0.31889 0.82785 -0.12876
 H322 H 0.34871 0.85656 -0.09384
 H323 H 0.38862 0.85677 -0.05506
 H324 H 0.40651 0.75670 -0.05911
 C325 C 0.19474 0.33085 0.26929
 C326 C 0.16855 0.35266 0.26994
 C327 C 0.15401 0.36288 0.24213
 C328 C 0.16599 0.35113 0.21416
 C329 C 0.19184 0.32910 0.21376
 C330 C 0.20639 0.31855 0.24129
 C331 C 0.12758 0.38440 0.24275
 C332 C 0.11531 0.39555 0.27089
 C333 C 0.12985 0.38526 0.29870
 C334 C 0.15647 0.36405 0.29803
 C335 C 0.11736 0.39620 0.32678
 C336 C 0.09065 0.41707 0.32738
 C337 C 0.07598 0.42754 0.29990
 C338 C 0.08858 0.41669 0.27167
 H339 H 0.20601 0.32341 0.29066
 H340 H 0.15509 0.35864 0.19262
 H341 H 0.20000 0.31977 0.19191
 H342 H 0.11642 0.39221 0.22140
 H343 H 0.16758 0.35614 0.31939
 H344 H 0.12820 0.38854 0.34830
 H345 H 0.08153 0.42508 0.34942
 H346 H 0.07750 0.42450 0.25030
 C347 C 0.15663 0.66112 0.73911
 C348 C 0.13719 0.63694 0.74055
 C349 C 0.12965 0.62322 0.76938
 C350 C 0.14178 0.63368 0.79620
 C351 C 0.16119 0.65759 0.79464
 C352 C 0.16901 0.67193 0.76614
 C353 C 0.10999 0.59934 0.77103
 C354 C 0.09775 0.58891 0.74416
 C355 C 0.10551 0.60229 0.71521
 C356 C 0.12522 0.62621 0.71356
 C357 C 0.09317 0.59164 0.68843
 C358 C 0.07302 0.56826 0.69037
 C359 C 0.06487 0.55509 0.71911
 C360 C 0.07761 0.56544 0.74590
 H361 H 0.16292 0.67050 0.71665
 H362 H 0.13602 0.62355 0.81852
 H363 H 0.16883 0.66559 0.81622
 H364 H 0.10409 0.58898 0.79325
 H365 H 0.13107 0.63660 0.69136
 H366 H 0.09889 0.60159 0.66602
 H367 H 0.06353 0.56074 0.66938
 H368 H 0.07161 0.55550 0.76824
 C369 C -0.19065 0.64845 0.27670
 C370 C -0.16531 0.62558 0.27659
 C371 C -0.15352 0.61361 0.24840
 C372 C -0.16751 0.62438 0.22087
 C373 C -0.19277 0.64707 0.22110
 C374 C -0.20474 0.65984 0.24895
 C375 C -0.12785 0.59115 0.24816
 C376 C -0.11388 0.58043 0.27582
 C377 C -0.12594 0.59207 0.30410
 C378 C -0.15158 0.61455 0.30432
 C379 C -0.11202 0.58113 0.33171
 C380 C -0.08622 0.55905 0.33132
 C381 C -0.07379 0.54757 0.30332
 C382 C -0.08791 0.55834 0.27562
 H383 H -0.19987 0.65641 0.29871
 H384 H -0.15866 0.61553 0.19902
 H385 H -0.20178 0.65549 0.19904
 H386 H -0.11870 0.58213 0.22645
 H387 H -0.16070 0.62361 0.32602
 H388 H -0.12100 0.58975 0.35360
 H389 H -0.07582 0.55118 0.35298
 H390 H -0.07867 0.54960 0.25385
 C391 C -0.16007 0.33377 0.73041
 C392 C -0.13887 0.35612 0.72570
 C393 C -0.12874 0.36384 0.69553
 C394 C -0.14018 0.34926 0.67057
 C395 C -0.16084 0.32668 0.67540
 C396 C -0.17097 0.31816 0.70541
 C397 C -0.10702 0.38565 0.69082
 C398 C -0.09486 0.39945 0.71601
 C399 C -0.10502 0.39166 0.74622
 C400 C -0.12707 0.37026 0.75085
 C401 C -0.09269 0.40516 0.77140
 C402 C -0.07029 0.42596 0.76681
 C403 C -0.05983 0.43388 0.73694
 C404 C -0.07243 0.42063 0.71155
 H405 H -0.16639 0.32736 0.75386
 H406 H -0.13295 0.35514 0.64722
 H407 H -0.16945 0.31662 0.65525
 H408 H -0.09923 0.39149 0.66763
 H409 H -0.13471 0.36428 0.77406
 H410 H -0.10022 0.39947 0.79469
 H411 H -0.06115 0.43589 0.78681
 H412 H -0.06458 0.42650 0.68841
 C413 C 0.26325 0.16336 0.32512
 C414 C 0.26531 0.14108 0.34952
 C415 C 0.29446 0.13087 0.36198
 C416 C 0.32101 0.14315 0.34984
 C417 C 0.31873 0.16550 0.32571
 C418 C 0.28988 0.17590 0.31313
 C419 C 0.29660 0.10865 0.38641
 C420 C 0.26992 0.09661 0.39865
 C421 C 0.24075 0.10690 0.38627
 C422 C 0.23864 0.12900 0.36173
 C423 C 0.21416 0.09491 0.39866
 C424 C 0.21639 0.07283 0.42304
 C425 C 0.24528 0.06227 0.43546
 C426 C 0.27197 0.07439 0.42310
 H427 H 0.24091 0.17078 0.31535
 H428 H 0.34353 0.13566 0.35918
 H429 H 0.33954 0.17507 0.31726
 H430 H 0.31898 0.10080 0.39593
 H431 H 0.21626 0.13687 0.35222
 H432 H 0.19161 0.10256 0.38947
 H433 H 0.19547 0.06389 0.43206
 H434 H 0.29441 0.06650 0.43244
 C435 C 0.75296 0.15499 0.64923
 C436 C 0.75571 0.13052 0.62856
 C437 C 0.78531 0.11861 0.61769
 C438 C 0.81162 0.13122 0.62780
 C439 C 0.80867 0.15562 0.64827
 C440 C 0.77938 0.16785 0.65906
 C441 C 0.78815 0.09446 0.59673
 C442 C 0.76177 0.08214 0.58635
 C443 C 0.73217 0.09392 0.59729
 C444 C 0.72932 0.11799 0.61838
 C445 C 0.70588 0.08152 0.58679
 C446 C 0.70883 0.05786 0.56546
 C447 C 0.73813 0.04611 0.55424
 C448 C 0.76454 0.05834 0.56497
 H449 H 0.73024 0.16446 0.65716
 H450 H 0.83448 0.12230 0.61981
 H451 H 0.82939 0.16483 0.65586
 H452 H 0.81087 0.08543 0.58834
 H453 H 0.70660 0.12709 0.62669
 H454 H 0.68301 0.09024 0.59496
 H455 H 0.68810 0.04886 0.55762
 H456 H 0.78729 0.04951 0.55656
 C457 C 0.24462 -0.17259 0.67606
 C458 C 0.24180 -0.14933 0.65262
 C459 C 0.21212 -0.13710 0.64282
 C460 C 0.18581 -0.14836 0.65667
 C461 C 0.18883 -0.17146 0.68008
 C462 C 0.21821 -0.18377 0.69004
 C463 C 0.20924 -0.11379 0.61940
 C464 C 0.23567 -0.10252 0.60572
 C465 C 0.26533 -0.11477 0.61557
 C466 C 0.26821 -0.13812 0.63890
 C467 C 0.29167 -0.10340 0.60193
 C468 C 0.28873 -0.08011 0.57874
 C469 C 0.25939 -0.06776 0.56868
 C470 C 0.23291 -0.07915 0.58233
 H471 H 0.26742 -0.18222 0.68322
 H472 H 0.16289 -0.13919 0.64951
 H473 H 0.16812 -0.17939 0.69072
 H474 H 0.18648 -0.10441 0.61189
 H475 H 0.29097 -0.14749 0.64643
 H476 H 0.31457 -0.11252 0.60922
 H477 H 0.30952 -0.07181 0.56864
 H478 H 0.21014 -0.06983 0.57484
 C479 C 0.73895 -0.18819 0.32992
 C480 C 0.73642 -0.16566 0.35260
 C481 C 0.70708 -0.15575 0.36551
 C482 C 0.68083 -0.16866 0.35563
 C483 C 0.68355 -0.19105 0.33303
 C484 C 0.71256 -0.20097 0.31990
 C485 C 0.70443 -0.13303 0.38797
 C486 C 0.73073 -0.12004 0.39767
 C487 C 0.76009 -0.13003 0.38486
 C488 C 0.76275 -0.15278 0.36241
 C489 C 0.78631 -0.11703 0.39470
 C490 C 0.78350 -0.09426 0.41695
 C491 C 0.75441 -0.08403 0.42975
 C492 C 0.72810 -0.09713 0.41997
 H493 H 0.76139 -0.19537 0.31968
 H494 H 0.65819 -0.16142 0.36535
 H495 H 0.66294 -0.20084 0.32597
 H496 H 0.68190 -0.12539 0.39781
 H497 H 0.78527 -0.16038 0.35253
 H498 H 0.80899 -0.12443 0.38515
 H499 H 0.80415 -0.08458 0.42405
 H500 H 0.70553 -0.08953 0.42968
 C501 C 0.63420 0.76996 -0.16188
 C502 C 0.61103 0.77147 -0.13878
 C503 C 0.60056 0.74359 -0.12618
 C504 C 0.61332 0.71476 -0.13690
 C505 C 0.63633 0.71347 -0.15986
 C506 C 0.64706 0.74096 -0.17252
 C507 C 0.57754 0.74492 -0.10305
 C508 C 0.56482 0.77377 -0.09228
 C509 C 0.57517 0.80169 -0.10484
 C510 C 0.59823 0.80038 -0.12803
 C511 C 0.56229 0.83045 -0.09392
 C512 C 0.53942 0.83154 -0.07071
 C513 C 0.52904 0.80389 -0.05801
 C514 C 0.54189 0.77506 -0.06903
 H515 H 0.64251 0.79130 -0.17127
 H516 H 0.60547 0.69319 -0.12758
 H517 H 0.64550 0.69088 -0.16801
 H518 H 0.56956 0.72350 -0.09340
 H519 H 0.60622 0.82179 -0.13766
 H520 H 0.56992 0.85210 -0.10328
 H521 H 0.52992 0.85406 -0.06266
 H522 H 0.53412 0.75353 -0.05949
 C523 C 0.36504 0.26846 -0.17288
 C524 C 0.38865 0.26871 -0.15144
 C525 C 0.40316 0.24017 -0.13941
 C526 C 0.39389 0.21192 -0.14914
 C527 C 0.37032 0.21189 -0.17043
 C528 C 0.35557 0.24010 -0.18243
 C529 C 0.42656 0.24032 -0.11776
 C530 C 0.43561 0.26865 -0.10791
 C531 C 0.42119 0.29718 -0.12003
 C532 C 0.39785 0.29704 -0.14176
 C533 C 0.43028 0.32542 -0.11009
 C534 C 0.45332 0.32545 -0.08823
 C535 C 0.46776 0.29724 -0.07589
 C536 C 0.45877 0.26888 -0.08599
 H537 H 0.35416 0.29037 -0.18229
 H538 H 0.40472 0.18984 -0.14012
 H539 H 0.36323 0.18975 -0.17710
 H540 H 0.43762 0.21841 -0.10849
 H541 H 0.38675 0.31894 -0.15099
 H542 H 0.41950 0.34751 -0.11915
 H543 H 0.45977 0.34763 -0.08091
 H544 H 0.46968 0.24693 -0.07671
 C545 C 0.29954 0.77964 0.17957
 C546 C 0.32244 0.77974 0.15624
 C547 C 0.33378 0.75148 0.14262
 C548 C 0.32206 0.72368 0.15244
 C549 C 0.29910 0.72375 0.17538
 C550 C 0.28724 0.75168 0.18939
 C551 C 0.35655 0.75141 0.11927
 C552 C 0.36794 0.77936 0.10906
 C553 C 0.35651 0.80774 0.12246
 C554 C 0.33390 0.80774 0.14605
 C555 C 0.36783 0.83564 0.11191
 C556 C 0.39022 0.83543 0.08828
 C557 C 0.40179 0.80730 0.07488
 C558 C 0.39050 0.77932 0.08550
 H559 H 0.29043 0.80175 0.18886
 H560 H 0.33071 0.70176 0.14242
 H561 H 0.29165 0.70142 0.18281
 H562 H 0.36524 0.72965 0.10890
 H563 H 0.32515 0.82952 0.15635
 H564 H 0.35932 0.85762 0.12188
 H565 H 0.39854 0.85732 0.08057
 H566 H 0.39913 0.75746 0.07533
 C567 C 0.69888 0.26708 0.15467
 C568 C 0.67716 0.26762 0.13120
 C569 C 0.67088 0.23937 0.11817
 C570 C 0.68659 0.21115 0.12865
 C571 C 0.70825 0.21083 0.15190
 C572 C 0.71458 0.23870 0.16525
 C573 C 0.64900 0.23976 0.09492
 C574 C 0.63332 0.26806 0.08447
 C575 C 0.63974 0.29634 0.09732
 C576 C 0.66157 0.29594 0.12064
 C577 C 0.62415 0.32457 0.08665
 C578 C 0.60227 0.32481 0.06358
 C579 C 0.59548 0.29682 0.05079
 C580 C 0.61124 0.26849 0.06137
 H581 H 0.70322 0.28870 0.16500
 H582 H 0.68218 0.18930 0.11881
 H583 H 0.72034 0.18872 0.15922
 H584 H 0.64414 0.21806 0.08502
 H585 H 0.66641 0.31764 0.13057
 H586 H 0.62881 0.34647 0.09621
 H587 H 0.59049 0.34696 0.05591
 H588 H 0.60633 0.24673 0.05167
 C589 C -0.18111 0.66256 0.74372
 C590 C -0.15719 0.63818 0.74523
 C591 C -0.15974 0.61254 0.76592
 C592 C -0.18648 0.61134 0.78418
 C593 C -0.21062 0.63515 0.78193
 C594 C -0.20854 0.66155 0.76184
 C595 C -0.13575 0.58827 0.76770
 C596 C -0.10961 0.58884 0.74825
 C597 C -0.10741 0.61417 0.72694
 C598 C -0.13089 0.63893 0.72600
 C599 C -0.08201 0.61402 0.70647
 C600 C -0.05924 0.58880 0.70677
 C601 C -0.06099 0.56384 0.72816
 C602 C -0.08599 0.56412 0.74918
 H603 H -0.17747 0.68257 0.72887
 H604 H -0.18908 0.59155 0.79980
 H605 H -0.23130 0.63172 0.79533
 H606 H -0.13770 0.56867 0.78376
 H607 H -0.12903 0.65843 0.70979
 H608 H -0.08004 0.63312 0.68987
 H609 H -0.04004 0.58886 0.69043
 H610 H -0.08756 0.54461 0.76541
 C611 C -0.14486 0.31589 0.26751
 C612 C -0.12451 0.33915 0.26836
 C613 C -0.11601 0.35474 0.24081
 C614 C -0.12802 0.34679 0.21290
 C615 C -0.14830 0.32365 0.21217
 C616 C -0.15716 0.30761 0.23941
 C617 C -0.09576 0.37809 0.24162
 C618 C -0.08403 0.38618 0.26974
 C619 C -0.09261 0.37061 0.29733
 C620 C -0.11274 0.34720 0.29647
 C621 C -0.08101 0.37884 0.32540
 C622 C -0.06128 0.40243 0.32622
 C623 C -0.05263 0.41821 0.29898
 C624 C -0.06404 0.40978 0.27073
 H625 H -0.15195 0.30535 0.28916
 H626 H -0.12156 0.35834 0.19150
 H627 H -0.15587 0.31766 0.18981
 H628 H -0.08926 0.39005 0.22043
 H629 H -0.11930 0.33530 0.31768
 H630 H -0.08734 0.36713 0.34676
 H631 H -0.05284 0.40839 0.34828
 H632 H -0.05765 0.42178 0.24954
 C633 C 0.18656 0.31990 0.73626
 C634 C 0.16077 0.34202 0.73891
 C635 C 0.14886 0.35023 0.76839
 C636 C 0.16271 0.33579 0.79469
 C637 C 0.18828 0.31364 0.79185
 C638 C 0.20062 0.30558 0.76266
 C639 C 0.12344 0.37284 0.77108
 C640 C 0.10973 0.38727 0.74463
 C641 C 0.12143 0.37865 0.71517
 C642 C 0.14687 0.35617 0.71250
 C643 C 0.10761 0.39282 0.68877
 C644 C 0.08266 0.41561 0.69143
 C645 C 0.07104 0.42482 0.72055
 C646 C 0.08465 0.41035 0.74713
 H647 H 0.19604 0.31431 0.71361
 H648 H 0.15379 0.34163 0.81747
 H649 H 0.19828 0.30263 0.81257
 H650 H 0.11445 0.37929 0.79370
 H651 H 0.15592 0.34978 0.68987
 H652 H 0.11623 0.38643 0.66603
 H653 H 0.07270 0.42632 0.67056
 H654 H 0.07588 0.41715 0.76971
 C655 C 0.14015 0.66869 0.28479
 C656 C 0.12048 0.64478 0.28360
 C657 C 0.11312 0.63348 0.25484
 C658 C 0.12531 0.64632 0.22779
 C659 C 0.14518 0.66968 0.22910
 C660 C 0.15336 0.68114 0.25757
 C661 C 0.09398 0.60927 0.25349
 C662 C 0.08240 0.59580 0.28063
 C663 C 0.08972 0.60700 0.30948
 C664 C 0.10857 0.63152 0.31080
 C665 C 0.07825 0.59326 0.33655
 C666 C 0.05988 0.56854 0.33507
 C667 C 0.05253 0.55715 0.30649
 C668 C 0.06382 0.57108 0.27932
 H669 H 0.14639 0.67615 0.30714
 H670 H 0.11959 0.63819 0.20551
 H671 H 0.15327 0.67934 0.20743
 H672 H 0.08843 0.60065 0.23134
 H673 H 0.11424 0.64003 0.33295
 H674 H 0.08361 0.60151 0.35888
 H675 H 0.05145 0.55832 0.35637
 H676 H 0.05837 0.56256 0.25712
 C677 C 0.73635 -0.18959 0.66547
 C678 C 0.73420 -0.16729 0.64106
 C679 C 0.70518 -0.15806 0.62781
 C680 C 0.67890 -0.17151 0.63901
 C681 C 0.68122 -0.19357 0.66338
 C682 C 0.70987 -0.20269 0.67698
 C683 C 0.70285 -0.13537 0.60380
 C684 C 0.72914 -0.12166 0.59293
 C685 C 0.75819 -0.13105 0.60604
 C686 C 0.76054 -0.15382 0.62998
 C687 C 0.78441 -0.11737 0.59507
 C688 C 0.78191 -0.09446 0.57146
 C689 C 0.75313 -0.08473 0.55838
 C690 C 0.72681 -0.09858 0.56924
 H691 H 0.75850 -0.19615 0.67601
 H692 H 0.65651 -0.16482 0.62905
 H693 H 0.66057 -0.20362 0.67158
 H694 H 0.68055 -0.12822 0.59375
 H695 H 0.78282 -0.16089 0.64011
 H696 H 0.80685 -0.12430 0.60482
 H697 H 0.80256 -0.08423 0.56356
 H698 H 0.70448 -0.09140 0.55932
 C699 C 0.23804 -0.17274 0.34259
 C700 C 0.23618 -0.14956 0.36463
 C701 C 0.20692 -0.13647 0.37523
 C702 C 0.18006 -0.14683 0.36363
 C703 C 0.18212 -0.16969 0.34146
 C704 C 0.21107 -0.18281 0.33058
 C705 C 0.20497 -0.11309 0.39707
 C706 C 0.23193 -0.10248 0.40827
 C707 C 0.26119 -0.11556 0.39764
 C708 C 0.26313 -0.13911 0.37599
 C709 C 0.28805 -0.10477 0.40875
 C710 C 0.28601 -0.08120 0.43018
 C711 C 0.25707 -0.06803 0.44101
 C712 C 0.23008 -0.07888 0.42990
 H713 H 0.26054 -0.18298 0.33482
 H714 H 0.15744 -0.13698 0.37143
 H715 H 0.16098 -0.17664 0.33235
 H716 H 0.18250 -0.10304 0.40518
 H717 H 0.28560 -0.14911 0.36783
 H718 H 0.31066 -0.11452 0.40083
 H719 H 0.30716 -0.07336 0.43836
 H720 H 0.20759 -0.06894 0.43800
 C721 C 0.75888 0.15236 0.32032
 C722 C 0.76078 0.12842 0.34320
 C723 C 0.79007 0.11505 0.35303
 C724 C 0.81691 0.12568 0.33972
 C725 C 0.81482 0.14946 0.31697
 C726 C 0.78586 0.16314 0.30710
 C727 C 0.79211 0.09134 0.37606
 C728 C 0.76521 0.08077 0.38941
 C729 C 0.73591 0.09399 0.37949
 C730 C 0.73387 0.11775 0.35647
 C731 C 0.70911 0.08324 0.39284
 C732 C 0.71129 0.05971 0.41589
 C733 C 0.74030 0.04651 0.42609
 C734 C 0.76720 0.05720 0.41262
 H735 H 0.73641 0.16294 0.31318
 H736 H 0.83954 0.11560 0.34687
 H737 H 0.83595 0.15696 0.30685
 H738 H 0.81460 0.08117 0.38362
 H739 H 0.71137 0.12794 0.34893
 H740 H 0.68646 0.09307 0.38550
 H741 H 0.69019 0.05195 0.42584
 H742 H 0.78974 0.04721 0.42017
 C743 C 0.26219 0.16045 0.67127
 C744 C 0.26438 0.13944 0.64716
 C745 C 0.29316 0.13191 0.63206
 C746 C 0.31917 0.14578 0.64113
 C747 C 0.31674 0.16688 0.66496
 C748 C 0.28830 0.17440 0.68039
 C749 C 0.29549 0.11064 0.60818
 C750 C 0.26934 0.09693 0.59908
 C751 C 0.24049 0.10477 0.61398
 C752 C 0.23821 0.12587 0.63797
 C753 C 0.21435 0.09129 0.60470
 C754 C 0.21674 0.07001 0.58106
 C755 C 0.24534 0.06166 0.56629
 C756 C 0.27158 0.07538 0.57540
 H757 H 0.24020 0.16561 0.68318
 H758 H 0.34138 0.14043 0.62970
 H759 H 0.33712 0.17763 0.67105
 H760 H 0.31762 0.10476 0.59671
 H761 H 0.21609 0.13173 0.64946
 H762 H 0.19205 0.09709 0.61581
 H763 H 0.19615 0.05981 0.57459
 H764 H 0.29377 0.06924 0.56417
   
