data_POSCAR
  _audit_creation_date              2014-09-24
  _audit_creation_method            'ToBaCCo'
  _symmetry_space_group_name_H-M    'P1'
  _symmetry_Int_Tables_number       1
  _symmetry_cell_setting            triclinic
  loop_
  _symmetry_equiv_pos_as_xyz
 x,y,z
_cell_length_a 29.9607
_cell_length_b 30.7243
_cell_length_c 23.0278
_cell_angle_alpha 89.936200
_cell_angle_beta 89.834000
_cell_angle_gamma 106.684900
loop_
  _atom_site_label
  _atom_site_type_symbol
  _atom_site_fract_x
  _atom_site_fract_y
  _atom_site_fract_z
O1 O 0.00667 0.33420 0.03405
 O2 O 0.07839 0.28082 -0.05596
 O3 O 0.01492 0.32018 -0.07677
 O4 O 0.07245 0.29428 0.05492
 O5 O 0.01895 0.22775 0.06142
 O6 O -0.04221 0.25693 -0.06294
 O7 O 0.02144 0.21654 -0.05218
 O8 O -0.04483 0.26710 0.04693
 Cu9 Cu 0.04877 0.31423 -0.01114
 Cu10 Cu -0.01666 0.23515 -0.00072
 C11 C -0.03129 0.30954 0.05568
 C12 C 0.06068 0.23990 -0.07162
 C13 C -0.02387 0.29294 -0.09157
 C14 C 0.05540 0.25637 0.08016
 O15 O 0.47682 0.83156 0.56728
 O16 O 0.55833 0.82034 0.45050
 O17 O 0.47538 0.83298 0.45337
 O18 O 0.56012 0.81950 0.56415
 O19 O 0.52488 0.74572 0.56485
 O20 O 0.44138 0.75890 0.45513
 O21 O 0.52306 0.74659 0.44849
 O22 O 0.44263 0.75756 0.56382
 Cu23 Cu 0.52114 0.83354 0.50891
 Cu24 Cu 0.48079 0.74445 0.50803
 C25 C 0.44534 0.79647 0.58440
 C26 C 0.55348 0.78129 0.42886
 C27 C 0.44356 0.79826 0.43636
 C28 C 0.55587 0.78002 0.58416
 O29 O 0.99724 0.66011 0.06851
 O30 O 0.93748 0.70389 -0.04916
 O31 O 0.99913 0.65785 -0.04567
 O32 O 0.93576 0.70703 0.06321
 O33 O 0.99385 0.77043 0.06269
 O34 O 1.05652 0.72178 -0.04475
 O35 O 0.99558 0.76729 -0.05157
 O36 O 1.05477 0.72384 0.06491
 Cu37 Cu 0.96166 0.67573 0.00951
 Cu38 Cu 1.03045 0.75241 0.00787
 C39 C 1.03698 0.68430 0.08553
 C40 C 0.95648 0.74310 -0.07022
 C41 C 1.03919 0.68147 -0.06285
 C42 C 0.95407 0.74735 0.08097
 O43 O 0.55358 0.21723 0.54892
 O44 O 0.46625 0.17379 0.43483
 O45 O 0.55407 0.22033 0.43627
 O46 O 0.46637 0.16995 0.54899
 O47 O 0.44513 0.23319 0.55072
 O48 O 0.53250 0.28329 0.44024
 O49 O 0.44523 0.23700 0.44086
 O50 O 0.53161 0.27992 0.55455
 Cu51 Cu 0.51214 0.18881 0.49182
 Cu52 Cu 0.48707 0.26510 0.49685
 C53 C 0.55691 0.25569 0.57153
 C54 C 0.44058 0.19811 0.41905
 C55 C 0.55775 0.26043 0.41894
 C56 C 0.44073 0.19315 0.56855
 O57 O 0.69971 0.05052 -0.07165
 O58 O 0.72042 -0.01593 0.05433
 O59 O 0.69092 0.05911 0.04070
 O60 O 0.72563 -0.02137 -0.05601
 O61 O 0.79794 0.02365 -0.05425
 O62 O 0.76435 0.10036 0.04842
 O63 O 0.79275 0.02846 0.05923
 O64 O 0.77105 0.09663 -0.06217
 Cu65 Cu 0.70143 0.01402 -0.00737
 Cu66 Cu 0.78883 0.06623 -0.00148
 C67 C 0.73201 0.08521 -0.08777
 C68 C 0.76080 -0.00579 0.07684
 C69 C 0.72151 0.09392 0.05975
 C70 C 0.76778 -0.01177 -0.07249
 O71 O 0.25188 0.41441 0.56393
 O72 O 0.24599 0.50082 0.45368
 O73 O 0.25251 0.41716 0.45135
 O74 O 0.24705 0.49872 0.56788
 O75 O 0.32396 0.52326 0.56776
 O76 O 0.32933 0.44380 0.45061
 O77 O 0.32289 0.52539 0.45275
 O78 O 0.32869 0.44094 0.56365
 Cu79 Cu 0.24160 0.45543 0.50929
 Cu80 Cu 0.33381 0.48624 0.50873
 C81 C 0.29143 0.41310 0.58234
 C82 C 0.28373 0.52700 0.43351
 C83 C 0.29200 0.41679 0.43130
 C84 C 0.28492 0.52414 0.58839
 O85 O 0.21424 0.99906 0.06292
 O86 O 0.22031 0.91235 -0.04587
 O87 O 0.21629 0.99589 -0.04922
 O88 O 0.21918 0.91515 0.06861
 O89 O 0.14225 0.89114 0.06819
 O90 O 0.13947 0.96981 -0.05128
 O91 O 0.14337 0.88831 -0.04708
 O92 O 0.13742 0.97295 0.06263
 Cu93 Cu 0.22528 0.95782 0.00946
 Cu94 Cu 0.13294 0.92780 0.00820
 C95 C 0.17466 1.00047 0.08147
 C96 C 0.18255 0.88685 -0.06652
 C97 C 0.17737 0.99596 -0.07095
 C98 C 0.18104 0.89036 0.08945
 O99 O 0.83182 0.53237 0.43861
 O100 O 0.79665 0.60147 0.55057
 O101 O 0.83097 0.53340 0.55177
 O102 O 0.79779 0.60206 0.43759
 O103 O 0.72599 0.55591 0.43825
 O104 O 0.76091 0.48416 0.54611
 O105 O 0.72634 0.55247 0.55294
 O106 O 0.75937 0.48784 0.43456
 Cu107 Cu 0.82153 0.57222 0.49442
 Cu108 Cu 0.73575 0.51563 0.49309
 C109 C 0.80137 0.49850 0.41735
 C110 C 0.75592 0.58787 0.57198
 C111 C 0.80152 0.49672 0.56771
 C112 C 0.75634 0.59059 0.41853
 O113 O 0.19551 0.13739 0.26306
 O114 O 0.23647 0.25096 0.32937
 O115 O 0.16603 0.20749 0.26717
 O116 O 0.26812 0.18020 0.32660
 O117 O 0.30718 0.20271 0.24517
 O118 O 0.20647 0.23510 0.18826
 O119 O 0.27934 0.27580 0.25139
 O120 O 0.23543 0.16323 0.18316
 Cu121 Cu 0.21290 0.19128 0.30490
 Cu122 Cu 0.26122 0.22211 0.20908
 C123 C 0.20743 0.13131 0.21139
 C124 C 0.26517 0.28271 0.30166
 C125 C 0.16871 0.22551 0.21726
 C126 C 0.30480 0.18651 0.29611
 O127 O 0.68278 0.77264 0.23704
 O128 O 0.79432 0.77166 0.17069
 O129 O 0.73200 0.71777 0.23647
 O130 O 0.74441 0.83090 0.17250
 O131 O 0.78226 0.86309 0.25065
 O132 O 0.77067 0.75071 0.31387
 O133 O 0.83180 0.80593 0.24798
 O134 O 0.71935 0.80570 0.31556
 Cu135 Cu 0.73494 0.77065 0.19564
 Cu136 Cu 0.77975 0.81000 0.28962
 C137 C 0.68177 0.78743 0.28830
 C138 C 0.83203 0.78780 0.19843
 C139 C 0.74878 0.71517 0.28652
 C140 C 0.76557 0.86626 0.20084
 O141 O 0.77096 0.37720 0.23180
 O142 O 0.72367 0.27036 0.15011
 O143 O 0.69344 0.32047 0.22844
 O144 O 0.80303 0.34194 0.14932
 O145 O 0.82790 0.29896 0.21102
 O146 O 0.71767 0.27937 0.29338
 O147 O 0.75090 0.23294 0.21652
 O148 O 0.79956 0.33904 0.29627
 Cu149 Cu 0.74452 0.32912 0.18169
 Cu150 Cu 0.77645 0.28340 0.26076
 C151 C 0.79344 0.37589 0.27820
 C152 C 0.72938 0.23352 0.16949
 C153 C 0.68737 0.29805 0.27540
 C154 C 0.83454 0.32517 0.16705
 O155 O 0.26616 0.66099 0.25497
 O156 O 0.24187 0.76421 0.19884
 O157 O 0.30631 0.75158 0.25820
 O158 O 0.19942 0.68391 0.18783
 O159 O 0.15924 0.67981 0.26930
 O160 O 0.26733 0.74751 0.34059
 O161 O 0.20022 0.76500 0.27808
 O162 O 0.22437 0.66105 0.33389
 Cu163 Cu 0.25778 0.71227 0.21837
 Cu164 Cu 0.20903 0.71336 0.31379
 C165 C 0.25094 0.64418 0.30412
 C166 C 0.21523 0.78122 0.22845
 C167 C 0.30494 0.76131 0.31154
 C168 C 0.16077 0.67362 0.21491
 O169 O 0.79919 0.33318 0.66374
 O170 O 0.76162 0.21886 0.72811
 O171 O 0.72219 0.26941 0.66930
 O172 O 0.84099 0.28444 0.72369
 O173 O 0.82103 0.30958 0.80688
 O174 O 0.70548 0.30207 0.74863
 O175 O 0.74238 0.24806 0.80880
 O176 O 0.78618 0.36304 0.74716
 Cu177 Cu 0.78306 0.27334 0.68813
 Cu178 Cu 0.76164 0.30849 0.78609
 C179 C 0.79913 0.36744 0.69442
 C180 C 0.74538 0.21406 0.77942
 C181 C 0.69417 0.28457 0.69897
 C182 C 0.85086 0.29901 0.77502
 O183 O 0.30985 0.74720 0.76688
 O184 O 0.20303 0.67892 0.83786
 O185 O 0.26959 0.65648 0.76984
 O186 O 0.24507 0.75946 0.82678
 O187 O 0.20386 0.76060 0.74756
 O188 O 0.22755 0.65690 0.69156
 O189 O 0.16285 0.67552 0.75680
 O190 O 0.27097 0.74326 0.68474
 Cu191 Cu 0.26129 0.70766 0.80688
 Cu192 Cu 0.21259 0.70915 0.71186
 C193 C 0.30855 0.75707 0.71356
 C194 C 0.16439 0.66882 0.81109
 C195 C 0.25402 0.63977 0.72093
 C196 C 0.21856 0.77657 0.79721
 O197 O 0.16965 0.19361 0.74230
 O198 O 0.27108 0.17310 0.67109
 O199 O 0.20190 0.12684 0.73800
 O200 O 0.23711 0.24310 0.67723
 O201 O 0.28354 0.26573 0.75235
 O202 O 0.24345 0.15150 0.81678
 O203 O 0.31231 0.19235 0.75125
 O204 O 0.21294 0.22123 0.81879
 Cu205 Cu 0.21631 0.18205 0.69852
 Cu206 Cu 0.26774 0.21090 0.79218
 C207 C 0.17365 0.20927 0.79350
 C208 C 0.30848 0.17804 0.69937
 C209 C 0.21486 0.12001 0.78888
 C210 C 0.26695 0.27416 0.70434
 O211 O 0.73608 0.70982 0.76311
 O212 O 0.75259 0.82189 0.83220
 O213 O 0.68831 0.76633 0.76882
 O214 O 0.79925 0.76104 0.83093
 O215 O 0.83690 0.79627 0.75389
 O216 O 0.72438 0.80014 0.69005
 O217 O 0.78997 0.85528 0.75398
 O218 O 0.77470 0.74422 0.68609
 Cu219 Cu 0.74059 0.76179 0.80701
 Cu220 Cu 0.78517 0.80264 0.71335
 C221 C 0.75218 0.70823 0.71228
 C222 C 0.77454 0.85765 0.80479
 C223 C 0.68695 0.78219 0.71821
 C224 C 0.83699 0.77748 0.80313
 N225 N 0.14274 0.06536 0.18928
 N226 N 0.13223 0.03050 0.15300
 C227 C 0.17161 0.03189 0.12354
 C228 C 0.20668 0.06886 0.14268
 N229 N 0.18713 0.08871 0.18366
 H230 H 0.24233 0.08086 0.12738
 N231 N 0.70932 0.62883 0.69600
 N232 N 0.70829 0.59610 0.65808
 C233 C 0.74336 0.61315 0.62012
 C234 C 0.76596 0.65711 0.63580
 N235 N 0.74372 0.66559 0.68326
 H236 H 0.79532 0.68078 0.61449
 N237 N 0.81052 0.94453 0.18545
 N238 N 0.81070 0.97961 0.15195
 C239 C 0.77128 0.96727 0.12027
 C240 C 0.74691 0.92319 0.13509
 N241 N 0.77284 0.91032 0.17567
 H242 H 0.71493 0.90195 0.11642
 N243 N 0.32315 0.34860 0.69530
 N244 N 0.33115 0.38585 0.66320
 C245 C 0.29492 0.37965 0.62646
 C246 C 0.26438 0.33713 0.63679
 N247 N 0.28342 0.31891 0.68006
 H248 H 0.23227 0.32073 0.61433
 N249 N 0.89839 0.37504 0.11153
 N250 N 0.93578 0.37255 0.08229
 C251 C 0.93853 0.32983 0.08946
 C252 C 0.90201 0.30628 0.12406
 N253 N 0.87790 0.33561 0.13681
 H254 H 0.89203 0.27055 0.13541
 N255 N 0.38181 0.81790 0.70680
 N256 N 0.41921 0.82988 0.67273
 C257 C 0.41108 0.80001 0.62838
 C258 C 0.36755 0.76976 0.63588
 N259 N 0.35039 0.78219 0.68495
 H260 H 0.35106 0.74008 0.61006
 N261 N 0.08104 0.62714 0.19298
 N262 N 0.04628 0.62956 0.15848
 C263 C 0.06233 0.66773 0.12634
 C264 C 0.10802 0.68800 0.14133
 N265 N 0.11850 0.66155 0.18233
 H266 H 0.13111 0.71971 0.12534
 N267 N 0.62457 0.30997 0.69163
 N268 N 0.58783 0.30401 0.65737
 C269 C 0.59038 0.27227 0.61812
 C270 C 0.62955 0.25890 0.62911
 N271 N 0.64989 0.28321 0.67521
 H272 H 0.64265 0.23484 0.60509
 N273 N 0.70474 0.13282 0.78062
 N274 N 0.69956 0.09739 0.81571
 C275 C 0.72461 0.11314 0.86378
 C276 C 0.74494 0.15910 0.85750
 N277 N 0.73161 0.17002 0.80530
 H278 H 0.76805 0.18217 0.88725
 N279 N 0.30485 0.59865 0.30874
 N280 N 0.31552 0.56863 0.34322
 C281 C 0.28298 0.55841 0.38553
 C282 C 0.25176 0.58320 0.37588
 N283 N 0.26679 0.60794 0.32747
 H284 H 0.22248 0.58467 0.40268
 N285 N 0.16224 0.81911 0.80582
 N286 N 0.15036 0.84684 0.84281
 C287 C 0.18340 0.85689 0.88425
 C288 C 0.21621 0.83468 0.87142
 N289 N 0.20164 0.81145 0.82208
 H290 H 0.24633 0.83378 0.89673
 N291 N 0.85449 0.43294 0.32835
 N292 N 0.85806 0.46657 0.36572
 C293 C 0.81464 0.47029 0.37328
 C294 C 0.78444 0.43835 0.33919
 N295 N 0.81067 0.41606 0.31173
 H296 H 0.74682 0.43012 0.33736
 N297 N 0.09369 0.17530 0.82197
 N298 N 0.06290 0.18133 0.86008
 C299 C 0.08330 0.22062 0.88773
 C300 C 0.12771 0.23856 0.86571
 N301 N 0.13255 0.20926 0.82462
 H302 H 0.15389 0.26940 0.87836
 N303 N 0.59951 0.74925 0.29870
 N304 N 0.56491 0.74564 0.33592
 C305 C 0.58158 0.77569 0.37872
 C306 C 0.62776 0.79805 0.36668
 N307 N 0.63750 0.78038 0.31627
 H308 H 0.65211 0.82326 0.39275
 N309 N 0.92161 0.80225 0.81286
 N310 N 0.95446 0.79437 0.84627
 C311 C 0.93287 0.76111 0.88368
 C312 C 0.88569 0.74899 0.87244
 N313 N 0.88014 0.77548 0.82804
 H314 H 0.85808 0.72419 0.89512
 N315 N 0.37200 0.15650 0.29446
 N316 N 0.40891 0.15822 0.32713
 C317 C 0.40462 0.18178 0.37520
 C318 C 0.36414 0.19410 0.37143
 N319 N 0.34478 0.17756 0.32080
 H320 H 0.35136 0.21526 0.40093
 N321 N 0.81919 0.93650 0.81807
 N322 N 0.81917 0.97193 0.85077
 C323 C 0.78179 0.95842 0.88612
 C324 C 0.75891 0.91350 0.87441
 N325 N 0.78344 0.90119 0.83171
 H326 H 0.72753 0.89208 0.89449
 N327 N 0.32228 0.35656 0.31257
 N328 N 0.33090 0.39263 0.34681
 C329 C 0.29512 0.38520 0.38477
 C330 C 0.26432 0.34326 0.37306
 N331 N 0.28264 0.32654 0.32777
 H332 H 0.23243 0.32622 0.39587
 N333 N 0.15003 0.05398 0.81050
 N334 N 0.13791 0.02123 0.84994
 C335 C 0.17603 0.02435 0.88253
 C336 C 0.21200 0.05991 0.86180
 N337 N 0.19429 0.07746 0.81689
 H338 H 0.24678 0.07314 0.87929
 N339 N 0.70743 0.63517 0.29991
 N340 N 0.70758 0.60127 0.33548
 C341 C 0.74337 0.61732 0.37241
 C342 C 0.76519 0.66196 0.35862
 N343 N 0.74170 0.67176 0.31322
 H344 H 0.79465 0.68521 0.37997
 N345 N 0.08504 0.62173 0.83449
 N346 N 0.04988 0.62463 0.86823
 C347 C 0.06531 0.66366 0.89861
 C348 C 0.11101 0.68396 0.88338
 N349 N 0.12214 0.65670 0.84399
 H350 H 0.13359 0.71638 0.89778
 N351 N 0.62177 0.32483 0.30231
 N352 N 0.58732 0.31647 0.34056
 C353 C 0.59060 0.28082 0.37261
 C354 C 0.62830 0.26750 0.35304
 N355 N 0.64670 0.29594 0.30911
 H356 H 0.64109 0.24019 0.36908
 N357 N 0.93599 0.32053 0.77186
 N358 N 0.97091 0.32102 0.80748
 C359 C 0.95128 0.30263 0.85799
 C360 C 0.90378 0.29095 0.85257
 N361 N 0.89565 0.30258 0.79847
 H362 H 0.87758 0.27526 0.88467
 N363 N 0.37755 0.82282 0.31879
 N364 N 0.41545 0.83410 0.35171
 C365 C 0.40839 0.80278 0.39446
 C366 C 0.36498 0.77234 0.38719
 N367 N 0.34682 0.78615 0.33990
 H368 H 0.34927 0.74166 0.41179
 N369 N 0.15898 0.82394 0.21880
 N370 N 0.14757 0.85150 0.18107
 C371 C 0.18127 0.86148 0.14014
 C372 C 0.21391 0.83941 0.15404
 N373 N 0.19869 0.81632 0.20345
 H374 H 0.24423 0.83824 0.12911
 N375 N 0.84021 0.44848 0.69132
 N376 N 0.84241 0.48404 0.65752
 C377 C 0.81392 0.46837 0.61218
 C378 C 0.79450 0.42236 0.61875
 N379 N 0.81188 0.41132 0.66834
 H380 H 0.76885 0.39943 0.59151
 N381 N 0.67138 0.17835 0.11185
 N382 N 0.66736 0.13963 0.08393
 C383 C 0.70755 0.12894 0.09234
 C384 C 0.73632 0.16228 0.12619
 N385 N 0.71254 0.19231 0.13739
 H386 H 0.77198 0.16575 0.13874
 N387 N 0.30693 0.59315 0.71515
 N388 N 0.31705 0.56333 0.67980
 C389 C 0.28439 0.55412 0.63788
 C390 C 0.25374 0.57929 0.64858
 N391 N 0.26914 0.60325 0.69722
 H392 H 0.22478 0.58177 0.62209
 N393 N 0.91660 0.81287 0.18851
 N394 N 0.95003 0.80315 0.15788
 C395 C 0.92914 0.76807 0.12291
 C396 C 0.88165 0.75682 0.13262
 N397 N 0.87534 0.78565 0.17374
 H398 H 0.85445 0.73058 0.11169
 N399 N 0.37537 0.14768 0.69450
 N400 N 0.41116 0.15000 0.65930
 C401 C 0.40540 0.17450 0.61274
 C402 C 0.36521 0.18691 0.62013
 N403 N 0.34750 0.16945 0.67130
 H404 H 0.35183 0.20906 0.59293
 N405 N 0.08528 0.21291 0.21239
 N406 N 0.05374 0.21974 0.17618
 C407 C 0.07743 0.24503 0.13210
 C408 C 0.12444 0.25348 0.14203
 N409 N 0.12779 0.23270 0.19255
 H410 H 0.15311 0.27047 0.11377
 N411 N 0.60429 0.74569 0.71073
 N412 N 0.56897 0.74310 0.67529
 C413 C 0.58513 0.77339 0.63240
 C414 C 0.63183 0.79485 0.64256
 N415 N 0.64231 0.77639 0.69200
 H416 H 0.65593 0.82001 0.61590
   
