data_POSCAR
  _audit_creation_date              2014-09-24
  _audit_creation_method            'ToBaCCo'
  _symmetry_space_group_name_H-M    'P1'
  _symmetry_Int_Tables_number       1
  _symmetry_cell_setting            triclinic
  loop_
  _symmetry_equiv_pos_as_xyz
 x,y,z
_cell_length_a 33.3596
_cell_length_b 31.8107
_cell_length_c 26.2529
_cell_angle_alpha 90.049500
_cell_angle_beta 90.477400
_cell_angle_gamma 82.317700
loop_
  _atom_site_label
  _atom_site_type_symbol
  _atom_site_fract_x
  _atom_site_fract_y
  _atom_site_fract_z
O1 O -0.06882 0.25719 0.02584
 O2 O -0.01147 0.28828 -0.08393
 O3 O -0.07148 0.24559 -0.07158
 O4 O -0.00723 0.29921 0.01489
 O5 O 0.03265 0.23854 0.02578
 O6 O -0.02739 0.18729 -0.06777
 O7 O 0.03380 0.23187 -0.07155
 O8 O -0.02805 0.19663 0.03176
 Cu9 Cu -0.04398 0.27862 -0.02935
 Cu10 Cu 0.00682 0.20738 -0.02002
 C11 C -0.05852 0.22150 0.04709
 C12 C 0.02150 0.26582 -0.09574
 C13 C -0.06005 0.20756 -0.08500
 C14 C 0.02347 0.27769 0.03548
 O15 O 0.55879 0.75424 0.49559
 O16 O 0.47865 0.74366 0.59127
 O17 O 0.55814 0.73586 0.59312
 O18 O 0.48102 0.77584 0.50025
 O19 O 0.47430 0.71089 0.47494
 O20 O 0.55648 0.67046 0.56568
 O21 O 0.47829 0.67745 0.56602
 O22 O 0.55190 0.68981 0.46852
 Cu23 Cu 0.51962 0.75869 0.54784
 Cu24 Cu 0.51498 0.68081 0.51629
 C25 C 0.56789 0.72349 0.46475
 C26 C 0.46522 0.70803 0.59468
 C27 C 0.57090 0.69666 0.59519
 C28 C 0.46444 0.75093 0.47189
 O29 O 0.99553 0.71926 0.00056
 O30 O 1.07033 0.77051 0.07158
 O31 O 1.00422 0.74313 0.09464
 O32 O 1.05991 0.75703 -0.02370
 O33 O 1.02360 0.81969 -0.03482
 O34 O 0.96118 0.79972 0.07456
 O35 O 1.03084 0.83179 0.06482
 O36 O 0.96269 0.78149 -0.02168
 Cu37 Cu 1.03595 0.74090 0.03630
 Cu38 Cu 0.99130 0.81471 0.02035
 C39 C 0.96695 0.74118 -0.02349
 C40 C 1.06267 0.80956 0.08211
 C41 C 0.97272 0.76896 0.10421
 C42 C 1.05186 0.79151 -0.04864
 O43 O 0.46001 0.22747 0.41597
 O44 O 0.53041 0.22923 0.52497
 O45 O 0.45636 0.21051 0.51320
 O46 O 0.53429 0.23926 0.42713
 O47 O 0.51041 0.30698 0.43670
 O48 O 0.43399 0.27805 0.52695
 O49 O 0.50798 0.29712 0.53586
 O50 O 0.43507 0.29426 0.43069
 Cu51 Cu 0.49733 0.21974 0.46956
 Cu52 Cu 0.46985 0.30090 0.48414
 C53 C 0.43570 0.26053 0.40487
 C54 C 0.53160 0.26406 0.54835
 C55 C 0.43170 0.23896 0.53423
 C56 C 0.53514 0.27793 0.41635
 O57 O 0.64030 0.02183 -0.05153
 O58 O 0.64761 -0.04694 0.06167
 O59 O 0.64227 0.03271 0.04811
 O60 O 0.64531 -0.05965 -0.03813
 O61 O 0.71197 -0.06481 -0.04052
 O62 O 0.70902 0.02688 0.04731
 O63 O 0.71428 -0.05571 0.05723
 O64 O 0.70688 0.01822 -0.05179
 Cu65 Cu 0.63721 -0.01259 0.00487
 Cu66 Cu 0.71719 -0.01923 0.00256
 C67 C 0.67243 0.03204 -0.07062
 C68 C 0.68199 -0.06270 0.07905
 C69 C 0.67512 0.04467 0.06355
 C70 C 0.67912 -0.07786 -0.05404
 O71 O 0.13412 0.49661 0.51552
 O72 O 0.14260 0.59762 0.45225
 O73 O 0.13935 0.52011 0.42093
 O74 O 0.13770 0.57312 0.54584
 O75 O 0.20454 0.56046 0.54882
 O76 O 0.20556 0.50283 0.42838
 O77 O 0.20920 0.58282 0.45310
 O78 O 0.20068 0.48358 0.52300
 Cu79 Cu 0.13168 0.54833 0.48277
 Cu80 Cu 0.21186 0.53143 0.48825
 C81 C 0.16574 0.47343 0.53115
 C82 C 0.17717 0.60752 0.44186
 C83 C 0.17267 0.50131 0.40442
 C84 C 0.17107 0.57534 0.56850
 O85 O 0.33990 1.06530 0.01884
 O86 O 0.34971 0.97428 -0.06611
 O87 O 0.32270 1.05483 -0.07626
 O88 O 0.35754 0.98432 0.03311
 O89 O 0.29396 0.97447 0.04506
 O90 O 0.26257 1.03383 -0.06876
 O91 O 0.28810 0.96111 -0.04706
 O92 O 0.27534 1.05950 0.02940
 Cu93 Cu 0.34887 1.02054 -0.02398
 Cu94 Cu 0.27334 1.00862 -0.00688
 C95 C 0.30591 1.07871 0.03778
 C96 C 0.32095 0.95230 -0.07137
 C97 C 0.28686 1.05363 -0.09284
 C98 C 0.33097 0.96728 0.05736
 O99 O 0.88195 0.48555 0.56062
 O100 O 0.86014 0.43018 0.44109
 O101 O 0.87635 0.50609 0.46581
 O102 O 0.86708 0.40832 0.53621
 O103 O 0.80148 0.42796 0.54520
 O104 O 0.81112 0.52733 0.47637
 O105 O 0.79510 0.45316 0.45034
 O106 O 0.81638 0.50436 0.57109
 Cu107 Cu 0.87793 0.45519 0.50018
 Cu108 Cu 0.79946 0.48002 0.51209
 C109 C 0.85269 0.50534 0.58537
 C110 C 0.82377 0.43299 0.42522
 C111 C 0.84547 0.53359 0.45964
 C112 C 0.83278 0.40098 0.55170
 C113 C 0.17525 0.25566 0.08176
 C114 C 0.20921 0.22594 0.08296
 C115 C 0.22457 0.22642 0.13209
 N116 N 0.20143 0.25518 0.16078
 C117 C 0.17138 0.27321 0.13015
 C118 C 0.25878 0.20040 0.15102
 C119 C 0.27526 0.20744 0.19916
 C120 C 0.30024 0.17743 0.22697
 C121 C 0.31617 0.19884 0.26612
 C122 C 0.30101 0.24139 0.26027
 N123 N 0.27524 0.24614 0.22015
 C124 C 0.31532 0.27533 0.28623
 C125 C 0.29184 0.31564 0.28858
 C126 C 0.30505 0.35288 0.30492
 C127 C 0.27215 0.38395 0.30168
 C128 C 0.23999 0.36451 0.28366
 N129 N 0.25216 0.32286 0.27577
 C130 C 0.19956 0.38390 0.27737
 C131 C 0.17071 0.36390 0.24999
 C132 C 0.12906 0.37277 0.25512
 C133 C 0.11205 0.35022 0.21785
 C134 C 0.14377 0.32805 0.19119
 N135 N 0.17943 0.33606 0.21146
 C136 C 0.13971 0.30372 0.14693
 H137 H 0.15612 0.26386 0.04880
 H138 H 0.22123 0.20659 0.05128
 H139 H 0.20798 0.32724 0.19596
 H140 H 0.30749 0.14398 0.21852
 H141 H 0.33796 0.18496 0.29416
 H142 H 0.33522 0.35745 0.31710
 H143 H 0.27221 0.41709 0.31089
 H144 H 0.08000 0.35038 0.21099
 H145 H 0.26403 0.27477 0.20271
 H146 H 0.11253 0.39355 0.28261
 C147 C 0.83458 0.83394 0.20584
 C148 C 0.79606 0.85566 0.20265
 C149 C 0.77012 0.82836 0.22013
 N150 N 0.79151 0.79108 0.23449
 C151 C 0.83082 0.79429 0.22554
 C152 C 0.72735 0.83590 0.21970
 C153 C 0.70462 0.80951 0.24782
 C154 C 0.66480 0.80371 0.23787
 C155 C 0.65272 0.78013 0.27736
 C156 C 0.68580 0.77121 0.30969
 N157 N 0.71740 0.78899 0.29130
 C158 C 0.68581 0.74913 0.35628
 C159 C 0.72180 0.72937 0.37887
 C160 C 0.72503 0.71001 0.42627
 C161 C 0.76340 0.68819 0.42943
 C162 C 0.78191 0.69437 0.38344
 N163 N 0.75657 0.71985 0.35296
 C164 C 0.81941 0.67314 0.36711
 C165 C 0.83799 0.68542 0.32231
 C166 C 0.86754 0.66008 0.29529
 C167 C 0.87952 0.68471 0.25676
 C168 C 0.85696 0.72441 0.26130
 N169 N 0.83129 0.72445 0.30088
 C170 C 0.86242 0.76045 0.23211
 H171 H 0.86210 0.84613 0.19526
 H172 H 0.78833 0.88794 0.18946
 H173 H 0.81368 0.75108 0.31583
 H174 H 0.64616 0.81533 0.20562
 H175 H 0.62293 0.77073 0.28164
 H176 H 0.70189 0.71046 0.45496
 H177 H 0.77572 0.66910 0.46139
 H178 H 0.90231 0.67450 0.22865
 H179 H 0.74474 0.79089 0.31018
 H180 H 0.87928 0.62722 0.30242
 C181 C 0.77706 0.13156 0.16163
 C182 C 0.81335 0.14735 0.16033
 C183 C 0.80628 0.18856 0.17853
 N184 N 0.76665 0.19874 0.18972
 C185 C 0.74859 0.16403 0.17905
 C186 C 0.83514 0.21733 0.18000
 C187 C 0.82946 0.25608 0.20732
 C188 C 0.85406 0.28794 0.20409
 C189 C 0.83991 0.31863 0.23889
 C190 C 0.80728 0.30463 0.26274
 N191 N 0.80143 0.26628 0.24378
 C192 C 0.78496 0.32637 0.30244
 C193 C 0.74793 0.31525 0.31985
 C194 C 0.72781 0.33207 0.36274
 C195 C 0.69144 0.31654 0.36344
 C196 C 0.69036 0.29116 0.32059
 N197 N 0.72498 0.29031 0.29410
 C198 C 0.65648 0.27249 0.30408
 C199 C 0.65802 0.24308 0.26345
 C200 C 0.62453 0.23250 0.23736
 C201 C 0.63859 0.20211 0.20210
 C202 C 0.68032 0.19433 0.20812
 N203 N 0.69191 0.21974 0.24544
 C204 C 0.70634 0.16272 0.18171
 H205 H 0.77255 0.09968 0.15103
 H206 H 0.84159 0.13018 0.14740
 H207 H 0.72070 0.21792 0.26155
 H208 H 0.88002 0.28895 0.17997
 H209 H 0.85255 0.34768 0.24622
 H210 H 0.73804 0.35370 0.39029
 H211 H 0.66820 0.32376 0.39183
 H212 H 0.62003 0.18757 0.17504
 H213 H 0.78208 0.24627 0.25824
 H214 H 0.59322 0.24557 0.24286
 C215 C 0.31074 0.74674 0.40851
 C216 C 0.27394 0.73187 0.40781
 C217 C 0.25803 0.73937 0.35924
 N218 N 0.28404 0.75771 0.33007
 C219 C 0.31620 0.76244 0.36018
 C220 C 0.22034 0.72901 0.34215
 C221 C 0.20159 0.74522 0.29636
 C222 C 0.16921 0.72974 0.27284
 C223 C 0.15657 0.75702 0.23364
 C224 C 0.18202 0.78817 0.23347
 N225 N 0.20933 0.78069 0.27199
 C226 C 0.17747 0.82448 0.20155
 C227 C 0.20804 0.85080 0.19643
 C228 C 0.20365 0.88973 0.17195
 C229 C 0.24126 0.90268 0.17146
 C230 C 0.26763 0.87075 0.19452
 N231 N 0.24713 0.83924 0.20994
 C232 C 0.31022 0.86911 0.19769
 C233 C 0.33398 0.84088 0.23099
 C234 C 0.37585 0.83210 0.23008
 C235 C 0.38722 0.80696 0.27173
 C236 C 0.35197 0.80045 0.29632
 N237 N 0.31968 0.82103 0.27124
 C238 C 0.35049 0.78019 0.34387
 H239 H 0.33076 0.74642 0.44114
 H240 H 0.26014 0.71807 0.43981
 H241 H 0.29027 0.82590 0.28500
 H242 H 0.15534 0.70220 0.28358
 H243 H 0.13078 0.75442 0.20926
 H244 H 0.17641 0.90700 0.15575
 H245 H 0.24822 0.93223 0.15568
 H246 H 0.41795 0.79525 0.28313
 H247 H 0.22858 0.80155 0.28508
 H248 H 0.39624 0.84324 0.20290
 C249 C 0.77238 0.10135 0.81401
 C250 C 0.80917 0.11614 0.81447
 C251 C 0.80296 0.15614 0.79274
 N252 N 0.76352 0.16669 0.78025
 C253 C 0.74458 0.13343 0.79367
 C254 C 0.83226 0.18403 0.78916
 C255 C 0.82755 0.22001 0.75693
 C256 C 0.85332 0.25088 0.75596
 C257 C 0.84067 0.27778 0.71650
 C258 C 0.80772 0.26258 0.69407
 N259 N 0.79994 0.22735 0.71882
 C260 C 0.78749 0.27979 0.64982
 C261 C 0.74796 0.27227 0.63662
 C262 C 0.72728 0.28627 0.59251
 C263 C 0.68917 0.27478 0.59643
 C264 C 0.68814 0.25354 0.64239
 N265 N 0.72396 0.25229 0.66701
 C266 C 0.65363 0.23866 0.66267
 C267 C 0.65493 0.21150 0.70542
 C268 C 0.62146 0.20391 0.73311
 C269 C 0.63510 0.17454 0.76994
 C270 C 0.67653 0.16452 0.76340
 N271 N 0.68835 0.18732 0.72397
 C272 C 0.70211 0.13380 0.79200
 H273 H 0.76695 0.07053 0.82753
 H274 H 0.83716 0.09924 0.82912
 H275 H 0.71684 0.18340 0.70740
 H276 H 0.87937 0.25342 0.77994
 H277 H 0.85454 0.30518 0.70524
 H278 H 0.73820 0.30330 0.56098
 H279 H 0.66497 0.28135 0.56868
 H280 H 0.61650 0.16233 0.79850
 H281 H 0.78018 0.20673 0.70647
 H282 H 0.59043 0.21820 0.72751
 C283 C 0.22044 0.86716 0.83739
 C284 C 0.18365 0.85259 0.83992
 C285 C 0.18948 0.81100 0.82278
 N286 N 0.22885 0.79944 0.81128
 C287 C 0.24790 0.83362 0.82039
 C288 C 0.15978 0.78323 0.82173
 C289 C 0.16522 0.74394 0.79583
 C290 C 0.13961 0.71306 0.79897
 C291 C 0.15313 0.68208 0.76435
 C292 C 0.18659 0.69485 0.74089
 N293 N 0.19355 0.73266 0.76002
 C294 C 0.20743 0.67359 0.69982
 C295 C 0.24539 0.68255 0.68251
 C296 C 0.26547 0.66450 0.64009
 C297 C 0.30256 0.67854 0.63946
 C298 C 0.30417 0.70423 0.68183
 N299 N 0.26927 0.70661 0.70805
 C300 C 0.33856 0.72205 0.69824
 C301 C 0.33735 0.75148 0.73841
 C302 C 0.37094 0.76123 0.76501
 C303 C 0.35717 0.79228 0.79935
 C304 C 0.31559 0.80085 0.79237
 N305 N 0.30369 0.77566 0.75535
 C306 C 0.29019 0.83345 0.81707
 H307 H 0.22603 0.89889 0.84720
 H308 H 0.15601 0.87081 0.85305
 H309 H 0.27504 0.77839 0.73866
 H310 H 0.11313 0.71313 0.82244
 H311 H 0.13917 0.65394 0.75648
 H312 H 0.25513 0.64278 0.61281
 H313 H 0.32590 0.67013 0.61147
 H314 H 0.37575 0.80697 0.82625
 H315 H 0.21316 0.75206 0.74488
 H316 H 0.40212 0.74733 0.76033
 C317 C 0.14136 0.19443 0.79898
 C318 C 0.17423 0.16372 0.79992
 C319 C 0.20640 0.18174 0.77995
 N320 N 0.19433 0.22298 0.76878
 C321 C 0.15464 0.23090 0.78068
 C322 C 0.24673 0.16150 0.77562
 C323 C 0.27648 0.17949 0.74825
 C324 C 0.31774 0.16605 0.75072
 C325 C 0.33528 0.18778 0.71354
 C326 C 0.30420 0.21334 0.68874
 N327 N 0.26855 0.20849 0.71060
 C328 C 0.30854 0.23650 0.64360
 C329 C 0.27806 0.26830 0.62569
 C330 C 0.27592 0.28582 0.57724
 C331 C 0.24212 0.31568 0.57608
 C332 C 0.22489 0.31549 0.62392
 N333 N 0.24693 0.28661 0.65416
 C334 C 0.19036 0.34248 0.64019
 C335 C 0.17129 0.33610 0.68672
 C336 C 0.14715 0.36722 0.71354
 C337 C 0.13078 0.34718 0.75322
 C338 C 0.14472 0.30425 0.74879
 N339 N 0.17010 0.29794 0.70871
 C340 C 0.13150 0.27148 0.77808
 H341 H 0.11116 0.18989 0.81032
 H342 H 0.17377 0.13202 0.81427
 H343 H 0.18150 0.26877 0.69289
 H344 H 0.33365 0.14223 0.77556
 H345 H 0.36718 0.18407 0.70471
 H346 H 0.29598 0.27741 0.54561
 H347 H 0.23131 0.33481 0.54348
 H348 H 0.11051 0.36256 0.78158
 H349 H 0.24003 0.21947 0.69587
 H350 H 0.14162 0.40079 0.70504
 C351 C 0.73601 0.65627 0.64525
 C352 C 0.77543 0.63757 0.64491
 C353 C 0.79049 0.64162 0.69385
 N354 N 0.76195 0.66312 0.72363
 C355 C 0.72867 0.67191 0.69400
 C356 C 0.82845 0.62228 0.71201
 C357 C 0.84561 0.63567 0.75779
 C358 C 0.87849 0.61369 0.78301
 C359 C 0.88663 0.63813 0.82409
 C360 C 0.85798 0.67426 0.82375
 N361 N 0.83361 0.67270 0.78247
 C362 C 0.85700 0.70898 0.85832
 C363 C 0.82534 0.74369 0.85824
 C364 C 0.82736 0.78323 0.87968
 C365 C 0.79018 0.80661 0.87291
 C366 C 0.76553 0.78023 0.85013
 N367 N 0.78730 0.74191 0.84057
 C368 C 0.72319 0.79019 0.84161
 C369 C 0.70149 0.76308 0.81240
 C370 C 0.66011 0.76177 0.81464
 C371 C 0.65095 0.73341 0.77793
 C372 C 0.68697 0.71819 0.75428
 N373 N 0.71757 0.73633 0.77560
 C374 C 0.69083 0.69062 0.71180
 H375 H 0.71515 0.65829 0.61326
 H376 H 0.79101 0.62252 0.61234
 H377 H 0.74699 0.73426 0.76196
 H378 H 0.89527 0.58337 0.77279
 H379 H 0.91185 0.63020 0.84994
 H380 H 0.85256 0.79529 0.89766
 H381 H 0.78287 0.83955 0.88331
 H382 H 0.62111 0.72544 0.76923
 H383 H 0.81255 0.69739 0.76915
 H384 H 0.63868 0.77937 0.84008
 N385 N 0.32221 0.16902 0.11017
 N386 N 0.33529 0.13505 0.07851
 C387 C 0.30317 0.11486 0.06792
 C388 C 0.26901 0.13536 0.09194
 C389 C 0.28241 0.16901 0.11791
 H390 H 0.23872 0.12668 0.09131
 H391 H 0.34052 0.19039 0.12491
 H392 H 0.36506 0.12706 0.06625
 N393 N 0.88872 0.58023 0.66995
 N394 N 0.89536 0.54841 0.63723
 C395 C 0.86044 0.53238 0.62902
 C396 C 0.83066 0.55429 0.65885
 C397 C 0.84942 0.58518 0.68334
 H398 H 0.79874 0.55109 0.65863
 H399 H 0.91014 0.60000 0.67985
 H400 H 0.92255 0.54031 0.61793
 N401 N 0.66789 0.89051 0.19908
 N402 N 0.65419 0.91636 0.15805
 C403 C 0.68401 0.91340 0.12357
 C404 C 0.71662 0.88503 0.14077
 C405 C 0.70511 0.87063 0.18791
 H406 H 0.74415 0.87466 0.12019
 H407 H 0.65158 0.88788 0.23243
 H408 H 0.62645 0.93595 0.15643
 N409 N 0.13217 0.38692 0.59797
 N410 N 0.12566 0.42117 0.56916
 C411 C 0.16140 0.43478 0.55978
 C412 C 0.19209 0.40808 0.58361
 C413 C 0.17218 0.37805 0.60743
 H414 H 0.22407 0.41082 0.58473
 H415 H 0.10949 0.37002 0.61093
 H416 H 0.09712 0.43505 0.55668
 N417 N 0.90178 0.17545 0.15719
 N418 N 0.92954 0.17625 0.12168
 C419 C 0.91787 0.20912 0.09018
 C420 C 0.88105 0.22996 0.10602
 C421 C 0.87195 0.20767 0.14867
 H422 H 0.86344 0.25758 0.08915
 H423 H 0.90351 0.15344 0.18691
 H424 H 0.95621 0.15501 0.11964
 N425 N 0.39287 0.66512 0.67135
 N426 N 0.42640 0.66173 0.64459
 C427 C 0.43384 0.70085 0.63126
 C428 C 0.40379 0.73069 0.65069
 C429 C 0.37812 0.70645 0.67527
 H430 H 0.39949 0.76464 0.64455
 H431 H 0.37977 0.63943 0.68530
 H432 H 0.44310 0.63290 0.63421
 N433 N 0.11223 0.86808 0.17456
 N434 N 0.08223 0.86469 0.14212
 C435 C 0.09080 0.82811 0.11612
 C436 C 0.12798 0.80769 0.13217
 C437 C 0.14037 0.83375 0.16963
 H438 H 0.14305 0.77709 0.12008
 H439 H 0.11269 0.89276 0.20074
 H440 H 0.05570 0.88613 0.13959
 N441 N 0.59629 0.29578 0.64660
 N442 N 0.56433 0.30256 0.61623
 C443 C 0.56114 0.26681 0.58976
 C444 C 0.59231 0.23568 0.60429
 C445 C 0.61387 0.25553 0.64036
 H446 H 0.59976 0.20416 0.58858
 H447 H 0.60667 0.31880 0.66981
 H448 H 0.54596 0.33169 0.61250
 N449 N 0.65170 0.08319 0.80888
 N450 N 0.64328 0.05738 0.84557
 C451 C 0.66980 0.05935 0.88412
 C452 C 0.69577 0.08815 0.87195
 C453 C 0.68348 0.10260 0.82359
 H454 H 0.72027 0.09708 0.89512
 H455 H 0.63651 0.08645 0.77385
 H456 H 0.62071 0.03762 0.84331
 N457 N 0.15870 0.71081 0.38581
 N458 N 0.14736 0.67874 0.41130
 C459 C 0.17937 0.64841 0.41674
 C460 C 0.21278 0.66178 0.39380
 C461 C 0.19816 0.70152 0.37423
 H462 H 0.24286 0.64452 0.39028
 H463 H 0.13950 0.73835 0.37604
 H464 H 0.11803 0.67766 0.42435
 N465 N 0.33881 0.88688 0.81929
 N466 N 0.34816 0.91710 0.84988
 C467 C 0.32466 0.91807 0.89139
 C468 C 0.29978 0.88688 0.88768
 C469 C 0.30936 0.86803 0.84105
 H470 H 0.27689 0.88006 0.91430
 H471 H 0.35140 0.88049 0.78335
 H472 H 0.36863 0.93810 0.84102
 N473 N 0.77870 0.40470 0.30903
 N474 N 0.78846 0.43298 0.34210
 C475 C 0.81398 0.41316 0.37708
 C476 C 0.82075 0.37015 0.36590
 C477 C 0.79756 0.36619 0.32241
 H478 H 0.83605 0.34492 0.38937
 H479 H 0.75715 0.41125 0.28003
 H480 H 0.77590 0.46488 0.34235
 N481 N 0.05984 0.30637 0.79099
 N482 N 0.02961 0.30578 0.82733
 C483 C 0.04418 0.27815 0.86392
 C484 C 0.08390 0.26213 0.85317
 C485 C 0.09274 0.28018 0.80698
 H486 H 0.10379 0.24017 0.87643
 H487 H 0.05602 0.32259 0.75636
 H488 H 0.00026 0.32178 0.82402
 N489 N 0.62875 0.70687 0.35356
 N490 N 0.59821 0.69979 0.38239
 C491 C 0.59653 0.72585 0.42303
 C492 C 0.62743 0.75092 0.41998
 C493 C 0.64721 0.73751 0.37525
 H494 H 0.63575 0.77363 0.44753
 H495 H 0.63764 0.68988 0.32055
 H496 H 0.57944 0.67670 0.37478
 N497 N 0.89890 0.67337 0.92956
 N498 N 0.93122 0.68133 0.96042
 C499 C 0.93936 0.72059 0.94930
 C500 C 0.91419 0.73754 0.90999
 C501 C 0.88922 0.70700 0.89847
 H502 H 0.91548 0.76748 0.89099
 H503 H 0.88454 0.64621 0.93175
 H504 H 0.94413 0.66125 0.98933
 N505 N 0.38812 0.24381 0.28574
 N506 N 0.41921 0.23860 0.31754
 C507 C 0.40870 0.25981 0.36073
 C508 C 0.36909 0.27941 0.35653
 C509 C 0.35687 0.26789 0.30839
 H510 H 0.35117 0.29742 0.38532
 H511 H 0.38825 0.23041 0.24938
 H512 H 0.44711 0.22084 0.30961
 N513 N 0.66966 0.85403 0.83923
 N514 N 0.65742 0.88790 0.86709
 C515 C 0.68017 0.88664 0.90971
 C516 C 0.70758 0.84984 0.90948
 C517 C 0.70033 0.82992 0.86360
 H518 H 0.72991 0.83957 0.93853
 H519 H 0.65812 0.84856 0.80309
 H520 H 0.63518 0.91245 0.85578
 N521 N 0.15812 0.45587 0.28237
 N522 N 0.15012 0.48639 0.31642
 C523 C 0.17338 0.47623 0.35781
 C524 C 0.19679 0.43758 0.35033
 C525 C 0.18607 0.42542 0.30203
 H526 H 0.21711 0.41986 0.37737
 H527 H 0.14430 0.45588 0.24652
 H528 H 0.12919 0.51357 0.31124
 N529 N 0.23715 0.08651 0.79141
 N530 N 0.24609 0.05781 0.83112
 C531 C 0.27362 0.07280 0.86151
 C532 C 0.28248 0.11127 0.84283
 C533 C 0.25767 0.11952 0.80007
 H534 H 0.30048 0.13280 0.86142
 H535 H 0.21536 0.08417 0.76311
 H536 H 0.23283 0.03018 0.83618
 N537 N 0.87853 0.62563 0.40420
 N538 N 0.88545 0.58847 0.42734
 C539 C 0.84992 0.57352 0.43375
 C540 C 0.81906 0.60219 0.41362
 C541 C 0.83848 0.63492 0.39515
 H542 H 0.78713 0.59923 0.41183
 H543 H 0.90096 0.64425 0.39497
 H544 H 0.91399 0.57399 0.43902
 N545 N 0.09491 0.82969 0.83978
 N546 N 0.06511 0.83224 0.87698
 C547 C 0.07432 0.79892 0.90862
 C548 C 0.10978 0.77482 0.89294
 C549 C 0.12183 0.79530 0.85015
 H550 H 0.12561 0.74684 0.91121
 H551 H 0.09590 0.85120 0.80993
 H552 H 0.04038 0.85605 0.87912
 N553 N 0.60041 0.32699 0.33407
 N554 N 0.56892 0.32858 0.36456
 C555 C 0.56523 0.28889 0.37980
 C556 C 0.59541 0.26071 0.35760
 C557 C 0.61721 0.28623 0.32916
 H558 H 0.60197 0.22681 0.36357
 H559 H 0.61090 0.35353 0.31819
 H560 H 0.55100 0.35650 0.37560
 N561 N 0.89871 0.14507 0.81923
 N562 N 0.92713 0.15121 0.85284
 C563 C 0.91506 0.18736 0.87846
 C564 C 0.87723 0.20458 0.86111
 C565 C 0.86810 0.17709 0.82327
 H566 H 0.85967 0.23414 0.87250
 H567 H 0.90100 0.12028 0.79286
 H568 H 0.95485 0.13183 0.85662
 N569 N 0.39877 0.81925 0.39063
 N570 N 0.42829 0.81167 0.42437
 C571 C 0.43405 0.76987 0.43498
 C572 C 0.40691 0.74973 0.40668
 C573 C 0.38487 0.78251 0.37930
 H574 H 0.40331 0.71643 0.40657
 H575 H 0.38789 0.84928 0.37632
 H576 H 0.44408 0.83495 0.43987
 N577 N 0.35899 0.92104 0.17799
 N578 N 0.36574 0.94624 0.13975
 C579 C 0.34180 0.93848 0.10025
 C580 C 0.31970 0.90650 0.11349
 C581 C 0.33062 0.89683 0.16341
 H582 H 0.29602 0.89479 0.09131
 H583 H 0.37153 0.92262 0.21443
 H584 H 0.38372 0.97065 0.14232
 N585 N 0.84796 0.29560 0.60198
 N586 N 0.86019 0.32772 0.57751
 C587 C 0.82974 0.36008 0.57625
 C588 C 0.79646 0.34803 0.60093
 C589 C 0.80945 0.30679 0.61683
 H590 H 0.76756 0.36693 0.60776
 H591 H 0.86597 0.26669 0.60896
 H592 H 0.88902 0.32735 0.56215
 N593 N 0.65738 0.10917 0.17490
 N594 N 0.64840 0.07951 0.14314
 C595 C 0.67362 0.07760 0.10324
 C596 C 0.69951 0.10794 0.10951
 C597 C 0.68820 0.12756 0.15575
 H598 H 0.72314 0.11461 0.08396
 H599 H 0.64319 0.11572 0.20986
 H600 H 0.62640 0.05973 0.14985
 N601 N 0.19158 0.59944 0.69660
 N602 N 0.18086 0.57323 0.66156
 C603 C 0.17165 0.59521 0.61828
 C604 C 0.17680 0.63707 0.62580
 C605 C 0.18979 0.63831 0.67582
 H606 H 0.17619 0.66176 0.59733
 H607 H 0.20273 0.59018 0.73276
 H608 H 0.18294 0.54039 0.66611
 N609 N 0.93799 0.74502 0.22787
 N610 N 0.96670 0.74594 0.19376
 C611 C 0.94993 0.76339 0.15067
 C612 C 0.90865 0.77401 0.15744
 C613 C 0.90217 0.76133 0.20698
 H614 H 0.88636 0.78698 0.12947
 H615 H 0.94297 0.73283 0.26466
 H616 H 0.99723 0.73477 0.20006
 N617 N 0.36108 0.18480 0.60148
 N618 N 0.39363 0.18544 0.57341
 C619 C 0.39964 0.22604 0.56637
 C620 C 0.36961 0.25253 0.59117
 C621 C 0.34567 0.22500 0.61296
 H622 H 0.36544 0.28685 0.59259
 H623 H 0.34927 0.15723 0.61170
 H624 H 0.41090 0.15844 0.55863
 N625 N 0.07905 0.34695 0.10663
 N626 N 0.04800 0.34009 0.07754
 C627 C 0.04964 0.29799 0.07018
 C628 C 0.08264 0.27719 0.09600
 C629 C 0.10086 0.30929 0.11819
 H630 H 0.09289 0.24344 0.09683
 H631 H 0.08590 0.37698 0.11663
 H632 H 0.02710 0.36393 0.06161
 N633 N 0.64919 0.63966 0.67164
 N634 N 0.61813 0.64106 0.63985
 C635 C 0.60316 0.68194 0.63187
 C636 C 0.62536 0.70769 0.66024
 C637 C 0.65446 0.67960 0.68468
 H638 H 0.62271 0.74196 0.66008
 H639 H 0.66752 0.61185 0.68248
 H640 H 0.60839 0.61451 0.62273
   
