data_POSCAR
  _audit_creation_date              2014-09-24
  _audit_creation_method            'ToBaCCo'
  _symmetry_space_group_name_H-M    'P1'
  _symmetry_Int_Tables_number       1
  _symmetry_cell_setting            triclinic
  loop_
  _symmetry_equiv_pos_as_xyz
 x,y,z
_cell_length_a 41.2288
_cell_length_b 41.2348
_cell_length_c 8.9086
_cell_angle_alpha 90.001000
_cell_angle_beta 90.004100
_cell_angle_gamma 90.142800
loop_
  _atom_site_label
  _atom_site_type_symbol
  _atom_site_fract_x
  _atom_site_fract_y
  _atom_site_fract_z
O1 O 0.22430 0.28095 0.09482
 O2 O 0.28591 0.21783 0.15700
 O3 O 0.22419 0.21798 0.09387
 O4 O 0.28598 0.28114 0.15806
 O5 O 0.27477 0.28081 0.40055
 O6 O 0.21309 0.21757 0.33636
 O7 O 0.27475 0.21786 0.39956
 O8 O 0.21309 0.28090 0.33732
 Cu9 Cu 0.25630 0.24949 0.10176
 Cu10 Cu 0.24271 0.24927 0.39260
 C11 C 0.20820 0.29165 0.20568
 C12 C 0.29085 0.20715 0.28872
 C13 C 0.20808 0.20700 0.20438
 C14 C 0.29090 0.29171 0.29005
 O15 O 0.71430 0.28228 0.16235
 O16 O 0.77588 0.21925 0.09833
 O17 O 0.71422 0.21898 0.16161
 O18 O 0.77600 0.28219 0.09919
 O19 O 0.78711 0.28236 0.34168
 O20 O 0.72542 0.21901 0.40413
 O21 O 0.78712 0.21901 0.34081
 O22 O 0.72544 0.28198 0.40492
 Cu23 Cu 0.74389 0.25069 0.10621
 Cu24 Cu 0.75749 0.25057 0.39706
 C25 C 0.70936 0.29282 0.29431
 C26 C 0.79200 0.20842 0.20887
 C27 C 0.70929 0.20825 0.29330
 C28 C 0.79212 0.29306 0.20993
 O29 O 0.78689 0.71901 0.66336
 O30 O 0.72521 0.78196 0.59964
 O31 O 0.78688 0.78234 0.66255
 O32 O 0.72520 0.71901 0.60041
 O33 O 0.71403 0.71897 0.84295
 O34 O 0.77585 0.78220 0.90511
 O35 O 0.71412 0.78228 0.84226
 O36 O 0.77573 0.71923 0.90590
 Cu37 Cu 0.75726 0.75056 0.60733
 Cu38 Cu 0.74373 0.75068 0.89824
 C39 C 0.79181 0.70841 0.79523
 C40 C 0.70914 0.79281 0.71029
 C41 C 0.79192 0.79306 0.79424
 C42 C 0.70909 0.70825 0.71126
 O43 O 0.27459 0.71785 0.59616
 O44 O 0.21291 0.78092 0.65828
 O45 O 0.27462 0.78082 0.59522
 O46 O 0.21290 0.71757 0.65902
 O47 O 0.22395 0.71801 0.90156
 O48 O 0.28579 0.78111 0.83776
 O49 O 0.22411 0.78096 0.90080
 O50 O 0.28566 0.71780 0.83879
 Cu51 Cu 0.24254 0.74927 0.60299
 Cu52 Cu 0.25608 0.74948 0.89389
 C53 C 0.29063 0.70712 0.70712
 C54 C 0.20802 0.79167 0.78993
 C55 C 0.29074 0.79169 0.70584
 C56 C 0.20786 0.70702 0.79100
 O57 O 1.03153 -0.03635 0.08720
 O58 O 0.96867 0.02544 0.15077
 O59 O 0.96820 -0.03622 0.08785
 O60 O 1.03162 0.02536 0.15013
 O61 O 1.03179 0.03645 -0.09249
 O62 O 0.96837 -0.02516 -0.15480
 O63 O 0.96844 0.03657 -0.09181
 O64 O 1.03133 -0.02523 -0.15539
 Cu65 Cu 1.00002 -0.00665 0.14316
 Cu66 Cu 0.99997 0.00687 -0.14782
 C67 C 1.04210 -0.04133 -0.04468
 C68 C 0.95789 0.04154 0.04011
 C69 C 0.95752 -0.04119 -0.04388
 C70 C 1.04247 0.04141 0.03926
 O71 O 0.46861 0.47457 0.34910
 O72 O 0.53169 0.53642 0.41322
 O73 O 0.53160 0.47476 0.34999
 O74 O 0.46838 0.53623 0.41236
 O75 O 0.46839 0.52503 0.65487
 O76 O 0.53165 0.46357 0.59252
 O77 O 0.53138 0.52525 0.65577
 O78 O 0.46832 0.46335 0.59159
 Cu79 Cu 0.50008 0.50671 0.35698
 Cu80 Cu 0.49992 0.49309 0.64787
 C81 C 0.45775 0.45842 0.45961
 C82 C 0.54225 0.54137 0.54518
 C83 C 0.54237 0.45870 0.46081
 C84 C 0.45764 0.54110 0.54403
 O85 O -0.03144 0.53652 0.09198
 O86 O 0.03155 0.47475 0.15361
 O87 O 0.03190 0.53643 0.09071
 O88 O -0.03141 0.47480 0.15489
 O89 O -0.03188 0.46372 -0.08773
 O90 O 0.03142 0.52534 -0.15190
 O91 O 0.03145 0.46363 -0.08899
 O92 O -0.03153 0.52539 -0.15060
 Cu93 Cu 0.00017 0.50683 0.14699
 Cu94 Cu -0.00016 0.49331 -0.14400
 C95 C -0.04217 0.54149 -0.03964
 C96 C 0.04219 0.45866 0.04261
 C97 C 0.04240 0.54140 -0.04133
 C98 C -0.04239 0.45874 0.04429
 O99 O 0.53159 1.02525 0.34598
 O100 O 0.46840 0.96341 0.40822
 O101 O 0.46860 1.02508 0.34496
 O102 O 0.53173 0.96358 0.40928
 O103 O 0.53139 0.97479 0.65178
 O104 O 0.46826 1.03627 0.58748
 O105 O 0.46841 0.97461 0.65073
 O106 O 0.53158 1.03645 0.58851
 Cu107 Cu 0.50010 0.99312 0.35291
 Cu108 Cu 0.49989 1.00674 0.64382
 C109 C 0.54232 1.04139 0.45685
 C110 C 0.45767 0.95847 0.53990
 C111 C 0.45771 1.04115 0.45550
 C112 C 0.54228 0.95871 0.54128
 C113 C 1.13880 0.13687 0.13453
 N114 N 1.14545 0.14760 0.27530
 N115 N 1.16790 0.17037 0.29793
 C116 C 1.18466 0.18318 0.18067
 N117 N 1.17805 0.17235 0.03988
 N118 N 1.15550 0.14968 0.01721
 C119 C 1.11389 0.11193 0.10962
 N120 N 1.10473 0.10369 -0.03175
 N121 N 1.08195 0.08122 -0.05423
 C122 C 1.06763 0.06608 0.06385
 N123 N 1.07686 0.07425 0.20518
 N124 N 1.09952 0.09682 0.22767
 C125 C 0.63848 0.63690 0.64107
 N126 N 0.64614 0.64667 0.78227
 N127 N 0.66864 0.66942 0.80468
 C128 C 0.68437 0.68313 0.68672
 N129 N 0.67677 0.67331 0.54555
 N130 N 0.65419 0.65065 0.52312
 C131 C 0.61355 0.61198 0.61622
 N132 N 0.60391 0.60425 0.47493
 N133 N 0.58117 0.58176 0.45231
 C134 C 0.56733 0.56610 0.57016
 N135 N 0.57702 0.57378 0.71145
 N136 N 0.59968 0.59635 0.73409
 C137 C -0.13862 0.36323 0.14068
 N138 N -0.14524 0.35246 0.28141
 N139 N -0.16769 0.32967 0.30392
 C140 C -0.18446 0.31691 0.18657
 N141 N -0.17788 0.32779 0.04586
 N142 N -0.15533 0.35046 0.02332
 C143 C -0.11372 0.38818 0.11568
 N144 N -0.10463 0.39642 -0.02578
 N145 N -0.08188 0.41890 -0.04852
 C146 C -0.06751 0.43406 0.06937
 N147 N -0.07666 0.42589 0.21083
 N148 N -0.09930 0.40330 0.23358
 C149 C 0.36137 0.86297 0.63492
 N150 N 0.34572 0.84911 0.51704
 N151 N 0.32313 0.82647 0.53964
 C152 C 0.31546 0.81677 0.68092
 N153 N 0.33114 0.83060 0.79878
 N154 N 0.35364 0.85332 0.77620
 C155 C 0.38631 0.88788 0.61008
 N156 N 0.40007 0.90359 0.72803
 N157 N 0.42274 0.92615 0.70560
 C158 C 0.43256 0.93375 0.56444
 N159 N 0.41884 0.91802 0.44647
 N160 N 0.39608 0.89554 0.46888
 C161 C -0.13790 0.63711 -0.13414
 N162 N -0.14557 0.64680 -0.27538
 N163 N -0.16795 0.66955 -0.29788
 C164 C -0.18356 0.68334 -0.17996
 N165 N -0.17595 0.67361 -0.03873
 N166 N -0.15348 0.65095 -0.01621
 C167 C -0.11312 0.61216 -0.10942
 N168 N -0.10341 0.60445 0.03175
 N169 N -0.08079 0.58193 0.05404
 C170 C -0.06715 0.56622 -0.06401
 N171 N -0.07692 0.57388 -0.20514
 N172 N -0.09945 0.59648 -0.22745
 C173 C 0.36143 1.13614 0.35917
 N174 N 0.34572 1.14984 0.47706
 N175 N 0.32315 1.17238 0.45454
 C176 C 0.31554 1.18214 0.31333
 N177 N 0.33127 1.16847 0.19542
 N178 N 0.35377 1.14584 0.21793
 C179 C 0.38637 1.11136 0.38412
 N180 N 0.40026 1.09578 0.26633
 N181 N 0.42293 1.07334 0.28907
 C182 C 0.43261 1.06574 0.43041
 N183 N 0.41876 1.08135 0.54818
 N184 N 0.39601 1.10370 0.52546
 C185 C 1.13776 -0.13699 -0.14009
 N186 N 1.14537 -0.14678 -0.28127
 N187 N 1.16774 -0.16954 -0.30361
 C188 C 1.18340 -0.18324 -0.18560
 N189 N 1.17585 -0.17340 -0.04447
 N190 N 1.15339 -0.15074 -0.02211
 C191 C 1.11297 -0.11203 -0.11534
 N192 N 1.10338 -0.10427 0.02592
 N193 N 1.08078 -0.08174 0.04842
 C194 C 1.06705 -0.06608 -0.06949
 N195 N 1.07669 -0.07379 -0.21075
 N196 N 1.09921 -0.09640 -0.23327
 C197 C 0.63877 0.36379 0.36554
 N198 N 0.64647 0.35418 0.22422
 N199 N 0.66897 0.33156 0.20152
 C200 C 0.68466 0.31782 0.31931
 N201 N 0.67702 0.32748 0.46063
 N202 N 0.65444 0.35001 0.48335
 C203 C 0.61382 0.38856 0.39047
 N204 N 0.60407 0.39617 0.53170
 N205 N 0.58129 0.41851 0.55416
 C206 C 0.56751 0.43414 0.43622
 N207 N 0.57731 0.42659 0.29502
 N208 N 0.60001 0.40417 0.27255
 C209 C 0.86118 -0.13671 -0.13773
 N210 N 0.85451 -0.14757 -0.27826
 N211 N 0.83207 -0.17038 -0.30034
 C212 C 0.81534 -0.18308 -0.18274
 N213 N 0.82197 -0.17212 -0.04220
 N214 N 0.84452 -0.14942 -0.02009
 C215 C 0.88609 -0.11175 -0.11332
 N216 N 0.89528 -0.10343 0.02790
 N217 N 0.91806 -0.08095 0.05001
 C218 C 0.93235 -0.06587 -0.06827
 N219 N 0.92310 -0.07411 -0.20949
 N220 N 0.90043 -0.09670 -0.23162
 C221 C 0.36151 0.36296 0.36216
 N222 N 0.34580 0.34907 0.47975
 N223 N 0.32322 0.32644 0.45673
 C224 C 0.31562 0.31679 0.31530
 N225 N 0.33135 0.33065 0.19771
 N226 N 0.35385 0.35337 0.22072
 C227 C 0.38645 0.38786 0.38756
 N228 N 0.40032 0.40359 0.26997
 N229 N 0.42298 0.42614 0.29298
 C230 C 0.43267 0.43370 0.43439
 N231 N 0.41884 0.41794 0.55198
 N232 N 0.39609 0.39547 0.52899
 C233 C 0.13860 0.63690 -0.13861
 N234 N 0.15528 0.64978 -0.02143
 N235 N 0.17783 0.67245 -0.04432
 C236 C 0.18443 0.68320 -0.18521
 N237 N 0.16768 0.67033 -0.30236
 N238 N 0.14524 0.64756 -0.27950
 C239 C 0.11370 0.61196 -0.11330
 N240 N 0.10458 0.60382 0.02823
 N241 N 0.08185 0.58134 0.05119
 C242 C 0.06752 0.56608 -0.06655
 N243 N 0.07670 0.57416 -0.20807
 N244 N 0.09933 0.59674 -0.23104
 C245 C 0.63867 1.13690 0.36290
 N246 N 0.65431 1.15067 0.48102
 N247 N 0.67690 1.17333 0.45882
 C248 C 0.68458 1.18313 0.31772
 N249 N 0.66892 1.16939 0.19960
 N250 N 0.64641 1.14664 0.22178
 C251 C 0.61371 1.11198 0.38736
 N252 N 0.59996 1.09633 0.26923
 N253 N 0.57728 1.07376 0.29140
 C254 C 0.56744 1.06611 0.43248
 N255 N 0.58116 1.08179 0.55061
 N256 N 0.60393 1.10427 0.52846
 C257 C 0.13793 0.36301 0.13621
 N258 N 0.14561 0.35323 0.27731
 N259 N 0.16798 0.33046 0.29944
 C260 C 0.18358 0.31674 0.18130
 N261 N 0.17596 0.32657 0.04022
 N262 N 0.15350 0.34925 0.01807
 C263 C 0.11314 0.38797 0.11182
 N264 N 0.10341 0.39573 -0.02926
 N265 N 0.08079 0.41825 -0.05134
 C266 C 0.06717 0.43392 0.06684
 N267 N 0.07696 0.42622 0.20790
 N268 N 0.09949 0.40362 0.23000
 C269 C 0.63855 0.86375 0.63857
 N270 N 0.65423 0.84993 0.52090
 N271 N 0.67680 0.82740 0.54381
 C272 C 0.68444 0.81779 0.68520
 N273 N 0.66875 0.83158 0.80288
 N274 N 0.64625 0.85420 0.77999
 C275 C 0.61362 0.88852 0.61327
 N276 N 0.59976 0.90419 0.73088
 N277 N 0.57709 0.92662 0.70791
 C278 C 0.56738 0.93412 0.56651
 N279 N 0.58120 0.91843 0.44890
 N280 N 0.60395 0.89608 0.47186
 C281 C 0.86224 0.13714 0.13705
 N282 N 0.85465 0.14679 0.27845
 N283 N 0.83229 0.16953 0.30136
 C284 C 0.81662 0.18336 0.18371
 N285 N 0.82415 0.17367 0.04233
 N286 N 0.84660 0.15101 0.01940
 C287 C 0.88701 0.11220 0.11177
 N288 N 0.89659 0.10453 -0.02963
 N289 N 0.91919 0.08202 -0.05252
 C290 C 0.93293 0.06627 0.06516
 N291 N 0.92330 0.07389 0.20653
 N292 N 0.90078 0.09648 0.22944
 C293 C 0.36121 0.63606 0.63784
 N294 N 0.34562 0.64977 0.51965
 N295 N 0.32304 0.67233 0.54174
 C296 C 0.31532 0.68208 0.68282
 N297 N 0.33093 0.66840 0.80101
 N298 N 0.35343 0.64575 0.77893
 C299 C 0.38618 0.61127 0.61344
 N300 N 0.39993 0.59570 0.73160
 N301 N 0.42264 0.57326 0.70946
 C302 C 0.43250 0.56568 0.56839
 N303 N 0.41878 0.58127 0.45025
 N304 N 0.39599 0.60362 0.47236
   
