data_POSCAR
  _audit_creation_date              2014-09-24
  _audit_creation_method            'ToBaCCo'
  _symmetry_space_group_name_H-M    'P1'
  _symmetry_Int_Tables_number       1
  _symmetry_cell_setting            triclinic
  loop_
  _symmetry_equiv_pos_as_xyz
 x,y,z
_cell_length_a 18.5335
_cell_length_b 18.6560
_cell_length_c 18.6559
_cell_angle_alpha 89.999900
_cell_angle_beta 90.042700
_cell_angle_gamma 90.035800
loop_
  _atom_site_label
  _atom_site_type_symbol
  _atom_site_fract_x
  _atom_site_fract_y
  _atom_site_fract_z
O1 O 0.34727 0.43337 0.07568
 O2 O 0.42316 0.33301 -0.07550
 O3 O 0.32187 0.44056 -0.05330
 O4 O 0.44382 0.33930 0.06244
 O5 O 0.35903 0.25729 0.06964
 O6 O 0.25479 0.34842 -0.07580
 O7 O 0.34975 0.24288 -0.06437
 O8 O 0.25376 0.36093 0.06731
 Cu9 Cu 0.38913 0.39011 -0.00434
 Cu10 Cu 0.29322 0.29420 0.00118
 C11 C 0.28258 0.41784 0.09303
 C12 C 0.40706 0.26978 -0.09039
 C13 C 0.26992 0.41442 -0.08657
 C14 C 0.42189 0.27977 0.08751
 O15 O 0.57708 0.66715 -0.07557
 O16 O 0.65319 0.56715 0.07593
 O17 O 0.55654 0.66133 0.06256
 O18 O 0.67797 0.55938 -0.05285
 O19 O 0.74487 0.65144 -0.07605
 O20 O 0.64123 0.74349 0.06917
 O21 O 0.74666 0.63956 0.06720
 O22 O 0.65057 0.75728 -0.06504
 Cu23 Cu 0.61107 0.61031 -0.00406
 Cu24 Cu 0.70699 0.70611 0.00087
 C25 C 0.59327 0.73023 -0.09100
 C26 C 0.71797 0.58266 0.09307
 C27 C 0.57842 0.72105 0.08722
 C28 C 0.72964 0.58540 -0.08654
 O29 O 0.57664 0.33322 1.07618
 O30 O 0.65277 0.43305 0.92464
 O31 O 0.55596 0.33914 0.93818
 O32 O 0.67789 0.44076 1.05345
 O33 O 0.74466 0.34859 1.07644
 O34 O 0.64056 0.25701 0.93149
 O35 O 0.74612 0.36055 0.93329
 O36 O 0.64990 0.24302 1.06545
 Cu37 Cu 0.61071 0.39005 1.00474
 Cu38 Cu 0.70645 0.29410 0.99967
 C39 C 0.59266 0.27006 1.09139
 C40 C 0.71745 0.41742 0.90739
 C41 C 0.57778 0.27947 0.91349
 C42 C 0.72966 0.41463 1.08694
 O43 O 0.34673 0.56692 0.92424
 O44 O 0.42371 0.66756 1.07518
 O45 O 0.32227 0.55961 1.05308
 O46 O 0.44420 0.66040 0.93723
 O47 O 0.35981 0.74277 0.93054
 O48 O 0.25567 0.65183 1.07609
 O49 O 0.35020 0.75757 1.06452
 O50 O 0.25350 0.63952 0.93282
 Cu51 Cu 0.38931 0.61017 1.00413
 Cu52 Cu 0.29369 0.70609 0.99891
 C53 C 0.28196 0.58249 0.90708
 C54 C 0.40760 0.73071 1.09040
 C55 C 0.27070 0.58580 1.08672
 C56 C 0.42251 0.72011 0.91246
 O57 O -0.06924 0.42987 0.33120
 O58 O 0.07403 0.34840 0.43812
 O59 O 0.06878 0.43883 0.33994
 O60 O -0.05684 0.32199 0.43467
 O61 O -0.07613 0.25264 0.34391
 O62 O 0.07231 0.35759 0.25467
 O63 O 0.06721 0.25718 0.36348
 O64 O -0.06333 0.35269 0.24433
 Cu65 Cu -0.00297 0.38923 0.38961
 Cu66 Cu 0.00235 0.29410 0.29354
 C67 C -0.08682 0.41172 0.26933
 C68 C 0.09174 0.28456 0.42173
 C69 C 0.09224 0.41866 0.27910
 C70 C -0.08861 0.26898 0.40917
 O71 O 0.07364 0.65142 0.56220
 O72 O -0.07000 0.56955 0.66849
 O73 O -0.05747 0.67725 0.56449
 O74 O 0.06788 0.56094 0.66004
 O75 O 0.07053 0.64219 0.74534
 O76 O -0.07848 0.74596 0.65527
 O77 O -0.06465 0.64709 0.75512
 O78 O 0.06576 0.74299 0.63627
 Cu79 Cu -0.00371 0.61033 0.61003
 Cu80 Cu 0.00074 0.70568 0.70583
 C81 C 0.09096 0.71545 0.57843
 C82 C -0.08788 0.58787 0.73023
 C83 C -0.09026 0.72962 0.58986
 C84 C 0.09086 0.58119 0.72107
 O85 O 0.92615 0.65166 0.43768
 O86 O 1.06976 0.56997 0.33130
 O87 O 1.05712 0.67705 0.43551
 O88 O 0.93178 0.56103 0.33995
 O89 O 0.92921 0.64229 0.25466
 O90 O 1.07836 0.74566 0.34466
 O91 O 1.06440 0.64739 0.24457
 O92 O 0.93425 0.74319 0.36357
 Cu93 Cu 1.00335 0.61040 0.38982
 Cu94 Cu 0.99908 0.70579 0.29401
 C95 C 0.90903 0.71573 0.42144
 C96 C 1.08770 0.58829 0.26957
 C97 C 1.09008 0.72928 0.41007
 C98 C 0.90881 0.58132 0.27897
 O99 O 0.92546 0.34793 0.56131
 O100 O 1.06846 0.42980 0.66889
 O101 O 1.05654 0.32247 0.56460
 O102 O 0.93050 0.43834 0.65971
 O103 O 0.92796 0.35717 0.74507
 O104 O 1.07730 0.25373 0.65543
 O105 O 1.06306 0.35216 0.75538
 O106 O 0.93280 0.25636 0.63546
 Cu107 Cu 1.00235 0.38911 0.61000
 Cu108 Cu 0.99768 0.29366 0.70554
 C109 C 0.90801 0.28388 0.57738
 C110 C 1.08632 0.41144 0.73065
 C111 C 1.08944 0.27024 0.59014
 C112 C 0.90757 0.41813 0.72074
 O113 O 0.43357 0.06632 0.32850
 O114 O 0.33982 -0.06670 0.43649
 O115 O 0.43526 -0.06756 0.34232
 O116 O 0.32876 0.06849 0.43401
 O117 O 0.24629 0.07620 0.35190
 O118 O 0.35631 -0.06230 0.25439
 O119 O 0.25192 -0.06289 0.35735
 O120 O 0.34875 0.07665 0.24905
 Cu121 Cu 0.38797 0.00669 0.38913
 Cu122 Cu 0.29115 0.00629 0.29364
 C123 C 0.41195 0.09230 0.27103
 C124 C 0.27722 -0.08661 0.41677
 C125 C 0.41600 -0.08644 0.27961
 C126 C 0.26992 0.09329 0.41379
 O127 O 0.66141 -0.06317 0.56118
 O128 O 0.56504 0.06376 0.67442
 O129 O 0.66673 0.07366 0.56795
 O130 O 0.56463 -0.06839 0.65648
 O131 O 0.64304 -0.06176 0.74493
 O132 O 0.75384 0.07499 0.64560
 O133 O 0.65231 0.07818 0.75026
 O134 O 0.74729 -0.06329 0.64260
 Cu135 Cu 0.61108 0.00772 0.61129
 Cu136 Cu 0.70866 0.00660 0.70556
 C137 C 0.72294 -0.08525 0.58213
 C138 C 0.58795 0.09176 0.73032
 C139 C 0.72784 0.09486 0.58551
 C140 C 0.58386 -0.08692 0.71940
 O141 O 0.33978 1.06676 0.56419
 O142 O 0.43363 0.93351 0.67161
 O143 O 0.32811 0.93189 0.56657
 O144 O 0.43516 1.06756 0.65843
 O145 O 0.35638 1.06199 0.74639
 O146 O 0.24621 0.92343 0.64902
 O147 O 0.34921 0.92305 0.75133
 O148 O 0.25199 1.06261 0.64334
 Cu149 Cu 0.38790 0.99326 0.61129
 Cu150 Cu 0.29130 0.99337 0.70705
 C151 C 0.27721 1.08651 0.58398
 C152 C 0.41228 0.90744 0.72910
 C153 C 0.26955 0.90671 0.58699
 C154 C 0.41598 1.08630 0.72120
 O155 O 0.66571 1.06205 0.43920
 O156 O 0.56525 0.93633 0.32766
 O157 O 0.66753 0.92324 0.42903
 O158 O 0.56506 1.06715 0.34266
 O159 O 0.64307 1.06254 0.25396
 O160 O 0.75662 0.92896 0.35379
 O161 O 0.65211 0.92298 0.25095
 O162 O 0.74741 1.06750 0.35452
 Cu163 Cu 0.61320 0.99264 0.38966
 Cu164 Cu 0.70922 0.99563 0.29363
 C165 C 0.72545 1.08690 0.41670
 C166 C 0.58797 0.90871 0.27136
 C167 C 0.73006 0.90591 0.41243
 C168 C 0.58377 1.08659 0.27986
 C169 C 0.85959 0.76076 0.46760
 C170 C 0.86175 0.76815 0.54489
 C171 C 0.81475 0.81779 0.57770
 C172 C 0.76758 0.86228 0.53856
 C173 C 0.77013 0.85787 0.46159
 C174 C 0.81408 0.80658 0.42887
 H175 H 0.81340 0.80293 0.37080
 H176 H 0.81461 0.82187 0.63568
 C177 C 0.14092 0.23961 0.46830
 C178 C 0.13801 0.23205 0.54554
 C179 C 0.18494 0.18262 0.57874
 C180 C 0.23245 0.13830 0.53999
 C181 C 0.23036 0.14228 0.46290
 C182 C 0.18686 0.19391 0.42993
 H183 H 0.18793 0.19778 0.37189
 H184 H 0.18476 0.17851 0.63672
 C185 C 0.14052 0.76037 0.53218
 C186 C 0.13824 0.76764 0.45491
 C187 C 0.18533 0.81699 0.42187
 C188 C 0.23251 0.86154 0.46077
 C189 C 0.23000 0.85773 0.53786
 C190 C 0.18621 0.80623 0.57073
 H191 H 0.18689 0.80255 0.62879
 H192 H 0.18553 0.82084 0.36387
 C193 C 0.85878 0.23897 0.53059
 C194 C 0.86332 0.22999 0.45366
 C195 C 0.81810 0.17894 0.42041
 C196 C 0.76816 0.13611 0.45841
 C197 C 0.76747 0.14305 0.53559
 C198 C 0.81111 0.19477 0.56857
 H199 H 0.80888 0.19979 0.62651
 H200 H 0.82055 0.17387 0.36255
 C201 C 0.46169 0.85915 0.76900
 C202 C 0.53937 0.86187 0.76474
 C203 C 0.57851 0.81750 0.81160
 C204 C 0.54503 0.77044 0.86016
 C205 C 0.46759 0.76484 0.86136
 C206 C 0.42856 0.80985 0.81530
 H207 H 0.37011 0.80714 0.81598
 H208 H 0.63700 0.81972 0.81055
 C209 C 0.46120 0.14054 0.23090
 C210 C 0.53887 0.13791 0.23506
 C211 C 0.57788 0.18265 0.18848
 C212 C 0.54436 0.22971 0.14001
 C213 C 0.46693 0.23505 0.13865
 C214 C 0.42797 0.18984 0.18462
 H215 H 0.36952 0.19242 0.18390
 H216 H 0.63638 0.18069 0.18960
 C217 C 0.53861 0.13977 0.77074
 C218 C 0.46084 0.13719 0.76652
 C219 C 0.42181 0.18188 0.81301
 C220 C 0.45533 0.22915 0.86127
 C221 C 0.53275 0.23453 0.86260
 C222 C 0.57178 0.18919 0.81689
 H223 H 0.63023 0.19187 0.81764
 H224 H 0.36331 0.17989 0.81183
 C225 C 0.53881 0.86044 0.23062
 C226 C 0.46102 0.86285 0.23436
 C227 C 0.42219 0.81828 0.18745
 C228 C 0.45586 0.77124 0.13911
 C229 C 0.53332 0.76599 0.13809
 C230 C 0.57218 0.81131 0.18421
 H231 H 0.63063 0.80882 0.18359
 H232 H 0.36369 0.82020 0.18836
 C233 C 0.76175 0.46474 0.85842
 C234 C 0.76860 0.54175 0.86477
 C235 C 0.81819 0.57705 0.82051
 C236 C 0.86227 0.54124 0.77153
 C237 C 0.85742 0.46455 0.76514
 C238 C 0.80688 0.42874 0.80903
 H239 H 0.80329 0.37082 0.80549
 H240 H 0.82252 0.63496 0.82357
 C241 C 0.23842 0.46528 0.14192
 C242 C 0.23161 0.54227 0.13544
 C243 C 0.18193 0.57760 0.17953
 C244 C 0.13771 0.54179 0.22843
 C245 C 0.14259 0.46514 0.23498
 C246 C 0.19328 0.42934 0.19134
 H247 H 0.19690 0.37143 0.19501
 H248 H 0.17758 0.63551 0.17634
 C249 C 0.76235 0.53517 0.14183
 C250 C 0.76902 0.45816 0.13541
 C251 C 0.81887 0.42271 0.17930
 C252 C 0.86327 0.45839 0.22811
 C253 C 0.85849 0.53505 0.23465
 C254 C 0.80780 0.57101 0.19108
 H255 H 0.80433 0.62893 0.19478
 H256 H 0.82313 0.36480 0.17615
 C257 C 0.23734 0.53496 0.85841
 C258 C 0.23051 0.45793 0.86491
 C259 C 0.18052 0.42250 0.82104
 C260 C 0.13622 0.45815 0.77206
 C261 C 0.14111 0.53485 0.76550
 C262 C 0.19187 0.57078 0.80913
 H263 H 0.19543 0.62869 0.80542
 H264 H 0.17614 0.36460 0.82431
   
