data_POSCAR
  _audit_creation_date              2014-09-24
  _audit_creation_method            'ToBaCCo'
  _symmetry_space_group_name_H-M    'P1'
  _symmetry_Int_Tables_number       1
  _symmetry_cell_setting            triclinic
  loop_
  _symmetry_equiv_pos_as_xyz
 x,y,z
_cell_length_a 50.1312
_cell_length_b 50.1310
_cell_length_c 39.6548
_cell_angle_alpha 89.966100
_cell_angle_beta 89.966600
_cell_angle_gamma 89.960800
loop_
  _atom_site_label
  _atom_site_type_symbol
  _atom_site_fract_x
  _atom_site_fract_y
  _atom_site_fract_z
O1 O 0.02561 0.30531 -0.03201
 O2 O -0.02696 0.30512 0.03350
 O3 O 0.02544 0.30526 0.03366
 O4 O -0.02678 0.30524 -0.03216
 O5 O -0.02642 0.26113 -0.03197
 O6 O 0.02531 0.26114 0.03336
 O7 O -0.02660 0.26101 0.03319
 O8 O 0.02548 0.26119 -0.03182
 Cu9 Cu -0.00068 0.30973 0.00076
 Cu10 Cu -0.00054 0.25671 0.00069
 C11 C 0.03457 0.28317 -0.04267
 C12 C -0.03582 0.28292 0.04409
 C13 C 0.03435 0.28310 0.04431
 C14 C -0.03557 0.28307 -0.04287
 O15 O 0.52629 0.80491 0.46682
 O16 O 0.47402 0.80506 0.53265
 O17 O 0.52641 0.80491 0.53248
 O18 O 0.47390 0.80497 0.46698
 O19 O 0.47408 0.76086 0.46730
 O20 O 0.52612 0.76080 0.53232
 O21 O 0.47420 0.76094 0.53249
 O22 O 0.52600 0.76079 0.46713
 Cu23 Cu 0.50016 0.80945 0.49972
 Cu24 Cu 0.50009 0.75644 0.49982
 C25 C 0.53513 0.78272 0.45617
 C26 C 0.46512 0.78291 0.54337
 C27 C 0.53528 0.78273 0.54316
 C28 C 0.46497 0.78281 0.45639
 O29 O 1.02740 0.69587 0.03264
 O30 O 0.97500 0.69568 -0.03300
 O31 O 1.02739 0.69589 -0.03303
 O32 O 0.97501 0.69560 0.03266
 O33 O 0.97501 0.73972 0.03244
 O34 O 1.02692 0.74000 -0.03277
 O35 O 0.97500 0.73979 -0.03274
 O36 O 1.02693 0.73998 0.03241
 Cu37 Cu 1.00122 0.69127 -0.00019
 Cu38 Cu 1.00094 0.74428 -0.00016
 C39 C 1.03617 0.71807 0.04331
 C40 C 0.96600 0.71781 -0.04365
 C41 C 1.03616 0.71811 -0.04370
 C42 C 0.96601 0.71772 0.04333
 O43 O 0.52609 0.19402 0.53288
 O44 O 0.47381 0.19399 0.46715
 O45 O 0.52620 0.19410 0.46722
 O46 O 0.47371 0.19401 0.53282
 O47 O 0.47387 0.23813 0.53257
 O48 O 0.52588 0.23822 0.46746
 O49 O 0.47397 0.23811 0.46738
 O50 O 0.52577 0.23814 0.53263
 Cu51 Cu 0.49996 0.18954 0.50001
 Cu52 Cu 0.49986 0.24256 0.50001
 C53 C 0.53491 0.21620 0.54355
 C54 C 0.46491 0.21615 0.45647
 C55 C 0.53505 0.21629 0.45657
 C56 C 0.46478 0.21617 0.54347
 O57 O 0.69464 -0.02602 0.03199
 O58 O 0.69475 0.02653 -0.03354
 O59 O 0.69470 -0.02587 -0.03367
 O60 O 0.69461 0.02637 0.03212
 O61 O 0.73873 0.02609 0.03195
 O62 O 0.73882 -0.02566 -0.03335
 O63 O 0.73886 0.02624 -0.03322
 O64 O 0.73876 -0.02581 0.03182
 Cu65 Cu 0.69018 0.00026 -0.00079
 Cu66 Cu 0.74320 0.00021 -0.00070
 C67 C 0.71679 -0.03494 0.04267
 C68 C 0.71694 0.03542 -0.04414
 C69 C 0.71689 -0.03474 -0.04431
 C70 C 0.71676 0.03520 0.04283
 O71 O 0.19482 0.52619 0.46738
 O72 O 0.19490 0.47392 0.53321
 O73 O 0.19488 0.52631 0.53306
 O74 O 0.19492 0.47380 0.46755
 O75 O 0.23904 0.47405 0.46774
 O76 O 0.23900 0.52609 0.53276
 O77 O 0.23902 0.47417 0.53292
 O78 O 0.23894 0.52597 0.46757
 Cu79 Cu 0.19039 0.50005 0.50031
 Cu80 Cu 0.24341 0.50007 0.50024
 C81 C 0.21698 0.53506 0.45666
 C82 C 0.21708 0.46506 0.54387
 C83 C 0.21705 0.53521 0.54367
 C84 C 0.21710 0.46491 0.45689
 O85 O 0.30418 1.02721 0.03305
 O86 O 0.30439 0.97482 -0.03260
 O87 O 0.30424 1.02721 -0.03262
 O88 O 0.30439 0.97482 0.03307
 O89 O 0.26028 0.97494 0.03283
 O90 O 0.26013 1.02685 -0.03237
 O91 O 0.26027 0.97493 -0.03235
 O92 O 0.26007 1.02685 0.03281
 Cu93 Cu 0.30879 1.00103 0.00022
 Cu94 Cu 0.25578 1.00088 0.00023
 C95 C 0.28198 1.03604 0.04371
 C96 C 0.28226 0.96587 -0.04326
 C97 C 0.28205 1.03603 -0.04328
 C98 C 0.28225 0.96588 0.04373
 O99 O 0.80592 0.52580 0.53284
 O100 O 0.80581 0.47352 0.46711
 O101 O 0.80588 0.52590 0.46717
 O102 O 0.80575 0.47341 0.53277
 O103 O 0.76164 0.47378 0.53255
 O104 O 0.76176 0.52578 0.46744
 O105 O 0.76169 0.47388 0.46738
 O106 O 0.76180 0.52569 0.53262
 Cu107 Cu 0.81033 0.49964 0.49997
 Cu108 Cu 0.75731 0.49980 0.50000
 C109 C 0.78377 0.53473 0.54352
 C110 C 0.78362 0.46472 0.45645
 C111 C 0.78373 0.53485 0.45653
 C112 C 0.78356 0.46458 0.54343
 C113 C 0.24209 0.20779 0.19418
 C114 C 0.21893 0.21901 0.18072
 C115 C 0.20777 0.24213 0.19433
 C116 C 0.21994 0.25464 0.22225
 C117 C 0.24350 0.24344 0.23620
 C118 C 0.25466 0.21989 0.22212
 C119 C 0.27800 0.20913 0.23632
 C120 C 0.29020 0.22127 0.26389
 C121 C 0.27949 0.24460 0.27821
 C122 C 0.25593 0.25580 0.26425
 C123 C 0.20923 0.27796 0.23657
 C124 C 0.22143 0.29010 0.26412
 C125 C 0.24477 0.27935 0.27832
 C126 C 0.25735 0.29146 0.30624
 C127 C 0.28049 0.28024 0.31972
 C128 C 0.29164 0.25710 0.30613
 H129 H 0.28701 0.19121 0.22620
 H130 H 0.30813 0.21222 0.27392
 H131 H 0.19128 0.28700 0.22654
 H132 H 0.21242 0.30803 0.27423
 H133 H 0.20941 0.20955 0.15924
 H134 H 0.29001 0.28970 0.34120
 C135 C 0.75774 0.79178 0.19337
 C136 C 0.78095 0.78069 0.17986
 C137 C 0.79223 0.75761 0.19345
 C138 C 0.78013 0.74502 0.22140
 C139 C 0.75651 0.75610 0.23539
 C140 C 0.74524 0.77960 0.22133
 C141 C 0.72185 0.79023 0.23557
 C142 C 0.70971 0.77802 0.26316
 C143 C 0.72054 0.75474 0.27747
 C144 C 0.74415 0.74366 0.26348
 C145 C 0.79095 0.72175 0.23570
 C146 C 0.77881 0.70953 0.26329
 C147 C 0.75543 0.72016 0.27754
 C148 C 0.74293 0.70799 0.30551
 C149 C 0.71973 0.71908 0.31902
 C150 C 0.70845 0.74217 0.30544
 H151 H 0.71274 0.80812 0.22546
 H152 H 0.69174 0.78698 0.27322
 H153 H 0.80893 0.71279 0.22564
 H154 H 0.78792 0.69164 0.27340
 H155 H 0.79041 0.79022 0.15836
 H156 H 0.71027 0.70957 0.34053
 C157 C 0.79193 0.24253 0.19351
 C158 C 0.78074 0.21943 0.17993
 C159 C 0.75763 0.20823 0.19350
 C160 C 0.74511 0.22029 0.22151
 C161 C 0.75629 0.24380 0.23558
 C162 C 0.77982 0.25501 0.22153
 C163 C 0.79054 0.27829 0.23585
 C164 C 0.77839 0.29040 0.26350
 C165 C 0.75509 0.27963 0.27780
 C166 C 0.74392 0.25612 0.26373
 C167 C 0.72181 0.20953 0.23581
 C168 C 0.70966 0.22163 0.26347
 C169 C 0.72039 0.24491 0.27779
 C170 C 0.70828 0.25738 0.30582
 C171 C 0.71946 0.28048 0.31940
 C172 C 0.74257 0.29169 0.30582
 H173 H 0.80845 0.28735 0.22575
 H174 H 0.78742 0.30830 0.27362
 H175 H 0.71278 0.19163 0.22570
 H176 H 0.69175 0.21257 0.27357
 H177 H 0.79021 0.20999 0.15837
 H178 H 0.71000 0.28992 0.34096
 C179 C 0.29154 0.74264 0.30587
 C180 C 0.28038 0.71948 0.31936
 C181 C 0.25726 0.70831 0.30580
 C182 C 0.24471 0.72048 0.27787
 C183 C 0.25586 0.74407 0.26390
 C184 C 0.27939 0.75523 0.27795
 C185 C 0.29009 0.77859 0.26374
 C186 C 0.27790 0.79081 0.23620
 C187 C 0.25459 0.78009 0.22190
 C188 C 0.24345 0.75650 0.23586
 C189 C 0.22141 0.70976 0.26357
 C190 C 0.20923 0.72198 0.23601
 C191 C 0.21993 0.74534 0.22179
 C192 C 0.20779 0.75792 0.19386
 C193 C 0.21894 0.78110 0.18040
 C194 C 0.24205 0.79227 0.19398
 H195 H 0.30800 0.78761 0.27384
 H196 H 0.28690 0.80877 0.22616
 H197 H 0.21241 0.69181 0.27361
 H198 H 0.19133 0.71295 0.22590
 H199 H 0.28987 0.70995 0.34083
 H200 H 0.20945 0.79063 0.15892
 C201 C 0.70801 0.25708 0.69411
 C202 C 0.71924 0.28019 0.68054
 C203 C 0.74235 0.29135 0.69413
 C204 C 0.75480 0.27924 0.72216
 C205 C 0.74358 0.25571 0.73620
 C206 C 0.72007 0.24455 0.72212
 C207 C 0.70930 0.22124 0.73640
 C208 C 0.72140 0.20908 0.76405
 C209 C 0.74468 0.21980 0.77838
 C210 C 0.75589 0.24333 0.76435
 C211 C 0.77808 0.28996 0.73650
 C212 C 0.79017 0.27781 0.76416
 C213 C 0.77940 0.25450 0.77844
 C214 C 0.79145 0.24198 0.80646
 C215 C 0.78024 0.21886 0.82001
 C216 C 0.75715 0.20767 0.80640
 H217 H 0.69140 0.21222 0.72628
 H218 H 0.71235 0.19116 0.77413
 H219 H 0.78714 0.30788 0.72641
 H220 H 0.80807 0.28684 0.77429
 H221 H 0.70981 0.28966 0.65898
 H222 H 0.78968 0.20938 0.84156
 C223 C 0.20800 0.75827 0.80613
 C224 C 0.21919 0.78142 0.81958
 C225 C 0.24232 0.79256 0.80598
 C226 C 0.25486 0.78035 0.77807
 C227 C 0.24367 0.75678 0.76414
 C228 C 0.22012 0.74567 0.77822
 C229 C 0.20938 0.72233 0.76403
 C230 C 0.22154 0.71009 0.73648
 C231 C 0.24487 0.72076 0.72216
 C232 C 0.25606 0.74432 0.73610
 C233 C 0.27819 0.79101 0.76375
 C234 C 0.29036 0.77876 0.73621
 C235 C 0.27962 0.75543 0.72203
 C236 C 0.29175 0.74281 0.69412
 C237 C 0.28055 0.71968 0.68066
 C238 C 0.25740 0.70855 0.69424
 H239 H 0.19144 0.71335 0.77416
 H240 H 0.21250 0.69216 0.72647
 H241 H 0.28723 0.80895 0.77376
 H242 H 0.30830 0.78775 0.72608
 H243 H 0.20970 0.79095 0.84106
 H244 H 0.29004 0.71014 0.65919
 C245 C 0.24216 0.20806 0.80673
 C246 C 0.21907 0.21934 0.82029
 C247 C 0.20795 0.24250 0.80671
 C248 C 0.22011 0.25497 0.77871
 C249 C 0.24362 0.24369 0.76468
 C250 C 0.25473 0.22011 0.77873
 C251 C 0.27800 0.20928 0.76444
 C252 C 0.29020 0.22137 0.73680
 C253 C 0.27954 0.24472 0.72250
 C254 C 0.25604 0.25601 0.73655
 C255 C 0.20946 0.27833 0.76441
 C256 C 0.22166 0.29043 0.73679
 C257 C 0.24494 0.27959 0.72250
 C258 C 0.25751 0.29165 0.69451
 C259 C 0.28059 0.28036 0.68093
 C260 C 0.29169 0.25718 0.69449
 H261 H 0.28698 0.19132 0.77455
 H262 H 0.30809 0.21226 0.72670
 H263 H 0.19157 0.28743 0.77450
 H264 H 0.21269 0.30838 0.72669
 H265 H 0.20956 0.20991 0.84182
 H266 H 0.29009 0.28980 0.65939
 C267 C 0.74308 0.70808 0.69380
 C268 C 0.71992 0.71922 0.68026
 C269 C 0.70872 0.74237 0.69376
 C270 C 0.72086 0.75495 0.72165
 C271 C 0.74444 0.74381 0.73566
 C272 C 0.75563 0.72025 0.72169
 C273 C 0.77898 0.70955 0.73594
 C274 C 0.79117 0.72177 0.76346
 C275 C 0.78043 0.74510 0.77769
 C276 C 0.75685 0.75624 0.76368
 C277 C 0.71011 0.77828 0.73589
 C278 C 0.72230 0.79049 0.76341
 C279 C 0.74565 0.77980 0.77766
 C280 C 0.75820 0.79197 0.80554
 C281 C 0.78136 0.78083 0.81908
 C282 C 0.79257 0.75769 0.80558
 H283 H 0.78802 0.69161 0.72589
 H284 H 0.80912 0.71276 0.77353
 H285 H 0.69216 0.78728 0.72582
 H286 H 0.71325 0.80842 0.77346
 H287 H 0.71043 0.70969 0.65881
 H288 H 0.79085 0.79036 0.84053
 C289 C 0.27459 0.09848 0.10664
 C290 C 0.29278 0.10072 0.13769
 C291 C 0.28773 0.12273 0.15701
 C292 C 0.26501 0.14022 0.14329
 C293 C 0.24106 0.12137 0.13994
 C294 C 0.24608 0.09947 0.12071
 C295 C 0.27815 0.12493 0.08768
 C296 C 0.27313 0.14685 0.10692
 C297 C 0.27920 0.07507 0.08521
 C298 C 0.28130 0.05638 0.06627
 C299 C 0.25879 0.16402 0.16332
 C300 C 0.25204 0.18386 0.17824
 H301 H 0.30822 0.08635 0.14392
 H302 H 0.29884 0.12722 0.17980
 H303 H 0.22183 0.12488 0.15174
 H304 H 0.23115 0.08424 0.11606
 H305 H 0.28421 0.12633 0.06144
 H306 H 0.27488 0.16701 0.09716
 C307 C 0.77616 0.59845 0.60734
 C308 C 0.78988 0.59802 0.64198
 C309 C 0.78468 0.62011 0.66106
 C310 C 0.76630 0.64036 0.64353
 C311 C 0.74127 0.62449 0.63400
 C312 C 0.74644 0.60251 0.61502
 C313 C 0.78522 0.62463 0.59084
 C314 C 0.78004 0.64665 0.60986
 C315 C 0.78093 0.57496 0.58615
 C316 C 0.78315 0.55621 0.56735
 C317 C 0.75992 0.66423 0.66329
 C318 C 0.75308 0.68412 0.67802
 H319 H 0.80254 0.58186 0.65070
 H320 H 0.79288 0.62290 0.68614
 H321 H 0.72119 0.63000 0.64158
 H322 H 0.73079 0.58921 0.60636
 H323 H 0.79496 0.62577 0.56642
 H324 H 0.78533 0.66664 0.60173
 C325 C 0.72447 0.90125 0.10649
 C326 C 0.73620 0.87789 0.08637
 C327 C 0.74140 0.85594 0.10542
 C328 C 0.73439 0.85939 0.14282
 C329 C 0.70488 0.86770 0.14317
 C330 C 0.69965 0.88977 0.12401
 C331 C 0.74453 0.90631 0.13499
 C332 C 0.74975 0.88432 0.15409
 C333 C 0.71967 0.92473 0.08525
 C334 C 0.71744 0.94351 0.06645
 C335 C 0.74080 0.83555 0.16269
 C336 C 0.74768 0.81570 0.17750
 H337 H 0.74003 0.87850 0.05942
 H338 H 0.74969 0.83778 0.09478
 H339 H 0.68952 0.85725 0.15722
 H340 H 0.67980 0.89822 0.12164
 H341 H 0.75375 0.92552 0.13985
 H342 H 0.76343 0.88469 0.17530
 C343 C 0.22474 0.40131 0.60777
 C344 C 0.23297 0.40782 0.64414
 C345 C 0.23812 0.38577 0.66324
 C346 C 0.23452 0.35942 0.64406
 C347 C 0.25251 0.36193 0.61293
 C348 C 0.24739 0.38389 0.59391
 C349 C 0.20077 0.38243 0.61113
 C350 C 0.20592 0.36036 0.63025
 C351 C 0.22000 0.42481 0.58654
 C352 C 0.21777 0.44357 0.56772
 C353 C 0.24084 0.33554 0.66389
 C354 C 0.24761 0.31564 0.67866
 H355 H 0.23451 0.42794 0.65405
 H356 H 0.24406 0.38699 0.68952
 H357 H 0.26797 0.34765 0.60636
 H358 H 0.25846 0.38840 0.57106
 H359 H 0.18147 0.38610 0.59963
 H360 H 0.19103 0.34513 0.63514
 C361 C 0.90149 0.27540 0.10664
 C362 C 0.89302 0.29897 0.12898
 C363 C 0.87094 0.29382 0.14815
 C364 C 0.85962 0.26564 0.14299
 C365 C 0.88304 0.24674 0.15009
 C366 C 0.90504 0.25186 0.13100
 C367 C 0.87663 0.26851 0.08585
 C368 C 0.85467 0.26339 0.10492
 C369 C 0.92499 0.28010 0.08538
 C370 C 0.94376 0.28224 0.06654
 C371 C 0.83575 0.25933 0.16285
 C372 C 0.81588 0.25251 0.17766
 H373 H 0.90343 0.31794 0.12971
 H374 H 0.86242 0.30838 0.16531
 H375 H 0.88245 0.23079 0.16860
 H376 H 0.92328 0.24030 0.13317
 H377 H 0.87629 0.26779 0.05849
 H378 H 0.83552 0.25829 0.09388
 C379 C 0.40138 0.77547 0.60731
 C380 C 0.40392 0.75034 0.62921
 C381 C 0.38192 0.74525 0.64828
 C382 C 0.35949 0.76576 0.64362
 C383 C 0.35395 0.76613 0.60558
 C384 C 0.37593 0.77123 0.58653
 C385 C 0.39450 0.79800 0.63209
 C386 C 0.37240 0.79288 0.65124
 C387 C 0.42488 0.78015 0.58606
 C388 C 0.44364 0.78231 0.56723
 C389 C 0.33561 0.75948 0.66346
 C390 C 0.31572 0.75271 0.67826
 H391 H 0.42152 0.73771 0.62979
 H392 H 0.38067 0.72825 0.66519
 H393 H 0.33442 0.76277 0.59455
 H394 H 0.37522 0.77223 0.55919
 H395 H 0.40593 0.81628 0.63441
 H396 H 0.36490 0.80677 0.66997
 C397 C 0.09858 0.72545 0.10626
 C398 C 0.11760 0.70153 0.10927
 C399 C 0.13956 0.70656 0.12860
 C400 C 0.14028 0.73500 0.14296
 C401 C 0.11382 0.73824 0.16207
 C402 C 0.09188 0.73322 0.14275
 C403 C 0.11593 0.74834 0.09292
 C404 C 0.13778 0.75334 0.11215
 C405 C 0.07519 0.72084 0.08482
 C406 C 0.05651 0.71874 0.06586
 C407 C 0.16405 0.74121 0.16301
 C408 C 0.18388 0.74796 0.17794
 H409 H 0.11410 0.68235 0.09740
 H410 H 0.15487 0.69169 0.13329
 H411 H 0.11245 0.74387 0.18844
 H412 H 0.07171 0.73454 0.15258
 H413 H 0.11144 0.75965 0.07026
 H414 H 0.15198 0.76894 0.10594
 C415 C 0.59859 0.22394 0.60740
 C416 C 0.59315 0.24287 0.63703
 C417 C 0.61513 0.24809 0.65609
 C418 C 0.64042 0.23387 0.64366
 C419 C 0.64333 0.24224 0.60663
 C420 C 0.62140 0.23703 0.58761
 C421 C 0.61097 0.19891 0.62341
 C422 C 0.63302 0.20415 0.64252
 C423 C 0.57513 0.21913 0.58619
 C424 C 0.55639 0.21688 0.56738
 C425 C 0.66424 0.24028 0.66347
 C426 C 0.68409 0.24712 0.67825
 H427 H 0.57370 0.25134 0.64263
 H428 H 0.61453 0.26104 0.67802
 H429 H 0.66114 0.25142 0.59620
 H430 H 0.62044 0.24175 0.56091
 H431 H 0.60311 0.17892 0.62009
 H432 H 0.64406 0.18865 0.65560
 C433 C 0.72437 0.09808 0.89326
 C434 C 0.72205 0.12440 0.91280
 C435 C 0.72714 0.14638 0.89371
 C436 C 0.73407 0.13997 0.85690
 C437 C 0.71052 0.12329 0.84391
 C438 C 0.70540 0.10120 0.86308
 C439 C 0.75249 0.09844 0.87796
 C440 C 0.75758 0.12042 0.85888
 C441 C 0.71970 0.07459 0.91454
 C442 C 0.71758 0.05583 0.93339
 C443 C 0.74036 0.16384 0.83704
 C444 C 0.74717 0.18372 0.82224
 H445 H 0.71676 0.12566 0.93931
 H446 H 0.72621 0.16647 0.90387
 H447 H 0.69892 0.12836 0.82170
 H448 H 0.68942 0.08734 0.85730
 H449 H 0.76712 0.08273 0.88169
 H450 H 0.77656 0.12352 0.84629
 C451 C 0.22450 0.59874 0.39264
 C452 C 0.22263 0.59359 0.35453
 C453 C 0.22775 0.61564 0.33537
 C454 C 0.23422 0.64060 0.35626
 C455 C 0.25753 0.63235 0.37902
 C456 C 0.25244 0.61041 0.39808
 C457 C 0.20527 0.62201 0.39936
 C458 C 0.21039 0.64403 0.38022
 C459 C 0.21979 0.57527 0.41392
 C460 C 0.21761 0.55653 0.43278
 C461 C 0.24051 0.66446 0.33639
 C462 C 0.24730 0.68434 0.32161
 H463 H 0.21766 0.57438 0.34359
 H464 H 0.22716 0.61534 0.30801
 H465 H 0.27647 0.64283 0.38005
 H466 H 0.26701 0.60212 0.41543
 H467 H 0.18903 0.62121 0.41745
 H468 H 0.19852 0.66211 0.38190
 C469 C 0.27489 0.90213 0.89281
 C470 C 0.26498 0.90870 0.85713
 C471 C 0.25993 0.88668 0.83798
 C472 C 0.26529 0.86028 0.85642
 C473 C 0.24848 0.86178 0.88870
 C474 C 0.25352 0.88371 0.90777
 C475 C 0.29941 0.88420 0.88760
 C476 C 0.29435 0.86215 0.86843
 C477 C 0.27953 0.92561 0.91409
 C478 C 0.28167 0.94437 0.93292
 C479 C 0.25905 0.83642 0.83654
 C480 C 0.25229 0.81653 0.82175
 H481 H 0.26228 0.92886 0.84769
 H482 H 0.25290 0.88797 0.81214
 H483 H 0.23387 0.84686 0.89598
 H484 H 0.24321 0.88756 0.93137
 H485 H 0.31899 0.88847 0.89793
 H486 H 0.30960 0.84754 0.86233
 C487 C 0.77579 0.40106 0.39258
 C488 C 0.76743 0.40766 0.35627
 C489 C 0.76219 0.38566 0.33717
 C490 C 0.76583 0.35926 0.35630
 C491 C 0.74797 0.36175 0.38754
 C492 C 0.75319 0.38366 0.40656
 C493 C 0.79974 0.38213 0.38904
 C494 C 0.79449 0.36011 0.36993
 C495 C 0.78063 0.42451 0.41380
 C496 C 0.78291 0.44325 0.43261
 C497 C 0.75941 0.33544 0.33647
 C498 C 0.75255 0.31561 0.32168
 H499 H 0.76587 0.42781 0.34641
 H500 H 0.75613 0.38694 0.31094
 H501 H 0.73252 0.34750 0.39419
 H502 H 0.74222 0.38816 0.42949
 H503 H 0.81909 0.38574 0.40042
 H504 H 0.80934 0.34485 0.36492
 C505 C 0.09841 0.27560 0.89352
 C506 C 0.09223 0.27177 0.85590
 C507 C 0.11427 0.26660 0.83678
 C508 C 0.14029 0.26577 0.85719
 C509 C 0.13532 0.24508 0.88500
 C510 C 0.11337 0.25023 0.90403
 C511 C 0.11942 0.29787 0.89472
 C512 C 0.14146 0.29269 0.87560
 C513 C 0.07491 0.28035 0.91476
 C514 C 0.05612 0.28256 0.93355
 C515 C 0.16415 0.25941 0.83734
 C516 C 0.18401 0.25256 0.82254
 H517 H 0.07233 0.27310 0.84523
 H518 H 0.11328 0.26350 0.80972
 H519 H 0.14797 0.22783 0.88937
 H520 H 0.10725 0.23738 0.92469
 H521 H 0.11714 0.31610 0.90920
 H522 H 0.15807 0.30649 0.87368
 C523 C 0.59883 0.77500 0.39221
 C524 C 0.59231 0.76717 0.35570
 C525 C 0.61435 0.76201 0.33658
 C526 C 0.64070 0.76518 0.35589
 C527 C 0.63798 0.74692 0.38674
 C528 C 0.61603 0.75207 0.40578
 C529 C 0.61793 0.79883 0.38926
 C530 C 0.63999 0.79366 0.37013
 C531 C 0.57535 0.77976 0.41346
 C532 C 0.55660 0.78201 0.43230
 C533 C 0.66457 0.75886 0.33604
 C534 C 0.68446 0.75207 0.32126
 H535 H 0.57219 0.76591 0.34572
 H536 H 0.61312 0.75632 0.31022
 H537 H 0.65210 0.73128 0.39311
 H538 H 0.61138 0.74082 0.42844
 H539 H 0.61441 0.81805 0.40104
 H540 H 0.65536 0.80846 0.36551
 C541 C 0.90222 0.72517 0.89246
 C542 C 0.89335 0.70128 0.87096
 C543 C 0.87126 0.70635 0.85178
 C544 C 0.86033 0.73479 0.85610
 C545 C 0.88398 0.75320 0.84820
 C546 C 0.90598 0.74815 0.86730
 C547 C 0.87753 0.73286 0.91318
 C548 C 0.85556 0.73790 0.89411
 C549 C 0.92572 0.72053 0.91372
 C550 C 0.94448 0.71840 0.93254
 C551 C 0.83646 0.74103 0.83622
 C552 C 0.81656 0.74777 0.82141
 H553 H 0.90349 0.68215 0.87077
 H554 H 0.86249 0.69157 0.83517
 H555 H 0.88352 0.76877 0.82917
 H556 H 0.92436 0.75939 0.86463
 H557 H 0.87730 0.73415 0.94051
 H558 H 0.83653 0.74351 0.90512
 C559 C 0.40120 0.22385 0.39264
 C560 C 0.39444 0.20153 0.36751
 C561 C 0.37236 0.20678 0.34841
 C562 C 0.35933 0.23379 0.35642
 C563 C 0.38169 0.25440 0.35210
 C564 C 0.40368 0.24918 0.37112
 C565 C 0.37570 0.22783 0.41345
 C566 C 0.35373 0.23305 0.39445
 C567 C 0.42468 0.21905 0.41384
 C568 C 0.44343 0.21681 0.43264
 C569 C 0.33547 0.24021 0.33664
 C570 C 0.31560 0.24708 0.32191
 H571 H 0.40595 0.18330 0.36494
 H572 H 0.36494 0.19304 0.32947
 H573 H 0.38041 0.27155 0.33545
 H574 H 0.42122 0.26186 0.37075
 H575 H 0.37494 0.22657 0.44078
 H576 H 0.33416 0.23626 0.40550
 C577 C 0.72476 0.90153 0.89193
 C578 C 0.74274 0.90719 0.86141
 C579 C 0.74802 0.88517 0.84240
 C580 C 0.73482 0.85965 0.85579
 C581 C 0.70496 0.86632 0.85816
 C582 C 0.69965 0.88840 0.87721
 C583 C 0.73897 0.87922 0.91141
 C584 C 0.74424 0.85726 0.89245
 C585 C 0.71989 0.92502 0.91308
 C586 C 0.71760 0.94378 0.93186
 C587 C 0.74129 0.83579 0.83604
 C588 C 0.74818 0.81592 0.82133
 H589 H 0.75053 0.92678 0.85518
 H590 H 0.76035 0.88590 0.81990
 H591 H 0.68941 0.85479 0.84593
 H592 H 0.67956 0.89579 0.88132
 H593 H 0.74438 0.88053 0.93787
 H594 H 0.75417 0.83978 0.90269
 C595 C 0.22469 0.40107 0.39311
 C596 C 0.22624 0.40693 0.35514
 C597 C 0.23134 0.38487 0.33601
 C598 C 0.23438 0.35919 0.35679
 C599 C 0.20858 0.35711 0.37751
 C600 C 0.20348 0.37915 0.39663
 C601 C 0.25118 0.38734 0.40166
 C602 C 0.25627 0.36539 0.38263
 C603 C 0.21998 0.42458 0.41435
 C604 C 0.21777 0.44336 0.43313
 C605 C 0.24065 0.33531 0.33693
 C606 C 0.24742 0.31543 0.32211
 H607 H 0.22348 0.42661 0.34424
 H608 H 0.23296 0.38565 0.30873
 H609 H 0.19544 0.33991 0.37711
 H610 H 0.18597 0.38084 0.41261
 H611 H 0.26482 0.39427 0.42104
 H612 H 0.27425 0.35354 0.38571
 C613 C 0.27465 0.09856 0.89392
 C614 C 0.26796 0.09204 0.85705
 C615 C 0.26290 0.11405 0.83784
 C616 C 0.26505 0.14038 0.85742
 C617 C 0.29312 0.14015 0.87289
 C618 C 0.29818 0.11812 0.89212
 C619 C 0.25105 0.11528 0.90657
 C620 C 0.24601 0.13719 0.88744
 C621 C 0.27929 0.07511 0.91527
 C622 C 0.28139 0.05639 0.93418
 C623 C 0.25881 0.16422 0.83747
 C624 C 0.25207 0.18409 0.82262
 H625 H 0.26735 0.07194 0.84692
 H626 H 0.25796 0.11282 0.81123
 H627 H 0.30774 0.15581 0.86900
 H628 H 0.31714 0.11492 0.90471
 H629 H 0.23928 0.11032 0.92871
 H630 H 0.22994 0.15099 0.89320
 C631 C 0.77610 0.59859 0.39256
 C632 C 0.74648 0.60624 0.39147
 C633 C 0.74132 0.62816 0.37238
 C634 C 0.76624 0.64041 0.35614
 C635 C 0.77917 0.61750 0.33626
 C636 C 0.78437 0.59545 0.35545
 C637 C 0.79050 0.62381 0.40477
 C638 C 0.78532 0.64580 0.38562
 C639 C 0.78088 0.57513 0.41386
 C640 C 0.78310 0.55637 0.43270
 C641 C 0.75987 0.66424 0.33624
 C642 C 0.75299 0.68408 0.32140
 H643 H 0.73088 0.59534 0.40454
 H644 H 0.72129 0.63602 0.36911
 H645 H 0.78387 0.61851 0.30957
 H646 H 0.79352 0.57758 0.34521
 H647 H 0.80370 0.62433 0.42647
 H648 H 0.79407 0.66515 0.39091
 C649 C 0.09863 0.72563 0.89346
 C650 C 0.11962 0.70331 0.89464
 C651 C 0.14161 0.70841 0.87540
 C652 C 0.14041 0.73530 0.85690
 C653 C 0.13555 0.75605 0.88465
 C654 C 0.11365 0.75098 0.90381
 C655 C 0.09234 0.72942 0.85586
 C656 C 0.11434 0.73452 0.83661
 C657 C 0.07521 0.72096 0.91483
 C658 C 0.05650 0.71881 0.93375
 C659 C 0.16422 0.74157 0.83693
 C660 C 0.18406 0.74834 0.82206
 H661 H 0.11736 0.68510 0.90919
 H662 H 0.15820 0.69456 0.87345
 H663 H 0.14823 0.77327 0.88890
 H664 H 0.10761 0.76386 0.92445
 H665 H 0.07241 0.72812 0.84528
 H666 H 0.11326 0.73758 0.80954
 C667 C 0.59884 0.22412 0.39273
 C668 C 0.59226 0.23506 0.35752
 C669 C 0.61427 0.24030 0.33840
 C670 C 0.64067 0.23408 0.35638
 C671 C 0.63842 0.20474 0.36722
 C672 C 0.61639 0.19950 0.38637
 C673 C 0.61763 0.24483 0.40838
 C674 C 0.63955 0.25004 0.38933
 C675 C 0.57536 0.21929 0.41398
 C676 C 0.55659 0.21701 0.43277
 C677 C 0.66450 0.24050 0.33651
 C678 C 0.68435 0.24736 0.32169
 H679 H 0.57211 0.23830 0.34838
 H680 H 0.61297 0.24802 0.31287
 H681 H 0.65279 0.18946 0.36039
 H682 H 0.61187 0.17972 0.39595
 H683 H 0.61404 0.25455 0.43243
 H684 H 0.65472 0.26424 0.39707
 C685 C 0.90080 0.27528 0.89323
 C686 C 0.90446 0.25171 0.86898
 C687 C 0.88250 0.24645 0.84992
 C688 C 0.85900 0.26527 0.85695
 C689 C 0.87020 0.29349 0.85165
 C690 C 0.89225 0.29876 0.87077
 C691 C 0.87596 0.26832 0.91406
 C692 C 0.85403 0.26308 0.89503
 C693 C 0.92425 0.28012 0.91445
 C694 C 0.94297 0.28239 0.93327
 C695 C 0.83518 0.25883 0.83713
 C696 C 0.81535 0.25196 0.82234
 H697 H 0.92275 0.24021 0.86686
 H698 H 0.88198 0.23046 0.83149
 H699 H 0.86163 0.30798 0.83442
 H700 H 0.90257 0.31778 0.86995
 H701 H 0.87560 0.26766 0.94143
 H702 H 0.83490 0.25792 0.90610
 C703 C 0.40113 0.77531 0.39264
 C704 C 0.40280 0.74906 0.37285
 C705 C 0.38081 0.74397 0.35381
 C706 C 0.35924 0.76562 0.35635
 C707 C 0.37343 0.79172 0.34682
 C708 C 0.39552 0.79683 0.36595
 C709 C 0.37529 0.77322 0.41322
 C710 C 0.35331 0.76813 0.39418
 C711 C 0.42464 0.77999 0.41386
 C712 C 0.44342 0.78218 0.43263
 C713 C 0.33537 0.75934 0.33652
 C714 C 0.31550 0.75257 0.32172
 H715 H 0.41982 0.73568 0.37364
 H716 H 0.37901 0.72623 0.33829
 H717 H 0.36674 0.80496 0.32687
 H718 H 0.40776 0.81446 0.36240
 H719 H 0.37432 0.77562 0.44041
 H720 H 0.33353 0.76617 0.40506
 C721 C 0.27477 0.90205 0.10752
 C722 C 0.27648 0.90714 0.14565
 C723 C 0.27136 0.88504 0.16473
 C724 C 0.26505 0.86009 0.14372
 C725 C 0.28898 0.85678 0.11990
 C726 C 0.29409 0.87886 0.10084
 C727 C 0.24688 0.89031 0.10188
 C728 C 0.24179 0.86832 0.12086
 C729 C 0.27947 0.92558 0.08634
 C730 C 0.28165 0.94436 0.06755
 C731 C 0.25876 0.83619 0.16350
 C732 C 0.25198 0.81627 0.17822
 H733 H 0.28135 0.92635 0.15667
 H734 H 0.27185 0.88530 0.19209
 H735 H 0.30091 0.83875 0.11823
 H736 H 0.31040 0.87974 0.08286
 H737 H 0.23235 0.89858 0.08447
 H738 H 0.22290 0.85777 0.11969
 C739 C 0.77568 0.40081 0.60729
 C740 C 0.78557 0.37468 0.59144
 C741 C 0.78032 0.35269 0.61052
 C742 C 0.76570 0.35897 0.64360
 C743 C 0.74063 0.37438 0.63295
 C744 C 0.74587 0.39632 0.61391
 C745 C 0.78857 0.40167 0.64242
 C746 C 0.78331 0.37961 0.66156
 C747 C 0.78053 0.42428 0.58604
 C748 C 0.78283 0.44305 0.56724
 C749 C 0.75926 0.33512 0.66344
 C750 C 0.75238 0.31528 0.67825
 H751 H 0.79588 0.37355 0.56740
 H752 H 0.78614 0.33274 0.60282
 H753 H 0.72048 0.36859 0.63985
 H754 H 0.73020 0.40931 0.60452
 H755 H 0.80075 0.41808 0.65141
 H756 H 0.79098 0.37711 0.68696
 C757 C 0.72445 0.09885 0.10673
 C758 C 0.73332 0.09225 0.14285
 C759 C 0.73855 0.11425 0.16195
 C760 C 0.73438 0.14066 0.14302
 C761 C 0.70558 0.13953 0.12993
 C762 C 0.70034 0.11750 0.11081
 C763 C 0.74669 0.11654 0.09240
 C764 C 0.75190 0.13846 0.11142
 C765 C 0.71964 0.07540 0.08551
 C766 C 0.71741 0.05667 0.06669
 C767 C 0.74079 0.16448 0.16285
 C768 C 0.74764 0.18432 0.17763
 H769 H 0.73522 0.07209 0.15259
 H770 H 0.74492 0.11296 0.18805
 H771 H 0.69062 0.15461 0.13529
 H772 H 0.68090 0.11371 0.09978
 H773 H 0.75744 0.11224 0.06925
 H774 H 0.76710 0.15290 0.10455
 C775 C 0.22459 0.59900 0.60749
 C776 C 0.24741 0.59508 0.63281
 C777 C 0.25252 0.61707 0.65189
 C778 C 0.23432 0.64086 0.64382
 C779 C 0.20579 0.63017 0.64797
 C780 C 0.20065 0.60810 0.62882
 C781 C 0.23255 0.62359 0.58677
 C782 C 0.23766 0.64554 0.60582
 C783 C 0.21989 0.57551 0.58625
 C784 C 0.21769 0.55675 0.56745
 C785 C 0.24062 0.66471 0.66368
 C786 C 0.24742 0.68459 0.67846
 H787 H 0.25851 0.57661 0.63560
 H788 H 0.26800 0.61742 0.67102
 H789 H 0.19098 0.63909 0.66447
 H790 H 0.18145 0.59812 0.62890
 H791 H 0.23398 0.62378 0.55944
 H792 H 0.24346 0.66451 0.59481
 C793 C 0.90212 0.72507 0.10705
 C794 C 0.89340 0.70133 0.12897
 C795 C 0.87126 0.70644 0.14803
 C796 C 0.86012 0.73474 0.14320
 C797 C 0.85537 0.73742 0.10513
 C798 C 0.87740 0.73234 0.08617
 C799 C 0.90567 0.74833 0.13178
 C800 C 0.88361 0.75341 0.15077
 C801 C 0.92567 0.72041 0.08589
 C802 C 0.94447 0.71827 0.06712
 C803 C 0.83619 0.74101 0.16295
 C804 C 0.81626 0.74775 0.17767
 H805 H 0.90370 0.68228 0.12951
 H806 H 0.86257 0.69176 0.16491
 H807 H 0.83631 0.74277 0.09402
 H808 H 0.87720 0.73335 0.05881
 H809 H 0.92396 0.75974 0.13426
 H810 H 0.88301 0.76918 0.16952
 C811 C 0.40105 0.22386 0.60744
 C812 C 0.40179 0.25119 0.62480
 C813 C 0.37985 0.25640 0.64391
 C814 C 0.35925 0.23379 0.64386
 C815 C 0.37471 0.20891 0.65531
 C816 C 0.39675 0.20367 0.63610
 C817 C 0.37488 0.22370 0.58739
 C818 C 0.35294 0.22891 0.60651
 C819 C 0.42451 0.21906 0.58614
 C820 C 0.44326 0.21682 0.56730
 C821 C 0.33543 0.24021 0.66376
 C822 C 0.31560 0.24710 0.67860
 H823 H 0.41819 0.26521 0.62239
 H824 H 0.37746 0.27488 0.65786
 H825 H 0.36888 0.19654 0.67654
 H826 H 0.40982 0.18681 0.64088
 H827 H 0.37367 0.21974 0.56052
 H828 H 0.33295 0.22941 0.59600
 C829 C 0.09809 0.27536 0.10808
 C830 C 0.12300 0.29069 0.09661
 C831 C 0.14505 0.28546 0.11560
 C832 C 0.14002 0.26542 0.14419
 C833 C 0.12840 0.24070 0.12680
 C834 C 0.10642 0.24591 0.10787
 C835 C 0.09466 0.28247 0.14551
 C836 C 0.11676 0.27723 0.16455
 C837 C 0.07458 0.28018 0.08693
 C838 C 0.05582 0.28243 0.06815
 C839 C 0.16390 0.25901 0.16390
 C840 C 0.18380 0.25214 0.17859
 H841 H 0.12327 0.30451 0.07553
 H842 H 0.16421 0.29480 0.11079
 H843 H 0.13671 0.22078 0.12919
 H844 H 0.09592 0.23045 0.09407
 H845 H 0.07655 0.29091 0.15609
 H846 H 0.11759 0.28118 0.19144
 C847 C 0.59909 0.77510 0.60695
 C848 C 0.62382 0.79098 0.59605
 C849 C 0.64584 0.78587 0.61515
 C850 C 0.64098 0.76537 0.64326
 C851 C 0.62987 0.74070 0.62524
 C852 C 0.60792 0.74580 0.60621
 C853 C 0.59534 0.78165 0.64450
 C854 C 0.61741 0.77653 0.66363
 C855 C 0.57560 0.77982 0.58571
 C856 C 0.55682 0.78204 0.56693
 C857 C 0.66486 0.75908 0.66311
 C858 C 0.68474 0.75231 0.67791
 H859 H 0.62398 0.80508 0.57526
 H860 H 0.66487 0.79559 0.61072
 H861 H 0.63850 0.72089 0.62729
 H862 H 0.59776 0.73035 0.59197
 H863 H 0.57703 0.78965 0.65508
 H864 H 0.61802 0.78014 0.69061
   
