data_POSCAR
  _audit_creation_date              2014-09-24
  _audit_creation_method            'ToBaCCo'
  _symmetry_space_group_name_H-M    'P1'
  _symmetry_Int_Tables_number       1
  _symmetry_cell_setting            triclinic
  loop_
  _symmetry_equiv_pos_as_xyz
 x,y,z
_cell_length_a 28.8332
_cell_length_b 28.8238
_cell_length_c 28.8207
_cell_angle_alpha 89.983600
_cell_angle_beta 90.005400
_cell_angle_gamma 90.055400
loop_
  _atom_site_label
  _atom_site_type_symbol
  _atom_site_fract_x
  _atom_site_fract_y
  _atom_site_fract_z
C1 C 0.36109 0.97161 -0.47682
 C2 C 0.36113 0.97087 -0.52438
 C3 C 0.40271 0.99068 -0.53851
 N4 N 0.42842 1.00260 -0.50116
 C5 C 0.40291 0.99110 -0.46349
 C6 C 0.41576 0.99964 -0.58505
 C7 C 0.46269 1.00887 -0.59683
 C8 C 0.47708 1.03235 -0.63634
 C9 C 0.52468 1.03179 -0.63624
 C10 C 0.53829 1.00808 -0.59662
 N11 N 0.50027 0.99489 -0.57229
 C12 C 0.58493 0.99804 -0.58450
 C13 C 0.59763 0.98990 -0.53770
 C14 C 0.63901 0.97025 -0.52286
 C15 C 0.63879 0.97209 -0.47534
 C16 C 0.59694 0.99188 -0.46271
 N17 N 0.57173 1.00265 -0.50078
 C18 C 0.58365 1.00228 -0.41681
 C19 C 0.53733 1.01223 -0.40463
 C20 C 0.52321 1.03118 -0.36273
 C21 C 0.47549 1.03062 -0.36282
 C22 C 0.46194 1.01144 -0.40481
 N23 N 0.49980 1.00055 -0.43015
 C24 C 0.41589 1.00069 -0.41731
 H25 H 0.33355 0.95903 -0.45459
 H26 H 0.33366 0.95721 -0.54603
 H27 H 0.50003 0.98094 -0.46048
 H28 H 0.45552 1.04856 -0.66244
 H29 H 0.54679 1.04749 -0.66222
 H30 H 0.66653 0.95599 -0.54400
 H31 H 0.66611 0.95992 -0.45264
 H32 H 0.45332 1.04225 -0.33485
 H33 H 0.49999 0.97353 -0.54309
 H34 H 0.54500 1.04329 -0.33464
 C35 C -0.64175 1.52309 0.02653
 C36 C -0.64180 1.47559 0.02601
 C37 C -0.59861 1.46188 0.00979
 N38 N -0.57271 1.49970 -0.00063
 C39 C -0.59908 1.53720 0.00933
 C40 C -0.58532 1.41549 0.00010
 C41 C -0.53895 1.40312 -0.01088
 C42 C -0.52467 1.36016 -0.02752
 C43 C -0.47702 1.36043 -0.02770
 C44 C -0.46326 1.40317 -0.01057
 N45 N -0.50113 1.42896 -0.00050
 C46 C -0.41682 1.41585 -0.00115
 C47 C -0.40311 1.46189 0.00826
 C48 C -0.35957 1.47513 0.02381
 C49 C -0.35961 1.52270 0.02549
 C50 C -0.40315 1.53681 0.01084
 N51 N -0.42965 1.49964 0.00028
 C52 C -0.41676 1.58321 0.00375
 C53 C -0.46309 1.59591 -0.00567
 C54 C -0.47630 1.63747 -0.02581
 C55 C -0.52390 1.63755 -0.02696
 C56 C -0.53863 1.59635 -0.00665
 N57 N -0.50119 1.57089 0.00578
 C58 C -0.58569 1.58393 0.00124
 H59 H -0.67017 1.54469 0.03805
 H60 H -0.67079 1.45397 0.03596
 H61 H -0.50159 1.54059 0.02545
 H62 H -0.54598 1.33082 -0.03711
 H63 H -0.45504 1.33181 -0.03799
 H64 H -0.33070 1.45287 0.03271
 H65 H -0.33076 1.54439 0.03585
 H66 H -0.54521 1.66493 -0.04126
 H67 H -0.50119 1.45977 0.01822
 H68 H -0.45392 1.66477 -0.03866
 C69 C 0.03136 0.52503 0.36233
 C70 C 0.03265 0.47747 0.36188
 C71 C 0.01196 0.46265 0.40279
 N72 N -0.00082 0.49957 0.42868
 C73 C 0.01082 0.53762 0.40385
 C74 C 0.00272 0.41597 0.41510
 C75 C -0.00846 0.40410 0.46155
 C76 C -0.03324 0.36503 0.47490
 C77 C -0.03452 0.36507 0.52253
 C78 C -0.01036 0.40409 0.53711
 N79 N 0.00459 0.42827 0.49969
 C80 C -0.00067 0.41557 0.58396
 C81 C 0.00934 0.46194 0.59673
 C82 C 0.03241 0.47539 0.63674
 C83 C 0.03240 0.52291 0.63714
 C84 C 0.00926 0.53700 0.59738
 N85 N -0.00423 0.49964 0.57229
 C86 C -0.00039 0.58363 0.58514
 C87 C -0.01103 0.59551 0.53860
 C88 C -0.03367 0.63559 0.52440
 C89 C -0.03341 0.63551 0.47669
 C90 C -0.01128 0.59509 0.46312
 N91 N 0.00179 0.57063 0.50096
 C92 C -0.00023 0.58334 0.41695
 H93 H 0.04415 0.54776 0.33530
 H94 H 0.04711 0.45631 0.33447
 H95 H 0.02298 0.54135 0.50106
 H96 H -0.04908 0.33928 0.45262
 H97 H -0.05144 0.33930 0.54399
 H98 H 0.04811 0.45326 0.66268
 H99 H 0.04820 0.54458 0.66341
 H100 H -0.04758 0.66229 0.45452
 H101 H 0.02655 0.45704 0.50032
 H102 H -0.04851 0.66235 0.54611
 O103 O -0.11921 1.00158 -0.06276
 O104 O 0.11922 0.99837 -0.06298
 O105 O -0.00164 1.06261 -0.11953
 O106 O 0.00152 0.93711 -0.11935
 O107 O 0.00152 0.88061 -0.06275
 O108 O -0.00156 1.11927 -0.06312
 O109 O 0.06268 0.99828 -0.11949
 O110 O -0.06279 1.00153 -0.11937
 Zr111 Zr -0.00002 0.99992 -0.08170
 O112 O 0.04205 0.95787 -0.04220
 O113 O -0.04200 1.04207 -0.04224
 C114 C -0.10571 1.00236 -0.10573
 C115 C 0.10563 0.99753 -0.10592
 C116 C -0.00240 1.10560 -0.10606
 C117 C 0.00228 0.89416 -0.10573
 H118 H 0.06172 1.06170 -0.06199
 O119 O 0.04192 1.04192 -0.04214
 H120 H -0.06174 0.93821 -0.06171
 O121 O -0.04189 0.95802 -0.04195
 O122 O 0.11937 1.00175 0.06243
 O123 O -0.11911 0.99841 0.06265
 O124 O 0.06290 1.11937 0.00130
 O125 O 0.06274 0.88072 -0.00165
 O126 O -0.06282 0.88070 0.00176
 O127 O -0.06264 1.11932 -0.00187
 O128 O 0.00185 1.06286 0.11913
 O129 O -0.00147 0.93740 0.11930
 O130 O 0.00181 1.11940 0.06257
 O131 O -0.00159 0.88077 0.06286
 O132 O 0.11933 1.06280 0.00131
 O133 O -0.11912 1.06270 -0.00176
 O134 O -0.11921 0.93729 0.00171
 O135 O 0.11925 0.93732 -0.00180
 O136 O 0.06300 1.00180 0.11910
 O137 O -0.06262 0.99848 0.11922
 Zr138 Zr 0.08155 1.00004 -0.00022
 Zr139 Zr -0.08141 1.00000 -0.00007
 Zr140 Zr 0.00011 1.08164 -0.00023
 Zr141 Zr -0.00000 0.91840 -0.00000
 Zr142 Zr 0.00015 1.00010 0.08146
 O143 O -0.04198 0.95795 0.04207
 O144 O 0.04219 1.04218 0.04187
 C145 C 0.10591 1.00259 0.10541
 C146 C -0.10556 0.99766 0.10561
 C147 C 0.10583 1.10577 0.00207
 C148 C 0.10569 0.89434 -0.00251
 C149 C -0.10574 0.89433 0.00258
 C150 C -0.10558 1.10567 -0.00263
 C151 C 0.00265 1.10582 0.10555
 C152 C -0.00232 0.89442 0.10581
 H153 H -0.06153 1.06179 0.06157
 O154 O -0.04175 1.04198 0.04178
 H155 H 0.06177 0.93838 0.06162
 O156 O 0.04196 0.95815 0.04181
 C157 C 0.31253 1.00333 0.31000
 C158 C 0.35492 0.98134 0.30164
 C159 C 0.38902 0.98025 0.33610
 C160 C 0.38123 1.00104 0.37976
 C161 C 0.33837 1.02343 0.38741
 C162 C 0.30439 1.02446 0.35287
 C163 C 0.27722 1.00398 0.27473
 C164 C 0.24750 1.00439 0.24532
 C165 C 0.21197 1.00464 0.21027
 C166 C 0.22416 1.00455 0.16330
 C167 C 0.18971 1.00416 0.12919
 C168 C 0.14246 1.00379 0.14162
 C169 C 0.13061 1.00416 0.18903
 C170 C 0.16516 1.00456 0.22306
 H171 H 0.36152 0.96473 0.26857
 H172 H 0.42108 0.96202 0.32902
 H173 H 0.33146 1.04116 0.41981
 H174 H 0.27180 1.04189 0.35958
 H175 H 0.26031 1.00462 0.15303
 H176 H 0.20018 1.00394 0.09310
 H177 H 0.09466 1.00394 0.19991
 H178 H 0.15536 1.00463 0.25935
 C179 C -0.31179 0.99713 0.31056
 C180 C -0.35473 0.97598 0.30265
 C181 C -0.38884 0.97645 0.33711
 C182 C -0.38050 0.99795 0.38033
 C183 C -0.33712 1.01957 0.38748
 C184 C -0.30313 1.01905 0.35294
 C185 C -0.27655 0.99642 0.27522
 C186 C -0.24689 0.99598 0.24576
 C187 C -0.21143 0.99570 0.21066
 C188 C -0.22369 0.99530 0.16371
 C189 C -0.18931 0.99567 0.12954
 C190 C -0.14204 0.99649 0.14189
 C191 C -0.13010 0.99661 0.18928
 C192 C -0.16459 0.99624 0.22337
 H193 H -0.36177 0.95886 0.26993
 H194 H -0.42138 0.95887 0.33039
 H195 H -0.32980 1.03793 0.41944
 H196 H -0.27014 1.03593 0.35925
 H197 H -0.25986 0.99486 0.15349
 H198 H -0.19984 0.99549 0.09347
 H199 H -0.09414 0.99720 0.20011
 H200 H -0.15473 0.99656 0.25965
 C201 C -0.31164 1.00410 -0.31093
 C202 C -0.34910 0.97333 -0.30756
 C203 C -0.38326 0.97275 -0.34198
 C204 C -0.38024 1.00300 -0.38007
 C205 C -0.34262 1.03383 -0.38324
 C206 C -0.30847 1.03435 -0.34882
 C207 C -0.27635 1.00448 -0.27566
 C208 C -0.24674 1.00468 -0.24614
 C209 C -0.21137 1.00471 -0.21094
 C210 C -0.22375 1.00446 -0.16402
 C211 C -0.18943 1.00393 -0.12977
 C212 C -0.14214 1.00359 -0.14203
 C213 C -0.13011 1.00410 -0.18940
 C214 C -0.16452 1.00463 -0.22356
 H215 H -0.35184 0.94974 -0.27840
 H216 H -0.41195 0.94863 -0.33909
 H217 H -0.33982 1.05746 -0.41234
 H218 H -0.27963 1.05829 -0.35176
 H219 H -0.25994 1.00452 -0.15389
 H220 H -0.20003 1.00361 -0.09372
 H221 H -0.09413 1.00392 -0.20016
 H222 H -0.15458 1.00484 -0.25981
 C223 C 0.31111 0.99794 -0.31153
 C224 C 0.34919 0.96794 -0.30879
 C225 C 0.38335 0.96888 -0.34318
 C226 C 0.37973 0.99987 -0.38062
 C227 C 0.34152 1.02995 -0.38313
 C228 C 0.30736 1.02896 -0.34874
 C229 C 0.27591 0.99696 -0.27619
 C230 C 0.24637 0.99632 -0.24662
 C231 C 0.21108 0.99584 -0.21135
 C232 C 0.16420 0.99602 -0.22387
 C233 C 0.12986 0.99628 -0.18964
 C234 C 0.14199 0.99640 -0.14230
 C235 C 0.18930 0.99591 -0.13013
 C236 C 0.22355 0.99565 -0.16445
 H237 H 0.35241 0.94382 -0.28013
 H238 H 0.41254 0.94536 -0.34079
 H239 H 0.33827 1.05417 -0.41169
 H240 H 0.27807 1.05235 -0.35116
 H241 H 0.15418 0.99617 -0.26011
 H242 H 0.09386 0.99660 -0.20034
 H243 H 0.19997 0.99593 -0.09410
 H244 H 0.25976 0.99550 -0.15439
 C245 C 0.31175 1.31127 0.00241
 C246 C 0.32553 1.33280 0.04371
 C247 C 0.35968 1.36725 0.04298
 C248 C 0.38048 1.38054 0.00087
 C249 C 0.36643 1.35872 -0.04047
 C250 C 0.33228 1.32427 -0.03965
 C251 C 0.27645 1.27596 0.00314
 C252 C 0.24684 1.24640 0.00360
 C253 C 0.21148 1.21114 0.00391
 C254 C 0.16462 1.22368 0.00381
 C255 C 0.13022 1.18947 0.00347
 C256 C 0.14227 1.14212 0.00318
 C257 C 0.18957 1.12993 0.00356
 C258 C 0.22387 1.16423 0.00390
 H259 H 0.30988 1.32296 0.07644
 H260 H 0.37014 1.38336 0.07530
 H261 H 0.38160 1.36870 -0.07339
 H262 H 0.32178 1.30790 -0.07182
 H263 H 0.15466 1.25992 0.00382
 H264 H 0.09424 1.20019 0.00324
 H265 H 0.20017 1.09390 0.00341
 H266 H 0.26006 1.15415 0.00398
 C267 C 0.31126 0.68888 -0.00255
 C268 C 0.35230 0.69597 0.02233
 C269 C 0.38631 0.66146 0.02353
 C270 C 0.37979 0.61907 -0.00009
 C271 C 0.33828 0.61261 -0.02525
 C272 C 0.30436 0.64720 -0.02638
 C273 C 0.27610 0.72426 -0.00341
 C274 C 0.24656 0.75383 -0.00395
 C275 C 0.21124 0.78906 -0.00433
 C276 C 0.22368 0.83598 -0.00424
 C277 C 0.18940 0.87025 -0.00392
 C278 C 0.14209 0.85802 -0.00365
 C279 C 0.13000 0.81066 -0.00403
 C280 C 0.16437 0.77648 -0.00435
 H281 H 0.35792 0.72808 0.04105
 H282 H 0.41732 0.66750 0.04389
 H283 H 0.33245 0.58112 -0.04493
 H284 H 0.27281 0.64146 -0.04599
 H285 H 0.25988 0.84610 -0.00422
 H286 H 0.20005 0.90629 -0.00369
 H287 H 0.09400 0.79991 -0.00389
 H288 H 0.15436 0.74024 -0.00443
 C289 C -0.31211 0.68930 0.00432
 C290 C -0.34848 0.69076 0.03650
 C291 C -0.38262 0.65628 0.03622
 C292 C -0.38062 0.61999 0.00378
 C293 C -0.34427 0.61890 -0.02864
 C294 C -0.31014 0.65337 -0.02830
 C295 C -0.27678 0.72458 0.00478
 C296 C -0.24710 0.75406 0.00502
 C297 C -0.21163 0.78921 0.00508
 C298 C -0.22389 0.83615 0.00527
 C299 C -0.18950 0.87035 0.00470
 C300 C -0.14223 0.85804 0.00390
 C301 C -0.13031 0.81066 0.00398
 C302 C -0.16480 0.77654 0.00454
 H303 H -0.35036 0.71845 0.06184
 H304 H -0.41047 0.65768 0.06139
 H305 H -0.34240 0.59134 -0.05412
 H306 H -0.28222 0.65198 -0.05342
 H307 H -0.26005 0.84632 0.00569
 H308 H -0.20002 0.90641 0.00473
 H309 H -0.09435 0.79986 0.00342
 H310 H -0.15494 0.74028 0.00439
 C311 C -0.31188 1.31037 -0.00382
 C312 C -0.34709 1.30880 0.02963
 C313 C -0.38134 1.34309 0.03045
 C314 C -0.38063 1.37924 -0.00220
 C315 C -0.34535 1.38057 -0.03577
 C316 C -0.31111 1.34629 -0.03653
 C317 C -0.27644 1.27526 -0.00441
 C318 C -0.24674 1.24587 -0.00475
 C319 C -0.21132 1.21074 -0.00490
 C320 C -0.16447 1.22343 -0.00482
 C321 C -0.13003 1.18932 -0.00433
 C322 C -0.14203 1.14194 -0.00388
 C323 C -0.18932 1.12961 -0.00424
 C324 C -0.22365 1.16380 -0.00472
 H325 H -0.34799 1.28116 0.05510
 H326 H -0.40829 1.34162 0.05658
 H327 H -0.34442 1.40817 -0.06126
 H328 H -0.28404 1.34781 -0.06256
 H329 H -0.15455 1.25970 -0.00496
 H330 H -0.09405 1.20014 -0.00412
 H331 H -0.19989 1.09355 -0.00396
 H332 H -0.25984 1.15361 -0.00479
 C333 C 0.00355 1.31106 0.31168
 C334 C -0.01698 1.35401 0.30252
 C335 C -0.01746 1.38855 0.33653
 C336 C 0.00283 1.38084 0.38045
 C337 C 0.02296 1.33708 0.38927
 C338 C 0.02339 1.30262 0.35514
 C339 C 0.00416 1.27568 0.27645
 C340 C 0.00454 1.24617 0.24681
 C341 C 0.00475 1.21100 0.21136
 C342 C 0.00433 1.22365 0.16449
 C343 C 0.00391 1.18951 0.13002
 C344 C 0.00386 1.14214 0.14201
 C345 C 0.00454 1.12985 0.18932
 C346 C 0.00497 1.16407 0.22369
 H347 H -0.03285 1.36076 0.26912
 H348 H -0.03481 1.42095 0.32877
 H349 H 0.03953 1.32989 0.42223
 H350 H 0.03944 1.26947 0.36259
 H351 H 0.00416 1.25991 0.15456
 H352 H 0.00344 1.20030 0.09403
 H353 H 0.00458 1.09380 0.19991
 H354 H 0.00530 1.15389 0.25988
 C355 C -0.00352 1.31063 -0.31253
 C356 C 0.01638 1.30159 -0.35583
 C357 C 0.01725 1.33603 -0.39000
 C358 C -0.00176 1.38035 -0.38144
 C359 C -0.02187 1.38875 -0.33755
 C360 C -0.02269 1.35423 -0.30351
 C361 C -0.00405 1.27530 -0.27723
 C362 C -0.00436 1.24581 -0.24755
 C363 C -0.00452 1.21066 -0.21206
 C364 C -0.00442 1.16371 -0.22431
 C365 C -0.00398 1.12952 -0.18990
 C366 C -0.00359 1.14186 -0.14260
 C367 C -0.00395 1.18925 -0.13068
 C368 C -0.00439 1.22335 -0.16520
 H369 H 0.03155 1.26800 -0.36311
 H370 H 0.03402 1.32833 -0.42272
 H371 H -0.03808 1.42175 -0.32984
 H372 H -0.03845 1.36152 -0.27017
 H373 H -0.00452 1.15350 -0.26049
 H374 H -0.00377 1.09346 -0.20042
 H375 H -0.00372 1.20008 -0.09471
 H376 H -0.00448 1.25962 -0.15533
 C377 C 0.00207 0.68829 -0.31121
 C378 C -0.01836 0.64528 -0.30190
 C379 C -0.01926 0.61081 -0.33598
 C380 C 0.00033 0.61872 -0.38019
 C381 C 0.02074 0.66240 -0.38900
 C382 C 0.02158 0.69678 -0.35480
 C383 C 0.00292 0.72371 -0.27603
 C384 C 0.00348 0.75333 -0.24650
 C385 C 0.00390 0.78864 -0.21121
 C386 C 0.00372 0.77616 -0.16429
 C387 C 0.00346 0.81042 -0.12995
 C388 C 0.00334 0.85776 -0.14211
 C389 C 0.00380 0.86989 -0.18946
 C390 C 0.00406 0.83554 -0.22370
 H391 H -0.03385 0.63844 -0.26833
 H392 H -0.03639 0.57830 -0.32807
 H393 H 0.03722 0.66962 -0.42200
 H394 H 0.03770 0.72991 -0.36231
 H395 H 0.00359 0.73994 -0.15424
 H396 H 0.00316 0.79974 -0.09393
 H397 H 0.00377 0.90590 -0.20015
 H398 H 0.00421 0.84558 -0.25994
 C399 C -0.00309 0.68935 0.31218
 C400 C -0.03148 0.65014 0.30795
 C401 C -0.03065 0.61570 0.34210
 C402 C -0.00133 0.62011 0.38079
 C403 C 0.02697 0.65960 0.38492
 C404 C 0.02608 0.69404 0.35076
 C405 C -0.00370 0.72461 0.27683
 C406 C -0.00408 0.75410 0.24715
 C407 C -0.00430 0.78927 0.21170
 C408 C -0.00437 0.77662 0.16483
 C409 C -0.00398 0.81076 0.13035
 C410 C -0.00347 0.85813 0.14232
 C411 C -0.00367 0.87043 0.18962
 C412 C -0.00406 0.83621 0.22400
 H413 H -0.05420 0.64618 0.27827
 H414 H -0.05288 0.58560 0.33845
 H415 H 0.04986 0.66353 0.41446
 H416 H 0.04820 0.72423 0.35435
 H417 H -0.00457 0.74036 0.15493
 H418 H -0.00389 0.79996 0.09437
 H419 H -0.00334 0.90648 0.20018
 H420 H -0.00401 0.84638 0.26019
   
