data_POSCAR
  _audit_creation_date              2014-09-24
  _audit_creation_method            'ToBaCCo'
  _symmetry_space_group_name_H-M    'P1'
  _symmetry_Int_Tables_number       1
  _symmetry_cell_setting            triclinic
  loop_
  _symmetry_equiv_pos_as_xyz
 x,y,z
_cell_length_a 27.3601
_cell_length_b 26.9634
_cell_length_c 26.5062
_cell_angle_alpha 90.147300
_cell_angle_beta 89.862100
_cell_angle_gamma 90.180500
loop_
  _atom_site_label
  _atom_site_type_symbol
  _atom_site_fract_x
  _atom_site_fract_y
  _atom_site_fract_z
N1 N 0.18423 1.16193 0.17687
 N2 N 0.83634 0.81744 0.17780
 N3 N 0.75732 1.24074 -0.23918
 N4 N 0.18043 0.82267 -0.15807
 C5 C 0.58273 1.07486 -0.01924
 H6 H 0.58556 1.07494 0.02147
 C7 C 0.61269 1.10600 -0.04792
 H8 H 0.63861 1.13034 -0.02931
 C9 C 0.54645 1.04209 -0.09344
 H10 H 0.52140 1.01637 -0.11107
 C11 C 0.57575 1.07262 -0.12352
 H12 H 0.57278 1.07071 -0.16423
 N13 N 0.55027 1.04393 -0.04226
 C14 C 0.44358 1.00907 0.07457
 H15 H 0.44726 0.96914 0.07510
 C16 C 0.40667 1.03176 0.10261
 H17 H 0.38202 1.00925 0.12505
 C18 C 0.46860 1.08677 0.04135
 H19 H 0.49152 1.10775 0.01587
 C20 C 0.43193 1.11097 0.06873
 H21 H 0.42699 1.15059 0.06459
 Zn22 Zn 0.51352 1.00064 -0.00072
 N23 N 0.47319 1.03658 0.04421
 C24 C 0.56225 0.96303 0.08579
 N25 N 0.55846 0.96071 0.03463
 C26 C 0.58968 0.93276 0.00654
 C27 C 0.62685 0.90593 0.02982
 C28 C 0.59900 0.93677 0.11059
 C29 C 0.43520 0.98717 -0.06496
 C30 C 0.39731 0.96201 -0.08912
 C31 C 0.43223 0.88447 -0.06150
 C32 C 0.46977 0.91117 -0.03791
 N33 N 0.47021 0.96164 -0.03970
 H34 H 0.53789 0.98644 0.10730
 H35 H 0.58635 0.93234 -0.03412
 H36 H 0.65223 0.88466 0.00706
 H37 H 0.60261 0.93974 0.15118
 H38 H 0.43584 1.02729 -0.06472
 H39 H 0.36881 0.98281 -0.10781
 H40 H 0.43100 0.84443 -0.05850
 H41 H 0.49716 0.89169 -0.01642
 C42 C 0.40015 1.08301 0.09889
 C43 C 0.60923 1.10476 -0.10054
 C44 C 0.39535 0.91028 -0.08674
 C45 C 0.63183 0.90834 0.08226
 C46 C -0.00915 0.55755 1.07097
 H47 H 0.03024 0.55411 1.07136
 C48 C -0.03169 0.59482 1.09913
 H49 H -0.00963 0.61998 1.12153
 C50 C -0.08567 0.53152 1.03812
 H51 H -0.10629 0.50808 1.01277
 C52 C -0.10970 0.56850 1.06564
 H53 H -0.14882 0.57312 1.06175
 N54 N -0.03616 0.52725 1.04077
 C55 C 0.06571 0.40860 1.00306
 H56 H 0.06564 0.41163 0.96237
 C57 C 0.09254 0.37118 1.02635
 H58 H 0.11330 0.34528 1.00357
 C59 C 0.03688 0.43719 1.08244
 H60 H 0.01412 0.46216 1.10401
 C61 C 0.06317 0.40021 1.10725
 H62 H 0.06086 0.39700 1.14792
 Zn63 Zn -0.00081 0.48619 0.99587
 N64 N 0.03853 0.44056 1.03122
 C65 C 0.08758 0.52987 0.95882
 N66 N 0.03785 0.52990 0.95684
 C67 C 0.01312 0.56572 0.93156
 C68 C 0.03837 0.60403 0.90765
 C69 C 0.11433 0.56778 0.93548
 C70 C -0.07390 0.41593 0.97785
 C71 C -0.10511 0.38579 0.94951
 C72 C -0.07328 0.42360 0.87360
 C73 C -0.04264 0.45308 0.90337
 N74 N -0.04372 0.44895 0.95455
 H75 H 0.10645 0.50188 0.98032
 H76 H -0.02643 0.56547 0.93167
 H77 H 0.01822 0.63324 0.88901
 H78 H 0.15379 0.56864 0.93869
 H79 H -0.07341 0.41289 1.01854
 H80 H -0.12891 0.35949 0.96836
 H81 H -0.07206 0.42687 0.83289
 H82 H -0.01756 0.47862 0.88550
 C83 C 0.09093 0.36671 1.07887
 C84 C -0.08229 0.60095 1.09571
 C85 C -0.10473 0.38962 0.89691
 C86 C 0.08936 0.60554 0.91030
 C87 C 1.06131 -0.00318 0.59304
 H88 H 1.06164 0.03683 0.59008
 C89 C 1.08761 -0.02643 0.63129
 H90 H 1.10839 -0.00431 0.65789
 C91 C 1.03209 -0.08088 0.56339
 H92 H 1.00940 -0.10183 0.53768
 C93 C 1.05784 -0.10561 0.60116
 H94 H 1.05521 -0.14559 0.60420
 N95 N 1.03423 -0.03053 0.56011
 C96 C 1.01102 0.06745 0.43228
 H97 H 0.97148 0.06718 0.43177
 C98 C 1.03687 0.09138 0.39402
 H99 H 1.01720 0.10984 0.36405
 C100 C 1.08493 0.04096 0.47019
 H101 H 1.10337 0.01987 0.49901
 C102 C 1.11227 0.06435 0.43237
 H103 H 1.15176 0.06158 0.43237
 Zn104 Zn 0.99575 0.00450 0.51311
 N105 N 1.03519 0.04262 0.46915
 C106 C 0.95475 0.09588 0.54607
 N107 N 0.95278 0.04560 0.55031
 C108 C 0.92186 0.02324 0.58356
 C109 C 0.89088 0.05168 0.61391
 C110 C 0.92440 0.12570 0.57573
 C111 C 0.98804 -0.06938 0.44062
 C112 C 0.96589 -0.09764 0.40289
 C113 C 0.88754 -0.06488 0.42868
 C114 C 0.91120 -0.03725 0.46616
 N115 N 0.96068 -0.03958 0.47096
 H116 H 0.98042 0.11301 0.52042
 H117 H 0.92165 -0.01676 0.58673
 H118 H 0.86655 0.03360 0.64046
 H119 H 0.92641 0.16569 0.57243
 H120 H 1.02740 -0.06957 0.44450
 H121 H 0.98821 -0.11989 0.37779
 H122 H 0.84842 -0.06144 0.42370
 H123 H 0.89030 -0.01227 0.48965
 C124 C 1.08790 0.08924 0.39363
 C125 C 1.08557 -0.07807 0.63560
 C126 C 0.91531 -0.09473 0.39629
 C127 C 0.89227 0.10338 0.61001
 C128 C 0.16828 0.20745 1.15921
 C129 C 0.15304 0.24607 1.14277
 C130 C 0.13319 0.28968 1.12195
 C131 C 0.11469 0.32556 1.10294
 C132 C -0.15098 0.76930 1.16486
 C133 C -0.13842 0.72829 1.15214
 C134 C -0.12130 0.68192 1.13490
 C135 C -0.10463 0.64395 1.11815
 C136 C -0.21571 0.27107 0.78796
 C137 C -0.19075 0.29884 0.81285
 C138 C -0.16119 0.33090 0.84198
 C139 C -0.13563 0.35789 0.86695
 C140 C 0.16674 0.77429 0.85278
 C141 C 0.15294 0.73309 0.86342
 C142 C 0.13377 0.68656 0.87777
 C143 C 0.11488 0.64853 0.89169
 C144 C 1.16904 0.15004 0.22531
 C145 C 1.15411 0.13851 0.26649
 C146 C 1.13385 0.12316 0.31293
 C147 C 1.11419 0.10852 0.35083
 C148 C 1.16355 -0.15929 0.79625
 C149 C 1.14775 -0.14252 0.75746
 C150 C 1.12762 -0.12138 0.71355
 C151 C 1.10913 -0.10218 0.67732
 C152 C 0.84846 -0.16811 0.22645
 C153 C 0.86052 -0.15414 0.26786
 C154 C 0.87707 -0.13559 0.31465
 C155 C 0.89333 -0.11794 0.35294
 C156 C 0.78363 0.21333 0.73005
 C157 C 0.80797 0.18816 0.70191
 C158 C 0.83683 0.15868 0.66946
 C159 C 0.86187 0.13348 0.64213
 C160 C 0.23224 1.15006 0.16521
 C161 C 0.27315 1.13814 0.15343
 C162 C 0.31944 1.12162 0.13703
 C163 C 0.35732 1.10525 0.12083
 C164 C 0.72724 1.21415 -0.21147
 C165 C 0.69968 1.18960 -0.18604
 C166 C 0.66779 1.16052 -0.15629
 C167 C 0.64089 1.13533 -0.13088
 C168 C 0.22830 0.83526 -0.14652
 C169 C 0.26908 0.84819 -0.13527
 C170 C 0.31517 0.86653 -0.12023
 C171 C 0.35284 0.88496 -0.10581
 C172 C 0.79089 0.83290 0.16110
 C173 C 0.75231 0.84767 0.14530
 C174 C 0.70874 0.86695 0.12495
 C175 C 0.67290 0.88500 0.10617
   
