data_POSCAR
  _audit_creation_date              2014-09-24
  _audit_creation_method            'ToBaCCo'
  _symmetry_space_group_name_H-M    'P1'
  _symmetry_Int_Tables_number       1
  _symmetry_cell_setting            triclinic
  loop_
  _symmetry_equiv_pos_as_xyz
 x,y,z
_cell_length_a 38.0843
_cell_length_b 38.1196
_cell_length_c 38.1688
_cell_angle_alpha 89.940700
_cell_angle_beta 89.955000
_cell_angle_gamma 89.921800
loop_
  _atom_site_label
  _atom_site_type_symbol
  _atom_site_fract_x
  _atom_site_fract_y
  _atom_site_fract_z
C1 C 0.32368 0.36503 1.36889
 C2 C 0.33688 0.38184 1.33897
 C3 C 0.36678 0.36863 1.32209
 C4 C 0.38355 0.33861 1.33515
 C5 C 0.37041 0.32173 1.36507
 C6 C 0.34048 0.33499 1.38193
 H7 H 0.32379 0.40493 1.32862
 H8 H 0.40652 0.32827 1.32185
 H9 H 0.33011 0.32179 1.40494
 C10 C 1.17792 0.63474 0.87075
 C11 C 1.16096 0.66466 0.88384
 C12 C 1.13095 0.67775 0.86707
 C13 C 1.11785 0.66088 0.83723
 C14 C 1.13474 0.63099 0.82411
 C15 C 1.16475 0.61791 0.84088
 H16 H 1.17123 0.67795 0.90677
 H17 H 1.09479 0.67119 0.82408
 H18 H 1.17795 0.59491 0.83047
 C19 C 0.67749 -0.13341 0.12992
 C20 C 0.66424 -0.11668 0.15985
 C21 C 0.63425 -0.12983 0.17659
 C22 C 0.61747 -0.15969 0.16337
 C23 C 0.63066 -0.17645 0.13347
 C24 C 0.66065 -0.16329 0.11673
 H25 H 0.67735 -0.09372 0.17033
 H26 H 0.59443 -0.17005 0.17649
 H27 H 0.67098 -0.17650 0.09375
 C28 C -0.17954 1.13270 -0.36962
 C29 C -0.16650 1.11598 -0.33956
 C30 C -0.13658 1.12910 -0.32275
 C31 C -0.11966 1.15890 -0.33601
 C32 C -0.13264 1.17564 -0.36602
 C33 C -0.16255 1.16253 -0.38284
 H34 H -0.17972 1.09307 -0.32906
 H35 H -0.09668 1.16924 -0.32283
 H36 H -0.17272 1.17572 -0.40591
 C37 C 0.67841 0.63503 0.62958
 C38 C 0.66498 0.61849 0.65951
 C39 C 0.63496 0.63186 0.67603
 C40 C 0.61833 0.66178 0.66258
 C41 C 0.63173 0.67839 0.63264
 C42 C 0.66178 0.66495 0.61613
 H43 H 0.67802 0.59550 0.67009
 H44 H 0.59525 0.67225 0.67561
 H45 H 0.67241 0.67788 0.59311
 C46 C 0.82356 0.36662 0.13169
 C47 C 0.84009 0.33661 0.11837
 C48 C 0.86999 0.32301 0.13497
 C49 C 0.88337 0.33956 0.16491
 C50 C 0.86684 0.36959 0.17824
 C51 C 0.83696 0.38311 0.16161
 H52 H 0.82947 0.32372 0.09536
 H53 H 0.90634 0.32897 0.17801
 H54 H 0.82400 0.40617 0.17210
 C55 C 0.32058 0.13478 0.86876
 C56 C 0.33729 0.16468 0.88207
 C57 C 0.36728 0.17797 0.86545
 C58 C 0.38061 0.16134 0.83555
 C59 C 0.36396 0.13146 0.82221
 C60 C 0.33397 0.11816 0.83882
 H61 H 0.32686 0.17778 0.90507
 H62 H 0.40366 0.17179 0.82252
 H63 H 0.32097 0.09518 0.82827
 C64 C 0.17762 0.86538 0.36951
 C65 C 0.16113 0.83532 0.38282
 C66 C 0.13120 0.82190 0.36627
 C67 C 0.11771 0.83857 0.33644
 C68 C 0.13415 0.86861 0.32311
 C69 C 0.16408 0.88202 0.33965
 H70 H 0.17169 0.82219 0.40575
 H71 H 0.09472 0.82801 0.32346
 H72 H 0.17692 0.90513 0.32909
 Zn73 Zn -0.02179 1.00763 0.04332
 Zn74 Zn 0.04208 0.97999 0.00725
 Zn75 Zn -0.02843 0.97309 -0.02687
 Zn76 Zn 0.00572 1.04361 -0.02055
 O77 O -0.00064 1.00105 0.00075
 O78 O 0.00397 0.99153 0.07916
 O79 O 0.04529 0.93867 -0.01462
 O80 O -0.06821 0.95990 -0.00528
 O81 O 0.05141 0.97108 0.05238
 O82 O -0.06311 0.98565 0.04652
 O83 O -0.00679 0.93329 -0.03996
 O84 O -0.01647 1.04658 -0.06172
 O85 O 0.07792 1.00572 -0.00899
 O86 O -0.04177 0.99447 -0.06666
 O87 O 0.05090 1.05289 -0.02972
 O88 O -0.01034 1.07957 0.00510
 O89 O -0.03073 1.05284 0.05251
 C90 C 0.03377 0.97671 0.07998
 C91 C 0.02374 0.92174 -0.03337
 C92 C -0.07990 0.96666 0.02510
 C93 C -0.03531 1.02492 -0.07840
 C94 C 0.07863 1.03538 -0.02400
 C95 C -0.02508 1.08045 0.03487
 Zn96 Zn 0.49255 -0.04289 0.47853
 Zn97 Zn 0.52007 -0.00698 0.54229
 Zn98 Zn 0.52695 0.02751 0.47201
 Zn99 Zn 0.45636 0.02088 0.50616
 O100 O 0.49901 -0.00034 0.49971
 O101 O 0.50875 -0.07886 0.50412
 O102 O 0.56136 0.01500 0.54549
 O103 O 0.54023 0.00608 0.43224
 O104 O 0.52913 -0.05219 0.55148
 O105 O 0.51459 -0.04587 0.43728
 O106 O 0.56674 0.04061 0.49359
 O107 O 0.45330 0.06219 0.48414
 O108 O 0.49424 0.00905 0.57813
 O109 O 0.50545 0.06737 0.45882
 O110 O 0.44699 0.02982 0.55128
 O111 O 0.42045 -0.00480 0.49008
 O112 O 0.44734 -0.05214 0.46961
 C113 C 0.52358 -0.07977 0.53382
 C114 C 0.57828 0.03390 0.52403
 C115 C 0.53355 -0.02431 0.42054
 C116 C 0.47494 0.07902 0.46534
 C117 C 0.46451 0.02401 0.57890
 C118 C 0.41966 -0.03454 0.47529
 Zn119 Zn 1.00883 0.45552 0.48026
 Zn120 Zn 1.04489 0.51916 0.50805
 Zn121 Zn 0.97452 0.52602 0.47357
 Zn122 Zn 0.98092 0.49155 0.54390
 O123 O 1.00226 0.49810 0.50142
 O124 O 1.05409 0.44620 0.47137
 O125 O 1.04807 0.56049 0.48611
 O126 O 0.96140 0.50461 0.43378
 O127 O 1.08088 0.49343 0.49200
 O128 O 0.98692 0.45255 0.43897
 O129 O 0.99611 0.56579 0.46047
 O130 O 0.93962 0.51369 0.54691
 O131 O 1.05402 0.52804 0.55322
 O132 O 0.93463 0.53929 0.49497
 O133 O 1.00655 0.50753 0.57985
 O134 O 0.97183 0.44637 0.55306
 O135 O 0.99257 0.41961 0.50585
 C136 C 1.08173 0.46374 0.47710
 C137 C 1.02657 0.57738 0.46719
 C138 C 0.96806 0.47417 0.42215
 C139 C 0.92287 0.53266 0.52535
 C140 C 1.03630 0.52234 0.58076
 C141 C 0.97754 0.41876 0.53547
 Zn142 Zn 0.47902 0.49404 0.95658
 Zn143 Zn 0.47245 0.52824 1.02700
 Zn144 Zn 0.50697 0.45786 1.02013
 Zn145 Zn 0.54286 0.52170 0.99242
 O146 O 0.50029 0.50049 0.99906
 O147 O 0.43767 0.51610 0.95364
 O148 O 0.45941 0.50663 1.06679
 O149 O 0.49085 0.42198 0.99449
 O150 O 0.43253 0.54145 1.00566
 O151 O 0.47002 0.44887 0.94736
 O152 O 0.48505 0.45466 1.06142
 O153 O 0.57889 0.49606 1.00848
 O154 O 0.49393 0.56805 1.04011
 O155 O 0.55224 0.44864 1.02899
 O156 O 0.54589 0.56299 1.01435
 O157 O 0.55206 0.53065 0.94725
 O158 O 0.50466 0.51014 0.92063
 C159 C 0.42083 0.53492 0.97526
 C160 C 0.46615 0.47615 1.07834
 C161 C 0.47583 0.42121 0.96489
 C162 C 0.57983 0.46632 1.02332
 C163 C 0.52434 0.57976 1.03332
 C164 C 0.53441 0.52497 0.91971
 C165 C 1.23589 0.40103 0.41410
 N166 N 1.23174 0.43577 0.42054
 N167 N 1.20184 0.44782 0.43418
 C168 C 1.17521 0.42549 0.44181
 N169 N 1.17938 0.39074 0.43542
 N170 N 1.20928 0.37869 0.42178
 C171 C 1.26763 0.38819 0.39837
 C172 C 1.29406 0.37737 0.38471
 C173 C 1.14252 0.43866 0.45515
 C174 C 1.11486 0.44996 0.46561
 C175 C 0.26606 0.59898 0.91540
 N176 N 0.26922 0.56469 0.92439
 N177 N 0.29925 0.55253 0.93761
 C178 C 0.32700 0.57429 0.94228
 N179 N 0.32381 0.60859 0.93335
 N180 N 0.29378 0.62075 0.92012
 C181 C 0.23419 0.61180 0.89995
 C182 C 0.20765 0.62255 0.88645
 C183 C 0.35983 0.56082 0.95494
 C184 C 0.38760 0.54919 0.96473
 C185 C -0.23444 0.90255 0.08534
 N186 N -0.23126 0.93693 0.07674
 N187 N -0.20127 0.94913 0.06350
 C188 C -0.17356 0.92732 0.05844
 N189 N -0.17676 0.89293 0.06700
 N190 N -0.20675 0.88072 0.08023
 C191 C -0.26628 0.88966 0.10078
 C192 C -0.29279 0.87885 0.11425
 C193 C -0.14078 0.94080 0.04570
 C194 C -0.11306 0.95242 0.03581
 C195 C 0.73262 0.09714 0.58526
 N196 N 0.72931 0.06279 0.57666
 N197 N 0.69939 0.05080 0.56315
 C198 C 0.67189 0.07280 0.55778
 N199 N 0.67521 0.10716 0.56632
 N200 N 0.70514 0.11915 0.57984
 C201 C 0.76437 0.10982 0.60095
 C202 C 0.79082 0.12051 0.61460
 C203 C 0.63915 0.05953 0.54481
 C204 C 0.61144 0.04805 0.53479
 C205 C 0.41503 0.23362 0.40095
 N206 N 0.42400 0.23055 0.43520
 N207 N 0.43718 0.20055 0.44745
 C208 C 0.44183 0.17272 0.42582
 N209 N 0.43292 0.17580 0.39156
 N210 N 0.41973 0.20581 0.37931
 C211 C 0.39961 0.26547 0.38805
 C212 C 0.38612 0.29200 0.37726
 C213 C 0.45449 0.13993 0.43937
 C214 C 0.46431 0.11220 0.45105
 C215 C 0.91376 0.26490 0.59752
 N216 N 0.92167 0.29130 0.61995
 N217 N 0.93544 0.32114 0.60803
 C218 C 0.94176 0.32546 0.57332
 N219 N 0.93390 0.29903 0.55089
 N220 N 0.92012 0.26920 0.56281
 C221 C 0.89791 0.23322 0.61023
 C222 C 0.88417 0.20685 0.62098
 C223 C 0.95526 0.35808 0.56029
 C224 C 0.96588 0.38570 0.54912
 C225 C 0.08485 0.76730 -0.09667
 N226 N 0.07949 0.79479 -0.11862
 N227 N 0.06602 0.82474 -0.10660
 C228 C 0.05746 0.82809 -0.07226
 N229 N 0.06277 0.80058 -0.05032
 N230 N 0.07625 0.77063 -0.06234
 C231 C 0.10053 0.73552 -0.10937
 C232 C 0.11418 0.70905 -0.12006
 C233 C 0.04452 0.86085 -0.05897
 C234 C 0.03452 0.88856 -0.04749
 C235 C 0.58488 0.73409 1.09694
 N236 N 0.57657 0.73076 1.06256
 N237 N 0.56320 0.70084 1.05047
 C238 C 0.55770 0.67336 1.07239
 N239 N 0.56596 0.67671 1.10678
 N240 N 0.57933 0.70663 1.11888
 C241 C 0.60045 0.76584 1.10973
 C242 C 0.61401 0.79228 1.12050
 C243 C 0.54488 0.64062 1.05903
 C244 C 0.53498 0.61292 1.04750
 C245 C 0.40307 0.41471 1.23262
 N246 N 0.38096 0.42039 1.20534
 N247 N 0.39293 0.43395 1.17544
 C248 C 0.42736 0.44228 1.17192
 N249 N 0.44946 0.43666 1.19922
 N250 N 0.43749 0.42310 1.22912
 C251 C 0.39039 0.39899 1.26437
 C252 C 0.37970 0.38534 1.29081
 C253 C 0.44059 0.45531 1.13920
 C254 C 0.45204 0.46536 1.11150
 C255 C 0.59758 -0.08437 0.26616
 N256 N 0.56317 -0.07580 0.26946
 N257 N 0.55100 -0.06255 0.29941
 C258 C 0.57288 -0.05743 0.32695
 N259 N 0.60731 -0.06595 0.32363
 N260 N 0.61948 -0.07920 0.29368
 C261 C 0.61044 -0.09981 0.23437
 C262 C 0.62125 -0.11327 0.20790
 C263 C 0.55944 -0.04472 0.35970
 C264 C 0.54782 -0.03489 0.38739
 C265 C -0.10004 1.08401 -0.23290
 N266 N -0.12154 1.08030 -0.20479
 N267 N -0.10925 1.06730 -0.17478
 C268 C -0.07509 1.05760 -0.17197
 N269 N -0.05361 1.06126 -0.20010
 N270 N -0.06590 1.07426 -0.23011
 C271 C -0.11296 1.09925 -0.26478
 C272 C -0.12374 1.11259 -0.29133
 C273 C -0.06145 1.04511 -0.13921
 C274 C -0.04970 1.03543 -0.11152
 C275 C 1.09842 0.58505 0.73474
 N276 N 1.06369 0.57842 0.73060
 N277 N 1.05177 0.56485 0.70073
 C278 C 1.07421 0.55748 0.67411
 N279 N 1.10894 0.56407 0.67828
 N280 N 1.12087 0.57763 0.70815
 C281 C 1.11112 0.60071 0.76645
 C282 C 1.12183 0.61431 0.79286
 C283 C 1.06116 0.54420 0.64146
 C284 C 1.04997 0.53379 0.61384
 C285 C 0.76824 0.59764 0.58476
 N286 N 0.77152 0.56312 0.57682
 N287 N 0.80154 0.55072 0.56377
 C288 C 0.82916 0.57246 0.55823
 N289 N 0.82586 0.60699 0.56612
 N290 N 0.79585 0.61940 0.57918
 C291 C 0.73637 0.61078 0.59997
 C292 C 0.70983 0.62181 0.61324
 C293 C 0.86195 0.55879 0.54566
 C294 C 0.88969 0.54704 0.53591
 C295 C 0.73407 0.40381 1.08616
 N296 N 0.72929 0.43873 1.08121
 N297 N 0.69938 0.45078 1.06764
 C298 C 0.67336 0.42829 1.05858
 N299 N 0.67817 0.39337 1.06348
 N300 N 0.70808 0.38131 1.07705
 C301 C 0.76583 0.39089 1.10174
 C302 C 0.79227 0.37993 1.11522
 C303 C 0.64065 0.44140 1.04527
 C304 C 0.61297 0.45263 1.03481
 C305 C 0.23265 1.09850 -0.08665
 N306 N 0.20591 1.12077 -0.07904
 N307 N 0.17601 1.10862 -0.06557
 C308 C 0.17196 1.07383 -0.05927
 N309 N 0.19872 1.05158 -0.06683
 N310 N 0.22862 1.06373 -0.08031
 C311 C 0.26442 1.11145 -0.10217
 C312 C 0.29090 1.12236 -0.11564
 C313 C 0.13930 1.06057 -0.04601
 C314 C 0.11168 1.04921 -0.03556
 C315 C 0.26550 -0.09799 0.41369
 N316 N 0.26976 -0.06310 0.41912
 N317 N 0.29968 -0.05084 0.43239
 C318 C 0.32623 -0.07311 0.44066
 N319 N 0.32194 -0.10800 0.43528
 N320 N 0.29202 -0.12026 0.42201
 C321 C 0.23373 -0.11107 0.39835
 C322 C 0.20728 -0.12209 0.38501
 C323 C 0.35891 -0.05976 0.45368
 C324 C 0.38656 -0.04837 0.46394
 C325 C 0.58690 -0.23381 0.59627
 N326 N 0.57770 -0.20782 0.61873
 N327 N 0.56405 -0.17794 0.60668
 C328 C 0.55917 -0.17317 0.57181
 N329 N 0.56832 -0.19919 0.54935
 N330 N 0.58197 -0.22906 0.56140
 C331 C 0.60256 -0.26554 0.60918
 C332 C 0.61610 -0.29198 0.62011
 C333 C 0.54575 -0.14051 0.55871
 C334 C 0.53520 -0.11287 0.54749
 C335 C 1.08641 0.73201 0.40321
 N336 N 1.07850 0.72852 0.43768
 N337 N 1.06539 0.69850 0.44989
 C338 C 1.05977 0.67108 0.42800
 N339 N 1.06763 0.67459 0.39351
 N340 N 1.08074 0.70461 0.38129
 C341 C 1.10164 0.76390 0.39026
 C342 C 1.11490 0.79046 0.37937
 C343 C 1.04711 0.63828 0.44144
 C344 C 1.03726 0.61055 0.45301
 C345 C -0.08607 1.23489 0.09845
 N346 N -0.08012 1.23080 0.06365
 N347 N -0.06699 1.20080 0.05137
 C348 C -0.05941 1.17400 0.07351
 N349 N -0.06532 1.17810 0.10832
 N350 N -0.07844 1.20810 0.12060
 C351 C -0.10129 1.26674 0.11153
 C352 C -0.11456 1.29327 0.12252
 C353 C -0.04653 1.14126 0.06012
 C354 C -0.03636 1.11357 0.04870
 C355 C 0.41296 0.26735 0.90230
 N356 N 0.42105 0.29381 0.87994
 N357 N 0.43462 0.32366 0.89199
 C358 C 0.44052 0.32793 0.92676
 N359 N 0.43247 0.30145 0.94911
 N360 N 0.41891 0.27160 0.93706
 C361 C 0.39735 0.23564 0.88943
 C362 C 0.38383 0.20923 0.87857
 C363 C 0.45383 0.36056 0.93990
 C364 C 0.46430 0.38816 0.95117
 C365 C 0.59769 0.58675 0.76558
 N366 N 0.56278 0.58128 0.76995
 N367 N 0.55055 0.56797 0.79986
 C368 C 0.57287 0.55972 0.82630
 N369 N 0.60779 0.56515 0.82191
 N370 N 0.62001 0.57845 0.79200
 C371 C 0.61074 0.60211 0.73381
 C372 C 0.62174 0.61546 0.70735
 C373 C 0.55956 0.54665 0.85898
 C374 C 0.54820 0.53635 0.88662
 C375 C 0.40110 0.08613 0.73277
 N376 N 0.37885 0.07864 0.70607
 N377 N 0.39105 0.06524 0.67620
 C378 C 0.42587 0.05890 0.67214
 N379 N 0.44811 0.06634 0.69885
 N380 N 0.43590 0.07974 0.72872
 C381 C 0.38809 0.10158 0.76449
 C382 C 0.37714 0.11499 0.79092
 C383 C 0.43920 0.04576 0.63952
 C384 C 0.45061 0.03542 0.61193
 C385 C 0.09687 0.91412 0.23379
 N386 N 0.06196 0.91969 0.22943
 N387 N 0.04980 0.93320 0.19959
 C388 C 0.07218 0.94157 0.17322
 N389 N 0.10709 0.93604 0.17760
 N390 N 0.11925 0.92254 0.20744
 C391 C 0.10987 0.89858 0.26548
 C392 C 0.12086 0.88510 0.29188
 C393 C 0.05893 0.95482 0.14060
 C394 C 0.04759 0.96524 0.11301
 C395 C 0.90394 0.41451 0.26781
 N396 N 0.88191 0.42068 0.29506
 N397 N 0.89416 0.43381 0.32500
 C398 C 0.92880 0.44118 0.32857
 N399 N 0.95082 0.43506 0.30130
 N400 N 0.93857 0.42193 0.27136
 C401 C 0.89095 0.39924 0.23602
 C402 C 0.88001 0.38594 0.20955
 C403 C 0.94227 0.45381 0.36131
 C404 C 0.95386 0.46360 0.38900
   
